#------------------------------------------------------------------------------
#$Date: 2022-04-09 00:59:22 +0300 (Sat, 09 Apr 2022) $
#$Revision: 274434 $
#$URL: file:///home/coder/svn-repositories/cod/cif/7/12/99/7129946.cif $
#------------------------------------------------------------------------------
#
# This file is available in the Crystallography Open Database (COD),
# http://www.crystallography.net/
#
# All data on this site have been placed in the public domain by the
# contributors.
#
data_7129946
loop_
_publ_author_name
'Li, Xia'
'Xie, Jialin'
'Du, Zhenglin'
'Yu, Ruiyang'
'Jia, Jianhua'
'Chen, Zhong'
'Zhu, Kelong'
_publ_section_title
;
 2D and 3D metal-organic frameworks constructed with a mechanically
 rigidified [3]rotaxane ligand.
;
_journal_name_full
'Chemical communications (Cambridge, England)'
_journal_paper_doi               10.1039/d2cc01198k
_journal_year                    2022
_chemical_formula_moiety         '0.5(C88 H72 N12 O16 Zn4), 2(C18 H36 O6)'
_chemical_formula_sum            'C80 H108 N6 O20 Zn2'
_chemical_formula_weight         1604.46
_space_group_crystal_system      monoclinic
_space_group_IT_number           14
_space_group_name_Hall           '-P 2ybc'
_space_group_name_H-M_alt        'P 1 21/c 1'
_atom_sites_solution_hydrogens   geom
_audit_creation_date             2021-11-23
_audit_creation_method
;
Olex2 1.2
(compiled 2018.05.29 svn.r3508 for OlexSys, GUI svn.r5506)
;
_audit_update_record
;
2022-02-26 deposited with the CCDC.	2022-03-25 downloaded from the CCDC.
;
_cell_angle_alpha                90
_cell_angle_beta                 93.536(2)
_cell_angle_gamma                90
_cell_formula_units_Z            2
_cell_length_a                   14.5555(8)
_cell_length_b                   14.5616(8)
_cell_length_c                   19.0686(10)
_cell_measurement_reflns_used    9890
_cell_measurement_temperature    100(2)
_cell_measurement_theta_max      52.648
_cell_measurement_theta_min      3.325
_cell_volume                     4033.9(4)
_computing_cell_refinement       'SAINT V8.40A (?, 2016)'
_computing_data_reduction        'SAINT V8.40A (?, 2016)'
_computing_molecular_graphics    'Olex2 (Dolomanov et al., 2009)'
_computing_publication_material  'Olex2 (Dolomanov et al., 2009)'
_computing_structure_refinement  'ShelXL (Sheldrick, 2015)'
_computing_structure_solution    'SHELXT 2014/5 (Sheldrick, 2014)'
_diffrn_ambient_temperature      100.0
_diffrn_measured_fraction_theta_full 0.960
_diffrn_measured_fraction_theta_max 0.960
_diffrn_measurement_device_type  'Bruker D8 VENTURE Metaljet PHOTON II'
_diffrn_radiation_type           GaK\a
_diffrn_radiation_wavelength     1.34138
_diffrn_reflns_av_R_equivalents  0.0394
_diffrn_reflns_av_unetI/netI     0.0415
_diffrn_reflns_Laue_measured_fraction_full 0.960
_diffrn_reflns_Laue_measured_fraction_max 0.960
_diffrn_reflns_limit_h_max       14
_diffrn_reflns_limit_h_min       -17
_diffrn_reflns_limit_k_max       17
_diffrn_reflns_limit_k_min       -17
_diffrn_reflns_limit_l_max       22
_diffrn_reflns_limit_l_min       -22
_diffrn_reflns_number            26671
_diffrn_reflns_point_group_measured_fraction_full 0.960
_diffrn_reflns_point_group_measured_fraction_max 0.960
_diffrn_reflns_theta_full        53.064
_diffrn_reflns_theta_max         53.064
_diffrn_reflns_theta_min         4.172
_exptl_absorpt_coefficient_mu    0.834
_exptl_absorpt_correction_T_max  0.7505
_exptl_absorpt_correction_T_min  0.6435
_exptl_absorpt_correction_type   multi-scan
_exptl_absorpt_process_details
;
SADABS-2016/2 (Bruker,2016/2) was used for absorption correction.
wR2(int) was 0.0674 before and 0.0508 after correction.
The Ratio of minimum to maximum transmission is 0.8574.
The \l/2 correction factor is Not present.
;
_exptl_crystal_density_diffrn    1.321
_exptl_crystal_description       block
_exptl_crystal_F_000             1700
_exptl_crystal_size_max          0.12
_exptl_crystal_size_mid          0.1
_exptl_crystal_size_min          0.1
_refine_diff_density_max         0.880
_refine_diff_density_min         -0.627
_refine_diff_density_rms         0.106
_refine_ls_extinction_method     none
_refine_ls_goodness_of_fit_ref   1.280
_refine_ls_hydrogen_treatment    constr
_refine_ls_matrix_type           full
_refine_ls_number_parameters     507
_refine_ls_number_reflns         6877
_refine_ls_number_restraints     64
_refine_ls_restrained_S_all      1.357
_refine_ls_R_factor_all          0.1308
_refine_ls_R_factor_gt           0.1022
_refine_ls_shift/su_max          0.006
_refine_ls_shift/su_mean         0.001
_refine_ls_structure_factor_coef Fsqd
_refine_ls_weighting_details
'w=1/[\s^2^(Fo^2^)+(0.2000P)^2^] where P=(Fo^2^+2Fc^2^)/3'
_refine_ls_weighting_scheme      calc
_refine_ls_wR_factor_gt          0.2897
_refine_ls_wR_factor_ref         0.3228
_reflns_Friedel_coverage         0.000
_reflns_number_gt                4754
_reflns_number_total             6877
_reflns_threshold_expression     'I > 2\s(I)'
_iucr_refine_instructions_details
;

    b190919a0823_0m.res created by SHELXL-2014/7

TITL b190919a0823_0m_a.res in P2(1)/c
REM Old TITL B190919A0823_0m in P21/c #14
REM SHELXT solution in P2(1)/c
REM R1 0.235, Rweak 0.011, Alpha 0.060, Orientation as input
REM Formula found by SHELXT: C35 N6 O8 Zn
CELL 1.34138 14.5555 14.5616 19.0686 90 93.536 90
ZERR 2 0.0008 0.0008 0.001 0 0.002 0
LATT 1
SYMM -X,0.5+Y,0.5-Z
SFAC C H N O Zn
DISP C 0.0148 0.007 57.7277
DISP H -0 0 0.6481
DISP N 0.0253 0.0136 110.4733
DISP O 0.0412 0.025 193.8859
DISP Zn -2.8023 0.5456 3801.3309
UNIT 160 216 12 40 4
DFIX 1.53 C34 C28
DFIX 1.53 C32 H32b C38 C32
DFIX 1.53 C39 C38
SIMU 0.01 0.02 3.8 C30 C33
SIMU 0.01 0.02 2 O9 C40
RIGU 0.001 0.002 O9 C34
RIGU 0.001 0.002 N3 C16
RIGU 0.001 0.002 C34 C28 O7
RIGU 0.01 0.02 C37 C36
RIGU 0.001 0.002 O11 C35 C40
RIGU 0.001 0.002 C22 C26
RIGU 0.001 0.002 C30 C39 C38 C32
RIGU 0.01 0.02 C25 C33
 
L.S. 10 0 0
PLAN  10
SIZE 0.12 0.1 0.1
TEMP -173.15
FREE C40 C34
BOND $H
list 4
fmap 2 53
acta
OMIT -5 1 7
OMIT 0 5 2
OMIT 4 4 6
OMIT 1 5 8
OMIT 3 3 4
OMIT 1 0 6
OMIT 1 5 5
OMIT 0 0 2
OMIT -1 5 2
OMIT 0 2 0
OMIT 3 0 0
OMIT -3 0 2
OMIT 0 1 2
OMIT -3 4 5
OMIT -6 1 2
OMIT -10 6 2
OMIT 3 6 2
OMIT -7 4 4
OMIT 1 7 14
OMIT 0 2 3
OMIT -13 3 3
OMIT -1 2 6
OMIT -3 11 2
OMIT -16 1 1
OMIT -6 8 2
OMIT 0 11 4
OMIT -15 1 5
OMIT -10 4 2
OMIT -6 2 2
OMIT 15 0 2
OMIT 13 2 2
OMIT -4 2 12
OMIT 8 9 11
OMIT 0 8 4
OMIT 0 3 5
OMIT -4 5 5
OMIT -6 5 2
OMIT -5 0 6
OMIT 11 8 8
OMIT -12 1 3
OMIT -2 4 2
OMIT 9 8 5
OMIT -9 2 1
OMIT -3 6 2
OMIT -10 4 11
OMIT -2 1 11
OMIT 7 2 5
OMIT 2 11 8
OMIT 2 4 6
OMIT 0 2 5
OMIT -1 4 3
OMIT 10 4 0
OMIT 13 2 6
OMIT -12 3 10
OMIT -4 6 13
OMIT 4 9 9
OMIT 1 1 8
OMIT 0 2 2
OMIT -1 3 10
OMIT 15 1 3
OMIT -8 2 12
OMIT -1 1 6
OMIT 4 8 2
OMIT 0 1 1
OMIT -5 5 1
OMIT -3 1 11
OMIT 4 5 3
OMIT -2 5 12
OMIT -7 5 3
OMIT -11 1 1
OMIT -3 3 2
OMIT -1 0 2
OMIT -3 3 7
OMIT -2 13 2
OMIT 11 1 2
OMIT -5 1 6
OMIT -2 7 2
OMIT -9 3 1
OMIT 6 0 0
OMIT 4 3 0
OMIT -14 0 2
OMIT -6 0 4
OMIT 8 1 11
OMIT 5 2 5
OMIT 2 1 6
OMIT 1 4 9
OMIT 6 7 13
OMIT -6 7 7
OMIT -5 5 3
OMIT 7 3 3
OMIT -1 1 9
OMIT -4 0 4
OMIT 1 4 3
OMIT -12 6 2
OMIT -7 8 4
OMIT -8 6 13
OMIT -5 9 3
OMIT -11 3 4
OMIT 2 7 6
OMIT 7 7 7
OMIT -2 2 13
OMIT -1 0 8
OMIT -6 5 16
OMIT 8 1 0
OMIT 2 4 0
OMIT -2 2 6
OMIT -3 9 2
OMIT -8 9 1
OMIT -5 0 16
OMIT 0 1 10
OMIT 7 0 4
OMIT -9 6 1
OMIT -4 1 1
OMIT -1 0 6
OMIT -5 0 2
OMIT 2 1 0
OMIT 2 5 4
OMIT 6 0 4
OMIT 3 9 4
OMIT 1 5 4
OMIT 0 2 8
OMIT 0 6 2
OMIT -12 3 3
OMIT 0 4 4
OMIT -9 2 2
OMIT 1 4 5
OMIT 1 1 9
OMIT -3 0 8
OMIT -3 2 16
OMIT -5 3 2
OMIT 9 3 3
OMIT -6 5 8
OMIT -5 7 7
OMIT -2 4 8
OMIT 0 1 9
OMIT -8 3 7
OMIT -6 3 5
OMIT 6 1 2
OMIT -6 2 6
OMIT -4 3 13
OMIT 1 4 1
OMIT -9 0 2
OMIT -3 3 3
OMIT -1 7 15
OMIT -12 8 2
OMIT -9 7 8
OMIT -10 7 1
OMIT 10 1 7
OMIT -1 4 1
OMIT 5 5 8
OMIT -6 1 3
OMIT -2 7 11
OMIT 5 4 7
OMIT 13 1 10
OMIT 4 2 1
OMIT 1 1 3
OMIT 4 1 13
OMIT -1 13 5
OMIT 1 8 7
OMIT -10 8 3
OMIT 0 4 3
OMIT -2 5 2
REM <olex2.extras>
REM <HklSrc "%.\\B190919A0823_0m.hkl">
REM </olex2.extras>
 
WGHT    0.200000
FVAR       0.39525   0.56401   0.44957
ZN01  5    0.463214    0.398647    0.646215    11.00000    0.08054    0.05308 =
         0.03013    0.00060   -0.00038   -0.00908
O1    4    0.423259    0.305487    0.579596    11.00000    0.07847    0.06128 =
         0.03232   -0.00213    0.00687   -0.01177
O2    4    0.508680    0.232836    0.258688    11.00000    0.07302    0.06473 =
         0.04506   -0.00150    0.01457   -0.01151
O3    4    0.412367    0.117013    0.237195    11.00000    0.07449    0.06563 =
         0.03325   -0.00157    0.00060   -0.00613
O4    4    0.506665    0.377965    0.502568    11.00000    0.07462    0.07268 =
         0.04139   -0.00597    0.00332   -0.02607
N1    3    0.202070    0.107635    0.434120    11.00000    0.07658    0.10698 =
         0.04199   -0.00381    0.00594   -0.04683
AFIX  43
H1    2    0.165724    0.089132    0.398301    11.00000   -1.20000
AFIX   0
N2    3    0.595718    0.437440    0.655240    11.00000    0.07526    0.07035 =
         0.03931   -0.00027   -0.00942   -0.01544
C1    1    0.406638    0.257060    0.461125    11.00000    0.05000    0.05235 =
         0.03140    0.00091   -0.00027   -0.00262
C2    1    0.443522    0.252328    0.395595    11.00000    0.04818    0.04341 =
         0.03926    0.00007   -0.00311   -0.00326
AFIX  43
H2    2    0.496313    0.287534    0.386180    11.00000   -1.20000
AFIX   0
C3    1    0.402136    0.195202    0.343633    11.00000    0.05996    0.04875 =
         0.02985    0.00481   -0.00125   -0.00524
C4    1    0.451073    0.317956    0.516936    11.00000    0.05753    0.04985 =
         0.03993    0.00044    0.00147   -0.00260
C5    1    0.444514    0.182586    0.275241    11.00000    0.06279    0.04802 =
         0.03645   -0.00047   -0.00101   -0.00262
N3    3    0.386936    0.514413    0.617487    11.00000    0.12011    0.06393 =
         0.04171    0.00964   -0.00868   -0.00088
C6    1    0.284255    0.153971    0.423147    11.00000    0.05884    0.06981 =
         0.04061   -0.00188    0.00061   -0.01993
C7    1    0.321855    0.148391    0.358275    11.00000    0.06335    0.06903 =
         0.03188    0.00064   -0.00434   -0.02006
AFIX  43
H7    2    0.292038    0.111521    0.322618    11.00000   -1.20000
AFIX   0
C8    1    0.329059    0.207757    0.475350    11.00000    0.05635    0.05872 =
         0.03282    0.00267    0.00223   -0.00853
AFIX  43
H8    2    0.306013    0.210399    0.520844    11.00000   -1.20000
AFIX   0
C9    1    0.084810    0.043875    0.503782    11.00000    0.05582    0.09942 =
         0.04665    0.01193    0.00599   -0.02508
C10   1    0.078149   -0.048007    0.484172    11.00000    0.06678    0.09586 =
         0.07432    0.00275    0.01029   -0.00417
AFIX  43
H10   2    0.131550   -0.082031    0.474366    11.00000   -1.20000
AFIX   0
 
O5    4    0.168404    0.229235    0.648845    11.00000    0.14828    0.16793 =
         0.10040   -0.02290   -0.01839   -0.03450
O6    4    0.299495    0.071939    0.656505    11.00000    0.15956    0.16335 =
         0.08144    0.02146   -0.04055    0.00871
C11   1    0.178266    0.090905    0.504943    11.00000    0.05975    0.11630 =
         0.05366    0.00166    0.00857   -0.03494
AFIX  23
H11A  2    0.175977    0.149736    0.530798    11.00000   -1.20000
H11B  2    0.225482    0.051366    0.529296    11.00000   -1.20000
AFIX   0
C12   1    0.622253    0.512953    0.621486    11.00000    0.08093    0.07467 =
         0.06314    0.00982    0.00109   -0.02362
AFIX  43
H12   2    0.577999    0.546306    0.593010    11.00000   -1.20000
AFIX   0
C13   1    0.007968    0.088892    0.520771    11.00000    0.07363    0.07768 =
         0.06463    0.00172    0.01215   -0.02372
AFIX  43
H13   2    0.013232    0.150625    0.536625    11.00000   -1.20000
AFIX   0
C14   1    0.659700    0.387977    0.691003    11.00000    0.07494    0.10326 =
         0.11307    0.03865   -0.00027   -0.02117
AFIX  43
H14   2    0.642114    0.333049    0.713479    11.00000   -1.20000
AFIX   0
C15   1    0.711665    0.543111    0.627109    11.00000    0.10425    0.09924 =
         0.07076    0.01691   -0.00014   -0.03448
AFIX  43
H15   2    0.727896    0.599644    0.606299    11.00000   -1.20000
AFIX   0
C16   1    0.379428    0.589599    0.659209    11.00000    0.09041    0.07615 =
         0.06091   -0.00245   -0.00807   -0.00355
AFIX  43
H16   2    0.414943    0.589651    0.702713    11.00000   -1.20000
AFIX   0
C17   1    0.271393    0.665840    0.580646    11.00000    0.10159    0.08218 =
         0.09608    0.00429   -0.00235    0.01225
AFIX  43
H17   2    0.234389    0.717634    0.567821    11.00000   -1.20000
AFIX   0
 
O7    4    0.117616   -0.014284    0.307840    11.00000    0.19919    0.24126 =
         0.14738   -0.11755    0.07161   -0.09459
C18   1    0.776382    0.491845    0.662431    11.00000    0.07846    0.13467 =
         0.08369   -0.00076   -0.01126   -0.03789
AFIX  43
H18   2    0.839308    0.509467    0.663789    11.00000   -1.20000
AFIX   0
 
O8    4   -0.039053    0.114907    0.274044    11.00000    0.17027    0.17154 =
         0.15655    0.02248   -0.01919   -0.01848
C19   1    0.273639    0.590119    0.538006    11.00000    0.10989    0.13935 =
         0.07617    0.01730   -0.01805    0.02054
AFIX  43
H19   2    0.238044    0.588750    0.494550    11.00000   -1.20000
AFIX   0
C20   1    0.326573    0.663798    0.644756    11.00000    0.09076    0.08874 =
         0.09796   -0.02060    0.00549    0.00558
AFIX  43
H20   2    0.326139    0.713795    0.676739    11.00000   -1.20000
AFIX   0
 
O9    4    0.279509   -0.096744    0.393554    11.00000    0.17700    0.19919 =
         0.16421   -0.03891    0.05709    0.01067
C21   1    0.327419    0.516509    0.558357    11.00000    0.09970    0.09606 =
         0.06476   -0.00655   -0.00797    0.02223
AFIX  43
H21   2    0.323457    0.463098    0.529721    11.00000   -1.20000
AFIX   0
 
C22   1    0.216063    0.177633    0.705999    11.00000    0.13330    0.21073 =
         0.08369    0.03811   -0.01968   -0.03955
AFIX  23
H22A  2    0.217121    0.215069    0.749379    11.00000   -1.20000
H22B  2    0.180719    0.121042    0.714476    11.00000   -1.20000
AFIX   0
 
C23   1    0.750254    0.414256    0.696225    11.00000    0.08648    0.13679 =
         0.12406    0.05689   -0.02353   -0.03042
AFIX  43
H23   2    0.794482    0.378837    0.723108    11.00000   -1.20000
AFIX   0
 
C24   1    0.017556    0.188042    0.295881    11.00000    0.13316    0.19977 =
         0.11604   -0.01978    0.02258   -0.04098
AFIX  23
H24A  2    0.027937    0.226969    0.254546    11.00000   -1.20000
H24B  2    0.078012    0.163070    0.313228    11.00000   -1.20000
AFIX   0
C25   1    0.183879    0.320777    0.646610    11.00000    0.18711    0.12801 =
         0.22613   -0.03655   -0.01216    0.04232
AFIX  23
H25A  2    0.239303    0.335519    0.621189    11.00000   -1.20000
H25B  2    0.189841    0.348027    0.694238    11.00000   -1.20000
AFIX   0
C26   1    0.304708    0.153756    0.693185    11.00000    0.13125    0.17514 =
         0.08739    0.02778   -0.02240   -0.05335
AFIX  23
H26A  2    0.342137    0.146040    0.737930    11.00000   -1.20000
H26B  2    0.333342    0.201911    0.665083    11.00000   -1.20000
AFIX   0
C27   1    0.032087   -0.035419    0.292061    11.00000    0.18648    0.16661 =
         0.10472   -0.04881   -0.01149   -0.06559
AFIX  23
H27A  2    0.017566   -0.094971    0.313849    11.00000   -1.20000
H27B  2    0.021772   -0.041771    0.240486    11.00000   -1.20000
AFIX   0
C28   1    0.181167   -0.102161    0.302564    11.00000    0.26661    0.27884 =
         0.19661   -0.14107    0.05519   -0.04143
AFIX  23
H28A  2    0.149540   -0.152572    0.326231    11.00000   -1.20000
H28B  2    0.179854   -0.118565    0.252128    11.00000   -1.20000
AFIX   0
C29   1   -0.030979    0.039212    0.318474    11.00000    0.17557    0.15100 =
         0.09219    0.02434   -0.00247   -0.04991
AFIX  23
H29A  2   -0.092875    0.012781    0.323580    11.00000   -1.20000
H29B  2   -0.006653    0.059733    0.365515    11.00000   -1.20000
AFIX   0
PART 1
O10   4    0.385485   -0.023037    0.527657    21.00000    0.14720    0.13236 =
         0.10234    0.01998    0.01707    0.02456
PART 0
C30   1    0.084032    0.349688    0.525865    11.00000    0.25273    0.14589 =
         0.25729   -0.00328    0.01553    0.03980
AFIX  23
H30A  2    0.132429    0.390179    0.508654    11.00000   -1.20000
H30B  2    0.098904    0.286211    0.511820    11.00000   -1.20000
AFIX   0
C31   1   -0.017341    0.245784    0.350447    11.00000    0.16206    0.14236 =
         0.16311    0.06530    0.01447   -0.00799
AFIX  23
H31A  2   -0.075052    0.275522    0.332029    11.00000   -1.20000
H31B  2   -0.032190    0.206722    0.390708    11.00000   -1.20000
AFIX   0
C32   1    0.045376    0.313961    0.374137    11.00000    0.13901    0.20077 =
         0.17944    0.05594    0.01282    0.02617
AFIX  23
H32A  2    0.073641    0.340979    0.332971    11.00000   -1.20000
H32B  2    0.095160    0.284740    0.404029    11.00000   -1.20000
AFIX   0
C33   1    0.090652    0.353618    0.603534    11.00000    0.28640    0.16646 =
         0.26798   -0.01885    0.02124    0.04703
AFIX  23
H33A  2    0.039530    0.316322    0.620293    11.00000   -1.20000
H33B  2    0.079067    0.417986    0.617180    11.00000   -1.20000
AFIX   0
C34   1    0.278529   -0.106239    0.328758    11.00000    0.26137    0.29112 =
         0.16627   -0.05477    0.07005   -0.06336
AFIX  23
H34A  2    0.305914   -0.165984    0.316683    11.00000   -1.20000
H34B  2    0.314127   -0.056541    0.307638    11.00000   -1.20000
AFIX   0
C35   1    0.394037   -0.101027    0.492319    11.00000    0.25464    0.14932 =
         0.19156   -0.00904    0.01347    0.08228
PART 1
AFIX  23
H35A  2    0.356637   -0.148130    0.514842    21.00000   -1.20000
H35B  2    0.459115   -0.120651    0.498933    21.00000   -1.20000
AFIX  23
PART 0
PART 2
H35C  2    0.418465   -0.162321    0.506046   -21.00000   -1.20000
H35D  2    0.445050   -0.056556    0.500347   -21.00000   -1.20000
AFIX   0
PART 0
PART 1
C36   1    0.403159   -0.019310    0.585364    31.00000    0.15839    0.22221 =
         0.13003    0.00974    0.03766   -0.07588
AFIX  23
H36A  2    0.471089   -0.024546    0.587544    31.00000   -1.20000
H36B  2    0.381540   -0.079703    0.601588    31.00000   -1.20000
AFIX   0
PART 0
C37   1    0.388675    0.038266    0.644872    11.00000    0.17815    0.24965 =
         0.14121    0.02093   -0.04234    0.07663
PART 1
AFIX  23
H37A  2    0.410369    0.003723    0.687444    31.00000   -1.20000
H37B  2    0.429655    0.092175    0.641705    31.00000   -1.20000
AFIX  23
PART 0
PART 2
H37C  2    0.427272    0.034589    0.689384   -31.00000   -1.20000
H37D  2    0.419832    0.077648    0.611302   -31.00000   -1.20000
AFIX   0
PART 0
C38   1    0.004608    0.388847    0.414550    11.00000    0.18322    0.22581 =
         0.22773    0.03446    0.04180    0.02958
AFIX  23
H38A  2    0.041357    0.445093    0.408109    11.00000   -1.20000
H38B  2   -0.058121    0.400819    0.393491    11.00000   -1.20000
AFIX   0
C39   1   -0.002070    0.374800    0.489555    11.00000    0.23439    0.18917 =
         0.22444    0.03394    0.04743    0.03417
AFIX  23
H39A  2   -0.024911    0.431988    0.510513    11.00000   -1.20000
H39B  2   -0.047792    0.325885    0.496718    11.00000   -1.20000
AFIX   0
C40   1    0.367967   -0.103114    0.414690    11.00000    0.21346    0.21386 =
         0.18984   -0.01008    0.02297    0.05547
AFIX  23
H40A  2    0.400850   -0.052227    0.392620    11.00000   -1.20000
H40B  2    0.391805   -0.161118    0.395720    11.00000   -1.20000
AFIX   0
PART 2
O11   4    0.322764   -0.077489    0.539596   -21.00000    0.27330    0.23013 =
         0.18833    0.01530    0.01949    0.13060
C41   1    0.367363   -0.066089    0.611342   -31.00000    0.41386    0.22959 =
         0.12071    0.02079   -0.04929    0.23816
AFIX  23
H41A  2    0.426859   -0.099148    0.612271   -31.00000   -1.20000
H41B  2    0.328505   -0.098670    0.644153   -31.00000   -1.20000
AFIX   0
HKLF 4
 
REM  b190919a0823_0m_a.res in P2(1)/c
REM R1 =  0.1022 for    4754 Fo > 4sig(Fo)  and  0.1308 for all    6877 data
REM    507 parameters refined using     64 restraints
 
END  
     
WGHT      0.2000      0.0000 

REM Highest difference peak  0.880,  deepest hole -0.627,  1-sigma level  0.106
Q1    1   0.5170  0.3875  0.6455  11.00000  0.05    0.88
Q2    1   0.3766  0.6405  0.7046  11.00000  0.05    0.78
Q3    1   0.4573  0.5153  0.6154  11.00000  0.05    0.68
Q4    1   0.2467  0.7644  0.6526  11.00000  0.05    0.67
Q5    1   0.2992 -0.1798  0.4199  11.00000  0.05    0.65
Q6    1   0.1835 -0.0590  0.2619  11.00000  0.05    0.63
Q7    1   0.2128 -0.1285  0.3256  11.00000  0.05    0.60
Q8    1   0.2207  0.7074  0.5390  11.00000  0.05    0.59
Q9    1   0.0706  0.0822  0.2798  11.00000  0.05    0.58
Q10   1   0.2986 -0.1080  0.5480  11.00000  0.05    0.54

  REM The information below was added by Olex2.
  REM
  REM R1 = 0.1022 for 4754 Fo > 4sig(Fo) and 0.1308 for all 28454 data
  REM n/a parameters refined using n/a restraints
  REM Highest difference peak 0.88, deepest hole -0.63
  REM Mean Shift 0.001, Max Shift -0.006.

  REM +++ Tabular Listing of Refinement Information +++
  REM R1_all = 0.1308
  REM R1_gt = 0.1022
  REM wR_ref = 0.3228
  REM GOOF = 1.280
  REM Shift_max = -0.006
  REM Shift_mean = 0.001
  REM Reflections_all = 28454
  REM Reflections_gt = 4754
  REM Parameters = n/a
  REM Hole = -0.63
  REM Peak = 0.88
  REM Flack = n/a

  
;
_cod_data_source_file            d2cc01198k2.cif
_cod_data_source_block           b190919a0823_0m
_cod_database_code               7129946
_shelx_shelxl_version_number     2014/7
_shelx_space_group_comment
;
The symmetry employed for this shelxl refinement is uniquely defined
by the following loop, which should always be used as a source of
symmetry information in preference to the above space-group names.
They are only intended as comments.
;
_shelx_estimated_absorpt_t_max   0.921
_shelx_estimated_absorpt_t_min   0.906
_olex2_refinement_description
;
1. Fixed Uiso
 At 1.2 times of:
  All C(H) groups, All C(H,H) groups, All C(H,H,H,H) groups, All N(H) groups
2. Restrained distances
 C34-C28
 1.53 with sigma of 0.02
 C32-H32B = C38-C32
 1.53 with sigma of 0.02
 C39-C38
 1.53 with sigma of 0.02
3. Uiso/Uaniso restraints and constraints
C30 \\sim C33: within 3.8A with sigma of 0.01 and sigma for terminal atoms of
0.02
O9 \\sim C40: within 2A with sigma of 0.01 and sigma for terminal atoms of 0.02
4. Rigid body (RIGU) restrains
 O9, C34
 with sigma for 1-2 distances of 0.001 and sigma for 1-3 distances of 0.002
 N3, C16
 with sigma for 1-2 distances of 0.001 and sigma for 1-3 distances of 0.002
 C34, C28, O7
 with sigma for 1-2 distances of 0.001 and sigma for 1-3 distances of 0.002
 C37, C36
 with sigma for 1-2 distances of 0.01 and sigma for 1-3 distances of 0.02
 O11, C35, C40
 with sigma for 1-2 distances of 0.001 and sigma for 1-3 distances of 0.002
 C22, C26
 with sigma for 1-2 distances of 0.001 and sigma for 1-3 distances of 0.002
 C30, C39, C38, C32
 with sigma for 1-2 distances of 0.001 and sigma for 1-3 distances of 0.002
 C25, C33
 with sigma for 1-2 distances of 0.01 and sigma for 1-3 distances of 0.02
5. Others
 Sof(H35C)=Sof(H35D)=Sof(O11)=1-FVAR(1)
 Sof(O10)=Sof(H35A)=Sof(H35B)=FVAR(1)
 Sof(H37C)=Sof(H37D)=Sof(C41)=Sof(H41A)=Sof(H41B)=1-FVAR(2)
 Sof(C36)=Sof(H36A)=Sof(H36B)=Sof(H37A)=Sof(H37B)=FVAR(2)
6.a Secondary CH2 refined with riding coordinates:
 C11(H11A,H11B), C22(H22A,H22B), C24(H24A,H24B), C25(H25A,H25B), C26(H26A,
 H26B), C27(H27A,H27B), C28(H28A,H28B), C29(H29A,H29B), C30(H30A,H30B),
 C31(H31A,H31B), C32(H32A,H32B), C33(H33A,H33B), C34(H34A,H34B), C35(H35A,H35B),
  C35(H35C,H35D), C36(H36A,H36B), C37(H37A,H37B), C37(H37C,H37D), C38(H38A,
 H38B), C39(H39A,H39B), C40(H40A,H40B), C41(H41A,H41B)
6.b Aromatic/amide H refined with riding coordinates:
 N1(H1), C2(H2), C7(H7), C8(H8), C10(H10), C12(H12), C13(H13), C14(H14),
 C15(H15), C16(H16), C17(H17), C18(H18), C19(H19), C20(H20), C21(H21), C23(H23)
;
_olex2_submission_special_instructions 'No special instructions were received'
loop_
_space_group_symop_operation_xyz
'x, y, z'
'-x, y+1/2, -z+1/2'
'-x, -y, -z'
'x, -y-1/2, z-1/2'
loop_
_atom_site_label
_atom_site_type_symbol
_atom_site_fract_x
_atom_site_fract_y
_atom_site_fract_z
_atom_site_U_iso_or_equiv
_atom_site_adp_type
_atom_site_occupancy
_atom_site_site_symmetry_order
_atom_site_calc_flag
_atom_site_refinement_flags_posn
_atom_site_refinement_flags_adp
_atom_site_refinement_flags_occupancy
_atom_site_disorder_assembly
_atom_site_disorder_group
Zn01 Zn 0.46321(4) 0.39865(4) 0.64621(3) 0.0547(3) Uani 1 1 d . . . . .
O1 O 0.4233(2) 0.3055(2) 0.57960(14) 0.0572(8) Uani 1 1 d . . . . .
O2 O 0.5087(2) 0.2328(2) 0.25869(15) 0.0605(8) Uani 1 1 d . . . . .
O3 O 0.4124(2) 0.1170(2) 0.23719(16) 0.0579(8) Uani 1 1 d . . . . .
O4 O 0.5067(2) 0.3780(2) 0.50257(16) 0.0629(8) Uani 1 1 d . . . . .
N1 N 0.2021(3) 0.1076(3) 0.4341(2) 0.0751(13) Uani 1 1 d . . . . .
H1 H 0.1657 0.0891 0.3983 0.090 Uiso 1 1 calc R . . . .
N2 N 0.5957(3) 0.4374(3) 0.65524(19) 0.0622(10) Uani 1 1 d . . . . .
C1 C 0.4066(3) 0.2571(3) 0.46113(19) 0.0447(9) Uani 1 1 d . . . . .
C2 C 0.4435(3) 0.2523(3) 0.3956(2) 0.0439(9) Uani 1 1 d . . . . .
H2 H 0.4963 0.2875 0.3862 0.053 Uiso 1 1 calc R . . . .
C3 C 0.4021(3) 0.1952(3) 0.3436(2) 0.0464(9) Uani 1 1 d . . . . .
C4 C 0.4511(3) 0.3180(3) 0.5169(2) 0.0492(10) Uani 1 1 d . . . . .
C5 C 0.4445(3) 0.1826(3) 0.2752(2) 0.0493(10) Uani 1 1 d . . . . .
N3 N 0.3869(3) 0.5144(3) 0.6175(2) 0.0758(12) Uani 1 1 d . U . . .
C6 C 0.2843(3) 0.1540(3) 0.4231(2) 0.0565(11) Uani 1 1 d . . . . .
C7 C 0.3219(3) 0.1484(3) 0.3583(2) 0.0551(11) Uani 1 1 d . . . . .
H7 H 0.2920 0.1115 0.3226 0.066 Uiso 1 1 calc R . . . .
C8 C 0.3291(3) 0.2078(3) 0.4753(2) 0.0493(10) Uani 1 1 d . . . . .
H8 H 0.3060 0.2104 0.5208 0.059 Uiso 1 1 calc R . . . .
C9 C 0.0848(3) 0.0439(4) 0.5038(3) 0.0672(14) Uani 1 1 d . . . . .
C10 C 0.0781(4) -0.0480(4) 0.4842(3) 0.0787(15) Uani 1 1 d . . . . .
H10 H 0.1315 -0.0820 0.4744 0.094 Uiso 1 1 calc R . . . .
O5 O 0.1684(4) 0.2292(6) 0.6488(3) 0.140(2) Uani 1 1 d . . . . .
O6 O 0.2995(5) 0.0719(5) 0.6565(3) 0.137(2) Uani 1 1 d . . . . .
C11 C 0.1783(3) 0.0909(4) 0.5049(3) 0.0764(16) Uani 1 1 d . . . . .
H11A H 0.1760 0.1497 0.5308 0.092 Uiso 1 1 calc R . . . .
H11B H 0.2255 0.0514 0.5293 0.092 Uiso 1 1 calc R . . . .
C12 C 0.6223(4) 0.5130(4) 0.6215(3) 0.0731(14) Uani 1 1 d . . . . .
H12 H 0.5780 0.5463 0.5930 0.088 Uiso 1 1 calc R . . . .
C13 C 0.0080(4) 0.0889(4) 0.5208(3) 0.0717(14) Uani 1 1 d . . . . .
H13 H 0.0132 0.1506 0.5366 0.086 Uiso 1 1 calc R . . . .
C14 C 0.6597(4) 0.3880(5) 0.6910(4) 0.097(2) Uani 1 1 d . . . . .
H14 H 0.6421 0.3330 0.7135 0.117 Uiso 1 1 calc R . . . .
C15 C 0.7117(5) 0.5431(5) 0.6271(3) 0.0916(19) Uani 1 1 d . . . . .
H15 H 0.7279 0.5996 0.6063 0.110 Uiso 1 1 calc R . . . .
C16 C 0.3794(4) 0.5896(4) 0.6592(3) 0.0763(14) Uani 1 1 d . U . . .
H16 H 0.4149 0.5897 0.7027 0.092 Uiso 1 1 calc R . . . .
C17 C 0.2714(4) 0.6658(5) 0.5806(4) 0.0936(18) Uani 1 1 d . . . . .
H17 H 0.2344 0.7176 0.5678 0.112 Uiso 1 1 calc R . . . .
O7 O 0.1176(6) -0.0143(6) 0.3078(4) 0.193(3) Uani 1 1 d . U . . .
C18 C 0.7764(4) 0.4918(6) 0.6624(4) 0.100(2) Uani 1 1 d . . . . .
H18 H 0.8393 0.5095 0.6638 0.120 Uiso 1 1 calc R . . . .
O8 O -0.0391(5) 0.1149(6) 0.2740(4) 0.167(3) Uani 1 1 d . . . . .
C19 C 0.2736(5) 0.5901(6) 0.5380(4) 0.109(2) Uani 1 1 d . . . . .
H19 H 0.2380 0.5888 0.4946 0.131 Uiso 1 1 calc R . . . .
C20 C 0.3266(4) 0.6638(5) 0.6448(4) 0.0925(18) Uani 1 1 d . . . . .
H20 H 0.3261 0.7138 0.6767 0.111 Uiso 1 1 calc R . . . .
O9 O 0.2795(6) -0.0967(6) 0.3936(5) 0.178(3) Uani 1 1 d . U . . .
C21 C 0.3274(4) 0.5165(5) 0.5584(3) 0.0874(17) Uani 1 1 d . . . . .
H21 H 0.3235 0.4631 0.5297 0.105 Uiso 1 1 calc R . . . .
C22 C 0.2161(6) 0.1776(8) 0.7060(4) 0.144(3) Uani 1 1 d . U . . .
H22A H 0.2171 0.2151 0.7494 0.172 Uiso 1 1 calc R . . . .
H22B H 0.1807 0.1210 0.7145 0.172 Uiso 1 1 calc R . . . .
C23 C 0.7503(5) 0.4143(6) 0.6962(5) 0.117(3) Uani 1 1 d . . . . .
H23 H 0.7945 0.3788 0.7231 0.140 Uiso 1 1 calc R . . . .
C24 C 0.0176(7) 0.1880(9) 0.2959(5) 0.149(4) Uani 1 1 d . . . . .
H24A H 0.0279 0.2270 0.2545 0.179 Uiso 1 1 calc R . . . .
H24B H 0.0780 0.1631 0.3132 0.179 Uiso 1 1 calc R . . . .
C25 C 0.1839(9) 0.3208(8) 0.6466(8) 0.181(5) Uani 1 1 d . U . . .
H25A H 0.2393 0.3355 0.6212 0.218 Uiso 1 1 calc R . . . .
H25B H 0.1898 0.3480 0.6942 0.218 Uiso 1 1 calc R . . . .
C26 C 0.3047(6) 0.1538(8) 0.6932(5) 0.132(3) Uani 1 1 d . U . . .
H26A H 0.3421 0.1460 0.7379 0.159 Uiso 1 1 calc R . . . .
H26B H 0.3333 0.2019 0.6651 0.159 Uiso 1 1 calc R . . . .
C27 C 0.0321(8) -0.0354(8) 0.2921(5) 0.153(4) Uani 1 1 d . . . . .
H27A H 0.0176 -0.0950 0.3138 0.184 Uiso 1 1 calc R . . . .
H27B H 0.0218 -0.0418 0.2405 0.184 Uiso 1 1 calc R . . . .
C28 C 0.1812(12) -0.1022(13) 0.3026(9) 0.246(6) Uani 1 1 d D U . . .
H28A H 0.1495 -0.1526 0.3262 0.295 Uiso 1 1 calc R . . . .
H28B H 0.1799 -0.1186 0.2521 0.295 Uiso 1 1 calc R . . . .
C29 C -0.0310(8) 0.0392(8) 0.3185(5) 0.140(3) Uani 1 1 d . . . . .
H29A H -0.0929 0.0128 0.3236 0.168 Uiso 1 1 calc R . . . .
H29B H -0.0067 0.0597 0.3655 0.168 Uiso 1 1 calc R . . . .
O10 O 0.3855(10) -0.0230(9) 0.5277(8) 0.127(6) Uani 0.56(3) 1 d . . P A 1
C30 C 0.0840(12) 0.3497(11) 0.5259(10) 0.219(5) Uani 1 1 d . U . . .
H30A H 0.1324 0.3902 0.5087 0.262 Uiso 1 1 calc R . . . .
H30B H 0.0989 0.2862 0.5118 0.262 Uiso 1 1 calc R . . . .
C31 C -0.0173(8) 0.2458(8) 0.3504(7) 0.156(4) Uani 1 1 d . . . . .
H31A H -0.0751 0.2755 0.3320 0.187 Uiso 1 1 calc R . . . .
H31B H -0.0322 0.2067 0.3907 0.187 Uiso 1 1 calc R . . . .
C32 C 0.0454(8) 0.3140(9) 0.3741(7) 0.173(4) Uani 1 1 d D U . . .
H32A H 0.0736 0.3410 0.3330 0.208 Uiso 1 1 calc R . . . .
H32B H 0.0952 0.2847 0.4040 0.208 Uiso 1 1 calc DR . . . .
C33 C 0.0907(13) 0.3536(12) 0.6035(11) 0.240(5) Uani 1 1 d . U . . .
H33A H 0.0395 0.3163 0.6203 0.288 Uiso 1 1 calc R . . . .
H33B H 0.0791 0.4180 0.6172 0.288 Uiso 1 1 calc R . . . .
C34 C 0.2785(12) -0.1062(14) 0.3288(10) 0.237(6) Uani 1 1 d D U . . .
H34A H 0.3059 -0.1660 0.3167 0.285 Uiso 1 1 calc R . . . .
H34B H 0.3141 -0.0565 0.3076 0.285 Uiso 1 1 calc R . . . .
C35 C 0.3940(12) -0.1010(9) 0.4923(9) 0.199(5) Uani 1 1 d . U . . .
H35A H 0.3566 -0.1481 0.5148 0.238 Uiso 0.56(3) 1 calc R . P A 1
H35B H 0.4591 -0.1207 0.4989 0.238 Uiso 0.56(3) 1 calc R . P A 1
H35C H 0.4185 -0.1623 0.5060 0.238 Uiso 0.44(3) 1 calc R . P A 2
H35D H 0.4451 -0.0566 0.5003 0.238 Uiso 0.44(3) 1 calc R . P A 2
C36 C 0.403(2) -0.019(3) 0.585(2) 0.169(15) Uani 0.45(5) 1 d . U P A 1
H36A H 0.4711 -0.0245 0.5875 0.203 Uiso 0.45(5) 1 calc R . P A 1
H36B H 0.3815 -0.0797 0.6016 0.203 Uiso 0.45(5) 1 calc R . P A 1
C37 C 0.3887(9) 0.0383(12) 0.6449(7) 0.192(6) Uani 1 1 d . U . . .
H37A H 0.4104 0.0037 0.6874 0.230 Uiso 0.45(5) 1 calc R . P A 1
H37B H 0.4297 0.0922 0.6417 0.230 Uiso 0.45(5) 1 calc R . P A 1
H37C H 0.4273 0.0346 0.6894 0.230 Uiso 0.55(5) 1 calc R . P A 2
H37D H 0.4198 0.0776 0.6113 0.230 Uiso 0.55(5) 1 calc R . P A 2
C38 C 0.0046(11) 0.3888(11) 0.4146(8) 0.211(5) Uani 1 1 d D U . . .
H38A H 0.0414 0.4451 0.4081 0.253 Uiso 1 1 calc R . . . .
H38B H -0.0581 0.4008 0.3935 0.253 Uiso 1 1 calc R . . . .
C39 C -0.0021(12) 0.3748(11) 0.4896(9) 0.215(5) Uani 1 1 d D U . . .
H39A H -0.0249 0.4320 0.5105 0.258 Uiso 1 1 calc R . . . .
H39B H -0.0478 0.3259 0.4967 0.258 Uiso 1 1 calc R . . . .
C40 C 0.3680(12) -0.1031(11) 0.4147(9) 0.205(5) Uani 1 1 d . U . . .
H40A H 0.4008 -0.0522 0.3926 0.246 Uiso 1 1 calc R . . . .
H40B H 0.3918 -0.1611 0.3957 0.246 Uiso 1 1 calc R . . . .
O11 O 0.323(3) -0.077(3) 0.5396(16) 0.230(14) Uani 0.44(3) 1 d . U P A 2
C41 C 0.367(4) -0.066(3) 0.6113(16) 0.26(3) Uani 0.55(5) 1 d . . P A 2
H41A H 0.4269 -0.0991 0.6123 0.309 Uiso 0.55(5) 1 calc R . P A 2
H41B H 0.3285 -0.0987 0.6442 0.309 Uiso 0.55(5) 1 calc R . P A 2
loop_
_atom_site_aniso_label
_atom_site_aniso_U_11
_atom_site_aniso_U_22
_atom_site_aniso_U_33
_atom_site_aniso_U_23
_atom_site_aniso_U_13
_atom_site_aniso_U_12
Zn01 0.0805(6) 0.0531(5) 0.0301(5) 0.0006(2) -0.0004(3) -0.0091(3)
O1 0.0785(19) 0.0613(19) 0.0323(15) -0.0021(13) 0.0069(13) -0.0118(14)
O2 0.0730(18) 0.0647(19) 0.0451(17) -0.0015(14) 0.0146(14) -0.0115(16)
O3 0.0745(19) 0.0656(19) 0.0333(16) -0.0016(14) 0.0006(14) -0.0061(15)
O4 0.0746(19) 0.073(2) 0.0414(17) -0.0060(14) 0.0033(14) -0.0261(17)
N1 0.077(3) 0.107(4) 0.042(2) -0.004(2) 0.0059(19) -0.047(2)
N2 0.075(2) 0.070(3) 0.039(2) -0.0003(19) -0.0094(18) -0.015(2)
C1 0.050(2) 0.052(2) 0.031(2) 0.0009(17) -0.0003(16) -0.0026(17)
C2 0.048(2) 0.043(2) 0.039(2) 0.0001(17) -0.0031(16) -0.0033(16)
C3 0.060(2) 0.049(2) 0.030(2) 0.0048(17) -0.0012(17) -0.0052(18)
C4 0.058(2) 0.050(2) 0.040(2) 0.0004(18) 0.0015(18) -0.0026(19)
C5 0.063(2) 0.048(2) 0.036(2) -0.0005(19) -0.0010(18) -0.0026(19)
N3 0.120(3) 0.064(2) 0.042(2) 0.0096(16) -0.009(2) -0.001(2)
C6 0.059(2) 0.070(3) 0.041(2) -0.002(2) 0.0006(19) -0.020(2)
C7 0.063(2) 0.069(3) 0.032(2) 0.0006(19) -0.0043(18) -0.020(2)
C8 0.056(2) 0.059(2) 0.033(2) 0.0027(18) 0.0022(16) -0.0085(19)
C9 0.056(3) 0.099(4) 0.047(3) 0.012(3) 0.006(2) -0.025(3)
C10 0.067(3) 0.096(4) 0.074(4) 0.003(3) 0.010(3) -0.004(3)
O5 0.148(4) 0.168(6) 0.100(4) -0.023(4) -0.018(3) -0.035(4)
O6 0.160(5) 0.163(5) 0.081(4) 0.021(4) -0.041(3) 0.009(4)
C11 0.060(3) 0.116(5) 0.054(3) 0.002(3) 0.009(2) -0.035(3)
C12 0.081(3) 0.075(3) 0.063(3) 0.010(3) 0.001(2) -0.024(3)
C13 0.074(3) 0.078(3) 0.065(3) 0.002(3) 0.012(3) -0.024(3)
C14 0.075(4) 0.103(5) 0.113(5) 0.039(4) 0.000(3) -0.021(3)
C15 0.104(4) 0.099(5) 0.071(4) 0.017(3) 0.000(3) -0.034(4)
C16 0.090(4) 0.076(3) 0.061(3) -0.002(2) -0.008(3) -0.004(2)
C17 0.102(4) 0.082(4) 0.096(5) 0.004(4) -0.002(4) 0.012(3)
O7 0.199(6) 0.241(7) 0.147(5) -0.118(5) 0.072(4) -0.095(5)
C18 0.078(4) 0.135(6) 0.084(4) -0.001(4) -0.011(3) -0.038(4)
O8 0.170(6) 0.172(7) 0.157(7) 0.022(5) -0.019(5) -0.018(5)
C19 0.110(5) 0.139(7) 0.076(5) 0.017(4) -0.018(4) 0.021(4)
C20 0.091(4) 0.089(4) 0.098(5) -0.021(4) 0.005(3) 0.006(3)
O9 0.177(6) 0.199(7) 0.164(6) -0.039(5) 0.057(5) 0.011(5)
C21 0.100(4) 0.096(4) 0.065(4) -0.007(3) -0.008(3) 0.022(3)
C22 0.133(4) 0.211(9) 0.084(5) 0.038(5) -0.020(4) -0.040(6)
C23 0.086(4) 0.137(6) 0.124(6) 0.057(5) -0.024(4) -0.030(4)
C24 0.133(7) 0.200(11) 0.116(7) -0.020(8) 0.023(6) -0.041(7)
C25 0.187(10) 0.128(9) 0.226(14) -0.037(8) -0.012(9) 0.042(8)
C26 0.131(4) 0.175(8) 0.087(5) 0.028(5) -0.022(4) -0.053(5)
C27 0.186(9) 0.167(9) 0.105(7) -0.049(7) -0.011(6) -0.066(8)
C28 0.267(9) 0.279(9) 0.197(11) -0.141(8) 0.055(7) -0.041(7)
C29 0.176(8) 0.151(9) 0.092(6) 0.024(6) -0.002(6) -0.050(7)
O10 0.147(11) 0.132(10) 0.102(10) 0.020(7) 0.017(7) 0.025(8)
C30 0.253(9) 0.146(8) 0.257(11) -0.003(9) 0.016(9) 0.040(7)
C31 0.162(9) 0.142(9) 0.163(11) 0.065(8) 0.014(8) -0.008(7)
C32 0.139(8) 0.201(11) 0.179(9) 0.056(7) 0.013(6) 0.026(7)
C33 0.286(11) 0.166(9) 0.268(13) -0.019(11) 0.021(11) 0.047(9)
C34 0.261(9) 0.291(15) 0.166(6) -0.055(6) 0.070(5) -0.063(8)
C35 0.255(13) 0.149(10) 0.192(8) -0.009(7) 0.013(8) 0.082(9)
C36 0.16(2) 0.22(3) 0.13(2) 0.01(2) 0.038(19) -0.08(2)
C37 0.178(11) 0.250(17) 0.141(10) 0.021(10) -0.042(8) 0.077(10)
C38 0.183(10) 0.226(11) 0.228(9) 0.034(7) 0.042(7) 0.030(7)
C39 0.234(9) 0.189(11) 0.224(9) 0.034(7) 0.047(7) 0.034(7)
C40 0.213(9) 0.214(9) 0.190(8) -0.010(7) 0.023(7) 0.055(8)
O11 0.273(19) 0.23(3) 0.188(12) 0.015(11) 0.019(11) 0.131(19)
C41 0.41(6) 0.23(3) 0.12(2) 0.02(2) -0.05(3) 0.24(4)
loop_
_atom_type_symbol
_atom_type_description
_atom_type_scat_dispersion_real
_atom_type_scat_dispersion_imag
_atom_type_scat_source
C C 0.0148 0.0070 'International Tables Vol C Tables 4.2.6.8 and 6.1.1.4'
H H 0.0000 0.0000 'International Tables Vol C Tables 4.2.6.8 and 6.1.1.4'
N N 0.0253 0.0136 'International Tables Vol C Tables 4.2.6.8 and 6.1.1.4'
O O 0.0412 0.0250 'International Tables Vol C Tables 4.2.6.8 and 6.1.1.4'
Zn Zn -2.8023 0.5456 'International Tables Vol C Tables 4.2.6.8 and 6.1.1.4'
loop_
_geom_angle_atom_site_label_1
_geom_angle_atom_site_label_2
_geom_angle_atom_site_label_3
_geom_angle
_geom_angle_site_symmetry_1
_geom_angle_site_symmetry_3
_geom_angle_publ_flag
O1 Zn01 O3 113.01(13) . 4_566 ?
O1 Zn01 N2 120.32(15) . . ?
O1 Zn01 N3 105.29(15) . . ?
O3 Zn01 N2 111.95(14) 4_566 . ?
O3 Zn01 N3 95.98(15) 4_566 . ?
N2 Zn01 N3 106.85(18) . . ?
C4 O1 Zn01 114.2(3) . . ?
C5 O3 Zn01 116.8(3) . 4_565 ?
C6 N1 H1 120.6 . . ?
C6 N1 C11 118.7(4) . . ?
C11 N1 H1 120.6 . . ?
C12 N2 Zn01 119.5(3) . . ?
C14 N2 Zn01 122.0(4) . . ?
C14 N2 C12 118.4(5) . . ?
C2 C1 C4 119.5(3) . . ?
C8 C1 C2 121.1(4) . . ?
C8 C1 C4 119.4(3) . . ?
C1 C2 H2 120.3 . . ?
C1 C2 C3 119.4(4) . . ?
C3 C2 H2 120.3 . . ?
C2 C3 C5 120.6(4) . . ?
C7 C3 C2 118.5(4) . . ?
C7 C3 C5 120.8(4) . . ?
O1 C4 C1 115.1(4) . . ?
O4 C4 O1 123.4(4) . . ?
O4 C4 C1 121.4(4) . . ?
O2 C5 O3 123.6(4) . . ?
O2 C5 C3 120.6(4) . . ?
O3 C5 C3 115.8(4) . . ?
C16 N3 Zn01 124.1(3) . . ?
C16 N3 C21 113.0(5) . . ?
C21 N3 Zn01 122.2(4) . . ?
C7 C6 N1 119.6(4) . . ?
C7 C6 C8 118.5(4) . . ?
C8 C6 N1 122.0(4) . . ?
C3 C7 H7 118.9 . . ?
C6 C7 C3 122.1(4) . . ?
C6 C7 H7 118.9 . . ?
C1 C8 C6 120.3(4) . . ?
C1 C8 H8 119.9 . . ?
C6 C8 H8 119.9 . . ?
C10 C9 C11 119.0(5) . . ?
C13 C9 C10 119.0(4) . . ?
C13 C9 C11 122.0(5) . . ?
C9 C10 H10 120.7 . . ?
C13 C10 C9 118.6(5) 3_556 . ?
C13 C10 H10 120.7 3_556 . ?
C25 O5 C22 117.2(8) . . ?
C26 O6 C37 110.8(9) . . ?
N1 C11 C9 109.3(4) . . ?
N1 C11 H11A 109.8 . . ?
N1 C11 H11B 109.8 . . ?
C9 C11 H11A 109.8 . . ?
C9 C11 H11B 109.8 . . ?
H11A C11 H11B 108.3 . . ?
N2 C12 H12 119.2 . . ?
N2 C12 C15 121.6(5) . . ?
C15 C12 H12 119.2 . . ?
C9 C13 C10 122.2(5) . 3_556 ?
C9 C13 H13 118.9 . . ?
C10 C13 H13 118.9 3_556 . ?
N2 C14 H14 119.2 . . ?
N2 C14 C23 121.7(6) . . ?
C23 C14 H14 119.2 . . ?
C12 C15 H15 120.3 . . ?
C18 C15 C12 119.5(6) . . ?
C18 C15 H15 120.3 . . ?
N3 C16 H16 116.9 . . ?
C20 C16 N3 126.3(5) . . ?
C20 C16 H16 116.9 . . ?
C19 C17 H17 121.3 . . ?
C19 C17 C20 117.4(6) . . ?
C20 C17 H17 121.3 . . ?
C27 O7 C28 110.4(10) . . ?
C15 C18 H18 120.4 . . ?
C15 C18 C23 119.1(6) . . ?
C23 C18 H18 120.4 . . ?
C29 O8 C24 113.4(8) . . ?
C17 C19 H19 120.2 . . ?
C21 C19 C17 119.7(6) . . ?
C21 C19 H19 120.2 . . ?
C16 C20 C17 118.6(6) . . ?
C16 C20 H20 120.7 . . ?
C17 C20 H20 120.7 . . ?
C34 O9 C40 104.2(12) . . ?
N3 C21 H21 117.7 . . ?
C19 C21 N3 124.6(6) . . ?
C19 C21 H21 117.7 . . ?
O5 C22 H22A 108.8 . . ?
O5 C22 H22B 108.8 . . ?
H22A C22 H22B 107.7 . . ?
C26 C22 O5 113.9(7) . . ?
C26 C22 H22A 108.8 . . ?
C26 C22 H22B 108.8 . . ?
C14 C23 H23 120.3 . . ?
C18 C23 C14 119.4(6) . . ?
C18 C23 H23 120.3 . . ?
O8 C24 H24A 108.4 . . ?
O8 C24 H24B 108.4 . . ?
O8 C24 C31 115.4(10) . . ?
H24A C24 H24B 107.5 . . ?
C31 C24 H24A 108.4 . . ?
C31 C24 H24B 108.4 . . ?
O5 C25 H25A 111.8 . . ?
O5 C25 H25B 111.8 . . ?
O5 C25 C33 99.9(11) . . ?
H25A C25 H25B 109.5 . . ?
C33 C25 H25A 111.8 . . ?
C33 C25 H25B 111.8 . . ?
O6 C26 H26A 110.4 . . ?
O6 C26 H26B 110.4 . . ?
C22 C26 O6 106.6(8) . . ?
C22 C26 H26A 110.4 . . ?
C22 C26 H26B 110.4 . . ?
H26A C26 H26B 108.6 . . ?
O7 C27 H27A 109.7 . . ?
O7 C27 H27B 109.7 . . ?
O7 C27 C29 110.0(8) . . ?
H27A C27 H27B 108.2 . . ?
C29 C27 H27A 109.7 . . ?
C29 C27 H27B 109.7 . . ?
O7 C28 H28A 106.3 . . ?
O7 C28 H28B 106.3 . . ?
H28A C28 H28B 106.4 . . ?
C34 C28 O7 124.3(13) . . ?
C34 C28 H28A 106.3 . . ?
C34 C28 H28B 106.3 . . ?
O8 C29 C27 113.1(9) . . ?
O8 C29 H29A 109.0 . . ?
O8 C29 H29B 109.0 . . ?
C27 C29 H29A 109.0 . . ?
C27 C29 H29B 109.0 . . ?
H29A C29 H29B 107.8 . . ?
C36 O10 C35 121(3) . . ?
H30A C30 H30B 107.1 . . ?
C33 C30 H30A 107.8 . . ?
C33 C30 H30B 107.8 . . ?
C39 C30 H30A 107.8 . . ?
C39 C30 H30B 107.8 . . ?
C39 C30 C33 118.2(16) . . ?
C24 C31 H31A 109.0 . . ?
C24 C31 H31B 109.0 . . ?
H31A C31 H31B 107.8 . . ?
C32 C31 C24 113.0(11) . . ?
C32 C31 H31A 109.0 . . ?
C32 C31 H31B 109.0 . . ?
C31 C32 H32A 108.6 . . ?
C31 C32 H32B 108.6 . . ?
C31 C32 C38 114.5(13) . . ?
H32A C32 H32B 107.6 . . ?
C38 C32 H32A 108.6 . . ?
C38 C32 H32B 108.6 . . ?
C25 C33 H33A 107.3 . . ?
C25 C33 H33B 107.3 . . ?
C30 C33 C25 119.9(16) . . ?
C30 C33 H33A 107.3 . . ?
C30 C33 H33B 107.3 . . ?
H33A C33 H33B 106.9 . . ?
O9 C34 C28 106.5(15) . . ?
O9 C34 H34A 110.4 . . ?
O9 C34 H34B 110.4 . . ?
C28 C34 H34A 110.4 . . ?
C28 C34 H34B 110.4 . . ?
H34A C34 H34B 108.6 . . ?
O10 C35 H35A 107.5 . . ?
O10 C35 H35B 107.5 . . ?
O10 C35 C40 119.3(13) . . ?
H35A C35 H35B 107.0 . . ?
H35C C35 H35D 107.2 . . ?
C40 C35 H35A 107.5 . . ?
C40 C35 H35B 107.5 . . ?
C40 C35 H35C 107.8 . . ?
C40 C35 H35D 107.8 . . ?
O11 C35 H35C 107.8 . . ?
O11 C35 H35D 107.8 . . ?
O11 C35 C40 117.9(19) . . ?
O10 C36 H36A 101.9 . . ?
O10 C36 H36B 101.9 . . ?
O10 C36 C37 140(5) . . ?
H36A C36 H36B 104.7 . . ?
C37 C36 H36A 101.9 . . ?
C37 C36 H36B 101.9 . . ?
O6 C37 C36 120.4(19) . . ?
O6 C37 H37A 107.2 . . ?
O6 C37 H37B 107.2 . . ?
O6 C37 H37C 111.2 . . ?
O6 C37 H37D 111.2 . . ?
O6 C37 C41 103(2) . . ?
C36 C37 H37A 107.2 . . ?
C36 C37 H37B 107.2 . . ?
H37A C37 H37B 106.9 . . ?
H37C C37 H37D 109.1 . . ?
C41 C37 H37C 111.2 . . ?
C41 C37 H37D 111.2 . . ?
C32 C38 H38A 107.9 . . ?
C32 C38 H38B 107.9 . . ?
H38A C38 H38B 107.2 . . ?
C39 C38 C32 117.5(14) . . ?
C39 C38 H38A 107.9 . . ?
C39 C38 H38B 107.9 . . ?
C30 C39 C38 113.5(17) . . ?
C30 C39 H39A 108.9 . . ?
C30 C39 H39B 108.9 . . ?
C38 C39 H39A 108.9 . . ?
C38 C39 H39B 108.9 . . ?
H39A C39 H39B 107.7 . . ?
O9 C40 C35 118.5(15) . . ?
O9 C40 H40A 107.7 . . ?
O9 C40 H40B 107.7 . . ?
C35 C40 H40A 107.7 . . ?
C35 C40 H40B 107.7 . . ?
H40A C40 H40B 107.1 . . ?
C35 O11 C41 108(3) . . ?
C37 C41 H41A 107.1 . . ?
C37 C41 H41B 107.1 . . ?
O11 C41 C37 121(2) . . ?
O11 C41 H41A 107.1 . . ?
O11 C41 H41B 107.1 . . ?
H41A C41 H41B 106.8 . . ?
loop_
_geom_bond_atom_site_label_1
_geom_bond_atom_site_label_2
_geom_bond_distance
_geom_bond_site_symmetry_2
_geom_bond_publ_flag
Zn01 O1 1.924(3) . ?
Zn01 O3 1.941(3) 4_566 ?
Zn01 N2 2.007(4) . ?
Zn01 N3 2.074(4) . ?
O1 C4 1.298(5) . ?
O2 C5 1.242(5) . ?
O3 Zn01 1.941(3) 4_565 ?
O3 C5 1.271(5) . ?
O4 C4 1.233(5) . ?
N1 H1 0.8800 . ?
N1 C6 1.400(6) . ?
N1 C11 1.436(7) . ?
N2 C12 1.343(6) . ?
N2 C14 1.331(7) . ?
C1 C2 1.392(6) . ?
C1 C4 1.501(6) . ?
C1 C8 1.379(6) . ?
C2 H2 0.9500 . ?
C2 C3 1.401(6) . ?
C3 C5 1.488(6) . ?
C3 C7 1.396(6) . ?
N3 C16 1.362(7) . ?
N3 C21 1.379(7) . ?
C6 C7 1.386(6) . ?
C6 C8 1.396(6) . ?
C7 H7 0.9500 . ?
C8 H8 0.9500 . ?
C9 C10 1.391(8) . ?
C9 C11 1.522(6) . ?
C9 C13 1.353(8) . ?
C10 H10 0.9500 . ?
C10 C13 1.386(7) 3_556 ?
O5 C22 1.463(10) . ?
O5 C25 1.353(12) . ?
O6 C26 1.381(12) . ?
O6 C37 1.418(14) . ?
C11 H11A 0.9900 . ?
C11 H11B 0.9900 . ?
C12 H12 0.9500 . ?
C12 C15 1.371(8) . ?
C13 C10 1.386(7) 3_556 ?
C13 H13 0.9500 . ?
C14 H14 0.9500 . ?
C14 C23 1.370(9) . ?
C15 H15 0.9500 . ?
C15 C18 1.349(9) . ?
C16 H16 0.9500 . ?
C16 C20 1.345(8) . ?
C17 H17 0.9500 . ?
C17 C19 1.372(10) . ?
C17 C20 1.421(9) . ?
O7 C27 1.300(12) . ?
O7 C28 1.586(19) . ?
C18 H18 0.9500 . ?
C18 C23 1.366(10) . ?
O8 C24 1.394(12) . ?
O8 C29 1.391(11) . ?
C19 H19 0.9500 . ?
C19 C21 1.369(9) . ?
C20 H20 0.9500 . ?
O9 C34 1.243(17) . ?
O9 C40 1.328(17) . ?
C21 H21 0.9500 . ?
C22 H22A 0.9900 . ?
C22 H22B 0.9900 . ?
C22 C26 1.373(13) . ?
C23 H23 0.9500 . ?
C24 H24A 0.9900 . ?
C24 H24B 0.9900 . ?
C24 C31 1.454(15) . ?
C25 H25A 0.9900 . ?
C25 H25B 0.9900 . ?
C25 C33 1.615(17) . ?
C26 H26A 0.9900 . ?
C26 H26B 0.9900 . ?
C27 H27A 0.9900 . ?
C27 H27B 0.9900 . ?
C27 C29 1.528(16) . ?
C28 H28A 0.9900 . ?
C28 H28B 0.9900 . ?
C28 C34 1.474(16) . ?
C29 H29A 0.9900 . ?
C29 H29B 0.9900 . ?
O10 C35 1.330(18) . ?
O10 C36 1.12(4) . ?
C30 H30A 0.9900 . ?
C30 H30B 0.9900 . ?
C30 C33 1.48(2) . ?
C30 C39 1.441(19) . ?
C31 H31A 0.9900 . ?
C31 H31B 0.9900 . ?
C31 C32 1.404(15) . ?
C32 H32A 0.9900 . ?
C32 H32B 0.9900 . ?
C32 C38 1.480(14) . ?
C33 H33A 0.9900 . ?
C33 H33B 0.9900 . ?
C34 H34A 0.9900 . ?
C34 H34B 0.9900 . ?
C35 H35A 0.9900 . ?
C35 H35B 0.9900 . ?
C35 H35C 0.9900 . ?
C35 H35D 0.9900 . ?
C35 C40 1.51(2) . ?
C35 O11 1.46(4) . ?
C36 H36A 0.9900 . ?
C36 H36B 0.9900 . ?
C36 C37 1.44(4) . ?
C37 H37A 0.9900 . ?
C37 H37B 0.9900 . ?
C37 H37C 0.9900 . ?
C37 H37D 0.9900 . ?
C37 C41 1.67(5) . ?
C38 H38A 0.9900 . ?
C38 H38B 0.9900 . ?
C38 C39 1.454(15) . ?
C39 H39A 0.9900 . ?
C39 H39B 0.9900 . ?
C40 H40A 0.9900 . ?
C40 H40B 0.9900 . ?
O11 C41 1.49(4) . ?
C41 H41A 0.9900 . ?
C41 H41B 0.9900 . ?
loop_
_refln_index_h
_refln_index_k
_refln_index_l
_refln_F_squared_meas
_refln_F_squared_sigma
-2 0 0 1691.53 69.49
2 0 0 1811.42 69.79
-3 0 0 1626.84 66.49
3 0 0 1723.23 67.09
4 0 0 801.52 32.8
4 0 0 842.92 31.8
-4 0 0 772.32 32
-4 0 0 847.42 32.4
4 0 0 821.72 32
-4 0 0 693.33 31.8
-4 0 0 812.92 32.3
5 0 0 612.74 24.5
-5 0 0 608.94 24.8
-5 0 0 596.94 24.4
-6 0 0 1.8 1
-6 0 0 2.7 0.7
6 0 0 0.8 0.6
-7 0 0 140.39 6.6
-7 0 0 145.39 7.1
7 0 0 156.48 6.8
-8 0 0 153.68 7.4
8 0 0 148.59 7.1
-8 0 0 153.08 6.7
9 0 0 0 1.4
-9 0 0 -0.4 0.8
-9 0 0 -1 1.3
-10 0 0 90.19 4.7
-10 0 0 94.99 5.5
10 0 0 98.49 4.7
-11 0 0 31.5 3.3
-12 0 0 0.8 1.3
-12 0 0 -0.6 1.7
-13 0 0 33 4
-13 0 0 38 3.1
-14 0 0 34.9 5
-15 0 0 21.5 2.9
-15 0 0 9.2 3.5
-16 0 0 5.8 4.3
-16 0 0 1.3 2.7
-17 0 0 3.8 2.8
0 -1 0 0.3 0.2
0 -1 0 0.1 0.2
0 -1 0 0.3 0.2
0 1 0 0.3 0.1
0 1 0 -0.1 0.2
0 1 0 0.2 0.2
2 -1 0 17.4 0.9
2 -1 0 16.8 0.8
2 -1 0 16.8 1.2
-2 -1 0 16.5 0.8
-2 -1 0 16.6 1.1
2 1 0 15.6 1.1
2 1 0 17.4 1
-2 1 0 18.7 1.2
2 1 0 17 0.8
3 -1 0 3474.65 131.29
3 1 0 3101.39 131.19
4 1 0 2515.25 100.59
-5 -1 0 653.33 26.3
5 -1 0 643.14 26.1
-5 -1 0 656.33 26.4
5 -1 0 667.13 25.9
-5 1 0 618.44 25.9
5 1 0 628.84 26.1
-5 1 0 642.84 26.4
6 -1 0 725.63 28
-6 -1 0 736.03 28.8
-6 -1 0 724.83 28.6
6 -1 0 650.13 28
-6 -1 0 688.43 28.1
6 -1 0 700.13 28.3
-6 1 0 677.23 28.1
-6 1 0 701.13 28.6
6 1 0 672.73 28.3
-7 -1 0 637.44 25.6
7 -1 0 610.14 25.8
-7 -1 0 618.54 26.1
-7 -1 0 606.24 26.3
7 -1 0 657.03 25.5
-7 1 0 628.44 25.2
-7 1 0 637.64 25.6
7 1 0 643.24 26.4
-7 1 0 632.24 26.2
8 -1 0 0.8 1
-8 -1 0 1.3 0.8
-8 -1 0 1.4 1.2
8 1 0 -0.6 1
-8 1 0 0.6 0.8
-8 1 0 0.4 1.3
-9 -1 0 246.38 11.3
9 -1 0 252.07 11.3
-9 -1 0 253.67 10.6
-9 1 0 233.28 10.5
9 1 0 245.78 11.3
-10 -1 0 14.6 1.7
-10 -1 0 14.1 2.3
-10 1 0 18 1.8
-10 1 0 16.9 2.6
-11 -1 0 0.6 1.5
-11 -1 0 1 1.1
-11 1 0 1.4 1.2
-11 1 0 0.8 1.9
-12 -1 0 2.2 1.9
-12 -1 0 0.5 1.1
-12 1 0 0.7 1.8
-12 1 0 1.2 1.4
-13 -1 0 -1.8 2
-13 -1 0 0.7 1.4
-13 1 0 2.3 1.5
-13 1 0 2.2 2.3
-14 -1 0 10.2 4.6
-14 1 0 9.2 3.4
-14 1 0 4.5 2.5
-15 -1 0 7 2.2
-15 -1 0 1.8 3.4
-15 1 0 11.6 2.7
-15 1 0 5 3
-16 -1 0 8.1 5.3
-16 -1 0 8.2 2.4
-16 1 0 9.1 3.1
-16 1 0 7.2 4.3
-17 -1 0 8.3 2.7
-17 1 0 9.2 3.2
0 -2 0 595.44 23.6
0 -2 0 578.14 23.7
0 -2 0 580.94 23.6
0 2 0 607.64 23.6
0 2 0 575.64 23.4
-1 -2 0 10.5 0.9
-1 -2 0 11.4 0.9
1 -2 0 12.2 1
1 -2 0 8.7 0.9
1 -2 0 9.5 0.9
-1 -2 0 13.5 0.9
-1 -2 0 12.5 0.9
-1 2 0 10.6 0.9
1 2 0 11.8 0.9
-1 2 0 10.3 0.7
1 2 0 10 0.9
1 2 0 11.4 0.9
-1 2 0 11.6 0.9
-1 2 0 9.8 0.6
-2 -2 0 163.08 6.8
-2 -2 0 178.58 6.6
2 -2 0 168.18 6.7
2 -2 0 145.69 6.8
-2 -2 0 153.38 6.7
2 -2 0 160.28 6.8
2 2 0 151.98 6.8
-2 2 0 152.58 6.5
2 2 0 164.38 6.7
2 2 0 159.98 6.6
-2 2 0 170.48 6.8
-2 2 0 151.28 6.5
-2 2 0 160.88 6.8
3 -2 0 760.12 32.6
-3 -2 0 818.92 32.6
3 -2 0 820.92 32.1
3 -2 0 788.52 32.5
-3 -2 0 787.72 32.4
3 -2 0 833.82 32.4
-3 2 0 840.12 32.6
-3 2 0 782.42 32.3
3 2 0 851.51 32.5
3 2 0 781.12 32.6
4 -2 0 843.52 35
4 -2 0 884.41 34.9
-4 -2 0 868.21 35.2
4 -2 0 857.01 34.5
-4 2 0 886.31 35.2
-4 2 0 822.72 34.7
4 2 0 910.91 35
5 -2 0 14.1 1.3
5 -2 0 14.3 0.8
-5 -2 0 13.2 1.6
-5 2 0 16 1.7
-5 2 0 17.3 1.2
6 -2 0 206.78 9
-6 -2 0 213.18 9.2
6 -2 0 211.08 9
6 -2 0 204.08 8.4
-6 -2 0 218.48 9.5
-6 2 0 203.38 8.8
6 2 0 212.88 9.2
-6 2 0 197.58 8.5
-6 2 0 216.78 9.4
7 -2 0 130.29 6.1
7 -2 0 130.79 5.3
-7 -2 0 137.19 6.6
-7 -2 0 130.49 6.3
-7 -2 0 124.49 5.7
-7 2 0 125.89 5.4
-7 2 0 141.79 5.9
7 2 0 128.39 6.2
-8 -2 0 148.69 6.5
8 -2 0 151.88 7.1
-8 -2 0 146.09 7.4
8 2 0 152.08 7.2
-8 2 0 141.69 6.1
-8 2 0 146.29 6.6
-8 2 0 152.38 7.4
-9 -2 0 21.2 1.8
-9 -2 0 20.3 2.4
9 -2 0 20.4 2.7
9 2 0 22.1 2.9
-9 2 0 20.9 2.7
-9 2 0 21.6 1.9
-10 -2 0 13.9 1.7
-10 -2 0 12.1 2.3
-10 2 0 5.4 1.9
-10 2 0 12 1.7
-11 -2 0 50.09 4.1
-11 -2 0 54.39 3.3
-11 2 0 55.39 4.3
-11 2 0 54.99 3.4
-12 -2 0 47.8 3.1
-12 -2 0 43.1 4.1
-12 2 0 45.2 4.2
-12 2 0 47.7 3.3
-13 -2 0 32 2.8
-13 2 0 32.9 3
-13 2 0 32.6 3.9
-14 -2 0 -1.2 3
-14 2 0 0.3 1.8
-14 2 0 1.4 2.6
-15 -2 0 0.2 3.6
-15 -2 0 -1.4 1.7
-15 2 0 -0.9 2.5
-15 2 0 1.9 3.2
-16 -2 0 -1.8 1.8
-16 2 0 1.9 2.9
-16 2 0 6.3 4
-17 -2 0 -2.2 1.9
-17 2 0 12.1 9.7
-17 2 0 2.8 3.3
0 -3 0 -0.3 0.5
0 -3 0 0.9 0.6
0 -3 0 0.2 0.6
0 3 0 1.9 0.6
0 3 0 0.2 0.3
0 3 0 0.3 0.6
1 -3 0 1637.84 63.79
-1 -3 0 1544.85 63.69
1 -3 0 1612.64 63.59
-1 3 0 1569.74 63.29
-1 3 0 1590.24 63.49
2 -3 0 855.11 36.4
2 -3 0 898.21 36.5
-2 -3 0 924.71 36.3
-2 -3 0 878.21 36.3
-2 -3 0 993.1 36.3
-2 -3 0 917.41 36.4
2 -3 0 930.91 36.3
2 3 0 836.22 36.4
-2 3 0 854.51 36.1
2 3 0 944.61 36.4
-2 3 0 928.41 36.4
-2 3 0 875.81 36.1
-3 -3 0 184.58 7.4
-3 -3 0 170.38 7.6
-3 -3 0 183.18 7.8
-3 -3 0 177.88 7.4
3 -3 0 166.48 8
3 -3 0 177.38 7.8
3 3 0 183.18 7.7
-3 3 0 185.78 7.8
3 3 0 169.28 7.9
-3 3 0 184.68 7.4
3 3 0 184.38 7.6
-3 3 0 180.58 7.3
4 -3 0 63.99 3.5
-4 -3 0 61.89 3.1
-4 -3 0 70.49 3.5
-4 3 0 66.79 3.1
4 3 0 70.59 3.4
-4 3 0 68.79 3.5
-5 -3 0 438.76 18
5 -3 0 403.66 17.7
5 -3 0 401.66 17.9
-5 3 0 450.15 18
5 3 0 448.96 17.8
-5 3 0 418.86 17.4
6 -3 0 758.32 30.6
-6 -3 0 762.52 30.9
6 -3 0 761.42 30.5
-6 3 0 662.03 30.5
-6 3 0 778.82 30.9
6 3 0 760.92 30.6
-7 -3 0 587.24 24
7 -3 0 558.34 23.9
7 -3 0 607.14 24
-7 -3 0 544.15 23.4
-7 -3 0 593.84 24.4
-7 3 0 589.04 23.6
7 3 0 587.34 24.1
-7 3 0 573.84 24.3
-7 3 0 563.24 23.3
-8 -3 0 552.14 22.9
8 -3 0 592.94 29.4
-8 -3 0 571.94 23.9
-8 -3 0 594.84 25
-8 3 0 537.55 22.6
-8 3 0 545.35 23.8
8 3 0 562.34 23.7
-8 3 0 550.14 23
-9 -3 0 35.7 3.2
-9 -3 0 31.2 2.1
-9 -3 0 31.3 2.8
9 -3 0 28.6 3.3
-9 3 0 33.4 2.3
-9 3 0 30.1 3
9 3 0 30.6 3.4
-9 3 0 28.1 1.6
-10 -3 0 96.79 4.6
-10 -3 0 85.79 5.4
-10 3 0 92.49 5.6
-10 3 0 96.99 4.9
-11 -3 0 114.19 5.4
-11 -3 0 107.69 6.3
-11 3 0 114.99 5.6
-11 3 0 103.19 6.5
-12 -3 0 4.7 1.4
-12 -3 0 3.3 2.1
-12 3 0 3 2.1
-12 3 0 3.5 1.5
-13 -3 0 -2.9 2.2
-13 -3 0 -0.4 1.2
-13 3 0 3 1.7
-13 3 0 1.9 2.4
-14 -3 0 5.9 1.7
-14 -3 0 9.2 3.4
-14 3 0 5.8 2.9
-14 3 0 4.9 2.2
-15 -3 0 0.1 1.6
-15 3 0 2.2 3.1
-15 3 0 1.6 2.9
-16 -3 0 0.7 2.1
-16 3 0 0.4 3
-16 3 0 -3.3 3.6
-17 -3 0 -0.3 1.7
-17 3 0 0.6 3.3
-17 3 0 -7.1 5.9
0 -4 0 4433.16 176.48
-1 -4 0 276.07 11.4
1 -4 0 260.47 11.5
-1 -4 0 269.27 11.4
-1 -4 0 253.17 11.5
-1 -4 0 297.17 11.4
1 -4 0 255.37 11.6
1 -4 0 279.97 11.5
1 4 0 273.87 11.5
-1 4 0 261.47 11
-1 4 0 282.07 11.4
-1 4 0 264.67 11.5
-1 4 0 293.77 11.7
-2 -4 0 22.1 1.5
2 -4 0 23.6 2.9
-2 -4 0 21 1.7
2 -4 0 19.8 2
-2 -4 0 19.4 1.7
2 -4 0 21.2 1.6
-2 -4 0 22.7 1.6
2 4 0 20.6 1.6
-2 4 0 19.8 1.7
-2 4 0 20.5 1.4
-2 4 0 19.3 1.2
2 4 0 20.7 1.7
-2 4 0 21.9 1.7
-3 -4 0 2.9 0.6
-3 -4 0 2.1 0.9
3 -4 0 1.7 0.7
3 -4 0 0 1.2
-3 -4 0 2.4 1
-3 4 0 1 0.5
3 4 0 -0.1 0.7
-3 4 0 0.7 0.8
-3 4 0 0.6 0.6
3 4 0 0.7 0.7
4 -4 0 1137.39 48.4
4 -4 0 1262.87 48.2
-4 -4 0 1179.48 48.3
-4 -4 0 1210.08 47.6
-4 -4 0 1140.09 48
-4 4 0 1179.48 47.8
4 4 0 1234.88 48.2
-4 4 0 1203.68 48.3
5 -4 0 349.87 14.7
5 -4 0 327.17 15
-5 -4 0 348.67 14.9
-5 4 0 348.57 14.3
-5 4 0 361.26 15
5 4 0 358.46 14.8
6 -4 0 329.07 13.7
-6 -4 0 334.47 14.2
6 -4 0 271.77 14.4
-6 4 0 322.77 13.9
6 4 0 323.17 13.7
-6 4 0 322.27 13.2
-7 -4 0 9.8 1.8
7 -4 0 9.1 1.5
7 4 0 8.1 1.6
-7 4 0 9.4 1.8
-7 4 0 8.1 1.2
8 -4 0 79.89 4.8
-8 -4 0 74.39 4.8
-8 -4 0 78.59 4.5
-8 -4 0 79.29 3.8
8 4 0 79.29 4.9
-8 4 0 82.09 4
-8 4 0 79.39 3.6
-8 4 0 73.99 4.7
9 -4 0 8.2 2.2
-9 -4 0 6 2.1
-9 -4 0 8.8 1.2
-9 -4 0 8 1.8
-9 4 0 5.8 1.9
-9 4 0 6.1 1.3
9 4 0 6.1 2.2
-9 4 0 8.8 0.9
-10 -4 0 4.2 2
-10 -4 0 3.9 1.1
-10 -4 0 2.4 1.6
-10 4 0 3.1 2.2
-10 4 0 4 1.6
-11 -4 0 88.99 4.4
-11 -4 0 79.89 5.2
-11 4 0 74.59 4.4
-11 4 0 67.69 5.2
-12 -4 0 27 2.3
-12 -4 0 23.4 3.3
-12 4 0 24.1 2.6
-12 4 0 23.5 3.5
-13 -4 0 1.1 1.2
-13 -4 0 0.7 2.4
-13 4 0 0.5 1.6
-13 4 0 -0.4 2
-14 -4 0 4.6 3.4
-14 -4 0 6.2 1.7
-14 4 0 3.1 2.9
-14 4 0 3.8 2.4
-15 -4 0 14.1 2.1
-15 4 0 13.2 3.1
-16 -4 0 -0.3 1.6
-16 4 0 -6.1 4.6
-16 4 0 0.9 4.1
0 -5 0 0.6 1.4
0 -5 0 -1.5 1.4
0 -5 0 0.4 0.7
0 -5 0 0 0.7
0 5 0 -0.1 0.9
0 5 0 0.1 0.3
-1 -5 0 179.38 7.8
1 -5 0 166.78 8.3
-1 -5 0 176.68 7.8
-1 -5 0 165.78 8.1
1 -5 0 186.78 7.9
-1 5 0 173.78 7.3
-1 5 0 185.18 7.8
1 5 0 179.68 8
-1 5 0 181.98 8.1
2 -5 0 29.7 2
-2 -5 0 28.8 1.9
2 -5 0 26.3 3.6
-2 -5 0 25.6 1.9
-2 -5 0 21.5 2.3
-2 -5 0 23.3 1.9
-2 5 0 22.6 1.4
2 5 0 22.3 2
2 5 0 29.4 2
-2 5 0 23.8 1.9
-2 5 0 24.7 1.9
-3 -5 0 334.97 15.7
-3 -5 0 381.36 15.2
3 -5 0 372.06 15.2
-3 -5 0 386.86 14.9
-3 -5 0 363.26 15.3
3 -5 0 331.37 15.6
-3 5 0 351.76 14.7
-3 5 0 362.56 15.2
3 5 0 357.36 15.3
-4 -5 0 2.3 1.2
-4 -5 0 2.6 1.3
-4 -5 0 1.7 0.9
-4 -5 0 1.5 0.6
4 -5 0 0.7 0.9
-4 5 0 0.2 0.6
-4 5 0 0 1
4 5 0 1.4 1
5 -5 0 59.69 3.4
-5 -5 0 51.79 3.4
-5 -5 0 51.99 3.4
-5 5 0 56.09 2.8
5 5 0 57.69 3.5
-5 5 0 51.39 3.6
-6 -5 0 60.89 3.8
6 -5 0 58.29 3.7
6 5 0 61.09 3.8
-6 5 0 62.59 3.8
-6 5 0 61.69 3.1
7 -5 0 0.1 1.3
-7 -5 0 1.9 1.4
-7 5 0 -0.3 1.3
-7 5 0 0.1 0.8
7 5 0 -0.1 1.9
8 -5 0 0.6 1.7
-8 -5 0 2.4 0.8
-8 -5 0 2.9 1.7
-8 -5 0 0.9 1.3
8 5 0 0.8 1.7
-8 5 0 2.9 1.7
-8 5 0 3 0.8
-8 5 0 4.7 1.1
-9 -5 0 -0.8 1.3
-9 -5 0 0.6 0.8
-9 -5 0 0.8 1.7
-9 5 0 -2 1.4
-9 5 0 -1.6 1
9 5 0 1.3 2.5
-9 5 0 0 0.7
-10 -5 0 2.2 1.9
-10 -5 0 0.3 0.9
-10 -5 0 0 1.6
-10 5 0 1.3 1.2
-10 5 0 -0.9 1.6
-10 5 0 0.9 0.8
-11 -5 0 5.5 2.5
-11 5 0 4.8 2.4
-11 5 0 5.5 1.5
-12 -5 0 2.9 2.3
-12 -5 0 -0.6 1
-12 5 0 1.2 1.4
-12 5 0 -0.4 2
-13 -5 0 0.2 2.8
-13 -5 0 0.1 1.2
-13 5 0 2.8 2.6
-13 5 0 1.8 2.9
-14 -5 0 2.7 1.5
-14 5 0 -2.4 2.7
-14 5 0 0.5 2.4
-15 -5 0 -0.8 1.5
-15 5 0 0.3 3.6
-15 5 0 -1.3 3.1
-16 5 0 3.3 4.5
-16 5 0 1.9 3.4
0 -6 0 898.31 37
0 -6 0 954.9 36.9
0 6 0 867.61 36.2
-1 -6 0 509.85 20.4
-1 -6 0 503.25 20.5
-1 -6 0 480.15 20.5
1 -6 0 489.55 20.6
1 -6 0 491.45 20.5
-1 6 0 477.35 19.9
-1 6 0 496.15 20.4
2 -6 0 499.55 21.2
-2 -6 0 511.85 21
-2 -6 0 515.85 21.8
-2 -6 0 513.45 21.2
-2 6 0 513.75 21.1
-2 6 0 494.35 20.5
-3 -6 0 709.83 27.5
-3 -6 0 663.83 27.5
-3 -6 0 656.73 28.1
-3 6 0 652.63 27.1
-3 6 0 686.73 27.8
3 6 0 669.03 27.9
4 -6 0 502.35 22.3
-4 -6 0 539.65 20.5
-4 -6 0 444.96 21.1
4 6 0 511.45 21.2
-4 6 0 513.55 20.4
-4 6 0 501.25 20.5
-4 6 0 504.15 21.4
5 -6 0 4.3 1.3
-5 -6 0 10 1.8
-5 -6 0 8 2.7
-5 6 0 9 1.2
-5 6 0 9.1 1.7
-5 6 0 8.4 1
5 6 0 5.7 1.5
6 -6 0 57.99 3.8
-6 -6 0 52.79 3.6
-6 6 0 52.79 2.9
6 6 0 53.39 3.9
-6 6 0 56.09 3.7
-7 -6 0 4.6 1.7
7 -6 0 7.7 2
-7 6 0 7.6 1.9
-7 6 0 7.1 1.2
7 6 0 10 2.1
-8 -6 0 1.3 0.8
-8 -6 0 3 1.7
8 -6 0 5.9 2.3
-8 6 0 2 1.7
8 6 0 2 2.4
-8 6 0 2.5 0.9
-8 6 0 1.9 1
-9 -6 0 5.5 1.8
-9 -6 0 6.6 1.1
-9 -6 0 2.7 1.9
-9 6 0 7.2 2.2
-9 6 0 5.8 1.1
-9 6 0 8.4 1.5
-10 -6 0 7.4 2.1
-10 -6 0 2.3 2.1
-10 -6 0 4.8 1.1
-10 6 0 4.6 1.5
-10 6 0 5.9 1.1
-10 6 0 3.2 2.1
-11 -6 0 32.4 4.4
-11 -6 0 28.7 3.6
-11 -6 0 30.9 2.3
-11 6 0 34.1 2.8
-11 6 0 35.4 3.9
-12 -6 0 3.1 2.5
-12 -6 0 0.5 1.1
-12 6 0 -1.1 2.1
-12 6 0 0 1.5
-13 -6 0 2.9 1.4
-13 6 0 4.1 2.3
-13 6 0 1.6 2.6
-14 -6 0 1.5 1.5
-14 6 0 -1.1 3.2
-14 6 0 1.6 2.5
-15 6 0 0.4 3.8
-15 6 0 2.6 3.4
-16 6 0 -0.8 4.8
-16 6 0 0 3.7
0 -7 0 -0.7 1
0 -7 0 0.7 0.9
0 -7 0 0.2 1
-1 -7 0 26 2.5
-1 -7 0 26.2 2.2
-1 -7 0 26.7 2.2
1 -7 0 26.2 2.6
1 -7 0 27 2.4
-1 7 0 25.2 1.4
2 -7 0 1.9 1.1
-2 -7 0 1.1 0.9
-2 -7 0 6.5 1.4
-2 -7 0 2.9 1.2
-2 7 0 2 1.1
-2 7 0 2.3 0.6
-3 -7 0 359.66 14.9
-3 -7 0 339.97 14.9
3 -7 0 341.57 15.2
-3 -7 0 361.36 15.3
-3 7 0 344.97 14.4
-3 7 0 362.26 15.2
4 -7 0 598.84 24.7
-4 -7 0 498.95 24.1
-4 -7 0 618.84 24
-4 -7 0 594.04 24.7
-4 7 0 583.24 23.8
-4 7 0 616.74 24.7
4 7 0 601.24 24.9
5 -7 0 35.4 3.3
-5 -7 0 39.8 3.1
-5 7 0 41.3 3
-5 7 0 34.6 2.2
5 7 0 35.9 3.4
6 -7 0 79.49 5.1
-6 -7 0 79.59 4.9
6 7 0 75.09 5.2
-6 7 0 80.79 3.9
-6 7 0 77.99 4.7
-7 -7 0 186.18 9.3
7 -7 0 186.48 10.7
7 7 0 178.58 9.7
-7 7 0 185.38 8.2
-7 7 0 191.28 9.2
-8 -7 0 80.49 3.9
8 -7 0 88.59 6.7
-8 7 0 89.79 6.9
-8 7 0 85.09 4.2
8 7 0 82.39 6.7
-9 -7 0 27.8 3.1
-9 -7 0 32.4 3.6
-9 -7 0 25.4 1.9
-9 7 0 31.2 3.4
-9 7 0 29.2 2.4
-9 7 0 28.1 2.1
-10 -7 0 6.9 2.7
-10 -7 0 6.9 2.2
-10 -7 0 5.8 1.1
-10 7 0 5.1 2.3
-10 7 0 5.3 1.4
-10 7 0 8.2 1.3
-11 -7 0 5.7 2.8
-11 -7 0 1.8 2.4
-11 -7 0 5.5 1.2
-11 7 0 6 1.2
-11 7 0 6.8 1.6
-11 7 0 2.6 2.3
-12 -7 0 3.6 1.3
-12 -7 0 0.3 2.9
-12 7 0 3.1 2.5
-12 7 0 6.6 2.2
-13 7 0 1.3 2.4
-13 7 0 1.3 2.7
-14 7 0 4.4 3.4
-14 7 0 -0.8 3.3
-15 7 0 1.8 4.4
0 -8 0 249.58 11.4
0 -8 0 267.87 11.5
0 -8 0 248.88 11.7
-1 -8 0 205.48 9.7
-1 -8 0 219.48 9.8
1 -8 0 218.18 9.8
1 -8 0 216.88 10
-1 -8 0 203.48 9.6
-1 8 0 208.38 8.8
-2 -8 0 91.79 5
2 -8 0 112.69 7.4
-2 -8 0 93.39 5.1
2 -8 0 94.09 5.5
-2 -8 0 92.39 5.1
-2 8 0 88.89 4.2
-3 -8 0 124.09 6
-3 -8 0 120.29 5.9
-3 -8 0 117.09 6.2
-3 8 0 120.99 5.4
-3 8 0 117.29 6.1
-4 -8 0 39.9 2.6
4 -8 0 41.1 3.7
-4 -8 0 39.8 3.2
-4 -8 0 38.9 2.7
-4 8 0 32.5 2.9
-4 8 0 42.4 2.3
5 -8 0 24.6 3
-5 -8 0 21.9 2.8
-5 8 0 19.1 2.4
5 8 0 15 2.6
-5 8 0 17.6 1.6
-6 -8 0 187.18 9.3
6 -8 0 197.48 9.7
6 8 0 172.98 9.6
-6 8 0 186.88 9.1
-6 8 0 176.08 8
-7 -8 0 73.49 3.6
7 -8 0 81.59 6.3
7 8 0 69.69 9.3
-7 8 0 84.19 4.1
-8 -8 0 91.89 4.4
-8 -8 0 101.59 6.3
-8 8 0 90.19 5.9
-8 8 0 99.79 4.8
-9 -8 0 1.5 1.9
-9 -8 0 2.5 2.2
-9 8 0 1 1
-9 8 0 2.4 1.2
-9 8 0 -1 1.7
-10 -8 0 0 2.6
-10 -8 0 0.5 2.3
-10 8 0 0.5 2
-10 8 0 4.8 1.5
-10 8 0 0.7 1
-11 -8 0 7.5 3.3
-11 8 0 7 3.8
-11 8 0 3.7 1.6
-11 8 0 6.2 1.3
-12 -8 0 2.4 3
-12 8 0 -0.5 2.4
-12 8 0 -0.2 2
-13 8 0 3.8 3.1
-13 8 0 1.7 2.9
-14 8 0 0.2 3.6
-14 8 0 0.8 3.5
-15 8 0 2.4 3.8
-15 8 0 1.5 4.7
0 -9 0 -0.7 1.3
0 -9 0 2.6 1.8
0 -9 0 2.5 2.5
1 -9 0 0.7 1.3
-1 -9 0 -0.1 1.6
-1 -9 0 2.4 1.4
1 -9 0 -0.4 1.5
1 -9 0 1 1.7
-1 -9 0 1.9 1.6
-2 -9 0 15.3 2.4
2 -9 0 7.3 2.1
-2 -9 0 11 1.9
2 -9 0 9.1 2
-2 -9 0 9.3 2
-2 9 0 12.2 1.1
3 -9 0 195.08 10.3
-3 -9 0 184.38 9.1
3 -9 0 184.68 9.4
-3 9 0 181.08 7.9
4 -9 0 161.38 10.6
-4 -9 0 189.58 8.2
-4 -9 0 182.58 9.1
-4 9 0 184.48 7.9
-4 9 0 185.98 8.9
-5 -9 0 118.59 6.5
5 -9 0 103.99 8.4
-5 9 0 107.09 5.1
-5 9 0 109.59 6.1
-6 -9 0 15.7 2.9
6 -9 0 13.2 3.1
-6 9 0 10.2 1.3
-6 9 0 11.9 2.8
7 -9 0 194.58 13.1
-7 -9 0 205.98 10.6
7 9 0 201.18 13.8
-7 9 0 205.08 10.3
-7 9 0 214.28 9.1
-8 -9 0 65.29 5.3
-8 9 0 69.89 3.9
-8 9 0 72.19 5.1
-8 9 0 67.29 3.8
-9 -9 0 31.4 3.8
-9 -9 0 32 4.1
-9 9 0 33.8 2.6
-9 9 0 37.4 4.5
-9 9 0 35.3 2.7
-10 -9 0 4.7 2.7
-10 9 0 6.3 2.7
-10 9 0 5.3 1.6
-10 9 0 7.4 1.5
-11 -9 0 4.8 3.3
-11 9 0 6.1 3.1
-11 9 0 4.9 1.4
-11 9 0 4.6 1.9
-12 -9 0 -0.2 3.4
-12 9 0 -1.3 3.2
-12 9 0 0.6 2.4
-13 9 0 -3 3.3
-13 9 0 -3.9 2.9
-14 9 0 4.7 3.9
-14 9 0 4.7 6.6
0 -10 0 656.73 27.4
0 -10 0 609.84 26.8
0 -10 0 629.04 26.9
1 -10 0 532.55 22.3
-1 -10 0 526.15 22.4
1 -10 0 507.25 22.4
-1 -10 0 513.55 22.2
1 -10 0 505.05 22.6
-2 -10 0 131.59 7
2 -10 0 123.69 7.6
2 -10 0 139.29 8.2
-2 -10 0 138.19 7.2
-2 10 0 125.99 5.7
3 -10 0 145.69 8.8
3 -10 0 142.59 8.5
-3 -10 0 150.48 7.9
-3 -10 0 142.59 7.5
-3 10 0 151.38 6.5
4 -10 0 43.9 6.1
-4 -10 0 53.89 3.4
4 -10 0 44.5 5.7
-4 10 0 40.5 2.5
-5 -10 0 43.4 3.9
-5 10 0 38.5 2.5
-5 10 0 41.3 3.6
-6 -10 0 10 2.6
6 -10 0 17.5 4.9
-6 10 0 13.1 1.6
-6 10 0 9.7 2.4
-7 -10 0 -1.2 1.7
-7 10 0 0.3 1.7
-7 10 0 0.9 0.9
-8 -10 0 7.1 2.8
-8 10 0 4.2 2.2
-8 10 0 3 1.3
-8 10 0 4.6 1.3
-9 -10 0 35.4 4.9
-9 10 0 35.6 2.8
-9 10 0 29.3 4.1
-9 10 0 35.1 2.8
-10 -10 0 34.2 4.9
-10 10 0 32.1 2.7
-10 10 0 34.6 4.6
-10 10 0 34.5 4
-11 -10 0 13.4 4
-11 10 0 13.4 2.7
-11 10 0 14.7 2
-11 10 0 13.3 3.5
-12 -10 0 17.9 6.4
-12 10 0 13.7 5.5
-12 10 0 18.8 3.4
-13 10 0 6.8 4.5
-13 10 0 5.1 4.5
-14 10 0 3.4 4.8
-14 10 0 10.9 4.1
0 -11 0 -0.1 2.7
0 -11 0 2.1 2.1
-1 -11 0 1.8 2.7
-1 -11 0 1.6 1.7
1 -11 0 1.8 1.9
1 -11 0 0.8 3
-2 -11 0 29.9 3.7
2 -11 0 32.1 4.5
-2 -11 0 34.7 3.5
2 -11 0 32.8 3.4
-3 -11 0 40.2 4.9
-3 -11 0 45.8 4
3 -11 0 50.09 5.5
-3 11 0 42.3 2.5
-4 -11 0 134.69 7.7
4 -11 0 152.38 13.4
-4 11 0 126.29 6
-5 -11 0 20.2 3.3
-5 11 0 23.5 1.9
-6 -11 0 14.1 3.1
6 11 0 16.9 1.7
-6 11 0 15.8 1.7
-7 -11 0 3.4 2.5
-7 11 0 4.2 1.2
-7 11 0 6.2 1.5
-8 -11 0 8.5 3
-8 11 0 11.8 1.9
-8 11 0 8.4 1.5
-8 11 0 5.8 2.5
-9 -11 0 7.5 3.3
-9 11 0 9.4 2.7
-9 11 0 4.3 2.7
-9 11 0 11.8 3.2
-10 -11 0 10.2 3.8
-10 11 0 8.4 1.8
-10 11 0 5.1 3
-10 11 0 6.5 2.2
-11 -11 0 1.7 4.5
-11 11 0 1.8 1.5
-11 11 0 0.7 2.5
-12 -11 0 3 4.5
-12 11 0 0.9 3.2
-12 11 0 5.1 4.5
-13 11 0 -0.9 3.5
0 -12 0 32.5 3.6
-1 -12 0 17.5 3
1 -12 0 25.2 3.5
2 -12 0 2.2 1.9
-2 -12 0 3.4 2.1
3 -12 0 0.5 2
-3 -12 0 3.1 2.1
-4 -12 0 4.6 2.4
4 -12 0 6.2 2.4
-5 -12 0 2.8 2.5
5 12 0 4.2 1.2
-5 12 0 2.2 1
-6 -12 0 13 3.2
6 12 0 7.6 1.4
-6 12 0 7.1 1.3
-7 -12 0 24.5 4.4
-7 12 0 19.6 2
-7 12 0 15.4 2.2
-8 -12 0 -0.7 3.1
-8 12 0 3.7 1.8
-9 -12 0 3.3 3.8
-9 12 0 3.8 1.7
-9 12 0 1.9 1.6
-10 -12 0 13 5.3
-10 12 0 10.6 2
-10 12 0 8.3 2.3
-11 -12 0 11.4 5.6
-11 12 0 7.5 4.4
-11 12 0 9.4 2.1
-12 -12 0 10.1 6
-12 12 0 13.9 3.2
0 -13 0 -1.3 1.9
1 -13 0 5.8 2.7
-1 -13 0 4.5 2.3
2 -13 0 0.1 2.2
-2 -13 0 1.1 2.2
-3 -13 0 91.59 6.4
3 -13 0 84.09 6.1
-4 -13 0 192.48 10.7
4 -13 0 199.38 10.5
4 13 0 191.38 8.8
-5 -13 0 132.99 8.5
5 13 0 135.39 6.4
6 -13 0 39.1 4.6
-6 -13 0 39.2 5.1
6 13 0 35.8 2.8
-6 13 0 40.6 2.6
-6 13 0 42.3 3.7
-7 -13 0 25 4.4
-7 13 0 35 2.6
-7 13 0 37.5 3.7
-8 -13 0 12.4 4.3
-8 13 0 18.8 2.6
-8 13 0 21.9 2.4
-9 -13 0 13.1 5
-9 13 0 14.7 2.3
-9 13 0 11.2 2.3
-10 -13 0 11.3 5.6
-10 13 0 4.3 2.3
-10 13 0 7.4 3.2
-11 -13 0 -4 5.5
-11 13 0 0.6 2.5
-11 13 0 3.5 1.8
0 -14 0 174.08 9.9
-1 -14 0 68.49 5.8
1 -14 0 70.99 5.7
2 -14 0 119.09 7.7
-2 -14 0 114.89 7.7
-3 -14 0 58.49 5.7
3 -14 0 56.29 5.4
3 14 0 51.79 5
-4 -14 0 21.1 4.1
4 -14 0 32.3 4.5
4 14 0 32.8 2.9
-4 14 0 35.4 3.8
-5 -14 0 1.8 3.5
5 -14 0 0.8 2.9
-5 14 0 1.7 2.4
5 14 0 -0.1 1.4
-6 -14 0 -1.6 3.2
6 -14 0 1.8 3.3
-6 14 0 3.3 2.8
-7 -14 0 1.4 4.4
7 -14 0 1.5 4
-7 14 0 6.4 2.9
-8 -14 0 2.3 4.7
8 -14 0 1.5 4.1
-8 14 0 2.8 2.7
-9 -14 0 8 10
9 -14 0 9.3 5.2
-9 14 0 2.2 2.5
-10 -14 0 -0.1 6.3
-10 14 0 3.8 2.2
0 -15 0 3.5 3.4
0 15 0 -3.6 2.3
-1 -15 0 6.5 3.6
1 -15 0 5.3 3.4
1 15 0 14 2.9
-1 15 0 1.9 2.6
-2 -15 0 19.3 4.4
2 -15 0 32.5 4.8
-2 15 0 26.8 3.8
2 15 0 18.9 2.9
-3 -15 0 26.4 4.9
3 -15 0 29 4.6
3 15 0 21.3 3
-3 15 0 25.1 3.8
-4 -15 0 40.7 6.9
4 -15 0 32.4 6
-4 15 0 51.19 5.2
4 15 0 47.4 4
5 -15 0 11.8 4.9
-5 -15 0 11.5 4.7
-5 15 0 18.4 3.9
5 15 0 11.6 2.3
-6 -15 0 6.4 5.1
6 -15 0 -4 4.2
-6 15 0 7.6 3.6
7 -15 0 -3.9 8
-7 -15 0 0.6 5.3
8 -15 0 -2.9 6.4
-8 -15 0 -3.6 5.1
-8 15 0 0.6 3
0 -16 0 4.4 4.4
0 16 0 -0.4 3.3
1 -16 0 -1.1 4.2
-1 -16 0 -1.3 4.1
-1 16 0 -2 3.4
1 16 0 1.5 3.2
2 -16 0 7.9 4.3
-2 -16 0 -0.9 3.9
-2 16 0 2.1 3.8
2 16 0 2.5 3.1
3 -16 0 -8.4 4.3
-3 -16 0 -0.1 4.2
-3 16 0 -7.1 3.5
3 16 0 0.4 2.9
4 -16 0 8.6 5
-4 -16 0 4.8 5
4 16 0 5.8 2.7
-4 16 0 11.2 4.4
5 -16 0 6 5.1
-5 -16 0 14.4 5.8
-5 16 0 12.8 3.8
-6 -16 0 11 6.3
-6 16 0 2.6 3.8
0 -17 0 3.9 6
0 17 0 3.6 4.3
1 -17 0 5.6 5.8
-1 -17 0 0.8 5.6
-1 17 0 -3.8 3.8
1 17 0 -0.3 3.8
-2 -17 0 -2.7 9.1
2 -17 0 -3.9 10.9
2 17 0 -0.2 3.3
-2 17 0 -0.2 4.4
-3 -17 0 1.8 8.7
-3 17 0 5.9 3.8
3 17 0 -2.4 3.2
-17 0 1 1.1 2.9
-16 0 1 -0.4 2.7
-16 0 1 -0.2 4
-15 0 1 0.4 2.2
-15 0 1 0 3.1
-14 0 1 5 2.9
-13 0 1 -0.1 2.2
-13 0 1 -0.8 1.3
-12 0 1 0.1 1.9
-12 0 1 -0.3 1.1
11 0 -1 -2.3 1.7
10 0 -1 1.3 2.1
10 0 -1 -0.3 1.2
-10 0 1 -0.3 1.4
-10 0 1 0.2 0.9
-9 0 1 0.3 1.4
9 0 -1 -1.3 1.5
9 0 -1 -1.1 0.9
-9 0 1 -0.6 0.8
-8 0 1 -1.5 1.2
8 0 -1 -0.1 1.1
-8 0 1 0.1 0.7
7 0 -1 0.3 0.9
-7 0 1 0.7 0.8
-7 0 1 0.6 1.1
6 0 -1 0.4 0.7
-6 0 1 -1 0.9
-6 0 1 -1.2 0.6
5 0 -1 -0.4 0.5
-5 0 1 -0.3 0.9
4 0 -1 -0.3 1.9
4 0 -1 -0.2 0.8
-4 0 1 0.8 0.8
3 0 -1 0.8 0.5
3 0 -1 0.8 0.8
-3 0 1 1.8 0.4
-3 0 1 0.5 0.3
2 0 -1 0.5 0.3
-2 0 1 1 0.3
-2 0 1 1.3 0.3
2 0 -1 1.1 0.5
1 0 -1 0.3 0.3
1 0 -1 0.2 0.2
-1 0 1 -0.1 0.2
1 0 -1 0.4 0.1
0 0 1 0.4 0.2
0 0 -1 0.2 0.1
-1 0 -1 0.2 0.2
1 0 1 0.2 0.2
-1 0 -1 0.4 0.2
-1 0 -1 0.2 0.2
1 0 1 0.2 0.2
1 0 1 0.3 0.2
-2 0 -1 -0.2 0.4
2 0 1 0.8 0.6
2 0 1 0 0.4
-2 0 -1 0.9 0.3
-2 0 -1 0.2 0.2
-2 0 -1 0.1 0.5
-3 0 -1 1.1 0.7
3 0 1 0.8 0.8
-3 0 -1 1.3 0.4
-3 0 -1 1 0.2
-3 0 -1 0.1 0.6
-4 0 -1 0 0.2
4 0 1 0.1 1.2
-4 0 -1 -0.3 0.8
-4 0 -1 1.5 0.5
-4 0 -1 0.1 0.8
-5 0 -1 -0.1 0.2
-5 0 -1 0.7 0.5
-5 0 -1 -0.2 0.8
5 0 1 -0.1 0.4
5 0 1 1.1 0.4
-5 0 -1 1 0.9
-6 0 -1 0.5 0.6
6 0 1 0.3 0.5
-6 0 -1 -0.1 0.9
6 0 1 0.2 0.3
-6 0 -1 0.6 0.2
7 0 1 0.1 0.6
-7 0 -1 -0.5 1
-7 0 -1 0.1 0.7
-8 0 -1 -0.1 1.1
8 0 1 0.2 0.9
-8 0 -1 1.3 0.8
-9 0 -1 0.2 0.8
-9 0 -1 0.4 1.3
-10 0 -1 -0.2 0.9
10 0 1 2 1.2
-10 0 -1 0.8 1.4
-11 0 -1 -1.7 1.5
-12 0 -1 -1.3 1.1
-12 0 -1 -1.3 1.8
-13 0 -1 -1.6 2.1
-13 0 -1 1.5 1.4
-14 0 -1 0.2 2.9
-14 0 -1 -1.7 2.4
-15 0 -1 -1.3 3.2
-15 0 -1 1.7 2.1
-16 0 -1 1.5 2.4
-16 0 -1 1.3 5.4
-17 0 -1 -1.7 2.5
-17 -1 1 -0.7 2.7
-17 1 1 0.8 3.2
-17 1 1 1.3 6.4
-16 -1 1 13.8 2.9
-16 -1 1 14.3 4.5
-16 1 1 10.9 3.3
-16 1 1 10.9 4.3
-15 -1 1 6.6 3.5
-15 -1 1 0.6 2
-15 1 1 2 2.5
-15 1 1 -0.1 3.1
-14 -1 1 5.7 3.2
-14 -1 1 1.1 2.7
-14 1 1 3.7 2.8
-14 1 1 2.4 2.5
-13 -1 1 2.6 2.3
-13 -1 1 1.3 1.4
-13 1 1 0.3 1.5
-13 1 1 2.1 2.2
-12 -1 1 19.3 3.1
-12 -1 1 18.4 2.1
-12 1 1 12.9 2.8
-12 1 1 13.9 1.9
-11 -1 1 16.1 2.4
-11 -1 1 12.3 2.4
-11 1 1 11 2.5
-11 1 1 9.8 1.6
10 -1 -1 251.47 10.2
-10 -1 1 247.88 10.5
10 -1 -1 236.18 11.7
-10 -1 1 245.38 11.4
-10 1 1 235.38 10.5
-10 1 1 231.58 11.4
10 1 -1 244.68 11.8
9 -1 -1 26.4 3
-9 -1 1 27.5 2
-9 -1 1 25 2.7
9 -1 -1 27.3 2
9 1 -1 27.3 3.2
-9 1 1 26 2.7
-9 1 1 25.1 2
8 -1 -1 0.7 1.1
-8 -1 1 0 1.3
8 -1 -1 0.4 0.8
-8 -1 1 0.6 0.8
-8 1 1 1.4 0.9
-8 1 1 0.5 1.2
8 1 -1 0.3 1.1
7 -1 -1 151.58 6.4
7 -1 -1 142.59 6.8
-7 1 1 153.78 7.1
-7 1 1 136.09 5.9
-7 1 1 149.19 6.4
7 1 -1 151.78 6.9
6 -1 -1 642.34 25
-6 -1 1 644.34 25.6
-6 -1 1 611.84 25.4
6 -1 -1 612.04 25.3
-6 1 1 570.54 24.6
-6 1 1 621.14 25.5
-6 1 1 609.84 24.9
6 1 -1 625.34 25.3
5 -1 -1 -0.5 0.5
-5 -1 1 0.4 0.9
5 1 -1 -0.7 0.7
-5 1 1 -0.5 0.5
-5 1 1 0.8 1
4 -1 -1 25.5 1.6
4 -1 -1 21 2.2
-4 -1 1 21 1.8
4 -1 -1 24.1 1.4
4 -1 -1 24 1.4
4 1 -1 23.2 1.6
-4 1 1 22.9 1.8
4 1 -1 19.4 2.1
-3 -1 1 110.19 4.5
3 -1 -1 109.39 4.8
3 -1 -1 116.89 4.7
-3 -1 1 117.49 5
3 -1 -1 98.79 5.1
3 1 -1 99.19 5.2
3 1 -1 113.29 4.9
-3 1 1 116.39 5
-3 1 1 121.79 4.8
2 -1 -1 1464.65 58.69
2 1 -1 1509.45 58.39
2 1 -1 1433.36 58.69
1 -1 -1 645.94 25.8
1 1 -1 642.24 25.8
-1 1 1 646.04 25.8
0 -1 -1 11.6 0.6
0 -1 -1 10.8 0.7
0 -1 -1 10.5 0.5
0 -1 -1 10.9 0.6
0 -1 -1 10.1 0.7
0 1 -1 10.8 0.5
0 1 1 10.8 0.7
0 1 1 11.4 0.6
0 1 1 10.6 0.7
0 1 1 11.8 0.6
2 -1 1 517.55 20.8
-2 -1 -1 523.85 20.8
-2 -1 -1 498.75 20.5
2 1 1 514.65 20.8
-2 1 -1 511.95 20.6
-2 1 -1 535.75 20.8
-2 1 -1 501.55 20.6
3 -1 1 3358.06 133.69
3 -1 1 3351.36 133.69
3 1 1 3356.56 133.89
4 -1 1 2219.38 89.39
4 -1 1 2174.68 88.79
4 -1 1 2255.27 89.39
4 -1 1 2369.06 89.09
-4 1 -1 2177.68 88.79
4 1 1 2209.68 89.39
-5 -1 -1 486.85 19.4
5 -1 1 473.75 19.5
-5 -1 -1 477.15 19.8
-5 -1 -1 484.35 20
5 -1 1 500.05 19.4
5 1 1 485.35 19.5
-5 1 -1 446.16 19.4
-5 1 -1 494.65 19.9
-6 -1 -1 604.04 24.5
-6 -1 -1 608.54 24.8
6 -1 1 609.74 24.2
-6 -1 -1 579.84 24.1
6 -1 1 580.84 24.1
6 -1 1 596.74 24.1
-6 1 -1 564.24 23.9
6 1 1 612.64 24.3
-6 1 -1 604.04 24.2
-6 1 -1 613.04 24.7
-7 -1 -1 166.18 8.3
7 -1 1 183.28 7.3
7 -1 1 179.38 7.4
-7 -1 -1 176.18 7.5
7 -1 1 173.28 7.7
-7 -1 -1 171.58 8
-7 1 -1 192.28 8.3
-7 1 -1 175.58 7.6
-7 1 -1 158.98 7.2
7 1 1 185.58 7.8
-8 -1 -1 294.17 12.7
-8 -1 -1 291.77 13.3
8 -1 1 318.27 12.5
8 -1 1 309.07 13.1
-8 1 -1 302.07 12.8
-8 1 -1 300.37 13.4
8 1 1 323.17 14.3
-9 -1 -1 1.6 1.2
-9 -1 -1 -0.8 0.7
9 -1 1 0.4 1.3
9 1 1 2.5 1.4
-9 1 -1 1.1 1.4
-9 1 -1 0.6 0.9
-10 -1 -1 13.8 2.3
-10 -1 -1 6.8 1.3
-10 1 -1 7.9 1.9
-10 1 -1 7.8 1.3
-11 -1 -1 16.3 2.5
-11 -1 -1 16.4 1.9
-11 1 -1 19.4 2.1
-12 -1 -1 35 2.8
-12 1 -1 31.5 3.6
-12 1 -1 35.8 2.8
-13 -1 -1 3.6 1.5
-13 -1 -1 2.9 2.3
-13 1 -1 0.5 2
-13 1 -1 5.7 1.6
-14 -1 -1 9 2.5
-14 1 -1 19.9 3
-14 1 -1 14.2 3.2
-15 -1 -1 6.8 3.7
-15 -1 -1 6.1 1.9
-15 1 -1 7.3 3.6
-15 1 -1 5.2 2.2
-16 -1 -1 13.2 2.5
-16 1 -1 14.2 3.1
-16 1 -1 9.6 4.3
-17 -1 -1 -0.9 2.1
-17 1 -1 -1.3 2.8
-17 -2 1 10.1 2.7
-17 2 1 12.6 11.7
-17 2 1 13.3 4
-16 -2 1 11.2 2.5
-16 -2 1 10.5 6.6
-16 2 1 7.5 4.1
-16 2 1 17.8 3.7
-15 -2 1 32.8 3.4
-15 -2 1 19.3 4.1
-15 2 1 34.2 4.8
-15 2 1 35.3 3.9
-14 -2 1 40.6 4.4
-14 2 1 46.6 5
-13 -2 1 22.5 2.5
-13 -2 1 21.3 3.4
-13 2 1 23.6 2.7
-13 2 1 23.2 3.6
-12 -2 1 1.2 1.1
-12 -2 1 -1 1.8
12 2 -1 2.9 2.1
-12 2 1 2.4 2
-12 2 1 0.1 1.3
-11 -2 1 2.4 1.8
-11 -2 1 2.1 1.2
-11 2 1 2.2 1.9
-11 2 1 2.1 1.3
-10 -2 1 10.7 2.3
-10 -2 1 10.7 1.5
10 -2 -1 16.4 3.3
-10 2 1 16.8 2.7
-10 2 1 13.7 1.7
10 2 -1 17.9 3
9 -2 -1 5.8 1.8
-9 -2 1 14.9 2.3
-9 -2 1 8.8 1.3
9 -2 -1 9.6 0.9
-9 2 1 7.4 1.9
-9 2 1 7 1.2
9 2 -1 6.3 3
-8 -2 1 0.4 0.8
8 -2 -1 1.2 1.1
8 -2 -1 0.6 0.6
-8 -2 1 -0.4 1.1
-8 -2 1 0.4 1.3
8 2 -1 0.4 1.1
-8 2 1 0.8 0.9
-8 2 1 1.2 0.4
-8 2 1 2 1.5
7 -2 -1 9.2 1.4
7 -2 -1 10.7 1
-7 -2 1 12.2 2
-7 2 1 15.1 2.3
-7 2 1 10.7 1.3
7 2 -1 9.6 1.5
-7 2 1 10.7 0.8
6 -2 -1 132.79 5.7
-6 -2 1 141.79 6.5
6 -2 -1 132.79 6.2
6 2 -1 135.09 6.3
-6 2 1 131.89 5.9
-6 2 1 135.39 6.4
-5 -2 1 281.47 11.9
5 -2 -1 267.97 11.3
5 -2 -1 271.97 11.7
5 2 -1 288.27 11.8
-5 2 1 274.57 11.9
-5 2 1 275.27 11.4
4 -2 -1 544.55 23.1
-4 -2 1 555.24 22.7
4 -2 -1 577.14 23.1
-4 -2 1 563.84 23.3
-4 -2 1 599.14 22.8
4 -2 -1 568.34 22.8
-4 2 1 570.94 23.3
4 2 -1 584.04 23.2
-4 2 1 575.54 23.1
-4 2 1 543.85 22.9
3 -2 -1 6351.46 252.17
3 2 -1 6321.77 252.07
2 -2 -1 3778.12 149.29
2 2 -1 3718.73 149.19
-1 -2 1 809.72 31.9
1 -2 -1 763.12 31.9
-1 -2 1 845.02 31.9
-1 -2 1 793.22 31.9
1 -2 -1 804.32 32
-1 2 1 786.42 31.8
-1 2 1 771.52 31.7
-1 2 1 829.92 31.9
1 2 -1 754.22 31.8
0 -2 1 1792.92 70.19
0 2 1 1727.33 69.89
1 -2 1 2076.99 82.79
2 -2 1 4074.79 160.48
2 2 1 3988.1 160.48
-3 -2 -1 1014.6 39.8
3 -2 1 985.4 39.7
3 -2 1 912.91 39.8
-3 2 -1 1003 39.7
-3 2 -1 968.2 39.4
3 2 1 1048.1 39.5
3 2 1 935.51 39.8
3 2 1 1026.6 39.5
-4 -2 -1 20.1 1.6
4 -2 1 22.7 1.7
-4 -2 -1 18.3 1.1
4 -2 1 20.5 1.2
4 -2 1 19.1 2.1
-4 2 -1 18.5 1.6
-4 2 -1 18.1 1.3
4 2 1 16 1.2
4 2 1 19.6 1.1
-5 -2 -1 865.11 34.6
-5 -2 -1 833.52 34
-5 -2 -1 848.42 34.3
5 -2 1 861.01 34.1
5 -2 1 737.73 35
-5 2 -1 823.12 33.9
5 2 1 915.81 34.3
5 2 1 862.01 33.9
-5 2 -1 872.41 34.1
-5 2 -1 868.11 34.6
-6 -2 -1 405.26 17.2
6 -2 1 422.96 17.6
-6 -2 -1 435.86 17.6
6 -2 1 420.36 17.4
-6 -2 -1 431.36 17.9
-6 2 -1 435.96 17.9
-6 2 -1 392.26 17.1
6 2 1 448.66 17.5
-6 2 -1 424.06 17.3
7 -2 1 13.3 1.9
-7 -2 -1 11.3 1.9
-7 -2 -1 12.1 1.6
-7 -2 -1 9.7 1.1
7 -2 1 9.8 1.4
-7 2 -1 14.3 2.2
-7 2 -1 11.1 1.3
7 2 1 11.4 1.6
-8 -2 -1 290.97 12.8
-8 -2 -1 285.77 11.9
-8 -2 -1 287.17 12.5
8 -2 1 286.67 12.4
-8 2 -1 286.37 12
-8 2 -1 277.37 11.6
-8 2 -1 272.37 12.6
-9 -2 -1 379.66 16
9 -2 1 390.16 16.7
-9 -2 -1 370.96 16.6
-9 2 -1 395.56 16.2
9 2 1 400.96 16.8
-9 2 -1 373.86 16.9
-10 -2 -1 94.29 4.7
-10 -2 -1 91.99 5.4
-10 2 -1 102.79 5.7
-10 2 -1 92.69 5
-11 -2 -1 0 1
-11 -2 -1 0 1.6
-11 2 -1 0.1 1.7
-11 2 -1 1.2 1.1
-12 -2 -1 10 1.7
-12 -2 -1 4.4 2.1
-12 2 -1 3.1 2.1
-12 2 -1 5.4 1.6
-13 -2 -1 3.3 2.5
-13 -2 -1 4.3 1.4
-13 2 -1 4.4 2.4
-13 2 -1 6.2 1.7
-14 -2 -1 -0.6 3.4
-14 -2 -1 -1.7 1.7
-14 2 -1 0.7 2.4
-14 2 -1 1.5 1.9
-15 -2 -1 0.5 1.7
-15 -2 -1 -0.6 4.5
-15 2 -1 -0.4 3
-15 2 -1 -0.8 2.4
-16 -2 -1 6.1 2.3
-16 2 -1 4 4
-16 2 -1 0.9 2.6
-17 -2 -1 -2.1 1.9
-17 2 -1 0.1 3.1
-17 -3 1 2.8 2.1
-17 3 1 2.2 3.9
-17 3 1 -6.5 5.4
-16 -3 1 2.7 2.4
-16 3 1 -2.6 3.7
-16 3 1 3.2 3.6
-15 -3 1 -2.6 3.6
-15 -3 1 2.7 1.9
-15 3 1 -0.1 2.8
-15 3 1 -1.1 3.2
-14 -3 1 1.7 2.8
-14 -3 1 -0.6 1.5
-14 3 1 -0.1 2.6
-14 3 1 -0.7 2.1
-13 -3 1 -2.8 2.2
-13 -3 1 1.3 1.4
-13 3 1 0.3 1.6
-13 3 1 -3.1 2
-12 -3 1 1.7 2
-12 -3 1 2.3 1.2
-12 3 1 1.2 1.4
-12 3 1 2.7 2.1
-11 -3 1 21.6 3.7
-11 -3 1 26.7 3.4
-11 3 1 16.9 2.9
-11 3 1 22.4 2.3
-10 -3 1 10 2.1
-10 -3 1 10.3 1.5
-10 3 1 9.1 1.5
-10 3 1 6.2 2.1
-9 -3 1 14.5 2.3
-9 -3 1 7.1 1.9
9 -3 -1 5.4 1.9
-9 -3 1 9.1 1.2
9 3 -1 6.8 1.9
-9 3 1 8.7 0.9
-9 3 1 9.4 1.4
-9 3 1 7.8 2
-8 -3 1 21.7 2.3
-8 -3 1 18.8 2.5
8 -3 -1 19.4 2.5
-8 3 1 21 2.4
-8 3 1 22.2 1.3
8 3 -1 22.2 2.6
-8 3 1 20.1 1.7
7 -3 -1 11.9 1.6
7 -3 -1 15.1 2
-7 -3 1 11.7 1.9
7 -3 -1 9.7 0.8
7 3 -1 9.4 1.5
-7 3 1 10.7 1.3
-7 3 1 11.5 1.9
6 -3 -1 479.15 21.1
6 -3 -1 520.15 21.2
6 -3 -1 475.85 20.5
-6 -3 1 522.05 21.5
-6 3 1 528.55 20.8
-6 3 1 519.45 21.4
6 3 -1 530.35 21.3
-5 -3 1 15.5 1.7
5 -3 -1 18.8 1.9
5 -3 -1 14 1.6
5 -3 -1 18 1.1
-5 3 1 16.8 1.8
5 3 -1 17.6 0.9
-5 3 1 16.9 1.3
5 3 -1 16.4 1.7
-4 -3 1 182.18 6.7
4 -3 -1 162.58 7
4 -3 -1 152.48 6.5
-4 -3 1 170.08 6.7
4 -3 -1 141.19 7
-4 -3 1 154.48 7.1
-4 -3 1 153.18 6.7
-4 3 1 155.58 7
4 3 -1 159.68 7
-4 3 1 155.48 7.1
-4 3 1 149.49 6.6
3 -3 -1 254.97 10.1
-3 -3 1 242.38 10.3
3 -3 -1 267.47 10.5
3 -3 -1 232.48 10.6
-3 -3 1 250.47 10.3
-3 -3 1 241.18 10.5
3 -3 -1 233.58 10.5
3 3 -1 261.57 10.5
-3 3 1 260.47 10.5
-3 3 1 238.18 10.1
-3 3 1 258.27 10.5
-3 3 1 247.58 10.1
3 3 -1 226.98 10.6
-2 -3 1 433.46 17.3
2 -3 -1 400.06 17.4
2 -3 -1 381.26 17.3
-2 -3 1 415.36 17.2
2 -3 -1 455.65 17.3
-2 -3 1 432.16 17.2
2 -3 -1 418.96 17
-2 3 1 394.26 17
-2 3 1 407.66 16.9
2 3 -1 435.76 17.3
-2 3 1 434.76 17.3
2 3 -1 401.36 17.3
-2 3 1 448.96 17.4
-2 3 1 436.16 17.2
1 -3 -1 2866.81 114.49
-1 3 1 2877.41 114.39
0 -3 1 846.12 34.4
0 -3 -1 816.32 34.2
0 -3 -1 879.11 34.3
0 -3 1 876.71 34.4
0 -3 1 853.21 34.3
0 -3 -1 819.72 34.4
0 3 1 859.61 34
0 3 1 835.82 34.3
0 3 1 913.51 34.2
0 3 -1 831.42 34
1 -3 1 377.56 15.9
-1 -3 -1 406.86 15.5
-1 -3 -1 374.66 16
-1 -3 -1 374.56 15.6
-1 -3 -1 389.76 15.5
-1 3 -1 365.46 15.4
-1 3 -1 395.86 15.7
1 3 1 388.26 15.7
1 3 1 358.66 15.7
1 3 1 390.86 15.6
3 -3 1 1592.24 62.89
-3 -3 -1 1449.76 62.69
3 3 1 1690.03 62.79
-3 3 -1 1535.45 62.29
4 -3 1 851.51 35.7
4 -3 1 870.61 35.5
-4 -3 -1 888.31 35.8
4 3 1 902.51 35.5
-4 3 -1 884.61 35.7
4 3 1 884.61 35.4
-4 3 -1 880.81 35.3
5 -3 1 517.25 21.4
-5 -3 -1 536.85 21.8
-5 -3 -1 478.65 21
5 -3 1 520.45 21.6
5 3 1 555.54 21.6
5 3 1 524.15 21.1
-5 3 -1 527.95 21.2
-5 3 -1 522.95 21.7
6 -3 1 33 3
-6 -3 -1 39.5 2.4
-6 -3 -1 36.1 2
6 -3 1 42.1 2.6
-6 -3 -1 39.5 2.7
-6 3 -1 32.8 2.4
6 3 1 40 2.6
-6 3 -1 40.9 2.8
-6 3 -1 36.3 1.9
7 -3 1 18.3 1.9
-7 -3 -1 18.4 1.9
-7 -3 -1 19.5 2.2
7 -3 1 23.4 3.1
-7 -3 -1 17.6 1.4
7 3 1 21.8 2.7
-7 3 -1 18.5 1.2
-7 3 -1 20.5 2.3
-7 3 -1 16.7 1.6
-8 -3 -1 13.3 2.3
8 -3 1 9 1.6
-8 -3 -1 15.8 2
-8 -3 -1 10.5 1.3
8 3 1 12.3 1.8
-8 3 -1 10.4 1.4
-8 3 -1 11.3 1
-8 3 -1 11.5 2
-9 -3 -1 37.6 3
-9 -3 -1 38 2.3
9 -3 1 42 3.5
-9 -3 -1 34.1 3.4
-9 3 -1 37.9 1.9
9 3 1 41.5 3.6
-9 3 -1 40.3 2.5
-9 3 -1 32 3.1
-10 -3 -1 6.8 1.3
-10 -3 -1 5.6 1.8
-10 -3 -1 3.8 2
-10 3 -1 4.7 1.3
-10 3 -1 4.9 1.9
-11 -3 -1 8.3 2.1
-11 -3 -1 11.5 1.6
-11 3 -1 8 2.5
-11 3 -1 11.7 1.8
-12 -3 -1 2.6 1.2
-12 -3 -1 4.5 2.1
-12 3 -1 2.1 1.3
-12 3 -1 5.5 2.1
-13 -3 -1 2.2 2.4
-13 -3 -1 2 1.3
-13 3 -1 2.9 2.3
-13 3 -1 3.2 1.8
-14 -3 -1 2 3.2
-14 -3 -1 -0.1 1.3
-14 3 -1 0.6 2.6
-14 3 -1 -1.5 2
-15 -3 -1 -0.7 1.5
-15 3 -1 2.1 3.2
-15 3 -1 1 2.7
-16 -3 -1 3.9 2.1
-16 3 -1 0.5 3.9
-16 3 -1 1.8 3.1
-16 -4 1 10.5 2.1
-16 4 1 7.8 5.3
-16 4 1 1.2 3.8
-15 -4 1 2.6 1.7
-15 4 1 5.3 3.3
-14 -4 1 -1.2 2.9
-14 -4 1 3 1.7
-14 4 1 -0.4 2.5
-14 4 1 1 2.2
-13 -4 1 2.7 1.4
-13 -4 1 -0.6 2.3
-13 4 1 2 1.7
-13 4 1 1.3 2.4
-12 -4 1 2.2 1.1
-12 -4 1 4 2.1
-12 4 1 4 2.3
-12 4 1 1.6 1.5
-11 -4 1 3.6 2.4
-11 4 1 3 1.4
-11 4 1 5.6 2.4
-10 -4 1 13.2 2.3
-10 -4 1 14.9 1.8
-10 -4 1 21.5 3.3
-10 4 1 19 3
-10 4 1 19.5 2.1
-9 -4 1 0.8 1.4
-9 -4 1 0.8 0.8
9 -4 -1 0.9 1.9
-9 -4 1 0.7 1.6
-9 4 1 -1.9 1.4
9 4 -1 -2 1.9
-9 4 1 0 0.9
-9 4 1 0.9 0.6
-8 -4 1 3.3 1.6
8 -4 -1 3 1.5
8 4 -1 -0.1 1.4
-8 4 1 3.3 1
-8 4 1 1.4 1.6
7 -4 -1 355.76 15.8
-7 -4 1 375.06 16
-7 4 1 356.26 15.9
-7 4 1 369.06 15.2
7 4 -1 370.06 16
6 -4 -1 219.98 11.1
6 -4 -1 243.38 10.8
-6 -4 1 286.17 12.9
-6 4 1 230.38 10.9
6 4 -1 242.78 10.8
-6 4 1 249.48 10.3
5 -4 -1 3 2
-5 -4 1 7 1.5
-5 -4 1 5 1
5 -4 -1 7 1.2
-5 -4 1 4.4 0.6
-5 4 1 5.5 0.8
5 4 -1 4.5 1.1
-5 4 1 3 1.3
4 -4 -1 36.9 2.4
4 -4 -1 32.3 2.8
-4 -4 1 35.9 2
-4 -4 1 35.8 2.3
-4 -4 1 30.6 2.1
4 4 -1 36 2.4
-4 4 1 36.8 2.5
-4 4 1 33.5 1.9
-4 4 1 33.3 1.9
-4 4 1 39 2.5
-3 -4 1 6.5 1.1
3 -4 -1 7.2 1
-3 -4 1 6.8 1.2
3 -4 -1 7.9 1.6
-3 -4 1 6.6 1
-3 4 1 5.9 1
-3 4 1 9.4 1.4
3 4 -1 6.5 1.1
-3 4 1 7.3 0.8
-3 4 1 7.5 1.3
-2 -4 1 234.48 10.4
-2 -4 1 246.28 10.4
2 -4 -1 259.97 10.4
2 -4 -1 221.98 10.6
-2 -4 1 256.57 10.4
-2 -4 1 251.47 10.4
2 -4 -1 226.98 10.5
-2 4 1 243.58 10
-2 4 1 231.78 10.2
2 4 -1 261.47 10.5
-2 4 1 246.98 10.5
-2 4 1 254.17 10.4
1 -4 -1 26.7 1.9
-1 -4 1 28.1 2
1 -4 -1 26 2.2
-1 -4 1 24.8 2.1
1 -4 -1 27.9 1.9
-1 -4 1 27.6 2
-1 -4 1 26.2 1.8
-1 4 1 25.5 1.3
-1 4 1 25.7 1.8
-1 4 1 25.5 1.7
-1 4 1 27.5 1.9
0 -4 -1 205.78 8.4
0 -4 1 191.58 8.6
0 -4 1 206.68 8.5
0 -4 -1 203.68 8.4
0 -4 -1 189.98 8.3
0 -4 -1 181.88 8.6
0 -4 1 195.28 8.5
0 4 1 198.88 8.2
0 4 1 197.18 8.5
0 4 1 189.08 7.9
0 4 1 190.48 8.4
0 4 -1 191.58 8
-1 -4 -1 39 2.2
-1 -4 -1 33.5 2.5
1 -4 1 38.5 2.6
-1 -4 -1 41 2.3
-1 -4 -1 38.2 2.1
-1 -4 -1 41.5 2.2
1 4 1 39.9 2.3
-1 4 -1 37.5 1.8
-1 4 -1 38.5 2.3
2 -4 1 315.57 12.5
-2 -4 -1 285.27 12.3
2 -4 1 290.87 13.1
-2 -4 -1 326.77 12.3
-2 -4 -1 293.87 12.6
-2 -4 -1 282.77 12.6
-2 4 -1 278.17 12.2
2 4 1 298.57 12.5
-2 4 -1 300.67 12.6
2 4 1 319.27 12.6
-2 4 -1 296.47 12.2
3 -4 1 279.27 12.7
-3 -4 -1 306.37 12.5
3 -4 1 303.97 12.4
-3 -4 -1 272.97 12.4
3 4 1 306.47 12.4
-3 4 -1 296.17 12.5
3 4 1 312.67 12.5
-3 4 -1 286.87 12
-3 4 -1 287.77 12
4 -4 1 620.54 25.5
4 -4 1 553.64 25.8
-4 -4 -1 637.34 25.7
4 4 1 654.63 25.4
-4 4 -1 601.14 24.8
4 4 1 649.34 25.5
-4 4 -1 624.54 25.2
-4 4 -1 647.84 25.7
5 -4 1 35.9 2.3
-5 -4 -1 33.7 2.7
5 -4 1 34 3.2
5 4 1 37.8 2.4
-5 4 -1 33.8 2
5 4 1 37.6 2.1
-5 4 -1 34.2 2.8
6 -4 1 150.88 8
6 -4 1 159.48 7.3
-6 -4 -1 163.18 7.6
-6 -4 -1 150.68 6.7
6 4 1 161.48 7.4
-6 4 -1 166.48 7.6
-6 4 -1 158.28 6.9
-6 4 -1 166.38 6.8
7 -4 1 -0.1 0.9
-7 -4 -1 0 1.3
-7 -4 -1 1.1 0.6
-7 -4 -1 -0.6 1
-7 4 -1 1.5 0.9
-7 4 -1 -1 1.2
-7 4 -1 0.3 0.6
7 4 1 -1.1 1
-8 -4 -1 13.6 2.3
-8 -4 -1 18 2.1
-8 -4 -1 18.7 1.5
8 -4 1 19.2 2.3
8 4 1 16.4 2.2
-8 4 -1 16.2 1.3
-8 4 -1 17.8 1.7
-8 4 -1 14.8 2.2
9 -4 1 193.38 9.6
-9 -4 -1 176.98 8.5
-9 -4 -1 185.88 7.8
-9 -4 -1 182.08 9.1
-9 4 -1 164.28 8.8
9 4 1 177.98 9.1
-9 4 -1 179.48 7.6
-9 4 -1 168.68 8
-10 -4 -1 99.99 4.8
-10 -4 -1 97.79 5.6
-10 -4 -1 98.19 6.2
-10 4 -1 89.89 6
-10 4 -1 102.49 4.6
-11 -4 -1 8.1 1.4
-11 -4 -1 7.2 2
-11 4 -1 14.2 2.8
-11 4 -1 8 1.6
-12 -4 -1 27.8 3.5
-12 -4 -1 26 2.3
-12 4 -1 23.5 3.6
-12 4 -1 22.7 2.6
-13 -4 -1 -1.9 2.7
-13 -4 -1 2.4 1.3
-13 4 -1 -0.3 1.6
-13 4 -1 2.5 2.6
-14 -4 -1 7.4 1.7
-14 4 -1 9 2.6
-14 4 -1 8.4 3.2
-15 -4 -1 3.8 1.6
-15 4 -1 4.8 3
-15 4 -1 -2.9 3.5
-16 -4 -1 -0.3 1.6
-16 4 -1 -6.2 4.4
-16 4 -1 -1.9 3.5
-16 -5 1 0.9 1.7
-16 5 1 3.6 4.1
-16 5 1 -1.3 3.9
-15 -5 1 1.2 1.6
-15 5 1 2.5 3.1
-15 5 1 -2.2 3.7
-14 -5 1 5.2 1.6
-14 -5 1 0.8 3.5
-14 5 1 -0.8 3
-14 5 1 5.3 2.6
-13 -5 1 0.5 1.2
-13 -5 1 -2.3 2.5
-13 5 1 -0.6 2.5
-13 5 1 0.5 2.3
-12 -5 1 22 2.2
-12 -5 1 24 3.4
-12 5 1 30.1 3.8
-12 5 1 26.9 2.7
-11 -5 1 49.2 4.3
-11 -5 1 63.49 3.4
-11 5 1 57.49 3.6
-11 5 1 57.79 4.8
-10 -5 1 235.28 11
-10 -5 1 228.78 9.9
-10 -5 1 218.98 11.4
-10 5 1 245.88 10.2
-10 5 1 222.98 11.2
-10 5 1 218.58 9.6
9 -5 -1 61.59 5.2
-9 -5 1 53.89 4.3
-9 -5 1 56.19 3.9
-9 -5 1 53.39 3
-9 5 1 50.29 2.7
-9 5 1 53.09 3.2
-9 5 1 51.09 4.1
-8 -5 1 19 2.7
8 -5 -1 19.5 2.6
8 5 -1 11.2 2.3
-8 5 1 15.4 1.7
-8 5 1 15.4 2.3
-7 -5 1 25.7 2.6
7 -5 -1 25.5 2.7
-7 5 1 25.2 1.9
7 5 -1 24.8 2.8
-7 5 1 24.9 2.6
6 -5 -1 12.7 2.4
-6 -5 1 10.6 1.8
-6 5 1 12.8 1.9
-6 5 1 12.4 1.3
6 5 -1 11.5 1.8
-5 -5 1 46.8 3.1
-5 -5 1 43.3 3
-5 -5 1 46.3 2.3
-5 -5 1 45.1 2.3
5 -5 -1 44.7 3
-5 5 1 48.2 3.1
-5 5 1 41.6 2.4
-5 5 1 41.5 2.4
-4 -5 1 173.58 8.6
4 -5 -1 208.88 8.8
-4 -5 1 190.08 8.7
-4 -5 1 193.68 8.3
-4 5 1 192.88 8.1
-4 5 1 202.78 8.7
4 5 -1 191.18 8.8
-3 -5 1 81.19 3.7
3 -5 -1 69.29 4.7
-3 -5 1 60.89 4.2
3 -5 -1 75.49 3.9
-3 -5 1 75.99 3.8
-3 -5 1 70.19 3.8
-3 5 1 74.09 3.9
-3 5 1 71.79 4
-3 5 1 70.59 3.6
-3 5 1 72.99 3.3
3 5 -1 77.59 4
2 -5 -1 667.03 26.8
-2 -5 1 669.33 26.8
-2 -5 1 631.14 27
-2 -5 1 672.53 26.8
-2 -5 1 665.93 26.8
-2 5 1 624.54 26.3
-2 5 1 670.83 26.8
2 5 -1 654.33 26.9
-2 5 1 617.74 26.6
-2 5 1 677.43 27.1
-1 -5 1 12 1.5
-1 -5 1 14.2 1.3
1 -5 -1 15.3 1.5
-1 -5 1 9.5 1.7
-1 -5 1 13.6 1.5
1 -5 -1 11.3 2
-1 5 1 15 1.4
-1 5 1 12.1 0.8
-1 5 1 11.6 1.6
-1 5 1 11.9 2
0 -5 -1 79.39 4.3
0 -5 1 82.09 4.6
0 -5 -1 86.49 4.8
0 -5 -1 91.69 4.3
0 -5 1 90.99 4.3
0 -5 -1 86.49 4.3
0 -5 1 89.89 4.4
0 5 -1 87.99 3.8
0 5 1 92.99 4.5
-1 -5 -1 470.35 20.6
1 -5 1 450.75 20.6
-1 -5 -1 520.05 20.2
1 -5 1 506.85 20.3
-1 -5 -1 475.05 20.1
-1 -5 -1 487.35 20.3
-1 -5 -1 512.15 20.2
1 5 1 505.25 20.4
-1 5 -1 475.95 19.8
-1 5 -1 510.95 20.3
2 -5 1 546.45 27.5
-2 -5 -1 683.83 26.6
-2 -5 -1 669.43 26.6
-2 -5 -1 642.94 26.6
-2 -5 -1 701.93 26.9
-2 -5 -1 607.74 27
2 -5 1 684.13 26.8
2 5 1 673.23 26.9
-2 5 -1 624.04 26.5
-2 5 -1 685.23 26.8
2 5 1 691.23 26.9
-2 5 -1 641.24 26.3
-3 -5 -1 321.37 15.1
-3 -5 -1 339.27 14.9
-3 -5 -1 360.66 14.7
3 -5 1 366.76 14.9
-3 -5 -1 363.26 15
3 5 1 367.16 15
-3 5 -1 352.36 14.5
-3 5 -1 342.47 14.5
-3 5 -1 366.66 15
3 5 1 363.76 14.9
-4 -5 -1 1157.98 51.19
-4 -5 -1 1169.28 50.99
4 -5 1 1359.36 50.99
4 5 1 1300.67 50.99
4 5 1 1272.37 50.79
-4 5 -1 1316.67 51.19
-4 5 -1 1242.08 50.39
5 -5 1 1508.95 61.59
-5 -5 -1 1729.13 63.89
5 5 1 1454.15 61.59
-5 5 -1 1429.66 61.09
-6 -5 -1 164.78 7
-6 -5 -1 169.38 8.1
6 -5 1 174.88 7.9
-6 5 -1 158.58 7.9
-6 5 -1 167.88 7.3
6 5 1 172.38 7.9
-7 -5 -1 216.38 10.9
-7 -5 -1 216.88 9.7
7 -5 1 253.77 10.8
-7 5 -1 245.98 10.1
-7 5 -1 242.18 9.9
7 5 1 232.08 10.7
8 -5 1 370.06 15.8
-8 -5 -1 354.56 15.9
-8 -5 -1 353.56 14.6
-8 -5 -1 318.87 15.2
-8 5 -1 350.56 15.8
-8 5 -1 370.16 14.6
-8 5 -1 354.86 14.9
-9 -5 -1 55.09 2.9
-9 -5 -1 55.89 4.3
-9 -5 -1 53.09 3.6
-9 5 -1 52.09 2.8
-9 5 -1 50.79 4
-10 -5 -1 54.89 3.9
-10 -5 -1 57.89 4.6
-10 -5 -1 54.59 3.1
-10 5 -1 51.49 4.3
-10 5 -1 51.99 2.8
-10 5 -1 60.99 3.5
-11 -5 -1 28.6 3.7
-11 -5 -1 27.4 2.3
-11 -5 -1 26.7 3.2
-11 5 -1 27.9 3.5
-11 5 -1 31 2.6
-12 -5 -1 6.6 2.5
-12 -5 -1 3 1.2
-12 5 -1 1.7 1.4
-12 5 -1 2.8 2.2
-13 -5 -1 6.7 1.5
-13 5 -1 11.1 3.1
-13 5 -1 9.9 3.1
-14 -5 -1 11.5 1.8
-14 5 -1 13.8 3.1
-14 5 -1 8.5 3.2
-15 -5 -1 1.8 1.6
-15 5 -1 2.8 3.1
-15 5 -1 2.8 4
-16 5 -1 8.7 4.2
-16 5 -1 4.4 4.5
-16 6 1 10.1 4.9
-16 6 1 5.9 4.1
-15 6 1 6.9 3.8
-15 6 1 0.3 3.4
-14 -6 1 2.7 1.5
-14 6 1 5 3
-14 6 1 -0.3 2.9
-13 -6 1 -0.2 1.6
-13 6 1 -1.6 1.9
-13 6 1 3.2 2.8
-12 -6 1 -0.4 2.4
-12 -6 1 5 1.3
-12 6 1 9 2.8
-12 6 1 6.8 1.8
-11 -6 1 1 2.4
-11 -6 1 4.8 1.2
-11 -6 1 3.1 2.2
-11 6 1 1.2 2
-11 6 1 1.3 1.3
-10 -6 1 4.2 2.4
-10 -6 1 5.8 2
-10 -6 1 8.5 1.3
-10 6 1 7.9 1.6
-10 6 1 3.6 2.2
-10 6 1 5.5 1.1
-9 -6 1 -1.6 1.3
-9 -6 1 1.2 0.9
-9 -6 1 -0.6 1.7
-9 6 1 2.3 1.1
-9 6 1 3.3 0.9
9 6 -1 -1.8 3.2
-9 6 1 2 1.8
8 -6 -1 9.4 3.6
-8 -6 1 12.3 2.6
8 6 -1 12.5 2.8
-8 6 1 11.8 1.6
-8 6 1 10.7 2.2
7 -6 -1 8.8 2
-7 -6 1 8.6 2
-7 6 1 9.9 1.4
-7 6 1 13.7 2.2
7 6 -1 7.6 2
-6 -6 1 43.8 3.3
6 -6 -1 43.2 3.5
-6 6 1 51.89 3.5
6 6 -1 50.79 3.8
-6 6 1 51.49 2.7
6 6 -1 47.2 2.5
-5 -6 1 43.8 4
5 -6 -1 42.9 3.2
-5 -6 1 43.5 2.4
-5 -6 1 49.4 3.2
-5 -6 1 38.1 2.3
-5 6 1 41.2 2.3
5 6 -1 44.2 3.4
-5 6 1 44.2 3.1
4 -6 -1 2.1 1.1
-4 -6 1 0.3 0.8
-4 -6 1 2.8 1.2
-4 -6 1 2.6 1.5
-4 -6 1 1.7 2.4
-4 6 1 2 1.1
-4 6 1 1.5 0.7
4 6 -1 2 1.2
3 -6 -1 54.89 3.3
-3 -6 1 54.69 3.2
-3 -6 1 45.1 4
-3 -6 1 52.99 3
-3 6 1 48.9 2.5
3 6 -1 54.99 3.5
-3 6 1 59.39 3.2
-3 6 1 54.79 3.5
-2 -6 1 20 1.8
-2 -6 1 19.2 2
-2 -6 1 18.6 1.8
2 -6 -1 19.5 1.9
-2 6 1 16.4 1.9
-2 6 1 19.1 1.8
-2 6 1 17.8 1.2
1 -6 -1 78.69 4.1
-1 -6 1 78.59 4.2
1 -6 -1 77.19 4.2
-1 -6 1 80.79 4.1
-1 -6 1 81.49 4.1
-1 6 1 78.89 4
-1 6 1 78.99 4.3
-1 6 1 72.69 3.4
0 -6 -1 482.05 19.2
0 -6 -1 453.15 19.2
0 -6 1 456.45 19.1
0 -6 1 479.75 19.3
0 -6 1 458.95 19.3
0 6 1 433.26 18.5
0 6 1 466.25 19.5
-1 -6 -1 8.7 1.2
-1 -6 -1 10.8 1.6
1 -6 1 11.9 1.6
-1 -6 -1 12.2 1.6
1 -6 1 9.1 1.8
-1 6 -1 10.2 0.9
-2 -6 -1 7.6 1.1
-2 -6 -1 6 1.4
-2 -6 -1 5.6 1.1
-2 6 -1 7.8 1.4
2 6 1 8 1.5
-2 6 -1 9.1 0.9
-3 -6 -1 0.6 0.6
-3 -6 -1 0.3 1
-3 -6 -1 1.6 2.7
3 -6 1 0.6 0.9
-3 6 -1 2.5 1.3
-3 6 -1 -0.3 0.9
3 6 1 0.3 0.9
-3 6 -1 0.9 0.6
4 -6 1 8.7 1.4
-4 -6 -1 8.8 1.6
-4 -6 -1 10.5 3
4 6 1 7.7 1.5
-4 6 -1 7.3 1.6
4 6 1 8.1 1.5
-4 6 -1 8.5 1
-4 6 -1 9.6 1.3
5 -6 1 60.49 3.8
-5 -6 -1 65.59 3.9
-5 6 -1 60.29 3.1
5 6 1 62.09 4.3
-5 6 -1 58.59 2.6
-5 6 -1 61.79 3.8
-6 -6 -1 0.1 1.4
6 -6 1 -0.5 1.1
-6 -6 -1 -0.1 0.5
-6 6 -1 -0.2 0.7
6 6 1 1.6 1.3
-6 6 -1 1.3 1.3
7 -6 1 4 1.7
-7 -6 -1 -0.1 0.5
-7 -6 -1 -1.1 1.4
-7 6 -1 1.4 0.9
-7 6 -1 -0.1 0.8
-7 6 -1 -0.7 1.2
7 6 1 1.2 1.7
8 -6 1 131.89 7.6
-8 -6 -1 128.49 7.4
-8 -6 -1 131.49 6.7
-8 -6 -1 131.99 5.9
-8 6 -1 141.19 6.4
-8 6 -1 137.19 6.1
8 6 1 142.19 7.9
-8 6 -1 148.79 7.4
-9 -6 -1 15.9 1.5
-9 -6 -1 21.3 2.5
-9 -6 -1 18.8 3
-9 6 -1 29 3.4
-9 6 -1 16.5 1.6
-9 6 -1 23.9 2.8
-10 -6 -1 16.9 2.6
-10 -6 -1 13 2.9
-10 -6 -1 10.8 1.4
-10 6 -1 16.8 1.5
-10 6 -1 9.7 2.5
-10 6 -1 14.7 2
-11 -6 -1 9.9 3
-11 -6 -1 11.1 2.5
-11 6 -1 10.2 2.7
-11 6 -1 12.3 1.9
-11 6 -1 10.6 1.4
-12 -6 -1 34.1 2.5
-12 6 -1 31.7 4.1
-12 6 -1 41.6 3.3
-13 -6 -1 13.2 1.8
-13 6 -1 11.5 3.1
-13 6 -1 12.3 2.5
-14 6 -1 1.3 3
-14 6 -1 0.5 2.9
-15 6 -1 -0.8 3.5
-15 6 -1 4.2 3.7
-16 6 -1 -1.9 5
-16 6 -1 -3.4 3.8
-15 7 1 -4.4 3.8
-15 7 1 4.1 4.3
-14 7 1 3.4 3.7
-14 7 1 -0.3 3
-13 -7 1 13 1.8
-13 7 1 8.4 3.6
-13 7 1 6.8 2.4
-12 -7 1 12.6 1.6
-12 -7 1 13.8 3.3
-12 7 1 8.9 2.1
-12 7 1 12 3.2
-11 -7 1 0.7 2.4
-11 -7 1 -0.7 0.9
-11 -7 1 0.1 2.2
-11 7 1 -0.5 2.1
-11 7 1 0.1 1
-11 7 1 0.5 1.3
-10 -7 1 21.2 3.6
-10 -7 1 12.8 4.3
-10 7 1 13.1 2.8
-10 7 1 18.6 2.1
-10 7 1 20.3 2
-9 -7 1 10 1.3
-9 -7 1 4.9 2.3
-9 7 1 11.5 2.5
-9 7 1 8.3 1.5
-9 7 1 10.1 1.4
8 -7 -1 49.7 5.4
-8 -7 1 56.69 5.9
8 7 -1 52.99 7.4
-8 7 1 49.5 3
7 -7 -1 110.49 6.7
-7 -7 1 106.49 6.2
-7 7 1 111.49 6.1
-7 7 1 105.39 5.1
7 7 -1 103.69 6.7
-6 -7 1 41.2 3.3
6 -7 -1 53.49 5.2
6 7 -1 41 3.9
-6 7 1 36.8 3.2
-6 7 1 38.9 2.4
6 7 -1 36.3 2
5 -7 -1 31.9 3.2
-5 -7 1 38.1 2.6
-5 -7 1 29.6 2.2
-5 -7 1 37.7 3
-5 7 1 34.2 2.8
-5 7 1 37.6 2.1
5 7 -1 33.6 3.3
-4 -7 1 41.4 2.8
-4 -7 1 43.4 3.2
4 -7 -1 49.4 3.5
-4 7 1 42.6 2.4
-4 7 1 48.6 3.2
4 7 -1 49.3 3.6
3 -7 -1 14.4 2
-3 -7 1 13.6 2
-3 -7 1 15.4 1.9
-3 -7 1 11.1 1.7
-3 7 1 13.6 1.1
-3 7 1 13.1 2
2 -7 -1 1.3 1
-2 -7 1 0.8 1.1
-2 -7 1 0.2 0.9
-2 -7 1 3 1.3
-2 7 1 2.5 1.3
-2 7 1 1.5 0.5
1 -7 -1 350.86 15.1
-1 -7 1 380.46 15.4
-1 -7 1 351.86 15
-1 -7 1 324.17 15
1 -7 -1 349.77 15
-1 7 1 335.77 14.2
-1 7 1 349.87 15.3
0 -7 -1 244.48 10.3
0 -7 -1 232.28 10.3
0 -7 1 226.48 10.2
0 -7 1 229.38 10.3
0 -7 1 226.98 11.2
0 -7 -1 230.28 10.2
0 7 1 220.78 10.5
-1 -7 -1 3.1 1
-1 -7 -1 2.1 1.2
-1 -7 -1 3.2 1.3
1 -7 1 3.7 1.2
1 -7 1 3.6 1.2
-1 7 -1 4.6 0.7
1 7 1 3.7 1.4
-2 -7 -1 7.7 1.3
-2 -7 -1 9.4 1.7
2 -7 1 4.8 1.2
-2 -7 -1 6 1.1
-2 7 -1 9.4 1.6
-2 7 -1 6.6 0.9
2 7 1 7.3 1.7
3 -7 1 63.19 3.9
-3 -7 -1 63.09 3.3
-3 -7 -1 63.49 3.9
-3 7 -1 69.09 3.8
-3 7 -1 63.39 3.1
-4 -7 -1 54.39 3.5
4 -7 1 55.39 3.7
4 7 1 49.3 3.8
-4 7 -1 50.99 2.7
-4 7 -1 53.79 3.5
-5 -7 -1 3.5 1.6
5 -7 1 5.6 1.6
5 7 1 8.3 1.9
-5 7 -1 7.3 1.8
-5 7 -1 4.9 1
-6 -7 -1 88.49 3.9
6 -7 1 90.59 5.5
-6 -7 -1 82.09 5.2
-6 7 -1 87.09 4.3
6 7 1 91.69 5.6
-6 7 -1 89.89 5.2
-7 -7 -1 49.7 3.8
-7 -7 -1 43.6 2.3
7 -7 1 45.8 4.5
-7 7 -1 47 2.7
-7 7 -1 43.2 2.7
-7 7 -1 43.4 3.6
7 7 1 49 4.6
-8 -7 -1 4 1.6
-8 -7 -1 4.2 1.1
-8 -7 -1 4.3 2.1
-8 7 -1 4.2 1.8
-8 7 -1 4.1 1.2
-8 7 -1 3.8 1
-9 -7 -1 4.7 1
-9 -7 -1 3.7 2
-9 -7 -1 5.1 1.8
-9 7 -1 4.9 2.1
-9 7 -1 3.8 1.3
-9 7 -1 9.7 1.3
-10 -7 -1 4 2.5
-10 -7 -1 2.9 1
-10 -7 -1 4.9 2.1
-10 7 -1 1.8 2.2
-10 7 -1 4.8 1.1
-10 7 -1 3.8 1.4
-11 -7 -1 2.3 2.5
-11 7 -1 3.9 1.1
-11 7 -1 5.7 1.7
-11 7 -1 5.1 2.5
-12 -7 -1 21.4 4.3
-12 7 -1 22.7 3.8
-12 7 -1 9.8 3.2
-13 7 -1 1.2 3
-13 7 -1 2 2.4
-14 7 -1 2.3 3.6
-14 7 -1 2.8 3
-15 7 -1 -3.3 4.9
-15 7 -1 5.9 7.7
-15 8 1 3.5 5.1
-15 8 1 0.3 3.5
-14 8 1 4.1 3.7
-14 8 1 7.4 3.6
-13 8 1 7.3 3.5
-13 8 1 3.2 2.7
-12 -8 1 1.1 2.9
-12 8 1 3.6 2.8
-12 8 1 5.8 2.2
-11 -8 1 -0.2 2.8
-11 -8 1 -0.3 1.5
-11 -8 1 3.5 2.7
-11 8 1 1.2 1.4
-11 8 1 2.4 1.1
-11 8 1 1.8 3.8
-10 -8 1 6.8 2.8
-10 -8 1 5.5 1.1
-10 -8 1 4.6 2.3
-10 8 1 3.1 1.1
-10 8 1 4.2 2.3
-10 8 1 5 1.4
-9 -8 1 0.3 1.9
-9 -8 1 -0.2 0.8
-9 8 1 -0.4 1.8
-9 8 1 -0.8 1
-9 8 1 0.1 1
-8 -8 1 32.7 3.6
-8 -8 1 30.7 2
8 -8 -1 33.9 6.7
-8 8 1 31.7 2.4
8 8 -1 23.5 4.7
-8 8 1 25.8 3.3
-7 -8 1 76.09 5.2
-7 8 1 65.29 3.5
7 8 -1 56.89 6.1
-7 8 1 68.59 5.6
-6 -8 1 358.46 15.7
6 -8 -1 341.37 15.8
6 8 -1 329.77 14.1
-6 8 1 334.97 14.4
6 8 -1 375.26 19.1
-6 8 1 336.37 15.4
-5 -8 1 297.37 13.3
5 -8 -1 283.47 13.4
-5 -8 1 289.87 12.2
-5 -8 1 303.37 12.2
-5 8 1 286.27 12.1
-5 8 1 280.67 13
5 8 -1 283.07 13.5
-4 -8 1 176.18 9.7
4 -8 -1 218.18 10.2
-4 -8 1 217.88 9.4
-4 8 1 219.88 9.8
-4 8 1 217.28 8.9
-3 -8 1 283.57 12.5
-3 -8 1 265.37 12.1
3 -8 -1 277.17 12.6
-3 -8 1 280.17 12.3
-3 8 1 269.97 11.5
-3 8 1 288.97 12.4
-2 -8 1 1143.09 46.3
2 -8 -1 1131.69 46.5
2 -8 -1 1139.99 46.4
-2 -8 1 1096.19 46.1
-2 -8 1 1158.28 46.3
-2 8 1 1102.19 45.3
-2 8 1 1150.78 46.1
1 -8 -1 528.35 22.2
-1 -8 1 545.65 22.2
-1 -8 1 528.85 22.2
-1 -8 1 523.75 22.3
1 -8 -1 520.75 22.9
-1 8 1 512.15 21.2
0 -8 -1 662.33 27.5
0 -8 1 647.54 27.6
0 -8 -1 625.54 27.3
0 -8 -1 677.03 27.5
0 -8 1 647.64 27.5
0 -8 1 691.23 27.5
-1 -8 -1 443.96 18.3
1 -8 1 417.16 19.6
-1 -8 -1 423.66 18.3
1 -8 1 430.36 18.7
-1 -8 -1 444.16 18.5
-1 8 -1 426.86 17.5
-2 -8 -1 19.7 2.1
-2 -8 -1 19.4 2.5
2 -8 1 18.8 2.5
2 -8 1 19.7 2.8
-2 -8 -1 20.6 2.4
-2 8 -1 19.1 1.4
3 -8 1 7.5 1.7
-3 -8 -1 11.4 1.4
-3 -8 -1 10.3 1.9
-3 -8 -1 10.5 1.8
-3 8 -1 10.7 1.2
-3 8 -1 9.6 1.7
4 -8 1 9.8 2
-4 -8 -1 9.8 2
-4 8 -1 10.6 1.9
-4 8 -1 11.1 1.3
-5 -8 -1 21.7 2.8
-5 8 -1 17.2 1.5
-5 8 -1 18.3 2.6
5 8 1 14.6 2.6
-6 -8 -1 195.68 9.6
6 -8 1 197.98 9.9
-6 8 -1 179.48 9.2
6 8 1 186.88 10
-6 8 -1 185.58 8.3
7 -8 1 16.3 3.2
-7 -8 -1 25.6 3.6
-7 8 -1 18.7 1.8
-7 8 -1 18.4 1.9
-7 8 -1 16.8 3.2
7 8 1 14.5 3.3
-8 -8 -1 14.5 2.2
-8 -8 -1 13.2 2.7
-8 8 -1 14.3 2.7
-8 8 -1 18 1.8
-8 8 -1 15.7 1.8
-9 -8 -1 72.99 5.4
-9 -8 -1 72.29 4.5
-9 8 -1 66.59 3.7
-9 8 -1 68.99 4
-9 8 -1 65.09 5
-10 -8 -1 35.7 4.1
-10 8 -1 34.4 2.8
-10 8 -1 35.9 4
-10 8 -1 39.6 2.5
-11 8 -1 12.9 1.6
-11 8 -1 10.6 2
-12 -8 -1 6.7 3.2
-12 8 -1 9.1 2.3
-12 8 -1 10.7 3.4
-13 8 -1 -0.3 3.2
-13 8 -1 11.4 3.1
-14 8 -1 9.5 3.8
-14 8 -1 4.9 4.2
-15 8 -1 -0.2 4.2
-15 8 -1 3.3 3.9
-14 9 1 0.7 3.8
-14 9 1 4.8 4.3
-13 9 1 3.9 3
-13 9 1 1.5 3.5
-12 -9 1 14.6 4.2
-12 9 1 9.9 3.7
-12 9 1 7.1 2.5
-11 -9 1 33.3 5
-11 9 1 19.6 3
-11 9 1 33 2.5
-11 9 1 29.8 4.4
-10 -9 1 20.8 4
-10 -9 1 10.2 3.2
-10 9 1 16.5 3.3
-10 9 1 10.5 1.8
-10 9 1 13.8 1.7
-9 -9 1 -1.8 2.1
-9 9 1 0.3 1.1
-9 9 1 -0.3 1.8
-9 9 1 0.7 1.1
-8 -9 1 3.3 2.2
-8 9 1 6.4 1.4
-8 9 1 6.4 2.2
7 -9 -1 8.5 5.9
-7 -9 1 4.7 2.2
-7 9 1 11.5 2.5
7 9 -1 -1 4.5
-7 9 1 8.9 1.4
6 -9 -1 58.59 6.1
-6 -9 1 64.79 6.3
-6 9 1 60.49 3.2
6 9 -1 58.99 3
5 -9 -1 1.4 2.3
-5 -9 1 -0.6 1.5
-5 9 1 0.4 1.5
-5 9 1 1.1 0.8
-4 -9 1 20.2 2.3
-4 -9 1 21.8 2.9
-4 9 1 20 1.6
-4 9 1 23.9 2.6
-3 -9 1 17.2 2.2
-3 -9 1 17.3 3.1
3 -9 -1 14.8 3
-3 -9 1 21.3 2.4
-3 9 1 14.6 1.4
-3 9 1 17.3 2.3
-2 -9 1 26.4 2.7
-2 -9 1 24.6 3.3
2 -9 -1 20.1 2.8
-2 9 1 26.3 1.6
-1 -9 1 88.29 5.1
1 -9 -1 92.19 5.1
1 -9 -1 83.49 5.5
-1 -9 1 90.89 6.3
-1 -9 1 89.09 6
0 -9 -1 119.99 6.8
0 -9 1 129.99 7
0 -9 1 119.29 6.6
0 -9 -1 130.79 6.6
0 -9 1 129.39 6.5
-1 -9 -1 210.58 10
-1 -9 -1 216.98 10.1
-1 -9 -1 228.38 10.1
1 -9 1 211.08 10.2
1 -9 1 214.58 10
1 -9 1 198.58 10.3
2 -9 1 578.04 25.2
-2 -9 -1 598.94 24.6
2 -9 1 608.44 25.1
-2 -9 -1 586.14 25
-2 -9 -1 571.44 24.5
-2 9 -1 581.84 23.8
3 -9 1 362.66 16.5
-3 -9 -1 347.47 15.7
-3 -9 -1 367.66 16.4
3 -9 1 355.86 16.7
-3 -9 -1 397.36 15.8
-3 9 -1 378.76 15.2
4 -9 1 310.87 14.2
-4 -9 -1 307.87 13.9
-4 9 -1 291.07 12.7
-4 9 -1 307.27 13.8
-5 -9 -1 251.57 12.4
5 -9 1 301.27 15.6
-5 9 -1 252.17 12.1
-5 9 -1 252.47 11.1
-6 -9 -1 63.09 4.7
-6 9 -1 64.99 3.5
-6 9 -1 64.39 4.5
-7 -9 -1 29.5 3.5
-7 9 -1 34.7 2.5
-7 9 -1 27.5 3.3
-8 -9 -1 10.5 2.3
-8 -9 -1 25.2 3.9
-8 9 -1 14.4 2.8
-8 9 -1 16.2 1.9
-8 9 -1 15.2 1.8
-9 -9 -1 4.3 2.4
-9 9 -1 -0.8 1
-9 9 -1 -0.3 1
-9 9 -1 1 2
-10 -9 -1 3.7 2.6
-10 9 -1 2.3 1.2
-10 9 -1 4.5 1.5
-10 9 -1 4.6 2.4
-11 -9 -1 13.8 3.8
-11 9 -1 6.5 1.5
-11 9 -1 11.3 2.4
-11 9 -1 7.1 3.1
-12 -9 -1 -1.6 3.6
-12 9 -1 -1.6 2.6
-12 9 -1 1.5 3.1
-13 9 -1 2.2 4.5
-13 9 -1 9.5 3.3
-14 9 -1 2.9 5
-14 9 -1 2 3.7
-14 10 1 5.1 3.7
-14 10 1 -3.6 5.1
-13 10 1 8.6 4.9
-13 10 1 0.9 5.9
-12 -10 1 4.7 6.1
-12 10 1 -1.3 5.2
-12 10 1 5.5 2.9
-11 -10 1 12.2 3.9
-11 10 1 15.7 2.6
-11 10 1 11.7 3.4
-11 10 1 16.6 2
-10 -10 1 8.1 3.2
-10 10 1 15.7 3.6
-10 10 1 9.3 1.7
-10 10 1 17.8 3.3
-9 -10 1 9.5 3.1
-9 10 1 5.6 1.5
-9 10 1 9.6 2.8
-9 10 1 7.4 1.6
-8 -10 1 29.9 3.8
-8 10 1 20.6 3.2
-8 10 1 23.5 2.1
-7 -10 1 -0.3 2.1
-7 10 1 0.8 0.9
-7 10 1 0.6 1.7
-6 -10 1 7.5 2.4
6 -10 -1 15.4 4.7
-6 10 1 11.6 2.4
6 10 -1 8.3 1.2
5 -10 -1 34.5 5.4
-5 -10 1 50.29 4.1
5 -10 -1 44.2 5
-5 10 1 45 2.6
-5 10 1 48 3.8
-4 -10 1 20.1 2.7
-4 -10 1 16.8 2.8
4 -10 -1 16.1 3.8
4 -10 -1 17.7 4.6
-4 10 1 21.3 1.6
-3 -10 1 3 1.7
3 -10 -1 -1.7 2.3
-3 -10 1 1.1 2.1
3 -10 -1 0.7 3.1
-3 10 1 2 0.8
2 -10 -1 11.2 2.6
-2 -10 1 11.8 2.2
-2 -10 1 15.8 2.5
2 -10 -1 8.2 3
-2 10 1 13 1.2
1 -10 -1 4.3 1.8
1 -10 -1 3.8 2.1
-1 -10 1 6.2 1.9
1 -10 -1 3.7 2.6
-1 -10 1 7.6 2.2
-1 -10 1 3.9 2.9
0 -10 1 6.7 2.7
0 -10 1 6.3 1.9
0 -10 1 6.2 2.2
0 -10 -1 9.2 2.2
0 -10 -1 7.1 2
1 -10 1 -0.6 2.1
-1 -10 -1 -0.9 1.4
-1 -10 -1 1.8 1.8
1 -10 1 0.4 2.4
1 -10 1 0.7 1.5
-2 -10 -1 2.4 1.9
-2 -10 -1 0.2 1.5
2 -10 1 -0.4 2.5
2 -10 1 -0.5 1.4
2 -10 1 -2.7 2.1
-2 10 -1 0.8 0.7
3 -10 1 -0.2 3
3 -10 1 3.5 2.6
-3 -10 -1 2.5 1.8
-3 -10 -1 2 1.7
-3 10 -1 4.2 0.9
4 -10 1 53.49 6.3
4 -10 1 55.39 5.9
-4 -10 -1 56.69 4.3
-4 10 -1 54.19 3
-5 -10 -1 7.9 2.4
5 -10 1 5.8 3.9
-5 10 -1 8.2 1.2
-6 -10 -1 35.7 3.9
-6 10 -1 33.6 3.5
-6 10 -1 31.5 2.6
-7 -10 -1 73.99 5.7
-7 10 -1 76.89 4.2
-7 10 -1 80.99 4.3
-7 10 -1 82.89 5.5
-8 -10 -1 33.1 4
-8 10 -1 30.1 2.5
-8 10 -1 25.6 2.4
-8 10 -1 19.5 3.2
-9 -10 -1 -0.3 2.5
-9 10 -1 -1.6 1.2
-9 10 -1 1.4 2.3
-9 10 -1 -0.9 1.2
-10 -10 -1 3.6 3
-10 10 -1 3.9 1.8
-10 10 -1 2.7 2.7
-10 10 -1 3.3 2.8
-11 -10 -1 0.8 3.5
-11 10 -1 0.1 2.8
-11 10 -1 2.3 1.4
-11 10 -1 5.9 2.5
-12 -10 -1 -1.6 3.9
-12 10 -1 -1.3 3.1
-12 10 -1 -1.6 3
-13 10 -1 -0.2 4.6
-13 10 -1 -1.5 4.1
-14 10 -1 -0.9 3.9
-13 11 1 -4.9 4.3
-13 11 1 7.2 3.7
-12 -11 1 3.1 4.6
-12 11 1 0.5 2.9
-12 11 1 3.6 3.9
-11 -11 1 11.1 7.4
-11 11 1 13.8 4.6
-11 11 1 13.3 2.8
-10 -11 1 57.09 6.5
-10 11 1 51.49 5.7
-10 11 1 62.29 3.9
-10 11 1 62.49 4.2
-9 -11 1 8.7 3.4
-9 11 1 20.6 3.8
-9 11 1 24.7 2.8
-9 11 1 14 3
-8 -11 1 19.2 3.6
-8 11 1 22.6 2.2
-8 11 1 23.1 2.5
-8 11 1 15 3.1
-7 -11 1 11.6 2.8
-7 11 1 17 1.8
-7 11 1 12.1 2.8
-6 -11 1 146.39 8.3
-6 11 1 133.39 6.4
6 11 -1 140.69 6.5
-5 -11 1 28.3 3.8
-5 11 1 24.9 2
5 11 -1 25.9 2
4 -11 -1 87.09 11.5
-4 -11 1 107.89 6.5
-4 -11 1 104.09 6.6
-4 11 1 100.09 4.7
-3 -11 1 50.29 4.2
-3 -11 1 55.29 5.5
-3 11 1 45.7 2.6
2 -11 -1 11.1 2.4
-2 -11 1 8.8 3.1
2 -11 -1 8.2 3.5
-2 -11 1 13.5 2.6
1 -11 -1 1.5 1.7
1 -11 -1 2.4 2.8
-1 -11 1 1.7 2.9
0 -11 1 97.19 7
0 -11 -1 92.39 6.7
0 -11 -1 97.19 6
0 -11 1 102.29 6.6
-1 -11 -1 124.99 8
1 -11 1 161.68 9.1
1 -11 1 135.49 8.7
-1 -11 -1 137.89 7.6
-2 -11 -1 144.49 7.7
2 -11 1 114.89 8.5
2 -11 1 128.79 8.9
-2 -11 -1 161.18 8
3 -11 1 150.48 9.9
-3 -11 -1 153.38 8.3
3 -11 1 148.79 8
-3 11 -1 148.79 6.7
-4 -11 -1 121.39 7.1
4 -11 1 112.19 14.1
-4 11 -1 112.29 5.4
-5 -11 -1 165.18 9.1
-6 -11 -1 47.6 4.5
-6 11 -1 46.1 2.9
-6 11 -1 51.59 3.3
-7 -11 -1 47.8 4.9
-7 11 -1 51.19 3.4
-7 11 -1 46.1 3
-8 -11 -1 8.5 4.3
-8 11 -1 6.4 1.5
-8 11 -1 5.9 1.7
-9 -11 -1 -1.4 2.7
-9 11 -1 -0.6 1.6
-10 -11 -1 0.1 3.2
-10 11 -1 1.8 2.2
-10 11 -1 2.6 1.6
-11 -11 -1 -0.6 5.8
-11 11 -1 0.1 1.4
-11 11 -1 -0.9 2.7
-12 -11 -1 6.5 4.9
-12 11 -1 7.5 3.8
-13 11 -1 4 3.4
-12 -12 1 3.9 5.2
-12 12 1 2.4 2.8
-11 -12 1 -2.2 4.5
-11 12 1 -1.5 2.8
-11 12 1 -1.8 2.9
-10 -12 1 -2 5.6
-10 12 1 1.2 1.6
-10 12 1 3.9 2.1
-9 -12 1 -0.2 3.2
-9 12 1 -0.2 1.5
-9 12 1 1.9 1.5
-8 -12 1 9.9 3.4
-8 12 1 21.6 2.6
-7 -12 1 6.3 3
-7 12 1 10.6 1.5
-6 -12 1 57.19 5.2
6 12 -1 56.29 3.2
-6 12 1 52.99 3.1
-5 -12 1 45.7 4.6
5 12 -1 41.3 2.7
-5 12 1 43.5 2.8
-4 -12 1 68.39 5.3
4 12 -1 66.79 3.7
-3 -12 1 152.48 8.6
3 -12 -1 157.48 8.6
-2 -12 1 214.78 11.1
2 -12 -1 224.28 11.2
-1 -12 1 151.58 8.5
1 -12 -1 163.38 8.7
0 -12 -1 85.39 5.7
0 -12 1 78.29 5.4
1 -12 1 27.5 3.4
-1 -12 -1 25.6 3.3
2 -12 1 7.7 2.3
-2 -12 -1 8 2.4
-3 -12 -1 2.9 2.1
3 -12 1 3.4 2.2
-4 -12 -1 -0.2 2
4 -12 1 1.9 2.1
-5 -12 -1 56.59 5
-5 12 -1 53.29 3.7
-5 12 -1 55.59 3.2
-6 -12 -1 56.49 5.4
-6 12 -1 67.79 4.1
6 12 1 58.79 3.4
-6 12 -1 64.49 3.5
-7 -12 -1 66.69 5.9
-7 12 -1 68.89 4.6
-7 12 -1 61.49 3.7
-8 -12 -1 51.29 6.1
-8 12 -1 45 3.3
-8 12 -1 45.1 3.6
-9 -12 -1 55.79 6.6
-9 12 -1 62.59 4.2
-9 12 -1 62.09 4.2
-10 -12 -1 32.9 6.7
-10 12 -1 19.9 2.4
-10 12 -1 25.2 3.1
-11 -12 -1 12.8 5.6
-11 12 -1 15 3.9
-11 12 -1 10.7 2.3
-12 -12 -1 7.4 5.7
-12 12 -1 6.7 3.2
-11 -13 1 1.3 5.4
-11 13 1 2.1 1.7
-11 13 1 -0.1 2.4
-10 -13 1 -2.9 4.6
-10 13 1 -3.3 2
-10 13 1 0.2 2.8
-9 -13 1 0.2 4.1
-9 13 1 -1.6 1.6
-9 13 1 0.3 1.9
-8 -13 1 2.3 3.5
-8 13 1 0.8 1.3
-8 13 1 -1.5 1.9
-7 -13 1 8.9 4
-7 13 1 12.2 2.5
-6 -13 1 4 3.2
6 13 -1 1.5 1.2
5 -13 -1 0.4 2.5
-5 -13 1 1.7 2.8
5 13 -1 -0.9 1
-4 -13 1 3.8 2.6
4 -13 -1 6 2.8
4 13 -1 5 1.4
3 -13 -1 4.1 2.4
-3 -13 1 1.4 2.2
3 13 -1 1.1 1.2
-2 -13 1 1.9 2.3
2 -13 -1 -0.7 2.1
1 -13 -1 11.6 2.9
-1 -13 1 7.9 2.6
0 -13 -1 13.1 3
0 -13 1 6.4 2.6
1 -13 1 43.2 4.2
-1 -13 -1 42.2 4.4
-2 -13 -1 46.9 4.7
2 -13 1 48.2 4.5
-3 -13 -1 96.49 6.6
3 -13 1 84.29 6.1
4 -13 1 183.88 10.3
-4 13 -1 207.48 9.4
-5 -13 -1 52.19 5.3
6 -13 1 35.5 4.5
-6 -13 -1 41.6 5.1
6 13 1 30.8 2.6
-6 13 -1 38 2.5
-6 13 -1 33.4 3.6
-7 -13 -1 0.4 3.2
-7 13 -1 2.3 1.3
-7 13 -1 3.4 2.2
-8 -13 -1 0.2 3.7
-8 13 -1 3.3 2.1
-8 13 -1 -0.4 1.5
-9 -13 -1 -1.2 4.7
-9 13 -1 -2.7 1.8
-9 13 -1 -2 1.9
-10 -13 -1 -2.5 4.8
-10 13 -1 0.5 2.3
-10 13 -1 -1.5 2.1
-11 -13 -1 4.2 5.8
-11 13 -1 1.3 1.8
-11 13 -1 1.1 2.7
-10 -14 1 11 6.3
10 -14 -1 -0.8 6.4
-10 14 1 3.7 2.2
9 -14 -1 2.6 4.6
-9 -14 1 0.2 5
-9 14 1 -2.7 2.2
8 -14 -1 4.4 4.3
-8 -14 1 5.1 4.6
-8 14 1 1.8 2.4
-7 -14 1 2.2 6
7 -14 -1 3.4 4
-7 14 1 5 2.8
6 -14 -1 9.3 3.8
-6 -14 1 7.4 4.1
-6 14 1 6.9 2.8
-5 -14 1 18.9 4.1
5 -14 -1 20.7 4.1
-5 14 1 29.4 3.3
5 14 -1 28.1 2.7
-4 -14 1 84.79 6.8
4 -14 -1 83.49 6.5
4 14 -1 80.39 4.7
-3 -14 1 67.99 6
3 -14 -1 63.09 5.8
3 14 -1 67.29 4.7
-2 -14 1 5.2 3.1
2 -14 -1 7.1 3
-1 -14 1 1.9 2.7
1 -14 -1 6.1 2.8
1 14 -1 -0.3 2.2
0 -14 -1 3.3 2.6
0 -14 1 3 2.4
0 14 -1 8.2 3.2
-1 -14 -1 0.2 2.5
1 -14 1 -1.9 2.3
-2 -14 -1 -1.9 2.6
2 -14 1 2 2.6
-2 14 -1 1.3 1.9
-3 -14 -1 -1.6 2.5
3 -14 1 2.9 2.7
-3 14 -1 1.1 2
4 -14 1 3.9 2.9
-4 -14 -1 15.6 4
-4 14 -1 12.6 2.9
4 14 1 7.8 1.8
-5 -14 -1 10.8 3.8
5 -14 1 13 3.7
5 14 1 10 1.9
-5 14 -1 9.2 2.8
6 -14 1 2.6 3.5
-6 -14 -1 6.8 3.7
-6 14 -1 6.3 2.9
7 -14 1 6.9 4.1
-7 -14 -1 4.2 4.6
-7 14 -1 0.9 2.6
-8 -14 -1 4.3 4.9
8 -14 1 1.6 4.6
-8 14 -1 1.6 2.7
9 -14 1 5.4 7.4
-9 14 -1 5 2.7
-10 -14 -1 3.2 6.1
-10 14 -1 1.3 2.2
8 -15 -1 6.4 5.8
-8 -15 1 12 6.1
-8 15 1 14.4 3.3
-7 -15 1 1.8 7.5
-7 15 1 3.4 5.2
-6 -15 1 6.8 4.5
6 -15 -1 9.8 4.3
-6 15 1 11.7 3.4
5 -15 -1 5.8 4.2
-5 -15 1 1.8 4.6
-5 15 1 3.3 3.3
5 15 -1 2.6 2
4 -15 -1 -3.6 6.2
-4 -15 1 6.6 7.1
-4 15 1 1 2.9
4 15 -1 0.8 2
-3 -15 1 0 3.3
3 -15 -1 6.5 3.4
3 15 -1 1.3 2.2
-3 15 1 0 3.1
2 -15 -1 -0.9 3.1
-2 -15 1 -1.7 3.1
2 15 -1 1 2.4
-1 -15 1 6.5 3.2
1 -15 -1 7.7 3.7
1 15 -1 2.8 2.5
0 -15 1 4.2 3
0 -15 -1 3.7 3.2
0 15 -1 5.4 2.8
-1 -15 -1 18.2 4
1 -15 1 36.8 4.9
-1 15 -1 31.5 3.6
-2 -15 -1 2.1 3.2
2 -15 1 6.3 3.3
2 15 1 13.7 2.8
-2 15 -1 16.5 3.6
-3 -15 -1 6.4 3.5
3 -15 1 1 3.2
-3 15 -1 4.7 3.3
3 15 1 7.2 2.5
-4 -15 -1 13.9 8.4
4 -15 1 2.8 4.2
-4 15 -1 6.6 3.6
4 15 1 9.9 2.5
5 -15 1 8 4.7
-5 -15 -1 17.5 5.3
5 15 1 24.4 2.7
-5 15 -1 30.3 4.1
6 -15 1 2.9 4.4
-6 -15 -1 17 5.5
-6 15 -1 20.2 4
-7 -15 -1 4.3 5.3
7 -15 1 6.4 6.2
-7 15 -1 5.9 4.4
-8 -15 -1 5.6 5.5
-8 15 -1 -0.1 3.2
6 -16 -1 -6.3 6
-6 -16 1 4.3 5.8
-6 16 1 4.3 4
-5 -16 1 8.5 5.2
5 -16 -1 3.3 5.2
-5 16 1 5.7 4.3
-4 -16 1 -5.6 7.1
4 -16 -1 -1 4.9
-4 16 1 7.5 5.8
4 16 -1 4.6 2.7
3 -16 -1 19.5 4.9
-3 -16 1 24.4 5.6
3 16 -1 23.6 3.7
-3 16 1 22.3 4.6
-2 -16 1 40.8 6
-2 16 1 46.5 5.3
2 16 -1 52.19 5.1
1 -16 -1 24.5 5.1
-1 -16 1 27.5 5
-1 16 1 34.2 4.2
1 16 -1 25.8 3.9
0 -16 1 15.5 4.9
0 -16 -1 13.8 6.8
0 16 1 12.9 3.8
0 16 -1 8.6 3.4
1 -16 1 3.9 4.1
-1 -16 -1 1 4.2
1 16 1 2.5 3.2
-1 16 -1 0.5 3.5
-2 -16 -1 2.2 4.5
2 -16 1 1.7 4
2 16 1 0.7 3.2
-2 16 -1 1 3.5
-3 -16 -1 4.4 4.6
3 -16 1 -0.3 4.7
-3 16 -1 0.4 3.6
3 16 1 3.2 3.4
-4 -16 -1 6.1 5.2
4 -16 1 3.7 5.6
4 16 1 0.6 2.6
-4 16 -1 4.6 4.5
-5 -16 -1 3.3 4.9
-5 16 -1 2.8 3.8
-6 -16 -1 12.1 6.2
-6 16 -1 0 3.5
3 -17 -1 -8.5 6.2
-3 -17 1 -2.6 6.9
3 17 -1 0.6 3.2
-3 17 1 -3.4 4.4
-2 -17 1 1.4 6.3
2 -17 -1 -1.6 5.9
-2 17 1 3.4 4.3
2 17 -1 2.5 3.5
-1 -17 1 -6.1 6.2
1 -17 -1 -0.2 4.9
-1 17 1 7.1 4.5
1 17 -1 6.4 3.7
0 -17 -1 -0.2 4.9
0 -17 1 0.7 6.7
0 17 -1 1.6 3.9
0 17 1 5.1 4.1
-1 -17 -1 -1.9 5.4
1 17 1 -1.5 3.9
-1 17 -1 2.1 3.8
-2 -17 -1 -9.2 5.1
-2 17 -1 -0.1 3.7
2 17 1 2.2 3.5
-3 -17 -1 -11.4 10.6
3 17 1 1.3 3.2
-3 17 -1 0.8 4.2
-17 0 2 6.4 3.4
-17 0 2 5.6 6.7
-16 0 2 4.8 4.2
-16 0 2 5.4 2.9
-15 0 2 1.7 2.5
-15 0 2 3.9 4.3
-14 0 2 49.5 5.1
-13 0 2 3.8 1.7
-13 0 2 1 2.2
-12 0 2 22.6 2.4
-12 0 2 23.9 3.5
11 0 -2 89.89 6.8
-11 0 2 123.89 6.2
-11 0 2 100.89 6.4
10 0 -2 8.1 2.6
-10 0 2 8.4 1.4
-10 0 2 13.4 2.5
10 0 -2 10.8 1.8
9 0 -2 239.88 11.2
9 0 -2 230.18 10.3
-9 0 2 240.48 10.2
-9 0 2 230.18 11
8 0 -2 425.06 18.6
-8 0 2 439.16 17.9
-8 0 2 429.76 18.6
8 0 -2 441.66 18.1
-7 0 2 473.55 20.1
7 0 -2 479.85 20
6 0 -2 668.53 28.1
-6 0 2 700.73 28.2
-5 0 2 8.6 1
5 0 -2 9.3 1.3
4 0 -2 1968 78.89
3 0 -2 1745.83 70.29
2 0 -2 178.18 7.9
2 0 -2 176.78 7.6
-2 0 2 198.18 7.9
2 0 -2 204.68 7.9
-1 0 2 35.8 1.7
1 0 -2 31.1 1.5
1 0 -2 35.3 1.7
1 0 -2 35 1.7
0 0 -2 125.09 5
0 0 -2 117.69 4.9
0 0 2 122.69 5.1
1 0 2 10.3 0.7
-1 0 -2 11.7 0.7
-1 0 -2 11.2 0.7
-1 0 -2 11.9 0.7
-1 0 -2 12.8 0.6
1 0 2 10.2 0.6
-2 0 -2 129.29 5.1
2 0 2 121.49 5.2
-2 0 -2 124.69 5.2
2 0 2 123.59 5.1
-2 0 -2 124.19 5.1
-2 0 -2 113.39 5
-3 0 -2 527.25 21.5
-3 0 -2 554.64 21.8
3 0 2 523.65 21.7
3 0 2 539.05 21.8
-3 0 -2 509.15 21.4
-3 0 -2 566.84 21.7
3 0 2 533.45 21.5
-4 0 -2 173.18 7.3
-4 0 -2 152.98 6.8
-4 0 -2 174.18 7.2
4 0 2 169.88 7.3
4 0 2 156.18 7.3
-4 0 -2 167.78 7
4 0 2 168.28 6.9
5 0 2 675.83 28.2
-5 0 -2 730.93 28.6
-5 0 -2 688.33 28.1
-5 0 -2 703.03 28.3
-5 0 -2 717.83 28.7
6 0 2 161.48 7.2
6 0 2 172.28 7
-6 0 -2 170.48 7.6
-6 0 -2 169.68 7.2
7 0 2 582.84 23.8
7 0 2 556.34 24
-7 0 -2 597.64 24.3
-7 0 -2 607.44 23.8
-8 0 -2 55.49 2.8
8 0 2 48.7 2.9
-9 0 -2 281.17 12.1
9 0 2 294.27 12.5
-9 0 -2 276.27 12.6
-10 0 -2 365.96 15.4
-11 0 -2 9.8 2.1
-12 0 -2 44.3 4.1
-12 0 -2 48.8 3.3
-13 0 -2 0.6 2.2
-13 0 -2 0.1 1.4
-14 0 -2 -4.2 1.5
-14 0 -2 0.1 2.7
-15 0 -2 19.7 2.7
-15 0 -2 15.3 4.1
-16 0 -2 2.1 2.2
-17 0 -2 -2.8 2.5
-17 -1 2 3.7 3
-17 1 2 8.8 5.7
-17 1 2 8.4 3.8
-16 -1 2 0 2.6
-16 -1 2 -1.7 3.9
-16 1 2 -1 3.7
-16 1 2 0 2.9
-15 -1 2 0 2.1
-15 -1 2 4.1 3.4
-15 1 2 2.6 3.1
-15 1 2 -1.6 2.3
-14 -1 2 -0.3 2.4
-14 1 2 -0.6 2.7
-14 1 2 -2.2 2.4
-13 -1 2 1.2 2.2
-13 -1 2 1.2 1.3
-13 1 2 0.6 2.3
-13 1 2 1.4 1.6
-12 -1 2 13.6 1.9
-12 -1 2 9.8 2.4
-12 1 2 9.1 1.7
-12 1 2 10.3 2.8
12 1 -2 15.7 2.9
-11 -1 2 55.99 5.3
-11 1 2 64.69 3.7
-11 1 2 59.19 4.6
11 1 -2 60.49 4
10 -1 -2 83.39 4.2
-10 -1 2 77.89 4.2
10 -1 -2 76.99 5.9
-10 -1 2 79.09 5.1
-10 1 2 82.29 4.2
10 1 -2 82.79 5.9
-10 1 2 85.99 5.3
-9 -1 2 18.7 1.8
-9 -1 2 20.4 2.5
9 -1 -2 20.2 2.6
9 -1 -2 21.4 1.9
-9 1 2 22.9 2.8
9 1 -2 24.2 3.2
-9 1 2 21 1.8
-8 -1 2 4.3 1.6
8 -1 -2 5.2 1.4
8 -1 -2 5.5 1.1
-8 1 2 5.3 1.1
8 1 -2 5.1 1.5
-8 1 2 5.5 1.7
7 -1 -2 39.3 2.8
7 -1 -2 45 2.4
-7 -1 2 42.7 2.9
-7 1 2 32.6 3.1
-7 1 2 39.7 2.3
7 1 -2 39.4 2.9
-7 1 2 36.8 1.7
6 -1 -2 2.5 0.8
6 -1 -2 3 0.9
6 1 -2 2.2 0.9
-6 1 2 3 1.2
-5 -1 2 1.6 1
5 -1 -2 1.6 0.8
-5 -1 2 0.8 0.7
5 -1 -2 0 0.6
-5 1 2 0.1 0.4
5 1 -2 0.8 0.7
-5 1 2 1.8 1
-4 -1 2 168.38 7.4
4 -1 -2 176.08 7.4
-4 -1 2 169.38 7.2
-4 1 2 164.98 7.2
4 1 -2 172.68 7.4
4 1 -2 163.08 7.6
-4 1 2 164.38 7.4
-4 1 2 173.28 7.1
3 1 -2 4588.34 182.68
2 -1 -2 886.31 35.2
-2 -1 2 895.11 35.3
-2 -1 2 902.01 35.2
2 1 -2 856.61 35.2
-2 1 2 845.12 35.2
2 1 -2 912.31 35.3
2 1 -2 854.91 35
1 -1 -2 712.33 27.3
-1 -1 2 704.13 27.3
1 1 -2 679.83 27.2
-1 1 2 629.24 27.4
0 -1 -2 184.38 7.6
0 -1 -2 204.98 7.6
0 -1 -2 187.08 7.6
0 -1 2 180.28 7.5
0 -1 -2 190.28 7.7
0 1 2 200.58 7.7
0 1 2 179.68 7.8
0 1 -2 181.88 7.6
0 1 -2 186.48 7.6
-1 -1 -2 226.38 8.6
-1 -1 -2 202.58 8.4
-1 -1 -2 202.48 8.5
-1 1 -2 201.78 8.4
1 1 2 208.58 8.6
-1 1 -2 208.88 8.4
-1 1 -2 204.58 8.4
1 1 2 199.98 8.5
-1 1 -2 221.88 8.6
2 -1 2 3.8 0.7
-2 -1 -2 4.1 0.4
2 -1 2 4.7 0.6
2 -1 2 3.6 0.4
-2 -1 -2 3.9 0.4
-2 -1 -2 3.3 0.6
-2 -1 -2 4.3 0.5
-2 1 -2 4.3 0.4
2 1 2 3.9 0.7
-2 1 -2 2.5 0.6
-2 1 -2 3.1 0.5
-2 1 -2 3.4 0.4
2 1 2 4 0.6
3 -1 2 1477.05 56.59
-3 -1 -2 1403.66 56.69
3 -1 2 1469.15 56.99
-3 -1 -2 1367.36 56.59
-3 1 -2 1420.46 56.69
3 1 2 1375.96 56.89
3 1 2 1448.85 56.99
4 -1 2 1.7 1.2
-4 -1 -2 3 0.5
4 -1 2 2.2 0.4
4 -1 2 1.1 1.2
-4 -1 -2 1.7 0.3
-4 -1 -2 3.6 1
-4 -1 -2 1.4 0.7
-4 1 -2 3 0.6
4 1 2 1.8 1.3
4 1 2 2.4 0.8
-4 1 -2 2.3 0.9
-4 1 -2 2.2 0.4
-5 -1 -2 77.29 3.7
-5 -1 -2 74.59 3.4
-5 -1 -2 84.19 4
5 -1 2 83.19 3.3
-5 -1 -2 73.69 3.2
-5 1 -2 73.89 3.3
5 1 2 67.69 3.7
-5 1 -2 80.39 3.9
-5 1 -2 79.39 3.5
6 -1 2 80.39 3.3
-6 -1 -2 83.49 4
-6 -1 -2 78.69 3.6
-6 -1 -2 82.99 4.2
6 -1 2 77.69 3.9
-6 1 -2 75.59 3.3
-6 1 -2 80.49 4.1
-6 1 -2 76.89 3.6
6 1 2 62.09 4.2
7 -1 2 21.2 1.7
7 -1 2 21.5 1.5
7 -1 2 21.9 1.4
-7 -1 -2 20.4 1.9
-7 -1 -2 20.2 1.5
-7 -1 -2 17.5 2.1
-7 1 -2 30.9 3.6
7 1 2 19.5 1.5
-7 1 -2 18.3 1.1
-7 1 -2 21.2 1.6
8 -1 2 28 2.1
8 -1 2 32.2 1.8
-8 -1 -2 27.6 2.3
-8 -1 -2 30 1.9
-8 1 -2 25.9 2.5
8 1 2 26.4 2.1
-8 1 -2 26.7 1.4
-8 1 -2 28.1 1.9
-9 -1 -2 0.3 0.9
9 -1 2 -0.2 1.2
-9 -1 -2 -0.3 1.2
-9 1 -2 0.2 1.4
9 1 2 0.7 1.3
-9 1 -2 -0.5 0.8
-10 -1 -2 14.8 1.7
-10 -1 -2 10.4 1.9
-10 1 -2 14.8 1.8
-10 1 -2 17.7 2.5
-11 -1 -2 12.2 2.4
-11 -1 -2 17.9 2.1
-11 1 -2 19.5 2.1
-12 -1 -2 -0.9 1.1
-12 -1 -2 -0.3 1.8
-12 1 -2 -0.1 1.1
-12 1 -2 -2.1 1.6
-13 -1 -2 28.1 3.7
-13 -1 -2 34.1 2.8
-13 1 -2 20.6 3.2
-13 1 -2 33.6 2.9
-14 -1 -2 2.8 3.3
-14 -1 -2 7.5 1.8
-14 1 -2 4 1.8
-14 1 -2 6.7 3.1
-15 -1 -2 0.9 1.7
-15 -1 -2 2.2 4
-15 1 -2 -1 2
-15 1 -2 5.1 3.5
-16 -1 -2 3.5 2
-16 1 -2 -0.2 2.3
-17 -1 -2 2.3 2.1
-17 1 -2 1.4 2.8
-17 -2 2 10.5 2.9
-17 2 2 6.7 3.8
-17 2 2 6.3 6.8
-16 -2 2 7 4.7
-16 -2 2 13.9 2.8
-16 2 2 31 4.1
-16 2 2 3.7 3.6
-15 -2 2 26.1 3.1
-15 -2 2 13.2 3.8
-15 2 2 13.6 3.7
-15 2 2 15.2 3
-14 -2 2 13.2 2.8
-14 -2 2 9.3 3.1
-14 2 2 6.2 2.9
-14 2 2 14.2 2.6
-13 -2 2 -1.2 1.2
-13 -2 2 1 2.1
-13 2 2 1.6 1.5
-13 2 2 1.4 2.5
-12 -2 2 8.8 1.7
-12 -2 2 3.8 2.1
12 2 -2 4.3 2.2
-12 2 2 5.7 2.4
-12 2 2 9.4 1.9
-11 -2 2 24 4.4
-11 2 2 21.4 2.2
-11 2 2 22.5 3.2
-10 -2 2 13.3 1.7
-10 -2 2 10.7 2.3
10 -2 -2 9.7 2.7
10 2 -2 7.3 2.6
-10 2 2 9.1 2.2
-10 2 2 9 1.6
9 -2 -2 16.8 2.5
9 -2 -2 13.5 1.5
-9 -2 2 15.3 2.4
-9 -2 2 13.7 1.6
9 2 -2 15.1 2.5
-9 2 2 16.6 1.7
-9 2 2 18.5 2.7
-8 -2 2 1.6 1.4
8 -2 -2 -0.3 0.7
8 -2 -2 1 1.6
-8 2 2 0.4 0.8
-8 2 2 1.2 1.3
-8 2 2 0.1 0.4
7 -2 -2 102.59 4.6
-7 -2 2 114.09 5.5
7 -2 -2 99.79 5.3
7 2 -2 93.39 5.3
-7 2 2 105.39 5.4
-7 2 2 100.49 4.7
6 -2 -2 6.7 1.2
6 -2 -2 8 1
-6 -2 2 8.6 1.6
6 2 -2 6.4 1.2
-6 2 2 10.6 1.7
-6 2 2 9.6 1.1
-5 -2 2 1.8 0.6
-5 -2 2 1.4 1
5 -2 -2 1.9 0.6
5 -2 -2 1.5 0.8
-5 2 2 1.6 0.6
5 2 -2 1.5 0.9
-5 2 2 0.8 1
-5 2 2 1.1 0.7
4 -2 -2 69.89 3.9
-4 -2 2 79.59 3.8
-4 -2 2 81.49 4
4 -2 -2 78.89 3.9
4 -2 -2 76.29 3.6
-4 -2 2 79.89 3.7
-4 2 2 76.69 3.5
-4 2 2 80.29 4
-4 2 2 80.29 3.6
4 2 -2 86.79 4
-4 2 2 84.99 3.8
3 -2 -2 693.03 30.1
3 -2 -2 768.62 29.9
-3 -2 2 759.02 30.2
-3 -2 2 729.33 30.1
3 -2 -2 782.82 30.2
3 2 -2 704.73 30.2
-3 2 2 761.22 30.1
3 2 -2 728.73 29.7
3 2 -2 767.32 30.2
-3 2 2 766.62 30.2
-3 2 2 766.12 30.1
-3 2 2 716.63 30
2 -2 -2 1556.44 64.09
2 -2 -2 1582.54 64.09
2 2 -2 1655.63 63.69
-2 2 2 1638.34 63.99
2 2 -2 1576.84 63.99
1 -2 -2 229.68 10.1
-1 -2 2 242.78 9.8
-1 -2 2 232.08 9.9
1 -2 -2 251.37 9.9
1 -2 -2 226.38 9.9
1 -2 -2 251.27 9.9
-1 2 2 233.48 9.9
1 2 -2 254.37 10
-1 2 2 236.88 10
-1 2 2 249.48 9.9
-1 2 2 243.68 9.9
1 2 -2 234.78 9.8
0 -2 2 2.8 0.5
0 -2 -2 2.7 0.6
0 -2 -2 2.6 0.4
0 -2 -2 2.3 0.8
0 -2 -2 2.1 0.4
0 -2 2 2.6 0.4
0 -2 -2 3.7 0.5
0 -2 2 2.1 0.6
0 2 2 2.5 0.4
0 2 2 2.6 0.5
0 2 -2 2.1 0.4
0 2 2 2.4 0.7
0 2 -2 2.8 0.4
0 2 2 3.4 0.7
-1 -2 -2 416.46 16.5
1 -2 2 409.76 16.9
-1 -2 -2 414.36 16.8
-1 2 -2 414.16 16.7
-1 2 -2 397.66 16.6
1 2 2 417.46 16.9
1 2 2 417.96 16.7
1 2 2 414.76 16.7
1 2 2 429.56 16.9
2 -2 2 3014.5 123.39
2 2 2 3166.28 123.39
2 2 2 3094.59 123.19
3 -2 2 1824.12 71.19
-3 -2 -2 1790.22 70.69
3 2 2 1736.53 70.99
3 2 2 1755.52 71.19
-4 -2 -2 11.9 0.9
-4 -2 -2 13.1 1.4
4 2 2 12.5 1.1
-4 2 -2 14.1 0.9
-4 2 -2 16.1 1.5
4 2 2 12.1 1.5
-4 2 -2 13.9 1.1
4 2 2 12.9 0.8
4 2 2 11.9 0.8
5 -2 2 153.38 6.9
-5 -2 -2 150.68 7
-5 -2 -2 144.39 6.4
-5 -2 -2 154.58 6.7
5 2 2 155.98 6.5
-5 2 -2 162.38 7
5 2 2 149.39 6.4
-5 2 -2 155.28 6.5
-5 2 -2 153.48 6.4
-6 -2 -2 248.28 10.9
-6 -2 -2 244.88 10.2
6 -2 2 252.57 10.7
6 -2 2 252.17 10.3
-6 -2 -2 240.98 10.6
-6 2 -2 250.67 10.9
6 2 2 249.68 10.4
-6 2 -2 237.78 10.1
-6 2 -2 253.47 10.4
7 -2 2 479.45 19.8
-7 -2 -2 480.75 19.7
-7 -2 -2 498.75 20.1
7 -2 2 495.55 20
-7 -2 -2 491.95 20.5
-7 2 -2 480.55 19.5
-7 2 -2 426.06 20.5
-7 2 -2 509.55 19.8
7 2 2 481.05 19.9
-8 -2 -2 41.5 3.2
8 -2 2 40.5 2.6
-8 -2 -2 43.3 3.1
-8 -2 -2 38.2 2.3
-8 2 -2 39.5 3
8 2 2 38 2.8
-8 2 -2 39.1 1.9
-8 2 -2 40 2.4
-9 -2 -2 49.8 3.9
9 -2 2 59.39 4.5
-9 -2 -2 49.7 3.5
-9 -2 -2 51.59 2.9
-9 2 -2 53.59 3.8
-9 2 -2 53.29 3.1
-9 2 -2 52.79 2.9
9 2 2 57.99 4.4
-10 -2 -2 49.4 3.5
-10 -2 -2 48.9 2.9
-10 2 -2 44.6 3.7
-11 -2 -2 1.5 1.1
-11 -2 -2 0.8 1.5
-11 2 -2 -0.5 1
-11 2 -2 -0.6 1.7
-12 -2 -2 15.8 1.8
-12 -2 -2 7.9 2.3
-12 2 -2 10.5 1.7
-12 2 -2 17.3 2.9
-13 -2 -2 4.2 1.4
-13 -2 -2 6.9 2.7
-13 2 -2 2.9 2.5
-13 2 -2 6.6 1.8
-14 -2 -2 1.9 1.6
-14 -2 -2 1 3.3
-14 2 -2 1.9 2.6
-14 2 -2 -0.9 1.9
-15 -2 -2 4.8 1.8
-15 2 -2 2.5 3.3
-15 2 -2 2.6 2.5
-16 -2 -2 -0.8 2.1
-16 2 -2 2.9 5.2
-16 2 -2 -2.2 2.6
-17 -2 -2 0.3 1.9
-17 2 -2 -0.5 3
-17 -3 2 -1.7 2.1
-17 3 2 1.9 3.5
-17 3 2 0.1 5
-16 -3 2 0.5 2.5
-16 3 2 -0.6 3.2
-16 3 2 2.1 3.9
-15 -3 2 25.3 3
-15 -3 2 16.6 4.2
-15 3 2 20 3.5
-15 3 2 17.2 4
-14 -3 2 49.7 5.5
-14 -3 2 66.19 4.1
-14 3 2 52.09 5.4
-14 3 2 63.39 4.6
-13 -3 2 14.7 3.1
-13 -3 2 22.4 2.5
-13 3 2 23.9 3.5
-13 3 2 27.7 3
-12 -3 2 71.19 4.1
-12 -3 2 66.69 5.2
-12 3 2 80.89 4.4
-12 3 2 66.19 5.4
-11 -3 2 27.9 3.2
-11 -3 2 26.4 2.8
-11 3 2 26.3 3.5
-11 3 2 26.7 2.5
-10 -3 2 65.79 3.7
-10 -3 2 60.39 4.5
10 3 -2 82.49 7.5
-10 3 2 69.59 4.8
-10 3 2 68.59 3.8
-9 -3 2 58.89 4
-9 -3 2 57.59 4.1
9 -3 -2 53.79 4.5
9 3 -2 58.59 4.5
-9 3 2 49.6 4
-9 3 2 53.09 2.5
-9 3 2 53.79 3.1
8 -3 -2 31.1 3
-8 -3 2 27.9 2.8
8 3 -2 31.9 3
-8 3 2 28.8 2.8
-8 3 2 25.2 2
7 -3 -2 15.2 1.9
7 -3 -2 16.5 1.5
-7 -3 2 14.6 2.1
-7 3 2 18 1.5
7 3 -2 15 2.6
-7 3 2 15.9 2
-6 -3 2 1103.59 44.2
6 -3 -2 1024.5 44
6 -3 -2 1091.49 44.1
6 -3 -2 1113.09 43.5
-6 3 2 1077.79 43.7
6 3 -2 1096.49 44.1
-6 3 2 1082.59 44.2
-5 -3 2 12.9 1.6
5 -3 -2 12.6 1.1
-5 -3 2 13.1 1
5 -3 -2 13.7 1.6
5 -3 -2 12.7 1.7
-5 -3 2 13.6 1.3
-5 3 2 15.1 1.9
-5 3 2 11.8 1.1
5 3 -2 10.2 1.4
-5 3 2 13.3 1.4
-4 -3 2 321.97 13.8
4 -3 -2 328.27 13.8
4 -3 -2 293.37 13.8
-4 -3 2 334.27 13.6
-4 -3 2 319.77 13.4
-4 3 2 345.27 13.5
-4 3 2 341.47 13.8
-4 3 2 334.77 13.7
-4 3 2 322.57 13.3
4 3 -2 338.37 13.8
4 3 -2 328.97 13.1
-4 3 2 315.97 13.4
3 -3 -2 139.79 6.2
3 -3 -2 121.99 6.1
-3 -3 2 140.99 6
-3 -3 2 136.79 6.1
3 -3 -2 135.09 6.5
-3 -3 2 156.38 6.3
3 -3 -2 127.19 6.3
-3 3 2 142.99 6.2
3 3 -2 137.19 5.7
3 3 -2 148.19 6.3
-3 3 2 137.19 6
-3 3 2 133.79 5.8
-3 3 2 131.59 6
-3 3 2 148.09 6.2
3 3 -2 134.79 6.5
-2 -3 2 436.86 17.7
-2 -3 2 434.26 17.7
-2 -3 2 406.26 17.7
2 -3 -2 413.56 17.9
2 -3 -2 418.46 17.7
2 -3 -2 448.56 17.8
2 -3 -2 429.86 17.5
-2 3 2 446.86 17.7
-2 3 2 436.36 17.4
-2 3 2 445.56 17.7
-2 3 2 459.55 17.9
2 3 -2 405.76 17.7
2 3 -2 441.26 17.8
-2 3 2 424.76 17.6
1 -3 -2 2081.39 84.49
1 -3 -2 2171.98 84.79
-1 3 2 2084.09 84.19
-1 3 2 2138.39 84.59
0 -3 2 4469.65 173.28
0 3 2 4233.58 173.18
-1 -3 -2 973.7 40.4
-1 -3 -2 1031.4 40.7
1 -3 2 1009.5 40.8
-1 -3 -2 1045.3 40.4
1 3 2 1034.6 40.7
1 3 2 1003.1 40.7
-1 3 -2 989.3 40.4
2 -3 2 9999 397.86
3 -3 2 1500.85 58.49
-3 -3 -2 1349.66 57.79
3 3 2 1561.44 58.09
-3 3 -2 1403.26 57.79
4 -3 2 467.55 19
-4 -3 -2 469.75 18.9
-4 -3 -2 420.46 18.2
-4 3 -2 454.25 18.4
-4 3 -2 448.36 18.3
4 3 2 466.15 18.5
-4 3 -2 469.45 18.9
4 3 2 458.55 18.5
4 3 2 437.46 18.5
5 -3 2 461.95 18.7
-5 -3 -2 486.45 19.3
-5 -3 -2 433.06 18.8
5 -3 2 459.95 20.7
-5 3 -2 463.55 19.2
5 3 2 465.65 18.7
-5 3 -2 457.25 18.6
-5 3 -2 456.45 18.7
5 3 2 451.55 18.8
-6 -3 -2 327.77 13.6
6 -3 2 289.17 13.8
-6 -3 -2 330.37 14
-6 -3 -2 346.27 14.5
6 -3 2 333.27 14.4
6 3 2 338.07 13.6
-6 3 -2 337.87 13.6
-6 3 -2 342.47 14.4
6 3 2 356.46 14
-6 3 -2 339.17 13.8
-7 -3 -2 55.89 3.3
7 -3 2 60.69 3.2
-7 -3 -2 62.09 3.8
-7 -3 -2 58.59 2.9
7 -3 2 55.99 4.2
-7 3 -2 57.39 2.8
-7 3 -2 54.89 3.6
7 3 2 64.09 3.4
-7 3 -2 55.99 3.1
-8 -3 -2 1 0.7
-8 -3 -2 3 1.6
8 -3 2 1.2 1.1
-8 -3 -2 2.3 1.4
-8 3 -2 1.7 1
-8 3 -2 0.2 0.5
-8 3 -2 -0.1 1.3
8 3 2 1.6 1.3
-9 -3 -2 96.79 5.8
-9 -3 -2 104.39 4.7
9 -3 2 95.89 5.9
-9 -3 -2 94.89 5.2
-9 3 -2 95.29 5.6
-9 3 -2 97.79 4.4
9 3 2 103.59 5.7
-9 3 -2 104.19 4.9
-10 -3 -2 23.9 4.3
-10 -3 -2 27.2 2.1
-10 -3 -2 19.1 2.5
-10 3 -2 23.9 2.9
-10 3 -2 29.8 2.3
-11 -3 -2 25.3 2.9
-11 -3 -2 24.3 2.1
-11 3 -2 25.1 3.1
-11 3 -2 24.3 2.4
-12 -3 -2 4.8 1.3
-12 -3 -2 6 2.3
-12 3 -2 5.2 1.6
-12 3 -2 5.6 2.3
-13 -3 -2 13.2 1.9
-13 -3 -2 11.4 3
-13 3 -2 10.8 2.8
-13 3 -2 11 2.1
-14 -3 -2 6.6 1.7
-14 3 -2 6 2.3
-14 3 -2 4.6 2.9
-15 -3 -2 11.1 2
-15 3 -2 13.7 3.2
-15 3 -2 7 4.4
-16 -3 -2 6.7 1.9
-16 3 -2 13.5 5.5
-16 -4 2 10.5 2.2
-16 4 2 16.8 4.7
-16 4 2 17.7 5.4
-15 -4 2 11.9 4.9
-15 -4 2 20.4 2.5
-15 4 2 8.3 4.2
-15 4 2 17.8 3.4
-14 -4 2 30.7 4.4
-14 -4 2 38.8 3.2
-14 4 2 35.7 4.1
-14 4 2 40.6 5
-13 -4 2 12.1 2.9
-13 -4 2 10 1.7
13 4 -2 12.6 3.1
-13 4 2 22.7 5.5
-13 4 2 22.4 2.7
-12 -4 2 4.7 2.4
-12 -4 2 4 1.3
-12 4 2 3.7 2.2
-12 4 2 4.7 1.6
-11 -4 2 45.1 2.9
-11 -4 2 39.7 3.9
-11 4 2 43.6 3.1
-11 4 2 40.5 4.1
-10 -4 2 11 1.5
-10 -4 2 11.2 2.3
-10 4 2 10.2 2.5
-10 4 2 9.1 1.7
-9 -4 2 7.1 2
9 -4 -2 5.3 2.3
-9 -4 2 1.8 1.7
-9 4 2 5.1 0.8
-9 4 2 3.9 1.9
-9 4 2 6 1.3
9 4 -2 1.5 2.2
-8 -4 2 1.4 1.4
8 -4 -2 0.7 1.5
8 4 -2 1.9 1.5
-8 4 2 -1.6 1.3
-8 4 2 0.7 0.9
7 -4 -2 14.6 1.2
-7 -4 2 20.3 2.5
7 -4 -2 19 2.4
7 4 -2 17.5 2.2
-7 4 2 16.6 1.5
-7 4 2 20.4 2.5
6 -4 -2 2.2 1.4
-6 -4 2 2.3 0.6
-6 -4 2 2.9 0.8
6 -4 -2 1.3 0.7
-6 -4 2 2.2 0.5
6 4 -2 1.7 1.2
-6 4 2 2.2 1.3
-6 4 2 3.5 0.8
-5 -4 2 156.98 7.9
-5 -4 2 177.58 7.7
5 -4 -2 177.38 8.5
-5 -4 2 188.08 8.2
5 -4 -2 181.08 7.5
-5 -4 2 158.08 7.8
5 -4 -2 190.28 8.2
-5 4 2 182.88 8.4
-5 4 2 184.48 7.6
5 4 -2 178.48 8.2
-5 4 2 191.48 8.3
5 4 -2 173.38 7.3
4 -4 -2 68.69 3.1
-4 -4 2 67.99 3.7
4 -4 -2 69.29 3.7
4 -4 -2 53.69 3.9
-4 -4 2 68.19 3.4
-4 -4 2 71.19 3.6
4 4 -2 61.49 2.9
-4 4 2 71.69 3.7
-4 4 2 68.29 3.4
-4 4 2 65.49 3.1
4 4 -2 64.19 3.6
-4 4 2 65.29 3.6
3 -4 -2 39.2 2.9
-3 -4 2 36.6 2.4
-3 -4 2 36.6 2.4
3 -4 -2 40.5 2.5
3 -4 -2 39.5 2.1
-3 -4 2 40.5 2.4
3 4 -2 46 2.7
-3 4 2 37.5 2.3
-3 4 2 41.2 2.5
-3 4 2 44.7 2.6
-3 4 2 38.5 2
2 -4 -2 66.49 3.4
-2 -4 2 67.99 3.4
2 -4 -2 62.19 3.9
-2 -4 2 64.79 3.3
-2 -4 2 62.19 3.4
2 -4 -2 63.39 3.1
-2 4 2 61.39 3.3
2 4 -2 69.29 3.5
-2 4 2 67.39 3.5
-2 4 2 64.99 3.3
-2 4 2 64.19 3.3
-2 4 2 65.39 2.8
1 -4 -2 358.96 15.7
-1 -4 2 382.86 16
1 -4 -2 358.96 16.1
-1 -4 2 351.96 15.9
-1 -4 2 394.46 15.7
1 -4 -2 403.36 15.8
-1 -4 2 406.36 15.9
-1 4 2 399.96 15.8
-1 4 2 362.36 15.3
-1 4 2 372.96 15.8
-1 4 2 390.76 16
-1 4 2 396.86 15.7
0 -4 2 38.9 2.7
0 -4 -2 43.9 2.4
0 -4 2 41.1 2.5
0 -4 -2 41.9 2.8
0 -4 2 40.9 2.7
0 -4 -2 39.4 2.2
0 -4 -2 49 2.4
0 4 2 41.9 2.8
0 4 2 41.9 1.8
0 4 2 45.5 2.2
0 4 -2 41 2
0 4 2 44.1 2.4
0 4 2 41.9 2.5
-1 -4 -2 1435.96 54.19
-1 -4 -2 1275.37 54.59
1 -4 2 1419.96 54.99
-1 -4 -2 1312.87 54.09
-1 -4 -2 1305.87 54.69
-1 4 -2 1375.66 53.99
-2 -4 -2 244.68 10.4
-2 -4 -2 253.17 9.9
-2 -4 -2 226.98 10.6
-2 -4 -2 241.28 10
-2 -4 -2 262.67 9.9
2 -4 2 238.88 10.7
-2 4 -2 246.58 10.4
2 4 2 246.88 10.4
2 4 2 241.58 10.4
-2 4 -2 235.38 10
2 4 2 243.78 10.3
3 -4 2 2073.39 84.49
-3 -4 -2 2025.9 83.59
3 4 2 2211.88 84.39
-4 -4 -2 2036.8 83.29
4 -4 2 2066.89 84.29
4 4 2 2176.68 83.79
5 -4 2 1351.86 53.79
-5 -4 -2 1470.55 54.69
5 -4 2 1304.77 54.39
-5 -4 -2 1225.48 53.29
5 4 2 1330.57 53.89
-5 4 -2 1397.96 54.49
5 4 2 1355.96 53.69
-5 4 -2 1306.57 53.49
-5 4 -2 1293.87 53.39
-6 -4 -2 1582.74 65.09
-6 -4 -2 1678.33 66.19
-6 -4 -2 1559.04 65.49
-6 4 -2 1564.84 65.39
-6 4 -2 1663.33 66.09
6 4 2 1712.73 65.39
-6 4 -2 1632.64 65.19
6 4 2 1667.93 66.89
-7 -4 -2 135.09 6.7
7 -4 2 135.09 6.5
-7 -4 -2 129.89 5.6
-7 -4 -2 122.19 6
7 4 2 132.89 6.3
-7 4 -2 122.69 5.8
-7 4 -2 132.19 6.6
-7 4 -2 128.49 5.6
-8 -4 -2 686.43 27.7
8 -4 2 701.53 27.9
-8 -4 -2 633.84 28.2
-8 -4 -2 669.53 27.1
-8 4 -2 642.94 28.1
8 4 2 684.43 28
-8 4 -2 667.33 27.4
-9 -4 -2 246.18 10.1
-9 -4 -2 241.38 11.5
-9 -4 -2 221.78 10.6
-9 4 -2 245.38 11.3
-9 4 -2 240.68 10.4
-9 4 -2 231.48 9.9
-10 -4 -2 114.59 6.4
-10 -4 -2 134.29 5.9
-10 -4 -2 125.79 7.3
-10 4 -2 126.59 5.5
-10 4 -2 122.69 7.1
-10 4 -2 135.49 6.3
-11 -4 -2 2.5 1.8
-11 -4 -2 3.3 1.1
-11 4 -2 1.7 1.3
-11 4 -2 0.3 1.7
-12 -4 -2 4.1 2.3
-12 -4 -2 6.2 1.3
-12 4 -2 3.4 1.5
-12 4 -2 3.7 2
-13 -4 -2 3.4 1.4
-13 4 -2 4 1.8
-14 -4 -2 3.7 1.5
-14 4 -2 4.7 2.4
-14 4 -2 -1.2 2.6
-15 -4 -2 1.9 1.5
-15 4 -2 0.8 3
-15 4 -2 -0.4 3.1
-16 4 -2 -3.1 3.7
-16 4 -2 -5.8 4.4
-16 5 2 3.6 4
-16 5 2 3.4 4.6
-15 -5 2 1.4 1.7
-15 5 2 2.3 3.7
-15 5 2 0 3.1
-14 -5 2 -0.4 3.1
-14 -5 2 0.4 1.5
-14 5 2 2.2 3.1
-14 5 2 -0.7 2.5
-13 -5 2 30.8 2.6
-13 -5 2 20.6 3.6
-13 5 2 37 4.7
-13 5 2 22 4.1
-12 -5 2 10 1.6
-12 -5 2 6.9 2.4
-12 5 2 13.2 2.1
-12 5 2 4.9 2.4
-11 -5 2 17.6 2
-11 -5 2 16.6 2.8
-11 5 2 21.1 2.3
-11 5 2 14.6 2.9
-10 -5 2 1.8 1.7
-10 -5 2 4 1.2
-10 -5 2 3.3 2.1
-10 5 2 4 1.3
-10 5 2 2.5 0.8
-10 5 2 3.6 2.1
-9 -5 2 21.1 3.1
9 -5 -2 13.6 3
9 5 -2 15.1 3.1
-9 5 2 16.3 2.7
-9 5 2 14.7 1.8
8 -5 -2 25.9 3.5
-8 -5 2 25.7 2.9
8 5 -2 29.2 3.7
-8 5 2 30.5 2.1
-8 5 2 27.4 2.8
-7 -5 2 16.3 2.4
7 -5 -2 13.1 2.1
-7 5 2 12.6 2.2
7 5 -2 13.5 2.2
-7 5 2 13.6 1.5
-6 -5 2 15.3 2.5
6 -5 -2 16.6 2.2
-6 -5 2 14.9 1.3
-6 -5 2 16.4 2.1
-6 -5 2 12 1.2
-6 5 2 11.9 1.9
6 5 -2 13.9 1.9
-6 5 2 15.4 1.4
-5 -5 2 198.08 9
-5 -5 2 202.68 8.5
-5 -5 2 169.58 8.6
5 -5 -2 205.68 9.1
5 5 -2 202.08 9.1
-5 5 2 196.18 9
-5 5 2 188.48 8.6
5 5 -2 193.28 8.1
-5 5 2 203.88 9
-5 5 2 201.98 8.3
-4 -5 2 50.69 2.9
-4 -5 2 51.69 3
-4 -5 2 47.5 2.8
-4 -5 2 43.6 3.1
4 -5 -2 47.1 3.1
-4 5 2 49.5 2.4
-4 5 2 50.99 3.2
-4 5 2 49.2 3.1
4 5 -2 48.4 3.2
-4 5 2 48.3 3
-3 -5 2 3.3 1.4
-3 -5 2 4 1
-3 -5 2 3.3 0.9
3 -5 -2 3.3 1
-3 -5 2 4.3 1.2
-3 5 2 4.5 1.3
-3 5 2 3.9 0.6
-3 5 2 3.6 1.7
3 5 -2 4 1.1
-3 5 2 4.9 1.1
-2 -5 2 20.4 2.3
-2 -5 2 26.1 1.8
2 -5 -2 25.1 2.1
2 -5 -2 21.7 2.8
-2 -5 2 22.4 2
-2 5 2 22.5 1.3
-2 5 2 25.5 2
2 5 -2 22.7 2
-2 5 2 25 1.8
-1 -5 2 15.7 1.5
-1 -5 2 18.4 1.8
1 -5 -2 19.7 2.3
1 -5 -2 23.6 4.2
1 -5 -2 20 1.7
-1 -5 2 19.6 2.4
-1 5 2 20.4 1.7
-1 5 2 19.2 1.9
-1 5 2 19.9 1.5
0 -5 -2 72.99 3.8
0 -5 2 69.79 3.4
0 -5 2 67.29 3.7
0 -5 -2 65.19 3.5
0 -5 -2 73.69 3.5
0 -5 -2 62.79 4.3
0 -5 2 70.29 4.1
0 5 2 65.49 2.9
0 5 2 70.29 3.3
0 5 2 71.99 3.6
0 5 2 71.79 4
0 5 -2 65.89 3.1
-1 -5 -2 264.67 12.4
-1 -5 -2 283.77 11.9
-1 -5 -2 286.07 11.8
-1 -5 -2 285.17 11.8
-1 -5 -2 284.27 12
1 5 2 277.57 12
1 5 2 293.17 12.2
-1 5 -2 282.97 11.5
-2 -5 -2 586.04 24.7
-2 -5 -2 588.24 25.4
2 -5 2 580.94 25.5
-2 -5 -2 622.54 25.2
-2 5 -2 619.94 24.6
2 5 2 628.64 25.2
-2 5 -2 616.34 25.1
2 5 2 648.64 25.2
-3 -5 -2 93.69 4.3
-3 -5 -2 88.29 3.8
-3 -5 -2 87.89 5
3 -5 2 101.59 4.6
-3 -5 -2 99.09 4.7
-3 5 -2 87.79 4.1
-3 5 -2 90.89 4.6
3 5 2 95.99 4.6
-3 5 -2 88.19 4.1
3 5 2 89.89 4.6
-4 -5 -2 110.49 4.5
-4 -5 -2 105.99 5.3
4 -5 2 104.69 5.1
-4 5 -2 104.39 5.3
4 5 2 106.49 5.2
-4 5 -2 94.59 4.3
-4 5 -2 104.59 4.7
4 5 2 104.09 5
-5 -5 -2 8.5 1.6
5 -5 2 6 1.2
-5 -5 -2 6 0.7
5 5 2 5.5 1.2
-5 5 -2 7.5 1.6
-5 5 -2 8.3 1.1
5 5 2 5.3 1.1
-6 -5 -2 8.8 0.9
6 -5 2 7.4 1.4
-6 -5 -2 8.8 1.8
6 5 2 7.9 1.4
-6 5 -2 7.7 1.7
6 5 2 9.4 1.3
-6 5 -2 9.5 1.1
-6 5 -2 11.1 1.3
-7 -5 -2 42.8 2.2
7 -5 2 46.1 3.3
-7 -5 -2 41.8 3.4
-7 -5 -2 41.4 2.7
7 5 2 44.4 3.4
-7 5 -2 41.6 2.3
-7 5 -2 42.3 3.2
-7 5 -2 41.9 2.5
-8 -5 -2 1.1 1.2
-8 -5 -2 0.5 1.5
-8 -5 -2 -0.3 0.6
8 -5 2 0.9 1.6
8 5 2 -1.7 1.7
-8 5 -2 -0.3 0.9
-8 5 -2 -0.6 1.4
-8 5 -2 0.7 0.7
-9 -5 -2 3.1 1.8
-9 -5 -2 2.5 1.4
-9 -5 -2 6.1 1
-9 5 -2 4.8 1.3
-9 5 -2 4.2 0.9
-9 5 -2 4.5 1.8
-10 -5 -2 18.1 2.5
-10 -5 -2 18.7 1.7
-10 -5 -2 18.9 3.1
-10 5 -2 18.4 1.5
-10 5 -2 18.2 2.1
-10 5 -2 22.5 3.2
-11 -5 -2 4.3 2.4
-11 -5 -2 4.1 2
-11 -5 -2 6.1 1.3
-11 5 -2 7.5 1.6
-11 5 -2 6.3 2.3
-12 -5 -2 2.2 1.1
-12 5 -2 1.8 1.4
-12 5 -2 -1.1 2
-13 5 -2 4.1 1.9
-13 5 -2 7.2 2.9
-14 -5 -2 2.6 1.5
-14 5 -2 4 2.9
-14 5 -2 1.6 2.6
-15 5 -2 6.3 3.1
-15 5 -2 5.7 4.1
-16 5 -2 7.3 4.9
-16 5 -2 1.9 3.5
-16 6 2 0.9 4.4
-16 6 2 6.2 4.1
-15 -6 2 4.5 3.4
-15 6 2 -3.7 3.3
-15 6 2 -1 3.5
-14 -6 2 7.9 1.8
-14 6 2 14.7 3.3
-14 6 2 5.1 3.2
-13 -6 2 -3.5 2.7
-13 6 2 0.8 2.1
-13 6 2 1.7 2.8
-12 -6 2 5.4 1.4
-12 -6 2 4.5 2.5
-12 6 2 6.4 1.8
-12 6 2 4.8 2.6
-11 -6 2 8.9 2.7
-11 -6 2 14.2 2.8
-11 -6 2 9.3 1.5
-11 6 2 10.3 1.8
-11 6 2 17.3 3.2
-10 -6 2 0.7 1
-10 -6 2 0.6 2.1
-10 6 2 -2 0.7
-10 6 2 1.6 1.3
-10 6 2 -0.2 1.6
-9 -6 2 246.18 12.1
9 -6 -2 245.48 15.7
9 6 -2 261.17 15.5
-9 6 2 234.68 11.8
-9 6 2 252.97 10.8
8 -6 -2 117.79 7.3
-8 -6 2 119.09 6.8
8 6 -2 132.89 7.5
-8 6 2 120.19 5.7
-8 6 2 120.99 6.8
7 -6 -2 283.97 14.8
-7 -6 2 281.57 13
-7 6 2 280.27 12
7 6 -2 282.97 13.6
-7 6 2 293.87 13
6 -6 -2 182.08 8.7
-6 -6 2 184.28 8.7
-6 -6 2 155.28 7.9
-6 -6 2 180.68 7.5
6 6 -2 186.18 8.8
-6 6 2 176.48 8.5
6 6 -2 180.08 7.5
-6 6 2 176.98 7.7
-5 -6 2 384.86 18.8
5 -6 -2 438.86 18.7
-5 -6 2 447.96 18.7
-5 -6 2 437.26 18.6
-5 6 2 449.26 17.9
-5 6 2 441.56 18.6
5 6 -2 435.36 18.7
5 6 -2 443.36 17.6
-4 -6 2 39.1 2.8
4 -6 -2 37.7 2.9
-4 -6 2 40.7 2.6
-4 -6 2 40 2.8
4 6 -2 42.3 3.2
-4 6 2 39.6 2.1
-4 6 2 39.3 3
-4 6 2 38.4 2.8
3 -6 -2 57.19 3.5
-3 -6 2 58.29 3.3
-3 -6 2 50.39 4.5
-3 -6 2 56.09 3.4
-3 -6 2 55.49 3.3
-3 6 2 54.39 3.6
3 6 -2 58.89 3.6
-3 6 2 55.49 2.6
-3 6 2 55.49 3.3
2 -6 -2 64.59 3.6
-2 -6 2 56.99 3.3
-2 -6 2 61.09 3.4
-2 -6 2 62.39 3.6
-2 6 2 54.39 2.7
-2 6 2 64.79 3.8
-2 6 2 60.49 3.3
1 -6 -2 261.97 11.3
1 -6 -2 266.27 11.3
-1 -6 2 257.67 11.1
-1 -6 2 250.67 11.3
-1 -6 2 256.97 11.2
-1 6 2 267.57 11
-1 6 2 261.07 11.5
-1 6 2 248.38 10.5
0 -6 -2 39.1 2.5
0 -6 -2 39.4 2.6
0 -6 2 37.4 2.4
0 -6 2 35.8 2.6
0 6 2 36.4 2.7
0 6 -2 37 1.9
-1 -6 -2 201.68 10.5
1 -6 2 259.37 10.6
-1 -6 -2 249.68 10.5
-1 -6 -2 234.38 10.2
1 -6 2 244.58 10.6
-1 -6 -2 244.38 10.3
-1 6 -2 236.48 9.9
1 6 2 242.58 10.7
-2 -6 -2 141.99 6.4
2 -6 2 146.49 6.8
-2 -6 -2 140.99 6.6
-2 -6 -2 145.59 6.4
2 6 2 159.18 7.3
-2 6 -2 144.59 6.2
-2 6 -2 147.29 6.8
3 -6 2 7.9 1.3
-3 -6 -2 9.1 1.6
-3 -6 -2 5 1.6
3 6 2 6 1.3
-3 6 -2 8.4 1.5
-3 6 -2 7.7 1
3 6 2 8.1 2.4
-3 6 -2 3.9 1.3
4 -6 2 1.2 1
-4 -6 -2 0.4 1.1
-4 -6 -2 0 0.3
-4 6 -2 1.4 0.9
4 6 2 1.4 1.1
4 6 2 1.5 1
-4 6 -2 2.3 1.3
-4 6 -2 0.7 0.7
5 -6 2 3.6 1.3
-5 -6 -2 4.7 0.6
-5 -6 -2 4.4 1.6
-5 6 -2 4.2 0.9
5 6 2 4.6 1.2
-5 6 -2 5.7 1.5
5 6 2 3.6 1.4
6 -6 2 195.48 8.7
-6 -6 -2 167.98 8.7
-6 -6 -2 174.18 7.5
-6 6 -2 175.38 8.6
6 6 2 183.48 8.7
-6 6 -2 188.28 7.8
-6 6 -2 182.28 7.9
-7 -6 -2 133.39 6.6
-7 -6 -2 132.99 6
7 -6 2 161.78 7.5
-7 -6 -2 142.69 7.5
-7 6 -2 149.49 6.4
-7 6 -2 142.09 7.3
7 6 2 145.09 9.4
-7 6 -2 140.29 6.5
-8 -6 -2 60.79 4.4
-8 -6 -2 50.49 2.9
-8 6 -2 58.19 3
-8 6 -2 57.19 4.1
-8 6 -2 56.99 3.2
-9 -6 -2 59.69 3.1
-9 -6 -2 60.59 3.9
-9 -6 -2 65.49 4.8
-9 6 -2 62.69 3.3
-9 6 -2 60.09 3.7
-9 6 -2 68.69 4.6
-10 -6 -2 82.59 5.8
-10 -6 -2 82.09 3.9
-10 -6 -2 74.19 4.7
-10 6 -2 82.39 5.5
-10 6 -2 76.99 3.9
-10 6 -2 81.29 4.4
-11 -6 -2 51.99 4.8
-11 -6 -2 46.9 2.9
-11 6 -2 53.89 3
-11 6 -2 47.6 3.3
-11 6 -2 49.8 4.5
-12 -6 -2 7.6 1.4
-12 -6 -2 8.9 3.3
-12 6 -2 11.6 2.8
-12 6 -2 13.6 2.2
-13 6 -2 2.7 2.6
-13 6 -2 -0.1 2
-14 6 -2 0.5 3
-14 6 -2 -2 2.8
-15 6 -2 -3.7 3.2
-15 6 -2 -3.4 3.5
-16 6 -2 -0.8 5.2
-16 6 -2 4.6 3.9
-15 7 2 4.3 4.4
-14 7 2 5.6 4.4
-14 7 2 8.1 3
-13 -7 2 17.7 2.1
-13 -7 2 7.8 4.9
-13 7 2 22.4 4.5
-13 7 2 29.6 3.4
-12 -7 2 19.1 3.6
-12 -7 2 19.5 2.2
-12 7 2 27.5 3
-12 7 2 22.5 3.8
-11 -7 2 41 4.6
-11 -7 2 40.2 2.7
-11 -7 2 41 4.2
-11 7 2 42.5 3.1
-11 7 2 35.2 2.6
-11 7 2 37.8 4.2
-10 -7 2 55.39 3.1
-10 -7 2 49.5 4.3
-10 -7 2 48 4.7
-10 7 2 51.39 3.3
-10 7 2 54.99 3.4
-10 7 2 51.49 4.5
-9 -7 2 1.2 2
-9 7 2 1.2 1.8
9 7 -2 -1.2 4.2
-9 7 2 0.1 1.1
-8 -7 2 -0.6 1.8
8 7 -2 3.9 3.1
-8 7 2 0.4 1
7 -7 -2 1 2
-7 -7 2 0.6 1.5
7 7 -2 1.1 2.2
-7 7 2 -0.1 0.8
-7 7 2 0.5 1.6
-6 -7 2 14 2.2
6 -7 -2 18.8 2.7
-6 -7 2 14.6 1.7
-6 -7 2 15.9 1.7
6 7 -2 14.8 1.2
-6 7 2 14.9 2.4
-6 7 2 15.1 1.5
6 7 -2 15 2.6
-5 -7 2 123.29 6.2
5 -7 -2 130.59 7.1
-5 -7 2 112.69 5.6
-5 -7 2 100.59 5.9
-5 7 2 119.69 5.3
5 7 -2 112.59 5.1
5 7 -2 120.39 6.5
-5 7 2 122.69 6.2
4 -7 -2 90.19 5.1
-4 -7 2 86.99 5.9
-4 -7 2 90.39 5
-4 -7 2 87.59 4.7
-4 7 2 93.39 4.9
-4 7 2 87.99 4.1
-3 -7 2 48.1 3.4
3 -7 -2 48.9 3.3
-3 -7 2 46.9 3.1
-3 -7 2 56.19 4.6
-3 7 2 46.8 2.3
-3 7 2 47.2 3.1
-3 7 2 43.3 3.4
-2 -7 2 38 2.6
-2 -7 2 31.9 2.9
-2 -7 2 34.9 2.7
2 -7 -2 38.9 2.8
2 -7 -2 42.6 3.2
-2 7 2 34.3 2.5
-2 7 2 30.2 2.9
-2 7 2 34.1 1.8
1 -7 -2 858.51 34
-1 -7 2 816.42 33.9
1 -7 -2 814.72 34
-1 -7 2 861.41 34
-1 7 2 845.42 33.7
-1 7 2 795.62 34.2
-1 7 2 797.22 33.1
0 -7 -2 886.21 36
0 -7 -2 874.81 35.9
0 -7 2 902.31 36
0 -7 2 854.41 36.2
0 7 2 882.81 36.4
-1 -7 -2 542.05 21.9
1 -7 2 529.15 21.8
-1 -7 -2 517.25 21.4
1 -7 2 508.45 21.9
-1 -7 -2 512.45 21.5
-1 7 -2 500.25 21
1 7 2 516.25 21.9
-2 -7 -2 265.77 11.7
2 -7 2 279.57 12.3
-2 -7 -2 277.47 11.8
-2 -7 -2 283.27 12.3
2 7 2 278.57 12.4
-2 7 -2 279.07 11.5
-3 -7 -2 127.79 6.4
3 -7 2 122.79 6.3
-3 7 -2 130.39 6.3
-3 7 -2 123.89 5.6
3 7 2 126.09 6.3
-4 -7 -2 98.29 5.4
4 -7 2 101.49 5.4
-4 7 -2 97.19 5.3
4 7 2 91.79 5.4
-4 7 -2 95.19 4.5
4 7 2 103.79 5.3
5 -7 2 498.75 21.4
-5 -7 -2 518.55 21.5
-5 7 -2 506.95 21.4
-5 7 -2 491.45 20.5
5 7 2 486.85 21.4
-6 -7 -2 328.47 15
6 -7 2 355.46 15.1
6 7 2 328.07 15.1
-6 7 -2 338.87 14
-6 7 -2 334.27 14
-6 7 -2 319.17 14.9
-7 -7 -2 1.8 1.7
7 -7 2 -0.8 2
-7 -7 -2 0.9 1.1
-7 7 -2 0.8 1
-7 7 -2 1.5 1.5
7 7 2 0 2.1
-7 7 -2 1.2 0.9
-8 -7 -2 8.8 2.4
-8 -7 -2 9.2 1.9
-8 7 -2 10.7 2.3
-8 7 -2 11.2 1.6
-8 7 -2 9.9 1.4
-9 -7 -2 2.1 2
-9 -7 -2 1.2 1.7
-9 7 -2 4.5 2
-9 7 -2 5 1.4
-10 -7 -2 49.4 4.6
-10 7 -2 41.5 4.1
-10 7 -2 40.6 3
-11 -7 -2 28.2 4.1
-11 7 -2 24.6 2.1
-11 7 -2 24 3.5
-11 7 -2 30.9 2.8
-12 -7 -2 13.9 3.4
-12 7 -2 18.5 3.7
-12 7 -2 9.8 2.7
-13 7 -2 24.8 3.6
-13 7 -2 12.6 3.5
-14 7 -2 17.3 4.8
-14 7 -2 24.7 4.2
-15 7 -2 7.8 3.9
-15 7 -2 5.3 4.6
-15 8 2 -1.3 4.7
-15 8 2 -4.1 3.5
-14 8 2 1.7 3.5
-14 8 2 1.8 3.6
-13 8 2 0.8 2.5
-13 8 2 1.4 3.2
-12 -8 2 10.2 1.8
-12 -8 2 11 3.8
-12 8 2 9.5 3.1
-12 8 2 8.3 2.1
-11 -8 2 11.5 3.1
-11 -8 2 10.4 1.5
-11 -8 2 11.7 3.5
-11 8 2 16.7 5.3
-11 8 2 11.4 1.6
-11 8 2 14.2 2.1
-10 -8 2 0.1 2.2
-10 -8 2 1.4 2.1
-10 -8 2 1.1 1
-10 8 2 1.7 1.1
-10 8 2 4 2.2
-10 8 2 1 1.3
-9 -8 2 0.7 2
-9 -8 2 1.6 0.9
-9 8 2 0.2 1
-9 8 2 4.6 2.2
-8 -8 2 13.9 2.7
8 -8 -2 7.6 4.6
-8 8 2 9.9 2.5
-8 8 2 11.2 1.6
-7 -8 2 9.5 2.4
7 -8 -2 7.2 2.9
-7 8 2 7.8 1.3
-7 8 2 5.5 2.1
7 8 -2 4.7 3.3
-6 -8 2 3.9 1.7
6 -8 -2 3.2 2.4
-6 8 2 3.5 1.7
6 8 -2 -1.7 3.4
6 8 -2 5.4 0.9
-6 8 2 3.9 1
-5 -8 2 76.19 5
-5 -8 2 80.39 4.4
5 -8 -2 77.79 5.3
-5 -8 2 80.89 4.8
-5 8 2 76.29 4.6
5 8 -2 76.79 6
-5 8 2 77.09 3.7
5 8 -2 74.19 3.6
4 -8 -2 1.2 1.6
-4 -8 2 1.5 2.1
-4 -8 2 1.6 1.5
-4 8 2 -1.7 1.1
-4 8 2 0.2 0.6
-3 -8 2 81.39 4.7
3 -8 -2 84.79 5
-3 -8 2 85.79 4.8
-3 -8 2 82.89 5
-3 8 2 78.59 3.8
-3 8 2 92.09 4.7
-2 -8 2 3.1 1.6
2 -8 -2 4.1 1.6
-2 -8 2 6.2 1.6
2 -8 -2 4 1.4
-2 -8 2 3.9 1.4
-2 8 2 4.9 0.7
-2 8 2 6.8 2
-1 -8 2 35.6 3.3
1 -8 -2 35 3.2
1 -8 -2 32.5 2.9
-1 -8 2 40.4 2.9
-1 -8 2 38.4 3
-1 8 2 35.1 3.1
-1 8 2 34.7 1.7
0 -8 2 20.7 2.1
0 -8 2 16.5 3.1
0 -8 -2 18.8 2.2
0 -8 -2 17.6 2.5
0 -8 -2 19.8 2.5
0 -8 2 19.3 2.4
0 8 2 18 2.4
1 -8 2 13.3 2
-1 -8 -2 11.9 2
-1 -8 -2 7.8 1.4
1 -8 2 10.6 1.7
1 -8 2 9.7 1.8
-1 -8 -2 9.9 1.7
-1 8 -2 9.7 1.1
1 8 2 10.1 1.9
-2 -8 -2 7.2 1.6
-2 -8 -2 13.2 2.1
-2 -8 -2 8.3 1.3
2 -8 2 7.7 1.6
2 8 2 10.2 2
-2 8 -2 7 1
3 -8 2 83.19 5
-3 -8 -2 79.59 4.8
-3 8 -2 82.09 3.9
3 8 2 80.89 4.8
4 -8 2 12.4 2.2
-4 -8 -2 13.8 2.4
-4 8 -2 11.4 1.3
-4 8 -2 16.5 2.3
5 -8 2 0.6 1.7
-5 -8 -2 -0.3 1.5
-5 8 -2 1.3 1.4
5 8 2 3.6 2.5
-5 8 -2 0 0.7
6 -8 2 19.9 3.9
-6 -8 -2 27.7 3.3
-6 8 -2 19.2 1.8
-6 8 -2 19.4 2.7
6 8 2 13.6 2.9
-6 8 -2 16.7 1.8
-7 -8 -2 5.4 2.1
-7 8 -2 2.2 1.2
-7 8 -2 3.3 1.2
-7 8 -2 -0.8 1.6
-8 -8 -2 -0.4 1.9
-8 -8 -2 -1.4 1.6
-8 8 -2 -1 0.9
-8 8 -2 0.5 1.8
-8 8 -2 0.2 1
-9 -8 -2 61.19 4.8
-9 8 -2 48.9 3.1
-9 8 -2 48.9 3.3
-9 8 -2 50.09 4.4
-10 -8 -2 51.69 5
-10 8 -2 62.39 5
-10 8 -2 62.39 3.4
-10 8 -2 53.19 3.6
-11 -8 -2 15.3 3.9
-11 8 -2 12.7 2.3
-11 8 -2 7.5 2.9
-11 8 -2 10.3 1.6
-12 -8 -2 5.6 3.6
-12 8 -2 4.2 3
-12 8 -2 8.2 2.5
-13 8 -2 7.4 3.2
-13 8 -2 3 3.2
-14 8 -2 -2.8 3.4
-14 8 -2 -0.2 3.5
-15 8 -2 -10.6 4.5
-15 8 -2 0.3 4.2
-14 9 2 -4 5.1
-14 9 2 -3.4 3.2
-13 9 2 -1.5 2.8
-13 9 2 2.6 3.8
-12 -9 2 0.8 3.5
-12 9 2 3.3 2.3
-12 9 2 2.8 3.3
-11 -9 2 27.5 4.9
-11 -9 2 42.3 5.2
-11 9 2 35.5 4.1
-11 9 2 43.5 2.9
-11 9 2 39.5 4.7
-10 -9 2 10 3
-10 -9 2 13.1 3.1
-10 9 2 14.5 3.1
-10 9 2 10.7 1.7
-10 9 2 16.6 1.9
-9 -9 2 2.3 1.1
-9 -9 2 -1 1.9
-9 9 2 3 2.2
-9 9 2 1.8 1.2
-8 -9 2 8.6 2.4
-8 9 2 8.9 2.3
8 9 -2 16.9 6.9
-8 9 2 9.3 1.4
-7 -9 2 26.6 3.5
7 -9 -2 33.3 5.2
-7 9 2 31.5 3.3
7 9 -2 28.2 5.2
6 -9 -2 20.8 3.6
-6 9 2 26.9 1.9
-6 9 2 21.7 4
6 9 -2 25.6 1.8
-5 -9 2 17.5 2.3
5 -9 -2 23.9 3.6
-5 -9 2 23.6 3.1
-5 9 2 20.4 2.7
-5 9 2 18 1.5
5 9 -2 17.9 1.5
4 -9 -2 26.2 3.4
-4 -9 2 25.4 3.1
-4 -9 2 25.6 2.8
-4 9 2 24.9 1.7
-4 9 2 23.7 2.6
3 -9 -2 3.5 2.1
-3 -9 2 6.4 1.8
-3 -9 2 2.8 2
-3 -9 2 3.8 1.6
3 -9 -2 4.3 2.5
-3 9 2 3.5 1.5
-3 9 2 2.8 0.7
-2 -9 2 109.19 6.7
2 -9 -2 143.69 7.4
2 -9 -2 147.19 8.6
-2 9 2 140.49 5.7
-1 -9 2 377.06 17.3
1 -9 -2 387.26 17.2
1 -9 -2 390.66 17.2
-1 -9 2 414.96 18.8
-1 -9 2 388.66 17
0 -9 2 574.44 25.1
0 -9 2 565.24 25.3
0 -9 -2 604.44 25
0 -9 2 599.34 25
0 -9 -2 596.34 24.9
0 -9 -2 614.04 25.2
-1 -9 -2 402.86 17.1
-1 -9 -2 389.06 16.7
1 -9 2 386.56 17.1
1 -9 2 386.26 16.8
-1 -9 -2 374.46 16.7
-2 -9 -2 8.1 2
-2 -9 -2 12.5 1.7
2 -9 2 5.4 2
-2 -9 -2 8 2
2 -9 2 9.7 2
-2 9 -2 11.2 1.2
3 -9 2 12.9 2.3
3 -9 2 6 2.3
-3 -9 -2 10.8 2.2
-3 9 -2 11.5 1.3
-4 -9 -2 35 3.3
4 -9 2 34.6 4.1
-4 9 -2 32 2.1
5 -9 2 39.3 4.6
-5 -9 -2 37 3.5
-5 9 -2 27.7 3
-5 9 -2 33.7 2.2
-6 -9 -2 1.4 1.8
-6 9 -2 2.5 1.2
-6 9 -2 -0.6 1.5
-7 -9 -2 81.19 5.5
-7 9 -2 78.19 5.2
-7 9 -2 78.59 4.2
-7 9 -2 70.39 4.1
-8 -9 -2 30.2 3.9
-8 9 -2 32 2.5
-8 9 -2 31.5 2.5
-8 9 -2 31.9 3.6
-9 -9 -2 9.3 2.7
-9 9 -2 15.6 3.2
-9 9 -2 13.7 1.8
-9 9 -2 14.5 2
-10 -9 -2 12.4 4.3
-10 9 -2 13.2 2.2
-10 9 -2 9.6 1.6
-11 -9 -2 8.1 3.6
-11 9 -2 9.1 2.6
-11 9 -2 0.3 2.6
-11 9 -2 4.8 2.1
-12 -9 -2 9.3 4
-12 9 -2 10.6 3.5
-12 9 -2 10.2 2.9
-13 9 -2 11.6 3.8
-13 9 -2 14.6 7.9
-14 9 -2 -1 3.8
-14 9 -2 1.4 4.7
-14 10 2 3.9 3.7
-14 10 2 -4.7 4.5
-13 10 2 7.4 4.2
-13 10 2 -1.6 5.2
-12 -10 2 7 4.9
-12 10 2 -1.6 4.2
-12 10 2 0.9 2.6
-11 -10 2 1.9 3.7
-11 10 2 0 1.9
-11 10 2 -0.5 1.3
-11 10 2 0.2 3
-10 -10 2 6.5 3.2
-10 10 2 0.2 1.2
-10 10 2 -0.2 2.2
-10 10 2 0.9 2.4
-9 -10 2 2.5 2.7
-9 10 2 4.8 2.5
-9 10 2 1.8 1.2
-9 10 2 4.4 1.3
-8 -10 2 25.8 3.8
-8 10 2 17.7 3
-8 10 2 22.9 2
-7 -10 2 137.79 7.8
-7 10 2 127.79 7.4
-7 10 2 122.49 6
6 -10 -2 46.2 7.9
-6 -10 2 51.39 4.4
-6 10 2 47.7 2.8
6 10 -2 45.4 2.7
-6 10 2 48.5 4
-5 -10 2 222.58 9.9
-5 -10 2 215.28 10.4
5 -10 -2 192.58 11.5
5 10 -2 186.18 8.7
-5 10 2 210.18 8.8
-5 10 2 190.18 9.9
-4 -10 2 147.69 8
4 -10 -2 145.99 9
-4 -10 2 161.08 8.1
4 10 -2 146.29 6.7
-4 10 2 153.08 6.6
-4 10 2 146.19 7.7
-3 -10 2 323.57 14.1
-3 10 2 284.77 13.2
2 -10 -2 301.07 14.3
-2 -10 2 293.67 14
-2 -10 2 325.87 14.1
-1 -10 2 11.3 3
-1 -10 2 16.4 2.5
1 -10 -2 14.7 2.6
1 -10 -2 18.9 2.6
-1 -10 2 14.6 2.5
0 -10 -2 14.1 2.4
0 -10 2 17.5 2.8
0 -10 2 20.4 2.7
0 -10 -2 22.4 3
1 -10 2 4.4 2.6
-1 -10 -2 9.7 2.1
1 -10 2 10.7 2.2
1 -10 2 8.9 2.4
-1 -10 -2 16.9 2.7
2 -10 2 46.4 5.3
2 -10 2 42.1 3.5
-2 -10 -2 50.59 3.9
-2 -10 -2 49.6 3.7
2 -10 2 50.59 4.8
-2 10 -2 47.1 2.6
3 -10 2 115.09 7.7
-3 -10 -2 134.59 8
3 -10 2 120.69 8.2
-3 10 -2 127.39 5.7
-4 -10 -2 265.47 12.2
4 -10 2 221.78 13
4 -10 2 252.17 12.8
-4 10 -2 258.27 10.7
5 -10 2 112.99 9.5
-5 -10 -2 138.29 7.6
5 -10 2 126.69 9.2
-5 10 -2 136.89 6.3
-6 -10 -2 586.74 26.1
-6 10 -2 618.24 24.7
-6 10 -2 578.54 24.5
-7 -10 -2 113.29 7.3
-7 10 -2 117.29 7
-7 10 -2 116.79 5.9
-7 10 -2 120.29 5.8
-8 -10 -2 40.1 4.6
-8 10 -2 42.8 4.2
-8 10 -2 43.8 3
-8 10 -2 44.7 3.1
-9 -10 -2 6.2 4.2
-9 10 -2 3.6 3.4
-9 10 -2 10.5 1.9
-9 10 -2 3.3 1.4
-10 -10 -2 16.3 3.8
-10 10 -2 30.6 3.2
-10 10 -2 26.3 3.8
-11 -10 -2 13.8 4.1
-11 10 -2 22.6 3.3
-11 10 -2 17.8 3.9
-11 10 -2 23.3 2.4
-12 -10 -2 6.9 4.6
-12 10 -2 3.3 3.6
-12 10 -2 0.5 3.3
-13 10 -2 12.1 7.1
-13 11 2 -2.6 3.2
-13 11 2 -4.4 4.6
-12 -11 2 -1.6 4.8
-12 11 2 4.9 4.3
-12 11 2 3 3.7
-11 11 2 16.3 2.1
-11 11 2 14.9 5.1
-11 11 2 13.7 2.8
-10 -11 2 34.9 5.1
-10 11 2 46.2 3.2
-10 11 2 39 3.4
-10 11 2 28.4 4.3
-9 -11 2 17.9 3.7
-9 11 2 14.5 3.2
-9 11 2 22 2.5
-8 -11 2 -1.7 2.2
-8 11 2 -3.1 2.1
-8 11 2 -1.2 1
-7 -11 2 -3.4 1.9
-7 11 2 0.7 1
-7 11 2 0.3 2
-6 -11 2 5.2 2.4
6 11 -2 8.3 1.3
-6 11 2 8.6 2.4
-5 -11 2 29.3 3.9
5 11 -2 21 1.9
-5 11 2 22.1 1.8
-4 -11 2 10.6 3.4
-4 -11 2 5 2.3
-4 11 2 7.9 1.1
4 11 -2 7.7 1.3
-3 -11 2 5.3 1.9
3 -11 -2 9.5 4
-3 -11 2 3.9 3.4
3 11 -2 6.1 1.2
-2 -11 2 -0.2 1.7
2 -11 -2 0.7 1.7
1 -11 -2 53.59 5.6
-1 -11 2 61.89 4.6
-1 -11 2 55.39 5.9
1 -11 -2 60.59 4.5
0 -11 2 98.89 5.8
0 -11 -2 87.79 6.6
0 -11 2 91.19 7.2
0 -11 -2 96.09 5.9
1 -11 2 110.89 8.2
-1 -11 -2 118.29 7
-1 -11 -2 117.89 7.1
1 -11 2 129.69 6.8
2 -11 2 207.88 10.3
-2 -11 -2 179.78 9.6
2 -11 2 171.38 10.7
3 -11 2 185.98 11.5
3 -11 2 191.68 9.5
-3 -11 -2 191.98 9.9
-3 11 -2 186.08 8.2
-4 -11 -2 214.08 10.9
4 -11 2 188.88 16.2
-4 11 -2 211.88 9.6
-4 11 -2 219.88 9.5
-5 -11 -2 155.58 8.6
-5 11 -2 143.79 6.8
-5 11 -2 145.29 7.1
-6 -11 -2 2.3 2.2
-6 11 -2 5.7 1.3
-6 11 -2 4.2 1.4
-7 -11 -2 32.3 4.5
-7 11 -2 30.3 2.7
-7 11 -2 27.4 2.3
-8 -11 -2 26.9 5.8
-8 11 -2 28.4 2.6
-8 11 -2 32.5 2.8
-9 -11 -2 15 3.7
-9 11 -2 23.9 2.6
-9 11 -2 21.1 2.5
-10 -11 -2 3.3 3.4
-10 11 -2 7.9 1.7
-10 11 -2 19.1 2.9
-11 -11 -2 1.1 4.3
-11 11 -2 -2.1 1.4
-11 11 -2 0.4 2.7
-12 -11 -2 -6 4.8
-12 11 -2 -0.2 4.1
-13 11 -2 1.7 3.5
-12 12 2 -1.9 2.6
-11 -12 2 8.8 5.4
-11 12 2 -0.5 2.6
-11 12 2 -1 2.5
-10 -12 2 -5.3 4.9
-10 12 2 -0.8 1.8
-10 12 2 1.5 1.6
-9 -12 2 -0.9 3.5
-9 12 2 1.6 1.5
-9 12 2 0.6 1.6
-8 -12 2 1.8 3.1
-8 12 2 1.4 1.7
-8 12 2 2.5 1.6
-7 -12 2 50.39 5.5
-7 12 2 56.39 3.2
-6 -12 2 16.5 3.2
6 12 -2 9.7 1.4
-6 12 2 16.9 1.7
-5 -12 2 14.8 3.1
5 12 -2 17.6 1.9
-4 -12 2 -1.3 1.9
4 12 -2 1.6 1.1
-3 -12 2 5.3 2.2
3 -12 -2 8.4 2.5
3 12 -2 6.5 1.3
-2 -12 2 9.3 2.5
2 -12 -2 5.4 2.3
2 12 -2 6 1.3
-1 -12 2 4.9 2.2
1 -12 -2 7.9 2.5
0 -12 2 1.4 1.8
0 -12 -2 1.7 2
1 -12 2 2.7 1.9
-1 -12 -2 1.4 1.8
-2 -12 -2 -1 1.8
2 -12 2 -0.7 1.9
3 -12 2 8.4 2.6
-3 -12 -2 8.8 2.6
-3 12 -2 12.3 1.8
-4 -12 -2 8.2 2.6
4 -12 2 7.6 2.4
-4 12 -2 10.7 2
5 -12 2 73.19 5.1
-5 -12 -2 68.49 5.5
-5 12 -2 65.09 4.2
-5 12 -2 68.99 3.7
-6 -12 -2 4.2 2.8
-6 12 -2 3.8 1.2
-6 12 -2 3.5 1.6
-7 -12 -2 3.5 3.2
-7 12 -2 8.4 1.6
-8 -12 -2 -4.6 3
-8 12 -2 0.5 1.8
-8 12 -2 -0.2 1.5
-9 -12 -2 -1.1 3.5
-9 12 -2 0.1 1.9
-9 12 -2 0.9 1.8
-10 -12 -2 1.8 4.1
-10 12 -2 0.1 2.4
-10 12 -2 -0.8 1.6
-11 -12 -2 4.3 4.8
-11 12 -2 0.2 1.6
-11 12 -2 3.2 3.5
-12 -12 -2 -0.1 5.3
-12 12 -2 0.1 3.1
-11 -13 2 -2 5.9
-11 13 2 3.4 1.9
-10 -13 2 3 5.3
-10 13 2 5.8 2.3
-9 -13 2 2.2 4.8
-9 13 2 5.9 2.3
-8 -13 2 -2.4 3.4
-8 13 2 5.4 2.2
-7 -13 2 -0.5 3.1
-6 -13 2 1.6 3.1
6 13 -2 2 1.2
-5 -13 2 30 4.6
5 -13 -2 24.4 3.7
5 13 -2 32 2.4
-4 -13 2 45.9 4.7
4 -13 -2 40.3 4.6
4 13 -2 39.6 2.9
3 -13 -2 46.9 4.6
-3 -13 2 41.1 4.5
3 13 -2 44.1 3.1
2 -13 -2 3.4 2.4
-2 -13 2 0.8 2.2
2 13 -2 0 1.1
1 -13 -2 7.4 2.7
-1 -13 2 7 2.5
1 13 -2 7.9 1.6
0 -13 -2 3.3 2.2
0 -13 2 5.4 2.3
0 13 -2 3.5 1.4
1 -13 2 21 3.1
-1 -13 -2 21.5 3.4
-1 13 -2 26.9 2.5
-2 -13 -2 44.2 4.7
2 -13 2 49.3 4.4
-2 13 -2 46.4 3.5
3 -13 2 44.4 4.4
-3 -13 -2 43.1 4.7
-3 13 -2 46.5 3.6
4 -13 2 17.3 3.2
-4 -13 -2 16.5 5.1
-4 13 -2 24.6 2.7
-5 -13 -2 40.8 4.8
-5 13 -2 25.1 3.8
-6 -13 -2 39.8 5.1
6 -13 2 31.3 4.4
6 13 2 34.6 2.7
-6 13 -2 41.2 3.6
-7 -13 -2 2.7 3.2
7 -13 2 9.3 3.5
-7 13 -2 8.3 2.3
-7 13 -2 7.9 1.6
-8 -13 -2 -2 3.5
-8 13 -2 -0.9 1.6
-8 13 -2 4.1 2.3
-9 -13 -2 1.9 4.8
-9 13 -2 7.3 2.3
-9 13 -2 8.7 2.4
-10 -13 -2 1.1 4.8
-10 13 -2 4.4 2.5
-10 13 -2 1.3 1.8
-11 -13 -2 -1.2 5.4
-11 13 -2 6.2 2
-11 13 -2 5.4 2.8
-10 -14 2 -7 6.7
-10 14 2 -1.3 2
-9 -14 2 1 5.9
-9 14 2 3.8 2.5
8 -14 -2 5.6 4
-8 -14 2 8.1 4.7
-8 14 2 6.4 2.9
-7 -14 2 4.4 4
7 -14 -2 7.8 4
-7 14 2 6.3 2.6
6 -14 -2 14.9 4
-6 -14 2 35.5 5.3
5 -14 -2 8.9 3.2
-5 -14 2 10.4 3.6
5 14 -2 9.3 1.8
4 -14 -2 25.1 4.3
-4 -14 2 24 4.4
4 14 -2 13.3 2
3 -14 -2 3.9 3
-3 -14 2 3.7 2.7
3 14 -2 3.1 1.7
-2 -14 2 22.2 3.9
2 -14 -2 13.6 3.1
1 -14 -2 2.7 2.8
-1 -14 2 1.3 2.6
0 -14 -2 4.8 3
0 -14 2 0.7 2.3
0 14 -2 2.8 2.7
1 -14 2 1.5 2.6
-1 -14 -2 0.4 2.5
-1 14 -2 -1.2 1.8
2 -14 2 5.8 2.8
-2 -14 -2 2.1 2.9
-2 14 -2 3.1 2.4
-3 -14 -2 5.6 3.2
3 -14 2 1.9 2.8
-3 14 -2 3.9 2.5
-4 -14 -2 2.1 3.2
4 -14 2 -0.6 2.7
-4 14 -2 1.7 2.6
5 -14 2 -2.1 3
-5 -14 -2 2.1 3.7
5 14 2 1.8 1.6
-5 14 -2 4.1 2.8
-6 -14 -2 3.5 3.5
6 -14 2 4.2 3.6
-6 14 -2 2.8 2.8
7 -14 2 8.2 6.3
-7 -14 -2 7.6 4.5
-7 14 -2 14.2 3.1
-8 -14 -2 16.9 5.4
-8 14 -2 13.8 3.2
-9 -14 -2 11 6.3
-9 14 -2 13.8 3.1
-10 -14 -2 19.4 7.6
-10 14 -2 8.1 2.5
-8 -15 2 0.8 5.7
8 -15 -2 -1.2 5.1
-8 15 2 1.8 3
-7 -15 2 10.2 9.5
7 -15 -2 4.1 4.6
-7 15 2 6.3 4.5
-6 -15 2 3.6 4.6
6 -15 -2 2 4.1
-6 15 2 7.3 3.6
5 -15 -2 -1.2 4.3
-5 -15 2 -4.7 4.5
-5 15 2 -1.7 2.8
5 15 -2 -0.6 1.9
4 -15 -2 -0.8 6.9
-4 -15 2 3.4 4.9
4 15 -2 0.4 2.1
-3 -15 2 3.8 3.6
3 -15 -2 -1.2 3.4
3 15 -2 2.5 2.3
-2 -15 2 0.8 3.2
2 -15 -2 0.7 3.2
2 15 -2 -1.6 2.4
-1 -15 2 4.4 3.2
1 -15 -2 9.6 3.8
1 15 -2 6.4 2.7
0 -15 -2 4.8 3.4
0 -15 2 -0.4 3.1
0 15 -2 7.3 3
1 -15 2 11.7 3.8
-1 -15 -2 7.1 3.5
-1 15 -2 6.9 3.1
2 -15 2 1.4 3.2
-2 -15 -2 -0.3 3.1
-2 15 -2 3.9 3.2
-3 -15 -2 0.9 3.7
3 -15 2 -3.2 3.4
-3 15 -2 1.5 3.3
-4 -15 -2 7.9 4.9
4 -15 2 -1.5 4.3
4 15 2 3.2 2.3
-4 15 -2 2.2 3.4
-5 -15 -2 1 4.4
5 -15 2 -4.2 6.5
-5 15 -2 3.6 3.4
5 15 2 -1 2
-6 -15 -2 -2.7 4.5
-6 15 -2 2.7 3.6
-7 -15 -2 1.1 9.2
-7 15 -2 7.4 3.4
-8 -15 -2 0.4 5.4
-8 15 -2 5.7 3.5
6 -16 -2 9.9 5.6
-6 -16 2 7.1 10.9
-6 16 2 2.6 4
5 -16 -2 21.1 5.8
-5 -16 2 -1.9 5.3
-5 16 2 7.4 3.8
4 -16 -2 15.8 6
-4 -16 2 26.4 10.7
-4 16 2 39.4 8.3
4 16 -2 17.7 3.1
-3 -16 2 20.6 5.5
3 -16 -2 21.6 4.9
-3 16 2 32.6 4.4
3 16 -2 20.9 4.5
2 -16 -2 5.3 4.2
-2 -16 2 15.2 4.9
2 16 -2 24.8 3.7
-2 16 2 14.6 3.7
1 -16 -2 10.5 4.3
-1 -16 2 6.7 4.6
1 16 -2 4 3.1
-1 16 2 12.1 4
0 -16 2 -1.7 4.2
0 -16 -2 5.6 4.6
0 16 -2 1.1 3.3
0 16 2 3.6 3.6
1 -16 2 4.3 4.4
-1 -16 -2 -2.5 3.9
1 16 2 13.4 3.6
-1 16 -2 4.9 3.5
2 -16 2 -4.9 4.6
-2 -16 -2 -2.5 4.3
-2 16 -2 2.6 3.4
2 16 2 1.1 3.3
-3 -16 -2 6.2 5
3 -16 2 6.5 5.9
-3 16 -2 8.4 3.8
-4 -16 -2 5 7
4 16 2 8.4 2.9
-5 -16 -2 2.7 4.8
-5 16 -2 10.9 4.3
-6 -16 -2 7.2 6.4
-6 16 -2 4 3.8
3 -17 -2 6.4 6.1
3 17 -2 1.5 3.2
-3 17 2 0.3 4.2
2 -17 -2 -0.9 5.4
2 17 -2 5.7 3.5
-2 17 2 20.6 4.9
1 -17 -2 15.3 5.7
-1 17 2 15 4.3
1 17 -2 19.9 4.1
0 -17 -2 9 5.2
0 17 -2 25.6 4.4
0 17 2 19.8 4.6
-1 -17 -2 15 5.9
1 17 2 15.9 4.1
-1 17 -2 13.7 4.3
-2 -17 -2 7.7 5.5
2 17 2 29.1 4.3
-2 17 -2 15.3 4.2
-3 17 -2 14 4.7
3 17 2 4.7 3.4
-17 0 3 -0.7 3.2
-17 0 3 2 5.3
-16 0 3 1.9 2.9
-16 0 3 0.8 3.7
-15 0 3 3.6 2.5
-15 0 3 1.2 3.2
-14 0 3 1 2.5
-14 0 3 -0.8 2.4
-13 0 3 -1.1 1.4
-13 0 3 2.3 2.4
-12 0 3 -0.3 1.3
-12 0 3 0 2.1
-11 0 3 0.9 1.2
-11 0 3 0.6 1.9
11 0 -3 -1.1 1.5
10 0 -3 0.3 1.3
-10 0 3 1.1 1.1
-10 0 3 -1.1 1.6
-9 0 3 -0.5 0.9
-9 0 3 1 1.5
9 0 -3 0.8 1.6
9 0 -3 0.1 1.1
8 0 -3 0.5 0.9
-8 0 3 1.4 1.4
8 0 -3 0.4 1.2
7 0 -3 -0.3 0.9
7 0 -3 -0.6 1
6 0 -3 1.1 0.9
-6 0 3 0.6 1.1
5 0 -3 -0.4 0.7
-5 0 3 0.6 0.5
-5 0 3 0.1 0.5
4 0 -3 0.2 0.7
-4 0 3 -0.1 0.5
-4 0 3 0.3 0.6
4 0 -3 0.4 1.7
3 0 -3 -1 0.9
3 0 -3 -0.6 0.7
-3 0 3 -0.3 0.6
3 0 -3 1.4 0.7
2 0 -3 1.8 0.6
2 0 -3 1.8 0.3
2 0 -3 1.5 0.6
-2 0 3 1.7 0.5
-1 0 3 0.9 0.4
1 0 -3 -0.3 0.5
1 0 -3 0.5 0.4
1 0 -3 0.3 0.3
0 0 -3 0.1 0.3
0 0 3 -0.3 0.5
0 0 3 0.4 0.2
0 0 -3 0.6 0.5
-1 0 -3 0.4 0.3
1 0 3 0.6 0.5
1 0 3 1.2 0.4
1 0 3 0.2 0.3
-1 0 -3 0.9 0.5
-1 0 -3 0.8 0.4
-2 0 -3 0.6 0.3
-2 0 -3 0.2 0.4
-2 0 -3 -0.1 0.4
2 0 3 0.6 0.5
-2 0 -3 0.2 0.3
-2 0 -3 0.8 0.4
-3 0 -3 0.7 0.4
3 0 3 0.2 0.7
3 0 3 -0.4 0.5
-3 0 -3 0 0.5
-3 0 -3 0.1 0.4
3 0 3 0.9 0.6
-3 0 -3 0.3 0.6
4 0 3 -0.6 0.5
-4 0 -3 0 0.3
4 0 3 -0.6 1.1
-4 0 -3 0.9 0.7
4 0 3 2.1 1
-4 0 -3 0 0.7
-4 0 -3 0.3 0.5
5 0 3 -0.7 0.8
-5 0 -3 -0.3 0.3
-5 0 -3 -0.4 0.8
-5 0 -3 0 0.7
-5 0 -3 0.1 0.5
6 0 3 0.2 0.9
-6 0 -3 0.5 0.6
-6 0 -3 0.2 0.9
-6 0 -3 0.5 0.4
-7 0 -3 -1.4 0.6
-7 0 -3 1.2 1.1
-7 0 -3 0.5 0.4
7 0 3 -0.2 0.4
-8 0 -3 0.8 0.4
8 0 3 -0.4 0.9
-8 0 -3 0.4 0.8
-8 0 -3 -1.8 1.2
9 0 3 0.4 1.1
-9 0 -3 0.4 1.3
-9 0 -3 0 0.9
-10 0 -3 1.4 1.5
-10 0 -3 1.5 1.1
-11 0 -3 1 1.6
-11 0 -3 0.5 1.1
-12 0 -3 0.1 1.1
-12 0 -3 -1.8 1.8
-13 0 -3 -0.8 1.3
-13 0 -3 -0.2 2.3
-14 0 -3 -0.3 2.8
-14 0 -3 -2.7 1.4
-15 0 -3 -1.1 1.6
-16 0 -3 1.7 3.4
-17 0 -3 -1 2.3
-17 -1 3 15 11.9
-17 -1 3 1.7 3
-17 1 3 1.9 3.6
-17 1 3 4.6 4.8
-16 -1 3 5.1 4
-16 -1 3 8.3 2.9
-16 1 3 9.2 4
-16 1 3 12.3 3.8
-15 -1 3 20.4 3.1
-15 -1 3 6.8 3.4
-15 1 3 6.2 3.5
-15 1 3 14 3.3
-14 -1 3 4.5 3
-14 -1 3 1.5 2.5
-14 1 3 5.4 3.1
-14 1 3 6 2.4
-13 -1 3 120.19 7.7
-13 -1 3 123.79 6.5
-13 1 3 132.49 7.9
-13 1 3 130.59 6.6
-12 -1 3 20.6 2.4
-12 -1 3 14.1 2.9
-12 1 3 15.7 2
12 1 -3 15.1 2.6
-12 1 3 14.8 3
11 -1 -3 99.79 5.4
-11 -1 3 112.39 5.4
-11 -1 3 108.69 6.5
11 1 -3 106.29 5.8
-11 1 3 97.29 6.4
-11 1 3 110.09 5.4
-10 -1 3 -0.1 1.6
10 -1 -3 2.2 3.3
-10 -1 3 0.4 1
10 -1 -3 1.7 1.3
-10 1 3 0.8 1.6
10 1 -3 0.1 2.6
10 1 -3 -0.6 1.3
-10 1 3 0.1 1
-9 -1 3 0 1.3
-9 -1 3 0.4 0.9
9 -1 -3 2.2 1.7
9 -1 -3 -0.2 1
-9 1 3 0.7 1.6
-9 1 3 1.6 0.9
9 1 -3 -0.8 1.6
8 -1 -3 78.99 4.8
-8 -1 3 76.89 4.6
8 -1 -3 80.79 4
8 1 -3 76.69 4.7
-8 1 3 77.59 4.6
-8 1 3 78.09 3.9
7 -1 -3 618.74 25.7
7 -1 -3 660.63 25.2
7 1 -3 525.95 26.5
-7 1 3 652.63 25.8
6 -1 -3 3.3 1
6 -1 -3 5.6 1.2
-6 -1 3 3.9 0.9
6 1 -3 2.7 1
-6 1 3 6.2 1.4
-6 1 3 5.4 0.8
-5 -1 3 99.59 4.5
5 -1 -3 97.59 4.5
5 -1 -3 101.09 4.8
-5 -1 3 90.29 4.3
-5 1 3 97.39 4.4
-5 1 3 96.79 4.8
-5 1 3 98.49 4.3
5 1 -3 97.19 4.8
4 -1 -3 491.65 19.3
-4 -1 3 457.95 19.3
-4 -1 3 476.85 19.2
4 -1 -3 481.05 19.1
-4 1 3 462.95 19.1
-4 1 3 486.05 19.3
4 1 -3 475.95 19.3
4 1 -3 434.56 18.7
-4 1 3 470.55 19.1
4 1 -3 441.16 19.7
3 -1 -3 3.7 0.8
-3 -1 3 3.9 0.8
3 -1 -3 3 0.8
-3 -1 3 4.4 0.9
3 1 -3 4 1
3 1 -3 4.5 0.9
3 1 -3 3.2 0.4
-3 1 3 2.9 0.7
-3 1 3 3.5 0.8
2 -1 -3 341.27 13.4
-2 -1 3 337.47 13.3
2 -1 -3 352.06 13.9
-2 -1 3 337.07 13.4
-2 1 3 308.27 13.3
-2 1 3 319.17 13.3
2 1 -3 305.57 13
2 1 -3 322.37 13.3
2 1 -3 301.07 13.2
0 1 -3 849.02 33
0 1 3 813.62 33.1
0 1 -3 809.72 32.9
1 -1 3 266.87 10.6
-1 -1 -3 260.37 10.8
-1 -1 -3 255.67 10.8
-1 -1 -3 260.47 10.7
-1 -1 -3 277.37 10.9
1 -1 3 268.27 10.9
-1 1 -3 268.57 10.7
-1 1 -3 254.87 10.7
-1 1 -3 274.97 10.8
1 1 3 274.17 10.6
1 1 3 258.57 10.9
-2 -1 -3 112.99 4.7
-2 -1 -3 116.09 4.9
2 -1 3 115.69 5
2 -1 3 114.99 4.8
-2 -1 -3 106.29 4.7
-2 -1 -3 113.39 4.7
2 1 3 118.39 4.7
-2 1 -3 117.29 5
2 1 3 111.69 4.9
2 1 3 113.09 5
-2 1 -3 115.59 4.8
-2 1 -3 111.89 4.8
-2 1 -3 117.79 4.8
-3 -1 -3 1393.46 57.69
-3 -1 -3 1540.85 57.99
3 -1 3 1461.35 57.69
-3 -1 -3 1451.15 57.59
3 -1 3 1433.16 57.99
3 -1 3 1459.75 57.89
-3 -1 -3 1548.95 57.69
3 1 3 1408.46 57.89
-3 1 -3 1370.16 57.69
3 1 3 1432.36 57.99
-3 1 -3 1423.06 57.59
-4 -1 -3 75.69 3.4
-4 -1 -3 80.99 3.8
4 -1 3 80.79 4
4 -1 3 82.79 3.4
-4 -1 -3 79.49 3.9
-4 -1 -3 82.19 3.5
4 1 3 78.39 4.1
-4 1 -3 82.09 3.6
-4 1 -3 83.89 3.8
4 1 3 77.39 3.8
-4 1 -3 77.39 3.4
5 -1 3 696.03 28.4
-5 -1 -3 722.13 28.7
-5 -1 -3 719.33 29
-5 -1 -3 689.13 28.3
-5 -1 -3 710.33 28.5
-5 1 -3 686.93 28.4
-5 1 -3 709.13 28.6
-5 1 -3 749.23 28.9
5 1 3 704.63 28.8
-6 -1 -3 394.36 16.1
-6 -1 -3 370.06 15.6
-6 -1 -3 378.66 15.8
-6 -1 -3 399.96 16.4
6 -1 3 375.36 15.6
-6 1 -3 396.26 15.9
6 1 3 378.36 16.2
-6 1 -3 393.56 15.7
-6 1 -3 400.96 16.3
7 -1 3 2.4 1.3
-7 -1 -3 1.9 1
-7 -1 -3 -0.2 1.3
-7 -1 -3 2.8 1.1
7 -1 3 2.3 0.5
-7 1 -3 2.1 0.8
7 1 3 3.3 0.6
7 1 3 2.1 0.7
-7 1 -3 1.8 0.8
-8 -1 -3 178.28 8.4
-8 -1 -3 184.78 8
-8 1 -3 185.08 8.6
-8 1 -3 191.98 8.1
8 1 3 186.28 8.1
-9 -1 -3 58.79 3.1
-9 -1 -3 60.49 3.7
9 -1 3 62.19 3.6
9 1 3 52.79 3.5
-9 1 -3 53.69 3.8
-9 1 -3 60.59 3.3
-10 -1 -3 73.19 3.8
-10 -1 -3 72.09 4.4
-10 1 -3 76.59 3.9
-10 1 -3 64.39 4.4
-11 -1 -3 116.59 6.5
-11 1 -3 124.19 5.9
-12 -1 -3 4.9 2.2
-12 -1 -3 7.7 1.5
-12 1 -3 5.9 1.5
-12 1 -3 7 2.3
-13 -1 -3 51.49 4.9
-13 -1 -3 67.19 4
-13 1 -3 69.09 4.1
-13 1 -3 64.39 5.1
-14 -1 -3 14.9 3.7
-14 -1 -3 15.4 2.1
-14 1 -3 21.3 2.6
-14 1 -3 13 3.3
-15 -1 -3 -1 1.6
-15 1 -3 1.4 3.6
-15 1 -3 2.1 2.1
-16 -1 -3 1.7 4
-16 1 -3 -2.1 2.7
-17 -2 3 4.6 2.9
-17 2 3 5.3 5.8
-17 2 3 5 3.8
-16 -2 3 3 4.4
-16 -2 3 -3.8 2.4
-16 2 3 -1.2 3.8
-16 2 3 4.2 3.7
-15 -2 3 -0.5 2.9
-15 -2 3 1.4 2.2
-15 2 3 -0.3 3.3
-15 2 3 1.1 3
-14 -2 3 1.8 1.6
-14 -2 3 1.5 2.6
-14 2 3 3.9 2.3
-14 2 3 2.4 2.9
-13 -2 3 9.6 1.9
-13 -2 3 2.2 2.4
-13 2 3 3.8 1.7
-13 2 3 2 2.4
-12 -2 3 8.8 1.6
-12 -2 3 6.3 2.5
-12 2 3 7 2.5
12 2 -3 3.5 2.2
-12 2 3 7.1 1.7
-11 -2 3 77.89 5.4
-11 -2 3 82.29 4.4
-11 2 3 80.89 5.6
-11 2 3 80.79 4.4
11 2 -3 76.49 4.9
-10 -2 3 120.19 6.8
10 -2 -3 127.79 7.8
-10 -2 3 123.39 5.9
10 -2 -3 119.59 5.7
-10 2 3 123.69 7
10 2 -3 126.39 7.8
9 -2 -3 453.35 19.8
-9 -2 3 465.65 19.7
9 -2 -3 447.66 18.7
-9 2 3 465.05 18.8
9 2 -3 427.36 19.8
-9 2 3 454.95 19.8
8 -2 -3 444.36 19.1
8 -2 -3 437.96 18.2
-8 -2 3 452.75 19.1
8 2 -3 442.06 19.1
-8 2 3 436.76 19.1
-8 2 3 436.56 18.2
-7 -2 3 358.06 15.4
7 -2 -3 360.56 14.7
7 -2 -3 342.97 15.3
7 2 -3 356.06 15.4
-7 2 3 336.87 14.6
-7 2 3 367.56 15.4
6 -2 -3 165.38 7.7
-6 -2 3 181.98 7.3
6 -2 -3 159.58 7.2
-6 -2 3 165.78 7.8
6 2 -3 157.18 7.7
-6 2 3 158.28 7.2
-6 2 3 162.58 7.1
-6 2 3 187.88 8.4
5 -2 -3 649.74 26.1
-5 -2 3 652.73 26.5
-5 -2 3 596.64 26.2
-5 -2 3 648.94 26.2
5 -2 -3 638.24 26.4
-5 2 3 652.43 26.2
5 2 -3 657.23 26.5
-5 2 3 650.53 26.5
-5 2 3 641.14 26.1
-4 -2 3 1512.35 55.69
4 -2 -3 1376.76 55.39
-4 -2 3 1339.17 55.59
4 -2 -3 1362.16 55.69
-4 2 3 1361.96 55.49
-4 2 3 1400.86 55.69
4 2 -3 1386.16 55.69
4 2 -3 1327.97 54.99
3 2 -3 2479.45 95.99
3 2 -3 2344.17 96.29
-2 -2 3 1040.7 42
-2 -2 3 1087.69 41.9
2 -2 -3 1076.59 42
2 2 -3 1068.79 42
-2 2 3 1038.5 42
-2 2 3 1085.59 42
2 2 -3 970.7 41.9
2 2 -3 1028.1 41.7
-2 2 3 1007.4 41.9
1 -2 -3 470.15 18.3
-1 -2 3 455.95 18.3
1 -2 -3 457.85 18.3
-1 -2 3 440.86 18.1
-1 2 3 425.36 18.3
1 2 -3 434.66 18.1
1 2 -3 400.26 18.1
1 2 -3 473.25 18.3
-1 2 3 470.15 18.3
-1 2 3 450.65 18.2
-1 2 3 472.15 18.5
0 -2 -3 43 1.9
0 -2 -3 46.3 2.2
0 -2 -3 40.9 1.9
0 -2 3 44.1 2.1
0 -2 3 42.6 1.9
0 2 3 42.1 1.9
0 2 3 39 2.3
0 2 3 45.4 2.1
0 2 3 41.3 2.4
0 2 -3 42.6 2
0 2 -3 42.3 2
-1 -2 -3 4.8 0.8
-1 -2 -3 3.8 0.7
1 2 3 4.2 1
-1 2 -3 4.3 0.6
1 2 3 4.1 0.6
1 2 3 3.6 0.5
-1 2 -3 5.3 0.6
1 2 3 3.6 0.9
2 -2 3 3098.29 119.39
2 2 3 2905.21 119.19
2 2 3 2969.7 119.19
-3 -2 -3 1036.4 39.7
-3 -2 -3 936.61 39.3
-3 -2 -3 1036.8 39.3
3 -2 3 959.3 39.6
-3 2 -3 1000 39.7
3 2 3 1016.3 39.7
-3 2 -3 965.6 39.4
3 2 3 956.2 39.8
-3 2 -3 995.9 39.4
-3 2 -3 954.8 39.2
3 2 3 977.2 39.7
-4 -2 -3 451.65 17.9
-4 -2 -3 406.76 17.7
-4 -2 -3 466.15 18.3
4 -2 3 428.36 18.2
4 2 3 449.46 18.1
-4 2 -3 439.46 17.8
-4 2 -3 441.66 17.9
4 2 3 427.56 18.2
-4 2 -3 456.65 18.2
-5 -2 -3 1210.88 47.9
-5 -2 -3 1163.08 47.7
-5 -2 -3 1266.17 48.4
-5 2 -3 1171.98 47.7
-5 2 -3 1226.08 48.3
5 2 3 1147.59 47.9
-5 2 -3 1177.08 47.8
6 -2 3 573.74 22.7
-6 -2 -3 509.95 22.3
-6 -2 -3 503.85 22.9
-6 -2 -3 547.75 22.1
-6 2 -3 609.84 22.7
6 2 3 555.84 22.2
-6 2 -3 541.85 22.7
-6 2 -3 526.65 22
6 2 3 549.85 22
-7 -2 -3 1204.78 47.5
-7 -2 -3 1178.78 47.1
-7 -2 -3 1211.98 48
7 2 3 1090.69 46.9
-7 2 -3 1191.98 47.2
7 2 3 1207.28 47.3
-7 2 -3 1134.79 46.9
8 -2 3 0.4 0.8
-8 -2 -3 0.6 1
-8 -2 -3 1 0.8
-8 -2 -3 -0.6 1.2
8 2 3 1.2 0.9
-8 2 -3 -0.9 1.2
-8 2 -3 0 0.5
-8 2 -3 0.3 0.8
-9 -2 -3 71.19 4.6
-9 -2 -3 71.69 3.6
-9 -2 -3 60.89 3.9
9 -2 3 68.29 4
-9 2 -3 76.29 4.4
9 2 3 64.99 4.2
-9 2 -3 75.99 3.7
-9 2 -3 69.09 3.1
-10 -2 -3 141.69 7.3
-10 -2 -3 151.28 6.7
-10 2 -3 142.79 7.6
-10 2 -3 154.28 6.9
-11 -2 -3 15.2 1.9
-11 -2 -3 17.8 2.5
-11 2 -3 14.4 1.8
-11 2 -3 13.5 2.6
-12 -2 -3 40.1 2.9
-12 -2 -3 39 3.8
-12 2 -3 39.6 3.9
-12 2 -3 43.4 3.1
-13 -2 -3 6.5 2.7
-13 -2 -3 3.8 1.4
-13 2 -3 3.9 1.6
-13 2 -3 2.9 2.5
-14 -2 -3 -1.3 1.3
-14 2 -3 1 1.8
-14 2 -3 -0.7 2.6
-15 -2 -3 -0.8 1.5
-15 2 -3 -0.5 2.1
-16 -2 -3 1.6 1.7
-16 2 -3 -1.8 3.5
-17 -3 3 2.1 2.5
-17 3 3 3.9 3.8
-16 -3 3 0.4 6
-16 -3 3 0.9 3.4
-16 3 3 -2.9 3.4
-16 3 3 -7.2 3.8
-15 -3 3 0.2 3.4
-15 -3 3 1 2
-15 3 3 5.5 3.7
-15 3 3 0.4 2.9
-14 -3 3 0.2 1.7
-14 -3 3 -3.1 2.5
-14 3 3 -1.1 2.6
-14 3 3 -0.5 2.3
-13 -3 3 5.1 2.4
-13 -3 3 12.2 2
-13 3 3 8.6 2
13 3 -3 10.3 3
-13 3 3 10.9 3.1
-12 -3 3 11.5 1.7
-12 -3 3 10.2 2.7
12 3 -3 12.3 2.6
-12 3 3 11.8 3
-12 3 3 15.4 2.1
-11 -3 3 10.2 2.6
-11 -3 3 9.3 1.6
-11 3 3 10.7 1.8
-11 3 3 6.3 2.3
10 -3 -3 14.6 3.1
-10 -3 3 16.2 2.6
-10 -3 3 17.2 1.9
10 3 -3 13.6 3.2
-10 3 3 20.5 2
9 -3 -3 37.6 4
-9 -3 3 30.8 3.1
9 -3 -3 35.1 2.2
-9 3 3 35.1 3.3
9 3 -3 37.4 5.3
-9 3 3 35 2.4
-9 3 3 36.4 1.8
-8 -3 3 6.3 1.7
8 -3 -3 5.7 1.1
8 -3 -3 5.8 1.8
8 3 -3 4.7 1.7
-8 3 3 3.5 1.7
-8 3 3 6.1 1.1
-7 -3 3 0.8 1.2
7 -3 -3 0.7 0.7
7 -3 -3 0.1 1.1
7 3 -3 -0.4 1.2
-7 3 3 0.4 1.3
-7 3 3 1.4 0.8
6 -3 -3 717.13 29.3
-6 -3 3 755.12 30
6 -3 -3 756.02 30.4
-6 -3 3 642.74 29
-6 -3 3 707.13 29.4
6 3 -3 713.03 30
-6 3 3 768.22 30.1
-6 3 3 754.22 29.7
5 -3 -3 170.08 7.3
-5 -3 3 165.68 7.2
5 -3 -3 174.28 7.8
-5 -3 3 177.18 7.5
-5 -3 3 163.98 7.7
-5 3 3 166.48 7.2
-5 3 3 175.18 7.4
5 3 -3 168.48 6.9
-5 3 3 168.38 7.6
-5 3 3 175.78 7.9
5 3 -3 169.58 7.8
-4 -3 3 170.28 7.4
4 -3 -3 146.89 7.5
-4 -3 3 171.88 7.5
-4 -3 3 161.08 7.2
4 -3 -3 166.78 7.5
4 -3 -3 170.48 7.1
-4 3 3 161.78 7.3
-4 3 3 175.38 7.9
-4 3 3 175.28 7.5
4 3 -3 170.78 7.5
4 3 -3 166.78 6.8
-4 3 3 170.28 7.4
-4 3 3 161.18 7
3 -3 -3 122.69 6.4
-3 -3 3 142.29 6.2
-3 -3 3 137.59 6.2
3 -3 -3 140.49 6.3
3 -3 -3 139.79 6
-3 3 3 132.29 6.1
3 3 -3 147.49 6.3
-3 3 3 138.49 6.1
-3 3 3 144.59 6.2
-3 3 3 143.89 6.3
-3 3 3 130.39 5.8
3 3 -3 136.39 5.7
2 -3 -3 97.09 4.2
2 -3 -3 88.09 4.5
-2 -3 3 90.09 4.1
2 -3 -3 95.59 4.3
-2 -3 3 88.99 4.3
2 -3 -3 86.29 4.3
2 3 -3 91.79 4.3
-2 3 3 90.59 4.3
-2 3 3 93.99 4.2
2 3 -3 90.89 4.3
2 3 -3 86.19 3.8
-2 3 3 88.39 4.3
-2 3 3 91.89 4.4
1 -3 -3 1873.11 72.99
1 -3 -3 1732.93 73.39
-1 3 3 1879.51 73.19
0 -3 -3 1099.69 42
0 -3 3 1077.69 42.2
0 -3 -3 1012.7 41.9
0 -3 3 1046.9 42.3
0 -3 3 1057.39 41.9
0 3 3 1098.29 41.9
0 3 3 1002.8 41.7
0 3 -3 1043.8 41.9
0 3 3 1024.1 42.2
0 3 -3 1027 41.9
1 3 3 2731.53 109.19
-2 -3 -3 98.99 4.3
-2 -3 -3 110.69 4.9
2 -3 3 110.69 5.6
-2 -3 -3 108.09 4.3
2 3 3 108.89 4.7
2 3 3 109.39 5.2
-2 3 -3 103.19 4.5
2 3 3 103.99 4.6
2 3 3 108.79 5
-2 3 -3 102.79 4.9
-2 3 -3 104.29 4.5
-3 -3 -3 5.5 0.6
-3 -3 -3 7.2 1.2
-3 -3 -3 4.5 0.5
3 3 3 3.9 0.6
-3 3 -3 5.4 1.1
-3 3 -3 6.7 0.8
-3 3 -3 5.5 0.8
3 3 3 5.2 1.1
3 3 3 5.6 0.7
-3 3 -3 4.7 0.5
4 -3 3 7.2 1.8
-4 -3 -3 5.9 0.6
-4 -3 -3 7.2 1.2
-4 -3 -3 7.3 0.8
4 3 3 5.9 0.7
-4 3 -3 7.5 0.9
-4 3 -3 8 1.3
4 3 3 6.5 0.8
-4 3 -3 8 0.9
4 3 3 7.9 1.1
-5 -3 -3 1.5 0.7
-5 -3 -3 2.8 0.6
5 -3 3 1.3 1.7
-5 -3 -3 2.5 1.1
-5 3 -3 2.3 1
-5 3 -3 1.7 0.7
5 3 3 1.7 0.8
5 3 3 1.9 0.6
5 3 3 2.2 0.6
-5 3 -3 4 0.7
-6 -3 -3 146.09 6.5
6 -3 3 150.18 7.8
-6 -3 -3 158.28 7.4
-6 -3 -3 157.18 6.8
-6 3 -3 155.48 6.6
6 3 3 162.28 6.8
-6 3 -3 158.08 6.7
-6 3 -3 155.68 7.3
6 3 3 147.99 6.7
7 -3 3 21.2 1.8
-7 -3 -3 22.9 2.3
-7 -3 -3 22.5 1.5
-7 -3 -3 23.5 1.9
7 3 3 22.4 1.5
7 3 3 23.9 1.9
-7 3 -3 25.3 2.3
-7 3 -3 20.6 1.7
-7 3 -3 22.1 1.4
-8 -3 -3 3.1 1.2
-8 -3 -3 3.7 1.6
8 -3 3 3.3 1.1
-8 -3 -3 3.2 0.8
-8 3 -3 1.5 1.4
-8 3 -3 4.5 0.8
-8 3 -3 3.4 1
8 3 3 3.3 1.3
-9 -3 -3 6.6 1.9
-9 -3 -3 7 1.1
-9 3 -3 8.7 1.4
-9 3 -3 6.7 0.9
-9 3 -3 6.6 1.8
-10 -3 -3 83.59 4.1
-10 -3 -3 77.39 4.7
-10 3 -3 91.39 5.4
-10 3 -3 79.29 5.1
-11 -3 -3 22.4 2.8
-11 -3 -3 15.9 1.9
-11 3 -3 20.5 3
-11 3 -3 23 2.3
-12 -3 -3 -1.7 0.9
-12 -3 -3 -2.3 2.1
-12 3 -3 -1.2 1.1
-12 3 -3 0.2 2
-13 -3 -3 9.1 1.7
-13 3 -3 8.6 2.6
-13 3 -3 11.6 2
-14 -3 -3 16.7 2.1
-14 3 -3 25.6 2.9
-14 3 -3 12.8 3.2
-15 -3 -3 5.5 1.7
-15 3 -3 6.8 3.7
-15 3 -3 11.1 3.1
-16 -3 -3 -2.7 1.6
-16 3 -3 2.8 5.1
-16 3 -3 -1.7 4.1
-16 -4 3 3.7 2
-16 4 3 1.6 4.6
-16 4 3 7.4 5.1
-15 -4 3 1.8 5
-15 -4 3 1.9 2
-15 4 3 1.6 5.9
-15 4 3 0 3.4
-14 -4 3 2.8 3
-14 -4 3 5 1.8
-14 4 3 0.3 2.5
-14 4 3 2.6 3.2
-13 -4 3 1.3 2.3
-13 -4 3 2.6 1.6
-13 4 3 -0.7 1.7
13 4 -3 1.9 2.9
-12 -4 3 -1.5 1.1
-12 -4 3 -0.3 2
-12 4 3 1.7 2.2
-12 4 3 -0.6 1.3
-11 -4 3 13.5 2.5
-11 -4 3 21.2 2.1
-11 4 3 20.5 2.3
-11 4 3 19.1 3.2
10 -4 -3 28.6 5.7
-10 -4 3 25.7 3.2
-10 4 3 27.9 3.2
10 4 -3 16.2 5.3
-9 -4 3 50.79 4
9 -4 -3 56.39 5
-9 4 3 47.7 3.9
-9 4 3 52.09 3.1
9 4 -3 50.69 5
8 -4 -3 14.5 2.3
8 -4 -3 17.2 1.5
-8 -4 3 19.9 2.7
-8 4 3 18.3 1.7
-8 4 3 22.8 2.8
8 4 -3 13.1 2.3
7 -4 -3 132.19 7.1
7 -4 -3 132.29 6.1
-7 -4 3 151.18 7.2
-7 4 3 150.98 7.2
-7 4 3 141.09 6.3
7 4 -3 142.09 7.2
-6 -4 3 22.8 1.7
-6 -4 3 25.3 1.9
6 -4 -3 23.6 1.6
6 -4 -3 26.2 2.5
-6 -4 3 23.9 1.8
-6 4 3 23.1 2.1
-6 4 3 24.8 1.7
6 4 -3 22.9 2.5
-6 4 3 25.1 2.4
-5 -4 3 314.27 13.4
5 -4 -3 313.67 13.5
-5 -4 3 309.57 13.2
5 -4 -3 311.77 12.9
5 4 -3 304.57 13.4
-5 4 3 318.57 13.1
5 4 -3 304.17 12.6
-5 4 3 288.97 14.7
-5 4 3 331.27 13.4
-5 4 3 307.77 12.8
-4 -4 3 21.6 1.9
4 -4 -3 20.7 1.5
4 -4 -3 19.9 2.7
4 -4 -3 24 2.5
-4 -4 3 21.2 1.8
-4 -4 3 19.8 1.8
4 4 -3 21.5 1.2
-4 4 3 21.5 1.9
-4 4 3 20.3 1.3
4 4 -3 20.2 2
-4 4 3 21.4 1.8
-4 4 3 15.5 2
-4 4 3 20.2 2.5
-3 -4 3 72.29 3.9
3 -4 -3 81.39 3.6
-3 -4 3 74.39 3.9
3 -4 -3 67.49 4.3
-3 -4 3 74.89 3.7
3 -4 -3 73.69 3.9
3 4 -3 71.69 3.2
-3 4 3 76.49 4
-3 4 3 71.19 3.7
-3 4 3 73.29 3.7
3 4 -3 80.69 4.5
-3 4 3 76.99 3.8
-2 -4 3 563.34 23.9
-2 -4 3 587.64 23.9
2 -4 -3 541.55 24.2
2 -4 -3 601.44 23.9
2 -4 -3 608.34 23.7
-2 -4 3 599.64 23.7
-2 4 3 573.74 23.8
2 4 -3 576.94 23.4
-2 4 3 564.34 23.3
-2 4 3 607.54 24
-2 4 3 558.94 23.8
2 4 -3 573.44 23.9
-2 4 3 612.04 23.8
1 -4 -3 113.89 5.9
1 -4 -3 122.69 5.4
1 -4 -3 126.69 5.4
-1 -4 3 121.79 5.3
-1 -4 3 124.39 5.6
-1 4 3 116.79 5.4
-1 4 3 108.19 5.9
1 4 -3 122.19 5.1
-1 4 3 112.69 4.9
-1 4 3 119.19 5.7
-1 4 3 120.89 5.2
0 -4 -3 79.09 3.6
0 -4 -3 71.89 3.4
0 -4 3 79.59 3.8
0 -4 -3 67.29 4.2
0 -4 -3 78.69 3.6
0 -4 3 77.39 3.5
0 4 -3 73.29 3.3
0 4 -3 75.39 3.4
0 4 3 74.69 3.9
0 4 3 80.99 3.4
0 4 3 80.09 3.7
0 4 3 72.19 3.1
-1 -4 -3 53.59 2.3
-1 -4 -3 49.9 2.7
-1 -4 -3 44.5 2.3
-1 4 -3 49 2.4
-1 4 -3 46.7 2.4
1 4 3 53.69 3
1 4 3 52.79 2.7
-2 -4 -3 152.78 6.8
-2 -4 -3 147.49 6.2
2 4 3 150.78 6.6
2 4 3 150.18 6.6
2 4 3 149.99 6.8
-2 4 -3 154.68 6.8
-2 4 -3 149.99 6.3
-2 4 -3 148.09 6.3
-3 -4 -3 608.74 26.7
-3 -4 -3 682.13 27.5
3 -4 3 646.84 27.8
3 4 3 677.93 27.2
-3 4 -3 683.23 27.5
-3 4 -3 687.53 27
3 4 3 681.43 27.3
3 4 3 700.53 27.4
-3 4 -3 666.23 27
-4 -4 -3 472.25 20.2
4 -4 3 498.45 21.2
-4 -4 -3 482.35 20.7
4 4 3 479.15 20.5
4 4 3 506.15 20.4
-4 4 -3 510.75 20.2
4 4 3 508.35 20.4
-4 4 -3 514.85 20.7
-4 4 -3 510.25 20.2
-5 -4 -3 372.96 15.4
-5 -4 -3 349.47 14.6
-5 -4 -3 337.07 14.4
-5 4 -3 352.76 14.6
-5 4 -3 362.06 14.7
5 4 3 365.36 15
-5 4 -3 370.66 15.3
5 4 3 352.76 14.9
-6 -4 -3 825.32 34.1
-6 -4 -3 814.52 33.9
6 -4 3 854.61 34.3
-6 -4 -3 880.91 34.9
6 4 3 822.72 34.2
-6 4 -3 872.71 34.8
6 4 3 856.31 34.4
-6 4 -3 866.01 34
-6 4 -3 814.72 34.1
-7 -4 -3 615.94 25.8
7 -4 3 644.14 25.2
-7 -4 -3 572.74 24.6
-7 -4 -3 608.04 25
7 4 3 628.54 25.8
-7 4 -3 592.14 25.6
7 4 3 623.24 24.8
-7 4 -3 596.94 24.9
-8 -4 -3 81.99 5
8 -4 3 96.09 5.7
-8 -4 -3 73.69 4.2
-8 -4 -3 78.99 3.8
-8 4 -3 87.29 4.9
-8 4 -3 83.39 3.8
-8 4 -3 78.99 4.1
-9 -4 -3 2.8 1.8
-9 -4 -3 4.1 1
-9 -4 -3 2.9 1.4
-9 4 -3 2.8 1.8
-9 4 -3 3 0.8
-9 4 -3 2 1.6
-10 -4 -3 1.1 1.9
-10 -4 -3 2.9 0.9
-10 -4 -3 5.1 1.6
-10 4 -3 1.4 0.8
-10 4 -3 0 1.7
-10 4 -3 2.3 1.2
-11 -4 -3 1.4 1
-11 -4 -3 3.1 2
-11 4 -3 0.8 1.2
-11 4 -3 -0.6 1.7
-12 -4 -3 29.4 2.3
-12 4 -3 32.7 4
-12 4 -3 29.9 2.8
-13 -4 -3 1.4 1.2
-13 4 -3 -1.4 2.4
-14 -4 -3 16.9 2
-14 4 -3 9.2 2.5
-14 4 -3 16.1 3.7
-15 -4 -3 2.2 1.6
-15 4 -3 3.8 3.1
-16 4 -3 -1.4 5.1
-16 4 -3 5.2 3.4
-16 -5 3 4.8 1.9
-16 5 3 8.6 4.8
-16 5 3 10.1 4.3
-15 -5 3 5.4 6.1
-15 -5 3 33.5 3.2
-15 5 3 27.6 5.9
-15 5 3 26.1 4.1
-14 -5 3 36.7 4.9
-14 5 3 47.9 4.7
-13 -5 3 81.69 4.6
-13 5 3 80.49 6.4
-12 -5 3 59.89 5.2
-12 -5 3 69.09 3.9
-12 5 3 71.69 4.2
-12 5 3 55.89 5.1
-11 -5 3 32 2.6
-11 -5 3 31.5 3.7
-11 5 3 32.1 3.9
-11 5 3 33.8 2.8
-10 -5 3 -3.2 1.5
-10 5 3 1.6 1.2
10 5 -3 0.2 4.5
-10 5 3 -0.6 1.7
-10 5 3 2.3 0.8
-9 -5 3 -1 1.6
9 -5 -3 -1.1 2.7
9 5 -3 2.7 3.3
-9 5 3 0.1 1.7
-9 5 3 -0.7 1
8 -5 -3 20.6 2.9
-8 -5 3 20.9 2.7
-8 5 3 21.6 1.9
-8 5 3 23.2 2.9
8 5 -3 27.6 3.8
-7 -5 3 21.3 2.4
7 -5 -3 23.7 3
7 5 -3 17.2 2.4
-7 5 3 23.1 1.8
-7 5 3 22.1 2.5
6 -5 -3 1 1.2
6 -5 -3 0.4 0.7
-6 -5 3 3.3 1.4
-6 -5 3 0.3 1
-6 -5 3 0.5 0.9
-6 -5 3 2.4 1.4
-6 5 3 1.3 1.1
6 5 -3 -0.8 1.2
-6 5 3 -0.6 0.6
-6 5 3 -0.5 1.2
6 5 -3 0.5 0.4
5 -5 -3 46.8 3.2
-5 -5 3 44.4 2.9
-5 -5 3 41.3 3.1
-5 -5 3 46.5 3.1
5 -5 -3 45.3 2.5
-5 -5 3 44.9 2.8
5 5 -3 45.7 2.2
5 5 -3 46.9 3.4
-5 5 3 47.5 3.1
-5 5 3 43.4 2.4
-5 5 3 48.7 3.2
4 -5 -3 1.1 0.8
-4 -5 3 0 0.9
4 -5 -3 0.3 0.9
-4 -5 3 -1.2 1.4
-4 -5 3 0.5 0.9
4 5 -3 0.2 0.5
-4 5 3 0.6 1.1
-4 5 3 -0.6 0.9
-4 5 3 0.1 0.5
-4 5 3 0.4 0.7
4 5 -3 -0.1 1
3 -5 -3 446.16 17.9
-3 -5 3 413.66 18.2
-3 -5 3 427.06 18.1
3 -5 -3 458.15 18.3
-3 -5 3 403.86 18.3
3 5 -3 438.06 18.3
-3 5 3 447.96 18.5
-3 5 3 429.16 17.6
-3 5 3 429.96 18.1
3 5 -3 435.06 17.6
-3 5 3 447.36 18.1
-2 -5 3 614.74 26.6
-2 -5 3 641.74 26.5
-2 -5 3 662.73 26.3
2 -5 -3 656.43 26.4
-2 5 3 655.53 26.4
-2 5 3 657.03 26.7
-2 5 3 643.04 26.2
-2 5 3 619.94 25.8
2 5 -3 634.84 25.9
-1 -5 3 1014 43.2
-1 -5 3 1057.09 43
-1 -5 3 1035.3 42.7
1 -5 -3 1006.4 42.8
1 -5 -3 1071.19 42.9
1 -5 -3 1118.99 42.9
-1 5 3 1090.99 43.1
-1 5 3 1063.79 42.9
-1 5 3 1077.89 42.6
0 -5 -3 1444.26 54.49
0 -5 3 1313.17 55.39
0 -5 -3 1365.16 54.49
0 -5 3 1397.96 54.39
0 -5 -3 1206.48 54.99
0 -5 3 1412.96 54.69
0 5 3 1334.77 54.59
0 5 3 1287.77 53.89
0 5 3 1418.66 54.29
0 5 -3 1373.26 54.19
-1 -5 -3 679.43 25.1
-1 -5 -3 568.94 25
-1 -5 -3 616.24 25.5
-1 -5 -3 629.64 25.1
1 5 3 622.14 25.6
1 5 3 626.94 25.4
-1 5 -3 600.74 25
-2 -5 -3 2405.46 99.99
2 5 3 2618.84 100.59
-3 -5 -3 720.13 30.1
-3 -5 -3 757.82 30.7
-3 5 -3 732.93 30.2
3 5 3 741.83 30.5
-3 5 -3 774.92 30.2
-3 5 -3 780.02 30.8
3 5 3 735.53 30.6
-4 -5 -3 24.9 2.1
-4 -5 -3 19 1.5
-4 -5 -3 19.3 1
4 5 3 23.3 2
-4 5 -3 20.7 1.1
4 5 3 20.6 1.9
-4 5 -3 23.4 1.5
-4 5 -3 25.6 2.3
-4 5 -3 24.1 2.1
-4 5 -3 21.7 1.1
-5 -5 -3 320.37 13.6
-5 -5 -3 316.47 13.3
-5 -5 -3 332.17 14.4
-5 5 -3 331.37 14.3
5 5 3 335.47 14.1
5 5 3 333.17 14
-5 5 -3 333.17 13.6
-5 5 -3 339.17 13.7
-6 -5 -3 9 1.8
-6 -5 -3 7.7 0.8
-6 -5 -3 9 1.2
6 5 3 11.8 1.5
-6 5 -3 6.9 1.7
-6 5 -3 9.1 1.2
-6 5 -3 10.1 1.2
6 5 3 7.8 1.4
-7 -5 -3 199.98 9.2
7 -5 3 225.78 9.8
-7 -5 -3 204.88 8.9
-7 -5 -3 220.58 10.2
-7 5 -3 211.98 9.2
7 5 3 223.78 9.3
-7 5 -3 203.18 9
7 5 3 223.08 9.9
-7 5 -3 205.78 9.9
-8 -5 -3 141.79 7.4
-8 -5 -3 125.29 6.1
-8 -5 -3 131.69 6.3
8 5 3 137.59 7.4
-8 5 -3 137.49 7.1
-8 5 -3 135.99 6.3
-8 5 -3 141.39 6
-9 -5 -3 373.46 15.9
-9 -5 -3 396.56 16.6
-9 5 -3 392.36 16.3
-9 5 -3 385.66 16
-9 5 -3 382.96 17.7
-10 -5 -3 127.59 5.8
-10 -5 -3 131.89 7.6
-10 -5 -3 131.39 6.4
-10 5 -3 125.49 6.3
-10 5 -3 131.69 5.8
-10 5 -3 126.29 7.2
-11 -5 -3 158.28 7
-11 -5 -3 152.58 8.9
-11 5 -3 166.48 7.6
-11 5 -3 148.59 8.5
-12 -5 -3 15.6 1.8
-12 5 -3 12.4 2.8
-12 5 -3 15.3 2.2
-13 -5 -3 5.8 1.4
-13 5 -3 5.7 2
-13 5 -3 5.9 2.6
-14 5 -3 11.4 3
-14 5 -3 8.9 3.4
-15 5 -3 -1.5 2.9
-15 5 -3 2.2 3.5
-16 5 -3 3.9 7.7
-16 5 -3 3.7 3.6
-16 6 3 2.6 4.9
-16 6 3 0.6 3.7
-15 -6 3 1 2.3
-15 6 3 -1.4 3.7
-15 6 3 2.3 3.7
-14 -6 3 1.6 1.5
-14 -6 3 0.9 3.7
-14 6 3 1.7 2.9
-14 6 3 -0.9 3
-13 -6 3 7.4 3.1
-13 -6 3 1.6 1.4
-13 6 3 5.9 3.3
-13 6 3 3.9 2.4
-12 -6 3 48.2 3.2
-12 -6 3 44.8 4.6
-12 6 3 41 4.7
-12 6 3 50.79 3.7
-11 -6 3 70.29 5.2
-11 -6 3 70.29 3.9
-11 6 3 64.59 5.3
-11 6 3 72.09 4.2
-10 -6 3 58.19 4.7
-10 -6 3 51.49 4.2
-10 6 3 47.4 2.8
-10 6 3 56.99 4.5
-10 6 3 50.89 3.3
9 -6 -3 0.1 3.1
-9 -6 3 0.7 1.9
-9 6 3 -0.2 1.7
9 6 -3 -5.3 3.3
-9 6 3 0 1.1
-8 -6 3 2.5 1.7
8 -6 -3 -0.8 2.3
-8 6 3 0.2 1.5
-8 6 3 0.3 0.9
8 6 -3 3.8 3.3
7 -6 -3 19.6 2.8
-7 -6 3 25.5 2.7
7 6 -3 19.2 2.7
-7 6 3 21.5 2.6
-7 6 3 19.6 1.8
-6 -6 3 -0.5 1.2
-6 -6 3 -0.6 1.2
-6 -6 3 -0.7 0.9
-6 6 3 0.8 1.4
6 6 -3 -0.3 1.6
-6 6 3 0.5 0.7
-5 -6 3 5.8 1.2
-5 -6 3 10.7 1.8
5 -6 -3 7.6 1.6
-5 -6 3 8.7 1.5
-5 6 3 9.1 1.9
-5 6 3 8.4 1.7
5 6 -3 8.5 0.9
5 6 -3 9.2 1.9
-4 -6 3 675.23 28.5
-4 -6 3 707.73 28.5
4 -6 -3 698.53 28.7
-4 6 3 689.53 27.8
4 6 -3 693.13 28.7
-4 6 3 697.43 28.5
4 6 -3 666.03 27.7
-4 6 3 689.63 28.8
3 -6 -3 10.9 1.6
-3 -6 3 9.8 1.6
-3 -6 3 12.9 1.7
-3 6 3 10.7 1
3 6 -3 10.1 1.6
-3 6 3 12.5 1.9
3 6 -3 11.7 1
-3 6 3 13.2 1.7
-2 -6 3 103.09 5.1
2 -6 -3 107.79 5.3
-2 -6 3 108.09 5.4
-2 6 3 100.99 5.2
-2 6 3 104.09 5.5
-2 6 3 100.09 4.4
-2 6 3 111.19 5.1
1 -6 -3 -0.2 0.8
-1 -6 3 1.3 1
1 -6 -3 1.4 1
-1 -6 3 0.8 0.9
-1 6 3 1.5 0.8
-1 6 3 0.4 1.2
-1 6 3 2.6 0.9
0 -6 -3 46.9 2.8
0 -6 -3 47.4 2.8
0 -6 3 46.8 2.7
0 -6 3 42.1 3
0 6 3 46.2 3.1
0 6 3 44.1 2.8
-1 -6 -3 24.2 2.2
-1 -6 -3 26.6 1.8
-1 -6 -3 25 2.1
1 -6 3 26.1 2.3
1 6 3 29.8 2.4
1 6 3 27.9 2.2
-1 6 -3 26.1 1.6
-2 -6 -3 97.69 4.8
-2 -6 -3 105.99 5.2
-2 6 -3 108.69 4.6
2 6 3 105.29 5.3
2 6 3 98.89 5.1
-3 -6 -3 795.02 32.3
3 6 3 811.72 32.9
3 6 3 827.42 33
-3 6 -3 787.52 32.3
-3 6 -3 780.72 32.4
-4 -6 -3 1870.01 74.99
4 -6 3 1862.71 74.79
-4 6 -3 1808.12 74.89
-4 6 -3 1845.92 74.19
4 6 3 1919.61 74.89
4 6 3 1862.61 74.89
-4 6 -3 1823.92 73.99
5 -6 3 1136.79 45.8
-5 -6 -3 1116.69 46
-5 6 -3 1125.99 45.2
5 6 3 1102.09 45.7
-5 6 -3 1140.69 45.2
5 6 3 1150.58 45.9
-5 6 -3 1086.99 45.9
-6 -6 -3 244.48 10.3
6 -6 3 260.57 11.5
-6 -6 -3 244.58 10.6
-6 -6 -3 249.78 11.7
-6 6 -3 262.77 10.7
6 6 3 258.37 11.1
-6 6 -3 237.78 11.5
6 6 3 266.87 11.6
-6 6 -3 251.37 10.8
7 -6 3 120.09 6.3
-7 -6 -3 112.79 6.3
-7 -6 -3 111.59 4.9
-7 -6 -3 108.99 5.3
-7 6 -3 117.69 5.4
7 6 3 110.99 6.4
-7 6 -3 113.19 5.2
-7 6 -3 110.99 6.2
-8 -6 -3 3.8 0.8
-8 -6 -3 4 1.3
-8 -6 -3 2.9 1.8
-8 6 -3 4.5 1.1
-8 6 -3 2.6 1.7
-9 -6 -3 20.2 1.5
-9 -6 -3 26.6 3.5
-9 -6 -3 18.8 2.8
-9 6 -3 24.9 2.2
-9 6 -3 21.6 1.8
-9 6 -3 25.4 3.1
-10 -6 -3 80.59 3.9
-10 -6 -3 79.49 5.8
-10 6 -3 81.09 4.5
-10 6 -3 82.19 5.5
-10 6 -3 84.19 4.1
-11 -6 -3 0.6 2.3
-11 6 -3 -1 0.9
-11 6 -3 0.6 1.2
-11 6 -3 1.6 2
-12 -6 -3 5.2 4
-12 6 -3 2.9 1.8
-13 6 -3 5.4 2.8
-13 6 -3 5.3 2.2
-14 6 -3 -1.3 3.3
-14 6 -3 -3.9 2.7
-15 6 -3 -1.1 3.7
-15 6 -3 -2 3.7
-15 7 3 2.6 5.9
-15 7 3 -9.3 4
-14 -7 3 -0.1 1.4
-14 7 3 3.3 3
-14 7 3 4 3.6
14 7 -3 1.5 6
-13 -7 3 0.9 1.2
-13 -7 3 -1 3.3
-13 7 3 -1.3 2.4
-13 7 3 0.7 2.9
-12 -7 3 4.7 1.3
-12 -7 3 2.2 2.7
-12 7 3 6.5 2.9
-12 7 3 5.3 2.3
-11 -7 3 1.8 2.4
-11 -7 3 1.5 1.1
-11 -7 3 0.4 2.2
-11 7 3 -0.1 2.1
-11 7 3 1 1.4
-11 7 3 4.1 1.1
-10 -7 3 0.7 2.1
-10 -7 3 -0.4 1
-10 7 3 0 0.9
-10 7 3 -0.3 1.1
-10 7 3 -0.6 1.8
-9 -7 3 5.5 2.4
9 -7 -3 -3.8 6.3
-9 7 3 0.2 1.7
-9 7 3 2.9 1.3
9 7 -3 9.9 4.7
-8 -7 3 -0.2 1.9
8 -7 -3 -1.7 3.1
-8 7 3 -0.3 1.9
-8 7 3 1.3 1
8 7 -3 3.2 3
-7 -7 3 12.2 2.5
7 -7 -3 8.8 3
-7 7 3 6.8 1.9
7 7 -3 10.7 3.4
-7 7 3 9.3 1.3
-6 -7 3 24.5 3.2
-6 -7 3 29.3 2.9
6 -7 -3 29 3.6
-6 -7 3 30.8 2.8
-6 7 3 26.5 1.9
6 7 -3 21 2.9
-6 7 3 27.9 2.7
6 7 -3 25.7 1.6
-5 -7 3 216.98 9.8
-5 -7 3 227.68 10.1
-5 -7 3 210.08 9.6
5 -7 -3 217.78 10.3
-5 7 3 214.38 9.9
5 7 -3 209.08 8.9
5 7 -3 205.98 10.3
-5 7 3 214.78 9.1
-5 7 3 210.88 10.2
-4 -7 3 206.98 9.2
-4 -7 3 187.08 9.1
-4 -7 3 201.48 9.1
4 -7 -3 199.88 9.4
-4 7 3 197.28 9.1
-4 7 3 199.58 8.3
-4 7 3 190.38 9.5
4 7 -3 195.58 8.3
4 7 -3 192.98 9.5
-3 -7 3 39.5 3
-3 -7 3 46.3 3
3 -7 -3 45.8 3.4
-3 -7 3 41 3.3
-3 7 3 40.1 2.8
3 7 -3 40.3 2.2
-3 7 3 39.1 3.1
-3 7 3 40 2.1
-2 -7 3 231.68 10.3
2 -7 -3 216.08 10.3
-2 7 3 236.38 9.8
-2 7 3 227.88 10.6
-2 7 3 227.78 10
-1 -7 3 11.2 1.9
1 -7 -3 8.3 1.4
1 -7 -3 8.3 1.6
-1 -7 3 12.9 1.6
-1 -7 3 9.4 1.5
-1 7 3 12 2
-1 7 3 10.8 0.8
-1 7 3 11.6 1.5
0 -7 3 109.39 5.9
0 -7 3 110.99 5.8
0 -7 3 111.59 5.5
0 -7 -3 119.49 5.9
0 -7 -3 108.69 5.4
0 7 3 114.19 6
1 -7 3 51.69 3.3
-1 -7 -3 49.9 2.9
1 -7 3 46.8 2.9
-1 -7 -3 46.7 3.1
1 -7 3 47.2 3.5
-1 7 -3 48.7 2.5
1 7 3 46.5 3.3
-2 -7 -3 109.59 4.7
2 -7 3 105.09 5.7
2 -7 3 111.59 5.6
-2 -7 -3 110.99 5.6
-2 -7 -3 102.89 4.7
2 7 3 103.89 5.6
3 -7 3 23.8 2.7
-3 -7 -3 24.7 2.4
-3 7 -3 23.7 1.6
3 7 3 18.2 2.2
-4 -7 -3 92.29 5.1
-4 7 -3 90.99 4.3
-4 7 -3 91.29 5
4 7 3 85.09 5.2
-4 7 -3 93.69 4.3
4 7 3 89.19 4.9
-5 -7 -3 14.9 2.3
5 7 3 12.6 2.1
-5 7 -3 20.5 2.6
-5 7 -3 20.1 1.6
-5 7 -3 14.9 1.5
5 7 3 15 2
-6 -7 -3 18 1.7
-6 -7 -3 21.3 2.6
6 -7 3 22.1 3
-6 7 -3 22.2 1.8
-6 7 -3 18.8 1.7
-6 7 -3 16.5 2.4
6 7 3 21.1 2.2
6 7 3 16.3 2.6
-7 -7 -3 34.6 2.3
-7 -7 -3 29.6 3.3
-7 7 -3 33.1 2.4
-7 7 -3 36.1 3.3
-7 7 -3 33 2.3
-8 -7 -3 31.4 3.5
-8 7 -3 29.8 3.3
-8 7 -3 33.9 2.3
-9 -7 -3 95.29 6.3
-9 7 -3 97.79 4.8
-9 7 -3 98.59 5.1
-9 7 -3 96.39 6.1
-10 -7 -3 -1.4 2
-10 7 -3 0.4 1.9
-10 7 -3 0.3 1.2
-10 7 -3 1.2 1
-11 -7 -3 -1.1 2.4
-11 7 -3 0.7 2.2
-11 7 -3 0.5 1
-11 7 -3 0.1 1.5
-12 -7 -3 -0.8 2.7
-12 7 -3 1.9 2
-12 7 -3 0.5 2.5
-13 7 -3 -2.4 2.7
-13 7 -3 -1.9 2.7
-14 7 -3 -0.2 3.8
-14 7 -3 4.5 3.5
-15 7 -3 -2.9 3.9
-15 7 -3 1.2 4
-15 8 3 6 4.5
-15 8 3 2.1 4
-14 8 3 -0.8 3.2
-14 8 3 -3.6 3.9
-13 -8 3 3.1 2.3
-13 8 3 4.2 2.6
-13 8 3 4.7 3.4
-12 -8 3 9.6 3.4
-12 8 3 11.7 3.6
-12 8 3 9.6 2.2
-11 -8 3 10.9 1.6
-11 -8 3 5.7 2.7
-11 -8 3 18.1 5.5
-11 8 3 8.7 4
-11 8 3 10.9 2
-11 8 3 11.9 1.5
-10 -8 3 53.79 3.1
-10 -8 3 50.59 4.9
-10 8 3 50.79 3.3
-10 8 3 43.4 4.5
-10 8 3 53.89 3.1
-9 -8 3 65.49 5.2
-9 8 3 67.29 5.1
-9 8 3 73.09 3.9
8 -8 -3 275.67 14.8
-8 -8 3 270.07 13.2
-8 8 3 265.67 13
8 8 -3 297.67 15
-8 8 3 262.37 11.7
7 -8 -3 262.77 12.8
-7 -8 3 253.37 12
7 8 -3 243.18 12.8
-7 8 3 227.08 12.3
-7 8 3 245.68 10.6
-6 -8 3 187.38 9.4
6 -8 -3 192.18 10
-6 -8 3 195.98 8.6
-6 8 3 182.38 9.2
-6 8 3 181.98 8.2
6 8 -3 187.38 8
6 8 -3 187.68 10
5 -8 -3 218.18 10.7
-5 -8 3 228.68 10.2
-5 -8 3 208.08 9.7
-5 -8 3 199.28 9.8
-5 8 3 212.78 10
5 8 -3 205.98 8.9
-5 8 3 209.78 9
-4 -8 3 126.79 6.3
-4 -8 3 120.59 6.2
-4 -8 3 106.29 6.3
4 -8 -3 114.29 6.5
-4 8 3 115.09 5.2
-4 8 3 114.59 6
4 8 -3 114.69 5.2
-4 8 3 120.59 6.6
-3 -8 3 0.3 1.2
-3 -8 3 -0.6 1.1
-3 -8 3 0 1.5
3 -8 -3 3.8 1.7
3 -8 -3 1.6 1.5
-3 8 3 -0.2 0.5
3 8 -3 -0.5 0.7
-3 8 3 0.9 1.5
-3 8 3 0.4 1.2
-2 -8 3 50.49 3.9
-2 -8 3 48.2 3.5
2 -8 -3 50.29 3.5
2 -8 -3 45.6 3.7
-2 -8 3 50.99 3.3
-2 8 3 44.7 3.1
-2 8 3 46.9 2.3
-2 8 3 50.99 3.7
-1 -8 3 1.7 1.3
1 -8 -3 3 1.5
1 -8 -3 2.2 1.2
-1 -8 3 1.4 1.5
-1 -8 3 3.2 1.3
-1 8 3 1.1 0.5
-1 8 3 1.3 1.5
0 -8 -3 -0.5 1.1
0 -8 -3 0.9 1.2
0 -8 3 0.3 1.3
0 -8 -3 2.8 1.5
0 -8 3 0.9 1.4
0 8 3 1.2 1.5
-1 -8 -3 225.28 9.7
1 -8 3 217.18 9.9
-1 -8 -3 217.98 10.1
1 -8 3 228.98 11
1 -8 3 210.18 10.2
1 8 3 212.78 10.3
-1 8 -3 219.48 9.2
-2 -8 -3 142.99 6.2
2 -8 3 142.49 7.3
2 -8 3 137.39 7.5
-2 -8 -3 135.39 7.1
2 8 3 148.09 7.4
-2 8 -3 148.89 6.3
-3 -8 -3 93.39 5.2
3 -8 3 88.39 5.3
3 8 3 89.09 5.2
-3 8 -3 91.19 4.3
4 -8 3 49.9 3.9
-4 -8 -3 41.5 3.4
-4 8 -3 44.7 2.7
4 8 3 46.4 3.4
-4 8 -3 43.4 2.6
5 -8 3 149.49 8
-5 -8 -3 158.48 7.9
5 8 3 144.79 7.5
-5 8 -3 144.39 7.6
-5 8 -3 152.58 6.8
5 8 3 150.38 8.3
-5 8 -3 146.89 6.7
6 -8 3 185.48 9.6
-6 -8 -3 185.18 9.2
-6 8 -3 177.48 8
-6 8 -3 182.08 8
-6 8 -3 164.38 8.9
-7 -8 -3 334.97 15.4
-7 8 -3 316.37 15.1
-7 8 -3 328.77 14
-7 8 -3 338.47 14
-8 -8 -3 60.19 4.9
-8 8 -3 62.29 3.6
-8 8 -3 59.99 4.7
-8 8 -3 60.79 3.6
-9 -8 -3 0.8 2.2
-9 8 -3 0.7 2
-9 8 -3 0.5 1.1
-9 8 -3 0.9 1.1
-10 -8 -3 1.2 2.4
-10 8 -3 2.2 2.2
-10 8 -3 1.4 1.1
-10 8 -3 0.8 1.4
-11 -8 -3 1.2 2.7
-11 8 -3 3.1 2.2
-11 8 -3 4.4 1.3
-11 8 -3 0.3 2.2
-12 -8 -3 -2.7 3
-12 8 -3 7.3 2.7
-12 8 -3 6.3 3
-13 8 -3 6.5 3.1
-13 8 -3 -2.2 5.5
-14 8 -3 2.3 3.7
-14 8 -3 3.2 3.9
-15 8 -3 5.2 4
-14 9 3 10.1 3.9
-14 9 3 11.2 5.2
-13 9 3 17.7 3.4
-13 9 3 28.1 6.9
-12 9 3 25.8 3.1
-12 9 3 13.8 3.7
-11 -9 3 4.3 4.3
-11 -9 3 5.5 3.1
-11 9 3 4.4 1.4
-11 9 3 2.2 1.8
-11 9 3 3.3 2.8
-10 -9 3 15.8 3.4
-10 -9 3 14.6 1.7
-10 9 3 12.3 1.7
-10 9 3 19.7 2
-10 9 3 7.9 2.6
-9 -9 3 7.7 2.6
-9 9 3 8.5 2.5
-9 9 3 10.7 1.6
-8 -9 3 19.4 3.2
-8 9 3 22.4 2
-8 9 3 17.7 2.8
7 -9 -3 56.49 7.8
-7 -9 3 57.49 4.7
-7 9 3 67.19 4.6
6 -9 -3 24.7 4.4
-6 -9 3 32.7 4.9
-6 -9 3 27.8 3.4
-6 9 3 24.9 1.9
6 9 -3 23.2 1.8
-6 9 3 35.8 4.6
-5 -9 3 20.8 2.6
5 -9 -3 18.2 3.3
-5 -9 3 26.2 3
-5 9 3 21.8 2.7
-5 9 3 25.4 1.8
5 9 -3 22.5 1.7
4 -9 -3 99.39 6.9
-4 -9 3 98.49 5.6
-4 -9 3 95.19 5.7
4 -9 -3 91.69 6.3
-4 9 3 97.59 4.4
4 9 -3 95.19 4.5
-4 9 3 99.09 5.4
3 -9 -3 83.99 5.6
-3 -9 3 84.79 5
-3 -9 3 84.19 5.8
3 -9 -3 83.69 5.8
-3 -9 3 79.69 5.2
-3 9 3 84.69 5.5
3 9 -3 91.89 4.2
-3 9 3 80.99 3.8
-3 9 3 88.99 4.9
-2 -9 3 117.49 6.6
-2 -9 3 119.89 6.9
2 -9 -3 117.99 6.5
-2 -9 3 112.19 6.1
2 -9 -3 120.49 8.7
-2 9 3 114.09 5
-2 9 3 119.69 6.8
1 -9 -3 358.96 16.1
-1 -9 3 361.96 15.9
-1 -9 3 349.17 16.3
1 -9 -3 380.66 17.2
-1 -9 3 394.46 18.1
-1 9 3 348.77 17
0 -9 3 216.58 9.7
0 -9 -3 215.18 9.8
0 -9 3 200.38 10
0 -9 -3 190.58 9.9
0 -9 3 197.38 12.3
0 -9 -3 218.08 10
0 9 3 215.38 10.3
1 -9 3 303.27 14
-1 -9 -3 300.87 13.8
1 -9 3 318.87 13.6
1 -9 3 266.97 14.6
-1 -9 -3 335.47 14.1
1 9 3 307.57 14.1
2 -9 3 81.89 4.8
-2 -9 -3 91.19 4.1
-2 -9 -3 87.59 5.2
2 -9 3 86.59 5.6
-2 -9 -3 104.59 5.1
2 -9 3 80.49 5.8
2 9 3 76.19 5.2
-2 9 -3 81.69 4.1
-3 -9 -3 2 1.6
3 -9 3 3.6 1.9
3 9 3 2.5 1.5
-3 9 -3 2 0.8
-4 -9 -3 2.5 1.8
4 -9 3 1.2 2.2
-4 9 -3 3.3 1
-4 9 -3 2.6 1.1
5 -9 3 7.7 2.9
-5 9 -3 10 1.4
-5 9 -3 8.8 1.4
-6 -9 -3 3.5 2.1
-6 9 -3 2.1 1.2
-6 9 -3 2 1.8
-7 -9 -3 105.49 7
-7 9 -3 122.09 5.8
-7 9 -3 116.59 6.9
-7 9 -3 121.29 5.8
-8 -9 -3 104.89 7
-8 9 -3 112.39 5.5
-8 9 -3 110.39 6.7
-8 9 -3 109.69 5.6
-9 -9 -3 119.09 7.9
-9 9 -3 127.69 6.2
-9 9 -3 127.19 7.6
-9 9 -3 132.39 6.4
-10 -9 -3 28.5 4.4
-10 9 -3 38.7 4.8
-10 9 -3 35.9 2.7
-10 9 -3 43.3 3.4
-11 -9 -3 27.6 4.5
-11 9 -3 32.9 2.8
-11 9 -3 40.5 3.9
-11 9 -3 25.2 3.9
-12 -9 -3 45.6 6.1
-12 9 -3 41.8 4.8
-13 9 -3 18.1 3.9
-13 9 -3 19.3 4.4
-14 9 -3 10.7 4.3
-14 10 3 -5.7 5.1
-14 10 3 3 3.4
-13 10 3 -0.5 4.1
-13 10 3 9.8 4.6
-12 10 3 -2 3.4
-12 10 3 6.8 2.6
-11 -10 3 27.1 5
-11 10 3 10 3.5
-11 10 3 14.4 2.4
-11 10 3 18.6 2.1
-10 -10 3 -2.5 2.9
-10 10 3 -1.4 1.3
-10 10 3 3.8 2.7
-9 -10 3 7 2.9
-9 10 3 10.3 1.5
-9 10 3 5.4 2.5
-8 -10 3 9.1 2.7
-8 10 3 8 2.5
-8 10 3 6.2 1.3
-7 -10 3 4.1 2.3
-7 10 3 0.6 1
-7 10 3 2.4 2.1
-6 -10 3 9.7 2.7
6 10 -3 11.3 1.3
-6 10 3 11.7 1.4
-6 10 3 15 2.6
-5 -10 3 3.7 2.9
-5 -10 3 1.7 1.9
5 -10 -3 -1.6 4
-5 10 3 -0.2 1.8
5 10 -3 0.3 0.8
-5 10 3 1.8 0.9
-4 -10 3 2.6 2.5
4 -10 -3 2.5 3.1
-4 -10 3 5.1 2
4 10 -3 6.2 1.2
-4 10 3 4.8 0.9
-4 10 3 5.7 1.9
3 -10 -3 27.6 3.5
-3 -10 3 33.5 4.4
-3 -10 3 31.4 3.2
-3 10 3 31.5 1.8
3 10 -3 32.4 2.2
-2 -10 3 89.49 5.4
-2 -10 3 92.79 7.2
2 10 -3 90.49 4.5
-1 -10 3 137.99 9.9
-1 -10 3 136.59 7.1
1 -10 -3 132.29 7.3
1 -10 -3 138.69 7.5
-1 -10 3 139.39 7.8
0 -10 -3 36.1 3.4
0 -10 3 37.5 4.1
0 -10 3 27.9 3.9
0 -10 3 32.2 3
0 -10 -3 30.4 3.7
-1 -10 -3 16.2 2.7
1 -10 3 16.7 2.9
1 -10 3 16.8 3.2
-1 -10 -3 15.8 2.3
1 -10 3 14.6 2.3
2 -10 3 0.2 2.9
2 -10 3 0.7 2.3
-2 -10 -3 2.9 1.8
2 -10 3 2.5 1.6
-2 10 -3 2.1 1.1
3 -10 3 28.4 3.7
3 -10 3 19.5 3.7
3 -10 3 34.6 2.9
-3 -10 -3 33.9 3.4
-3 10 -3 30 2.4
-3 10 -3 28.2 2
-4 -10 -3 17.6 3
4 -10 3 9.6 3.2
4 -10 3 13.7 4.1
-4 10 -3 14 1.6
-4 10 -3 16.2 1.8
-5 -10 -3 60.59 4.9
5 -10 3 74.39 9.8
-5 10 -3 65.49 3.7
-5 10 -3 62.09 3.5
-6 -10 -3 52.29 4.4
-6 10 -3 48.4 3
-6 10 -3 47.4 3.2
-7 -10 -3 0.3 2.2
-7 10 -3 1.6 1.3
-7 10 -3 -0.4 1
-8 -10 -3 3.5 2.4
-8 10 -3 -0.7 1.2
-8 10 -3 1.3 1.4
-9 -10 -3 1.6 4.1
-9 10 -3 3.1 1.3
-9 10 -3 0.6 1.5
-10 -10 -3 16.4 4.1
-10 10 -3 11.3 2.4
-10 10 -3 8.7 1.7
-11 -10 -3 2.1 3.4
-11 10 -3 0.4 1.4
-11 10 -3 2.2 2.6
-12 -10 -3 -2.9 5
-12 10 -3 -0.4 3.2
-13 10 -3 1.2 3.5
-13 11 3 6.7 3.3
-13 11 3 10.5 5.6
-12 11 3 1.8 3.4
-12 11 3 -4.5 3.7
-11 -11 3 -3.2 4.2
-11 11 3 0.6 2.2
-11 11 3 -0.1 1.4
-11 11 3 -0.7 4.8
-10 -11 3 6.2 3.8
-10 11 3 4.2 1.7
-10 11 3 6.7 3.5
-10 11 3 0.4 1.4
-9 -11 3 -0.7 2.7
-9 11 3 8 3
-9 11 3 3.2 1.5
-8 -11 3 -2.1 2.3
-8 11 3 -0.4 1
-8 11 3 1.5 2.3
-7 -11 3 -2.5 2
-7 11 3 1.4 2.2
-7 11 3 1 1
-6 -11 3 62.19 5.2
6 11 -3 64.29 3.5
-6 11 3 67.69 4.9
-6 11 3 68.69 3.5
-5 -11 3 -1.4 1.8
5 11 -3 1.8 1
-5 11 3 1.1 0.8
-4 -11 3 119.49 6.9
4 11 -3 112.59 5.6
-3 -11 3 52.79 4.1
3 11 -3 42.7 3.3
-2 -11 3 193.48 11.2
2 -11 -3 156.08 11
2 -11 -3 204.78 9.7
-1 -11 3 143.79 9.6
-1 -11 3 161.98 8
1 -11 -3 150.38 8.7
1 -11 -3 162.68 8.3
1 11 -3 125.29 7.6
0 -11 3 153.58 9.3
0 -11 -3 161.78 8.3
0 -11 3 143.89 7.8
0 -11 -3 147.39 8.3
0 11 -3 145.69 7
1 -11 3 -0.8 3.3
-1 -11 -3 3.4 2.7
1 -11 3 2.4 1.6
-1 -11 -3 3.3 2.1
-1 11 -3 3.4 1.2
-2 -11 -3 6.8 2.3
2 -11 3 5.3 4
2 -11 3 2.6 1.7
-2 11 -3 7.1 1.5
3 -11 3 17.7 5
-3 -11 -3 18.9 3.3
-3 11 -3 19 2.1
4 -11 3 -2.3 1.5
-4 -11 -3 -2.5 1.7
-4 11 -3 -0.7 1.2
-5 -11 -3 47.4 4.4
-5 11 -3 36.6 2.6
-5 11 -3 43.9 3.1
-6 -11 -3 33.6 4.2
-6 11 -3 33.3 2.5
-6 11 -3 39.2 2.9
-7 -11 -3 12.6 3.1
-7 11 -3 15.1 2
-7 11 -3 15.9 2
-8 -11 -3 16 3.7
-8 11 -3 14.1 2.1
-8 11 -3 8.8 1.7
-9 -11 -3 2.7 3.3
-9 11 -3 0.7 1.7
-9 11 -3 -1.3 1.4
-10 -11 -3 7.9 4.1
-10 11 -3 13.2 2.1
-10 11 -3 11.7 2.7
-11 -11 -3 3.8 4.1
-11 11 -3 3.7 2.9
-11 11 -3 1 1.5
-12 -11 -3 -0.5 4.7
-12 11 -3 -0.9 4.2
-13 11 -3 5.7 3.6
-12 12 3 0 2.5
-11 -12 3 -1.7 4.6
-11 12 3 -2.7 4.1
-11 12 3 0.3 1.6
-11 12 3 1.5 2.5
-10 -12 3 10.5 4.8
-10 12 3 7.1 3.6
-10 12 3 5.4 1.9
-10 12 3 4.7 1.8
-9 -12 3 6.6 4.1
-9 12 3 4.6 1.8
-9 12 3 3.2 3.2
-9 12 3 7.4 1.7
-8 -12 3 10.6 3.5
-7 -12 3 16.2 3.5
-7 12 3 18.7 1.9
-6 -12 3 43.6 4.7
6 12 -3 41.3 2.7
-5 -12 3 11 2.9
-4 -12 3 1.7 2.2
4 12 -3 0.4 1
3 -12 -3 31.7 3.7
-3 -12 3 29.6 3.9
3 12 -3 26.4 2.3
-2 -12 3 18.7 3
2 -12 -3 17.3 2.9
2 12 -3 17.4 2
1 -12 -3 -0.8 1.8
-1 -12 3 -0.2 1.9
1 12 -3 0.3 1.1
0 -12 -3 3.9 2.1
0 -12 3 3.6 2.1
0 12 -3 1.2 1.2
1 -12 3 92.99 5.8
-1 -12 -3 103.79 6.4
-1 12 -3 85.99 4.9
2 -12 3 43.3 4
-2 -12 -3 46.6 4.4
-2 12 -3 47.6 3.2
-3 -12 -3 203.48 10.9
3 -12 3 205.68 10.4
-3 12 -3 207.88 9.5
-4 -12 -3 46 4.6
4 -12 3 48.8 4.3
-4 12 -3 46.1 3.4
-5 -12 -3 34 4.6
5 -12 3 20.8 3.2
-5 12 -3 30.5 2.3
-5 12 -3 34.3 3
-6 12 -3 61.39 3.6
-6 12 -3 62.69 4.1
-7 -12 -3 48.7 5.5
-7 12 -3 52.89 4
-7 12 -3 58.79 3.6
-8 -12 -3 4 3.2
-8 12 -3 7.1 2.1
-8 12 -3 10.3 2
-9 -12 -3 3.3 3.7
-9 12 -3 1.4 1.8
-9 12 -3 1.9 2.2
-10 -12 -3 0.1 4.8
-10 12 -3 3.8 2.6
-10 12 -3 6.5 2
-11 -12 -3 2.8 5.2
-11 12 -3 2.3 1.7
-11 12 -3 4.8 3.3
-12 -12 -3 0.2 5.3
-12 12 -3 0.6 3.2
-11 -13 3 -2.6 6
-11 13 3 4.5 1.9
-10 -13 3 -1.6 5
-10 13 3 0.3 1.8
-9 -13 3 -4.5 4.1
-9 13 3 0.1 1.9
-8 -13 3 -4.1 3.4
-8 13 3 -0.8 1.9
-7 -13 3 0.9 3.4
-6 -13 3 -4 2.8
6 13 -3 0.9 1.4
-5 -13 3 15.5 3.3
5 -13 -3 14.5 3.4
5 13 -3 23.9 2.2
-4 -13 3 13.5 3.4
4 -13 -3 6.7 3.7
4 13 -3 11.2 1.7
-3 -13 3 16.9 3.3
3 -13 -3 18.9 3.5
3 13 -3 9.8 1.7
-2 -13 3 1.9 2
2 -13 -3 4.5 2.4
2 13 -3 2.9 1.3
1 -13 -3 1.3 2.1
-1 -13 3 1.1 2.2
1 13 -3 0.1 1.3
0 -13 -3 0.8 2.1
0 -13 3 0.4 2.1
0 13 -3 3.1 1.5
-1 -13 -3 2.3 2.4
1 -13 3 1.5 2.2
-1 13 -3 2.6 1.5
2 -13 3 1.7 2.3
-2 -13 -3 1.1 2.3
-2 13 -3 -0.5 1.5
-3 -13 -3 2.9 2.5
3 -13 3 3.8 2.4
-3 13 -3 0 1.6
4 -13 3 8.1 2.7
-4 -13 -3 10.6 3.2
-4 13 -3 6.4 2.2
5 -13 3 45 6.5
-5 -13 -3 48.6 5.7
-5 13 -3 41.9 3.8
6 -13 3 9.1 3.3
-6 -13 -3 11.2 3.9
-6 13 -3 21.5 3
-7 -13 -3 -5.1 3.1
7 -13 3 1.8 3.4
-7 13 -3 -0.3 1.4
-7 13 -3 -1.6 2
-8 -13 -3 11.8 5
8 -13 3 9.1 5.1
-8 13 -3 19.5 3
-8 13 -3 16.8 2.4
-9 -13 -3 2.5 5.6
-9 13 -3 -2.1 2.1
-9 13 -3 0.4 2.2
-10 -13 -3 -0.5 6
-10 13 -3 0.1 2
-10 13 -3 -1.1 2.6
-11 -13 -3 5.2 5.9
-11 13 -3 0.6 1.8
-11 13 -3 0.7 2.9
-10 -14 3 -6.2 6.5
-10 14 3 1.4 2
-9 -14 3 3.5 5.8
-9 14 3 2.3 2.4
8 -14 -3 8.3 4.6
-8 -14 3 -1.5 4.4
-8 14 3 4.3 2.5
7 -14 -3 1.4 3.6
-7 -14 3 2.9 4.5
-7 14 3 6 2.9
-6 -14 3 12.1 4
6 -14 -3 16.4 4.3
-5 -14 3 7.8 3.7
5 -14 -3 10.3 3.7
5 14 -3 5.2 1.7
-4 -14 3 1 3.2
4 -14 -3 1.4 2.9
4 14 -3 4.2 1.6
-3 -14 3 4.5 3.2
3 -14 -3 4.2 2.8
3 14 -3 3.9 1.6
2 -14 -3 6.1 3
-2 -14 3 0.5 2.5
2 14 -3 1.9 1.8
-1 -14 3 2.2 2.6
1 -14 -3 3.8 2.7
1 14 -3 11.4 2.8
0 -14 3 9.5 3.1
0 -14 -3 13.5 3.2
0 14 -3 15.2 2.6
-1 -14 -3 0.6 2.6
1 -14 3 1.4 2.6
-1 14 -3 5.5 2.3
-2 -14 -3 1.2 2.7
2 -14 3 1.4 2.5
-2 14 -3 2.7 2.2
3 -14 3 6.8 3.1
-3 -14 -3 3.4 3.4
-3 14 -3 8.2 2.6
4 -14 3 20.2 3.9
-4 -14 -3 20.4 4
-4 14 -3 16.4 2.9
-5 -14 -3 27.8 4.9
5 -14 3 27.8 4.6
-5 14 -3 46.4 4.4
-6 -14 -3 5.2 4.4
6 -14 3 3.3 6.4
-6 14 -3 1 2.6
6 14 3 0.3 2.5
-7 -14 -3 -1.9 4.5
-7 14 -3 -2.6 2.8
-8 -14 -3 2.3 4.6
-8 14 -3 0 2.8
-9 -14 -3 -0.3 5
-9 14 -3 0.9 2.6
-8 -15 3 11.7 7.1
8 -15 -3 -0.4 4.8
-8 15 3 2.5 3.2
7 -15 -3 -0.2 4.7
-7 -15 3 5 5.3
-7 15 3 -1.8 3
6 -15 -3 3.4 4.3
-6 -15 3 16.9 5.1
-6 15 3 3.4 3.1
-5 -15 3 1.5 6.5
5 15 -3 7.5 2.2
4 -15 -3 1.6 3.9
-4 -15 3 2.8 4.4
4 15 -3 5.8 2.3
-3 -15 3 9 4.5
3 -15 -3 13 4.2
3 15 -3 6.9 2.5
2 -15 -3 29.7 4.8
-2 -15 3 32.9 5
2 15 -3 22.7 3.1
1 -15 -3 27.3 4.5
-1 -15 3 42.2 5.5
1 15 -3 50.59 4.5
0 -15 3 22.7 4.3
0 -15 -3 43.1 5.4
0 15 -3 27.9 3.5
-1 -15 -3 22.6 4.7
1 -15 3 19.5 4.2
-1 15 -3 24.5 3.8
-2 -15 -3 27.4 5.2
2 -15 3 14.2 4
-2 15 -3 23.5 3.6
3 -15 3 8.3 6
-3 -15 -3 23.9 6.6
-3 15 -3 30 4.2
-4 -15 -3 5.9 4
4 -15 3 5.8 6
-4 15 -3 7.2 3.4
-5 -15 -3 1.5 5.5
5 15 3 -1.4 2.2
-6 -15 -3 -2.3 4.2
-6 15 -3 -1 3.4
-7 -15 -3 -0.1 5.7
-7 15 -3 -1.5 3.3
-8 -15 -3 15.3 6.2
-8 15 -3 9.1 3.7
6 -16 -3 -0.3 5.9
-6 16 3 3 3.7
-5 -16 3 10.2 7.6
5 -16 -3 1.7 4.6
-5 16 3 6.4 4
-4 -16 3 13 5.8
4 -16 -3 0.5 4.9
4 16 -3 3.1 2.7
-4 16 3 0.7 4.1
3 -16 -3 6 4.6
-3 -16 3 2.3 9.6
3 16 -3 1.3 5.4
-2 -16 3 6.9 5.3
2 -16 -3 0.9 4.5
2 16 -3 0.7 3
-1 -16 3 2.8 5.6
1 -16 -3 -3.6 4.1
1 16 -3 1.7 3.4
0 -16 3 -4.2 6.2
0 -16 -3 -1.7 4.2
0 16 -3 6.5 3.7
-1 -16 -3 1 4.2
-1 16 -3 -1.6 3.4
-2 -16 -3 -2 4.1
-2 16 -3 -3.4 3.6
-3 -16 -3 4.3 4.5
-3 16 -3 2 3.8
3 16 3 -1.7 3.2
4 16 3 3.4 2.9
-4 16 -3 2.1 4.1
-5 -16 -3 5.4 5.6
-5 16 -3 2.5 4.3
-6 -16 -3 4.1 5.8
-6 16 -3 2.8 4
2 -17 -3 9.1 5.8
-2 17 3 7.7 4.2
2 17 -3 13.4 3.6
1 -17 -3 2.7 5
-1 17 3 7.7 4
1 17 -3 5.6 4.1
0 -17 -3 3.3 5.1
0 17 3 1.3 3.9
0 17 -3 4 4.1
-1 -17 -3 -1.9 5.7
1 17 3 -0.9 3.9
-1 17 -3 -4.9 3.8
-2 -17 -3 2.1 6.3
-2 17 -3 3.3 4
2 17 3 -0.7 3.7
-17 0 4 1 8.9
-17 0 4 1 3.6
-16 0 4 -0.9 3
-16 0 4 -1.4 3.8
-15 0 4 -1.6 3.1
-15 0 4 3 2.7
-14 0 4 34 4.9
-14 0 4 32.2 3.5
-13 0 4 12.5 2
-13 0 4 16.3 3.5
-12 0 4 393.56 17.9
-12 0 4 402.86 16.6
12 0 -4 357.16 17.6
11 0 -4 204.38 9.6
-11 0 4 188.48 10.4
-11 0 4 223.48 9.4
10 0 -4 466.25 19.6
10 0 -4 467.35 20.7
-10 0 4 452.35 20.4
-9 0 4 6.7 1.9
9 0 -4 6.8 1.5
9 0 -4 4.3 2.1
-8 0 4 175.58 8.6
8 0 -4 175.88 8.7
8 0 -4 181.38 8.2
-7 0 4 1239.08 50.89
7 0 -4 1240.48 50.89
7 0 -4 1265.47 50.49
6 0 -4 184.48 8.6
-6 0 4 185.88 8.2
6 0 -4 191.48 8.4
-6 0 4 194.38 7.9
-5 0 4 78.09 3.8
5 0 -4 84.89 4.1
5 0 -4 86.09 4.3
-4 0 4 141.69 6.4
4 0 -4 141.39 6.4
4 0 -4 142.19 6.3
3 0 -4 134.69 6.6
3 0 -4 157.88 6.7
3 0 -4 148.09 6.2
-3 0 4 151.68 6.7
3 0 -4 161.88 6.7
2 0 -4 2378.06 94.79
0 0 4 1756.22 70.19
1 0 4 2171.38 86.59
2 0 4 492.65 19.5
-2 0 -4 489.45 19.4
-2 0 -4 466.15 19.3
2 0 4 478.85 19.5
2 0 4 473.55 19.5
-2 0 -4 486.45 19.3
-3 0 -4 322.37 12.9
3 0 4 318.87 12.5
3 0 4 312.27 12.5
-3 0 -4 299.47 12.4
-3 0 -4 293.17 12.2
-3 0 -4 301.17 12.3
3 0 4 291.87 12.4
-3 0 -4 278.77 12.5
-4 0 -4 1.8 0.8
4 0 4 -0.1 1
-4 0 -4 1.7 0.4
-4 0 -4 1.4 0.7
4 0 4 0.8 0.8
-4 0 -4 2.1 0.6
4 0 4 1.9 1.1
5 0 4 2.1 1.7
-5 0 -4 3.7 0.9
-5 0 -4 1.4 0.9
-5 0 -4 1.9 0.6
5 0 4 1.2 1.1
-6 0 -4 6.7 0.7
6 0 4 8.2 1.4
-6 0 -4 6 1.2
-6 0 -4 7.1 0.9
-7 0 -4 9.2 0.8
-7 0 -4 12 1.6
-7 0 -4 10 1.1
-8 0 -4 -0.3 0.8
-8 0 -4 1 0.8
8 0 4 0.7 0.6
-8 0 -4 0.3 1.1
-9 0 -4 -0.3 0.8
9 0 4 -0.1 1
-9 0 -4 -0.3 1.2
-10 0 -4 0.2 1
-10 0 -4 0.1 1.4
-11 0 -4 10.2 1.6
-11 0 -4 8.3 2.1
-12 0 -4 92.09 5.1
-12 0 -4 112.89 6.2
-13 0 -4 101.89 6.4
-13 0 -4 99.39 5.4
-14 0 -4 51.79 3.7
-14 0 -4 43.1 5.3
-15 0 -4 4.9 1.9
-16 0 -4 6.2 2.4
-17 -1 4 0.3 3.4
-17 1 4 -0.8 5.4
-17 1 4 -1 3.5
-16 -1 4 -0.8 4.1
-16 -1 4 7.1 3.1
-16 1 4 3.2 3.9
-16 1 4 9.5 3.8
-15 -1 4 5.5 3.5
-15 -1 4 4.4 2.4
-15 1 4 7.3 3.8
-15 1 4 4.3 2.9
-14 -1 4 1.2 2
-14 -1 4 2.1 2.6
-14 1 4 -1.6 1.9
-14 1 4 -0.2 2.8
-13 -1 4 4.6 2.7
-13 -1 4 1.3 1.5
-13 1 4 2.6 2.7
-13 1 4 0 1.4
-12 -1 4 -1 1.2
-12 -1 4 -1.3 2
-12 1 4 -0.2 2.2
-12 1 4 0.3 1.2
12 1 -4 -0.3 2
-11 -1 4 4 1.3
-11 -1 4 2.2 2.1
-11 1 4 2.5 1.3
11 1 -4 1.4 1.7
-11 1 4 3.5 2.1
10 -1 -4 80.39 4.3
-10 -1 4 76.09 4.4
-10 -1 4 70.39 4.9
10 -1 -4 64.89 6
-10 1 4 74.09 5.1
10 1 -4 78.99 6
10 1 -4 66.39 4.3
9 -1 -4 84.89 4.3
-9 -1 4 82.19 5
9 -1 -4 67.79 6.5
9 1 -4 81.39 4.6
-9 1 4 79.49 4.1
-9 1 4 81.79 5.1
8 -1 -4 10.8 2
-8 -1 4 21.9 2.6
8 -1 -4 13.7 1.8
8 1 -4 13 2.1
-8 1 4 20.5 2.6
-7 -1 4 269.27 12.8
7 -1 -4 311.37 12.6
7 -1 -4 299.37 13.1
7 1 -4 289.87 13
-7 1 4 300.77 13.1
-7 1 4 296.57 12.2
6 -1 -4 338.87 14.4
-6 -1 4 324.17 14
-6 -1 4 341.47 13.6
6 -1 -4 336.67 14.1
6 1 -4 351.06 14.5
-6 1 4 322.97 13.9
-6 1 4 334.57 14.5
-6 1 4 327.27 13.8
5 -1 -4 228.88 9.8
5 -1 -4 227.58 10
-5 1 4 235.48 10.1
-5 1 4 216.28 9.6
5 1 -4 234.08 10.1
4 -1 -4 1095.59 42.7
4 -1 -4 1087.69 42.9
-4 -1 4 1044.5 42.8
-4 1 4 1043.6 42.6
-4 1 4 1039.9 42.7
4 1 -4 1025.6 42.2
4 1 -4 1079.49 42.9
3 -1 -4 827.92 34
3 -1 -4 852.51 33.9
-3 -1 4 857.51 34
-3 1 4 829.92 34
3 1 -4 871.21 34
3 1 -4 829.52 33.5
-3 1 4 844.42 33.9
3 1 -4 802.52 33.9
2 1 -4 2850.21 112.79
-2 1 4 2815.92 112.99
1 -1 -4 244.18 9.9
1 -1 -4 228.88 9.6
-1 -1 4 236.78 9.8
1 -1 -4 250.87 9.7
1 1 -4 230.88 9.6
1 1 -4 238.98 9.9
-1 1 4 223.58 10
-1 1 4 246.18 9.9
1 1 -4 244.58 9.7
1 1 -4 222.58 9.6
0 1 4 1445.26 57.99
-1 -1 -4 111.09 5
-1 -1 -4 115.29 4.9
-1 -1 -4 114.99 4.9
1 -1 4 113.69 5.1
-1 -1 -4 128.89 5.2
-1 1 -4 117.99 5.1
1 1 4 127.79 5.4
-1 1 -4 115.39 4.9
-1 1 -4 114.29 4.9
1 1 4 117.39 4.8
2 -1 4 2012.2 82.29
2 -1 4 2252.07 82.49
2 -1 4 1945.21 82.19
2 1 4 2103.39 82.39
2 1 4 1958 82.19
2 1 4 2101.69 81.99
-3 -1 -4 10.4 0.8
3 -1 4 11 1
-3 -1 -4 9.2 0.8
-3 -1 -4 9.4 0.7
-3 -1 -4 11.7 1.1
-3 -1 -4 9.7 1
3 -1 4 13.1 1.4
3 -1 4 9.2 0.9
3 1 4 9.6 1.2
-3 1 -4 10.9 0.8
3 1 4 11.3 1.3
-3 1 -4 9.6 0.9
-3 1 -4 11.2 0.9
-3 1 -4 9.5 1.1
4 -1 4 2 1.5
-4 -1 -4 1.3 0.4
-4 -1 -4 0.1 0.7
-4 -1 -4 1.8 0.7
4 -1 4 1.7 0.6
4 -1 4 0.4 1.1
-4 1 -4 1.5 0.5
-4 1 -4 1.4 0.7
4 1 4 1.4 1.1
-4 1 -4 1.5 0.5
4 1 4 -0.5 1.5
-5 -1 -4 66.49 3.3
-5 -1 -4 65.89 3.1
-5 -1 -4 67.49 3.6
-5 -1 -4 67.39 3
-5 1 -4 68.79 3.1
-5 1 -4 75.59 3.6
-5 1 -4 68.89 3.2
-6 -1 -4 87.59 3.9
-6 -1 -4 95.39 4.4
-6 -1 -4 90.09 4.1
-6 -1 -4 97.79 4.8
-6 1 -4 92.69 4.6
-6 1 -4 94.49 4
-6 1 -4 89.69 4.2
-7 -1 -4 229.98 9.7
-7 -1 -4 223.98 9.3
-7 -1 -4 227.88 10
-7 1 -4 219.88 9.4
-7 1 -4 224.88 9.7
-7 1 -4 254.97 10.7
-8 -1 -4 64.29 3.2
8 -1 4 65.19 3.1
8 1 4 63.19 3.1
-8 1 -4 62.39 3.3
8 1 4 65.19 3.1
-8 1 -4 60.79 3.8
-8 1 -4 61.29 2.9
9 -1 4 53.69 3.8
-9 -1 -4 64.79 3.3
-9 -1 -4 58.09 3.7
-9 1 -4 59.99 3.9
-9 1 -4 62.69 3.3
-9 1 -4 62.09 2.8
9 1 4 61.79 4.5
-10 -1 -4 85.29 4.9
-10 -1 -4 88.79 4.3
-10 1 -4 96.79 4.9
-10 1 -4 73.79 4.9
-11 -1 -4 52.19 4
-11 -1 -4 59.79 3.4
-11 1 -4 55.59 3.4
-12 -1 -4 33.3 2.6
-12 -1 -4 25.1 3.2
-12 1 -4 29.2 2.6
-12 1 -4 28.5 3.5
-13 -1 -4 0 2.5
-13 -1 -4 1.3 1.3
-13 1 -4 2.2 1.5
-13 1 -4 3 2.4
-14 -1 -4 3.4 1.6
-14 1 -4 2.5 1.9
-14 1 -4 3.3 3
-15 -1 -4 5 1.9
-15 1 -4 6 2.3
-16 -1 -4 6.3 2
-16 1 -4 5.5 2.6
-17 -2 4 2.4 3
-17 -2 4 -11.6 8.5
-17 2 4 -4.6 5.9
-17 2 4 8 3.9
-16 -2 4 0.8 2.7
-16 -2 4 1 3.9
-16 2 4 -1.5 3.9
-16 2 4 -3.3 3.8
-15 -2 4 5.1 3.4
-15 -2 4 -2.6 2
-15 2 4 -1.2 3.1
-15 2 4 -3 3.5
-14 -2 4 -0.9 1.7
-14 -2 4 1.1 2.9
-14 2 4 -0.4 2.3
-14 2 4 -1.5 2.8
-13 -2 4 0.9 1.5
-13 -2 4 -1.3 2.2
-13 2 4 4.8 2.5
-13 2 4 1.3 1.7
-12 -2 4 32.8 4
-12 -2 4 30.6 2.7
-12 2 4 33.8 4.2
12 2 -4 35.7 3.7
-12 2 4 34.7 2.8
-11 -2 4 4.2 1.4
-11 -2 4 1 1.9
11 2 -4 -1.7 1.6
-11 2 4 3.8 2.1
-11 2 4 -0.3 1.2
10 -2 -4 2.2 2.6
-10 -2 4 3.2 1.8
10 -2 -4 2.8 1.3
-10 2 4 1.2 1.1
10 2 -4 -2 2.7
-10 2 4 4 2
9 -2 -4 2.4 1.1
-9 -2 4 0.6 1.5
9 -2 -4 -0.1 1.9
9 2 -4 3.6 1.9
-9 2 4 2.5 1.7
-9 2 4 1.9 1
8 -2 -4 82.69 5.2
8 -2 -4 84.59 4.3
-8 2 4 84.59 4.2
8 2 -4 92.99 5.3
-7 -2 4 0.3 0.9
7 -2 -4 0.2 1.2
7 -2 -4 0.5 0.8
-7 2 4 0.4 1.3
-7 2 4 0.9 0.7
-7 2 4 -0.8 0.7
7 2 -4 -0.5 1.1
6 -2 -4 1 1.1
6 -2 -4 1 0.9
-6 -2 4 1 0.8
-6 2 4 1.7 0.8
6 2 -4 1.3 1
-6 2 4 2.7 1.3
-6 2 4 1 0.8
5 -2 -4 193.38 8.2
-5 -2 4 189.48 8.4
-5 -2 4 187.58 8.3
5 2 -4 188.48 9
-5 2 4 183.08 8.5
5 2 -4 181.18 7.6
-5 2 4 193.08 8.2
-4 -2 4 0.8 0.7
-4 -2 4 1.1 0.9
4 -2 -4 1.2 0.8
4 -2 -4 1.6 0.9
4 2 -4 3.3 1
-4 2 4 1 0.7
-4 2 4 1.8 0.8
-4 2 4 2.6 1.1
3 -2 -4 123.09 5.5
3 -2 -4 124.09 5.4
-3 -2 4 120.49 5.4
-3 -2 4 120.59 5.5
3 2 -4 123.09 5.5
-3 2 4 123.59 5.5
3 2 -4 119.59 5
-3 2 4 121.89 5.5
-3 2 4 115.39 5.6
-3 2 4 123.49 5.5
3 2 -4 108.79 5.4
-2 -2 4 48.1 2.6
-2 -2 4 48.1 2.4
2 -2 -4 47 2.5
2 -2 -4 48 2.6
2 2 -4 44.2 2.1
-2 2 4 42 2.7
-2 2 4 50.49 2.8
-2 2 4 50.49 2.6
2 2 -4 40.6 2.3
2 2 -4 50.29 2.7
-2 2 4 47.3 2.5
0 -2 4 197.08 8.1
0 -2 4 217.38 8.5
0 -2 -4 216.78 8.6
0 2 -4 197.88 8.3
0 2 4 191.98 8.7
0 2 4 207.28 8.4
0 2 4 199.28 8.2
0 2 -4 189.58 8.3
1 -2 4 1306.77 52.39
1 2 4 1362.16 51.99
1 2 4 1245.18 52.39
-2 -2 -4 54.79 2.7
-2 -2 -4 49.99 2.2
-2 -2 -4 50.09 2.6
2 -2 4 53.99 3
-2 -2 -4 52.09 2.4
2 -2 4 53.59 2.4
-2 2 -4 53.19 2.5
-2 2 -4 50.39 2.4
2 2 4 54.89 3.1
-2 2 -4 52.09 2.7
-2 2 -4 51.59 2.5
-3 -2 -4 84.59 3.6
-3 -2 -4 95.19 4.2
3 -2 4 90.59 5
3 -2 4 86.19 4
-3 -2 -4 85.69 3.7
-3 -2 -4 82.89 3.7
-3 2 -4 97.39 3.8
-3 2 -4 87.59 3.9
3 2 4 85.79 4.4
-3 2 -4 84.39 3.8
-3 2 -4 91.19 4.2
3 2 4 80.29 4.3
-4 -2 -4 29.1 1.5
4 -2 4 31.5 2.3
-4 -2 -4 27.9 1.5
-4 -2 -4 29.7 2
-4 2 -4 30.9 2
-4 2 -4 27.8 1.6
-4 2 -4 32 1.7
-5 -2 -4 268.57 11.4
-5 -2 -4 275.47 10.9
-5 -2 -4 243.18 10.7
-5 2 -4 271.37 11.3
-5 2 -4 250.17 10.9
5 2 4 277.37 11.2
-5 2 -4 255.27 10.8
-6 -2 -4 32.4 2.1
-6 -2 -4 33.8 1.8
-6 2 -4 31.8 2
-6 2 -4 34.5 2.4
-6 2 -4 33.7 1.8
6 2 4 32.5 2.1
-7 -2 -4 22.6 2.4
-7 -2 -4 24.7 1.6
-7 -2 -4 24.5 1.9
7 2 4 25.8 1.6
-7 2 -4 25.4 1.8
-7 2 -4 25.2 1.5
7 2 4 26 1.7
-7 2 -4 24.1 3.1
-8 -2 -4 76.69 4.6
-8 -2 -4 74.99 3.6
8 -2 4 74.69 3.7
-8 -2 -4 75.99 4
-8 2 -4 71.89 4.3
8 2 4 71.09 3.4
-8 2 -4 77.19 3.8
-8 2 -4 72.79 3.4
8 2 4 74.99 3.8
-9 -2 -4 4.1 1.7
-9 -2 -4 3.3 1
-9 2 -4 3.3 1.1
-9 2 -4 3.5 0.7
-9 2 -4 3 1.5
-10 -2 -4 23.9 2.6
-10 -2 -4 28.6 2.1
-10 2 -4 30.2 2.3
-10 2 -4 25.9 2.9
-11 -2 -4 6.4 2
-11 2 -4 10.3 2.4
-11 2 -4 6.3 1.5
-12 -2 -4 68.39 4.8
-12 -2 -4 67.69 3.8
-12 2 -4 68.19 4
-12 2 -4 60.69 4.8
-13 -2 -4 28 2.5
-13 2 -4 25.1 3.5
-13 2 -4 26.4 2.8
-14 -2 -4 7.1 1.7
-14 2 -4 6 3.1
-14 2 -4 10.7 2.4
-15 -2 -4 0.7 1.6
-15 2 -4 2.1 4.1
-15 2 -4 -1.7 2.3
-16 -2 -4 -0.7 1.6
-16 2 -4 0.5 2.5
-16 -3 4 8.2 5.1
-16 -3 4 9.9 3
-16 3 4 10.1 3.9
-16 3 4 16.3 4.8
-15 -3 4 7.2 4.1
-15 -3 4 15.7 2.7
-15 3 4 19.5 4.7
-15 3 4 13.5 3.5
-14 -3 4 2.6 3.1
-14 -3 4 4.5 1.9
-14 3 4 3 2.5
-14 3 4 1.3 2.8
-13 -3 4 -0.7 2.4
-13 -3 4 3 1.6
-13 3 4 4.6 2
13 3 -4 1.1 2.7
-13 3 4 0.2 2.5
-12 -3 4 -0.1 1.2
-12 -3 4 2.6 2.2
12 3 -4 -0.4 2
-12 3 4 1.9 2.3
-12 3 4 1.2 1.3
-11 -3 4 1.6 1.8
-11 -3 4 0.3 1.1
-11 3 4 1.8 1.2
-11 3 4 1 2.1
10 -3 -4 2.5 4.7
10 -3 -4 -0.1 1.2
-10 -3 4 3.2 1.9
-10 3 4 1.4 1.1
-10 3 4 2.8 2
9 -3 -4 48.4 2.8
-9 -3 4 44.3 3.7
9 -3 -4 49.8 4.6
-9 3 4 46.2 3.9
9 3 -4 43.2 4.5
-9 3 4 48.5 3
8 -3 -4 162.68 8.3
8 -3 -4 155.68 7.3
8 3 -4 169.58 8.6
-8 3 4 172.18 7.4
-8 3 4 162.38 8.2
7 -3 -4 221.98 9.9
-7 -3 4 228.58 10.6
7 -3 -4 227.78 10.6
-7 3 4 228.18 10.6
-7 3 4 229.58 9.8
-7 3 4 241.78 10.2
7 3 -4 240.28 10.7
6 -3 -4 454.35 19.9
-6 -3 4 482.65 19.5
-6 -3 4 459.05 19.8
-6 -3 4 455.05 19
6 -3 -4 481.85 19.3
-6 3 4 458.25 19.4
-6 3 4 479.05 19.2
6 3 -4 482.35 19.9
-6 3 4 472.15 19.6
5 -3 -4 483.45 20.1
5 -3 -4 495.05 20.6
-5 -3 4 490.75 20.4
-5 -3 4 474.65 20.4
-5 3 4 523.15 20.6
-5 3 4 496.15 20.4
-5 3 4 451.25 21
5 3 -4 508.65 20.6
-4 -3 4 143.19 6.7
4 -3 -4 145.19 6.5
-4 -3 4 146.19 6.8
4 -3 -4 157.38 6.9
4 3 -4 151.48 6.9
-4 3 4 153.18 6.8
-4 3 4 151.28 6.7
-4 3 4 148.49 6.8
4 3 -4 142.59 6.1
-3 -3 4 53.29 2.9
3 -3 -4 50.69 2.9
-3 -3 4 53.99 2.7
3 -3 -4 51.79 2.7
-3 3 4 44.1 3.2
-3 3 4 52.99 2.8
3 3 -4 50.99 3
-3 3 4 48.2 2.9
-3 3 4 52.59 2.8
3 3 -4 50.29 2.3
3 3 -4 42.8 3
-2 -3 4 110.39 4.9
-2 -3 4 108.79 5.1
2 -3 -4 114.69 5.1
2 -3 -4 113.99 5
2 3 -4 97.29 4.9
2 3 -4 115.29 5.1
-2 3 4 112.69 5.1
-2 3 4 107.29 5.2
-2 3 4 109.49 5.3
-2 3 4 111.29 5
2 3 -4 106.39 4.6
1 -3 -4 1090.69 42.2
-1 -3 4 1062.59 42.4
1 -3 -4 1035.5 42.3
-1 -3 4 1046.3 42.1
-1 3 4 1082.39 42.1
-1 3 4 1085.99 42.4
-1 3 4 976.3 42.4
1 3 -4 1028.2 42
0 -3 4 2786.72 108.69
0 3 4 2635.84 108.59
-1 -3 -4 578.34 23.2
-1 -3 -4 565.84 23.1
-1 3 -4 551.04 22.9
1 3 4 595.14 23.1
-1 3 -4 569.74 22.9
1 3 4 565.94 23
1 3 4 554.14 23.4
-2 -3 -4 421.66 17.2
2 3 4 415.56 16.9
2 3 4 393.96 17.4
2 3 4 426.46 17
-2 3 -4 433.76 17.3
-2 3 -4 398.36 16.9
-2 3 -4 429.26 17
-2 3 -4 422.26 16.9
-3 -3 -4 117.49 5.2
-3 -3 -4 127.39 5.8
3 -3 4 118.99 5.7
3 3 4 127.79 5.9
3 3 4 130.29 5.4
-3 3 -4 124.29 5.5
-3 3 -4 125.99 5.5
-3 3 -4 126.89 5.4
-3 3 -4 130.99 5.9
3 3 4 147.09 5.4
-4 -3 -4 690.53 28.7
-4 -3 -4 674.73 28.8
-4 -3 -4 720.13 29.4
-4 3 -4 759.92 29.5
-4 3 -4 703.93 28.9
4 3 4 725.53 29.4
4 3 4 754.62 28.9
-4 3 -4 728.83 29
-5 -3 -4 224.58 10.1
-5 -3 -4 238.98 10.5
-5 -3 -4 247.58 10.8
-5 3 -4 239.58 10.2
-5 3 -4 248.18 10.8
5 3 4 259.97 10.1
5 3 4 249.88 10.6
5 3 4 259.37 10.4
-6 -3 -4 407.06 21.3
-6 -3 -4 478.25 20
-6 -3 -4 483.25 19.8
6 3 4 497.65 20.2
-6 3 -4 504.45 20.1
6 3 4 530.05 20
-6 3 -4 511.05 19.9
-6 3 -4 502.65 20.6
-7 -3 -4 411.66 17.5
-7 -3 -4 401.26 17.7
7 -3 4 427.86 17.7
-7 -3 -4 438.96 18.5
7 3 4 438.86 17.8
-7 3 -4 446.26 17.5
-7 3 -4 436.96 18.3
7 3 4 415.36 17.6
-7 3 -4 443.06 17.7
8 -3 4 301.37 13
-8 -3 -4 306.27 13.8
-8 -3 -4 291.27 13
-8 -3 -4 312.07 12.7
-8 3 -4 311.37 12.9
8 3 4 307.97 12.5
8 3 4 305.77 13.1
-9 -3 -4 249.48 10.3
-9 -3 -4 239.98 10.7
-9 -3 -4 253.27 11.6
-9 3 -4 248.78 10.6
-9 3 -4 236.28 10.1
-9 3 -4 233.48 11.3
-10 -3 -4 26.2 3.1
-10 -3 -4 19.4 1.8
-10 -3 -4 22.6 2.5
-10 3 -4 19.9 1.4
-10 3 -4 18.5 2
-10 3 -4 23.4 3
-11 -3 -4 66.09 4.5
-11 -3 -4 81.89 4.1
-11 3 -4 68.09 4.9
-11 3 -4 73.89 4.2
-12 -3 -4 27 2.2
-12 3 -4 17.5 2.9
-12 3 -4 26.8 2.5
-13 -3 -4 2 1.3
-13 3 -4 1.5 1.7
-13 3 -4 3.5 3.1
-14 -3 -4 1.1 1.4
-14 3 -4 0 2.8
-14 3 -4 1.1 2.1
-15 -3 -4 0.7 1.5
-15 3 -4 2.2 2.4
-16 3 -4 3.3 3.1
-16 -4 4 2.9 2.3
-16 -4 4 7.7 6.2
-16 4 4 13.1 8.6
-15 -4 4 9.1 4
-15 -4 4 10.2 2.3
-15 4 4 3.5 3.5
-15 4 4 12.4 3.8
-14 -4 4 10 2.1
-14 -4 4 3.4 3
-14 4 4 8.2 2.7
-14 4 4 11.7 3.7
-13 -4 4 1.5 1.5
-13 -4 4 3.4 2.7
-13 4 4 -1 2.6
13 4 -4 0.3 2.8
-13 4 4 1.1 1.8
-12 -4 4 21.2 3.4
-12 -4 4 29.9 2.6
-12 4 4 33.3 2.9
-12 4 4 30.7 4.3
-11 -4 4 108.49 6.7
-11 -4 4 110.49 5.6
-11 4 4 108.09 6.9
-11 4 4 117.19 5.7
10 -4 -4 34 4.6
-10 4 4 31.4 2.7
10 4 -4 30 4.4
-10 4 4 28.7 3.4
9 -4 -4 101.39 6.5
9 -4 -4 88.29 4.5
-9 4 4 94.49 5.8
9 4 -4 88.19 6.8
-9 4 4 99.09 4.8
8 -4 -4 167.08 8.7
-8 -4 4 174.28 8.5
8 -4 -4 166.88 7.4
8 4 -4 165.68 8.7
-8 4 4 169.18 8.4
-8 4 4 160.68 7.4
-7 -4 4 22.3 1.9
-7 -4 4 24 2.5
7 -4 -4 21.8 1.7
7 -4 -4 21.8 2.8
-7 -4 4 23.6 3
-7 4 4 21.3 2.2
7 4 -4 20.2 2.8
-7 4 4 21.1 1.7
-7 4 4 22.3 2.6
6 -4 -4 1.3 1.2
6 -4 -4 1.6 0.9
-6 -4 4 1.6 1.2
-6 -4 4 0.9 1
-6 4 4 0.5 0.7
-6 4 4 2 1.3
6 4 -4 0 1.2
-6 4 4 0.6 1.1
-6 4 4 1.3 0.9
5 -4 -4 1041 42.1
5 -4 -4 1057.39 41.6
-5 -4 4 1027.1 41.9
-5 -4 4 1030.8 41.9
-5 -4 4 972.3 41.6
-5 4 4 978.9 41.7
-5 4 4 1036 41.3
-5 4 4 1051.19 42
-5 4 4 1096.09 42.2
5 4 -4 1022.4 42
5 4 -4 1014.1 41.1
-4 -4 4 16.3 1.7
-4 -4 4 18.1 1.9
4 -4 -4 20.2 2
4 -4 -4 21.1 1.6
-4 -4 4 15.7 1.9
-4 4 4 17.1 1.8
-4 4 4 19.2 1.8
4 4 -4 17 1.1
-4 4 4 17.2 1.7
-4 4 4 16.7 1.2
4 4 -4 17.4 2.1
-3 -4 4 0.7 0.8
-3 -4 4 1.6 0.9
3 -4 -4 0.7 0.8
3 -4 -4 1.2 0.8
-3 4 4 1.6 0.8
-3 4 4 0.8 1
3 4 -4 0.9 0.9
-3 4 4 1.5 0.9
-3 4 4 0.7 0.5
3 4 -4 2.9 0.6
2 -4 -4 223.58 9.4
-2 -4 4 220.38 9.6
-2 -4 4 218.08 9.3
2 -4 -4 217.08 9.5
2 4 -4 218.18 9.1
-2 4 4 221.78 9.6
-2 4 4 227.48 9.4
2 4 -4 227.18 9.6
-2 4 4 211.78 9
1 -4 -4 46.8 2.8
1 -4 -4 49.8 2.7
-1 -4 4 48.6 2.4
-1 -4 4 47.9 2.8
1 -4 -4 47.5 2.6
-1 4 4 47 2.4
-1 4 4 49.9 2.7
1 4 -4 48 2.3
-1 4 4 43 2
-1 4 4 48.6 2.9
0 -4 -4 138.19 6.2
0 -4 4 131.19 6.2
0 -4 4 145.29 6.5
0 -4 -4 141.49 5.9
0 -4 -4 138.79 5.9
0 4 4 139.79 5.8
0 4 -4 137.99 5.9
0 4 -4 132.99 5.8
0 4 4 132.59 5.5
0 4 4 139.09 6.5
0 4 4 140.89 6.2
-1 -4 -4 336.17 13.7
-1 4 -4 321.07 13.3
-1 4 -4 316.77 13.3
1 4 4 334.27 13.9
1 4 4 322.97 13.6
-2 -4 -4 122.69 6
-2 4 -4 131.89 5.6
-2 4 -4 125.79 5.6
2 4 4 138.79 6.2
2 4 4 134.49 5.8
2 4 4 136.69 6.5
-3 -4 -4 261.37 10.3
-3 -4 -4 242.48 11
3 4 4 252.47 11.1
-3 4 -4 260.77 10.6
-3 4 -4 253.17 10.5
-3 4 -4 255.37 10.6
3 4 4 257.27 10.8
-3 4 -4 258.97 11.1
3 4 4 268.07 10.8
-4 -4 -4 579.74 23.5
4 4 4 566.64 23.4
-4 4 -4 557.14 22.9
-4 4 -4 573.94 23.4
4 4 4 547.55 23
4 4 4 573.14 23
-4 4 -4 558.34 22.9
-5 -4 -4 1538.35 63.59
-5 -4 -4 1644.24 63.59
-5 -4 -4 1601.14 64.49
-5 4 -4 1593.44 64.39
5 4 4 1619.54 64.19
5 4 4 1599.14 63.99
5 4 4 1586.24 63.99
-5 4 -4 1581.04 63.79
-6 -4 -4 116.49 5.8
-6 -4 -4 99.19 4.7
-6 -4 -4 111.99 4.8
6 4 4 103.79 5.2
-6 4 -4 114.19 4.9
-6 4 -4 116.99 5.7
-6 4 -4 107.89 5
6 4 4 106.39 5.2
-7 -4 -4 142.39 6.3
7 -4 4 145.79 6.8
-7 -4 -4 143.99 7.4
-7 -4 -4 148.99 6.5
-7 4 -4 149.39 6.7
7 4 4 149.49 6.7
-7 4 -4 146.59 6.4
7 4 4 155.68 7
-7 4 -4 152.28 7.3
-8 -4 -4 0.9 0.6
-8 -4 -4 0.5 1
8 -4 4 0.6 1.2
-8 -4 -4 -0.3 1.3
8 4 4 2.6 1.4
8 4 4 1.4 0.9
-8 4 -4 1 0.9
-8 4 -4 1.7 1.5
-8 4 -4 0.5 0.7
-9 -4 -4 29.8 3.4
-9 -4 -4 35.7 2.6
-9 -4 -4 34.7 2.1
-9 4 -4 36.6 3.2
-9 4 -4 34.6 2.5
-9 4 -4 33.7 2.1
-10 -4 -4 5.7 1.7
-10 -4 -4 3.2 1
-10 -4 -4 4.5 2.1
-10 4 -4 2.9 0.9
-10 4 -4 3.1 1.3
-10 4 -4 2.7 1.7
-11 -4 -4 23.2 1.9
-11 4 -4 18.4 2.7
-11 4 -4 20 2.3
-12 -4 -4 1.5 1.1
-12 4 -4 1 2
-12 4 -4 0 1.3
-13 -4 -4 28.5 2.3
-13 4 -4 18.1 2.5
-13 4 -4 22.1 3.6
-14 -4 -4 21 2.4
-14 4 -4 21.3 3.9
-14 4 -4 14.9 2.8
-15 4 -4 25 3.5
-15 4 -4 29.9 5
-16 4 -4 3.4 3.3
-16 -5 4 1.9 1.9
-16 5 4 -0.9 4.3
-16 5 4 -1 4.1
-15 -5 4 4.3 3.8
-15 -5 4 -0.4 1.7
-15 5 4 0.8 3.4
-14 -5 4 16.3 2.2
-14 -5 4 10.2 3.5
-14 5 4 19.9 3.7
-14 5 4 23.1 4.3
-13 -5 4 6 2.9
-13 -5 4 20.6 2.7
13 5 -4 9.9 3.7
-13 5 4 17.1 2.9
-13 5 4 13.5 3.5
-12 -5 4 0.5 2.1
-12 -5 4 -0.9 1
-12 5 4 -1.9 2.1
-12 5 4 0.5 1.5
-11 -5 4 -1.1 2
-11 -5 4 -0.8 1.1
-11 5 4 1.5 1.3
-11 5 4 -2 1.9
10 -5 -4 -3.3 4.3
-10 -5 4 -1.5 1.6
-10 5 4 2.6 2
-10 5 4 0.5 1.3
9 -5 -4 9.5 3.2
-9 -5 4 8.8 2.3
9 5 -4 5.7 3
8 -5 -4 11.2 1.4
8 -5 -4 10.3 2.5
-8 -5 4 13.3 2.4
-8 5 4 8.5 1.3
-8 5 4 7.2 2
8 5 -4 11.1 2.5
-7 -5 4 2.9 1.7
7 -5 -4 0.9 0.9
7 -5 -4 1.1 1.7
-7 -5 4 2.1 1.5
-7 -5 4 0.6 1
-7 5 4 1.3 1.5
-7 5 4 2.5 1.4
-7 5 4 1.3 0.9
7 5 -4 1.7 1.8
-6 -5 4 24 2.3
6 -5 -4 27.3 1.9
-6 -5 4 27.7 2.5
6 -5 -4 28.2 2.9
-6 5 4 25.6 1.8
6 5 -4 16.7 2.9
-6 5 4 28.6 2.5
-6 5 4 23.2 2.4
6 5 -4 25 1.4
5 -5 -4 8.9 1.7
-5 -5 4 8.3 1.6
-5 -5 4 5.6 1.3
-5 -5 4 6 1.9
5 -5 -4 7.3 1.2
5 5 -4 7.2 0.8
5 5 -4 6.3 1.6
-5 5 4 8.3 1
-5 5 4 7.4 1.3
-5 5 4 6.8 1.5
4 -5 -4 114.89 5.8
-4 -5 4 125.89 5.7
-4 -5 4 112.79 5.7
4 -5 -4 115.59 5.4
-4 -5 4 116.39 6
-4 5 4 122.69 5.9
-4 5 4 112.99 5.7
-4 5 4 105.89 5.5
4 5 -4 114.49 4.9
4 5 -4 114.49 5.9
-4 5 4 113.29 5
3 -5 -4 3.9 1.1
-3 -5 4 2.9 1.9
-3 -5 4 4 1.1
-3 -5 4 5.3 1.3
3 -5 -4 6.5 1.1
3 5 -4 3.6 1.1
-3 5 4 3.9 1
-3 5 4 3.6 0.6
-3 5 4 4 1.2
3 5 -4 4.6 0.7
-3 5 4 3.7 1.3
2 -5 -4 92.69 4.5
-2 -5 4 93.29 5.5
-2 -5 4 86.09 4.6
2 -5 -4 92.59 4.4
-2 -5 4 90.09 4.3
2 5 -4 85.39 3.9
-2 5 4 93.19 4.8
-2 5 4 83.29 4.4
-2 5 4 87.49 4.3
-2 5 4 84.29 3.8
1 -5 -4 471.25 18.6
1 -5 -4 455.85 18.5
-1 -5 4 440.16 18.8
1 -5 -4 429.36 18.5
1 -5 -4 468.25 18.6
-1 -5 4 431.56 18.4
-1 5 4 465.55 19
-1 5 4 422.56 17.9
1 5 -4 441.86 18.2
-1 5 4 449.56 18.3
0 -5 -4 255.57 10.3
0 -5 4 243.68 10.7
0 -5 4 249.97 10.3
0 -5 -4 223.08 10.2
0 5 -4 241.88 10.1
0 5 4 246.68 10.6
0 5 -4 243.38 10.1
0 5 4 250.37 10.2
-1 -5 -4 90.89 4.3
1 -5 4 88.19 4.5
-1 -5 -4 93.29 4.5
1 5 4 86.29 4.7
-1 5 -4 89.09 4
1 5 4 85.59 4.4
-1 5 -4 87.49 4
-2 -5 -4 51.79 3
-2 -5 -4 45.8 2.2
2 5 4 51.49 2.9
-2 5 -4 51.59 2.5
-2 5 -4 51.89 2.6
2 5 4 50.79 3.2
-3 -5 -4 11.3 2
3 5 4 12.2 1.7
3 5 4 11.1 1.6
-3 5 -4 11.9 1.2
3 5 4 12.7 1.5
-3 5 -4 13 1.7
-3 5 -4 11.5 1.2
-4 -5 -4 413.86 17.3
4 5 4 416.36 17.2
-4 5 -4 398.86 16.3
4 5 4 431.56 17
-4 5 -4 414.86 16.7
-4 5 -4 416.96 16.7
-4 5 -4 353.16 16.4
-5 -5 -4 144.29 6.3
-5 -5 -4 157.98 7.4
-5 5 -4 152.18 6.7
5 5 4 145.99 7.2
5 5 4 148.29 7.1
-5 5 -4 154.08 7.3
5 5 4 162.68 7.2
-5 5 -4 163.38 6.8
-6 -5 -4 294.67 12.7
-6 -5 -4 257.87 11.7
6 -5 4 287.77 12.2
-6 -5 -4 260.57 11.4
6 5 4 277.87 12.1
-6 5 -4 278.87 12.5
-6 5 -4 293.17 11.7
-6 5 -4 289.67 11.8
6 5 4 283.47 13
-7 -5 -4 41.3 2.3
-7 -5 -4 44.4 3.5
-7 -5 -4 40 2.1
7 5 4 44 2.7
-7 5 -4 39.7 3.2
-7 5 -4 41.4 2.5
-7 5 -4 44.4 2.4
7 5 4 39.4 4
-8 -5 -4 3.4 1.9
-8 -5 -4 3.8 1.1
-8 -5 -4 2.7 0.7
-8 5 -4 0.8 1.5
-8 5 -4 4.3 1.2
-8 5 -4 3.2 0.9
-9 -5 -4 9 1.1
-9 -5 -4 10.1 2.4
-9 -5 -4 10.3 1.6
-9 5 -4 13.9 2.4
-9 5 -4 11 1.4
-9 5 -4 10.6 2.9
-10 -5 -4 5.9 2.4
-10 -5 -4 9.9 1.3
-10 5 -4 10.8 1.3
-10 5 -4 5.5 2
-10 5 -4 9.9 1.7
-11 -5 -4 42.2 2.6
-11 -5 -4 43.2 4.3
-11 5 -4 36.2 3.9
-11 5 -4 46.4 3.2
-11 5 -4 37.7 3.1
-12 -5 -4 15.9 1.9
-12 5 -4 17.3 2.5
-12 5 -4 20.3 3.5
-13 5 -4 11.9 2.6
-13 5 -4 10.8 3.2
-14 5 -4 -2.4 2.7
-14 5 -4 -1.4 2.9
-15 5 -4 1.7 3.2
-15 5 -4 0.2 3.7
-16 5 -4 -4.3 8
-16 5 -4 6.6 3.8
-16 -6 4 0.8 2.3
-16 6 4 1.9 3.6
-16 6 4 -0.5 4.8
-15 -6 4 0 1.8
-15 6 4 -7.9 3.9
-15 6 4 -5.4 3.7
-14 -6 4 0.8 3.8
-14 -6 4 0.2 1.4
-14 6 4 -2.8 3.3
14 6 -4 -10 4.8
-14 6 4 -1.4 3
-13 -6 4 19.4 3.7
-13 -6 4 26.7 2.7
-13 6 4 36.4 3.7
-13 6 4 18.6 3.9
-12 -6 4 108.59 5.6
-12 6 4 126.79 10.5
-12 6 4 109.39 6
-11 -6 4 129.69 7.9
-11 -6 4 142.99 6.7
-11 6 4 134.59 8.1
-11 6 4 142.39 6.8
-10 -6 4 66.99 5.2
-10 6 4 68.89 5.2
-10 6 4 71.49 4
10 6 -4 41.6 7.6
9 -6 -4 200.28 11.3
-9 -6 4 197.48 9.9
-9 6 4 187.98 8.6
9 6 -4 190.78 11.3
-9 6 4 181.58 9.7
-8 -6 4 135.79 7.2
8 -6 -4 122.29 8.4
-8 6 4 125.99 6
-8 6 4 127.19 7
8 6 -4 127.89 7.9
-7 -6 4 151.48 7.5
-7 -6 4 143.19 6.7
-7 -6 4 142.09 7.2
7 -6 -4 141.69 7.8
7 6 -4 136.29 8
-7 6 4 139.09 6.4
-7 6 4 136.99 7.4
-6 -6 4 55.69 3.3
-6 -6 4 47 3.5
-6 -6 4 48 3.4
6 -6 -4 42.9 3.8
-6 6 4 50.59 3.6
6 6 -4 49.8 2.4
-6 6 4 50.09 2.7
6 6 -4 53.99 4.2
-6 6 4 48.6 3.5
-5 -6 4 20.9 2.2
5 -6 -4 18.1 2.5
-5 -6 4 16.8 2.3
5 6 -4 16 1.2
-5 6 4 18.8 2.4
-5 6 4 18 2.2
-5 6 4 19.2 2.3
5 6 -4 11.3 2
-4 -6 4 97.69 5.5
-4 -6 4 109.79 5.4
4 -6 -4 102.89 5.6
-4 6 4 98.39 5.5
-4 6 4 103.19 5.3
4 6 -4 108.79 6.6
4 6 -4 105.09 4.6
-4 6 4 102.89 4.6
-4 6 4 106.39 5.3
3 -6 -4 116.69 5.9
-3 -6 4 113.89 5.6
-3 -6 4 123.79 6.1
-3 6 4 110.39 5.8
3 6 -4 116.69 5.1
-3 6 4 112.29 5
-3 6 4 117.59 6.1
-3 6 4 124.69 5.7
2 -6 -4 28.8 2.4
-2 -6 4 27.8 2.1
-2 -6 4 29.4 2.6
-2 6 4 27.7 1.4
-2 6 4 27.7 2.1
-2 6 4 24.8 2.6
2 6 -4 28.4 1.7
-1 -6 4 6.2 1.4
1 -6 -4 6.4 1.2
-1 -6 4 5.6 1.1
1 6 -4 5.4 0.9
-1 6 4 5 0.5
-1 6 4 5.3 1.2
-1 6 4 7.7 1.1
-1 6 4 8.2 1.6
0 -6 4 2.1 0.9
0 -6 -4 1.9 1.5
0 -6 4 1.6 1
0 -6 -4 1.9 0.8
0 6 4 1 0.8
0 6 4 1.5 1.2
0 6 -4 2.2 0.8
-1 -6 -4 601.04 23.8
1 -6 4 607.14 24.7
1 -6 4 589.44 24.2
-1 -6 -4 609.14 23.8
-1 -6 -4 598.54 24.6
-1 -6 -4 565.24 24
-1 6 -4 607.84 24.1
1 6 4 584.14 24.7
-1 6 -4 582.74 23.9
1 6 4 564.74 24.4
-2 -6 -4 861.41 33.6
-2 -6 -4 819.52 34.2
-2 6 -4 838.52 33.7
2 6 4 832.02 34.4
-2 6 -4 841.12 33.6
2 6 4 811.22 34.1
-3 -6 -4 1748.93 68.09
-3 -6 -4 1490.45 67.09
3 6 4 1774.82 68.09
3 6 4 1641.04 67.79
3 6 4 1711.53 67.99
-3 6 -4 1730.53 67.29
-4 -6 -4 784.82 32.1
-4 6 -4 797.82 31.4
4 6 4 781.92 32
-4 6 -4 779.72 32.1
-4 6 -4 808.02 31.4
4 6 4 727.23 31.8
-4 6 -4 733.83 31.1
4 6 4 789.92 32
-5 -6 -4 362.06 16.4
5 -6 4 402.16 16.2
-5 -6 -4 377.66 15.1
5 6 4 380.26 16.1
-5 6 -4 378.36 15.6
-5 6 -4 379.16 15.6
5 6 4 364.76 16.2
-5 6 -4 358.56 16.3
-6 -6 -4 16 1.2
-6 -6 -4 16.4 2.3
6 -6 4 21.3 2.5
-6 6 -4 13.8 1.6
6 6 4 16.6 2
-6 6 -4 19.8 1.6
-6 6 -4 21.2 2.3
6 6 4 18.1 2.3
-7 -6 -4 6.4 2
-7 6 -4 6.7 1.3
-7 6 -4 6.1 1.2
-7 6 -4 7.1 1.9
7 6 4 4.8 1.9
-8 -6 -4 12.5 2.5
-8 6 -4 10.9 2.4
-8 6 -4 8.9 1.5
-8 6 -4 7.4 1.3
-9 -6 -4 92.09 5.9
-9 6 -4 78.69 5.4
-9 6 -4 91.19 4.7
-9 6 -4 87.29 4.3
-10 -6 -4 149.09 8.4
-10 6 -4 124.49 6.8
-10 6 -4 151.08 6.5
-10 6 -4 151.38 8.1
-11 -6 -4 40.9 4.5
-11 6 -4 40.7 4.2
-11 6 -4 40.9 2.5
-11 6 -4 41.8 3.2
-12 -6 -4 47.5 5
-12 6 -4 42 4.6
-13 6 -4 20.7 3
-13 6 -4 19.1 3.8
-14 6 -4 4.5 3.6
-14 6 -4 9.6 3.3
-15 6 -4 8.1 5.1
-15 6 -4 1.2 4.8
-15 -7 4 8.1 2.2
-15 7 4 17.6 4.3
-15 7 4 17.6 9.2
-14 -7 4 24 2.7
-14 7 4 26.7 4
-14 7 4 19.3 5
-13 -7 4 19.3 4
-13 -7 4 21.3 2.5
-13 7 4 18.6 3.1
-13 7 4 12.6 3.7
-12 -7 4 1 1.2
-12 -7 4 -2.2 4.7
-12 7 4 2.3 2.6
-11 -7 4 0.2 1.1
-11 -7 4 0.2 2.2
-11 7 4 0.3 2.2
-11 7 4 -0.7 1.7
-11 7 4 -1 1.3
-10 -7 4 3.3 2.3
-10 7 4 0.2 1.2
-10 7 4 1.8 2
9 -7 -4 21.5 5.3
-9 -7 4 19.4 3.2
-9 7 4 19 3.1
9 7 -4 30.9 5.6
-9 7 4 22.9 2.2
8 -7 -4 128.99 8.9
-8 -7 4 159.08 10
8 7 -4 109.89 10.3
-8 7 4 134.69 6.3
-8 7 4 145.39 7.6
-7 -7 4 279.47 12.7
-7 -7 4 266.37 11.7
7 -7 -4 262.77 13.1
-7 7 4 283.57 11.5
7 7 -4 261.17 13.1
-7 7 4 264.27 12.5
6 -7 -4 359.26 16.4
-6 -7 4 329.07 14.3
-6 -7 4 294.47 14.1
-6 -7 4 313.57 13.7
-6 7 4 316.97 14.4
6 7 -4 306.67 12.9
-6 7 4 304.27 14.1
6 7 -4 293.17 14.9
-6 7 4 323.77 13.2
-5 -7 4 232.58 10.2
-5 -7 4 220.58 10.1
5 -7 -4 201.68 10.2
-5 -7 4 220.58 10.9
5 7 -4 214.28 9
5 7 -4 200.88 10.3
-5 7 4 223.18 10
-5 7 4 207.68 9.1
-5 7 4 213.08 10.3
-4 -7 4 495.25 20.2
-4 -7 4 461.65 20.1
4 -7 -4 471.05 20.4
-4 -7 4 471.75 20.3
4 7 -4 463.45 19.3
-4 7 4 468.05 19.3
-4 7 4 497.75 20.7
-4 7 4 472.15 20.1
-3 -7 4 694.73 27.8
-3 -7 4 659.63 28.1
3 -7 -4 667.73 27.9
-3 7 4 674.83 27.7
3 7 -4 682.73 27.2
-3 7 4 662.53 26.9
-3 7 4 639.24 28.1
2 -7 -4 351.06 15.5
-2 -7 4 341.17 15.6
2 -7 -4 374.26 15.6
-2 -7 4 374.46 15.4
-2 7 4 344.17 15.8
-2 7 4 365.46 15.6
-2 7 4 378.36 15.2
-2 7 4 345.87 14.5
2 7 -4 357.46 14.8
-1 -7 4 474.45 19.1
-1 -7 4 450.45 19.5
1 -7 -4 470.75 20.4
1 -7 -4 452.05 19.1
-1 7 4 449.16 19.3
-1 7 4 407.26 18.3
1 7 -4 463.05 18.6
-1 7 4 458.15 19.7
-1 7 4 478.15 18.9
0 -7 -4 501.85 21.3
0 -7 4 506.85 21.9
0 -7 4 534.95 21.4
0 7 4 525.35 22
0 7 4 488.95 21.6
0 7 -4 532.65 21
-1 -7 -4 331.47 12.8
1 -7 4 292.57 13.6
-1 -7 -4 301.77 12.7
-1 -7 -4 306.77 13.5
1 -7 4 315.77 13.1
-1 7 -4 315.07 12.7
1 7 4 288.37 13.4
-1 7 -4 315.07 12.8
1 7 4 296.07 13.7
-2 -7 -4 75.69 4.3
2 -7 4 70.99 4.4
-2 7 -4 77.29 3.5
-2 7 -4 68.99 3.6
2 7 4 71.39 4.4
-3 -7 -4 3.1 1.6
-3 7 -4 3.5 1
-3 7 -4 3.8 0.9
3 7 4 2 1.3
4 -7 4 105.79 5.5
-4 -7 -4 77.39 5.3
-4 7 -4 111.69 4.8
-4 7 -4 105.69 4.7
4 7 4 98.59 6.6
5 -7 4 342.57 14.3
-5 -7 -4 309.37 14.3
-5 7 -4 314.77 13.4
5 7 4 283.67 13.9
-5 7 -4 334.57 13.4
-5 7 -4 316.67 14.2
5 7 4 322.27 15
-6 -7 -4 600.34 26.8
6 -7 4 653.53 26.8
6 7 4 621.94 26.9
-6 7 -4 603.14 26.7
6 7 4 625.24 26.4
-6 7 -4 659.63 25.9
-6 7 -4 653.23 25.9
-7 -7 -4 446.86 20.2
-7 7 -4 468.05 19
-8 -7 -4 800.32 34.5
-8 7 -4 822.72 33.3
-9 -7 -4 322.57 15.3
-9 7 -4 322.77 13.9
-9 7 -4 314.37 14.9
-10 -7 -4 53.59 4.8
-10 7 -4 48 4.4
-10 7 -4 46.7 3.4
-10 7 -4 50.09 3
-11 -7 -4 7.2 3.1
-11 7 -4 8.3 1.3
-11 7 -4 15.4 2.3
-11 7 -4 11.6 3
-12 -7 -4 0.7 3
-12 7 -4 -0.1 2.2
-12 7 -4 0 2.5
-13 7 -4 0.9 2.8
-13 7 -4 0.5 3.1
-14 7 -4 -0.7 3.3
-14 7 -4 -4.9 3.5
-15 7 -4 2.4 4.2
-15 8 4 1.1 4.9
-15 8 4 -0.3 3.4
-14 8 4 2.6 3.1
14 8 -4 3.3 5.3
-14 8 4 3.9 4
-13 -8 4 29.7 2.8
-13 -8 4 33.4 8.6
-13 8 4 39.9 4
-13 8 4 28.7 4.9
-12 -8 4 9.7 1.6
-12 -8 4 7.7 3.2
-12 8 4 11.9 3.5
-12 8 4 12.9 2.5
-11 -8 4 104.59 5.3
-11 -8 4 112.69 7.2
-11 -8 4 71.09 9.8
-11 8 4 114.69 5.2
-11 8 4 112.09 5.7
-11 8 4 94.69 7.4
-10 -8 4 114.59 7.6
-10 8 4 125.89 6
-10 8 4 115.09 7.3
-9 -8 4 100.79 6.7
-9 8 4 102.89 6.5
-9 8 4 101.39 5.1
-8 -8 4 -0.1 1.7
8 -8 -4 -0.1 4.6
8 8 -4 -0.7 6.5
-8 8 4 -0.8 1.6
-8 8 4 0.3 0.9
-7 -8 4 6.4 2.1
7 -8 -4 8.6 4.9
-7 -8 4 4.8 1.9
7 8 -4 5.6 3.4
-7 8 4 4.5 1.1
6 -8 -4 5 2.7
-6 -8 4 4.8 2
-6 -8 4 4.5 2
6 8 -4 4 2.7
-6 8 4 8.4 2.1
6 8 -4 3.9 1
-6 8 4 3.3 1
-5 -8 4 74.99 4.7
-5 -8 4 69.79 4.7
5 -8 -4 78.79 5.4
-5 -8 4 80.99 5.4
5 8 -4 74.19 3.6
-5 8 4 81.19 4
-5 8 4 67.79 5.6
-5 8 4 72.59 4.6
-4 -8 4 142.99 7.2
-4 -8 4 146.19 7.5
-4 -8 4 141.59 7.4
-4 8 4 134.99 7.6
-4 8 4 140.29 6.1
4 8 -4 134.59 6.2
-4 8 4 148.79 7.1
-3 -8 4 119.59 6.7
-3 -8 4 125.99 6.3
-3 -8 4 121.29 7.2
-3 8 4 127.29 6.1
-3 8 4 118.59 6.7
3 8 -4 121.79 5.5
-3 8 4 119.29 5.2
2 -8 -4 160.68 8
-2 -8 4 165.28 7.8
2 -8 -4 167.28 8.2
-2 -8 4 168.18 8.4
-2 -8 4 164.28 8.1
-2 8 4 162.58 6.8
2 8 -4 160.68 7.2
-2 8 4 169.78 7.7
-2 8 4 167.18 8.4
-1 -8 4 25.7 3.2
-1 -8 4 28.8 2.5
1 -8 -4 25 2.7
1 -8 -4 33 3.2
-1 -8 4 33.1 3
-1 8 4 35.5 3.1
1 8 -4 32.3 2
0 -8 -4 5.4 1.4
0 -8 -4 8.1 1.8
0 -8 4 10.8 1.6
0 -8 4 11.3 2.5
0 8 -4 10.7 1.4
0 8 4 7.5 1.9
-1 -8 -4 1.6 1.4
1 -8 4 1.5 1.3
1 -8 4 1.3 1.6
-1 -8 -4 -0.2 0.9
1 -8 4 0.2 1
-1 -8 -4 2.3 1.6
-1 8 -4 2.2 1
1 8 4 1.7 1.4
2 -8 4 141.89 7.1
2 -8 4 133.49 7.3
-2 -8 -4 136.59 7
2 8 4 127.69 7
-2 8 -4 133.59 6.1
-2 8 -4 139.69 6
3 -8 4 400.46 17.9
3 -8 4 386.86 18.1
-3 -8 -4 418.96 18
-3 8 -4 441.86 17.2
3 8 4 401.46 18
-3 8 -4 416.36 17
-4 -8 -4 411.76 18.1
4 -8 4 412.26 18.1
-4 8 -4 413.66 17
4 8 4 397.56 17.9
-4 8 -4 417.76 17.1
5 -8 4 236.68 11.2
-5 -8 -4 217.18 10.9
-5 8 -4 226.48 9.9
-5 8 -4 237.88 10
5 8 4 225.88 10.7
-6 -8 -4 11.8 3.5
-6 8 -4 12.7 2.5
-6 8 -4 13.5 1.7
6 8 4 9.7 2
-7 -8 -4 9 2.4
-7 8 -4 13 1.7
-7 8 -4 13.6 1.7
-7 8 -4 9 2.3
-8 -8 -4 99.99 6.3
-8 8 -4 91.49 4.8
-8 8 -4 84.69 5.7
-8 8 -4 89.49 4.7
-9 -8 -4 142.29 8.3
-9 8 -4 143.49 6.9
-9 8 -4 136.89 8
-9 8 -4 143.99 6.7
-10 -8 -4 83.29 6.2
-10 8 -4 77.89 4.6
-10 8 -4 75.79 4.1
-10 8 -4 73.19 5.7
-11 -8 -4 73.59 6.3
-11 8 -4 79.89 4.1
-11 8 -4 74.79 5.9
-11 8 -4 71.09 5.1
-12 -8 -4 30.4 4.8
-12 8 -4 30.9 3.6
-12 8 -4 21.3 3.8
-13 8 -4 14.2 3.7
-13 8 -4 7.3 3.5
-14 9 4 -3.5 5.8
14 9 -4 0.1 6.1
-14 9 4 -1.2 3.3
-13 9 4 -5.6 4.5
-13 9 4 -0.9 2.7
-12 -9 4 -0.5 3.5
-12 9 4 2.7 3.4
-12 9 4 -0.1 2.2
-11 -9 4 0.9 1.3
-11 -9 4 2.7 2.9
-11 -9 4 0.9 3
-11 9 4 1.7 1.7
-11 9 4 2.5 1.4
-11 9 4 -0.4 2.8
-10 -9 4 24.6 4.2
-10 -9 4 26.8 2.3
-10 9 4 23.3 5.4
-10 9 4 25.5 2.5
-9 -9 4 1.5 2.4
-9 9 4 2.8 2.3
-9 9 4 1.3 1.1
-8 -9 4 1.4 2
-8 9 4 2.7 1
-8 9 4 2.8 2.1
7 -9 -4 11.9 5
-7 -9 4 9.3 2.3
-7 9 4 14.3 2.7
-7 9 4 14.6 2.4
-6 -9 4 51.19 5.3
-6 -9 4 42.9 4.5
6 -9 -4 45.8 6.3
6 9 -4 35.7 2.3
-6 9 4 37.1 2.4
-5 -9 4 213.18 10.3
5 -9 -4 210.78 13.6
-5 -9 4 216.78 10.2
-5 9 4 209.88 8.9
5 9 -4 203.28 9
-5 9 4 203.78 10
-4 -9 4 242.48 11.4
-4 -9 4 243.68 11.5
4 -9 -4 233.88 11.9
4 -9 -4 243.48 12.1
4 9 -4 229.88 10.3
-4 9 4 263.77 12.1
-4 9 4 240.28 11.1
3 -9 -4 80.89 5.7
-3 -9 4 78.19 5.3
3 -9 -4 76.49 5.4
-3 -9 4 70.89 5.7
-3 -9 4 87.39 4.9
-3 9 4 84.39 4.6
-3 9 4 83.59 5.4
3 9 -4 79.39 3.9
-3 9 4 74.79 3.6
2 -9 -4 14.9 2.3
-2 -9 4 18.2 2.3
-2 -9 4 13.6 2.3
2 -9 -4 15.6 2.6
-2 -9 4 14.1 2.7
-2 9 4 16.7 2.7
2 9 -4 16.1 1.6
-1 -9 4 74.09 5.9
1 -9 -4 71.39 4.6
-1 -9 4 78.09 4.4
-1 -9 4 73.69 5.1
1 -9 -4 68.19 5.5
-1 9 4 68.59 4.8
1 9 -4 67.19 3.6
0 -9 4 21.1 2.3
0 -9 -4 24.8 2.7
0 -9 -4 19.3 2.7
0 -9 -4 26.4 2.7
0 -9 4 20.7 3.1
0 -9 4 23.2 3.3
0 9 -4 22.1 1.8
0 9 4 17 4.5
1 -9 4 19.9 2.2
1 -9 4 22.8 3
-1 -9 -4 23.8 2.2
-1 -9 -4 26.7 2.3
-1 -9 -4 24.7 2.8
1 -9 4 19.6 2.7
-1 9 -4 23.8 1.9
1 9 4 24 4.4
-2 -9 -4 20.7 2.7
2 -9 4 21.1 2.2
2 -9 4 17.1 3.1
2 -9 4 18.3 2.7
-2 9 -4 21 1.9
2 9 4 27.3 4.9
-2 9 -4 20 1.7
3 -9 4 14.3 2.8
-3 -9 -4 12.6 2.4
3 -9 4 12.1 2.8
-3 9 -4 13.6 1.6
3 9 4 12.8 2.6
-3 9 -4 13.3 1.5
-4 -9 -4 3.2 1.8
4 -9 4 0.9 2.3
4 -9 4 -2.5 2.4
4 9 4 1.6 2.7
-4 9 -4 6 1.1
-5 -9 -4 7.7 2.3
-5 9 -4 13.7 1.7
-6 -9 -4 8.2 2.3
-6 9 -4 9.9 1.7
-6 9 -4 8.3 1.6
-7 -9 -4 102.39 6.5
-7 9 -4 95.59 5.1
-7 9 -4 100.99 5.1
-8 -9 -4 -0.9 2
-8 9 -4 0.4 1.9
-8 9 -4 2.2 1.2
-8 9 -4 1.4 1.3
-9 -9 -4 -0.2 2.4
-9 9 -4 0.5 1.1
-9 9 -4 -0.6 2
-9 9 -4 1.5 1.4
-10 -9 -4 10.7 3.4
-10 9 -4 7.6 2.8
-10 9 -4 13.5 2.9
-10 9 -4 9.9 1.7
-11 -9 -4 3.6 3.2
-11 9 -4 7 3
-11 9 -4 7.2 1.5
-11 9 -4 6.4 2.6
-12 -9 -4 7.5 4.8
-12 9 -4 9.5 3.2
-13 9 -4 5.4 3.9
-14 9 -4 6.7 3.8
-14 10 4 0.6 5.5
-13 10 4 7.8 3.2
-13 10 4 13.3 4.8
-12 10 4 14.2 2.9
-12 10 4 14 4.4
-11 -10 4 34 5.1
-11 -10 4 48.1 6
-11 10 4 39.1 5.2
-11 10 4 38.7 3.6
-11 10 4 41.2 3
-10 -10 4 20.5 3.9
-10 10 4 19.5 3.5
-9 -10 4 7.7 3
-9 10 4 3.7 2.4
-9 10 4 7.9 1.5
-8 -10 4 18.8 3.3
-8 10 4 10.9 1.6
-8 10 4 14.2 2.9
-7 -10 4 2.4 2.2
-7 10 4 0.9 1.2
-7 10 4 2.4 2
-6 -10 4 11.8 3.7
-6 -10 4 22.7 3.4
-6 10 4 17.7 1.7
6 10 -4 18 1.7
-6 10 4 17.6 2.7
-5 -10 4 3.2 2
-5 -10 4 6.8 3.3
5 -10 -4 7.1 4.3
-5 10 4 4.4 2.2
-5 10 4 6.6 1
5 10 -4 5 1.1
-4 -10 4 0.1 1.6
4 -10 -4 4.4 3.3
-4 -10 4 0.1 2.8
4 10 -4 -0.2 0.8
-4 10 4 0.2 0.7
-4 10 4 -0.4 1.5
3 -10 -4 101.19 6.9
-3 -10 4 90.89 6.6
-3 -10 4 102.39 5.9
3 10 -4 96.19 4.8
-2 -10 4 301.27 15.8
-2 -10 4 286.57 13
2 -10 -4 272.97 13.3
2 10 -4 282.07 12.1
-2 10 4 282.17 13.8
-1 -10 4 180.28 9.7
1 -10 -4 188.48 9.3
1 -10 -4 191.18 9.4
-1 -10 4 192.78 9.1
-1 10 4 180.38 9.8
1 10 -4 187.18 8.3
0 -10 4 85.59 5
0 -10 -4 86.69 5.4
0 -10 4 77.99 6.7
0 -10 4 83.09 6
0 -10 -4 88.19 5.2
0 10 4 88.39 5.7
0 10 -4 79.19 4.7
-1 -10 -4 58.39 4.5
1 -10 4 47.6 4.9
1 -10 4 39.4 5.5
1 -10 4 43 3.4
-1 10 -4 43.8 2.8
1 10 4 43.5 4
2 -10 4 116.19 7.8
2 -10 4 105.49 6
2 -10 4 122.29 7.5
-2 -10 -4 95.59 6.7
2 10 4 110.29 6.7
-2 10 -4 120.29 5.5
3 -10 4 171.48 9.9
-3 -10 -4 165.48 8.9
3 -10 4 166.08 8.3
-3 10 -4 204.58 8.8
3 10 4 155.68 8.9
-3 10 -4 165.08 7.6
4 -10 4 25.7 4.8
-4 -10 -4 44.5 3.9
-4 10 -4 38.5 2.8
-4 10 -4 41.8 2.6
-5 -10 -4 15.2 2.8
-5 10 -4 18.5 1.9
-5 10 -4 20.3 2.2
-6 -10 -4 5.6 2.4
-6 10 -4 4 1.4
-6 10 -4 3.9 1.2
-7 -10 -4 130.29 8.1
-7 10 -4 138.49 6.6
-7 10 -4 140.59 6.7
-8 -10 -4 91.29 6.7
-8 10 -4 91.69 5
-8 10 -4 93.59 5
-9 10 -4 22.2 2.5
-9 10 -4 29.1 3
-10 -10 -4 4 3.3
-10 10 -4 1.8 1.5
-10 10 -4 0.9 2.1
-11 -10 -4 7.3 3.9
-11 10 -4 2.5 1.5
-11 10 -4 0.3 2.8
-12 -10 -4 2.5 4
-12 10 -4 7.9 3.5
-13 10 -4 14.5 4.2
-13 11 4 0.7 5.1
-13 11 4 2.7 3
-12 11 4 0.2 2.7
-12 11 4 -2.8 3.8
-11 -11 4 2.6 4.2
-11 11 4 3.4 2.1
-11 11 4 4.9 1.7
-11 11 4 2.9 3.5
-10 -11 4 3.5 3.5
-10 11 4 3.8 1.7
-10 11 4 3.4 1.6
-10 11 4 8.2 3.6
-9 -11 4 2.2 3.1
-9 11 4 -1.4 2.6
-8 -11 4 3 4
-8 11 4 1.5 1.1
-7 -11 4 67.49 5.6
-7 11 4 71.29 3.8
-7 11 4 78.59 5.5
-6 -11 4 74.39 5.4
6 11 -4 53.79 3.6
-6 11 4 69.19 3.7
-6 11 4 71.09 4.9
-5 -11 4 67.99 5.2
-5 11 4 66.19 4.7
-4 -11 4 26.2 3.3
-3 -11 4 70.09 4.9
3 11 -4 70.39 4.4
2 -11 -4 3.5 3.8
-2 -11 4 3.4 4.6
2 -11 -4 8.1 2.3
2 11 -4 9 1.5
1 -11 -4 -3 3.3
-1 -11 4 0.2 1.5
1 -11 -4 0.3 1.9
1 11 -4 1.1 1.1
0 -11 -4 18.1 3.1
0 -11 4 19 2.8
0 -11 -4 20.6 3.1
0 -11 4 11.1 4
0 11 -4 17.3 2
1 -11 4 7.6 3.9
-1 -11 -4 1.3 1.9
1 -11 4 -0.4 1.5
-1 11 -4 0 1.1
2 -11 4 2.9 1.7
2 -11 4 6.7 4.2
-2 -11 -4 3.1 2.1
-2 11 -4 -0.4 1
-3 -11 -4 5.2 2.3
3 -11 4 10.3 4.8
3 -11 4 10.5 2.5
-3 11 -4 7.7 1.5
-4 -11 -4 15.6 3.1
4 -11 4 11.9 2.4
-4 11 -4 7.9 1.4
-4 11 -4 10.8 1.9
-5 -11 -4 1.9 2.1
-5 11 -4 1.4 1.4
-5 11 -4 2.5 1.1
-6 -11 -4 51.49 4.7
-6 11 -4 44.4 3
-6 11 -4 44.9 3.3
-7 -11 -4 19.3 3.9
-7 11 -4 18.1 2.4
-7 11 -4 20 2.2
-8 -11 -4 3.4 2.8
-8 11 -4 3.8 1.9
-9 -11 -4 77.99 6.6
-9 11 -4 70.89 4.7
-9 11 -4 65.09 4.3
-10 -11 -4 19 4.7
-10 11 -4 10.9 2.7
-10 11 -4 10.7 2
-11 -11 -4 9 6.3
-11 11 -4 10.5 1.9
-11 11 -4 6.4 3.3
-12 -11 -4 3 5.5
-12 11 -4 3.6 3.5
-12 12 4 1.7 5.2
-11 -12 4 1.6 5.2
-11 12 4 -0.1 1.6
-11 12 4 3.8 4.5
-11 12 4 -0.3 2.3
-10 -12 4 1.4 4.6
-10 12 4 0.4 1.6
-10 12 4 -1.6 1.8
-10 12 4 0.7 4
-9 -12 4 2 3.4
-9 12 4 1.7 2.1
-9 12 4 -0.1 3.1
-8 -12 4 1.9 3
-8 12 4 0.3 2.5
-7 -12 4 -0.1 2.6
-6 -12 4 -0.5 2.3
6 12 -4 0.4 1.1
-5 -12 4 1.7 2.2
5 12 -4 3.5 1.1
-4 -12 4 17.8 3.2
4 12 -4 13.7 1.7
-3 -12 4 30.9 3.8
3 -12 -4 29.5 3.6
3 12 -4 27.9 2.4
-2 -12 4 2.6 2.1
2 -12 -4 2.1 2
2 12 -4 3.1 1.3
-1 -12 4 15 2.8
1 -12 -4 10.2 2.5
1 12 -4 15.2 2
0 -12 4 62.89 4.6
0 -12 -4 71.49 5.2
0 12 -4 55.29 3.7
-1 -12 -4 13.3 2.9
1 -12 4 16.3 2.7
-1 12 -4 18.5 2.3
2 -12 4 26 3.3
-2 -12 -4 21 3.4
-2 12 -4 27.9 2.6
-3 -12 -4 2.4 2.2
3 -12 4 2.1 2
-3 12 -4 3.7 1.5
-4 -12 -4 3.2 2.4
4 -12 4 6.3 2.4
-4 12 -4 4.7 1.6
5 -12 4 4.4 2.4
-5 -12 -4 12.4 3.3
-5 12 -4 6.9 1.8
-5 12 -4 13.1 1.7
6 -12 4 1 2.5
-6 -12 -4 4.2 3
-6 12 -4 2.3 1.3
-6 12 -4 2.3 1.7
7 -12 4 -0.8 3.4
-7 -12 -4 2.9 3.1
-7 12 -4 7.3 1.9
-7 12 -4 9.6 2.8
-8 -12 -4 -0.3 3
-8 12 -4 1.4 1.9
-8 12 -4 1.8 1.9
-9 -12 -4 0.5 3.5
-9 12 -4 1.5 2.3
-9 12 -4 1.7 1.9
-10 -12 -4 2.6 6.1
-10 12 -4 0.9 2.7
-10 12 -4 2.5 1.9
-11 -12 -4 -2.9 6.2
-11 12 -4 -0.1 3.1
-11 12 -4 -0.6 1.5
-11 13 4 1.8 1.9
-10 -13 4 3.2 5.3
-10 13 4 1.6 1.8
-9 -13 4 4.7 5.2
-9 13 4 -0.4 2
-8 -13 4 5.3 6.3
-7 -13 4 8.3 3.5
-6 -13 4 3.5 3.2
-5 -13 4 36.9 4.8
5 -13 -4 36.1 4.6
5 13 -4 40.2 2.8
-4 -13 4 36 4.6
4 -13 -4 47.7 4.8
4 13 -4 42.1 3
-3 -13 4 48.8 4.7
3 -13 -4 50.79 5.7
3 13 -4 48.8 3.3
-2 -13 4 13.1 2.9
2 -13 -4 14.3 3.1
2 13 -4 11.1 1.8
1 -13 -4 15.4 3.1
-1 -13 4 19.3 3.2
1 13 -4 13.2 2.1
0 -13 -4 42 4.5
0 -13 4 40.7 4.2
0 13 -4 46.2 3.3
-1 -13 -4 27.1 4.1
1 -13 4 19.7 3.2
-1 13 -4 24.2 2.7
2 -13 4 -1.2 2.1
-2 -13 -4 -0.1 2.3
-2 13 -4 0.5 1.5
-3 -13 -4 0.3 2.8
3 -13 4 2.1 2.3
-3 13 -4 -0.4 1.6
4 -13 4 4.5 2.7
-4 -13 -4 4.2 3.1
-4 13 -4 -0.9 3.3
5 -13 4 4.4 4.5
-5 -13 -4 4.2 3
-5 13 -4 5.1 2.2
6 -13 4 21.1 4
-6 -13 -4 17.8 3.9
-6 13 -4 14.4 2.6
-7 -13 -4 12.6 3.8
-7 13 -4 11.6 2
-7 13 -4 8 2.7
-8 -13 -4 8.8 4.7
-8 13 -4 8.4 2.5
-8 13 -4 13.1 2.5
-9 -13 -4 10.8 4.9
-9 13 -4 9.7 2.6
-9 13 -4 12.6 2.9
-10 -13 -4 11.6 6.8
-10 13 -4 5.6 2.3
-10 13 -4 4.4 2.9
-9 -14 4 -4.5 5.5
-9 14 4 3.8 2.4
8 -14 -4 2.4 4.4
-8 -14 4 4 5.1
-8 14 4 2 2.7
-7 -14 4 2.5 4.1
7 -14 -4 5.9 5.8
-6 -14 4 1 4.3
6 -14 -4 4.4 4.3
5 -14 -4 3.2 3.3
-5 -14 4 2.2 3.3
5 14 -4 2.5 1.6
4 -14 -4 1.4 2.9
-4 -14 4 -1.4 3
4 14 -4 1.6 1.6
3 -14 -4 0.5 2.5
-3 -14 4 3.3 3
3 14 -4 0.3 1.7
2 -14 -4 6.7 3
-2 -14 4 7.9 3.1
2 14 -4 7.4 2.1
-1 -14 4 0.6 2.8
1 -14 -4 4.2 3
1 14 -4 3.1 1.9
0 -14 -4 7.9 3.3
0 -14 4 4.9 2.8
0 14 -4 8 2.3
-1 -14 -4 12.4 3.5
1 -14 4 11.8 3.2
-1 14 -4 8.8 2.4
2 -14 4 12.9 3.3
-2 -14 -4 9.7 3.3
-2 14 -4 8.1 2.7
-3 -14 -4 41.2 5.4
-3 14 -4 47.8 4.4
4 -14 4 60.19 6
-4 -14 -4 66.79 6.5
-4 14 -4 73.29 5.3
-5 -14 -4 58.19 6.7
-5 14 -4 42.3 4.7
-6 -14 -4 0 4.3
-6 14 -4 5.3 2.9
-7 -14 -4 -2.7 5.9
-7 14 -4 -0.3 2.8
-8 -14 -4 -0.9 4.4
-8 14 -4 -5 2.8
-9 -14 -4 -1.3 4.9
-9 14 -4 -0.4 2.8
8 -15 -4 0.3 4.7
-8 15 4 4.4 3.3
7 -15 -4 2.7 4.9
-7 -15 4 0 5.9
-7 15 4 -1.3 2.9
6 -15 -4 2.4 4.5
-6 -15 4 -5.1 5
-5 -15 4 1.2 4.4
5 -15 -4 6.2 5
5 15 -4 1.4 2.6
-4 -15 4 5.9 6.9
4 -15 -4 1.2 3.6
4 15 -4 4.8 2.3
-3 -15 4 1.5 8
3 -15 -4 -5.9 6.6
3 15 -4 0.7 2.3
-2 -15 4 -2.6 3.9
2 -15 -4 3.2 3.9
2 15 -4 -0.6 2.5
1 -15 -4 -0.6 3.1
-1 -15 4 -1.3 3.7
1 15 -4 0.7 2.7
0 -15 -4 0.2 3.6
0 -15 4 -4.7 3.8
0 15 -4 1 2.9
1 -15 4 -4.1 4.1
-1 -15 -4 -2.1 3.3
-1 15 -4 1.5 2.8
-2 -15 -4 4 3.9
-2 15 -4 6.3 3.2
-3 -15 -4 8.7 6.3
-3 15 -4 5.2 3.2
-4 -15 -4 1.7 4.7
-4 15 -4 5.6 3.4
-5 -15 -4 -3.2 4
-5 15 -4 1.8 3.6
-6 -15 -4 -1 4.9
-6 15 -4 10.3 5.5
-7 -15 -4 10.5 5.9
-7 15 -4 2.4 3.5
6 -16 -4 -3.1 7.8
-6 16 4 0.5 3.5
5 -16 -4 0.8 5
-5 16 4 2.4 4
4 -16 -4 3.1 5.6
4 16 -4 0.2 2.7
3 -16 -4 -1.6 4.2
3 16 -4 -0.9 2.9
2 -16 -4 -0.3 4.1
2 16 -4 6.4 6.1
1 -16 -4 2.7 4.1
1 16 -4 2.6 3.5
0 -16 -4 18.4 5.2
0 16 -4 14 3.9
-1 16 -4 26.9 4.5
-2 -16 -4 12.3 5
-2 16 -4 23.6 4.7
-3 -16 -4 16.3 5.8
-3 16 -4 16.3 4.2
-4 -16 -4 9.6 5.2
-4 16 -4 8.3 3.9
4 16 4 20.1 3.4
-5 -16 -4 4.8 5.1
-5 16 -4 10.7 4.4
1 -17 -4 11.9 6.7
1 17 -4 4.9 3.7
-1 17 4 1.6 3.9
0 -17 -4 -0.3 5.1
0 17 -4 1.6 4.1
0 17 4 3.7 3.8
-1 -17 -4 -2 5.5
-1 17 -4 2.9 3.7
1 17 4 6.7 4
-17 0 5 0.3 5.7
-17 0 5 -0.4 3.8
-16 0 5 7 4.2
-16 0 5 0.1 3.3
-15 0 5 3.1 3.4
-15 0 5 0.6 2.8
-14 0 5 -0.5 1.9
-14 0 5 -0.3 2.9
-13 0 5 0.3 1.7
-13 0 5 0.5 2.5
12 0 -5 0.4 1.9
-12 0 5 0.7 1.3
-12 0 5 -0.6 2.1
-11 0 5 1.2 2
-11 0 5 -0.2 1.1
11 0 -5 -2.8 1.5
11 0 -5 -1.8 4.5
10 0 -5 2.6 1.4
-10 0 5 -0.9 1
-10 0 5 3.5 1.9
10 0 -5 -3 4.7
-9 0 5 -2.7 1.2
9 0 -5 5.1 2.1
9 0 -5 0.8 1.3
8 0 -5 0 1.4
8 0 -5 0.5 1.1
-8 0 5 -1.1 1.3
-8 0 5 0.1 0.8
7 0 -5 -0.2 1.1
-7 0 5 -0.5 0.5
7 0 -5 -0.6 1
-7 0 5 -1.4 1
-7 0 5 0.5 0.9
6 0 -5 0.4 1
6 0 -5 -0.2 0.9
-6 0 5 0 0.6
-6 0 5 0.6 1
5 0 -5 -0.1 0.9
5 0 -5 -0.7 0.8
-5 0 5 0.3 0.7
-5 0 5 0.6 0.7
4 0 -5 -0.6 0.7
-4 0 5 -0.1 0.7
4 0 -5 0.4 0.9
3 0 -5 0.8 0.9
3 0 -5 1.3 0.7
3 0 -5 0.9 0.4
3 0 -5 0.1 1.1
-3 0 5 0.4 0.7
2 0 -5 0.4 0.6
-2 0 5 0.5 0.6
2 0 -5 0.9 0.8
2 0 -5 0.9 0.7
2 0 -5 0.4 0.4
-1 0 5 -1.8 1.1
-1 0 5 1.4 0.6
1 0 -5 1 0.3
1 0 -5 0.3 0.5
1 0 -5 1 0.8
0 0 5 1.6 0.4
0 0 -5 -0.1 0.8
0 0 -5 -0.1 0.5
0 0 5 1.8 1
1 0 5 0.3 1
-1 0 -5 0.8 0.4
-1 0 -5 0.4 0.5
-1 0 -5 0.7 0.5
-1 0 -5 1.2 0.7
1 0 5 -0.4 0.5
-2 0 -5 0.6 0.5
-2 0 -5 0.6 0.5
2 0 5 0 0.4
2 0 5 0.9 0.6
-2 0 -5 0.1 0.6
-2 0 -5 0.7 0.5
2 0 5 -0.8 0.9
-3 0 -5 -0.1 0.5
-3 0 -5 -0.3 0.5
3 0 5 0 0.7
-3 0 -5 0.1 0.6
-3 0 -5 1.6 0.6
3 0 5 -0.1 0.8
3 0 5 3.5 1.1
-3 0 -5 0.1 0.5
4 0 5 -1.3 1.1
-4 0 -5 0.9 0.5
4 0 5 0.3 1.2
-4 0 -5 0.5 0.7
-4 0 -5 1.7 0.7
-4 0 -5 -0.3 0.5
4 0 5 1.2 1.2
5 0 5 0.8 1.3
-5 0 -5 0.2 0.8
-5 0 -5 -0.1 0.7
-5 0 -5 0.9 0.6
-5 0 -5 -0.6 0.4
-6 0 -5 1.5 0.9
-6 0 -5 -0.2 0.4
-6 0 -5 -0.1 0.6
-7 0 -5 -0.6 0.9
-7 0 -5 -0.7 0.6
-7 0 -5 -0.2 0.4
-8 0 -5 -0.5 1
-8 0 -5 -0.9 0.4
-8 0 -5 -0.9 0.7
-9 0 -5 0.8 0.9
-9 0 -5 -0.5 1.1
-9 0 -5 -0.2 0.7
-10 0 -5 2.6 1.5
-11 0 -5 0.8 1
-11 0 -5 2.1 1.7
-12 0 -5 1 2
-12 0 -5 -0.5 1
-13 0 -5 -0.3 1.4
-13 0 -5 -2.3 2.5
-14 0 -5 0.6 1.5
-15 0 -5 0.4 1.7
-16 0 -5 0.6 1.9
-17 -1 5 2.3 3.7
-17 -1 5 -2.6 7.7
-17 1 5 -0.6 8.2
-17 1 5 5.1 3.9
-16 -1 5 9.9 3.5
-16 -1 5 16.1 4.6
-16 1 5 2 4.1
-16 1 5 14.1 4.2
-15 -1 5 19.7 4.3
-15 -1 5 27.1 3.3
-15 1 5 21.8 4.4
-15 1 5 16.9 3.4
-14 -1 5 0.1 2.8
-14 -1 5 1.4 1.9
-14 1 5 -0.8 1.9
-14 1 5 1.5 2.9
-13 -1 5 24 2.8
-13 -1 5 20.6 3.9
-13 1 5 20.1 2.6
-13 1 5 21.7 3.9
-12 -1 5 3.5 2.3
-12 -1 5 5.2 1.5
12 1 -5 5.5 2.3
-12 1 5 7.5 2.7
-12 1 5 7.1 1.7
11 -1 -5 109.69 5.9
11 -1 -5 91.49 11.6
-11 -1 5 118.39 5.8
-11 -1 5 118.49 7
-11 1 5 116.39 7
-11 1 5 115.29 5.8
11 1 -5 112.59 11.2
11 1 -5 111.59 6.3
10 -1 -5 39 6.2
10 -1 -5 48.1 3.5
-10 -1 5 47.3 4
-10 1 5 49.8 3.1
10 1 -5 44.5 3.5
-10 1 5 41.8 5
10 1 -5 42.6 5.8
9 -1 -5 326.77 15.3
-9 1 5 338.27 14.2
9 1 -5 338.87 14.7
-9 1 5 334.17 15.2
9 1 -5 333.37 15.4
-8 -1 5 441.56 18.8
8 -1 -5 496.35 22.4
8 -1 -5 459.85 19.8
-8 1 5 453.15 18.7
8 1 -5 450.75 19.5
-7 -1 5 596.74 21.4
-7 -1 5 533.05 21.8
7 -1 -5 502.05 22.3
7 -1 -5 525.25 21.9
-7 1 5 468.05 22.4
7 1 -5 532.75 22.1
-7 1 5 527.25 22.3
-7 1 5 539.25 21.5
7 1 -5 506.45 22.3
6 -1 -5 347.67 14.8
-6 -1 5 344.87 14.9
6 -1 -5 343.77 15.1
-6 -1 5 330.77 14.4
-6 1 5 355.76 14.6
-6 1 5 355.26 15.2
6 1 -5 352.36 15.2
-6 1 5 374.66 16
5 -1 -5 100.19 5
-5 -1 5 97.39 4.9
5 -1 -5 103.79 4.8
-5 1 5 100.99 5.1
5 1 -5 102.79 5.1
-5 1 5 93.99 4.7
-5 1 5 98.39 4.9
4 -1 -5 723.23 29.6
4 -1 -5 752.62 29.5
-4 -1 5 706.93 29.5
-4 1 5 707.13 29.5
4 1 -5 734.73 29.6
-4 1 5 730.73 29.5
4 1 -5 708.63 28.9
-3 -1 5 513.45 20.8
3 -1 -5 510.95 20.7
3 -1 -5 505.25 20.7
3 1 -5 509.15 20.7
-3 1 5 504.05 20.7
3 1 -5 517.65 20.7
3 1 -5 498.85 20.2
3 1 -5 467.75 20.6
-2 -1 5 526.45 20.9
2 -1 -5 503.25 20.5
2 -1 -5 539.25 20.8
2 -1 -5 522.25 20.9
2 1 -5 512.25 20.7
2 1 -5 472.75 20.6
2 1 -5 509.05 20.9
-2 1 5 516.55 20.9
2 1 -5 503.65 20.5
-2 1 5 490.85 21
-1 -1 5 105.19 4.6
1 -1 -5 101.19 4.4
1 -1 -5 102.59 4.7
1 -1 -5 111.09 4.3
1 1 -5 98.29 4.4
1 1 -5 93.29 4.3
-1 1 5 104.39 4.6
1 1 -5 106.19 4.8
0 1 5 2727.13 108.89
1 1 5 4963 197.68
-2 -1 -5 263.27 11.5
-2 -1 -5 301.67 11.9
2 -1 5 283.57 11.9
-2 -1 -5 295.37 11.8
2 -1 5 280.77 11.5
-2 -1 -5 278.37 11.6
-2 1 -5 278.97 11.6
2 1 5 290.07 12
-2 1 -5 292.47 11.6
-2 1 -5 279.07 11.7
3 -1 5 7.1 1.4
-3 -1 -5 6.4 1
3 -1 5 5 0.8
-3 -1 -5 5.6 0.7
-3 -1 -5 5.1 0.9
3 -1 5 6.3 1
-3 -1 -5 5.1 0.6
-3 1 -5 7.1 0.8
3 1 5 6 0.8
-3 1 -5 5.5 0.7
-3 1 -5 7.7 1
3 1 5 7.2 1.2
-3 1 -5 5 0.7
-4 -1 -5 52.19 2.4
4 -1 5 52.39 2.7
-4 -1 -5 52.99 2.6
-4 -1 -5 51.89 2.4
4 -1 5 52.89 2.9
-4 -1 -5 50.39 2.8
4 1 5 53.49 3.3
-4 1 -5 48.1 2.5
-4 1 -5 52.89 2.5
-4 1 -5 53.79 2.8
-4 1 -5 55.69 2.8
5 -1 5 4.1 1
-5 -1 -5 3.6 0.6
-5 -1 -5 2.2 1
-5 -1 -5 3.9 0.7
-5 -1 -5 3.4 0.8
-5 1 -5 3.9 0.6
-5 1 -5 4.9 1
-5 1 -5 3.2 0.7
-6 -1 -5 198.88 8.5
6 -1 5 206.48 8.7
-6 -1 -5 209.08 8.7
-6 -1 -5 207.48 9.3
-6 -1 -5 207.88 8.9
-6 1 -5 206.98 9.1
-6 1 -5 206.78 8.6
-6 1 -5 211.78 8.8
-7 -1 -5 164.08 7.2
-7 -1 -5 155.28 7.6
-7 -1 -5 157.68 6.9
-7 -1 -5 150.88 6.6
-7 1 -5 163.78 7
-7 1 -5 153.88 6.7
-7 1 -5 168.38 7.4
-8 -1 -5 134.39 6.1
-8 -1 -5 133.79 6.5
-8 1 -5 132.79 5.9
-8 1 -5 145.09 6.3
-8 1 -5 144.19 6.8
8 1 5 141.19 6.4
-9 -1 -5 267.77 11.9
-9 -1 -5 283.87 11.5
-9 1 -5 282.57 11.6
-9 1 -5 265.27 11
-9 1 -5 275.17 12.1
9 1 5 243.98 11.5
-10 -1 -5 74.09 4.6
-10 -1 -5 87.69 4.3
-10 1 -5 83.79 5
-10 1 -5 84.79 4.3
-11 -1 -5 1.3 1.7
-11 -1 -5 0.8 1.1
-11 1 -5 1.2 1.8
-11 1 -5 0.9 1.1
-12 -1 -5 -0.4 2.1
-12 -1 -5 -0.4 1.1
-12 1 -5 -1.7 1.8
-12 1 -5 -0.5 1.1
-13 -1 -5 5.9 1.5
-13 1 -5 5.7 1.6
-13 1 -5 6.6 2.7
-14 -1 -5 11.6 1.9
-14 1 -5 17.7 2.6
-14 1 -5 4.4 3.6
-15 -1 -5 10.9 2.2
-15 1 -5 15.3 2.6
-16 -1 -5 1.9 1.7
-16 1 -5 0.2 2.2
-17 -2 5 1.5 3.2
-17 -2 5 2.2 6.5
-16 -2 5 1.8 3
-16 -2 5 -0.1 4.1
-16 2 5 3.3 4
-16 2 5 8.8 4.1
-15 -2 5 16.5 4.3
-15 -2 5 15.1 2.8
-15 2 5 13.4 3.7
-15 2 5 12.3 4
-14 -2 5 32.3 4.8
-14 -2 5 21 2.9
-14 2 5 22.1 4.1
-14 2 5 33.8 3.9
-13 -2 5 13.9 2.1
-13 -2 5 21.2 3.7
-13 2 5 15 3.4
13 2 -5 14.1 3.2
-13 2 5 15.9 2.4
-12 -2 5 3.9 2.3
-12 -2 5 9.4 1.7
-12 2 5 8.2 1.9
12 2 -5 10.2 2.5
-12 2 5 2.7 2.5
-11 -2 5 87.89 5.8
-11 -2 5 85.99 4.7
11 -2 -5 89.09 9.2
11 -2 -5 84.79 4.9
11 2 -5 81.39 5.3
-11 2 5 86.89 6
-11 2 5 89.99 4.7
11 2 -5 78.49 9
10 -2 -5 42.3 5.6
-10 -2 5 51.19 4.8
10 2 -5 48.6 3.7
10 2 -5 39.5 5.4
-10 2 5 46.1 4.1
-10 2 5 48.3 3.1
9 -2 -5 31.7 4.2
9 -2 -5 24 2.2
-9 -2 5 24.6 2.9
-9 2 5 27.2 3
-9 2 5 25 2.1
9 2 -5 23 3.1
8 -2 -5 41.2 2.8
-8 -2 5 44.1 2.6
8 -2 -5 46.3 3.9
-8 2 5 42.1 3.5
-8 2 5 44.8 2.6
-8 2 5 44.8 2.5
8 2 -5 46 4
-8 2 5 46.4 2.7
7 -2 -5 38.8 3.2
7 -2 -5 39 2.6
-7 -2 5 36.6 2.6
-7 2 5 40 2.5
7 2 -5 36.8 3.2
-7 2 5 39.8 3.1
6 -2 -5 187.08 8.1
-6 -2 5 180.58 8.2
6 -2 -5 190.78 8.6
-6 2 5 198.58 9.4
6 2 -5 189.98 8.6
-6 2 5 179.38 8.1
-6 2 5 145.99 9.5
5 -2 -5 52.69 3.2
5 -2 -5 49.3 2.9
-5 -2 5 48.9 3.1
5 2 -5 50.89 3.2
-5 2 5 50.39 3
-5 2 5 52.29 3.2
-5 2 5 54.99 3
5 2 -5 48.7 2.3
4 -2 -5 242.98 10.7
4 -2 -5 250.17 10.5
-4 -2 5 240.88 10.7
4 2 -5 242.48 10
-4 2 5 248.68 10.7
4 2 -5 252.77 10.7
-4 2 5 251.97 10.7
-4 2 5 242.08 10.6
3 -2 -5 311.47 12.9
-3 -2 5 298.67 12.1
3 -2 -5 291.07 12.2
-3 -2 5 275.77 12.3
3 2 -5 285.07 11.8
3 2 -5 262.27 12.1
3 2 -5 313.87 12.5
-3 2 5 289.87 12.3
-3 2 5 286.87 12.2
-3 2 5 286.47 12.4
2 2 -5 1930.41 76.99
-1 -2 5 1318.57 52.99
1 -2 -5 1427.66 52.79
1 2 -5 1209.58 52.69
-1 2 5 1331.57 53.09
0 -2 -5 69.99 3.5
0 -2 5 76.39 3.4
0 2 -5 67.69 3.3
0 2 5 77.59 3.4
0 2 -5 75.19 3.6
-1 -2 -5 144.89 6.4
-1 -2 -5 144.69 6.3
-1 -2 -5 140.69 6.1
1 2 5 147.59 5.9
-1 2 -5 135.69 6.1
1 2 5 152.98 6.1
1 2 5 154.28 6.1
-1 2 -5 140.69 6.2
1 2 5 153.38 5.9
-1 2 -5 150.68 6.4
-2 -2 -5 141.99 6.1
-2 -2 -5 143.89 6.2
2 -2 5 135.49 6.4
-2 -2 -5 134.09 5.8
-2 -2 -5 142.09 5.8
2 -2 5 133.19 5.7
-2 2 -5 137.59 5.9
-2 2 -5 142.39 6
-2 2 -5 144.29 5.9
-3 -2 -5 420.46 17.5
3 -2 5 433.06 17.7
-3 -2 -5 413.86 17.6
-3 -2 -5 438.76 17.9
-3 -2 -5 459.55 18
-3 2 -5 406.36 17.6
-3 2 -5 433.26 17.7
-3 2 -5 452.75 17.7
-3 2 -5 461.25 18
4 -2 5 273.87 11.6
-4 -2 -5 255.17 11.2
-4 -2 -5 286.87 11.7
-4 -2 -5 273.47 11.2
-4 -2 -5 267.97 11.1
-4 2 -5 272.37 11.2
-4 2 -5 292.37 11.7
-4 2 -5 272.17 11.3
-4 2 -5 278.97 11.3
-5 -2 -5 28.9 2
-5 -2 -5 30.3 1.6
-5 -2 -5 32.1 2.3
-5 -2 -5 30.2 1.7
-5 2 -5 38.1 2
-5 2 -5 38.4 2.4
-5 2 -5 31.6 1.8
-6 -2 -5 28.7 1.7
-6 -2 -5 29.1 1.8
-6 -2 -5 32.3 2.4
-6 2 -5 29.7 1.7
-6 2 -5 30.8 1.9
-6 2 -5 26.3 3.3
6 2 5 29.2 2.2
-7 -2 -5 4.5 1.4
-7 -2 -5 3 1
-7 -2 -5 3.5 0.9
7 2 5 5.4 1.1
-7 2 -5 4.3 0.9
-7 2 -5 3.9 0.7
-7 2 -5 3.9 1.2
8 -2 5 1.2 0.7
-8 -2 -5 -0.7 0.9
-8 -2 -5 -0.1 1.3
-8 -2 -5 1 0.8
-8 2 -5 -1.2 1.1
8 2 5 1.2 0.9
-8 2 -5 0.9 0.6
8 2 5 0 0.9
-8 2 -5 0 0.9
-9 -2 -5 87.69 4.8
-9 -2 -5 93.59 5.5
-9 -2 -5 96.49 4.5
-9 2 -5 92.19 4.6
-9 2 -5 93.09 5.2
-10 -2 -5 61.39 3.8
-10 -2 -5 65.69 3.4
-10 2 -5 58.19 4.1
-10 2 -5 54.09 4.5
-11 -2 -5 36.9 3.4
-11 -2 -5 40.9 2.7
-11 2 -5 46 3
-11 2 -5 40.6 3.6
-12 -2 -5 2.9 1.2
-12 -2 -5 6.2 3
-12 2 -5 3.6 1.3
-12 2 -5 3.3 2.3
-13 -2 -5 88.39 4.5
-13 2 -5 63.59 5.6
-14 -2 -5 20.2 2.3
-14 2 -5 9.3 3.5
-14 2 -5 26.1 3.1
-15 -2 -5 17.4 2.2
-15 2 -5 15.8 2.9
-16 -2 -5 4.9 1.7
-16 2 -5 2.1 2.7
-16 -3 5 0.3 3
-16 -3 5 -3.8 5
-16 3 5 -2.2 4.1
-16 3 5 0.3 5.1
-15 -3 5 -1 2.1
-15 -3 5 3.4 6.8
-15 3 5 3 3.8
-15 3 5 -0.7 3.1
-14 -3 5 1 1.8
-14 -3 5 -3.9 2.9
-14 3 5 -0.5 2.5
-14 3 5 3.6 3.4
-13 -3 5 2.4 2.7
-13 -3 5 1.6 1.5
-13 3 5 -0.7 3.3
13 3 -5 7.2 2.9
-13 3 5 5 2.1
-12 -3 5 13.3 1.8
-12 -3 5 16.6 3.1
-12 3 5 19 3.3
-12 3 5 17.1 2.1
12 3 -5 16.2 3
-11 -3 5 1.1 1.9
11 3 -5 -0.6 2.1
-11 3 5 -0.2 1.2
-11 3 5 -2 1.9
10 -3 -5 14 3.5
-10 -3 5 13.2 2.8
-10 3 5 21.1 3.1
10 3 -5 20.2 3.9
9 -3 -5 50.19 3.2
9 -3 -5 52.69 6.5
-9 3 5 51.09 3.1
-9 3 5 54.09 4.2
8 -3 -5 258.67 12.1
-8 -3 5 265.77 10.9
8 -3 -5 246.98 11.1
-8 3 5 264.77 11.4
-8 3 5 256.37 12
-8 3 5 250.77 11
8 3 -5 259.67 12.1
-7 -3 5 264.77 11.3
-7 -3 5 263.17 11.6
7 -3 -5 255.67 11.4
7 -3 -5 266.17 12.3
-7 3 5 273.47 11.6
7 3 -5 273.37 12.8
-7 3 5 272.77 12.1
-7 3 5 262.07 11.2
-6 -3 5 4.6 1.2
6 -3 -5 8.3 1.6
-6 -3 5 8.2 1.7
6 -3 -5 8.2 1.3
-6 3 5 7.7 1.6
6 3 -5 6 1.5
-6 3 5 6.2 1.7
-6 3 5 8.6 1.4
5 -3 -5 95.69 4.8
-5 -3 5 100.29 5.1
5 -3 -5 103.19 5.2
-5 -3 5 104.49 5.1
-5 3 5 101.69 5.2
5 3 -5 97.09 4.2
-5 3 5 96.89 4.9
-5 3 5 103.59 5.1
5 3 -5 99.79 5.2
-4 -3 5 229.48 10.1
-4 -3 5 235.58 9.9
4 -3 -5 228.98 10
4 -3 -5 223.78 9.8
-4 3 5 235.88 10
-4 3 5 221.88 9.9
4 3 -5 229.18 10
4 3 -5 218.18 9.3
3 -3 -5 52.49 3
-3 -3 5 52.19 2.7
-3 -3 5 51.09 3
3 -3 -5 50.39 2.8
3 3 -5 48.5 3
-3 3 5 53.49 3
-3 3 5 51.89 2.9
3 3 -5 44 2.9
-3 3 5 50.59 3.1
-2 -3 5 87.89 4.6
-2 -3 5 92.09 4.2
2 -3 -5 95.89 4.5
2 -3 -5 100.19 4.5
2 3 -5 85.29 4.2
2 3 -5 88.69 4.1
2 3 -5 97.89 4.5
-2 3 5 98.69 4.6
-2 3 5 103.59 4.9
-2 3 5 97.19 4.4
1 -3 -5 310.37 12.4
-1 -3 5 302.87 12.3
-1 -3 5 298.27 12.7
1 -3 -5 299.97 12.6
1 -3 -5 291.17 12.5
-1 3 5 302.27 12.6
1 3 -5 292.57 12.3
-1 3 5 309.37 13
0 -3 5 127.79 5.5
0 -3 5 119.99 5.1
0 -3 -5 124.09 5.5
0 3 5 122.59 5.9
0 3 -5 125.49 5.2
0 3 5 114.19 5.1
0 3 5 122.09 5.5
1 -3 5 65.89 2.9
-1 -3 -5 68.49 3.4
-1 -3 -5 73.49 3.5
-1 3 -5 68.99 3.2
-1 3 -5 69.59 3.4
1 3 5 71.49 3.3
1 3 5 69.99 3.8
-1 3 -5 67.49 3.2
-2 -3 -5 9.9 1.3
-2 -3 -5 9.6 1.3
-2 3 -5 6.3 0.8
2 3 5 9.1 1.5
-2 3 -5 10 1
2 3 5 7.2 0.9
2 3 5 8.5 0.9
-2 3 -5 9.2 1
-3 -3 -5 5.3 1
3 -3 5 5.3 1.1
-3 3 -5 3.8 1.1
-3 3 -5 6.3 0.9
-3 3 -5 4.9 0.7
3 3 5 3.7 0.5
3 3 5 5.2 1.2
-3 3 -5 4.1 0.8
-4 -3 -5 46 2.7
-4 -3 -5 40.5 1.9
4 -3 5 40.1 2.8
-4 3 -5 43.4 2.3
4 3 5 43.7 2.8
-4 3 -5 43.6 2.6
-4 3 -5 41.1 2.2
4 3 5 41.3 1.9
-4 3 -5 39.3 1.9
-5 -3 -5 208.58 8.5
-5 -3 -5 195.98 9.1
-5 -3 -5 202.78 8.3
-5 3 -5 208.38 8.7
5 3 5 207.88 8.3
-5 3 -5 209.38 8.6
5 3 5 205.08 9.1
5 3 5 208.48 8.3
-5 3 -5 177.88 10.1
-6 -3 -5 1 0.5
-6 -3 -5 0.2 1.1
6 3 5 0.8 0.5
6 3 5 1.1 0.6
-6 3 -5 0.8 0.6
-6 3 -5 0 1.1
-6 3 -5 -0.5 0.7
6 3 5 0.7 0.9
-7 -3 -5 5.5 1.5
-7 -3 -5 7.3 1.1
-7 -3 -5 4.3 0.8
-7 3 -5 5.1 1.4
7 3 5 5 1.2
7 3 5 3.7 0.9
7 3 5 4.2 1
-7 3 -5 3.5 1.1
-7 3 -5 5.8 0.9
-8 -3 -5 6.3 1.3
8 -3 5 4 1.1
-8 -3 -5 6.2 1
-8 -3 -5 6.3 1.9
8 3 5 7.4 1.2
-8 3 -5 4.6 1.1
-8 3 -5 5.6 1.6
8 3 5 3.6 1.3
-8 3 -5 4.9 0.9
-9 -3 -5 -0.8 1.1
-9 -3 -5 0.1 0.8
-9 -3 -5 1.7 1.6
-9 3 -5 1.4 0.7
-9 3 -5 1.1 1.4
-10 -3 -5 9.1 1.3
-10 -3 -5 8.4 1.8
-10 -3 -5 7.7 2.1
-10 3 -5 10.4 1.1
-10 3 -5 9.9 1.6
-11 3 -5 32.5 3.6
-11 3 -5 41.2 2.9
-12 -3 -5 60.09 3.6
-12 3 -5 70.39 4.1
-12 3 -5 61.99 4.8
-13 -3 -5 22.6 2.3
-13 3 -5 20.1 4
-13 3 -5 30.2 3.4
-14 -3 -5 0.1 1.2
-14 3 -5 -1.6 1.9
-14 3 -5 1.9 3.1
-15 -3 -5 -1.7 1.5
-15 3 -5 0.3 5
-15 3 -5 -3.8 2.6
-16 3 -5 0.6 3
-16 -4 5 5.7 2.5
-16 -4 5 4.7 5.3
-16 4 5 -2.4 4.8
-16 4 5 3.3 4.1
-15 -4 5 3.1 4.8
-15 -4 5 4.5 2.1
-15 4 5 -1.4 4
-15 4 5 4.4 3.4
-14 -4 5 3.7 1.9
-14 -4 5 0.6 2.8
-14 4 5 0.3 2.8
-14 4 5 1.3 3
-13 -4 5 2.1 1.6
-13 -4 5 0.6 3.7
-13 4 5 -0.4 2.5
13 4 -5 5.6 3
-13 4 5 2.8 3.8
-12 -4 5 2.7 1.4
-12 -4 5 2.8 2.2
-12 4 5 1.5 2.2
-12 4 5 4.6 1.7
12 4 -5 3.5 2.3
-11 -4 5 24.1 3.6
-11 4 5 21.9 2.4
-11 4 5 15.5 3.2
-10 -4 5 -0.3 1.6
10 -4 -5 -7.8 3.6
-10 4 5 0.9 1.8
10 4 -5 -0.5 4.7
-10 4 5 0.9 1.2
9 -4 -5 52.79 3.1
9 -4 -5 51.99 5.3
-9 4 5 51.59 3.1
-9 4 5 51.69 4.2
9 4 -5 50.49 5.3
-8 -4 5 56.29 4.1
-8 -4 5 57.79 3.3
8 -4 -5 61.09 3.3
-8 -4 5 57.99 3.3
8 -4 -5 53.49 4.6
-8 4 5 61.59 3.3
-8 4 5 55.79 4.1
-8 4 5 53.29 3.6
8 4 -5 54.29 4.6
7 -4 -5 38.7 3.5
-7 -4 5 39.7 3.2
7 -4 -5 41 2.5
-7 -4 5 46.8 4.1
7 4 -5 37.2 3.6
-7 4 5 38.8 2.9
-7 4 5 35.5 3.2
-7 4 5 36.8 2.4
-6 -4 5 212.78 9.7
-6 -4 5 214.88 9.5
-6 -4 5 243.98 11.1
6 -4 -5 221.88 9.4
6 -4 -5 209.28 10
-6 4 5 231.58 10.9
6 4 -5 203.08 8.8
-6 4 5 214.38 9.8
-6 4 5 213.28 9.2
6 4 -5 214.38 10.2
-6 4 5 209.38 10
-5 -4 5 85.19 5.2
-5 -4 5 94.29 4.9
5 -4 -5 92.29 4.5
-5 -4 5 92.29 4.8
5 -4 -5 92.29 5
-5 4 5 87.59 4.1
5 4 -5 102.39 5.2
-5 4 5 91.19 4.7
5 4 -5 85.69 3.9
-5 4 5 93.79 4.9
-5 4 5 90.09 4.8
4 -4 -5 60.29 3.3
4 -4 -5 61.59 3.7
-4 -4 5 67.49 3.5
-4 -4 5 64.09 3.7
4 4 -5 62.19 3.8
-4 4 5 60.49 3.7
4 4 -5 62.39 2.9
-4 4 5 59.19 3.5
-4 4 5 67.79 3.7
-4 4 5 64.19 3
3 -4 -5 23 2
-3 -4 5 23.1 1.8
3 -4 -5 23.7 1.8
-3 -4 5 26.9 2.2
3 4 -5 26.2 2.2
-3 4 5 22.6 1.9
-3 4 5 22.2 2
3 4 -5 23.5 1.4
2 -4 -5 1463.35 56.89
-2 -4 5 1488.55 57.39
-2 -4 5 1415.86 56.69
2 -4 -5 1447.56 56.89
2 4 -5 1323.87 56.49
-2 4 5 1375.26 56.99
-2 4 5 1388.76 56.79
-1 -4 5 337.77 14.1
-1 -4 5 326.87 13.6
1 -4 -5 338.27 14
1 -4 -5 328.37 13.8
-1 4 5 312.67 14.3
-1 4 5 337.87 14.3
-1 4 5 344.67 13.7
1 4 -5 334.07 13.6
0 -4 -5 615.94 24.3
0 -4 5 576.44 23.8
0 -4 5 596.34 24.3
0 4 5 580.64 24.2
0 4 5 600.14 23.8
0 4 -5 570.14 23.9
0 4 5 598.94 24.6
-1 -4 -5 265.67 11.4
-1 -4 -5 274.67 11.4
1 -4 5 264.77 10.9
-1 4 -5 270.97 11
-1 4 -5 261.17 11
1 4 5 256.27 11.2
1 4 5 272.27 11.7
-2 -4 -5 947.31 38.6
2 4 5 957 38.8
-2 4 -5 968.5 38.2
2 4 5 950.6 38.3
-2 4 -5 914.71 38.2
-2 4 -5 953 38.2
2 4 5 961.8 38.4
-3 -4 -5 1094.19 45.6
3 4 5 1099.69 45.3
-3 4 -5 1142.99 45.2
-3 4 -5 1147.19 45.1
-3 4 -5 1136.19 45.2
3 4 5 1136.79 45.3
3 4 5 1124.39 45.8
-4 -4 -5 279.27 12.2
4 -4 5 249.48 12.1
4 4 5 278.57 11.8
-4 4 -5 286.77 11.7
-4 4 -5 298.17 12.3
4 4 5 284.47 11.8
4 4 5 295.17 12.3
-4 4 -5 283.37 11.7
-4 4 -5 278.67 11.4
-5 -4 -5 46.4 2.3
-5 -4 -5 52.69 4.4
-5 4 -5 49.6 2.7
5 4 5 51.69 2.7
-5 4 -5 49.5 3.2
-5 4 -5 50.89 2.6
5 4 5 52.69 3.2
5 4 5 51.89 2.8
-6 -4 -5 23.2 1.3
-6 -4 -5 21.6 1.2
-6 -4 -5 21.2 2.3
-6 4 -5 19.4 2.2
6 4 5 18.7 1.8
-6 4 -5 22.2 1.6
6 4 5 22.5 2
-6 4 -5 22.1 1.7
6 4 5 24.4 1.9
-7 -4 -5 16.8 1.2
-7 -4 -5 9.9 2
-7 4 -5 11.5 1.9
7 4 5 13.9 1.9
-7 4 -5 16.8 1.6
7 4 5 16.9 2
-7 4 -5 17.7 1.4
-8 -4 -5 53.29 2.9
-8 -4 -5 56.79 4
-8 -4 -5 56.99 2.8
-8 4 -5 57.09 3.9
8 4 5 57.59 3.2
-8 4 -5 54.69 3.2
-8 4 -5 55.39 2.9
-9 -4 -5 119.59 5.7
-9 -4 -5 121.99 6.9
-9 -4 -5 118.89 5.4
-9 4 -5 115.09 6.6
-9 4 -5 126.99 5.5
-9 4 -5 124.99 6
-10 -4 -5 294.77 14.3
-10 -4 -5 299.07 12.7
-10 4 -5 303.27 12.6
-10 4 -5 316.27 13.2
-10 4 -5 301.37 14
-11 -4 -5 42.9 2.6
-11 4 -5 37.7 3
-11 4 -5 38.1 3.8
-12 -4 -5 1.4 1.1
-12 4 -5 3.3 1.6
-12 4 -5 3.7 2.2
-13 -4 -5 1.4 1.2
-13 4 -5 1.1 1.9
-13 4 -5 0.8 2.4
-14 4 -5 3.4 2.6
-14 4 -5 8.4 3.4
-15 4 -5 1.5 2.9
-15 4 -5 1.4 4.2
-16 4 -5 -1.3 3.4
-16 -5 5 4.1 2.2
-16 5 5 1.9 4.8
-16 5 5 2 3.8
-15 -5 5 8.4 2.2
-15 -5 5 4.7 4.1
-15 5 5 4 3.6
-15 5 5 7.3 4
-14 -5 5 7.6 1.9
-14 -5 5 9.3 3.8
-14 5 5 13.9 3.3
-14 5 5 6.3 3.4
-13 -5 5 3.3 1.8
-13 -5 5 -0.4 2.7
13 5 -5 2.7 2.9
-13 5 5 0.5 2.7
-13 5 5 3 2.3
-12 -5 5 -1.4 2.1
-12 -5 5 -0.1 1.2
-12 5 5 -0.7 1.6
-12 5 5 0.4 2.5
-11 -5 5 20.5 3.4
-11 5 5 22 2.4
-11 5 5 15.4 3.1
10 -5 -5 70.89 8.1
-10 5 5 66.79 5
10 5 -5 52.49 6.5
-10 5 5 66.19 3.8
9 -5 -5 289.47 13
9 -5 -5 300.57 15.1
-9 5 5 325.97 13.3
-9 5 5 306.67 14.4
9 5 -5 321.47 15.3
8 -5 -5 475.65 19.9
-8 -5 5 434.56 20.4
-8 -5 5 482.65 20.9
8 -5 -5 457.85 22.6
8 5 -5 518.85 23.7
-8 5 5 489.85 19.9
-8 5 5 498.85 21
7 -5 -5 811.32 33.1
7 -5 -5 807.82 34.1
-7 -5 5 804.42 33.9
-7 5 5 810.92 33.8
-7 5 5 828.72 33
7 5 -5 816.52 34.1
6 -5 -5 253.37 11.9
-6 -5 5 258.27 11.5
6 -5 -5 259.27 11.2
-6 -5 5 262.97 11.7
-6 5 5 261.67 11.8
-6 5 5 257.67 11.7
-6 5 5 252.07 10.9
6 5 -5 269.97 12
-5 -5 5 564.24 26.8
-5 -5 5 640.64 26.2
5 -5 -5 631.74 25.9
-5 -5 5 612.34 26.3
5 5 -5 607.84 25.4
5 5 -5 694.53 27
-5 5 5 639.74 26.1
-5 5 5 627.54 26.3
-5 5 5 638.64 26.4
-5 5 5 645.94 25.5
-4 -5 5 2.4 2.6
-4 -5 5 3.2 1.2
-4 -5 5 4 1.3
4 -5 -5 4 1.3
4 -5 -5 3 1.1
-4 5 5 5.6 1.5
-4 5 5 3.6 0.7
-4 5 5 2.6 1
-4 5 5 5.7 1.4
4 5 -5 4.2 1.4
4 5 -5 4.4 0.7
3 -5 -5 5.1 1.2
-3 -5 5 6.2 1.2
-3 -5 5 4.4 1.5
3 -5 -5 5.1 1.2
-3 5 5 5.5 1.2
-3 5 5 4.2 1.4
3 5 -5 5.7 1.3
3 5 -5 5.6 0.8
-3 5 5 5.8 1.3
-3 5 5 5.1 0.7
-2 -5 5 39.5 2.4
2 -5 -5 39.3 2.5
-2 -5 5 36.4 2.8
2 -5 -5 41.2 2.6
-2 5 5 40.3 2.7
-2 5 5 42 2.4
2 5 -5 42.3 2.1
-2 5 5 36.6 1.9
-2 5 5 41.2 3
-1 -5 5 646.64 26.9
1 -5 -5 669.83 26.7
1 -5 -5 654.43 26.5
-1 -5 5 658.43 26.4
1 -5 -5 648.14 26.6
-1 5 5 675.23 26.4
-1 5 5 659.23 27.1
1 5 -5 637.84 26.3
-1 5 5 652.33 26.8
-1 5 5 607.14 26
0 -5 5 1234.68 50.99
0 -5 -5 1261.47 50.49
0 -5 -5 1310.97 50.39
0 -5 5 1286.47 50.59
0 -5 -5 1285.47 50.99
0 5 5 1234.18 51.29
0 5 -5 1259.77 50.49
0 5 5 1250.87 50.39
0 5 5 1224.48 50.89
-1 -5 -5 307.67 13
1 -5 5 299.37 12.5
1 -5 5 293.47 13
1 5 5 304.87 12.9
-1 5 -5 296.97 12.5
-1 5 -5 299.57 12.5
1 5 5 312.87 13.3
-2 -5 -5 32.6 2.4
2 5 5 35 2.7
-2 5 -5 30.7 2.1
2 5 5 36 2.3
-2 5 -5 33.7 2
-3 -5 -5 465.45 19.5
-3 5 -5 451.15 18.9
-3 5 -5 470.85 19
3 5 5 468.45 19.7
3 5 5 468.55 19.3
-3 5 -5 459.25 18.9
-4 -5 -5 190.48 8.7
4 5 5 199.28 8.7
-4 5 -5 187.48 8.6
-4 5 -5 172.98 7.7
-4 5 -5 183.68 8
4 5 5 183.58 8.3
-4 5 -5 191.98 8
-5 -5 -5 456.65 19.2
5 5 5 437.56 18.8
-5 5 -5 453.45 18.5
5 5 5 455.55 19
5 5 5 440.96 18.7
-5 5 -5 457.65 18.4
-5 5 -5 438.56 19.1
-6 -5 -5 600.94 25.4
-6 -5 -5 585.64 24.1
6 5 5 579.04 25
-6 5 -5 626.54 24.6
6 5 5 572.54 24.9
6 5 5 633.34 25.1
-6 5 -5 616.14 24.6
-7 -5 -5 468.15 19.3
-7 -5 -5 476.75 20.8
7 -5 5 480.25 20.2
-7 5 -5 470.85 19.8
-7 5 -5 478.45 19.7
7 5 5 502.45 21.8
-8 -5 -5 159.08 6.5
-8 -5 -5 153.78 8.1
8 5 5 140.49 7.9
-8 5 -5 152.88 7.8
-8 5 -5 154.98 8.2
-8 5 -5 154.18 6.8
-9 -5 -5 234.08 11.5
-9 -5 -5 235.38 9.8
-9 5 -5 232.38 10.4
-9 5 -5 225.08 11.2
-9 5 -5 242.88 10.1
-10 -5 -5 3.3 2.2
-10 -5 -5 3.4 1
-10 5 -5 3.3 1.4
-10 5 -5 4.8 1
-10 5 -5 3 1.9
-11 -5 -5 18.5 2.1
-11 -5 -5 13.4 2.9
-11 5 -5 15.7 2
-11 5 -5 11 2.5
-11 5 -5 14.2 1.5
-12 5 -5 12.2 3.4
-12 5 -5 9.5 2
-13 5 -5 31.5 4.3
-13 5 -5 34 3.8
-14 5 -5 30.4 3.6
-14 5 -5 14.7 4.4
-15 5 -5 2.5 8.1
-16 -6 5 3.7 2.6
-16 6 5 3.2 4.1
-16 6 5 -4.1 5.3
-15 -6 5 0.1 1.7
-15 -6 5 -5.6 4.9
-15 6 5 4 4.1
-15 6 5 -1.2 3.5
-14 -6 5 0.4 1.6
-14 6 5 -1.9 5.3
-14 6 5 0.7 3.2
-13 -6 5 7.4 1.7
-13 -6 5 8.4 3.4
13 6 -5 6 3.4
-13 6 5 5 3.2
-13 6 5 12.4 2.8
-12 -6 5 2.9 1.5
-12 -6 5 -1.1 2.4
-12 6 5 1.2 1.7
-12 6 5 -1.8 2.4
-11 -6 5 18.6 3.1
-11 6 5 26.3 2.6
-11 6 5 18.6 3.3
-10 6 5 15.7 3
-10 6 5 15.7 1.9
9 -6 -5 13.7 4
-9 -6 5 13 2.6
-9 6 5 8.5 2.3
9 6 -5 3.5 4
8 -6 -5 26.3 3.7
-8 -6 5 26.8 3.1
-8 6 5 28.6 2.2
-8 6 5 31.3 3.2
8 6 -5 27.2 3.9
-7 -6 5 11.7 2.4
7 -6 -5 10 1.5
-7 -6 5 7.3 1.6
-7 6 5 10 1.4
-7 6 5 8.4 2.1
7 6 -5 8.9 2.4
-7 6 5 6.6 2
6 -6 -5 243.88 11.9
6 -6 -5 266.87 12.5
-6 -6 5 271.17 12.3
-6 -6 5 274.47 12.1
-6 6 5 278.67 11.4
6 6 -5 265.47 11.1
6 6 -5 276.57 12.7
-6 6 5 277.27 12.4
5 -6 -5 230.68 10.9
5 -6 -5 238.38 11.2
-5 -6 5 250.37 11.1
-5 -6 5 261.57 11.1
-5 6 5 237.88 10.9
-5 6 5 244.88 10.2
-5 6 5 243.68 11
5 6 -5 233.38 10.1
5 6 -5 249.38 11.3
-5 6 5 237.08 11.2
4 -6 -5 46.5 4.1
-4 -6 5 56.09 4
4 -6 -5 51.89 3.7
-4 -6 5 57.39 3.4
-4 6 5 52.99 2.7
4 6 -5 54.29 2.7
4 6 -5 56.89 3.8
-4 6 5 57.99 3.8
-4 6 5 51.59 3.5
-4 6 5 52.99 3.4
-3 -6 5 101.59 5.1
3 -6 -5 104.79 5.5
-3 -6 5 97.99 5.5
-3 6 5 100.49 5.3
-3 6 5 103.09 5.6
-3 6 5 98.59 4.4
3 6 -5 101.99 4.6
-3 6 5 103.59 5.1
2 -6 -5 96.79 5
-2 -6 5 96.29 4.7
2 -6 -5 93.99 4.9
-2 -6 5 91.49 5.2
-2 6 5 102.49 4.7
-2 6 5 93.89 5.2
-2 6 5 91.49 5
2 6 -5 97.29 4.3
-2 6 5 90.39 4
-1 -6 5 432.96 17.5
1 -6 -5 439.56 17.6
1 -6 -5 428.56 17.6
-1 -6 5 399.56 17.9
-1 6 5 396.16 16.8
-1 6 5 418.26 18.2
-1 6 5 440.06 17.4
-1 6 5 415.96 17.9
0 -6 5 286.37 12.4
0 -6 5 281.87 12.9
0 -6 -5 299.27 12.2
0 -6 -5 324.27 12.7
0 6 -5 287.47 12.2
0 6 5 281.47 12.7
0 6 5 296.27 13.1
-1 -6 -5 1009.7 42.7
1 -6 5 1068.79 42.3
1 -6 5 1035.6 42.8
1 6 5 1039.8 42.6
-1 6 -5 1082.29 42.3
-1 6 -5 1027.9 42.1
1 6 5 1064.99 43
-2 -6 -5 351.06 15.1
-2 6 -5 356.36 14.4
2 6 5 358.46 15.3
2 6 5 340.47 14.9
-2 6 -5 342.37 14.5
-3 -6 -5 112.49 5.7
-3 6 -5 112.29 5.1
3 6 5 104.99 5.5
-3 6 -5 112.49 5.1
3 6 5 114.39 5.9
-4 -6 -5 205.78 9.6
4 6 5 191.18 9.3
-4 6 -5 214.38 8.8
4 6 5 204.08 9.4
-4 6 -5 207.08 8.8
4 6 5 207.68 9.5
-5 -6 -5 416.36 19.7
-5 6 -5 460.05 19
5 6 5 482.85 19.7
-5 6 -5 461.25 19.7
5 6 5 436.76 19.5
-5 6 -5 491.15 19
5 6 5 474.15 19.7
6 -6 5 170.68 7.8
-6 -6 -5 154.58 8
-6 6 -5 157.68 7.1
-6 6 -5 162.58 7.2
-6 6 -5 146.49 7.8
6 6 5 160.48 7.6
6 6 5 159.38 7.9
-7 -6 -5 22.8 3
-7 6 -5 16.2 1.8
-7 6 -5 22.2 2.8
7 6 5 19.6 2.2
-7 6 -5 19.1 1.7
-8 -6 -5 8.2 2.3
-8 6 -5 8.4 1.3
-8 6 -5 13.2 2.4
-9 -6 -5 191.38 9.9
-9 6 -5 173.28 9.5
-9 6 -5 186.98 8.6
-9 6 -5 201.38 9.5
-10 -6 -5 114.49 7.3
-10 6 -5 116.49 6
-10 6 -5 124.99 5.6
-10 6 -5 114.89 7
-11 -6 -5 46.4 4.7
-11 6 -5 48.5 2.8
-11 6 -5 42.9 4.3
-11 6 -5 52.39 3.6
-12 6 -5 14.5 3.2
-12 6 -5 17.8 2.5
-13 6 -5 11 3.2
-13 6 -5 21.5 3.3
-14 6 -5 4.9 3.3
-14 6 -5 1.7 5.1
-15 6 -5 -3.1 3.7
-15 -7 5 0.1 1.7
-15 7 5 1.5 3.5
-15 7 5 1.7 6.6
-14 -7 5 2.4 1.6
-14 -7 5 1.7 4.3
14 7 -5 0.1 5.1
-14 7 5 3.4 3.1
-14 7 5 4.3 7.4
-13 -7 5 -0.8 3.3
-13 -7 5 1.5 1.5
-13 7 5 3 3.2
-13 7 5 0.4 2.5
13 7 -5 4.8 3.6
-12 -7 5 18.9 3.1
-12 -7 5 8.5 3
-12 7 5 13.9 2.7
-12 7 5 11.4 3.3
-11 -7 5 5.7 2.6
-11 7 5 6 2.6
-10 -7 5 4.1 2.5
-10 7 5 3.5 1.4
-10 7 5 1.4 2.2
9 -7 -5 23.9 6.2
-9 -7 5 31.7 3.7
-9 7 5 33.6 2.5
9 7 -5 30.9 8.1
-9 7 5 37.1 3.7
8 -7 -5 56.89 7
8 7 -5 50.69 6.9
-8 7 5 63.19 4.6
-8 7 5 65.09 4.6
-7 -7 5 -0.6 1.8
7 -7 -5 -0.5 2.6
-7 -7 5 0.7 1.6
-7 7 5 0.6 1.7
-7 7 5 -0.4 0.8
7 7 -5 0.7 2.7
6 -7 -5 13.7 2.8
-6 -7 5 13.1 3.1
-6 -7 5 16.3 2.4
-6 -7 5 15.3 2.2
-6 7 5 17.5 2.4
6 7 -5 15.8 2.8
-6 7 5 21.5 3
6 7 -5 19 1.3
-6 7 5 17.2 1.5
-5 -7 5 18.7 2.3
-5 -7 5 12.8 2.3
5 -7 -5 12.7 2.4
5 7 -5 12.5 2.5
-5 7 5 17.4 2.2
5 7 -5 17.3 1.3
-5 7 5 15.6 1.4
-5 7 5 15.2 2.3
4 -7 -5 1.6 1.4
-4 -7 5 1.5 1.6
-4 -7 5 1.4 1.3
-4 7 5 1.2 0.6
-4 7 5 2.9 1.4
-4 7 5 1.9 1.4
-4 7 5 1.5 1.5
4 7 -5 2.7 0.8
-3 -7 5 1.6 1.2
3 -7 -5 0.7 1.3
-3 -7 5 1 1.5
3 7 -5 2.7 0.8
-3 7 5 0.7 0.5
-3 7 5 -0.4 1.3
-3 7 5 1.4 1.1
-3 7 5 -0.2 1.2
2 -7 -5 74.59 4.4
-2 -7 5 73.29 4.8
-2 -7 5 84.09 4.2
2 -7 -5 77.19 4.5
-2 7 5 78.99 4.1
2 7 -5 75.69 3.7
-2 7 5 81.29 4.9
-2 7 5 78.59 4.6
-2 7 5 75.29 3.3
1 -7 -5 14.4 1.7
-1 -7 5 15.3 1.7
-1 -7 5 14.8 2.1
1 -7 -5 13.2 1.7
-1 7 5 15.2 1.5
-1 7 5 10.5 1.7
-1 7 5 13.4 2.2
1 7 -5 13.6 1.4
0 -7 -5 92.39 4.5
0 -7 5 96.19 4.7
0 -7 5 96.79 5.4
0 -7 -5 100.49 5.1
0 7 5 83.29 5
0 7 5 91.79 5.4
0 7 -5 93.79 4.4
1 -7 5 3.1 1.3
1 -7 5 2.5 1
-1 -7 -5 3.2 1.5
-1 7 -5 3.7 0.9
1 7 5 2.2 1.2
1 7 5 2.2 1.4
-1 7 -5 3.5 1
-2 -7 -5 71.39 4.1
2 -7 5 66.19 3.6
2 7 5 65.59 4.4
-2 7 -5 70.69 3.4
-2 7 -5 67.89 3.4
2 7 5 69.89 4.3
-3 -7 -5 54.69 3.7
3 7 5 53.99 3.6
-3 7 -5 51.39 2.9
3 7 5 55.99 3.8
-3 7 -5 55.59 2.9
-4 -7 -5 183.18 8.6
-4 7 -5 171.38 7.4
-4 7 -5 173.38 7.7
4 7 5 170.08 8.5
-4 7 -5 176.08 7.7
-5 -7 -5 77.59 4.9
5 -7 5 85.49 5.1
5 7 5 79.09 4.8
-5 7 -5 84.49 4.1
-5 7 -5 82.39 4.1
5 7 5 81.29 5.6
-6 -7 -5 46.4 3.8
-6 7 -5 53.09 3
6 7 5 43.8 3.4
-6 7 -5 50.69 3.8
-6 7 -5 55.89 3
-7 7 -5 2.4 1.7
-7 7 -5 4.1 1.2
-7 7 -5 4.2 1.2
7 7 5 0.8 1.4
-8 -7 -5 6.9 2.3
-8 7 -5 6.3 2
-8 7 -5 5.7 1.4
-8 7 -5 7.3 1.4
-9 -7 -5 9.2 2.7
-9 7 -5 4.2 2.2
-9 7 -5 6.2 1.4
-9 7 -5 9.6 1.8
-10 -7 -5 38.5 4.5
-10 7 -5 44.3 2.8
-10 7 -5 47.5 3.4
-10 7 -5 43.5 4.3
-11 -7 -5 6.9 4.3
-11 7 -5 5 1.8
-11 7 -5 2.2 3.7
-11 7 -5 8.6 1.4
-12 -7 -5 4.9 3.1
-12 7 -5 4.3 2.8
-12 7 -5 3.8 2.4
-13 7 -5 1 3
-13 7 -5 -5.7 4.1
-14 7 -5 2.3 3.5
-15 7 -5 2.2 4.1
-15 8 5 10.4 5.7
-15 8 5 9 3.8
-14 -8 5 4.9 1.9
-14 8 5 6 3.9
-14 8 5 9.2 4.7
14 8 -5 13.3 6.6
-13 -8 5 16.3 2
-13 -8 5 23.4 7.8
-13 8 5 23.8 8.4
-13 8 5 12.8 2.9
-12 -8 5 70.09 4.1
-12 -8 5 72.99 6.3
-12 8 5 64.39 6.2
-12 8 5 67.29 4.8
-11 -8 5 89.09 4.9
-11 8 5 83.69 6.5
-11 8 5 99.99 5.3
-11 8 5 96.09 4.7
-10 -8 5 13.6 3.1
-10 8 5 13.8 2.9
-10 8 5 19.9 2.2
-9 -8 5 -2.4 2
-9 8 5 -1 1.9
-9 8 5 0.9 1.1
8 -8 -5 11.7 5.8
-8 -8 5 -0.7 1.8
-8 8 5 -0.8 1.8
-8 8 5 2.7 1.6
-7 -8 5 10.1 2.5
7 -8 -5 8 3.8
-7 -8 5 6.8 2.1
-7 8 5 9.3 1.3
-7 8 5 8.9 2.3
7 8 -5 9.2 3.7
6 -8 -5 2.6 3.6
-6 -8 5 0.9 1.5
-6 8 5 -0.6 1.7
-6 8 5 1.9 1.6
-6 8 5 2.1 0.9
6 8 -5 1.1 0.7
-5 -8 5 9.7 2.1
-5 -8 5 6.2 2.1
5 -8 -5 8.9 2.5
-5 8 5 9.9 1.9
-5 8 5 9.5 2.2
-5 8 5 9.7 1.1
5 8 -5 9.7 1.2
-4 -8 5 2.5 1.4
4 -8 -5 1.1 1.8
-4 -8 5 0.1 1.9
-4 -8 5 1.7 1.6
-4 8 5 2.3 1.9
-4 8 5 0.6 0.6
4 8 -5 3 0.9
-4 8 5 2.5 1.4
3 -8 -5 58.69 4.4
-3 -8 5 65.29 4.8
-3 -8 5 59.39 3.8
-3 8 5 61.09 3.7
-3 8 5 55.29 4.3
3 8 -5 60.19 3.1
-3 8 5 56.99 2.8
2 -8 -5 497.85 21.1
-2 -8 5 488.95 21.5
-2 -8 5 523.85 21.1
-2 8 5 501.15 20.8
2 8 -5 492.95 20.4
-2 8 5 473.95 21.6
-1 -8 5 781.72 33.7
-1 -8 5 819.72 33.1
1 -8 -5 791.22 33.4
1 -8 -5 842.42 33.1
1 8 -5 811.52 32.6
-1 8 5 808.02 33.9
-1 8 5 772.02 33.5
0 -8 -5 166.78 8.1
0 -8 5 189.48 8.3
0 -8 -5 163.28 7.4
0 -8 -5 170.58 7.4
0 8 5 160.68 8.4
0 8 5 148.69 8.1
0 8 -5 160.98 7.3
1 -8 5 31.8 3.5
-1 -8 -5 33.8 2.9
1 8 5 33.8 3
-1 8 -5 31.1 2.1
-2 -8 -5 96.29 5.5
2 -8 5 96.49 6
2 -8 5 100.89 5.1
2 8 5 96.79 5.7
-2 8 -5 97.19 4.8
-2 8 -5 102.59 4.7
-3 -8 -5 89.69 5.4
3 -8 5 99.09 5.9
3 -8 5 98.49 7.2
-3 8 -5 96.89 4.6
3 8 5 99.49 5.7
-3 8 -5 94.69 4.7
-4 -8 -5 99.89 6
4 -8 5 104.99 6.3
4 8 5 109.79 6
-4 8 -5 108.09 5.1
-4 8 -5 105.99 5
-4 8 -5 103.59 4.8
-5 -8 -5 5.8 2
-5 8 -5 9.1 1.4
5 8 5 8 1.9
-5 8 -5 11.8 1.6
-6 -8 -5 30.5 3.3
-6 8 -5 33.8 2.4
-6 8 -5 31.4 2.4
6 8 5 30.6 3
-7 -8 -5 55.29 4.6
-7 8 -5 61.59 3.6
7 8 5 61.69 4.2
-7 8 -5 59.29 3.5
-8 -8 -5 17.2 3.3
-8 8 -5 12.4 1.7
-8 8 -5 13.2 1.8
-8 8 -5 11 2.6
-9 -8 -5 25.5 3.8
-9 8 -5 29.4 3.6
-9 8 -5 31.1 2.5
-9 8 -5 29.5 2.7
-10 -8 -5 26.4 4.1
-10 8 -5 20.3 3.4
-10 8 -5 26.2 2.9
-10 8 -5 22.5 2.2
-11 -8 -5 27.7 4.4
-11 8 -5 38 3.8
-11 8 -5 34.1 4.4
-11 8 -5 32.5 2.5
-12 -8 -5 5.2 3.7
-12 8 -5 11.4 3.1
-13 8 -5 29 4.4
-14 8 -5 8 4.1
14 9 -5 -0.8 5.9
-14 9 5 0.4 5
-14 9 5 1.3 3.3
-13 9 5 -4.4 2.8
-13 9 5 -4.7 3.8
-12 -9 5 5.9 1.6
-12 -9 5 2.2 3.6
-12 9 5 6.3 3.7
-12 9 5 7.6 2.4
-11 -9 5 37 3.1
-11 -9 5 41.1 5.2
-11 9 5 39.9 3.4
-11 9 5 36.4 4.8
-10 -9 5 108.79 10.3
-10 9 5 119.59 9.5
-10 9 5 116.79 5.8
-9 -9 5 57.79 5.1
-9 9 5 57.49 3.4
-9 9 5 56.29 4.9
-8 -9 5 0.8 2.1
-8 9 5 2.4 2
-8 9 5 0.8 1
-7 -9 5 103.49 6.4
-7 9 5 100.29 6.1
6 -9 -5 133.19 13.6
-6 -9 5 117.69 7
6 9 -5 109.19 5
-6 9 5 111.69 5.1
-6 9 5 88.09 7.2
-5 -9 5 397.96 17.3
-5 -9 5 379.76 17.2
5 -9 -5 382.66 17.9
5 9 -5 389.26 16
-5 9 5 382.76 15.8
-5 9 5 374.46 16.9
-5 9 5 382.36 17.7
-4 -9 5 125.09 6.6
-4 9 5 118.79 7.2
4 9 -5 119.19 5.5
-4 9 5 118.49 5.3
-4 9 5 122.69 6.3
-3 -9 5 165.48 8.9
3 -9 -5 175.58 8.9
-3 -9 5 178.78 8.5
-3 -9 5 161.58 9.3
3 9 -5 167.18 7.6
-3 9 5 184.78 9.3
-3 9 5 172.38 8.2
-2 -9 5 29.1 2.7
-2 -9 5 26.4 3.6
2 -9 -5 27.9 3.5
-2 -9 5 33.5 3.9
2 9 -5 28.5 2.1
-2 9 5 32.8 3.4
1 -9 -5 9.2 1.9
-1 -9 5 13.6 2.8
-1 -9 5 12.6 2.8
-1 -9 5 10.2 1.8
1 9 -5 10.9 1.4
-1 9 5 15.6 2.7
0 -9 5 3.5 1.4
0 -9 -5 0.4 1.4
0 -9 -5 4.1 1.8
0 -9 5 2.8 1.9
0 -9 5 0.2 2.1
0 -9 -5 3.5 1.6
0 9 -5 4.5 1.1
0 9 5 4.7 2
1 -9 5 4.9 2
1 -9 5 10.6 1.8
1 -9 5 5.9 2.7
-1 -9 -5 7.7 2.1
1 9 5 9.2 2.3
-1 9 -5 6.9 1.2
2 -9 5 102.39 5.6
2 -9 5 113.29 6.8
-2 -9 -5 111.89 6.2
2 -9 5 101.49 6.9
-2 9 -5 107.69 5.1
2 9 5 108.79 6.3
-2 9 -5 111.49 5.3
3 -9 5 162.78 8.9
3 -9 5 138.29 8.8
-3 -9 -5 164.98 8.4
3 -9 5 165.28 7.7
-3 9 -5 165.28 7.2
3 9 5 163.68 8.4
4 -9 5 16.2 3.6
4 -9 5 18.7 3.4
4 9 5 23 2.9
-4 9 -5 25.2 2.1
-4 9 -5 22.3 1.9
-4 9 -5 21.7 2.1
-5 -9 -5 205.38 9.9
-5 9 -5 191.38 8.6
-5 9 -5 197.28 8.7
5 9 5 172.78 9.5
-6 -9 -5 244.58 12.1
-6 9 -5 254.27 10.8
6 9 5 230.48 11.6
-6 9 -5 248.78 10.8
-7 -9 -5 3 2.1
-7 9 -5 0.5 1.1
-7 9 -5 2.9 1.3
-8 -9 -5 20.8 3.4
-8 9 -5 20.3 2.3
-8 9 -5 21.8 2.2
-9 -9 -5 35.3 4.5
-9 9 -5 34.6 3.1
-9 9 -5 34.6 2.8
-10 -9 -5 30.1 4.5
-10 9 -5 44.6 3
-10 9 -5 38.9 3.7
-11 -9 -5 6.7 3.8
-11 9 -5 9 2.6
-11 9 -5 10.1 1.6
-12 -9 -5 2.8 4.1
-12 9 -5 1.6 3
-13 9 -5 2.6 3.7
-14 9 -5 5.3 3.8
-13 10 5 0.8 3
-12 10 5 0.3 2.4
-12 10 5 -2.4 4.4
-11 -10 5 2.3 3.4
-11 10 5 -0.9 3.2
-11 10 5 -0.3 1.3
-11 10 5 1.9 1.9
-10 -10 5 0.6 3.1
-10 10 5 0.4 2.4
-10 10 5 4.2 1.6
-9 -10 5 10 3.6
-9 10 5 13.6 1.7
-8 -10 5 2.9 2.5
-8 10 5 3.9 1.1
-8 10 5 1.6 2.2
-7 -10 5 0 2
-7 10 5 3.2 2.1
-7 10 5 1.6 1.6
-6 -10 5 34.1 3.7
-6 10 5 35.3 3.5
6 10 -5 38.3 2.4
-6 10 5 37.9 2.3
-5 -10 5 6.5 2.2
-5 10 5 9.8 1.2
5 10 -5 9.7 1.4
-5 10 5 5.6 2
-4 -10 5 4 1.9
-4 10 5 0.1 1.4
-4 10 5 1.7 2.1
4 10 -5 -0.3 0.9
-3 -10 5 60.79 4.2
3 -10 -5 58.19 5.8
-3 -10 5 55.19 5.7
-3 10 5 51.69 4.7
3 10 -5 55.59 3.2
2 -10 -5 -2.4 2.5
-2 -10 5 -1 2.5
-2 -10 5 2.6 1.6
-2 10 5 0 1.9
2 10 -5 0.5 1
-1 -10 5 9.3 2
1 -10 -5 7.1 2.3
-1 -10 5 11.1 3.4
-1 -10 5 2.7 3.3
1 -10 -5 8.6 2.2
-1 10 5 8.7 2.5
0 -10 -5 15.5 2.8
0 -10 -5 14.5 2.4
0 -10 5 11.4 3.4
0 -10 5 11.8 3.7
0 -10 5 15.7 2.2
0 10 -5 13.8 1.6
0 10 5 17 3.1
1 -10 5 5.8 2.9
1 -10 5 5.2 3.3
-1 -10 -5 7.4 2
1 -10 5 7.7 1.8
-1 10 -5 9.4 1.5
1 10 5 9.9 2.5
2 -10 5 -5.4 2.9
-2 -10 -5 0.4 1.7
2 -10 5 0 1.3
-2 10 -5 -3.4 1.5
2 10 5 4.1 2
3 -10 5 -0.9 1.4
-3 -10 -5 -1 1.7
3 -10 5 1.2 3.2
3 -10 5 -2.2 3.7
-3 10 -5 1.1 1.1
-3 10 -5 0.1 1
3 10 5 -0.8 1.7
4 -10 5 19.2 5.7
4 -10 5 23.3 2.8
-4 -10 -5 20.1 3.1
-4 10 -5 21.9 2.2
4 10 5 18.8 3
-5 -10 -5 29.5 3.5
-5 10 -5 24.2 2.2
-5 10 -5 30.6 2.5
-6 -10 -5 24 3.6
-6 10 -5 12.6 1.9
-6 10 -5 18 2.1
-7 -10 -5 3.6 2.4
-7 10 -5 -0.1 1.2
-7 10 -5 -0.5 1.2
-8 -10 -5 29.5 4.3
-8 10 -5 33.8 2.8
-8 10 -5 28.7 2.8
-9 10 -5 35.2 4.5
-10 -10 -5 6.9 3.7
-10 10 -5 11.5 2
-10 10 -5 11.7 2.6
-11 -10 -5 -1.2 4.8
-11 10 -5 -1.2 1.3
-11 10 -5 -3.7 2.7
-12 -10 -5 -4.5 4.3
-12 10 -5 -1.1 3.3
-13 10 -5 1.7 3.7
-13 11 5 2.6 3
-13 11 5 2.8 5.9
-12 11 5 0.9 2.5
-12 11 5 -1.2 4.6
-11 11 5 7.7 2.3
-11 11 5 4.2 1.7
-10 -11 5 3.1 3.7
-10 11 5 1.6 1.6
-10 11 5 1.7 3.4
-9 -11 5 0.9 3
-9 11 5 3.1 2
-9 11 5 0.9 2.7
-8 -11 5 -2.8 3
-8 11 5 4.1 3.7
-8 11 5 1.1 1
-7 -11 5 54.39 5
-7 11 5 56.99 4.7
-7 11 5 54.89 3.1
-6 -11 5 4.3 2.3
6 11 -5 3.8 1.2
-6 11 5 4.7 2.1
-5 -11 5 88.29 5.9
-5 11 5 78.29 5.3
5 11 -5 91.89 4.4
-4 -11 5 21.4 3.2
4 11 -5 24.3 2
-3 -11 5 24.1 3.2
3 11 -5 23.1 2.1
2 -11 -5 1.3 1.9
-2 -11 5 2.2 1.9
-2 11 5 -0.2 2
2 11 -5 1.7 1.1
1 -11 -5 1.1 3.1
1 -11 -5 -0.5 1.7
-1 -11 5 2.4 4.2
-1 -11 5 -0.1 1.6
1 11 -5 0 1
-1 11 5 0.5 2
0 -11 5 17.4 2.7
0 -11 -5 19 3.2
0 11 5 13.5 3.1
0 11 -5 14.4 1.8
1 -11 5 47 6.3
-1 -11 -5 53.89 4.4
1 -11 5 45.8 3.7
-1 11 -5 49.99 3.1
1 11 5 43.5 4.5
2 -11 5 35.7 3.3
-2 -11 -5 37.7 3.8
2 -11 5 29.3 6
2 11 5 33.7 4
-2 11 -5 32.9 2.7
-3 -11 -5 42 4
3 -11 5 33.6 3.4
-3 11 -5 39.4 2.9
4 -11 5 17.8 2.7
-4 -11 -5 27.5 3.9
-4 11 -5 19.2 2
-4 11 -5 23.1 2.4
-5 -11 -5 0.9 2.1
5 -11 5 -1.7 1.9
-5 11 -5 0 1
-5 11 -5 1.1 1.4
-6 -11 -5 36.9 4.6
-6 11 -5 28.9 2.5
-6 11 -5 31.6 2.9
-7 11 -5 2.5 1.4
-7 11 -5 2.8 1.7
-8 -11 -5 1 2.7
-8 11 -5 2.4 1.6
-8 11 -5 2.1 1.8
-9 -11 -5 6.3 3.8
-9 11 -5 6.9 1.9
-9 11 -5 4.8 2.3
-10 -11 -5 31 7.3
-10 11 -5 33.1 3.9
-10 11 -5 33.1 3
-11 -11 -5 2.8 4.2
-11 11 -5 5.4 3.1
-11 11 -5 9.6 3.5
-12 -11 -5 4.1 5.3
-12 11 -5 -0.1 3.5
-12 12 5 -4.7 5.5
-11 12 5 7 1.9
-11 12 5 0.2 4
-10 -12 5 -3.1 4.5
-10 12 5 1.8 4.5
-10 12 5 0.7 1.6
-9 -12 5 0.8 3.6
-9 12 5 1.9 3.1
-8 -12 5 0.9 3.4
-8 12 5 0.2 2.7
-7 -12 5 0.7 2.9
-6 -12 5 53.69 5
6 12 -5 48.7 3.1
-5 -12 5 103.19 6.6
5 12 -5 92.39 4.8
-4 -12 5 79.09 5.7
4 12 -5 76.29 4.2
-3 -12 5 93.59 6.1
3 -12 -5 92.19 6.3
3 12 -5 89.29 4.7
-2 -12 5 68.79 5
2 -12 -5 78.59 5.5
2 12 -5 64.39 3.9
1 -12 -5 80.59 5.7
-1 -12 5 75.29 5.2
1 12 -5 76.79 4.3
0 -12 -5 51.29 4.6
0 -12 5 52.79 4.2
0 12 -5 50.79 3.4
-1 -12 -5 29.6 4.1
1 -12 5 20.4 2.9
-1 12 -5 25.9 2.5
2 -12 5 34.3 3.6
-2 -12 -5 35.5 4.1
-2 12 -5 39.2 2.9
-3 -12 -5 91.49 6.5
3 -12 5 95.99 5.9
-3 12 -5 95.49 5.2
-4 -12 -5 75.99 6
4 -12 5 72.49 5.3
-4 12 -5 81.19 4.6
5 -12 5 51.89 4.6
-5 12 -5 52.59 3.8
6 -12 5 22.4 3.6
-6 -12 -5 33.3 4.8
-6 12 -5 28.7 2.5
-6 12 -5 28.1 4.1
-7 -12 -5 4.9 3.3
-7 12 -5 -0.3 3.4
-7 12 -5 0.6 1.6
-8 -12 -5 -1.4 3.1
-8 12 -5 0.9 2
-8 12 -5 1.1 1.9
-9 -12 -5 4.5 6
-9 12 -5 0.3 2.4
-9 12 -5 1.5 2.1
-10 -12 -5 1.7 4.4
-10 12 -5 -1.4 1.8
-10 12 -5 2.6 3
-11 -12 -5 1 5.2
-11 12 -5 7.4 3.5
-11 12 -5 -0.2 1.5
-11 13 5 -1 2
-10 -13 5 9.5 5.4
-10 13 5 5.7 2
-9 -13 5 9.8 4.9
-9 13 5 10.2 2.4
-8 -13 5 5.7 4.9
-7 -13 5 1.8 3.5
-6 -13 5 21.8 4.1
-5 -13 5 -3 2.7
5 -13 -5 2.5 2.6
5 13 -5 1.8 1.3
4 -13 -5 -0.2 2.7
-4 -13 5 -1.4 3.8
4 13 -5 0.1 1.2
-3 -13 5 3.2 2.7
3 -13 -5 2.7 2.4
3 13 -5 0.8 1.3
2 -13 -5 -0.6 4.2
-2 -13 5 2.4 2.5
2 13 -5 3.7 1.5
1 -13 -5 5.9 2.7
-1 -13 5 6.7 2.6
1 13 -5 3.7 1.6
0 -13 -5 3.8 2.5
0 -13 5 2.8 2.3
0 13 -5 5.6 1.7
-1 -13 -5 8.3 3.6
1 -13 5 8.7 2.8
-1 13 -5 12.1 2.2
-2 -13 -5 7 3.1
2 -13 5 9 2.8
-2 13 -5 6.5 1.9
-3 -13 -5 14.8 3.7
3 -13 5 11.5 3
4 -13 5 0.8 2.8
-4 -13 -5 1.5 2.9
-4 13 -5 -0.5 1.9
-5 -13 -5 -0.7 2.8
-5 13 -5 -0.4 2.3
-6 -13 -5 0.3 3
-6 13 -5 2 2.5
-7 -13 -5 0.4 3.3
-7 13 -5 1 2.3
-8 -13 -5 0.7 4.4
-8 13 -5 5 2.4
-8 13 -5 -2.4 2.4
-9 -13 -5 0.1 4.6
-9 13 -5 7.9 3.2
-9 13 -5 0.2 4.4
-10 -13 -5 6.1 5.7
-10 13 -5 -1.2 2
-10 13 -5 2.2 3
-9 14 5 9.2 2.6
8 -14 -5 13.4 5.1
-8 -14 5 20.7 11.1
-7 -14 5 -0.8 4.6
7 -14 -5 3.7 5.2
-6 -14 5 2.6 4.5
6 -14 -5 4.8 5
-5 -14 5 -0.8 3.6
5 -14 -5 0.6 3.3
5 14 -5 0.1 1.6
4 -14 -5 3.6 3.3
-4 -14 5 8.9 3.8
4 14 -5 7.6 2
-3 -14 5 -1.3 3.2
3 -14 -5 -1.3 2.6
3 14 -5 2.1 1.8
-2 -14 5 5.7 3.4
2 -14 -5 1.6 3
2 14 -5 -1.3 1.9
1 -14 -5 0 2.7
-1 -14 5 4.3 3.3
1 14 -5 0.3 2
0 -14 5 5.1 3.2
0 -14 -5 5.8 3.3
0 14 -5 1.5 2.2
1 -14 5 7.2 3.3
-1 -14 -5 13.8 3.8
-1 14 -5 10.4 2.6
-2 -14 -5 13.9 3.8
-2 14 -5 13.8 2.7
-3 -14 -5 8.5 3.7
-3 14 -5 5.5 2.8
-4 -14 -5 0.6 3.4
-4 14 -5 2.8 2.7
-5 -14 -5 -0.7 3.7
-5 14 -5 -0.7 3.1
-6 -14 -5 1 3.8
-6 14 -5 -0.7 3
-7 -14 -5 4.7 4.4
-7 14 -5 10 3.1
-8 -14 -5 17.6 5.9
-8 14 -5 17.7 3.5
-9 -14 -5 13.2 5.5
-9 14 -5 8.3 3
8 -15 -5 8.5 7.1
-8 15 5 6.3 3.4
7 -15 -5 18.6 5.2
6 -15 -5 4.9 4.8
5 -15 -5 5.7 4.5
4 -15 -5 1.4 4.2
4 15 -5 2 2.3
3 -15 -5 16.2 4.6
3 15 -5 9.3 2.7
2 15 -5 1.8 2.8
1 -15 -5 9.4 5.9
1 15 -5 7 2.9
0 -15 -5 1.3 4
-1 -15 -5 2.6 5.1
-1 15 -5 6.2 3.4
-2 -15 -5 38.2 7.4
-2 15 -5 30 4.2
-3 -15 -5 20.1 6
-3 15 -5 29.9 4.4
-4 -15 -5 33.4 6.6
-4 15 -5 34.3 4.9
-5 -15 -5 12.3 4.7
-5 15 -5 11.4 3.4
-6 -15 -5 30.8 6.6
-6 15 -5 20.4 3.9
-7 -15 -5 14.1 6.3
-7 15 -5 15.9 4.1
5 -16 -5 5.3 5.1
4 -16 -5 3.7 4.8
4 16 -5 -1.7 2.7
3 -16 -5 8.8 8.7
3 16 -5 1.1 3
2 -16 -5 3.2 4.3
2 16 -5 2.5 3.3
1 -16 -5 0.9 4.2
0 -16 -5 5.9 4.7
0 16 -5 5.4 4.3
-1 -16 -5 5.3 4.3
-1 16 -5 9.9 5.6
-2 -16 -5 -0.2 4.9
-3 -16 -5 13.1 6.6
-3 16 -5 0.3 4
-4 -16 -5 -2.2 4.9
-4 16 -5 2.3 4.3
-5 -16 -5 -1.2 4.8
-5 16 -5 5 3.9
-16 0 6 10.4 3.8
-16 0 6 14.8 4.7
-15 0 6 14.8 4.6
-15 0 6 22 3.7
-14 0 6 55.59 6
-14 0 6 62.99 4.7
-13 0 6 85.39 6.7
-13 0 6 95.59 5.4
-12 0 6 0.5 1.3
-12 0 6 1.2 2.4
12 0 -6 -0.1 1.9
-11 0 6 25.6 3.7
11 0 -6 16.2 4.7
-11 0 6 21 2.3
11 0 -6 20.2 2.8
10 0 -6 -0.4 1.5
-10 0 6 0.9 1.9
10 0 -6 1.8 3
9 0 -6 16 2.2
9 0 -6 7.5 3.6
-9 0 6 10.4 2.1
8 0 -6 321.07 14.6
-8 0 6 316.17 14.5
8 0 -6 325.47 14.1
-8 0 6 320.47 14
-8 0 6 320.47 13.1
-7 0 6 669.43 26.2
7 0 -6 625.94 26.7
-7 0 6 632.14 27
-6 0 6 814.22 32.5
-6 0 6 760.92 32.2
6 0 -6 800.12 32.7
5 0 -6 198.78 8.7
-5 0 6 184.08 8.7
5 0 -6 195.78 8.8
4 0 -6 423.46 17.3
4 0 -6 446.86 17.9
-4 0 6 414.06 17.9
4 0 -6 430.56 17.9
3 0 -6 715.23 27.9
-3 0 6 693.63 27.9
3 0 -6 640.64 27.7
3 0 -6 673.73 27.3
3 0 -6 682.93 27.7
2 0 -6 4.1 1.1
2 0 -6 4.3 0.6
2 0 -6 1.8 0.8
-2 0 6 3.9 0.8
2 0 -6 3.8 0.8
1 0 -6 21.6 1.7
1 0 -6 18.8 1.2
-1 0 6 21.7 1.5
-1 0 -6 113.69 4.9
1 0 6 106.19 5.3
1 0 6 109.99 4.8
-1 0 -6 107.79 5
-1 0 -6 105.99 4.7
-1 0 -6 108.69 4.5
-2 0 -6 331.27 13.2
-2 0 -6 330.27 13.5
2 0 6 329.97 13.8
-2 0 -6 322.37 13.2
-2 0 -6 313.67 13.2
2 0 6 320.37 13.4
-3 0 -6 227.28 9.4
3 0 6 244.18 9.7
-3 0 -6 218.38 9.2
-3 0 -6 207.68 9.2
3 0 6 220.88 9.3
3 0 6 220.88 9.7
-3 0 -6 222.28 9.3
4 0 6 480.95 20.3
-4 0 -6 462.35 19.8
-4 0 -6 501.55 19.8
4 0 6 493.75 20.2
4 0 6 508.05 20.2
-4 0 -6 495.05 20
-4 0 -6 484.95 20
-5 0 -6 120.09 5.4
-5 0 -6 128.79 5.5
-5 0 -6 126.59 5.8
-5 0 -6 128.39 5.7
5 0 6 124.09 6.2
-6 0 -6 102.89 4.3
-6 0 -6 94.39 4.4
-6 0 -6 96.39 4.7
-7 0 -6 0.9 0.5
-7 0 -6 0.8 1
-7 0 -6 1.6 0.8
-8 0 -6 175.98 7.7
-8 0 -6 185.58 8.1
-8 0 -6 166.58 7.3
-9 0 -6 186.48 7.9
-9 0 -6 176.58 8.3
-9 0 -6 168.48 7.4
-10 0 -6 50.99 3.6
-10 0 -6 54.19 3.2
-11 0 -6 28.3 2.3
-11 0 -6 25.2 3
-12 0 -6 1.5 1.2
-12 0 -6 0.5 2.3
-13 0 -6 160.48 8
-14 0 -6 42.4 3.4
-15 0 -6 2.5 1.8
-16 0 -6 -0.9 1.7
-16 -1 6 0.1 4.1
-16 -1 6 2 3.3
-16 1 6 -3.6 4.1
-16 1 6 -2.4 3.6
-15 -1 6 1.4 2.6
-15 -1 6 -2 3.8
-15 1 6 2.5 4.7
-15 1 6 -4 3
-14 -1 6 2.1 2.1
-14 -1 6 0.3 3.2
-14 1 6 -0.7 2.1
-14 1 6 -0.2 3
-13 -1 6 11.1 3.2
-13 -1 6 16.3 2.4
-13 1 6 12.2 3.4
-13 1 6 12.3 2.4
-12 -1 6 46.7 4.8
12 -1 -6 41.1 5.6
-12 -1 6 46.4 3.3
12 1 -6 42.6 4.1
-12 1 6 45.3 3.4
-12 1 6 45.1 4.6
-11 -1 6 31 2.6
11 -1 -6 27.1 5.3
11 -1 -6 25.8 2.9
-11 -1 6 32.7 3.8
11 1 -6 29.4 3.2
-11 1 6 31.1 3.8
11 1 -6 24.4 5.2
-11 1 6 28.4 2.6
10 -1 -6 83.39 6.7
10 -1 -6 83.29 4.6
-10 -1 6 76.99 5.3
-10 1 6 62.59 5
-10 1 6 79.49 5.4
10 1 -6 70.89 6.5
10 1 -6 81.49 4.9
9 -1 -6 25.4 3.6
-9 -1 6 22.8 3
-9 -1 6 23.7 2.2
9 -1 -6 25.7 2.5
9 1 -6 26.4 3.6
9 1 -6 24.7 2.7
-9 1 6 23.6 2.9
-8 -1 6 55.79 4.5
8 -1 -6 52.89 4.2
8 -1 -6 53.49 3.4
8 1 -6 54.99 4.2
-8 1 6 53.89 2.8
-8 1 6 50.89 3.8
-8 1 6 52.49 3.4
8 1 -6 49.3 3.5
-7 -1 6 271.27 11.4
7 -1 -6 272.87 12
7 1 -6 280.27 12.1
-7 1 6 276.97 12.4
-7 1 6 269.07 12.3
-7 1 6 267.87 11.6
6 -1 -6 81.89 4.4
-6 -1 6 83.29 4.5
6 -1 -6 85.59 4.7
6 1 -6 80.49 4.5
6 1 -6 85.29 4.8
-6 1 6 82.29 4.5
-6 1 6 89.79 4.8
-6 1 6 83.39 4.2
5 -1 -6 53.19 3.2
-5 -1 6 51.09 3.1
5 -1 -6 53.29 3.1
5 1 -6 49.9 3.2
5 1 -6 48.5 3.1
-5 1 6 49.99 2.9
-5 1 6 46.5 3.1
5 1 -6 49.1 2.3
4 -1 -6 104.89 5.3
4 -1 -6 114.89 5.3
-4 -1 6 107.59 5.4
-4 1 6 108.39 5.3
-4 1 6 104.99 5.3
4 1 -6 109.39 5.3
4 1 -6 115.79 5.4
-3 -1 6 462.75 19.7
3 -1 -6 487.45 19.6
3 -1 -6 488.45 19.5
3 1 -6 488.05 19.5
3 1 -6 431.36 19.4
3 1 -6 486.65 19.7
3 1 -6 469.95 19.1
-3 1 6 472.25 19.6
2 -1 -6 396.06 16.3
2 -1 -6 400.46 16.1
2 -1 -6 394.96 15.9
-2 -1 6 390.46 16.3
2 1 -6 359.66 16
2 1 -6 392.16 16.4
2 1 -6 421.26 16.1
-2 1 6 394.86 16.3
2 1 -6 382.66 15.9
1 -1 -6 43.5 2.1
1 -1 -6 41.3 2.5
-1 -1 6 47.2 2.4
1 1 -6 49.3 2.6
-1 1 6 46.4 2.5
1 1 -6 42.3 2.1
1 1 -6 39.6 2
0 -1 6 27 1.6
0 -1 -6 29.2 1.6
0 -1 -6 32.8 2
0 1 -6 27.7 1.6
0 1 -6 28.6 1.9
0 1 6 28.9 1.7
-1 -1 -6 257.67 10.7
-1 -1 -6 268.17 11
-1 -1 -6 261.47 10.7
1 -1 6 261.17 11.1
1 1 6 260.87 10.7
-1 1 -6 257.17 10.7
-1 1 -6 254.17 10.7
-1 1 -6 270.07 11
-2 -1 -6 71.89 3.3
-2 -1 -6 78.79 3.6
2 -1 6 72.09 3.7
2 -1 6 72.49 3.8
-2 -1 -6 70.59 3.1
-2 -1 -6 69.79 3.2
-2 1 -6 70.69 3.2
-2 1 -6 67.79 3.4
-2 1 -6 72.79 3.2
-3 -1 -6 72.19 3.3
-3 -1 -6 71.49 3.2
-3 -1 -6 72.69 3.5
3 -1 6 68.89 3.8
3 -1 6 73.19 3.4
-3 -1 -6 76.99 3.6
3 -1 6 76.69 4.1
-3 1 -6 71.19 3.4
3 1 6 76.99 3.3
-3 1 -6 70.09 3.3
-3 1 -6 70.59 3.3
-4 -1 -6 10.3 0.9
-4 -1 -6 11.5 1.3
4 -1 6 15.3 1.7
4 -1 6 13.5 1.5
-4 -1 -6 11.1 1.2
-4 -1 -6 12.2 1
-4 1 -6 10.5 1
-4 1 -6 11.8 1.1
-4 1 -6 11.8 1.1
-4 1 -6 12.8 1.3
4 1 6 11.4 1.4
-5 -1 -6 0.5 0.5
-5 -1 -6 2.1 0.7
5 -1 6 1.9 1.4
-5 -1 -6 0.9 0.6
-5 -1 -6 1 0.9
-5 1 -6 0.9 0.8
-5 1 -6 1.6 0.7
-5 1 -6 -0.2 0.5
-6 -1 -6 248.88 10.8
-6 -1 -6 242.28 10.3
-6 -1 -6 238.98 10.1
-6 -1 -6 239.48 10.4
-6 1 -6 260.67 10.4
-6 1 -6 238.78 10.2
-6 1 -6 256.27 10.7
-7 -1 -6 151.08 6.3
-7 -1 -6 143.59 6.9
-7 -1 -6 145.89 6.4
-7 -1 -6 139.19 6
-7 1 -6 135.79 6.3
-7 1 -6 138.19 6.1
-7 1 -6 139.09 6.7
-8 -1 -6 35 2.4
-8 -1 -6 32.1 2.1
-8 1 -6 35.5 2.3
-8 1 -6 31.3 2.6
-9 -1 -6 107.29 5.1
-9 -1 -6 103.19 5.4
-9 1 -6 106.89 5.1
9 1 6 106.69 5.2
-9 1 -6 106.89 5
-10 -1 -6 40.1 3.1
-10 1 -6 36.8 3.2
-11 -1 -6 0.1 1
-11 -1 -6 0.4 1.8
-11 1 -6 -1 1
-11 1 -6 1.2 1.7
-12 -1 -6 2.4 4.1
-12 -1 -6 3.1 1.3
-12 1 -6 2.9 2.2
-12 1 -6 2 1.3
-13 -1 -6 5.1 1.5
-13 1 -6 9.9 3.1
-14 -1 -6 1.2 1.5
-14 1 -6 5.9 2
-15 -1 -6 10.8 1.9
-15 1 -6 18.7 2.6
-16 -1 -6 7.8 1.8
-16 1 -6 7.7 2.3
-16 -2 6 2 4.9
-16 2 6 -2.3 5.4
-16 2 6 1 4.7
-15 -2 6 3.2 2.6
-15 -2 6 6.8 4.7
-15 2 6 0.3 3.4
-15 2 6 1.7 4.7
-14 -2 6 0.1 2
-14 -2 6 5.3 3.1
-14 2 6 -0.7 2.5
-14 2 6 1 3.2
-13 -2 6 5.6 1.8
-13 -2 6 13.2 4.6
13 2 -6 9.4 3.1
-13 2 6 9 2.3
-12 -2 6 -2.1 2.2
-12 -2 6 0.6 1.4
-12 2 6 1.4 2.3
-12 2 6 -0.7 1.4
12 2 -6 -2.8 2
-11 -2 6 6.8 2.6
11 -2 -6 5 1.9
11 -2 -6 10.7 5.6
-11 2 6 5.3 2.5
-11 2 6 7.8 1.7
11 2 -6 5.3 5.8
10 -2 -6 15.2 3.7
10 -2 -6 21.9 2.5
-10 -2 6 28.5 3.7
10 2 -6 14.6 3.6
-10 2 6 22.5 3.3
10 2 -6 13.2 2.4
9 -2 -6 23.1 2.4
9 -2 -6 16.1 3.9
-9 -2 6 25 3.1
-9 -2 6 29.1 2.5
9 2 -6 27.2 4.8
-9 2 6 23 2.2
9 2 -6 26.7 2.8
-9 2 6 21.5 3
-8 -2 6 117.29 7
8 -2 -6 134.79 7.2
8 2 -6 136.49 7.3
-8 2 6 127.39 6.6
-8 2 6 138.89 6.2
8 2 -6 134.59 6.8
-8 2 6 131.39 7
7 -2 -6 4.2 1.5
7 -2 -6 7.9 1.4
-7 -2 6 4.5 0.9
-7 -2 6 4.6 1.6
7 2 -6 5.5 1.6
-7 2 6 3.3 1.4
-7 2 6 5.8 1.7
-7 2 6 3.4 1.9
6 -2 -6 15.9 1.8
6 -2 -6 12.5 1.8
-6 -2 6 13 1.7
6 2 -6 12.6 1.9
-6 2 6 16 2.1
-6 2 6 16.8 1.9
-5 -2 6 595.14 25.9
5 -2 -6 617.14 25.7
5 -2 -6 634.64 26
5 2 -6 632.54 25.1
-5 2 6 648.04 25.9
5 2 -6 622.14 25.9
4 -2 -6 474.85 19.5
-4 -2 6 468.35 19.5
4 -2 -6 478.35 19.3
-4 2 6 464.85 19.6
4 2 -6 456.75 19.4
-4 2 6 472.95 19.5
4 2 -6 458.65 18.8
-4 2 6 450.75 19.4
-3 -2 6 943.21 38.5
3 -2 -6 960.3 38.3
3 -2 -6 960.2 38.3
-3 2 6 949.21 38.4
3 2 -6 947.31 37.9
3 2 -6 952.7 38.3
-3 2 6 957.9 38.3
3 2 -6 890.61 38.2
-3 2 6 954 38.6
2 -2 -6 122.99 5.6
-2 -2 6 112.39 5.4
2 -2 -6 122.89 5.4
2 2 -6 113.09 4.9
-2 2 6 114.29 5.4
2 2 -6 119.89 5.5
2 2 -6 105.39 5
1 -2 -6 113.79 5
-1 -2 6 106.29 5
1 2 -6 105.69 4.6
1 2 -6 115.99 5.1
1 2 -6 97.69 4.4
-1 2 6 107.99 5
0 -2 6 992.9 39.9
0 -2 -6 1004.9 40
0 -2 -6 958.9 39.7
0 2 6 996.5 39.9
0 2 -6 1023.9 40
0 2 -6 969.6 39.7
-1 -2 -6 348.27 13.7
-1 -2 -6 310.97 13.3
-1 -2 -6 328.47 13.5
-1 2 -6 333.67 13.4
1 2 6 317.47 13.2
-1 2 -6 317.07 13.4
-1 2 -6 330.77 13.6
1 2 6 336.07 13.4
-2 -2 -6 758.02 29.9
-2 -2 -6 707.23 29.7
-2 -2 -6 729.33 29.5
-2 2 -6 741.43 29.6
-2 2 -6 738.03 29.7
-2 2 -6 739.73 29.6
3 -2 6 16.3 1.1
-3 -2 -6 17.8 1.5
-3 -2 -6 14.1 1.5
-3 -2 -6 15 1.1
-3 -2 -6 16.9 1
-3 2 -6 14.8 1.2
-3 2 -6 16.6 1.3
-3 2 -6 15.2 1.2
-4 -2 -6 26.6 1.9
-4 -2 -6 24.5 1.5
-4 -2 -6 25 1.4
4 -2 6 27.7 2
-4 2 -6 26.9 1.5
-4 2 -6 26.4 1.6
-4 2 -6 27.7 1.7
-4 2 -6 28.9 2
-5 -2 -6 21.4 1.9
-5 -2 -6 20 1.3
-5 -2 -6 17.2 1.2
-5 2 -6 19.7 1.4
-5 2 -6 19.3 1.8
-5 2 -6 18.8 1.5
-6 -2 -6 235.38 9.9
-6 -2 -6 237.88 9.9
-6 -2 -6 238.88 10.6
-6 2 -6 239.18 10.1
-6 2 -6 233.68 10.1
-6 2 -6 241.18 10.5
-7 -2 -6 -0.5 0.7
-7 -2 -6 -0.4 0.6
-7 -2 -6 -1.4 1
-7 2 -6 -0.7 0.6
-7 2 -6 -0.6 1
-7 2 -6 -0.8 0.8
7 2 6 0.1 1
-8 -2 -6 42.5 2.4
-8 -2 -6 43.1 3.3
-8 -2 -6 43.5 2.6
-8 2 -6 44.5 2.6
-8 2 -6 38.4 2.2
-8 2 -6 43.8 3.1
8 2 6 39.3 2.8
-9 -2 -6 15.2 2.3
-9 -2 -6 12.6 1.5
-9 2 -6 16.3 1.3
-9 2 -6 18.3 2.3
9 2 6 16.3 1.9
-10 -2 -6 1.2 1
-10 -2 -6 0.8 1.5
-10 2 -6 0.3 1
-10 2 -6 0.4 1.5
-10 2 -6 0.1 0.7
-11 -2 -6 32.6 2.3
-11 2 -6 30.7 2.5
-11 2 -6 22 3.1
-12 -2 -6 0.2 1.1
-12 2 -6 1.3 2.2
-12 2 -6 1.7 1.4
-13 -2 -6 12.9 1.9
-13 2 -6 13.1 2.2
-14 -2 -6 12.4 1.9
-14 2 -6 18.9 2.8
-15 -2 -6 10.4 2.2
-15 2 -6 10.2 2.5
-16 2 -6 3.3 2.6
-16 -3 6 -1 4.7
-16 -3 6 0.2 2.9
-16 3 6 6.7 5.3
-16 3 6 -1.8 5.4
-15 -3 6 4.4 3.8
-15 -3 6 2 2.3
-15 3 6 3.8 3.7
-15 3 6 4.3 4
-14 -3 6 6.4 2.1
-14 -3 6 4.1 3.1
-14 3 6 5.8 3.3
-14 3 6 10.4 3.1
-13 -3 6 0.1 2.8
-13 -3 6 1.3 1.6
-13 3 6 -1.8 2.6
13 3 -6 -2.9 2.6
-13 3 6 -1.6 1.8
-12 -3 6 36.1 3.1
-12 -3 6 32.8 4.1
12 3 -6 33.9 4
-12 3 6 41.9 3.2
-12 3 6 35.9 4.3
11 -3 -6 19.9 6.7
-11 -3 6 34.2 4
11 3 -6 30.7 3.6
11 3 -6 37.5 9
-11 3 6 36.5 2.8
-11 3 6 30.4 3.9
10 -3 -6 114.29 5.7
-10 -3 6 104.39 6.6
10 -3 -6 102.69 11.6
-10 3 6 114.49 5.6
-10 3 6 110.89 6.8
10 3 -6 113.09 6.4
10 3 -6 96.79 10
9 -3 -6 117.69 8
9 -3 -6 133.59 6.4
-9 3 6 144.29 7.5
-9 3 6 134.39 6.3
9 3 -6 133.89 8
8 -3 -6 225.68 11.2
-8 -3 6 251.17 10.8
8 -3 -6 222.48 10.3
8 3 -6 231.48 11.8
-8 3 6 223.78 11
-8 3 6 230.68 10
-8 3 6 230.78 11
-8 3 6 237.38 10.4
-7 -3 6 556.24 22
7 -3 -6 479.85 21.2
7 -3 -6 473.25 20.6
-7 3 6 484.75 20.7
-7 3 6 474.15 21.1
-7 3 6 491.95 21
7 3 -6 496.35 21.2
-6 -3 6 759.82 30.8
6 -3 -6 708.93 30.5
-6 3 6 741.43 31
6 3 -6 862.81 33
6 3 -6 717.33 29.8
-6 3 6 729.13 30.7
-6 3 6 713.63 30.7
5 -3 -6 60.59 3.6
-5 -3 6 59.99 3.6
5 -3 -6 54.99 3.2
-5 3 6 62.29 3.6
5 3 -6 60.49 3.7
5 3 -6 49.5 2.7
-5 3 6 57.19 3.5
-4 -3 6 385.46 15.8
4 -3 -6 378.86 16
-4 -3 6 374.96 16
4 -3 -6 391.96 15.8
-4 3 6 383.96 15.9
4 3 -6 371.26 15.9
-4 3 6 352.66 16.1
4 3 -6 371.56 15.2
-4 3 6 370.36 15.9
-3 -3 6 88.89 5.8
-3 -3 6 79.09 3.9
3 -3 -6 83.79 4.1
3 -3 -6 80.49 4.1
-3 3 6 83.19 4.1
3 3 -6 74.49 4.1
-3 3 6 83.49 4.6
3 3 -6 79.19 3.6
-3 3 6 80.69 4.4
3 3 -6 86.89 4.2
2 -3 -6 177.58 7.7
2 -3 -6 183.48 7.9
-2 -3 6 175.68 8
-2 -3 6 176.18 7.7
2 3 -6 173.68 7.4
2 3 -6 156.88 7.5
-2 3 6 176.18 7.9
-2 3 6 190.08 8.3
-2 3 6 186.48 7.7
-1 -3 6 850.41 33.8
-1 -3 6 847.72 34.3
1 -3 -6 828.22 34.2
1 -3 -6 851.11 33.7
1 -3 -6 852.01 33.7
1 3 -6 823.92 33.9
-1 3 6 856.11 34
-1 3 6 844.22 34.6
-1 3 6 837.22 34.2
0 -3 6 15 1.5
0 -3 -6 16.1 1.6
0 3 6 18.1 2
0 3 6 15.5 1.4
0 3 6 14.9 1
0 3 -6 16.6 1.6
0 3 -6 14.9 1.2
-1 -3 -6 80.39 4
-1 -3 -6 79.09 3.9
1 3 6 80.09 4.4
-1 3 -6 83.89 3.9
-1 3 -6 74.99 3.6
-1 3 -6 79.99 3.6
1 3 6 77.79 3.7
-2 -3 -6 598.84 23.9
-2 -3 -6 571.34 23.7
2 -3 6 581.94 23.2
2 3 6 587.44 23.5
-2 3 -6 557.14 23.5
2 3 6 591.64 24.2
-2 3 -6 594.04 23.6
-2 3 -6 561.74 23.5
-3 -3 -6 366.26 15.5
-3 -3 -6 387.26 16.2
3 -3 6 389.66 15.8
-3 3 -6 392.06 15.8
3 3 6 395.46 15.6
-3 3 -6 383.86 15.8
-3 3 -6 385.36 15.8
3 3 6 397.56 16.6
4 -3 6 428.66 17.7
-4 -3 -6 401.96 17.2
-4 -3 -6 435.96 17.9
-4 3 -6 446.46 18
-4 3 -6 412.86 17.5
-4 3 -6 445.16 17.5
4 3 6 427.46 18.2
-5 -3 -6 665.43 28.4
-5 -3 -6 758.92 29.8
5 3 6 735.33 29.3
-5 3 -6 681.53 28.6
-5 3 -6 676.93 29.1
-5 3 -6 727.53 28.6
-6 -3 -6 349.17 14.8
-6 -3 -6 333.17 13.9
-6 3 -6 340.17 14.7
-6 3 -6 331.67 14.1
6 3 6 343.27 14.7
-6 3 -6 347.17 14.2
-7 -3 -6 227.78 9.6
-7 -3 -6 225.08 10.6
-7 3 -6 232.68 9.7
7 3 6 242.78 9.7
7 3 6 220.78 9.7
-7 3 -6 231.28 10.4
-7 3 -6 236.28 9.9
7 3 6 223.18 10.2
-8 -3 -6 19 1.7
-8 -3 -6 19.6 2.5
-8 3 -6 21.4 1.5
-8 3 -6 21.1 2.4
-8 3 -6 21.5 1.9
-9 -3 -6 5.2 1.9
-9 -3 -6 1.4 1.2
-9 -3 -6 2.1 0.9
-9 3 -6 3.7 0.9
-9 3 -6 3.6 1.7
-9 3 -6 3.3 1.2
-10 -3 -6 4.1 1.1
-10 3 -6 5.5 0.9
-10 3 -6 2.2 1.3
-10 3 -6 6.6 2
-11 -3 -6 40.2 2.7
-11 3 -6 43.6 3.1
-11 3 -6 44.1 3.9
-12 -3 -6 174.58 7.9
-12 3 -6 182.38 8.3
-12 3 -6 163.78 9.1
-13 -3 -6 23.5 2.7
-13 3 -6 24.7 3
-13 3 -6 22.7 3.7
-14 -3 -6 32.9 2.7
-14 3 -6 33.1 3.8
-14 3 -6 32.5 4.8
-15 3 -6 13.4 3
-16 3 -6 3.7 3.2
-16 -4 6 2.6 2.7
-16 -4 6 -1.7 5.2
-16 4 6 4.3 4.2
-16 4 6 -2.7 4
-15 -4 6 -1.5 2
-15 -4 6 1.4 4.7
-15 4 6 3.2 4.5
-15 4 6 1 3.7
-14 -4 6 8.6 3.5
-14 -4 6 8.2 2.3
-14 4 6 7.9 3.8
-14 4 6 13.5 3.4
-13 -4 6 38.1 4.2
-13 -4 6 35.7 4.7
-13 4 6 25.5 3.2
13 4 -6 24.9 4.8
-13 4 6 31.9 4.7
-12 -4 6 0.8 1.4
-12 -4 6 2.1 2.4
12 4 -6 1.8 2.2
-12 4 6 -1.1 1.5
-12 4 6 -0.8 2.3
-11 -4 6 4.6 2.2
11 4 -6 4.6 2
-11 4 6 -0.3 2
-11 4 6 1.4 1.4
10 -4 -6 1.3 4.2
10 -4 -6 1 1.7
10 4 -6 5.8 4.2
-10 4 6 3.1 2.2
-10 4 6 0.3 1.1
9 -4 -6 18.7 3.4
9 -4 -6 26.3 2.6
9 4 -6 26.2 3.8
8 -4 -6 496.45 21.3
-8 4 6 507.55 21.1
-8 4 6 507.05 21.6
-8 4 6 512.75 22.2
8 4 -6 533.35 24.3
7 -4 -6 427.66 19.5
7 -4 -6 446.06 18.7
-7 4 6 445.36 18.9
7 4 -6 439.66 19.5
-7 4 6 443.96 18.4
-7 4 6 462.05 19.1
-7 4 6 460.25 19.4
6 -4 -6 876.71 36.7
-6 -4 6 904.41 36.6
-6 -4 6 870.91 36.5
6 4 -6 898.81 36.7
-6 4 6 889.91 36.5
-6 4 6 916.11 36.7
-6 4 6 880.91 35.8
-6 4 6 860.91 36.3
5 -4 -6 809.82 32
-5 -4 6 779.92 32.2
-5 -4 6 780.62 32.4
5 4 -6 789.02 31.4
-5 4 6 781.62 32.2
-5 4 6 786.42 32.4
-5 4 6 755.82 32.4
-4 -4 6 1039.5 42.6
-4 -4 6 1111.49 44.7
4 -4 -6 1044.5 42.8
4 -4 -6 1055.99 42.6
-4 4 6 1051.29 43
4 4 -6 1008.9 42.7
4 4 -6 1021 42.1
-4 4 6 1043.6 42.7
-4 4 6 1080.09 42.9
-3 -4 6 318.47 12.6
3 -4 -6 303.87 12.8
-3 -4 6 301.27 13
3 -4 -6 289.97 12.7
-3 4 6 298.57 13.1
-3 4 6 293.67 12.7
-3 4 6 280.97 12.8
3 4 -6 298.07 12.8
3 4 -6 296.57 12.2
-2 -4 6 1316.47 52.69
2 -4 -6 1306.67 52.89
2 -4 -6 1371.46 53.09
-2 -4 6 1268.37 53.19
-2 4 6 1377.26 52.89
2 4 -6 1287.67 52.59
-2 4 6 1272.27 53.09
-2 4 6 1319.97 53.49
1 -4 -6 1983.3 75.19
-1 -4 6 1921.41 75.79
1 -4 -6 1704.83 75.59
-1 -4 6 1920.51 75.19
-1 4 6 1837.42 75.29
-1 4 6 1940.41 75.69
0 -4 -6 577.94 24
0 -4 6 602.54 24.1
0 -4 6 581.04 23.5
0 4 6 581.44 23.5
0 4 6 608.14 24.5
0 4 6 572.54 24
0 4 -6 564.94 23.6
1 -4 6 2146.89 83.59
1 -4 6 2040.2 82.99
1 4 6 2047 83.49
-1 4 -6 2103.69 83.49
-2 -4 -6 567.04 23.5
-2 -4 -6 563.44 23.4
2 4 6 577.94 23.8
-2 4 -6 585.24 23.2
-2 4 -6 570.54 23
-2 4 -6 556.64 23
2 4 6 556.84 23.2
3 -4 6 361.96 16
-3 -4 -6 390.06 16.5
-3 4 -6 431.16 16.8
-3 4 -6 389.46 16
-3 4 -6 381.56 16
3 4 6 390.86 16.8
3 4 6 400.36 16.1
3 4 6 381.06 16.1
-4 -4 -6 18.3 1.9
4 4 6 18.4 2
-4 4 -6 19.2 1.5
4 4 6 19.6 1.5
-4 4 -6 19.5 1.4
-4 4 -6 19.2 1.5
4 4 6 16.9 1.5
-5 -4 -6 63.49 3.8
-5 -4 -6 59.09 2.8
5 4 6 67.59 3.9
5 4 6 58.49 3.2
-5 4 -6 63.29 3.7
5 4 6 65.69 3.2
-5 4 -6 62.19 3.1
-5 4 -6 67.99 3.3
-6 -4 -6 45.4 2.3
-6 -4 -6 51.39 3.4
-6 4 -6 51.89 2.7
-6 4 -6 47 2.7
6 4 6 53.79 3.3
6 4 6 38.6 3.6
-6 4 -6 56.49 3.4
-7 -4 -6 39.8 3.2
-7 -4 -6 40 2
7 4 6 39.2 2.7
7 4 6 40.2 4
-7 4 -6 40.2 2.5
-7 4 -6 42.7 3.1
-7 4 -6 35.7 2.3
7 4 6 38.9 2.8
-8 -4 -6 243.58 11.8
-8 -4 -6 252.47 10.5
8 4 6 252.07 11
-8 4 -6 242.98 11.5
-8 4 -6 267.47 11.1
-8 4 -6 246.58 10.6
-9 -4 -6 112.39 5.3
-9 4 -6 111.09 6.6
-9 4 -6 115.59 5.3
-9 4 -6 129.39 5.8
-10 -4 -6 99.59 4.7
-10 -4 -6 97.19 6.3
-10 4 -6 101.39 4.7
-10 4 -6 104.99 5.2
-10 4 -6 95.39 5.9
-11 4 -6 18.2 2.9
-11 4 -6 26.7 2.5
-12 -4 -6 0.4 1
-12 4 -6 0.3 1.6
-12 4 -6 0.2 2.2
-13 4 -6 0 1.9
-13 4 -6 3.6 2.8
-14 4 -6 2.6 2.6
-14 4 -6 5.4 5.6
-15 4 -6 3 5
-16 -5 6 7.2 2.4
-16 5 6 8.6 4.4
-16 5 6 -0.5 5.1
-15 -5 6 7.2 2.3
-15 -5 6 6 4.2
-15 5 6 7.1 4
-15 5 6 14.7 4.1
-14 -5 6 8.2 3.6
-14 -5 6 13.1 2.3
-14 5 6 6.3 3.2
14 5 -6 5 4.3
-14 5 6 6.5 3.8
-13 -5 6 2.4 1.5
-13 -5 6 1.6 2.9
13 5 -6 -2.9 3
-13 5 6 1 2.9
-13 5 6 -1.4 2.1
-12 -5 6 22.6 3.8
-12 -5 6 19.2 2.4
-12 5 6 8.6 3
-12 5 6 17.9 2.4
-11 -5 6 21.1 3.3
-11 5 6 32.6 2.8
-11 5 6 34.7 4.2
10 -5 -6 -2.5 5.2
10 5 -6 0.7 5.6
-10 5 6 0.9 1.1
-10 5 6 1.7 2.1
9 -5 -6 5.4 3.5
9 5 -6 5.5 3.8
-9 5 6 3 1.2
-9 5 6 5.3 2.1
8 -5 -6 15.4 3
-8 -5 6 14.8 2.1
-8 -5 6 12.8 2.4
-8 5 6 14.9 2.3
-8 5 6 19.3 2.8
-8 5 6 17.1 1.8
8 5 -6 11.5 2.9
7 -5 -6 0.6 1.1
-7 -5 6 -0.8 1.3
7 -5 -6 -0.9 2.2
-7 5 6 2.1 1
-7 5 6 1.6 1.4
-7 5 6 -0.1 1.4
-7 5 6 1.2 1.6
6 -5 -6 0.4 1.5
-6 -5 6 2.3 1.5
6 -5 -6 1.4 1.1
-6 -5 6 2.1 1.4
-6 5 6 1.8 1.4
6 5 -6 1.7 1.7
-6 5 6 1.9 1.3
-6 5 6 0.8 0.8
-6 5 6 1.1 1.3
6 5 -6 2.8 0.6
5 -5 -6 29.4 2.2
-5 -5 6 27.4 2.9
5 -5 -6 24.9 2.8
-5 -5 6 28.5 2.4
5 5 -6 25 2.9
-5 5 6 27.7 2.6
-5 5 6 26.5 2.6
-5 5 6 28.8 2.5
5 5 -6 27.7 1.6
-4 -5 6 126.99 6
-4 -5 6 119.09 6.3
4 -5 -6 133.49 6.3
4 -5 -6 125.29 6.3
-4 5 6 125.29 6.4
-4 5 6 122.09 5.4
4 5 -6 120.89 6.2
4 5 -6 121.29 5.4
-4 5 6 121.29 6.2
3 -5 -6 0.3 1
-3 -5 6 1.3 0.9
-3 -5 6 1.3 1.2
-3 5 6 0.9 0.5
-3 5 6 1.6 1.3
-3 5 6 0.5 1
-3 5 6 0.3 0.9
3 5 -6 0.5 0.6
-2 -5 6 115.09 5.2
2 -5 -6 113.09 5.3
2 -5 -6 109.49 5.4
-2 -5 6 107.69 5.7
-2 5 6 113.09 5.2
-2 5 6 110.39 4.7
-2 5 6 100.79 6.6
-2 5 6 113.19 5.9
2 5 -6 117.89 5
-1 -5 6 54.69 2.8
1 -5 -6 52.79 2.8
-1 -5 6 54.09 3.4
1 -5 -6 60.59 3.5
-1 5 6 58.89 3.6
1 5 -6 53.19 2.7
-1 5 6 52.09 3.3
-1 5 6 52.29 2.8
0 -5 -6 22.7 2
0 -5 6 20.3 1.4
0 -5 6 19 2.1
0 5 -6 19.5 1.5
0 5 6 19.8 2
0 5 6 25.1 2.4
0 5 6 21.2 1.3
1 -5 6 420.56 18.3
1 -5 6 462.35 18.3
-1 -5 -6 422.26 18.2
1 5 6 440.66 18.7
-1 5 -6 466.95 18.6
1 5 6 406.26 18.2
-1 5 -6 428.06 17.8
-2 -5 -6 42.6 2.9
-2 5 -6 43.1 2.4
-2 5 -6 43.1 2.4
-2 5 -6 42.2 2.5
2 5 6 45.9 3.2
2 5 6 42.7 2.7
-3 -5 -6 66.59 3.7
3 5 6 63.29 3.5
-3 5 -6 62.59 3.2
-3 5 -6 64.49 3.2
3 5 6 65.09 4
3 5 6 62.79 3.6
-3 5 -6 60.79 3.2
-4 -5 -6 89.89 4.8
4 5 6 97.09 5.1
4 5 6 86.99 4.6
-4 5 -6 92.59 4.3
-4 5 -6 91.39 4.3
4 5 6 85.29 4.5
-5 -5 -6 19.2 2.1
5 5 6 16.1 1.9
5 5 6 17.1 2
-5 5 -6 15.6 1.5
5 5 6 18.3 2.1
-5 5 -6 20.4 2.4
-5 5 -6 13.4 1.4
-6 -5 -6 31.7 2.9
6 5 6 33.1 2.7
6 5 6 32.9 2.8
6 5 6 34.7 2.8
-6 5 -6 38.6 2.4
-6 5 -6 34.5 2.9
-6 5 -6 33.8 2.2
-7 -5 -6 9.5 2.2
7 5 6 8.1 1.6
-7 5 -6 8.3 1.3
-7 5 -6 9.6 2
-7 5 -6 12.2 1.6
-8 -5 -6 5.1 1.9
-8 5 -6 6.8 1.8
-8 5 -6 8.6 1.5
-8 5 -6 6 1.2
8 5 6 7.3 1.6
-9 -5 -6 7.5 2.2
-9 5 -6 8.9 1.5
-9 5 -6 8 1.2
-9 5 -6 10.4 2.4
-10 -5 -6 34.8 3.9
-10 5 -6 39.7 2.3
-10 5 -6 33 3.5
-10 5 -6 34 2.8
-11 -5 -6 64.89 5.5
-11 5 -6 75.69 5.3
-11 5 -6 69.99 4.3
-11 5 -6 72.89 3.6
-12 5 -6 18.6 3.3
-12 5 -6 11.6 3.1
-13 5 -6 2.3 2.4
-13 5 -6 6.8 3.2
-14 5 -6 1.5 2.9
-15 5 -6 -0.4 3.4
-15 -6 6 2.3 2
-15 -6 6 3.6 5.2
-15 6 6 7.1 7.6
-15 6 6 5 4.2
-14 -6 6 2.3 3.6
-14 -6 6 5.1 1.9
-14 6 6 3.5 3.2
-14 6 6 -2.9 3.3
14 6 -6 1.5 4.7
-13 -6 6 -1 1.5
-13 -6 6 2.9 3
13 6 -6 -1.1 3.2
-13 6 6 0.3 2.9
-13 6 6 -0.6 2.3
-12 -6 6 5.1 1.7
-12 -6 6 3.3 3
-12 6 6 6.9 2.1
-12 6 6 5.1 2.8
-11 -6 6 41 4.5
-11 6 6 49.8 4.8
-11 6 6 48.4 3.4
-10 6 6 2 2.1
-10 6 6 0.2 1.2
9 -6 -6 37.2 6
-9 6 6 37.5 3.9
-9 6 6 43.5 2.9
9 6 -6 42 9.1
-8 -6 6 57.29 4.1
8 -6 -6 53.59 3.5
-8 -6 6 54.39 4.2
8 6 -6 51.69 6.9
-8 6 6 51.89 3.1
-8 6 6 54.19 4.2
-8 6 6 62.59 5.8
7 -6 -6 4.6 2.4
-7 -6 6 9.4 2.2
7 -6 -6 9.5 1.6
-7 6 6 5.7 1.8
7 6 -6 6.5 2.6
-7 6 6 6.5 1.9
-7 6 6 10.3 1.4
6 -6 -6 -0.4 1.1
-6 -6 6 -0.6 1.2
-6 -6 6 -0.4 1.7
6 6 -6 1.7 2.1
-6 6 6 0.7 1.5
-6 6 6 0 1.4
-6 6 6 0.5 1.5
6 6 -6 1.7 0.6
-6 6 6 2.2 0.8
5 -6 -6 20 2.2
-5 -6 6 18.6 2.1
5 -6 -6 22 2.8
-5 6 6 18.5 2.5
-5 6 6 18.9 1.5
5 6 -6 18.6 1.3
-5 6 6 17.5 2.2
-5 6 6 17.1 2.2
4 -6 -6 136.09 7.2
-4 -6 6 108.89 6.1
4 -6 -6 105.99 5.8
-4 6 6 110.09 4.9
4 6 -6 106.39 4.9
-4 6 6 108.49 6
-4 6 6 110.69 5.7
-4 6 6 107.89 5.8
-3 -6 6 6.1 1.6
-3 -6 6 6.4 1.4
3 -6 -6 4.2 1.3
-3 6 6 6.1 1.3
-3 6 6 4.9 0.7
-3 6 6 6.9 1.7
-3 6 6 4 1.3
-2 -6 6 117.39 6.3
2 -6 -6 140.09 6.5
2 -6 -6 121.69 5.9
2 -6 -6 127.09 6.3
-2 -6 6 123.39 5.7
2 6 -6 118.19 5.4
-2 6 6 122.69 5.1
-2 6 6 112.09 6.1
-2 6 6 120.49 5.7
-2 6 6 114.99 6.4
-1 -6 6 435.26 17.8
1 -6 -6 446.26 18.2
-1 -6 6 418.96 18.4
1 -6 -6 435.36 17.8
-1 6 6 424.46 18.3
-1 6 6 426.16 18.6
-1 6 6 433.36 17.7
1 6 -6 423.26 17.7
0 -6 6 459.85 20
0 -6 6 471.35 19.4
0 6 6 459.85 19.9
0 6 6 486.75 20.3
0 6 -6 481.85 19.3
1 -6 6 0.4 0.7
-1 -6 -6 0.8 1.1
-1 6 -6 0.4 0.7
-1 6 -6 0.5 0.7
1 6 6 -0.6 0.9
1 6 6 -0.8 1.2
2 -6 6 -1.4 0.9
-2 -6 -6 1.1 1.1
2 -6 6 0.9 0.7
2 6 6 3.2 1.4
-2 6 -6 1.8 0.8
-2 6 -6 0.7 0.8
-3 -6 -6 42.6 3.1
-3 6 -6 42 2.5
-3 6 -6 42 2.4
3 6 6 44.7 3.4
-3 6 -6 42.3 2.5
3 6 6 45.9 3.3
-4 -6 -6 15.2 2.1
4 6 6 15.8 2.1
-4 6 -6 14.7 1.5
-4 6 -6 15.2 1.5
4 6 6 13.8 1.9
-4 6 -6 13.8 1.3
4 6 6 16.1 2.2
-5 -6 -6 21.2 2.7
5 6 6 13.3 1.9
5 6 6 18 2.3
-5 6 -6 15.1 1.6
-5 6 -6 17.8 1.6
5 6 6 17.6 2.2
-6 -6 -6 9.3 2.1
-6 6 -6 12.5 1.6
6 6 6 10.8 1.9
-6 6 -6 12.2 1.5
-6 6 -6 15.7 2.4
-7 -6 -6 192.28 9.6
-7 6 -6 193.18 8.6
7 6 6 186.18 9
-7 6 -6 196.88 8.5
-7 6 -6 187.98 9.3
-8 -6 -6 63.59 4.7
-8 6 -6 64.69 4.6
-8 6 -6 64.29 3.7
8 6 6 67.49 4.2
-9 -6 -6 3 2
-9 6 -6 2.4 1.3
-9 6 -6 1.8 1.8
-10 -6 -6 12.1 2.9
-10 6 -6 10.2 1.4
-10 6 -6 14.4 2.8
-10 6 -6 11.7 1.8
-11 -6 -6 60.69 5.3
-11 6 -6 55.99 3.3
-11 6 -6 61.69 5
-11 6 -6 72.59 4.3
-12 6 -6 39.8 4.5
-12 6 -6 40.9 3.9
-13 6 -6 21.4 3.4
-14 6 -6 6 3.6
-15 6 -6 2.6 3.5
-15 -7 6 0.5 1.8
-15 7 6 1.7 3.6
-15 7 6 5 4.8
-14 -7 6 2.6 1.7
-14 -7 6 7.9 4.3
-14 7 6 6.1 3.5
-14 7 6 2.3 4.2
14 7 -6 6.9 5
-13 -7 6 15.3 4
-13 -7 6 9.2 1.8
-13 7 6 15 3.1
13 7 -6 11.2 4.1
-13 7 6 12.9 4.1
-12 -7 6 68.99 4.1
-12 -7 6 61.89 5.8
-12 7 6 61.49 4.5
-12 7 6 63.49 5.9
-11 -7 6 6.2 2.8
-11 7 6 9.2 1.9
-11 7 6 9.1 3
-10 7 6 11.8 2.8
-10 7 6 9.8 1.7
-9 -7 6 17.3 3
-9 7 6 14.6 2.8
-9 7 6 10.3 1.6
8 -7 -6 63.69 7.4
-8 -7 6 56.79 4.6
-8 -7 6 47.3 4.7
-8 7 6 57.39 3.3
8 7 -6 50.59 7.6
-8 7 6 55.99 4.3
7 -7 -6 112.79 8.6
-7 -7 6 128.69 7.1
-7 -7 6 143.59 7.3
-7 7 6 140.29 7.4
-7 7 6 122.49 7
7 7 -6 128.29 8.4
-7 7 6 126.79 6
6 -7 -6 170.08 9.2
-6 -7 6 175.18 8.6
-6 7 6 180.28 7.6
6 7 -6 170.48 7.4
6 7 -6 158.98 9.2
-6 7 6 182.68 8.6
-5 -7 6 1.4 2
5 -7 -6 2.1 1.8
-5 -7 6 -0.6 1.2
5 7 -6 0.8 0.6
-5 7 6 1 1.3
-5 7 6 0.9 0.7
-5 7 6 -0.8 1.4
-5 7 6 -0.1 1.7
4 -7 -6 4 1.7
-4 -7 6 5.5 1.5
-4 -7 6 2.1 1.9
-4 7 6 4.4 1.4
-4 7 6 3 1.6
-4 7 6 4.9 1.9
-4 7 6 4.7 0.8
4 7 -6 4.4 0.9
3 -7 -6 10.7 1.8
-3 -7 6 11.1 2.2
3 -7 -6 12 2
-3 -7 6 15.2 2
3 7 -6 12 1.3
-3 7 6 11.6 1
-3 7 6 15.8 1.9
-3 7 6 13.4 2.4
-3 7 6 8 1.8
2 -7 -6 122.59 6
-2 -7 6 123.79 6.6
-2 -7 6 122.79 5.8
2 -7 -6 127.19 6.1
-2 7 6 123.99 5.8
-2 7 6 117.79 5.1
-2 7 6 122.79 6.6
-2 7 6 116.49 6.3
2 7 -6 114.59 5.5
-1 -7 6 291.37 13.3
1 -7 -6 300.47 12.5
-1 -7 6 295.67 12.5
1 7 -6 292.77 12.3
-1 7 6 303.77 12.4
-1 7 6 282.27 13.4
-1 7 6 283.27 13.1
0 -7 6 521.15 22.4
0 -7 6 528.95 21.6
0 -7 -6 534.75 22.2
0 7 6 536.25 22.6
0 7 6 483.35 22.1
0 7 -6 536.65 21.5
-1 -7 -6 103.49 5.6
1 -7 6 100.09 5
1 -7 6 100.79 5.9
-1 7 -6 109.39 5
1 7 6 114.89 6.3
1 7 6 112.99 6.1
2 -7 6 59.39 3.2
2 -7 6 57.59 4.1
-2 -7 -6 61.09 3.8
2 7 6 56.49 4
-2 7 -6 56.19 3.1
2 7 6 55.99 3.8
-2 7 -6 58.39 3.1
-3 -7 -6 265.37 12
3 7 6 273.77 12.2
-3 7 -6 269.07 11.2
3 7 6 245.58 11.8
-3 7 -6 255.37 11.2
-3 7 -6 267.37 11.2
-4 -7 -6 210.48 10.1
4 7 6 192.78 9.8
4 7 6 231.28 10.2
-4 7 -6 215.28 9.2
-4 7 -6 214.08 9.2
-4 7 -6 206.38 8.9
-5 -7 -6 258.27 12.2
-5 7 -6 262.27 11.3
5 7 6 261.57 12.1
-5 7 -6 265.37 11.3
5 7 6 262.67 12.4
-6 -7 -6 74.99 4.9
-6 7 -6 76.69 4
6 7 6 75.79 4.7
-6 7 -6 81.29 4.7
-7 -7 -6 119.39 7.2
-7 7 -6 136.39 6.2
7 7 6 121.39 6.6
-7 7 -6 131.29 6.1
-8 -7 -6 11.1 2.6
-8 7 -6 9.6 2.4
-8 7 -6 9.6 1.7
8 7 6 6.3 2
-8 7 -6 8.2 1.4
-9 -7 -6 89.29 6.4
-9 7 -6 101.29 5.3
-9 7 -6 94.59 6.1
-9 7 -6 108.29 5
-10 -7 -6 21.7 3.7
-10 7 -6 20 2
-10 7 -6 22.6 2.6
-10 7 -6 25.7 3.6
-11 -7 -6 -2.4 2.4
-11 7 -6 0.5 2.2
-11 7 -6 0.7 1.1
-12 -7 -6 8.1 3.7
-12 7 -6 11 2.7
-13 7 -6 5 3.3
-14 7 -6 8 7.5
-14 -8 6 0.3 1.6
14 8 -6 -4.4 8.6
-14 8 6 2.1 4.3
-14 8 6 -0.2 4
-13 -8 6 -0.9 4.4
-13 -8 6 -1.2 1.4
13 8 -6 -0.4 3.9
-13 8 6 -1.1 3.8
-13 8 6 3.2 2.8
-12 -8 6 2.8 1.5
-12 -8 6 3.7 3
-12 8 6 0.2 2.2
-12 8 6 3.6 3.4
-11 8 6 8.1 2.9
-11 8 6 18.5 3.1
-10 8 6 6 2.4
-10 8 6 3.1 1.4
-9 -8 6 9.2 2.7
-9 8 6 8.9 1.6
-9 8 6 7.6 2.4
-8 -8 6 21.9 3.4
-8 8 6 13.5 2.7
-7 -8 6 -2.3 2.8
-7 -8 6 1.5 2.8
-7 8 6 0.4 1.9
-7 8 6 0.9 0.9
7 8 -6 3.8 5.6
-7 8 6 1.4 1.9
-6 -8 6 43.7 4.7
-6 -8 6 45.8 3.7
6 -8 -6 42 5.5
-6 8 6 45.7 3.7
6 8 -6 46.1 2.5
-6 8 6 45 4.1
-6 8 6 47.6 2.6
-5 -8 6 74.39 5.9
-5 -8 6 68.99 4.6
5 -8 -6 69.59 5.7
-5 8 6 83.69 3.7
5 8 -6 71.79 3.7
-5 8 6 76.29 4.6
-4 -8 6 381.36 15.9
4 -8 -6 375.16 16.6
-4 -8 6 353.46 16.4
4 -8 -6 363.96 16.2
-4 8 6 353.46 16.5
-4 8 6 354.76 15.7
-4 8 6 351.56 14.8
4 8 -6 356.26 15
-3 -8 6 91.59 6.2
-3 -8 6 101.19 5.3
3 -8 -6 106.49 6
3 -8 -6 92.09 5.7
3 8 -6 95.19 4.7
-3 8 6 97.59 4.3
-3 8 6 108.79 6.2
-3 8 6 96.19 5.9
-3 8 6 105.49 5.2
-2 -8 6 4 2.1
-2 -8 6 2.9 1.3
2 -8 -6 1.7 1.5
2 -8 -6 1.7 1.6
2 8 -6 3.9 1
-2 8 6 4.9 1.6
1 -8 -6 16.8 2.1
1 -8 -6 15.4 2.2
-1 -8 6 19.2 2.7
-1 8 6 20.3 3
-1 8 6 16.5 2.6
1 8 -6 15.6 1.6
0 -8 6 28.1 3.2
0 -8 6 27.3 2.2
0 -8 -6 28.3 2.8
0 8 6 28.2 3
0 8 -6 26.3 2
0 8 6 21.1 3
1 -8 6 -0.6 1.7
1 -8 6 0.6 1
-1 -8 -6 1.8 1.3
-1 8 -6 -0.5 0.8
1 8 6 2 1.6
1 8 6 -1.4 1.4
2 -8 6 4.4 2
2 -8 6 6.1 1.3
-2 -8 -6 4.5 1.8
2 8 6 3.5 1.7
-2 8 -6 5.8 1.1
-2 8 -6 8 1.3
-3 -8 -6 24.6 2.8
3 -8 6 25.2 3.2
3 8 6 22.6 2.8
-3 8 -6 28.1 2
-3 8 -6 23.5 2
-4 -8 -6 1.8 1.6
-4 8 -6 5 1.2
-4 8 -6 5 1.2
4 8 6 4.8 1.8
-4 8 -6 3 1.2
-5 -8 -6 15.9 2.7
-5 8 -6 12.7 1.6
-5 8 -6 13.9 1.7
5 8 6 15.1 2.6
-6 -8 -6 19.1 2.9
6 8 6 23.9 3.7
-6 8 -6 23 2.1
-7 -8 -6 5.6 2.1
-7 8 -6 6.7 1.5
7 8 6 5 2.3
-7 8 -6 5.5 1.4
-8 -8 -6 23.1 3.6
-8 8 -6 28 2.4
-8 8 -6 27.9 2.5
-9 -8 -6 12.6 3.1
-9 8 -6 8.6 1.6
-9 8 -6 8.5 1.8
-10 -8 -6 34.1 6
-10 8 -6 30 3.2
-10 8 -6 27.7 2.4
-11 -8 -6 20.6 4.1
-11 8 -6 20.8 2.2
-11 8 -6 30.8 3.5
-12 -8 -6 -0.6 3.3
-12 8 -6 1.5 3
-13 8 -6 -4.2 3.4
-14 8 -6 -0.9 3.9
-14 9 6 0.6 3.1
-14 9 6 -3.7 4.9
14 9 -6 -6.2 6.7
-13 -9 6 -4.5 6.7
-13 9 6 1.2 3
13 9 -6 10.7 5.2
-13 9 6 4.5 4.5
-12 -9 6 4.2 1.6
-12 9 6 3.9 2.3
-12 9 6 5 5.5
-11 9 6 39.8 3.3
-11 9 6 39.6 5
-10 9 6 25 2.5
-10 9 6 36.7 4.6
-9 -9 6 41.3 4.5
-9 9 6 44.3 2.8
-9 9 6 42.3 4.4
-8 -9 6 32.4 4.1
-8 9 6 32 2.3
-8 9 6 29 3.6
-7 -9 6 109.59 6.7
-7 9 6 118.39 6.6
-7 9 6 110.19 6.6
-6 -9 6 14.9 4.3
-6 9 6 22.6 2.9
-6 9 6 22.3 1.8
6 9 -6 21.5 1.7
-6 9 6 25.3 3.7
-5 -9 6 2.9 2.9
5 -9 -6 2.2 3.2
-5 -9 6 3.2 1.8
-5 9 6 1.6 1.6
5 9 -6 0.9 0.9
-5 9 6 -1.3 1.8
-5 9 6 0 0.7
-4 -9 6 1.9 1.6
4 -9 -6 5.7 2.8
-4 -9 6 2.1 2.6
-4 9 6 2.7 2
-4 9 6 0.8 1.4
4 9 -6 1.6 0.9
-4 9 6 1.9 1.1
-3 -9 6 5.5 2.4
3 -9 -6 6.8 2.5
-3 -9 6 4.9 1.7
-3 -9 6 7.8 3.1
-3 9 6 0.3 1.9
3 9 -6 4.5 1.1
-3 9 6 3.6 1.4
-2 -9 6 1.8 2.2
2 -9 -6 4.6 1.9
-2 -9 6 2.3 1.4
-2 -9 6 4.2 2.7
2 9 -6 3.7 1.1
-2 9 6 1.3 1.8
-1 -9 6 10 2.9
-1 -9 6 16.4 2.2
1 -9 -6 17.4 2.7
-1 9 6 15.8 2.9
1 9 -6 17.6 1.7
0 -9 -6 140.49 7.7
0 -9 6 157.58 9.2
0 -9 6 147.29 7.1
0 9 6 148.29 8.1
0 9 -6 149.29 6.8
-1 -9 -6 158.48 8.1
1 -9 6 153.38 7.4
1 -9 6 146.59 8.7
1 -9 6 160.78 8.7
-1 9 -6 159.38 7.1
1 9 6 152.08 8.4
2 -9 6 19.2 2.2
2 -9 6 14.3 3
-2 -9 -6 13.6 2.5
2 -9 6 16 3
2 9 6 16.5 2.8
-3 -9 -6 20.4 3.8
3 -9 6 15.3 3.5
3 -9 6 18.6 3.1
3 -9 6 14.6 2
-3 9 -6 17 1.9
-3 9 -6 13.9 1.6
3 9 6 15.6 2.7
-4 -9 -6 55.39 4.2
4 -9 6 49.8 3.5
4 -9 6 43.1 5
-4 9 -6 56.19 3.9
-4 9 -6 49.3 3
4 9 6 50.59 4.2
-5 -9 -6 110.49 6.6
-5 9 -6 109.39 5.4
-5 9 -6 108.59 5.3
5 9 6 102.19 6.4
-6 -9 -6 38.9 3.9
-6 9 -6 39.3 2.7
6 9 6 35.2 3.7
-6 9 -6 37 2.8
-7 -9 -6 43.3 4.3
-7 9 -6 42.5 3
-7 9 -6 36.9 2.9
-8 -9 -6 0.8 2.3
-8 9 -6 1.2 1.4
-8 9 -6 1.7 1.3
-9 9 -6 1.1 1.3
-9 9 -6 -0.9 1.4
-10 -9 -6 -2.6 2.9
-10 9 -6 1.5 2.1
-10 9 -6 -0.2 1.2
-11 -9 -6 0 3.4
-11 9 -6 1.8 2.6
-11 9 -6 1.3 1.3
-12 9 -6 13.2 3.6
-13 9 -6 8.1 3.8
-13 10 6 5.4 5.2
-13 10 6 12.1 3.1
13 10 -6 7.9 5.9
-12 -10 6 10.9 5.6
-12 10 6 2.8 3.8
-12 10 6 7.7 2.5
-11 -10 6 8.3 3.9
-11 -10 6 11.6 2
-11 10 6 7.8 2.1
-11 10 6 7 3.4
-11 10 6 12.8 1.9
-10 -10 6 6.9 3.4
-10 10 6 6.7 1.6
-10 10 6 10.2 3.3
-9 -10 6 18.5 5.4
-9 10 6 11.3 3
-9 10 6 16.9 1.9
-8 -10 6 139.19 8.1
-8 10 6 122.09 6
-8 10 6 134.29 7.7
-7 -10 6 89.09 6
-7 10 6 88.69 4.9
-7 10 6 80.69 5.6
-6 -10 6 192.18 9.9
6 10 -6 185.98 8.4
-6 10 6 195.28 8.3
-6 10 6 193.08 9.6
-5 -10 6 97.29 5.8
5 10 -6 79.19 5.2
-5 10 6 89.29 6.4
-5 10 6 94.89 5.5
-4 -10 6 206.08 10.4
-4 10 6 212.38 11.3
-4 10 6 221.08 10.2
-3 -10 6 247.58 14.8
-3 -10 6 245.68 11.3
3 -10 -6 238.38 11.9
-3 10 6 221.88 12.1
3 10 -6 236.08 10.3
-2 -10 6 109.49 6
2 -10 -6 109.89 6.7
-2 -10 6 104.59 7.8
2 10 -6 107.89 5.3
-2 10 6 105.79 6.9
-1 -10 6 287.97 14.5
-1 -10 6 260.97 12.3
1 -10 -6 277.57 11.8
1 -10 -6 268.07 12.9
1 10 -6 277.37 11.8
-1 10 6 267.87 13.4
0 -10 6 58.99 4.3
0 -10 6 77.09 6.6
0 -10 -6 73.69 5
0 -10 6 71.59 7.3
0 10 -6 82.49 4.7
0 10 6 77.19 5.4
1 -10 6 70.89 7
1 -10 6 90.79 4.9
-1 -10 -6 75.39 5.4
-1 10 -6 96.99 4.6
1 10 6 87.29 5.9
2 -10 6 0.4 3.6
2 -10 6 1.1 1.4
2 -10 6 0.5 3.3
-2 -10 -6 -1.4 1.6
-2 10 -6 2 1.1
2 10 6 -1.1 1.7
-3 -10 -6 23.9 3.3
3 -10 6 22.9 2.7
3 10 6 22.1 3.3
-3 10 -6 27.3 2.4
-4 -10 -6 14.5 3
4 -10 6 14.5 2.3
-4 10 -6 10.5 1.7
-4 10 -6 11.8 1.6
4 10 6 8.7 2.5
5 -10 6 0.6 1.8
-5 -10 -6 4.2 2.2
-5 10 -6 0.9 1.2
5 10 6 1.3 2
-5 10 -6 0.8 1.1
-6 -10 -6 16.3 3
-6 10 -6 12.3 1.7
-6 10 -6 13.5 1.8
-7 -10 -6 89.19 6.4
-7 10 -6 86.19 4.9
-7 10 -6 89.39 4.8
-8 -10 -6 26.7 4.5
-8 10 -6 45.9 3.3
-8 10 -6 38.8 3.1
-9 -10 -6 24.9 4.5
-9 10 -6 16.1 2.5
-9 10 -6 16.7 2.2
-10 -10 -6 13.2 3.8
-10 10 -6 12.6 2
-10 10 -6 22.9 3.4
-11 -10 -6 40.6 6
-11 10 -6 25.1 2.6
-11 10 -6 21.3 3.7
-12 -10 -6 3 4.3
-12 10 -6 13.9 5.1
-13 10 -6 -1.6 3.6
-12 11 6 4.7 5.4
-12 11 6 3.8 2.6
-11 11 6 4.4 4.3
-11 11 6 3.6 1.9
-11 11 6 4.4 2.4
-10 11 6 25.5 2.7
-10 11 6 19 4
-9 -11 6 63.39 6.2
-9 11 6 67.39 5.9
-9 11 6 75.99 4
-8 -11 6 50.29 5.5
-8 11 6 53.19 5
-7 -11 6 1 2.7
-7 11 6 3.7 2.3
-6 -11 6 1.8 2.2
6 11 -6 2 1.1
-6 11 6 3 2.1
-5 -11 6 18.8 3.2
5 11 -6 23.2 2.1
-5 11 6 25.2 3.2
-4 -11 6 37.4 3.8
4 11 -6 39.3 2.7
-3 -11 6 0.8 1.9
-3 11 6 -1.3 2
3 11 -6 2.7 1.1
2 -11 -6 -5.3 4
-2 -11 6 1.4 1.8
2 -11 -6 2.3 2
2 11 -6 1.2 1.1
-2 11 6 4.6 2.5
1 -11 -6 3.8 2.1
-1 -11 6 1.5 1.7
1 11 -6 0.1 1.1
-1 11 6 0.1 2.1
0 -11 6 14.7 6
0 -11 -6 16.1 2.9
0 -11 6 20.9 2.7
0 11 -6 20.6 2.2
0 11 6 21.8 3.7
1 -11 6 8 6.3
1 -11 6 2.9 1.7
-1 -11 -6 3.8 2.2
1 11 6 4.7 2.4
-1 11 -6 3.9 1.4
-2 -11 -6 37.4 4
2 -11 6 40.2 3.5
-2 11 -6 44.3 3.1
2 11 6 41.3 4.4
-3 -11 -6 47 4.4
3 -11 6 37.5 3.6
-3 11 -6 43.9 3.2
3 11 6 47.5 4.6
4 -11 6 88.39 6
-4 -11 -6 79.99 5.7
-4 11 -6 74.39 4.4
4 11 6 71.59 5.8
-5 -11 -6 113.09 7.3
5 -11 6 106.69 6.4
-5 11 -6 113.39 5.9
-5 11 -6 114.59 5.6
-6 -11 -6 93.29 6.8
-6 11 -6 101.39 5.3
-6 11 -6 106.29 5.6
-7 -11 -6 16.9 3.5
-7 11 -6 23.9 2.6
-7 11 -6 27 3.7
-8 -11 -6 6.1 3.5
-8 11 -6 1 1.7
-8 11 -6 1.3 1.8
-9 -11 -6 3.5 3.3
-9 11 -6 1.3 1.9
-9 11 -6 0.7 2.3
-10 -11 -6 -1.4 3.5
-10 11 -6 -0.5 1.5
-10 11 -6 -0.7 2.7
-11 -11 -6 1.6 4.6
-11 11 -6 -2.9 3.1
-11 11 -6 3.6 1.6
-12 -11 -6 -3.4 4.8
-12 11 -6 3.1 3.4
-11 12 6 0.6 1.7
-11 12 6 -0.2 4.5
-10 12 6 -1.3 1.6
-10 12 6 -1.8 3.8
-9 -12 6 -0.3 7.9
-8 -12 6 11 3.9
-8 12 6 9.1 3.3
-7 -12 6 11.5 3.7
-6 -12 6 0.8 3.4
6 12 -6 0.9 1.1
-5 -12 6 16.9 3.3
5 12 -6 21.9 2
-4 -12 6 0.3 2.3
4 12 -6 0.8 1.1
3 -12 -6 7.1 2.5
-3 -12 6 10.7 2.8
3 12 -6 9 1.6
2 -12 -6 5.2 2.4
-2 -12 6 5.8 2.4
2 12 -6 7 1.6
-1 -12 6 4.3 2.2
1 -12 -6 -0.9 1.9
1 12 -6 -0.8 1
0 -12 -6 2.9 2.1
0 -12 6 0.8 2.1
0 12 -6 -0.6 1.1
-1 -12 -6 1.7 2.1
1 -12 6 0 2
-1 12 -6 0 1.2
-2 -12 -6 2 2.4
2 -12 6 2.6 2.2
-2 12 -6 4 1.5
-3 -12 -6 3.7 2.8
3 -12 6 6.5 2.5
-3 12 -6 3.9 1.7
4 -12 6 8.5 3.5
-4 -12 -6 16 3.5
-4 12 -6 9.3 2
-5 -12 -6 58.19 5.4
-5 12 -6 51.49 5
-6 -12 -6 2 2.7
-6 12 -6 0.3 1.8
-6 12 -6 -0.5 1.7
-7 -12 -6 0.6 2.9
-7 12 -6 0.8 2
-7 12 -6 1.9 1.9
-8 -12 -6 4.8 3.8
-8 12 -6 1.2 2.2
-8 12 -6 3.5 2.3
-9 -12 -6 -0.2 4.6
-9 12 -6 3.5 2.7
-9 12 -6 5 2.3
-10 -12 -6 3.8 4.4
-10 12 -6 -1.9 1.9
-10 12 -6 -2.3 3.6
-11 -12 -6 2.9 5.1
-11 12 -6 -1.1 3.3
-11 12 -6 3.2 1.8
-10 13 6 8.6 2.1
-9 -13 6 3.2 5.8
-8 -13 6 13.1 9.2
-7 -13 6 20.7 4.7
-6 -13 6 30.4 4.9
5 -13 -6 -0.9 2.8
-5 -13 6 -0.3 3
4 -13 -6 1.3 2.7
-4 -13 6 -4.3 3.7
4 13 -6 -0.5 1.4
3 -13 -6 0.2 2.4
-3 -13 6 4.3 3
3 13 -6 2.2 1.5
-2 -13 6 2.6 2.9
2 -13 -6 2.8 2.8
2 13 -6 0.8 1.4
-1 -13 6 10 3.1
1 -13 -6 7.4 3.2
1 13 -6 10.9 2
0 -13 6 12.7 3.3
0 -13 -6 14.4 3.6
0 13 -6 13.1 2.2
-1 -13 -6 25.8 4.1
1 -13 6 22 3.7
-1 13 -6 31.3 3.2
-2 -13 -6 21.7 3.9
-2 13 -6 22.6 3.9
-3 -13 -6 75.59 6.3
-3 13 -6 83.89 5.2
-4 -13 -6 79.19 6.5
-4 13 -6 73.29 5.2
-5 -13 -6 58.39 5.9
-5 13 -6 50.19 4.4
-6 -13 -6 22 4.7
-6 13 -6 17.5 3
-7 -13 -6 14.1 5.4
-7 13 -6 11.5 3
-8 -13 -6 0.1 4.6
-8 13 -6 -1.9 2.5
-9 -13 -6 2.9 7
-9 13 -6 2.1 2.5
-10 -13 -6 -0.6 5.1
-10 13 -6 1.8 2.1
9 -14 -6 2.6 5.3
-9 14 6 1.6 2.4
8 -14 -6 3.7 4.7
7 -14 -6 19.9 5
6 -14 -6 3.4 3.7
5 -14 -6 21.9 4.9
5 14 -6 26.2 2.9
4 -14 -6 31.9 5
4 14 -6 28.6 3.2
3 -14 -6 58.69 6
3 14 -6 48.1 4
2 -14 -6 42.3 5.4
2 14 -6 32.6 3.6
1 -14 -6 17 3.8
1 14 -6 12.6 2.5
0 -14 -6 4.7 3
0 14 -6 7.7 2.5
-1 -14 -6 0.3 2.8
-1 14 -6 -3.5 2.4
-2 -14 -6 3.3 3.2
-2 14 -6 4.6 2.7
-3 -14 -6 -0.1 3.4
-3 14 -6 -0.9 3
-4 -14 -6 -1.7 3
-4 14 -6 -1.6 3
-5 -14 -6 3.7 4.3
-5 14 -6 2.3 2.9
-6 -14 -6 0.3 4.6
-7 -14 -6 2.3 4.9
-7 14 -6 1.7 3.8
-8 -14 -6 -2.7 5.2
-8 14 -6 -0.3 3.1
7 -15 -6 -3.7 5
6 -15 -6 -0.2 4.1
5 -15 -6 1.8 4
4 -15 -6 -0.4 4
4 15 -6 2.5 2.4
3 -15 -6 1.3 6
3 15 -6 3.2 2.7
2 -15 -6 3 3.7
2 15 -6 2.5 3
1 -15 -6 1.2 3.7
1 15 -6 7.5 3.3
0 -15 -6 -4.6 3.8
0 15 -6 7.7 3.4
-1 -15 -6 0.6 3.9
-1 15 -6 0.3 3.2
-2 -15 -6 -1.4 4.3
-2 15 -6 -2.7 3.2
-3 -15 -6 3.5 4.9
-3 15 -6 -1.4 3.4
-4 -15 -6 -3 3.8
-4 15 -6 -0.5 3.5
-5 -15 -6 5.7 4.9
-5 15 -6 -3.9 7.4
-6 -15 -6 0.9 4.5
-6 15 -6 6.4 4.2
-7 -15 -6 0.2 5.6
-7 15 -6 -0.3 3.5
5 -16 -6 -2.3 4.8
4 -16 -6 2.5 4.6
4 16 -6 2 3.1
3 -16 -6 5.9 5.2
3 16 -6 11.1 3.3
2 -16 -6 4.3 5
2 16 -6 10.2 3.7
1 -16 -6 3 5.6
1 16 -6 5.5 3.6
0 -16 -6 3.3 5.8
0 16 -6 4.4 4.3
-1 -16 -6 8.5 8.9
-1 16 -6 6.4 4
-2 -16 -6 1.9 5.1
-2 16 -6 1.5 3.9
-3 -16 -6 2.7 4.7
-3 16 -6 0.9 4.2
-4 -16 -6 0.3 5
-4 16 -6 5.7 4.3
-16 0 7 -8.5 6.7
-15 0 7 2.5 3
-15 0 7 1.4 5.4
-14 0 7 1.6 3.2
-14 0 7 1.8 2.4
-13 0 7 1.7 1.9
-13 0 7 -2 2.9
12 0 -7 2.3 2.1
-12 0 7 -1.2 2.4
-12 0 7 1 1.5
-11 0 7 0.8 2
11 0 -7 -0.4 1.6
11 0 -7 -2.7 6
-11 0 7 -1.1 1.3
10 0 -7 0.2 1.4
-10 0 7 0.3 1.7
10 0 -7 -2.8 3.1
-9 0 7 0.3 1.6
9 0 -7 3.6 2.2
9 0 -7 -0.5 1.3
-8 0 7 1.5 1.6
-8 0 7 0.1 0.8
8 0 -7 0.7 2.8
8 0 -7 0.7 1.2
-8 0 7 0.8 1.4
-7 0 7 -0.1 0.9
-7 0 7 0.4 1.2
7 0 -7 -0.7 1.3
7 0 -7 -0.8 1.1
-6 0 7 0 0.9
-6 0 7 -0.3 1.1
6 0 -7 -0.9 1.3
5 0 -7 0.5 1
-5 0 7 -0.6 0.8
5 0 -7 2.5 1.1
4 0 -7 1 1
-4 0 7 1.1 0.9
4 0 -7 0.5 0.5
4 0 -7 0.5 0.9
3 0 -7 -0.2 0.9
-3 0 7 0.3 0.7
3 0 -7 1.6 0.8
3 0 -7 0.2 0.5
-2 0 7 0.2 0.6
2 0 -7 0 0.5
2 0 -7 0.1 0.9
2 0 -7 -0.1 0.5
2 0 -7 0.1 0.9
-1 0 7 0.4 0.6
1 0 -7 0.3 0.9
1 0 -7 -0.2 0.5
0 0 7 0.3 0.5
0 0 -7 -0.1 0.3
0 0 -7 0.2 0.8
0 0 -7 0.4 0.6
-1 0 -7 0.6 0.8
-1 0 -7 -0.2 0.5
1 0 7 0.2 0.9
-1 0 -7 0.4 0.4
-2 0 -7 -0.3 0.7
-2 0 -7 -0.3 0.4
2 0 7 1.3 1
-2 0 -7 0.9 0.5
-2 0 -7 -0.3 0.5
-3 0 -7 -0.1 0.5
-3 0 -7 0.2 0.7
-3 0 -7 -0.3 0.5
-3 0 -7 -0.7 0.5
3 0 7 1.2 1.3
-4 0 -7 0 0.7
4 0 7 2.5 2.6
-4 0 -7 -0.3 0.5
4 0 7 2.2 1.5
-4 0 -7 0.5 0.6
-4 0 -7 -0.1 0.6
-5 0 -7 -0.7 0.6
-5 0 -7 0.1 0.6
-6 0 -7 -0.2 0.6
-6 0 -7 0.4 0.6
-6 0 -7 0.5 0.8
-7 0 -7 -0.1 0.5
-7 0 -7 0.3 1
-7 0 -7 0.7 0.8
-8 0 -7 0 1.1
-8 0 -7 -0.1 0.6
-8 0 -7 -0.1 0.8
-9 0 -7 -0.1 0.9
-9 0 -7 0 0.6
-9 0 -7 -0.6 1.3
-10 0 -7 0.1 1.1
-10 0 -7 -2.4 1.5
-11 0 -7 0.9 1.9
-11 0 -7 -0.6 1
-12 0 -7 0 1.3
-13 0 -7 -1.6 1.3
-14 0 -7 0.3 1.4
-16 0 -7 -2.7 1.5
-16 -1 7 -0.6 4.7
-16 -1 7 -1.9 4.4
-16 1 7 0.5 5.3
-16 1 7 3.5 6.2
-15 -1 7 1 2.8
-15 -1 7 1.5 4
-15 1 7 5.3 4
-15 1 7 -1 3.1
-14 -1 7 7.9 2.7
-14 -1 7 4.1 3.3
-14 1 7 3.9 2.6
-14 1 7 4.2 3.3
-13 -1 7 9.2 3.6
-13 -1 7 7.3 2.1
-13 1 7 3.7 1.9
13 1 -7 8.3 3.1
-13 1 7 3.1 2.8
-12 -1 7 218.28 11.8
-12 -1 7 229.08 10.5
-12 1 7 243.68 10.5
-12 1 7 232.38 12
12 1 -7 215.98 11
-11 -1 7 29.2 4
11 -1 -7 15.6 2.6
-11 1 7 21 2.4
-11 1 7 19.2 3.3
10 -1 -7 24.6 4.3
-10 -1 7 35.6 3.7
10 -1 -7 37.5 3.1
10 1 -7 29.4 4.3
10 1 -7 32.2 3.2
-10 1 7 34.9 3.7
-9 -1 7 25.5 3.1
9 -1 -7 21.2 2.4
9 -1 -7 29.4 3.6
9 1 -7 21.6 2.7
-9 1 7 23.9 3.1
9 1 -7 27.6 3.5
-8 -1 7 14.8 1.4
-8 -1 7 14.8 2
8 -1 -7 17.9 2.1
-8 1 7 11.7 1.9
-8 1 7 16.8 1.7
-8 1 7 16.6 2.4
8 1 -7 20.4 2.4
-7 -1 7 0.4 0.9
7 -1 -7 -0.1 1.4
7 -1 -7 0.4 1.1
-7 -1 7 0.6 1.3
7 1 -7 -0.3 1.5
-7 1 7 0.8 1.2
-7 1 7 1.4 1.4
7 1 -7 -0.5 1.2
6 -1 -7 2.3 1.2
-6 -1 7 0.9 1.2
6 -1 -7 1.1 1.2
6 1 -7 5.6 1.6
-6 1 7 2.7 1.4
-6 1 7 2.2 1.1
-6 1 7 2.2 1.2
6 1 -7 1.8 1.3
5 -1 -7 27.1 2.4
-5 -1 7 24.2 2.4
5 -1 -7 26.8 2.5
-5 1 7 22.5 2.3
5 1 -7 29.7 2.4
-5 1 7 26.2 2.2
5 1 -7 26.3 1.4
5 1 -7 25.4 2.5
-4 -1 7 980.5 40.2
4 -1 -7 984.9 40
4 -1 -7 1016.1 40.1
4 1 -7 997.5 39.4
4 1 -7 947.11 40.2
-4 1 7 1000 40.2
4 1 -7 966.8 40
3 -1 -7 782.12 31.3
-3 -1 7 775.02 31.7
3 -1 -7 784.12 31.6
3 1 -7 754.92 31.3
3 1 -7 770.52 31
3 1 -7 814.42 31.7
3 1 -7 722.33 31.3
-3 1 7 777.12 31.6
-2 -1 7 1598.64 65.19
2 -1 -7 1793.62 64.79
2 1 -7 1637.24 64.69
2 1 -7 1429.16 64.79
-2 1 7 1613.34 65.19
2 1 -7 1659.73 65.29
-1 -1 7 1042.6 42.2
1 -1 -7 1061.69 42.3
1 1 -7 1065.49 41.9
1 1 -7 1081.39 42.3
-1 1 7 1043 42.2
1 1 -7 979.1 41.7
0 -1 -7 1290.37 53.99
0 -1 7 1318.07 53.89
0 1 -7 1370.96 54.09
0 1 7 1393.16 53.99
1 -1 7 377.86 16.4
-1 -1 -7 401.66 16.3
-1 -1 -7 378.46 16
-1 -1 -7 427.66 16.5
-1 1 -7 390.86 16
1 1 7 400.56 15.9
1 1 7 382.96 16
-1 1 -7 384.06 16.3
2 -1 7 408.46 17.7
-2 -1 -7 415.06 17.1
-2 -1 -7 387.26 16.7
-2 -1 -7 406.46 16.8
-2 -1 -7 413.46 16.8
-2 1 -7 414.76 16.8
2 1 7 417.16 16.8
-2 1 -7 421.16 16.8
-2 1 -7 431.66 17.1
-3 -1 -7 906.51 37.1
-3 -1 -7 934.91 37.3
-3 -1 -7 959.5 37.5
-3 -1 -7 889.21 37.1
-3 1 -7 901.81 37.2
-3 1 -7 912.51 37.3
-3 1 -7 915.41 37.2
3 1 7 984.5 37.2
-4 -1 -7 327.07 14.5
4 -1 7 349.96 14.6
-4 -1 -7 338.27 14.3
-4 -1 -7 370.66 14.7
-4 -1 -7 349.37 14.3
4 1 7 359.26 14.4
-4 1 -7 352.56 14.4
-4 1 -7 341.77 14.3
-4 1 -7 357.26 14.4
-5 -1 -7 1.5 0.6
-5 -1 -7 1.6 0.6
-5 -1 -7 0.4 0.8
-5 1 -7 1.3 0.6
-5 1 -7 1.7 0.7
-6 -1 -7 161.68 7.2
-6 -1 -7 168.38 7.8
-6 -1 -7 177.28 7.5
-6 1 -7 174.78 7.7
-6 1 -7 170.18 7.3
-6 1 -7 172.88 7.4
-7 -1 -7 68.69 3.4
-7 -1 -7 69.49 3.6
-7 -1 -7 68.39 4
-7 1 -7 72.09 3.9
-7 1 -7 69.09 3.5
-7 1 -7 68.19 3.3
-8 -1 -7 63.29 3.1
-8 -1 -7 71.79 3.4
-8 -1 -7 61.19 3.5
-8 1 -7 66.09 3.3
-8 1 -7 64.19 3.9
-8 1 -7 68.79 3.5
-9 -1 -7 2.5 1.1
-9 1 -7 3.2 1.6
-9 1 -7 4.4 0.8
-10 -1 -7 2.6 1.6
-10 -1 -7 5.2 1.2
-10 1 -7 1.5 1.1
-10 1 -7 5.5 1.8
-10 1 -7 2.6 1.1
-11 -1 -7 8.8 1.5
-11 1 -7 10.7 2.4
-11 1 -7 9.3 1.7
-12 1 -7 198.88 8.8
-12 1 -7 178.58 9.5
-13 -1 -7 25.4 2.9
-13 1 -7 25.2 2.7
-14 -1 -7 4 1.5
-14 1 -7 5 1.7
-15 -1 -7 0.4 2.1
-15 1 -7 -1.2 2.7
-16 1 -7 7 2.2
-16 -2 7 4.7 3.2
-16 -2 7 4.8 4.9
-16 2 7 31.4 10.7
-16 2 7 17.2 5.3
-15 -2 7 3.2 4.1
-15 -2 7 4.7 2.8
-15 2 7 11 3.6
-15 2 7 1 3.9
-14 -2 7 25.4 4.7
-14 -2 7 14.3 2.6
-14 2 7 17.4 3
-14 2 7 16.9 4.1
-13 -2 7 64.29 6
-13 -2 7 66.29 5.9
-13 2 7 56.99 5.8
13 2 -7 64.99 5.5
-13 2 7 87.79 6.8
-12 -2 7 34.3 4.3
-12 -2 7 35.8 3.1
-12 2 7 25.9 4
-12 2 7 40.9 3.2
12 2 -7 39.7 4
-11 -2 7 16.9 3
11 -2 -7 12.7 2.3
-11 2 7 18.3 3.4
11 2 -7 16.5 2.8
-11 2 7 14.9 2.1
10 -2 -7 40.5 5
10 -2 -7 34.9 3
-10 -2 7 32.1 3.7
-10 2 7 34.3 3.8
-10 2 7 35.4 2.7
10 2 -7 30.9 3.3
10 2 -7 31.5 4.8
9 -2 -7 159.08 7.7
9 -2 -7 158.18 9
-9 2 7 161.28 7.8
9 2 -7 154.98 9
9 2 -7 160.88 8.2
-9 2 7 162.88 8.5
-8 -2 7 425.66 17.3
-8 -2 7 432.96 18.1
8 -2 -7 429.36 18.1
8 -2 -7 442.96 19.5
-8 2 7 413.06 18
-8 2 7 410.96 18
8 2 -7 408.96 18.4
8 2 -7 423.06 20.5
-8 2 7 420.76 18.7
7 -2 -7 357.86 15.4
-7 -2 7 358.66 15.5
7 -2 -7 360.66 15.9
7 2 -7 362.06 15.9
-7 2 7 395.66 15.8
7 2 -7 366.46 15.7
-7 2 7 354.06 15.5
-7 2 7 303.17 15.6
6 -2 -7 624.74 26.1
6 -2 -7 635.74 26.4
-6 -2 7 608.94 26.3
6 2 -7 653.13 26.4
6 2 -7 649.14 26.4
-6 2 7 632.04 26.4
6 2 -7 606.74 25.3
-6 2 7 623.74 26.3
-6 2 7 642.04 26.3
5 -2 -7 1430.26 60.29
5 -2 -7 1508.95 60.19
-5 2 7 1609.84 60.89
-5 2 7 1550.44 60.59
-5 2 7 1491.45 60.39
5 2 -7 1493.15 60.49
5 2 -7 1430.66 59.49
5 2 -7 1413.46 60.19
4 -2 -7 494.05 20.5
4 -2 -7 491.55 20.5
-4 -2 7 493.85 20.7
-4 2 7 494.25 20.5
4 2 -7 492.45 20.6
4 2 -7 487.25 19.8
-4 2 7 477.65 20.6
4 2 -7 495.75 20.4
-3 -2 7 79.89 4.3
3 -2 -7 83.89 4.1
3 -2 -7 83.19 4.2
3 2 -7 83.49 4.1
3 2 -7 83.89 3.6
3 2 -7 83.99 4.4
-3 2 7 69.39 4.8
-3 2 7 84.49 4.3
3 2 -7 73.19 4
2 -2 -7 12.6 1.5
-2 -2 7 11.9 1.5
2 -2 -7 12.6 1.2
-2 2 7 12.2 1.6
2 2 -7 9.3 1.1
2 2 -7 12.9 1.6
2 2 -7 12.3 1
1 -2 -7 212.18 9.4
-1 -2 7 205.38 9.3
-1 2 7 219.48 9.4
1 2 -7 219.98 9
1 2 -7 225.08 9.5
0 -2 -7 147.49 6.7
0 -2 -7 144.49 6.3
0 -2 7 150.18 6.5
0 2 7 149.59 6.5
0 2 -7 145.49 6.7
0 2 -7 150.08 6.3
1 -2 7 3.1 0.7
-1 -2 -7 3.7 1.1
-1 -2 -7 3.9 0.8
-1 -2 -7 3.7 0.7
-1 2 -7 2.8 0.7
-1 2 -7 4 1
-1 2 -7 3.2 0.7
-2 -2 -7 15.8 1.6
-2 -2 -7 15.5 1.3
-2 -2 -7 12.5 1.1
-2 2 -7 12.9 1.2
-2 2 -7 13.8 1.2
-2 2 -7 11.4 1.3
-3 -2 -7 72.89 3.6
3 -2 7 76.89 3.2
-3 -2 -7 68.69 3.3
-3 -2 -7 78.19 3.8
-3 2 -7 69.59 3.5
-3 2 -7 74.09 3.4
-3 2 -7 70.39 3.4
4 -2 7 211.28 8.8
-4 -2 -7 213.08 8.7
-4 -2 -7 202.68 8.6
-4 -2 -7 211.78 9.1
-4 2 -7 221.08 8.8
-4 2 -7 184.78 9
-4 2 -7 204.58 8.8
-5 -2 -7 494.05 19.9
-5 -2 -7 482.05 19.3
-5 -2 -7 474.35 19.2
-5 2 -7 456.85 19.4
-5 2 -7 478.35 19.4
-5 2 -7 461.95 19.2
-6 -2 -7 370.06 15.7
-6 -2 -7 354.06 14.9
-6 2 -7 367.16 15
-6 2 -7 381.26 15.2
-6 2 -7 353.96 15.5
-7 -2 -7 85.79 4
-7 -2 -7 85.49 4.8
-7 2 -7 83.99 4
7 2 7 91.79 4.9
-7 2 -7 83.09 4.6
-7 2 -7 86.09 4.2
-8 -2 -7 389.16 17.7
-8 -2 -7 425.96 16.8
-8 -2 -7 404.46 16.8
8 2 7 407.66 17.5
-8 2 -7 408.66 17.5
-8 2 -7 406.06 16.7
-8 2 -7 412.56 17
-9 -2 -7 298.37 12.6
-9 -2 -7 296.37 12.6
-9 2 -7 312.87 12.8
-9 2 -7 286.47 12.4
9 2 7 319.87 13.4
-9 2 -7 277.37 13.3
-10 -2 -7 242.58 10.1
-10 2 -7 201.78 10.4
-10 2 -7 211.08 9.7
-10 2 -7 215.28 9.2
-11 -2 -7 25 2.1
-11 2 -7 26.4 2.4
-11 2 -7 19.2 2.9
-12 -2 -7 3.3 1.2
-12 2 -7 1.2 2.3
-12 2 -7 5.3 1.7
-13 -2 -7 47 3.4
-13 2 -7 57.49 3.8
-13 2 -7 44.6 5.3
-14 -2 -7 2.1 1.4
-14 2 -7 -1.4 1.8
-16 2 -7 4.7 2.5
-16 -3 7 -5.7 5.1
-16 -3 7 -0.9 3.1
-16 3 7 -5.1 4.8
-16 3 7 2.9 4.1
-15 -3 7 -0.6 2.6
-15 -3 7 -8.9 6.5
-15 3 7 4.7 5
-15 3 7 2 3.5
-14 -3 7 3.5 3.7
-14 -3 7 0.7 2
-14 3 7 1.1 3.3
-14 3 7 4.9 2.9
-13 -3 7 5.8 3.1
-13 -3 7 3.7 2.3
-13 3 7 1.8 2.9
-13 3 7 1.6 2.1
13 3 -7 2.3 2.9
-12 -3 7 38.9 4.5
-12 -3 7 41 3.2
-12 3 7 33.4 3.1
12 3 -7 22.3 3.4
-12 3 7 28.9 4.1
-11 -3 7 90.79 6.1
11 -3 -7 85.89 4.9
-11 3 7 71.79 4.6
11 3 -7 88.59 5.7
-11 3 7 79.39 6
-10 -3 7 7.6 2.4
10 -3 -7 13.5 4.4
10 -3 -7 9.5 1.9
10 3 -7 11.5 4.2
-10 3 7 10.7 1.7
10 3 -7 10.2 2.4
-10 3 7 8.3 2.5
9 -3 -7 55.49 5.6
9 -3 -7 47.4 3.3
9 3 -7 40.3 5.5
-9 3 7 48.3 3.1
-9 3 7 49.7 3.3
9 3 -7 45.9 3.8
8 -3 -7 139.59 7.7
-8 -3 7 137.69 6
8 -3 -7 135.89 6.7
-8 3 7 140.19 6.8
8 3 -7 133.59 7.2
-8 3 7 135.79 7.4
-8 3 7 140.19 6.4
8 3 -7 136.49 7.7
7 -3 -7 34 2.6
-7 -3 7 35.2 3.2
7 -3 -7 31.8 3.4
-7 3 7 29.3 2.9
-7 3 7 33 3
7 3 -7 30.2 3.4
-7 3 7 35.4 2.7
6 -3 -7 411.16 17.7
-6 -3 7 397.56 17.6
6 3 -7 419.06 16.5
-6 3 7 402.66 17.4
-6 3 7 402.16 17.5
6 3 -7 400.96 17.6
-6 3 7 419.76 17.7
-5 -3 7 328.47 14.5
5 -3 -7 339.17 14.2
5 -3 -7 328.77 14.4
5 3 -7 333.87 13.5
-5 3 7 320.37 14.6
-5 3 7 335.77 14.4
5 3 -7 328.77 14.4
-4 -3 7 345.17 15
4 -3 -7 325.87 14.7
4 3 -7 373.26 14.8
-4 3 7 332.17 14.9
4 3 -7 343.17 14.1
-4 3 7 350.46 14.8
-4 3 7 352.56 15.1
-3 -3 7 181.98 8.2
3 -3 -7 177.58 7.8
3 -3 -7 185.78 8
-3 3 7 177.28 8.3
-3 3 7 180.98 7.9
3 3 -7 173.68 7.4
3 3 -7 162.98 7.8
-3 3 7 180.78 8.1
3 3 -7 169.58 7.8
2 -3 -7 239.28 10.3
2 -3 -7 241.08 9.9
-2 -3 7 231.08 10.4
-2 3 7 245.08 10.1
2 3 -7 241.38 9.8
2 3 -7 218.98 9.7
-2 3 7 231.78 10.6
-2 3 7 234.78 10.3
-1 -3 7 18.2 1.8
1 -3 -7 18.3 1.8
-1 3 7 18.8 1.5
1 3 -7 20.1 1.9
-1 3 7 22 1.8
-1 3 7 23 2.3
1 3 -7 21 1.4
0 -3 -7 186.48 8.5
0 -3 7 193.88 8.5
0 3 7 201.88 8
0 3 -7 190.98 8.1
0 3 7 196.68 9
0 3 -7 189.58 8.5
0 3 7 192.58 8.4
-1 -3 -7 5 1
-1 -3 -7 4.7 1.2
1 -3 7 3.2 0.8
1 3 7 3.7 1.4
-1 3 -7 2.8 0.7
-1 3 -7 4.2 1
1 3 7 3 0.7
-1 3 -7 2.7 0.8
-2 -3 -7 180.28 8
-2 -3 -7 177.38 7.9
-2 3 -7 176.48 7.6
-2 3 -7 180.58 7.8
2 3 7 186.58 7.6
2 3 7 175.58 7.6
-2 3 -7 176.88 7.6
3 -3 7 385.66 15.3
-3 -3 -7 380.86 15.9
3 3 7 378.06 15.4
-3 3 -7 370.46 15.7
-3 3 -7 385.66 15.6
3 3 7 372.26 15.4
-3 3 -7 372.76 15.7
3 3 7 396.26 16.5
4 -3 7 876.41 35.5
-4 -3 -7 872.01 35.2
-4 -3 -7 865.21 35.9
-4 3 -7 849.91 35.4
-4 3 -7 900.91 35.6
-4 3 -7 890.21 35.5
4 3 7 913.61 36.4
-5 -3 -7 543.65 22.1
-5 -3 -7 554.54 22.9
-5 3 -7 492.65 22.3
5 3 7 570.04 23.2
-5 3 -7 571.54 22.4
-5 3 -7 552.84 22.3
-6 -3 -7 2.4 1.2
-6 -3 -7 3.6 0.7
-6 3 -7 2.6 1
-6 3 -7 4.1 0.9
6 3 7 2.7 1.3
-6 3 -7 1.4 1.1
-7 -3 -7 88.59 5
-7 -3 -7 82.99 4.1
7 3 7 89.99 4.3
-7 3 -7 87.39 4.2
-7 3 -7 91.59 4.4
-7 3 -7 86.39 4.9
7 3 7 95.99 5
-8 -3 -7 4.9 1.8
-8 -3 -7 5.3 0.9
8 3 7 7 1.7
-8 3 -7 4.3 1.6
-8 3 -7 8.3 1.4
-8 3 -7 5.4 1
-9 -3 -7 0 1.6
-9 -3 -7 -0.3 0.7
-9 3 -7 -0.3 1.3
-9 3 -7 1.1 0.7
-9 3 -7 -0.4 1
-10 -3 -7 8.1 1.2
-10 3 -7 9.2 1.5
-10 3 -7 9.3 2.2
-10 3 -7 10.5 1.2
-11 -3 -7 21.8 1.9
-11 3 -7 17.9 2.9
-11 3 -7 19.1 2.3
-12 -3 -7 6.9 1.3
-12 3 -7 5.3 2.5
-12 3 -7 8.6 1.8
-13 -3 -7 3.4 1.4
-13 3 -7 5 2.1
-13 3 -7 -1.8 2.9
-14 3 -7 -1.8 2.2
-15 3 -7 0.8 3.7
-16 -4 7 1.6 2.9
-16 -4 7 3.5 5.5
-16 4 7 5.3 4.8
-16 4 7 -0.1 4
-15 -4 7 -2 4.2
-15 -4 7 4.8 2.5
-15 4 7 -3.1 3.5
-15 4 7 3 4.1
-14 -4 7 8.7 3.6
-14 -4 7 10.4 2.6
-14 4 7 2.4 3
-14 4 7 9.9 4.2
-13 -4 7 7.2 3.3
-13 -4 7 1 1.7
-13 4 7 4.7 3.3
13 4 -7 3.7 3.1
-13 4 7 9 2.7
-12 -4 7 10.2 2.8
-12 4 7 8.6 1.8
12 4 -7 7.5 2.7
-12 4 7 9.4 3.2
-11 -4 7 0.8 2
-11 4 7 1 1.4
-11 4 7 2.3 2.2
11 4 -7 1.3 2.2
10 -4 -7 0 1.5
10 -4 -7 -0.6 4.8
-10 4 7 -0.3 1.1
10 4 -7 4.1 5.4
10 4 -7 -1 1.6
-10 4 7 2.2 2.1
9 -4 -7 46.5 5.9
9 -4 -7 36.8 3
-9 4 7 36.8 3.2
9 4 -7 33.4 4.5
-9 4 7 38.5 3.8
-9 4 7 35.6 2.6
8 -4 -7 161.48 7.4
8 -4 -7 141.89 8.5
-8 4 7 162.38 8.2
-8 4 7 154.48 7.6
-8 4 7 159.68 7.1
8 4 -7 146.19 8.7
-7 -4 7 54.09 4.1
7 -4 -7 56.19 6.7
7 -4 -7 54.99 3.4
-7 4 7 55.49 3.7
-7 4 7 57.39 4
-7 4 7 56.89 3.1
-7 4 7 56.59 3.9
6 -4 -7 116.69 6.3
-6 -4 7 113.19 6.1
6 -4 -7 116.99 5.7
6 4 -7 113.29 4.9
-6 4 7 107.29 5.9
-6 4 7 108.19 6
-6 4 7 119.49 6.1
6 4 -7 118.69 6.4
5 -4 -7 2.1 1.2
5 -4 -7 0.4 1.1
-5 -4 7 0.1 1.3
-5 -4 7 -0.2 1
-5 4 7 1.7 1.2
5 4 -7 -0.9 1.2
5 4 -7 0.9 0.6
-5 4 7 1 1.2
-5 4 7 -0.2 1.1
4 -4 -7 80.79 4.3
-4 -4 7 85.79 4.2
4 -4 -7 85.09 4.7
-4 -4 7 75.09 4.7
-4 4 7 80.29 4.5
4 4 -7 84.29 4.7
-4 4 7 87.59 4.5
-4 4 7 83.29 4.7
4 4 -7 80.49 3.7
3 -4 -7 150.98 6.9
-3 -4 7 150.58 7.3
-3 -4 7 145.59 6.6
3 -4 -7 151.08 6.8
-3 4 7 154.88 6.8
-3 4 7 141.29 7.3
3 4 -7 147.79 6.4
-3 4 7 141.99 7
2 -4 -7 177.98 7.7
2 -4 -7 180.88 7.8
2 -4 -7 186.38 8.1
-2 -4 7 178.38 7.6
-2 -4 7 175.68 8.2
-2 4 7 171.78 8.1
-2 4 7 174.08 8.5
-2 4 7 185.58 7.8
2 4 -7 169.88 7.5
-1 -4 7 106.09 5.1
1 -4 -7 108.29 5.1
-1 -4 7 96.89 4.3
-1 4 7 98.59 5.4
-1 4 7 95.49 5
-1 4 7 95.89 4.5
1 4 -7 101.09 4.5
0 -4 -7 1.7 1.1
0 -4 7 3.6 1
0 4 7 3.3 1.5
0 4 -7 3.4 0.8
0 4 7 2.9 0.9
0 4 -7 4.3 1.2
0 4 7 3.2 0.6
-1 -4 -7 204.48 9.4
1 -4 7 212.38 9.3
-1 -4 -7 210.68 9.3
-1 4 -7 222.78 9.1
1 4 7 208.48 9.2
-1 4 -7 213.48 9
1 4 7 209.78 9.8
-1 4 -7 212.78 9.3
-2 -4 -7 218.98 9.7
-2 -4 -7 217.08 9.5
-2 4 -7 216.28 9.2
2 4 7 209.78 9.3
2 4 7 204.98 10
-2 4 -7 228.88 9.2
-2 4 -7 219.48 9.4
-3 -4 -7 0.2 0.9
3 4 7 0.5 0.7
-3 4 -7 0.8 0.8
-3 4 -7 1.8 0.8
3 4 7 0.8 0.7
3 4 7 -0.9 1.1
-3 4 -7 1.8 0.8
-4 -4 -7 9.5 1.6
4 4 7 9.2 1.1
-4 4 -7 10.4 1.2
4 4 7 7.6 1.1
-4 4 -7 9.7 1.2
4 4 7 7.6 1.7
-4 4 -7 10.5 1.1
-5 -4 -7 25.7 2.3
-5 -4 -7 24.5 1.3
-5 4 -7 25.1 1.7
5 4 7 27.4 2.3
5 4 7 25.5 2.5
5 4 7 25.5 2
-5 4 -7 24.9 1.8
-6 -4 -7 159.58 6.5
-6 -4 -7 162.08 7.7
6 4 7 150.38 7
-6 4 -7 154.18 7.6
6 4 7 149.09 6.9
-6 4 -7 156.48 6.9
6 4 7 159.08 7.7
-6 4 -7 162.28 7
-7 -4 -7 48.1 2.5
-7 -4 -7 53.49 3.7
-7 4 -7 50.89 3
-7 4 -7 54.09 2.8
-7 4 -7 50.19 3.5
7 4 7 51.09 3.5
-8 -4 -7 111.69 5
-8 -4 -7 104.59 6.2
8 4 7 111.99 5.8
-8 4 -7 110.49 6.1
-8 4 -7 117.89 5.5
-8 4 -7 118.69 5.3
-9 -4 -7 4.1 0.9
-9 -4 -7 6.8 2.2
-9 4 -7 7.3 1.2
-9 4 -7 6.5 1.4
-9 4 -7 2.9 1.6
-10 -4 -7 2.4 0.9
-10 -4 -7 4.2 2.1
-10 4 -7 -0.4 1.1
-10 4 -7 2.2 1.1
-10 4 -7 1.5 1.8
-11 -4 -7 6.7 1.3
-11 4 -7 10.8 1.9
-11 4 -7 5.5 2.2
-13 4 -7 3.2 2
-14 4 -7 0.4 2.4
-15 4 -7 3 3.1
-16 -5 7 2.5 2.5
-16 -5 7 2.5 6.5
-16 5 7 -0.1 5.4
-16 5 7 4.1 4.4
-15 -5 7 1 2.7
-15 -5 7 -1.2 4.6
-15 5 7 0.1 4.1
-15 5 7 7.7 4.4
-14 -5 7 -1.1 2
-14 5 7 0 3.1
-14 5 7 1 4.3
-13 -5 7 -5.1 2.5
-13 -5 7 0.2 1.6
-13 5 7 -3.1 2.4
13 5 -7 -3.8 3
-13 5 7 -2.4 2.9
12 5 -7 8.4 2.9
-12 5 7 9.2 2
-12 5 7 7.9 3
-11 -5 7 9.1 2.7
11 5 -7 14.2 2.9
-11 5 7 19.1 3.5
-11 5 7 9.9 1.7
10 -5 -7 30.4 3.4
-10 5 7 25.3 3.7
-10 5 7 27.4 2.5
9 -5 -7 8.6 4
9 -5 -7 6.7 1.8
-9 5 7 9 2.5
9 5 -7 6.5 4.1
8 -5 -7 12.8 1.9
8 -5 -7 11 4.1
-8 5 7 11 2.3
8 5 -7 7.4 3.7
-8 5 7 14.3 2.4
-8 5 7 16.6 1.8
7 -5 -7 24.9 2.3
7 -5 -7 20.3 3
-7 -5 7 17.4 3.9
7 5 -7 27.7 3.4
-7 5 7 29.9 2.9
-7 5 7 25.1 2.7
-7 5 7 26.9 2
-6 -5 7 22.8 2.4
6 -5 -7 23.5 3.2
-6 -5 7 19.5 2.8
6 -5 -7 26.2 2.2
6 5 -7 22.1 1.4
-6 5 7 22.8 2.9
-6 5 7 26.9 2.7
-6 5 7 23.9 1.8
6 5 -7 26.8 3.6
-6 5 7 24.5 2.6
-5 -5 7 15 2
5 -5 -7 16.8 2
-5 -5 7 13.6 2.2
5 -5 -7 9.5 1.8
5 5 -7 11.3 2
5 5 -7 13.4 1.1
-5 5 7 16 2.1
-5 5 7 11.6 1.3
-5 5 7 13.8 2
-5 5 7 15.5 2.3
4 -5 -7 0.9 1.1
4 -5 -7 1.3 1.1
-4 -5 7 0.6 1.3
-4 -5 7 2.5 1.1
-4 5 7 0.2 1.1
4 5 -7 0.8 0.7
-4 5 7 1.4 0.6
-4 5 7 0.6 1.4
4 5 -7 0.1 1.2
-4 5 7 0.6 1.2
-3 -5 7 542.35 22.2
3 -5 -7 524.95 22.4
3 -5 -7 563.14 22.8
-3 -5 7 524.85 22.8
-3 5 7 548.45 21.8
3 5 -7 536.85 21.9
-3 5 7 502.35 22.6
-3 5 7 541.15 22.4
-3 5 7 573.14 23.1
-2 -5 7 938.31 40.6
2 -5 -7 1097.69 41.1
-2 -5 7 948.71 39.9
2 -5 -7 1041.3 40.3
2 -5 -7 970.2 40
-2 5 7 985.3 39.6
-2 5 7 966 40.5
-2 5 7 1008.3 40.1
-2 5 7 968 40.9
-1 -5 7 1174.48 48
-1 -5 7 1177.68 47.3
1 -5 -7 1308.67 48.3
-1 5 7 1187.78 47.3
1 5 -7 1119.39 47.3
-1 5 7 1129.09 47
-1 5 7 1156.98 47.9
0 -5 -7 418.86 17.2
0 -5 7 401.16 16.4
0 -5 7 403.26 17.3
0 5 7 415.16 17.7
0 5 -7 411.86 16.7
0 5 7 410.36 16.4
0 5 7 376.86 17.1
1 -5 7 722.53 30.2
-1 -5 -7 737.23 30.3
1 -5 7 704.93 29.4
-1 -5 -7 731.43 30.2
-1 5 -7 727.23 30
-1 5 -7 752.32 29.7
-1 5 -7 745.33 29.7
1 5 7 764.62 30.8
1 5 7 721.93 30.1
-2 -5 -7 315.17 14.1
2 -5 7 351.06 13.9
2 -5 7 324.87 13.4
-2 5 -7 333.27 13.9
-2 5 -7 332.97 13.7
2 5 7 325.37 14.6
-2 5 -7 322.07 13.7
-3 -5 -7 333.97 14.2
-3 5 -7 337.87 13.6
3 5 7 333.97 13.9
-3 5 -7 340.07 13.6
-3 5 -7 328.47 13.6
3 5 7 281.67 14.3
-4 -5 -7 237.68 11
-4 5 -7 251.87 10.5
4 5 7 249.58 10.8
4 5 7 255.07 10.8
-4 5 -7 256.37 10.5
-4 5 -7 243.48 10.2
4 5 7 224.08 11.2
-5 -5 -7 230.68 10.7
5 5 7 229.08 10.8
5 5 7 227.08 10.2
-5 5 -7 237.18 10
5 5 7 224.78 10.3
-5 5 -7 250.17 10
-6 -5 -7 4.1 1.5
-6 5 -7 3.9 1.1
6 5 7 0.8 1.3
6 5 7 1.9 1.4
-6 5 -7 3 0.9
6 5 7 1.2 1.4
-7 -5 -7 8.7 2.1
-7 5 -7 6.3 1.1
7 5 7 4 1.7
-7 5 -7 8.3 1.9
7 5 7 8.1 1.8
-8 -5 -7 21.5 4.1
8 5 7 16.9 2.3
-8 5 -7 14.7 1.6
-8 5 -7 16.3 1.9
-9 -5 -7 -0.3 1.7
-9 5 -7 1.5 1.1
-9 5 -7 -0.5 0.8
-9 5 -7 -0.5 1.5
-10 -5 -7 2.6 2.3
-10 5 -7 3.2 2
-10 5 -7 3.5 1.1
-10 5 -7 3.7 1.4
-11 -5 -7 -1.1 2.2
-11 5 -7 -1.3 1.8
-11 5 -7 1 1.6
-11 5 -7 -1.5 0.9
-12 5 -7 21.2 2.9
-13 5 -7 37.8 4.2
-14 5 -7 24.3 3.5
-15 5 -7 8.2 3.3
-15 -6 7 3.5 4.8
-15 -6 7 0.3 2
-15 6 7 3.4 4.9
-15 6 7 3.2 4.1
-14 -6 7 4.5 2
-14 -6 7 4.7 7.8
-14 6 7 9.8 6.3
14 6 -7 16 8.1
-14 6 7 7.5 3.4
-13 -6 7 3.9 3.3
-13 -6 7 0.4 1.7
-13 6 7 2.3 2.6
-13 6 7 4.6 3.4
13 6 -7 4.1 3.2
-12 -6 7 -2 2.4
-12 6 7 3.2 2.5
12 6 -7 3.8 2.9
-12 6 7 5.5 3
-11 -6 7 2.5 2.3
-11 6 7 2.2 1.4
-11 6 7 4.4 2.5
-10 6 7 0.1 1.2
-10 6 7 -1.6 1.9
9 -6 -7 1.6 1.6
-9 6 7 2 1.1
-9 6 7 1.8 2.1
8 -6 -7 27.1 4.4
-8 -6 7 27.5 3.2
8 -6 -7 24.8 2.6
-8 6 7 28.7 3.3
8 6 -7 25.6 4.2
-8 6 7 26.5 3.2
7 -6 -7 57.29 5.5
-7 -6 7 62.89 4.2
7 -6 -7 54.79 3.6
-7 6 7 57.59 4.2
-7 6 7 56.79 3.2
7 6 -7 48.2 6.7
-7 6 7 61.19 4.3
6 -6 -7 67.59 5
6 -6 -7 73.09 4.1
-6 -6 7 71.59 4.4
-6 6 7 78.89 4.6
6 6 -7 71.09 3.3
6 6 -7 63.29 5.2
-6 6 7 68.69 3.5
-6 6 7 64.19 4.7
-6 6 7 68.79 4.6
-5 -6 7 423.56 18.4
-5 -6 7 414.06 17.9
5 -6 -7 422.66 17.8
-5 6 7 418.66 18.1
-5 6 7 424.86 18.4
-5 6 7 411.66 18
-5 6 7 406.06 17.1
-4 -6 7 375.06 17.6
-4 -6 7 424.86 17.2
4 -6 -7 409.56 17.2
4 -6 -7 401.26 17.4
-4 6 7 414.06 17.7
4 6 -7 414.26 16.6
-4 6 7 391.76 17.5
-4 6 7 407.16 17.8
-4 6 7 389.06 16.4
3 -6 -7 561.54 23
-3 -6 7 524.95 23.4
3 -6 -7 557.84 22.9
-3 -6 7 548.95 22.7
3 -6 -7 557.34 23
3 6 -7 551.14 22.4
-3 6 7 557.54 23.6
-3 6 7 557.74 22.8
-3 6 7 529.65 23.2
-3 6 7 545.35 22.2
2 -6 -7 135.89 6.4
-2 -6 7 135.99 6
2 -6 -7 114.19 6.3
2 -6 -7 127.79 6
-2 -6 7 125.89 6.7
-2 6 7 129.49 6.8
2 6 -7 129.79 5.7
-2 6 7 131.59 6
-2 6 7 129.69 5.4
-2 6 7 126.79 6.6
-1 -6 7 58.69 3.9
-1 -6 7 56.49 3
1 -6 -7 56.29 3.6
-1 6 7 56.99 3
1 6 -7 61.89 3
-1 6 7 57.89 4
0 -6 7 67.69 3.2
0 -6 7 64.59 4.2
0 6 7 66.09 4.4
0 6 -7 64.89 3.3
0 6 7 63.89 4
-1 -6 -7 168.78 8.1
1 -6 7 186.98 9.3
1 -6 7 172.68 8.2
1 6 7 162.68 8.5
-1 6 -7 171.28 7.6
1 6 7 175.68 8.3
-2 -6 -7 56.99 3.6
2 -6 7 54.89 3.8
2 -6 7 53.89 2.8
-2 6 -7 55.09 3
-2 6 -7 52.09 3.2
-2 6 -7 57.29 2.9
2 6 7 53.09 3.5
2 6 7 58.09 3.9
-3 -6 -7 0.9 1.3
3 -6 7 3.5 0.9
3 6 7 2.8 1.6
-3 6 -7 3.1 1
-3 6 -7 1.9 0.8
3 6 7 2.1 1.1
-3 6 -7 2.7 1
-4 -6 -7 80.59 4.6
4 6 7 73.89 4.4
-4 6 -7 80.39 3.9
4 6 7 83.19 4.8
-4 6 -7 79.69 3.9
-4 6 -7 70.69 3.6
-5 -6 -7 8.4 1.9
-5 6 -7 5.9 1.2
5 6 7 7.6 1.8
5 6 7 7.7 1.8
-5 6 -7 5.5 1.1
5 6 7 6.3 1.6
-6 -6 -7 11.6 2.2
6 6 7 9.7 2
-6 6 -7 7.8 1.6
-6 6 -7 12.3 1.6
6 6 7 9 2
-7 -6 -7 0.3 1.6
7 6 7 1.9 1.5
-7 6 -7 0.2 1.4
-8 -6 -7 12.6 2.5
-8 6 -7 24.4 2.8
8 6 7 12.9 3.3
-8 6 -7 18.9 2
-9 -6 -7 0.1 1.8
-9 6 -7 0.4 1
-9 6 -7 0.3 1.2
-10 -6 -7 29.5 4.1
-10 6 -7 26.6 2.1
-10 6 -7 28.5 2.8
-11 -6 -7 24.8 5.1
-11 6 -7 31.2 4.2
-11 6 -7 29.4 2.2
-12 6 -7 2.7 2.2
-13 6 -7 0.9 2.7
-14 6 -7 0.5 3.2
-15 6 -7 -1.8 3.6
-15 -7 7 0.4 1.7
-15 7 7 -0.3 5.2
-15 7 7 -0.7 3.6
-14 -7 7 -0.9 4.3
-14 7 7 3.2 4.6
-14 7 7 13.1 3.9
14 7 -7 -4.3 4.8
-13 -7 7 2.4 4
-13 -7 7 4.2 1.8
13 7 -7 3.2 4.2
-13 7 7 0.9 3.2
-13 7 7 3.9 3
-12 -7 7 17.7 3.7
-12 7 7 20.1 4
-12 7 7 26.5 3.1
12 7 -7 14.8 3.6
-11 7 7 1.1 1.6
-11 7 7 -0.1 2.5
-10 7 7 21.2 3.5
-10 7 7 14.4 1.9
-9 7 7 12.7 2.9
-9 7 7 15.2 1.9
-8 -7 7 18.3 3.6
-8 -7 7 14.6 2.6
-8 7 7 15.9 1.8
-8 7 7 18.3 2.9
-8 7 7 15.2 2.8
-7 -7 7 0 1.6
7 -7 -7 -3.5 3.2
-7 -7 7 -1.7 2.7
-7 7 7 -0.6 1.6
7 7 -7 4.6 3.3
-7 7 7 0.3 0.9
-7 7 7 -0.6 1.7
6 -7 -7 9.4 1.8
-6 -7 7 9.7 2
-6 7 7 12 2.5
-6 7 7 11.7 1.4
6 7 -7 10.3 1.2
-6 7 7 9.2 2.1
-5 -7 7 1.5 1.4
5 -7 -7 2.9 2.1
5 -7 -7 2.5 1.5
-5 -7 7 1.3 2.4
-5 7 7 3.4 1.5
-5 7 7 2.2 1.7
-5 7 7 2.9 2.1
-5 7 7 3.7 0.9
5 7 -7 3.3 0.9
-4 -7 7 0.9 2
-4 -7 7 0.7 1.2
4 -7 -7 1.1 1.2
4 -7 -7 1.1 1.7
4 7 -7 1.9 0.8
-4 7 7 3.1 1.3
-4 7 7 2.9 1.8
-4 7 7 1.3 0.7
-4 7 7 3.2 2
3 -7 -7 4.5 1.6
-3 -7 7 2.8 2
3 -7 -7 1.1 1.5
-3 -7 7 4.2 1.3
3 7 -7 3.2 1
-3 7 7 2.3 1.6
-3 7 7 4.8 1.4
-3 7 7 3 0.7
-3 7 7 3.7 1.8
-2 -7 7 0.5 1.6
-2 -7 7 1.2 1.1
2 -7 -7 1.8 1.2
-2 7 7 0.1 1.4
-2 7 7 -0.4 0.9
-2 7 7 -0.2 1.5
2 7 -7 2.1 0.9
-1 -7 7 14.4 2.3
-1 -7 7 16.5 1.6
-1 7 7 15.6 2.7
-1 7 7 11.7 1.5
1 7 -7 14.6 1.5
0 -7 7 89.19 5.5
0 -7 7 93.29 4.5
0 -7 -7 93.29 5.1
0 7 -7 90.09 4.4
0 7 7 87.69 5.2
0 7 7 100.89 5.7
1 -7 7 99.69 4.7
-1 -7 -7 102.99 5.5
1 -7 7 102.59 5.8
-1 7 -7 106.59 4.9
1 7 7 94.39 5.5
1 7 7 97.09 5.8
2 -7 7 101.39 5.8
-2 -7 -7 104.49 5.6
2 -7 7 102.49 4.7
-2 7 -7 99.19 4.8
2 7 7 102.09 5.9
2 7 7 90.19 5.5
-2 7 -7 100.89 4.7
3 -7 7 9.4 1.3
3 -7 7 5.1 1.8
-3 -7 -7 7.7 1.7
-3 7 -7 6 1.2
3 7 7 3 1.6
3 7 7 5.2 1.9
-3 7 -7 5.8 1.3
-3 7 -7 7.6 1.2
-4 -7 -7 1.7 1.4
-4 7 -7 1.4 0.9
4 7 7 0.9 1.5
4 7 7 1 1.6
-4 7 -7 1.7 0.9
-4 7 -7 3.2 1
-5 -7 -7 3.8 1.7
5 7 7 0.6 1.5
-5 7 -7 2.7 1.1
-5 7 -7 1.9 1
5 7 7 5.5 2.3
-6 -7 -7 0.2 1.7
-6 7 -7 0.1 1
6 7 7 0.3 1.5
-7 -7 -7 3.1 1.8
7 7 7 1.6 1.6
-7 7 -7 5 1.4
-7 7 -7 3.4 1.3
-8 -7 -7 3.1 2
8 7 7 2.8 2.4
-8 7 -7 1.8 1.2
-8 7 -7 3.7 1.2
-9 -7 -7 7.7 2.6
-9 7 -7 14.7 2.1
-9 7 -7 13.6 1.8
-10 -7 -7 7.6 3.1
-10 7 -7 10 1.6
-10 7 -7 7.8 2
-11 -7 -7 0 2.6
-11 7 -7 0.1 1.1
-11 7 -7 -3.5 1.9
-12 -7 -7 -0.4 3.2
-12 7 -7 1.4 2.7
-13 7 -7 3.6 3.2
-14 7 -7 -1.1 3.8
-14 -8 7 2.2 1.7
-14 -8 7 2.3 5.6
-14 8 7 5.1 6.7
-14 8 7 -3.4 3.3
14 8 -7 -1.2 5.4
-13 -8 7 1 1.6
-13 -8 7 4.3 4.1
-13 8 7 -3.7 4.1
13 8 -7 0.4 5.8
-13 8 7 2.6 2.8
-12 -8 7 5.6 3.3
-12 -8 7 2.4 1.6
-12 8 7 4.9 3.3
-12 8 7 2.8 2.3
12 8 -7 2.7 3.4
-11 8 7 3 1.7
-11 8 7 -1.1 2.7
-10 8 7 4.3 2.4
-10 8 7 5.1 1.5
-9 8 7 2.1 2.1
-9 8 7 2.3 1.2
-8 -8 7 124.99 7.4
-8 8 7 120.39 7.2
-8 8 7 131.49 6
-7 8 7 99.39 5.9
-7 8 7 95.59 6.3
-7 8 7 92.09 4.6
6 -8 -7 144.49 8.5
-6 -8 7 111.79 6.7
-6 -8 7 127.09 7.7
-6 8 7 117.29 7.2
-6 8 7 119.09 6.7
-6 8 7 127.09 5.7
6 8 -7 122.29 5.6
-5 -8 7 302.27 13.5
5 -8 -7 293.57 14.1
-5 8 7 286.47 14
-5 8 7 300.27 12.4
-5 8 7 294.97 13.4
5 8 -7 303.77 12.5
-4 -8 7 98.09 5.4
4 -8 -7 99.29 6.2
-4 -8 7 110.49 8.1
-4 8 7 98.59 5.4
-4 8 7 99.39 6.2
-4 8 7 95.59 4.4
-4 8 7 99.69 6.4
4 8 -7 95.49 4.7
-3 -8 7 63.79 3.9
3 -8 -7 52.69 4.3
-3 -8 7 55.69 6.4
3 8 -7 61.09 3.2
-3 8 7 59.79 4.5
-3 8 7 63.69 3.7
-3 8 7 60.29 4.9
2 -8 -7 0.8 1.4
-2 -8 7 0.9 1.2
2 -8 -7 1.9 1.8
-2 -8 7 0.7 2.1
-2 8 7 2.8 2
2 8 -7 -0.1 0.8
-2 8 7 0.6 1.1
-2 8 7 1.1 1.7
-1 -8 7 18.3 2.9
-1 -8 7 17.6 1.9
-1 8 7 21.7 3.1
-1 8 7 19.4 2.7
1 8 -7 20.6 1.8
0 -8 7 31.5 2.4
0 -8 7 27.3 3.9
0 -8 -7 32.6 3
0 8 7 28.6 3.5
0 8 7 34.3 3.4
0 8 -7 32.5 2.2
1 -8 7 2.9 1.9
-1 -8 -7 1.4 1.4
1 -8 7 2.3 1.1
1 8 7 2.1 1.7
1 8 7 3.8 1.8
-1 8 -7 2.2 1.1
2 -8 7 48.9 4.7
2 -8 7 62.69 3.3
-2 -8 -7 58.79 4
2 8 7 54.09 4.2
-2 8 -7 55.69 3.2
2 8 7 48.3 4.3
-3 -8 -7 66.09 4.5
3 -8 7 66.39 3.6
3 -8 7 57.39 5.2
-3 8 -7 70.99 3.7
-3 8 -7 72.69 3.6
-3 8 -7 62.49 3.8
3 8 7 61.69 4.8
3 8 7 56.19 4.5
4 -8 7 78.69 6.1
-4 -8 -7 80.19 5.1
4 -8 7 83.09 4.4
4 8 7 75.29 5.7
-4 8 -7 85.19 4.3
4 8 7 80.89 5.3
-4 8 -7 87.99 5.4
-4 8 -7 85.29 4.1
-5 -8 -7 27 3.2
5 8 7 26.1 3.1
-6 -8 -7 43.2 4
-6 8 -7 47 3
6 8 7 42.6 3.8
-6 8 -7 41.2 2.8
-7 -8 -7 66.19 5.1
-7 8 -7 65.69 3.9
-7 8 -7 71.69 4
7 8 7 65.29 4.8
-8 -8 -7 285.77 14.5
-8 8 -7 309.97 13.2
-8 8 -7 306.47 13.1
-9 -8 -7 141.79 8.6
-9 8 -7 150.38 7
-9 8 -7 148.29 7.3
-10 -8 -7 5.5 2.8
-10 8 -7 9.8 2.4
-10 8 -7 6.5 1.5
-11 -8 -7 3.5 3.5
-11 8 -7 6.8 2.7
-11 8 -7 3.1 1.4
-12 -8 -7 0.5 3.8
-12 8 -7 1.8 3.2
-13 8 -7 4.5 3.8
-14 8 -7 2.5 4
-14 9 7 7.4 3.3
14 9 -7 12.8 10.6
-14 9 7 3.9 4.9
-13 -9 7 3.7 1.7
-13 -9 7 10.2 5.5
13 9 -7 4.9 5.3
-13 9 7 5.9 3.4
-13 9 7 8.3 4.4
-12 -9 7 10.2 1.9
-12 -9 7 0.7 3.8
12 9 -7 11.1 4.4
-12 9 7 11.8 2.5
-12 9 7 2.6 3.4
-11 9 7 25.5 4.5
-11 9 7 25.5 2.9
-10 9 7 4.3 2.7
-10 9 7 3 1.4
-9 -9 7 5.9 2.7
-9 9 7 2.3 2.5
-9 9 7 1.7 1.1
-8 -9 7 3 2.3
-8 9 7 2.4 1.1
-8 9 7 0.9 2
-7 -9 7 12.5 2.7
-7 9 7 21.4 3.2
-7 9 7 16.9 1.7
6 9 -7 0.1 0.8
-6 9 7 1 2
-6 9 7 -0.2 0.8
-6 9 7 2.3 1.7
-5 -9 7 72.29 6.7
-5 -9 7 81.09 5.1
5 -9 -7 73.99 7.3
5 9 -7 82.89 4
-5 9 7 75.49 4.9
-5 9 7 78.59 5.8
-5 9 7 81.29 3.8
4 -9 -7 130.99 8
-4 -9 7 129.19 8.3
-4 -9 7 130.09 6.9
4 9 -7 130.39 6
-4 9 7 131.59 7.7
-4 9 7 127.69 6.7
-3 -9 7 314.37 14.2
3 -9 -7 327.47 14.9
3 9 -7 315.47 13.5
-3 9 7 314.07 13.9
-3 9 7 322.87 15.1
2 -9 -7 215.48 9.8
-2 -9 7 226.68 12.8
-2 -9 7 211.88 10
2 9 -7 220.48 9.5
-2 9 7 210.78 11
-1 -9 7 92.19 7.3
1 -9 -7 105.99 6.1
-1 -9 7 105.49 5.5
-1 9 7 108.59 8
1 9 -7 106.09 5.1
-1 9 7 107.39 6.6
0 -9 -7 124.59 6.8
0 -9 7 129.19 6.2
0 -9 7 118.89 7.8
0 9 -7 109.29 6.5
0 9 7 115.09 7.4
0 9 7 118.69 7.1
-1 -9 -7 102.89 5.9
1 -9 7 102.79 5.2
1 -9 7 93.79 7.1
1 9 7 92.19 6.8
1 9 7 109.09 6.5
-1 9 -7 97.59 5
2 -9 7 182.08 8.2
2 -9 7 149.88 9.7
2 9 7 186.78 9.4
-2 9 -7 180.58 8.1
3 -9 7 116.59 8.2
-3 -9 -7 120.79 6.8
-3 9 -7 121.89 5.7
3 9 7 123.09 7.1
-3 9 -7 118.79 6.5
-3 9 -7 115.49 5.8
-4 -9 -7 74.59 5
4 -9 7 65.79 4.1
4 -9 7 64.09 7.8
-4 9 -7 69.49 3.8
-4 9 -7 67.29 3.9
4 9 7 68.89 5
-5 -9 -7 94.09 6.2
5 -9 7 100.09 5.3
-5 9 -7 97.99 4.9
5 9 7 91.39 6.1
-5 9 -7 99.29 5
-6 -9 -7 31.1 3.7
-6 9 -7 26.6 2.4
6 9 7 32.9 3.7
-6 9 -7 32.1 2.6
-7 -9 -7 120.99 7.6
-7 9 -7 129.49 6.3
7 9 7 126.69 7.5
-8 -9 -7 22.3 3.7
-8 9 -7 27.4 2.8
-8 9 -7 29.2 2.6
-9 -9 -7 6.2 3.1
-9 9 -7 7.5 3.2
-9 9 -7 3.5 1.4
-10 -9 -7 1.3 3
-10 9 -7 -0.3 2.3
-10 9 -7 0.6 1.3
-11 -9 -7 -1.6 3.3
-11 9 -7 1.9 1.4
-11 9 -7 -0.1 2.7
-12 -9 -7 5.6 4.3
-12 9 -7 8 3.7
-13 9 -7 1.5 3.6
-13 10 7 -0.6 4.8
-13 10 7 1.6 2.9
13 10 -7 -5.5 5.5
-12 -10 7 3.9 4.7
12 10 -7 1.2 4.7
-12 10 7 2.4 2.6
-12 10 7 -2.3 4.1
-11 -10 7 0.9 1.6
-11 10 7 -2.1 4.1
-11 10 7 -0.1 1.7
-10 10 7 2.7 3
-10 10 7 -0.6 1.3
-9 -10 7 5.5 3
-9 10 7 7.8 1.5
-9 10 7 10 3
-8 -10 7 0.8 2.5
-8 10 7 1.8 2.1
-8 10 7 -0.4 0.9
-7 -10 7 -3 2.3
-7 10 7 1.4 1
-7 10 7 -0.7 1.9
-6 -10 7 4.4 2.3
-6 10 7 2.1 1.9
6 10 -7 2.3 1
-5 -10 7 46.1 4
-5 10 7 43 4.7
-5 10 7 45.2 3.8
5 10 -7 42.7 2.7
-4 -10 7 6.8 2.1
-4 10 7 5.6 2
4 10 -7 5.4 1.5
-4 10 7 7.1 2.5
-3 -10 7 34.4 5.4
-3 -10 7 35.1 3.3
3 -10 -7 27.3 6.4
-3 10 7 33.3 4
-2 -10 7 -4.5 3.5
2 -10 -7 0.8 1.7
-2 -10 7 1.7 1.6
2 10 -7 0.5 1.7
-2 10 7 0.2 2
1 -10 -7 8.3 2.2
-1 -10 7 0.7 3.5
-1 -10 7 0.3 4.7
-1 -10 7 12.1 2
1 10 -7 9.5 1.6
-1 10 7 7.5 2.4
0 -10 -7 1.6 1.7
0 -10 7 6 1.8
0 -10 7 4 4.2
0 10 -7 3.3 1.3
0 10 7 0.8 1.9
1 -10 7 -0.2 1.5
1 -10 7 2.4 3.8
-1 -10 -7 1.5 1.8
1 -10 7 5.8 4.3
1 10 7 0.5 1.7
-1 10 -7 2.4 1.2
2 -10 7 40.1 6.6
-2 -10 -7 44.8 4
2 -10 7 47.2 3.4
2 10 7 40.3 4.2
-2 10 -7 43.8 3
3 -10 7 7.8 2.1
-3 -10 -7 8.7 2.6
-3 10 -7 10.1 2
-3 10 -7 10.1 1.6
3 10 7 13.6 2.9
4 -10 7 1 1.8
-4 -10 -7 1.9 2
-4 10 -7 5.2 1.5
-4 10 -7 5.6 1.4
4 10 7 4.8 2.2
-5 -10 -7 21.1 3.3
5 10 7 14.5 2.9
-5 10 -7 20.4 2.2
-5 10 -7 17.6 2.1
-6 -10 -7 17.2 3.4
-6 10 -7 21.7 2.4
6 10 7 18.6 3.5
-6 10 -7 20.4 2.2
-7 -10 -7 4.5 2.7
-7 10 -7 7.1 1.6
-7 10 -7 2.3 1.5
-8 -10 -7 1.5 2.7
-9 -10 -7 3.9 3.2
-9 10 -7 3.4 1.6
-9 10 -7 6.7 2.4
-10 -10 -7 -0.7 3.3
-10 10 -7 -0.8 2.8
-10 10 -7 0 1.4
-11 -10 -7 12.7 4.9
-11 10 -7 15.4 3.7
-11 10 -7 12.7 2
-12 -10 -7 7.4 5
-12 10 -7 17.5 4.2
-12 11 7 18 5.5
12 11 -7 10.8 5.1
-11 -11 7 15.9 5.1
-11 11 7 15.9 2.4
-11 11 7 15.5 4.6
-9 -11 7 23.7 4.3
-9 11 7 19.6 3.7
-8 -11 7 1.9 3
-8 11 7 5.6 2.9
-7 -11 7 1.7 2.9
-7 11 7 2.7 2.4
-6 -11 7 0.1 2.3
-6 11 7 -1.2 2.2
6 11 -7 3.1 1.2
-5 -11 7 6.1 2.4
5 11 -7 5.3 1.3
-5 11 7 5.5 2.2
-4 -11 7 3.4 2.2
4 11 -7 5 1.3
-4 11 7 -1.7 2.4
-3 -11 7 15.5 2.8
3 11 -7 17.6 2
-3 11 7 18.2 5
-2 -11 7 33.3 3.5
2 -11 -7 27.8 3.5
2 11 -7 26.9 2.4
-2 11 7 26 4
1 -11 -7 44.4 4.3
-1 -11 7 50.89 4
1 11 -7 52.99 3.2
-1 11 7 42.8 4.8
0 -11 -7 127.09 7.3
0 -11 7 117.49 6.5
0 11 -7 113.69 5.9
0 11 7 120.49 7.8
1 -11 7 41.7 3.6
-1 -11 -7 42.7 4.1
-1 11 -7 38.4 2.9
1 11 7 41.7 4.6
2 -11 7 58.29 4.2
-2 -11 -7 58.29 4.9
2 11 7 56.79 5.1
-2 11 -7 61.89 3.7
-3 -11 -7 78.49 5.8
3 11 7 80.19 6.1
-3 11 -7 85.89 4.7
-4 -11 -7 6.9 2.7
4 11 7 4.3 2.8
-4 11 -7 2.9 1.5
-5 -11 -7 4.5 2.5
-5 11 -7 4.9 1.6
-5 11 -7 4.5 1.8
5 11 7 2.6 2.8
-6 -11 -7 -4.8 3.5
-6 11 -7 -0.1 1.2
-6 11 -7 3.6 1.8
-7 -11 -7 4.9 3.2
-7 11 -7 5.1 2
-7 11 -7 5.5 1.9
-8 -11 -7 8.6 3.4
-8 11 -7 12 2.4
-8 11 -7 10.5 2.5
-9 -11 -7 14 4.4
-9 11 -7 10.1 2.7
-9 11 -7 10.5 2.1
-10 -11 -7 8.7 4.5
-10 11 -7 22.3 2.6
-10 11 -7 25.3 3.8
-11 -11 -7 12.9 6.2
-11 11 -7 13.2 3.7
-11 11 -7 11.1 2
-11 12 7 0.2 5.1
-11 12 7 1.4 2
-10 12 7 1.8 4.3
-9 12 7 43.2 6.5
-8 -12 7 74.89 7.1
-8 12 7 94.99 6.8
-7 -12 7 133.79 8.6
-6 -12 7 71.09 8.2
6 12 -7 67.39 3.9
-5 -12 7 49.4 5.1
5 12 -7 58.49 3.4
-4 -12 7 69.89 5.6
4 -12 -7 73.79 7.7
4 12 -7 73.99 4.1
3 -12 -7 34.2 4.2
-3 -12 7 32.9 4.1
3 12 -7 36.9 2.8
2 -12 -7 44.6 4.5
-2 -12 7 43 4.3
2 12 -7 39.2 3
-2 12 7 37.8 5
-1 -12 7 57.99 5.1
1 -12 -7 74.29 5.6
1 12 -7 73.49 4.2
-1 12 7 73.29 6.2
0 -12 7 29.3 3.7
0 -12 -7 25.2 3.7
0 12 -7 28.7 2.7
0 12 7 25.3 4.2
-1 -12 -7 0.3 2.3
1 12 7 0.1 2.5
-1 12 -7 0.7 1.4
-2 -12 -7 10.7 3
2 12 7 6.6 2.8
-2 12 -7 8.2 1.8
-3 -12 -7 23.9 3.9
-3 12 -7 21.1 2.7
-4 -12 -7 44.1 5
-4 12 -7 47.6 3.8
-5 -12 -7 35.4 4.9
-5 12 -7 38.9 3.7
-6 -12 -7 42.8 5.2
-6 12 -7 35.9 3.8
-7 -12 -7 44.4 5.7
-7 12 -7 46.4 3.9
-7 12 -7 42.8 4.2
-8 12 -7 44.6 4.3
-8 12 -7 46.7 4.4
-9 -12 -7 7.3 4.2
-9 12 -7 14.2 3.3
-9 12 -7 1.9 2.1
-10 -12 -7 -0.6 5.5
-10 12 -7 0.2 3.2
-10 12 -7 0.3 1.9
-10 13 7 0.3 1.8
5 -13 -7 5.5 3.3
5 13 -7 7 1.6
4 -13 -7 44.2 5.2
4 13 -7 44.1 3.3
3 -13 -7 25.3 4
2 -13 -7 12.1 3.4
2 13 -7 11.3 2.6
1 -13 -7 0.7 2.4
1 13 -7 0 2.2
0 -13 -7 6.9 2.7
-1 -13 -7 9.3 3.2
-1 13 -7 8 2.8
-2 -13 -7 4.9 2.9
-2 13 -7 3.7 2.3
-3 -13 -7 30.1 4.7
-3 13 -7 18.7 2.9
-4 -13 -7 47.1 5.5
-4 13 -7 46.7 4.4
-5 -13 -7 7.4 3.3
-5 13 -7 10.6 2.8
-6 -13 -7 15.1 4
-6 13 -7 24.6 3.4
-7 -13 -7 2.1 4.1
-7 13 -7 0 2.9
-8 -13 -7 4.1 4.6
-8 13 -7 5.4 3
-9 -13 -7 0.1 4.8
-9 13 -7 1.8 2.4
9 -14 -7 -2.6 4.5
-9 14 7 -1.3 2.4
8 -14 -7 3.2 4.5
7 -14 -7 -0.8 3.9
6 -14 -7 -0.8 4.6
5 -14 -7 8.1 3.7
5 14 -7 8.8 2.1
4 -14 -7 11.1 4
4 14 -7 5 2.1
3 -14 -7 12.2 3.6
3 14 -7 12.1 2.5
2 -14 -7 17.8 4.2
2 14 -7 20.4 3.1
1 -14 -7 2 3.1
1 14 -7 3.1 2.3
0 -14 -7 0.9 3.4
0 14 -7 0.1 2.4
-1 -14 -7 1.3 3.4
-1 14 -7 3.3 2.9
-2 -14 -7 19.4 4.4
-2 14 -7 22.1 3.7
-3 -14 -7 7.4 3.6
-3 14 -7 7.6 3.1
-4 -14 -7 17.6 8.1
-4 14 -7 15.5 3.4
-5 -14 -7 32.2 6.5
-5 14 -7 43.1 4.7
-6 -14 -7 12.9 4.3
-7 -14 -7 -1.7 4.4
-7 14 -7 3 3.4
-8 -14 -7 -0.6 5
-8 14 -7 -0.3 3
7 -15 -7 -1.3 4.9
6 -15 -7 1.4 4.7
5 -15 -7 -6.6 4.4
4 -15 -7 0 3.9
4 15 -7 -3.9 3.7
3 -15 -7 5.5 4.5
3 15 -7 9.2 3
2 -15 -7 20.5 5.5
2 15 -7 12.6 3.3
1 -15 -7 45.8 6.5
1 15 -7 58.59 5.5
0 -15 -7 42.8 8.9
0 15 -7 37.9 4.5
-1 -15 -7 21 5.3
-1 15 -7 32.9 4.2
-2 -15 -7 3.7 3.9
-2 15 -7 23.4 4
-3 -15 -7 8.2 4.2
-3 15 -7 19.8 4.4
-4 -15 -7 15 5.5
-4 15 -7 15.3 5.1
-5 -15 -7 6.8 5.2
-5 15 -7 6.2 4
-6 -15 -7 2.4 5.3
-6 15 -7 0.2 3.9
4 -16 -7 15.7 5.6
3 -16 -7 2.1 4.6
3 16 -7 6.4 3.1
2 -16 -7 -0.5 4.7
2 16 -7 5.5 3.5
1 -16 -7 -0.4 4.7
1 16 -7 3 3.8
0 -16 -7 -1.2 4.7
0 16 -7 -0.3 4.1
-1 -16 -7 10.3 5.2
-1 16 -7 8.6 4.4
-2 -16 -7 11.8 5.8
-2 16 -7 10 4.7
-3 -16 -7 0.9 5.6
-3 16 -7 7.8 4.2
-16 0 8 8.7 5.1
-15 0 8 21.4 6.4
-15 0 8 26.6 4
-14 0 8 27.8 4.7
-14 0 8 39 4.5
-13 0 8 2.2 2.1
-13 0 8 -0.5 2.8
-12 0 8 120.09 7.7
12 0 -8 111.09 6.7
-12 0 8 114.39 6.1
11 0 -8 108.69 6.4
-11 0 8 115.89 7.3
10 0 -8 159.38 8.2
-10 0 8 160.08 8.8
10 0 -8 165.58 10.3
9 0 -8 171.88 9.9
9 0 -8 183.68 8.8
-8 0 8 260.67 11.7
-8 0 8 212.88 10.8
8 0 -8 241.38 11.2
8 0 -8 234.88 11.6
-8 0 8 264.27 11.3
7 0 -8 502.55 21.2
7 0 -8 503.25 22.9
-7 0 8 480.65 20.8
-7 0 8 503.15 21.2
6 0 -8 425.86 18.5
-6 0 8 431.36 18.6
-6 0 8 455.35 20.3
6 0 -8 421.16 18.5
-5 0 8 23.9 2.4
5 0 -8 18.3 2.1
5 0 -8 20.5 2.4
4 0 -8 3.4 0.7
-4 0 8 1.6 1
4 0 -8 0.3 1
4 0 -8 1.3 1.3
3 0 -8 699.53 27.5
3 0 -8 630.74 27.9
3 0 -8 665.53 27.7
3 0 -8 755.32 28.5
-3 0 8 664.53 28.2
2 0 -8 3964.4 145.49
-2 0 8 3312.97 145.29
1 0 -8 723.33 28.6
-1 0 8 707.33 29
1 0 -8 716.63 29.1
1 0 -8 690.23 28.5
0 0 -8 1558.34 65.29
0 0 -8 1698.53 65.99
0 0 8 1664.63 65.69
-1 0 -8 2419.66 94.79
1 0 8 2348.86 95.69
2 0 8 2267.57 86.49
-2 0 -8 2054.09 85.99
-3 0 -8 283.57 11.3
-3 0 -8 267.97 11.1
-3 0 -8 285.87 11.4
3 0 8 233.78 11.5
-4 0 -8 48.2 2.4
-4 0 -8 45.2 2.5
-4 0 -8 46.7 2.4
-4 0 -8 43.5 2.6
-5 0 -8 713.63 29.5
-5 0 -8 748.23 29.6
-6 0 -8 1418.56 56.69
-6 0 -8 1407.46 56.59
-7 0 -8 1209.68 49.2
-7 0 -8 1244.98 49.4
-8 0 -8 167.08 7.5
-8 0 -8 184.58 7.8
-9 0 -8 521.15 21.2
-10 0 -8 193.78 8.7
-11 0 -8 -0.4 1
-12 0 -8 53.59 3.5
-13 0 -8 126.29 6.3
-14 0 -8 92.39 5.1
-15 0 -8 13.5 2.1
-16 -1 8 -2.7 4.4
-16 -1 8 0.2 3.7
-16 1 8 -4.3 3.8
-16 1 8 2.4 5.1
-15 -1 8 5.1 3.4
-15 -1 8 1.2 4.8
-15 1 8 5.2 3.5
-14 -1 8 1.1 3.4
-14 -1 8 7.3 2.7
-14 1 8 4.3 3.5
-14 1 8 2.8 2.7
-13 -1 8 17.8 2.7
-13 -1 8 23.3 4.5
-13 1 8 27 3.3
-13 1 8 13.4 3.5
13 1 -8 14.8 3.3
12 -1 -8 83.19 5.6
-12 -1 8 80.89 6.4
12 1 -8 91.79 5.9
-12 1 8 99.39 6.8
-11 -1 8 321.37 15.1
11 1 -8 300.87 14.3
-11 1 8 293.77 14.9
-11 1 8 320.67 13.6
10 -1 -8 57.99 4.1
10 -1 -8 59.69 8
-10 -1 8 53.89 4.6
10 1 -8 54.99 7.5
10 1 -8 66.59 4.5
-10 1 8 58.49 4.8
-9 -1 8 1.1 2.3
9 -1 -8 -4.6 3.1
9 -1 -8 0 1.4
-9 1 8 -0.3 1.2
9 1 -8 1.7 1.6
9 1 -8 -0.4 3.6
-8 -1 8 9 1.4
8 -1 -8 8 1.8
8 -1 -8 4.6 2
-8 -1 8 7.2 2.2
-8 1 8 9.2 2.5
8 1 -8 8.2 2.3
8 1 -8 10.3 2.1
-8 1 8 7.4 2.1
-7 -1 8 29.9 2.5
7 -1 -8 31.1 2.7
-7 -1 8 28.2 3.1
7 1 -8 28.9 2.7
-7 1 8 30.1 2.9
-7 1 8 27.5 3
-7 1 8 31.1 2.5
6 -1 -8 255.57 11.5
-6 -1 8 261.07 11.6
6 -1 -8 262.77 11.4
6 1 -8 241.88 11.5
-6 1 8 235.38 11.4
-6 1 8 260.87 11.6
6 1 -8 262.37 11.5
-6 1 8 248.38 11.3
-5 -1 8 161.38 7.7
5 -1 -8 151.58 7.4
5 -1 -8 156.98 7.5
-5 1 8 156.18 7.5
5 1 -8 170.68 7.7
5 1 -8 154.58 7.4
-5 1 8 158.48 7.6
5 1 -8 155.98 6.7
4 -1 -8 952.6 39
4 -1 -8 962.8 38.8
-4 -1 8 943.01 39.2
4 1 -8 946.51 38.8
-4 1 8 943.01 39.1
4 1 -8 984.2 38.3
3 -1 -8 1901.61 75.49
-3 -1 8 1886.61 76.09
-3 1 8 1907.01 76.09
3 1 -8 1857.01 75.59
3 1 -8 1886.81 75.49
2 -1 -8 669.83 26.1
2 -1 -8 666.53 26.7
-2 -1 8 631.74 26.6
2 1 -8 644.94 26.7
2 1 -8 606.74 26.1
-2 1 8 663.63 26.7
2 1 -8 644.74 26.1
-1 -1 8 174.08 7.8
1 -1 -8 183.38 7.4
1 -1 -8 182.38 8
1 1 -8 173.18 7.4
1 1 -8 157.38 7.1
-1 1 8 182.58 7.9
1 1 -8 182.08 8
0 -1 -8 389.26 15.8
0 -1 8 389.46 16
0 -1 -8 390.66 16.2
0 -1 -8 373.26 15.8
0 1 -8 389.76 15.8
0 1 8 392.46 16
0 1 -8 383.76 16.2
1 -1 8 22.3 1.4
-1 -1 -8 19.3 1.3
-1 -1 -8 17.5 1.4
-1 -1 -8 18.2 1.8
1 1 8 19.7 1.3
-1 1 -8 18.4 1.4
-1 1 -8 22 1.8
-2 -1 -8 502.35 20.9
-2 -1 -8 510.45 21.3
-2 -1 -8 508.45 20.9
-2 1 -8 540.35 21.3
2 1 8 521.75 21
-2 1 -8 518.35 21
-2 1 -8 511.75 20.9
-3 -1 -8 467.35 18.6
-3 -1 -8 439.16 18.3
-3 -1 -8 434.46 18.1
-3 -1 -8 434.96 18.3
-3 1 -8 453.65 18.5
-3 1 -8 452.65 18.3
-3 1 -8 441.26 18.4
3 1 8 457.25 18.3
-4 -1 -8 349.47 14.7
-4 -1 -8 351.26 14.7
-4 -1 -8 357.76 15
-4 -1 -8 362.36 15.1
-4 1 -8 367.86 14.8
-4 1 -8 367.96 14.9
-4 1 -8 370.26 14.8
4 1 8 346.97 14.9
-5 -1 -8 85.19 4.2
-5 -1 -8 80.79 3.8
-5 -1 -8 81.89 3.8
-5 1 -8 85.69 4
-5 1 -8 79.99 3.8
-5 1 -8 79.19 3.9
-6 -1 -8 2.3 0.7
-6 -1 -8 2.8 1.2
-6 -1 -8 3.7 0.9
-6 1 -8 3 0.9
-6 1 -8 1.9 0.8
-7 -1 -8 101.09 4.7
-7 -1 -8 110.19 4.9
-7 1 -8 105.09 4.8
-7 1 -8 107.59 5
-8 -1 -8 41.1 2.5
-8 -1 -8 40.3 2.2
-8 1 -8 43.1 2.6
-8 1 -8 41.4 2.3
-9 -1 -8 25.8 2
-9 1 -8 28.1 1.8
9 1 8 26.3 3
-9 1 -8 23.9 2.1
-10 -1 -8 94.79 4.6
-10 1 -8 92.59 4.2
-10 1 -8 88.89 4.7
-11 -1 -8 64.19 3.7
-11 1 -8 68.39 3.9
-12 -1 -8 54.09 3.4
-12 1 -8 51.19 3.5
-13 -1 -8 13.5 1.9
-13 1 -8 16.1 2.2
-14 -1 -8 2.7 1.5
-14 1 -8 4.7 1.8
-15 -1 -8 19.3 2.3
-15 1 -8 24.2 2.7
-16 -2 8 6.1 4.9
-16 -2 8 -4.7 3.4
-16 2 8 -1.6 4.4
-16 2 8 -0.2 5
-15 -2 8 -3 4.4
-15 -2 8 3.8 3.4
-15 2 8 2 3.5
-15 2 8 7.6 5.2
-14 -2 8 9.7 2.9
-14 -2 8 12.7 4.1
-14 2 8 7.1 4
-14 2 8 10.6 3.3
-13 -2 8 49.7 5.7
-13 -2 8 57.19 4.3
-13 2 8 58.39 4.6
-13 2 8 62.59 6.1
13 2 -8 48.4 5.9
-12 -2 8 9 2.8
-12 -2 8 10.4 2.1
12 2 -8 13.1 3
-12 2 8 10.4 3.1
-12 2 8 10.4 2
11 -2 -8 112.09 6.3
-11 -2 8 114.29 7.2
11 2 -8 105.69 6.6
-11 2 8 106.69 7.2
-11 2 8 115.69 5.8
-10 -2 8 9.7 2.7
10 -2 -8 7.5 1.9
10 2 -8 5.2 2.2
-10 2 8 11.6 1.7
-10 2 8 9.9 2.6
10 2 -8 10.6 5.1
9 -2 -8 24.7 2.6
9 -2 -8 23 4
-9 2 8 16.7 3.1
9 2 -8 24.3 3.9
-9 2 8 22.2 2.4
9 2 -8 23.8 3
-8 -2 8 0.8 1.1
8 -2 -8 0.6 1.3
8 -2 -8 1.9 2
-8 2 8 2 1.3
8 2 -8 -1.6 1.3
8 2 -8 0.4 2.2
-8 2 8 2.1 1.8
7 -2 -8 2.7 1.6
-7 -2 8 2.7 1.6
7 -2 -8 1.9 1.4
-7 2 8 3 1.6
7 2 -8 9.8 2
7 2 -8 1 1.5
-7 2 8 5.4 1.5
-7 2 8 3.4 1.8
-6 -2 8 254.97 11.8
6 -2 -8 236.68 11.6
6 -2 -8 267.57 11.5
6 2 -8 256.67 11.7
6 2 -8 257.37 10.6
6 2 -8 262.47 11.7
-6 2 8 258.97 11.6
-6 2 8 262.07 11.7
-6 2 8 261.67 11.8
5 -2 -8 83.49 4.8
-5 -2 8 86.09 5
5 -2 -8 99.09 4.9
5 2 -8 89.19 4.9
-5 2 8 86.29 5
-5 2 8 92.39 5
-5 2 8 93.39 5
5 2 -8 92.89 4
5 2 -8 90.09 5
4 -2 -8 20.1 2.1
4 -2 -8 20 2.2
-4 -2 8 20.7 2.3
-4 2 8 19.7 2.3
4 2 -8 20.6 2.2
4 2 -8 22.7 2.2
-4 2 8 20.4 2.2
4 2 -8 20.7 1.4
-4 2 8 21.7 2.1
3 -2 -8 151.08 7.3
3 -2 -8 157.08 6.9
-3 -2 8 155.58 7.4
3 2 -8 153.38 7
3 2 -8 160.18 6.9
-3 2 8 159.28 7.4
3 2 -8 162.58 7.5
3 2 -8 156.18 6.7
-3 2 8 153.88 7.6
-2 -2 8 460.95 19.6
2 -2 -8 544.55 20.1
2 2 -8 451.45 19
2 2 -8 422.56 18.8
-2 2 8 462.15 19.5
1 -2 -8 12.9 1.5
1 -2 -8 13 1.1
-1 -2 8 10.3 1.3
1 2 -8 12.1 1.7
-1 2 8 10.3 1.3
1 2 -8 11.3 1.1
0 -2 -8 31.1 1.8
0 -2 -8 31.5 2.3
0 -2 8 32.8 2.1
0 2 -8 31.2 1.9
0 2 -8 34.6 2.4
0 2 8 34.4 2.2
-1 -2 -8 275.27 11.7
-1 -2 -8 282.57 11.6
-1 -2 -8 281.37 12
1 -2 8 287.77 11.7
-1 2 -8 271.77 11.6
1 2 8 279.47 11.5
-1 2 -8 268.77 11.9
1 2 8 290.07 11.7
-2 -2 -8 193.38 8.7
-2 -2 -8 196.28 8.8
-2 -2 -8 207.48 9.2
2 2 8 212.88 8.6
-2 2 -8 195.88 8.7
-2 2 -8 204.98 9
-2 2 -8 219.68 8.9
2 2 8 222.78 8.4
-3 -2 -8 31.2 1.9
-3 -2 -8 28.2 2
-3 2 -8 31.2 2
-3 2 -8 28.1 1.8
-3 2 -8 30.9 1.8
-4 -2 -8 300.87 12.7
-4 -2 -8 297.27 12.5
-4 -2 -8 310.87 13.2
4 -2 8 306.27 12.6
-4 -2 -8 308.27 13
-4 2 -8 307.77 12.8
-4 2 -8 313.07 12.8
-4 2 -8 313.07 12.8
-5 -2 -8 49 2.5
-5 -2 -8 51.39 2.6
-5 -2 -8 52.69 3.1
-5 2 -8 49.4 2.6
-5 2 -8 49.8 2.7
-5 2 -8 54.69 2.8
-6 -2 -8 148.79 6.8
-6 -2 -8 155.98 6.6
-6 2 -8 154.08 6.7
-6 2 -8 157.18 6.9
-7 -2 -8 8 1
-7 -2 -8 9.4 1.8
-7 2 -8 7.9 1.3
-7 2 -8 7.3 1.1
7 2 8 10.9 2.1
-8 -2 -8 0.8 0.8
-8 -2 -8 1.1 1.5
8 2 8 0.1 1.4
-8 2 -8 0.2 0.9
-8 2 -8 0.1 0.7
-9 -2 -8 40.4 2.5
-9 2 -8 39.2 3.3
9 2 8 44.7 3.6
-9 2 -8 40 2.3
-9 2 -8 43.1 2.8
-10 -2 -8 18.9 2.3
-10 2 -8 26.1 1.8
-10 2 -8 28.1 2.3
-11 -2 -8 0 0.9
-11 2 -8 1.7 1.2
-12 -2 -8 1.5 1.1
-12 2 -8 1.2 1.4
-13 -2 -8 0.1 1.1
-13 2 -8 2 1.7
-14 -2 -8 14.3 2
-14 2 -8 11.7 2.2
-15 2 -8 -0.4 2.1
-16 -3 8 5.3 3.2
-16 -3 8 2.6 5.3
-16 3 8 -1.5 4.8
-16 3 8 3.1 4.3
-15 -3 8 26.5 5.3
-15 -3 8 26.7 3.9
-15 3 8 22.1 4.4
-15 3 8 19 5.3
-14 -3 8 12 2.8
-14 -3 8 11.4 4.5
-14 3 8 13.4 3.5
-14 3 8 2.7 3.6
-13 -3 8 -0.9 1.8
-13 -3 8 -0.8 2.9
13 3 -8 -1.5 2.9
-13 3 8 0.1 3
-13 3 8 0 2.3
-12 -3 8 0.6 2.7
12 3 -8 0 2.3
-12 3 8 3.6 2.6
-12 3 8 2.9 1.8
11 -3 -8 -1.5 1.9
-11 -3 8 -0.5 2.2
11 3 -8 0.8 2
-11 3 8 2.3 1.4
-11 3 8 0.4 2.2
-10 -3 8 24.8 3.6
10 -3 -8 17.5 2.5
-10 3 8 19.7 3.3
10 3 -8 14.3 2.6
-10 3 8 18.7 2.2
9 -3 -8 4.3 3.2
9 -3 -8 2 1.5
9 3 -8 5.3 2.5
-9 3 8 3.4 1.3
-9 3 8 5.3 2.1
9 3 -8 -3.9 3
-9 3 8 3.4 1.6
8 -3 -8 6.3 2.5
-8 -3 8 5.3 1.4
8 -3 -8 5.4 1.5
8 3 -8 2.9 2.5
-8 3 8 6.4 1.7
8 3 -8 5.3 2
-8 3 8 9.5 2.3
7 -3 -8 5.3 2
-7 -3 8 7 2
7 -3 -8 8.8 1.7
7 3 -8 8.7 2
7 3 -8 8.8 2.2
-7 3 8 8.8 2
-7 3 8 4.6 1.6
-7 3 8 7.1 1.9
6 -3 -8 57.89 4
-6 -3 8 56.29 4.1
6 -3 -8 58.69 3.6
6 3 -8 57.39 3.9
-6 3 8 55.99 3.8
-6 3 8 59.79 3.9
-6 3 8 58.89 4
6 3 -8 55.59 4.1
6 3 -8 59.59 2.7
5 -3 -8 30 2.8
-5 -3 8 33.9 3.1
5 -3 -8 31.8 2.5
-5 3 8 32.4 2.8
5 3 -8 30.4 3
5 3 -8 34.4 1.8
5 3 -8 37.6 3
-5 3 8 34.2 3
-5 3 8 36.4 2.8
4 -3 -8 230.68 10.1
-4 -3 8 221.68 10.4
4 -3 -8 226.98 10.1
4 3 -8 230.58 9.5
4 3 -8 209.28 10.2
4 3 -8 241.48 10.5
-4 3 8 228.28 10.5
-4 3 8 221.78 10.3
3 -3 -8 294.77 11.9
3 -3 -8 263.27 12.3
-3 -3 8 272.87 12.4
-3 3 8 297.77 12.7
3 3 -8 288.97 12.4
3 3 -8 288.07 11.6
3 3 -8 254.17 11.9
-3 3 8 284.87 12.4
-3 3 8 280.77 12.1
2 -3 -8 1353.26 53.99
-2 -3 8 1281.57 54.09
2 3 -8 1383.96 54.09
-2 3 8 1362.56 54.49
-2 3 8 1304.37 53.69
2 3 -8 1329.67 53.39
-2 3 8 1325.67 53.99
-1 -3 8 749.23 30.9
1 -3 -8 767.72 30.9
-1 3 8 731.13 31.3
1 3 -8 754.92 31
1 3 -8 737.63 30.4
-1 3 8 768.52 30.5
-1 3 8 758.42 30.9
0 -3 8 1201.58 47.6
0 -3 -8 1204.88 47.7
0 3 8 1171.38 47.1
0 3 8 1142.99 47.6
0 3 -8 1192.68 47.7
0 3 8 1149.69 48.2
-1 -3 -8 19.2 1.6
-1 -3 -8 22.6 1.9
1 -3 8 20.2 1.8
1 3 8 18.9 1.7
-1 3 -8 21.7 1.9
-1 3 -8 19.5 1.5
-2 -3 -8 209.48 9.2
-2 -3 -8 203.98 9
2 3 8 207.38 8.8
-2 3 -8 210.08 8.8
-2 3 -8 209.28 8.8
-2 3 -8 200.58 9
-3 -3 -8 110.19 5.3
3 3 8 115.29 4.9
-3 3 -8 112.79 5
-3 3 -8 107.59 5
3 3 8 109.99 4.9
-3 3 -8 106.19 5.1
-4 -3 -8 3.7 1.1
-4 3 -8 2.9 0.8
-4 3 -8 2 0.8
4 3 8 2.4 0.5
-4 3 -8 4.7 0.9
4 3 8 1.6 1.4
-5 -3 -8 80.49 3.7
-5 -3 -8 78.49 4.4
-5 3 -8 85.89 4
5 3 8 91.29 5
-5 3 -8 79.99 3.8
-5 3 -8 86.59 4.1
-6 -3 -8 103.39 4.8
-6 -3 -8 108.99 5.7
-6 3 -8 117.89 5.2
-6 3 -8 113.49 5.1
-7 -3 -8 26.2 2.7
-7 -3 -8 31.8 1.8
-7 3 -8 33.9 2.2
7 3 8 25 2.8
-7 3 -8 29.4 2
-8 -3 -8 30.8 3
-8 -3 -8 31.6 1.9
8 3 8 29 2.9
-8 3 -8 32.5 2.1
-8 3 -8 30 2.3
8 3 8 27.2 2.6
-9 -3 -8 62.29 3.2
-9 3 -8 65.69 3.7
9 3 8 53.59 4.1
-9 3 -8 66.29 3.3
-10 -3 -8 0.5 1
-10 3 -8 -1.1 1.1
-10 3 -8 -0.2 0.8
-11 -3 -8 0.4 0.9
-11 3 -8 -1.2 1.2
-12 -3 -8 10.4 1.5
-12 3 -8 8.2 2.1
-13 3 -8 67.19 4.6
-14 3 -8 12.6 2.7
-15 3 -8 13.8 2.9
-16 -4 8 2 5.8
-16 -4 8 -1.2 2.8
-16 4 8 1.3 4.1
-16 4 8 7.8 5.6
-15 -4 8 5.2 3.2
-15 -4 8 -0.5 4.3
-15 4 8 4.8 5
-15 4 8 -1.2 3.8
-14 -4 8 12.9 6.3
-14 -4 8 5.8 2.4
-14 4 8 5.2 3.2
-14 4 8 5.6 5.8
-13 -4 8 1 2.1
-13 -4 8 3.7 3.2
-13 4 8 -1.3 3.2
13 4 -8 7.1 3.2
-13 4 8 2.4 2.4
-12 -4 8 -1 3.2
-12 4 8 0.3 2.9
12 4 -8 0.3 2.4
-12 4 8 1.2 1.8
-11 -4 8 -1 2
-11 4 8 4.3 2.4
11 4 -8 3.6 2.4
-11 4 8 -0.6 1.2
10 -4 -8 94.29 5.3
-10 4 8 89.99 6.3
-10 4 8 96.49 5
10 4 -8 98.89 6.2
9 -4 -8 84.19 7.9
9 -4 -8 91.29 5
-9 4 8 91.59 5.3
-9 4 8 82.99 5.8
-9 4 8 95.29 5
9 4 -8 85.79 5.7
9 4 -8 84.79 8.7
8 -4 -8 135.59 6.6
8 4 -8 127.29 7.2
-8 4 8 133.89 6.9
-8 4 8 126.19 6.1
-8 4 8 130.49 7.3
7 -4 -8 199.68 9
7 -4 -8 182.98 9.6
-7 -4 8 199.88 9.7
-7 4 8 192.18 9.4
7 4 -8 185.28 8
-7 4 8 194.98 9.5
-7 4 8 198.68 8.5
7 4 -8 192.68 9.8
-7 4 8 190.78 9.2
6 -4 -8 81.69 6.3
-6 -4 8 79.19 5.1
6 -4 -8 78.59 4.4
-6 4 8 80.49 4.8
6 4 -8 80.79 3.6
6 4 -8 75.39 5.7
-6 4 8 76.09 4.7
-6 4 8 79.49 5
5 -4 -8 111.19 5.9
-5 -4 8 109.79 6.3
5 -4 -8 116.79 5.7
-5 4 8 115.09 5.9
-5 4 8 118.39 6.2
-5 4 8 111.69 6.1
5 4 -8 115.59 5
5 4 -8 106.69 6
4 -4 -8 59.69 3.6
4 -4 -8 52.09 3.4
-4 -4 8 57.09 4
-4 4 8 58.79 3.5
4 4 -8 56.39 3.5
-4 4 8 58.09 3.9
4 4 -8 58.29 2.8
-4 4 8 55.39 3.8
-3 -4 8 34.9 3
3 -4 -8 32.9 2.5
3 -4 -8 31.2 2.3
-3 4 8 29.7 2.7
-3 4 8 36 3
-3 4 8 32.8 2.3
3 4 -8 32.6 1.9
2 -4 -8 124.59 6.1
-2 -4 8 121.59 6.3
-2 4 8 121.59 6.2
2 4 -8 125.89 5.6
-2 4 8 124.59 5.7
2 4 -8 130.09 6.2
1 -4 -8 5.6 1.3
-1 -4 8 2.1 1
1 4 -8 3.7 1.3
-1 4 8 4 0.9
-1 4 8 4.6 1.6
-1 4 8 3.3 1.1
1 4 -8 5.2 0.9
0 -4 8 5.4 1.2
0 -4 -8 5.6 1.3
0 4 8 4.9 1.6
0 4 8 4.8 1.1
0 4 -8 4.4 1.3
0 4 8 6.7 0.8
0 4 -8 5.3 1
-1 -4 -8 209.08 9.5
-1 -4 -8 218.58 9.4
1 -4 8 214.08 9.5
-1 4 -8 209.88 9.4
1 4 8 205.28 9.4
-1 4 -8 219.48 9.1
1 4 8 214.28 10.1
-2 -4 -8 1174.48 49
-2 -4 -8 1217.08 49.2
-2 4 -8 1235.98 48.7
2 4 8 1226.98 48.9
-2 4 -8 1231.68 48.7
-2 4 -8 1176.08 48.9
-3 -4 -8 193.38 8.5
-3 4 -8 190.58 8
-3 4 -8 180.18 8
-3 4 -8 182.08 8
3 4 8 176.48 8.9
-4 4 -8 239.08 9.9
-4 4 -8 229.68 9.8
4 4 8 221.78 9.9
4 4 8 222.78 9.9
4 4 8 247.68 11
-4 4 -8 233.78 9.9
-5 -4 -8 244.88 11
5 4 8 229.38 10.4
-5 4 -8 235.28 10.4
5 4 8 265.67 10.9
-5 4 -8 236.88 10.3
5 4 8 248.08 11.3
-6 -4 -8 261.97 12
-6 -4 -8 269.47 10.9
6 4 8 266.17 12.2
-6 4 -8 274.97 11.4
-6 4 -8 269.37 11.3
6 4 8 253.27 11.3
6 4 8 267.37 11.3
-7 -4 -8 11.6 2.1
-7 -4 -8 8.9 1
7 4 8 10.9 2
-7 4 -8 13.4 1.5
7 4 8 7.3 1.6
-8 -4 -8 60.79 4.2
-8 -4 -8 55.59 2.8
-8 4 -8 57.79 3.1
8 4 8 53.09 4.3
8 4 8 50.59 3.9
-8 4 -8 56.99 3.3
-9 -4 -8 1.1 0.8
-9 -4 -8 1.6 2
-9 4 -8 -0.1 1
-9 4 -8 1.3 0.9
-10 -4 -8 11.9 2.7
-10 4 -8 14 1.5
-10 4 -8 11.4 1.7
-11 4 -8 64.09 3.5
-11 4 -8 64.89 4.1
-12 4 -8 26.8 3
-13 4 -8 -2.7 1.9
-14 4 -8 3.7 2.6
-15 4 -8 2.6 3
-15 -5 8 -2.5 6.2
-15 -5 8 0.6 2.6
-15 5 8 -0.3 4.7
-15 5 8 -2.7 5.6
-14 -5 8 0.9 2.1
-14 -5 8 2.9 3.9
-14 5 8 -2.8 3.3
-14 5 8 -5.7 3.5
-13 -5 8 0.6 3
-13 -5 8 3.9 2
13 5 -8 3.2 3.2
-13 5 8 4.7 3.4
-13 5 8 6 2.7
-12 -5 8 -2.3 2.7
-12 5 8 -2.3 2.6
12 5 -8 -0.5 2.6
-11 -5 8 12.1 2.9
-11 5 8 24.2 3.8
11 5 -8 21.6 3.6
-11 5 8 23.5 2.5
10 -5 -8 8.2 2.1
-10 5 8 9.5 2.8
-10 5 8 11.6 1.8
10 5 -8 6.3 2.5
9 -5 -8 17.8 2.4
-9 5 8 18.8 2.1
-9 5 8 20.1 3.2
8 -5 -8 33.6 4.5
8 -5 -8 53.69 3.5
-8 5 8 49 3.8
-8 5 8 47.2 4
8 5 -8 50.89 6
7 -5 -8 14.7 2.9
7 -5 -8 16.6 2.2
-7 5 8 15.1 1.6
-7 5 8 16.5 2.5
-7 5 8 17.8 2.6
7 5 -8 11.4 1.1
7 5 -8 8 2.8
-6 -5 8 5.8 2.3
6 -5 -8 5.8 1.5
6 -5 -8 6.6 2.1
-6 5 8 7.9 1.9
-6 5 8 10.6 1.3
-6 5 8 5.8 1.7
-6 5 8 4.5 2
6 5 -8 8.1 2.2
6 5 -8 4.5 0.8
5 -5 -8 0.5 1.1
-5 -5 8 0.9 1.7
5 -5 -8 2.5 1.5
5 5 -8 1.7 1.6
-5 5 8 2.1 1.5
-5 5 8 2.9 1.5
-5 5 8 1.9 1.3
-5 5 8 1.2 0.7
-4 -5 8 213.48 10.3
4 -5 -8 208.08 9.7
4 -5 -8 210.38 9.7
-4 -5 8 230.18 9.6
4 5 -8 213.68 9.1
-4 5 8 203.48 10
-4 5 8 213.78 9.7
-4 5 8 226.58 10.4
3 -5 -8 2 1.2
-3 -5 8 0.1 1.4
-3 -5 8 1.2 0.8
3 -5 -8 0.2 1
3 -5 -8 1.3 1
-3 5 8 1.5 1
-3 5 8 0.5 1.2
3 5 -8 0.5 0.7
-3 5 8 -0.2 1.4
2 -5 -8 41 2.2
-2 -5 8 41.4 2.3
2 -5 -8 46.4 3
2 -5 -8 41.9 2.2
-2 5 8 45.2 3.5
-2 5 8 39.3 2.5
-2 5 8 34.9 3.3
2 5 -8 40.1 2.3
-1 -5 8 186.58 8.6
-1 -5 8 176.28 7.5
1 -5 -8 179.58 8.3
-1 5 8 174.38 8.4
-1 5 8 189.48 7.8
1 5 -8 169.18 7.7
-1 5 8 182.18 8.9
0 -5 -8 58.39 3.3
0 -5 8 56.89 3.6
0 -5 -8 55.59 3.5
0 5 8 56.49 4
0 5 8 51.99 3.4
0 5 8 53.69 2.4
0 5 -8 52.29 2.8
0 5 -8 54.89 3.4
1 -5 8 16.4 2.2
-1 -5 -8 15.6 1.8
-1 -5 -8 18.2 2.2
-1 5 -8 14.1 1.8
1 5 8 18 2.6
1 5 8 13.6 1.9
-1 5 -8 14.9 1.4
-2 -5 -8 20 2
-2 5 -8 18 1.8
2 5 8 23.7 2.6
-2 5 -8 16.3 1.5
-2 5 -8 16.5 1.5
-3 -5 -8 44.1 3.1
-3 5 -8 45.5 2.6
3 5 8 48.4 3.1
3 5 8 46.4 3.6
-3 5 -8 48.2 2.7
-3 5 -8 45.7 2.7
-4 -5 -8 8.5 1.8
-4 5 -8 6.5 1.1
4 5 8 9.2 1.4
4 5 8 6.2 1.5
-4 5 -8 9.8 1.2
-4 5 -8 6.4 1.1
4 5 8 8 1.9
-5 -5 -8 4.7 1.4
-5 5 -8 4.3 0.8
5 5 8 4.8 1.7
-5 5 -8 4.9 1.1
-5 5 -8 5.2 1.1
5 5 8 3.6 1.3
-6 -5 -8 7.4 1.9
6 5 8 4.9 1.7
-6 5 -8 8.4 1.3
-6 5 -8 5.7 1.2
6 5 8 6.1 1.6
-7 -5 -8 6.1 1.9
-7 5 -8 13.2 1.6
7 5 8 9 1.9
7 5 8 9.6 2.7
-7 5 -8 6.9 2
-8 -5 -8 7.7 2.1
8 5 8 8.7 2.1
-8 5 -8 10.2 1.4
-8 5 -8 8.6 1.5
-9 -5 -8 2.4 2
-9 5 -8 1 1.2
-9 5 -8 2.8 1
-10 -5 -8 4 2.4
-10 5 -8 3.7 1.5
-10 5 -8 5.6 1.1
-11 5 -8 1.3 1
-11 5 -8 2.5 1.7
-12 5 -8 18.8 2.8
-13 5 -8 4.7 2.7
-14 5 -8 3.1 3.5
-15 5 -8 0.3 3.1
-15 -6 8 -4.1 5.3
-15 -6 8 3.6 2.4
-15 6 8 0.1 4
-15 6 8 12.4 5.5
-14 -6 8 9.1 2.4
-14 -6 8 15.1 4.8
-14 6 8 7.8 4.5
-14 6 8 7.6 3.4
14 6 -8 11.1 4.9
-13 -6 8 6.9 2.3
-13 -6 8 3.9 3.5
-13 6 8 1.3 2.8
-13 6 8 8.9 4
13 6 -8 3.2 3.6
-12 -6 8 0.3 2.7
-12 6 8 3.3 2.8
12 6 -8 -0.1 2.8
-12 6 8 1.2 2.1
11 6 -8 11.9 3.2
-11 6 8 14.6 3.5
-11 6 8 16.9 2.3
10 6 -8 8.9 2.6
-10 6 8 7.1 1.5
-10 6 8 5.4 2.4
9 -6 -8 32.1 3.3
-9 6 8 37.9 4
-9 6 8 38.2 2.7
-9 6 8 37.3 4
8 -6 -8 67.79 4.1
8 -6 -8 58.59 7.5
-8 6 8 58.99 3.5
-8 6 8 62.89 4.7
8 6 -8 54.39 7.1
-8 6 8 68.59 4.8
7 -6 -8 187.58 10.4
7 -6 -8 198.48 9.2
-7 6 8 208.28 9.9
-7 6 8 202.88 9.8
7 6 -8 179.48 8.7
7 6 -8 188.68 10.5
-7 6 8 201.58 8.6
-6 -6 8 8.6 1.9
6 -6 -8 15.5 2.1
6 -6 -8 4.9 2.4
-6 -6 8 5.3 3.4
6 6 -8 15 2.8
-6 6 8 8.6 2.5
-6 6 8 10 2
-6 6 8 13.5 1.4
6 6 -8 9.6 1.1
-5 -6 8 9.3 2.5
5 -6 -8 6.6 2.1
-5 -6 8 12.5 1.9
5 -6 -8 8.9 1.8
-5 6 8 10.1 1.9
-5 6 8 8.9 2.1
-5 6 8 12.8 1.3
5 6 -8 11 1.2
-5 6 8 13.5 2.6
-4 -6 8 15.5 2
4 -6 -8 9.9 1.9
4 -6 -8 16.6 2.2
-4 6 8 11.5 1.2
-4 6 8 11 2.3
-4 6 8 10.9 2.1
-4 6 8 15.7 2.1
4 6 -8 12.8 1.3
3 -6 -8 145.89 7
-3 -6 8 139.59 6.6
3 -6 -8 135.59 7
-3 -6 8 137.09 7.6
3 -6 -8 151.38 6.8
-3 6 8 142.49 6.8
-3 6 8 151.38 7.7
3 6 -8 141.79 6.4
-3 6 8 144.99 7.4
-3 6 8 147.49 6.1
2 -6 -8 37.5 2.3
2 -6 -8 37.1 2.9
2 -6 -8 36.7 2.2
-2 -6 8 40.1 2.4
-2 6 8 37.2 2.4
-2 6 8 35.2 1.8
-2 6 8 34 3.2
2 6 -8 37 2.2
-2 6 8 34 3.3
-1 -6 8 83.89 5.2
1 -6 -8 94.59 5
-1 -6 8 88.49 4.2
-1 6 8 87.49 4.2
-1 6 8 98.49 5.4
1 6 -8 91.99 4.4
-1 6 8 94.69 5.6
0 -6 8 176.58 7.3
0 -6 -8 176.18 8.3
0 -6 8 166.18 8.5
0 -6 -8 169.28 8.2
0 6 8 186.28 9
0 6 -8 177.58 7.7
0 6 8 167.38 8.3
1 -6 8 340.07 14.8
-1 -6 -8 344.17 14.6
1 -6 8 312.87 13.5
1 6 8 348.47 15.2
1 6 8 321.77 14.5
-1 6 -8 333.27 14
-1 6 -8 335.67 14.4
-2 -6 -8 316.77 13.8
2 -6 8 294.07 12.6
2 -6 8 314.27 13.9
-2 6 -8 312.57 13.2
2 6 8 329.57 14.4
-2 6 -8 312.67 13.4
-2 6 -8 323.57 13.1
2 6 8 299.77 13.7
3 -6 8 96.59 4.4
-3 -6 -8 105.29 5.5
3 6 8 94.09 5.9
-3 6 -8 103.69 4.9
3 6 8 106.39 6
-3 6 -8 106.49 4.9
-3 6 -8 100.29 4.9
4 -6 8 290.87 12.8
-4 -6 -8 300.07 13.6
-4 6 -8 316.27 13
4 6 8 303.47 14
-4 6 -8 308.47 12.7
-4 6 -8 314.97 13
4 6 8 304.27 13.5
-5 -6 -8 296.97 13.7
5 6 8 294.97 13.8
5 6 8 292.97 13.5
-5 6 -8 314.87 12.9
-5 6 -8 312.67 12.9
-6 -6 -8 185.68 9.2
-6 6 -8 184.38 8.3
6 6 8 178.68 9.1
6 6 8 193.58 9.2
-7 -6 -8 7 2
7 6 8 5.1 1.9
-7 6 -8 11.2 1.6
-7 6 -8 7.4 1.6
-8 -6 -8 14 2.6
-8 6 -8 13.7 1.8
-8 6 -8 15.8 1.7
8 6 8 13.9 2.5
-9 -6 -8 33.5 3.8
-9 6 -8 36.4 2.5
-9 6 -8 35.1 2.9
-10 -6 -8 26.5 3.9
-10 6 -8 32.9 2.3
-10 6 -8 27.8 2.9
-11 -6 -8 0.7 2.7
-11 6 -8 -1.2 1
-11 6 -8 2.3 2
-12 6 -8 0.2 2.4
-13 6 -8 0 2.8
-14 6 -8 1.1 3.5
-15 -7 8 4.4 6.9
-14 -7 8 1.7 7.5
-14 -7 8 11 2.3
-14 7 8 5.1 4.4
-14 7 8 12.3 7.5
-13 -7 8 9.4 2.2
-13 -7 8 2.9 3.4
13 7 -8 2.4 4
-13 7 8 10.1 3.3
-13 7 8 3.4 4.1
-12 -7 8 1.1 3.1
-12 7 8 2.6 3.1
12 7 -8 4.2 3.3
-12 7 8 6.7 2.4
-11 7 8 12.5 2.3
-11 7 8 2.6 2.6
11 7 -8 15.4 3.5
-10 7 8 8.8 2.7
-10 7 8 3.2 1.4
-9 7 8 18.3 3.2
-9 7 8 16.8 2
-8 7 8 2.3 2.1
-8 7 8 2.9 1.9
-7 -7 8 39.3 3.5
7 -7 -8 32 4.9
7 -7 -8 33.7 3.1
-7 7 8 34.9 4.2
-7 7 8 37.6 3.8
-7 7 8 37.2 2.4
-6 -7 8 289.07 13.1
6 -7 -8 291.77 12.9
6 -7 -8 295.67 13.9
-6 7 8 275.07 13.1
-6 7 8 286.07 12.1
6 7 -8 285.07 12
-6 7 8 288.57 13.6
5 -7 -8 91.09 5.1
-5 -7 8 91.89 5.1
-5 -7 8 73.49 9.1
5 -7 -8 84.89 5.9
-5 7 8 88.19 8.1
-5 7 8 91.09 5.8
-5 7 8 92.49 5.2
-5 7 8 95.89 4.3
5 7 -8 88.49 4.3
4 -7 -8 471.55 19.6
-4 -7 8 438.26 19.8
4 -7 -8 454.35 19.5
-4 7 8 474.65 18.6
-4 7 8 441.96 20.2
-4 7 8 458.05 19.4
4 7 -8 449.56 18.8
3 -7 -8 308.37 14.1
3 -7 -8 294.57 14.2
-3 -7 8 321.37 14.9
3 -7 -8 319.87 13.8
-3 -7 8 317.57 13.7
3 7 -8 335.87 13.4
-3 7 8 318.07 13.7
-3 7 8 322.47 14.8
-3 7 8 330.77 13
-2 -7 8 568.34 25.8
-2 -7 8 626.04 24.9
2 -7 -8 621.34 25.4
-2 7 8 558.04 25.6
-2 7 8 636.34 24.8
2 7 -8 604.64 24.7
-1 -7 8 184.48 9.8
-1 -7 8 197.18 8.6
-1 7 8 234.98 10.9
-1 7 8 194.98 8.5
1 7 -8 202.78 8.7
-1 7 8 178.78 9.5
0 -7 -8 158.68 7.9
0 -7 8 150.58 8.2
0 -7 8 167.58 7
0 7 8 171.18 8.5
0 7 -8 161.68 7.2
0 7 8 147.59 8
1 -7 8 103.39 6.6
1 -7 8 112.29 5
-1 -7 -8 113.99 6
-1 7 -8 112.49 5.7
1 7 8 117.69 6.5
-1 7 -8 110.19 5.3
-2 -7 -8 41.7 3.2
2 -7 8 38.3 3.8
2 -7 8 37.2 2.4
-2 7 -8 37.4 3
-2 7 -8 37 2.4
2 7 8 40 3.6
2 7 8 37.8 3.5
3 -7 8 18.7 1.6
-3 -7 -8 19.8 2.4
3 -7 8 18.6 2.7
-3 7 -8 18.7 1.9
3 7 8 16.7 2.4
-3 7 -8 20.4 1.9
-3 7 -8 20.6 1.8
-4 -7 -8 -1.2 1.3
4 -7 8 0.2 1
-4 7 -8 0.7 1
4 7 8 1.9 1.9
4 7 8 -1.7 1.6
-4 7 -8 0.2 1
-4 7 -8 0.4 0.9
-5 -7 -8 4.2 1.7
5 7 8 3.8 1.8
-5 7 -8 3.9 1.2
-5 7 -8 6.9 1.4
5 7 8 1.9 2.2
-6 -7 -8 20.9 3
-6 7 -8 17.6 1.9
-6 7 -8 25.6 2.1
6 7 8 15.3 3.9
6 7 8 20.9 3
-7 -7 -8 0.6 1.8
7 7 8 1.5 1.8
-7 7 -8 1.2 1.1
-7 7 -8 1.8 1.1
-8 -7 -8 9.6 2.5
-8 7 -8 14.5 1.8
8 7 8 14.4 2.8
-8 7 -8 17.1 2.1
-9 -7 -8 51.99 4.8
-9 7 -8 52.79 3.3
-9 7 -8 60.39 3.8
-10 -7 -8 36.5 5.3
-10 7 -8 36 2.6
-10 7 -8 36.1 4.4
-11 -7 -8 0.4 2.9
-11 7 -8 1.5 2.1
-11 7 -8 0.5 1.1
-12 7 -8 10.5 3
-13 7 -8 5.5 3.4
-14 7 -8 5.6 3.6
-14 -8 8 5.6 5.6
-14 -8 8 -2.1 1.6
14 8 -8 0.2 6
-14 8 8 1 4.9
-14 8 8 3.4 3.3
-13 -8 8 -0.1 1.9
-13 -8 8 -2.6 3.6
-13 8 8 1.6 2.8
13 8 -8 -1.1 4.1
-13 8 8 -2.6 4
-12 -8 8 -3.2 2.9
12 8 -8 2.6 3.5
-12 8 8 -1.9 3.4
-12 8 8 2.6 2.4
11 8 -8 2.7 3.1
-11 8 8 -0.5 1.6
-11 8 8 1.2 3
-10 8 8 1 2.8
-10 8 8 0.8 1.3
-9 8 8 8.9 2.7
-9 8 8 10.4 1.6
-8 8 8 42.6 2.7
-8 8 8 36.4 4.4
-8 8 8 37.6 4
-7 -8 8 5.1 2.2
-7 8 8 3.7 1.7
-7 8 8 2.5 1.8
-7 8 8 3.7 2.2
-6 -8 8 10.4 2.2
6 -8 -8 8.5 4.1
-6 8 8 10 2.6
6 8 -8 11.1 1.3
-6 8 8 10.9 1.3
-6 8 8 8.3 2.1
-5 -8 8 4 1.9
5 -8 -8 8.6 3.1
-5 8 8 5.7 1.8
5 8 -8 5.4 1.1
-5 8 8 4.7 1
-5 8 8 3.1 2.1
-4 -8 8 4.8 3.4
-4 -8 8 -0.6 1.4
4 8 -8 0.9 0.9
-4 8 8 0.4 1.9
-4 8 8 2.5 1.4
-3 -8 8 0.6 2
-3 -8 8 5 2.9
3 -8 -8 1.9 1.7
-3 8 8 3.2 1.4
-3 8 8 4.4 2.4
3 8 -8 1.5 1
-3 8 8 1.1 1.9
-2 -8 8 169.38 7.8
-2 8 8 151.08 8.8
2 8 -8 162.78 7.5
-2 8 8 175.38 9
-2 8 8 172.98 7.6
1 -8 -8 199.98 9.6
-1 -8 8 202.68 8.9
-1 -8 8 186.28 10.3
-1 8 8 197.58 10.2
-1 8 8 205.98 10.7
1 8 -8 201.08 8.8
0 -8 8 52.29 3
0 -8 8 53.19 5
0 -8 -8 49.1 3.8
0 8 -8 53.69 3.1
0 8 8 47.1 4.6
0 8 8 54.39 4.3
-1 -8 -8 191.58 9
1 -8 8 175.88 7.9
1 -8 8 173.38 9.5
1 8 8 184.58 9.4
-1 8 -8 190.88 8.1
1 8 8 160.38 9.2
2 -8 8 197.38 10.4
-2 -8 -8 196.18 9.6
2 -8 8 191.68 8.5
2 8 8 199.18 10
2 8 8 185.38 9.8
-2 8 -8 197.38 9
3 -8 8 74.59 3.9
-3 -8 -8 78.19 5
3 -8 8 73.29 6.1
3 8 8 60.09 5.5
-3 8 -8 77.69 4.2
-3 8 -8 82.99 4.2
-3 8 -8 80.19 4
3 8 8 77.79 5.3
-4 -8 -8 60.69 6.1
4 -8 8 58.79 6.2
4 8 8 57.59 5.5
4 8 8 68.79 4.9
-4 8 -8 72.09 3.9
-5 -8 -8 0.6 1.7
5 8 8 -1.5 1.6
-5 8 -8 0.7 1
-5 8 -8 -0.6 1
-6 -8 -8 11.7 2.6
-6 8 -8 11 1.8
6 8 8 8.7 2.3
-6 8 -8 12.7 1.7
-7 -8 -8 -0.6 1.9
-7 8 -8 -0.3 1.2
7 8 8 -0.1 2.1
-7 8 -8 1.6 1.2
-8 -8 -8 66.99 5.4
-8 8 -8 66.39 3.9
-8 8 -8 68.69 4.2
-9 -8 -8 21.1 4.5
-9 8 -8 15.1 2.3
-9 8 -8 17.7 2.1
-10 -8 -8 0.5 2.8
-10 8 -8 5.2 2.4
-10 8 -8 2.9 1.4
-11 -8 -8 -0.7 3.2
-11 8 -8 1.1 2.5
-11 8 -8 0 1.2
-12 -8 -8 7.8 5
-12 8 -8 -0.3 3.4
-13 8 -8 -2.4 3.4
-13 -9 8 3.7 5.1
-13 -9 8 2.9 1.7
-13 9 8 2 2.7
13 9 -8 -2.4 6
-13 9 8 4.3 6
-12 -9 8 0.1 5
-12 -9 8 -0.1 1.6
-12 9 8 -1.5 2.1
-12 9 8 -0.4 6.7
-11 9 8 2.4 1.8
-11 9 8 2.3 3.4
-10 9 8 3.1 1.6
-10 9 8 5.5 3
-9 9 8 -1 3.5
-9 9 8 3 1.3
-8 9 8 2.2 2.1
-8 9 8 0.1 1
-7 -9 8 2.8 2.2
-7 9 8 4.8 2.7
-7 9 8 -1.2 1.8
-7 9 8 2.7 1
-6 -9 8 43.5 5.3
-6 9 8 52.69 2.8
-6 9 8 52.99 4.9
6 9 -8 49.7 2.9
-6 9 8 55.59 4.2
-5 -9 8 15.8 2.6
5 9 -8 15.1 1.6
-5 9 8 14.5 3
-5 9 8 14 2.5
-4 -9 8 88.79 5.2
4 -9 -8 97.89 6.6
4 9 -8 76.09 4.5
-4 9 8 89.99 6.1
-4 9 8 87.99 5
-3 -9 8 13.5 2.3
-3 9 8 13.7 2.1
-3 9 8 11.9 2.9
-2 -9 8 119.29 8.6
-2 -9 8 114.89 6
-2 9 8 111.89 7.1
-2 9 8 106.19 7.9
2 9 -8 124.59 5.9
-1 -9 8 -0.9 3.3
-1 -9 8 0.8 1.4
1 -9 -8 -1 1.4
1 9 -8 0.5 1
-1 9 8 0.2 2.8
-1 9 8 1.1 2
0 -9 -8 22.7 3.2
0 -9 8 15.2 2.1
0 9 -8 16.4 1.9
0 9 8 13.8 3.2
0 9 8 14.6 3
1 -9 8 3.9 1.6
-1 -9 -8 5.6 2
1 -9 8 5.3 3.4
1 9 8 5.7 2.3
1 9 8 2.1 2.8
2 -9 8 60.19 6.6
2 -9 8 56.79 3.9
-2 -9 -8 67.79 4.6
2 9 8 56.79 4.9
-2 9 -8 67.69 3.6
2 9 8 52.59 6
-2 9 -8 54.29 3.9
3 -9 8 0.4 3.8
-3 -9 -8 0 1.8
-3 9 -8 0.8 1.4
-3 9 -8 0.3 1.2
3 9 8 0.7 2
-4 -9 -8 0.2 1.8
-4 9 -8 0.9 1.1
4 9 8 1.7 2.1
-4 9 -8 0.5 1.1
-5 -9 -8 11.8 2.9
-5 9 -8 14.1 2
-5 9 -8 14.1 1.9
5 9 8 11.2 2.7
-6 -9 -8 0.1 2
6 9 8 2.8 2.1
-6 9 -8 3.9 1.3
-6 9 -8 5.3 1.6
-7 -9 -8 40.6 4.3
7 9 8 40.3 4.6
-7 9 -8 38.5 3
-7 9 -8 45 3.2
-8 -9 -8 18.2 4.6
-8 9 -8 13.6 2.2
-8 9 -8 21.6 2.4
-9 -9 -8 48.8 5.3
-9 9 -8 44.8 4
-9 9 -8 51.09 3.3
-10 -9 -8 27.1 4.6
-10 9 -8 39.7 4.2
-10 9 -8 36.9 3
-11 -9 -8 10.2 4.1
-11 9 -8 4.3 1.6
-11 9 -8 6.4 3
-12 -9 -8 8.1 5.5
-12 9 -8 5.4 5
-13 9 -8 5.1 3.5
-13 10 8 0.3 7.6
-13 10 8 1.1 3.5
13 10 -8 -2.5 6.8
-12 -10 8 10.1 7.5
-12 -10 8 11.8 2.1
-12 10 8 15.2 5.4
12 10 -8 19.4 6.1
-12 10 8 16.9 2.8
-11 10 8 20.6 2.5
11 10 -8 12.5 4.7
-11 10 8 14.7 5
-10 10 8 64.99 4.4
-10 10 8 63.49 6
-9 10 8 4.2 3
-8 -10 8 25.8 4
-8 10 8 23.7 5.5
-8 10 8 24.4 3
-7 -10 8 64.99 5.2
-7 10 8 61.99 5
-6 -10 8 46.8 4.4
-6 10 8 47.1 5
6 10 -8 47.9 2.8
-6 10 8 42.6 4.1
-5 -10 8 40.1 3.9
-5 10 8 40.8 5.6
5 10 -8 36.1 2.5
-5 10 8 35.9 3.5
-4 -10 8 17.9 2.8
-4 10 8 20.5 3.6
4 10 -8 16.1 1.8
-4 10 8 16.4 2.4
-3 -10 8 3.6 2
-3 10 8 6.2 2.6
3 10 -8 5.6 1.3
-2 -10 8 10.2 2.2
2 -10 -8 13.8 2.7
-2 -10 8 10.2 4.6
-2 10 8 11.5 2.8
2 10 -8 11.2 1.6
1 -10 -8 17.4 2.9
-1 -10 8 21.4 2.6
-1 -10 8 13.6 4.7
1 10 -8 22.8 2.1
-1 10 8 22.6 3.6
0 -10 8 12.8 4.6
0 -10 -8 14.7 2.7
0 -10 8 11.4 6.7
0 -10 8 18.4 2.5
0 10 8 11.8 2.8
0 10 -8 14.8 1.9
-1 -10 -8 89.19 5.8
-1 10 -8 87.39 4.7
1 10 8 87.69 6.2
-2 -10 -8 108.69 6.6
2 10 8 104.69 7
-2 10 -8 108.79 5.5
-2 10 -8 108.89 6
-3 -10 -8 76.69 5.4
-3 10 -8 65.99 4
-3 10 -8 58.59 6
3 10 8 72.89 5.5
-4 -10 -8 83.59 5.7
-4 10 -8 81.29 4.6
4 10 8 78.09 5.9
-5 -10 -8 20.9 3.4
5 10 8 23.3 3.8
-5 10 -8 25 2.4
-5 10 -8 30.2 2.6
-6 -10 -8 91.29 6.4
-6 10 -8 91.59 4.9
6 10 8 82.89 7.9
-6 10 -8 91.39 5.1
-7 -10 -8 9.7 3.3
-7 10 -8 15.5 2.2
-7 10 -8 15.5 2.2
-8 -10 -8 42.3 5.6
-8 10 -8 47.1 3.5
-8 10 -8 45.3 3.9
-9 -10 -8 46.9 5.6
-9 10 -8 45.3 3.5
-9 10 -8 47.6 4.4
-10 -10 -8 6 4.1
-10 10 -8 14 3.4
-10 10 -8 12.2 2.1
-11 -10 -8 5.8 4.6
-11 10 -8 2.3 3.4
-11 10 -8 -0.3 1.7
-12 -10 -8 3.1 5.1
-12 10 -8 2 3.7
-12 11 8 -0.9 6.4
12 11 -8 2.5 4.9
-11 11 8 2.9 8.9
11 11 -8 -2.3 4.5
-11 11 8 0.8 2.4
-10 11 8 -1 3.6
-9 11 8 -0.9 3.1
-8 11 8 2.3 2.9
-7 -11 8 12.9 5.1
-6 -11 8 65.59 5.6
-6 11 8 61.09 5.1
6 11 -8 67.39 3.6
-5 -11 8 14.5 3.3
-5 11 8 5.3 2.9
5 11 -8 12.1 1.6
-4 -11 8 18.6 3.2
4 11 -8 15 1.8
-4 11 8 22.8 4.2
3 -11 -8 47.3 4.3
-3 11 8 43.3 5
3 11 -8 35.9 2.8
2 -11 -8 53.79 4.6
-2 -11 8 54.79 4.3
2 11 -8 51.89 3.3
-2 11 8 52.69 5.3
1 -11 -8 16.6 3.1
1 11 -8 21 2.3
0 -11 -8 2.1 2.1
0 11 -8 -0.1 1.2
-1 -11 -8 1.5 2
-1 11 -8 0.3 1.2
-2 -11 -8 8.6 2.5
-2 11 -8 6.2 1.6
-2 11 -8 5.3 2.8
-3 -11 -8 7.5 2.5
-3 11 -8 11 1.9
3 11 8 7.3 2.8
-4 -11 -8 43.8 4.5
-4 11 -8 43 3.3
4 11 8 38.3 4.7
-5 -11 -8 10.2 4.4
-5 11 -8 10.9 2.2
5 11 8 6.8 3.2
-6 -11 -8 0.9 2.5
-6 11 -8 1.4 1.9
-7 -11 -8 -0.3 2.9
-7 11 -8 4.3 2.9
-7 11 -8 2.3 2
-8 -11 -8 -2.1 3
-8 11 -8 1.2 2.5
-8 11 -8 -0.2 1.9
-9 -11 -8 10.9 4.5
-9 11 -8 3.7 1.9
-9 11 -8 8.3 3.1
-10 -11 -8 -0.7 3.9
-10 11 -8 3.4 3.5
-11 -11 -8 -0.9 5.2
-11 11 -8 3.4 1.7
-11 11 -8 0.2 3.7
11 12 -8 -3 5.1
-9 12 8 7.8 4.2
-8 12 8 0.5 6.3
5 12 -8 37.9 2.7
4 -12 -8 1.3 2.5
4 12 -8 6 1.4
3 -12 -8 18.7 4.4
3 12 -8 21.2 2.3
-3 12 8 19.4 4
2 -12 -8 11.8 3.1
-2 12 8 3.6 3
2 12 -8 11.5 1.9
1 -12 -8 31.4 4.4
1 12 -8 22.8 2.6
-1 12 8 19.9 3.9
0 -12 -8 -0.3 2.1
0 12 -8 -0.8 1.4
0 12 8 0 2.6
-1 -12 -8 24.5 4
1 12 8 19.9 4
-1 12 -8 12 2
-1 12 -8 18.5 3.2
-2 -12 -8 27.4 6.6
-2 12 -8 41.1 3.4
2 12 8 27.6 4.3
-3 -12 -8 38.6 4.6
3 12 8 29.4 4.7
-3 12 -8 48.5 4.7
-4 -12 -8 1.5 2.6
-4 12 -8 4 2
-5 -12 -8 1.7 2.8
-5 12 -8 -0.1 2.2
-6 -12 -8 28.1 4.7
-6 12 -8 32.6 3.6
-7 -12 -8 0.4 3.5
-7 12 -8 3.2 2.5
-8 -12 -8 0.3 5.2
-8 12 -8 1.8 2.4
-9 -12 -8 3.2 4.2
-10 -12 -8 10.9 5.4
-10 12 -8 5.2 2.2
-10 13 8 4.9 2
10 13 -8 1.1 5.9
6 -13 -8 31.4 4.9
5 -13 -8 28.5 4.7
5 13 -8 28.1 2.9
4 -13 -8 83.79 6.7
4 13 -8 81.09 4.7
3 -13 -8 60.89 5.9
3 13 -8 72.39 4.4
2 -13 -8 51.19 5.4
2 13 -8 53.19 4
1 -13 -8 48.4 5.3
1 13 -8 59.99 4.2
0 -13 -8 52.09 5.3
0 13 -8 53.79 4.2
-1 -13 -8 22.3 4
-1 13 -8 29 3.5
-2 -13 -8 41.7 5.2
-2 13 -8 42.2 4.2
-3 -13 -8 4.2 3.5
-3 13 -8 5 2.5
-4 -13 -8 -1.5 2.8
-4 13 -8 0.4 2.6
-5 -13 -8 -0.8 3
-5 13 -8 7.2 3.3
-6 -13 -8 0.6 3.4
-6 13 -8 5.3 3.4
-7 -13 -8 16.9 4.6
-7 13 -8 18.2 3.3
-8 -13 -8 11.7 8.2
-8 13 -8 17.7 3.1
-9 -13 -8 47.6 7
-9 13 -8 44.6 4.5
8 -14 -8 13.5 4.9
7 -14 -8 19.9 5.7
6 -14 -8 28.8 4.9
5 14 -8 2.5 2.1
4 -14 -8 6.6 4
4 14 -8 0.8 2
3 -14 -8 -2.6 3.4
3 14 -8 2.3 2.3
2 -14 -8 -2.7 3.2
2 14 -8 -2.1 2.5
1 -14 -8 4.2 3.5
1 14 -8 1.7 2.7
0 -14 -8 17.7 4.3
0 14 -8 16.3 3.4
-1 -14 -8 37 5.4
-1 14 -8 32.9 4.1
-2 -14 -8 65.79 6.9
-2 14 -8 55.99 5.7
-3 -14 -8 35 5.7
-3 14 -8 50.59 5.5
-4 -14 -8 51.49 7.1
-4 14 -8 36.3 4.7
-5 -14 -8 22.8 4.8
-5 14 -8 27.9 4.3
-6 -14 -8 2.8 4.2
-6 14 -8 5.2 5.9
-7 -14 -8 7 5.1
-7 14 -8 27.7 4.2
6 -15 -8 8.9 5.3
5 -15 -8 14.6 5.6
4 -15 -8 7.6 4.4
4 15 -8 9.2 3.8
3 -15 -8 6.3 4.8
3 15 -8 2.5 3.3
2 -15 -8 3.3 4.2
2 15 -8 2.3 7.3
2 15 -8 6.4 3.2
1 -15 -8 9.2 4.8
1 15 -8 6.4 3.5
0 -15 -8 2.9 3.9
0 15 -8 6.8 3.7
-1 -15 -8 4 4.4
-1 15 -8 8.1 4.1
-2 -15 -8 0.9 4.1
-2 15 -8 -5.8 4
-3 -15 -8 0.8 4.1
-3 15 -8 -1.3 5.4
-4 -15 -8 0.9 5.5
-4 15 -8 6.1 4.1
-5 -15 -8 3.9 5.1
-5 15 -8 2 4.2
3 -16 -8 -3.3 4.5
3 16 -8 1.2 3
2 -16 -8 1.2 5.2
2 16 -8 1.5 3.3
1 -16 -8 10.4 5.6
1 16 -8 1.4 3.7
0 -16 -8 -5.2 4.7
0 16 -8 1.8 3.8
-1 -16 -8 3.8 5.3
-1 16 -8 10.8 4.4
-2 -16 -8 13.9 6
-2 16 -8 5.3 4.4
-16 0 9 1.9 3.9
-16 0 9 -2.2 5.5
-15 0 9 2.3 4.4
-15 0 9 -0.4 3.4
-14 0 9 -1.1 3.5
-14 0 9 5.2 3.1
-13 0 9 -0.4 2
-13 0 9 -1 2.7
12 0 -9 2.4 2.4
-12 0 9 -0.3 1.5
-12 0 9 6.2 2.9
11 0 -9 -0.3 1.8
-11 0 9 -0.3 2.2
-10 0 9 0.3 2
10 0 -9 -2.7 1.5
9 0 -9 3.6 3.2
-9 0 9 -1.4 1.6
9 0 -9 1.6 1.5
-8 0 9 1 1.2
8 0 -9 0 2.2
-8 0 9 2.2 1.7
8 0 -9 1.2 1.5
7 0 -9 0.9 1.4
-7 0 9 0.2 1.3
-7 0 9 0 1.6
7 0 -9 1 1.8
-6 0 9 0 1.4
6 0 -9 0.1 1.4
-6 0 9 0 1.2
6 0 -9 -0.3 1.2
5 0 -9 1.2 1.3
-5 0 9 -0.2 1.2
5 0 -9 -0.4 1.2
-4 0 9 2.3 1.2
4 0 -9 0.3 1
4 0 -9 1.3 0.6
4 0 -9 -0.1 1.2
3 0 -9 0.4 0.6
-3 0 9 0.8 1
3 0 -9 0.1 0.6
3 0 -9 1.2 1.2
2 0 -9 -1.4 1
2 0 -9 0.9 1.3
-2 0 9 0.5 0.9
2 0 -9 0.5 0.7
-1 0 9 0.2 0.8
1 0 -9 1.6 1.1
1 0 -9 1 0.8
0 0 9 0.2 0.7
0 0 -9 0.1 0.6
0 0 -9 0.2 0.4
0 0 -9 -0.2 1
1 0 9 0 0.5
-1 0 -9 0.4 0.6
-1 0 -9 0.9 1.1
-2 0 -9 -0.4 0.9
-2 0 -9 0.1 0.7
-2 0 -9 0.5 0.4
-3 0 -9 0 0.6
-3 0 -9 0.8 0.7
-3 0 -9 0.3 0.9
-4 0 -9 1 0.9
-4 0 -9 -0.1 0.6
-4 0 -9 2.3 0.7
-5 0 -9 -0.1 0.6
-5 0 -9 -0.3 0.6
-5 0 -9 -0.1 0.9
-6 0 -9 -1.5 0.6
-6 0 -9 0.1 0.6
-7 0 -9 -0.5 0.7
-7 0 -9 -0.2 0.8
-8 0 -9 0.3 0.7
-8 0 -9 0.5 0.9
-9 0 -9 0.1 0.7
-9 0 -9 0.1 1.2
-10 0 -9 1.1 1
-11 0 -9 -0.8 0.9
-13 0 -9 -0.6 1.3
-14 0 -9 -0.3 1.5
-15 0 -9 1.4 1.6
-16 -1 9 25.8 4.6
-16 -1 9 9.6 5.5
-16 1 9 13.3 4.3
-16 1 9 0.7 5
-15 -1 9 22.2 4.3
-15 -1 9 6 4.5
-15 1 9 15.6 4.1
-15 1 9 15.4 5.2
-14 -1 9 9 4.2
-14 -1 9 11.2 3.3
-14 1 9 10.2 3.4
-14 1 9 9.3 4.4
-13 -1 9 -0.2 2.8
-13 -1 9 3.2 2.2
13 1 -9 2.8 3.1
-13 1 9 5.4 3.4
-13 1 9 3.2 2.3
-12 -1 9 33 4.7
-12 -1 9 25 2.8
12 -1 -9 24 3.4
12 1 -9 27.6 3.6
-12 1 9 28.3 3.1
-12 1 9 27.7 4.5
-11 -1 9 54.09 5.1
11 -1 -9 62.49 4.6
11 1 -9 63.49 4.8
-11 1 9 67.89 4.1
-11 1 9 63.39 5.4
-10 -1 9 2.4 2.1
-10 1 9 1.9 2.1
10 1 -9 3.2 2
9 -1 -9 2 1.6
-9 -1 9 1.2 1.7
9 -1 -9 2.7 3.2
9 1 -9 0.4 3.3
-9 1 9 2.4 1.8
-9 1 9 2.6 1.6
9 1 -9 0.8 1.6
8 -1 -9 90.39 5.3
8 -1 -9 94.19 6.2
-8 1 9 89.39 5
8 1 -9 95.39 5.5
8 1 -9 92.29 6.3
-8 1 9 92.29 5.7
-7 -1 9 240.08 11
7 -1 -9 244.28 11.5
-7 -1 9 252.97 11.6
7 -1 -9 252.07 11.3
7 1 -9 248.78 11.5
7 1 -9 231.98 11.4
-7 1 9 243.78 11.6
-7 1 9 245.48 11.1
-7 1 9 252.07 11.6
6 -1 -9 146.29 8
-6 -1 9 152.78 7.7
6 -1 -9 157.48 7.5
-6 1 9 153.68 7.4
6 1 -9 130.59 7.3
6 1 -9 157.58 7.7
-6 1 9 152.28 7.7
5 -1 -9 235.58 10.6
5 -1 -9 236.48 10.4
-5 -1 9 212.58 10.8
-5 1 9 229.58 10.7
5 1 -9 229.58 10.6
5 1 -9 234.38 9.7
5 1 -9 241.18 10.4
-5 1 9 232.28 10.7
-4 -1 9 130.79 6.9
4 -1 -9 131.99 6.7
4 -1 -9 142.19 6.5
-4 1 9 133.79 6.9
4 1 -9 150.48 6.5
4 1 -9 137.49 6.8
4 1 -9 137.69 6
3 -1 -9 413.96 17.1
3 -1 -9 401.16 16.2
3 -1 -9 393.86 16.6
-3 -1 9 390.56 17.1
3 1 -9 400.66 16.4
3 1 -9 403.06 17.1
-3 1 9 395.96 17.1
2 -1 -9 434.86 17.1
-2 -1 9 402.16 17.6
-2 1 9 417.36 17.6
2 1 -9 435.86 17.1
2 1 -9 386.26 16.9
-1 -1 9 135.79 6.7
1 -1 -9 139.89 6.8
1 -1 -9 148.19 6.2
1 1 -9 146.99 7
1 1 -9 152.28 6.9
-1 1 9 138.89 6.7
0 -1 -9 49.7 2.9
0 -1 9 39.8 2.5
0 -1 -9 38.3 2.1
0 -1 -9 38.4 2.1
0 1 9 37 2.5
0 1 -9 41 2.2
1 -1 9 20.9 1.5
-1 -1 -9 22.8 2
-1 -1 -9 20.8 1.5
-1 -1 -9 18.9 1.3
1 1 9 19.2 1.6
-1 1 -9 19 1.5
-1 1 -9 15.5 1.8
1 1 9 18.5 2.1
-2 -1 -9 25.3 1.7
-2 -1 -9 25.5 2.1
-2 -1 -9 24.8 1.5
-2 1 -9 26.4 1.7
-2 1 -9 24.9 2
2 1 9 26 1.4
-3 -1 -9 55.69 2.9
-3 -1 -9 54.39 2.8
-3 -1 -9 57.89 3.3
-3 1 -9 56.59 3.2
-3 1 -9 56.89 2.9
-3 1 -9 58.69 2.9
-4 -1 -9 76.49 3.6
-4 -1 -9 77.59 4
-4 -1 -9 75.29 3.5
-4 -1 -9 72.69 3.7
-4 1 -9 80.49 3.9
-4 1 -9 74.99 3.6
-4 1 -9 76.99 3.7
-5 -1 -9 151.28 7.1
-5 -1 -9 155.08 6.7
-5 -1 -9 151.38 6.8
-5 1 -9 163.28 6.9
-5 1 -9 159.88 7
-5 1 -9 157.48 6.8
-6 -1 -9 175.98 7.6
-6 -1 -9 175.48 7.6
-6 1 -9 177.88 7.8
-6 1 -9 179.08 7.7
-7 -1 -9 85.59 4.1
-7 -1 -9 84.79 4
-7 1 -9 80.59 4
-7 1 -9 91.99 4.3
-8 -1 -9 407.26 16.4
-8 -1 -9 378.86 16.2
-8 1 -9 396.06 16.3
-9 -1 -9 197.78 8.6
-9 1 -9 190.28 8.6
-9 1 -9 183.98 8.2
9 1 9 191.98 9.5
-10 -1 -9 71.79 3.9
-10 1 -9 77.09 4.1
-10 1 -9 72.69 3.6
-11 -1 -9 0.9 0.9
-11 1 -9 2.1 1.2
-12 -1 -9 1.1 1.2
-12 1 -9 0.6 1.7
-13 -1 -9 11.3 1.7
-13 1 -9 10.3 1.9
-14 -1 -9 -1.3 1.5
-14 1 -9 0.1 1.6
-15 1 -9 1.1 1.7
-16 -2 9 -2.4 3.9
-16 -2 9 3.1 5.3
-16 2 9 -3.1 4.5
-16 2 9 -2.5 4.9
-15 -2 9 -2.1 4
-15 -2 9 0.2 3.3
-15 2 9 1.2 3.7
-15 2 9 2.5 4.6
-14 -2 9 5.8 2.7
-14 -2 9 7.9 3.9
-14 2 9 7.7 4.1
-14 2 9 8.9 3.4
-13 -2 9 22.4 2.9
-13 -2 9 21.8 4.1
-13 2 9 18.5 2.9
-13 2 9 23.9 4.3
13 2 -9 20.6 4
12 -2 -9 17.3 4.2
-12 -2 9 26.8 5.5
-12 2 9 27.1 2.9
12 2 -9 14.1 3
11 -2 -9 -2.2 1.9
-11 -2 9 -0.5 2.1
-11 2 9 0.2 1.4
11 2 -9 1 2.1
-11 2 9 0.8 2.2
-10 -2 9 82.79 6
-10 2 9 95.69 5
10 2 -9 99.49 6
-10 2 9 86.09 6.2
9 -2 -9 149.69 9.4
9 -2 -9 158.48 7.7
9 2 -9 149.49 9.4
9 2 -9 122.99 8.1
-9 2 9 155.48 7.3
-9 2 9 153.88 8.3
-8 -2 9 226.28 10.6
8 -2 -9 216.28 10.2
8 -2 -9 240.78 12.3
8 2 -9 222.18 10.6
-8 2 9 222.18 10.8
8 2 -9 192.28 12.2
-8 2 9 212.28 10.1
7 -2 -9 86.29 5.6
7 -2 -9 94.49 5.2
-7 -2 9 89.59 5.8
-7 2 9 96.59 5.7
-7 2 9 87.49 5.1
7 2 -9 96.09 5.4
7 2 -9 86.09 5.7
-7 2 9 91.09 5.4
6 -2 -9 58.99 4.3
6 -2 -9 59.89 3.9
-6 -2 9 59.89 4.4
6 2 -9 62.29 4.4
6 2 -9 63.79 3
-6 2 9 63.49 4.4
-6 2 9 66.79 4.2
-6 2 9 58.99 4
6 2 -9 64.09 4.2
5 -2 -9 22.4 2.5
-5 -2 9 24.8 2.8
5 -2 -9 19.5 2.2
5 2 -9 24.5 2.5
-5 2 9 19.5 2.3
5 2 -9 23.4 2.6
-5 2 9 20.6 2.4
-5 2 9 21.6 2.7
5 2 -9 25.2 1.5
4 -2 -9 21.3 2.1
4 -2 -9 20.5 2.1
-4 -2 9 23.1 2.6
4 2 -9 19.2 1.4
-4 2 9 21.9 2.4
4 2 -9 19.4 2.3
4 2 -9 22 2.7
-4 2 9 17.5 2
-4 2 9 19.9 2.4
3 -2 -9 314.97 12.7
-3 -2 9 308.67 13.7
3 -2 -9 313.97 13.5
3 2 -9 276.07 13.3
3 2 -9 331.47 13.7
-3 2 9 311.77 13.6
2 -2 -9 1356.46 54.99
-2 -2 9 1327.27 54.99
2 2 -9 1400.86 55.09
2 2 -9 1369.06 54.49
-2 2 9 1328.67 54.99
-1 -2 9 2569.64 103.59
-1 2 9 2600.44 103.69
0 -2 9 641.94 26.3
0 -2 -9 592.04 26.1
0 -2 -9 657.53 26
0 2 9 627.74 26.4
0 2 -9 631.44 26
0 2 -9 707.43 27
1 -2 9 521.45 20.5
-1 -2 -9 491.65 20.3
-1 -2 -9 482.15 20.3
-1 2 -9 504.25 20.7
1 2 9 462.25 20.2
1 2 9 514.95 20.5
-1 2 -9 506.95 20.3
-2 -2 -9 159.98 7.2
-2 -2 -9 166.88 7.1
-2 2 -9 168.58 7.5
-2 2 -9 162.28 7.1
-2 2 -9 169.08 7.1
2 2 9 164.28 7.1
-3 -2 -9 609.44 24.8
-3 -2 -9 595.84 24.2
-3 -2 -9 574.14 24.4
-3 2 -9 594.54 24.5
-3 2 -9 589.54 24.3
-3 2 -9 617.74 24.3
-4 -2 -9 350.56 14.5
-4 -2 -9 339.17 14.4
-4 -2 -9 356.56 15.1
-4 -2 -9 342.87 14.8
-4 2 -9 355.06 14.7
-4 2 -9 355.66 14.6
-4 2 -9 365.06 14.6
-5 -2 -9 195.78 8.5
-5 -2 -9 198.88 9
-5 -2 -9 196.48 8.4
-5 2 -9 202.58 8.6
-5 2 -9 194.38 8.6
-5 2 -9 213.78 8.7
-6 -2 -9 155.68 6.8
-6 -2 -9 160.98 7.5
-6 -2 -9 161.38 6.8
-6 2 -9 152.18 6.9
-6 2 -9 161.08 7.1
-7 -2 -9 112.39 6.1
-7 -2 -9 119.29 5.4
-7 2 -9 123.39 5.7
-7 2 -9 121.49 5.5
7 2 9 129.49 6.8
-8 -2 -9 51.59 2.8
-8 2 -9 55.19 3.1
8 2 9 51.59 4
-8 2 -9 49.99 2.8
-9 -2 -9 1.7 0.9
-9 2 -9 -0.4 0.7
9 2 9 -1.8 1.9
-9 2 -9 -0.6 1
-10 -2 -9 5.5 1.2
-10 2 -9 5.5 1
-10 2 -9 6.8 1.4
-11 -2 -9 7.5 1.3
-11 2 -9 6.7 1.6
-12 -2 -9 25.3 2.2
-12 2 -9 24.8 2.7
-13 -2 -9 20.5 2.3
-13 2 -9 20.3 2.6
-14 2 -9 54.19 4.1
-15 2 -9 7.6 2.2
-16 -3 9 2 10.2
-16 -3 9 3.5 3.3
-16 3 9 -3.4 6
-16 3 9 -4.6 4.2
-15 -3 9 4.8 3.7
-15 -3 9 -0.3 4.1
-15 3 9 5 4.1
-15 3 9 1.5 4.7
-14 -3 9 1.5 2.4
-14 -3 9 2.1 4.5
-14 3 9 1.2 7.7
-14 3 9 7.6 3.5
-13 -3 9 1.5 3.1
-13 -3 9 1.1 2.2
13 3 -9 1.6 3.1
-13 3 9 0.6 2.5
-13 3 9 -0.7 3.1
-12 -3 9 3.1 2.6
-12 3 9 6.7 3.3
-12 3 9 -0.1 1.9
12 3 -9 -1.7 2.4
11 -3 -9 2.8 2.2
-11 -3 9 3.4 2.3
11 3 -9 1.8 2.3
-11 3 9 2.7 1.6
-11 3 9 5.1 2.8
10 -3 -9 120.69 7.2
10 3 -9 99.39 6.5
-10 3 9 109.29 5.6
-10 3 9 107.39 7
9 -3 -9 3.3 5.1
9 -3 -9 2.1 1.6
9 3 -9 -0.1 1.6
-9 3 9 2.2 2.1
-9 3 9 1.6 1.3
-9 3 9 3.2 1.8
8 -3 -9 148.79 8.8
8 -3 -9 150.98 7.8
-8 3 9 159.08 7.8
8 3 -9 167.68 8.4
-8 3 9 175.48 8.5
8 3 -9 143.89 8.9
7 -3 -9 11.1 2.4
-7 -3 9 10.7 2.5
7 -3 -9 11 1.9
7 3 -9 12.6 2.6
-7 3 9 9.1 2.7
-7 3 9 10.1 2
-7 3 9 13.3 2.4
7 3 -9 9.7 2.2
-6 -3 9 55.59 4.5
6 -3 -9 63.89 5.2
6 -3 -9 68.09 4
6 3 -9 63.19 4.2
6 3 -9 61.29 3
6 3 -9 62.49 5.3
-6 3 9 62.79 4.2
-6 3 9 65.59 4.5
-5 -3 9 59.89 4.4
5 -3 -9 60.79 3.9
5 -3 -9 58.39 3.8
5 3 -9 59.49 4
5 3 -9 62.99 3
5 3 -9 61.29 4
-5 3 9 64.79 4
-5 3 9 61.59 4.2
-5 3 9 66.29 4.2
4 -3 -9 1.8 1.1
4 -3 -9 0.2 1.1
-4 -3 9 1.2 1.3
4 3 -9 1.6 1.1
4 3 -9 2.2 1.4
4 3 -9 1.6 0.8
-4 3 9 2.2 1.2
-4 3 9 2.1 1.5
-4 3 9 -0.9 1.1
-3 -3 9 16 2.1
3 -3 -9 14.6 1.9
3 -3 -9 13 1.4
3 3 -9 12.3 1.9
-3 3 9 14.7 1.7
-3 3 9 10 1.6
3 3 -9 14.2 1.2
-3 3 9 14.1 2.3
-2 -3 9 247.28 10.9
2 -3 -9 238.58 10.7
-2 3 9 236.48 10.8
-2 3 9 234.88 10.4
-2 3 9 240.28 11.3
2 3 -9 253.27 10.9
2 3 -9 238.38 10.1
1 -3 -9 377.16 16.1
-1 -3 9 371.66 16.1
-1 3 9 377.96 15.6
-1 3 9 372.96 16.1
-1 3 9 384.96 16.7
1 3 -9 376.06 15.5
0 -3 9 18.7 2
0 -3 -9 23.2 1.8
0 -3 -9 22.7 2.1
0 3 -9 20.9 1.6
0 3 -9 21.6 2.1
0 3 9 19.6 2
1 -3 9 36.8 2.5
-1 -3 -9 37.8 2.7
-1 -3 -9 36.1 2.3
1 3 9 35.2 2.4
-1 3 -9 32 2.7
-1 3 -9 38.6 2.2
2 -3 9 167.08 7.3
-2 -3 -9 160.48 7.6
-2 -3 -9 162.58 7.4
2 3 9 165.48 7.3
-2 3 -9 166.28 7.2
-2 3 -9 164.08 7.1
-2 3 -9 160.98 7.4
-3 -3 -9 117.89 5.9
-3 -3 -9 119.49 5.7
-3 3 -9 115.19 5.4
3 3 9 120.79 5.4
-3 3 -9 122.89 5.6
-3 3 -9 115.59 5.4
-4 -3 -9 1.3 1.1
4 3 9 0.2 1.4
-4 3 -9 1.9 0.8
-4 3 -9 1.6 0.8
4 3 9 1.1 0.7
-4 3 -9 2.3 0.9
4 3 9 1 0.7
-5 -3 -9 2.6 1.5
-5 -3 -9 2.5 0.6
-5 3 -9 3.6 0.9
-5 3 -9 3.3 0.9
5 3 9 2.3 1.6
-5 3 -9 2.5 0.9
-6 -3 -9 16.6 1.3
-6 -3 -9 20.5 2.2
-6 3 -9 17.3 1.6
-6 3 -9 16 1.7
6 3 9 19.2 2.6
-7 -3 -9 89.39 5.3
-7 -3 -9 98.19 4.3
-7 3 -9 95.69 4.6
7 3 9 99.29 5.7
-8 -3 -9 54.89 2.8
-8 -3 -9 58.49 4.1
8 3 9 54.69 4.1
-8 3 -9 51.79 3.2
-8 3 -9 53.49 3
8 3 9 53.49 3.7
-9 -3 -9 2.2 1.9
-9 -3 -9 2.4 0.8
-9 3 -9 3.3 1.2
-9 3 -9 2.3 0.9
9 3 9 3.8 2.2
-10 -3 -9 -0.3 1.6
-10 3 -9 0.6 1.1
-10 3 -9 1.6 0.9
-11 -3 -9 12.8 1.6
-11 3 -9 22.1 2.5
-12 3 -9 59.49 4.1
-13 3 -9 9.8 2.2
-14 3 -9 1.1 2.1
-15 3 -9 14.4 3
-15 -4 9 1 8.2
-15 -4 9 1.8 2.8
-15 4 9 6.1 5.8
-15 4 9 11.4 7.6
-14 -4 9 -2.1 2.5
-14 -4 9 2.9 3.7
-14 4 9 0.4 3.2
-14 4 9 -2.7 4
-13 -4 9 -0.9 3
-13 -4 9 0.6 2
-13 4 9 5.2 2.5
13 4 -9 4.1 3.4
-13 4 9 -2.7 3.1
-12 -4 9 8.6 3.3
12 4 -9 5.4 3.1
-12 4 9 2.8 2.8
-11 -4 9 0.8 2.3
11 -4 -9 -0.8 3.8
-11 4 9 -3.5 2.1
-11 4 9 2.6 1.6
11 4 -9 0.9 2.3
-10 4 9 67.29 5.3
10 4 -9 62.39 5
-10 4 9 62.79 3.9
9 -4 -9 28.5 3
9 4 -9 30 3.6
-9 4 9 27.8 3.2
-9 4 9 24.3 3.4
-9 4 9 34.8 2.6
8 -4 -9 28.4 4.3
8 -4 -9 33 3
-8 4 9 35 2.8
-8 4 9 34.5 3.3
8 4 -9 34.6 4.3
8 4 -9 35.1 3.5
7 -4 -9 99.99 6.7
7 -4 -9 113.69 5.9
-7 4 9 115.39 6.2
7 4 -9 118.29 6.5
7 4 -9 111.09 4.8
-7 4 9 111.39 6.3
7 4 -9 105.19 6.8
-6 -4 9 43.8 4.3
6 -4 -9 51.39 3.4
6 -4 -9 45.3 4
6 4 -9 46.9 3.7
6 4 -9 40 4
6 4 -9 52.39 2.6
-6 4 9 43.8 4.2
-6 4 9 48.6 3.6
-6 4 9 44 3.6
5 -4 -9 29.1 3
-5 -4 9 32.7 3.6
5 -4 -9 27.5 2.5
5 4 -9 31 3.6
5 4 -9 30.3 1.8
5 4 -9 36.7 3
-5 4 9 32.3 3
-5 4 9 31.7 3.4
-5 4 9 30.8 2.7
-4 -4 9 10.9 3.3
4 -4 -9 8.9 1.6
4 -4 -9 12.9 1.9
-4 4 9 11.6 1.9
4 4 -9 10.2 2
-4 4 9 12.9 2.3
4 4 -9 10.2 1.1
-4 4 9 6 1.8
-3 -4 9 24.8 2.8
3 -4 -9 25 1.9
3 -4 -9 28.1 2.4
3 -4 -9 24 1.8
3 4 -9 27.4 2.6
3 4 -9 23.9 1.7
-3 4 9 28 2.2
-3 4 9 23.5 2.7
-3 4 9 23.5 2.6
2 -4 -9 812.92 33.6
-2 -4 9 799.22 33.8
-2 4 9 830.52 33.2
2 4 -9 833.12 33.8
-2 4 9 816.72 34.2
2 4 -9 793.62 33
-2 4 9 827.72 33.8
-1 -4 9 275.27 12.2
1 -4 -9 272.67 12
-1 4 9 265.47 11.6
-1 4 9 257.87 12.5
1 4 -9 284.87 12.1
1 4 -9 273.77 11.4
-1 4 9 276.67 12.1
0 -4 9 0.3 1
0 -4 -9 1.3 1
0 -4 -9 1.4 1.1
0 4 -9 0.6 1.8
0 4 -9 1.3 0.8
0 4 9 0.7 0.9
0 4 9 1.4 0.6
0 4 9 1.9 1.5
-1 -4 -9 18.9 2.1
-1 -4 -9 17.2 1.8
1 -4 9 18.3 2.1
-1 4 -9 17.9 1.5
1 4 9 20.1 2.8
1 4 9 17.9 2
-1 4 -9 20.3 2
2 -4 9 107.79 5.4
-2 -4 -9 111.49 5.6
2 4 9 109.19 6.1
-2 4 -9 105.39 4.9
-2 4 -9 102.79 4.9
-2 4 -9 105.29 5.2
-3 -4 -9 241.28 11
-3 -4 -9 238.38 10.8
-3 4 -9 244.08 10.5
3 4 9 266.57 11.7
3 4 9 250.67 11.2
-3 4 -9 250.67 10.5
-3 4 -9 235.38 10.6
-4 -4 -9 2.7 1.2
4 4 9 1.8 1
-4 4 -9 2.3 0.9
-4 4 -9 3.2 1
4 4 9 0.8 1.1
4 4 9 4.1 1.7
-4 4 -9 3.4 1
-5 -4 -9 23.6 2.3
5 4 9 24.4 2.8
5 4 9 22.4 2.1
5 4 9 22.9 2.1
-5 4 -9 22.9 1.8
-5 4 -9 20.7 1.6
-5 4 -9 23.9 1.8
-6 -4 -9 5.6 1.6
-6 4 -9 8 1.3
-6 4 -9 8.7 1.4
6 4 9 5.8 1.9
6 4 9 7.4 1.5
-7 -4 -9 -0.4 1.4
7 4 9 -1.2 1.7
-7 4 -9 -0.7 1.1
7 4 9 0.4 1.6
-7 4 -9 -1.1 0.8
-8 -4 -9 1.5 1.8
8 4 9 4 2.5
8 4 9 3.5 2
-8 4 -9 5 1.2
-8 4 -9 4.3 1.3
-9 -4 -9 1.7 2.1
-9 4 -9 0.8 0.9
-9 4 -9 1.2 1.2
-10 4 -9 1.2 0.9
-10 4 -9 1.1 1.3
-11 4 -9 6.5 1.2
-11 4 -9 6.4 2.6
-12 4 -9 7.9 2.3
-13 4 -9 3.3 2.2
-15 -5 9 -4.5 2.6
-15 -5 9 -2.6 4.9
-15 5 9 2.4 4.6
-15 5 9 -1.2 4
-14 -5 9 12.2 2.8
-14 -5 9 8.9 4.7
14 5 -9 8.8 4.9
-14 5 9 10.9 5.5
-14 5 9 12.9 3.7
-13 -5 9 11.7 2.6
-13 -5 9 13.2 3.9
-13 5 9 11.8 3.1
13 5 -9 12 3.9
-13 5 9 11 4.3
-12 -5 9 15 3.6
-12 5 9 21.2 2.8
-12 5 9 20.8 4.2
12 5 -9 11.3 3.4
-11 -5 9 30.2 4.3
11 5 -9 18.8 3.4
-11 5 9 21.5 3.7
-11 5 9 23.4 2.7
10 -5 -9 1.9 2
-10 5 9 -1.3 1.1
-10 5 9 -1 2
10 5 -9 -1.2 2
9 -5 -9 264.17 12.4
-9 5 9 273.27 12.9
-9 5 9 286.77 12.1
9 5 -9 284.47 13.5
-9 5 9 270.07 13.3
8 -5 -9 65.49 8.5
8 -5 -9 63.99 4.2
-8 5 9 66.89 3.7
8 5 -9 70.39 5
-8 5 9 63.39 4.7
-8 5 9 64.29 4.7
8 5 -9 51.89 7
7 -5 -9 -0.9 1.2
7 -5 -9 -0.8 2.7
7 5 -9 2.4 2.8
-7 5 9 1.8 1
7 5 -9 0.9 0.7
-7 5 9 -1.1 1.4
7 5 -9 0.3 1.7
-7 5 9 1.2 1.6
-6 -5 9 271.37 13
6 -5 -9 260.67 12.5
6 -5 -9 265.47 12.1
6 5 -9 271.37 11.3
-6 5 9 260.77 12.7
-6 5 9 275.17 12.4
6 5 -9 260.67 12.6
-6 5 9 279.17 11.4
-6 5 9 281.87 12.8
-5 -5 9 169.98 9.2
5 -5 -9 169.78 8.2
5 -5 -9 168.98 8.4
-5 5 9 178.68 8.9
-5 5 9 171.98 8.3
-5 5 9 173.58 8.7
5 5 -9 164.68 7.3
4 -5 -9 65.59 4
-4 -5 9 68.69 4.9
4 -5 -9 67.19 4.1
4 5 -9 69.29 3.4
-4 5 9 70.59 4
-4 5 9 74.79 4.8
-4 5 9 64.39 4.7
3 -5 -9 211.88 9.6
3 -5 -9 207.78 8.8
3 5 -9 217.18 9.9
-3 5 9 205.18 9.3
-3 5 9 205.18 9.9
-3 5 9 209.38 10.2
3 5 -9 201.18 8.9
2 -5 -9 483.85 20.6
-2 -5 9 479.25 21
-2 5 9 501.45 21.4
2 5 -9 492.15 20
-2 5 9 499.85 21.4
2 5 -9 453.05 20.7
-2 5 9 503.85 20.2
1 -5 -9 128.69 6.4
-1 -5 9 124.09 6.7
1 5 -9 124.09 5.8
-1 5 9 124.89 6.6
-1 5 9 131.09 5.7
1 5 -9 122.49 6.4
-1 5 9 138.89 7.1
0 -5 -9 43.6 3
0 -5 9 42.4 3.3
0 -5 -9 43.7 3.2
0 5 9 47 3.6
0 5 9 43.9 3.2
0 5 -9 42.6 2.5
0 5 -9 48.7 3.1
-1 -5 -9 1.2 1.1
1 -5 9 1.2 1.2
-1 -5 -9 0.6 1.2
1 5 9 -0.8 1.3
1 5 9 -1.2 1
-1 5 -9 1.3 0.8
-2 -5 -9 13.7 2
2 -5 9 10 1.8
-2 -5 -9 16.7 2.1
-2 5 -9 12.8 1.5
2 5 9 15.4 2.1
-2 5 -9 15.1 1.8
-2 5 -9 12.4 1.4
2 5 9 13 2.3
-3 -5 -9 373.56 15.7
3 5 9 341.97 15.5
-3 5 -9 373.66 15.2
-3 5 -9 355.96 15.2
3 5 9 367.06 16.3
-3 5 -9 361.46 15.1
-4 -5 -9 437.36 18.6
4 5 9 425.06 19.1
-4 5 -9 450.95 18.1
-4 5 -9 431.26 18
4 5 9 413.56 18.7
-4 5 -9 442.76 17.9
-5 -5 -9 436.26 19.4
5 5 9 446.46 19.9
-5 5 -9 470.15 18.8
-5 5 -9 469.85 18.5
-5 5 -9 441.16 18.7
5 5 9 440.36 19.1
-6 -5 -9 264.37 11.7
-6 5 -9 283.87 11
6 5 9 210.98 12
6 5 9 249.58 11.9
-6 5 -9 243.28 11
-7 -5 -9 64.29 4.4
-7 5 -9 65.99 3.6
7 5 9 69.19 4.8
7 5 9 57.79 4.9
-7 5 -9 64.19 3.7
-8 -5 -9 6.7 2.2
-8 5 -9 5.6 1.4
-8 5 -9 7.2 1.3
-9 -5 -9 18.5 3.2
-9 5 -9 15.2 2
-9 5 -9 17.6 1.7
-10 -5 -9 85.59 6
-10 5 -9 89.29 5
-10 5 -9 85.19 4.4
-11 5 -9 57.39 3.3
-11 5 -9 59.29 4.2
-12 5 -9 13.4 2.5
-13 5 -9 16.7 3.3
-14 5 -9 18.8 3.5
-15 -6 9 2.2 2.4
-15 -6 9 -3.4 6.3
-15 6 9 6.2 5.3
-15 6 9 2.5 3.8
-14 -6 9 -4.3 3.9
-14 -6 9 2.4 2.6
-14 6 9 -2.9 3.7
14 6 -9 1.9 5.2
-14 6 9 2.8 4.2
-13 -6 9 11.6 2.4
-13 -6 9 10.7 4.1
-13 6 9 17.8 3.4
-13 6 9 1.2 4.1
13 6 -9 2.7 4.1
-12 -6 9 26 4.7
-12 6 9 28.2 3.4
12 6 -9 19.5 3.9
-12 6 9 29 4.9
-11 6 9 15.6 3.6
11 6 -9 10.9 3.3
-11 6 9 17.7 2.5
-10 6 9 35.3 4.3
-10 6 9 40.5 3
10 6 -9 38.9 4.4
-9 6 9 11 2.6
-9 6 9 8.7 1.5
9 6 -9 13 3
-9 6 9 7.6 2.7
8 -6 -9 23.8 2.9
-8 6 9 33.1 3.6
-8 6 9 25 3.4
7 -6 -9 41.6 3.4
7 -6 -9 41 7.2
-7 6 9 50.49 4
-7 6 9 50.29 2.8
-7 6 9 47.3 4.1
7 6 -9 47.8 6.6
7 6 -9 42.3 2.4
6 -6 -9 118.89 7.3
6 -6 -9 127.59 6.5
-6 6 9 120.79 7
-6 6 9 128.09 5.7
-6 6 9 121.59 6.7
6 6 -9 127.19 5.6
5 -6 -9 -0.7 1.9
-5 -6 9 -0.7 2.6
5 -6 -9 -0.6 1.2
5 6 -9 1.3 0.8
-5 6 9 -0.1 1.6
-5 6 9 -0.7 0.7
-5 6 9 0.8 1.3
-5 6 9 1.4 2.3
4 -6 -9 0.4 1.6
-4 -6 9 2.1 2.1
4 -6 -9 0.7 1.3
-4 6 9 1.8 1.9
-4 6 9 -0.1 3.4
4 6 -9 -0.1 0.7
-4 6 9 1.8 1.3
3 -6 -9 51.09 3.5
3 -6 -9 52.29 3
3 -6 -9 61.79 3.7
-3 -6 9 47.5 4.6
-3 6 9 48.7 4.2
-3 6 9 49 2.5
3 6 -9 52.19 2.9
-2 -6 9 70.19 5.1
2 -6 -9 77.39 4.5
2 6 -9 78.79 3.8
-2 6 9 68.79 4.8
-2 6 9 71.99 5
-2 6 9 77.19 3.9
1 -6 -9 164.28 7.8
-1 -6 9 158.38 8.2
-1 6 9 153.98 6.8
1 6 -9 164.28 7.1
1 6 -9 157.58 7.8
-1 6 9 153.18 7.9
-1 6 9 152.98 8.3
0 -6 -9 224.48 10.2
0 -6 -9 219.68 10.3
0 -6 9 223.78 10.6
0 6 9 216.28 10.4
0 6 9 235.38 11
0 6 -9 215.58 9.6
0 6 -9 222.08 10.2
-1 -6 -9 105.29 5.6
-1 6 -9 107.49 5.5
1 6 9 105.79 6.2
-1 6 -9 105.19 5
-2 -6 -9 256.67 11.5
2 -6 9 248.68 11.7
-2 6 -9 256.07 10.8
2 6 9 250.07 11.5
2 6 9 248.48 12
3 -6 9 77.39 5
-3 -6 -9 78.69 4.6
3 6 9 66.19 4.6
-3 6 -9 76.99 3.9
-3 6 -9 72.59 4
3 6 9 80.49 5.2
-3 6 -9 78.19 3.9
-4 -6 -9 79.29 4.6
-4 6 -9 69.49 3.7
4 6 9 68.09 4.7
-4 6 -9 76.09 3.9
-4 6 -9 74.89 3.9
-5 -6 -9 16.2 2.4
-5 6 -9 15.2 1.8
-5 6 -9 15.7 1.8
5 6 9 13.7 2.5
5 6 9 16.6 2.5
-6 -6 -9 -0.8 1.3
-6 6 -9 0.2 0.9
6 6 9 -0.2 1.6
6 6 9 2.5 2.4
-7 -6 -9 3.7 2
7 6 9 0.6 1.8
-7 6 -9 2.1 1.1
-7 6 -9 1.8 1.1
-8 -6 -9 -1.6 1.8
8 6 9 0 2.1
-8 6 -9 1.9 1.1
-8 6 -9 2 1.3
-9 -6 -9 15.2 3
-9 6 -9 12 1.6
-9 6 -9 12 1.9
-10 -6 -9 1.4 2.7
-10 6 -9 4 1.9
-10 6 -9 1.7 1.1
-11 -6 -9 -2.3 2.7
-11 6 -9 0.2 1.1
-11 6 -9 2.9 2.1
-12 6 -9 -0.1 2.4
-13 6 -9 -2.8 3.1
-14 6 -9 -1.5 3.2
-14 -7 9 0.5 1.9
-14 -7 9 -3.4 4.7
-14 7 9 2.1 3.4
-14 7 9 -3.4 5.3
14 7 -9 2 5.4
-13 -7 9 8.9 5.2
-13 -7 9 4 2.1
-13 7 9 7.1 5.4
-13 7 9 2.2 3
13 7 -9 5.9 6.9
-12 -7 9 0.5 3.1
-12 7 9 3.4 3.3
12 7 -9 4.5 3.7
-12 7 9 4.6 2.3
-11 7 9 4.5 3
-11 7 9 8.7 2
11 7 -9 4.5 3.1
-10 7 9 51.69 3.5
-10 7 9 47.9 5
-9 7 9 65.59 5.5
-9 7 9 61.99 3.7
-9 7 9 67.79 5.3
8 -7 -9 22.4 3.1
-8 7 9 25.8 3.6
-8 7 9 25.4 3.7
-8 7 9 27.6 2.2
7 -7 -9 0.5 1.6
-7 7 9 -0.9 1.7
-7 7 9 3.1 1.1
-7 7 9 1 1.9
6 -7 -9 8.3 2
6 -7 -9 7 3.8
-6 7 9 5.8 1.1
-6 7 9 9.2 2.5
6 7 -9 5.9 1
-6 7 9 7.1 2
5 -7 -9 2.1 2.5
5 -7 -9 0.9 1.4
-5 7 9 0.9 0.8
-5 7 9 0.5 1.5
5 7 -9 -0.3 0.7
-5 7 9 1.3 1.8
4 -7 -9 3.6 2
-4 -7 9 3.6 2.9
-4 -7 9 2.8 1.4
4 -7 -9 2.5 1.6
-4 7 9 1.5 2.5
-4 7 9 4.5 1.5
-4 7 9 3.6 1.9
4 7 -9 3.5 1
-4 7 9 4.4 0.8
-3 -7 9 0.3 1.1
3 -7 -9 0.9 1.4
-3 -7 9 0.2 2.4
-3 7 9 2.2 1.9
-3 7 9 -0.5 1.2
-3 7 9 -0.8 2
3 7 -9 0.9 0.9
-2 -7 9 23.3 3.7
-2 -7 9 19.5 1.9
2 -7 -9 23.8 2.6
-2 7 9 22.3 3
2 7 -9 25.5 1.9
-2 7 9 20.1 3
-2 7 9 22.1 2
-1 -7 9 93.99 6.3
-1 7 9 96.89 6.1
1 7 -9 100.89 4.8
-1 7 9 99.19 6.1
0 -7 9 166.88 9
0 -7 -9 178.88 8.5
0 7 9 172.18 9.1
0 7 -9 179.88 7.8
0 7 9 165.68 8.8
1 -7 9 67.39 5.4
-1 -7 -9 81.99 4.8
-1 7 -9 88.89 4.7
1 7 9 76.69 5.2
-1 7 -9 77.99 4.1
1 7 9 83.69 5.4
-2 -7 -9 121.19 6.4
2 -7 9 128.29 7.1
2 7 9 111.79 6.7
2 7 9 120.49 7
-2 7 -9 114.69 5.9
-2 7 -9 120.39 5.7
-3 -7 -9 25.1 2.7
3 7 9 28.5 3.3
-3 7 -9 26.8 3
-3 7 -9 27.4 2.4
-4 -7 -9 8.2 2.1
4 -7 9 7.7 2.7
4 7 9 4.1 2.3
-4 7 -9 12.3 1.7
-4 7 -9 9.5 1.5
4 7 9 10.8 2.4
-4 7 -9 9.6 1.4
5 7 9 41.6 3.9
-5 7 -9 46.3 2.9
-5 7 -9 49.2 3
-6 -7 -9 27.6 3.2
-6 7 -9 26.2 2.3
6 7 9 26.8 3.3
-6 7 -9 23.2 2.2
-7 -7 -9 10 2.7
-7 7 -9 9.9 1.7
-7 7 -9 8.4 1.4
7 7 9 2.4 2.1
-8 -7 -9 1.1 2.2
-8 7 -9 1.1 1.3
-8 7 -9 1.9 1.2
8 7 9 0.8 2.5
-9 -7 -9 1.9 2.5
-9 7 -9 1.4 1.2
-9 7 -9 2.8 1.8
-10 -7 -9 -0.9 2.6
-10 7 -9 3 2.1
-11 -7 -9 2 3
-11 7 -9 10.7 2.8
-11 7 -9 8 1.4
-12 7 -9 4.2 3.1
-13 7 -9 0 4.2
-14 -8 9 3 1.9
-14 -8 9 6.9 6.4
14 8 -9 16.5 6.9
-14 8 9 4.8 3.3
-14 8 9 1.8 5.6
-13 -8 9 5.1 4.5
-13 -8 9 6.9 2.2
13 8 -9 -0.1 4.4
-13 8 9 11.4 3.8
-13 8 9 8.3 4.5
-12 -8 9 7 3.8
12 8 -9 8.7 4.8
-12 8 9 8.3 2.6
-12 8 9 8.8 3.9
11 8 -9 5.2 3.3
-11 8 9 5.1 3.4
-11 8 9 2.4 1.9
-10 8 9 15.6 2.2
-10 8 9 8.9 3.1
10 8 -9 14 3.4
-9 8 9 -1.9 2.3
-9 8 9 0.6 1.1
-8 8 9 13.2 2.8
-8 8 9 7.7 3.1
-8 8 9 10 1.5
-7 8 9 29.2 4
-7 8 9 22.3 3.2
-7 8 9 30 2.2
6 8 -9 12.7 1.4
-6 8 9 10.6 2.7
-6 8 9 11.2 2.7
-6 8 9 12 1.4
5 -8 -9 21.9 4
-5 -8 9 22.3 2.8
5 8 -9 19.5 1.7
-5 8 9 27.2 3.7
-5 8 9 23 1.7
-5 8 9 21.5 2.8
-4 -8 9 44.9 3.3
-4 8 9 35.8 3.1
4 8 -9 40.4 2.6
-4 8 9 48 4.3
-3 -8 9 75.89 7.5
3 8 -9 88.79 4.5
-3 8 9 91.79 4.8
-3 8 9 93.49 6.1
-3 8 9 88.99 6.8
-2 -8 9 184.88 8.6
-2 8 9 194.28 8.5
2 8 -9 191.28 8.5
-2 8 9 215.48 10.4
-2 8 9 177.68 10.2
1 -8 -9 292.67 13.2
-1 -8 9 288.57 13
-1 -8 9 279.17 14.1
-1 8 9 297.27 13.9
-1 8 9 279.77 13.7
1 8 -9 280.97 12.5
0 -8 9 183.28 10.3
0 -8 -9 183.68 8.7
0 8 -9 167.88 8.4
0 8 -9 146.19 8.5
0 8 9 173.18 9.2
0 8 9 165.08 9.2
1 -8 9 167.88 10
-1 -8 -9 189.48 9.2
1 8 9 176.88 10.6
-1 8 -9 188.58 8.3
1 8 9 191.08 9.8
-1 8 -9 180.88 8.8
-2 -8 -9 330.37 14.3
2 -8 9 294.37 14.9
-2 8 -9 305.77 13.6
2 8 9 295.17 14.5
2 8 9 317.67 14.8
3 -8 9 60.29 7.1
-3 -8 -9 60.49 6
-3 8 -9 68.79 4
3 8 9 61.29 6
-3 8 -9 76.19 4
3 8 9 80.79 5.4
-4 -8 -9 72.19 4.9
4 8 9 67.39 5.1
-4 8 -9 69.79 4
-4 8 -9 69.19 3.9
-5 -8 -9 101.29 6.4
-5 8 -9 106.49 5.4
5 8 9 106.59 6.6
-5 8 -9 110.19 5.4
-6 -8 -9 37.6 3.8
-6 8 -9 36.8 2.8
-6 8 -9 39 2.8
6 8 9 34.7 4
-7 -8 -9 56.99 4.9
7 8 9 60.49 5.1
-7 8 -9 64.69 3.8
-7 8 -9 60.39 3.7
-8 -8 -9 1.9 2.4
-8 8 -9 0.2 1.2
-8 8 -9 0.9 1.4
-9 -8 -9 -2.1 2.4
-9 8 -9 0.2 1.8
-9 8 -9 0.4 1.8
-10 -8 -9 9.7 3.6
-10 8 -9 3.1 2.2
-10 8 -9 4 1.5
-11 -8 -9 8.3 4.4
-11 8 -9 10.6 1.7
-11 8 -9 12.5 3.3
-12 8 -9 8 3.2
-13 8 -9 2 3.5
-13 -9 9 3.6 1.8
-13 -9 9 4.1 5.2
-13 9 9 3.9 5.1
-13 9 9 -0.5 2.7
13 9 -9 0.2 5.6
-12 -9 9 2.4 4.1
12 9 -9 2.4 4.7
-12 9 9 5.3 2.8
-12 9 9 6.1 4.2
11 9 -9 9.8 4.9
-10 9 9 1 3
-10 9 9 1.7 1.5
10 9 -9 -1.4 3
-9 9 9 4.8 2.6
-9 9 9 8.4 1.5
-8 9 9 1.2 1.1
-8 9 9 -1.5 2.2
-7 9 9 9.2 3
-7 9 9 -0.2 2
-6 -9 9 89.29 6.6
6 9 -9 105.99 4.9
-6 9 9 100.89 6.1
-6 9 9 108.89 7.1
-5 -9 9 208.08 9.9
5 9 -9 212.58 9
-5 9 9 196.08 9.8
-5 9 9 198.88 10.9
-4 -9 9 86.09 5.5
4 9 -9 97.29 5.4
-4 9 9 104.09 5.5
-4 9 9 106.49 6.8
-3 -9 9 41.1 3.5
-3 9 9 52.89 3.5
-3 9 9 46.5 4.6
-2 -9 9 101.29 9.3
-2 9 9 98.29 10.6
2 9 -9 111.29 6.4
-2 9 9 112.59 7
1 -9 -9 16.9 2.8
-1 -9 9 7.6 4.2
1 9 -9 14.1 1.8
-1 9 9 10 3.9
-1 9 9 14.1 3.1
0 -9 9 2.1 3.8
0 -9 -9 2.2 1.8
0 9 -9 2.3 1.6
0 9 9 -2.8 3.5
0 9 -9 0.6 1.1
0 9 9 1 2
-1 -9 -9 8 2.2
1 9 9 4.6 2.4
-1 9 -9 6.3 1.9
-1 9 -9 6.3 1.5
1 9 9 3.2 4
-2 -9 -9 112.09 6.5
-2 9 -9 105.59 5.8
2 9 9 83.79 11.5
2 9 9 102.59 6.8
-2 9 -9 118.29 5.6
-3 -9 -9 33.1 3.6
-3 9 -9 33.6 2.6
-3 9 -9 31.5 3
3 9 9 33.4 3.9
-4 -9 -9 9.3 2.4
-4 9 -9 9 1.6
4 9 9 10.3 2.7
-5 -9 -9 3.7 2.3
-5 9 -9 7.9 1.6
-5 9 -9 2.4 1.4
5 9 9 5.9 2.5
-6 -9 -9 15.3 3.2
6 9 9 11.4 2.9
-6 9 -9 13.2 1.9
-6 9 -9 15.6 2.2
-7 -9 -9 24.6 3.9
-7 9 -9 17.9 2.3
-7 9 -9 15.6 2.2
7 9 9 21.1 4.4
-8 -9 -9 5.1 2.9
-8 9 -9 3.6 1.8
-9 9 -9 38.6 4
-9 9 -9 40.5 3.2
-10 -9 -9 41.5 5.6
-10 9 -9 44.8 3.3
-10 9 -9 55.09 4.9
-11 -9 -9 8 4.4
-11 9 -9 3.6 1.8
-11 9 -9 6.8 3.3
-12 9 -9 4.1 3.3
-12 -10 9 1.7 5
-12 -10 9 -0.7 1.8
-12 10 9 0.1 4.8
12 10 -9 -0.3 5.4
11 10 -9 -2.7 4.3
-11 10 9 -0.4 3.9
10 10 -9 -0.6 4
-10 10 9 5.8 5.5
-9 10 9 -0.9 2.9
-8 10 9 0.5 2.6
-7 10 9 25.6 3.6
-7 10 9 21.2 4.2
-6 -10 9 2.2 2.7
-6 10 9 3.2 2.3
6 10 -9 7.3 1.3
-6 10 9 1.8 2.8
-5 -10 9 9.3 2.7
-5 10 9 17.6 3.7
-5 10 9 13.8 2.6
5 10 -9 14.5 1.7
-4 -10 9 26.9 3.4
4 10 -9 22.7 2
-4 10 9 19.3 5.2
-4 10 9 16.8 2.7
-3 10 9 0.5 2.2
3 10 -9 1.7 1.1
2 -10 -9 0.8 1.8
-2 10 9 0.5 2.1
2 10 -9 1.9 1.2
1 -10 -9 17.1 3
1 10 -9 15.2 2
-1 10 9 11.6 3
0 -10 -9 12.7 2.9
0 10 -9 13 1.9
0 10 -9 11.2 2.5
0 10 9 8.1 2.9
-1 -10 -9 1.2 1.8
1 10 9 1.8 2.1
-1 10 -9 -1.2 1.1
-2 -10 -9 14.7 2.9
-2 10 -9 15.4 2.5
2 10 9 19.2 3.5
-2 10 -9 12.3 1.9
-3 -10 -9 4.1 2.2
3 10 9 4.2 2.4
-3 10 -9 1.9 1.4
-4 -10 -9 0.8 2.1
-4 10 -9 0.9 1.3
4 10 9 0.1 2.3
-5 -10 -9 5.7 2.4
-5 10 -9 8.5 1.9
5 10 9 5.8 3.1
-6 -10 -9 17 4.5
-6 10 -9 9.4 2.1
6 10 9 8 3.1
-6 10 -9 17.7 2.3
-7 -10 -9 3.1 2.8
-7 10 -9 2.5 1.8
-7 10 -9 -0.6 1.5
-8 -10 -9 2.1 3
-8 10 -9 1.9 1.6
-8 10 -9 3 2.4
-9 -10 -9 2.6 3.5
-9 10 -9 -0.1 2.7
-9 10 -9 3.7 1.8
-10 -10 -9 -0.3 4.2
-10 10 -9 1.8 1.6
-10 10 -9 4.3 3.4
-11 -10 -9 9.8 4.9
-11 10 -9 17.6 2.2
-11 10 -9 12.1 4.6
11 11 -9 -3 6.2
-11 11 9 3.1 5
-10 11 9 3.4 4.4
10 11 -9 4.1 4.5
-9 11 9 3.8 4.4
-8 11 9 14 3.8
-7 11 9 -2.2 2.9
-6 11 9 93.09 6.3
6 11 -9 95.09 4.7
-5 11 9 37.6 5.2
5 11 -9 41 2.7
-4 11 9 158.88 9.8
4 11 -9 156.18 7.3
3 -11 -9 52.89 4.7
3 11 -9 45.5 3.1
-3 11 9 41.4 5.1
2 -11 -9 32.4 3.8
2 11 -9 29.4 2.5
-2 11 9 24.4 4.1
1 -11 -9 30 3.8
-1 11 9 22.5 3.9
1 11 -9 32.2 2.7
0 -11 -9 18.7 3.3
0 11 -9 26.1 2.5
0 11 9 32 4.7
0 11 -9 18.7 3
-1 -11 -9 -0.8 1.9
-1 11 -9 2.1 2.2
1 11 9 1.4 2.4
-1 11 -9 1.4 1.5
-2 -11 -9 3.9 2.4
-2 11 -9 2.5 3.1
-2 11 -9 7.6 1.9
2 11 9 7 2.7
-3 -11 -9 -2.3 2.2
-3 11 -9 0.9 1.5
3 11 9 3 2.6
-4 -11 -9 22.7 5.6
4 11 9 8.6 3.2
-4 11 -9 13.4 2.2
-5 -11 -9 23.5 3.8
5 11 9 29.5 4.5
-5 11 -9 35.1 3.9
-6 -11 -9 16.8 4
6 11 9 5.6 3.7
-6 11 -9 10.8 2.5
-7 -11 -9 45.4 5.4
-7 11 -9 45.2 3.9
-8 -11 -9 11.6 4.6
-8 11 -9 9.3 2.2
-8 11 -9 15 2.9
-9 -11 -9 17.5 4.7
-9 11 -9 31 3.4
-9 11 -9 34.1 4.1
-10 -11 -9 33.6 6.5
-10 11 -9 33.9 3.3
-10 11 -9 36.2 6.1
-11 -11 -9 13.5 6.8
-11 11 -9 17.6 4.2
-11 11 -9 9.5 2.2
10 12 -9 3 5.2
5 -12 -9 -0.3 2.7
5 12 -9 0.6 1.5
4 -12 -9 2.2 2.7
4 12 -9 0.4 1.5
-4 12 9 2.1 3.4
3 -12 -9 25.5 4.1
3 12 -9 17.3 2.1
-3 12 9 23.9 4.6
2 -12 -9 22.8 3.6
2 12 -9 24.5 2.6
-2 12 9 18.2 4
1 -12 -9 19.9 3.5
1 12 -9 29.7 2.9
-1 12 9 21.8 4.3
0 -12 -9 49.4 4.9
0 12 9 47.1 5.8
0 12 -9 50.89 4.8
0 12 -9 50.59 3.8
-1 -12 -9 38.1 4.6
-1 12 -9 38.7 4.6
-1 12 -9 42.8 3.9
1 12 9 27.5 4.6
-2 -12 -9 55.89 5.3
-2 12 -9 64.39 6.5
2 12 9 46.5 5.9
-3 -12 -9 92.59 6.7
3 12 9 83.09 7.3
-3 12 -9 87.29 5.5
-4 -12 -9 45.3 5.3
4 12 9 33 5.3
-4 12 -9 43.4 4.2
-5 -12 -9 22 4.2
-5 12 -9 14.1 2.9
-6 -12 -9 17.4 4.4
-6 12 -9 10 2.7
-7 -12 -9 1.2 3.5
-7 12 -9 -3.9 2.5
-8 -12 -9 -3.8 3.8
-8 12 -9 -0.6 2.4
-9 -12 -9 1.5 4.9
-9 12 -9 0.2 2.4
-10 -12 -9 -6 6.1
-10 12 -9 1.4 2.1
9 13 -9 -0.2 5
7 -13 -9 -2.3 3.7
6 -13 -9 1.5 3.5
5 -13 -9 10 3.8
5 13 -9 12.6 2
4 -13 -9 13.8 3.9
4 13 -9 9.1 2
3 -13 -9 5.1 3.3
3 13 -9 7.6 2.2
2 -13 -9 8.8 3.3
2 13 -9 11.4 2.4
1 -13 -9 1.5 3
1 13 -9 2 3.1
1 13 -9 1.2 2.2
0 -13 -9 0.5 3
0 13 -9 -2.5 3.5
0 13 -9 1.6 2.3
0 13 9 -0.3 3.6
-1 -13 -9 12.3 3.8
-1 13 -9 8.5 3.1
-2 -13 -9 0.9 3
-2 13 -9 9.4 3.2
-3 -13 -9 16 4.1
-3 13 -9 8.8 3
-4 -13 -9 1.9 3.5
-4 13 -9 4.1 3.1
-5 -13 -9 0.9 3.4
-5 13 -9 1 3.2
-6 -13 -9 3.3 3.7
-6 13 -9 15.9 3.5
-7 -13 -9 -3.2 4.2
-7 13 -9 0.2 3.7
-8 -13 -9 2 5.3
-8 13 -9 4.6 3
7 -14 -9 3.1 4.9
7 14 -9 -2.1 4.7
6 -14 -9 -1.9 3.9
5 -14 -9 7.7 4.1
4 -14 -9 3.9 4.8
4 14 -9 -0.2 2.2
3 -14 -9 4.8 4
3 14 -9 0.7 2.5
2 -14 -9 11.6 4.5
2 14 -9 2.5 2.8
2 14 -9 4.2 4.3
1 -14 -9 0.6 4.5
1 14 -9 0.2 2.8
0 -14 -9 -7.5 5.3
-1 -14 -9 2.4 4.5
-1 14 -9 1.3 3.3
-2 -14 -9 17.8 4.5
-2 14 -9 13.9 3.7
-3 -14 -9 24.6 5.6
-3 14 -9 36.6 4.8
-4 -14 -9 17.1 4.9
-4 14 -9 12.7 4.2
-5 -14 -9 6.3 4.6
-5 14 -9 11.7 5.2
-6 -14 -9 -3.8 4.3
-6 14 -9 -4.1 3.3
-7 -14 -9 2.8 5.4
-7 14 -9 0.6 3.5
5 -15 -9 -0.1 4.5
5 15 -9 1.5 6
4 -15 -9 6.4 4.7
4 15 -9 13.4 5.5
4 15 -9 12.6 2.8
3 -15 -9 28.7 6.4
3 15 -9 15.1 3.2
3 15 -9 21.8 6.3
2 -15 -9 33.6 6.1
2 15 -9 23.5 3.7
1 -15 -9 5.7 4.8
1 15 -9 11.7 4.2
0 -15 -9 4.6 4.4
0 15 -9 10.1 4.2
-1 -15 -9 4.2 4.2
-1 15 -9 10.1 7.1
-2 -15 -9 -4.6 4
-2 15 -9 4.8 4.7
-3 -15 -9 3.4 4.6
-3 15 -9 3.7 4.3
-4 -15 -9 7.4 5.4
-4 15 -9 8.7 4.4
-16 0 10 19.7 4.6
-16 0 10 3.5 6
-15 0 10 15.1 4.3
-15 0 10 10.7 5.3
-14 0 10 48.6 5.4
-13 0 10 26.1 4.9
-13 0 10 26.4 3.5
-12 0 10 17.7 4
12 0 -10 17.7 3.4
-12 0 10 16 2.5
11 0 -10 158.08 8.5
-11 0 10 164.58 9.5
10 0 -10 8.5 2.2
-10 0 10 8.7 2.6
-9 0 10 2.4 2
9 0 -10 3.8 1.9
-9 0 10 6.6 2.2
9 0 -10 2.4 3.8
-8 0 10 2.2 1.6
8 0 -10 2 2.7
8 0 -10 2.2 1.6
-7 0 10 3.7 1.6
-7 0 10 4 2.3
7 0 -10 7 2.3
7 0 -10 4 1.7
-6 0 10 10.3 1.9
6 0 -10 13.3 2.1
-6 0 10 7.7 2.1
6 0 -10 10.5 2.1
5 0 -10 4.2 1.6
5 0 -10 3 1.5
4 0 -10 374.36 15.2
4 0 -10 360.66 15
-4 0 10 360.16 16.1
4 0 -10 363.86 15.9
3 0 -10 84.79 4.8
3 0 -10 88.99 4
-3 0 10 80.29 4.8
2 0 -10 2.2 1.3
-2 0 10 4.3 1.3
2 0 -10 3.8 0.9
0 0 -10 588.94 24
0 0 -10 575.44 24.5
0 0 10 603.64 24.4
-1 0 -10 1163.58 46.3
1 0 10 1137.09 45.8
-1 0 -10 1111.19 45.7
2 0 10 245.28 10.2
-2 0 -10 244.48 10.3
-3 0 -10 121.09 5.4
-4 0 -10 142.29 6.4
-4 0 -10 150.38 6.5
-5 0 -10 16.3 1.4
-5 0 -10 18.4 1.5
-6 0 -10 63.09 3.2
-6 0 -10 60.69 3.2
-7 0 -10 15.3 1.6
-7 0 -10 10.5 1.3
-8 0 -10 59.49 3.7
-8 0 -10 56.59 3
-9 0 -10 13.3 1.6
-10 0 -10 3.2 1.2
-11 0 -10 4.8 1.3
-12 0 -10 10.9 1.7
-13 0 -10 12.1 1.9
-14 0 -10 30.5 2.8
-15 -1 10 0.5 4.8
-15 -1 10 0 4.5
-15 1 10 4.7 4.6
-15 1 10 -0.5 4.8
-14 -1 10 7.6 3.5
-14 -1 10 -0.3 3.9
-14 1 10 1.8 4.3
-14 1 10 3.6 3.4
-13 -1 10 18.4 4.5
-13 -1 10 22.5 3.4
13 1 -10 11 3.7
-13 1 10 14.3 3.9
-13 1 10 18.5 3.1
12 -1 -10 46.5 4.9
-12 -1 10 58.79 5.8
-12 1 10 49.9 5.6
-12 1 10 66.29 4.6
12 1 -10 67.19 5.1
11 -1 -10 91.79 5.8
-11 -1 10 95.49 6.6
-11 1 10 90.79 5.1
11 1 -10 82.29 5.9
-11 1 10 87.99 6.6
10 -1 -10 2.3 1.8
-10 -1 10 6.1 2.6
-10 1 10 3.2 2.3
10 1 -10 5.5 2.3
9 -1 -10 0.4 1.9
9 -1 -10 -0.4 3.8
-9 -1 10 0.7 1.8
9 1 -10 -1 3.8
9 1 -10 -0.4 1.7
-9 1 10 1.1 1.8
-9 1 10 -1.2 1.6
8 -1 -10 0.8 1.4
-8 -1 10 -0.1 1.5
8 -1 -10 4.2 2.9
8 1 -10 -1.5 1.5
8 1 -10 0.2 2.7
-8 1 10 1 1.6
7 -1 -10 6 2.3
-7 -1 10 5.2 1.7
7 -1 -10 6.4 1.8
-7 -1 10 4.1 2.3
-7 1 10 8.8 2.1
-7 1 10 2.6 2.2
7 1 -10 7.1 2.4
-7 1 10 8 1.9
7 1 -10 7.4 2
6 -1 -10 50.29 3.8
-6 -1 10 47.8 4.1
6 -1 -10 48.1 3.5
6 1 -10 43.9 3.9
-6 1 10 50.39 3.6
-6 1 10 42 4
6 1 -10 44.5 3.6
-5 -1 10 36.1 4.2
5 -1 -10 24.3 2.6
5 -1 -10 29.8 2.6
-5 1 10 25.7 2.7
5 1 -10 26.5 1.7
5 1 -10 28.5 2.7
5 1 -10 27.6 2.7
4 -1 -10 19.3 2.2
-4 -1 10 20.2 2.5
-4 1 10 15.5 2.1
4 1 -10 18.8 1.9
4 1 -10 17.7 1.4
4 1 -10 22.3 2.4
3 -1 -10 0.9 1.1
-3 -1 10 -0.2 1.1
3 -1 -10 2 0.8
-3 1 10 1 1.2
3 1 -10 0.6 0.7
3 1 -10 2.7 1.4
2 -1 -10 197.18 8.1
2 -1 -10 196.38 8.8
-2 -1 10 185.38 8.8
2 1 -10 190.98 8.1
-2 1 10 178.68 8.8
2 1 -10 184.08 8.8
-1 -1 10 384.76 16.4
1 -1 -10 362.76 16.1
1 -1 -10 394.76 15.5
-1 1 10 368.06 16.3
1 1 -10 358.56 15.5
1 1 -10 386.06 16.2
0 -1 -10 27.9 1.6
0 -1 -10 27.3 1.8
0 -1 -10 28.3 2.3
0 -1 10 29.3 2.7
0 1 -10 28.1 2.4
0 1 -10 24.8 1.8
1 -1 10 2 0.8
-1 -1 -10 1.9 1.1
-1 -1 -10 0.8 0.7
-1 1 -10 1.3 0.8
1 1 10 1.6 0.8
2 -1 10 45 2.5
-2 -1 -10 44.1 2.9
-2 -1 -10 49.1 2.5
-2 -1 -10 44.5 2.3
-2 1 -10 46 2.5
-2 1 -10 45.3 2.9
2 1 10 46.7 2.5
-3 -1 -10 263.67 11.5
-3 -1 -10 287.97 12
-3 -1 -10 281.37 11.6
-3 1 -10 265.37 11.5
-3 1 -10 286.77 11.9
-3 1 -10 270.77 11.6
-4 -1 -10 199.48 9.1
-4 -1 -10 204.58 8.6
-4 -1 -10 188.68 8.6
-4 -1 -10 200.48 8.5
-4 1 -10 204.08 8.6
-4 1 -10 198.08 8.6
-4 1 -10 211.48 8.9
-5 -1 -10 0.4 0.7
-5 -1 -10 0.5 0.9
-5 -1 -10 0.7 0.7
-5 1 -10 0.8 0.7
-5 1 -10 0.8 0.8
-5 1 -10 0.7 1
-6 -1 -10 7.6 1.1
-6 -1 -10 7.7 1.1
-6 1 -10 5.8 1
-6 1 -10 6.3 1.1
-7 -1 -10 22.8 1.7
-7 -1 -10 24.3 1.8
-7 1 -10 23.5 1.9
-7 1 -10 20.7 1.7
-8 -1 -10 31.4 2.1
-8 1 -10 28.7 2.6
-8 1 -10 27.5 2
-9 -1 -10 28.5 3
-9 1 -10 24.9 1.8
9 1 10 26.3 3.5
-9 1 -10 25.2 2.2
-10 -1 -10 24.5 2.1
-10 1 -10 30.2 2.4
-10 1 -10 28.9 1.9
-11 -1 -10 13.1 1.7
-11 1 -10 12 1.8
-12 -1 -10 0.2 1.1
-12 1 -10 2.1 1.4
-13 -1 -10 0.5 1.3
-13 1 -10 0.3 1.5
-14 1 -10 9.8 2
-15 1 -10 2.8 1.8
-15 -2 10 1.1 5.2
-15 2 10 4.7 5.5
-15 2 10 -4.4 4.1
-14 -2 10 1.5 2.7
-14 -2 10 0.9 4.2
-14 2 10 -1.7 4.2
-14 2 10 0.1 3.6
-13 -2 10 4.6 3.4
-13 -2 10 2 2.3
-13 2 10 -2.8 2.5
13 2 -10 4 3.1
-13 2 10 -3 3.4
12 -2 -10 38.5 4.6
-12 2 10 38.7 4.4
-12 2 10 47.4 5.3
12 2 -10 43.3 5.1
11 -2 -10 34 3.7
-11 -2 10 33.9 4.4
11 2 -10 33 3.8
-11 2 10 37.6 3.1
-11 2 10 38.6 4.5
-10 -2 10 172.38 9.7
10 -2 -10 169.48 8.9
10 2 -10 184.48 9.5
-10 2 10 183.78 9.8
9 -2 -10 54.19 6.5
-9 2 10 83.49 5.6
-9 2 10 83.89 4.9
9 2 -10 78.59 5.3
8 -2 -10 43.5 3.5
-8 -2 10 39.4 3.2
8 -2 -10 40.9 4.4
-8 2 10 36.2 5.2
-8 2 10 41.2 3.4
8 2 -10 39 4.3
-7 -2 10 46.5 4.7
7 -2 -10 41 4.4
7 -2 -10 44.5 3.5
7 2 -10 43 3.6
-7 2 10 46.8 3.8
-7 2 10 42.4 3.5
7 2 -10 45.6 4.6
-7 2 10 45.8 4.7
6 -2 -10 12.6 2.2
6 -2 -10 13.3 2.1
-6 -2 10 10.3 2.4
6 2 -10 15 2.4
6 2 -10 11.7 2.3
-6 2 10 15.6 2.4
-6 2 10 15.5 2.4
6 2 -10 11.9 1.2
-6 2 10 9.2 2.3
5 -2 -10 3.7 1.5
5 -2 -10 2.4 1.4
-5 -2 10 3.3 1.7
-5 2 10 2.6 1.4
-5 2 10 4.2 1.7
5 2 -10 4.8 1.7
5 2 -10 1.7 1.4
-5 2 10 2.9 1.7
5 2 -10 4.2 0.9
4 -2 -10 386.06 16.7
-4 -2 10 388.46 17
-4 2 10 396.16 17.2
4 2 -10 393.56 15.9
-4 2 10 386.86 16.7
-4 2 10 369.46 16.9
3 -2 -10 60.19 3.7
-3 -2 10 61.89 4.1
3 2 -10 61.99 3.9
3 2 -10 62.49 3.1
-3 2 10 58.49 4
-2 -2 10 53.79 3.6
2 -2 -10 60.19 3.6
2 2 -10 53.79 2.8
-2 2 10 53.29 3.6
2 2 -10 56.09 3.6
1 -2 -10 551.24 22.8
-1 -2 10 538.15 22.8
1 -2 -10 546.35 22.2
1 2 -10 549.95 22.2
-1 2 10 537.65 22.8
1 2 -10 540.05 22.8
0 -2 -10 28 1.9
0 -2 10 28.3 2.4
0 -2 -10 33.6 1.9
0 -2 -10 31 2.5
0 2 10 30.9 2.4
0 2 -10 27.8 1.9
0 2 -10 27.9 2.5
-1 -2 -10 63.69 3.7
-1 -2 -10 66.39 3.2
-1 -2 -10 59.89 3.1
-1 2 -10 61.79 3.2
1 2 10 61.89 3.7
-2 -2 -10 137.99 6.2
-2 -2 -10 134.89 6.3
2 -2 10 148.09 6.5
-2 -2 -10 144.89 6.8
-2 2 -10 139.29 6.7
-2 2 -10 146.99 6.3
-3 -2 -10 73.99 4.2
-3 -2 -10 74.29 3.8
-3 -2 -10 77.39 3.6
-3 2 -10 72.89 3.9
3 2 10 77.59 3.5
-3 2 -10 71.49 3.7
-3 2 -10 74.89 3.7
-4 -2 -10 11.2 1.3
-4 -2 -10 13.4 1.5
-4 -2 -10 16.4 2
-4 2 -10 13.9 1.5
-4 2 -10 12.1 1.4
-4 2 -10 14.2 1.6
-5 -2 -10 0.6 1
-5 -2 -10 -0.2 0.6
-5 -2 -10 0.6 0.6
-5 2 -10 0.2 0.8
-5 2 -10 0.6 0.8
-5 2 -10 -0.1 0.9
-6 -2 -10 2.3 1.3
-6 -2 -10 2.7 0.8
-6 2 -10 3.1 0.9
-6 2 -10 3.3 1.1
-7 -2 -10 2.4 1.5
-7 -2 -10 5 1
7 2 10 3.3 1.9
-7 2 -10 4.4 1.3
-7 2 -10 5.4 1.1
-8 -2 -10 37 2.3
-8 2 -10 38.5 2.6
-8 2 -10 38.1 2.4
-9 -2 -10 31.9 2.2
-9 2 -10 35.4 2.6
9 2 10 39.2 4
-9 2 -10 36.8 2.4
-10 -2 -10 -1 0.9
-10 2 -10 0.6 0.8
-10 2 -10 0.3 1
-11 -2 -10 -1.5 0.9
-11 2 -10 0.7 1.3
-12 -2 -10 29 2.5
-12 2 -10 29.6 2.9
-13 2 -10 3.6 1.7
-14 2 -10 0 1.8
-15 -3 10 -4.1 6
-15 -3 10 -3.6 3.4
-15 3 10 -2.4 3.9
-14 -3 10 1.4 2.7
-14 -3 10 2 5.1
-14 3 10 -0.3 3.5
-14 3 10 2.5 4.3
-13 -3 10 4.7 3.9
-13 -3 10 8.2 2.8
-13 3 10 7.5 4
13 3 -10 10 3.7
-13 3 10 8.5 3.1
-12 -3 10 14.5 3.9
-12 3 10 12.5 2.7
12 3 -10 10.6 3.2
-12 3 10 10.3 3.5
-11 -3 10 12.8 3.2
11 -3 -10 8.7 2.6
-11 3 10 10.4 3.1
-11 3 10 13.3 2.2
11 3 -10 9.8 2.9
10 -3 -10 5.7 1.9
-10 3 10 -1.4 2
10 3 -10 0.2 2
-10 3 10 -0.8 1.2
9 -3 -10 233.48 12.1
-9 3 10 271.67 11.9
9 3 -10 257.97 12.5
-9 3 10 254.17 12.6
8 -3 -10 372.46 18
8 -3 -10 394.76 17.3
-8 3 10 409.76 17.4
8 3 -10 406.16 17.8
8 3 -10 376.46 18.1
-8 3 10 395.76 17.8
7 -3 -10 312.07 14.4
-7 3 10 322.77 14.7
-7 3 10 327.17 14.9
7 3 -10 341.17 15
6 -3 -10 397.56 17.8
6 -3 -10 406.76 17.8
-6 -3 10 473.55 19.9
6 3 -10 394.96 17.7
-6 3 10 415.26 18.1
6 3 -10 399.36 16.8
6 3 -10 390.36 18.1
-6 3 10 417.36 18
-5 -3 10 787.22 34.4
5 -3 -10 824.92 34
5 -3 -10 839.22 34.2
-5 3 10 857.51 34.1
5 3 -10 803.02 33.1
-5 3 10 818.22 34.4
5 3 -10 830.82 34.4
-5 3 10 807.22 34.4
4 -3 -10 59.69 3.9
4 -3 -10 62.29 3.4
-4 3 10 57.29 4.3
4 3 -10 62.69 4.1
4 3 -10 66.49 3.2
-4 3 10 64.89 4.4
-4 3 10 64.69 3.9
3 -3 -10 1.4 1.3
-3 -3 10 3.1 1.8
-3 3 10 0.5 1
3 3 -10 0.2 0.7
3 3 -10 0.4 1.3
-3 3 10 2.2 1.6
2 -3 -10 1.7 1.3
-2 -3 10 1.7 1.6
2 3 -10 4.1 0.9
-2 3 10 2.3 1.7
2 3 -10 1.6 1.3
-2 3 10 1.2 1
-1 -3 10 10.2 2.1
1 -3 -10 14.1 2
1 3 -10 14.7 2.1
-1 3 10 14.2 1.5
1 3 -10 15.2 1.4
-1 3 10 12.7 2.4
0 -3 -10 385.96 16.6
0 -3 -10 379.86 16.2
0 3 -10 379.36 16
0 3 -10 394.46 16.6
0 3 10 397.56 15.9
-1 -3 -10 282.47 12.1
-1 -3 -10 293.67 12.6
-1 3 -10 283.17 12
-1 3 -10 281.57 12.5
-2 -3 -10 1025.2 41.5
2 -3 10 1028.6 41.8
-2 -3 -10 997.2 41.1
-2 3 -10 1008.2 40.9
-2 3 -10 1006.4 41.2
-3 -3 -10 352.16 15.5
-3 -3 -10 370.06 15.9
-3 3 -10 365.86 15.3
-3 3 -10 401.66 15.9
-3 3 -10 354.96 15.3
-4 -3 -10 227.88 10.6
4 3 10 236.48 11.6
4 3 10 248.68 10.7
-4 3 -10 247.58 10.3
-4 3 -10 240.18 10.3
-4 3 -10 234.48 10.4
4 3 10 246.28 10.2
-5 -3 -10 370.66 16.1
-5 3 -10 375.06 15.6
-5 3 -10 380.06 15.7
-5 3 -10 389.26 15.7
5 3 10 379.16 17
5 3 10 403.36 15.5
5 3 10 333.57 15.6
-6 -3 -10 362.96 16.7
-6 3 -10 389.46 16.2
6 3 10 370.46 17.4
-6 3 -10 380.86 16.3
6 3 10 432.86 16.2
-7 -3 -10 250.87 10.2
-7 -3 -10 248.08 11.2
7 3 10 229.18 10.3
-8 -3 -10 171.08 7.2
-8 -3 -10 158.18 8.3
8 3 10 163.78 8.7
-8 3 -10 171.08 7.7
-9 -3 -10 66.89 3.4
-9 3 -10 64.89 3.5
9 3 10 73.19 6.2
-9 3 -10 71.09 4
-10 -3 -10 11.3 2
-10 3 -10 13.8 1.5
-10 3 -10 16.1 2.1
-11 3 -10 1.5 2.1
-12 3 -10 4 1.9
-13 3 -10 4.2 2.1
-14 3 -10 -0.2 2.2
-15 -4 10 -4.2 4.6
-15 -4 10 4.1 3.1
-15 4 10 6.6 4.5
-15 4 10 7.2 5.3
-14 -4 10 9.9 4.7
-14 -4 10 3.3 3
-14 4 10 4.2 4.4
-14 4 10 6.8 3.7
-13 -4 10 13.2 4.3
-13 -4 10 9.9 2.6
13 4 -10 8.6 3.6
-13 4 10 17 3.2
-13 4 10 21.2 4.5
-12 -4 10 106.59 7.7
12 4 -10 91.09 7
-12 4 10 104.79 6.1
-12 4 10 106.89 7.6
-11 -4 10 47.3 7.3
11 -4 -10 40.5 4.3
11 4 -10 46.2 4.7
-11 4 10 46.9 3.5
-11 4 10 41.9 4.8
10 -4 -10 64.89 4.6
10 4 -10 54.19 4.9
-10 4 10 65.49 3.9
-10 4 10 58.09 5.2
9 -4 -10 186.28 9.5
-9 4 10 196.98 10.3
-9 4 10 194.58 9.7
9 4 -10 188.78 10.2
-9 4 10 210.38 9
8 -4 -10 108.29 8.2
8 -4 -10 118.89 6.3
8 4 -10 110.69 8.3
-8 4 10 121.69 6.9
8 4 -10 115.29 6.9
-8 4 10 112.39 6.5
7 -4 -10 4.1 1.7
7 -4 -10 0.6 2.6
7 4 -10 0.7 2.8
-7 4 10 2.2 2.1
7 4 -10 0.1 1.7
-7 4 10 0.7 1.6
7 4 -10 0 0.6
6 -4 -10 61.49 4.1
6 -4 -10 60.39 4.7
-6 -4 10 63.49 5.5
6 4 -10 50.89 4.6
6 4 -10 68.69 4.6
6 4 -10 67.49 3.2
-6 4 10 64.79 4.5
-6 4 10 61.69 4.2
-6 4 10 64.79 6.1
5 -4 -10 132.99 6.8
-5 -4 10 146.29 8.5
5 -4 -10 133.49 6.7
5 4 -10 131.89 5.9
5 4 -10 138.49 7.2
-5 4 10 131.09 7.3
-5 4 10 125.89 8
-5 4 10 133.49 6.8
4 -4 -10 0.3 1
4 -4 -10 2.8 1.3
4 -4 -10 1.2 1.2
-4 -4 10 2.8 2
-4 4 10 1.8 1.7
-4 4 10 2.3 1.6
4 4 -10 3.8 0.9
-4 4 10 1.3 1.2
4 4 -10 3 1.6
3 -4 -10 143.59 7.1
-3 -4 10 138.29 7.5
-3 4 10 148.89 7.7
-3 4 10 144.19 6.8
-3 4 10 134.39 7.3
3 4 -10 145.29 7.3
3 4 -10 142.29 6.3
2 -4 -10 343.57 15.9
-2 -4 10 371.26 16.3
2 4 -10 363.76 15.3
-2 4 10 371.16 16.2
2 4 -10 369.76 16.1
-2 4 10 374.46 15.5
-2 4 10 386.76 16.7
-1 -4 10 787.92 34
-1 4 10 848.42 34.7
-1 4 10 776.42 33.9
1 4 -10 810.12 33.2
-1 4 10 866.11 33.2
1 4 -10 834.92 34
0 -4 10 90.99 5
0 -4 -10 92.49 4.6
0 -4 -10 71.19 4.7
0 4 10 85.69 4.9
0 4 -10 94.79 4.3
0 4 10 94.49 3.9
0 4 10 95.19 5.5
0 4 -10 86.19 4.8
1 -4 10 15.3 1.9
-1 -4 -10 13.8 2
-1 -4 -10 13.5 1.7
-1 4 -10 15.8 1.9
1 4 10 13.1 2.4
-1 4 -10 16.2 1.5
1 4 10 16.1 2.2
2 -4 10 107.79 5.5
-2 -4 -10 103.49 5.2
-2 -4 -10 105.99 5.6
2 4 10 99.39 5.3
-2 4 -10 104.79 4.9
2 4 10 108.59 6.2
-3 -4 -10 0.6 1.2
-3 -4 -10 1.2 1.2
3 -4 10 2.2 1.3
-3 4 -10 1.6 0.9
-3 4 -10 -0.2 1
3 4 10 -1.5 1.1
-3 4 -10 1.3 0.9
3 4 10 1.3 1.6
-4 -4 -10 1.2 1.2
-4 4 -10 4.1 1.2
-4 4 -10 2.6 1
-4 4 -10 2.7 1
4 4 10 2.7 1.8
-5 -4 -10 17.3 2.1
5 4 10 13.8 1.8
-5 4 -10 13.4 1.6
-5 4 -10 13.9 1.6
5 4 10 14.9 2.6
-5 4 -10 14.2 1.5
-6 -4 -10 59.59 4
6 4 10 55.09 3.9
6 4 10 49.7 6.3
-6 4 -10 63.29 3.4
-7 -4 -10 87.19 5.4
7 4 10 92.29 5.8
7 4 10 87.09 5.5
-7 4 -10 97.49 5.2
-7 4 -10 98.09 4.8
-8 -4 -10 31.9 3.4
-8 4 -10 30.5 2.6
8 4 10 33.3 3.8
-8 4 -10 36.8 2.4
-9 -4 -10 38.8 3.9
-9 4 -10 44.3 3.1
-9 4 -10 39.1 2.6
-10 4 -10 22.4 2.5
-10 4 -10 13 1.5
-11 4 -10 37.7 2.6
-11 4 -10 39.5 3.4
-12 4 -10 45.3 3.8
-13 4 -10 12.4 2.6
-14 4 -10 12.3 2.7
-15 -5 10 2.5 5.2
-15 -5 10 1.4 2.9
-15 5 10 9.1 5.4
-15 5 10 -0.7 4.1
-14 -5 10 4.2 4.5
-14 -5 10 -1.3 2.7
-14 5 10 0 3.7
-14 5 10 7.2 5
14 5 -10 1.2 9.7
-13 -5 10 -5.3 4.6
-13 -5 10 -2.6 2.4
-13 5 10 -10.4 6.4
-13 5 10 -1.8 3.1
-12 -5 10 2.7 3.3
12 5 -10 3.6 3.3
-12 5 10 -2.3 1.9
-12 5 10 2.8 3.5
-11 -5 10 4.4 3.1
-11 5 10 2.2 1.7
-11 5 10 2.1 2.6
11 5 -10 3 2.7
10 -5 -10 4.2 2.7
10 5 -10 7 2.8
-10 5 10 4.2 1.5
-10 5 10 1 2.4
9 -5 -10 36.1 3.5
-9 5 10 35.7 2.8
-9 5 10 36.1 4.1
9 5 -10 37.7 4.1
-9 5 10 36.1 4
-8 5 10 1.7 1.9
-8 5 10 -1.3 0.9
8 5 -10 1.7 2.1
-8 5 10 -1.1 1.9
7 -5 -10 42.5 5.5
7 -5 -10 42.1 3.4
-7 5 10 40.5 2.6
7 5 -10 38.1 2.2
-7 5 10 37.6 3.7
7 5 -10 43.6 4
-7 5 10 43.1 3.7
7 5 -10 42.3 5.4
6 -5 -10 15.6 2.3
6 -5 -10 12.1 3
-6 5 10 11.5 2.2
-6 5 10 14 1.5
6 5 -10 9 2.7
-6 5 10 16.2 2.7
6 5 -10 11.8 1.3
-5 -5 10 -1.2 2.4
5 -5 -10 0.6 1.3
5 -5 -10 1.3 1.8
5 5 -10 2.6 1.8
-5 5 10 1.6 1.7
-5 5 10 1.2 2.3
5 5 -10 -0.2 0.6
-5 5 10 1.3 1.4
4 -5 -10 30.4 2.8
-4 -5 10 26.3 3.4
4 -5 -10 38.9 2.7
4 -5 -10 28.8 2.5
-4 5 10 30.5 3.7
-4 5 10 29.1 3.6
4 5 -10 33 3.1
-4 5 10 30.3 2.7
4 5 -10 29.6 2
3 -5 -10 5.1 1.6
-3 -5 10 1.8 1.9
-3 5 10 4.5 1.9
3 5 -10 4.5 1.7
-3 5 10 4.8 1.8
3 5 -10 3.4 0.9
-3 5 10 4.5 2.1
2 -5 -10 37.9 2.9
-2 -5 10 34.6 3.7
2 5 -10 31.3 3
-2 5 10 38.1 3.6
-2 5 10 35.8 3.4
2 5 -10 36 2.3
-2 5 10 42 2.6
-1 -5 10 129.39 7
1 -5 -10 126.69 6.6
-1 5 10 136.79 5.8
1 5 -10 131.49 6.7
-1 5 10 129.79 7.2
1 5 -10 126.29 5.9
-1 5 10 125.99 6.8
0 -5 -10 100.99 5.1
0 -5 10 89.29 5.5
0 -5 -10 93.09 5.2
0 5 10 97.69 5.8
0 5 10 89.19 5.3
0 5 -10 93.19 5.1
0 5 -10 96.29 4.6
-1 -5 -10 193.88 9.2
-1 -5 -10 198.18 9
-1 5 -10 208.08 9.1
1 5 10 184.08 9.7
-1 5 -10 188.38 8.5
-2 -5 -10 1.6 1.4
-2 -5 -10 3.1 1.4
2 -5 10 1.7 1.6
-2 5 -10 1.9 1
2 5 10 1.6 1.4
-2 5 -10 1.7 1.2
2 5 10 -0.3 1.4
3 -5 10 80.59 5.1
-3 -5 -10 84.89 4.8
-3 5 -10 86.99 4.5
3 5 10 102.19 7.8
-3 5 -10 87.89 4.3
3 5 10 87.09 5
-3 5 -10 84.89 4.3
-4 -5 -10 18.6 2.3
-4 5 -10 20.3 1.8
4 5 10 20.8 2.9
-4 5 -10 19.6 1.9
4 5 10 17.1 2.9
-4 5 -10 22.7 1.9
-5 -5 -10 0.9 1.3
-5 5 -10 2.3 1.1
-5 5 -10 1.6 1.1
5 5 10 0.3 1.6
-6 -5 -10 7.4 2
6 5 10 7.6 2.2
6 5 10 10.2 2.4
-6 5 -10 10.9 1.5
-7 -5 -10 5.1 2.4
-7 5 -10 5.6 1.3
-7 5 -10 5.2 1.3
7 5 10 3.9 2
-8 -5 -10 61.19 4.7
-8 5 -10 67.39 3.8
-8 5 -10 59.59 3.5
8 5 10 58.79 4.8
-9 -5 -10 19.2 3.1
-9 5 -10 20.7 2
-9 5 -10 23.9 2.4
-10 -5 -10 25.6 3.9
-10 5 -10 21.2 2
-10 5 -10 17.4 2.5
-11 5 -10 -0.4 1.9
-11 5 -10 1.8 1.1
-12 5 -10 2.5 2.3
-13 5 -10 7.8 3
-14 5 -10 2.5 4.6
-14 -6 10 0 5
-14 -6 10 -1.4 2.5
-14 6 10 2 4.7
14 6 -10 4.2 5.8
-14 6 10 0.7 3.6
-13 -6 10 -5.7 5.3
-13 -6 10 2.1 2.3
13 6 -10 1.5 4
-13 6 10 1.6 3.2
-13 6 10 2.8 5.7
-12 -6 10 48.6 5.9
-12 6 10 42.3 4.3
12 6 -10 29.7 4.6
-12 6 10 46.7 5.8
-11 6 10 4 1.9
-11 6 10 1.5 2.8
11 6 -10 1.9 2.7
10 -6 -10 1.3 4.1
-10 6 10 -0.3 2.5
10 6 -10 0.2 2.5
-10 6 10 2 1.3
9 -6 -10 7.7 2.3
9 6 -10 4.8 2.5
-9 6 10 8.2 1.5
-9 6 10 4.7 2.7
-9 6 10 9.6 2.6
8 -6 -10 11.9 2.3
8 6 -10 15.2 3.1
-8 6 10 15.6 3
-8 6 10 14 1.7
-8 6 10 10.5 2.8
-7 6 10 5.4 2.4
7 6 -10 8.2 1.1
-7 6 10 3.9 2
7 6 -10 5.1 2.3
6 -6 -10 1.3 1.4
6 -6 -10 3.9 2.9
-6 6 10 0.2 0.8
-6 6 10 2.5 1.9
-6 6 10 1.8 1.6
6 6 -10 0.1 0.7
6 6 -10 -1.1 1.7
5 -6 -10 33.5 3.8
-5 -6 10 43.3 5.6
5 -6 -10 36.2 3.1
5 6 -10 31.2 3.4
-5 6 10 30.7 3.9
5 6 -10 34.7 2.2
-5 6 10 35.7 2.2
-5 6 10 34.1 3.7
-5 6 10 38.8 3.2
4 -6 -10 86.29 5.1
-4 6 10 90.79 6.3
4 6 -10 90.79 5.5
-4 6 10 86.59 4.9
4 6 -10 85.79 4.3
-4 6 10 90.99 5.8
-4 6 10 88.49 4.1
-3 -6 10 180.68 10.7
3 -6 -10 177.08 8.9
3 6 -10 191.18 9.2
-3 6 10 186.78 9.6
-3 6 10 174.78 7.7
-3 6 10 186.68 10.1
3 6 -10 188.88 8.1
-3 6 10 190.08 8.6
-2 -6 10 334.07 16.4
2 -6 -10 352.36 15.9
-2 6 10 361.56 16.4
2 6 -10 361.16 16.1
2 6 -10 363.76 15.2
-2 6 10 372.56 15.2
-2 6 10 392.56 16.9
-1 -6 10 328.37 15.5
1 -6 -10 349.96 15.1
1 6 -10 340.97 15.1
-1 6 10 310.37 15.2
-1 6 10 360.66 15.9
1 6 -10 349.96 14.3
0 -6 -10 471.95 20
0 -6 -10 414.66 19.6
0 -6 10 457.65 20.2
0 6 10 449.36 20
0 6 -10 475.35 19.2
0 6 10 504.95 20.8
1 -6 10 257.77 12.6
-1 -6 -10 278.37 12.3
-1 6 -10 277.17 12.2
-1 6 -10 267.37 11.6
1 6 10 254.47 12.4
1 6 10 294.97 13.2
-2 -6 -10 222.08 10.1
2 -6 10 203.78 10.4
2 6 10 236.48 11
2 6 10 201.18 10.3
-2 6 -10 219.48 9.5
-2 6 -10 218.58 9.8
-3 -6 -10 74.29 4.5
3 -6 10 72.19 5.3
3 6 10 72.19 5.1
3 6 10 64.79 5
4 -6 10 26.4 3.3
-4 -6 -10 27.9 2.9
4 6 10 22.7 3
-4 6 -10 27 2.2
-4 6 -10 27.1 2.2
4 6 10 23.8 3.2
-4 6 -10 28.5 2.2
-5 -6 -10 2.3 1.6
5 6 10 0.1 2.6
-5 6 -10 2.2 1.1
5 6 10 2.8 1.9
-5 6 -10 2.4 1.1
-6 -6 -10 12.5 2.4
-6 6 -10 13.1 1.7
6 6 10 10.3 2.5
-6 6 -10 15.7 1.8
-7 -6 -10 80.79 5.2
-7 6 -10 62.79 4.1
-7 6 -10 85.39 4.2
7 6 10 72.79 5.3
-8 -6 -10 -0.2 2
-8 6 -10 -0.1 1
8 6 10 -0.9 2.4
-8 6 -10 1.9 1.3
-9 -6 -10 0.3 2.3
-9 6 -10 1.3 1.5
-9 6 -10 0.4 1.1
-10 -6 -10 2.4 3
-10 6 -10 -1.7 1.7
-11 6 -10 6.6 1.4
-11 6 -10 5.1 2.3
-12 6 -10 19.3 3.2
-13 6 -10 15.9 4.9
-14 -7 10 6.1 5.1
-14 -7 10 -0.3 2.2
-14 7 10 6 3.6
14 7 -10 4.5 6.3
-14 7 10 6.8 5.2
-13 -7 10 5.2 4
-13 -7 10 4.3 2.5
13 7 -10 10.1 4.9
-13 7 10 1.5 3.6
-13 7 10 2 4.1
-12 -7 10 10.9 5
-12 7 10 13.9 3
-12 7 10 10.4 4.6
12 7 -10 14.6 5.6
-11 7 10 5 2
-11 7 10 1.7 3.1
11 7 -10 5.9 3.5
-10 7 10 0.1 1.3
-10 7 10 0.9 2.6
10 7 -10 1.7 2.6
-9 7 10 23.5 3.5
9 7 -10 33 4.5
-9 7 10 31.6 2.5
8 -7 -10 126.99 6.9
8 7 -10 120.99 7.6
-8 7 10 121.89 7.3
-8 7 10 129.89 6
-8 7 10 124.99 7.6
7 -7 -10 127.89 7
-7 7 10 144.49 6.1
-7 7 10 139.89 7.4
7 7 -10 128.79 7.7
7 7 -10 113.39 6.4
-7 7 10 121.09 7.6
6 -7 -10 71.09 7
6 -7 -10 77.99 4.9
6 7 -10 73.09 3.8
-6 7 10 77.39 3.8
-6 7 10 67.99 4.8
-6 7 10 86.49 5.8
5 -7 -10 236.88 11.3
5 7 -10 240.08 10.4
-5 7 10 238.58 12.1
-5 7 10 242.78 11.2
-5 7 10 249.48 10.2
4 -7 -10 259.07 11.7
-4 7 10 249.97 12.4
-4 7 10 247.68 11.3
4 7 -10 242.58 10.7
-3 -7 10 44.4 5.9
3 -7 -10 41.9 3.5
-3 7 10 44.5 5.1
-3 7 10 45.1 3
3 7 -10 41 2.6
3 7 -10 36.6 3.6
-3 7 10 42.1 4.1
2 -7 -10 25.1 2.8
-2 -7 10 16.4 3.4
-2 7 10 28.5 2.2
2 7 -10 25.5 2.1
2 7 -10 26.8 3
-2 7 10 26.6 3.5
-2 7 10 23.2 3.3
1 -7 -10 -1.7 1.2
1 -7 -10 -1.2 1.4
-1 -7 10 0.3 2.4
-1 7 10 0 1.7
-1 7 10 -1.4 2.1
1 7 -10 1.4 1.1
1 7 -10 -1 1.4
0 -7 -10 59.69 4.1
0 -7 10 56.99 5.2
0 7 -10 61.79 3.5
0 7 10 56.99 5
0 7 -10 58.89 4
0 7 10 61.79 4.8
-1 -7 -10 270.77 12.5
1 -7 10 252.07 14.4
-1 7 -10 282.67 11.9
1 7 10 286.47 13.4
-1 7 -10 269.17 12.3
-2 -7 -10 148.99 7.6
2 -7 10 143.79 8.4
2 7 10 133.09 8
2 7 10 154.58 8.4
-2 7 -10 152.78 6.9
-2 7 -10 145.39 7.2
-3 -7 -10 169.78 8.5
3 -7 10 154.98 9.4
3 7 10 149.88 8.8
3 7 10 170.28 9.1
-3 7 -10 176.58 7.8
-3 7 -10 171.98 8.1
-4 -7 -10 77.49 5.1
4 -7 10 77.49 8.5
-4 7 -10 73.59 4.1
4 7 10 74.89 5.4
-4 7 -10 78.49 4.2
-4 7 -10 77.89 4.1
4 7 10 75.09 6.7
-5 -7 -10 18.5 2.9
-5 7 -10 17.5 2
5 7 10 17.3 3
-5 7 -10 20.1 2.2
-6 -7 -10 89.79 5.8
6 7 10 96.59 6.1
-6 7 -10 101.29 4.9
-6 7 -10 78.19 4.7
-7 -7 -10 40.1 3.9
-7 7 -10 36.3 2.7
7 7 10 37.3 4.2
-7 7 -10 37.5 2.8
-8 -7 -10 101.39 6.9
-8 7 -10 113.99 5.9
-8 7 -10 121.99 5.7
-9 -7 -10 3.1 4.2
-9 7 -10 2 2.6
-9 7 -10 0.9 1.2
-10 -7 -10 9.8 3.4
-10 7 -10 11.7 1.7
-10 7 -10 11 2.4
-11 -7 -10 -2.8 5.1
-11 7 -10 -0.3 1.2
-11 7 -10 -1 2.5
-12 7 -10 2.3 2.8
-13 7 -10 -0.4 3.3
-13 -8 10 3.3 4.5
-13 -8 10 -0.3 2
-13 8 10 2.3 3
13 8 -10 -3.5 4.7
-13 8 10 -8.5 5
-12 -8 10 2.3 5.4
-12 8 10 0.5 5.8
-12 8 10 1 2.4
12 8 -10 2 5.1
-11 8 10 -0.6 1.8
11 8 -10 -2.3 3.7
-11 8 10 3.4 3.4
-10 8 10 0.7 1.3
10 8 -10 1.2 2.9
-10 8 10 0.7 2.9
-9 8 10 12 1.7
9 8 -10 8.9 3.3
-8 8 10 6.4 1.3
-8 8 10 4.6 2.6
-8 8 10 4.9 3.1
8 8 -10 6.7 2.7
-7 8 10 14.4 2.8
-7 8 10 19.9 3.6
-6 8 10 3.8 2
-6 8 10 2.2 1
-6 8 10 1.6 2.2
-5 8 10 34.3 3.3
5 8 -10 36.2 2.5
-5 8 10 33.6 4.2
-4 8 10 65.99 5.3
4 8 -10 66.59 3.5
-4 8 10 61.69 4.1
-3 8 10 31.1 6.3
-3 8 10 52.29 4.7
3 8 -10 56.19 3.1
-2 -8 10 23.2 4.6
2 8 -10 20.3 3.1
2 8 -10 27.6 2.1
-2 8 10 29.6 3.6
-1 -8 10 27.1 4.3
-1 8 10 32.3 3.8
-1 8 10 29.4 4.2
1 8 -10 27.7 3.1
1 8 -10 29.6 2.5
0 -8 10 20.1 4
0 8 -10 22.6 2.9
0 8 10 23.4 3.7
0 8 10 28.2 3.7
0 8 -10 33.7 3.4
1 -8 10 16.8 4
1 8 10 29.2 3.9
-1 8 -10 27.7 2.2
-1 8 -10 22.7 2.7
1 8 10 16.8 3.5
2 -8 10 8.4 3.7
-2 -8 -10 6.7 2.1
2 8 10 5.6 3.3
2 8 10 5.3 2.5
-2 8 -10 2.1 1.7
-2 8 -10 6.1 1.4
-3 -8 -10 1.8 1.7
3 8 10 3.2 2.2
-3 8 -10 0.7 1.1
-3 8 -10 4.3 1.7
-4 -8 -10 27.5 3.5
-4 8 -10 24 2.3
4 8 10 22.6 3.4
-5 -8 -10 3.5 2.2
5 8 10 4 2.1
-5 8 -10 2.6 1.3
-5 8 -10 4.6 1.4
-6 -8 -10 -0.7 1.8
-6 8 -10 1.7 1.2
-6 8 -10 0 1.3
6 8 10 0.9 2.2
-7 -8 -10 1 2.2
7 8 10 1.1 2.6
-7 8 -10 0.8 1.3
-7 8 -10 0.5 1.4
-8 -8 -10 4.2 2.9
-8 8 -10 0.5 1.4
-9 -8 -10 0.9 3
-9 8 -10 -0.3 2
-9 8 -10 0.3 1.4
-10 -8 -10 3.5 3.4
-10 8 -10 0.5 2.6
-10 8 -10 0.9 1.3
-11 -8 -10 -0.7 4.3
-11 8 -10 2.1 3
-11 8 -10 0.8 1.3
-12 8 -10 -0.9 3.8
-13 -9 10 -8.5 6
-13 -9 10 2.4 1.9
-13 9 10 6.4 5.8
13 9 -10 8.2 6.3
-13 9 10 -0.9 3
-12 -9 10 0.4 4.4
12 9 -10 -0.3 4.4
-12 9 10 -0.9 2.3
-12 9 10 2.3 4.7
-11 9 10 4.5 4.9
-11 9 10 2.3 1.9
11 9 -10 2.1 4.2
10 9 -10 0.6 3.3
-10 9 10 -0.2 1.6
-10 9 10 2.8 3.3
9 9 -10 5.4 3.1
-9 9 10 6.8 3.1
-8 9 10 0.8 1.5
-8 9 10 2.7 3.3
8 9 -10 2.8 2.9
-8 9 10 2.1 2.6
-7 9 10 2.5 2.2
-7 9 10 3 2.9
-6 9 10 27.1 3.5
-6 9 10 24.2 3.9
6 9 -10 26.9 2
5 9 -10 86.69 4.5
-5 9 10 95.99 7.4
-4 9 10 5.5 2.9
-4 9 10 2.6 1.9
4 9 -10 6.4 1.3
-3 9 10 -0.7 2.1
3 9 -10 1.6 1.1
2 -9 -10 0.8 1.7
2 9 -10 -0.8 1.8
-2 9 10 -1.8 2.1
2 9 -10 0.7 1.1
-1 -9 10 -3.6 5.2
1 -9 -10 0.9 1.7
1 9 -10 0.4 1.6
1 9 -10 -0.5 1
-1 9 10 -1.2 1.9
0 -9 -10 10.5 2.4
0 9 -10 14.6 2
0 9 10 11.4 3
0 9 10 10.8 5.9
0 9 -10 9.1 2.2
-1 -9 -10 5.4 2.2
-1 9 -10 8.7 1.6
-1 9 -10 4.3 2
1 9 10 6 2.5
-2 -9 -10 23.5 3.4
-2 9 -10 17.4 2.1
2 9 10 21 3.7
-2 9 -10 16.2 2.5
-3 -9 -10 16.8 3.1
3 9 10 10.7 2.9
-3 9 -10 11.5 1.9
-4 -9 -10 2.7 2.2
-4 9 -10 4.9 1.5
4 9 10 5.5 2.5
-5 -9 -10 7.8 2.6
-5 9 -10 5.9 1.6
5 9 10 8.5 2.6
-6 -9 -10 72.49 5.5
6 9 10 59.09 5.7
-6 9 -10 76.89 4.4
-6 9 -10 70.99 4.3
-7 -9 -10 26.2 4.5
-7 9 -10 23.2 3
7 9 10 29.6 4.4
-8 -9 -10 67.29 6.1
-8 9 -10 73.79 4.9
-8 9 -10 81.79 4.6
-9 -9 -10 5 3.5
-9 9 -10 1.4 2.7
-9 9 -10 3.8 1.6
-10 -9 -10 3.5 4.5
-10 9 -10 6.6 3.2
-10 9 -10 4.7 1.7
-11 -9 -10 -9.2 9.2
-11 9 -10 0.7 1.4
-11 9 -10 -0.8 3.6
-12 9 -10 4.9 3.8
-12 -10 10 13.9 2.2
-12 -10 10 9.2 5.4
12 10 -10 7.6 5.3
-12 10 10 0.1 11.3
-11 10 10 4.1 7.6
11 10 -10 5.1 4.5
10 10 -10 -1.6 3.8
-9 10 10 6.7 3.5
9 10 -10 6.8 3.6
8 10 -10 9 3.8
-8 10 10 9.5 3.3
-7 10 10 10.1 3.1
-7 10 10 5.5 3.3
-6 10 10 2.4 3.2
6 10 -10 6.5 1.2
-6 10 10 2.9 2.6
5 10 -10 65.19 3.7
-5 10 10 72.59 6.2
4 10 -10 64.59 3.7
-4 10 10 68.89 5.9
3 -10 -10 96.79 6.1
-3 10 10 93.09 6.8
3 10 -10 79.59 4.6
2 -10 -10 93.69 5.9
2 10 -10 75.09 4.4
-2 10 10 91.29 6.8
2 10 -10 76.19 5.5
1 -10 -10 131.49 7.5
1 10 -10 120.79 7.1
1 10 -10 122.29 6.2
0 -10 -10 73.49 5.2
0 10 -10 64.29 4
0 10 -10 65.69 4.9
-1 -10 -10 56.69 4.6
-1 10 -10 48.9 4.3
-1 10 -10 55.69 3.6
-2 -10 -10 108.09 6.8
-2 10 -10 121.99 5.9
2 10 10 114.29 8.2
-2 10 -10 98.09 6.4
-3 -10 -10 65.49 5.3
3 10 10 59.99 5.6
-3 10 -10 72.09 4.2
-4 -10 -10 11.5 2.8
-4 10 -10 11.1 2
4 10 10 10.1 3.2
-5 -10 -10 2 2.4
5 10 10 -0.3 2.5
-5 10 -10 2 1.8
-6 -10 -10 8 3
-6 10 -10 7.7 2.1
6 10 10 4.6 3.2
-7 -10 -10 0.1 2.8
-7 10 -10 1.6 2.1
-7 10 -10 0 1.7
-8 -10 -10 16.3 4
-8 10 -10 13.8 3.1
-8 10 -10 13.9 2.3
-9 -10 -10 5.7 4.1
-9 10 -10 12.5 3.3
-9 10 -10 11.7 2.4
-10 -10 -10 5.4 4.4
-10 10 -10 23.8 3.4
-10 10 -10 22.4 4.1
-11 -10 -10 14.4 5.9
-11 10 -10 35.2 2.9
-11 10 -10 40.2 4.4
11 11 -10 -7.8 5
10 11 -10 0.2 4.4
9 11 -10 11.9 5.6
8 11 -10 5.9 3.5
6 11 -10 1.1 1.3
-6 11 10 5.4 3.7
5 11 -10 33.6 2.5
-5 11 10 33.6 5.2
4 -11 -10 34 4.3
-4 11 10 38.1 5.2
4 11 -10 34.4 2.7
3 -11 -10 22.5 3.9
3 11 -10 16 2.1
-3 11 10 15 3.8
2 -11 -10 2.1 2.3
2 11 -10 0.3 2.1
2 11 -10 1.9 1.3
-2 11 10 2.6 2.7
1 -11 -10 2.1 2.4
1 11 -10 5.8 1.7
-1 11 10 -2.6 2.4
1 11 -10 2.6 2.5
0 -11 -10 4.4 2.3
0 11 10 2.7 2.7
0 11 -10 2.4 1.6
0 11 -10 0.3 2.2
-1 -11 -10 15.1 3.2
-1 11 -10 24.4 2.7
-1 11 -10 24.2 3.4
1 11 10 11.4 3.1
-2 -11 -10 66.79 5.4
-2 11 -10 67.29 4.4
2 11 10 63.39 6
-3 -11 -10 129.39 9.5
-3 11 -10 119.09 6.4
3 11 10 109.89 8.1
-4 -11 -10 84.19 6.3
-4 11 -10 77.59 4.9
4 11 10 69.89 6.4
-5 -11 -10 21.7 4
5 11 10 7.8 3.6
-5 11 -10 16 2.8
6 11 10 16.2 6.9
-6 11 -10 22.2 3.1
-7 -11 -10 13.5 4.2
-7 11 -10 9.8 2.4
-8 -11 -10 0.8 5
-8 11 -10 0.7 2.1
-9 -11 -10 2.3 4.5
-10 -11 -10 9.8 5.6
-10 11 -10 4.7 2
10 12 -10 5.9 5.3
9 12 -10 -0.7 4.6
8 12 -10 1.3 3.7
7 12 -10 10 4.3
5 -12 -10 7.5 3.1
5 12 -10 8 1.7
4 -12 -10 0.4 2.6
-4 12 10 5.3 5.1
4 12 -10 -1.6 1.4
3 -12 -10 1.6 2.6
3 12 -10 2.1 1.6
3 12 -10 1.4 2.7
-3 12 10 3.1 3.5
2 -12 -10 4.8 2.8
2 12 -10 5.8 3
2 12 -10 8 2
-2 12 10 7.5 3.7
1 -12 -10 2.2 2.7
-1 12 10 -0.8 3.1
1 12 -10 -1.1 2.7
1 12 -10 2.2 1.8
0 -12 -10 7 2.9
0 12 -10 10.4 2.2
0 12 10 13.3 4.1
-1 -12 -10 -3.4 2.5
-1 12 -10 1.3 2.2
1 12 10 -1.2 3.3
-2 -12 -10 5.8 2.8
2 12 10 4.6 3.5
-2 12 -10 11.3 2.7
-3 -12 -10 -2.1 2.6
-3 12 -10 1.8 2.5
-4 -12 -10 8.5 3.3
4 12 10 9.1 4.1
-4 12 -10 6.8 2.8
-5 -12 -10 1.8 3
-5 12 -10 0.8 2.5
-6 -12 -10 -0.1 3.5
-6 12 -10 -0.2 2.5
-7 -12 -10 -1.6 4
-7 12 -10 -0.2 2.8
-8 -12 -10 -2.3 4.2
-8 12 -10 -0.5 3.3
-9 -12 -10 2.6 5.3
-9 12 -10 -2.8 2.3
8 -13 -10 3.3 4.2
8 13 -10 -2.5 4.6
7 -13 -10 3.4 4.2
7 13 -10 2.6 4.2
6 -13 -10 1.4 3.7
6 13 -10 0.9 4
5 -13 -10 7.6 3.8
5 13 -10 6.9 2
5 13 -10 1 3.6
4 -13 -10 4.8 4.6
4 13 -10 4.3 4
4 13 -10 -0.6 1.9
3 -13 -10 5.1 3.2
3 13 -10 6.8 3.6
3 13 -10 5.6 2.3
2 -13 -10 8.6 3.5
-2 13 10 -1.7 4
2 13 -10 2.1 3.2
2 13 -10 6.4 2.4
1 -13 -10 2.2 2.9
-1 13 10 -0.2 4.1
1 13 -10 0.6 3.3
1 13 -10 3.7 2.5
0 -13 -10 0.2 2.9
0 13 -10 2.6 2.6
0 13 10 -0.1 4.5
-1 -13 -10 0.4 2.9
-1 13 -10 0.8 2.9
1 13 10 -1.2 4.3
-2 -13 -10 6.1 3.7
2 13 10 2.2 4.5
-2 13 -10 8.2 3.4
-3 -13 -10 10.2 4.4
-3 13 -10 14.3 3.4
-4 -13 -10 52.79 6.2
-4 13 -10 60.09 5.6
-5 -13 -10 36.5 5.7
-6 -13 -10 41.2 6.4
-6 13 -10 18.4 3.6
-7 -13 -10 2 4.7
-7 13 -10 0.1 3.4
-8 -13 -10 -5.1 5.3
-8 13 -10 2 3.4
7 -14 -10 4.2 4.6
7 14 -10 3.9 5.8
6 -14 -10 -3.4 4.5
6 14 -10 -5 4.4
5 -14 -10 -2.4 4.1
4 -14 -10 8.5 4.1
4 14 -10 -0.2 3.8
4 14 -10 4.2 3.7
3 -14 -10 0.7 3.5
3 14 -10 2.5 3.9
2 -14 -10 17.9 5.9
2 14 -10 4 4.2
2 14 -10 8.5 2.9
1 -14 -10 26.5 6
1 14 -10 16.9 3.3
0 -14 -10 3.3 3.7
0 14 -10 7.4 3.4
-1 -14 -10 11.1 5.8
-1 14 -10 9.2 3.5
-2 -14 -10 5.4 4.3
-2 14 -10 9.5 3.6
-3 -14 -10 11.8 4.9
-3 14 -10 21.4 4.5
-4 -14 -10 1.1 4.3
-4 14 -10 2.7 7.2
-5 -14 -10 -3 4.5
-5 14 -10 4.1 3.8
-6 -14 -10 0 5.8
-6 14 -10 3.3 3.8
4 -15 -10 1.4 5
4 15 -10 7.7 6.5
3 -15 -10 -1.4 4.3
3 15 -10 2.4 2.8
2 -15 -10 2.3 4.4
2 15 -10 0.4 3.2
1 -15 -10 -3 4.3
1 15 -10 -4.3 3.3
0 -15 -10 -3.9 4.6
0 15 -10 2.6 3.4
-1 -15 -10 3.6 4.9
-1 15 -10 2.5 3.9
-2 -15 -10 -9.1 4.8
-2 15 -10 -1.1 3.8
-3 -15 -10 -1.5 5
-3 15 -10 -3.6 4.1
-15 0 11 3.6 4.3
-15 0 11 2.4 5.4
-14 0 11 2.7 3.5
-14 0 11 -4.1 8
-13 0 11 2.4 2.7
-13 0 11 -1.8 3.7
-12 0 11 -0.7 2.9
12 0 -11 -3.4 2.9
-12 0 11 -1.3 2.1
-11 0 11 -3.3 2.3
11 0 -11 1.9 2.1
10 0 -11 -3.2 1.6
-10 0 11 -1.5 2
-9 0 11 3.8 2.2
9 0 -11 2.4 1.8
-8 0 11 -2.2 1.7
8 0 -11 0.8 1.5
-8 0 11 -0.4 1.7
8 0 -11 -1.9 3.1
-7 0 11 -0.2 1.6
7 0 -11 -0.3 1.5
6 0 -11 0.1 1.3
-6 0 11 -1.9 2.4
6 0 -11 0.4 1.9
-6 0 11 0.3 1.4
5 0 -11 1.2 1.2
-5 0 11 -0.7 1.7
5 0 -11 -0.1 1.3
-4 0 11 0.8 1.5
4 0 -11 0.8 1.3
4 0 -11 0 0.6
-3 0 11 -0.3 1.3
3 0 -11 -0.5 1.2
3 0 -11 -0.1 0.7
-2 0 11 -0.1 1.2
2 0 -11 -0.4 0.6
2 0 -11 -0.8 1.1
1 0 -11 1.2 1.3
-1 0 11 0.2 1
1 0 -11 -0.1 0.4
1 0 -11 -0.6 0.7
0 0 -11 0.7 0.7
0 0 11 -0.3 1
0 0 -11 -0.3 1.1
-1 0 -11 1 0.8
-1 0 -11 2.2 1.2
2 0 11 0.8 0.9
-2 0 -11 -0.2 1
-2 0 -11 0.3 0.7
-3 0 -11 0.2 0.7
-3 0 -11 -0.5 1
-4 0 -11 -0.5 0.7
-4 0 -11 -0.1 1
-5 0 -11 0.2 0.7
-5 0 -11 0.5 1
-5 0 -11 0.4 0.8
-6 0 -11 -0.3 0.8
-6 0 -11 -0.6 0.8
-7 0 -11 0.8 0.9
-8 0 -11 -0.2 1
-8 0 -11 0.1 0.9
-9 0 -11 0.5 1
-9 0 -11 0.1 0.7
-10 0 -11 0.1 1
-12 0 -11 -1.3 1.2
-13 0 -11 -0.9 1.2
-14 0 -11 -1 1.9
-15 -1 11 -1.8 3.7
-15 -1 11 -7.3 5.8
-15 1 11 -1.8 3.8
-15 1 11 -1.4 6.7
-14 -1 11 6.4 3.2
-14 -1 11 6.2 5.3
-14 1 11 8.5 5.5
-14 1 11 6.3 3.6
-13 -1 11 13.6 3
-13 -1 11 11.6 4.5
13 1 -11 5.4 3.7
-13 1 11 16.8 4.2
-13 1 11 23.7 3.6
-12 -1 11 11 3.5
-12 1 11 14.4 2.6
-12 1 11 11.8 3.5
12 1 -11 10.2 3.1
-11 -1 11 87.49 6.7
11 -1 -11 91.39 6
-11 1 11 87.89 6.7
11 1 -11 90.09 6.1
10 -1 -11 10.2 2.4
-10 -1 11 14.9 3.3
-10 1 11 15.5 3.2
10 1 -11 10.2 2.6
9 -1 -11 3 1.8
-9 -1 11 2.9 2.2
-9 1 11 7.2 2.2
9 1 -11 3.8 2
-9 1 11 4.7 2.2
-8 -1 11 87.09 5.1
8 -1 -11 88.49 5.3
-8 1 11 85.59 5.2
8 1 -11 76.29 5.3
8 1 -11 78.59 7.8
-8 1 11 75.19 5.4
7 -1 -11 164.38 8.1
7 -1 -11 146.99 8.8
-7 -1 11 147.99 7.8
7 1 -11 150.48 8.1
-7 1 11 162.88 8.3
7 1 -11 156.28 9.2
-7 1 11 158.18 8
6 -1 -11 96.59 5.3
-6 -1 11 79.69 6
6 -1 -11 89.09 5.3
6 1 -11 89.59 5.4
-6 1 11 87.39 5.3
6 1 -11 85.29 5.2
-6 1 11 85.29 6
-6 1 11 90.99 5.4
-5 -1 11 0.4 1.8
5 -1 -11 0.3 1.3
5 -1 -11 -0.2 1.3
5 1 -11 0.1 1.3
-5 1 11 -0.7 1.4
-5 1 11 -1.4 1.7
5 1 -11 0.5 1.2
5 1 -11 0.4 0.7
-4 -1 11 168.48 8.9
4 -1 -11 176.88 8.6
-4 1 11 180.48 8.9
4 1 -11 179.98 8.7
4 1 -11 180.98 7.7
3 -1 -11 58.19 3.8
-3 -1 11 59.59 4.2
3 1 -11 58.59 3
3 1 -11 57.49 3.8
-3 1 11 56.89 4.1
-2 -1 11 15.2 2.1
2 -1 -11 13.9 1.4
2 -1 -11 19.2 2.1
-2 1 11 15.1 2
2 1 -11 17.3 2.4
2 1 -11 13.8 1.4
1 -1 -11 1.2 0.8
1 -1 -11 2.2 1.3
1 -1 -11 1.8 0.7
-1 -1 11 1.2 1.2
-1 1 11 1.3 1.1
1 1 -11 1.6 1.2
1 1 -11 2.4 0.9
0 -1 -11 618.24 26.1
0 -1 11 625.14 26
0 -1 -11 627.14 25.5
0 1 -11 640.84 26.2
0 1 11 618.24 26
0 1 -11 625.24 25.5
-1 -1 -11 250.87 10.9
-1 -1 -11 236.08 10.6
-1 -1 -11 258.87 11.5
1 -1 11 277.07 11.9
-1 1 -11 261.57 10.9
-1 1 -11 263.27 11.5
1 1 11 260.87 11.3
2 -1 11 344.77 13.5
-2 -1 -11 308.17 13.3
-2 -1 -11 284.27 12.5
-2 -1 -11 298.17 12.7
-2 1 -11 298.47 12.8
-2 1 -11 297.57 13.2
-3 -1 -11 35.6 2.7
-3 -1 -11 34.4 2.1
-3 -1 -11 29.2 2
-3 1 -11 31.2 2.1
3 1 11 37.9 2.2
-3 1 -11 35.3 2.6
-4 -1 -11 61.89 3
-4 -1 -11 54.99 3.5
-4 -1 -11 48.1 2.9
-4 1 -11 61.19 3.1
-4 1 -11 59.69 3.1
-4 1 -11 58.49 3.4
-5 -1 -11 66.09 3.5
-5 1 -11 66.39 3.8
-5 1 -11 72.09 3.6
-5 1 -11 74.29 3.6
-6 -1 -11 1.7 0.8
-6 -1 -11 3.6 1
-6 1 -11 3.1 0.9
-6 1 -11 2.9 1
-7 -1 -11 24.2 2.1
-7 -1 -11 24 1.9
-7 1 -11 23.6 2
-7 1 -11 26.1 2
-8 -1 -11 25.7 2
-8 1 -11 26.7 3
-8 1 -11 23.7 2.1
-9 -1 -11 12.2 1.5
-9 1 -11 9.3 1.3
9 1 11 13.6 3.2
-9 1 -11 14.8 1.8
-10 -1 -11 3.9 1.2
-10 1 -11 3.3 1.2
-10 1 -11 4.3 1
-11 -1 -11 25.9 2.3
-11 1 -11 27.8 2.7
-12 -1 -11 7.5 1.6
-12 1 -11 12.7 1.9
-13 1 -11 6.6 1.7
-14 1 -11 3.4 1.6
-15 -2 11 4.4 5.7
-15 -2 11 8.5 4.3
-15 2 11 7.1 4.7
-15 2 11 6.5 5.9
-14 -2 11 14.5 3.6
-14 -2 11 -8 4.9
-14 2 11 -3.1 5
-14 2 11 0.3 3.4
-13 -2 11 4.4 2.8
-13 -2 11 2.6 3.6
-13 2 11 4.6 4.2
13 2 -11 -1.5 3.3
-13 2 11 2.6 3.1
-12 -2 11 0.1 2.8
12 -2 -11 0.4 3.8
-12 2 11 1.2 2.1
-12 2 11 8.1 3.3
12 2 -11 2.8 2.9
-11 -2 11 1.8 4
11 -2 -11 -0.4 2.3
-11 2 11 6 1.8
11 2 -11 3.4 2.4
-11 2 11 5.1 3
10 -2 -11 202.98 10.3
-10 2 11 212.58 11.1
10 2 -11 211.68 10.8
9 -2 -11 64.79 4.8
9 2 -11 78.19 5.3
-9 2 11 69.19 5.4
-9 2 11 70.19 4.8
8 -2 -11 4.1 1.8
-8 -2 11 4.4 1.9
8 -2 -11 0.4 3.9
8 2 -11 1.9 1.9
8 2 -11 3.6 4.5
-8 2 11 1.9 1.9
-8 2 11 2.2 1.9
7 -2 -11 15.3 3
7 -2 -11 17.2 2.5
7 2 -11 19.3 3
-7 2 11 17.1 2.7
7 2 -11 18.4 4.2
-7 2 11 18.1 2.7
6 -2 -11 31.1 3
6 -2 -11 30.8 3.6
-6 -2 11 34.5 4.5
-6 2 11 34.6 3.2
-6 2 11 34.5 3.3
-6 2 11 39.2 4.4
6 2 -11 33.6 2
6 2 -11 36.1 3.3
6 2 -11 32.6 3.5
-5 -2 11 38.6 4.2
5 -2 -11 41.1 3
5 -2 -11 40.3 3.2
-5 2 11 36.8 3.5
-5 2 11 33.4 3.1
5 2 -11 39.1 2.2
-5 2 11 31.4 3.9
5 2 -11 41 3.4
-4 -2 11 272.27 13.7
4 -2 -11 305.27 13.5
-4 2 11 288.37 13.7
4 2 -11 296.37 13.6
4 2 -11 312.57 12.6
-4 2 11 318.47 13.4
-4 2 11 305.67 14
-3 -2 11 366.46 16.3
3 -2 -11 390.26 16.1
3 2 -11 345.77 16.1
-3 2 11 360.56 16.2
3 2 -11 373.76 15.2
2 -2 -11 217.98 9.9
-2 -2 11 210.88 10.1
2 2 -11 217.48 9.2
-2 2 11 209.58 10
-1 -2 11 321.87 14.4
1 2 -11 322.77 14.4
1 2 -11 331.77 13.7
-1 2 11 331.37 14.4
0 -2 11 840.42 34.7
0 -2 -11 839.42 34.8
0 -2 -11 867.61 34.1
0 -2 -11 841.92 34.1
0 2 -11 824.72 34.8
0 2 -11 858.01 34.2
0 2 11 830.52 34.7
-1 -2 -11 86.99 4.8
-1 -2 -11 83.79 4.2
1 -2 11 89.99 4.7
-1 -2 -11 88.49 4.2
-1 2 -11 92.89 4.8
1 2 11 91.49 4.7
-1 2 -11 87.49 4.3
-2 -2 -11 109.39 5
2 -2 11 107.79 5.3
-2 -2 -11 102.59 5
-2 -2 -11 109.29 5.6
-2 2 -11 109.79 5.5
2 2 11 113.39 5.3
-2 2 -11 106.99 5
-3 -2 -11 26.5 1.9
-3 -2 -11 29 1.9
-3 -2 -11 18.3 2.3
-3 2 -11 28.4 1.9
-3 2 -11 27.6 2.3
3 2 11 27.2 2.2
-4 -2 -11 0.9 1.2
-4 -2 -11 1.5 0.8
-4 -2 -11 1.1 1
4 2 11 -1 1.1
-4 2 -11 0.8 1
-4 2 -11 1.9 0.9
-4 2 -11 -0.1 0.8
-5 -2 -11 364.06 15.1
-5 -2 -11 340.57 14.8
-5 2 -11 362.26 14.9
-5 2 -11 359.36 14.9
-5 2 -11 353.16 15.2
-6 -2 -11 200.68 8.7
-6 2 -11 169.48 9.2
-7 -2 -11 171.28 7.7
-7 2 -11 175.68 8.1
-7 2 -11 174.78 7.9
7 2 11 189.98 9.5
-8 -2 -11 74.89 3.8
-8 2 -11 77.79 3.9
-8 2 -11 79.89 4.2
8 2 11 76.29 5.5
-9 -2 -11 28.6 2.1
9 2 11 23.9 3.7
-9 2 -11 31.8 2.4
-9 2 -11 29.2 2.1
-10 -2 -11 15.6 1.7
-10 2 -11 14.2 1.5
-10 2 -11 13.3 1.9
-11 -2 -11 30.7 2.5
-11 2 -11 29.5 2.8
-12 2 -11 8.7 1.8
-13 2 -11 2.6 1.7
-14 2 -11 1.5 1.7
-15 -3 11 3.8 3.9
-15 -3 11 3.5 5.7
-15 3 11 5 5.2
-15 3 11 2.3 4.4
-14 -3 11 7.8 3.4
-14 -3 11 5.2 4.9
-14 3 11 6.4 4.6
-14 3 11 3.9 3.5
-13 -3 11 -0.9 2.6
-13 -3 11 2.3 4
-13 3 11 1.2 4
13 3 -11 0.9 3.5
-13 3 11 2.1 2.9
-12 -3 11 27.1 4.7
-12 3 11 16.2 3.9
12 3 -11 14.9 3.6
-12 3 11 14.1 2.8
-11 -3 11 4 2.9
11 -3 -11 7.9 2.7
-11 3 11 10.7 2.1
-11 3 11 7.1 4.3
11 3 -11 14.5 3.3
-10 -3 11 0.1 2.1
10 -3 -11 0.7 1.9
-10 3 11 -1.4 2.1
10 3 -11 0.8 2
-10 3 11 2.1 1.4
9 -3 -11 35.1 3.5
-9 3 11 40.2 4
9 3 -11 30.9 3.8
-9 3 11 35.8 4.1
8 -3 -11 6.5 2
-8 3 11 9.3 2.5
8 3 -11 7.1 2.5
-8 3 11 4.5 2.2
7 -3 -11 6.5 2
7 -3 -11 5 3
-7 3 11 3.5 1.9
-7 3 11 7.1 2.1
7 3 -11 7.6 2.2
7 3 -11 6.3 2.8
-6 -3 11 -0.7 2.6
6 -3 -11 1.4 1.6
6 -3 -11 0 2
6 3 -11 0.8 1.9
6 3 -11 1.8 1.6
-6 3 11 0.7 2.5
-6 3 11 0.3 1.5
6 3 -11 0.4 0.7
-6 3 11 0 2.6
5 -3 -11 73.49 4.6
-5 -3 11 70.69 5.5
-5 3 11 73.69 5
-5 3 11 77.49 4.7
5 3 -11 76.59 3.7
-5 3 11 70.69 5.4
5 3 -11 84.19 5
-4 -3 11 29.1 3.7
4 -3 -11 32 2.8
-4 3 11 26.9 3.5
4 3 -11 28.9 1.9
-4 3 11 28.3 3.1
-4 3 11 30.4 2.7
4 3 -11 26.5 2.9
-3 -3 11 5.1 1.9
3 -3 -11 4.9 1.5
-3 3 11 6.7 2.2
3 3 -11 9.1 1.2
3 3 -11 6.9 1.9
-3 3 11 6.2 1.9
-3 3 11 5.9 1.5
-2 -3 11 103.29 6.2
2 -3 -11 122.19 6.1
-2 3 11 113.49 6.6
2 3 -11 117.09 6.1
2 3 -11 118.29 5.3
-2 3 11 117.19 5.6
-2 3 11 107.59 6.2
1 -3 -11 234.08 10.4
-1 -3 11 212.18 10.4
-1 3 11 218.98 10.4
-1 3 11 218.88 11
-1 3 11 232.18 9.7
1 3 -11 233.88 9.7
1 3 -11 222.78 10.4
0 -3 -11 100.39 5
0 -3 11 104.19 5.6
0 -3 -11 96.19 5.4
0 3 -11 101.59 4.8
0 3 11 100.99 5.5
0 3 11 106.19 4.7
0 3 11 97.99 6.1
0 3 -11 108.69 5.5
-1 -3 -11 156.48 7.1
-1 -3 -11 157.88 7.6
1 -3 11 155.28 7.4
-1 3 -11 155.08 7.4
1 3 11 150.98 7.4
-1 3 -11 156.68 6.9
2 -3 11 -0.1 1.2
-2 -3 -11 3.9 1.5
-2 -3 -11 1.4 1
-2 3 -11 0.7 1.1
-2 3 -11 0 0.8
2 3 11 1.9 1.2
3 -3 11 26.6 2.4
-3 -3 -11 28 2.5
-3 -3 -11 24.8 2.1
3 3 11 30.3 2.5
-3 3 -11 23.8 1.9
-3 3 -11 24.9 2.2
-4 -3 -11 102.89 5.2
-4 3 -11 103.49 4.9
4 3 11 85.39 7.1
-4 3 -11 109.19 5
-5 -3 -11 28.8 2.5
-5 3 -11 34.3 2.3
5 3 11 32.1 3.5
-5 3 -11 30.4 2.2
5 3 11 27 2.7
-6 -3 -11 0 1.4
6 3 11 -1.4 1.6
-6 3 -11 2.2 1.1
6 3 11 3.6 1.6
-6 3 -11 0.5 1
-7 -3 -11 7.6 2.1
-7 3 -11 15 1.9
7 3 11 8.7 2.6
-7 3 -11 11.4 1.5
-8 3 -11 13.7 1.7
-8 3 -11 10 1.6
8 3 11 9.8 2.7
-9 3 -11 5.5 1.4
-9 3 -11 6.1 1.2
-10 3 -11 1.4 1
-10 3 -11 0.3 1.2
-11 3 -11 8.5 1.9
-12 3 -11 0.2 1.7
-13 3 -11 -0.8 1.8
-14 3 -11 1.8 2
-15 -4 11 2.2 5.1
-15 -4 11 6.5 3.5
-15 4 11 11.6 5.5
-15 4 11 8 4.2
-14 -4 11 17.8 3.9
-14 -4 11 15.6 5.6
-14 4 11 12.2 4
-14 4 11 7 4.9
-13 -4 11 10.2 5.1
-13 4 11 8.8 7.3
-13 4 11 22.2 3.6
-12 -4 11 11.2 3.9
-12 4 11 8.4 3.6
-12 4 11 5 2.5
12 4 -11 0.8 3.1
11 -4 -11 49.99 4.9
-11 -4 11 59.59 5.6
-11 4 11 51.79 5.3
11 4 -11 54.99 5.3
-11 4 11 55.39 4.9
10 -4 -11 22.8 3.1
-10 4 11 20.7 2.3
-10 4 11 17.5 3.4
10 4 -11 25.1 3.9
9 -4 -11 45.7 3.9
9 4 -11 34.6 4.1
-9 4 11 44.7 4.5
-9 4 11 45.9 3.1
-9 4 11 41.1 4.4
8 -4 -11 13.7 2.4
-8 4 11 12.5 2.6
8 4 -11 13.5 2.7
-8 4 11 12.6 2.8
7 -4 -11 84.99 6.7
7 -4 -11 60.79 6.4
-7 4 11 89.19 5.6
7 4 -11 95.69 6.5
7 4 -11 83.39 5.6
7 4 -11 84.79 4
-6 -4 11 84.89 7.1
6 -4 -11 99.59 6
6 -4 -11 80.29 5.1
6 4 -11 83.29 5.5
-6 4 11 88.39 5.7
-6 4 11 92.29 5.4
6 4 -11 84.79 4.1
-5 -4 11 63.39 5.6
5 -4 -11 69.39 4.3
5 4 -11 68.49 4.6
5 4 -11 62.49 3.2
-5 4 11 61.19 5.3
-5 4 11 62.19 4.1
-5 4 11 61.89 4.6
4 -4 -11 316.47 14.1
-4 -4 11 335.07 15
-4 4 11 301.37 14.5
4 4 -11 309.17 14.3
4 4 -11 312.97 13.2
-4 4 11 318.17 14.7
-4 4 11 312.87 13.9
3 -4 -11 227.28 10.5
-3 4 11 200.08 11.9
3 4 -11 222.68 9.6
-3 4 11 223.28 10.9
3 4 -11 233.98 10.7
-3 4 11 229.58 10
2 -4 -11 345.77 15.1
2 4 -11 338.47 15.3
-2 4 11 352.76 14.6
2 4 -11 338.57 14.4
-1 -4 11 25.3 3.5
1 -4 -11 21.9 2.6
1 4 -11 19.3 2.4
-1 4 11 23.6 3.9
-1 4 11 22.5 1.8
1 4 -11 21.2 1.8
0 -4 -11 102.39 5.9
0 -4 -11 120.19 5.7
0 -4 11 117.89 7.4
0 4 -11 110.49 5.4
0 4 11 108.19 6.5
0 4 -11 124.19 6.1
0 4 11 131.29 7.5
-1 -4 -11 33.5 2.5
-1 -4 -11 31.6 2.8
1 -4 11 33.5 3.3
-1 4 -11 35.1 2.8
1 4 11 32.6 3.1
-1 4 -11 33.3 2.2
2 -4 11 15.9 2.1
-2 -4 -11 16.2 2.3
-2 4 -11 18.7 2.1
-2 4 -11 16.2 1.7
2 4 11 13.8 2
2 4 11 14.8 3.2
3 -4 11 19.2 2.3
-3 -4 -11 21.8 2.4
-3 -4 -11 18.6 2.1
3 4 11 22 3.3
-3 4 -11 19.8 1.8
-3 4 -11 21.7 2.1
3 4 11 18.4 2.2
-4 -4 -11 63.89 3.7
4 4 11 60.29 3.9
-4 4 -11 56.39 3.4
-4 4 -11 55.09 3.4
4 4 11 54.99 4.5
-4 4 -11 56.39 3.4
-5 -4 -11 28.3 2.7
5 4 11 31.3 3.5
-5 4 -11 25.4 2.1
-5 4 -11 29 2.2
-5 4 -11 28.3 2.1
-6 -4 -11 36.3 3.2
-6 4 -11 38.3 2.6
6 4 11 39.6 3.9
-6 4 -11 39.6 2.7
6 4 11 43.8 4.2
-7 -4 -11 95.89 5.7
-7 4 -11 99.09 4.9
7 4 11 93.59 6.2
-7 4 -11 102.79 5.1
-8 -4 -11 129.89 7.4
8 4 11 124.89 7.8
-8 4 -11 143.89 6.4
-8 4 -11 142.79 6.6
-9 4 -11 21.8 2.3
-9 4 -11 18.9 1.9
-10 4 -11 9.1 1.4
-11 4 -11 6.9 2
-11 4 -11 9.2 1.5
-12 4 -11 1.8 1.9
-13 4 -11 11.7 5.1
-14 4 -11 7.8 2.8
-14 -5 11 0.7 3.2
14 5 -11 9.2 6.3
-14 5 11 -3.4 3.5
-13 -5 11 -1.1 5.4
-13 5 11 10.4 5.7
-13 5 11 5 3.1
-12 -5 11 5 3.6
-12 5 11 11.5 4.2
12 5 -11 10.5 3.9
-12 5 11 11.8 2.8
-11 -5 11 78.19 6.5
11 5 -11 73.59 6.2
-11 5 11 57.59 6
-11 5 11 77.59 4.7
10 -5 -11 37.5 4.2
10 5 -11 44.1 4.7
-10 5 11 40.4 4.6
-10 5 11 46.2 3.3
9 -5 -11 121.79 7.1
-9 5 11 137.69 7.9
-9 5 11 148.89 6.6
9 5 -11 121.89 7.8
-9 5 11 130.89 7.9
8 -5 -11 344.87 16.2
-8 5 11 385.56 15.5
-8 5 11 347.37 16.7
-8 5 11 368.36 16.8
8 5 -11 373.86 17.1
7 -5 -11 439.26 20.5
7 -5 -11 467.15 20
7 5 -11 453.85 18.7
-7 5 11 441.16 20.4
-7 5 11 448.16 20.1
-7 5 11 473.35 19
7 5 -11 473.75 20.7
6 -5 -11 85.39 5.8
6 5 -11 87.19 4.1
-6 5 11 81.79 5.6
6 5 -11 84.59 5.6
-6 5 11 88.79 5.4
5 -5 -11 80.89 5
-5 -5 11 79.19 7
-5 5 11 81.89 5.6
5 5 -11 82.39 5.3
-5 5 11 78.89 4.9
-5 5 11 87.09 7.6
5 5 -11 80.99 4
-4 -5 11 21.3 3.5
4 -5 -11 27.4 2.8
-4 5 11 29.4 3.4
4 5 -11 25.8 1.9
4 5 -11 26.4 3.1
-4 5 11 31.2 3.7
-4 5 11 30.9 2.7
-3 -5 11 72.09 5.5
3 -5 -11 70.99 4.3
3 5 -11 64.59 4.6
-3 5 11 67.09 4
-3 5 11 69.29 5
3 5 -11 70.49 3.6
-3 5 11 58.39 5.1
2 -5 -11 140.39 7.3
-2 -5 11 139.49 8
2 5 -11 138.59 7.4
-2 5 11 133.69 7.7
-2 5 11 152.48 6.7
2 5 -11 145.19 6.5
-2 5 11 154.28 8.2
-1 -5 11 299.17 14.7
1 -5 -11 327.07 14.4
1 -5 -11 313.07 14.1
-1 5 11 289.67 14.5
1 5 -11 322.37 13.6
-1 5 11 338.47 15.2
1 5 -11 331.57 14.5
-1 5 11 357.06 13.6
0 -5 11 419.86 19.1
0 -5 -11 433.26 18.8
0 -5 -11 451.65 18.6
0 5 11 424.96 19
0 5 -11 437.66 18.7
0 5 11 448.96 19.7
0 5 -11 424.96 18.1
-1 -5 -11 868.41 35.2
-1 -5 -11 846.92 35.4
1 -5 11 848.72 35.5
-1 5 -11 849.91 34.7
-1 5 -11 863.81 35.2
1 5 11 803.32 35.4
1 5 11 888.91 36.3
-2 -5 -11 210.98 10
-2 -5 -11 207.38 9.6
2 -5 11 201.28 10.1
-2 5 -11 211.48 9.2
-2 5 -11 207.28 9.6
2 5 11 225.68 10.8
2 5 11 200.38 9.9
-3 -5 -11 505.55 21
3 -5 11 499.05 21.3
3 5 11 513.45 22.1
-3 5 -11 491.55 20.7
3 5 11 469.75 21.5
-3 5 -11 486.35 21.7
-4 -5 -11 266.57 12.2
4 -5 11 285.97 13
-4 5 -11 281.87 11.8
4 5 11 256.47 12.4
4 5 11 265.87 13.1
-4 5 -11 269.07 11.8
-4 5 -11 274.67 11.7
-5 -5 -11 34.6 3.2
5 5 11 38.3 4.3
5 5 11 39.2 3.9
-5 5 -11 35.4 2.6
-5 5 -11 38.9 2.6
-6 -5 -11 -0.2 1.6
-6 5 -11 0.1 1
-6 5 -11 -0.1 1
6 5 11 1.2 2
-7 -5 -11 26.1 3.2
-7 5 -11 22.9 2.1
7 5 11 27.4 3.7
-7 5 -11 23.7 2.3
-8 -5 -11 33.9 3.8
-8 5 -11 37.3 2.8
-8 5 -11 34.7 2.5
8 5 11 32.8 4.4
-9 -5 -11 23.9 3.6
-9 5 -11 24.4 2.1
-9 5 -11 22.7 2.6
-10 5 -11 1.9 1.7
-11 5 -11 16.7 1.8
-11 5 -11 16.1 2.7
-12 5 -11 7.6 2.6
-13 5 -11 12.3 3.1
-14 -6 11 0.8 5.1
-14 -6 11 5.9 2.9
14 6 -11 3 7
-14 6 11 4.1 3.8
-14 6 11 3.4 4.9
-13 -6 11 -3.8 3.9
-13 6 11 -0.3 3.1
-13 6 11 3.4 4.6
13 6 -11 -0.7 4.3
-12 -6 11 3.7 4.4
-12 6 11 0.3 2.6
-12 6 11 -1.1 5.4
12 6 -11 4.3 4.4
11 6 -11 14.3 3.9
-11 6 11 16.4 2.5
-11 6 11 12.7 3.8
10 -6 -11 21.6 3.6
10 6 -11 18.6 3.5
-10 6 11 24.9 2.6
-10 6 11 29.4 4.2
9 -6 -11 2.2 2.2
-9 6 11 2.8 2.9
-9 6 11 2.3 2.3
-9 6 11 1 1.2
9 6 -11 -1.1 2.1
8 -6 -11 5.7 2.1
8 6 -11 2 2.5
-8 6 11 5.8 2.3
-8 6 11 3.4 2.6
-8 6 11 4.5 1.2
7 -6 -11 12.7 2.4
-7 6 11 13.7 2.7
-7 6 11 11.8 2.4
7 6 -11 13.3 1.4
7 6 -11 12.6 2.9
-7 6 11 8.1 2.5
6 -6 -11 276.77 12.3
6 -6 -11 261.47 12.1
-6 6 11 246.18 12.1
6 6 -11 266.97 12.8
-6 6 11 245.08 12.7
6 6 -11 256.37 11
-6 6 11 261.87 11.1
5 -6 -11 148.39 8.1
-5 6 11 164.08 7.1
-5 6 11 157.08 8.8
-5 6 11 166.38 8.1
5 6 -11 172.48 8.8
5 6 -11 157.08 7.1
4 -6 -11 304.37 14.4
-4 -6 11 255.47 13.7
-4 6 11 265.17 13
4 6 -11 250.27 11.2
-4 6 11 247.68 13.2
-4 6 11 273.77 11.9
-4 6 11 260.57 11
4 6 -11 263.47 12.6
3 -6 -11 237.18 11.5
-3 6 11 251.27 12.4
3 6 -11 246.78 11.8
3 6 -11 249.58 10.7
-3 6 11 257.77 11
-3 6 11 247.98 10.3
-3 6 11 246.08 12.4
-2 -6 11 49.1 5.3
2 -6 -11 51.89 3.9
2 6 -11 55.49 3.1
-2 6 11 55.49 3.2
-2 6 11 44.1 4.9
2 6 -11 53.89 4
-2 6 11 60.49 4.8
1 -6 -11 98.99 5.7
1 -6 -11 98.99 5.5
-1 -6 11 98.69 6.7
1 6 -11 100.19 5.7
-1 6 11 89.49 6.2
1 6 -11 104.49 4.9
-1 6 11 100.99 6.4
0 -6 -11 19.9 2.7
0 -6 -11 21.4 2.4
0 -6 11 18.2 3.5
0 6 11 25.4 3.5
0 6 11 13.9 2.6
0 6 -11 22.4 2.6
0 6 -11 21.1 1.9
1 -6 11 3.8 2.8
-1 -6 -11 7.9 1.9
-1 -6 -11 4.1 1.8
1 6 11 3.8 2.7
1 6 11 7.7 2.4
-1 6 -11 5.2 1.4
-1 6 -11 4.4 1.7
-2 -6 -11 114.79 5.9
2 -6 11 98.19 6.7
2 6 11 100.49 6.4
-2 6 -11 107.49 5.6
2 6 11 107.39 6.7
-2 6 -11 106.39 5.2
-3 -6 -11 71.99 4.4
3 -6 11 65.79 5.6
3 6 11 70.89 5.2
3 6 11 63.89 5.3
-3 6 -11 66.09 3.9
-4 -6 -11 44.1 3.5
-4 6 -11 45.5 2.9
-4 6 -11 46.4 3
4 6 11 42 4.2
-5 -6 -11 43.6 4.2
-5 6 -11 35.3 2.6
-5 6 -11 37.9 2.7
5 6 11 35.5 4
-6 -6 -11 3 2.1
-6 6 -11 -0.6 1
-6 6 -11 1.4 1.3
6 6 11 1.8 2.1
-7 -6 -11 38.3 4
-7 6 -11 48.6 3.2
-7 6 -11 44.6 3
7 6 11 45.3 4.5
-8 -6 -11 14 3.1
-8 6 -11 18.4 2
-8 6 -11 23.3 2.5
8 6 11 13.3 3.3
-9 -6 -11 54.59 5.8
-9 6 -11 52.19 3.2
-9 6 -11 41.3 4.2
-10 -6 -11 6 3.5
-10 6 -11 9.5 2.4
-10 6 -11 6.1 1.4
-11 6 -11 10.5 1.6
-11 6 -11 9.3 2.5
-12 6 -11 7.3 2.9
-13 6 -11 -0.3 2.8
-13 -7 11 1.4 2.5
-13 -7 11 -1 7.4
-13 7 11 -2.6 3.1
13 7 -11 1.3 5.1
-13 7 11 -5.5 5.1
-12 -7 11 2.2 4.4
-12 7 11 0.5 2.6
12 7 -11 -3.9 6.3
-12 7 11 -2.7 3.8
11 7 -11 6.7 3.6
-11 7 11 5.7 2.2
-11 7 11 3.9 3.2
10 7 -11 -1.8 2.9
-10 7 11 3 2.9
-10 7 11 0.6 1.5
9 -7 -11 5.9 2.7
-9 7 11 2.4 3.3
9 7 -11 6.8 3
-9 7 11 5.1 1.4
-9 7 11 4.6 2.7
8 -7 -11 2.1 2.1
-8 7 11 6.5 2.5
8 7 -11 5.4 2.6
-8 7 11 5.4 1.3
7 -7 -11 30.2 3.4
7 7 -11 28.6 2.4
-7 7 11 33.6 4.5
-7 7 11 30.7 2.3
-7 7 11 32.3 3.7
7 7 -11 31.4 4.1
6 -7 -11 20.5 3
-6 7 11 17.8 3.1
6 7 -11 19.8 3.2
-6 7 11 25.4 3.1
-6 7 11 22.6 1.8
6 7 -11 20.6 2
5 -7 -11 2.9 1.8
-5 7 11 3.6 0.9
5 7 -11 3.3 2.1
-5 7 11 1.3 1.8
-5 7 11 3.7 2.3
4 -7 -11 26 3.1
-4 7 11 24.2 3.6
-4 7 11 18.4 2.5
4 7 -11 21.3 3.2
4 7 -11 22.2 2.3
3 -7 -11 19.1 2.8
-3 -7 11 18.3 4.6
-3 7 11 16.8 2.1
3 7 -11 19.7 3.1
-3 7 11 18.4 3.4
3 7 -11 12.9 1.6
-2 -7 11 10.7 3.8
2 -7 -11 10.9 2.3
-2 7 11 10.2 3.3
2 7 -11 10.6 1.5
-2 7 11 17.2 3.2
-1 -7 11 16.2 3.6
1 -7 -11 19.4 2.7
1 -7 -11 14 2.3
1 7 -11 14.5 2.5
-1 7 11 17.7 3.1
-1 7 11 16.6 3.3
1 7 -11 12.9 1.7
0 -7 -11 3.1 1.6
0 -7 11 5.9 3.1
0 7 11 3.5 2.7
0 7 11 4.6 2.3
0 7 -11 4.8 1.7
0 7 -11 7.5 2
-1 -7 -11 21.8 2.9
1 -7 11 17.3 3.7
1 7 11 20 3.4
-1 7 -11 16.7 2.4
-1 7 -11 19.2 1.9
1 7 11 16.5 3.3
-2 -7 -11 -0.6 1.5
2 -7 11 1.3 5.6
-2 7 -11 1.1 1.5
-2 7 -11 0.3 1
2 7 11 0.7 2.1
-3 -7 -11 51.09 5.1
3 7 11 42.6 4.2
-3 7 -11 30.4 2.9
-3 7 -11 40.2 2.8
-4 -7 -11 123.69 7.1
-4 7 -11 133.99 6.3
4 7 11 126.39 7.7
-5 -7 -11 28.5 3.3
5 7 11 28 3.8
-5 7 -11 23.4 2.4
-5 7 -11 32.5 2.5
-6 -7 -11 -0.2 2
-6 7 -11 5.4 1.5
6 7 11 1.1 2.3
-6 7 -11 3.9 1.5
-7 -7 -11 5.1 2.5
7 7 11 1.3 2.6
-7 7 -11 5.2 1.4
-7 7 -11 7 1.8
-8 -7 -11 3.4 2.7
-8 7 -11 5.1 2.2
-8 7 -11 2.8 1.3
-9 -7 -11 11.8 3.5
-9 7 -11 10.7 2.2
-9 7 -11 7.4 1.6
-10 -7 -11 2.2 3.4
-10 7 -11 -0.8 1.2
-10 7 -11 0.2 2.4
-11 7 -11 2.1 2.6
-11 7 -11 5 1.5
-12 7 -11 1.2 3.7
-13 -8 11 7.1 4.8
-13 -8 11 -0.1 2.3
13 8 -11 2.9 5.7
-13 8 11 4.4 2.9
-13 8 11 0.7 5.2
-12 -8 11 6.2 4.2
12 8 -11 -1.1 4.3
-12 8 11 -2.7 3.3
-12 8 11 5.3 4.7
-11 8 11 -2.9 3.9
-11 8 11 3.1 2.1
11 8 -11 2 5
-10 8 11 2.2 1.6
10 8 -11 3.8 3.6
-10 8 11 4 3.3
9 8 -11 -3.1 2.8
-9 8 11 2 1.2
-9 8 11 -0.6 3.7
-9 8 11 -0.3 2.6
8 8 -11 39.2 4.7
-8 8 11 38.8 2.7
-8 8 11 37.6 4.4
-8 8 11 38.1 5.1
-7 8 11 70.59 3.8
-7 8 11 64.49 5.8
-7 8 11 69.79 5.2
7 8 -11 78.79 6
6 8 -11 41.9 2.6
-6 8 11 43.3 3.9
6 8 -11 39.8 4.4
-5 8 11 17.9 3.6
5 8 -11 25.5 3.5
-5 8 11 25.4 3.2
5 8 -11 25.8 2
-4 8 11 270.67 12.3
4 8 -11 266.07 13.3
-4 8 11 278.27 13.9
4 8 -11 285.17 11.9
-3 8 11 446.66 20
3 8 -11 427.66 18
3 8 -11 409.26 19.2
2 -8 -11 308.97 14.3
2 8 -11 313.87 13.3
2 8 -11 305.17 14.4
-2 8 11 311.37 15.2
1 -8 -11 121.49 6.9
-1 -8 11 114.49 9.8
1 8 -11 125.89 6.9
1 8 -11 127.39 6.1
-1 8 11 130.19 7.9
0 -8 -11 57.69 4.4
0 8 11 57.09 5.2
0 8 -11 68.19 3.7
-1 -8 -11 55.19 4.3
-1 8 -11 50.89 4
1 8 11 54.89 5
-1 8 -11 61.59 3.5
-2 -8 -11 49.8 4
-2 8 -11 50.99 3.2
-2 8 -11 41.6 3.6
2 8 11 49.5 4.7
-3 -8 -11 7.5 2.2
-3 8 -11 6.4 2
3 8 11 10.2 2.8
-3 8 -11 6.5 1.5
-4 -8 -11 0.6 1.9
4 8 11 -1.9 2.1
-4 8 -11 -0.9 1.1
-5 -8 -11 10.8 2.5
5 8 11 12.2 3
-5 8 -11 12.9 1.8
-6 -8 -11 31.5 3.9
-6 8 -11 36.3 2.9
-6 8 -11 30.5 2.8
-7 -8 -11 105.49 7.4
7 8 11 113.29 7.8
-7 8 -11 125.59 6.3
-7 8 -11 141.69 6.6
-8 -8 -11 43.1 5
-8 8 -11 48.8 3.8
-8 8 -11 45.3 3.4
-9 8 -11 48.3 3.5
-9 8 -11 45.8 4.3
-10 -8 -11 -0.6 3.9
-10 8 -11 0.6 2.5
-10 8 -11 1.4 1.4
-11 8 -11 3.1 3.3
-11 8 -11 7.5 1.6
-12 8 -11 6.5 3.4
-12 -9 11 1.6 4.9
-12 9 11 -1.6 5
12 9 -11 0.2 4.9
11 9 -11 11.9 4.9
-11 9 11 1.1 4.2
-10 9 11 13.5 5.4
10 9 -11 18.7 5.3
-9 9 11 4.7 3.3
9 9 -11 5.3 3.4
-8 9 11 18.6 3.6
-8 9 11 13.4 3.9
8 9 -11 25.5 4.2
-7 9 11 52.89 5.6
7 9 -11 48.5 5.2
-7 9 11 46 4.8
-6 9 11 10 2.7
6 9 -11 13.1 3.4
-6 9 11 9 3.3
6 9 -11 8.9 1.3
5 9 -11 60.79 3.5
5 9 -11 68.39 5.5
-5 9 11 64.09 5.8
4 9 -11 46.8 2.9
4 9 -11 49.3 4.5
-4 9 11 39.2 4.9
-3 9 11 14.4 4.8
3 9 -11 10.9 2.8
3 9 -11 15.7 1.9
2 -9 -11 -0.6 1.8
-2 9 11 -0.1 2.4
2 9 -11 -0.3 2.1
2 9 -11 1.2 1.2
1 -9 -11 117.99 7.1
1 9 -11 136.59 6.2
1 9 -11 116.79 7.1
-1 9 11 124.19 8
0 -9 -11 43.5 4
0 9 11 44.2 4.8
0 9 -11 44.5 3.1
0 9 -11 42.1 3.9
-1 -9 -11 135.29 7.5
1 9 11 141.89 8.4
-1 9 -11 125.39 7.1
-1 9 -11 129.39 6.5
-2 -9 -11 99.79 6.1
-2 9 -11 85.69 5
2 9 11 88.09 6.7
-2 9 -11 103.59 6.1
-3 -9 -11 185.48 9.9
-3 9 -11 194.18 8.9
-4 -9 -11 67.89 5.2
-4 9 -11 64.49 4.1
4 9 11 64.79 5.7
-5 -9 -11 33.6 4.2
5 9 11 19.9 3.6
-5 9 -11 30.5 2.8
6 9 11 0.1 2.7
-6 9 -11 -1.8 2.1
-7 -9 -11 5.9 3.2
7 9 11 1.7 4.4
-7 9 -11 -0.9 1.6
-7 9 -11 -0.7 1.9
-8 -9 -11 7.6 3.3
-8 9 -11 11.1 2.8
-8 9 -11 6 1.9
-9 -9 -11 2.6 5.5
-9 9 -11 2.7 1.7
-9 9 -11 3 2.7
-10 -9 -11 1.6 4.5
-10 9 -11 0.5 1.8
-10 9 -11 -1 3.2
-11 -9 -11 -4.2 6
-11 9 -11 2.9 1.6
-11 9 -11 3.3 3.4
11 10 -11 -1.9 5.3
10 10 -11 2.1 4.1
9 10 -11 3.7 4
8 10 -11 3 3.3
7 10 -11 1.2 3
-7 10 11 0.1 3.9
6 10 -11 6.3 3.2
-6 10 11 2.4 3
6 10 -11 4.7 1.2
5 10 -11 5.7 4.2
-5 10 11 3.3 2.9
5 10 -11 5.5 1.3
-4 10 11 15.5 3.6
4 10 -11 17.1 1.9
4 10 -11 16.7 3.3
3 -10 -11 43.5 4.4
3 10 -11 40.3 4.4
-3 10 11 43.1 5
3 10 -11 45.9 3.1
2 -10 -11 91.39 6.5
-2 10 11 109.09 7.6
2 10 -11 107.39 6.6
2 10 -11 105.79 5.4
1 -10 -11 27.4 3.5
1 10 -11 21.2 3.2
-1 10 11 36.6 5
1 10 -11 25.4 2.5
0 -10 -11 30.6 4.1
0 10 -11 26.9 2.5
0 10 11 23.8 4
0 10 -11 18.1 3.1
-1 -10 -11 7 2.6
-1 10 -11 5 1.6
1 10 11 9.3 3.2
-1 10 -11 4.9 2.5
-2 -10 -11 2.7 2.1
2 10 11 5.4 2.7
-2 10 -11 9.2 1.9
-2 10 -11 0.9 3.9
-3 -10 -11 14.4 3.1
-3 10 -11 7.2 1.8
3 10 11 5.5 2.8
-4 10 -11 -0.1 1.6
4 10 11 -3.8 2.7
-5 -10 -11 12.6 3.2
-5 10 -11 16.4 2.6
5 10 11 7.3 3.4
-6 -10 -11 0.9 2.9
6 10 11 -0.5 3.5
-6 10 -11 2.5 2.1
-7 -10 -11 1.3 3
-7 10 -11 2 2
-8 -10 -11 3.2 3.8
-8 10 -11 0.2 2
-9 -10 -11 -6.1 4.3
-9 10 -11 2.4 2
-10 -10 -11 6.4 5.7
-10 10 -11 0.4 1.7
10 11 -11 7.2 6.3
9 11 -11 1.9 4.5
8 11 -11 0.5 3.6
7 11 -11 -2 3.1
-6 11 11 31 5.6
6 11 -11 21.3 3.9
5 11 -11 1.7 2.7
5 11 -11 3.1 1.8
-5 11 11 1.3 4.3
4 -11 -11 -1.3 2.3
4 11 -11 2.6 2.9
-4 11 11 0.1 3.1
4 11 -11 1.3 1.9
3 -11 -11 -2.5 2.3
3 11 -11 1.4 2.7
-3 11 11 -3.5 2.7
3 11 -11 2.1 1.4
2 -11 -11 2.5 2.5
2 11 -11 2.1 1.6
2 11 -11 -1.6 3.8
-2 11 11 4 3.2
1 -11 -11 16.5 4.1
-1 11 11 12.5 3.8
1 11 -11 10.1 3
1 11 -11 10.9 2.1
0 -11 -11 15.7 4.4
0 11 -11 11.8 3
0 11 11 13.7 3.5
0 11 -11 23 2.8
-1 -11 -11 53.09 5.1
-1 11 -11 49 4.1
1 11 11 55.09 5.8
-1 11 -11 37.9 4.7
-2 -11 -11 31.8 4.2
2 11 11 34.9 5.1
-3 -11 -11 53.69 5.3
3 11 11 66.19 6.5
-3 11 -11 67.19 4.6
-4 -11 -11 30.6 4.5
4 11 11 34.1 5.2
-4 11 -11 43.5 3.9
-5 -11 -11 33 4.8
-5 11 -11 35.3 3.7
5 11 11 17.9 4.6
-6 -11 -11 16.7 3.7
-6 11 -11 27.8 3.5
-7 -11 -11 18.2 4.9
-7 11 -11 10.6 2.8
-8 -11 -11 -0.4 3.8
-8 11 -11 1.7 2.5
-9 -11 -11 3.1 5.1
-9 11 -11 1.2 2.3
9 12 -11 0.9 5
8 12 -11 8.2 4.7
7 12 -11 2.3 4.4
6 -12 -11 -1.2 3.3
6 12 -11 -0.2 3.4
5 -12 -11 -0.1 3
-5 12 11 2.6 4.3
5 12 -11 -1.5 2.8
5 12 -11 -0.2 1.6
4 -12 -11 6.6 3
4 12 -11 7.4 1.9
-4 12 11 5.8 5.8
4 12 -11 4.7 3.3
3 -12 -11 44.7 5.2
3 12 -11 39.1 3.5
-3 12 11 49 6.5
3 12 -11 42.5 5.2
2 -12 -11 8.5 3.3
2 12 -11 11.1 2.3
2 12 -11 5.8 3
-2 12 11 7.7 4
1 -12 -11 23.8 4.3
-1 12 11 16.1 5.3
1 12 -11 14.3 3.6
1 12 -11 22.9 3
0 -12 -11 22.7 4
0 12 -11 20.7 4.2
0 12 -11 17.3 2.8
0 12 11 30.3 7.4
-1 -12 -11 5 2.9
-1 12 -11 3 2.7
1 12 11 3.1 4
-2 -12 -11 5 3.2
2 12 11 -3.9 3.4
-2 12 -11 -2 2.5
-3 -12 -11 1.8 3.3
3 12 11 4.1 5.2
-3 12 -11 8.7 2.9
-4 -12 -11 1.9 3.3
-4 12 -11 -1.7 2.9
4 12 11 0.1 3.9
-5 -12 -11 10.2 4.1
5 12 11 9 9
-5 12 -11 9.7 3
-6 -12 -11 1.8 3.6
-6 12 -11 5.8 2.9
-7 -12 -11 13.8 5.6
-7 12 -11 13.6 4.1
-8 -12 -11 5.8 5.1
-8 12 -11 6 2.9
8 -13 -11 1.6 4.3
8 13 -11 4.4 5.1
7 -13 -11 3.7 4.6
7 13 -11 3.4 4.5
6 -13 -11 2.6 3.6
6 13 -11 5.6 4.3
5 -13 -11 4.2 3.9
5 13 -11 -2.9 3.9
4 -13 -11 11.6 5.5
4 13 -11 7.3 3.6
4 13 -11 8.8 2.4
3 -13 -11 -1.2 3.3
3 13 -11 0.9 2.3
3 13 -11 -4.8 3.3
2 13 -11 0.4 2.5
2 13 -11 3.3 5.8
-2 13 11 0.8 4.5
1 -13 -11 -6.3 4.6
1 13 -11 2.4 2.9
-1 13 11 7.1 4.4
0 -13 -11 2.1 5
0 13 11 1.7 4.9
0 13 -11 5 3
-1 13 -11 7.7 3.4
1 13 11 -1.6 4.4
-2 -13 -11 6.9 3.7
2 13 11 13.4 5.8
-2 13 -11 9.3 3.7
-3 -13 -11 8.6 4.4
-3 13 -11 15.3 3.6
-4 -13 -11 11 4.4
-4 13 -11 27.5 4.1
-5 -13 -11 5.7 4.7
-5 13 -11 5.1 3.3
-6 -13 -11 3 5
-6 13 -11 -0.2 3.2
-7 -13 -11 4.7 5.4
-7 13 -11 2.9 3.4
6 -14 -11 19.8 5.7
6 14 -11 8.8 6
5 -14 -11 26.2 5.5
5 14 -11 22.5 5.3
4 14 -11 50.69 4.3
4 14 -11 39.6 5.9
3 -14 -11 7.4 4.4
3 14 -11 8.1 2.8
3 14 -11 -0.4 5.4
2 -14 -11 6.5 3.9
2 14 -11 5.6 3.3
1 -14 -11 0.5 3.9
1 14 -11 0.4 3.1
0 -14 -11 0.8 3.8
0 14 -11 -0.5 3.2
-1 -14 -11 0.6 3.9
-1 14 -11 -1.4 3.5
-2 -14 -11 2.3 4
-2 14 -11 -1.7 5.7
-3 -14 -11 -0.5 5.7
-3 14 -11 0.6 4
-4 -14 -11 6.1 4.6
-4 14 -11 -1.3 3.8
-5 -14 -11 2.6 5.8
-5 14 -11 2.4 4
2 -15 -11 4.8 5
2 15 -11 4.4 3.3
1 -15 -11 0.8 4.6
1 15 -11 2.1 3.6
0 -15 -11 34.9 6.3
0 15 -11 18 3.9
-1 -15 -11 14.3 5.9
-1 15 -11 28.6 4.4
-15 0 12 -5.3 4.3
-15 0 12 -2.5 5.9
-14 0 12 8.3 4.2
-14 0 12 3.7 4.6
-13 0 12 12.7 4.9
-13 0 12 20.6 3.9
-12 0 12 66.99 4.9
-12 0 12 62.59 6.4
12 0 -12 52.29 5.4
-11 0 12 -4.8 2.5
11 0 -12 -2 2.3
10 0 -12 79.19 5.6
-10 0 12 76.69 6.1
9 0 -12 232.78 11.7
-9 0 12 246.98 12.3
-8 0 12 111.99 8.1
8 0 -12 122.69 6.9
-8 0 12 119.69 7.1
7 0 -12 189.58 9.4
7 0 -12 201.78 9.4
-7 0 12 158.08 10.8
6 0 -12 307.27 13
-6 0 12 289.97 14.5
6 0 -12 301.77 14.5
5 0 -12 201.58 9.8
4 0 -12 207.58 10
4 0 -12 207.88 8.9
3 0 -12 980.2 41.2
3 0 -12 1015.3 40.3
2 0 -12 358.36 16.1
2 0 -12 376.76 15.3
1 0 -12 422.26 18.1
1 0 -12 413.66 17.4
-1 0 12 423.26 18.9
0 0 12 246.48 11.2
0 0 -12 245.38 10.5
0 0 -12 246.78 11.2
-1 0 -12 2.2 0.9
1 0 12 2.2 1.2
-1 0 -12 0.6 1.2
-2 0 -12 3.7 1
2 0 12 1.9 1.2
-2 0 -12 2.2 1.3
3 0 12 3 1.2
-3 0 -12 2.6 1.3
-3 0 -12 2.3 1
-4 0 -12 21.4 2.4
-4 0 -12 13.1 1.5
-5 0 -12 99.99 5.3
-6 0 -12 317.07 13.5
-6 0 -12 326.67 13.6
-7 0 -12 159.38 8.6
-7 0 -12 176.38 7.6
-8 0 -12 117.69 5.6
-8 0 -12 113.59 5.4
-9 0 -12 29.9 2.3
-10 0 -12 1.7 1.1
-11 0 -12 1.7 1.3
-12 0 -12 -0.2 1.3
-13 0 -12 0.3 1.5
-15 -1 12 3.2 4.5
-15 -1 12 -1.6 5.6
-15 1 12 4.1 4.4
-15 1 12 2.2 5.8
-14 -1 12 0.4 4.7
-14 -1 12 3.3 3.9
-14 1 12 1.1 4.7
-14 1 12 0.2 3.7
-13 -1 12 -2.7 4.9
-13 -1 12 1 3.3
-13 1 12 1 5.7
-13 1 12 -0.5 3
12 -1 -12 3.3 3
-12 -1 12 -0.7 3.2
-12 1 12 -3.9 3.1
12 1 -12 -0.3 2.9
-12 1 12 0.5 2.5
11 -1 -12 -2.4 2.2
-11 -1 12 2 2.7
-11 1 12 1.9 2.9
10 -1 -12 16.3 2.8
-10 -1 12 19.7 3.5
10 1 -12 21.1 3.1
-10 1 12 19.4 3.5
-9 -1 12 1.8 2.1
9 -1 -12 -2.3 1.7
-9 1 12 -2.6 1.9
9 1 -12 1.4 1.9
-9 1 12 3.9 2.5
-8 -1 12 1.2 2.1
8 -1 -12 1.9 1.8
-8 1 12 1.4 1.9
8 1 -12 0.6 1.7
-8 1 12 1 2
7 -1 -12 5 2.9
7 -1 -12 6.2 2.1
-7 -1 12 10 3
-7 1 12 3.2 2
7 1 -12 2.3 2.7
-7 1 12 6.8 2.1
7 1 -12 6.4 2
6 -1 -12 11.6 2.6
-6 -1 12 3.4 2.9
6 -1 -12 8.2 1.8
-6 1 12 6.3 3
-6 1 12 11.5 2.4
-6 1 12 13.8 2.4
5 -1 -12 3.2 1.6
5 1 -12 4.6 1.9
5 1 -12 5.9 1
4 -1 -12 39.3 3.2
-4 -1 12 40.8 5.2
4 1 -12 40.7 2.4
4 1 -12 35 3.3
-4 1 12 42.5 6.3
3 -1 -12 104.59 5.6
-3 -1 12 106.79 8.5
3 1 -12 93.39 4.6
-3 1 12 97.29 7.1
3 1 -12 97.19 5.6
2 -1 -12 104.89 5.6
2 -1 -12 100.29 4.7
2 1 -12 98.69 5.5
2 1 -12 97.19 4.7
1 -1 -12 98.69 4.5
1 -1 -12 111.19 4.9
1 -1 -12 103.89 5.6
1 1 -12 97.79 5.5
1 1 -12 100.69 4.8
0 -1 -12 2.5 1
0 -1 -12 2.1 0.6
0 -1 -12 1.9 1.5
0 -1 12 3.3 1.8
0 1 12 2.9 1.7
0 1 -12 0.6 1.3
0 1 -12 4.9 1.1
1 -1 12 242.38 10.8
-1 -1 -12 253.47 10.3
-1 -1 -12 234.68 10.9
-1 1 -12 239.48 10.3
1 1 12 233.98 10.9
-1 1 -12 229.28 10.8
2 -1 12 170.08 7.9
-2 -1 -12 168.68 8.1
-2 -1 -12 173.18 7.5
2 1 12 172.28 7.9
-2 1 -12 167.98 7.5
-2 1 -12 167.28 8
-3 -1 -12 128.99 5.7
-3 -1 -12 130.29 6.4
3 -1 12 124.49 5.9
-3 1 -12 118.59 5.7
3 1 12 130.19 6
-3 1 -12 117.09 6.2
-4 -1 -12 3.5 1.4
-4 -1 -12 0.9 0.9
-4 1 -12 1.3 0.9
-4 1 -12 0.4 1.1
4 1 12 3.2 1.1
-5 1 -12 1.3 1.3
-5 1 -12 1.4 1.1
-6 -1 -12 0.6 0.9
-6 1 -12 0.7 1
-6 1 -12 3 1.6
-7 -1 -12 14.6 1.6
-7 1 -12 14.6 1.7
-7 1 -12 17.7 1.8
-8 -1 -12 41.8 2.6
-8 1 -12 40 2.6
-8 1 -12 42.3 2.8
-9 -1 -12 15.1 1.7
-9 1 -12 9.7 1.3
-9 1 -12 14.7 1.8
9 1 12 15.5 3.7
-10 -1 -12 7.6 1.4
-10 1 -12 8.1 1.6
-11 -1 -12 18.3 2
-11 1 -12 16.9 2.1
-12 1 -12 11.2 1.8
-13 1 -12 4.5 1.7
-14 1 -12 2 3.4
-15 -2 12 -0.7 4
-15 -2 12 5.1 6.1
-15 2 12 -4.1 5.7
-15 2 12 6.5 4.2
-14 -2 12 3.4 5.3
-14 -2 12 2 3.3
-14 2 12 0.1 5
-14 2 12 -0.7 3.9
-13 -2 12 -0.6 5
-13 2 12 -0.2 6.5
-13 2 12 9.1 3.2
13 2 -12 -3 5.8
12 -2 -12 -2.5 3.1
-12 -2 12 4.1 3.6
-12 2 12 4.4 2.5
12 2 -12 5.1 2.9
-12 2 12 2.8 3.6
-11 -2 12 -2.4 2.3
11 -2 -12 -0.6 2.5
-11 2 12 0.8 2.8
11 2 -12 -1.9 2.4
10 -2 -12 9.7 2.5
-10 -2 12 12.3 3.2
10 2 -12 14.5 3
-10 2 12 17.3 3.5
9 -2 -12 1.1 1.9
9 2 -12 5.2 2.2
-9 2 12 3.6 2.3
-9 2 12 3.2 2.4
-8 -2 12 6 2.4
8 -2 -12 6.5 2.1
-8 2 12 5.7 2.3
-8 2 12 5.9 2.4
8 2 -12 5.5 2.3
7 -2 -12 12 3.1
7 -2 -12 14.9 2.4
-7 2 12 13.8 2.5
7 2 -12 11.9 3
7 2 -12 11.8 2.5
-7 2 12 15.4 2.8
6 -2 -12 49.7 3.7
6 2 -12 44.1 3.9
-6 2 12 46.8 3.8
-6 2 12 46.9 4.1
5 -2 -12 2.5 1.6
-5 -2 12 1.8 2.5
-5 2 12 2 1.7
-5 2 12 -0.3 2.4
5 2 -12 3.2 0.9
5 2 -12 2.1 1.6
-5 2 12 2.2 1.5
-4 -2 12 30.7 4.1
4 -2 -12 29.4 2.9
-4 2 12 29.5 3.3
-4 2 12 25.7 2.7
-4 2 12 27.8 3.5
4 2 -12 28.5 1.9
4 2 -12 29.7 3
-3 -2 12 14.1 2.6
3 -2 -12 20.4 2.6
3 2 -12 15.8 1.6
-3 2 12 15.2 4.3
3 2 -12 20.9 2.7
-3 2 12 17.2 2.6
2 -2 -12 1.9 1.4
-2 -2 12 0.5 1.7
-2 2 12 -0.2 1.5
2 2 -12 1.4 1.4
2 2 -12 1.1 0.8
1 -2 -12 84.79 4.2
-1 -2 12 84.19 5.2
1 -2 -12 83.99 4.9
-1 2 12 82.99 5.2
1 2 -12 90.89 5
1 2 -12 88.69 4.2
0 -2 -12 24.5 1.8
0 -2 -12 25.2 2.5
0 -2 12 25.3 3.1
0 -2 -12 22.3 1.8
0 2 -12 23.6 1.8
0 2 12 27.5 3
0 2 -12 23.3 2.5
-1 -2 -12 127.29 6.3
-1 -2 -12 126.39 5.6
1 -2 12 127.89 7.7
-1 -2 -12 115.59 5.4
1 2 12 116.69 6.3
-1 2 -12 119.69 5.6
-1 2 -12 108.49 6
-2 -2 -12 17.2 1.6
-2 -2 -12 16.9 2.2
-2 -2 -12 16.6 1.5
2 2 12 21.7 2.8
-2 2 -12 21.3 1.7
-2 2 -12 19 2.1
-3 -2 -12 0.5 0.9
-3 -2 -12 0.9 1.2
-3 -2 -12 0.9 0.8
-3 2 -12 2.4 1.3
-3 2 -12 0.5 0.9
3 2 12 0.1 1.5
-4 -2 -12 3.5 0.9
-4 -2 -12 1.4 1.4
-4 -2 -12 4 1.2
4 2 12 3.1 1.4
-4 2 -12 4.1 1.4
-4 2 -12 3.4 1.3
-5 -2 -12 50.99 3.2
5 2 12 51.29 3.3
-5 2 -12 57.19 3.4
-5 2 -12 50.49 3.4
-5 2 -12 54.09 3.1
-6 2 -12 109.09 5.4
-6 2 -12 95.09 4.9
7 2 12 3.6 2.5
-7 2 -12 2.3 1.2
-7 2 -12 0.9 1
8 2 12 63.69 5.3
-8 2 -12 55.69 3.4
-8 2 -12 57.39 3.3
-9 2 -12 26.4 2.4
-9 2 -12 24.4 2
9 2 12 21.2 7.1
-10 2 -12 0.8 1
-11 2 -12 0.6 1.3
-12 2 -12 1.1 1.5
-13 2 -12 -0.6 1.6
-14 2 -12 -0.6 1.6
-14 -3 12 19.4 4.4
-14 -3 12 27.2 6.4
-14 3 12 12.4 5.5
-14 3 12 22 6.3
-13 -3 12 32.3 4.3
-13 -3 12 21.7 5.3
-13 3 12 26.9 4.3
-13 3 12 25.3 5.2
13 3 -12 11.6 4.5
-12 -3 12 13.8 3.9
12 3 -12 16.8 3.9
-12 3 12 21.7 3.4
-12 3 12 20.5 4.7
-11 -3 12 -0.8 2.9
11 3 -12 -1.3 2.7
-11 3 12 -0.8 1.9
-11 3 12 0.9 3.2
10 -3 -12 12.8 2.7
-10 -3 12 18.6 3.6
-10 3 12 15.8 2.3
10 3 -12 12.5 2.8
-10 3 12 23.5 3.9
9 -3 -12 2.7 1.9
9 3 -12 1.6 2.1
-9 3 12 5 2.5
-9 3 12 -3.6 2.3
8 -3 -12 0.7 1.8
-8 3 12 1.7 2.2
-8 3 12 2.8 2
8 3 -12 3.2 2.1
7 -3 -12 34.5 3.4
7 -3 -12 37.9 5.3
7 3 -12 33.3 3.6
-7 3 12 37.8 3.6
-7 3 12 27.6 3.6
-6 -3 12 -2.8 4.2
6 -3 -12 5.8 2.1
6 -3 -12 6.5 1.9
6 3 -12 6.8 1.1
6 3 -12 6.4 2.1
-6 3 12 3.5 2.1
-6 3 12 4.3 2
5 -3 -12 5.4 1.9
-5 -3 12 6.1 2.9
-5 3 12 3.2 1.9
-5 3 12 4.2 2.7
-5 3 12 6.1 1.8
5 3 -12 6 1
4 -3 -12 131.29 7.1
-4 -3 12 131.59 8.1
-4 3 12 136.19 6.9
-4 3 12 139.79 7.7
4 3 -12 143.49 7.4
4 3 -12 137.99 6.2
-3 -3 12 280.07 13.9
3 -3 -12 307.47 13.6
-3 3 12 305.37 14.2
-3 3 12 283.27 13.8
3 3 -12 308.37 12.6
3 3 -12 307.37 13.7
-3 3 12 296.07 13.1
-2 -3 12 596.24 27.4
2 -3 -12 657.33 27.2
2 3 -12 665.83 26.3
-2 3 12 621.24 27.3
2 3 -12 648.64 27.3
-2 3 12 657.23 28
-2 3 12 659.43 26.6
1 -3 -12 459.05 20.4
-1 -3 12 466.45 20.7
1 -3 -12 480.65 19.8
-1 3 12 458.45 20.5
1 3 -12 480.15 20.5
-1 3 12 495.25 19.8
1 3 -12 484.45 19.7
-1 3 12 478.75 21.3
0 -3 -12 82.59 4.9
0 -3 -12 80.59 4.3
0 -3 12 88.09 5.4
0 3 12 90.99 4.1
0 3 -12 82.59 4.2
0 3 12 89.29 5.8
0 3 -12 88.59 4.9
0 3 12 82.99 5.2
1 -3 12 1230.98 50.89
-1 -3 -12 1221.78 50.29
-1 -3 -12 1252.27 50.99
-1 3 -12 1280.77 50.89
1 3 12 1230.48 50.89
-1 3 -12 1258.57 50.29
-2 -3 -12 488.95 20.6
2 -3 12 502.95 21.1
-2 -3 -12 492.05 21.3
-2 3 -12 526.25 20.7
-2 3 -12 493.95 21
2 3 12 484.15 21.1
-3 -3 -12 117.49 5.7
-3 -3 -12 123.49 6.3
3 -3 12 123.39 6.3
-3 3 -12 117.19 6
3 3 12 112.69 6.2
3 3 12 119.59 7.2
-3 3 -12 122.89 5.8
-4 -3 -12 30 2.4
4 -3 12 29.2 3.2
-4 3 -12 30.3 2.5
4 3 12 27.8 3.2
-4 3 -12 31.2 2.2
4 3 12 34.9 3.8
-5 -3 -12 48.5 3.4
-5 3 -12 54.19 3.2
5 3 12 54.89 4.7
-6 -3 -12 -0.3 1.6
6 3 12 2.2 2
6 3 12 3.2 2.7
-6 3 -12 0.9 1
-6 3 -12 1.7 1.1
-7 -3 -12 -0.1 1.9
-7 3 -12 1 1.1
7 3 12 -2.5 2.1
-7 3 -12 0.3 0.9
-8 3 -12 0.3 1
8 3 12 5.4 2.8
-8 3 -12 0.2 1.1
-9 3 -12 1.1 1.2
-9 3 -12 -0.6 0.9
-10 3 -12 -1.1 1.3
-10 3 -12 -0.1 1
-11 3 -12 3.5 1.6
-12 3 -12 35.7 3.3
-13 3 -12 0.4 1.9
-14 -4 12 -6.6 5.8
-14 -4 12 -0.8 3.3
-14 4 12 -3.6 5.9
-14 4 12 -2 3.9
-13 -4 12 3.3 8.7
-13 4 12 1.8 6.2
-13 4 12 -2.6 3.4
13 4 -12 -6.9 3.8
-12 -4 12 -2.1 3.3
12 4 -12 -0.5 3.2
-12 4 12 5 3.5
-12 4 12 3.1 2.8
11 -4 -12 3.2 3
-11 -4 12 1.8 2.7
11 4 -12 6.6 3.1
-11 4 12 3.9 3.2
-11 4 12 7.4 2.3
10 -4 -12 61.49 4.9
-10 4 12 62.69 4
-10 4 12 61.09 7.1
10 4 -12 50.59 7.2
9 -4 -12 155.18 8.2
-9 4 12 145.29 8.5
-9 4 12 157.08 8.8
9 4 -12 135.79 8.5
-9 4 12 161.98 7.3
8 -4 -12 31.8 3.5
-8 4 12 33.2 4
8 4 -12 29.7 3.9
-8 4 12 32.5 4
7 -4 -12 -0.5 4.4
7 -4 -12 -0.4 1.7
-7 4 12 -0.6 2
7 4 -12 0.4 0.7
-7 4 12 0.2 1.8
7 4 -12 0.7 1.8
6 -4 -12 42.5 3.5
6 4 -12 38.6 3.8
-6 4 12 37 3.5
-6 4 12 34.8 3.9
6 4 -12 39.4 2.3
5 -4 -12 58.49 5.1
-5 -4 12 62.69 6.7
-5 4 12 61.39 6.2
-5 4 12 59.69 4.1
5 4 -12 62.89 3.2
5 4 -12 56.19 4.4
-5 4 12 66.39 4.9
-4 -4 12 40.4 5.2
4 -4 -12 36.5 3.2
-4 4 12 33.2 3
4 4 -12 46.1 5.5
4 4 -12 37.5 2.3
-4 4 12 34.5 3.7
3 -4 -12 43.7 3.5
-3 -4 12 40.6 4.9
-3 4 12 49.9 4.3
3 4 -12 48.4 2.7
-3 4 12 47.7 3.7
3 4 -12 48.1 3.8
-3 4 12 38.4 4.6
2 -4 -12 136.79 7
-2 -4 12 136.19 7.7
-2 4 12 134.09 7.7
-2 4 12 119.89 7.3
2 4 -12 130.39 7
2 4 -12 132.39 6.1
-2 4 12 135.19 6.3
-1 -4 12 81.79 5.6
1 -4 -12 78.59 4.4
1 -4 -12 82.89 4.9
-1 4 12 81.59 4.1
1 4 -12 85.19 4.2
-1 4 12 89.29 5.8
-1 4 12 75.49 5.4
1 4 -12 79.99 4.9
0 -4 -12 134.09 6.8
0 -4 -12 132.49 6.3
0 -4 12 122.49 7.2
0 4 12 120.29 7
0 4 -12 129.79 6
0 4 -12 124.99 6.7
0 4 12 144.39 7.7
-1 -4 -12 110.79 5.4
1 -4 12 97.99 6.2
-1 -4 -12 110.09 6
-1 4 -12 113.39 5.2
-1 4 -12 103.49 5.7
1 4 12 103.49 6.1
1 4 12 108.09 6.7
-2 -4 -12 63.99 4.1
-2 -4 -12 57.99 3.6
2 -4 12 55.99 4.6
2 4 12 60.79 4.4
2 4 12 61.89 4.9
-2 4 -12 65.69 3.9
-3 -4 -12 222.08 10.7
-3 -4 -12 215.88 10.2
-3 4 -12 234.88 10.1
-3 4 -12 237.88 10.3
3 4 12 236.58 11.7
4 -4 12 187.18 9.6
-4 -4 -12 208.48 9.3
-4 4 -12 192.08 8.9
4 4 12 194.48 9.5
4 4 12 212.08 10.6
5 -4 12 328.07 14.8
-5 -4 -12 318.97 14.4
-5 4 -12 341.97 14.1
5 4 12 322.37 14.9
5 4 12 326.67 15.7
-5 4 -12 337.17 14.1
-6 -4 -12 23.4 3
6 4 12 29.2 3.8
-6 4 -12 30.1 2.3
-6 4 -12 28.3 2.4
-7 -4 -12 21.9 4.8
-7 4 -12 17.3 2
-7 4 -12 18.9 2.1
7 4 12 15.5 3.2
-8 -4 -12 0.8 2.4
8 4 12 3.1 2.8
-8 4 -12 -0.2 1.1
-8 4 -12 0.2 1
-9 4 -12 5 1.3
-9 4 -12 2.5 1.6
-10 4 -12 2.3 1.6
-10 4 -12 2 1.2
-11 4 -12 11.3 1.7
-11 4 -12 7.8 2.2
-12 4 -12 8.5 2.5
-13 4 -12 0.4 2.2
-14 -5 12 -12.2 5
-14 -5 12 1.3 3.2
-14 5 12 -0.1 3.7
-14 5 12 -1.2 5
-13 -5 12 -0.6 4.2
13 5 -12 2.6 4.3
-13 5 12 -1 4.5
-13 5 12 4.6 3.3
-12 -5 12 3.5 5.4
-12 5 12 -2.5 2.6
12 5 -12 -2 6.1
-12 5 12 -2.4 6
-11 -5 12 1.5 2.9
-11 5 12 4.3 3.5
11 5 -12 1.6 3
-11 5 12 0.8 2
10 -5 -12 7 2.7
-10 5 12 6.4 1.8
-10 5 12 5.3 2.8
10 5 -12 7 3.1
9 -5 -12 34 3.6
-9 5 12 21.4 3.5
9 5 -12 34.7 4.4
-9 5 12 30.1 2.6
-9 5 12 17.4 3.7
8 -5 -12 180.58 9.2
8 5 -12 163.98 9.6
-8 5 12 164.48 9.6
-8 5 12 187.88 9.6
-8 5 12 195.38 8.3
7 -5 -12 65.49 4.8
7 5 -12 68.19 3.5
-7 5 12 68.89 5.4
7 5 -12 73.19 5.4
-7 5 12 64.99 4.9
-7 5 12 77.59 3.9
6 -5 -12 0.9 1.6
6 5 -12 -1.5 1.7
6 5 -12 -0.5 0.8
-6 5 12 0.6 1.7
-6 5 12 1.6 2
-5 -5 12 -5.8 5.3
5 -5 -12 2 1.6
5 5 -12 2.7 0.9
5 5 -12 3.2 1.9
-5 5 12 3.7 1.7
-5 5 12 3.2 2.2
4 -5 -12 3 1.6
-4 -5 12 1.5 3.5
-4 5 12 0.5 3
-4 5 12 4 2.2
4 5 -12 2.5 0.9
-4 5 12 2.4 1.6
4 5 -12 1.8 1.8
-3 -5 12 3.2 3.3
-3 5 12 2.5 2.8
-3 5 12 4.2 2.3
3 5 -12 1.4 0.9
2 -5 -12 5.4 2
-2 -5 12 3.9 4.4
2 5 -12 5.2 1.9
2 5 -12 5.9 1.2
-2 5 12 6.9 1.5
-2 5 12 4.1 2.2
-2 5 12 6.4 2.5
1 -5 -12 91.39 5.3
1 -5 -12 74.49 4.8
1 5 -12 94.19 4.6
-1 5 12 103.49 6.3
1 5 -12 95.59 5.4
0 -5 -12 105.79 6.1
0 -5 -12 107.89 5.7
0 -5 12 94.79 8.1
0 5 12 121.79 9.5
0 5 12 116.39 7
0 5 -12 114.99 6.1
-1 -5 -12 57.09 4.3
-1 -5 -12 51.19 3.4
1 -5 12 49.3 4.8
-1 5 -12 46.4 3.5
1 5 12 51.59 4.5
1 5 12 42.2 4.5
-1 5 -12 49 3
-2 -5 -12 101.69 7.3
-2 -5 -12 105.19 6
2 -5 12 113.39 7.2
2 5 12 130.99 7.4
-2 5 -12 126.79 5.7
2 5 12 112.19 6.9
-2 5 -12 124.39 6.1
3 -5 12 42.4 5
-3 -5 -12 44 3.3
-3 5 -12 41.9 2.8
3 5 12 47.5 4.3
3 5 12 44.5 4.7
-3 5 -12 40.7 3.1
-4 -5 -12 50.09 3.6
-4 5 -12 42.7 3.2
-4 5 -12 50.79 3.1
4 5 12 57.99 4.7
4 5 12 45.3 5.5
-5 -5 -12 1.7 1.8
5 5 12 0.8 2.2
-5 5 -12 0.1 1.1
-5 5 -12 1.5 1.2
-6 -5 -12 -0.6 3
-6 5 -12 1.4 1.2
-6 5 -12 2.7 1.2
6 5 12 -0.2 2.1
-7 -5 -12 3.7 2.2
-7 5 -12 2.9 1.1
7 5 12 3.5 2.6
-7 5 -12 2.3 1.4
-8 -5 -12 4.2 2.6
-8 5 -12 1.4 1.1
-8 5 -12 4.6 1.5
8 5 12 2.5 3.3
-9 -5 -12 -2.1 2.9
-9 5 -12 -0.2 1.3
-9 5 -12 0.7 1.6
-10 5 -12 -1.2 1.1
-10 5 -12 1.4 1.9
-11 5 -12 1 1.3
-11 5 -12 3.6 2.4
-12 5 -12 9.3 2.9
-13 5 -12 -1 2.6
-13 -6 12 9.9 4.7
-13 6 12 11.8 3.5
13 6 -12 8.8 5.3
-13 6 12 10 5.6
-12 -6 12 0 4.2
12 6 -12 -0.8 4.6
-12 6 12 4.1 5.7
-12 6 12 0.7 2.8
-11 6 12 2.9 2.2
-11 6 12 -2.7 3.1
11 6 -12 -1.4 3.3
10 -6 -12 33.6 4.3
10 6 -12 39.1 5
-10 6 12 27.6 2.9
-10 6 12 23.9 3.9
9 -6 -12 35.4 4.2
-9 6 12 49.4 3.2
-9 6 12 42.9 5.4
9 6 -12 55.99 5.2
-9 6 12 42.5 4.6
8 -6 -12 50.59 4.3
8 6 -12 38 4.6
-8 6 12 48.8 3.1
-8 6 12 51.59 4.5
7 -6 -12 258.07 12.5
7 6 -12 271.77 11.4
-7 6 12 258.07 12.6
-7 6 12 282.07 11.5
7 6 -12 259.57 13.2
-7 6 12 250.77 13.1
6 -6 -12 465.45 20.5
-6 6 12 461.55 21.2
6 6 -12 468.35 21.1
6 6 -12 486.75 19.9
-6 6 12 455.15 20.4
5 -6 -12 204.88 10.1
-5 6 12 206.38 8.8
5 6 -12 209.08 9
-5 6 12 196.18 10.7
-5 6 12 202.38 9.8
5 6 -12 206.28 10.5
4 -6 -12 60.59 4.4
-4 -6 12 62.99 8.2
-4 6 12 51.29 7.4
-4 6 12 64.19 3.2
4 6 -12 65.89 4.9
-4 6 12 70.69 5.4
4 6 -12 66.99 3.5
-4 6 12 60.99 4.1
3 -6 -12 164.38 8.5
-3 -6 12 150.28 10.3
-3 6 12 177.78 9.5
-3 6 12 157.28 9.9
3 6 -12 169.48 7.5
3 6 -12 151.78 8.6
-3 6 12 178.88 8
-2 -6 12 311.37 16
2 -6 -12 329.97 14.8
-2 6 12 328.87 15.7
-2 6 12 342.57 15.7
2 6 -12 284.97 15.8
2 6 -12 341.77 13.9
1 -6 -12 88.79 5.4
1 -6 -12 87.79 5.1
-1 -6 12 79.59 7
-1 6 12 74.39 6.5
-1 6 12 99.29 6.4
1 6 -12 90.99 5.4
1 6 -12 85.89 4.5
0 -6 -12 52.39 3.9
0 -6 -12 45 3.4
0 -6 12 39.2 5.6
0 6 12 40.4 5.1
0 6 -12 41.3 3.5
0 6 12 43.9 4.4
-1 -6 -12 76.69 4.9
1 -6 12 70.49 6.5
-1 -6 -12 70.09 4.6
-1 6 -12 78.39 4.1
-1 6 -12 81.89 4.8
1 6 12 73.79 5.7
1 6 12 63.79 6.1
-2 -6 -12 47.6 3.5
2 -6 12 38.2 5.5
2 6 12 34.7 5.1
2 6 12 51.89 4.6
-2 6 -12 41.9 3.3
-2 6 -12 45 2.9
-3 -6 -12 154.48 8
-3 6 -12 162.38 7.7
3 6 12 161.18 9.1
-3 6 -12 161.88 7.5
-4 -6 -12 174.58 9.1
-4 6 -12 189.18 8.6
-4 6 -12 193.78 8.5
4 6 12 189.58 10.2
-5 -6 -12 310.77 14.5
5 6 12 322.07 15.4
-6 -6 -12 61.39 4.7
-6 6 -12 63.69 3.8
6 6 12 66.19 5.5
-6 6 -12 66.89 3.9
-7 -6 -12 13.2 2.9
-7 6 -12 23.5 2.5
7 6 12 13.9 3.2
-7 6 -12 12.5 1.8
-8 -6 -12 8.8 3
-8 6 -12 7.5 1.6
-8 6 -12 16.2 3.1
-9 -6 -12 16.2 3.8
-9 6 -12 18.2 2.5
-9 6 -12 10.4 1.7
-10 6 -12 6.9 1.6
-10 6 -12 6.8 2.5
-11 6 -12 1.9 1.2
-11 6 -12 1 2.4
-12 6 -12 0.7 2.9
-13 -7 12 11.9 5.7
-13 7 12 16.7 3.5
13 7 -12 14 6
-13 7 12 0.7 4.9
-12 -7 12 4.1 4.1
-12 7 12 7.9 3.4
12 7 -12 1 4.2
-12 7 12 2.3 4.6
-11 7 12 16.1 7.9
-11 7 12 25.5 3
10 7 -12 27.4 4.4
-10 7 12 39.6 3.2
-10 7 12 32.1 4.4
9 7 -12 45.3 5.2
-9 7 12 38.4 4.9
-9 7 12 47.1 3.1
-9 7 12 43.2 6
8 -7 -12 45.3 4.4
-8 7 12 45.5 4.6
-8 7 12 44.4 2.9
8 7 -12 37.2 6.7
-8 7 12 46.8 5.2
7 -7 -12 96.89 6
-7 7 12 93.59 6
-7 7 12 91.69 6.8
-7 7 12 94.49 4.7
7 7 -12 94.39 6.7
6 -7 -12 17.5 3
6 7 -12 14 1.6
-6 7 12 15.5 2.8
-6 7 12 9.5 2.8
-6 7 12 16.7 1.9
6 7 -12 15.5 3.2
5 -7 -12 78.49 5.3
5 7 -12 82.89 5.9
5 7 -12 85.49 4.2
-5 7 12 82.39 5.2
-5 7 12 80.59 6.2
4 -7 -12 34 3.6
4 7 -12 36.2 2.5
-4 7 12 31.9 3.3
4 7 -12 38.5 3.9
-4 7 12 37 4.4
3 -7 -12 373.66 17
3 7 -12 393.16 16
-3 7 12 403.96 18.1
3 7 -12 367.66 17.2
-3 7 12 346.97 19
2 -7 -12 459.05 20.4
-2 -7 12 459.85 23.4
2 -7 -12 451.05 20.5
2 7 -12 453.05 20.6
2 7 -12 488.45 19.6
-2 7 12 491.95 21.6
-1 -7 12 257.57 15.1
1 -7 -12 287.67 13.3
-1 7 12 300.37 14.3
1 7 -12 280.97 13.2
-1 7 12 261.97 14.9
1 7 -12 302.67 12.3
0 -7 -12 271.87 12.7
0 7 12 229.28 12.4
0 7 -12 228.98 10.6
1 7 12 578.44 25.4
-1 7 -12 572.84 23.5
-1 7 -12 543.25 24
-2 -7 -12 128.69 7.2
-2 7 -12 138.09 6.5
2 7 12 133.79 8.2
-2 7 -12 132.39 6.9
-3 -7 -12 32.6 3.2
-3 7 -12 28 2.5
3 7 12 32.5 4.1
-3 7 -12 34.3 3.1
-4 -7 -12 3.4 2
4 7 12 4.6 2.4
-4 7 -12 1.6 1.2
-5 -7 -12 87.39 5.8
-5 7 -12 94.59 4.9
5 7 12 89.19 6.5
-6 -7 -12 -1 2.2
-6 7 -12 -1.3 1.2
-7 -7 -12 0 2.5
-7 7 -12 2.3 1.7
7 7 12 5.8 3.2
-7 7 -12 0.5 1.3
-8 -7 -12 52.29 5.3
-8 7 -12 50.99 3.6
-8 7 -12 61.49 4.1
-9 -7 -12 27.8 4.8
-9 7 -12 41 3.9
-9 7 -12 39.4 3
-10 7 -12 31.6 3.7
-10 7 -12 32.4 2.8
-11 7 -12 19.9 3.6
-11 7 -12 18.3 2.1
-12 7 -12 18.9 3.8
-12 -8 12 -4.8 7.9
-12 8 12 -10 4.9
12 8 -12 -7.6 7.2
-12 8 12 0.3 2.5
11 8 -12 6.1 6.6
-11 8 12 3.6 2.4
-11 8 12 6.8 4.5
-10 8 12 2.7 3.9
10 8 -12 -3.1 3.2
-10 8 12 0.1 1.6
9 8 -12 4.3 3.1
-9 8 12 0 3.1
-9 8 12 4.3 1.4
-8 8 12 6 3.5
8 8 -12 4.9 3.2
-8 8 12 3.2 4.6
-8 8 12 5.8 2
7 8 -12 33.5 5.1
-7 8 12 42.6 4.4
-7 8 12 42.1 5.1
-6 8 12 151.38 8.6
6 8 -12 160.48 7
-6 8 12 149.69 9.3
6 8 -12 151.48 9
5 8 -12 231.58 12.3
5 8 -12 248.78 10.6
-5 8 12 249.58 12.9
4 8 -12 388.56 17.9
4 8 -12 384.66 16.3
-3 8 12 188.08 10.7
3 8 -12 182.38 9.9
3 8 -12 200.58 8.7
2 -8 -12 39.6 3.7
2 8 -12 44 2.9
-2 8 12 34.8 4.5
2 8 -12 40.9 3.9
1 -8 -12 1.4 1.8
1 8 -12 2.2 1.2
-1 8 12 2.6 2.4
1 8 -12 2.6 2
0 -8 -12 6.6 2.2
0 8 -12 4.9 1.4
0 8 -12 1.7 1.9
0 8 12 5.6 2.6
-1 -8 -12 36.6 3.6
1 8 12 42.4 4.5
-1 8 -12 30.9 2.7
-1 8 -12 41 3.6
-2 -8 -12 54.79 4.4
2 8 12 49.4 4.9
-2 8 -12 54.39 4.5
-2 8 -12 57.69 3.6
-3 -8 -12 31.3 3.6
3 8 12 38.2 4.5
-3 8 -12 35.6 2.8
-4 -8 -12 0.1 2.1
-4 8 -12 0.2 1.3
4 8 12 2.8 2.9
-5 -8 -12 6.9 2.6
5 8 12 4.6 2.7
-5 8 -12 6.8 1.7
-6 -8 -12 -2.1 2.4
-6 8 -12 1.7 1.4
6 8 12 1.3 2.8
-7 -8 -12 -0.1 2.8
-7 8 -12 -1.8 1.5
7 8 12 -0.3 3.5
-8 -8 -12 1.5 3.3
-8 8 -12 0.4 2.2
-8 8 -12 -0.2 1.6
-9 -8 -12 14.6 4.3
-9 8 -12 11.1 1.9
-9 8 -12 25.1 3.3
-10 8 -12 10.2 3.3
-11 8 -12 -4 1.4
-11 8 -12 1.1 3.1
-12 -9 12 3.3 4.9
12 9 -12 4.3 5.6
11 9 -12 7.6 4.5
-10 9 12 0.6 4.6
-9 9 12 -2.8 3.6
9 9 -12 -0.3 3.5
8 9 -12 -2.3 2.9
-8 9 12 -3 5.7
-8 9 12 0 3.8
7 9 -12 4.8 3.2
-7 9 12 10.9 3.7
-6 9 12 14.2 3.8
6 9 -12 10.5 1.5
6 9 -12 9.6 3.3
-5 9 12 37.2 5.1
5 9 -12 37.8 2.6
5 9 -12 38.7 4.6
4 9 -12 2.5 2.4
4 9 -12 2.6 1.2
-4 9 12 -1 2.7
3 -9 -12 2.4 2.2
-3 9 12 1.2 2.6
3 9 -12 0.3 2.1
3 9 -12 -2.4 0.9
2 -9 -12 7.1 2.3
2 9 -12 2.7 2.1
-2 9 12 6.2 3.2
2 9 -12 7 1.5
1 -9 -12 -0.3 1.8
1 9 -12 -0.6 1.2
-1 9 12 1 2.6
1 9 -12 0.9 2
0 -9 -12 9.9 2.5
0 9 12 12.5 3.6
0 9 -12 16.9 2.1
0 9 -12 13.5 2.8
-1 -9 -12 35.9 3.8
-1 9 -12 35.7 2.9
-1 9 -12 37.2 3.8
1 9 12 36.6 4.8
-2 -9 -12 5.4 2.4
-2 9 -12 1.9 2.4
-2 9 -12 7.5 1.8
2 9 12 2.6 2.8
-3 -9 -12 4.7 2.4
-3 9 -12 4.5 1.6
3 9 12 6.8 3.1
-4 -9 -12 21.9 3.4
4 9 12 34.2 4.6
-4 9 -12 31.3 3
-5 -9 -12 56.89 6
-5 9 -12 80.09 6.2
-6 -9 -12 54.49 5.4
6 9 12 52.69 6.1
-6 9 -12 61.49 4.2
-7 -9 -12 3.6 3.2
-7 9 -12 5.1 2.1
-8 -9 -12 15.2 6.1
-8 9 -12 8.3 2.2
-9 -9 -12 12.8 4.8
-9 9 -12 9.1 2.2
-10 9 -12 -0.2 1.6
-11 9 -12 0.5 2.1
11 10 -12 9.7 4.9
10 10 -12 0.2 4.8
9 10 -12 14 9.3
8 10 -12 2.9 4.3
-7 10 12 11.4 5.7
7 10 -12 14.4 3.9
6 10 -12 43 5.1
-6 10 12 11.9 5.5
-5 10 12 4.9 3.2
5 10 -12 1.6 2.7
5 10 -12 1.8 1.2
4 -10 -12 0.1 2.1
4 10 -12 -0.4 2.4
-4 10 12 3.3 3.1
4 10 -12 1.4 1.2
3 -10 -12 14.7 4.8
3 10 -12 5.9 3.6
-3 10 12 4.2 3.2
3 10 -12 12.7 1.9
2 -10 -12 75.49 5.6
2 10 -12 67.79 5.5
2 10 -12 76.29 4.3
-2 10 12 71.39 6.5
1 -10 -12 51.29 4.7
-1 10 12 54.69 5.8
1 10 -12 49.4 4.7
1 10 -12 51.79 3.6
0 -10 -12 -1 1.9
0 10 12 1.3 2.6
0 10 -12 1.7 1.5
0 10 -12 -1 2.4
-1 -10 -12 0.1 2.2
1 10 12 -1.3 2.6
-1 10 -12 2 1.6
-1 10 -12 -2.2 2.5
-2 -10 -12 17.1 3.6
2 10 12 11.3 3.6
-2 10 -12 13.2 2.2
-3 -10 -12 3.7 2.8
3 10 12 5.4 3.2
-3 10 -12 15.2 3.8
-4 -10 -12 12.6 3.3
4 10 12 10.3 3.6
-4 10 -12 11.1 2.4
-5 -10 -12 59.59 5.7
-5 10 -12 74.29 4.9
-6 -10 -12 50.99 5.7
-6 10 -12 59.49 4.5
-7 -10 -12 46.6 9.8
-7 10 -12 61.39 4.6
-8 -10 -12 37.7 5.5
-8 10 -12 33.4 3.6
-9 -10 -12 11 5.5
-9 10 -12 10.2 2.4
-10 10 -12 -0.2 1.7
10 11 -12 -5.5 4.4
9 11 -12 -1.2 4.4
8 11 -12 0.8 4.2
7 11 -12 4.8 4
-6 11 12 9.8 4.8
6 11 -12 9.5 3.5
5 -11 -12 16.8 3.7
5 11 -12 11.8 1.9
5 11 -12 8.4 3.5
-5 11 12 11 5.9
4 -11 -12 -0.9 2.6
-4 11 12 5.6 3.8
4 11 -12 1 1.5
4 11 -12 3.1 2.9
3 -11 -12 9.4 3
3 11 -12 11.8 3.1
3 11 -12 15.8 2.2
-3 11 12 13.9 5.5
2 -11 -12 3.9 2.8
2 11 -12 -0.3 1.7
-2 11 12 0.9 3.1
2 11 -12 1.3 2.8
1 -11 -12 4.3 2.7
1 11 -12 6.1 3
1 11 -12 6 2
-1 11 12 4.6 3.2
0 -11 -12 34.1 4.5
0 11 12 32.4 5.2
0 11 -12 33.4 4.5
0 11 -12 29.5 3.4
-1 -11 -12 64.09 5.8
-1 11 -12 67.39 4.7
1 11 12 74.59 6.9
-2 -11 -12 58.79 5.7
-2 11 -12 72.69 4.9
2 11 12 72.99 7.6
-3 -11 -12 38.9 4.9
-3 11 -12 41.1 4.2
3 11 12 20.6 5.8
-4 -11 -12 45.8 5.2
-4 11 -12 44 4.4
4 11 12 40.5 7.4
-5 -11 -12 10.4 3.5
5 11 12 9.9 4.5
-5 11 -12 23.1 3.5
-6 -11 -12 -1.3 3.9
-6 11 -12 1.8 2.7
-7 -11 -12 -1.1 3.9
-7 11 -12 -2.3 2.7
-8 -11 -12 6.6 5.2
-8 11 -12 6.8 2.8
-9 11 -12 8.1 2.6
9 12 -12 1.3 4.6
8 -12 -12 4.5 4.4
8 12 -12 2.6 4.7
7 -12 -12 1.9 3.7
7 12 -12 -2 4
6 -12 -12 1.9 3.4
6 12 -12 4 3.8
5 -12 -12 6.2 3.8
5 12 -12 0.3 3.3
5 12 -12 1.1 1.6
-5 12 12 -1.8 5.8
-4 12 12 7.1 4.4
4 12 -12 12.6 2.4
4 12 -12 7.6 5.8
3 -12 -12 2.1 3.2
3 12 -12 -1 2
3 12 -12 2.4 3.2
-3 12 12 0.9 4.5
2 -12 -12 1.5 3
-2 12 12 4.6 4
2 12 -12 5.1 3.3
2 12 -12 6.7 2.5
1 -12 -12 1.3 2.9
1 12 -12 1.1 3.3
-1 12 12 -1.9 4.1
1 12 -12 4.6 2.7
0 -12 -12 8.6 3.2
0 12 12 16.4 5.4
0 12 -12 11 3
-1 -12 -12 4.9 3.3
-1 12 -12 2.4 2.8
1 12 12 2.1 4.1
-2 -12 -12 10.3 3.4
2 12 12 6.9 4.7
-2 12 -12 16.1 3.5
-3 -12 -12 2.8 3.3
-3 12 -12 0.8 2.8
3 12 12 8.3 4.8
-4 -12 -12 0.7 3.6
4 12 12 1.6 6.4
-4 12 -12 -2.8 3.1
-5 -12 -12 -1.7 3.5
-5 12 -12 11 3.2
-6 -12 -12 1.2 5.1
-6 12 -12 2.4 4.7
-7 -12 -12 -4.7 5
-7 12 -12 -1.5 3
7 -13 -12 -0.7 5
7 13 -12 -1.4 4.7
6 -13 -12 7.2 4.6
6 13 -12 1.1 4.4
5 -13 -12 0.6 4.4
5 13 -12 0.7 6.9
4 -13 -12 -3.7 3.3
4 13 -12 -1.4 4.2
3 -13 -12 18.8 4.3
3 13 -12 26.5 3.3
-3 13 12 43 7
3 13 -12 29.6 4.8
2 -13 -12 9.8 5.9
2 13 -12 12.2 4.4
-2 13 12 7.5 5.3
2 13 -12 25.6 3.5
-1 13 12 20.6 6.3
1 13 -12 22.9 3.8
0 -13 -12 4.4 4.3
0 13 12 9.1 5.2
0 13 -12 2.4 3.3
-1 -13 -12 14.4 4.4
1 13 12 18.5 5.6
-2 -13 -12 25.2 5.2
2 13 12 17.2 5.8
-2 13 -12 34.1 4.6
-3 -13 -12 9.1 4
3 13 12 15.6 6.2
-3 13 -12 17.5 3.7
-4 -13 -12 3.3 4.4
-4 13 -12 0.9 3.9
-5 -13 -12 0.5 4.7
-5 13 -12 1.1 3.3
-6 -13 -12 9.6 8.8
-6 13 -12 -3.5 3.3
5 -14 -12 6.1 5.7
5 14 -12 9.4 5.5
4 -14 -12 3.7 4.6
4 14 -12 -0.2 2.4
4 14 -12 0.1 6
3 -14 -12 8.3 4.4
3 14 -12 7.4 3
2 -14 -12 2.9 4.3
2 14 -12 7.8 3.2
1 -14 -12 2.9 4.7
1 14 -12 -0.1 3.3
0 -14 -12 1.3 4.3
0 14 -12 1.4 3.3
-1 -14 -12 2 4.2
-1 14 -12 0.8 3.6
-2 -14 -12 2.2 4.6
-2 14 -12 1.8 3.5
-3 -14 -12 1.5 5.3
-3 14 -12 3.7 4
-14 0 13 -3 8.6
-14 0 13 3.9 4.7
-13 0 13 1.1 5
-13 0 13 -0.9 3.8
12 0 -13 1.9 3.1
-12 0 13 1.8 2.9
-12 0 13 2.8 3.5
-11 0 13 0.9 3
11 0 -13 -0.4 2.6
10 0 -13 0 2.2
-10 0 13 -1.8 3.1
9 0 -13 -0.7 1.9
-9 0 13 0.6 2.3
8 0 -13 0 1.8
-8 0 13 -1.3 2.2
-8 0 13 0.1 1.9
7 0 -13 2.6 1.7
-7 0 13 -0.5 2
-7 0 13 -0.3 1.7
6 0 -13 1.1 1.6
-6 0 13 -2.1 1.7
5 0 -13 -0.7 1.5
-5 0 13 1.6 2.9
-4 0 13 2.9 2.6
4 0 -13 2.2 1.6
3 0 -13 0.2 0.8
-3 0 13 -2.9 2
3 0 -13 3 1.6
2 0 -13 0.4 1.3
2 0 -13 -0.3 0.8
-2 0 13 -1.1 1.9
1 0 -13 1.4 0.9
1 0 -13 -0.5 1.3
-1 0 13 0.9 1.8
0 0 13 -0.4 1.6
0 0 -13 1.9 1.5
0 0 -13 0.3 0.8
-1 0 -13 0 0.8
1 0 13 -1.9 1.6
-1 0 -13 -1 1.2
-2 0 -13 0.1 0.9
2 0 13 0.9 1.6
-2 0 -13 0.5 1.3
-3 0 -13 0.4 0.9
3 0 13 0 1.6
-3 0 -13 -1.1 1.2
4 0 13 -1.2 1.6
-4 0 -13 -0.2 1.3
-4 0 -13 -0.1 0.9
-5 0 -13 1.3 1.4
-5 0 -13 0.4 0.9
-6 0 -13 1 0.9
-7 0 -13 1.2 1
-8 0 -13 -2.1 0.8
-14 -1 13 7.1 4.2
-14 1 13 3.1 10.1
-14 1 13 -0.6 4.1
-13 -1 13 -2.3 3.5
-13 -1 13 8.5 7.4
-13 1 13 1.3 3.2
13 1 -13 -1.4 4.5
-13 1 13 0.3 5.1
-12 -1 13 3.2 3.6
12 -1 -13 0.6 3.4
12 1 -13 3.5 3.1
-12 1 13 2.1 3.7
-12 1 13 4.8 3.1
11 -1 -13 15.4 3.4
-11 -1 13 18.7 4.1
-11 1 13 19.5 3.8
11 1 -13 11.1 3
10 -1 -13 9 2.7
10 1 -13 14.3 2.9
-10 1 13 17.4 5
-9 -1 13 -0.8 2.1
9 -1 -13 1 2.2
-9 1 13 -1.8 2
9 1 -13 -0.6 1.7
8 -1 -13 76.99 5.4
-8 -1 13 80.39 5.7
8 1 -13 80.49 5.5
-8 1 13 76.69 5.6
-8 1 13 80.29 5.7
7 -1 -13 37.8 3.7
-7 -1 13 43.2 4.2
-7 1 13 46.8 4.2
7 1 -13 37.4 3.8
-7 1 13 47.2 4.1
6 -1 -13 26.6 3.3
6 1 -13 25.7 3.1
-6 1 13 28 3.4
-5 -1 13 30.2 4.2
5 -1 -13 34.3 3.3
5 1 -13 33.1 3.3
-5 1 13 24.2 4
-5 1 13 29.9 3.6
4 -1 -13 284.07 13
-4 -1 13 243.08 13
4 1 -13 320.57 14.6
4 1 -13 270.67 11.4
-4 1 13 232.78 12.9
-3 -1 13 232.68 11.8
3 -1 -13 246.38 11.3
3 1 -13 238.68 11.3
-3 1 13 222.58 11.7
3 1 -13 255.77 10.3
2 -1 -13 448.76 18.4
-2 -1 13 430.56 19.9
2 -1 -13 463.55 19.7
2 -1 -13 468.55 18.7
2 1 -13 471.45 18.7
-2 1 13 432.66 19.9
2 1 -13 442.56 19.6
1 -1 -13 338.37 13.8
1 -1 -13 348.87 14.8
-1 -1 13 311.67 14.8
1 1 -13 321.87 14.6
-1 1 13 309.67 14.8
1 1 -13 333.77 13.8
0 -1 -13 103.09 5.6
0 -1 -13 106.29 4.8
0 -1 13 95.19 5.8
0 1 13 92.39 5.8
0 1 -13 99.79 5.5
0 1 -13 97.59 4.8
1 -1 13 161.18 8.2
-1 -1 -13 163.18 8.1
-1 -1 -13 165.58 7.4
-1 1 -13 175.38 7.4
-1 1 -13 166.78 8.1
1 1 13 156.28 8.2
2 -1 13 328.77 14.4
-2 -1 -13 328.87 14.5
2 1 13 322.37 14.4
-2 1 -13 329.77 14.4
3 -1 13 106.69 5.9
-3 -1 -13 117.99 6
-3 -1 -13 110.39 5.3
3 1 13 105.99 5.9
-3 1 -13 110.69 5.8
-3 1 -13 112.79 5.3
4 -1 13 16.1 2.1
-4 -1 -13 16.4 1.8
-4 -1 -13 12.2 2
4 1 13 17.2 2.2
-4 1 -13 17.4 2.2
-5 -1 -13 19.2 1.8
-5 1 -13 21.2 1.9
-5 1 -13 22.3 2.5
-6 -1 -13 3 1.1
-6 1 -13 1.4 1.1
-7 1 -13 147.69 6.8
-8 1 -13 30.3 2.3
8 1 13 40.5 5
-8 1 -13 31.3 2.4
-9 1 -13 76.09 4.3
-9 1 -13 81.09 4.1
9 1 13 92.09 10.6
-10 1 -13 0.4 1.2
-11 1 -13 1.6 1.3
-12 1 -13 3.1 1.6
-14 -2 13 -15.5 6.7
-14 -2 13 -0.1 3.8
-14 2 13 1.6 4.2
-14 2 13 -1.4 5.4
-13 -2 13 21.9 4.1
-13 -2 13 9.7 5.6
-13 2 13 6 3.4
-13 2 13 14.4 7.1
13 2 -13 8.1 4.6
12 -2 -13 9 3.8
-12 -2 13 2.7 3.6
12 2 -13 1.7 3.2
-12 2 13 14.8 4.6
-12 2 13 10.4 3.2
-11 -2 13 50.19 6
11 -2 -13 39.4 4.6
-11 2 13 44.7 5.5
-11 2 13 41.3 4.1
10 -2 -13 0.1 2.3
-10 -2 13 1.9 2.9
10 2 -13 -1.3 2.8
-10 2 13 1 3.5
-9 -2 13 106.89 7.3
9 -2 -13 111.79 6.8
9 2 -13 112.59 7.1
-9 2 13 121.49 7.5
-9 2 13 115.19 7.3
8 -2 -13 64.19 4.9
-8 -2 13 67.49 5.3
8 2 -13 67.79 5.1
-8 2 13 63.79 5.2
-8 2 13 70.29 5.4
7 -2 -13 78.59 5.4
-7 2 13 88.89 5.9
-7 2 13 83.29 5.6
7 2 -13 85.99 5.7
6 -2 -13 11.3 2.3
6 2 -13 9.2 2.3
-6 2 13 10.2 2.6
-5 -2 13 93.89 7.7
5 -2 -13 98.99 5.8
5 2 -13 95.59 4.6
-5 2 13 93.99 7.5
-5 2 13 91.09 6.1
5 2 -13 100.99 6
-5 2 13 102.19 5.8
-4 -2 13 8.2 3
4 2 -13 9.5 1.3
-4 2 13 8 1.9
-4 2 13 8.7 3
4 2 -13 10.9 2.7
-4 2 13 10.3 2.7
3 -2 -13 29.1 3.1
-3 -2 13 33.7 4.5
-3 2 13 34.4 2.9
3 2 -13 35.8 2.3
-3 2 13 35.8 3.9
3 2 -13 32.9 3.2
-3 2 13 33.5 3.7
2 -2 -13 9 1.4
2 -2 -13 8.6 1.9
-2 -2 13 8.8 2.4
2 2 -13 10.9 2.2
2 2 -13 8.9 1.3
-2 2 13 4.9 2.3
1 -2 -13 54.39 3
-1 -2 13 53.59 4.6
1 -2 -13 50.49 3.8
-1 2 13 49.6 4.4
1 2 -13 54.89 3
1 2 -13 59.89 3.9
0 -2 -13 201.38 8.9
0 -2 -13 215.68 10
0 -2 13 201.48 10.2
0 2 -13 221.38 9.2
0 2 13 203.08 10.1
0 2 -13 216.28 10
-1 -2 -13 8.9 1.5
1 -2 13 11.1 2.3
-1 -2 -13 13.4 2.2
-1 2 -13 11.6 1.7
-1 2 -13 13.3 2.2
1 2 13 6.6 2
-2 -2 -13 180.08 8.8
2 -2 13 171.28 8.8
-2 -2 -13 190.38 8.2
-2 2 -13 179.08 8.6
2 2 13 178.98 8.8
-2 2 -13 184.58 8.1
-3 -2 -13 280.27 11.8
3 -2 13 279.27 13
-3 -2 -13 267.97 12.5
-3 2 -13 274.77 12.3
-3 2 -13 273.57 11.8
-4 -2 -13 352.36 15.3
-4 2 -13 350.26 14.9
4 2 13 337.37 16.4
-4 2 -13 339.77 14.6
-5 2 -13 211.08 9.9
-5 2 -13 225.68 9.7
5 2 13 225.98 10.2
-6 2 -13 113.89 5.5
7 2 13 56.99 5.2
-7 2 -13 48.8 3.1
-7 2 -13 51.69 3.2
8 2 13 44.3 5.2
-8 2 -13 45.9 2.9
-8 2 -13 45.4 3.1
-9 2 -13 34.2 2.7
-9 2 -13 29.7 2.3
-10 2 -13 6.1 1.3
-10 2 -13 4.7 1.5
-11 2 -13 30 2.8
-12 2 -13 4.7 1.9
-14 -3 13 1.7 4
-14 -3 13 -0.7 5.1
-14 3 13 3.4 5.2
-14 3 13 -2.5 3.7
-13 -3 13 4.4 4.5
-13 -3 13 0.4 3.6
13 3 -13 -1 4.1
-13 3 13 6.3 5
-13 3 13 -2 3.6
-12 -3 13 6.5 4.3
12 3 -13 -0.1 3.2
-12 3 13 5 3.1
-12 3 13 -1.5 3.6
11 -3 -13 1.4 3
-11 -3 13 0.8 3
11 3 -13 2.6 2.9
-11 3 13 0.5 2.2
-11 3 13 4.1 3.2
-10 -3 13 13.7 3.8
10 -3 -13 18.8 4.7
-10 3 13 13 2.2
-10 3 13 11.9 3.3
10 3 -13 12 3.1
9 -3 -13 0 2
-9 3 13 1.2 2.4
-9 3 13 -0.9 2.9
9 3 -13 2.5 2.4
-8 -3 13 10.8 3
8 -3 -13 10.3 2.6
-8 3 13 7.2 2.8
8 3 -13 9.7 2.7
-8 3 13 10.3 2.7
7 -3 -13 21.3 3
-7 3 13 21.4 3.5
7 3 -13 14.5 2.9
-7 3 13 15.5 3.1
6 -3 -13 18.7 2.8
-6 3 13 18.6 3.2
6 3 -13 21.2 3.3
6 3 -13 16.7 1.5
-6 3 13 14.9 4.6
5 -3 -13 -0.4 1.5
-5 3 13 1.8 2
5 3 -13 0.5 0.8
-5 3 13 -0.3 4.2
-5 3 13 0.2 1.6
5 3 -13 0.8 1.7
4 -3 -13 4.1 1.9
-4 3 13 1.2 3.6
4 3 -13 6.9 1.2
-4 3 13 6.2 2.2
-4 3 13 8.1 1.9
4 3 -13 3.6 1.8
3 3 -13 3.4 1.1
-3 3 13 0.9 1.9
3 3 -13 5.7 2.8
-3 3 13 2 1.5
2 -3 -13 58.69 4.1
-2 3 13 58.79 4.8
-2 3 13 56.69 3.6
2 3 -13 49.7 3.9
2 3 -13 55.89 3.1
1 -3 -13 119.89 6.6
1 3 -13 125.29 5.9
-1 3 13 132.59 7.7
-1 3 13 123.59 6
1 3 -13 126.79 6.7
0 -3 -13 79.09 4.2
0 -3 -13 83.39 5
0 3 -13 78.89 4.9
0 3 13 90.09 6
-1 -3 -13 147.69 7.7
-1 -3 -13 150.68 6.9
1 3 13 143.89 9.3
-1 3 -13 149.88 6.9
-1 3 -13 147.99 7.5
1 3 13 164.08 8.8
-2 -3 -13 24.3 2.8
2 -3 13 29.9 3.6
-2 -3 -13 26.7 2.2
-2 3 -13 30.4 2.2
2 3 13 28.7 3.7
2 3 13 31.2 4.1
-2 3 -13 28.7 2.7
-3 -3 -13 2.2 1.3
3 -3 13 2.8 2.3
3 3 13 1.1 2.1
-3 3 -13 2.6 1.2
-3 3 -13 1.7 1.4
3 3 13 3.4 2.3
-4 -3 -13 -0.5 2.3
4 -3 13 -1.6 2.5
4 3 13 0.8 2.5
-4 3 -13 1.4 1
-4 3 -13 0.8 1.5
4 3 13 3.4 2.4
-5 -3 -13 5 2.4
-5 3 -13 7.2 1.7
5 3 13 4.4 2.4
5 3 13 1.8 3.8
-5 3 -13 8.4 1.5
-6 3 -13 17.4 1.8
6 3 13 20.3 3.6
-7 3 -13 2.4 1.1
-7 3 -13 0.9 1.3
7 3 13 1.2 2.5
-8 3 -13 0.2 1.2
-8 3 -13 0.9 1
8 3 13 2.2 5.2
-9 3 -13 -1.6 1
-10 3 -13 4.7 1.3
-10 3 -13 4.8 1.6
-11 3 -13 8.5 1.9
-12 3 -13 0.2 2.1
-13 3 -13 3.2 1.8
-14 -4 13 -1.3 5.8
-14 -4 13 -0.1 3.5
-14 4 13 0.2 3.8
-14 4 13 -4.6 5.2
-13 -4 13 4.5 4.9
13 4 -13 -1.7 4.2
-13 4 13 0.7 4.4
-13 4 13 5.1 4.8
-12 -4 13 -1.6 4.9
-12 4 13 -4.7 2.9
-12 4 13 -0.7 4.3
12 4 -13 2 5.5
11 -4 -13 4 3.2
-11 -4 13 4.3 3.4
-11 4 13 2.3 3.2
-11 4 13 6.9 2.5
11 4 -13 9.3 3.6
10 -4 -13 10.2 3
10 4 -13 14.9 3.6
-10 4 13 16 3.7
-10 4 13 10.1 3
9 -4 -13 101.89 6.2
-9 4 13 109.69 9.1
-9 4 13 94.69 6.7
9 4 -13 82.69 6.8
-9 4 13 96.59 5.2
8 -4 -13 30.9 3.8
-8 4 13 30.7 4.3
-8 4 13 34.9 4.1
8 4 -13 31.9 4.1
7 -4 -13 8.4 2.3
-7 4 13 4 2.2
-7 4 13 4.1 2.6
7 4 -13 2.3 2.2
6 -4 -13 39.8 3.7
-6 4 13 42.3 3.8
-6 4 13 39.5 4.2
6 4 -13 43.1 4.1
-5 -4 13 5.6 5.3
5 -4 -13 12 2.4
-5 4 13 15.7 2.5
5 4 -13 12.1 2.6
-5 4 13 14.5 2.9
4 -4 -13 -2 1.4
-4 -4 13 -8 3.7
-4 4 13 0.2 2
-4 4 13 0.5 3.4
-4 4 13 0.1 1.5
4 4 -13 -0.4 1.7
-3 -4 13 18.7 3.7
3 -4 -13 24.3 3
3 4 -13 17.3 2.7
-3 4 13 21.2 2.5
3 4 -13 30.5 3.4
-3 4 13 21.6 3.5
-3 4 13 23.7 3.8
2 -4 -13 9.5 2.1
2 -4 -13 10.9 1.9
-2 -4 13 4.1 2.9
-2 4 13 7.3 2.6
2 4 -13 9.3 1.5
-2 4 13 8.8 1.7
2 4 -13 9.4 2.8
-2 4 13 11.9 2.9
-1 -4 13 59.19 5.9
1 -4 -13 61.09 3.8
1 -4 -13 60.99 4.3
1 4 -13 62.99 3.5
-1 4 13 61.29 5.3
1 4 -13 63.09 4.4
-1 4 13 66.19 5.2
0 -4 -13 185.28 8.6
0 -4 -13 186.68 9.4
0 -4 13 174.68 9.9
0 4 -13 197.48 8.5
0 4 13 205.08 10.4
0 4 -13 191.08 9.2
0 4 13 176.18 9.7
1 -4 13 8.5 2.8
-1 -4 -13 9 1.7
-1 -4 -13 13.1 2.3
1 4 13 10.7 2.7
1 4 13 9.1 2.6
-1 4 -13 11.4 2.3
-1 4 -13 9.9 1.9
-2 -4 -13 79.99 4.9
2 -4 13 61.89 5.8
-2 -4 -13 74.99 4.2
2 4 13 76.99 5.7
-2 4 -13 77.89 4.5
-2 4 -13 76.29 4
2 4 13 68.79 5.5
-3 -4 -13 85.69 5.3
3 -4 13 83.49 7.7
-3 -4 -13 78.19 4.7
3 4 13 97.09 6.4
-3 4 -13 87.39 4.9
-3 4 -13 91.09 4.5
-4 -4 -13 70.39 4.5
4 -4 13 74.79 6.9
-4 4 -13 79.89 4.2
-4 4 -13 74.69 4.4
4 4 13 85.39 6
-5 -4 -13 79.39 4.9
5 4 13 89.79 6.3
-5 4 -13 85.09 4.5
-6 -4 -13 52.89 4.1
-6 4 -13 53.99 3.3
6 4 13 50.29 5
-7 4 -13 41 2.8
7 4 13 42.1 4.8
-7 4 -13 43.1 3.1
8 4 13 8.9 3.6
-8 4 -13 12.8 1.9
-8 4 -13 6.7 1.4
-9 4 -13 5.5 1.7
-9 4 -13 3.2 1.3
-10 4 -13 3 1.8
-10 4 -13 -1.9 1.1
-11 4 -13 9.1 2.1
-12 4 -13 -0.2 2.1
-13 4 -13 3.4 2.3
-13 -5 13 41.5 8.5
13 5 -13 19.3 5.5
-13 5 13 16.4 3.8
-13 5 13 14.5 5.9
-12 -5 13 17.4 5.5
-12 5 13 8.8 3.1
12 5 -13 -0.7 4.1
-12 5 13 15.2 9.4
-11 -5 13 7.2 3.6
-11 5 13 4.3 2.4
11 5 -13 4.2 3.2
-11 5 13 2.8 3.4
10 -5 -13 3 2.8
-10 5 13 -0.7 2.8
-10 5 13 3.7 1.9
10 5 -13 3.3 2.8
9 -5 -13 31.8 3.8
-9 5 13 29.5 5.7
9 5 -13 22.7 3.8
-9 5 13 32.5 2.8
-9 5 13 28.2 4.6
8 -5 -13 120.69 7
8 5 -13 118.19 7.6
-8 5 13 116.79 7.3
-8 5 13 131.59 6
-8 5 13 107.89 10.1
7 -5 -13 78.89 5.3
-7 5 13 77.59 6
7 5 -13 80.29 3.9
7 5 -13 77.39 5.7
-7 5 13 72.79 5.3
-7 5 13 80.59 4.2
6 -5 -13 26.1 3.3
6 5 -13 20.9 1.8
-6 5 13 23.5 3
-6 5 13 24.8 3.9
6 5 -13 17.3 3
5 -5 -13 70.19 5
5 5 -13 77.19 3.9
-5 5 13 71.99 4.8
5 5 -13 69.59 5.3
-5 5 13 77.69 5.8
-4 -5 13 153.28 11.3
4 -5 -13 161.88 8.4
4 5 -13 157.48 7.5
-4 5 13 159.28 7.9
-4 5 13 167.78 9.3
4 5 -13 161.28 8.7
-4 5 13 171.78 10.9
-3 -5 13 235.68 13.4
3 -5 -13 230.78 11.4
3 5 -13 242.58 10.7
3 5 -13 242.68 11.8
-3 5 13 252.57 12.5
-3 5 13 251.17 10.9
-3 5 13 230.68 12.9
2 -5 -13 541.95 22.5
-2 -5 13 487.85 23.4
2 -5 -13 531.85 22
-2 5 13 472.15 23.1
2 5 -13 552.34 22.7
1 -5 -13 736.03 29.8
1 -5 -13 724.43 30.2
-1 -5 13 699.33 31.1
-1 5 13 757.72 31.3
-1 5 13 648.54 30.6
0 -5 -13 325.37 14.5
0 -5 -13 323.37 14
0 5 -13 315.17 13.5
0 5 -13 317.37 14.3
0 5 13 273.17 17.2
0 5 13 333.07 15.5
-1 -5 -13 360.26 16.1
-1 -5 -13 363.96 16.6
1 -5 13 322.57 18.8
1 5 13 371.86 17.6
1 5 13 406.76 19.5
-1 5 -13 383.96 15.8
-1 5 -13 385.36 16.4
-2 -5 -13 308.07 13.6
2 -5 13 315.17 16.7
-2 -5 -13 323.97 14.2
2 5 13 318.77 15.1
-2 5 -13 311.27 13.7
-2 5 -13 296.87 13.2
2 5 13 269.97 17.3
-3 -5 -13 37.8 3.3
-3 5 -13 42.8 2.9
3 5 13 48.5 4.7
-3 5 -13 45.9 3.4
-4 -5 -13 21.9 2.8
-4 5 -13 23.9 2.5
-4 5 -13 23.7 2.2
4 5 13 23.2 3.8
-5 -5 -13 18.2 2.8
-5 5 -13 15.8 2
5 5 13 13.9 3.3
-6 -5 -13 42.5 4.1
6 5 13 48.7 5
-6 5 -13 47 3.1
-7 -5 -13 24.6 3.7
7 5 13 37.6 4.8
-7 5 -13 32.5 2.8
-7 5 -13 40.9 2.8
-8 5 -13 12.8 2.5
-8 5 -13 10.4 2.9
8 5 13 11.3 3.9
-9 5 -13 0.6 1.3
-9 5 -13 1.8 1.8
-10 5 -13 5.5 1.5
-10 5 -13 11 2.4
-11 5 -13 16.9 2.8
-12 5 -13 8.2 2.8
-13 -6 13 3.2 5.3
13 6 -13 -1.9 5.1
-13 6 13 5.9 5.6
-13 6 13 -0.4 3.3
-12 -6 13 13.5 5.4
12 6 -13 3 4.1
-12 6 13 12.6 5.6
-12 6 13 9.2 4.6
11 6 -13 5 4.2
-11 6 13 -2.6 2.2
10 -6 -13 2.5 3.5
-10 6 13 5.7 1.9
10 6 -13 2.9 3.2
-10 6 13 0.8 3.2
9 -6 -13 9 2.8
-9 6 13 15.6 3.6
-9 6 13 21.8 2.5
-9 6 13 16.1 4.3
9 6 -13 12.4 3.5
8 -6 -13 1.5 2.3
-8 6 13 2.3 3
-8 6 13 0.4 1.1
-8 6 13 -1.5 2.5
8 6 -13 2.8 2.7
7 -6 -13 2.5 2.1
7 6 -13 1.2 1
-7 6 13 1.2 2.3
-7 6 13 2.8 1.2
-7 6 13 1 2.4
7 6 -13 2.9 2.3
6 -6 -13 17.4 2.9
6 6 -13 13.7 2.9
-6 6 13 18.3 3
-6 6 13 27.6 4.3
6 6 -13 17.7 1.8
-6 6 13 25.1 2.2
5 -6 -13 22 3.1
-5 6 13 32.8 2.2
-5 6 13 28.2 3.3
5 6 -13 28.8 2.1
-5 6 13 33 4.2
5 6 -13 18 3.1
4 -6 -13 5.7 2.1
-4 6 13 4.6 2
4 6 -13 10 1.4
-4 6 13 9.6 3
4 6 -13 5.9 2.2
-4 6 13 7 1.3
-3 -6 13 80.29 12.5
3 -6 -13 105.99 6.4
3 6 -13 110.89 5.4
3 6 -13 113.79 6.7
-3 6 13 118.99 7.4
-3 6 13 107.79 9.7
2 -6 -13 5.7 2
2 -6 -13 7.1 2.2
-2 6 13 4.3 2.6
2 6 -13 7.7 2.3
-2 6 13 5.3 4.9
2 6 -13 7 1.4
1 -6 -13 19.9 2.8
1 -6 -13 21.4 2.7
-1 6 13 20.6 3.7
1 6 -13 23.7 2.1
1 6 -13 16.9 2.6
0 -6 -13 215.18 10.3
0 -6 -13 214.18 10.7
0 6 -13 228.88 9.8
0 6 -13 209.88 10.5
0 6 13 227.58 11.8
-1 -6 -13 140.69 7.3
-1 -6 -13 134.09 7.6
-1 6 -13 141.99 6.8
1 6 13 148.29 8.7
-1 6 -13 144.39 7.9
-2 -6 -13 62.19 4.3
-2 6 -13 65.69 4.3
-2 6 -13 62.69 3.7
2 6 13 64.69 5.4
-3 -6 -13 113.69 6.6
-3 6 -13 122.19 6.3
-3 6 -13 126.69 6
3 6 13 119.79 7.8
-4 -6 -13 88.19 5.5
4 6 13 93.89 6.6
-4 6 -13 90.79 4.8
-5 -6 -13 36 3.9
5 6 13 42.6 4.7
-5 6 -13 43 3
-6 -6 -13 55.79 4.7
-6 6 -13 63.29 3.7
6 6 13 53.59 5.5
-7 -6 -13 5.5 2.9
7 6 13 2.1 3.1
-7 6 -13 4.5 1.4
-8 6 -13 1.9 1.3
-8 6 -13 2.7 1.9
-9 6 -13 1.9 2
-9 6 -13 0.9 1.4
-10 6 -13 1.1 1.3
-10 6 -13 -0.4 2.3
-11 6 -13 0.4 1.4
-11 6 -13 1.3 2.7
-12 -7 13 21.7 6.2
-12 7 13 7.5 5.4
-12 7 13 9.8 2.9
-11 7 13 -1.4 2.2
11 7 -13 7.6 8.9
-11 7 13 -2.4 4.2
-10 7 13 0.9 3.6
-10 7 13 1.2 1.7
10 7 -13 0.3 3.8
9 -7 -13 2 3
-9 7 13 0.2 1.4
9 7 -13 2.2 3
-9 7 13 -1.1 3.1
8 -7 -13 7.9 2.8
-8 7 13 3.7 3.4
-8 7 13 6.1 1.4
8 7 -13 9.8 3.4
7 -7 -13 11.3 2.8
-7 7 13 8.4 1.4
7 7 -13 11.6 4.3
-7 7 13 11.3 3.7
-7 7 13 9.8 2.9
6 -7 -13 2.1 1.9
6 7 -13 4.1 1.1
6 7 -13 8 2.9
-6 7 13 4.1 2.6
-6 7 13 0.6 2.7
5 -7 -13 5.8 2.1
5 7 -13 19.1 3.5
-5 7 13 12.6 3.4
5 7 -13 12.7 1.6
-5 7 13 12.5 3.2
4 -7 -13 1.2 2
4 7 -13 3.3 2.2
-4 7 13 2 3.6
4 7 -13 -0.5 0.9
3 -7 -13 12.4 2.6
-3 7 13 10.5 3.2
3 7 -13 10.2 1.6
3 7 -13 4.8 2.4
2 -7 -13 2.2 1.9
2 -7 -13 -3.5 1.5
-2 7 13 -3 2.1
2 7 -13 1.7 2
2 7 -13 -0.3 1
1 -7 -13 2.1 1.8
1 -7 -13 1.9 1.8
-1 7 13 0.6 2.3
1 7 -13 0.6 1.2
1 7 -13 0.7 1.8
0 -7 -13 -1.6 1.6
0 7 -13 0.6 1.8
0 7 13 3 2.5
0 7 -13 1.5 1.2
-1 -7 -13 64.89 4.6
-1 7 -13 66.89 4.6
1 7 13 69.89 5.8
-1 7 -13 62.29 3.8
-2 -7 -13 21.1 2.9
2 7 13 22.3 3.8
-2 7 -13 24 2.3
-2 7 -13 25.1 3.2
-3 -7 -13 49.8 4.3
-3 7 -13 49.4 3.9
3 7 13 59.09 5.5
-3 7 -13 48.5 3.3
-4 -7 -13 62.89 4.8
4 7 13 64.09 5.9
-4 7 -13 63.09 3.9
-5 -7 -13 46.3 4.3
-5 7 -13 42.2 3.2
5 7 13 39 4.9
-6 -7 -13 6.8 2.9
-6 7 -13 7.9 1.8
6 7 13 5.5 3.2
-7 -7 -13 -0.1 3.3
7 7 13 0.7 3.4
-7 7 -13 0 1.5
-8 -7 -13 1 4.1
-8 7 -13 1.4 1.6
-9 7 -13 11.4 1.9
-10 7 -13 14.7 2.2
-11 7 -13 9.9 1.8
-12 -8 13 9.2 5.8
12 8 -13 12.4 6
11 8 -13 15.1 4.9
10 8 -13 14.9 5.2
-10 8 13 1.5 8.3
9 8 -13 31.7 4.7
-9 8 13 33 5
-8 8 13 37.9 4.9
8 8 -13 39.8 5.4
-7 8 13 65.99 6.4
7 8 -13 71.79 6.1
-6 8 13 79.49 6.7
6 8 -13 85.49 6.4
6 8 -13 81.99 4.2
-5 8 13 161.68 11.3
5 8 -13 169.18 7.5
5 8 -13 156.48 9.3
4 8 -13 5.5 1.3
4 8 -13 4.8 2.4
-4 8 13 5.2 2.9
3 -8 -13 18.4 3
3 8 -13 22.3 3.6
-3 8 13 24.1 4.2
3 8 -13 19.3 2.1
2 -8 -13 2.3 2
2 8 -13 0.5 2
2 8 -13 1.4 1.1
-2 8 13 2.9 2.7
1 -8 -13 -0.8 1.8
1 8 -13 -0.7 1
-1 8 13 -0.7 2.5
1 8 -13 2.4 2
0 -8 -13 78.69 5.3
0 8 13 75.29 6.3
0 8 -13 75.19 5.3
0 8 -13 78.39 4.4
-1 -8 -13 124.39 7.1
1 8 13 114.19 7.9
-1 8 -13 130.19 6.2
-1 8 -13 114.49 6.8
-2 -8 -13 127.49 7.3
2 8 13 120.19 8.2
-2 8 -13 134.79 7
-2 8 -13 126.19 6.4
-3 -8 -13 49.1 4.4
3 8 13 43.5 5
-3 8 -13 48.2 3.4
-4 -8 -13 31.6 3.9
-4 8 -13 33.6 3
4 8 13 34.5 4.8
-5 -8 -13 86.39 6.2
-5 8 -13 101.19 6.3
5 8 13 77.89 6.7
-6 -8 -13 111.09 7.3
6 8 13 113.39 8
-6 8 -13 103.79 5.9
-7 -8 -13 16.7 3.9
-7 8 -13 18.3 2.5
-8 -8 -13 14.3 5.2
-8 8 -13 18.7 2.4
-9 8 -13 11.2 2.2
-10 8 -13 -2.1 1.4
-11 8 -13 12.4 3.4
11 9 -13 2.5 5.3
10 9 -13 3.7 4.3
9 9 -13 -1.4 3.8
8 9 -13 3.2 3.2
-8 9 13 -1.9 4.5
-7 9 13 5.9 3.9
7 9 -13 2.9 3.1
-6 9 13 17.1 4.2
6 9 -13 11 3.4
6 9 -13 17.5 1.9
5 9 -13 149.79 6.9
-5 9 13 150.78 9.7
5 9 -13 140.59 8.8
4 -9 -13 144.39 9.3
-4 9 13 124.29 8.7
4 9 -13 132.69 6.3
4 9 -13 116.19 9.8
3 -9 -13 66.29 5.2
3 9 -13 60.19 5.3
-3 9 13 65.69 6.3
3 9 -13 70.69 4
2 -9 -13 47.7 4.3
-2 9 13 52.59 5.4
2 9 -13 39.4 4.3
2 9 -13 38.1 3
1 -9 -13 71.39 5.3
1 9 -13 72.69 4.3
1 9 -13 73.89 5.5
-1 9 13 70.89 6.4
0 -9 -13 43.9 4.2
0 9 13 43.1 5.3
0 9 -13 52.69 3.5
0 9 -13 42.3 4.3
-1 -9 -13 24.2 3.6
-1 9 -13 22.5 2.6
1 9 13 24.2 4.1
-1 9 -13 27.9 3.6
-2 -9 -13 60.19 4.9
2 9 13 55.39 5.8
-2 9 -13 57.39 4
-3 -9 -13 24.4 3.7
3 9 13 24.3 4.1
-3 9 -13 23.5 3
-4 -9 -13 -0.8 2.5
4 9 13 -2.6 3
-4 9 -13 3.1 2
-5 -9 -13 4.4 2.9
5 9 13 1.2 3.5
-5 9 -13 4.1 2
-6 -9 -13 14.9 3.8
6 9 13 14.3 4.6
-6 9 -13 15.4 2.6
-7 -9 -13 7.7 4.6
-7 9 -13 9.1 2.4
-8 9 -13 19.3 2.6
-9 9 -13 27.8 3.4
-10 9 -13 5.3 1.8
10 10 -13 -4.1 4.6
9 10 -13 4.1 4.5
-8 10 13 2.5 5.8
8 10 -13 4 6
-7 10 13 1.7 4.4
7 10 -13 2.4 4.2
6 10 -13 2.3 3.1
-6 10 13 -0.1 6.2
6 10 -13 1.5 1.8
5 -10 -13 1.2 2.7
5 10 -13 1.5 1.3
5 10 -13 -0.9 2.7
-5 10 13 -1.7 3.4
4 -10 -13 2 2.5
4 10 -13 0.3 1.3
4 10 -13 -0.9 2.7
-4 10 13 -0.8 3.7
3 -10 -13 0.5 2.5
3 10 -13 4.7 2.6
-3 10 13 -0.7 3.2
3 10 -13 -1 2
2 -10 -13 23 3.8
2 10 -13 10.9 3
-2 10 13 19.8 4.3
1 -10 -13 5.3 2.6
-1 10 13 5.1 3.2
0 -10 -13 8 2.8
0 10 -13 9.1 3.3
0 10 13 10.2 4
0 10 -13 8 3
-1 -10 -13 1.9 2.4
-1 10 -13 -1.8 3.1
-1 10 -13 -0.6 1.8
1 10 13 0.8 3.2
-2 -10 -13 22.3 3.7
2 10 13 15 4.1
-2 10 -13 30.1 3.3
-3 -10 -13 17.9 3.9
-3 10 -13 25.6 3.2
3 10 13 17.3 4.3
-4 -10 -13 1.1 2.9
-4 10 -13 -0.6 2.2
4 10 13 0.3 3.6
-5 -10 -13 0.2 3
5 10 13 2.5 4.6
-5 10 -13 6.4 2.8
-6 -10 -13 1.3 4.3
-6 10 -13 1.3 2.7
-7 -10 -13 -3.1 4.2
-7 10 -13 3.1 2.7
-8 10 -13 0.5 3.3
-9 10 -13 1.4 2.2
9 11 -13 1.5 4.4
8 11 -13 -6.9 4.3
7 -11 -13 5.2 3.8
7 11 -13 5 4.1
-7 11 13 6.7 5.9
6 -11 -13 7.2 3.6
6 11 -13 10.1 4
5 -11 -13 18.7 4.3
5 11 -13 26.6 2.7
5 11 -13 34.1 5.7
-5 11 13 17.9 4.8
4 -11 -13 16 3.7
4 11 -13 13.6 2.2
-4 11 13 17.2 4.9
4 11 -13 9.9 3.4
3 -11 -13 20.8 3.9
3 11 -13 13.5 3.7
3 11 -13 15.5 2.6
2 -11 -13 5.6 3.1
2 11 -13 4.6 3.2
-2 11 13 2.9 3.9
2 11 -13 3 2.1
1 -11 -13 19.9 3.8
1 11 -13 17.9 3.8
1 11 -13 9.6 2.5
-1 11 13 15.1 4.4
0 -11 -13 13.1 3.3
0 11 -13 29.8 4.3
0 11 13 11.8 4.2
0 11 -13 20.1 2.8
-1 -11 -13 7.6 3.4
-1 11 -13 5.8 2.6
1 11 13 2.7 3.8
-2 -11 -13 22 4
2 11 13 13.7 6
-2 11 -13 12 2.8
-3 -11 -13 3.8 3.2
3 11 13 3.2 4.2
-3 11 -13 8.3 3.1
-4 -11 -13 -0.3 3.7
-4 11 -13 0.3 2.8
4 11 13 2.4 4.1
-5 -11 -13 4.6 7.1
5 11 13 0.2 5.6
-5 11 -13 -1 3.1
-6 -11 -13 1.1 4.5
-6 11 -13 0.6 3
-7 -11 -13 4.4 7.8
-7 11 -13 2.5 3.2
-8 11 -13 9.1 3.2
8 -12 -13 -0.4 5.4
8 12 -13 0.7 4.9
7 -12 -13 7.5 4.3
7 12 -13 8.2 4.7
6 -12 -13 6.2 4.4
6 12 -13 1.2 4.2
5 -12 -13 5 3.6
5 12 -13 7.4 4.3
-5 12 13 5.8 5.1
4 -12 -13 1.5 6.6
4 12 -13 2.6 5.7
4 12 -13 -1.9 2
-4 12 13 -0.7 5.2
3 -12 -13 -3.2 2.9
3 12 -13 -1.6 5.5
-3 12 13 4 8
3 12 -13 1 2.4
2 -12 -13 3.7 3.6
2 12 -13 4.4 2.7
2 12 -13 3.8 3.9
-2 12 13 1.8 4.9
1 -12 -13 -2.6 3.6
1 12 -13 1.5 2.8
-1 12 13 1.7 4.7
0 -12 -13 9.5 4
0 12 13 1.4 4.4
0 12 -13 11 3.3
-1 -12 -13 19.3 4.3
-1 12 -13 32.4 4
1 12 13 24.5 5.6
-2 -12 -13 97.79 9.6
-2 12 -13 77.79 6.3
-3 -12 -13 66.19 6.7
-3 12 -13 58.59 5.6
-4 -12 -13 45.8 6
-4 12 -13 51.29 5
-5 -12 -13 16.2 5.7
-5 12 -13 18.1 4.1
-6 -12 -13 18.8 6
-6 12 -13 22.5 3.9
-7 12 -13 4.4 3.1
6 -13 -13 2.9 7.1
6 13 -13 6.2 7.5
5 -13 -13 5.2 4.2
5 13 -13 -0.1 4.5
4 -13 -13 17 5.3
4 13 -13 3.7 4.6
4 13 -13 6.9 2.5
3 -13 -13 1.8 4.5
3 13 -13 11.3 5.6
-3 13 13 7.8 9.4
3 13 -13 11.9 3.1
2 -13 -13 10.6 4.2
-2 13 13 -3.8 5.9
1 -13 -13 10.8 4.5
-1 13 13 3.1 5.6
1 13 -13 9.3 3.8
0 -13 -13 16.9 4.8
0 13 -13 24 4.3
0 13 13 42 7.8
-1 -13 -13 19.9 5.1
-1 13 -13 25.3 4.4
1 13 13 11.4 6.9
-2 -13 -13 7 4.7
2 13 13 6.8 7.6
-3 -13 -13 9.1 4.8
3 13 13 7.5 7.2
-3 13 -13 4.3 3.6
-4 -13 -13 1.6 5.3
-4 13 -13 3.9 4.1
-5 -13 -13 -6.7 6.1
-5 13 -13 -1.7 3.4
3 -14 -13 -0.5 5.4
3 14 -13 2.8 2.9
2 -14 -13 -4.3 5.2
2 14 -13 1.1 3.2
1 -14 -13 10.6 7.6
1 14 -13 5.2 3.7
0 -14 -13 0.2 5.5
0 14 -13 2.4 3.5
-1 -14 -13 3.9 10.7
-1 14 -13 0.3 3.7
-14 0 14 7.2 4.6
-14 0 14 2 6
-13 0 14 8.7 4.9
-13 0 14 15.8 4.3
-12 0 14 0.9 3.1
-12 0 14 7.9 5.5
12 0 -14 -7.6 5.5
-11 0 14 55.29 6.4
11 0 -14 64.49 5.8
10 0 -14 12.2 3
-10 0 14 14.9 3.6
-9 0 14 84.39 6.2
9 0 -14 77.79 5.8
-8 0 14 38.3 4.3
-8 0 14 41.9 4.7
8 0 -14 43.1 4.2
-7 0 14 7.8 2.6
-7 0 14 9.9 2.9
7 0 -14 10.2 2.6
-6 0 14 7.5 2.7
6 0 -14 7.5 2.3
5 0 -14 7.5 2.3
-5 0 14 4.8 4.3
-4 0 14 23.1 4.4
4 0 -14 23.5 3.2
3 0 -14 89.69 4.3
3 0 -14 79.99 5.2
-3 0 14 77.29 6.7
2 0 -14 155.68 8.1
2 0 -14 169.58 7.2
-2 0 14 139.29 8.8
1 0 -14 112.19 7.5
1 0 -14 99.29 4.8
-1 0 14 83.09 6.4
0 0 14 716.33 31
0 0 -14 741.43 30.8
0 0 -14 735.23 29.9
1 0 14 352.36 16
-1 0 -14 356.06 15.7
2 0 14 171.58 9.3
-2 0 -14 187.48 8.9
-2 0 -14 190.58 8.3
-3 0 -14 442.56 17.8
-3 0 -14 432.16 18.5
3 0 14 401.46 18.4
-4 0 -14 272.57 11.2
4 0 14 216.58 12.7
-4 0 -14 281.37 12.1
-5 0 -14 129.49 6.1
-6 0 -14 91.69 4.7
-7 0 -14 35 2.5
-14 -1 14 0.7 6
-14 -1 14 0.8 4.3
-14 1 14 0.4 4
-14 1 14 10 6.4
-13 -1 14 5.9 4.2
-13 -1 14 9.4 5.1
-13 1 14 7 5.4
-13 1 14 5.1 3.7
-12 -1 14 -1.8 4.6
12 -1 -14 -0.6 4.7
12 1 -14 -2 4
-12 1 14 -1.1 4.5
-12 1 14 2.1 3.4
11 -1 -14 -1.1 2.7
-11 -1 14 4.1 3.6
11 1 -14 1.3 2.8
-11 1 14 0.3 3.2
10 -1 -14 16.9 3.5
-10 -1 14 21.8 4.2
-10 1 14 23.5 4.3
10 1 -14 22.3 3.7
-9 -1 14 2.2 2.5
9 -1 -14 2.4 2.2
-9 1 14 2.4 2.4
9 1 -14 1.2 2.1
8 -1 -14 1 1.9
-8 -1 14 1.1 2.8
-8 -1 14 2 2.2
-8 1 14 1.7 2.1
8 1 -14 0.9 1.8
-8 1 14 4.1 2.8
-7 -1 14 30.4 4.1
7 -1 -14 30.5 3.8
-7 1 14 34.1 3.8
7 1 -14 28.5 3.8
-7 1 14 23 3.6
6 -1 -14 31.6 3.4
-6 1 14 32.3 4.2
-6 1 14 23.2 3.3
6 1 -14 32.6 3.9
-5 -1 14 0.6 4.6
5 -1 -14 6.5 2
-5 1 14 9.5 2.6
5 1 -14 10.8 2.3
-5 1 14 0.3 4.4
4 -1 -14 66.59 4.6
4 1 -14 66.59 3.5
-4 1 14 48.5 6.8
4 1 -14 69.39 4.7
-3 -1 14 26.5 4
3 -1 -14 37.2 3.3
3 1 -14 37.2 2.3
-3 1 14 25.7 3.9
3 1 -14 29.1 3.1
2 -1 -14 28.7 3
-2 -1 14 29.1 3.8
-2 1 14 18.6 3.4
2 1 -14 32.4 2.2
2 1 -14 31.3 3.1
1 -1 -14 105.69 7.6
-1 -1 14 99.49 7
1 -1 -14 114.89 5.3
1 1 -14 114.69 5.4
-1 1 14 101.69 7
1 1 -14 129.99 7.6
0 -1 -14 20.2 1.8
0 -1 14 13.8 2.9
0 1 -14 18.3 1.8
0 1 14 15 2.9
0 1 -14 23.6 2.8
1 -1 14 32.5 4.4
-1 -1 -14 43.4 5.1
1 1 14 24.3 3.3
-1 1 -14 33.2 3
-2 -1 -14 24.9 2
2 -1 14 22.9 3.2
-2 1 -14 23.3 2.1
-2 1 -14 22.4 2.6
2 1 14 25.9 3.2
3 -1 14 9.1 2.8
-3 -1 -14 14.7 3.4
-3 -1 -14 12.1 1.6
-3 1 -14 11.8 2.1
3 1 14 11.8 2.8
-3 1 -14 19.2 2
-4 -1 -14 105.99 4.9
-4 -1 -14 91.09 5.5
-4 1 -14 97.89 4.9
-4 1 -14 91.89 5.4
-5 -1 -14 132.29 6.2
-5 1 -14 136.39 6.3
-5 1 -14 129.39 6.8
-6 -1 -14 62.39 3.7
-6 1 -14 75.79 3.9
-7 1 -14 129.69 6.2
8 1 14 32.6 4.8
-8 1 -14 40.1 2.7
-9 1 -14 5.6 1.3
-14 -2 14 3.4 3.9
-14 -2 14 0.1 5.5
-14 2 14 2.7 5.5
-14 2 14 -2.6 3.9
-13 -2 14 -8.6 4.8
-13 -2 14 -3.1 3.9
-13 2 14 -8.1 4.6
13 2 -14 9.3 5.7
-13 2 14 -2.8 4.3
-12 -2 14 4.6 4.1
-12 2 14 5.2 4.7
-12 2 14 3.1 3.1
12 2 -14 10.5 4
-11 -2 14 6.1 4
11 -2 -14 9.5 3.4
-11 2 14 6.1 2.9
-11 2 14 5.8 3.7
11 2 -14 6 3.1
-10 -2 14 2.8 3
10 -2 -14 0.5 2.4
10 2 -14 -0.3 2.3
-10 2 14 2.6 2.8
9 -2 -14 4.7 2.3
-9 2 14 4.6 2.6
8 -2 -14 3.2 2
-8 -2 14 0.5 3
-8 2 14 0.6 2.6
-8 2 14 1.4 2.3
8 2 -14 0.2 1.9
7 -2 -14 25.6 3.4
-7 2 14 21.6 3.6
7 2 -14 26.6 3.7
-7 2 14 27.3 3.7
6 -2 -14 -0.6 1.7
6 2 -14 -2 1.7
-6 2 14 -0.3 1.7
-6 2 14 0.2 2.2
-5 -2 14 47.2 6.5
5 -2 -14 56.39 4.4
-5 2 14 66.29 4.6
5 2 -14 56.19 3.2
-5 2 14 55.09 4.9
5 2 -14 61.49 4.5
-4 -2 14 31.5 5
4 -2 -14 45.1 3.8
4 2 -14 47.1 2.8
-4 2 14 45.3 3.7
4 2 -14 46.8 3.9
-4 2 14 53.29 6.7
-4 2 14 51.79 4.7
3 -2 -14 81.89 5
-3 -2 14 65.09 6.8
-3 2 14 57.39 6.6
3 2 -14 69.99 3.8
-3 2 14 84.89 4.7
-3 2 14 72.89 5.6
3 2 -14 70.19 4.8
2 -2 -14 36.9 2.9
-2 -2 14 42.7 5.3
2 -2 -14 42.1 3.5
-2 2 14 38 3.1
-2 2 14 27.7 3.9
2 2 -14 36.1 2.5
2 2 -14 34.2 3.3
-1 -2 14 32.7 3.9
1 -2 -14 26.4 2.9
-1 2 14 30.6 2.7
1 2 -14 27.5 2.1
-1 2 14 23.1 3.5
0 -2 -14 26 2.8
0 -2 14 24.7 3.5
0 2 14 28.5 2.4
0 2 14 23.3 3.4
0 2 -14 25.7 2.8
1 -2 14 71.39 6
-1 -2 -14 70.59 4.7
1 2 14 67.19 5.7
-1 2 -14 76.19 3.9
-1 2 -14 78.69 4.7
2 -2 14 97.39 6.6
-2 -2 -14 103.39 5.8
2 2 14 93.29 6.5
-2 2 -14 96.79 5.5
-2 2 -14 102.19 4.9
-3 -2 -14 10.9 2.2
-3 2 -14 13.9 2.2
-3 2 -14 12.8 1.6
-4 -2 -14 1.5 1.7
-4 2 -14 1.9 1.1
-4 2 -14 -0.5 1.5
-5 2 -14 23.2 2.7
-5 2 -14 20.4 2
-6 2 -14 7.7 1.5
6 2 14 7.4 3
7 2 14 14.2 4.4
-7 2 -14 8.2 1.4
-8 2 -14 3.1 1.2
8 2 14 5.2 3.7
-9 2 -14 0.5 1.1
-13 -3 14 5.6 5.6
-13 -3 14 3.4 5.1
-13 3 14 6.3 10.9
-13 3 14 3 4
13 3 -14 4.4 5.5
-12 -3 14 1.1 4.8
-12 3 14 6.2 3.5
-12 3 14 -1.4 4.7
-11 -3 14 -2.1 3.1
11 -3 -14 1.3 3.3
11 3 -14 0 3.1
-11 3 14 -0.2 3.5
-11 3 14 -2.5 2.6
-10 -3 14 57.79 6.1
10 -3 -14 57.59 5.3
-10 3 14 58.79 4.4
-10 3 14 66.29 6.1
10 3 -14 65.29 5.8
9 -3 -14 11.7 3.8
9 3 -14 4.1 2.4
-8 -3 14 33.7 6.5
8 -3 -14 31.6 3.8
-8 3 14 35.6 4.1
-8 3 14 40.6 4.8
8 3 -14 36.2 4.1
7 -3 -14 138.29 7.8
-7 3 14 142.89 8
-7 3 14 147.89 8.5
7 3 -14 130.99 8
6 -3 -14 177.88 9.2
-6 3 14 172.68 9.7
6 3 -14 187.98 8
-6 3 14 175.18 9.1
6 3 -14 154.08 9.1
5 -3 -14 141.79 8
5 3 -14 157.68 8.5
-5 3 14 161.28 9
-5 3 14 150.48 8
4 -3 -14 102.89 6.2
-4 3 14 112.39 7.1
-4 3 14 95.59 10.7
-4 3 14 107.19 6
4 3 -14 101.79 6.4
3 -3 -14 84.59 5.2
-3 -3 14 93.29 9
3 3 -14 74.79 5.2
-3 3 14 71.19 7.4
-3 3 14 78.69 4.7
-3 3 14 76.39 5.8
2 -3 -14 103.99 6.1
-2 -3 14 93.89 8.5
-2 3 14 113.49 7.2
-2 3 14 117.49 6.6
-2 3 14 99.09 7.7
2 3 -14 96.79 6.1
1 -3 -14 421.76 19.3
-1 -3 14 426.36 21.3
1 3 -14 461.65 19.4
-1 3 14 439.16 19
-1 3 14 447.06 20.4
1 3 -14 457.35 18.5
-1 3 14 417.66 20.9
0 -3 -14 293.77 12.1
0 -3 14 259.17 15.5
0 -3 -14 299.87 13.1
0 3 -14 280.77 12.1
0 3 14 308.17 14.3
0 3 14 227.28 14.6
-1 -3 -14 2.5 1.8
-1 3 -14 0.4 1.4
-1 3 -14 0.6 1
1 3 14 2.2 2.2
2 -3 14 6.5 3.3
-2 -3 -14 2.6 2.3
-2 3 -14 2.7 1.1
2 3 14 2.9 3
2 3 14 -1 2
-2 3 -14 1 1.5
-3 -3 -14 13.7 2.4
-3 3 -14 13.3 2.2
3 3 14 21.3 3.9
-3 3 -14 9.9 1.5
-4 3 -14 22.5 2.1
4 3 14 25.6 4.2
-4 3 -14 19.8 2.5
-5 3 -14 99.89 5.6
-5 3 -14 106.89 5.3
5 3 14 113.59 7.5
-6 3 -14 136.89 6.6
6 3 14 140.59 8.7
-7 3 -14 128.99 6
7 3 14 113.79 8.1
-8 3 -14 98.89 5.1
8 3 14 80.29 7.2
-9 3 -14 12.2 1.7
-10 3 -14 1.1 1.2
-13 -4 14 11.7 6.1
-13 4 14 0 5.2
13 4 -14 10.7 5.2
-13 4 14 -1.3 3.4
-12 -4 14 10.6 5
12 4 -14 6.9 4.3
-12 4 14 8.7 3.3
-12 4 14 5.5 4.7
11 -4 -14 -1 3.9
-11 -4 14 -1.4 3.7
-11 4 14 2.6 2.5
-11 4 14 2.6 3.6
11 4 -14 0 3.2
-10 -4 14 -2.3 2.9
10 -4 -14 -1 2.8
10 4 -14 -0.4 3
-10 4 14 0.8 3.2
-10 4 14 0.6 1.9
9 -4 -14 1.2 2.3
9 4 -14 1.9 2.4
-9 4 14 -0.1 1.5
-9 4 14 1.4 2.6
8 -4 -14 12.6 2.7
8 4 -14 9.6 2.9
-8 4 14 12 3.5
-8 4 14 12.7 3
7 -4 -14 -0.7 1.8
-7 4 14 1.6 2.8
7 4 -14 3.1 2.4
-7 4 14 0.4 2.2
6 -4 -14 79.39 5.5
6 4 -14 84.79 4.2
-6 4 14 85.09 6.3
-6 4 14 87.09 5.6
6 4 -14 79.69 5.8
5 -4 -14 2.8 2
5 4 -14 2.3 0.9
-5 4 14 1.3 1.8
5 4 -14 5.4 2.3
-5 4 14 1.9 2.5
-4 -4 14 26.5 10.4
4 -4 -14 30 3.3
-4 4 14 22.6 2.8
4 4 -14 32.4 3.9
-4 4 14 31.3 6.3
-4 4 14 30.1 4
4 4 -14 27.3 2.1
3 -4 -14 94.49 5.7
-3 -4 14 83.39 9.7
-3 4 14 92.69 6.5
3 4 -14 82.59 5.7
-3 4 14 93.99 5.3
-3 4 14 76.19 8.5
3 4 -14 93.09 4.6
-2 -4 14 110.19 9.6
2 -4 -14 125.59 6.2
2 -4 -14 115.09 6.7
2 4 -14 100.89 7.5
-2 4 14 134.09 7.9
-2 4 14 124.99 9
2 4 -14 126.79 5.8
1 -4 -14 324.57 14.3
-1 -4 14 324.57 17.3
1 -4 -14 345.07 15.2
-1 4 14 346.37 16.2
-1 4 14 281.17 16.3
1 4 -14 342.87 14.1
1 4 -14 340.67 15.1
0 -4 -14 702.83 29.7
0 -4 -14 686.43 28.8
0 4 -14 703.03 28.8
0 4 14 693.43 30.8
0 4 -14 712.43 29.6
-1 -4 -14 717.13 30.3
1 4 14 765.92 32.4
-1 4 -14 728.83 30.2
-2 -4 -14 378.46 16.9
2 4 14 411.76 19
-2 4 -14 397.56 16.9
-2 4 -14 408.56 17.5
-3 -4 -14 280.07 13.2
-3 4 -14 294.47 12.4
-3 4 -14 281.17 12.8
3 4 14 280.87 14.4
-4 4 -14 149.69 7.5
-4 4 -14 152.28 7.2
4 4 14 161.38 9.3
5 4 14 43 4.8
-5 4 -14 40.4 2.8
-6 4 -14 14.1 1.8
6 4 14 15.6 3.7
7 4 14 29.5 4.4
-7 4 -14 33.9 2.7
8 4 14 2.1 3.8
-8 4 -14 0.7 1.2
-9 4 -14 1.2 1.3
-10 4 -14 6.3 1.5
-13 -5 14 3.4 5.6
13 5 -14 4.9 5.7
-13 5 14 -0.4 5.9
-13 5 14 1.3 3.5
-12 -5 14 2.6 4.7
-12 5 14 4.1 4.9
12 5 -14 -2.9 4.1
-11 -5 14 1.4 3.7
11 5 -14 5.3 4.1
-11 5 14 1.8 4.1
-11 5 14 3.4 2.5
10 -5 -14 22.5 4
-10 5 14 10.1 3.5
-10 5 14 24.4 2.9
10 5 -14 22.7 4.5
9 -5 -14 7.3 2.8
9 5 -14 8 3.2
-9 5 14 7.2 3.1
-9 5 14 7 2
8 -5 -14 -0.9 3.4
-8 5 14 0.8 1.2
-8 5 14 -1.9 2.4
-8 5 14 -0.7 3
8 5 -14 -2.5 2.5
7 -5 -14 9.3 2.4
-7 5 14 9.2 3.2
7 5 -14 14.2 1.5
7 5 -14 4.5 2.5
-7 5 14 11.3 2.8
-7 5 14 11 1.6
6 -5 -14 8.7 2.3
6 5 -14 12.6 1.5
6 5 -14 10.2 2.8
-6 5 14 14.2 2.8
5 -5 -14 1.4 1.8
-5 5 14 0.4 3.6
5 5 -14 0.9 2
5 5 -14 3 1.1
-5 5 14 2.3 2.6
4 -5 -14 38 3.7
-4 5 14 40.5 3.7
-4 5 14 46.3 4.8
4 5 -14 42.7 2.7
4 5 -14 46.5 4.2
3 -5 -14 31.8 3.6
-3 5 14 25.5 4.2
3 5 -14 21.3 2
3 5 -14 23.2 3.5
2 -5 -14 156.98 8.4
2 -5 -14 158.08 7.9
2 5 -14 151.78 8.4
2 5 -14 157.68 7.3
-2 5 14 166.28 9.4
1 -5 -14 14.4 2.7
1 -5 -14 13.5 2.2
1 5 -14 12.6 2.6
1 5 -14 16.9 1.9
-1 5 14 15.1 3.3
0 -5 -14 25.9 2.8
0 -5 -14 28.4 3.3
0 5 14 31.4 4
0 5 -14 29.3 3.1
0 5 -14 24.9 2.2
-1 -5 -14 2.4 1.7
-1 -5 -14 -0.1 1.7
-1 5 -14 0.9 1.6
1 5 14 -2.2 2.2
-1 5 -14 -0.1 1
-2 -5 -14 2.9 1.9
-2 -5 -14 -0.9 1.7
-2 5 -14 -1 1.7
-2 5 -14 1.4 1.1
2 5 14 0.5 2.5
-3 -5 -14 23.2 2.8
-3 5 -14 22.9 2.8
3 5 14 17.8 3.5
-3 5 -14 21.8 2.1
-4 -5 -14 -0.6 2.1
-4 5 -14 1.3 1.1
4 5 14 -1 2.3
-4 5 -14 -2.4 1.9
5 5 14 5 2.8
-5 5 -14 5.7 1.4
6 5 14 2.7 3
-6 5 -14 5.3 1.4
7 5 14 -0.1 3.2
-8 5 -14 10.2 1.7
-9 5 -14 1.2 1.3
-10 5 -14 -0.2 1.2
12 6 -14 19.6 6.5
-12 6 14 13.3 5.7
-12 6 14 21.3 3.5
-11 -6 14 27.8 6.4
-11 6 14 17.8 4.9
-11 6 14 22.7 3
11 6 -14 29.4 6.2
10 -6 -14 16.4 5.3
10 6 -14 20.8 4.9
-10 6 14 14 2.3
-10 6 14 6.5 4.4
9 -6 -14 8.7 3.1
-9 6 14 6.2 1.7
9 6 -14 8.5 3.4
-9 6 14 6.3 3.5
8 -6 -14 -0.7 2.3
-8 6 14 3 1.3
8 6 -14 1.3 2.9
-8 6 14 2.6 3.4
-8 6 14 -1.1 3.3
7 -6 -14 2.3 2.3
-7 6 14 3.7 1.3
-7 6 14 2.1 2.7
7 6 -14 2.3 1
-7 6 14 4.4 3.2
7 6 -14 -0.5 2.5
6 -6 -14 4 2.2
6 6 -14 6.6 1.2
-6 6 14 6 2.8
6 6 -14 5.7 2.6
-6 6 14 6.1 1.3
-6 6 14 3.7 2.9
5 -6 -14 9.2 2.3
-5 6 14 9.8 3.7
-5 6 14 12 3.4
5 6 -14 9.1 2.5
-5 6 14 13.2 1.7
5 6 -14 11.8 1.6
4 -6 -14 0.3 1.8
4 6 -14 0.4 0.9
4 6 -14 0 1.9
3 -6 -14 89.89 6
3 -6 -14 91.99 5.7
-3 6 14 114.09 7.4
3 6 -14 100.69 6.3
3 6 -14 97.19 5
2 -6 -14 20.8 2.9
2 -6 -14 30 3.6
2 6 -14 25 3.5
2 6 -14 21.3 2.1
-2 6 14 20.8 3.7
1 -6 -14 12.9 2.6
-1 6 14 13.4 3.5
1 6 -14 9.8 1.6
1 6 -14 13.5 2.6
0 -6 -14 7.3 2.2
0 -6 -14 5.2 2.2
0 6 -14 9.2 1.7
0 6 -14 6.3 2
0 6 14 8.9 3.2
-1 -6 -14 80.79 5.1
-1 6 -14 76.49 4.9
1 6 14 63.39 5.9
-1 6 -14 76.99 4.3
-2 6 -14 136.69 7.2
-2 6 -14 135.39 6.6
2 6 14 135.29 8.9
-3 -6 -14 84.79 5.3
-3 6 -14 85.39 5.3
-3 6 -14 87.09 4.7
-4 -6 -14 8.1 2.6
-4 6 -14 8.8 1.8
4 6 14 7.2 3
-5 -6 -14 0.9 2.7
5 6 14 0.8 2.6
-5 6 -14 3.6 1.6
-6 6 -14 9.3 2.6
6 6 14 11.4 3.8
-7 6 -14 45.3 3.3
7 6 14 34 5.1
-8 6 -14 4.5 1.8
-9 6 -14 1 1.5
-12 -7 14 0.8 5.4
-12 7 14 -0.8 3.2
12 7 -14 2.4 4.7
-11 -7 14 5 4.8
-11 7 14 6.1 2.6
11 7 -14 0 4.4
10 7 -14 19 5.3
-10 7 14 32.3 3.3
-10 7 14 34.2 10
9 -7 -14 26 4.3
9 7 -14 26.8 5.1
-9 7 14 25 2.7
-9 7 14 22.4 4.5
8 -7 -14 44.3 4.8
8 7 -14 51.29 5.6
-8 7 14 40.7 5
7 -7 -14 39.9 4.5
7 7 -14 52.09 5.3
-7 7 14 44.3 5.8
-6 7 14 51.99 5.7
6 7 -14 47.3 5.2
6 7 -14 57.19 3.2
5 -7 -14 5.9 2.5
-5 7 14 1.9 3.1
5 7 -14 6.9 1.3
5 7 -14 4.8 2.7
4 -7 -14 26 3.4
4 7 -14 22.7 2.1
4 7 -14 31.4 4.2
-4 7 14 41 5.2
3 -7 -14 -1.4 1.8
3 -7 -14 -1.4 1.9
3 7 -14 3.1 2.2
-3 7 14 -3.4 2.3
3 7 -14 0.4 1
2 -7 -14 1.5 2
2 -7 -14 0 1.7
-2 7 14 1.9 2.8
2 7 -14 -0.8 1.8
2 7 -14 -0.3 1
1 -7 -14 19.5 3
1 -7 -14 16.1 2.9
-1 7 14 13.3 3.3
1 7 -14 16.5 2.1
1 7 -14 9 2.3
0 -7 -14 1.4 2
0 7 -14 0.2 1.2
0 7 14 -1.3 2.3
0 7 -14 1.8 2
-1 -7 -14 11.3 2.7
1 7 14 12.8 3.4
-1 7 -14 10.7 2.6
-1 7 -14 17.6 2.2
-2 -7 -14 1.2 2.2
-2 7 -14 0.6 2.1
-2 7 -14 2.9 1.4
2 7 14 2.9 2.6
-3 -7 -14 31.8 3.8
3 7 14 36 4.9
-3 7 -14 39.8 3
-4 -7 -14 -1.9 2.4
-4 7 -14 -1.4 1.4
4 7 14 1.6 2.8
-5 -7 -14 20.7 3.6
5 7 14 11.2 3.6
-6 7 -14 65.29 4.2
6 7 14 63.59 6.2
-7 7 -14 146.69 7.2
7 7 14 132.59 10.9
-8 7 -14 67.69 4.3
-9 7 -14 34.7 3.1
-10 7 -14 14.7 2
-11 -8 14 -1 4.8
11 8 -14 -1.7 5.2
10 8 -14 -5.3 4.1
9 8 -14 3.1 4.2
8 8 -14 9.7 4.1
-8 8 14 10.6 4.9
-7 8 14 28.9 5.8
7 8 -14 37.3 5.1
-6 8 14 122.99 8.5
6 8 -14 115.79 5.6
6 8 -14 109.79 7.8
-5 8 14 61.99 6.3
5 8 -14 60.79 3.5
5 8 -14 53.29 5.4
4 -8 -14 5.8 2.5
-4 8 14 5.9 3.5
4 8 -14 1.9 1.2
3 -8 -14 -0.1 2.2
3 8 -14 1.4 1.3
3 8 -14 0.3 2.2
-3 8 14 0.8 3
2 -8 -14 -0.2 2.1
-2 8 14 -0.9 2.8
2 8 -14 1.7 1.2
2 8 -14 -0.2 2.1
1 -8 -14 25.1 3.5
-1 8 14 24.8 4.3
1 8 -14 13.6 2.8
1 8 -14 21.9 2.4
0 -8 -14 17 3
0 8 -14 18.7 2.3
0 8 -14 11.8 2.9
0 8 14 29.8 4.6
-1 -8 -14 3.6 2.4
-1 8 -14 1.1 2.3
-1 8 -14 0.4 1.3
1 8 14 5 3
-2 -8 -14 11.8 2.9
-2 8 -14 7.3 2.8
-2 8 -14 9 2
2 8 14 12.9 3.8
-3 -8 -14 64.29 5.2
3 8 14 63.99 6.3
-3 8 -14 71.39 4.4
-4 -8 -14 75.09 6.4
4 8 14 72.69 6.7
-4 8 -14 77.89 4.7
-5 -8 -14 38.8 4.7
-5 8 -14 30.3 3.3
5 8 14 23 4.5
6 8 14 42.4 6
-6 8 -14 43.3 3.8
-7 8 -14 6.2 2.1
-8 8 -14 -1.1 1.7
-9 8 -14 0.1 2.1
-10 8 -14 -0.9 1.5
10 9 -14 7.8 5.3
9 9 -14 9.5 4.4
-8 9 14 3.6 6.4
8 9 -14 -2.2 3.6
-7 9 14 -0.2 4.2
7 9 -14 1.1 3.4
-6 9 14 34.5 7.3
6 9 -14 37.4 2.7
5 -9 -14 103.59 7
5 9 -14 110.69 5.3
5 9 -14 99.29 7.4
-4 9 14 187.28 11.4
3 -9 -14 67.39 5.7
3 9 -14 73.19 6
3 9 -14 92.69 5.8
-3 9 14 80.89 7.2
2 9 -14 63.09 4.5
2 9 -14 64.49 5.5
-2 9 14 68.99 6.5
1 -9 -14 1.7 2.8
1 9 -14 -0.9 1.7
-1 9 14 1.1 3.3
1 9 -14 -2.1 3.3
0 -9 -14 -1.5 3.6
0 9 14 0 2.8
0 9 -14 3.3 2.6
-1 -9 -14 9.2 4.4
1 9 14 12.6 3.7
-1 9 -14 11.8 3.1
-1 9 -14 9.3 2.3
-2 -9 -14 -1.2 2.7
2 9 14 2.7 3.2
-2 9 -14 0.9 2
-3 -9 -14 5.5 3.1
3 9 14 4.5 3.3
-3 9 -14 5.5 2.1
-4 -9 -14 23.1 4
4 9 14 21.6 6.5
-4 9 -14 20 2.9
-5 -9 -14 43 5.5
-5 9 -14 44.7 4.2
-6 9 -14 6.6 2.6
6 9 14 4.7 4.9
-7 9 -14 21.7 2.8
-8 9 -14 5.8 2.7
-9 9 -14 9.4 2.4
9 10 -14 3.7 4.9
-8 10 14 0.2 9.4
8 10 -14 2.6 4.1
-7 10 14 1.5 5.6
7 10 -14 4.1 4.9
6 -10 -14 3.1 4.7
-6 10 14 1.9 4.3
6 10 -14 5 5.1
5 -10 -14 12 3.5
-5 10 14 9.3 4.1
5 10 -14 14.3 2
5 10 -14 17.4 4.2
4 -10 -14 -1.2 2.6
4 10 -14 1.8 1.7
4 10 -14 -3.1 2.7
3 -10 -14 43.9 5.1
-3 10 14 50.39 6.7
3 10 -14 51.79 3.8
3 10 -14 58.69 5.6
2 -10 -14 115.69 7.5
2 10 -14 113.59 6.2
-2 10 14 123.19 9
2 10 -14 98.79 7.3
1 -10 -14 58.79 5.5
1 10 -14 63.39 5.6
1 10 -14 70.49 4.7
-1 10 14 74.39 9.2
0 -10 -14 64.29 5.6
0 10 -14 59.19 5.8
0 10 -14 63.69 4.6
-1 -10 -14 118.29 7.9
1 10 14 124.69 9.2
-1 10 -14 130.49 7
-2 -10 -14 153.88 9
-2 10 -14 147.19 7.9
2 10 14 152.48 10.3
3 10 14 195.38 14
-3 10 -14 225.08 10.4
-4 -10 -14 44.9 5.8
-4 10 -14 56.69 4.8
4 10 14 53.59 7.1
-5 -10 -14 -0.8 4.6
5 10 14 5.2 6
-5 10 -14 -2.8 2.8
-6 10 -14 4.9 3
-8 10 -14 1 2.8
8 -11 -14 6.5 4.6
8 11 -14 10.8 5.3
7 -11 -14 0.8 4.8
7 11 -14 3.1 7.2
-7 11 14 3.7 7.2
6 -11 -14 -0.5 3.5
-6 11 14 -2.4 5.7
6 11 -14 3.5 4.3
5 -11 -14 31.7 7.2
5 11 -14 30.6 8.8
-5 11 14 18 5.4
5 11 -14 28 3
4 -11 -14 62.59 6.1
4 11 -14 64.89 6.6
4 11 -14 66.19 4.4
-4 11 14 83.19 9.5
-3 11 14 57.19 7.6
3 11 -14 60.09 4.5
2 -11 -14 26.5 4.4
-2 11 14 11.9 4.4
2 11 -14 18 3
2 11 -14 12 4.2
1 -11 -14 36.8 4.9
-1 11 14 20.2 5
1 11 -14 36.2 3.8
1 11 -14 40.7 5.1
0 -11 -14 3 3.1
0 11 -14 5.9 2.7
0 11 14 14.5 4.9
-1 -11 -14 0.7 3.6
1 11 14 4.2 4.6
-1 11 -14 -1.7 2.9
-2 -11 -14 0.8 4
2 11 14 -0.7 4.3
-2 11 -14 2.5 3
-3 -11 -14 11 7.6
-3 11 -14 17.6 3.9
3 11 14 15.7 9.7
-4 -11 -14 20 4.9
4 11 14 13.3 5.2
-4 11 -14 13.3 3.6
-5 11 -14 22.8 4.1
-6 11 -14 8.9 3.5
-7 11 -14 3.3 3.3
7 -12 -14 -1.4 5.8
7 12 -14 -3.7 7.9
6 -12 -14 12.5 4.9
6 12 -14 5.6 4.9
5 -12 -14 3 4
5 12 -14 -0.9 4.4
-5 12 14 2.7 7
4 -12 -14 4.8 4
4 12 -14 0 2.2
4 12 -14 -7.1 4.2
-4 12 14 -0.3 5.9
3 -12 -14 -0.5 3.6
3 12 -14 0.3 4.3
-3 12 14 2.9 5.9
3 12 -14 -2 2.5
2 -12 -14 10.6 4.3
-2 12 14 6.3 5.4
2 12 -14 -3 4.8
2 12 -14 6.6 3
1 -12 -14 0 3.7
1 12 -14 3.4 3
-1 12 14 8.9 5.6
0 -12 -14 3.5 4
0 12 14 -0.9 4.9
0 12 -14 4.1 3.4
-1 -12 -14 -2.1 3.6
1 12 14 3.1 5.1
-1 12 -14 -0.3 3.2
-2 -12 -14 6.2 4.4
-2 12 -14 6.3 3.8
2 12 14 4 6
-3 -12 -14 -2.5 5.2
-3 12 -14 1.5 3.7
3 12 14 5.1 6.1
-4 -12 -14 -0.4 5.4
-4 12 -14 2.1 3.6
4 12 14 0.3 7.4
-5 12 -14 3 3.3
4 -13 -14 6.6 5.6
4 13 -14 13.9 6.2
4 13 -14 5.5 2.6
3 -13 -14 -3.5 4.8
3 13 -14 1.5 2.7
-3 13 14 11.5 7.6
2 -13 -14 10.2 4.8
-2 13 14 -9.2 7.3
2 13 -14 6.9 3
1 -13 -14 0.9 4.8
1 13 -14 3 3.2
-1 13 14 10.7 7.3
0 -13 -14 3.2 5
0 13 -14 -1.1 3.7
0 13 14 0.8 7.4
-1 -13 -14 2.9 5.4
-1 13 -14 3 3.5
1 13 14 -0.8 7.9
-2 -13 -14 -4.8 7.7
-2 13 -14 -0.9 3.8
2 13 14 14.5 11
-3 -13 -14 -17.4 11.1
-3 13 -14 0.8 3.4
-13 0 15 -0.7 3.7
-13 0 15 4.8 5.6
-12 0 15 1.2 3.6
12 0 -15 -2.7 4.1
-12 0 15 -1.9 4.4
11 0 -15 0.2 3.3
-11 0 15 1 3.9
10 0 -15 -3.4 2.7
-10 0 15 1 3.3
-9 0 15 -1 2.6
9 0 -15 -1.9 2.1
-8 0 15 2.7 2.4
8 0 -15 -0.2 2
-7 0 15 0.3 2.8
-7 0 15 2.7 2.3
7 0 -15 0.9 2
6 0 -15 2.5 2
-6 0 15 1.4 2.4
-5 0 15 -1.3 2.1
5 0 -15 0.1 1.7
4 0 -15 0.2 1.8
3 0 -15 -0.7 1.6
2 0 -15 -1.7 1.5
2 0 -15 -1 0.8
1 0 -15 0.5 0.9
1 0 -15 0.9 1.6
0 0 -15 1 1
-1 0 -15 2.4 1.7
-1 0 -15 0.4 1
-2 0 -15 -0.2 0.9
-2 0 -15 0.3 1.6
-3 0 -15 2.4 1.7
-3 0 -15 0.8 1
-4 0 -15 0.6 1.1
-4 0 -15 -1.1 1.7
-5 0 -15 -1.2 0.9
-6 0 -15 0.1 1.1
-7 0 -15 -0.7 1
-13 -1 15 1.3 3.9
-13 -1 15 1 5.2
-13 1 15 -0.3 5.8
-13 1 15 0.6 3.9
12 -1 -15 -0.8 4.3
-12 -1 15 -1.1 4.3
12 1 -15 -0.4 4.1
-12 1 15 3.2 3.5
-12 1 15 4.5 4.9
-11 -1 15 0.1 3.9
11 -1 -15 10 3.9
11 1 -15 -2.7 3.6
-11 1 15 2.7 4.2
-10 -1 15 52.29 6
10 -1 -15 48.8 5.3
10 1 -15 54.09 5.5
-10 1 15 54.79 6
9 -1 -15 17.4 3.5
-9 -1 15 7 2.9
-9 1 15 25 4.3
9 1 -15 15.1 3.1
8 -1 -15 31.9 3.8
-8 -1 15 35.6 4.4
-8 -1 15 20.1 5.7
8 1 -15 20.7 3.4
-8 1 15 30 4.2
-8 1 15 26.6 4.5
-7 -1 15 96.39 7
7 -1 -15 103.89 6.4
-7 1 15 97.89 6.4
-7 1 15 87.59 6.8
7 1 -15 99.19 6.4
6 -1 -15 16.6 2.9
6 1 -15 32.2 3.9
-6 1 15 30.7 4.3
-6 1 15 22.1 3.4
5 -1 -15 18.7 3.2
-5 1 15 11.4 2.4
5 1 -15 16.1 2.8
-5 1 15 13.1 3.1
4 -1 -15 0.5 1.8
-4 1 15 2.6 2.4
4 1 -15 3.7 1.2
4 1 -15 3.4 2
3 -1 -15 38.4 3.8
3 1 -15 42.7 2.7
3 1 -15 46.4 3.9
2 -1 -15 -0.8 1.6
2 1 -15 2.2 1.7
2 1 -15 2 1.1
1 -1 -15 53.29 4.2
1 1 -15 53.19 4.1
1 1 -15 57.09 3.2
0 -1 -15 2.4 1.1
0 -1 -15 3.4 1.9
0 1 -15 2.9 1.8
0 1 -15 1.9 1.2
-1 -1 -15 121.89 5.9
-1 -1 -15 119.69 6.8
-1 1 -15 124.59 6.8
-1 1 -15 126.69 6
-2 -1 -15 194.98 9.4
-2 -1 -15 188.38 8.6
-2 1 -15 197.38 8.6
-2 1 -15 180.38 9.3
-3 -1 -15 54.09 4.1
-3 -1 -15 54.79 3.3
-3 1 -15 60.09 3.5
-3 1 -15 61.39 4.1
-4 -1 -15 126.29 7
-4 -1 -15 132.69 6.2
-4 1 -15 138.69 6.3
-4 1 -15 120.59 6.8
-5 1 -15 240.48 11.1
-6 1 -15 222.28 9.9
-7 1 -15 109.69 5.4
7 1 15 101.59 7.9
-8 1 -15 73.09 3.9
8 1 15 53.99 7.1
-13 -2 15 12.2 6.2
-13 -2 15 4.9 4
-13 2 15 8.7 6
-13 2 15 18.2 4.1
13 2 -15 -1.7 5.8
-12 -2 15 13.3 4.9
12 2 -15 22.5 4.9
-12 2 15 23.1 5.6
-12 2 15 22.8 4
-11 -2 15 6.1 4.9
-11 2 15 7.5 3
-11 2 15 16 7.7
11 2 -15 5.5 3.9
10 -2 -15 8.9 3.1
-10 -2 15 23.5 4.7
-10 2 15 23.2 4.3
10 2 -15 16.6 3.5
9 -2 -15 1.4 2.5
-9 -2 15 2.2 2.9
-9 2 15 -0.5 2.8
9 2 -15 5.7 2.9
8 -2 -15 4.2 2.8
-8 2 15 12.4 3.6
-8 2 15 12.9 3.2
8 2 -15 9.1 3.9
7 -2 -15 7 2.7
-7 -2 15 2.5 2.8
7 2 -15 3.3 2.2
-7 2 15 1.2 2.3
6 -2 -15 20.3 3.2
-6 2 15 13.3 2.8
6 2 -15 14 2.8
-6 2 15 22.1 3.7
5 -2 -15 83.59 5.7
5 2 -15 93.69 4.5
-5 2 15 85.79 6.4
5 2 -15 95.19 6
-5 2 15 84.59 5.7
4 -2 -15 105.89 6.4
-4 2 15 100.39 6.1
4 2 -15 105.99 6.5
-4 2 15 106.79 7.2
4 2 -15 108.19 5.2
3 -2 -15 228.68 11.4
3 2 -15 252.47 10.3
3 2 -15 225.68 11.4
-3 2 15 224.28 10.9
-3 2 15 241.38 12.4
2 -2 -15 310.27 14.7
-2 2 15 310.17 14.1
2 2 -15 310.57 13.6
2 2 -15 334.97 14.9
-2 2 15 336.77 15.9
1 -2 -15 299.07 14.2
1 2 -15 298.07 13.1
-1 2 15 297.37 14.2
1 2 -15 332.47 14.3
0 -2 -15 417.96 19
0 2 -15 446.36 18.2
0 2 -15 427.16 19
-1 -2 -15 814.52 34.8
-1 2 -15 844.52 34
-1 2 -15 829.42 34.8
-2 -2 -15 73.59 4.9
-2 2 -15 72.79 4.7
-2 2 -15 71.09 4
-3 -2 -15 33 3.4
-3 2 -15 40.1 2.7
-3 2 -15 35.2 3.3
-4 -2 -15 25.5 3.1
-4 2 -15 23.7 2.9
-4 2 -15 19.4 2.1
-5 2 -15 5.4 2.2
-5 2 -15 4.6 1.3
5 2 15 7.9 4.6
-6 2 -15 27.8 2.5
6 2 15 33.4 4.8
7 2 15 14.4 4.2
-7 2 -15 11.5 1.7
8 2 15 30.1 5.4
-8 2 -15 28.6 2.5
-9 2 -15 50.89 3.2
-13 -3 15 1.3 3.9
-13 -3 15 6.3 5.7
-13 3 15 -0.4 5.9
13 3 -15 11.2 8.8
-13 3 15 -1.8 4
-12 -3 15 1.4 5
12 3 -15 5.2 4.7
-12 3 15 0.5 4.1
-12 3 15 4.5 4.8
11 -3 -15 2.3 3.8
-11 -3 15 4 3.9
-11 3 15 2.7 2.7
11 3 -15 0.9 3.2
-11 3 15 -1.2 3.7
-10 -3 15 -4.6 2.9
10 -3 -15 -0.6 3
10 3 -15 2 2.9
-10 3 15 2.7 3.6
-10 3 15 0.9 2.2
9 -3 -15 3.2 2.8
9 3 -15 1.7 2.6
-9 3 15 5.7 3.2
8 -3 -15 -0.3 3.5
-8 3 15 0.9 2.6
-8 3 15 -0.2 3.3
8 3 -15 0 2.3
7 -3 -15 4.2 2.3
7 3 -15 1.8 2.3
-7 3 15 5.8 2.7
-7 3 15 2.4 2.8
6 -3 -15 81.19 5.3
6 3 -15 69.19 5.5
-6 3 15 61.29 8.1
-6 3 15 68.49 5.2
5 -3 -15 -0.9 1.7
-5 3 15 3.9 2.2
5 3 -15 3.7 2.1
5 3 -15 4.3 1.1
-5 3 15 1.7 2.3
4 -3 -15 7.5 2.2
4 3 -15 7.2 1.3
-4 3 15 8.6 2.3
4 3 -15 4.5 2.1
-4 3 15 6.1 2.9
3 -3 -15 5.2 2.1
-3 3 15 7.6 2.1
-3 3 15 4.9 2.6
3 3 -15 6.2 1.4
3 3 -15 3.3 1.9
2 -3 -15 27.9 3.3
-2 3 15 36.3 4.8
2 3 -15 31 2.4
2 3 -15 30.3 3.4
1 -3 -15 47.5 4.1
-1 3 15 61.49 5.4
1 3 -15 50.59 4.1
1 3 -15 52.19 3.2
0 -3 -15 16.9 2.9
0 3 -15 16.9 1.9
0 3 15 13.6 3.2
0 3 -15 17.8 2.7
-1 -3 -15 180.38 9.7
-1 3 -15 204.88 9
-1 3 -15 196.68 9.7
1 3 15 206.78 11.3
2 3 15 579.14 25.3
-2 3 -15 531.35 23.4
-2 3 -15 537.65 22.8
-3 -3 -15 137.89 7.4
3 3 15 137.79 8.7
-3 3 -15 132.49 7
-3 3 -15 126.29 6.4
-4 3 -15 59.19 3.6
-4 3 -15 60.39 4.3
4 3 15 78.69 8.6
5 3 15 35.1 4.8
-5 3 -15 30.5 2.5
6 3 15 68.09 6.2
-6 3 -15 64.79 3.9
-7 3 -15 17 2.8
7 3 15 26.2 4.5
8 3 15 0.8 4.5
-8 3 -15 6.6 1.6
-9 3 -15 3.2 1.3
-10 3 -15 3.4 1.3
-13 -4 15 2.1 5.7
-13 4 15 5.9 3.6
-13 4 15 7.1 9.5
13 4 -15 4.6 6.6
-12 -4 15 10.1 5.7
-12 4 15 3.3 6.9
-12 4 15 6 3.5
12 4 -15 1.6 4.2
-11 -4 15 -2 4.8
-11 4 15 -1.9 6
-11 4 15 6.3 3
11 4 -15 5.8 4.1
-10 -4 15 4.6 4
10 -4 -15 2.8 3
-10 4 15 2.2 3.6
10 4 -15 3.2 3.1
-10 4 15 0.7 2.2
9 -4 -15 9 3
-9 4 15 22.9 4.2
-9 4 15 15 2.4
9 4 -15 23.1 4.3
8 -4 -15 12.7 3.1
-8 4 15 8.2 1.9
-8 4 15 11 3.8
8 4 -15 15.1 3.6
-8 4 15 7 4.4
7 -4 -15 10.2 2.6
-7 4 15 13 3.2
-7 4 15 12.5 3.7
6 -4 -15 34.5 3.7
-6 4 15 35.1 4.7
6 4 -15 21.1 3.3
6 4 -15 29 2.1
-6 4 15 36 4.1
5 -4 -15 43.2 4
5 4 -15 41.2 4.2
5 4 -15 41.2 2.6
-5 4 15 39.1 4.1
-5 4 15 31.9 6.2
4 -4 -15 7.9 2.3
4 4 -15 4.9 2.3
4 4 -15 8.6 1.4
-4 4 15 4.6 2.3
-4 4 15 10.6 3.3
3 -4 -15 22.9 2.8
3 -4 -15 23.1 3.4
-3 4 15 30 4.1
3 4 -15 24.3 2.1
3 4 -15 20.2 3
2 -4 -15 9.9 2.1
2 -4 -15 12 2.6
2 4 -15 11.8 1.7
2 4 -15 10.9 2.4
-2 4 15 6.5 2.9
1 -4 -15 14.9 2.7
1 4 -15 18.2 2
-1 4 15 26.2 4.2
1 4 -15 17.7 2.8
0 -4 -15 2.8 1.9
0 4 -15 2.3 1.2
0 4 -15 4.4 1.8
0 4 15 4.8 2.7
-1 -4 -15 16 2.6
-1 4 -15 13.6 2.5
1 4 15 6 3
-1 4 -15 9 1.5
-2 -4 -15 1.2 1.8
2 4 15 0.3 2.3
-2 4 -15 0 1.1
-2 4 -15 -1.8 1.7
-3 4 -15 93.89 5.5
-3 4 -15 90.59 4.9
4 4 15 28.3 4.5
-4 4 -15 29.5 3.3
-4 4 -15 26.7 2.4
-5 4 -15 3.2 1.4
5 4 15 4.4 3.2
6 4 15 3.9 3.3
-6 4 -15 0.9 1.5
7 4 15 6.3 3.8
-7 4 -15 3.8 1.5
-8 4 -15 13.2 2.1
-9 4 -15 4.1 1.5
-10 4 -15 16.7 3.1
-12 -5 15 8 5.3
12 5 -15 8.2 4.9
-12 5 15 15.7 6
-12 5 15 8.5 3.2
-11 -5 15 8.8 4.7
-11 5 15 18.1 3.6
11 5 -15 11.4 4.2
-11 5 15 19.3 5.3
-10 5 15 39.7 3.9
-10 5 15 39.3 6.2
9 -5 -15 69.29 6.1
9 5 -15 71.59 6.6
-9 5 15 81.59 4.7
-9 5 15 74.79 6.7
8 -5 -15 38.1 4.6
-8 5 15 43.3 5.9
8 5 -15 32.3 4.7
-8 5 15 44.2 5
7 -5 -15 37.7 4.1
-7 5 15 34.2 2.6
-7 5 15 32.8 4.1
-7 5 15 24 4.2
7 5 -15 25.1 4.1
6 -5 -15 10.5 2.7
-6 5 15 11.7 3
-6 5 15 12.3 1.7
-6 5 15 14.6 3.8
6 5 -15 14.4 1.6
6 5 -15 15.4 3.7
5 -5 -15 21.7 3.5
5 5 -15 14.6 1.7
5 5 -15 8.7 2.6
-5 5 15 14.3 3.5
-5 5 15 18 4.7
4 -5 -15 11.9 2.7
-4 5 15 10.6 3.3
4 5 -15 13.9 1.8
4 5 -15 9.3 2.5
3 -5 -15 0.1 1.9
3 -5 -15 3.9 2
3 5 -15 0.5 1
3 5 -15 1.3 2.1
-3 5 15 0.2 3.9
2 -5 -15 34.5 3.9
2 -5 -15 27.7 3.2
2 5 -15 22.5 2.2
2 5 -15 18.9 3
1 -5 -15 2.2 1.9
1 -5 -15 -0.9 1.8
-1 5 15 -1.5 3.8
1 5 -15 0.1 1
1 5 -15 2.8 1.9
0 -5 -15 1.8 2
0 -5 -15 -0.6 2.1
0 5 -15 -0.2 1.8
0 5 15 -0.6 4.2
0 5 -15 0 1
-1 -5 -15 11 2.5
-1 5 -15 8 1.5
1 5 15 4.2 3.6
-1 5 -15 9.5 2.4
-2 5 -15 22.2 2.4
2 5 15 21.2 4
-2 5 -15 22.5 3
-3 5 -15 37 3.7
-3 5 -15 38.4 2.9
3 5 15 36 4.8
-4 5 -15 197.48 9.1
5 5 15 87.69 7.1
-5 5 -15 86.19 4.8
-6 5 -15 53.39 3.6
6 5 15 54.69 6.1
-7 5 -15 56.49 3.8
7 5 15 51.19 7
-8 5 -15 142.69 6.9
-9 5 -15 21.9 2.5
-10 5 -15 3.8 1.5
-12 -6 15 -0.6 5.6
-12 6 15 4.7 3.1
12 6 -15 0.3 4.8
-11 -6 15 5.2 4.5
-11 6 15 3.8 3
11 6 -15 4.6 4.4
-10 6 15 3.1 2.1
10 6 -15 1.3 4
-10 6 15 -3.3 5.2
9 -6 -15 10.2 3.9
9 6 -15 21.2 4.7
-9 6 15 16.9 4.7
-9 6 15 14.8 2.2
8 -6 -15 8.1 2.9
8 6 -15 15.2 4
-8 6 15 5.1 4.5
-8 6 15 13.1 5.2
-8 6 15 6.6 1.6
7 -6 -15 18.4 3.3
7 6 -15 16.4 3.6
-7 6 15 34.8 5.1
-7 6 15 29 3.1
6 -6 -15 50.89 4.6
6 6 -15 44.8 2.8
-6 6 15 38.8 5.4
6 6 -15 47 4.9
5 -6 -15 104.69 6.7
-5 6 15 107.69 7.8
5 6 -15 108.19 5.3
4 -6 -15 104.29 6.2
4 -6 -15 99.59 6.5
4 6 -15 104.89 5.1
4 6 -15 87.09 6.5
-4 6 15 110.69 7.6
3 -6 -15 58.99 4.6
3 -6 -15 58.39 4.8
3 6 -15 57.79 5
-3 6 15 64.59 6
3 6 -15 64.49 3.6
2 -6 -15 -2 1.9
2 -6 -15 1 2.1
-2 6 15 1.7 2.8
2 6 -15 -0.2 1.1
2 6 -15 -0.3 1.8
1 -6 -15 18.2 2.9
1 -6 -15 30.7 3.7
-1 6 15 17.7 3.8
1 6 -15 24.3 3.2
1 6 -15 22.9 2.2
0 -6 -15 6.3 2.2
0 -6 -15 -0.4 1.8
0 6 15 2.8 2.7
0 6 -15 3.8 2.1
0 6 -15 5.4 1.4
-1 -6 -15 20.1 2.9
1 6 15 14.1 3.7
-1 6 -15 18.6 3
-1 6 -15 14.6 2.1
2 6 15 87.49 6.7
-2 6 -15 73.09 5.1
-2 6 -15 75.39 4.4
-3 6 -15 48.6 3.5
-3 6 -15 43.9 4.6
3 6 15 50.29 5.6
-4 6 -15 72.79 4.5
4 6 15 81.69 6.9
5 6 15 60.39 6.1
-5 6 -15 46.3 3.6
-6 6 -15 7.1 1.8
6 6 15 4.7 3.8
7 6 15 14 8
-7 6 -15 13.7 2.2
-8 6 -15 14 2.2
-9 6 -15 5.3 1.7
-10 6 -15 21 2.4
-11 -7 15 0.4 4.7
11 7 -15 6.8 4.7
10 7 -15 -3.7 4
9 -7 -15 4.6 8.4
9 7 -15 6.9 4
8 -7 -15 26.9 4.3
-8 7 15 10.4 4.7
8 7 -15 13 3.8
7 -7 -15 6.3 3
-7 7 15 4.8 3.8
7 7 -15 4.6 3.5
6 -7 -15 3.6 2.9
-6 7 15 -1.8 3.1
6 7 -15 1.6 3
6 7 -15 -0.5 1.2
5 -7 -15 0.9 2.4
5 7 -15 -1.4 1
5 7 -15 2 2.6
-5 7 15 0.5 3.2
4 -7 -15 16.9 3.2
4 -7 -15 34.1 5.2
4 7 -15 28 2.4
-4 7 15 30 4.8
4 7 -15 19.6 5
3 -7 -15 59.69 5.1
3 -7 -15 61.09 4.9
-3 7 15 64.79 6.2
3 7 -15 61.59 5.2
3 7 -15 60.09 3.7
2 -7 -15 14.8 2.9
2 -7 -15 19.6 3.4
2 7 -15 17.2 2.2
2 7 -15 20.3 3.4
-2 7 15 23.9 4.4
1 -7 -15 11.5 2.7
-1 7 15 5.8 3.2
1 7 -15 10.2 1.9
1 7 -15 11.9 2.8
0 -7 -15 17.5 3.1
0 7 -15 16.4 3
0 7 -15 12.6 2
0 7 15 22.3 4.5
-1 -7 -15 1.3 2.4
1 7 15 1.7 2.9
-1 7 -15 -2.7 2.1
-1 7 -15 1.6 1.5
-2 -7 -15 3.3 2.8
-2 7 -15 0.2 1.4
-2 7 -15 1 2.6
2 7 15 1.3 3.2
3 7 15 27 4.5
4 7 15 40 5.5
-4 7 -15 29.3 3.1
-5 7 -15 24.8 2.9
5 7 15 24.6 5.1
-6 7 -15 4.7 1.9
6 7 15 5.3 5.3
-7 7 -15 1.2 2
-8 7 -15 -0.5 1.8
-9 7 -15 2.2 1.8
-10 7 -15 -1.7 1.4
10 8 -15 3.9 6.5
9 8 -15 2.5 4.4
8 8 -15 -1.6 3.7
-8 8 15 -3 9
-7 8 15 6.7 4.5
7 8 -15 1.9 3.5
6 8 -15 4.7 3.3
6 8 -15 2.7 1.3
-6 8 15 4.6 6.1
5 -8 -15 16.7 3.5
5 8 -15 11.1 3.3
5 8 -15 16.9 2
4 -8 -15 3.3 2.8
4 8 -15 5.7 2.8
4 8 -15 1.7 2.4
-4 8 15 4 3.8
3 8 -15 63.49 5.4
-3 8 15 67.09 6.8
2 -8 -15 113.39 7.2
-2 8 15 113.59 8.7
2 8 -15 124.99 7.6
2 8 -15 131.59 6.6
1 -8 -15 67.19 5.5
-1 8 15 84.09 7.2
1 8 -15 84.69 5
0 -8 -15 16.4 3.3
0 8 -15 25.6 4.1
0 8 -15 17 3.3
0 8 15 18.8 4.2
-1 -8 -15 15.3 3.4
-1 8 -15 14.7 2.6
1 8 15 19.7 4.4
-1 8 -15 15.3 3.4
-2 -8 -15 14.9 4.5
-2 8 -15 19.5 2.8
2 8 15 20.9 4.3
-3 -8 -15 6.4 3.9
3 8 15 11.3 4.2
-3 8 -15 10.9 2.4
4 8 15 70.79 9
-4 8 -15 59.79 4.5
-5 8 -15 10.1 2.4
5 8 15 9.9 5.9
6 8 15 18.4 5.3
-6 8 -15 37.3 3.8
-7 8 -15 -2.5 2
-9 8 -15 7.6 2.4
10 9 -15 -3 5.3
9 9 -15 -2.8 6.6
-8 9 15 -1.8 10.9
8 9 -15 6.2 4.2
-7 9 15 -1.6 4.8
7 9 -15 -1.4 4.5
6 -9 -15 -6.7 6.1
6 9 -15 -6.7 4.1
-6 9 15 0.9 4.5
5 -9 -15 7.7 3.5
5 9 -15 11.3 1.9
5 9 -15 20.6 4.3
-5 9 15 5.2 4
4 -9 -15 -1.5 2.8
4 9 -15 3.6 1.7
4 9 -15 4 3.3
-4 9 15 -2.4 4.3
3 -9 -15 15.1 3.5
-3 9 15 24.7 5.3
3 9 -15 11.2 3.2
3 9 -15 23.6 2.7
2 -9 -15 -0.3 2.9
2 9 -15 2.9 2.8
-2 9 15 -3.3 4.5
2 9 -15 1.1 1.8
1 -9 -15 13.2 3.3
1 9 -15 9.5 3.3
-1 9 15 13.8 5.9
1 9 -15 11.7 2.3
0 -9 -15 12.9 3.6
0 9 -15 8.4 2.5
0 9 -15 6.1 3.2
-1 -9 -15 3.5 3.2
1 9 15 2.7 4.9
-1 9 -15 4.1 2.3
-2 -9 -15 61.89 6.1
-2 9 -15 66.79 4.9
2 9 15 65.59 7.2
-3 -9 -15 25.4 6.5
-3 9 -15 23.1 3.1
4 9 15 67.79 7.6
-4 9 -15 72.69 5.3
-5 9 -15 83.89 5.7
-6 9 -15 39.2 4.1
-7 9 -15 9.9 3
-8 9 -15 19.7 2.9
9 10 -15 1.9 5
8 -10 -15 5.5 4.8
8 10 -15 1.1 4.5
7 10 -15 6.2 4.4
6 -10 -15 0.1 3.6
-6 10 15 0.3 5
6 10 -15 7.2 4.1
5 -10 -15 1.3 6.8
-5 10 15 -2.6 4.7
5 10 -15 1.4 1.9
5 10 -15 -3.9 3.6
4 -10 -15 7.5 4.3
4 10 -15 11.4 2.3
-4 10 15 6.3 4.9
3 -10 -15 40.8 5
-3 10 15 32.9 6
3 10 -15 23.3 4.1
3 10 -15 30.7 3.5
2 -10 -15 31.2 4.5
2 10 -15 19.2 4.1
-2 10 15 23.4 4.9
2 10 -15 29.7 3.4
1 -10 -15 0.9 3.1
1 10 -15 3.4 2.7
-1 10 15 0.8 3.9
1 10 -15 6.9 3.5
0 -10 -15 1.2 3.4
0 10 15 -0.2 4.2
0 10 -15 2.2 2.7
-1 -10 -15 0.3 3.5
1 10 15 6.6 4.6
-1 10 -15 -1.8 2.9
-2 -10 -15 -0.9 4.8
2 10 15 6.1 4.5
-2 10 -15 -3.5 2.8
3 10 15 3.7 4.8
-3 10 -15 9 3.5
4 10 15 3.7 5.3
-4 10 -15 5.1 3.2
-5 10 -15 9.4 3.5
5 10 15 5.8 6.5
-6 10 -15 7.9 5.1
-7 10 -15 1.4 3.1
7 -11 -15 13 10.4
6 -11 -15 28.4 5.4
-6 11 15 18.5 7.4
6 11 -15 16.7 5.2
5 11 -15 25.6 2.8
5 11 -15 17.4 4.9
-5 11 15 17.9 9.2
4 -11 -15 60.49 6.8
4 11 -15 63.49 6.9
-4 11 15 65.79 8.9
4 11 -15 76.99 6
3 -11 -15 35.7 5.2
-3 11 15 51.19 7.4
3 11 -15 40.8 4
3 11 -15 25.6 4.7
2 -11 -15 -4 3.6
-2 11 15 6.2 4.7
2 11 -15 2 4.2
2 11 -15 -0.2 2.8
1 -11 -15 1.9 5.5
-1 11 15 -2.7 7.1
1 11 -15 -1.1 3
0 -11 -15 8.1 4.6
0 11 -15 1.9 3.1
0 11 15 4.5 5.5
-1 -11 -15 20.9 4.9
-1 11 -15 10.4 3.8
1 11 15 7.4 5.3
-2 11 -15 33.9 4.3
2 11 15 31 6.7
-3 11 -15 23 4.4
3 11 15 18.7 6.7
4 11 15 22.2 7.4
-4 11 -15 39.9 7.5
-5 11 -15 20.3 4.1
-6 11 -15 5.2 3.5
5 -12 -15 20.3 6.9
5 12 -15 10.5 6
4 -12 -15 15.8 5.4
-4 12 15 14.6 8
4 12 -15 12.5 2.7
4 12 -15 7.8 5.3
3 -12 -15 57.39 7.2
3 12 -15 48.6 7.5
-3 12 15 61.09 9
3 12 -15 51.79 4.6
-2 12 15 70.79 9.5
2 12 -15 69.99 5.5
1 -12 -15 64.39 7.8
1 12 -15 79.89 6.4
0 -12 -15 28 5.5
0 12 15 32.3 7.7
-1 -12 -15 28.5 7.4
1 12 15 25.6 7.9
-1 12 -15 22.6 4
-2 12 -15 14.2 4.1
2 12 15 14.1 7.1
-3 12 -15 4.8 3.6
3 12 15 -8.5 9.1
-4 12 -15 4.3 3.8
1 13 -15 5.1 3.4
0 13 -15 1.3 3.3
-13 0 16 30.4 4.6
-13 0 16 27.5 8.2
-12 0 16 19.5 6.7
-12 0 16 8 6
12 0 -16 8.9 5.1
-11 0 16 -3.8 8.9
11 0 -16 3.9 4.7
10 0 -16 3.3 3.3
-10 0 16 4.5 4
9 0 -16 0.6 2.7
-9 0 16 8 3.6
-8 0 16 7.8 4.4
8 0 -16 3.9 2.4
-8 0 16 8.4 3.2
-7 0 16 -0.4 3.3
-7 0 16 1.2 2.4
-6 0 16 44.6 4.5
6 0 -16 51.79 4.6
-6 0 16 46.8 5.2
-5 0 16 16 6
4 0 -16 384.96 17.7
3 0 -16 58.39 4.6
2 0 -16 136.39 7.7
1 0 -16 179.78 8.1
1 0 -16 173.38 9.1
0 0 -16 51.69 3.4
0 0 -16 70.89 4.6
-1 0 -16 114.19 5.6
-1 0 -16 107.19 6.4
-2 0 -16 5.7 1.9
-2 0 -16 5.7 1.5
-3 0 -16 49.4 3.3
-3 0 -16 51.19 4.1
-4 0 -16 383.06 17
-5 0 -16 255.47 11.3
8 0 16 54.89 9
12 -1 -16 10.3 5.4
-12 -1 16 8.4 12.4
12 1 -16 12.6 5.3
-12 1 16 10.6 4.2
-12 1 16 3.5 5.9
-11 -1 16 1.7 6.6
11 -1 -16 -2.5 4.1
11 1 -16 8.5 4.9
-11 1 16 4.5 3.5
-11 1 16 8.9 5.1
10 -1 -16 -0.4 3.1
-10 -1 16 4.6 4.1
-10 1 16 -1.5 3.6
10 1 -16 5.4 3.6
-9 -1 16 16.6 3.8
9 -1 -16 11.6 3.2
-9 1 16 17.8 3.9
9 1 -16 16 3.5
8 -1 -16 39.7 4.6
-8 -1 16 40.3 5
-8 1 16 49.2 5.2
8 1 -16 39.9 4.6
-8 1 16 40.3 5.4
-7 -1 16 24.1 3.8
-7 -1 16 31.4 4.8
7 -1 -16 34.3 5.3
-7 1 16 19.8 3.9
-7 1 16 31.3 4.2
7 1 -16 26.3 5.3
-6 -1 16 55.59 5.6
6 -1 -16 62.69 5
-6 1 16 62.19 5.8
6 1 -16 53.99 4.8
-6 1 16 61.09 5
5 -1 -16 13.1 2.8
-5 1 16 19.2 5.2
-5 1 16 19.6 3.2
5 1 -16 12.9 2.9
4 -1 -16 0.8 1.9
-4 1 16 2.5 2.7
4 1 -16 0.5 2.1
-4 1 16 0.6 2
3 -1 -16 66.29 4.8
3 1 -16 63.89 3.6
3 1 -16 60.69 4.7
-3 1 16 59.59 5.6
2 -1 -16 78.99 5.4
2 1 -16 82.49 4.3
2 1 -16 80.49 5.4
1 -1 -16 122.89 7.1
1 1 -16 131.29 6.1
1 1 -16 119.59 7.1
0 -1 -16 204.48 9.8
0 1 -16 210.08 9.9
0 1 -16 168.28 8.6
-1 -1 -16 272.87 13.7
-1 1 -16 313.57 13.8
-1 1 -16 300.77 12.8
-2 -1 -16 526.25 22.5
-2 1 -16 508.55 21.5
-2 1 -16 512.25 22.4
-3 -1 -16 462.85 20.2
-3 1 -16 459.55 20.1
-4 -1 -16 147.29 8
-4 1 -16 147.79 7.9
-4 1 -16 159.48 7.2
-5 1 -16 7.6 1.5
6 1 16 16.8 4.2
-6 1 -16 30.2 3.4
-7 1 -16 8.3 1.6
7 1 16 10.8 4.4
-12 -2 16 5.5 6
-12 2 16 -1.2 3.6
-12 2 16 -1.5 5.3
12 2 -16 -7.2 4.2
-11 -2 16 5.7 4.6
11 -2 -16 7.5 4.2
-11 2 16 -6.2 4.2
-11 2 16 4.1 3.3
11 2 -16 -6.1 3.6
-10 -2 16 3.7 4
10 -2 -16 7 3.9
-10 2 16 0.6 3.6
10 2 -16 5.2 3.7
-9 -2 16 17 4.2
9 -2 -16 20.6 4.1
9 2 -16 20.9 4.3
-9 2 16 14.4 3.9
8 -2 -16 33.8 4.4
-8 -2 16 32.8 4.7
-8 2 16 37.8 4.7
8 2 -16 28 4.2
-8 2 16 35.1 5.2
7 -2 -16 14.1 3
-7 -2 16 8.2 3.7
7 2 -16 15.8 3.2
-7 2 16 11.4 3.1
-7 2 16 18.6 4
6 -2 -16 13 2.7
-6 2 16 18.8 3.8
-6 2 16 13.5 2.9
6 2 -16 20.4 3.5
5 -2 -16 -0.9 1.9
5 2 -16 -0.4 1.8
-5 2 16 2.3 2.8
-5 2 16 -2.4 2.2
4 -2 -16 15.5 3.1
-4 2 16 8.7 2.6
4 2 -16 12.8 1.7
4 2 -16 13.3 2.5
3 -2 -16 8.4 2.4
-3 2 16 6.3 2.4
3 2 -16 9.9 1.6
3 2 -16 8.2 2.5
-3 2 16 8.1 3.3
2 -2 -16 -1.9 1.7
2 2 -16 1.2 1.1
2 2 -16 -0.5 1.7
-2 2 16 0.3 2.4
1 -2 -16 8.7 2.2
-1 2 16 4.1 2.9
1 2 -16 2.8 2
1 2 -16 6.2 1.4
0 -2 -16 56.39 4.5
0 2 -16 60.39 3.6
0 2 -16 60.09 4.5
0 2 16 71.19 6.1
-1 -2 -16 14 2.8
-1 2 -16 10.8 2.6
-1 2 -16 14 1.9
-2 -2 -16 20.5 2.9
-2 2 -16 23 2.3
-2 2 -16 28.2 3.3
-3 -2 -16 76.89 5.2
-3 2 -16 83.29 5.2
3 2 16 87.29 6.9
-3 2 -16 74.79 4.4
-4 2 -16 89.59 5.5
4 2 16 84.79 7.2
-4 2 -16 95.39 4.9
5 2 16 16.4 4
-5 2 -16 26.1 4.2
-5 2 -16 28.7 2.5
6 2 16 1.1 3.4
7 2 16 5.5 4.3
-7 2 -16 1.3 1.3
-8 2 -16 2.3 1.3
-12 -3 16 -5 4.8
-12 3 16 0.9 5.3
-12 3 16 1.2 3.5
12 3 -16 5.3 4.9
-11 -3 16 25.3 5.8
11 -3 -16 12.5 4.5
-11 3 16 18.2 5.3
11 3 -16 16.6 4.6
-11 3 16 14.8 3.4
10 -3 -16 20.7 5.9
-10 -3 16 31.5 6.7
-10 3 16 21.3 3.2
10 3 -16 16.8 6
-10 3 16 14.2 5.5
9 -3 -16 83.19 6.5
-9 -3 16 95.99 7.6
9 3 -16 86.79 6.9
-9 3 16 78.59 7
8 -3 -16 32.4 4.3
-8 3 16 45.4 5.5
-8 3 16 37.3 4.7
8 3 -16 30.4 4.4
7 -3 -16 5.9 2.6
7 3 -16 7.6 2.9
-7 3 16 7.8 3.1
-7 3 16 6 3.6
6 -3 -16 0.7 2.4
-6 3 16 2.5 2.9
-6 3 16 3 2.6
5 -3 -16 -0.2 1.9
5 3 -16 0.5 0.9
-5 3 16 1.4 2.6
-5 3 16 -1.8 2.3
5 3 -16 1.6 2
4 -3 -16 47.5 4.4
4 3 -16 54.89 3.2
-4 3 16 56.09 5.5
4 3 -16 52.79 4.5
-4 3 16 49.9 4.5
3 -3 -16 16.3 3
3 3 -16 20.8 3.3
3 3 -16 20.1 2.1
-3 3 16 13.8 3.4
2 -3 -16 84.69 5.7
-2 3 16 79.99 8.7
2 3 -16 88.19 4.6
2 3 -16 92.79 5.9
1 -3 -16 52.59 4.2
1 3 -16 51.29 3.2
1 3 -16 47.7 4.2
0 -3 -16 50.09 4.2
0 3 -16 59.99 4.3
0 3 -16 50.39 3.3
-1 -3 -16 18.9 3.1
-1 3 -16 22 3
-1 3 -16 20.9 2.2
1 3 16 11.6 3.5
-2 -3 -16 56.29 4.5
2 3 16 56.69 5.7
-2 3 -16 57.09 3.6
-2 3 -16 60.09 4.4
-3 -3 -16 0.7 1.8
-3 3 -16 1.6 2
-3 3 -16 0.1 1.3
3 3 16 3.3 2.9
4 3 16 24.7 4.7
-4 3 -16 32.1 3.6
-4 3 -16 24.8 2.5
-5 3 -16 92.09 4.9
5 3 16 80.39 7.2
-6 3 -16 125.09 6.3
6 3 16 119.99 8.8
-7 3 -16 57.99 3.7
7 3 16 39.8 10.9
-8 3 -16 47.2 3.3
-9 3 -16 20.5 2.4
-12 -4 16 4.6 5.2
-12 4 16 2.9 6.7
12 4 -16 5.4 5.2
-12 4 16 5.5 3.4
-11 -4 16 3.6 5.1
11 4 -16 6.6 4.6
-11 4 16 3.8 3.4
10 -4 -16 2.8 4.3
-10 -4 16 4.9 4.4
10 4 -16 6.6 4.6
-10 4 16 5.6 2.7
9 -4 -16 35.6 4.7
-9 4 16 42.6 3.8
9 4 -16 21.9 4.2
-9 4 16 38.3 5.2
8 -4 -16 78.29 6.2
-8 4 16 70.69 9.7
-8 4 16 92.99 4.8
8 4 -16 71.19 6.3
-8 4 16 73.79 6.6
7 -4 -16 47.8 4.7
-7 4 16 49.99 5.9
7 4 -16 48.9 5.1
6 -4 -16 53.59 4.9
-6 4 16 41.7 4.9
6 4 -16 47.5 4.8
-6 4 16 50.19 5.7
5 -4 -16 86.49 6.1
5 4 -16 91.49 4.6
-5 4 16 94.99 7.2
5 4 -16 87.79 6.4
4 -4 -16 17.3 3
-4 4 16 24.8 4.4
4 4 -16 21 2
4 4 -16 23.1 3.4
3 -4 -16 8.6 2.4
-3 4 16 0.9 2.5
3 4 -16 4.5 1.3
3 4 -16 3.8 2.1
2 -4 -16 41.9 4
2 4 -16 45.6 4.1
-2 4 16 45.8 5.1
2 4 -16 42.7 3
1 -4 -16 -1 1.8
1 4 -16 0.6 1.8
-1 4 16 -2.6 2.6
1 4 -16 0.5 1.1
0 -4 -16 11.4 2.7
0 4 -16 6.5 2.3
0 4 16 15.2 3.8
0 4 -16 7.1 1.6
-1 -4 -16 38.9 4
1 4 16 38 5
-1 4 -16 41.9 3
-1 4 -16 42.8 3.9
-2 -4 -16 41.3 3.9
-2 4 -16 44.2 4
2 4 16 41.4 5.2
-2 4 -16 41 3
-3 4 -16 10.4 1.9
3 4 16 9.4 3.5
-3 4 -16 13.8 2.7
-4 4 -16 6.6 1.7
4 4 16 3.4 3.2
-5 4 -16 2.1 2.2
5 4 16 -4.1 3.1
-6 4 -16 28.2 2.8
6 4 16 19.6 4.4
-7 4 -16 40.7 3.3
7 4 16 18.2 6.9
-8 4 -16 17.8 2.2
-9 4 -16 29.6 2.8
-10 4 -16 27.2 2.5
-11 -5 16 10.4 9.7
-11 5 16 -0.6 2.7
11 5 -16 -3.5 4.5
-10 -5 16 5.4 4.6
10 -5 -16 4.1 4.3
-10 5 16 8.2 2.8
-10 5 16 9.5 6.7
10 5 -16 8.9 4.4
9 -5 -16 -0.1 4.1
-9 5 16 0 1.9
8 -5 -16 5.6 3
8 5 -16 -1.8 2.8
-8 5 16 2.9 5.8
-8 5 16 2.7 1.7
7 -5 -16 -0.4 2.3
-7 5 16 2.2 1.7
-7 5 16 6 4.2
7 5 -16 6.1 3.3
6 -5 -16 6.8 2.6
6 5 -16 10.1 3.4
-6 5 16 10.9 4.8
-6 5 16 9.3 1.6
6 5 -16 9.4 1.5
5 -5 -16 0.7 2.1
5 5 -16 1.8 1.1
-5 5 16 3.5 3.3
5 5 -16 2 2.4
4 -5 -16 -1.8 1.8
-4 5 16 4 3.2
4 5 -16 -0.6 2
4 5 -16 -1.5 1
3 -5 -16 13.5 2.9
3 5 -16 19.9 3.2
-3 5 16 8.5 3.4
3 5 -16 15.7 2.1
2 -5 -16 0.6 1.8
-2 5 16 -3.2 2.5
2 5 -16 -0.7 1
2 5 -16 -0.6 1.8
1 -5 -16 3.4 2.1
1 5 -16 4.5 1.4
1 5 -16 3.8 2
-1 5 16 -0.6 2.6
0 -5 -16 93.79 6.3
0 5 -16 90.89 6.1
0 5 -16 100.49 5.2
0 5 16 111.49 7.7
-1 -5 -16 1.9 1.9
1 5 16 3.5 3
-1 5 -16 3.8 2.3
-1 5 -16 3.1 1.6
2 5 16 3.1 3.1
-2 5 -16 -1.1 1.2
-2 5 -16 -1.8 2.1
-3 5 -16 36.9 3
3 5 16 29.4 4.7
-3 5 -16 33.5 3.6
-4 5 -16 7 2.5
4 5 16 6.8 3.6
5 5 16 1.7 3.4
-5 5 -16 -0.1 1.7
-6 5 -16 -0.7 1.6
6 5 16 -6 4.4
-7 5 -16 0.9 1.8
7 5 16 3.2 4.8
-8 5 -16 4.7 2
-9 5 -16 0.4 1.7
-10 5 -16 1.7 1.4
-11 -6 16 7.9 6.1
11 6 -16 -9.6 4.5
10 6 -16 1.5 4.3
9 -6 -16 5.1 6.6
8 -6 -16 -1.2 3.4
-8 6 16 2.6 4.9
8 6 -16 3.7 3.5
7 -6 -16 7.5 3.1
7 6 -16 6.4 3.3
-7 6 16 3.7 6.1
6 -6 -16 17.1 3.3
-6 6 16 20.5 6.7
6 6 -16 27.8 2.4
6 6 -16 22.2 4
5 -6 -16 18 3.4
5 -6 -16 16.5 5.2
5 6 -16 11.6 3.2
-5 6 16 9.1 3.6
5 6 -16 18.7 2.2
4 -6 -16 1 3.5
4 -6 -16 0 2.1
-4 6 16 1.6 3.2
4 6 -16 0.7 2.3
4 6 -16 1.8 1.3
3 -6 -16 2.6 2.4
3 6 -16 4.9 3.7
-3 6 16 11.1 3.6
3 6 -16 3.7 1.4
2 -6 -16 33.5 5.7
2 6 -16 40.3 3
2 6 -16 34.4 4
-2 6 16 27.5 4.6
1 -6 -16 45.1 6
1 6 -16 42 3.1
-1 6 16 43 5.5
1 6 -16 42.4 4.3
0 6 16 50.79 5.7
0 6 -16 41.7 4.2
0 6 -16 38.9 3.1
1 6 16 20.8 4.7
-1 6 -16 18.3 2.3
-1 6 -16 19.5 3.2
-2 6 -16 2.3 1.8
-2 6 -16 1 2.6
2 6 16 7.2 3.5
-3 6 -16 45.5 3.6
3 6 16 49.8 6
4 6 16 29.7 5.1
-4 6 -16 16.3 2.4
5 6 16 4 4.4
-5 6 -16 8 2
-6 6 -16 27.7 3.1
6 6 16 16.8 4.9
-7 6 -16 70.89 4.7
-8 6 -16 1.4 1.8
-9 6 -16 2.8 1.9
10 7 -16 16.5 5.7
9 7 -16 -0.5 3.7
8 -7 -16 4.7 7.3
-8 7 16 5.3 6.6
8 7 -16 0.1 3.4
7 -7 -16 -0.6 3.2
7 7 -16 6 3.7
-7 7 16 -0.8 4.6
6 -7 -16 0.8 3.3
6 -7 -16 -0.9 3
6 7 -16 2.2 1.4
6 7 -16 2.2 3.1
5 -7 -16 -0.2 3.1
5 -7 -16 1 2.8
5 7 -16 -0.8 2.5
5 7 -16 0.8 1.4
-5 7 16 -0.9 4
4 -7 -16 19.3 3.7
4 -7 -16 20.4 3.4
4 7 -16 13.4 4.1
-4 7 16 21.5 4.5
4 7 -16 29.4 2.6
3 -7 -16 7.8 3.8
3 -7 -16 11.7 2.9
3 7 -16 13.2 2.8
3 7 -16 8.2 3.1
-3 7 16 7.8 3.6
2 -7 -16 19.2 3.6
-2 7 16 10.1 3.8
2 7 -16 13 3
1 7 -16 41.7 4.8
-1 7 16 32.2 4.9
0 7 -16 70.29 5.3
0 7 16 52.89 6.3
1 7 16 29.7 5
-1 7 -16 38.4 3.4
-2 7 -16 51.09 3.9
2 7 16 49.2 6.4
3 7 16 68.69 9.4
-3 7 -16 65.49 4.5
4 7 16 38.8 5.6
-4 7 -16 48.6 4
6 7 16 85.19 10
-6 7 -16 96.99 5.7
-7 7 -16 3.4 2.4
-8 7 -16 8 2.3
-9 7 -16 3.3 2.1
10 8 -16 1.3 4.9
9 8 -16 8.3 8
8 8 -16 -2.9 3.9
7 -8 -16 1.4 5.7
7 8 -16 6.1 5.7
-7 8 16 -4.2 5
6 -8 -16 -6.4 4.4
-6 8 16 3.8 4.3
6 8 -16 -0.2 1.4
6 8 -16 1.9 4
5 -8 -16 2.8 3.5
5 8 -16 5.2 3.1
-5 8 16 6.9 4.4
5 8 -16 11.6 2
4 -8 -16 0.5 3.2
4 8 -16 1.2 2.7
-4 8 16 5.5 5.8
4 8 -16 2.5 1.7
3 -8 -16 2.2 3.3
-3 8 16 1.2 3.6
3 8 -16 3.3 1.9
3 8 -16 1.9 2.9
2 -8 -16 -3 3.6
-2 8 16 2.6 5.5
2 8 -16 0.8 2.6
2 8 -16 0.2 1.7
-1 8 16 33.9 7.7
1 8 -16 39.2 4.8
1 8 -16 42.7 3.7
0 8 16 39.1 6.6
0 8 -16 38.2 3.6
0 8 -16 27.5 3.9
-1 8 -16 5.4 2.3
1 8 16 9.3 4.1
-1 8 -16 4.7 4.4
-2 8 -16 11.8 2.8
2 8 16 2.6 4.3
-3 8 -16 1 2.3
3 8 16 11.8 6.5
-4 8 -16 12.6 3.1
4 8 16 7.9 4.7
-5 8 -16 1.6 2.5
5 8 16 -4.6 8.5
-6 8 -16 0.9 2.7
-8 8 -16 2.3 2.5
9 9 -16 4.3 4.6
8 9 -16 6.9 4.4
7 9 -16 4.5 4.2
-7 9 16 15.9 12.3
6 -9 -16 8 6.1
6 9 -16 2.6 3.8
-6 9 16 7.4 5.7
5 9 -16 10 3.7
5 9 -16 12 2.2
4 -9 -16 5.5 4.2
4 9 -16 -1.7 3.4
4 9 -16 -0.2 1.9
-4 9 16 -2.3 3.9
3 -9 -16 0.7 3.7
3 9 -16 1.1 3.2
3 9 -16 2.2 2.2
-3 9 16 4.2 4.2
2 -9 -16 4.2 4.2
2 9 -16 1.8 2.1
-2 9 16 -3 4
2 9 -16 0 3
1 9 -16 7.6 2.4
-1 9 16 3 4.1
1 9 -16 3.9 3.2
0 9 16 52.89 6.9
0 9 -16 38.8 4.2
0 9 -16 34.3 4.7
-1 9 -16 22.4 3.1
1 9 16 24.4 5.8
2 9 16 4.9 4.4
-2 9 -16 6.3 3
-3 9 -16 5.5 2.9
3 9 16 10.1 5
-4 9 -16 6.5 3.1
4 9 16 10.9 5.6
5 9 16 10 6.6
-5 9 -16 11.2 3.1
-6 9 -16 1.1 3.6
-7 9 -16 1.9 2.6
7 10 -16 24 5.6
-6 10 16 42.3 7.9
5 10 -16 79.09 4.9
-5 10 16 78.49 9.2
-4 10 16 31.9 6.3
4 10 -16 30.6 3.2
4 10 -16 18.5 4.2
3 10 -16 6.8 4.1
-3 10 16 1.8 4.9
3 10 -16 9.5 2.6
2 10 -16 20.8 5.1
-2 10 16 31.9 7
2 10 -16 30.4 3.6
1 10 -16 19.5 3.5
-1 10 16 27.5 10.5
0 10 -16 13.8 3.4
1 10 16 0.8 6.4
-1 10 -16 7.5 3.5
2 10 16 2.3 5.4
-2 10 -16 11.2 3.6
-3 10 -16 -1.1 3.5
3 10 16 -1.9 5.7
-4 10 -16 2.5 3.9
4 10 16 6.4 8.5
-5 10 -16 13.1 3.9
-6 10 -16 12.8 3.4
6 11 -16 1.5 9.6
-5 11 16 4.6 13.7
5 11 -16 8.6 4.9
4 11 -16 4.1 2.6
4 11 -16 3.6 4.5
-4 11 16 6.6 6.7
3 11 -16 -1.1 2.6
-3 11 16 1.8 6.1
3 11 -16 -1.1 4.7
-2 11 16 -2.2 6.7
2 11 -16 -0.9 5.5
-1 11 16 -5.8 5.7
1 11 -16 2.3 4.9
0 11 16 6.4 5.8
0 11 -16 11.2 4.3
-1 11 -16 16.9 4.7
1 11 16 4.9 11.7
-2 11 -16 14.6 4.4
2 11 16 8.2 6.8
3 11 16 -4.5 6.8
-3 11 -16 6.7 3.9
-4 11 -16 9.1 3.8
-3 12 16 -5.7 9.4
3 12 -16 6.2 3
2 12 -16 17.3 3.6
-2 12 16 19 9.7
-1 12 16 6.4 8.5
1 12 -16 7.9 3.5
0 12 -16 -0.1 3.2
0 12 16 5.4 9.9
1 12 16 -6.8 9
-1 12 -16 0.3 3.4
-2 12 -16 1.6 3.4
12 0 -17 -5.6 6
-12 0 17 2.1 3.9
-12 0 17 -3.6 6.5
-11 0 17 -4.7 6.1
11 0 -17 -6.1 4.7
-10 0 17 -2.2 4.4
-9 0 17 2.7 3.8
9 0 -17 0.6 3.2
8 0 -17 2.4 2.8
-8 0 17 -2.2 3.2
7 0 -17 0.7 2.6
-7 0 17 2.8 4
-7 0 17 -5.7 2.5
-6 0 17 0.6 3.3
-6 0 17 -0.3 2.6
6 0 -17 1.5 2.6
-5 0 17 2.7 2.4
5 0 -17 0.7 3
-5 0 17 -2.1 2.9
-4 0 17 2.6 2.8
4 0 -17 -2 1.8
3 0 -17 1.5 1.9
2 0 -17 0.1 1.9
1 0 -17 -0.3 1.9
0 0 -17 1.5 1.8
0 0 -17 0.1 1.1
-1 0 -17 0.7 1.3
-1 0 -17 1.2 1.9
-2 0 -17 -1 1.9
-2 0 -17 -1.6 1.1
-3 0 -17 0.2 1.2
-3 0 -17 0.9 2.1
-4 0 -17 0.7 2.2
-4 0 -17 -1.2 1.2
7 0 17 2.1 5.3
-12 -1 17 6.2 4.3
-12 -1 17 8.3 5.9
-12 1 17 5.7 10.5
12 1 -17 0.7 6.3
-12 1 17 6.3 3.9
-11 -1 17 22.7 6.9
-11 1 17 19 8.9
-11 1 17 36.2 5.5
11 1 -17 29.7 6
-10 -1 17 39.4 6.7
10 -1 -17 24.6 5.2
-10 1 17 48.6 9.1
9 -1 -17 18 4.1
-9 -1 17 15.9 4.2
-9 1 17 18.8 4.5
9 1 -17 4.8 3.3
8 -1 -17 13.6 3.7
-8 -1 17 11.3 3.7
-8 1 17 15.9 4.1
8 1 -17 5.1 3.1
-7 -1 17 -0.7 2.6
7 -1 -17 1.5 2.6
-7 -1 17 -2.8 3.8
-7 1 17 1.9 3
7 1 -17 0.3 2.5
-7 1 17 -3 3.7
-6 -1 17 -0.2 3.4
6 -1 -17 1.7 2.4
6 1 -17 -0.4 2.2
-6 1 17 4.2 3.5
-6 1 17 -4.7 2.7
-5 1 17 38.7 5.2
-5 1 17 33.5 4.3
4 -1 -17 73.89 5.5
-4 1 17 65.79 6.3
4 1 -17 72.89 5.5
-4 1 17 74.19 5.5
3 -1 -17 187.28 9.8
-3 1 17 177.48 9.4
3 1 -17 190.08 9.9
-3 1 17 189.78 11
2 -1 -17 60.09 4.7
-2 1 17 49.3 5.6
2 1 -17 55.59 3.4
2 1 -17 53.19 4.6
1 -1 -17 43.4 4
1 1 -17 41.3 2.9
1 1 -17 38.8 3.9
0 -1 -17 45.6 4
0 1 -17 43 3
0 1 -17 37.6 3.9
-1 -1 -17 4.5 2.1
-1 1 -17 4 1.4
-1 1 -17 8.1 2.4
-2 -1 -17 77.49 5.3
-2 1 -17 79.09 5.2
-2 1 -17 74.89 4.4
-3 -1 -17 119.39 7
-3 1 -17 120.49 7
-3 1 -17 130.79 6.3
-4 -1 -17 26.7 3.4
-4 1 -17 28.2 2.9
-4 1 -17 29 3.5
-5 1 -17 2.5 1.5
5 1 17 1.8 3.7
-6 1 -17 5.4 1.7
7 1 17 -4.6 5.3
-12 -2 17 4.2 6.6
-12 2 17 -4 7.8
12 2 -17 -5.2 8.4
-12 2 17 9.8 4.1
11 -2 -17 -3.8 4.3
11 2 -17 -2.2 5
-11 2 17 8.9 5.9
-11 2 17 2.4 3.5
10 -2 -17 43.5 5.9
10 2 -17 49.5 6.4
-10 2 17 45 4.5
9 -2 -17 26.9 5.7
-9 -2 17 33.9 6.9
9 2 -17 23.2 6.2
-8 -2 17 105.79 7.7
8 -2 -17 95.39 7
8 2 -17 91.09 7.1
-8 2 17 92.59 7.4
7 -2 -17 76.79 6.1
-7 -2 17 73.49 7.7
-7 2 17 81.29 7.2
-7 2 17 78.39 6.4
7 2 -17 74.69 6.2
6 -2 -17 66.89 5.3
-6 -2 17 52.19 6.1
6 2 -17 46.9 5
-6 2 17 56.29 5.5
-6 2 17 59.99 6.3
5 -2 -17 50.99 4.9
-5 2 17 44 5
-5 2 17 50.59 5.7
5 2 -17 44.3 4.6
4 -2 -17 99.69 6.7
-4 2 17 104.39 7.7
-4 2 17 97.49 7.3
4 2 -17 104.39 6.7
3 -2 -17 34.1 4.2
-3 2 17 22 4.1
3 2 -17 21.1 3.3
3 2 -17 27.8 2.4
2 -2 -17 4.2 2.3
2 2 -17 2.9 1.5
-2 2 17 1.8 2.8
2 2 -17 2.6 2.1
1 -2 -17 76.99 5.4
-1 2 17 76.39 6.7
1 2 -17 76.99 4.3
1 2 -17 67.69 5.2
0 -2 -17 12.6 2.6
0 2 -17 17 2.1
0 2 -17 22.1 3.3
0 2 17 14.8 4
-1 -2 -17 17.5 3.1
-1 2 -17 13.8 2
1 2 17 14.3 3.7
-1 2 -17 18.7 3
-2 -2 -17 11.1 2.6
2 2 17 13.3 3.7
-2 2 -17 18 3
-2 2 -17 14.7 2
-3 -2 -17 64.69 4.8
-3 2 -17 62.59 4.8
3 2 17 57.89 6.4
-3 2 -17 59.79 3.9
4 2 17 219.48 12.6
-4 2 -17 204.68 10.4
-5 2 -17 122.79 6.2
5 2 17 119.29 8.9
-6 2 -17 82.89 4.9
6 2 17 109.79 11.2
-7 2 -17 83.19 4.7
7 2 17 78.29 8.5
-8 2 -17 86.69 4.8
-11 -3 17 11.1 6.5
11 -3 -17 8.9 6.3
-11 3 17 5.9 5.6
11 3 -17 9.1 5.3
-11 3 17 7.2 3.5
10 -3 -17 13 4.5
-10 -3 17 8.9 5
10 3 -17 12.8 4.6
-10 3 17 7.1 4.8
-10 3 17 8.9 3.2
-9 -3 17 -1.3 4.5
9 -3 -17 1.4 3.6
9 3 -17 0.5 5
-9 3 17 1.5 2.4
-9 3 17 2.2 4.3
8 -3 -17 0 3.2
8 3 -17 -0.4 2.9
-8 3 17 6.3 4
7 -3 -17 4.4 2.8
-7 -3 17 0 4.8
-7 3 17 6 5.8
-7 3 17 2.6 3.5
7 3 -17 2.3 2.7
6 -3 -17 2.9 2.4
6 3 -17 0.3 2.3
-6 3 17 1.7 3.1
-6 3 17 -0.5 4.1
5 -3 -17 0.7 2.3
5 3 -17 -1.8 2.2
-5 3 17 -0.8 3.1
4 -3 -17 1.3 3
4 3 -17 1 1.2
-4 3 17 1.2 2.8
3 -3 -17 2.8 2.1
3 3 -17 8.7 1.7
-3 3 17 7.8 3.5
3 3 -17 1.6 2.1
2 -3 -17 34.4 3.9
2 3 -17 36 4
2 3 -17 35.4 2.8
-2 3 17 42.6 5.6
1 -3 -17 84.39 5.8
1 3 -17 86.49 4.7
-1 3 17 86.89 7
1 3 -17 89.29 5.9
0 -3 -17 16.4 3
0 3 -17 21 2.4
0 3 -17 23.8 3.2
0 3 17 16.5 3.7
-1 -3 -17 21.4 3.5
1 3 17 33.4 4.9
-1 3 -17 16.7 3
-1 3 -17 19.5 2.3
-2 -3 -17 -2.8 2
2 3 17 -1.7 2.9
-2 3 -17 3 2.2
-2 3 -17 -0.2 1.5
-3 3 -17 11.8 2.2
3 3 17 9.8 3.7
-3 3 -17 8.9 2.6
4 3 17 -0.2 3.5
-4 3 -17 3.6 1.9
-5 3 -17 2.1 1.8
5 3 17 0.4 3.5
6 3 17 4.2 4.7
-6 3 -17 1.1 1.8
-7 3 -17 3.4 1.9
7 3 17 -1.1 5.2
-8 3 -17 2.7 1.7
-11 -4 17 3.6 5.7
-11 4 17 -2.1 3
11 4 -17 0.1 4.3
10 -4 -17 19.6 9
-10 -4 17 5.4 4.7
-10 4 17 7 3.2
10 4 -17 7.1 4.2
9 -4 -17 0.1 4.5
-9 -4 17 1.8 5.7
9 4 -17 3.1 4.4
-9 4 17 1.9 2.3
8 -4 -17 40.1 5.1
8 4 -17 26.3 4.5
-8 4 17 32.8 3.4
7 -4 -17 22.1 3.8
7 4 -17 25 4.2
-7 4 17 18.3 4.9
6 -4 -17 3.2 2.8
-6 4 17 -2 3.7
6 4 -17 3.6 2.8
5 -4 -17 2.7 2.3
5 4 -17 1.2 1.4
-5 4 17 3 3.4
5 4 -17 -0.1 2.3
4 -4 -17 0.5 2
-4 4 17 -0.6 3.1
4 4 -17 -0.5 2.1
4 4 -17 -0.6 1.2
3 -4 -17 4.5 2.6
-3 4 17 6.1 3.3
3 4 -17 9 1.7
2 -4 -17 5.3 3.5
2 4 -17 11.5 1.8
-2 4 17 15.5 3.9
2 4 -17 4.6 2.2
1 -4 -17 15.9 3.5
1 4 -17 16.7 2.1
-1 4 17 14.1 3.7
1 4 -17 11.2 2.7
0 -4 -17 8 2.7
0 4 17 4.9 3.2
0 4 -17 9.9 1.9
0 4 -17 12.2 2.9
-1 4 -17 10.5 2.6
-1 4 -17 13.3 2
1 4 17 25.2 5
-2 -4 -17 1.9 2.1
-2 4 -17 1.8 2
2 4 17 0 3.1
-2 4 -17 3 2.4
-3 4 -17 2.4 2.5
3 4 17 -1.2 3.4
-3 4 -17 0.3 1.7
4 4 17 4.3 3.8
-4 4 -17 5.5 2.2
5 4 17 3.6 4.4
-5 4 -17 8.6 2.3
-6 4 -17 13.3 2.5
6 4 17 5.1 4.8
7 4 17 26.9 7.5
-7 4 -17 53.49 3.8
-8 4 -17 52.19 3.8
-9 4 -17 7.1 1.8
-11 -5 17 14.3 6.7
11 5 -17 -1.7 4.8
-11 5 17 2.1 3.3
10 -5 -17 -0.1 5.9
-10 5 17 7.4 2.6
10 5 -17 2 4.7
9 -5 -17 2.3 3.7
9 5 -17 7.2 4.1
8 -5 -17 5.6 3.9
8 5 -17 2.5 3.9
-8 5 17 -1.5 1.8
7 -5 -17 0.7 3.1
-7 5 17 0.1 1.7
-7 5 17 3.9 4.6
7 5 -17 1.5 3
6 -5 -17 4 3
6 5 -17 5.1 3
-6 5 17 4.1 3.8
5 -5 -17 0.5 2.5
5 5 -17 1.2 2.5
5 5 -17 4 1.5
-5 5 17 3.8 3.8
4 -5 -17 21.1 3.7
4 5 -17 10.1 2.8
-4 5 17 18.6 4.5
4 5 -17 20.7 3.4
3 -5 -17 11 2.9
3 5 -17 26.3 3.4
3 5 -17 21.4 3.6
-3 5 17 17.3 4.1
2 -5 -17 4.1 2.7
2 5 -17 2.9 2.2
-2 5 17 4.8 3.4
2 5 -17 5.9 1.9
1 -5 -17 41.5 4.5
1 5 -17 47 3.5
-1 5 17 43.1 5.8
0 -5 -17 233.98 11.8
0 5 -17 221.68 13.3
0 5 -17 239.68 11
0 5 17 224.98 13.1
-1 -5 -17 79.39 5.9
-1 5 -17 75.89 6.4
1 5 17 87.09 7.5
-1 5 -17 87.69 6.2
2 5 17 7 3.8
-2 5 -17 6 1.9
3 5 17 4.3 3.8
-3 5 -17 2 1.9
-4 5 -17 4.8 2
4 5 17 7.8 4.9
5 5 17 1.3 5.5
-5 5 -17 0.5 1.9
-6 5 -17 18 2.8
6 5 17 13.3 5.3
-7 5 -17 1.8 2.1
-8 5 -17 2.1 2.7
-9 5 -17 -0.8 1.6
-10 -6 17 -4.1 4.8
10 6 -17 3.1 4.8
9 -6 -17 -9.4 8.8
9 6 -17 7.2 4
8 -6 -17 8 3.8
8 6 -17 8.1 5.9
7 -6 -17 11.2 4
-7 6 17 25.3 5.8
7 6 -17 35.6 9.1
6 -6 -17 47.7 5.3
6 6 -17 41.2 5.1
-6 6 17 46.4 6.5
6 6 -17 31.9 2.8
5 -6 -17 4.1 2.9
5 6 -17 2.8 1.6
5 6 -17 5.4 3
-5 6 17 1.2 3.6
4 -6 -17 38.5 4.7
4 6 -17 25.3 4.1
-4 6 17 31.6 7.2
4 6 -17 33.4 3
3 -6 -17 0.8 2.6
3 6 -17 -0.8 2.2
-3 6 17 -0.1 3.4
3 6 -17 -0.2 1.7
2 -6 -17 0.4 2.3
-2 6 17 5.3 3.6
2 6 -17 2.6 1.7
2 6 -17 1.2 2.4
1 -6 -17 1.3 2.4
-1 6 17 -2.2 3.3
1 6 -17 1.9 1.8
1 6 -17 -1 2.4
0 6 -17 12 3.1
0 6 17 6.8 3.7
0 6 -17 10.2 2.3
-1 6 -17 8.6 2.2
1 6 17 13.2 4.4
-1 6 -17 5.7 3
2 6 17 0.9 6
-2 6 -17 1.5 2
-2 6 -17 7.3 4
-3 6 -17 -1.7 1.8
3 6 17 -4.4 3.8
-4 6 -17 19.3 3.1
-5 6 -17 11.1 2.7
5 6 17 8.5 5.1
-6 6 -17 9.5 2.7
6 6 17 -3.3 6.1
-7 6 -17 28.5 3.3
-8 6 -17 10 2.5
-9 6 -17 26.1 2.9
9 7 -17 1.3 4.1
8 7 -17 2.7 3.8
7 -7 -17 -2.2 4.2
7 7 -17 -0.3 4.8
-7 7 17 1.7 5.4
6 -7 -17 -3.8 4.6
6 7 -17 -1.5 4.1
6 7 -17 2.3 1.6
-6 7 17 4.3 4.6
5 -7 -17 0.9 3
5 7 -17 2.4 2.9
5 7 -17 -0.9 1.6
-5 7 17 1.2 4.3
4 -7 -17 4.8 3.4
4 7 -17 1.3 2.8
4 7 -17 6.3 2.1
-4 7 17 -1.8 4.6
3 -7 -17 26.4 4.4
3 7 -17 22 2.7
3 7 -17 18.2 3.5
-3 7 17 26.8 7.3
2 7 -17 22.1 3.7
2 7 -17 34.2 3.4
-2 7 17 29.6 5.1
1 7 -17 34.4 4.2
1 7 -17 33.4 3.7
-1 7 17 25.2 5.1
0 7 -17 73.39 5.7
0 7 17 65.79 7.1
0 7 -17 62.49 4.6
-1 7 -17 81.39 6.3
-1 7 -17 67.19 4.9
1 7 17 68.09 7.4
-2 7 -17 4.7 2.3
-3 7 -17 -1.9 2.1
3 7 17 1.9 4.2
4 7 17 -4.4 4.4
-4 7 -17 0 2.3
5 7 17 -7 5.4
-5 7 -17 -3.4 2.4
-6 7 -17 3 2.7
-7 7 -17 1.4 2.4
-8 7 -17 -1.7 2.4
9 8 -17 2.6 5
8 8 -17 0.7 4.5
-7 8 17 11.4 8.5
7 8 -17 8.4 4.4
-6 8 17 47.1 7.3
6 8 -17 25.7 4.8
-5 8 17 28.5 9.2
5 8 -17 18.5 2.5
5 8 -17 15.5 4.6
4 8 -17 44.4 6.5
-4 8 17 47.3 6.7
4 8 -17 45.3 4
3 8 -17 2.2 3.1
-3 8 17 0.4 4.5
3 8 -17 3.5 2.4
2 8 -17 -1.5 3
2 8 -17 2 2.3
-2 8 17 0.1 4
-1 8 17 -0.4 4.2
1 8 -17 -0.1 2.2
1 8 -17 1.6 3
0 8 -17 20.8 3.2
0 8 17 17.6 5
0 8 -17 13.1 3.9
1 8 17 10.1 4.5
-1 8 -17 11.8 2.7
-2 8 -17 3.7 2.9
2 8 17 7.2 5.1
-3 8 -17 3.3 2.8
3 8 17 4.1 6
-4 8 -17 23.5 3.7
4 8 17 10.8 5.9
5 8 17 45.9 12.3
-5 8 -17 39.7 4.6
-6 8 -17 24.6 3.8
-7 8 -17 27.7 3.5
7 9 -17 -3.1 4.6
-6 9 17 7.6 6.4
6 9 -17 2.4 5
5 9 -17 14.9 2.7
5 9 -17 7.5 4
-5 9 17 3.9 5.4
4 9 -17 58.99 4.6
4 9 -17 57.49 6.2
-4 9 17 66.69 8.3
3 9 -17 11.3 4
3 9 -17 26.5 3.2
-3 9 17 31.7 6.6
2 9 -17 14.6 7.1
-2 9 17 0 6.4
2 9 -17 4.6 2.8
1 9 -17 6.3 2.8
1 9 -17 -0.7 4.4
-1 9 17 0.8 4.7
0 9 17 3.8 6.3
0 9 -17 5.7 2.9
-1 9 -17 11 3
1 9 17 16.7 6.3
2 9 17 33.5 7.1
-2 9 -17 35.7 4.1
3 9 17 13.9 6.4
-3 9 -17 9.2 3.2
4 9 17 24.3 10.5
-4 9 -17 22.7 4.3
-5 9 -17 3.7 2.9
-6 9 -17 3 3.1
6 10 -17 1.3 4.4
5 10 -17 6.9 4.9
-5 10 17 6.3 7.7
4 10 -17 4.8 2.7
-4 10 17 7.5 6.3
4 10 -17 7 4.4
3 10 -17 2 2.9
3 10 -17 -3 4.9
-3 10 17 6.2 7.2
2 10 -17 0.7 3.2
-2 10 17 -0.7 5.3
2 10 -17 1.5 5.9
-1 10 17 -1.7 5.2
1 10 -17 4.9 3.3
0 10 -17 7.6 3.6
0 10 17 1.7 6
-1 10 -17 2.4 3.8
1 10 17 1.4 7.5
2 10 17 1.9 6.6
-2 10 -17 2.5 4.5
3 10 17 -3 6.8
-3 10 -17 3 3.7
-4 10 -17 4.3 3.7
4 11 -17 4 5.9
4 11 -17 6.3 3.1
3 11 -17 3.2 2.9
-3 11 17 4.9 9.2
2 11 -17 0.3 3.1
-2 11 17 1 9.6
1 11 -17 6.9 3.2
-1 11 17 10.3 7.7
0 11 -17 23.7 4.2
0 11 17 12.9 12.2
1 11 17 16.2 10.9
-1 11 -17 23.6 4
-2 11 -17 6.3 3.9
11 0 -18 3.5 5.1
-11 0 18 -7 5.8
10 0 -18 21.3 5.2
-9 0 18 56.59 7.3
9 0 -18 89.49 11.8
-8 0 18 96.39 12.1
8 0 -18 110.39 9.7
7 0 -18 108.69 7.8
-7 0 18 117.39 8.1
6 0 -18 15.7 3.8
-6 0 18 10.8 3.4
-6 0 18 16.1 5.9
-5 0 18 4.2 3.6
-5 0 18 8.2 3.8
5 0 -18 0.7 2.5
4 0 -18 44 4.6
-4 0 18 42 4.9
-3 0 18 28.7 4.2
3 0 -18 37 4.5
-3 0 18 42.7 5.7
2 0 -18 51.99 6.4
0 0 -18 52.49 6.1
-2 0 -18 1.5 2.4
-3 0 -18 59.89 5
-4 0 -18 12.7 3.1
6 0 18 97.59 9.2
7 0 18 7.7 6.7
11 -1 -18 7.3 6.4
-11 -1 18 -4.6 6.2
-11 1 18 1.3 6.4
11 1 -18 1.3 5
-11 1 18 3.4 3.7
-10 -1 18 2.4 5.6
10 -1 -18 3.8 5.9
10 1 -18 1.4 6.6
-10 1 18 1 6.2
9 -1 -18 0.4 4.6
-9 -1 18 -3.6 4.4
9 1 -18 7.2 6.3
-9 1 18 -4.2 4.3
8 -1 -18 2.6 4.4
8 1 -18 1.4 4.1
-8 1 18 -0.2 5
-7 -1 18 54.69 6.1
7 -1 -18 57.49 5.8
-7 1 18 61.29 6.5
-7 1 18 36.1 7.2
7 1 -18 69.09 6
-6 -1 18 82.49 10.5
-6 -1 18 82.39 6.5
-6 1 18 49.8 7.5
6 1 -18 74.09 6
-6 1 18 81.69 7
-5 -1 18 75.69 7.1
5 -1 -18 74.99 5.9
-5 1 18 75.59 7.1
-5 1 18 64.29 7.1
5 1 -18 74.89 5.9
4 -1 -18 47 4.7
-4 1 18 46.3 5.9
4 1 -18 39.6 4.5
3 -1 -18 76.89 5.8
3 1 -18 76.59 5.9
-3 1 18 80.99 7.3
2 -1 -18 32.5 4.2
-2 1 18 43.8 5.9
2 1 -18 40.6 5.2
1 -1 -18 3.8 3.3
1 1 -18 18.2 2.2
-1 1 18 13.3 3.8
0 -1 -18 1 3.1
0 1 -18 2.1 2.9
0 1 -18 1.4 1.5
-1 -1 -18 12.5 3.3
-1 1 -18 12.1 2.9
-2 -1 -18 28.3 3.6
-2 1 -18 30.4 3.3
-2 1 -18 36.3 5.3
-3 -1 -18 11.7 2.8
-3 1 -18 7.5 2.8
-3 1 -18 10.7 2
3 1 18 10.2 4
-4 1 -18 35.2 4.1
-4 1 -18 38.4 3.3
5 1 18 14.5 7.2
-5 1 -18 9.9 2.1
6 1 18 1.5 4.6
7 1 18 -4.6 6.2
11 -2 -18 5.5 5.7
-11 -2 18 9.3 6.8
-11 2 18 9.5 3.9
11 2 -18 8.5 6.4
-10 -2 18 9.5 6.1
10 -2 -18 32.5 7.7
-10 2 18 20.4 7.6
-10 2 18 20 3.9
10 2 -18 26.9 6.4
9 -2 -18 1.2 4
-9 -2 18 1.2 4.3
-9 2 18 0.9 5.1
9 2 -18 -0.7 3.7
8 -2 -18 -1.3 3.9
-8 -2 18 5.3 7.2
8 2 -18 -3.1 5.1
-8 2 18 4.1 4.5
7 -2 -18 0.9 3
-7 -2 18 -0.9 3.2
7 2 -18 1.2 2.9
-7 2 18 2.3 4.7
6 -2 -18 19.7 3.8
-6 -2 18 37 7.7
-6 2 18 27.2 5.4
6 2 -18 18.6 3.7
5 -2 -18 24.6 4
-5 2 18 26.5 5.1
5 2 -18 22.2 4
4 -2 -18 3.2 2.7
-4 2 18 4.9 3.6
4 2 -18 3 2.6
3 -2 -18 1.5 2.2
-3 2 18 -2.4 3
3 2 -18 3.7 2.5
2 -2 -18 0.4 2.1
-2 2 18 -2.6 2.9
2 2 -18 4.7 2.6
2 2 -18 0 1.6
1 -2 -18 5.5 2.7
-1 2 18 7.4 3.7
1 2 -18 7.4 1.9
1 2 -18 5.9 3.1
0 -2 -18 32.3 4
0 2 -18 40.9 4.4
0 2 18 35.4 5.7
-1 -2 -18 1.8 2.2
-1 2 -18 0.1 3.5
-1 2 -18 2.6 2.4
1 2 18 1.5 3.1
-2 -2 -18 95.79 6.4
-2 2 -18 98.49 5.5
2 2 18 98.29 8.2
-2 2 -18 104.39 6.6
-3 -2 -18 63.39 5.2
3 2 18 70.39 7.3
-3 2 -18 76.39 4.6
-3 2 -18 63.79 5.4
-4 2 -18 39.3 3.5
4 2 18 40.1 6.8
-5 2 -18 16.2 2.5
5 2 18 16.6 6.6
6 2 18 20.1 6
7 2 18 -4.8 6.1
-7 2 -18 2.7 1.9
10 -3 -18 -1.7 4.2
-10 -3 18 -1.9 5.4
10 3 -18 -1.3 4
-10 3 18 1.8 3.1
9 -3 -18 0.7 3.7
-9 -3 18 -0.4 4.4
-9 3 18 10.8 5
9 3 -18 5 4.3
-8 -3 18 -2.1 4
8 -3 -18 -1.9 3.1
8 3 -18 -1 3.5
7 -3 -18 2.8 3.5
7 3 -18 1.2 3.3
-7 3 18 9.6 5
6 -3 -18 16.7 3.9
-6 3 18 15.3 6.8
6 3 -18 25.8 4.4
5 -3 -18 22.4 3.7
5 3 -18 15.9 3.3
-5 3 18 12.9 8.3
4 -3 -18 79.09 6.1
-4 3 18 78.29 7.3
4 3 -18 75.09 6
3 -3 -18 52.99 5
-3 3 18 54.59 6.3
3 3 -18 52.49 3.9
3 3 -18 46.9 4.8
2 -3 -18 136.49 8
2 3 -18 145.09 8.1
-2 3 18 130.79 9.4
2 3 -18 128.49 7.9
1 -3 -18 83.29 6.1
1 3 -18 86.39 6
-1 3 18 83.49 7.4
0 -3 -18 85.39 6
0 3 -18 76.69 5.8
0 3 18 83.99 7.4
0 3 -18 89.79 5.3
-1 -3 -18 84.49 6
-1 3 -18 80.19 4.9
-1 3 -18 86.89 5.9
1 3 18 77.79 7.5
-2 -3 -18 4 2.5
-2 3 -18 2.8 1.8
2 3 18 0.7 3.5
-2 3 -18 -0.8 2.4
-3 3 -18 11.7 3.2
-3 3 -18 6.6 2.2
-4 3 -18 3.2 2.1
4 3 18 0.7 4.2
-5 3 -18 53.99 4.2
-6 3 -18 49.9 4
6 3 18 55.19 8.6
-8 3 -18 29.4 3.1
-10 -4 18 23 6.4
10 -4 -18 12.7 5.3
-10 4 18 29.9 3.5
10 4 -18 24.3 5.8
-9 -4 18 31.3 6
9 -4 -18 20.8 5.1
9 4 -18 27.5 5.2
-9 4 18 38.7 4.2
8 -4 -18 45.2 6.6
8 4 -18 52.09 6.6
-8 4 18 57.39 4.5
7 -4 -18 12 4
7 4 -18 13.2 4.3
-7 4 18 23.4 6.1
6 -4 -18 23.4 4
-6 4 18 41.7 5.9
6 4 -18 19.4 3.8
5 -4 -18 24 3.9
-5 4 18 15.2 4.9
5 4 -18 27.4 4.2
4 -4 -18 8.9 3
4 4 -18 15.4 2.1
-4 4 18 23.5 6.8
4 4 -18 14.3 3.2
3 -4 -18 10.8 3.2
3 4 -18 15.9 3.5
-3 4 18 11.3 4.2
3 4 -18 10.1 2
2 -4 -18 5.9 2.6
2 4 -18 5.8 2.7
-2 4 18 -0.2 3.1
2 4 -18 4.7 2
1 -4 -18 9.8 2.9
-1 4 18 6.2 3.9
1 4 -18 6.3 2.9
1 4 -18 17.1 2.5
0 -4 -18 27.8 3.9
0 4 18 42.4 6.1
0 4 -18 42.8 3.6
0 4 -18 49.4 4.6
-1 -4 -18 70.49 5.6
-1 4 -18 79.19 4.9
-1 4 -18 75.09 5.7
1 4 18 82.39 7.5
-2 4 -18 20.7 2.7
-2 4 -18 19 3.7
-3 4 -18 11.5 2.6
3 4 18 4.6 3.8
4 4 18 30.8 6.3
-4 4 -18 43.1 4
-5 4 -18 79.49 5
5 4 18 60.99 8.1
-6 4 -18 14.4 2.7
6 4 18 15.2 6.6
-7 4 -18 5.9 2.3
-8 4 -18 1.7 1.9
-10 -5 18 -12.3 6.8
10 5 -18 -2.2 4.7
-9 -5 18 2.9 6
9 -5 -18 3.5 4.6
9 5 -18 1.4 4.6
8 -5 -18 -0.4 4
8 5 -18 -2.1 3.9
7 -5 -18 0 5.8
7 5 -18 0.8 3.5
-7 5 18 4.8 5.6
6 -5 -18 0.6 4.1
-6 5 18 -0.2 4.3
5 -5 -18 5.4 3.2
5 5 -18 2.1 2.8
-5 5 18 4.9 4.5
5 5 -18 5.2 1.8
4 -5 -18 5.9 3.3
4 5 -18 1.5 1.8
-4 5 18 -0.3 6.4
4 5 -18 0.3 2.6
3 -5 -18 7.3 3.1
3 5 -18 7.3 2.3
3 5 -18 6.3 3
-3 5 18 6.5 4.1
2 -5 -18 3.3 2.7
2 5 -18 2.4 1.9
-2 5 18 5.8 4.9
2 5 -18 4.2 2.6
1 -5 -18 6.1 3.1
1 5 -18 7 2.3
1 5 -18 4.6 2.6
-1 5 18 4.6 5.8
0 -5 -18 5.2 2.7
0 5 18 7.8 6.5
0 5 -18 10.1 2.6
0 5 -18 7.5 3.1
-1 5 -18 23.3 3.9
1 5 18 22.3 4.9
-1 5 -18 24.8 3.1
-2 5 -18 -5.3 3.3
2 5 18 -0.5 4.5
-2 5 -18 0.4 2.5
-3 5 -18 5.2 2.6
3 5 18 0.5 4.1
-4 5 -18 6.3 2.9
4 5 18 6.4 4.8
-5 5 -18 1 2.7
6 5 18 11 6.6
-6 5 -18 15.4 3.1
-7 5 -18 4.3 2.8
-8 5 -18 2.2 2.2
9 -6 -18 12.6 6.7
9 6 -18 9.9 4.6
8 -6 -18 -1 8.8
8 6 -18 -1 4.2
7 -6 -18 -4.1 3.8
-7 6 18 2.8 6.4
7 6 -18 2.8 3.8
6 -6 -18 6.3 4.5
-6 6 18 9.8 5.8
6 6 -18 11.6 5.7
5 -6 -18 5.9 7
5 6 -18 12.4 2.2
-5 6 18 -0.8 4.3
5 6 -18 6.2 6.7
4 -6 -18 2.8 3.1
4 6 -18 0.2 3
4 6 -18 -0.5 2
-4 6 18 4 4.4
3 -6 -18 8.9 3.5
3 6 -18 9 2.6
-3 6 18 6.2 4.2
3 6 -18 7.1 3.1
2 -6 -18 29 4.4
2 6 -18 35.4 3.9
-2 6 18 54.49 9.4
2 6 -18 40.4 5.3
1 -6 -18 13.9 3.6
1 6 -18 14.5 3.4
1 6 -18 16.3 2.9
0 6 -18 11.4 2.9
0 6 18 5.1 5.2
0 6 -18 13.9 3.5
-1 6 -18 33 3.5
-1 6 -18 31.9 4.5
-2 6 -18 67.59 5.1
2 6 18 56.69 7.7
-3 6 -18 29.9 3.6
3 6 18 19.5 5.4
4 6 18 9.5 11.3
-4 6 -18 18.7 3.4
-5 6 -18 16 3.5
5 6 18 2.6 6
-6 6 -18 24.8 5.8
-7 6 -18 25.7 3.5
8 7 -18 -0.5 3.8
-7 7 18 5.8 10.9
7 7 -18 17.7 5.5
6 -7 -18 43.6 5.7
6 7 -18 34.2 5
-6 7 18 22.5 6.4
-5 7 18 86.99 9.2
5 7 -18 89.49 5
5 7 -18 74.09 7.5
4 7 -18 33.2 3.8
4 7 -18 31.6 4.7
-4 7 18 35.3 9.3
-3 7 18 152.58 10.7
3 7 -18 117.29 9.3
3 7 -18 148.79 7.5
2 7 -18 43.7 4.5
-2 7 18 25.9 5.4
2 7 -18 56.29 7.4
-1 7 18 1.9 4.2
1 7 -18 8.2 2.9
1 7 -18 0.5 5
0 7 -18 4.5 4.8
0 7 18 6.3 4.7
0 7 -18 5.3 2.7
1 7 18 13.7 4.9
-1 7 -18 13.7 3.1
2 7 18 30.4 7.3
-2 7 -18 19.2 3.4
3 7 18 7.7 5.4
-3 7 -18 7.5 3
-4 7 -18 2.2 3
4 7 18 -3.5 5.9
5 7 18 2.8 7.4
-5 7 -18 -1.4 4
-6 7 -18 -0.6 3.1
-7 7 -18 4 2.9
7 8 -18 -1 3.7
6 8 -18 4.5 5.7
-6 8 18 -8.8 7.2
-5 8 18 -4.7 6.8
5 8 -18 1.2 2.1
5 8 -18 7.5 3.7
4 8 -18 1.9 2.7
-4 8 18 2.4 5.6
4 8 -18 0.6 3.2
3 8 -18 2.8 2.8
-3 8 18 -4.8 5.4
3 8 -18 0.9 3.5
-2 8 18 2.4 4.8
2 8 -18 0.3 2.7
2 8 -18 -0.7 3.8
-1 8 18 -4.3 4.9
1 8 -18 -4.1 2.6
1 8 -18 -1.8 4.5
0 8 18 2 5.2
0 8 -18 3.6 3.2
1 8 18 -2.9 5
-1 8 -18 0.5 3.1
-2 8 -18 2.8 3.6
2 8 18 3.4 6.3
-3 8 -18 10.6 3.4
3 8 18 5.8 6.6
-4 8 -18 6.6 4.6
4 8 18 -7.4 6.2
-5 8 -18 1.5 3.3
-6 8 -18 -0.2 3.3
6 9 -18 -0.5 4.2
-5 9 18 7.6 11.1
5 9 -18 13.6 4.6
5 9 -18 13.3 2.7
4 9 -18 4 2.6
4 9 -18 0.5 3.9
-4 9 18 -0.4 6.7
3 9 -18 14.2 5.1
3 9 -18 25 3.4
-2 9 18 -0.5 5.6
2 9 -18 -1.3 5.5
2 9 -18 5.4 3.9
-1 9 18 1.2 5.6
1 9 -18 4.5 4
0 9 -18 2.9 3.5
0 9 18 1.8 6.1
1 9 18 5.2 11.5
-1 9 -18 11.5 6
2 9 18 -1 6.8
-2 9 -18 -1.8 3.3
3 9 18 -4 7.6
-3 9 -18 2.7 3.6
-4 9 -18 3.7 3.6
4 10 -18 -3.8 5.5
4 10 -18 4.1 2.6
3 10 -18 2.3 3
-3 10 18 0.8 8.1
2 10 -18 5.7 3.3
-2 10 18 1.9 10.1
-1 10 18 6.7 6.7
1 10 -18 0.4 3.3
0 10 18 8.3 9.5
0 10 -18 6.6 3.8
-1 10 -18 8.5 3.4
-2 10 -18 57.19 5.8
10 0 -19 -6.7 4.8
-9 0 19 5.1 5.6
9 0 -19 -4 6.4
8 0 -19 0.6 3.6
-8 0 19 0.5 5.3
7 0 -19 3.8 3.9
-7 0 19 2.3 8
6 0 -19 2.1 3.4
-6 0 19 0 5
-6 0 19 -2.3 4.7
5 0 -19 -2.1 2.6
-4 0 19 3.1 4.2
4 0 -19 -1.3 2.6
3 0 -19 -2.8 2.4
-3 0 19 -2 4.7
-2 0 19 2.6 5.8
2 0 -19 -2.1 2.2
1 0 -19 1.8 2.6
0 0 -19 2.7 2.6
-1 0 -19 0.7 2.6
-2 0 -19 -0.3 2.5
-3 0 -19 -0.3 2.7
5 0 19 -1.6 5.6
6 0 19 1.5 6.1
7 0 19 -1 11.3
10 -1 -19 0.7 4.8
-10 -1 19 4.9 8.1
10 1 -19 -6.8 4.4
-9 -1 19 10.6 5.5
9 1 -19 8 5.8
-8 -1 19 23.2 5.5
8 -1 -19 36.5 5.6
8 1 -19 30.3 5.3
7 -1 -19 56.09 6.2
-7 -1 19 50.19 9.4
7 1 -19 55.39 6.4
-6 -1 19 83.39 8.1
-6 -1 19 83.89 9.1
-6 1 19 78.09 8.5
6 1 -19 80.69 6.8
5 -1 -19 49.7 5.5
-5 -1 19 36.1 5
-5 -1 19 35.3 7.9
5 1 -19 29.5 4.3
-5 1 19 54.19 8.9
-4 -1 19 27.7 5.3
-4 -1 19 19.3 4.7
4 -1 -19 32.5 4.6
-4 1 19 22.5 5
4 1 -19 17.9 3.5
3 -1 -19 14 3.2
-3 1 19 8.7 4.8
3 1 -19 15.2 3.6
2 -1 -19 9.4 2.9
2 1 -19 13 3.1
-2 1 19 14 5.9
1 -1 -19 8.3 3
-1 1 19 8.4 5.5
1 1 -19 9.2 3.2
0 -1 -19 8 2.9
0 1 -19 1.9 2.6
-1 -1 -19 4.5 2.7
-1 1 -19 2.5 2.6
1 1 19 3.2 4.1
-2 -1 -19 -1.1 2.6
2 1 19 0.9 3.9
-2 1 -19 1.4 2.2
-2 1 -19 2 2.8
-3 -1 -19 5 3
-3 1 -19 6.3 3.1
-3 1 -19 10.6 2.3
4 1 19 2.1 4.7
5 1 19 18.6 7.2
6 1 19 -1.2 6
7 -1 19 3.9 8.5
10 -2 -19 1.7 4.9
-10 -2 19 2.8 10
-10 2 19 1.5 3.6
10 2 -19 -2.5 4.7
9 -2 -19 15.2 5.7
-9 -2 19 11.8 6
9 2 -19 22.5 6.3
8 -2 -19 13.6 4.4
-8 -2 19 3.5 4.5
8 2 -19 -1.8 3.8
7 -2 -19 16.2 6
-7 -2 19 -2.2 5.4
7 2 -19 10.1 4.5
-7 2 19 1.9 9
6 -2 -19 -6.2 4.5
-6 -2 19 4.4 5.5
-6 -2 19 7.1 5.1
-6 2 19 5.6 4.9
6 2 -19 8 4.4
-5 -2 19 9.9 4.7
5 -2 -19 10.8 3.8
-5 2 19 15.5 5
5 2 -19 4.3 3.1
4 -2 -19 55.19 5.6
4 2 -19 63.09 5.7
3 -2 -19 101.59 7.2
-3 2 19 117.29 8.9
3 2 -19 105.29 7.3
2 -2 -19 91.29 6.5
-2 2 19 86.79 8.5
2 2 -19 84.79 6.4
1 -2 -19 100.79 7.2
1 2 -19 116.89 6.2
-1 2 19 127.49 10.4
1 2 -19 107.69 7.2
0 -2 -19 62.19 5.6
0 2 -19 62.39 5.4
0 2 19 73.79 8.4
0 2 -19 71.39 4.7
-1 -2 -19 32.3 4.2
1 2 19 21.5 5
-1 2 -19 34.4 3.7
-1 2 -19 33.9 4.2
-2 -2 -19 33.8 4.4
2 2 19 31.6 6.7
-2 2 -19 35.2 4.3
-2 2 -19 42.9 3.9
3 2 19 -1.5 3.9
-3 2 -19 2.3 3.4
-3 2 -19 2 2.5
-4 2 -19 7.3 2.5
4 2 19 0.5 4.5
5 2 19 0.9 9.2
-5 2 -19 7 2.6
6 2 19 26.1 6.8
-9 -3 19 1.6 5.5
9 -3 -19 8.8 4.8
-9 3 19 8.2 3.2
9 3 -19 2.7 4.3
8 -3 -19 2.8 4.2
-8 -3 19 -0.9 4.7
8 3 -19 4.9 4.1
-8 3 19 4.7 2.7
7 -3 -19 18.4 5.8
-7 -3 19 10 4.8
7 3 -19 9.4 5.2
-7 3 19 15.6 10.4
6 -3 -19 18.6 4.1
-6 -3 19 7.9 9.7
6 3 -19 14.5 4.3
5 -3 -19 35.5 4.8
5 3 -19 40.6 5.2
-5 3 19 48.6 6.7
4 -3 -19 2.5 2.9
4 3 -19 6.3 3
-4 3 19 6.6 5.2
3 -3 -19 4.1 3.1
3 3 -19 -0.4 2.9
-3 3 19 4 5.9
2 -3 -19 2.3 2.9
2 3 -19 3.5 2.3
2 3 -19 2.5 2.8
-2 3 19 1.4 3.8
1 -3 -19 -0.3 2.7
1 3 -19 0 2.7
1 3 -19 0.5 2.3
-1 3 19 2.2 3.8
0 -3 -19 0.4 2.8
0 3 -19 1.9 2.6
0 3 -19 8.5 2.6
0 3 19 2.1 3.6
-1 -3 -19 4.5 2.9
1 3 19 -1.4 5.1
-1 3 -19 2.6 2.6
-1 3 -19 -1.6 2.8
-2 -3 -19 12.4 3.5
-2 3 -19 13.8 2.9
2 3 19 14.6 5.3
-2 3 -19 18.3 3.7
3 3 19 2.2 4.8
-3 3 -19 1.2 2.6
-4 3 -19 22.4 3.1
4 3 19 34.6 6.8
-5 3 -19 55.69 4.7
5 3 19 65.79 8.7
6 3 19 17.4 12.8
-6 3 -19 12.2 2.6
-7 3 -19 3.3 2.4
9 -4 -19 11.4 5.5
9 4 -19 7.4 4.5
-8 -4 19 10.8 8
8 -4 -19 3.1 4.2
8 4 -19 9.3 6.2
7 -4 -19 5.9 4.1
7 4 -19 1.5 3.8
6 -4 -19 4.7 5.5
6 4 -19 0.7 4.9
-6 4 19 0.7 5.4
5 4 -19 1.8 4.2
-5 4 19 3.5 5
4 -4 -19 20.3 4.2
4 4 -19 23 4.1
-4 4 19 15.1 5.3
3 -4 -19 8.8 3.5
3 4 -19 7.1 2.5
-3 4 19 8.5 4.8
3 4 -19 3.7 3.1
2 -4 -19 22.4 3.9
2 4 -19 24.6 3.1
-2 4 19 28.6 6.6
2 4 -19 24.2 4.1
1 -4 -19 132.59 8.5
-1 4 19 183.98 13.7
1 4 -19 139.39 7.4
1 4 -19 130.39 8.3
0 4 19 116.29 10.1
0 4 -19 117.69 6.5
0 4 -19 107.69 7.3
-1 -4 -19 8.8 3.1
1 4 19 10.8 4.6
-1 4 -19 13.4 3.4
-1 4 -19 13.6 2.8
2 4 19 16.5 5.3
-2 4 -19 27.5 4.9
-3 4 -19 53.29 4.7
4 4 19 36.1 9.2
-4 4 -19 45.2 4.5
5 4 19 8.3 6
-6 4 -19 -2.5 3.3
6 4 19 1 7.9
-7 4 -19 -3.1 2.3
8 -5 -19 23.3 5.2
8 5 -19 24 5.5
7 -5 -19 22.8 4.5
6 -5 -19 32.7 5.3
-6 5 19 29.8 7
6 5 -19 21.1 4.4
5 -5 -19 19.9 5.8
5 5 -19 24.5 6.7
-5 5 19 8.5 5.7
4 -5 -19 70.39 7.4
4 5 -19 55.39 6.6
4 5 -19 60.09 4.5
3 -5 -19 72.79 7
3 5 -19 74.99 5.2
-3 5 19 70.79 8.2
3 5 -19 84.39 8.4
2 -5 -19 109.79 7.5
2 5 -19 100.89 6.1
-2 5 19 82.19 8.8
1 -5 -19 24.1 4.4
1 5 -19 26.2 3.4
1 5 -19 11.1 3.4
-1 5 19 18.2 5.1
0 5 19 7.8 4.7
0 5 -19 9.8 3.1
0 5 -19 7.6 3.6
1 5 19 -4.4 4.5
-1 5 -19 1.1 3
-1 5 -19 -2.8 4.3
2 5 19 5.9 5
-2 5 -19 2.9 3
3 5 19 33.9 12.6
-3 5 -19 46.3 4.6
4 5 19 7.1 5.8
-5 5 -19 93.89 6.6
-6 5 -19 89.19 6
-7 5 -19 50.29 4.6
8 -6 -19 -8 5.4
8 6 -19 -4.4 4.1
7 -6 -19 3.4 4.4
7 6 -19 -5.3 4.4
6 -6 -19 -9.5 4.2
6 6 -19 -0.2 6.1
-6 6 19 4.2 7.5
5 -6 -19 -0.8 4
-5 6 19 -3.4 5.9
5 6 -19 1.5 3.7
4 -6 -19 1.3 3.9
4 6 -19 10.1 2.7
-4 6 19 10.1 5.6
4 6 -19 4.7 4.3
3 -6 -19 -0.5 3.5
3 6 -19 3.3 4.3
3 6 -19 -1.3 2.5
-3 6 19 4.3 5.5
2 -6 -19 11.7 4
2 6 -19 11.8 3.3
2 6 -19 9.4 3.6
-2 6 19 16.1 8.6
1 6 -19 4.3 3
1 6 -19 2.4 3.5
-1 6 19 4.2 5.9
0 6 -19 14.7 6
0 6 -19 15.1 3.5
0 6 19 10.7 8.3
1 6 19 68.89 14.4
-1 6 -19 80.39 6
2 6 19 13.5 5.8
-2 6 -19 34.2 4.2
-3 6 -19 35.3 4.6
3 6 19 29.8 7.2
4 6 19 13 10
-4 6 -19 15.4 3.7
5 6 19 3.2 8.8
-6 6 -19 3.7 3.1
7 7 -19 5.4 4.6
6 7 -19 2.1 4
-6 7 19 -2.2 9
5 7 -19 1.7 2.3
5 7 -19 -0.9 8.4
-5 7 19 1.6 6.6
4 7 -19 3.8 3.7
-4 7 19 -9.3 5.9
4 7 -19 -1.5 3.5
3 7 -19 1.1 2.8
-3 7 19 0.3 5.2
3 7 -19 0.4 3.6
2 7 -19 -6.1 3.6
-2 7 19 14.6 6.3
2 7 -19 -0.7 2.7
-1 7 19 -0.8 5.3
1 7 -19 -1.3 4
1 7 -19 5.2 3.2
0 7 19 -8.4 5.3
0 7 -19 0.6 3.3
-1 7 -19 1 3.3
1 7 19 -3.1 5.8
-2 7 -19 -1.8 3.5
2 7 19 -0.7 5.7
3 7 19 1.1 7.5
-3 7 -19 -0.5 4
-4 7 -19 5.5 3.8
4 7 19 3.2 8.5
-5 7 -19 5.5 3.4
5 8 -19 4 4.3
-5 8 19 -3.8 11.9
5 8 -19 3.8 2.4
4 8 -19 39.2 5.8
-4 8 19 22.9 7.5
4 8 -19 44.7 4.4
3 8 -19 15.9 4.7
-3 8 19 15.1 7.2
3 8 -19 26.5 3.5
2 8 -19 36.7 5.4
-2 8 19 26.1 8.1
-1 8 19 31 8
0 8 -19 34.8 7.5
1 8 19 45.7 9.1
-1 8 -19 27.4 4.4
-2 8 -19 33.6 4.4
2 8 19 18.1 7.2
-3 8 -19 20 3.7
3 8 19 0.4 7.9
-4 8 -19 19 4.3
-3 9 19 23.3 13.5
3 9 -19 20.8 7.4
3 9 -19 25.3 3.6
2 9 -19 11.8 3.7
-1 9 19 -2.4 10.5
1 9 -19 0.4 3.9
0 9 -19 2.1 3.6
0 9 19 -11.6 13.3
1 9 19 4.6 11.4
-1 9 -19 5.9 3.9
-2 9 -19 3.6 3.5
9 0 -20 -2.9 4.6
8 0 -20 -4.2 3.9
7 0 -20 17.5 5
6 0 -20 51.49 6.5
5 0 -20 110.89 7.9
-3 0 20 143.19 10.9
-2 0 20 129.69 10.2
1 0 -20 102.49 7.1
-1 0 20 101.69 9.3
0 0 20 94.39 9
0 0 -20 89.19 6.6
1 0 20 31.7 5.8
-1 0 -20 52.79 5
2 0 20 16.7 5.2
-2 0 -20 38.4 7.7
-3 0 -20 12.7 4.3
3 0 20 29.2 7.7
4 0 20 11 6
5 0 20 13.2 7.8
6 0 20 3.8 8.4
9 -1 -20 9.7 6
9 1 -20 4.1 5.2
8 -1 -20 8.6 5.1
8 1 -20 3.2 4.1
7 -1 -20 3.7 3.8
7 1 -20 4.3 4.3
-6 -1 20 1 12
6 -1 -20 3.4 3.7
6 1 -20 11.4 4.4
-6 1 20 11.4 6.8
5 -1 -20 30.5 4.9
-5 -1 20 10.4 6.3
-5 1 20 13 6.3
5 1 -20 27.4 4.9
4 -1 -20 23 7.8
-4 -1 20 23.4 6
4 1 -20 23.5 5.4
-4 1 20 13.3 5.6
-3 -1 20 4.7 4.5
3 -1 -20 0.9 2.9
3 1 -20 -0.3 2.8
-3 1 20 -2.3 4.2
2 -1 -20 7 3
-2 1 20 7 4.9
2 1 -20 4.6 3
1 -1 -20 7.2 3.4
1 1 -20 6.8 3
-1 1 20 8.5 4.4
0 -1 -20 -1.8 2.9
0 1 20 3.5 4.4
0 1 -20 1.2 2.6
-1 -1 -20 0 2.9
1 1 20 9.4 5.2
-1 1 -20 -0.1 3.5
-2 -1 -20 -0.2 4.9
2 1 20 -2.2 4.6
-2 1 -20 -0.5 3.7
-3 1 -20 6.6 5.4
4 1 20 3.5 6.2
5 -1 20 7.9 10.6
5 1 20 -5.2 7.1
6 -1 20 0 7.8
8 -2 -20 3.7 4.4
-8 -2 20 2.7 7.9
8 2 -20 7.9 4.6
-7 -2 20 1.9 7.4
7 -2 -20 -2.9 3.9
7 2 -20 1.7 4
6 -2 -20 1 3.9
6 2 -20 4.3 3.6
-6 2 20 -3.3 6.5
-5 -2 20 13.7 6.3
5 -2 -20 3.1 5.1
5 2 -20 23.5 5.3
-5 2 20 19.2 6.5
-4 -2 20 -1.3 5.5
4 -2 -20 -1.1 3
-4 2 20 8.5 6.3
4 2 -20 1.5 3.4
3 -2 -20 2.8 4.1
-3 2 20 -0.4 4.2
2 -2 -20 -1.6 3
2 2 -20 0.5 3.3
-2 2 20 0.1 4.2
1 -2 -20 6.9 3.3
1 2 -20 12.2 3.5
-1 2 20 6 4.4
0 -2 -20 7.8 3.5
0 2 -20 5.4 3.5
0 2 20 -0.5 4.1
-1 -2 -20 1.6 3
-1 2 -20 4.3 3.7
-1 2 -20 7.8 2.8
1 2 20 2.9 4.7
-2 -2 -20 1.9 3
2 2 20 5.7 4.9
-2 2 -20 0.4 4.5
-2 2 -20 3.7 3
3 2 20 1.1 6.1
-3 2 -20 -0.5 2.6
4 2 20 -3.5 6.1
5 2 20 1.4 8.6
8 -3 -20 17.8 5
8 3 -20 8.3 4.6
7 -3 -20 16.5 8.5
-7 -3 20 14.1 5.7
6 -3 -20 38.5 5.6
-6 -3 20 25.5 10
-6 3 20 14.6 7.9
6 3 -20 31.5 5.2
-5 -3 20 14.9 6.3
5 -3 -20 10.6 3.9
-5 3 20 38.1 7.4
4 -3 -20 -2 3.6
-4 3 20 14.9 6.6
4 3 -20 4.8 4.3
3 -3 -20 -0.3 3.2
3 3 -20 -1.9 2.9
-3 3 20 -0.1 6
2 -3 -20 4.5 4.4
-2 3 20 4.8 4.8
2 3 -20 13.3 4.5
1 3 -20 26.5 3.2
1 3 -20 16 5
-1 3 20 18.9 5.1
0 -3 -20 15.3 5.3
0 3 20 16.1 5.3
0 3 -20 27.8 3.5
0 3 -20 18 4.5
-1 -3 -20 30.7 4.3
1 3 20 31.5 5.8
2 3 20 7.4 7.1
-3 3 -20 70.49 5.4
3 3 20 55.89 7.8
4 3 20 1.6 5.7
-4 3 -20 9.6 3.2
5 3 20 -1.5 7.1
-5 3 -20 12.9 3
-8 -4 20 -0.6 7.2
8 -4 -20 -3.8 5.6
8 4 -20 4.1 4.5
7 -4 -20 -1.4 4.2
-7 -4 20 0.4 5.5
7 4 -20 3.5 4.8
6 -4 -20 25.1 5.1
6 4 -20 15.5 4.6
-6 4 20 11.1 7.4
5 -4 -20 19.5 4.4
5 4 -20 24.6 4.7
-5 4 20 29.7 7.4
4 -4 -20 24.6 5.2
4 4 -20 32.9 5.2
-4 4 20 34.4 7.2
3 -4 -20 22.1 6
3 4 -20 28 5.2
-3 4 20 38 6.9
2 -4 -20 45.9 5.7
2 4 -20 55.89 4.9
2 4 -20 63.39 7.9
1 -4 -20 93.79 7.3
1 4 -20 105.59 7.9
1 4 -20 102.99 6.4
-1 4 20 84.09 14.7
0 -4 -20 36.1 4.9
0 4 -20 28.6 3.8
0 4 -20 22.2 7.2
1 4 20 29.9 7.6
-1 4 -20 23.8 5
-1 4 -20 41.5 4.4
-2 4 -20 0.9 3
2 4 20 2.4 5.9
-3 4 -20 -0.5 3.2
3 4 20 2.1 6
-4 4 -20 5.1 4.9
4 4 20 -2.8 7.5
-5 4 -20 1.4 3
5 4 20 4 11
-6 4 -20 1.3 2.7
7 -5 -20 -1.9 4.9
7 5 -20 -1.3 4.1
6 -5 -20 -2.1 4
-6 5 20 -13.9 16
6 5 -20 3.3 4
5 -5 -20 -3.5 3.8
-5 5 20 -13.7 7.3
5 5 -20 0.6 4.1
4 -5 -20 0.4 3.6
4 5 -20 6.7 3.6
-4 5 20 -6.2 5.4
3 -5 -20 6.9 3.7
-3 5 20 15.6 6.5
3 5 -20 -1.3 3.5
3 5 -20 11.2 3.1
2 -5 -20 8.2 4.2
2 5 -20 1.5 2.9
2 5 -20 -4.2 3.4
-2 5 20 9.1 5.4
1 -5 -20 -3.9 3.7
-1 5 20 -3.8 5.4
1 5 -20 1.2 3.2
1 5 -20 0.4 3.6
0 5 -20 1.1 4
0 5 20 5 5.5
0 5 -20 6.1 3.1
1 5 20 -1 5.7
-1 5 -20 8.2 3.5
-2 5 -20 4 3.2
2 5 20 6.2 5.9
3 5 20 7.1 11.7
-3 5 -20 2 4.3
-4 5 -20 6.1 3.2
4 5 20 7.3 7.8
-5 5 -20 11.2 3.4
6 -6 -20 9.1 5.1
6 6 -20 4.4 4.2
5 -6 -20 10.4 4.9
5 6 -20 12.4 4.7
-5 6 20 -5.1 10.9
4 -6 -20 21.7 8.7
4 6 -20 7.5 4.4
-4 6 20 16 7.2
3 6 -20 56.39 6
3 6 -20 44 5.7
2 6 -20 36.7 6.6
2 6 -20 66.99 6.2
-2 6 20 54.99 8.5
1 6 -20 105.49 7
-1 6 20 102.99 10.6
0 6 -20 113.49 7.6
0 6 20 106.09 10.9
1 6 20 86.19 11.9
-1 6 -20 82.49 7.5
-2 6 -20 34 5.7
2 6 20 11.1 8
-3 6 -20 14.3 4.1
3 6 20 12.1 8
4 6 20 -14.3 9.2
-4 6 -20 -1.1 3.3
5 7 -20 8.1 5.1
4 7 -20 15.3 5
4 7 -20 18 3.1
3 7 -20 6.5 4.6
3 7 -20 5.3 3.1
-3 7 20 -0.8 7.2
-2 7 20 0.6 6.5
2 7 -20 11.5 5.1
2 7 -20 9.1 3.4
-1 7 20 -6.6 6.3
1 7 -20 -0.3 3.4
0 7 20 10.6 7.6
0 7 -20 16.7 3.7
-1 7 -20 16.7 3.8
1 7 20 8.1 7.5
2 7 20 43 16.2
-2 7 -20 45.8 4.8
-2 8 20 5.7 7.8
2 8 -20 11.6 3.6
-1 8 20 15.7 11.4
1 8 -20 27.2 4.1
0 8 -20 15.1 3.7
-1 8 -20 23.7 4
7 0 -21 -5 4
6 0 -21 -2.8 5.8
5 0 -21 -5.9 3.8
-5 0 21 -13 7.2
4 0 -21 -0.1 3.6
-4 0 21 2.5 6
-3 0 21 -1.4 5.5
3 0 -21 -1.8 3.2
2 0 -21 2.5 3.4
-2 0 21 -6.3 5.5
-1 0 21 -0.1 5.1
1 0 -21 2.1 3.4
0 0 21 5.7 5.7
0 0 -21 0.7 3.1
1 0 21 5.4 5.4
-1 0 -21 -1.9 3.4
-2 0 -21 0.9 4.1
2 0 21 -4.5 5.4
3 0 21 -10.1 7
4 0 21 -1.7 7.1
5 0 21 2.8 11
7 -1 -21 7.4 4.7
7 1 -21 6.6 4.5
6 -1 -21 -1.3 4.6
6 1 -21 4 4.5
-5 -1 21 0.8 7.7
5 -1 -21 3.4 4.1
5 1 -21 -5.9 3.6
-5 1 21 13.4 7.7
-4 -1 21 39.9 8.4
4 -1 -21 27.6 4.8
-4 1 21 26 7.3
4 1 -21 16.2 4.1
-3 -1 21 2.1 5.6
3 -1 -21 6.7 3.8
-3 1 21 1.8 5.3
3 1 -21 5.1 3.8
-2 -1 21 14.8 5.9
2 -1 -21 17 3.9
2 1 -21 25.8 4.5
-2 1 21 12.3 5.3
1 -1 -21 40.3 5.5
-1 -1 21 30.6 6.7
1 1 -21 42.9 5
-1 1 21 36.9 7.3
0 -1 -21 25.5 4.6
0 -1 21 16.4 5.9
0 1 -21 35.1 4.8
0 1 21 13.1 5.7
1 -1 21 42.7 8
-1 1 -21 41 5.3
1 1 21 37.6 7.7
-2 -1 -21 53.69 5.8
2 -1 21 46.4 8.5
2 1 21 39.1 7.8
4 -1 21 48.3 8.9
4 1 21 30.7 8.9
7 -2 -21 4.8 4.8
7 2 -21 13.5 5.4
6 -2 -21 8.4 4.8
6 2 -21 5.3 4.6
5 -2 -21 23.5 5.1
-5 -2 21 13.4 9.5
-5 2 21 10.7 7.3
5 2 -21 32.7 6.5
-4 -2 21 51.39 10.7
-4 2 21 52.29 11.3
3 -2 -21 52.89 6.1
-3 -2 21 31 6.8
3 2 -21 32.6 4.7
2 -2 -21 38.3 5
-2 2 21 34.2 6.8
2 2 -21 35.9 4.9
1 -2 -21 37.8 5.3
1 2 -21 23.1 4.1
-1 2 21 34.9 7.2
0 -2 -21 11 3.9
0 2 21 13.2 6.2
0 2 -21 3.2 3.7
-1 -2 -21 2.4 3.3
1 2 21 5.1 6.1
-1 2 -21 5.9 4.3
2 2 21 -6.9 6.3
3 2 21 -2.4 9.7
4 2 21 17.4 10
6 -3 -21 2.9 4.9
6 3 -21 -0.7 4.6
5 -3 -21 1.8 5
-5 3 21 9.8 9.4
5 3 -21 2.7 4.4
-4 -3 21 -7.8 6.8
4 -3 -21 4.2 4.4
4 3 -21 5.9 4.5
-4 3 21 6.2 7.4
3 -3 -21 1.3 3.7
-3 3 21 -5.3 7.4
3 3 -21 0.6 3.4
2 -3 -21 9.5 4.1
-2 3 21 4.9 6.2
2 3 -21 6.1 3.9
1 -3 -21 11.2 3.9
-1 3 21 16.3 6.7
1 3 -21 18.3 4.2
0 -3 -21 40.1 5.5
0 3 -21 36.8 5.4
0 3 21 41 7.6
1 3 21 4.3 6.2
3 3 21 0.1 7.3
4 3 21 8.6 9.8
6 -4 -21 2.7 5
6 4 -21 0.6 5
5 -4 -21 17.2 5.1
5 4 -21 9.2 4.8
-5 4 21 14.5 11.4
4 -4 -21 32.2 6.4
-4 4 21 20.5 8
4 4 -21 32.1 5.6
3 -4 -21 39.3 6.6
3 4 -21 39.9 5.9
-3 4 21 36.7 9.2
2 -4 -21 8.1 4.1
2 4 -21 -2.6 8.3
-2 4 21 3.6 7.3
1 -4 -21 25.3 4.9
-1 4 21 34.8 8.5
1 4 -21 33.5 9.2
0 4 21 3.6 7.3
0 4 -21 2.5 4.6
0 4 -21 5.7 3.4
1 4 21 15.6 7.9
-1 4 -21 11.3 4.6
2 4 21 11.6 7.1
-2 4 -21 5.5 3.4
3 4 21 4.6 9.2
-3 4 -21 -0.6 3.2
-4 4 -21 6.8 3.3
5 -5 -21 2.5 4.7
5 5 -21 -0.3 4.7
4 -5 -21 -0.1 4.7
4 5 -21 1.4 4.3
-4 5 21 -3.7 11.3
3 -5 -21 42.5 6.1
3 5 -21 17.9 4.7
-3 5 21 24.9 8.2
2 5 -21 65.99 6.8
-2 5 21 18.7 7.3
1 5 -21 63.99 8.5
-1 5 21 57.39 8.8
1 5 -21 65.19 5.9
0 5 21 93.49 12
0 5 -21 120.69 7.3
1 5 21 33.3 8
-2 5 -21 64.09 6
2 5 21 54.69 18.5
-3 5 -21 61.09 6
-3 6 21 4.2 9.5
3 6 -21 19.2 6.2
-2 6 21 0.2 9.1
2 6 -21 3.8 3.5
2 6 -21 -2 5.8
1 6 -21 2.7 3.7
-1 6 21 -2.3 9.3
0 6 -21 3.8 3.6
1 6 21 -7.1 9.3
-1 6 -21 1.1 3.9
5 0 -22 4.1 4.4
4 0 -22 6.3 4.1
-3 0 22 15.7 9.5
3 0 -22 7 4.2
2 0 -22 1.2 3.8
-2 0 22 -5.2 7.3
-1 0 22 0.8 6.5
1 0 -22 9 4.2
0 0 22 4.9 7.2
0 0 -22 6.5 4.4
-1 0 -22 -1.1 4.7
1 0 22 -1.3 6.5
2 0 22 6.7 11.4
5 -1 -22 0.9 4.3
5 1 -22 7.9 5.1
4 -1 -22 7.4 4.1
-4 -1 22 -0.9 9
4 1 -22 5.7 4.6
3 -1 -22 18 5.1
-3 -1 22 6.2 10.1
-3 1 22 14.5 13.2
3 1 -22 8.1 4.2
2 -1 -22 9.6 4.5
-2 -1 22 10.2 7.6
2 1 -22 -0.6 4
-2 1 22 -2.6 6.5
1 -1 -22 1.5 3.9
-1 -1 22 8.7 6.8
1 1 -22 3.6 3.9
-1 1 22 1 7.4
0 -1 -22 11.9 4.3
0 -1 22 19.7 7.4
0 1 22 26.8 7.7
0 1 -22 27.3 5.2
1 -1 22 18.5 7.6
-1 -1 -22 19.3 5.1
1 1 22 32.4 8.7
-1 1 -22 16.1 6.5
2 -1 22 -1.6 7.4
2 1 22 -1 14.2
4 -2 -22 -1.2 4.4
4 2 -22 0 4.4
-3 -2 22 -1.6 10.5
3 -2 -22 2.9 4.6
3 2 -22 -1.1 3.9
-3 2 22 -9.5 9.4
-2 -2 22 1.8 9.8
2 -2 -22 -2.3 4.1
2 2 -22 0.9 4
-2 2 22 13 8.3
-1 -2 22 0.5 7.1
1 -2 -22 4.1 4.1
-1 2 22 -0.1 6.9
1 2 -22 -1.6 4
0 -2 -22 -1.3 4.1
0 -2 22 7.9 7.7
0 2 -22 -6.2 4.9
0 2 22 -5.2 7.6
1 -2 22 4.8 11.5
1 2 22 2.6 11
2 -2 22 -2.6 11.5
2 2 22 10 12.9
4 -3 -22 23.2 5.6
4 3 -22 49.2 10.6
3 -3 -22 31.9 5.1
3 3 -22 39.6 5.5
2 -3 -22 103.89 8.5
2 3 -22 103.29 8.7
1 3 -22 90.59 7.7
-1 3 22 27.1 9.5
0 3 22 212.88 26.7
1 3 22 30.1 13.1
2 -4 -22 3.3 4.2
2 4 -22 1.7 5
-1 4 22 -10.6 9.3
