#------------------------------------------------------------------------------
#$Date: 2021-12-19 00:53:04 +0200 (Sun, 19 Dec 2021) $
#$Revision: 271515 $
#$URL: file:///home/coder/svn-repositories/cod/cif/7/12/94/7129420.cif $
#------------------------------------------------------------------------------
#
# This file is available in the Crystallography Open Database (COD),
# http://www.crystallography.net/
#
# All data on this site have been placed in the public domain by the
# contributors.
#
data_7129420
loop_
_publ_author_name
'Gimeno-Fonquernie, Pol'
'Liang, W.'
'Albalad, Jorge'
'Kuznicki, Andrew'
'Price, Jason'
'Bloch, Eric D.'
'Doonan, Christian J.'
'Sumby, Christopher J.'
_publ_section_title
;
 Templated synthesis of zirconium(IV)-based metal-organic layers (MOLs)
 with accessible chelating sites
;
_journal_name_full               'Chemical Communications'
_journal_paper_doi               10.1039/D1CC06443F
_journal_year                    2022
_chemical_formula_moiety
'C10 H6 N4 O9 Zr1.5, C7.25 H4.5 N3 O7 Zr1.5, 0.5(C3 H7 N O), C1.75 H1.5 N'
_chemical_formula_sum            'C21.5 H16.5 N8.5 O22.5 Zr3'
_chemical_formula_weight         1027.59
_chemical_name_common            UAM-1
_space_group_crystal_system      orthorhombic
_space_group_IT_number           38
_space_group_name_Hall           'A 2 -2'
_space_group_name_H-M_alt        'A m m 2'
_atom_sites_solution_hydrogens   geom
_atom_sites_solution_primary     dual
_audit_creation_date             2021-10-08
_audit_creation_method
;
Olex2 1.3
(compiled 2020.11.12 svn.r5f609507 for OlexSys, GUI svn.r6408)
;
_audit_update_record
;
2021-11-01 deposited with the CCDC.	2021-12-17 downloaded from the CCDC.
;
_cell_angle_alpha                90
_cell_angle_beta                 90
_cell_angle_gamma                90
_cell_formula_units_Z            8
_cell_length_a                   19.017(4)
_cell_length_b                   23.361(5)
_cell_length_c                   21.208(4)
_cell_measurement_reflns_used    106441
_cell_measurement_temperature    100(2)
_cell_measurement_theta_max      29.173
_cell_measurement_theta_min      1.038
_cell_volume                     9422(3)
_computing_cell_refinement       'AS QEGUI'
_computing_data_collection       'XDS (Kabsch, 2010)'
_computing_data_reduction        'XDS (Kabsch, 2010)'
_computing_molecular_graphics    'Olex2 1.3 (Dolomanov et al., 2009)'
_computing_publication_material  'Olex2 1.3 (Dolomanov et al., 2009)'
_computing_structure_refinement  'SHELXL 2018/3 (Sheldrick, 2015)'
_computing_structure_solution    'SHELXT 2018/2 (Sheldrick, 2018)'
_diffrn_ambient_temperature      100(2)
_diffrn_detector_area_resol_mean '13.3 (Dectris Eiger detectors)'
_diffrn_measured_fraction_theta_full 0.982
_diffrn_measured_fraction_theta_max 0.895
_diffrn_measurement_device_type
;
N. P. Cowieson, D. Aragao, M. Clift, D. J. Ericsson, C. Gee, 
S. J. Harrop, N. Mudie, S. Panjikar, J. R. Price, A. Riboldi-
Tunnicliffe, R. Williamson and T. Caradoc-Davies, MX1: a 
bending-magnet crystallography beamline serving both chemical 
and macromolecular crystallography communities at the 
Australian Synchrotron, J. Synchrotron Rad. (2015). 22, 187-190.
;
_diffrn_measurement_method       'Omega Scan'
_diffrn_radiation_monochromator  'Silicon Double Crystal'
_diffrn_radiation_source         'MX1 Beamline Australian Synchrotron'
_diffrn_radiation_type           Synchrotron
_diffrn_radiation_wavelength     0.6888
_diffrn_reflns_av_R_equivalents  0.0619
_diffrn_reflns_av_unetI/netI     0.0418
_diffrn_reflns_Laue_measured_fraction_full 0.982
_diffrn_reflns_Laue_measured_fraction_max 0.895
_diffrn_reflns_limit_h_max       23
_diffrn_reflns_limit_h_min       -23
_diffrn_reflns_limit_k_max       30
_diffrn_reflns_limit_k_min       -28
_diffrn_reflns_limit_l_max       29
_diffrn_reflns_limit_l_min       -28
_diffrn_reflns_number            106441
_diffrn_reflns_point_group_measured_fraction_full 0.973
_diffrn_reflns_point_group_measured_fraction_max 0.868
_diffrn_reflns_theta_full        27.000
_diffrn_reflns_theta_max         29.173
_diffrn_reflns_theta_min         1.038
_exptl_absorpt_coefficient_mu    3.828
_exptl_absorpt_correction_type   multi-scan
_exptl_absorpt_process_details   'XDS (Kabsch, 2010)'
_exptl_crystal_colour            'clear colourless'
_exptl_crystal_colour_lustre     clear
_exptl_crystal_colour_primary    colourless
_exptl_crystal_density_diffrn    1.449
_exptl_crystal_description       block
_exptl_crystal_F_000             4040
_exptl_crystal_size_max          0.02
_exptl_crystal_size_mid          0.02
_exptl_crystal_size_min          0.02
_refine_diff_density_max         1.338
_refine_diff_density_min         -1.304
_refine_diff_density_rms         0.160
_refine_ls_abs_structure_details
;
 Refined as an inversion twin.
;
_refine_ls_abs_structure_Flack   0.508(12)
_refine_ls_extinction_method     none
_refine_ls_goodness_of_fit_ref   1.183
_refine_ls_hydrogen_treatment    constr
_refine_ls_matrix_type           full
_refine_ls_number_parameters     601
_refine_ls_number_reflns         12746
_refine_ls_number_restraints     442
_refine_ls_restrained_S_all      1.169
_refine_ls_R_factor_all          0.1005
_refine_ls_R_factor_gt           0.0855
_refine_ls_shift/su_max          0.001
_refine_ls_shift/su_mean         0.000
_refine_ls_structure_factor_coef Fsqd
_refine_ls_weighting_details
'w=1/[\s^2^(Fo^2^)+(0.2000P)^2^] where P=(Fo^2^+2Fc^2^)/3'
_refine_ls_weighting_scheme      calc
_refine_ls_wR_factor_gt          0.2614
_refine_ls_wR_factor_ref         0.2837
_reflns_Friedel_coverage         0.893
_reflns_Friedel_fraction_full    0.963
_reflns_Friedel_fraction_max     0.841
_reflns_number_gt                10168
_reflns_number_total             12746
_reflns_threshold_expression     'I > 2\s(I)'
_cod_data_source_file            d1cc06443f2.cif
_cod_data_source_block           test
_cod_depositor_comments
;
The following automatic conversions were performed:

data item '_exptl_absorpt_correction_type' value 'Multi-Scan' was
changed to 'multi-scan' in accordance with the
/home/data/users/saulius/crontab/automatic-downloads/rss-feeds/RSC/lib/dictionaries/cif_core.dic
dictionary named 'cif_core.dic' version 2.4.2 last updated on
2011-04-26.

Automatic conversion script
Id: cif_fix_values 7556 2019-12-06 15:28:31Z antanas 
;
_cod_original_formula_sum        'C21.50 H16.50 N8.50 O22.50 Zr3'
_cod_database_code               7129420
_shelx_shelxl_version_number     2018/3
_shelx_space_group_comment
;
The symmetry employed for this shelxl refinement is uniquely defined
by the following loop, which should always be used as a source of
symmetry information in preference to the above space-group names.
They are only intended as comments.
;
_diffrn_measurement_detector_type 'Dectris Eiger2 9M'
_olex2_refinement_description
;
1. Twinned data refinement
 Scales: 0.492
 0.508
2. Fixed Uiso
 At 1.2 times of:
  All C(H) groups, All C(H,H) groups
 At 1.5 times of:
  All C(H,H,H) groups
3. Shared sites
{C74A, C74B}
{C50, C50A}
4. Restrained distances
 C44-C46
 1.42 with sigma of 0.02
 C54-C56
 1.42 with sigma of 0.02
 C44A-C46A_$1
 1.5 with sigma of 0.02
 C56A-O57A
 1.3 with sigma of 0.02
 C56A-O58A
 1.3 with sigma of 0.02
 O57-C56
 1.28 with sigma of 0.02
 O58-C56
 1.28 with sigma of 0.02
 O47-C46
 1.28 with sigma of 0.02
 O48-C46
 1.28 with sigma of 0.02
5. Uiso/Uaniso restraints and constraints
C31 \\sim N41 \\sim N42 \\sim C43 \\sim C44 \\sim C45 \\sim C46 \\sim O47 \\sim
O48: within 2A with sigma of 0.04 and sigma for terminal atoms of 0.08 within 2A
C31A \\sim N41A \\sim N42A \\sim C43A \\sim C44A \\sim C45A \\sim C46A \\sim
O47A \\sim O48A: within 2A with sigma of 0.04 and sigma for terminal atoms of
0.08 within 2A
N51A \\sim N52A \\sim C53A \\sim C54A \\sim C55A \\sim C56A \\sim O57A \\sim
O58A: within 2A with sigma of 0.04 and sigma for terminal atoms of 0.08 within
2A
N51 \\sim N52 \\sim C53 \\sim C54 \\sim C55 \\sim C56 \\sim O57 \\sim O58:
within 2A with sigma of 0.04 and sigma for terminal atoms of 0.08 within 2A
Zr4 \\sim Zr5 \\sim Zr6 \\sim O14: within 2A with sigma of 0.04 and sigma for
terminal atoms of 0.08 within 2A
Uanis(C50) = Uanis(C50A)
Uanis(C56A) = Uanis(O57A) = Uanis(O58A)
Uanis(C31) = Uanis(C31A)
Uanis(C74A) = Uanis(C74B)
6. Rigid body (RIGU) restrains
 C31, N41, N42, C43, C44, C45, C46, O47, O48
 with sigma for 1-2 distances of 0.004 and sigma for 1-3 distances of 0.004
 C31A, N41A, N42A, C43A, C44A, C45A, C46A, O47A, O48A
 with sigma for 1-2 distances of 0.004 and sigma for 1-3 distances of 0.004
 N51A, N52A, C53A, C54A, C55A, C56A, O57A, O58A
 with sigma for 1-2 distances of 0.004 and sigma for 1-3 distances of 0.004
 N51, N52, C53, C54, C55, C56, O57, O58
 with sigma for 1-2 distances of 0.004 and sigma for 1-3 distances of 0.004
 Zr4, Zr5, Zr6, O14
 with sigma for 1-2 distances of 0.004 and sigma for 1-3 distances of 0.004
7. Others
 Sof(C74B)=Sof(O75B)=1-FVAR(1)
 Sof(C74A)=Sof(O75A)=FVAR(1)
 Fixed Sof: N51(0.5) N52(0.5) C53(0.5) H53(0.5) C54(0.5) C55(0.5) H55(0.5)
 Zr4(0.5) Zr5(0.25) Zr6(0.25) Zr7(0.5) O9(0.5) O10(0.25) O11(0.25) O12(0.25)
 O13(0.25) O14(0.5) O57A(0.5) O47A(0.5) O58A(0.5) O48A(0.5) C31(0.25)
 H31A(0.25) H31B(0.25) N42(0.5) N41(0.5) C45(0.5) H45(0.5) C44(0.5) C43(0.5)
 H43(0.5) C46(0.5) O47(0.5) O48(0.5) C50(0.25) H50A(0.25) H50B(0.25) C56(0.5)
 O57(0.5) O58(0.5) H65B(0.5) H65C(0.5) O77(0.5) O81(0.5) C56A(0.5) N51A(0.5)
 C55A(0.5) H55A(0.5) C54A(0.5) C53A(0.5) H53A(0.5) N52A(0.5) C50A(0.25)
 H50C(0.25) H50D(0.25) N41A(0.5) N42A(0.5) C43A(0.5) H43A(0.5) C44A(0.5)
 C45A(0.5) H45A(0.5) C46A(0.5) C31A(0.25) H31C(0.25) H31D(0.25) H64B(0.5)
 H64C(0.5)
8.a Secondary CH2 refined with riding coordinates:
 C1(H1A,H1B), C31(H31A,H31B), C50(H50A,H50B), C50A(H50C,H50D), C31A(H31C,H31D)
8.b Me refined with riding coordinates:
 C65(H65A,H65B,H65C), C64(H64A,H64B,H64C)
8.c Aromatic/amide H refined with riding coordinates:
 C53(H53), C55(H55), C13(H13), C15(H15), C23(H23), C25(H25), C45(H45),
 C43(H43), C62(H62), C55A(H55A), C53A(H53A), C43A(H43A), C45A(H45A)
8.d Fitted pentagon refined as free rotating group:
 N51(N52,C53,C54,C55), N42(N41,C45,C44,C43), N51A(C55A,C54A,C53A,N52A),
 N41A(N42A,C43A,C44A,C45A)
;
_smtbx_masks_special_details
;
A solvent mask was calculated and 498 electrons were 
found in a volume of 3022\%A^3^ in 1 void per unit cell. 
This is consistent with the presence of 
1.5[C3H7NO] per Asymmetric Unit 
which account for 480 electrons 
per unit cell.
;
_smtbx_masks_void_probe_radius   1.2
_smtbx_masks_void_truncation_radius 1.2
_shelx_res_file
;
TITL c222_a.res in Amm2
    test.res
    created by SHELXL-2018/3 at 17:53:32 on 07-Oct-2021
CELL 0.6888 19.017 23.361 21.208 90 90 90
ZERR 8 0.0038 0.0047 0.0042 0 0 0
LATT -5
SYMM -X,-Y,+Z
SYMM -X,+Y,+Z
SYMM +X,-Y,+Z
SFAC C H N O Zr
DISP C 0.0032 0.0016 10.6336
DISP H 0 0 0.6228
DISP N 0.0061 0.0032 18.0197
DISP O 0.0106 0.0058 29.5845
DISP Zr -5.2998 3.662 14677.1194
UNIT 172 132 68 180 24
EQIV $1 +X,0.5-Y,0.5+Z
SIMU C31 N41 N42 C43 C44 C45 C46 O47 O48
RIGU C31 N41 N42 C43 C44 C45 C46 O47 O48
EADP C50 C50A
SIMU C31A N41A N42A C43A C44A C45A C46A O47A O48A
RIGU C31A N41A N42A C43A C44A C45A C46A O47A O48A
SIMU N51A N52A C53A C54A C55A C56A O57A O58A
DFIX 1.42 C44 C46
EADP C56A O57A O58A
DFIX 1.42 C54 C56
EADP C31 C31A
DFIX 1.5 C44A C46A_$1
RIGU N51A N52A C53A C54A C55A C56A O57A O58A
SIMU N51 N52 C53 C54 C55 C56 O57 O58
RIGU N51 N52 C53 C54 C55 C56 O57 O58
DFIX 1.3 C56A O57A
DFIX 1.3 C56A O58A
DFIX 1.28 O57 C56
DFIX 1.28 O58 C56
SIMU Zr4 Zr5 Zr6 O14
RIGU Zr4 Zr5 Zr6 O14
EADP C74A C74B
DFIX 1.28 O47 C46
DFIX 1.28 O48 C46
EXYZ C74A C74B
EXYZ C50 C50A

L.S. 30
PLAN  60 0 0
TEMP -173
CONF
CONN 2 C45A
CONN 2 C44A
CONN 2 N42A
CONN 2 C43A
BOND $H
LIST 6 1
MORE -1
fmap 2 1 53
acta 54
ABIN
TWIN -1 0 0 0 -1 0 0 0 -1 2
REM <olex2.extras>
REM <HklSrc "%.\\c222_a.hkl">
REM </olex2.extras>

WGHT    0.200000
BASF   0.50770
FVAR       0.11093   0.68749
ZR1   5    0.407381    0.424714    0.527378    11.00000    0.04513    0.02993 =
         0.04229   -0.00014   -0.00165   -0.00239
O1    4    0.392546    0.500000    0.462259    10.50000    0.04077    0.02140 =
         0.03090    0.00000    0.00429    0.00000
C1    1    0.246356    0.251567    0.275679    11.00000    0.05175    0.03547 =
         0.08548   -0.02820   -0.00889    0.00954
AFIX  23
H1A   2    0.214081    0.257960    0.239736    11.00000   -1.20000
H1B   2    0.217244    0.244077    0.313488    11.00000   -1.20000
AFIX  56

PART 1
N51   3    0.215258    0.448813    0.716722    10.50000    0.05714    0.03562 =
         0.04353    0.01030   -0.02782    0.01687
N52   3    0.184239    0.418452    0.767624    10.50000    0.05242    0.05189 =
         0.06034    0.00082   -0.01017    0.01531
C53   1    0.140120    0.375288    0.741984    10.50000    0.06817    0.03329 =
         0.05433    0.02075   -0.01389    0.01574
AFIX  43
H53   2    0.112876    0.348627    0.765379    10.50000   -1.20000
AFIX  55
C54   1    0.143873    0.378972    0.675236    10.50000    0.06051    0.02137 =
         0.04668    0.01498   -0.00870   -0.00078
C55   1    0.190310    0.424413    0.659624    10.50000    0.04333    0.04228 =
         0.04191    0.00535   -0.00844   -0.00105
AFIX  43
H55   2    0.202541    0.436387    0.618244    10.50000   -1.20000
AFIX   0

PART 0
ZR2   5    0.500000    0.500000    0.411473    10.25000    0.04549    0.03578 =
         0.03633    0.00000    0.00000    0.00000
O2    4    0.500000    0.436598    0.477319    10.50000    0.05184    0.01777 =
         0.02693   -0.01258    0.00000    0.00000
ZR3   5    0.500000    0.500000    0.643596    10.25000    0.04458    0.02693 =
         0.04085    0.00000    0.00000    0.00000
O3    4    0.420499    0.500000    0.576010    10.50000    0.03578    0.02018 =
         0.04624    0.00000   -0.00062    0.00000

ZR4   5    0.092820    0.163617    0.486968    10.50000    0.07432    0.05325 =
         0.05608    0.00011    0.00096    0.00238
O4    4    0.500000    0.415480    0.591319    10.50000    0.04239    0.04033 =
         0.02794    0.00056    0.00000    0.00000
ZR5   5    0.000000    0.242520    0.601061    10.25000    0.05950    0.04133 =
         0.06142   -0.00204    0.00000    0.00000
ZR6   5    0.000000    0.237186    0.367951    10.25000    0.06347    0.04869 =
         0.05687    0.00146    0.00000    0.00000
ZR7   5    0.092166    0.314471    0.481294    10.50000    0.05722    0.04794 =
         0.05572   -0.00195   -0.00115    0.00106
O9    4    0.082557    0.238033    0.431081    10.50000    0.05972    0.03120 =
         0.02523    0.00087    0.01496   -0.00368
O10   4    0.000000    0.149013    0.419205    10.25000    0.03501    0.01800 =
         0.04093    0.01062    0.00000    0.00000
O11   4    0.000000    0.321497    0.413488    10.25000    0.03833    0.03188 =
         0.03562   -0.00485    0.00000    0.00000
N11   3    0.286027    0.301932    0.285813    11.00000    0.04828    0.04663 =
         0.04467   -0.01669   -0.01291    0.00959
O12   4    0.000000    0.305279    0.532204    10.25000    0.02655    0.05779 =
         0.04456    0.01619    0.00000    0.00000
N12   3    0.317114    0.327200    0.235227    11.00000    0.04653    0.05891 =
         0.06448   -0.03829   -0.01018   -0.00616
O13   4    0.000000    0.171521    0.539110    10.25000    0.02477    0.12514 =
         0.12284   -0.08957    0.00000    0.00000
C13   1    0.355270    0.370466    0.261601    11.00000    0.05663    0.04950 =
         0.04024   -0.02283   -0.00609   -0.00182
AFIX  43
H13   2    0.379629    0.399279    0.238750    11.00000   -1.20000
AFIX   0

O14   4    0.106343    0.239159    0.545048    10.50000    0.06440    0.03244 =
         0.04215   -0.00658   -0.01106    0.00603
C14   1    0.353148    0.366051    0.327009    11.00000    0.03582    0.02273 =
         0.03677   -0.00843    0.00248    0.00366
C15   1    0.307607    0.320825    0.343221    11.00000    0.03851    0.02108 =
         0.05541   -0.01396   -0.00711    0.00448
AFIX  43
H15   2    0.295175    0.307067    0.383873    11.00000   -1.20000
AFIX   0
C16   1    0.390064    0.403678    0.373434    11.00000    0.02856    0.02956 =
         0.03242   -0.00346    0.00249    0.00691
O17   4    0.378904    0.387504    0.432236    11.00000    0.04287    0.03440 =
         0.03183   -0.00863   -0.00540    0.00578
O18   4    0.429273    0.441653    0.355541    11.00000    0.02675    0.03759 =
         0.04330   -0.00716    0.00798   -0.00430

O57A  4    0.071529    0.182588    0.316133    10.50000    0.05124    0.03921 =
         0.06158   -0.00388   -0.00392    0.00691
N21   3    0.289522    0.200674    0.262567    11.00000    0.04140    0.03351 =
         0.04994   -0.02125   -0.00883    0.01368
PART 2
O47A  4    0.132299    0.340745    0.388365    10.50000    0.05037    0.05647 =
         0.05048    0.00611   -0.00471   -0.00755

PART 0
N22   3    0.319146    0.171717    0.314082    11.00000    0.04285    0.04814 =
         0.02132   -0.00209   -0.00722   -0.00241

O58A  4    0.138332    0.139289    0.388285    10.50000    0.05124    0.03921 =
         0.06158   -0.00388   -0.00392    0.00691
C23   1    0.355445    0.133775    0.289209    11.00000    0.04762    0.02851 =
         0.01799    0.00089   -0.00103    0.00099
AFIX  43
H23   2    0.385438    0.109354    0.312865    11.00000   -1.20000
AFIX   0
C24   1    0.348730    0.129681    0.222905    11.00000    0.04192    0.03136 =
         0.01918   -0.00625    0.00113    0.00712

PART 2
O48A  4    0.069457    0.294485    0.311062    10.50000    0.05520    0.04926 =
         0.04038   -0.00941    0.01462   -0.00044

PART 0
C25   1    0.305971    0.174384    0.208981    11.00000    0.05057    0.04275 =
         0.04501   -0.00200   -0.02188    0.00099
AFIX  43
H25   2    0.290471    0.185051    0.168050    11.00000   -1.20000
AFIX   0
C26   1    0.383071    0.095095    0.175323    11.00000    0.03737    0.02492 =
         0.03825   -0.00097    0.00539    0.00481
O27   4    0.427004    0.057849    0.195454    11.00000    0.04444    0.02054 =
         0.02675    0.00266    0.00011   -0.00254
O28   4    0.363706    0.100370    0.120589    11.00000    0.04697    0.02038 =
         0.03157   -0.00555   -0.00446    0.00254

PART 1
C31   1    0.259255    0.000000    0.746362    10.25000    0.03688    0.06360 =
         0.04187    0.00000   -0.00121    0.00000
AFIX  23
H31A  2    0.271759    0.000000    0.791676    10.25000   -1.20000
H31B  2    0.302693    0.000001    0.720634    10.25000   -1.20000
AFIX  56
N42   3    0.189708    0.078630    0.782143    10.50000    0.03844    0.02993 =
         0.05649    0.02402   -0.00315   -0.01361
N41   3    0.215432    0.045428    0.731020    10.50000    0.06657    0.05290 =
         0.05474    0.01085   -0.00892    0.00709
C45   1    0.186705    0.068058    0.674467    10.50000    0.07108    0.01705 =
         0.06044   -0.00135   -0.00710    0.01809
AFIX  43
H45   2    0.195100    0.054082    0.633080    10.50000   -1.20000
AFIX  55
C44   1    0.143228    0.115245    0.690638    10.50000    0.05857    0.01398 =
         0.05470   -0.00139   -0.00231    0.00648
C43   1    0.145083    0.121779    0.757186    10.50000    0.05196    0.04948 =
         0.03829    0.01802    0.01195    0.00683
AFIX  43
H43   2    0.120743    0.150053    0.780854    10.50000   -1.20000
AFIX   0
C46   1    0.103181    0.142195    0.638728    10.50000    0.09075    0.03028 =
         0.06019   -0.00536   -0.02358    0.01582
O47   4    0.065665    0.185883    0.656743    10.50000    0.07028    0.02344 =
         0.09427   -0.00146   -0.02225    0.00870
O48   4    0.116973    0.130789    0.582432    10.50000    0.08424    0.03070 =
         0.06070    0.00964   -0.02155    0.01859
C50   1    0.258161    0.500000    0.723900    10.25000    0.04456    0.05637 =
         0.07566    0.00000    0.00854    0.00000
AFIX  23
H50A  2    0.295932    0.500000    0.691776    10.25000   -1.20000
H50B  2    0.280475    0.499999    0.766074    10.25000   -1.20000
AFIX   0
C56   1    0.105841    0.344707    0.628227    10.50000    0.08161    0.03594 =
         0.04582    0.01134   -0.01662   -0.00795
PART 0
O57   4    0.112207    0.355641    0.569086    10.50000    0.07711    0.01352 =
         0.04741   -0.00217   -0.01185   -0.00675
O58   4    0.070701    0.301454    0.651026    10.50000    0.10277    0.02822 =
         0.03997   -0.00479   -0.02371   -0.01253

O61   4    0.500000    0.316288    0.663146    10.50000    0.03744
C62   1    0.500000    0.314273    0.720660    10.50000    0.04113
AFIX  43
H62   2    0.500000    0.349545    0.742954    10.50000   -1.20000
AFIX   0
N63   3    0.500000    0.264607    0.755531    10.50000    0.04467
C65   1    0.500000    0.210943    0.713424    10.50000    0.05946
PART -1
AFIX  33
H65A  2    0.500000    0.176606    0.739972    10.50000   -1.50000
H65B  2    0.457924    0.211027    0.686745    10.50000   -1.50000
H65C  2    0.542076    0.211027    0.686745    10.50000   -1.50000
AFIX   0

PART 0
O71   4    0.422259    0.330724    0.530020    11.00000    0.10936    0.01906 =
         0.04402    0.00129    0.00159    0.01214
O73   4    0.292493    0.428458    0.518877    11.00000    0.03831    0.03639 =
         0.02816    0.00254   -0.00546   -0.00115
C74A  1    0.249647    0.436540    0.475786    21.00000    0.05279    0.05855 =
         0.04148    0.01368   -0.00575    0.01315
PART 1
O75A  4    0.266360    0.467975    0.424496    21.00000    0.07020    0.05029 =
         0.03305    0.00563   -0.00445   -0.02047
PART 2
C74B  1    0.249647    0.436540    0.475786   -21.00000    0.05279    0.05855 =
         0.04148    0.01368   -0.00575    0.01315

PART 0
O77   4    0.057962    0.408266    0.478943    10.50000    0.06345    0.02598 =
         0.08103   -0.01466   -0.03485   -0.00556
O81   4    0.207963    0.305901    0.484159    10.50000    0.04295    0.03852 =
         0.05085    0.00216   -0.00291   -0.01328

PART 2
O75B  4    0.173816    0.437194    0.489603   -21.00000    0.03131    0.04982 =
         0.06413   -0.02502    0.01037   -0.00041

C56A  1    0.120112    0.147484    0.333761    10.50000    0.05124    0.03921 =
         0.06158   -0.00388   -0.00392    0.00691
AFIX  56
N51A  3    0.219205    0.043635    0.239567    10.50000    0.05033    0.05707 =
         0.04312   -0.02081    0.00755   -0.00707
C55A  1    0.199771    0.068152    0.298305    10.50000    0.04229    0.05345 =
         0.03769   -0.02659   -0.00202   -0.00920
AFIX  43
H55A  2    0.217300    0.057259    0.338498    10.50000   -1.20000
AFIX  55
C54A  1    0.149538    0.111811    0.286416    10.50000    0.03952    0.04226 =
         0.06977   -0.00905    0.00985   -0.01255
C53A  1    0.137925    0.114277    0.220330    10.50000    0.05446    0.04093 =
         0.06975   -0.01450    0.02024   -0.00281
AFIX  43
H53A  2    0.106813    0.139659    0.199199    10.50000   -1.20000
AFIX  55
N52A  3    0.180982    0.072142    0.191376    10.50000    0.07546    0.03830 =
         0.05482   -0.01140    0.01934    0.00753
AFIX   0

C50A  1    0.258161    0.500000    0.723900    10.25000    0.04456    0.05637 =
         0.07566    0.00000    0.00854    0.00000
AFIX  23
H50C  2    0.268350    0.500000    0.678122    10.25000   -1.20000
H50D  2    0.303063    0.500000    0.747521    10.25000   -1.20000
AFIX  56

N41A  3    0.213655    0.049968    0.748489    10.50000    0.03117    0.05339 =
         0.08949    0.00071    0.02420   -0.00832
N42A  3    0.186199    0.081005    0.696448    10.50000    0.06728    0.06553 =
         0.07461   -0.03005    0.00427    0.01305
C43A  1    0.145025    0.126801    0.720433    10.50000    0.06973    0.06894 =
         0.06268   -0.02953   -0.01649    0.02333
AFIX  43
H43A  2    0.120449    0.154418    0.696031    10.50000   -1.20000
AFIX  55
C44A  1    0.147034    0.124068    0.787297    10.50000    0.04430    0.03874 =
         0.05565   -0.00058    0.00271   -0.01567
C45A  1    0.189450    0.076583    0.804636    10.50000    0.06354    0.03387 =
         0.06550    0.01052    0.01536   -0.00656
AFIX  43
H45A  2    0.199814    0.064705    0.846458    10.50000   -1.20000
AFIX   0

C46A  1    0.114424    0.332024    0.334148    10.50000    0.04910    0.03304 =
         0.04739   -0.00037   -0.00224    0.00966
C31A  1    0.249975    0.000000    0.742578    10.25000    0.03688    0.06360 =
         0.04187    0.00000   -0.00121    0.00000
AFIX  23
H31C  2    0.287870    0.000001    0.774585    10.25000   -1.20000
H31D  2    0.272907    0.000000    0.700670    10.25000   -1.20000
AFIX   0

PART 0
C64   1    0.500000    0.274287    0.824986    10.50000    0.09732
AFIX  33
H64A  2    0.500000    0.237316    0.846821    10.50000   -1.50000
H64B  2    0.542076    0.295955    0.836905    10.50000   -1.50000
H64C  2    0.457924    0.295955    0.836905    10.50000   -1.50000
AFIX   0
HKLF 4




REM  c222_a.res in Amm2
REM wR2 = 0.2837, GooF = S = 1.183, Restrained GooF = 1.169 for all data
REM R1 = 0.0855 for 10168 Fo > 4sig(Fo) and 0.1005 for all 12746 data
REM 601 parameters refined using 442 restraints

END

WGHT      0.2000      0.0000

REM Highest difference peak  1.338,  deepest hole -1.304,  1-sigma level  0.160
Q1    1   0.5000  0.5000  0.7126  10.25000  0.05    1.34
Q2    1   0.5000  0.5000  0.5989  10.25000  0.05    1.29
Q3    1   0.5000  0.3050  0.5298  10.50000  0.05    1.29
Q4    1   0.0000  0.4336  0.4800  10.50000  0.05    1.23
Q5    1   0.2432  0.2975  0.5276  11.00000  0.05    1.21
Q6    1   0.0000  0.2368  0.4146  10.50000  0.05    1.13
Q7    1   0.0000  0.2384  0.6438  10.50000  0.05    1.13
Q8    1   0.4091  0.4228  0.4818  11.00000  0.05    1.12
Q9    1   0.5000  0.5000  0.3615  10.25000  0.05    1.01
Q10   1   0.0000  0.2811  0.6886  10.50000  0.05    1.01
Q11   1   0.5000  0.5000  0.3954  10.25000  0.05    0.86
Q12   1   0.0979  0.1600  0.5326  11.00000  0.05    0.80
Q13   1   0.0942  0.2064  0.5791  11.00000  0.05    0.79
Q14   1   0.5000  0.2566  0.8181  10.50000  0.05    0.74
Q15   1   0.1962  0.1625  0.4991  11.00000  0.05    0.73
Q16   1   0.5000  0.5000  0.4638  10.25000  0.05    0.72
Q17   1   0.0000  0.2884  0.4601  10.50000  0.05    0.72
Q18   1   0.0000  0.3027  0.4742  10.50000  0.05    0.69
Q19   1   0.4045  0.0824  0.0917  11.00000  0.05    0.67
Q20   1   0.0000  0.2389  0.2989  10.50000  0.05    0.66
Q21   1   0.4011  0.2868  0.5613  11.00000  0.05    0.66
Q22   1   0.4013  0.2940  0.4965  11.00000  0.05    0.64
Q23   1   0.0000  0.1783  0.4757  10.50000  0.05    0.63
Q24   1   0.0953  0.0773  0.4865  11.00000  0.05    0.60
Q25   1   0.3738  0.1123  0.2013  11.00000  0.05    0.60
Q26   1   0.0000  0.1984  0.6707  10.50000  0.05    0.60
Q27   1   0.4382  0.3238  0.5255  11.00000  0.05    0.60
Q28   1   0.0000  0.1531  0.3618  10.50000  0.05    0.59
Q29   1   0.0000  0.3582  0.4087  10.50000  0.05    0.57
Q30   1   0.0000  0.1448  0.5999  10.50000  0.05    0.57
Q31   1   0.0000  0.0000  0.6998  10.25000  0.05    0.57
Q32   1   0.2421  0.4255  0.5302  11.00000  0.05    0.56
Q33   1   0.1850  0.2841  0.4623  11.00000  0.05    0.56
Q34   1   0.0000  0.3244  0.2778  10.50000  0.05    0.55
Q35   1   0.0000  0.2870  0.5869  10.50000  0.05    0.54
Q36   1   0.3783  0.3825  0.3582  11.00000  0.05    0.54
Q37   1   0.5000  0.2473  0.7395  10.50000  0.05    0.54
Q38   1   0.4045  0.5000  0.4441  10.50000  0.05    0.52
Q39   1   0.2143  0.0620  0.7913  11.00000  0.05    0.51
Q40   1   0.0000  0.0000  0.7752  10.25000  0.05    0.51
Q41   1   0.0000  0.0492  0.4775  10.50000  0.05    0.51
Q42   1   0.2014  0.0580  0.2605  11.00000  0.05    0.51
Q43   1   0.0952  0.3137  0.5317  11.00000  0.05    0.51
Q44   1   0.1339  0.4422  0.4364  11.00000  0.05    0.50
Q45   1   0.2319  0.2771  0.4640  11.00000  0.05    0.50
Q46   1   0.0000  0.3368  0.5998  10.50000  0.05    0.50
Q47   1   0.2074  0.2954  0.4986  11.00000  0.05    0.49
Q48   1   0.4152  0.5000  0.6028  10.50000  0.05    0.48
Q49   1   0.0000  0.3633  0.6524  10.50000  0.05    0.48
Q50   1   0.0000  0.3101  0.3546  10.50000  0.05    0.47
Q51   1   0.1838  0.2803  0.5807  11.00000  0.05    0.47
Q52   1   0.0000  0.1430  0.6966  10.50000  0.05    0.46
Q53   1   0.0000  0.2270  0.5315  10.50000  0.05    0.45
Q54   1   0.4086  0.3322  0.5197  11.00000  0.05    0.45
Q55   1   0.3867  0.5000  0.6413  10.50000  0.05    0.45
Q56   1   0.1506  0.4566  0.5426  11.00000  0.05    0.44
Q57   1   0.0759  0.2410  0.3963  11.00000  0.05    0.44
Q58   1   0.1645  0.2816  0.6200  11.00000  0.05    0.42
Q59   1   0.0000  0.1779  0.2923  10.50000  0.05    0.42
Q60   1   0.1822  0.2404  0.5275  11.00000  0.05    0.42
;
_shelx_res_checksum              32593
_shelx_fab_file
;
-23 -16 -2 -2.1306 1.9038
-23 -15 -3 0.0847 -4.9795
-23 -15 -1 -0.8943 -2.2827
-23 -14 -6 0.0008 -1.2814
-23 -14 -4 1.6912 -1.4059
-23 -14 -2 0.4116 -0.0196
-23 -13 -7 -2.9804 -1.1464
-23 -13 -5 -2.5179 1.9905
-23 -13 -3 -3.9783 2.4366
-23 -13 -1 -2.9249 2.1385
-23 -12 -8 0.8205 2.3064
-23 -12 -6 4.9927 2.8347
-23 -12 -4 5.8682 0.1259
-23 -12 -2 -0.1785 0.9201
-23 -11 -9 0.4952 2.7122
-23 -11 -7 -4.9471 -3.3778
-23 -11 -5 -2.7590 -0.7094
-23 -11 -3 0.0199 -0.7969
-23 -11 -1 4.9756 0.5081
-23 -10 -12 0.8216 -2.5238
-23 -10 -10 2.0164 -4.0967
-23 -10 -8 2.2773 1.5414
-23 -10 -6 -0.2099 0.3186
-23 -10 -4 -4.2680 -4.1403
-23 -10 -2 -7.0922 -2.9324
-23 -9 -11 -1.7134 4.4923
-23 -9 -9 0.2063 3.8896
-23 -9 -7 2.0464 0.1025
-23 -9 -5 5.5376 4.9280
-23 -9 -3 3.0922 2.6596
-23 -9 -1 0.2389 1.2384
-23 -8 -10 -0.5012 -3.0589
-23 -8 -8 -2.9424 -2.3175
-23 -8 -6 -2.0136 -3.8956
-23 -8 -4 -0.4032 1.4349
-23 -8 -2 0.2874 4.1577
-23 -7 -9 4.0862 0.0982
-23 -7 -7 3.9090 3.5339
-23 -7 -5 -0.2443 1.6600
-23 -7 -3 -3.0701 -6.5315
-23 -7 -1 -2.3066 -4.3711
-23 -6 -10 0.2690 7.8095
-23 -6 -8 -1.8472 1.7814
-23 -6 -6 -1.4990 -1.4179
-23 -6 -4 -3.8315 2.6997
-23 -6 -2 -1.7545 1.5512
-23 -5 -9 -2.2659 -3.5115
-23 -5 -7 0.0707 1.8380
-23 -5 -5 2.3717 0.5796
-23 -5 -3 1.7301 -2.4271
-23 -5 -1 0.9872 -2.0621
-23 -4 -8 1.9269 -5.1039
-23 -4 -6 1.5458 -3.7206
-23 -4 -4 -0.3196 0.4603
-23 -4 -2 -1.1445 3.3627
-23 -3 -7 4.4874 5.5080
-23 -3 -5 1.6156 4.3881
-23 -3 -3 -2.4690 -0.3475
-23 -3 -1 0.2981 -1.4730
-23 -2 -8 -5.4966 -0.4448
-23 -2 -6 -7.3114 0.5341
-23 -2 -4 -3.3995 -6.4961
-23 -2 -2 0.4648 -3.4532
-23 -1 -7 4.1447 -4.1676
-23 -1 -5 1.2020 -3.2145
-23 -1 -3 -2.9794 1.3770
-23 -1 -1 -2.7494 2.8872
-23 0 -6 1.4561 8.9523
-23 0 -4 3.3403 -0.7702
-23 0 -2 1.8084 -1.3094
-22 -17 -5 -3.4472 -2.7922
-22 -17 -3 -2.9235 -5.1822
-22 -17 -1 -3.9629 -2.7659
-22 -16 -6 2.2073 0.0483
-22 -16 -4 4.6662 3.1709
-22 -16 -2 2.5603 -2.3236
-22 -15 -9 0.1644 -2.8283
-22 -15 -7 -2.8780 -0.1355
-22 -15 -5 -5.0320 1.4293
-22 -15 -3 -1.4396 0.1584
-22 -15 -1 -0.4452 -2.5548
-22 -14 -10 0.1616 2.1696
-22 -14 -8 3.1556 2.6230
-22 -14 -6 3.3126 -3.4477
-22 -14 -4 3.0232 4.2193
-22 -14 -2 -2.9873 2.8308
-22 -13 -9 -2.1304 -3.0989
-22 -13 -7 -2.6888 1.2909
-22 -13 -5 -0.2322 -0.0358
-22 -13 -3 0.5870 -4.6187
-22 -13 -1 -0.7561 -7.7712
-22 -12 -10 0.9678 -0.2695
-22 -12 -8 1.6505 3.6324
-22 -12 -6 -1.8601 -1.7970
-22 -12 -4 -1.5850 2.5095
-22 -12 -2 1.4188 2.1758
-22 -11 -11 0.6202 3.4243
-22 -11 -9 2.0698 -0.5354
-22 -11 -7 -2.0052 1.5554
-22 -11 -5 1.3451 0.4648
-22 -11 -3 -1.8513 0.9586
-22 -11 -1 -6.5750 -4.6910
-22 -10 -12 0.8912 2.3128
-22 -10 -10 -3.2795 0.8805
-22 -10 -8 1.3589 0.2777
-22 -10 -6 5.1526 -3.3872
-22 -10 -4 3.4221 2.0062
-22 -10 -2 3.2597 1.9275
-22 -9 -13 -0.5586 -4.9237
-22 -9 -11 1.7373 -2.2337
-22 -9 -9 3.5949 -1.5772
-22 -9 -7 -3.1946 2.3740
-22 -9 -5 -4.1185 2.1284
-22 -9 -3 -5.3151 1.0290
-22 -9 -1 -1.4742 -3.7478
-22 -8 -14 -2.5247 -0.8774
-22 -8 -12 -2.4046 -0.2817
-22 -8 -10 -2.1012 -1.2198
-22 -8 -8 1.2567 2.8744
-22 -8 -6 2.0023 -0.4836
-22 -8 -4 -2.2912 -0.1867
-22 -8 -2 -1.5341 -3.9324
-22 -7 -13 5.4146 1.5929
-22 -7 -11 -0.1448 5.5490
-22 -7 -9 -0.3351 1.9861
-22 -7 -7 0.4972 -0.5314
-22 -7 -5 2.0367 2.8627
-22 -7 -3 0.3354 5.0351
-22 -7 -1 2.1642 0.4956
-22 -6 -14 -5.2879 -2.4197
-22 -6 -12 1.2776 -2.9950
-22 -6 -10 2.7600 -4.6465
-22 -6 -8 2.6241 -0.7529
-22 -6 -6 1.8600 -3.7589
-22 -6 -4 -0.1280 -1.2802
-22 -6 -2 -0.3319 -5.0603
-22 -5 -13 -0.0105 -0.8473
-22 -5 -11 -1.3005 0.7418
-22 -5 -9 0.8276 1.3792
-22 -5 -7 1.2059 1.1422
-22 -5 -5 -1.2163 4.8345
-22 -5 -3 -3.5998 4.5693
-22 -5 -1 -2.1890 -0.1184
-22 -4 -12 2.8617 1.1717
-22 -4 -10 -2.9899 1.1725
-22 -4 -8 -1.6674 2.1119
-22 -4 -6 -1.0188 1.3219
-22 -4 -4 -1.8127 1.3480
-22 -4 -2 -1.5523 -4.3375
-22 -3 -11 -0.1331 -2.0522
-22 -3 -9 4.2946 -4.1945
-22 -3 -7 2.8998 -1.6208
-22 -3 -5 -0.0173 0.4157
-22 -3 -3 0.2507 -0.6934
-22 -3 -1 0.9250 -4.0564
-22 -2 -12 4.4595 1.1643
-22 -2 -10 -2.9032 8.5517
-22 -2 -8 -2.7508 1.3945
-22 -2 -6 0.2088 -3.5839
-22 -2 -4 2.6511 -0.9958
-22 -2 -2 -3.7275 2.5341
-22 -1 -11 1.7829 -2.1965
-22 -1 -9 1.0601 -6.2348
-22 -1 -7 0.8385 0.4963
-22 -1 -5 0.5124 4.6011
-22 -1 -3 0.6428 -1.7125
-22 -1 -1 3.9027 -8.8453
-22 0 -10 -3.0372 7.0149
-22 0 -8 0.4500 2.9340
-22 0 -6 -2.7075 -0.6235
-22 0 -4 -2.6858 -3.0757
-22 0 -2 -8.1603 3.1975
-21 -20 -2 -1.5167 0.4512
-21 -19 -3 1.4271 -1.1264
-21 -19 -1 -3.7680 -1.1138
-21 -18 -4 -1.8647 -0.0290
-21 -18 -2 0.0184 2.2523
-21 -17 -7 -2.3150 3.5474
-21 -17 -5 -0.0942 4.5059
-21 -17 -3 0.4722 -1.4023
-21 -17 -1 -1.4316 -1.6566
-21 -16 -8 9.8590 -0.4425
-21 -16 -6 2.3213 -1.0977
-21 -16 -4 0.0648 -0.0661
-21 -16 -2 1.1069 -1.1101
-21 -15 -11 1.4984 0.5391
-21 -15 -9 -5.8966 0.3688
-21 -15 -7 -5.8267 0.0679
-21 -15 -5 -2.6175 -0.5191
-21 -15 -3 -3.4163 -0.5595
-21 -15 -1 -4.9662 0.8337
-21 -14 -12 -3.4346 -1.0497
-21 -14 -10 -3.2901 0.1055
-21 -14 -8 2.9028 0.3640
-21 -14 -6 2.7522 2.0415
-21 -14 -4 4.1980 4.4013
-21 -14 -2 0.5850 4.0196
-21 -13 -13 5.6941 0.9569
-21 -13 -11 4.8934 3.0124
-21 -13 -9 1.5259 1.4896
-21 -13 -7 -3.7719 -0.1836
-21 -13 -5 0.1375 -2.2052
-21 -13 -3 0.6907 -3.4282
-21 -13 -1 5.5631 -0.9547
-21 -12 -12 -3.0216 -2.0716
-21 -12 -10 -3.0874 -0.6295
-21 -12 -8 0.3498 0.7394
-21 -12 -6 -0.4038 0.6029
-21 -12 -4 -2.3131 -0.9110
-21 -12 -2 -5.4895 0.1470
-21 -11 -13 1.9965 -1.0246
-21 -11 -11 -0.6882 0.2553
-21 -11 -9 4.0331 -2.6207
-21 -11 -7 1.0742 0.2543
-21 -11 -5 3.2977 4.6160
-21 -11 -3 -0.4118 2.9442
-21 -11 -1 1.2456 1.9090
-21 -10 -14 -1.6241 -1.3295
-21 -10 -12 2.3068 -4.7661
-21 -10 -10 -1.1484 0.4182
-21 -10 -8 -3.9218 2.4422
-21 -10 -6 -2.0494 -1.9476
-21 -10 -4 0.2118 -0.2897
-21 -10 -2 -1.5006 3.4244
-21 -9 -15 0.4681 0.5442
-21 -9 -13 1.1184 5.0748
-21 -9 -11 -2.9856 5.5983
-21 -9 -9 1.6947 -1.0425
-21 -9 -7 1.6614 0.6648
-21 -9 -5 2.7265 0.8693
-21 -9 -3 -1.9439 -4.9091
-21 -9 -1 -0.9566 -1.7495
-21 -8 -16 -3.5315 -1.9572
-21 -8 -14 -1.8035 -4.8352
-21 -8 -12 2.0118 -5.2342
-21 -8 -10 2.6014 1.5848
-21 -8 -8 2.2395 2.7210
-21 -8 -6 -0.3564 2.7549
-21 -8 -4 -5.3331 5.1557
-21 -8 -2 -2.6479 0.3980
-21 -7 -17 4.0338 7.3626
-21 -7 -15 -1.8829 2.2295
-21 -7 -13 -1.7989 -0.8981
-21 -7 -11 1.0631 -2.6299
-21 -7 -9 3.0351 -4.8184
-21 -7 -7 2.1542 -0.1948
-21 -7 -5 4.6753 -0.7751
-21 -7 -3 0.6537 -1.0203
-21 -7 -1 0.9912 1.6082
-21 -6 -16 0.5256 -1.1108
-21 -6 -14 3.5867 -1.1549
-21 -6 -12 -4.0569 -2.6998
-21 -6 -10 -4.2622 1.1807
-21 -6 -8 -3.6248 -1.0010
-21 -6 -6 -2.2308 1.1084
-21 -6 -4 -3.9120 4.0763
-21 -6 -2 -8.1796 -0.2007
-21 -5 -15 -5.3137 -1.2197
-21 -5 -13 -0.1343 1.5856
-21 -5 -11 3.3240 4.1356
-21 -5 -9 1.3843 0.0899
-21 -5 -7 3.9838 2.8903
-21 -5 -5 5.6324 1.9575
-21 -5 -3 -0.2533 1.1024
-21 -5 -1 5.0985 1.0844
-21 -4 -14 4.5866 1.3104
-21 -4 -12 -1.1907 -0.6018
-21 -4 -10 6.4008 2.4230
-21 -4 -8 4.7260 -1.2575
-21 -4 -6 -1.1214 3.3330
-21 -4 -4 -1.4352 -1.1612
-21 -4 -2 0.7185 -6.5288
-21 -3 -15 -5.7329 -2.2919
-21 -3 -13 -1.1979 -4.4503
-21 -3 -11 1.2827 -1.2369
-21 -3 -9 -7.8819 -0.9520
-21 -3 -7 -6.5596 -2.7277
-21 -3 -5 -1.1706 -3.2642
-21 -3 -3 -7.1322 2.4669
-21 -3 -1 -8.4851 4.3077
-21 -2 -14 4.3167 1.9172
-21 -2 -12 -5.3642 1.2954
-21 -2 -10 0.9656 -0.2507
-21 -2 -8 5.9509 -5.2654
-21 -2 -6 6.4689 7.7123
-21 -2 -4 6.8046 2.5573
-21 -2 -2 -2.4507 -2.4611
-21 -1 -13 -0.0327 2.8874
-21 -1 -11 4.3491 3.0779
-21 -1 -9 -2.2198 5.9824
-21 -1 -7 -2.8535 2.8134
-21 -1 -5 0.1278 -0.3138
-21 -1 -3 -0.0269 3.1522
-21 -1 -1 1.8056 6.8779
-21 0 -12 -0.2364 -1.6908
-21 0 -10 1.0381 0.4714
-21 0 -8 -0.5762 -9.5532
-21 0 -6 -2.5534 -0.0101
-21 0 -4 -0.9347 -7.2301
-21 0 -2 -9.7058 -10.3084
-20 -21 -5 -0.3491 -0.0239
-20 -21 -3 0.5936 -1.2458
-20 -21 -1 -1.1410 -0.9559
-20 -20 -6 3.1715 1.9468
-20 -20 -4 -0.9060 1.6571
-20 -20 -2 -0.2821 0.9515
-20 -19 -9 -1.7883 2.2609
-20 -19 -7 -2.7374 -0.9907
-20 -19 -5 -1.9749 1.7192
-20 -19 -3 1.3929 1.9439
-20 -19 -1 -2.1290 1.0949
-20 -18 -10 -3.6591 0.4636
-20 -18 -8 2.6443 0.5523
-20 -18 -6 2.8031 1.1935
-20 -18 -4 -1.3464 0.0179
-20 -18 -2 -3.0661 -4.3858
-20 -17 -9 1.8130 0.1801
-20 -17 -7 -1.2175 0.3554
-20 -17 -5 -5.3172 0.0980
-20 -17 -3 3.6374 -1.7151
-20 -17 -1 3.5253 -1.1269
-20 -16 -10 -1.9809 3.7953
-20 -16 -8 -0.2001 0.7066
-20 -16 -6 0.8409 -1.1560
-20 -16 -4 1.8596 6.5273
-20 -16 -2 -2.6801 4.1849
-20 -15 -11 -4.8833 -1.6255
-20 -15 -9 -1.2946 -0.7902
-20 -15 -7 3.2244 0.4180
-20 -15 -5 -0.4430 1.2225
-20 -15 -3 -0.2135 -4.0113
-20 -15 -1 -5.3869 -4.9859
-20 -14 -14 -2.0153 4.2803
-20 -14 -12 1.7726 -0.8231
-20 -14 -10 -0.4414 -0.7742
-20 -14 -8 -1.7510 0.6862
-20 -14 -6 -5.2737 -4.6255
-20 -14 -4 1.5387 -0.5914
-20 -14 -2 3.6718 0.7513
-20 -13 -15 -0.2958 -0.6745
-20 -13 -13 3.3333 -5.2902
-20 -13 -11 -0.4459 -0.8004
-20 -13 -9 1.2959 0.6425
-20 -13 -7 1.1965 3.6765
-20 -13 -5 1.2047 5.1321
-20 -13 -3 -0.1206 2.7671
-20 -13 -1 -4.0011 -3.1006
-20 -12 -14 -0.3674 -0.4851
-20 -12 -12 1.8409 0.6713
-20 -12 -10 -1.2911 -0.1894
-20 -12 -8 0.9247 -0.0838
-20 -12 -6 -1.5029 -2.4449
-20 -12 -4 -0.7093 0.8083
-20 -12 -2 -2.8115 2.4199
-20 -11 -15 -2.6447 7.5349
-20 -11 -13 1.6790 0.1828
-20 -11 -11 -1.2363 2.6821
-20 -11 -9 -0.7902 -0.2436
-20 -11 -7 -2.7038 -0.0780
-20 -11 -5 1.9074 -1.0737
-20 -11 -3 0.4316 -0.7552
-20 -11 -1 0.4149 -4.8896
-20 -10 -14 -0.2129 -0.0976
-20 -10 -12 -0.8466 -1.0336
-20 -10 -10 -1.7206 -1.0629
-20 -10 -8 1.7683 2.6057
-20 -10 -6 0.7975 1.3790
-20 -10 -4 0.1613 0.9400
-20 -10 -2 1.1816 0.9553
-20 -9 -15 -4.9051 -3.1312
-20 -9 -13 0.6886 -6.6307
-20 -9 -11 0.1317 -0.5054
-20 -9 -9 3.2393 -1.1898
-20 -9 -7 -0.1222 0.5380
-20 -9 -5 -1.4997 3.0632
-20 -9 -3 -5.2168 4.9173
-20 -9 -1 -1.1497 -1.1401
-20 -8 -16 4.3352 4.1337
-20 -8 -14 3.1707 0.3420
-20 -8 -12 1.9600 -1.0237
-20 -8 -10 -1.3001 -3.1362
-20 -8 -8 -0.1851 1.2971
-20 -8 -6 -0.0356 -2.8626
-20 -8 -4 -0.5935 -5.3314
-20 -8 -2 -1.9646 -4.5104
-20 -7 -17 -4.7496 2.3046
-20 -7 -15 -7.2254 0.3075
-20 -7 -13 -0.0399 0.0956
-20 -7 -11 -0.9155 3.8735
-20 -7 -9 1.1205 2.9615
-20 -7 -7 3.6150 3.7599
-20 -7 -5 3.4623 7.7487
-20 -7 -3 -0.8633 5.4150
-20 -7 -1 0.8707 -1.2212
-20 -6 -18 5.2160 0.1339
-20 -6 -16 6.3280 5.3870
-20 -6 -14 -2.2410 -1.7140
-20 -6 -12 -2.2345 -1.8808
-20 -6 -10 0.6128 -2.5649
-20 -6 -8 1.7422 0.7471
-20 -6 -6 -2.2267 -1.5613
-20 -6 -4 -3.6472 3.0290
-20 -6 -2 -2.0969 1.2738
-20 -5 -17 0.3929 -3.2927
-20 -5 -15 -0.3017 -2.9134
-20 -5 -13 3.5499 -0.0368
-20 -5 -11 0.2055 -0.7574
-20 -5 -9 0.7439 -2.8820
-20 -5 -7 1.9804 -1.9639
-20 -5 -5 0.0826 -1.1168
-20 -5 -3 -0.9453 -3.6107
-20 -5 -1 -3.9756 -4.4890
-20 -4 -16 -0.3849 2.8317
-20 -4 -14 -2.9998 -3.5588
-20 -4 -12 -1.7741 -4.2413
-20 -4 -10 -0.7561 2.2670
-20 -4 -8 -0.7380 4.0351
-20 -4 -6 0.2006 0.4824
-20 -4 -4 4.4113 1.7947
-20 -4 -2 -3.8086 -0.2976
-20 -3 -17 3.5029 -0.0542
-20 -3 -15 0.4361 0.9775
-20 -3 -13 3.8907 3.9442
-20 -3 -11 -0.1913 5.6218
-20 -3 -9 -0.3449 -0.9767
-20 -3 -7 2.2062 0.1392
-20 -3 -5 -1.7122 6.1820
-20 -3 -3 -1.5412 2.8152
-20 -3 -1 2.2816 -4.7523
-20 -2 -16 0.1847 -0.7144
-20 -2 -14 -3.7345 3.3866
-20 -2 -12 -2.6679 -6.0783
-20 -2 -10 4.7320 2.0473
-20 -2 -8 2.0066 1.3865
-20 -2 -6 -2.7573 -0.3285
-20 -2 -4 5.5992 -1.8800
-20 -2 -2 -10.8435 2.6952
-20 -1 -15 1.2358 -6.1603
-20 -1 -13 4.9049 -2.7464
-20 -1 -11 -3.2731 4.0613
-20 -1 -9 -4.6820 -4.8178
-20 -1 -7 -0.2868 -6.4941
-20 -1 -5 0.4889 -2.0665
-20 -1 -3 1.9899 -3.8530
-20 -1 -1 5.8541 -9.0551
-20 0 -14 -1.6251 9.7558
-20 0 -12 -1.0765 -3.2365
-20 0 -10 4.7737 8.2459
-20 0 -8 1.0503 7.0981
-20 0 -6 -2.6969 8.8177
-20 0 -4 5.6484 2.6103
-20 0 -2 -13.1949 4.4791
-19 -23 -1 0.3258 -0.1705
-19 -22 -6 2.3481 0.2819
-19 -22 -4 -3.1994 0.5192
-19 -22 -2 1.0722 2.3934
-19 -21 -7 0.2612 1.7021
-19 -21 -5 1.1774 2.0785
-19 -21 -3 0.8059 1.0077
-19 -21 -1 -3.0242 3.5487
-19 -20 -8 -2.2711 2.7621
-19 -20 -6 2.1154 0.5188
-19 -20 -4 -3.3415 -1.3810
-19 -20 -2 1.8085 -0.7454
-19 -19 -9 -0.6434 -4.2941
-19 -19 -7 -0.9439 -2.1921
-19 -19 -5 -2.5427 0.9148
-19 -19 -3 0.4021 -0.8529
-19 -19 -1 0.0658 1.9280
-19 -18 -12 1.0079 -4.9001
-19 -18 -10 2.0889 -0.6328
-19 -18 -8 4.0524 3.3853
-19 -18 -6 1.3890 1.4853
-19 -18 -4 -1.4975 0.5724
-19 -18 -2 2.7958 1.6886
-19 -17 -13 0.2829 6.3548
-19 -17 -11 -0.5206 2.2493
-19 -17 -9 -3.7955 -0.1581
-19 -17 -7 2.7563 0.3504
-19 -17 -5 0.4990 2.7781
-19 -17 -3 -1.1338 -1.8926
-19 -17 -1 -1.9717 -0.5417
-19 -16 -14 2.2873 -1.4570
-19 -16 -12 -1.4373 -4.2674
-19 -16 -10 -3.2930 -0.5158
-19 -16 -8 -1.5192 -0.3676
-19 -16 -6 -4.4131 -2.5990
-19 -16 -4 -2.8611 0.0906
-19 -16 -2 -1.0917 4.4813
-19 -15 -13 1.2759 0.4677
-19 -15 -11 4.1954 -1.2691
-19 -15 -9 -0.5378 2.1996
-19 -15 -7 -0.5129 1.8147
-19 -15 -5 2.7948 1.2515
-19 -15 -3 5.7033 -0.3235
-19 -15 -1 10.6517 0.0600
-19 -14 -14 3.4824 0.9195
-19 -14 -12 1.5030 -1.3680
-19 -14 -10 -2.4989 -1.8574
-19 -14 -8 1.7877 -0.9936
-19 -14 -6 1.1092 1.7921
-19 -14 -4 -3.4636 -1.4856
-19 -14 -2 -4.5091 -0.6386
-19 -13 -15 -5.5321 2.9736
-19 -13 -13 -4.7407 1.3395
-19 -13 -11 -1.2598 0.4388
-19 -13 -9 2.3452 -0.2331
-19 -13 -7 -2.5712 -1.8735
-19 -13 -5 -1.2057 0.9825
-19 -13 -3 -4.8188 3.1103
-19 -13 -1 -0.7675 1.4053
-19 -12 -16 4.4741 1.5691
-19 -12 -14 5.3797 1.6961
-19 -12 -12 4.0597 -0.4833
-19 -12 -10 -4.4953 0.4898
-19 -12 -8 -6.3277 2.4547
-19 -12 -6 0.6778 0.1268
-19 -12 -4 6.6337 -2.2756
-19 -12 -2 9.8365 5.6830
-19 -11 -17 -0.3627 0.9856
-19 -11 -15 -3.0606 -1.8789
-19 -11 -13 1.0360 -4.3986
-19 -11 -11 -0.3866 0.9132
-19 -11 -9 4.1997 0.5277
-19 -11 -7 -0.1849 -1.9496
-19 -11 -5 1.4937 -0.6430
-19 -11 -3 -6.0819 -3.1772
-19 -11 -1 -2.1944 -1.1820
-19 -10 -16 1.1399 -0.4123
-19 -10 -14 -0.7722 1.9456
-19 -10 -12 2.6676 0.3299
-19 -10 -10 -0.8093 -1.6671
-19 -10 -8 -1.4806 3.0907
-19 -10 -6 -3.2278 5.2982
-19 -10 -4 -9.2345 0.4124
-19 -10 -2 -3.0512 0.3206
-19 -9 -17 -4.2020 6.7648
-19 -9 -15 -4.9007 1.9481
-19 -9 -13 -0.7512 -4.3441
-19 -9 -11 -1.0414 -2.2501
-19 -9 -9 5.6266 -1.4309
-19 -9 -7 3.2044 -0.9807
-19 -9 -5 8.9554 -0.8237
-19 -9 -3 3.6686 0.2363
-19 -9 -1 3.7416 5.4014
-19 -8 -18 6.2409 0.2157
-19 -8 -16 7.9148 1.1867
-19 -8 -14 1.6692 3.5866
-19 -8 -12 -1.2980 1.7940
-19 -8 -10 -4.5293 1.2249
-19 -8 -8 -4.9956 2.0123
-19 -8 -6 -2.2263 2.0901
-19 -8 -4 -3.6045 2.9853
-19 -8 -2 -1.3636 1.0964
-19 -7 -19 -2.5117 -4.2031
-19 -7 -17 -1.7576 3.2059
-19 -7 -15 -4.9018 -3.8712
-19 -7 -13 1.3561 -4.5376
-19 -7 -11 0.2793 1.8719
-19 -7 -9 2.9296 -0.9464
-19 -7 -7 -0.4327 -0.8403
-19 -7 -5 0.6657 -3.0685
-19 -7 -3 -5.8118 -2.8285
-19 -7 -1 -1.2400 5.1346
-19 -6 -18 -1.4135 -1.3139
-19 -6 -16 3.1870 -2.5669
-19 -6 -14 4.8863 -1.3814
-19 -6 -12 0.5404 -2.3350
-19 -6 -10 1.4581 0.3434
-19 -6 -8 1.8726 2.8886
-19 -6 -6 2.8973 4.9208
-19 -6 -4 -0.4378 -0.5547
-19 -6 -2 0.5453 -8.9914
-19 -5 -19 -4.2855 3.6374
-19 -5 -17 0.2518 10.5002
-19 -5 -15 -6.5975 3.0962
-19 -5 -13 -4.7073 -3.6427
-19 -5 -11 -0.8304 -1.0381
-19 -5 -9 3.3439 -1.1333
-19 -5 -7 -1.5021 2.3916
-19 -5 -5 1.4738 0.4268
-19 -5 -3 -0.5004 3.7193
-19 -5 -1 3.3999 7.6303
-19 -4 -18 4.1670 -5.0794
-19 -4 -16 5.1353 -0.6373
-19 -4 -14 2.9863 4.6718
-19 -4 -12 -4.0507 3.6630
-19 -4 -10 -1.0888 1.8267
-19 -4 -8 -0.6902 -4.4585
-19 -4 -6 1.8188 1.8154
-19 -4 -4 -1.1255 6.0664
-19 -4 -2 -12.4598 3.6206
-19 -3 -19 -3.0465 1.2098
-19 -3 -17 1.7546 0.4070
-19 -3 -15 0.8026 -6.2904
-19 -3 -13 1.8386 -8.5320
-19 -3 -11 2.2970 1.7977
-19 -3 -9 -2.0169 4.0354
-19 -3 -7 -4.3662 0.6000
-19 -3 -5 6.2727 -6.5912
-19 -3 -3 7.5165 -7.5238
-19 -3 -1 7.5607 -0.3214
-19 -2 -18 -2.0030 1.6255
-19 -2 -16 1.4588 0.1907
-19 -2 -14 1.6098 3.7051
-19 -2 -12 -4.3230 1.8840
-19 -2 -10 2.4137 1.8568
-19 -2 -8 4.2104 -1.7473
-19 -2 -6 -1.1490 5.8534
-19 -2 -4 -1.9242 -0.7003
-19 -2 -2 -7.6437 -2.9402
-19 -1 -17 1.8322 0.2333
-19 -1 -15 1.7317 0.3537
-19 -1 -13 -1.6722 -3.4930
-19 -1 -11 1.4249 2.2296
-19 -1 -9 -2.6622 3.2680
-19 -1 -7 -5.8919 0.4529
-19 -1 -5 0.0835 -0.3949
-19 -1 -3 -4.3177 0.4059
-19 -1 -1 -12.6207 2.9462
-19 0 -16 3.2437 -2.8387
-19 0 -14 2.1763 0.3029
-19 0 -12 -2.9940 0.6419
-19 0 -10 0.2805 3.2519
-19 0 -8 1.6637 -4.7580
-19 0 -6 4.2266 0.3060
-19 0 -4 14.1754 -1.8070
-19 0 -2 2.1417 0.9588
-18 -24 -4 -4.5598 -1.0480
-18 -24 -2 -4.0606 -1.6863
-18 -23 -5 2.4417 1.9175
-18 -23 -3 7.5426 3.8545
-18 -23 -1 0.9802 2.7775
-18 -22 -8 0.6390 -2.1832
-18 -22 -6 0.8552 -0.8171
-18 -22 -4 -7.1656 -6.0191
-18 -22 -2 -3.2021 -3.7856
-18 -21 -9 -0.5544 2.7951
-18 -21 -7 0.4885 1.0427
-18 -21 -5 3.0543 4.5004
-18 -21 -3 5.7520 5.8879
-18 -21 -1 -0.0460 0.9163
-18 -20 -10 2.0124 -5.3485
-18 -20 -8 2.1984 -2.5662
-18 -20 -6 0.0836 0.6413
-18 -20 -4 -5.1105 -3.6440
-18 -20 -2 -2.1673 1.8308
-18 -19 -11 0.4030 -0.2883
-18 -19 -9 -0.5123 4.8469
-18 -19 -7 0.4463 3.0347
-18 -19 -5 -3.1338 1.6304
-18 -19 -3 1.9114 -4.1607
-18 -19 -1 1.3941 -6.2781
-18 -18 -14 -0.4269 1.9551
-18 -18 -12 -2.6782 -0.1305
-18 -18 -10 -2.5894 0.1082
-18 -18 -8 0.5493 -3.6267
-18 -18 -6 1.0469 -0.5876
-18 -18 -4 -0.9862 1.4723
-18 -18 -2 2.4532 4.7372
-18 -17 -15 0.0117 2.3840
-18 -17 -13 2.5129 0.7137
-18 -17 -11 0.5998 -3.1611
-18 -17 -9 -3.3496 4.5576
-18 -17 -7 -0.9575 1.2221
-18 -17 -5 -2.9433 1.7267
-18 -17 -3 2.6862 0.7587
-18 -17 -1 -2.3876 -1.2327
-18 -16 -16 -2.4648 -0.2535
-18 -16 -14 0.8564 1.0324
-18 -16 -12 0.2670 -4.5679
-18 -16 -10 1.7006 -3.9889
-18 -16 -8 4.2822 -3.5241
-18 -16 -6 1.8394 -0.6362
-18 -16 -4 0.3155 0.7638
-18 -16 -2 -1.1968 0.4995
-18 -15 -15 -3.9451 5.6615
-18 -15 -13 0.1224 2.5926
-18 -15 -11 -1.2822 -0.8542
-18 -15 -9 -2.8751 3.5373
-18 -15 -7 -0.9964 0.5052
-18 -15 -5 -4.7216 -1.0520
-18 -15 -3 -0.2361 -6.3117
-18 -15 -1 2.2344 -3.3675
-18 -14 -16 3.1862 -5.3104
-18 -14 -14 3.4756 -0.5346
-18 -14 -12 1.0743 0.8848
-18 -14 -10 1.7164 3.2506
-18 -14 -8 0.8264 1.6593
-18 -14 -6 -2.2472 1.8231
-18 -14 -4 3.3409 8.1056
-18 -14 -2 3.4189 9.7473
-18 -13 -17 -3.1844 2.2140
-18 -13 -15 -3.8876 5.5171
-18 -13 -13 3.1952 -2.4266
-18 -13 -11 -4.4703 -2.4250
-18 -13 -9 -8.2323 -1.3227
-18 -13 -7 -1.5517 -3.2781
-18 -13 -5 2.1633 -4.6553
-18 -13 -3 -3.5714 -8.2824
-18 -13 -1 -5.9377 -3.3215
-18 -12 -18 3.2522 1.6250
-18 -12 -16 2.1547 2.5043
-18 -12 -14 -1.3550 3.6392
-18 -12 -12 1.6883 -0.5367
-18 -12 -10 6.1040 0.3757
-18 -12 -8 3.0569 -0.4170
-18 -12 -6 -2.4729 -1.5327
-18 -12 -4 1.2629 2.4538
-18 -12 -2 3.0820 4.2745
-18 -11 -17 -2.5343 -6.6938
-18 -11 -15 -1.9265 -2.6837
-18 -11 -13 3.0899 -2.1620
-18 -11 -11 -3.0563 1.4762
-18 -11 -9 -0.2101 1.6403
-18 -11 -7 0.3539 4.6580
-18 -11 -5 1.2307 2.4601
-18 -11 -3 -1.4723 0.5370
-18 -11 -1 4.7644 0.6702
-18 -10 -18 0.2076 5.3389
-18 -10 -16 1.4981 6.8761
-18 -10 -14 -1.6007 0.0372
-18 -10 -12 0.9602 -4.7082
-18 -10 -10 -1.2471 -0.5962
-18 -10 -8 -3.6593 2.1495
-18 -10 -6 -5.6863 -2.0929
-18 -10 -4 -4.1104 -3.6690
-18 -10 -2 -2.3717 -2.4957
-18 -9 -17 1.5587 -3.7157
-18 -9 -15 0.3619 0.4550
-18 -9 -13 4.1700 4.5895
-18 -9 -11 -2.2605 4.4559
-18 -9 -9 1.1523 -3.2852
-18 -9 -7 4.3961 -1.7622
-18 -9 -5 6.6957 0.3221
-18 -9 -3 0.3908 0.3070
-18 -9 -1 2.6582 -1.7258
-18 -8 -18 -1.3639 1.8417
-18 -8 -16 1.3401 4.2522
-18 -8 -14 -3.2065 -5.1624
-18 -8 -12 1.3979 -2.7147
-18 -8 -10 -0.3030 4.3745
-18 -8 -8 -0.8852 9.0719
-18 -8 -6 -3.1592 0.9470
-18 -8 -4 -2.9617 1.6565
-18 -8 -2 -0.9622 2.6438
-18 -7 -19 -3.5500 -3.0575
-18 -7 -17 -1.3685 -1.0006
-18 -7 -15 -0.3000 -1.3994
-18 -7 -13 0.5383 -1.9081
-18 -7 -11 -2.1838 -7.4232
-18 -7 -9 1.9178 -9.9817
-18 -7 -7 1.0590 -3.6037
-18 -7 -5 -0.2609 -2.2383
-18 -7 -3 -0.8146 -2.8273
-18 -7 -1 -0.2652 -4.6016
-18 -6 -18 3.0094 2.3849
-18 -6 -16 2.2183 7.4987
-18 -6 -14 -2.4340 0.1095
-18 -6 -12 0.9621 5.4363
-18 -6 -10 0.1672 6.5091
-18 -6 -8 1.6284 11.6036
-18 -6 -6 -2.2500 3.5843
-18 -6 -4 -0.2247 2.8896
-18 -6 -2 4.1693 -0.5690
-18 -5 -19 -4.7125 -3.1773
-18 -5 -17 2.3990 -1.8780
-18 -5 -15 3.2598 -2.7113
-18 -5 -13 2.4461 -0.3726
-18 -5 -11 -2.2512 0.8173
-18 -5 -9 -3.2062 -4.8050
-18 -5 -7 4.2143 -4.2317
-18 -5 -5 4.2276 0.9381
-18 -5 -3 -2.4535 0.7792
-18 -5 -1 -8.4448 -6.0039
-18 -4 -18 1.0798 -1.7931
-18 -4 -16 1.9969 -1.3013
-18 -4 -14 -2.7009 -7.2490
-18 -4 -12 -1.8009 -5.1287
-18 -4 -10 1.3942 0.8887
-18 -4 -8 -1.1952 6.7615
-18 -4 -6 -7.2934 -4.3164
-18 -4 -4 2.8874 -3.4505
-18 -4 -2 -3.2598 0.8139
-18 -3 -19 -4.7686 3.9482
-18 -3 -17 -0.4394 6.5661
-18 -3 -15 -0.7577 7.3532
-18 -3 -13 -0.5710 6.0969
-18 -3 -11 -0.6288 4.7466
-18 -3 -9 2.6169 -3.6742
-18 -3 -7 6.4046 0.2027
-18 -3 -5 3.9871 4.9661
-18 -3 -3 3.9062 4.4795
-18 -3 -1 2.4737 -3.7356
-18 -2 -18 4.0758 -6.1014
-18 -2 -16 6.3368 -7.3133
-18 -2 -14 3.4081 -4.2308
-18 -2 -12 -2.1287 -5.4378
-18 -2 -10 -2.9548 4.2556
-18 -2 -8 -4.2665 2.7034
-18 -2 -6 -4.7556 -2.8748
-18 -2 -4 6.1240 -5.8347
-18 -2 -2 -7.8411 -5.2184
-18 -1 -19 -3.8691 5.3368
-18 -1 -17 1.4923 3.9297
-18 -1 -15 1.2169 1.1553
-18 -1 -13 2.4422 -2.0850
-18 -1 -11 0.8506 6.1764
-18 -1 -9 -0.4335 1.8739
-18 -1 -7 -3.2476 4.1263
-18 -1 -5 -3.4622 4.1185
-18 -1 -3 -3.3360 1.7058
-18 -1 -1 -6.3403 -3.3901
-18 0 -18 0.8487 -4.6085
-18 0 -16 1.7746 -4.6451
-18 0 -14 -0.7188 4.2111
-18 0 -12 -6.5006 -3.4898
-18 0 -10 -0.3474 2.2326
-18 0 -8 3.7833 -4.2926
-18 0 -6 4.6887 -7.1561
-18 0 -4 17.4080 -6.1990
-18 0 -2 -3.8101 2.3183
-17 -24 -6 2.1566 4.1750
-17 -24 -4 2.9842 0.7407
-17 -24 -2 7.9218 0.7689
-17 -23 -9 3.1795 -1.3552
-17 -23 -7 2.0471 -1.9036
-17 -23 -5 -0.1165 -0.7317
-17 -23 -3 -6.5500 3.3652
-17 -23 -1 -2.9205 6.6903
-17 -22 -10 -1.2625 2.1635
-17 -22 -8 -5.5298 3.6662
-17 -22 -6 1.8310 3.6506
-17 -22 -4 -0.3916 -3.0056
-17 -22 -2 3.4704 -3.4017
-17 -21 -11 2.7504 -2.3009
-17 -21 -9 4.8441 -3.1817
-17 -21 -7 0.8841 -2.6076
-17 -21 -5 -2.4064 -1.4942
-17 -21 -3 -1.6964 -0.8158
-17 -21 -1 6.2813 5.7349
-17 -20 -12 -4.8974 -1.6946
-17 -20 -10 -4.2694 0.3865
-17 -20 -8 -2.8489 2.9389
-17 -20 -6 3.1091 3.9023
-17 -20 -4 -2.8520 -2.3955
-17 -20 -2 1.2819 -3.2552
-17 -19 -13 -1.9306 3.2120
-17 -19 -11 2.9558 -2.7096
-17 -19 -9 1.2012 -1.8517
-17 -19 -7 -0.6091 -2.8134
-17 -19 -5 -0.0674 1.9591
-17 -19 -3 5.6066 5.8962
-17 -19 -1 3.6372 8.9724
-17 -18 -14 1.5490 -2.2683
-17 -18 -12 1.8146 -5.4114
-17 -18 -10 -0.4230 0.8874
-17 -18 -8 1.6779 3.7645
-17 -18 -6 1.4338 3.6201
-17 -18 -4 -7.5564 -2.3255
-17 -18 -2 -5.7491 -3.3799
-17 -17 -15 2.9576 -0.3215
-17 -17 -13 -1.4901 3.8125
-17 -17 -11 4.5773 0.2049
-17 -17 -9 0.2044 0.3665
-17 -17 -7 -0.4955 -3.2636
-17 -17 -5 -2.9417 -0.6591
-17 -17 -3 5.0559 -2.9711
-17 -17 -1 8.3460 1.2005
-17 -16 -16 -2.5156 3.9126
-17 -16 -14 -1.0381 4.7646
-17 -16 -12 -4.0985 -3.4860
-17 -16 -10 -3.9100 -1.4006
-17 -16 -8 0.1349 1.0501
-17 -16 -6 2.2801 1.4989
-17 -16 -4 0.0837 -1.7361
-17 -16 -2 2.8987 2.1811
-17 -15 -17 0.6608 -1.3112
-17 -15 -15 2.4556 1.9335
-17 -15 -13 -0.9281 2.9305
-17 -15 -11 0.3920 2.3387
-17 -15 -9 -4.6195 2.2464
-17 -15 -7 -2.3146 -0.7524
-17 -15 -5 -0.4287 6.8648
-17 -15 -3 -3.1232 4.1303
-17 -15 -1 -6.0968 0.9464
-17 -14 -18 -0.1732 2.2614
-17 -14 -16 -4.4002 -1.0448
-17 -14 -14 -0.6692 -3.1581
-17 -14 -12 2.0070 -7.1047
-17 -14 -10 4.5006 -4.9419
-17 -14 -8 1.6858 -4.3642
-17 -14 -6 0.8199 -8.2519
-17 -14 -4 -2.8325 -10.4657
-17 -14 -2 2.9887 4.6191
-17 -13 -17 0.8829 -5.2649
-17 -13 -15 2.3687 0.1458
-17 -13 -13 2.5556 3.2077
-17 -13 -11 0.0465 7.4973
-17 -13 -9 -2.9131 8.5482
-17 -13 -7 -2.9139 4.4561
-17 -13 -5 6.1820 8.5361
-17 -13 -3 5.0913 -0.2133
-17 -13 -1 7.7822 -3.8455
-17 -12 -20 -0.3803 -1.5573
-17 -12 -18 0.2572 4.3623
-17 -12 -16 1.2959 3.2351
-17 -12 -14 -0.2089 0.4110
-17 -12 -12 0.2812 -2.5877
-17 -12 -10 -0.3384 -3.6187
-17 -12 -8 -1.6318 0.7298
-17 -12 -6 -0.8463 -0.1792
-17 -12 -4 -11.5705 -6.6557
-17 -12 -2 -2.9449 5.2545
-17 -11 -19 4.4094 -3.8483
-17 -11 -17 1.0558 0.2343
-17 -11 -15 -4.3931 3.9228
-17 -11 -13 -3.2527 0.2324
-17 -11 -11 -2.3856 -1.6205
-17 -11 -9 0.6920 -1.6686
-17 -11 -7 -2.4074 -4.3439
-17 -11 -5 5.1821 2.4028
-17 -11 -3 -2.5692 -0.9485
-17 -11 -1 -5.3596 0.0684
-17 -10 -20 -4.4296 -0.7697
-17 -10 -18 -4.3743 -0.4029
-17 -10 -16 3.0623 -3.5353
-17 -10 -14 2.3703 -0.7197
-17 -10 -12 3.2403 3.8709
-17 -10 -10 0.4197 2.3065
-17 -10 -8 -1.2723 1.9539
-17 -10 -6 4.4641 -3.4328
-17 -10 -4 4.3063 -5.6237
-17 -10 -2 13.6343 7.0964
-17 -9 -19 3.5788 -2.9034
-17 -9 -17 2.5838 1.9098
-17 -9 -15 0.2987 -2.3940
-17 -9 -13 4.6195 -3.9753
-17 -9 -11 -2.1593 1.0601
-17 -9 -9 -1.6083 4.3316
-17 -9 -7 -4.5008 4.6979
-17 -9 -5 -4.0696 5.0970
-17 -9 -3 -13.7499 -5.0186
-17 -9 -1 -8.8066 2.4597
-17 -8 -18 -3.2475 -1.0780
-17 -8 -16 -2.1712 1.6973
-17 -8 -14 -5.1647 1.3744
-17 -8 -12 0.4563 -1.9134
-17 -8 -10 4.2718 -5.3029
-17 -8 -8 -0.6903 -2.7605
-17 -8 -6 -1.0091 -1.9415
-17 -8 -4 1.2461 -4.1437
-17 -8 -2 12.6531 -3.7928
-17 -7 -19 0.1939 -0.9846
-17 -7 -17 4.8608 1.9608
-17 -7 -15 2.6542 -1.1058
-17 -7 -13 3.3168 2.7324
-17 -7 -11 -5.9304 5.6915
-17 -7 -9 2.9158 4.3109
-17 -7 -7 5.6582 6.6015
-17 -7 -5 5.2030 3.3131
-17 -7 -3 -4.9117 -0.1172
-17 -7 -1 -7.0592 10.1431
-17 -6 -18 -1.2276 -1.5033
-17 -6 -16 1.2604 1.4928
-17 -6 -14 -3.0999 -1.1992
-17 -6 -12 -2.9805 -4.8551
-17 -6 -10 1.4520 -5.6276
-17 -6 -8 -4.0739 -6.7356
-17 -6 -6 -0.5033 -4.0823
-17 -6 -4 1.4897 2.3026
-17 -6 -2 -2.6169 1.3307
-17 -5 -19 0.4563 -3.6938
-17 -5 -17 1.4698 1.8424
-17 -5 -15 -2.6049 -3.1353
-17 -5 -13 5.1930 0.0511
-17 -5 -11 0.1585 7.5792
-17 -5 -9 -0.3388 4.6266
-17 -5 -7 -3.8682 4.0889
-17 -5 -5 -0.4947 -2.5271
-17 -5 -3 0.9076 -4.6966
-17 -5 -1 4.9048 4.7431
-17 -4 -18 -2.3344 1.1818
-17 -4 -16 4.4291 0.3926
-17 -4 -14 2.3201 1.3170
-17 -4 -12 -4.9897 -0.6411
-17 -4 -10 0.4872 -1.5112
-17 -4 -8 1.3880 -1.0893
-17 -4 -6 3.9414 4.8367
-17 -4 -4 4.9350 0.5209
-17 -4 -2 7.3373 -5.5848
-17 -3 -19 -2.3130 -4.8475
-17 -3 -17 3.4178 -0.1042
-17 -3 -15 2.4481 -2.8126
-17 -3 -13 0.6316 -3.8332
-17 -3 -11 0.8776 -0.6452
-17 -3 -9 1.5096 -0.5323
-17 -3 -7 -4.3273 0.5186
-17 -3 -5 -0.7226 -6.2128
-17 -3 -3 -6.0315 -2.0793
-17 -3 -1 -21.9284 3.3033
-17 -2 -18 1.0314 1.8013
-17 -2 -16 1.3783 1.7312
-17 -2 -14 -0.8604 2.9068
-17 -2 -12 -5.3810 2.6678
-17 -2 -10 -1.4228 5.3890
-17 -2 -8 -0.0420 -0.2524
-17 -2 -6 4.3727 6.9138
-17 -2 -4 5.8477 9.0736
-17 -2 -2 -6.8396 8.9229
-17 -1 -19 -4.4855 -5.2528
-17 -1 -17 -4.0081 0.9110
-17 -1 -15 -1.3526 -2.7589
-17 -1 -13 -0.8059 -2.9513
-17 -1 -11 2.1214 2.1821
-17 -1 -9 -1.8134 -4.5669
-17 -1 -7 -0.5324 -8.4785
-17 -1 -5 9.8729 -13.1112
-17 -1 -3 13.9767 -12.8163
-17 -1 -1 11.8045 -7.7774
-17 0 -18 3.1215 0.8584
-17 0 -16 13.3085 -2.7802
-17 0 -14 9.3329 1.8916
-17 0 -12 -4.2253 -1.7069
-17 0 -10 -0.2279 5.4720
-17 0 -8 -2.2168 10.7578
-17 0 -6 -9.8102 15.5591
-17 0 -4 -8.9676 6.5295
-17 0 -2 -27.5593 6.4829
-16 -25 -7 0.4328 2.8721
-16 -25 -5 -1.7519 0.0570
-16 -25 -3 1.8157 3.0426
-16 -25 -1 -1.3284 5.1107
-16 -24 -8 -1.9721 -2.6270
-16 -24 -6 2.1328 -1.6473
-16 -24 -4 -2.8324 1.6530
-16 -24 -2 -0.8529 -2.8580
-16 -23 -11 1.4310 1.7136
-16 -23 -9 -0.0816 2.5737
-16 -23 -7 0.9238 0.6713
-16 -23 -5 0.6137 -3.3927
-16 -23 -3 1.4595 -4.8578
-16 -23 -1 -4.2514 -1.0434
-16 -22 -10 0.9288 -4.7854
-16 -22 -8 -0.2890 0.1333
-16 -22 -6 1.7824 2.6391
-16 -22 -4 -0.8267 2.7278
-16 -22 -2 7.7341 3.4272
-16 -21 -11 -0.3867 -0.1259
-16 -21 -9 -0.8333 3.1342
-16 -21 -7 -1.8374 1.4407
-16 -21 -5 -1.6630 0.9981
-16 -21 -3 -2.0467 0.8533
-16 -21 -1 -14.6541 -1.8287
-16 -20 -12 1.7652 -1.9441
-16 -20 -10 1.6531 -3.9454
-16 -20 -8 -0.8501 -4.7476
-16 -20 -6 0.4843 -1.7047
-16 -20 -4 -3.7685 -2.1595
-16 -20 -2 7.6932 -0.2475
-16 -19 -13 0.0960 1.0805
-16 -19 -11 1.9539 3.0356
-16 -19 -9 4.3903 8.3992
-16 -19 -7 5.4290 5.8183
-16 -19 -5 -0.4416 3.8433
-16 -19 -3 1.8471 -1.5087
-16 -19 -1 -5.5675 -6.0570
-16 -18 -14 -3.0693 3.1574
-16 -18 -12 -2.9422 -5.5821
-16 -18 -10 -1.8298 -5.7416
-16 -18 -8 -6.5818 -5.2553
-16 -18 -6 -4.2444 -4.4256
-16 -18 -4 -0.4579 -2.3295
-16 -18 -2 6.0682 2.8533
-16 -17 -15 1.7115 5.9402
-16 -17 -13 -2.1805 3.4116
-16 -17 -11 -1.8876 0.7452
-16 -17 -9 -0.6073 1.8938
-16 -17 -7 4.0925 0.6464
-16 -17 -5 -1.6721 6.1022
-16 -17 -3 -1.0188 0.4520
-16 -17 -1 -6.9908 -3.5359
-16 -16 -18 1.5213 -2.6546
-16 -16 -16 -2.7666 -8.4129
-16 -16 -14 2.7801 -4.8907
-16 -16 -12 1.9068 -2.8798
-16 -16 -10 5.1088 2.0210
-16 -16 -8 2.0854 0.6048
-16 -16 -6 -0.8874 -1.7764
-16 -16 -4 -1.7315 -0.9567
-16 -16 -2 2.7632 1.8239
-16 -15 -19 0.5246 2.6261
-16 -15 -17 0.6281 0.2465
-16 -15 -15 -0.8133 3.5148
-16 -15 -13 -0.2209 -1.8255
-16 -15 -11 -1.1146 0.3546
-16 -15 -9 -3.2916 1.3443
-16 -15 -7 1.0774 -3.3430
-16 -15 -5 2.0604 1.3576
-16 -15 -3 2.3244 -2.9682
-16 -15 -1 0.4992 0.1535
-16 -14 -18 0.0660 -0.7610
-16 -14 -16 -2.0549 1.5478
-16 -14 -14 1.1779 3.5943
-16 -14 -12 -1.8097 0.4020
-16 -14 -10 -1.4387 1.6530
-16 -14 -8 -4.5147 2.7172
-16 -14 -6 -0.6011 1.7924
-16 -14 -4 0.4200 1.9415
-16 -14 -2 -3.3517 1.2935
-16 -13 -19 3.8370 2.6160
-16 -13 -17 6.6909 -0.3229
-16 -13 -15 1.5954 5.3822
-16 -13 -13 -0.5722 -1.4340
-16 -13 -11 -0.5670 -1.4634
-16 -13 -9 3.3050 -2.1902
-16 -13 -7 1.4713 -6.1733
-16 -13 -5 -0.3216 -3.8717
-16 -13 -3 -0.8734 -2.8196
-16 -13 -1 5.9152 5.3235
-16 -12 -20 -0.7983 -1.3960
-16 -12 -18 -4.7447 -3.9579
-16 -12 -16 -6.1242 -7.9128
-16 -12 -14 -1.3439 -4.1351
-16 -12 -12 1.9522 1.0588
-16 -12 -10 0.0278 4.6556
-16 -12 -8 -4.4789 4.8126
-16 -12 -6 -0.5857 2.3148
-16 -12 -4 -0.5067 0.7214
-16 -12 -2 -0.7506 -2.8602
-16 -11 -21 -3.9585 1.2827
-16 -11 -19 1.2083 2.7416
-16 -11 -17 3.5402 3.8252
-16 -11 -15 2.0399 4.1436
-16 -11 -13 3.6006 -2.6542
-16 -11 -11 -4.4915 -0.0712
-16 -11 -9 -1.5946 -2.4997
-16 -11 -7 2.6702 -3.6734
-16 -11 -5 5.2529 -0.3954
-16 -11 -3 -3.7611 -0.6607
-16 -11 -1 -1.5822 4.1918
-16 -10 -20 2.9718 -1.7021
-16 -10 -18 3.4062 -6.2269
-16 -10 -16 4.5131 -1.2896
-16 -10 -14 -1.7529 4.1525
-16 -10 -12 3.0488 2.3944
-16 -10 -10 2.9810 2.9693
-16 -10 -8 -2.1948 7.2294
-16 -10 -6 -3.0135 1.4253
-16 -10 -4 0.0431 0.3773
-16 -10 -2 6.4962 -0.8853
-16 -9 -21 -6.1767 2.4191
-16 -9 -19 -2.8968 1.1137
-16 -9 -17 -4.3222 0.4731
-16 -9 -15 -4.9198 -3.6852
-16 -9 -13 -0.1061 -5.1583
-16 -9 -11 -3.5495 -2.7056
-16 -9 -9 1.9308 -5.8050
-16 -9 -7 -0.9198 -4.2548
-16 -9 -5 -0.2514 -4.5752
-16 -9 -3 -2.8275 -6.1391
-16 -9 -1 -3.3243 -2.2243
-16 -8 -20 1.3530 -1.2005
-16 -8 -18 -0.1645 -3.1511
-16 -8 -16 5.0030 3.2798
-16 -8 -14 1.5396 3.4288
-16 -8 -12 3.5450 6.5524
-16 -8 -10 -2.4095 3.9943
-16 -8 -8 1.7962 8.7420
-16 -8 -6 1.6723 3.4040
-16 -8 -4 -2.7337 4.7460
-16 -8 -2 1.0102 1.1002
-16 -7 -19 3.3635 -1.3423
-16 -7 -17 1.7210 -0.8250
-16 -7 -15 -3.4577 -3.7052
-16 -7 -13 -0.7561 -3.3744
-16 -7 -11 -1.1704 -2.6563
-16 -7 -9 -0.1836 -9.3212
-16 -7 -7 -0.2644 -5.6988
-16 -7 -5 3.6507 0.8865
-16 -7 -3 3.8495 -1.9248
-16 -7 -1 -0.3367 -8.4706
-16 -6 -20 -3.2156 0.0312
-16 -6 -18 -1.8929 -4.8143
-16 -6 -16 4.5095 1.9802
-16 -6 -14 -0.3205 -0.6084
-16 -6 -12 0.7663 5.3044
-16 -6 -10 -1.9077 2.5810
-16 -6 -8 1.6430 10.8166
-16 -6 -6 -2.6480 -0.5919
-16 -6 -4 -0.1008 1.1671
-16 -6 -2 5.4675 3.3489
-16 -5 -19 -0.3933 -0.5493
-16 -5 -17 -0.5540 2.7334
-16 -5 -15 -0.1660 -2.0894
-16 -5 -13 2.2255 -4.5490
-16 -5 -11 2.2459 -3.8754
-16 -5 -9 0.2555 -7.4559
-16 -5 -7 -2.4190 -2.5847
-16 -5 -5 -0.8882 -1.7992
-16 -5 -3 2.1150 -1.5270
-16 -5 -1 -9.9298 -10.2363
-16 -4 -20 0.7824 2.5528
-16 -4 -18 0.3231 -2.7963
-16 -4 -16 1.7298 3.2657
-16 -4 -14 -4.7339 4.4701
-16 -4 -12 -3.5668 7.3204
-16 -4 -10 -1.1136 0.1130
-16 -4 -8 8.2647 4.3012
-16 -4 -6 8.2004 1.1797
-16 -4 -4 5.0195 4.4470
-16 -4 -2 -0.5321 0.4016
-16 -3 -19 -1.4890 -4.8458
-16 -3 -17 0.5980 -1.8464
-16 -3 -15 2.1734 -3.6788
-16 -3 -13 3.4784 -3.9537
-16 -3 -11 -1.3381 4.9733
-16 -3 -9 -5.6083 -3.6033
-16 -3 -7 -6.4849 0.2415
-16 -3 -5 -6.7059 3.9878
-16 -3 -3 -1.3296 3.0319
-16 -3 -1 -1.4486 -8.7826
-16 -2 -18 -0.9031 1.1277
-16 -2 -16 1.4297 -2.1288
-16 -2 -14 -1.9964 0.2408
-16 -2 -12 -2.2206 -6.9511
-16 -2 -10 0.4848 -5.4924
-16 -2 -8 1.0933 -0.3793
-16 -2 -6 4.8768 -9.9113
-16 -2 -4 16.0253 -11.8126
-16 -2 -2 -3.0880 -1.4644
-16 -1 -19 1.7209 -2.0516
-16 -1 -17 4.4707 5.0468
-16 -1 -15 9.0467 5.8682
-16 -1 -13 6.7581 1.3288
-16 -1 -11 -0.3879 11.5841
-16 -1 -9 1.9552 4.3399
-16 -1 -7 -1.0531 11.8779
-16 -1 -5 -2.5949 13.2288
-16 -1 -3 -1.7075 10.2331
-16 -1 -1 -6.2582 -0.3749
-16 0 -18 -5.3388 -5.3746
-16 0 -16 -8.3994 -10.3366
-16 0 -14 -9.7147 -1.5274
-16 0 -12 -6.0532 -6.7609
-16 0 -10 -4.4544 -6.9967
-16 0 -8 -0.9057 -11.6979
-16 0 -6 4.7274 -12.2244
-16 0 -4 6.7833 -14.5663
-16 0 -2 -8.8970 -11.1773
-15 -27 -1 -1.1986 -0.2941
-15 -26 -2 0.8015 -1.5878
-15 -25 -9 -0.8114 -0.5152
-15 -25 -7 3.1892 -0.5118
-15 -25 -5 5.0430 -1.4268
-15 -25 -3 -0.2683 2.7881
-15 -25 -1 -0.1293 4.1951
-15 -24 -12 -1.8999 1.9410
-15 -24 -10 2.2146 3.0875
-15 -24 -8 -3.3522 4.0955
-15 -24 -6 -0.6283 2.8104
-15 -24 -4 0.3697 -2.2515
-15 -24 -2 6.0698 -5.1221
-15 -23 -11 -0.0855 -3.6837
-15 -23 -9 -2.0926 -3.6433
-15 -23 -7 -0.8191 -2.8182
-15 -23 -5 -2.8322 -1.3942
-15 -23 -3 -8.4715 2.9398
-15 -23 -1 -1.4254 6.3951
-15 -22 -12 -3.2259 6.2142
-15 -22 -10 3.3060 2.4675
-15 -22 -8 -2.0005 -0.4182
-15 -22 -6 3.9080 2.3738
-15 -22 -4 2.1090 1.6467
-15 -22 -2 3.5393 -0.8311
-15 -21 -13 1.3456 -5.6793
-15 -21 -11 1.1807 -8.9311
-15 -21 -9 2.1168 -1.3373
-15 -21 -7 2.6223 -0.9928
-15 -21 -5 0.8759 -4.1359
-15 -21 -3 0.7677 -2.5945
-15 -21 -1 5.0538 4.0331
-15 -20 -12 -0.5285 1.7613
-15 -20 -10 4.6320 4.8545
-15 -20 -8 -3.3986 5.4077
-15 -20 -6 -3.4847 6.4411
-15 -20 -4 -1.7047 1.8982
-15 -20 -2 2.9972 -0.2141
-15 -19 -13 0.6305 4.4223
-15 -19 -11 0.9658 -1.3434
-15 -19 -9 -4.0078 -2.8848
-15 -19 -7 0.5141 -5.3639
-15 -19 -5 -4.1510 -0.4167
-15 -19 -3 -2.6344 -0.1287
-15 -19 -1 -0.8671 2.6542
-15 -18 -14 -2.2277 0.3133
-15 -18 -12 -5.1329 -2.4451
-15 -18 -10 2.1598 -0.7315
-15 -18 -8 4.5860 -2.2213
-15 -18 -6 2.6971 1.6125
-15 -18 -4 2.0414 0.7132
-15 -18 -2 1.1259 0.1203
-15 -17 -17 -4.0446 2.8151
-15 -17 -15 1.8281 0.1860
-15 -17 -13 -2.3054 0.1148
-15 -17 -11 4.4842 -0.8281
-15 -17 -9 -4.3819 4.4103
-15 -17 -7 0.1332 0.8092
-15 -17 -5 -0.3371 0.3399
-15 -17 -3 4.2631 -4.0945
-15 -17 -1 5.0029 0.4454
-15 -16 -18 1.2537 0.6575
-15 -16 -16 -2.3641 -3.0590
-15 -16 -14 0.8942 -3.4322
-15 -16 -12 -2.9044 -1.4998
-15 -16 -10 0.6380 1.0483
-15 -16 -8 -1.1789 -4.3392
-15 -16 -6 -3.4925 -0.9133
-15 -16 -4 -3.0753 2.4728
-15 -16 -2 -4.2173 6.1282
-15 -15 -19 -0.0866 -3.2587
-15 -15 -17 -0.8795 1.4380
-15 -15 -15 2.7765 3.8819
-15 -15 -13 0.6272 1.6679
-15 -15 -11 4.9371 0.4887
-15 -15 -9 -1.0613 1.9276
-15 -15 -7 5.3869 0.6710
-15 -15 -5 5.1839 2.8302
-15 -15 -3 -0.0380 -5.2941
-15 -15 -1 2.5527 -1.3619
-15 -14 -20 0.6184 1.9261
-15 -14 -18 1.8058 0.5232
-15 -14 -16 2.7351 -3.8035
-15 -14 -14 0.3987 -3.1397
-15 -14 -12 -6.4398 -0.1684
-15 -14 -10 -1.5418 2.5083
-15 -14 -8 -4.8002 -0.3551
-15 -14 -6 -2.2555 -2.1288
-15 -14 -4 -3.6310 -4.2553
-15 -14 -2 1.8459 4.7025
-15 -13 -21 -0.2422 2.3898
-15 -13 -19 1.9784 -1.0343
-15 -13 -17 -0.9911 5.0899
-15 -13 -15 -3.3541 5.8346
-15 -13 -13 0.6983 -0.5955
-15 -13 -11 3.0073 -0.5433
-15 -13 -9 -3.3989 0.0519
-15 -13 -7 2.9380 -1.3674
-15 -13 -5 8.9714 7.0324
-15 -13 -3 -5.9393 0.7253
-15 -13 -1 -5.7702 0.3200
-15 -12 -20 -1.9705 -1.8247
-15 -12 -18 -0.7159 -2.9323
-15 -12 -16 5.8926 -5.7049
-15 -12 -14 0.1417 -1.2627
-15 -12 -12 -4.6915 0.8765
-15 -12 -10 1.7170 -0.9179
-15 -12 -8 -2.6875 -1.2191
-15 -12 -6 -1.4002 -6.8542
-15 -12 -4 -3.8211 -9.6187
-15 -12 -2 7.6596 6.9698
-15 -11 -21 -0.3152 3.7125
-15 -11 -19 0.6244 -0.2249
-15 -11 -17 -2.0762 -0.7965
-15 -11 -15 0.3398 -1.8857
-15 -11 -13 6.4385 0.5452
-15 -11 -11 1.5941 1.7431
-15 -11 -9 -2.6775 4.7299
-15 -11 -7 0.8562 5.1207
-15 -11 -5 7.3861 5.8379
-15 -11 -3 -2.2775 -7.4369
-15 -11 -1 5.9926 -1.9276
-15 -10 -22 -1.7440 -2.4218
-15 -10 -20 -2.9287 -3.6702
-15 -10 -18 0.5397 1.7619
-15 -10 -16 0.7858 3.8882
-15 -10 -14 -4.7723 -1.4603
-15 -10 -12 3.2832 -0.9486
-15 -10 -10 4.3996 2.9224
-15 -10 -8 -3.8629 0.7099
-15 -10 -6 -2.4433 -1.1205
-15 -10 -4 -10.5694 -1.4043
-15 -10 -2 -4.9592 2.0991
-15 -9 -21 1.1027 7.9088
-15 -9 -19 3.1786 -1.8891
-15 -9 -17 3.0417 -4.1316
-15 -9 -15 0.1793 -1.2952
-15 -9 -13 -2.3941 4.5636
-15 -9 -11 -8.8645 -3.5677
-15 -9 -9 0.0990 -5.2737
-15 -9 -7 4.7844 -1.5313
-15 -9 -5 8.8929 0.6335
-15 -9 -3 2.0613 0.0132
-15 -9 -1 3.5317 10.4317
-15 -8 -20 -4.7374 0.3071
-15 -8 -18 -1.0955 -0.9563
-15 -8 -16 2.8263 -2.1130
-15 -8 -14 -0.4791 -0.4520
-15 -8 -12 1.6812 1.0690
-15 -8 -10 2.5816 -0.0279
-15 -8 -8 -1.8755 -2.0549
-15 -8 -6 -0.7867 2.9040
-15 -8 -4 0.4577 0.8612
-15 -8 -2 6.9437 -6.8941
-15 -7 -21 0.8243 0.1591
-15 -7 -19 1.9599 -5.0823
-15 -7 -17 2.0680 2.3279
-15 -7 -15 -1.2598 -0.9091
-15 -7 -13 7.1424 -0.7402
-15 -7 -11 1.2061 1.5715
-15 -7 -9 2.0445 4.9708
-15 -7 -7 -3.7304 5.1387
-15 -7 -5 -5.1992 -3.2529
-15 -7 -3 -6.2613 -4.8893
-15 -7 -1 -2.8008 8.6618
-15 -6 -20 -3.8756 -0.3672
-15 -6 -18 -1.3613 1.7416
-15 -6 -16 -4.5882 0.9042
-15 -6 -14 -4.7401 0.6565
-15 -6 -12 1.0618 2.5299
-15 -6 -10 1.8624 -0.5026
-15 -6 -8 -2.4226 -11.1295
-15 -6 -6 4.8087 -1.7127
-15 -6 -4 8.2881 4.3529
-15 -6 -2 7.3797 -5.8191
-15 -5 -21 2.2710 9.4864
-15 -5 -19 -1.4304 -3.6847
-15 -5 -17 6.3977 -5.7827
-15 -5 -15 0.8802 -2.7392
-15 -5 -13 -5.9080 1.6356
-15 -5 -11 -10.6168 -3.2968
-15 -5 -9 6.5972 -2.0560
-15 -5 -7 5.7897 10.3278
-15 -5 -5 -0.9868 3.0410
-15 -5 -3 -2.2853 0.1568
-15 -5 -1 -5.1655 5.9585
-15 -4 -20 -0.6363 -4.6000
-15 -4 -18 1.2296 2.7175
-15 -4 -16 0.6971 2.4981
-15 -4 -14 6.5270 1.0889
-15 -4 -12 8.2083 -0.8267
-15 -4 -10 4.0350 -0.2494
-15 -4 -8 -6.2708 -9.4525
-15 -4 -6 -1.7741 -0.7289
-15 -4 -4 3.2280 6.8276
-15 -4 -2 -4.2063 5.7962
-15 -3 -21 1.0533 0.7912
-15 -3 -19 0.2087 -2.3704
-15 -3 -17 1.7343 5.0750
-15 -3 -15 -5.9372 -0.7568
-15 -3 -13 -5.4974 -2.6229
-15 -3 -11 -4.2813 0.8888
-15 -3 -9 -0.7297 -1.1524
-15 -3 -7 2.6846 3.7166
-15 -3 -5 4.8483 -7.2147
-15 -3 -3 5.0786 -14.3421
-15 -3 -1 8.5361 -8.5603
-15 -2 -20 -1.6496 -0.1413
-15 -2 -18 -5.0503 -3.1565
-15 -2 -16 -0.5357 -5.3898
-15 -2 -14 7.3819 4.7036
-15 -2 -12 1.1711 3.2163
-15 -2 -10 2.3150 3.6675
-15 -2 -8 2.2045 -4.1676
-15 -2 -6 1.1877 6.9909
-15 -2 -4 0.8055 7.8908
-15 -2 -2 -11.1969 9.1713
-15 -1 -19 -1.6662 -2.7038
-15 -1 -17 2.6507 2.0390
-15 -1 -15 -1.9208 -1.6587
-15 -1 -13 -7.3493 -3.8359
-15 -1 -11 -1.6657 -3.3894
-15 -1 -9 -3.7209 -4.7376
-15 -1 -7 -3.2019 2.0948
-15 -1 -5 3.1814 -9.3341
-15 -1 -3 0.9605 -8.9455
-15 -1 -1 -5.1783 -6.0054
-15 0 -20 5.2082 -3.9814
-15 0 -18 0.3908 3.9634
-15 0 -16 -0.4636 1.5828
-15 0 -14 9.3983 3.2949
-15 0 -12 3.1324 -0.6022
-15 0 -10 0.1692 3.9598
-15 0 -8 5.0799 -5.4224
-15 0 -6 7.7020 9.2981
-15 0 -4 4.3728 7.5692
-15 0 -2 -8.8020 3.2806
-14 -27 -1 7.5497 -0.7312
-14 -26 -8 0.2095 -0.1268
-14 -26 -6 1.8841 -3.0060
-14 -26 -4 3.9554 5.4712
-14 -26 -2 -0.8648 -0.3713
-14 -25 -9 -2.6923 -1.1508
-14 -25 -7 0.4837 -0.1885
-14 -25 -5 -6.1432 -2.3986
-14 -25 -3 -5.3029 -4.3945
-14 -25 -1 2.0591 -0.1745
-14 -24 -12 0.7433 7.1879
-14 -24 -10 -2.4602 0.0570
-14 -24 -8 -1.9964 -0.4002
-14 -24 -6 0.1569 -4.4529
-14 -24 -4 3.8738 5.5232
-14 -24 -2 -0.4495 -0.2997
-14 -23 -13 -3.4000 -3.9856
-14 -23 -11 3.1038 -5.3522
-14 -23 -9 2.6205 1.9475
-14 -23 -7 5.8816 1.1146
-14 -23 -5 3.2770 -0.0718
-14 -23 -3 2.5223 1.8762
-14 -23 -1 -1.4275 4.8451
-14 -22 -12 3.1340 0.0150
-14 -22 -10 2.3813 -2.7478
-14 -22 -8 -1.6315 2.4663
-14 -22 -6 -4.0270 0.3167
-14 -22 -4 -2.1232 3.0335
-14 -22 -2 0.9154 -5.7626
-14 -21 -13 -0.5939 5.0530
-14 -21 -11 -0.5113 3.7876
-14 -21 -9 -2.2519 2.6324
-14 -21 -7 -1.0511 -2.3309
-14 -21 -5 -5.6275 -1.4740
-14 -21 -3 -0.8931 -0.7557
-14 -21 -1 -4.0027 0.2868
-14 -20 -14 -0.7620 2.4302
-14 -20 -12 0.0970 0.0237
-14 -20 -10 1.8523 -2.4867
-14 -20 -8 1.4745 0.7168
-14 -20 -6 2.4494 0.1735
-14 -20 -4 4.6158 6.0067
-14 -20 -2 3.4309 0.3213
-14 -19 -15 -0.1559 -0.9753
-14 -19 -13 -4.3415 -5.3459
-14 -19 -11 0.6346 -4.9903
-14 -19 -9 -0.5971 -2.4749
-14 -19 -7 -1.7090 -4.7579
-14 -19 -5 -4.7625 -4.0877
-14 -19 -3 4.9749 -5.3269
-14 -19 -1 -4.5960 -4.6639
-14 -18 -16 -4.8624 -4.5146
-14 -18 -14 1.1142 2.0201
-14 -18 -12 1.4452 4.0462
-14 -18 -10 1.9462 3.9140
-14 -18 -8 2.7408 2.2221
-14 -18 -6 0.4805 0.9721
-14 -18 -4 -1.5820 6.8199
-14 -18 -2 -0.8798 3.1768
-14 -17 -17 1.4744 1.2748
-14 -17 -15 3.2881 -1.9310
-14 -17 -13 -1.8410 -5.6626
-14 -17 -11 0.3529 1.5261
-14 -17 -9 0.3391 0.6317
-14 -17 -7 2.6442 0.5874
-14 -17 -5 -0.9462 8.2221
-14 -17 -3 4.6059 0.5757
-14 -17 -1 -3.7130 -4.5152
-14 -16 -18 2.6693 -0.1113
-14 -16 -16 -2.5172 1.8858
-14 -16 -14 1.0091 4.4913
-14 -16 -12 -2.0902 -1.0688
-14 -16 -10 -3.0901 -1.7937
-14 -16 -8 -2.5360 -0.5740
-14 -16 -6 0.1116 -5.8069
-14 -16 -4 -2.0332 -5.2996
-14 -16 -2 -4.6829 -1.9086
-14 -15 -19 -3.5105 2.0277
-14 -15 -17 2.2547 1.7760
-14 -15 -15 3.8158 4.5270
-14 -15 -13 -0.5691 -2.1200
-14 -15 -11 1.3105 3.3940
-14 -15 -9 -1.6477 0.0799
-14 -15 -7 -4.3547 -3.8557
-14 -15 -5 0.2155 3.2827
-14 -15 -3 7.5584 0.6984
-14 -15 -1 0.5818 -0.0444
-14 -14 -20 2.3251 0.3903
-14 -14 -18 3.4770 -1.1065
-14 -14 -16 -3.8414 -3.5730
-14 -14 -14 -0.0861 -4.0160
-14 -14 -12 0.1342 1.3028
-14 -14 -10 -1.7563 2.5535
-14 -14 -8 0.8513 -0.8201
-14 -14 -6 7.0674 -5.4977
-14 -14 -4 -5.4474 -3.1648
-14 -14 -2 -6.0179 -1.2443
-14 -13 -21 0.5949 -3.0392
-14 -13 -19 -6.9795 1.2931
-14 -13 -17 -2.2034 -3.9407
-14 -13 -15 0.1644 2.4398
-14 -13 -13 -0.5819 -4.1496
-14 -13 -11 -1.4173 -2.9308
-14 -13 -9 1.3615 -0.6798
-14 -13 -7 1.9162 4.5523
-14 -13 -5 5.1043 10.3942
-14 -13 -3 2.5165 3.8155
-14 -13 -1 -5.0400 3.2888
-14 -12 -22 -2.5351 -1.0690
-14 -12 -20 1.4262 -0.2298
-14 -12 -18 5.2287 2.2971
-14 -12 -16 3.7491 5.4180
-14 -12 -14 0.0359 2.0791
-14 -12 -12 2.9569 -0.6347
-14 -12 -10 -1.4762 3.9003
-14 -12 -8 -6.9047 6.1882
-14 -12 -6 2.1300 -5.2534
-14 -12 -4 -3.2938 -6.2986
-14 -12 -2 -2.5420 -5.0847
-14 -11 -23 -0.6249 5.4990
-14 -11 -21 -2.1140 2.2239
-14 -11 -19 -0.4205 0.4346
-14 -11 -17 4.1954 -8.1044
-14 -11 -15 0.6215 -0.3638
-14 -11 -13 3.7165 1.5606
-14 -11 -11 0.1284 2.9980
-14 -11 -9 3.2076 -2.2666
-14 -11 -7 -1.6272 -2.8063
-14 -11 -5 -4.8861 1.3201
-14 -11 -3 -4.2101 -1.2589
-14 -11 -1 -1.1874 3.2671
-14 -10 -22 -2.2166 -4.3931
-14 -10 -20 -0.4589 1.8272
-14 -10 -18 -5.7913 2.8707
-14 -10 -16 -2.0505 -0.2580
-14 -10 -14 -3.2965 -0.0506
-14 -10 -12 -1.0030 -1.2204
-14 -10 -10 -6.2335 -2.1854
-14 -10 -8 -3.2369 2.1573
-14 -10 -6 5.5150 -6.3455
-14 -10 -4 3.5513 -5.2640
-14 -10 -2 2.9897 -6.4073
-14 -9 -21 -2.1562 -1.6948
-14 -9 -19 1.3517 -3.9494
-14 -9 -17 5.6726 -5.8878
-14 -9 -15 -2.4837 0.3747
-14 -9 -13 4.1336 -1.0053
-14 -9 -11 0.4692 1.6387
-14 -9 -9 2.7924 -2.2879
-14 -9 -7 2.3437 3.8974
-14 -9 -5 -2.0725 14.2677
-14 -9 -3 -2.3468 3.1916
-14 -9 -1 4.2691 -1.3206
-14 -8 -22 -4.9002 1.0925
-14 -8 -20 2.1344 2.1608
-14 -8 -18 2.0370 3.5749
-14 -8 -16 4.1359 7.1530
-14 -8 -14 -3.4983 2.0767
-14 -8 -12 4.1179 -1.7763
-14 -8 -10 5.2365 0.1651
-14 -8 -8 2.7361 7.3886
-14 -8 -6 -0.8637 -9.7182
-14 -8 -4 5.3272 -5.6638
-14 -8 -2 -3.6070 1.0232
-14 -7 -21 -5.7242 2.4972
-14 -7 -19 -5.7296 -1.9557
-14 -7 -17 -2.4940 -12.1981
-14 -7 -15 -5.0117 -7.3292
-14 -7 -13 1.0336 2.1271
-14 -7 -11 -6.8281 4.1979
-14 -7 -9 -3.5124 -9.1453
-14 -7 -7 -0.4824 -2.0789
-14 -7 -5 -8.6689 7.6300
-14 -7 -3 -1.4611 -3.3952
-14 -7 -1 9.4470 -10.7716
-14 -6 -22 4.0050 0.7278
-14 -6 -20 5.3693 1.9313
-14 -6 -18 3.0490 1.4451
-14 -6 -16 5.9181 7.2750
-14 -6 -14 -0.5734 -0.3002
-14 -6 -12 3.5609 -2.2198
-14 -6 -10 4.0554 -2.1747
-14 -6 -8 4.7623 9.2675
-14 -6 -6 -0.8412 1.8909
-14 -6 -4 7.2080 3.5633
-14 -6 -2 1.7822 -0.1471
-14 -5 -21 -6.7529 -4.0372
-14 -5 -19 -0.8015 -3.2207
-14 -5 -17 2.6452 -1.8332
-14 -5 -15 -4.2211 2.7808
-14 -5 -13 1.9771 4.3046
-14 -5 -11 -2.3354 6.2401
-14 -5 -9 -2.7296 -12.4115
-14 -5 -7 3.8051 -12.3729
-14 -5 -5 -3.1765 -0.8395
-14 -5 -3 1.5007 4.5979
-14 -5 -1 5.4878 -9.7026
-14 -4 -22 -0.5400 -1.8803
-14 -4 -20 -0.6508 2.7469
-14 -4 -18 -0.8908 -0.9414
-14 -4 -16 -1.0812 -0.6869
-14 -4 -14 -6.4624 -5.0944
-14 -4 -12 -1.6759 -6.2922
-14 -4 -10 2.6673 -2.4951
-14 -4 -8 4.5233 8.8598
-14 -4 -6 0.7430 2.0436
-14 -4 -4 8.7856 -4.2322
-14 -4 -2 -6.7641 -6.6024
-14 -3 -21 2.3031 -0.8934
-14 -3 -19 -0.8911 0.0424
-14 -3 -17 -1.0730 -0.7612
-14 -3 -15 0.4302 4.0780
-14 -3 -13 5.2192 1.1283
-14 -3 -11 -1.8851 6.5034
-14 -3 -9 -1.0647 -3.3307
-14 -3 -7 -0.8636 3.9184
-14 -3 -5 -7.0829 6.7415
-14 -3 -3 2.4506 11.6448
-14 -3 -1 7.5049 -4.8368
-14 -2 -20 -4.3229 3.1621
-14 -2 -18 4.9828 -1.3678
-14 -2 -16 2.8671 -2.9411
-14 -2 -14 -2.2029 1.6932
-14 -2 -12 0.4231 -4.2234
-14 -2 -10 0.2553 -3.9584
-14 -2 -8 5.1241 -5.3019
-14 -2 -6 7.3504 -2.9956
-14 -2 -4 6.4567 -8.4261
-14 -2 -2 -15.5839 -10.2757
-14 -1 -21 1.5647 -6.6176
-14 -1 -19 -0.8363 0.0169
-14 -1 -17 -5.4806 1.7944
-14 -1 -15 -0.6368 1.5392
-14 -1 -13 5.9079 -5.9036
-14 -1 -11 -5.9405 7.2642
-14 -1 -9 -2.3275 -6.8913
-14 -1 -7 0.7638 -0.9407
-14 -1 -5 -7.1103 2.1903
-14 -1 -3 -5.5926 -0.9472
-14 -1 -1 8.7814 -9.5672
-14 0 -20 -3.6152 5.4972
-14 0 -18 4.0519 -1.1741
-14 0 -16 0.5772 -2.2843
-14 0 -14 -5.1754 7.7680
-14 0 -12 -1.0499 -6.9134
-14 0 -10 3.6369 0.9213
-14 0 -8 1.8550 8.2722
-14 0 -6 5.6994 4.4685
-14 0 -4 19.0280 -5.1525
-14 0 -2 -14.4228 5.3683
-13 -27 -1 2.6867 3.2128
-13 -26 -10 -0.9088 -0.5435
-13 -26 -8 -4.4931 0.9227
-13 -26 -6 -2.6403 0.2276
-13 -26 -4 0.1428 -0.4420
-13 -26 -2 0.4106 -3.2798
-13 -25 -11 -1.6871 2.9237
-13 -25 -9 -0.2816 2.3327
-13 -25 -7 4.9312 -1.5273
-13 -25 -5 3.0510 -2.8757
-13 -25 -3 -3.2673 2.3728
-13 -25 -1 2.2840 4.8514
-13 -24 -12 2.3951 0.7708
-13 -24 -10 7.7227 -2.3285
-13 -24 -8 1.4200 -0.9840
-13 -24 -6 2.3628 1.9186
-13 -24 -4 -0.5765 5.8900
-13 -24 -2 0.1028 0.8232
-13 -23 -13 1.3923 -0.3427
-13 -23 -11 -4.5654 -1.9901
-13 -23 -9 -3.9505 1.2138
-13 -23 -7 -2.8880 0.3529
-13 -23 -5 -1.9474 -2.2706
-13 -23 -3 -2.8293 -0.2248
-13 -23 -1 5.1284 2.7210
-13 -22 -14 -0.8014 -1.2899
-13 -22 -12 -0.5096 1.1055
-13 -22 -10 5.1838 0.4422
-13 -22 -8 -3.9836 0.1474
-13 -22 -6 -0.7664 -4.2538
-13 -22 -4 2.6312 -3.0103
-13 -22 -2 3.8469 0.6721
-13 -21 -15 -0.2153 -0.5304
-13 -21 -13 4.7702 0.7117
-13 -21 -11 4.0210 -0.4722
-13 -21 -9 3.8299 1.2573
-13 -21 -7 1.9014 0.0093
-13 -21 -5 -3.1443 3.5468
-13 -21 -3 -3.7220 3.4157
-13 -21 -1 1.8084 -0.5370
-13 -20 -14 -4.4976 0.0661
-13 -20 -12 -5.9840 1.5493
-13 -20 -10 -0.7176 -1.5692
-13 -20 -8 0.2349 -3.7060
-13 -20 -6 2.9686 -2.0588
-13 -20 -4 3.4867 -1.2814
-13 -20 -2 0.7502 0.9353
-13 -19 -15 3.2344 -0.3832
-13 -19 -13 -2.4304 0.1647
-13 -19 -11 1.2072 -1.7658
-13 -19 -9 -0.5230 1.0405
-13 -19 -7 -1.1914 -0.3894
-13 -19 -5 -5.2039 3.2496
-13 -19 -3 1.1800 4.2722
-13 -19 -1 2.5290 -0.1612
-13 -18 -16 -3.0876 0.1945
-13 -18 -14 1.1610 -3.1206
-13 -18 -12 0.6933 -1.4212
-13 -18 -10 1.1352 4.5313
-13 -18 -8 0.0762 4.5386
-13 -18 -6 -1.6488 5.7238
-13 -18 -4 3.9955 0.3492
-13 -18 -2 3.0033 -3.8359
-13 -17 -17 -1.7849 1.9332
-13 -17 -15 4.9305 1.3409
-13 -17 -13 1.8711 2.3703
-13 -17 -11 4.3921 -0.2397
-13 -17 -9 -2.1667 -9.6776
-13 -17 -7 0.5998 -13.1954
-13 -17 -5 -3.9811 -6.8047
-13 -17 -3 -3.3482 -0.6586
-13 -17 -1 -2.9536 4.0086
-13 -16 -18 0.4600 -0.3895
-13 -16 -16 -0.2388 0.6760
-13 -16 -14 -0.9933 -0.5273
-13 -16 -12 -5.1422 0.9058
-13 -16 -10 -0.7467 7.8404
-13 -16 -8 -0.6954 4.2620
-13 -16 -6 1.2019 5.1926
-13 -16 -4 5.1239 3.9947
-13 -16 -2 -0.1638 -1.9594
-13 -15 -21 2.6242 3.1481
-13 -15 -19 0.3427 -0.7302
-13 -15 -17 -2.0217 2.7366
-13 -15 -15 -2.3543 0.9647
-13 -15 -13 -2.1481 -4.8003
-13 -15 -11 -1.4533 -0.9735
-13 -15 -9 -5.1596 -4.1461
-13 -15 -7 5.7027 -1.2603
-13 -15 -5 3.9713 2.9530
-13 -15 -3 -7.8757 -0.3731
-13 -15 -1 2.2093 6.8066
-13 -14 -22 -0.6979 -4.4141
-13 -14 -20 1.6072 -1.9835
-13 -14 -18 -1.3424 -1.6565
-13 -14 -16 5.0741 -0.6662
-13 -14 -14 2.1974 3.4341
-13 -14 -12 -2.5518 -0.2573
-13 -14 -10 5.1501 0.8170
-13 -14 -8 -3.2411 3.4947
-13 -14 -6 -2.0726 1.0852
-13 -14 -4 4.3853 -0.1449
-13 -14 -2 3.7544 2.7471
-13 -13 -21 -1.8780 1.9023
-13 -13 -19 -3.1326 -0.5224
-13 -13 -17 -0.4197 1.7479
-13 -13 -15 0.6403 -0.0023
-13 -13 -13 8.1198 -2.9125
-13 -13 -11 1.9119 2.8622
-13 -13 -9 -7.5380 1.0445
-13 -13 -7 0.1846 -2.5381
-13 -13 -5 0.7487 -5.3407
-13 -13 -3 -15.4711 -11.0194
-13 -13 -1 6.5561 3.0746
-13 -12 -22 -0.9042 0.3405
-13 -12 -20 3.4340 2.9223
-13 -12 -18 -1.0581 0.7569
-13 -12 -16 3.9592 -2.3285
-13 -12 -14 0.6188 0.7911
-13 -12 -12 2.9501 2.0003
-13 -12 -10 4.7209 2.5398
-13 -12 -8 -4.8288 1.0234
-13 -12 -6 0.0426 -1.2590
-13 -12 -4 -2.1907 0.0526
-13 -12 -2 2.9581 0.1501
-13 -11 -23 1.3897 -3.2726
-13 -11 -21 0.0862 -6.0354
-13 -11 -19 -0.7010 -4.4155
-13 -11 -17 0.3033 2.7730
-13 -11 -15 -9.8556 4.2621
-13 -11 -13 -6.7537 -0.5828
-13 -11 -11 -6.2750 -6.0001
-13 -11 -9 -2.5541 -0.0205
-13 -11 -7 9.1273 3.9022
-13 -11 -5 12.4593 3.8800
-13 -11 -3 -7.9515 1.7474
-13 -11 -1 5.9441 10.2959
-13 -10 -22 -3.1910 2.0715
-13 -10 -20 -0.4727 4.6230
-13 -10 -18 0.7032 -3.7811
-13 -10 -16 8.9462 -4.7232
-13 -10 -14 0.8217 1.4321
-13 -10 -12 -0.2246 -0.4715
-13 -10 -10 2.0459 -1.4741
-13 -10 -8 -4.0281 -0.7103
-13 -10 -6 -7.4963 -0.6590
-13 -10 -4 -6.4300 -0.4644
-13 -10 -2 4.9516 -3.5274
-13 -9 -23 -2.0747 0.7243
-13 -9 -21 -1.8924 -1.1296
-13 -9 -19 -3.0894 2.1884
-13 -9 -17 0.6265 0.9311
-13 -9 -15 2.6086 -2.7763
-13 -9 -13 13.3767 2.9890
-13 -9 -11 6.5504 2.3794
-13 -9 -9 2.8827 8.6950
-13 -9 -7 4.0953 7.4493
-13 -9 -5 4.8932 -5.8207
-13 -9 -3 -8.3222 -13.3002
-13 -9 -1 0.9330 2.7434
-13 -8 -22 0.9058 0.2708
-13 -8 -20 -1.0132 -1.0542
-13 -8 -18 0.7435 -4.4779
-13 -8 -16 -4.7369 1.2275
-13 -8 -14 -9.2030 0.3298
-13 -8 -12 2.8851 0.3826
-13 -8 -10 0.4546 1.0975
-13 -8 -8 -8.4872 -12.0907
-13 -8 -6 -12.6294 -0.7114
-13 -8 -4 -8.2908 11.8295
-13 -8 -2 10.1487 -3.1338
-13 -7 -23 -2.5347 -1.5602
-13 -7 -21 -0.7339 -0.0285
-13 -7 -19 -0.0364 1.9769
-13 -7 -17 5.9085 -0.3643
-13 -7 -15 -3.4991 -2.9833
-13 -7 -13 -8.4329 -1.0165
-13 -7 -11 -11.2139 -5.8137
-13 -7 -9 6.9199 2.3735
-13 -7 -7 10.8703 5.8683
-13 -7 -5 14.6649 -7.7300
-13 -7 -3 7.9688 -4.7601
-13 -7 -1 -4.5822 6.7511
-13 -6 -22 -2.4130 -0.6826
-13 -6 -20 -3.4484 -1.4340
-13 -6 -18 2.8640 -4.1083
-13 -6 -16 4.9806 2.9583
-13 -6 -14 4.6717 9.2780
-13 -6 -12 7.6342 4.1250
-13 -6 -10 7.0906 -3.7747
-13 -6 -8 4.8478 -14.7630
-13 -6 -6 -5.6174 5.9843
-13 -6 -4 -10.4224 14.7585
-13 -6 -2 -5.6865 -0.6120
-13 -5 -23 0.5465 0.9530
-13 -5 -21 1.1775 1.0107
-13 -5 -19 -0.8057 -0.3097
-13 -5 -17 1.2828 1.7589
-13 -5 -15 -6.3695 -7.1984
-13 -5 -13 0.9672 -8.9874
-13 -5 -11 -3.2973 2.5907
-13 -5 -9 -2.5408 13.3397
-13 -5 -7 -6.2685 10.7583
-13 -5 -5 2.5222 -8.0019
-13 -5 -3 7.9425 -11.0324
-13 -5 -1 4.5319 -4.9914
-13 -4 -22 0.2569 0.0565
-13 -4 -20 -4.1438 -0.2435
-13 -4 -18 -1.5472 -2.7726
-13 -4 -16 -4.9350 -1.7226
-13 -4 -14 -3.4186 5.4373
-13 -4 -12 1.6967 2.7035
-13 -4 -10 3.6184 -0.8587
-13 -4 -8 2.5933 -18.6467
-13 -4 -6 -5.2557 -0.0114
-13 -4 -4 -6.8521 5.5808
-13 -4 -2 2.5159 -1.3992
-13 -3 -21 -3.6305 3.4396
-13 -3 -19 1.3057 -0.7145
-13 -3 -17 9.2522 3.7802
-13 -3 -15 4.4167 -1.6604
-13 -3 -13 0.3784 -3.3611
-13 -3 -11 -4.8979 0.8478
-13 -3 -9 3.8831 2.6411
-13 -3 -7 8.0168 3.5330
-13 -3 -5 12.0513 -11.8791
-13 -3 -3 2.3074 -4.6090
-13 -3 -1 -10.5154 0.4310
-13 -2 -22 2.8686 -6.0543
-13 -2 -20 -0.3741 -1.9023
-13 -2 -18 -3.6658 0.0778
-13 -2 -16 -7.1697 0.5174
-13 -2 -14 -1.3520 5.7144
-13 -2 -12 0.9033 -6.0237
-13 -2 -10 0.5224 -0.4288
-13 -2 -8 0.5063 -9.8804
-13 -2 -6 -3.1625 13.7381
-13 -2 -4 -5.4479 6.2674
-13 -2 -2 -8.9824 -4.8238
-13 -1 -21 -1.4853 2.0325
-13 -1 -19 4.9970 -6.5614
-13 -1 -17 5.5050 4.9153
-13 -1 -15 -1.6010 -1.7125
-13 -1 -13 -4.6047 -6.3582
-13 -1 -11 -6.2863 1.4107
-13 -1 -9 -2.5615 4.6159
-13 -1 -7 3.4393 9.7888
-13 -1 -5 6.3264 -6.5152
-13 -1 -3 -7.3736 -0.0383
-13 -1 -1 -6.4977 5.6393
-13 0 -22 -2.4683 -2.7458
-13 0 -20 -7.0268 7.9183
-13 0 -18 -8.3313 2.1915
-13 0 -16 -3.5821 -6.9315
-13 0 -14 9.4764 4.0696
-13 0 -12 9.4305 0.2437
-13 0 -10 4.4598 6.7669
-13 0 -8 2.5771 -16.3264
-13 0 -6 -1.9183 -3.3453
-13 0 -4 1.0510 -14.8697
-13 0 -2 -1.4029 -18.0803
-12 -27 -9 -2.3548 2.8410
-12 -27 -1 -10.2130 -2.6911
-12 -26 -12 3.4118 3.8015
-12 -26 -10 1.3593 0.1899
-12 -26 -8 5.2231 -2.7129
-12 -26 -6 -0.2326 -4.0358
-12 -26 -4 0.7687 6.3930
-12 -26 -2 4.4968 -1.3400
-12 -25 -13 -1.8559 0.0698
-12 -25 -11 -0.1765 -2.4509
-12 -25 -9 -4.5002 2.6875
-12 -25 -7 3.0840 1.6428
-12 -25 -5 2.4081 0.8463
-12 -25 -3 0.8217 3.7305
-12 -25 -1 -2.7835 3.0976
-12 -24 -14 -1.6286 -4.6832
-12 -24 -12 1.4117 -1.9234
-12 -24 -10 -0.9564 -6.0633
-12 -24 -8 -1.3006 -0.1370
-12 -24 -6 -6.7782 -5.6613
-12 -24 -4 0.8726 4.1245
-12 -24 -2 -1.1380 -1.7349
-12 -23 -15 -0.5890 -2.0727
-12 -23 -13 2.9433 3.2469
-12 -23 -11 7.4364 5.3312
-12 -23 -9 3.3914 9.1109
-12 -23 -7 6.5210 -2.4227
-12 -23 -5 -2.9753 -6.6906
-12 -23 -3 -2.1274 -7.1069
-12 -23 -1 0.6358 -0.1072
-12 -22 -14 -0.8191 0.4053
-12 -22 -12 -3.1150 3.3464
-12 -22 -10 -3.3035 -5.3957
-12 -22 -8 -0.8839 0.2243
-12 -22 -6 -4.2708 1.4366
-12 -22 -4 1.8314 13.4119
-12 -22 -2 -3.1166 2.4270
-12 -21 -15 -5.3508 -1.0056
-12 -21 -13 -4.2094 -2.3654
-12 -21 -11 -1.3387 -5.4611
-12 -21 -9 -2.0002 0.9559
-12 -21 -7 3.8727 -5.6439
-12 -21 -5 -0.3359 -7.9052
-12 -21 -3 9.6325 -4.0393
-12 -21 -1 4.2717 2.2679
-12 -20 -16 0.9873 2.7696
-12 -20 -14 2.8020 -0.1215
-12 -20 -12 3.2743 1.2154
-12 -20 -10 4.4098 -0.0818
-12 -20 -8 2.3897 3.9585
-12 -20 -6 -5.1254 3.4344
-12 -20 -4 0.8372 12.7088
-12 -20 -2 -7.0787 1.9826
-12 -19 -13 2.1799 -1.3877
-12 -19 -11 0.8813 1.1038
-12 -19 -9 -0.9931 -1.1617
-12 -19 -7 4.0492 -4.8355
-12 -19 -5 -6.8833 -3.3907
-12 -19 -3 4.4607 -4.0271
-12 -19 -1 1.6777 -3.1247
-12 -18 -16 0.4647 4.1915
-12 -18 -14 0.3107 5.6655
-12 -18 -12 -1.8369 3.4988
-12 -18 -10 0.0797 1.5542
-12 -18 -8 3.4784 0.3205
-12 -18 -6 -0.9564 -1.6380
-12 -18 -4 3.7132 5.0178
-12 -18 -2 -3.9340 -0.1652
-12 -17 -19 -1.5264 -4.6689
-12 -17 -17 -0.3256 -1.6887
-12 -17 -15 -1.9504 1.4023
-12 -17 -13 -2.4435 -5.7401
-12 -17 -11 -2.3089 -0.5352
-12 -17 -9 -7.4125 -1.9230
-12 -17 -7 -6.8216 -3.5146
-12 -17 -5 -8.9145 -2.6646
-12 -17 -3 6.0642 -4.1581
-12 -17 -1 1.3723 -7.0054
-12 -16 -20 2.9630 3.0292
-12 -16 -18 0.8072 4.2925
-12 -16 -16 -2.0636 -0.1315
-12 -16 -14 2.5030 0.5026
-12 -16 -12 -1.3338 5.8233
-12 -16 -10 -3.6481 4.0541
-12 -16 -8 7.2638 0.6378
-12 -16 -6 12.0184 1.7905
-12 -16 -4 6.3640 7.3257
-12 -16 -2 -3.1309 6.6553
-12 -15 -21 3.7178 -4.3407
-12 -15 -19 -3.2257 -4.0484
-12 -15 -17 2.1984 -3.5823
-12 -15 -15 0.7814 4.8529
-12 -15 -13 1.6857 -8.1778
-12 -15 -11 6.6913 -5.3967
-12 -15 -9 1.3809 -4.0054
-12 -15 -7 -3.2062 -2.2323
-12 -15 -5 -2.8908 2.2808
-12 -15 -3 1.5316 4.2583
-12 -15 -1 -9.6619 -5.2048
-12 -14 -22 -2.1142 4.3826
-12 -14 -20 -3.8712 5.2252
-12 -14 -18 -5.1167 3.1077
-12 -14 -16 -1.8501 1.4627
-12 -14 -14 4.2553 -0.5294
-12 -14 -12 3.7535 3.3508
-12 -14 -10 -2.9441 4.8828
-12 -14 -8 -2.4692 5.1664
-12 -14 -6 1.0708 -2.9012
-12 -14 -4 -11.1658 -9.0466
-12 -14 -2 -4.5125 -7.8730
-12 -13 -23 -2.4310 -2.4329
-12 -13 -21 9.8530 -7.5062
-12 -13 -19 6.6515 -0.7941
-12 -13 -17 7.6708 -6.1217
-12 -13 -15 -1.0690 5.8325
-12 -13 -13 -0.7706 1.9866
-12 -13 -11 -1.5538 2.4219
-12 -13 -9 -4.3175 2.3893
-12 -13 -7 -4.4984 1.2767
-12 -13 -5 0.5720 0.6678
-12 -13 -3 4.8874 1.7231
-12 -13 -1 -4.0580 -4.4870
-12 -12 -22 -4.3327 0.7033
-12 -12 -20 -5.4357 -1.1504
-12 -12 -18 -4.3450 -0.0777
-12 -12 -16 -2.4706 1.7163
-12 -12 -14 -6.8459 0.4095
-12 -12 -12 -4.0743 -1.2122
-12 -12 -10 -6.3224 -1.4704
-12 -12 -8 0.1758 1.2744
-12 -12 -6 10.7962 -5.9355
-12 -12 -4 -4.5901 -0.2228
-12 -12 -2 -1.7678 0.5378
-12 -11 -23 -1.3225 -1.7740
-12 -11 -21 2.6818 0.0817
-12 -11 -19 -5.7580 7.2632
-12 -11 -17 1.3824 -5.6378
-12 -11 -15 3.0447 0.3999
-12 -11 -13 14.3024 -3.8341
-12 -11 -11 9.1561 -3.6009
-12 -11 -9 2.8304 3.4643
-12 -11 -7 -0.2810 5.6394
-12 -11 -5 2.1926 3.0990
-12 -11 -3 4.1410 -2.8040
-12 -11 -1 -6.4686 -2.9952
-12 -10 -24 1.0068 2.8023
-12 -10 -22 -1.0882 -1.0164
-12 -10 -20 3.7175 -3.4918
-12 -10 -18 6.2808 -2.7292
-12 -10 -16 4.4677 1.3236
-12 -10 -14 -6.7687 3.8078
-12 -10 -12 2.4367 -1.9865
-12 -10 -10 0.8497 -2.5806
-12 -10 -8 -0.3294 3.4613
-12 -10 -6 -5.4051 -5.9001
-12 -10 -4 -15.5149 2.7732
-12 -10 -2 -10.5889 -0.3998
-12 -9 -23 -1.8297 -0.5846
-12 -9 -21 -1.3525 -0.6078
-12 -9 -19 -5.4735 4.7775
-12 -9 -17 -1.2214 -4.3730
-12 -9 -15 -7.9704 1.8075
-12 -9 -13 0.3654 3.7737
-12 -9 -11 -3.2663 7.7409
-12 -9 -9 1.1643 5.3027
-12 -9 -7 2.8359 3.7882
-12 -9 -5 -0.4769 3.7363
-12 -9 -3 8.1025 -9.6828
-12 -9 -1 11.0080 -5.2008
-12 -8 -24 1.1477 -0.1220
-12 -8 -22 -1.5469 -2.1473
-12 -8 -20 -0.5919 -0.8869
-12 -8 -18 0.2131 -4.2334
-12 -8 -16 4.8478 -5.0083
-12 -8 -14 -3.4341 -3.5647
-12 -8 -12 0.2451 -6.7333
-12 -8 -10 -2.4653 -5.3146
-12 -8 -8 1.8201 1.5616
-12 -8 -6 -4.2630 -11.6240
-12 -8 -4 3.0327 -4.1670
-12 -8 -2 -1.9510 -4.9500
-12 -7 -23 -1.2643 1.7038
-12 -7 -21 0.7041 0.8396
-12 -7 -19 -0.2078 1.8053
-12 -7 -17 8.6614 0.2486
-12 -7 -15 2.6878 10.1707
-12 -7 -13 10.9215 6.6037
-12 -7 -11 5.2761 7.0035
-12 -7 -9 0.8827 -2.3997
-12 -7 -7 2.0166 2.7104
-12 -7 -5 -5.3704 19.4529
-12 -7 -3 -3.7244 15.6070
-12 -7 -1 -12.0089 2.8543
-12 -6 -24 0.8455 0.2861
-12 -6 -22 -4.2775 -1.4432
-12 -6 -20 -1.3178 -1.1320
-12 -6 -18 0.6792 -1.1926
-12 -6 -16 -5.6055 -2.1505
-12 -6 -14 -17.4305 -8.3924
-12 -6 -12 -8.2780 -8.6092
-12 -6 -10 1.9744 -1.1237
-12 -6 -8 8.5207 0.3439
-12 -6 -6 -6.3684 -19.1695
-12 -6 -4 13.5102 -15.9331
-12 -6 -2 14.4309 -13.4217
-12 -5 -23 -0.0153 -1.4626
-12 -5 -21 0.4663 -0.3708
-12 -5 -19 -4.9719 1.0569
-12 -5 -17 1.7142 -4.5591
-12 -5 -15 -0.3519 3.5206
-12 -5 -13 8.5931 3.6682
-12 -5 -11 3.7978 8.4402
-12 -5 -9 2.6832 -2.8391
-12 -5 -7 6.2172 8.8135
-12 -5 -5 -13.6357 17.7869
-12 -5 -3 -9.3038 5.1135
-12 -5 -1 -2.1422 -11.1552
-12 -4 -22 -2.7875 2.3229
-12 -4 -20 -2.5200 0.0271
-12 -4 -18 6.8845 -0.9026
-12 -4 -16 6.9302 1.2741
-12 -4 -14 0.3290 -0.3815
-12 -4 -12 -1.7279 -5.2122
-12 -4 -10 -3.2313 6.2264
-12 -4 -8 1.7464 4.9423
-12 -4 -6 -6.7340 -11.7426
-12 -4 -4 15.1485 -6.3186
-12 -4 -2 -8.4888 2.3509
-12 -3 -23 0.9055 1.2126
-12 -3 -21 1.8939 -2.8062
-12 -3 -19 -2.5075 0.1894
-12 -3 -17 -0.6843 -4.5317
-12 -3 -15 -6.3281 0.8048
-12 -3 -13 1.0908 -5.9335
-12 -3 -11 -3.1833 2.8493
-12 -3 -9 -4.2615 -16.6535
-12 -3 -7 5.9525 -9.9613
-12 -3 -5 -4.4804 5.3604
-12 -3 -3 -4.7376 2.1086
-12 -3 -1 5.1612 -12.7827
-12 -2 -22 -4.3353 -3.8473
-12 -2 -20 -5.6161 -1.0037
-12 -2 -18 6.1107 2.7502
-12 -2 -16 -0.8284 2.7782
-12 -2 -14 -1.9689 5.3351
-12 -2 -12 -0.0904 -6.0476
-12 -2 -10 2.9419 14.8134
-12 -2 -8 12.1703 18.7931
-12 -2 -6 -4.1681 2.0415
-12 -2 -4 12.7120 -12.3986
-12 -2 -2 -9.8901 -1.7295
-12 -1 -23 0.9234 4.2214
-12 -1 -21 2.0620 1.4302
-12 -1 -19 -3.8187 6.3506
-12 -1 -17 -5.0744 -2.9168
-12 -1 -15 -4.5654 0.1563
-12 -1 -13 4.8757 -8.3301
-12 -1 -11 -2.2146 7.6747
-12 -1 -9 -4.0909 -13.0231
-12 -1 -7 3.0511 -7.5518
-12 -1 -5 -3.5588 0.5757
-12 -1 -3 -7.7206 -18.5006
-12 -1 -1 11.6073 -23.1339
-12 0 -22 -2.1414 -4.1128
-12 0 -20 -5.9612 -5.3479
-12 0 -18 10.4213 -3.8244
-12 0 -16 6.1855 -2.8655
-12 0 -14 5.0175 4.8337
-12 0 -12 -1.1727 -11.3899
-12 0 -10 -5.8366 9.3757
-12 0 -8 5.3990 9.6810
-12 0 -6 -2.8098 1.1116
-12 0 -4 9.9792 0.8046
-12 0 -2 -33.8585 20.8190
-11 -27 -11 -3.5640 -0.1879
-11 -27 -9 -5.2871 -4.0136
-11 -27 -7 1.0352 -3.7691
-11 -27 -5 -0.3419 -0.0013
-11 -27 -1 6.3497 0.5089
-11 -26 -12 0.1417 0.4007
-11 -26 -10 3.2638 1.7048
-11 -26 -8 0.4760 2.9320
-11 -26 -4 2.5929 1.1939
-11 -26 -2 -1.5424 4.7695
-11 -25 -15 -7.6028 0.8279
-11 -25 -13 3.3809 -0.5318
-11 -25 -11 4.1407 0.3753
-11 -25 -9 1.7922 0.6383
-11 -25 -7 2.3598 -2.6058
-11 -25 -5 -2.2662 -4.2125
-11 -25 -3 -6.4742 -4.4554
-11 -25 -1 8.4362 0.0984
-11 -24 -14 1.4507 -2.2699
-11 -24 -12 -5.1171 2.9864
-11 -24 -10 0.2354 2.3203
-11 -24 -8 -4.2278 1.0388
-11 -24 -6 -2.2093 -5.1056
-11 -24 -4 0.6725 -2.0951
-11 -24 -2 2.0905 2.6086
-11 -23 -15 -5.8255 1.8969
-11 -23 -13 1.5839 -2.5281
-11 -23 -11 -2.5916 -5.9749
-11 -23 -9 -0.1464 -1.3479
-11 -23 -7 2.7011 1.9156
-11 -23 -5 3.2848 6.2852
-11 -23 -3 1.2014 6.7308
-11 -23 -1 10.6984 3.7224
-11 -22 -16 -2.0623 3.3273
-11 -22 -14 1.5282 0.7720
-11 -22 -12 -0.1794 1.9396
-11 -22 -10 6.0152 0.8822
-11 -22 -8 0.7588 -0.1253
-11 -22 -6 0.2605 -5.7035
-11 -22 -4 -3.8280 -5.6029
-11 -22 -2 -4.8992 1.1607
-11 -21 -15 0.2014 -3.9969
-11 -21 -13 1.5455 1.0051
-11 -21 -11 -1.6344 0.8314
-11 -21 -9 2.1504 2.5091
-11 -21 -7 2.1918 1.4694
-11 -21 -5 0.1074 6.1853
-11 -21 -3 1.3349 7.5436
-11 -21 -1 1.0074 -0.6985
-11 -20 -16 -7.1425 3.3044
-11 -20 -14 -1.9030 0.5306
-11 -20 -12 -3.5088 -4.0272
-11 -20 -10 -1.0489 -4.2580
-11 -20 -8 -3.2699 -2.9981
-11 -20 -6 -5.5712 -7.4352
-11 -20 -4 -2.0171 -11.6344
-11 -20 -2 5.5625 -2.1876
-11 -19 -17 2.8355 0.6671
-11 -19 -15 2.5399 0.5346
-11 -19 -13 2.3882 4.7305
-11 -19 -11 4.9780 7.2800
-11 -19 -9 3.3056 3.0040
-11 -19 -7 1.2194 2.1581
-11 -19 -5 -3.8952 8.4240
-11 -19 -3 3.7321 6.8164
-11 -19 -1 4.4343 -2.6963
-11 -18 -18 2.6176 0.7399
-11 -18 -16 -4.3887 1.8655
-11 -18 -14 -0.4415 -0.1421
-11 -18 -12 -6.3269 -4.2481
-11 -18 -10 -6.5962 -2.8709
-11 -18 -8 1.3112 -6.8190
-11 -18 -6 4.1483 -6.7553
-11 -18 -4 5.0850 -3.8639
-11 -18 -2 -4.7279 1.6390
-11 -17 -19 -1.2664 -1.4591
-11 -17 -17 -0.6352 -1.0147
-11 -17 -15 -0.1966 -0.7250
-11 -17 -13 -2.0927 -1.6645
-11 -17 -11 0.6337 3.9583
-11 -17 -9 0.3170 -1.1260
-11 -17 -7 2.8911 4.8308
-11 -17 -5 -0.9411 12.0998
-11 -17 -3 -1.3161 10.3062
-11 -17 -1 -1.3721 6.9086
-11 -16 -20 -2.5078 2.8768
-11 -16 -18 -0.4812 -1.2723
-11 -16 -16 1.3141 -0.2461
-11 -16 -14 5.7224 2.3488
-11 -16 -12 5.0656 -2.0515
-11 -16 -10 6.3564 3.1530
-11 -16 -8 0.4244 -0.5290
-11 -16 -6 -4.5380 -6.0861
-11 -16 -4 2.4629 -9.2075
-11 -16 -2 4.7808 -9.4045
-11 -15 -21 5.4118 -5.0977
-11 -15 -19 0.7146 -3.4015
-11 -15 -17 -2.1936 -0.3358
-11 -15 -15 -3.0909 2.5229
-11 -15 -13 0.5428 0.4803
-11 -15 -11 -5.2028 6.4355
-11 -15 -9 -7.7484 -1.9772
-11 -15 -7 -5.5002 -0.5812
-11 -15 -5 -6.4095 -2.4564
-11 -15 -3 -11.2824 -5.6126
-11 -15 -1 5.1174 9.0610
-11 -14 -22 -1.8771 1.6608
-11 -14 -20 2.7447 2.4737
-11 -14 -18 1.7732 1.9630
-11 -14 -16 3.4594 -0.0942
-11 -14 -14 -0.8662 1.4018
-11 -14 -12 -0.3763 -0.2932
-11 -14 -10 -0.8874 4.7692
-11 -14 -8 -2.9843 1.3706
-11 -14 -6 9.6542 1.3604
-11 -14 -4 5.8830 6.3548
-11 -14 -2 -7.0765 -2.1372
-11 -13 -23 1.3777 0.2967
-11 -13 -21 1.9333 -0.3326
-11 -13 -19 -4.7277 -0.1166
-11 -13 -17 -1.7421 0.5644
-11 -13 -15 -7.8281 4.6488
-11 -13 -13 0.5793 -4.4113
-11 -13 -11 2.9715 -6.2870
-11 -13 -9 6.5343 -0.5357
-11 -13 -7 6.7944 1.7274
-11 -13 -5 9.2127 -1.3152
-11 -13 -3 0.5715 2.5928
-11 -13 -1 25.6945 18.0525
-11 -12 -24 -3.1531 -3.5063
-11 -12 -22 -0.6858 -0.4072
-11 -12 -20 3.1815 0.5079
-11 -12 -18 -2.8005 -4.1353
-11 -12 -16 9.1692 -8.0077
-11 -12 -14 4.8683 0.1335
-11 -12 -12 3.2420 -0.0680
-11 -12 -10 -0.6632 1.6356
-11 -12 -8 -10.7155 4.8237
-11 -12 -6 -8.9243 -0.4808
-11 -12 -4 -14.4414 -2.2164
-11 -12 -2 -15.9380 -9.7195
-11 -11 -23 -0.6591 2.9525
-11 -11 -21 0.0723 -1.7148
-11 -11 -19 1.5128 0.6903
-11 -11 -17 3.6329 0.7050
-11 -11 -15 -8.1467 5.1833
-11 -11 -13 2.7885 6.2292
-11 -11 -11 0.1029 -0.4830
-11 -11 -9 -0.6416 4.0738
-11 -11 -7 4.7635 4.7787
-11 -11 -5 3.4272 0.9797
-11 -11 -3 -11.9370 -5.9011
-11 -11 -1 21.4921 9.2702
-11 -10 -24 0.3505 -3.1393
-11 -10 -22 1.9503 -0.2392
-11 -10 -20 -0.8494 1.4875
-11 -10 -18 -8.6120 -1.2174
-11 -10 -16 2.8397 -2.5924
-11 -10 -14 -0.7292 -2.2190
-11 -10 -12 6.4945 -0.5927
-11 -10 -10 6.8785 8.0992
-11 -10 -8 -2.5185 3.3283
-11 -10 -6 -3.6162 -9.4844
-11 -10 -4 0.6521 -4.8290
-11 -10 -2 7.0823 -10.9083
-11 -9 -25 -0.9518 0.6438
-11 -9 -23 -1.6530 -0.4616
-11 -9 -21 -2.0367 0.0447
-11 -9 -19 2.6572 1.4039
-11 -9 -17 5.9006 -3.1855
-11 -9 -15 -11.2683 -0.8462
-11 -9 -13 -5.6358 0.9776
-11 -9 -11 -4.2595 -10.8837
-11 -9 -9 0.0491 -3.4991
-11 -9 -7 3.2012 3.9639
-11 -9 -5 6.9006 4.5020
-11 -9 -3 -3.4172 3.7750
-11 -9 -1 11.0090 12.7131
-11 -8 -24 -3.6016 0.8776
-11 -8 -22 2.6970 -2.1103
-11 -8 -20 3.6820 -1.8968
-11 -8 -18 1.2127 -0.6252
-11 -8 -16 12.0162 4.5944
-11 -8 -14 3.2084 3.7017
-11 -8 -12 -2.4850 0.1827
-11 -8 -10 -1.5612 1.7498
-11 -8 -8 3.0299 -4.1941
-11 -8 -6 -3.7898 1.8227
-11 -8 -4 -6.2049 20.2115
-11 -8 -2 -17.0347 8.1919
-11 -7 -25 2.5258 0.8664
-11 -7 -23 -0.1433 1.7553
-11 -7 -21 -7.4566 4.1027
-11 -7 -19 -7.2123 -0.2725
-11 -7 -17 -0.3643 -6.5176
-11 -7 -15 -9.7471 -2.8638
-11 -7 -13 3.0011 3.9860
-11 -7 -11 10.8380 2.0326
-11 -7 -9 15.1790 5.1497
-11 -7 -7 3.0382 0.6259
-11 -7 -5 4.0642 -18.9066
-11 -7 -3 15.5623 -34.2059
-11 -7 -1 41.1553 -14.9289
-11 -6 -24 1.0577 -1.0408
-11 -6 -22 5.5300 0.7412
-11 -6 -20 2.3670 -3.6928
-11 -6 -18 -0.6517 -3.4463
-11 -6 -16 0.8065 0.6964
-11 -6 -14 -1.1160 -5.5527
-11 -6 -12 3.4009 -2.3815
-11 -6 -10 -5.2382 11.1881
-11 -6 -8 -9.5755 1.6094
-11 -6 -6 -20.5945 12.7554
-11 -6 -4 -18.6226 28.1210
-11 -6 -2 -20.6287 13.2719
-11 -5 -23 -6.1468 -0.2574
-11 -5 -21 -4.5258 2.9481
-11 -5 -19 1.9608 4.4143
-11 -5 -17 11.3305 1.3332
-11 -5 -15 -1.0376 -0.2783
-11 -5 -13 -10.7373 0.3636
-11 -5 -11 -11.6275 -5.3695
-11 -5 -9 8.6549 -9.2649
-11 -5 -7 6.0644 -15.2977
-11 -5 -5 16.3611 -23.6715
-11 -5 -3 17.1564 -8.0764
-11 -5 -1 4.4534 -0.2556
-11 -4 -24 0.6931 -1.3420
-11 -4 -22 3.5880 -0.1696
-11 -4 -20 -2.0159 -5.2050
-11 -4 -18 -0.6894 -4.5650
-11 -4 -16 0.4815 7.1985
-11 -4 -14 1.1351 6.5533
-11 -4 -12 9.1227 -1.2172
-11 -4 -10 2.4640 7.0755
-11 -4 -8 8.8357 -8.1677
-11 -4 -6 7.8173 10.8557
-11 -4 -4 9.3861 15.3341
-11 -4 -2 5.3411 0.3211
-11 -3 -23 -1.2359 -2.3878
-11 -3 -21 -3.8136 0.0513
-11 -3 -19 -0.8739 -3.9430
-11 -3 -17 -0.0826 0.7190
-11 -3 -15 -5.8130 -4.4381
-11 -3 -13 -5.7030 -5.4905
-11 -3 -11 -3.4469 3.2953
-11 -3 -9 6.9898 13.1673
-11 -3 -7 -10.9449 17.9651
-11 -3 -5 -17.8524 -5.1270
-11 -3 -3 -26.0072 -10.1349
-11 -3 -1 -14.4489 -2.8103
-11 -2 -24 1.7091 6.0400
-11 -2 -22 0.6436 6.3445
-11 -2 -20 -4.4731 8.3626
-11 -2 -18 -2.6073 -2.4503
-11 -2 -16 0.4495 -6.2520
-11 -2 -14 4.3437 -3.4086
-11 -2 -12 4.8518 -6.2287
-11 -2 -10 -9.9323 9.7217
-11 -2 -8 -3.5843 -23.3395
-11 -2 -6 4.6985 -13.0641
-11 -2 -4 17.2610 -12.5646
-11 -2 -2 9.4133 -12.3382
-11 -1 -23 -0.0602 -6.2514
-11 -1 -21 -2.4057 -3.0453
-11 -1 -19 6.7209 -4.1993
-11 -1 -17 9.5250 9.0577
-11 -1 -15 11.3386 0.9915
-11 -1 -13 7.5948 -3.8913
-11 -1 -11 2.9734 2.5898
-11 -1 -9 10.3647 5.7852
-11 -1 -7 -0.5443 11.9921
-11 -1 -5 0.4853 -5.1800
-11 -1 -3 -22.9646 11.6813
-11 -1 -1 -18.6763 23.0432
-11 0 -22 -0.8853 1.3085
-11 0 -20 -6.0143 2.8250
-11 0 -18 -9.5094 -6.6025
-11 0 -16 -16.8559 -0.7279
-11 0 -14 -16.6853 4.7642
-11 0 -12 -10.1195 -8.3971
-11 0 -10 -14.4574 11.5276
-11 0 -8 1.5911 -10.3981
-11 0 -6 7.0635 8.6232
-11 0 -4 10.5117 -15.3889
-11 0 -2 2.8073 -36.6688
-10 -27 -13 0.2798 2.2143
-10 -27 -11 5.0240 7.7547
-10 -27 -9 -0.4747 4.3572
-10 -27 -7 -3.8767 -3.9379
-10 -27 -5 -4.8438 -9.6251
-10 -27 -1 -3.5418 -3.3228
-10 -26 -12 -0.2898 -4.1003
-10 -26 -10 -4.3326 -7.6875
-10 -26 -8 3.0985 -2.3491
-10 -26 -6 3.3402 1.7128
-10 -26 -4 5.6214 7.7745
-10 -26 -2 6.3699 2.0637
-10 -25 -15 1.0356 -2.0653
-10 -25 -13 -3.1261 -1.9035
-10 -25 -11 0.8977 2.2926
-10 -25 -9 -2.5683 7.1197
-10 -25 -7 -1.3141 -0.6425
-10 -25 -5 -3.9195 -5.7837
-10 -25 -3 -0.9238 -3.9880
-10 -25 -1 1.0910 -2.2162
-10 -24 -16 -2.7274 0.7677
-10 -24 -14 2.1076 -1.1574
-10 -24 -12 4.7840 1.2451
-10 -24 -10 1.0821 -3.8617
-10 -24 -8 3.5307 3.4908
-10 -24 -6 -2.4182 1.6816
-10 -24 -4 -4.4086 4.8970
-10 -24 -2 -3.1902 -1.1353
-10 -23 -15 -1.8815 3.0015
-10 -23 -13 -4.5055 2.1211
-10 -23 -11 -2.5605 0.2739
-10 -23 -9 -1.6262 2.9674
-10 -23 -7 6.3908 -7.6017
-10 -23 -5 4.5992 -6.0399
-10 -23 -3 6.0304 0.1223
-10 -23 -1 -0.3606 2.7328
-10 -22 -16 -1.3052 -1.8085
-10 -22 -14 1.4295 -2.4729
-10 -22 -12 0.7945 -0.5730
-10 -22 -10 -0.6668 -7.6211
-10 -22 -8 -1.3838 1.0029
-10 -22 -6 -5.7116 -0.3175
-10 -22 -4 -1.2696 6.3437
-10 -22 -2 -4.7926 5.3935
-10 -21 -17 -0.6133 0.4677
-10 -21 -15 -4.4746 3.0644
-10 -21 -13 -0.8182 -2.5781
-10 -21 -11 1.7030 -4.2305
-10 -21 -9 3.6804 3.7680
-10 -21 -7 6.1858 -0.0704
-10 -21 -5 -4.1685 -3.4842
-10 -21 -3 8.4218 -5.6189
-10 -21 -1 13.7997 -2.2033
-10 -20 -16 3.3783 -0.0175
-10 -20 -14 2.4375 4.2815
-10 -20 -12 2.2470 9.5838
-10 -20 -10 -0.1194 4.2438
-10 -20 -8 0.3653 2.2610
-10 -20 -6 -5.5565 1.5815
-10 -20 -4 -5.2373 7.2845
-10 -20 -2 -11.0586 0.5223
-10 -19 -17 -3.5422 -2.1425
-10 -19 -15 -3.7949 -2.0228
-10 -19 -13 -5.5034 -7.9591
-10 -19 -11 -9.5409 -6.4579
-10 -19 -9 -2.1870 -3.2749
-10 -19 -7 5.8686 -5.0136
-10 -19 -5 2.4744 -7.9381
-10 -19 -3 14.4862 1.6579
-10 -19 -1 2.6017 2.3828
-10 -18 -18 2.5682 -0.7102
-10 -18 -16 -0.5840 0.3037
-10 -18 -14 1.1229 8.2783
-10 -18 -12 5.3156 8.2773
-10 -18 -10 -0.4169 0.7966
-10 -18 -8 1.6582 -4.4724
-10 -18 -6 -3.3331 3.1602
-10 -18 -4 -2.9290 9.6659
-10 -18 -2 -4.1027 0.2201
-10 -17 -19 0.2969 -2.6509
-10 -17 -17 1.1141 -3.1256
-10 -17 -15 -0.1344 0.3278
-10 -17 -13 -0.9873 -10.1310
-10 -17 -11 0.8406 -0.4948
-10 -17 -9 5.6671 1.3864
-10 -17 -7 3.0116 -0.3309
-10 -17 -5 -1.0536 -4.7127
-10 -17 -3 7.7506 3.8736
-10 -17 -1 -0.9319 -2.5050
-10 -16 -20 -1.4564 5.0746
-10 -16 -18 0.2342 5.6941
-10 -16 -16 -3.0572 1.4228
-10 -16 -14 0.0433 4.4370
-10 -16 -12 4.0335 5.7986
-10 -16 -10 -2.5639 2.5702
-10 -16 -8 -0.0532 -1.2412
-10 -16 -6 -2.5058 1.8045
-10 -16 -4 -8.0625 -1.5309
-10 -16 -2 -4.7272 -7.2394
-10 -15 -21 9.8090 -0.7362
-10 -15 -19 2.5811 -0.4313
-10 -15 -17 2.5628 -7.5156
-10 -15 -15 0.5703 0.6811
-10 -15 -13 -1.2775 -6.1209
-10 -15 -11 -5.3964 4.1277
-10 -15 -9 -5.5843 3.3333
-10 -15 -7 -4.7014 0.8622
-10 -15 -5 1.8342 -0.1643
-10 -15 -3 4.7170 10.6674
-10 -15 -1 -4.7669 -4.8567
-10 -14 -22 -5.6496 0.1100
-10 -14 -20 -4.1523 -0.2076
-10 -14 -18 -1.3757 -1.6702
-10 -14 -16 -0.8307 -0.2474
-10 -14 -14 -3.4075 3.4789
-10 -14 -12 1.6063 3.2252
-10 -14 -10 3.8512 1.2011
-10 -14 -8 5.0392 0.6713
-10 -14 -6 6.0145 -7.4781
-10 -14 -4 -0.6923 -9.8294
-10 -14 -2 10.0258 -5.5357
-10 -13 -23 -1.5240 0.8758
-10 -13 -21 5.8049 -3.8164
-10 -13 -19 -0.8146 1.2057
-10 -13 -17 2.1564 -4.3368
-10 -13 -15 -0.7411 5.1572
-10 -13 -13 6.9604 -5.2234
-10 -13 -11 -1.0987 -5.5480
-10 -13 -9 -7.2667 -1.7319
-10 -13 -7 0.1343 4.6600
-10 -13 -5 3.0954 12.6188
-10 -13 -3 -13.0712 13.5716
-10 -13 -1 -25.9873 -7.5786
-10 -12 -24 3.9535 1.2835
-10 -12 -22 -0.0804 4.2859
-10 -12 -20 0.7090 7.6617
-10 -12 -18 -2.5495 1.8575
-10 -12 -16 -1.0182 -1.4476
-10 -12 -14 -5.9813 1.4028
-10 -12 -12 7.3058 0.8904
-10 -12 -10 11.7521 1.5316
-10 -12 -8 2.9150 5.8597
-10 -12 -6 -4.6226 -11.7454
-10 -12 -4 -9.7457 -7.1643
-10 -12 -2 6.9820 -0.6243
-10 -11 -25 -5.4698 -2.6629
-10 -11 -23 -2.9864 -2.3590
-10 -11 -21 4.4961 -6.0253
-10 -11 -19 -0.6362 2.2957
-10 -11 -17 4.6902 -9.5254
-10 -11 -15 -3.1403 0.7920
-10 -11 -13 -0.3858 2.5960
-10 -11 -11 -6.1063 2.1822
-10 -11 -9 -1.7545 9.9550
-10 -11 -7 2.9006 9.2665
-10 -11 -5 1.9671 4.6059
-10 -11 -3 1.8860 -9.5141
-10 -11 -1 10.4446 -12.5202
-10 -10 -24 5.1696 3.5424
-10 -10 -22 -2.4890 2.5228
-10 -10 -20 -0.1999 -0.0958
-10 -10 -18 0.1215 -0.5535
-10 -10 -16 1.8315 -0.0679
-10 -10 -14 -5.7598 -3.5902
-10 -10 -12 4.6929 -5.3389
-10 -10 -10 -6.0754 -3.9407
-10 -10 -8 -6.2065 1.4327
-10 -10 -6 0.1853 -10.3019
-10 -10 -4 -0.7212 6.3805
-10 -10 -2 -11.4926 5.2275
-10 -9 -25 -3.9028 -1.6823
-10 -9 -23 0.6965 -0.0343
-10 -9 -21 3.4661 -0.8746
-10 -9 -19 -5.9581 4.9565
-10 -9 -17 5.4678 -4.9735
-10 -9 -15 3.3456 10.1413
-10 -9 -13 2.9929 10.2753
-10 -9 -11 1.5163 -0.5661
-10 -9 -9 8.8209 -2.6296
-10 -9 -7 6.3403 -2.8283
-10 -9 -5 1.8450 10.7340
-10 -9 -3 -1.0161 7.3884
-10 -9 -1 -6.3470 3.7813
-10 -8 -26 0.3930 -0.8450
-10 -8 -24 2.1575 -0.0669
-10 -8 -22 -2.2335 4.4499
-10 -8 -20 0.1514 -0.4238
-10 -8 -18 0.2536 -5.9093
-10 -8 -16 -2.8542 -4.3296
-10 -8 -14 -14.3744 -7.6724
-10 -8 -12 3.5416 -8.2392
-10 -8 -10 7.1702 -4.8417
-10 -8 -8 8.0310 4.6798
-10 -8 -6 -9.0795 -10.8301
-10 -8 -4 4.0551 -8.8073
-10 -8 -2 7.7171 -13.5252
-10 -7 -25 0.1274 -0.0157
-10 -7 -23 -2.6799 -2.5034
-10 -7 -21 4.0557 -4.5692
-10 -7 -19 -1.5215 7.2259
-10 -7 -17 3.8086 1.8955
-10 -7 -15 0.3913 3.6293
-10 -7 -13 1.3220 4.8096
-10 -7 -11 -2.2046 11.5273
-10 -7 -9 1.7527 6.0428
-10 -7 -7 1.9352 7.7120
-10 -7 -5 -11.8296 23.8312
-10 -7 -3 -8.1751 15.1811
-10 -7 -1 -6.3183 0.9108
-10 -6 -24 2.7222 1.6338
-10 -6 -22 -0.4077 5.4109
-10 -6 -20 -3.0522 -1.1187
-10 -6 -18 4.0385 -6.9622
-10 -6 -16 8.0534 -0.9032
-10 -6 -14 -7.7411 -4.6292
-10 -6 -12 -6.4977 -9.8807
-10 -6 -10 -8.9187 -6.2259
-10 -6 -8 -1.1404 -6.5640
-10 -6 -6 -1.3050 -26.2731
-10 -6 -4 30.7089 -13.3401
-10 -6 -2 4.0834 -5.9507
-10 -5 -25 1.6520 -3.7484
-10 -5 -23 -1.3102 4.6496
-10 -5 -21 0.6921 -0.1530
-10 -5 -19 -8.5085 -3.4783
-10 -5 -17 -1.5273 -1.5615
-10 -5 -15 -0.5779 10.8503
-10 -5 -13 9.6455 8.6901
-10 -5 -11 14.6316 12.3611
-10 -5 -9 9.6829 -3.2966
-10 -5 -7 5.1444 1.0650
-10 -5 -5 -12.6886 17.9291
-10 -5 -3 -4.4033 18.6226
-10 -5 -1 -11.3912 -2.5879
-10 -4 -24 -1.7677 -4.1724
-10 -4 -22 -0.1806 -2.5654
-10 -4 -20 1.6533 0.9975
-10 -4 -18 9.4783 -0.8427
-10 -4 -16 4.3206 -4.3434
-10 -4 -14 -13.6383 -6.7727
-10 -4 -12 -16.6672 -14.4850
-10 -4 -10 -7.1207 -0.4008
-10 -4 -8 10.5842 9.0361
-10 -4 -6 -8.8978 -4.8648
-10 -4 -4 12.2195 -7.4490
-10 -4 -2 -5.2992 -6.6319
-10 -3 -25 4.9285 1.3239
-10 -3 -23 -0.2858 6.8842
-10 -3 -21 0.0816 1.1042
-10 -3 -19 -6.6412 4.2184
-10 -3 -17 -3.8007 6.4823
-10 -3 -15 -0.6369 3.0468
-10 -3 -13 10.7260 -6.7754
-10 -3 -11 5.7152 11.0934
-10 -3 -9 -4.8834 -15.3172
-10 -3 -7 4.2624 -16.4802
-10 -3 -5 -3.9677 1.7403
-10 -3 -3 2.4671 -2.5391
-10 -3 -1 4.4534 -13.7448
-10 -2 -24 0.3098 -2.2255
-10 -2 -22 1.8740 -0.2007
-10 -2 -20 -4.3122 -4.7644
-10 -2 -18 8.6133 -10.9131
-10 -2 -16 8.1546 -2.5741
-10 -2 -14 2.2647 12.4809
-10 -2 -12 0.4288 -5.0274
-10 -2 -10 -3.4143 18.3075
-10 -2 -8 5.2142 26.2611
-10 -2 -6 -6.7177 1.6537
-10 -2 -4 21.1365 -2.0911
-10 -2 -2 -35.8210 16.0630
-10 -1 -23 -3.7251 5.3024
-10 -1 -21 -3.2728 1.3213
-10 -1 -19 -11.0350 3.5412
-10 -1 -17 -12.7349 -0.6057
-10 -1 -15 -8.7554 -6.0634
-10 -1 -13 -0.9945 -19.1913
-10 -1 -11 -3.1530 4.7312
-10 -1 -9 -5.6042 -21.4272
-10 -1 -7 1.5750 -17.3574
-10 -1 -5 -3.8027 -0.9262
-10 -1 -3 1.2082 -23.3792
-10 -1 -1 17.5961 -21.5864
-10 0 -24 3.8241 -3.4430
-10 0 -22 5.0564 -2.6525
-10 0 -20 2.8295 -0.2442
-10 0 -18 18.9971 2.1572
-10 0 -16 12.4126 4.7796
-10 0 -14 8.4327 16.0023
-10 0 -12 3.3998 -4.7303
-10 0 -10 -3.9253 16.2215
-10 0 -8 12.6489 19.6805
-10 0 -6 -3.3395 3.9667
-10 0 -4 12.0710 -0.5465
-10 0 -2 -41.7006 16.8324
-9 -27 -13 -1.0574 -4.4676
-9 -27 -11 0.7577 -4.2641
-9 -27 -9 -0.8329 -0.4357
-9 -27 -7 5.6123 1.4947
-9 -27 -5 3.4130 1.2669
-9 -27 -3 -0.1885 1.8222
-9 -27 -1 9.7811 -0.9965
-9 -26 -14 1.3191 -3.2212
-9 -26 -12 -0.4552 2.8860
-9 -26 -10 3.0057 2.8627
-9 -26 -8 -3.2608 1.1431
-9 -26 -6 -6.8935 -0.7585
-9 -26 -4 -6.4442 -7.7822
-9 -26 -2 0.0374 -3.9959
-9 -25 -15 -4.0019 4.5816
-9 -25 -13 -0.0988 2.6023
-9 -25 -11 -2.1864 -1.8253
-9 -25 -9 -3.5494 -1.9939
-9 -25 -7 6.0808 -4.0500
-9 -25 -5 7.6324 -0.5576
-9 -25 -3 1.0628 5.2746
-9 -25 -1 7.6365 5.8064
-9 -24 -16 2.5804 2.1146
-9 -24 -14 3.5686 -2.8063
-9 -24 -12 -1.9847 -1.5102
-9 -24 -10 2.3997 -3.2276
-9 -24 -8 -2.7870 -1.0910
-9 -24 -6 0.7461 0.2168
-9 -24 -4 -0.0055 -0.0074
-9 -24 -2 -0.8732 4.2668
-9 -23 -17 0.1629 -4.9787
-9 -23 -15 -3.2468 1.3866
-9 -23 -13 3.8053 3.7142
-9 -23 -11 1.7739 0.5567
-9 -23 -9 2.7045 6.1740
-9 -23 -7 2.9782 5.6720
-9 -23 -5 -3.5547 1.7580
-9 -23 -3 -3.3073 -3.4954
-9 -23 -1 9.6385 0.8058
-9 -22 -16 -3.3561 1.3939
-9 -22 -14 -2.2718 -5.5125
-9 -22 -12 -5.6973 -6.3073
-9 -22 -10 1.8089 -6.6349
-9 -22 -8 -4.5498 -3.5116
-9 -22 -6 -1.6930 -6.3427
-9 -22 -4 -2.3341 -8.4536
-9 -22 -2 0.3001 3.9673
-9 -21 -17 4.5880 1.4823
-9 -21 -15 -1.2267 5.4736
-9 -21 -13 1.0015 7.6717
-9 -21 -11 -1.2841 4.4353
-9 -21 -9 -0.4808 4.5816
-9 -21 -7 4.2116 2.1810
-9 -21 -5 -0.6386 5.4750
-9 -21 -3 5.1260 3.0946
-9 -21 -1 7.0923 -0.0075
-9 -20 -18 -0.4397 -3.6021
-9 -20 -16 -3.9231 -1.8247
-9 -20 -14 0.9512 0.0284
-9 -20 -12 -6.8011 -2.1301
-9 -20 -10 -0.3677 -7.2064
-9 -20 -8 3.7757 -4.5704
-9 -20 -6 6.2632 -1.9705
-9 -20 -4 0.3874 -3.5896
-9 -20 -2 -3.3790 9.8654
-9 -19 -17 2.7331 -1.6818
-9 -19 -15 -0.3493 0.0575
-9 -19 -13 2.8489 -0.0500
-9 -19 -11 4.8870 1.1967
-9 -19 -9 -1.0913 -1.3659
-9 -19 -7 1.8180 -0.4096
-9 -19 -5 -3.5892 9.6713
-9 -19 -3 4.2593 7.5888
-9 -19 -1 -1.1664 0.2128
-9 -18 -18 3.6304 4.5800
-9 -18 -16 -2.1527 -0.0862
-9 -18 -14 0.4429 0.5594
-9 -18 -12 -3.7490 -1.1215
-9 -18 -10 5.6815 2.4954
-9 -18 -8 4.7322 2.4175
-9 -18 -6 -5.2329 -3.9199
-9 -18 -4 -3.3708 -12.0685
-9 -18 -2 0.7053 1.4455
-9 -17 -19 2.5659 -0.8406
-9 -17 -17 0.9180 -3.1685
-9 -17 -15 -1.0346 -1.6678
-9 -17 -13 0.9894 0.6136
-9 -17 -11 -4.1331 10.3308
-9 -17 -9 -10.2002 -0.1560
-9 -17 -7 -3.9961 -2.6859
-9 -17 -5 -3.5206 5.2970
-9 -17 -3 2.6963 0.0471
-9 -17 -1 4.6073 1.7980
-9 -16 -20 -1.4547 -3.1894
-9 -16 -18 2.4026 -1.0258
-9 -16 -16 -2.1262 1.0544
-9 -16 -14 -5.1935 6.7583
-9 -16 -12 -8.2796 0.1637
-9 -16 -10 0.7086 -1.1660
-9 -16 -8 5.7615 -6.4923
-9 -16 -6 7.3877 -2.2142
-9 -16 -4 5.4164 -0.6055
-9 -16 -2 -5.5717 1.7827
-9 -15 -21 -2.5138 0.5012
-9 -15 -19 -3.1359 0.3813
-9 -15 -17 -0.3139 -3.2714
-9 -15 -15 1.9503 -2.4563
-9 -15 -13 8.7308 -11.6045
-9 -15 -11 6.3594 -3.6292
-9 -15 -9 6.7296 2.8560
-9 -15 -7 1.3001 4.2629
-9 -15 -5 4.2136 5.4675
-9 -15 -3 0.5968 0.9353
-9 -15 -1 3.4241 10.6678
-9 -14 -22 7.9234 6.4224
-9 -14 -20 5.8607 6.7855
-9 -14 -18 2.4868 3.2043
-9 -14 -16 1.1175 -1.9005
-9 -14 -14 -1.9536 7.5598
-9 -14 -12 2.1536 9.1333
-9 -14 -10 1.4972 6.5246
-9 -14 -8 -6.3971 -4.3652
-9 -14 -6 -3.2534 -0.2274
-9 -14 -4 -5.8844 7.9914
-9 -14 -2 -7.8607 4.3510
-9 -13 -23 -6.2271 0.2766
-9 -13 -21 -1.6571 -0.7522
-9 -13 -19 -1.8331 -1.0754
-9 -13 -17 -2.9129 -6.8781
-9 -13 -15 -7.0288 -2.8093
-9 -13 -13 0.0200 -4.7110
-9 -13 -11 -4.3931 -2.2768
-9 -13 -9 -0.3627 9.5688
-9 -13 -7 -8.7305 0.2432
-9 -13 -5 -4.3232 -9.3655
-9 -13 -3 -8.2257 -16.6077
-9 -13 -1 12.0864 5.8424
-9 -12 -24 1.6696 -4.2166
-9 -12 -22 1.5641 -0.0384
-9 -12 -20 1.1598 -1.9097
-9 -12 -18 2.8193 0.1041
-9 -12 -16 9.3010 0.5673
-9 -12 -14 -3.0006 3.0950
-9 -12 -12 -0.9553 -2.7383
-9 -12 -10 0.6741 -1.8136
-9 -12 -8 3.8598 1.7520
-9 -12 -6 16.9862 6.4221
-9 -12 -4 4.5368 5.0522
-9 -12 -2 -1.6854 -13.7470
-9 -11 -25 -0.2232 2.5096
-9 -11 -23 0.7570 1.4783
-9 -11 -21 2.3879 4.3761
-9 -11 -19 -2.2840 4.6874
-9 -11 -17 -3.2497 -1.4270
-9 -11 -15 -7.7524 2.4938
-9 -11 -13 6.4633 5.6814
-9 -11 -11 5.5708 -2.4140
-9 -11 -9 1.6766 6.4274
-9 -11 -7 -7.0542 -4.4036
-9 -11 -5 5.3745 -1.3836
-9 -11 -3 -3.8702 8.3290
-9 -11 -1 1.7188 24.7951
-9 -10 -26 0.4872 -3.9676
-9 -10 -24 -1.3443 -3.9612
-9 -10 -22 1.1427 1.3825
-9 -10 -20 1.0178 2.4243
-9 -10 -18 -3.5899 -1.9831
-9 -10 -16 6.7479 -5.4609
-9 -10 -14 -7.1419 -0.4060
-9 -10 -12 -8.7415 -5.7883
-9 -10 -10 2.0011 -10.5581
-9 -10 -8 5.2469 -5.6919
-9 -10 -6 0.4876 3.9629
-9 -10 -4 -9.8669 21.3937
-9 -10 -2 -9.3321 2.3089
-9 -9 -25 -0.5494 4.1791
-9 -9 -23 0.2961 1.7194
-9 -9 -21 -1.2425 -0.6106
-9 -9 -19 1.9790 -2.1657
-9 -9 -17 6.2221 -0.3604
-9 -9 -15 -4.0732 -0.5890
-9 -9 -13 7.9669 4.8190
-9 -9 -11 5.8761 2.5182
-9 -9 -9 1.2613 7.9434
-9 -9 -7 1.3629 1.3523
-9 -9 -5 14.2749 -10.0481
-9 -9 -3 5.0205 -29.4577
-9 -9 -1 13.7554 1.0645
-9 -8 -26 5.4128 -5.2214
-9 -8 -24 2.6813 -2.3291
-9 -8 -22 5.4377 1.2895
-9 -8 -20 0.0245 2.5939
-9 -8 -18 -7.0009 0.2685
-9 -8 -16 4.8714 1.6385
-9 -8 -14 -5.3462 1.1438
-9 -8 -12 -2.8619 -2.1969
-9 -8 -10 7.9000 3.9151
-9 -8 -8 1.9318 5.1841
-9 -8 -6 -18.1440 6.6754
-9 -8 -4 -16.5298 28.8394
-9 -8 -2 -6.3361 8.3747
-9 -7 -25 -3.1419 1.4813
-9 -7 -23 -2.0806 2.5412
-9 -7 -21 -3.9265 3.4000
-9 -7 -19 -1.7910 -1.9035
-9 -7 -17 5.2909 -2.5163
-9 -7 -15 -8.5011 -3.0719
-9 -7 -13 -11.7152 0.3379
-9 -7 -11 -13.9718 -7.7679
-9 -7 -9 -5.9282 -12.9139
-9 -7 -7 0.8120 -12.1496
-9 -7 -5 27.3778 -13.2142
-9 -7 -3 13.8137 -13.7599
-9 -7 -1 -17.9067 7.7412
-9 -6 -26 0.2208 -3.8189
-9 -6 -24 -4.4681 -1.3155
-9 -6 -22 5.2538 -1.3812
-9 -6 -20 3.3805 -4.8910
-9 -6 -18 0.0255 -1.3261
-9 -6 -16 11.0465 9.4745
-9 -6 -14 6.7879 12.0279
-9 -6 -12 11.1040 5.4301
-9 -6 -10 16.2535 0.1818
-9 -6 -8 19.5694 -10.5583
-9 -6 -6 -2.7761 2.9830
-9 -6 -4 1.7224 33.9308
-9 -6 -2 13.7748 17.8620
-9 -5 -25 4.0958 -0.6812
-9 -5 -23 2.0526 -0.2590
-9 -5 -21 -2.6288 4.1430
-9 -5 -19 -1.6661 -0.2570
-9 -5 -17 4.7291 0.0174
-9 -5 -15 -10.9767 -7.6703
-9 -5 -13 -16.1394 -11.5700
-9 -5 -11 -10.6535 -6.5150
-9 -5 -9 -1.9685 -0.7224
-9 -5 -7 -9.9141 5.4070
-9 -5 -5 5.4544 -3.6377
-9 -5 -3 -4.5284 -14.9846
-9 -5 -1 -10.1519 -5.4933
-9 -4 -26 3.8891 -5.2952
-9 -4 -24 -0.4135 4.7178
-9 -4 -22 3.7977 6.6699
-9 -4 -20 -5.0045 -2.5919
-9 -4 -18 -9.5337 -4.7631
-9 -4 -16 -1.6139 0.6559
-9 -4 -14 4.0718 3.3047
-9 -4 -12 13.4303 4.4527
-9 -4 -10 2.1003 16.8212
-9 -4 -8 -0.4681 -1.1957
-9 -4 -6 -17.6420 0.9444
-9 -4 -4 -2.5930 9.3169
-9 -4 -2 -6.9148 3.4580
-9 -3 -25 -1.5197 -1.8734
-9 -3 -23 -1.5818 -3.1057
-9 -3 -21 -1.4396 2.5958
-9 -3 -19 0.4617 -0.5906
-9 -3 -17 10.9830 4.0632
-9 -3 -15 9.7303 1.3777
-9 -3 -13 -4.3789 -3.9658
-9 -3 -11 -6.3788 -7.9330
-9 -3 -9 8.5557 -11.4188
-9 -3 -7 5.0804 -7.0964
-9 -3 -5 24.7969 -19.5017
-9 -3 -3 -2.3326 -5.9713
-9 -3 -1 -6.8279 7.9565
-9 -2 -24 -2.1295 0.0490
-9 -2 -22 1.5793 -1.0799
-9 -2 -20 -0.0313 -3.3461
-9 -2 -18 -0.1235 -3.9636
-9 -2 -16 -6.6366 3.1319
-9 -2 -14 -8.5224 4.5184
-9 -2 -12 2.4793 -5.5581
-9 -2 -10 -5.6130 7.5543
-9 -2 -8 3.3550 -14.0927
-9 -2 -6 -4.2782 15.0215
-9 -2 -4 16.8012 17.8515
-9 -2 -2 17.1065 -0.5813
-9 -1 -25 6.2698 -2.6838
-9 -1 -23 5.3984 2.2839
-9 -1 -21 0.1063 2.5999
-9 -1 -19 -1.1036 -4.1414
-9 -1 -17 -0.5804 8.6773
-9 -1 -15 3.0191 3.2270
-9 -1 -13 -3.7371 -1.9963
-9 -1 -11 -10.2248 6.5446
-9 -1 -9 -5.4044 2.4660
-9 -1 -7 -9.8846 4.3879
-9 -1 -5 3.2255 -16.3738
-9 -1 -3 -51.0290 -0.7324
-9 -1 -1 -43.8519 19.4457
-9 0 -24 -4.5649 0.7052
-9 0 -22 -3.1811 1.2691
-9 0 -20 -7.9475 6.3901
-9 0 -18 -5.7626 -5.8878
-9 0 -16 2.0177 -10.6542
-9 0 -14 10.7679 -6.1753
-9 0 -12 19.0514 -15.0119
-9 0 -10 9.3659 10.0426
-9 0 -8 10.6335 -8.6098
-9 0 -6 -2.2930 6.6140
-9 0 -4 33.3107 -11.5736
-9 0 -2 30.4419 -22.4605
-8 -27 -13 0.5075 1.8633
-8 -27 -11 5.3579 2.9003
-8 -27 -7 -2.1571 -3.1920
-8 -27 -3 0.7679 -0.5913
-8 -27 -1 -6.1765 -0.8134
-8 -26 -16 0.1343 -1.2252
-8 -26 -14 3.0787 -1.6102
-8 -26 -12 -2.2129 -1.1943
-8 -26 -10 -6.6479 -1.0829
-8 -26 -8 -0.5754 1.5734
-8 -26 -6 1.2980 2.2423
-8 -26 -4 0.4252 0.6769
-8 -26 -2 7.5686 -1.4430
-8 -25 -15 1.4991 1.4783
-8 -25 -13 2.1913 1.1620
-8 -25 -11 8.9151 0.2384
-8 -25 -9 2.7776 1.0331
-8 -25 -7 0.3570 1.0672
-8 -25 -5 -2.9316 1.3424
-8 -25 -3 -4.4183 -1.8892
-8 -25 -1 -4.1103 -1.9546
-8 -24 -16 -5.0343 -0.0279
-8 -24 -14 -4.3863 -1.2276
-8 -24 -12 -7.8152 0.6430
-8 -24 -10 -7.2173 -4.8243
-8 -24 -8 -0.6238 -1.9062
-8 -24 -6 3.4316 -6.2026
-8 -24 -4 0.5900 -2.8912
-8 -24 -2 2.0487 5.2824
-8 -23 -17 1.0104 2.3587
-8 -23 -15 1.1981 4.0354
-8 -23 -13 2.8412 -3.1630
-8 -23 -11 6.9622 -7.3175
-8 -23 -9 0.6859 -0.0006
-8 -23 -7 0.5337 1.8684
-8 -23 -5 1.5412 1.8944
-8 -23 -3 4.9004 -2.4321
-8 -23 -1 4.3252 -2.8983
-8 -22 -16 -0.7208 0.9606
-8 -22 -14 -1.6272 2.7431
-8 -22 -12 -4.4939 6.5445
-8 -22 -10 -1.5241 1.0214
-8 -22 -8 2.2536 5.6569
-8 -22 -6 -0.9803 3.3032
-8 -22 -4 -8.8791 -1.2926
-8 -22 -2 1.8544 1.2607
-8 -21 -17 -0.4022 -3.0250
-8 -21 -15 3.9793 -1.7002
-8 -21 -13 5.6625 0.7660
-8 -21 -11 1.1060 -0.9084
-8 -21 -9 0.0559 0.6439
-8 -21 -7 3.5876 0.1391
-8 -21 -5 3.5041 -0.1008
-8 -21 -3 4.3064 6.8198
-8 -21 -1 -9.0958 3.8731
-8 -20 -18 6.1073 -0.6409
-8 -20 -16 -3.3364 3.8930
-8 -20 -14 -7.1872 2.1499
-8 -20 -12 -2.1515 -5.1207
-8 -20 -10 -1.5991 -11.8683
-8 -20 -8 2.0494 -11.8413
-8 -20 -6 1.9619 -5.7049
-8 -20 -4 -1.5822 0.0203
-8 -20 -2 1.5873 1.8355
-8 -19 -19 -3.4072 3.8503
-8 -19 -17 0.8328 -1.8760
-8 -19 -15 1.2758 -0.9454
-8 -19 -13 -4.9279 -0.2199
-8 -19 -11 -6.6768 7.0248
-8 -19 -9 3.1807 9.7268
-8 -19 -7 0.0896 10.2149
-8 -19 -5 -6.3209 1.7224
-8 -19 -3 3.0024 5.0201
-8 -19 -1 4.6800 1.7537
-8 -18 -18 5.4299 -0.3840
-8 -18 -16 -6.2207 -0.5451
-8 -18 -14 -1.6237 5.6319
-8 -18 -12 11.0656 4.5003
-8 -18 -10 0.1568 1.1989
-8 -18 -8 1.0154 -8.6186
-8 -18 -6 2.2316 -4.1727
-8 -18 -4 0.9914 -3.3906
-8 -18 -2 2.2543 -9.1341
-8 -17 -19 -3.4086 2.5096
-8 -17 -17 3.8732 -3.9777
-8 -17 -15 9.5827 -2.3225
-8 -17 -13 -3.4398 -8.5181
-8 -17 -11 -7.6527 -0.9039
-8 -17 -9 9.5009 -1.7045
-8 -17 -7 3.3022 3.7235
-8 -17 -5 1.1433 2.2372
-8 -17 -3 3.2320 14.7409
-8 -17 -1 -4.1139 6.1839
-8 -16 -20 2.3140 3.1488
-8 -16 -18 5.3455 0.3197
-8 -16 -16 -4.1544 -2.1458
-8 -16 -14 -0.9343 4.3649
-8 -16 -12 9.5354 4.8351
-8 -16 -10 -4.4875 6.2685
-8 -16 -8 -10.5826 -1.6195
-8 -16 -6 -7.6516 -0.2627
-8 -16 -4 -5.2267 -1.6394
-8 -16 -2 0.0034 -7.4032
-8 -15 -19 -0.5295 2.1660
-8 -15 -17 -1.6587 -2.9567
-8 -15 -15 -6.9871 3.5519
-8 -15 -13 -9.8593 -3.4294
-8 -15 -11 -7.8567 8.0016
-8 -15 -9 8.0595 -2.1768
-8 -15 -7 6.8546 -8.1095
-8 -15 -5 8.2975 0.4752
-8 -15 -3 0.5531 15.5907
-8 -15 -1 2.2637 0.3610
-8 -14 -24 2.6158 -4.0670
-8 -14 -22 -4.7185 -4.0705
-8 -14 -20 -1.6251 1.0447
-8 -14 -18 -1.8573 -0.1179
-8 -14 -16 1.5629 -0.8281
-8 -14 -14 3.7422 -0.0968
-8 -14 -12 8.1659 -10.6850
-8 -14 -10 2.3748 -10.1999
-8 -14 -8 -3.8399 3.1721
-8 -14 -6 0.4376 1.7263
-8 -14 -4 -3.1938 -9.3945
-8 -14 -2 -2.7718 -16.4621
-8 -13 -25 -4.4911 -4.2221
-8 -13 -23 1.7873 1.1103
-8 -13 -21 5.2940 1.1979
-8 -13 -19 5.3499 3.1826
-8 -13 -17 7.2759 -9.1827
-8 -13 -15 -0.3689 0.3008
-8 -13 -13 2.1044 0.6500
-8 -13 -11 1.6337 13.4349
-8 -13 -9 8.2234 18.0291
-8 -13 -7 -2.3257 5.0763
-8 -13 -5 -1.0206 1.5811
-8 -13 -3 -2.0651 7.0908
-8 -13 -1 7.2181 -2.9724
-8 -12 -26 3.0646 0.8559
-8 -12 -24 3.9661 0.2527
-8 -12 -22 -1.2562 4.1123
-8 -12 -20 -1.1860 7.7697
-8 -12 -18 -11.1348 2.3298
-8 -12 -16 -4.2276 -0.0472
-8 -12 -14 -4.1458 4.3197
-8 -12 -12 1.2848 4.7426
-8 -12 -10 -8.0104 -2.9606
-8 -12 -8 -11.0492 2.2034
-8 -12 -6 2.5101 -1.5036
-8 -12 -4 -0.7628 8.6813
-8 -12 -2 1.8328 0.8442
-8 -11 -25 -1.0102 -2.1842
-8 -11 -23 1.0117 2.3676
-8 -11 -21 -0.8632 -6.0315
-8 -11 -19 4.6033 -1.1039
-8 -11 -17 9.1011 -5.4224
-8 -11 -15 -2.3778 3.7044
-8 -11 -13 1.0831 -8.2777
-8 -11 -11 -2.8205 -19.2468
-8 -11 -9 4.8991 -17.9033
-8 -11 -7 8.0735 -18.2745
-8 -11 -5 10.4894 6.1838
-8 -11 -3 -9.1294 2.9306
-8 -11 -1 -10.6448 -3.5006
-8 -10 -26 1.2020 -0.3734
-8 -10 -24 1.3471 -4.7030
-8 -10 -22 1.0726 2.8525
-8 -10 -20 2.6054 6.2122
-8 -10 -18 -4.2008 1.0266
-8 -10 -16 5.2037 1.4015
-8 -10 -14 -9.0028 5.1560
-8 -10 -12 -0.7996 8.0677
-8 -10 -10 4.0197 4.7108
-8 -10 -8 4.3575 21.6921
-8 -10 -6 0.7580 -0.8681
-8 -10 -4 3.3062 -2.1334
-8 -10 -2 -7.0436 -0.1327
-8 -9 -25 -0.4024 -0.1536
-8 -9 -23 2.0625 0.8820
-8 -9 -21 -1.3089 -2.6271
-8 -9 -19 -5.5592 4.0205
-8 -9 -17 -2.2796 -6.9599
-8 -9 -15 -4.2887 0.6803
-8 -9 -13 0.3780 -0.1845
-8 -9 -11 3.1419 0.1956
-8 -9 -9 8.9298 5.6273
-8 -9 -7 -6.3265 3.8229
-8 -9 -5 -10.6958 21.3327
-8 -9 -3 -1.6421 -1.5114
-8 -9 -1 25.3124 -7.2541
-8 -8 -26 -0.4210 -0.3309
-8 -8 -24 1.3572 -1.2317
-8 -8 -22 0.5717 4.6764
-8 -8 -20 3.8946 0.6859
-8 -8 -18 1.7757 2.2913
-8 -8 -16 8.5853 3.3278
-8 -8 -14 -2.4293 -5.5571
-8 -8 -12 1.2038 0.2720
-8 -8 -10 -13.5787 -12.1261
-8 -8 -8 -2.3830 -9.3278
-8 -8 -6 17.2987 -18.4421
-8 -8 -4 28.2797 -2.7362
-8 -8 -2 -11.0662 1.3849
-8 -7 -27 -1.6644 -0.9084
-8 -7 -25 -1.4827 -0.8289
-8 -7 -23 3.1199 -0.0342
-8 -7 -21 1.7069 -3.7762
-8 -7 -19 -4.6965 -5.6740
-8 -7 -17 5.4488 -6.1508
-8 -7 -15 1.1285 14.3928
-8 -7 -13 -8.7870 10.0185
-8 -7 -11 0.8985 -5.0008
-8 -7 -9 10.8020 -20.1650
-8 -7 -7 -9.3437 -15.1890
-8 -7 -5 -20.9985 17.4472
-8 -7 -3 1.4835 22.6531
-8 -7 -1 10.6235 0.9869
-8 -6 -26 6.1337 -2.0076
-8 -6 -24 0.9275 -2.8794
-8 -6 -22 -1.2724 4.8916
-8 -6 -20 0.5527 5.6217
-8 -6 -18 -0.9994 4.0062
-8 -6 -16 -1.2006 1.9637
-8 -6 -14 -15.0876 -9.4254
-8 -6 -12 -2.1670 -7.6569
-8 -6 -10 4.4764 2.8305
-8 -6 -8 12.4372 27.6958
-8 -6 -6 12.0894 15.0309
-8 -6 -4 21.1199 7.5185
-8 -6 -2 -23.7735 0.5057
-8 -5 -25 -0.4632 1.6839
-8 -5 -23 1.6155 2.1443
-8 -5 -21 -0.0123 -4.3393
-8 -5 -19 -9.2668 -2.1708
-8 -5 -17 2.4161 0.8450
-8 -5 -15 8.8372 3.5792
-8 -5 -13 1.5614 6.5588
-8 -5 -11 -0.5660 12.4070
-8 -5 -9 1.2541 -21.2492
-8 -5 -7 -2.5125 -26.3890
-8 -5 -5 -17.5593 -13.5842
-8 -5 -3 14.6488 -3.1299
-8 -5 -1 12.8811 -18.1973
-8 -4 -26 -0.4494 -1.6599
-8 -4 -24 -2.6278 -2.7253
-8 -4 -22 2.4082 2.1526
-8 -4 -20 2.8078 0.3851
-8 -4 -18 5.3893 -5.1821
-8 -4 -16 2.4086 3.9770
-8 -4 -14 -7.1142 1.6210
-8 -4 -12 2.6580 -19.0546
-8 -4 -10 -2.1418 -11.0680
-8 -4 -8 -2.0618 7.2667
-8 -4 -6 5.3842 1.8517
-8 -4 -4 26.1983 9.8992
-8 -4 -2 -14.0089 8.1464
-8 -3 -25 3.7816 -1.2915
-8 -3 -23 2.5291 5.3243
-8 -3 -21 1.4334 -0.8885
-8 -3 -19 -7.0637 -4.6721
-8 -3 -17 -2.6929 -1.3004
-8 -3 -15 -1.3889 0.3983
-8 -3 -13 -5.5288 7.1973
-8 -3 -11 2.6348 27.8156
-8 -3 -9 -2.7905 -5.4586
-8 -3 -7 -14.5721 0.7529
-8 -3 -5 -22.8128 7.7418
-8 -3 -3 14.8904 12.1884
-8 -3 -1 -0.4858 -4.9590
-8 -2 -26 2.9546 -3.1664
-8 -2 -24 -0.6893 -0.6947
-8 -2 -22 -1.2445 -1.3933
-8 -2 -20 -6.8619 4.9353
-8 -2 -18 0.1536 2.9286
-8 -2 -16 2.8659 5.6954
-8 -2 -14 2.1887 4.6251
-8 -2 -12 -0.3141 -27.2469
-8 -2 -10 -5.0142 -12.3384
-8 -2 -8 18.0399 -0.0067
-8 -2 -6 23.6644 -14.3727
-8 -2 -4 18.0175 -7.0448
-8 -2 -2 -61.9879 8.3483
-8 -1 -25 2.3665 -3.4237
-8 -1 -23 4.1862 0.4804
-8 -1 -21 4.0078 -1.1627
-8 -1 -19 -2.2618 0.2106
-8 -1 -17 -1.0720 2.1209
-8 -1 -15 3.6481 -5.8354
-8 -1 -13 0.8329 -7.5566
-8 -1 -11 9.3927 17.1091
-8 -1 -9 5.6552 -18.8698
-8 -1 -7 -6.3682 5.2001
-8 -1 -5 -18.9669 10.7873
-8 -1 -3 12.2056 -27.2486
-8 -1 -1 26.4953 -20.8865
-8 0 -24 -2.9221 5.4610
-8 0 -22 -1.1295 2.4520
-8 0 -20 -6.1709 -1.1081
-8 0 -18 -1.2456 -9.3902
-8 0 -16 -5.5901 1.8364
-8 0 -14 -0.7106 15.6196
-8 0 -12 1.3074 -9.9185
-8 0 -10 -19.2908 14.8391
-8 0 -8 -16.1377 13.0605
-8 0 -6 0.9668 -18.7031
-8 0 -4 30.4063 3.6987
-8 0 -2 -50.6005 42.3520
-7 -27 -15 2.6912 -0.5216
-7 -27 -13 0.7683 1.9489
-7 -27 -11 3.3661 -1.5841
-7 -27 -9 -4.1099 -5.7472
-7 -27 -7 0.5928 -2.8189
-7 -27 -5 -0.3714 0.4175
-7 -27 -3 -2.4396 5.1310
-7 -27 -1 6.5695 -1.4744
-7 -26 -16 1.8797 0.8934
-7 -26 -14 -2.8958 -1.0875
-7 -26 -12 -2.4860 4.2222
-7 -26 -10 0.0287 2.9210
-7 -26 -8 -1.1949 -0.4850
-7 -26 -6 0.5468 -1.6873
-7 -26 -4 -1.3743 -6.6685
-7 -26 -2 0.9157 -1.5184
-7 -25 -17 -7.1395 2.6714
-7 -25 -15 -0.9832 2.7902
-7 -25 -13 1.4478 -0.4418
-7 -25 -11 2.7515 -7.2369
-7 -25 -9 -5.0666 -3.3378
-7 -25 -7 3.5555 2.0181
-7 -25 -5 5.4631 3.4485
-7 -25 -3 -1.9189 3.0040
-7 -25 -1 5.1270 3.4598
-7 -24 -16 5.8598 -3.2351
-7 -24 -14 0.6407 -3.5027
-7 -24 -12 -0.8642 3.1815
-7 -24 -10 4.5231 1.2450
-7 -24 -8 0.2172 5.8396
-7 -24 -6 -0.9914 3.8240
-7 -24 -4 -0.9318 -8.0197
-7 -24 -2 9.4719 -6.5790
-7 -23 -17 -3.0238 3.6042
-7 -23 -15 -3.1674 3.1548
-7 -23 -13 -2.0120 -0.3410
-7 -23 -11 -0.6862 -6.6314
-7 -23 -9 -4.5580 -3.3986
-7 -23 -7 0.9973 -3.4419
-7 -23 -5 -2.9008 0.7708
-7 -23 -3 -7.6440 7.2636
-7 -23 -1 -2.5025 12.7659
-7 -22 -18 4.3461 -1.2198
-7 -22 -16 3.9213 1.5674
-7 -22 -14 2.9059 3.6173
-7 -22 -12 0.4201 7.4974
-7 -22 -10 3.4715 -0.9881
-7 -22 -8 1.5482 2.7802
-7 -22 -6 10.6036 4.0640
-7 -22 -4 4.0744 -4.6590
-7 -22 -2 -0.7839 0.0396
-7 -21 -17 -5.7923 -1.7228
-7 -21 -15 -4.0567 -2.4602
-7 -21 -13 -5.3257 -5.1890
-7 -21 -11 -2.5136 -11.2556
-7 -21 -9 -3.7204 -8.5126
-7 -21 -7 3.4489 -5.8256
-7 -21 -5 -6.1861 1.0017
-7 -21 -3 1.6380 2.3064
-7 -21 -1 9.9796 7.6899
-7 -20 -18 6.0491 4.9748
-7 -20 -16 -1.1183 1.7377
-7 -20 -14 1.8474 2.6957
-7 -20 -12 1.8725 8.3967
-7 -20 -10 6.7909 8.5136
-7 -20 -8 -1.6663 14.1508
-7 -20 -6 0.5823 6.7902
-7 -20 -4 -0.8008 -5.0542
-7 -20 -2 -1.6204 8.6675
-7 -19 -19 4.9324 -1.9233
-7 -19 -17 7.7904 1.4013
-7 -19 -15 4.1441 -0.5194
-7 -19 -13 -1.3905 0.7927
-7 -19 -11 1.0411 0.4372
-7 -19 -9 -2.4938 -10.3328
-7 -19 -7 7.5036 -14.6685
-7 -19 -5 -2.0624 -2.9839
-7 -19 -3 5.7197 -0.5044
-7 -19 -1 4.4244 4.3460
-7 -18 -20 -6.6890 -3.4211
-7 -18 -18 -0.9312 -2.9007
-7 -18 -16 -2.0115 -3.0238
-7 -18 -14 0.2665 0.2690
-7 -18 -12 -9.8055 -4.2427
-7 -18 -10 -2.6492 -4.1370
-7 -18 -8 0.7146 8.2367
-7 -18 -6 -0.7786 15.5812
-7 -18 -4 -6.8891 4.2570
-7 -18 -2 -6.7955 7.7779
-7 -17 -19 0.0587 2.4478
-7 -17 -17 -5.1226 1.6817
-7 -17 -15 -5.5803 -1.9060
-7 -17 -13 0.0394 1.9554
-7 -17 -11 5.3707 12.9931
-7 -17 -9 -2.5121 -1.7957
-7 -17 -7 -0.4340 -15.7806
-7 -17 -5 4.8821 -5.4436
-7 -17 -3 10.5059 -3.1489
-7 -17 -1 3.7004 4.8085
-7 -16 -20 -0.9911 1.3045
-7 -16 -18 3.6171 1.3560
-7 -16 -16 1.0474 0.1987
-7 -16 -14 4.3444 0.6268
-7 -16 -12 1.2088 -4.6792
-7 -16 -10 6.1240 -0.6970
-7 -16 -8 4.0173 -1.9252
-7 -16 -6 -0.9238 1.4425
-7 -16 -4 -3.9009 -0.4606
-7 -16 -2 -7.1510 6.9387
-7 -15 -23 1.8850 -0.8531
-7 -15 -21 1.9237 1.7106
-7 -15 -19 7.6156 0.5834
-7 -15 -17 7.4175 -1.6637
-7 -15 -15 4.7045 -0.0635
-7 -15 -13 1.3670 -0.3778
-7 -15 -11 -0.4333 6.4087
-7 -15 -9 1.8543 9.7539
-7 -15 -7 -5.6316 3.6303
-7 -15 -5 6.4918 10.2064
-7 -15 -3 2.4247 0.2422
-7 -15 -1 -0.8248 6.0779
-7 -14 -24 -3.3388 1.4621
-7 -14 -22 -1.2163 3.0948
-7 -14 -20 -4.6876 0.2382
-7 -14 -18 -6.8230 -5.9998
-7 -14 -16 -7.0921 -3.8983
-7 -14 -14 -7.4786 -0.9054
-7 -14 -12 -6.8837 -2.5009
-7 -14 -10 -6.5104 6.9738
-7 -14 -8 -9.2291 2.0857
-7 -14 -6 -9.9143 -3.1774
-7 -14 -4 -11.5387 -18.7084
-7 -14 -2 1.2587 -20.9585
-7 -13 -25 4.2376 -1.7701
-7 -13 -23 2.6955 -3.9101
-7 -13 -21 2.4327 2.0046
-7 -13 -19 2.2808 7.5376
-7 -13 -17 -0.6208 4.2289
-7 -13 -15 3.3538 6.9666
-7 -13 -13 11.0010 8.0354
-7 -13 -11 0.8876 -8.5475
-7 -13 -9 5.5334 -12.3142
-7 -13 -7 8.2730 -12.2120
-7 -13 -5 23.8668 21.9472
-7 -13 -3 -2.7100 18.4810
-7 -13 -1 -2.4417 15.8291
-7 -12 -26 2.3074 -3.1434
-7 -12 -24 -1.5812 -1.8678
-7 -12 -22 -2.5439 4.6328
-7 -12 -20 2.5032 0.1492
-7 -12 -18 1.5850 -4.6130
-7 -12 -16 2.8922 -2.9738
-7 -12 -14 -6.5321 -5.6860
-7 -12 -12 -2.5596 -10.4452
-7 -12 -10 5.0966 2.1805
-7 -12 -8 -4.6331 1.5940
-7 -12 -6 -2.8523 -11.4306
-7 -12 -4 2.0307 -8.4341
-7 -12 -2 -8.9066 -0.4318
-7 -11 -25 -0.6355 -0.9651
-7 -11 -23 3.1278 -4.1506
-7 -11 -21 -1.2855 1.2469
-7 -11 -19 -2.3159 2.1392
-7 -11 -17 0.2881 -1.6241
-7 -11 -15 -5.6514 0.3628
-7 -11 -13 3.0045 12.7219
-7 -11 -11 0.1706 7.0736
-7 -11 -9 3.7232 21.0844
-7 -11 -7 -1.8746 17.1046
-7 -11 -5 2.6442 19.1763
-7 -11 -3 -15.7002 -9.7075
-7 -11 -1 16.5614 9.0266
-7 -10 -26 5.2661 0.7667
-7 -10 -24 3.8001 0.2029
-7 -10 -22 2.5480 3.6191
-7 -10 -20 3.0046 0.9902
-7 -10 -18 -6.1006 -0.4316
-7 -10 -16 7.6751 3.8798
-7 -10 -14 5.2958 0.1541
-7 -10 -12 -2.9191 -9.2121
-7 -10 -10 -3.1090 -12.1107
-7 -10 -8 -5.9394 -14.4469
-7 -10 -6 4.5697 -12.6315
-7 -10 -4 10.1773 -6.0125
-7 -10 -2 10.1586 -26.7189
-7 -9 -25 -4.9133 -3.0205
-7 -9 -23 0.5003 -2.1379
-7 -9 -21 -0.0762 1.2845
-7 -9 -19 4.4150 -0.5434
-7 -9 -17 9.2048 0.1625
-7 -9 -15 -8.0304 0.1364
-7 -9 -13 -5.7333 10.7225
-7 -9 -11 -5.5032 -10.0105
-7 -9 -9 2.0323 -15.1339
-7 -9 -7 -2.5941 -3.7468
-7 -9 -5 2.2915 16.8462
-7 -9 -3 -25.4544 16.8795
-7 -9 -1 -24.2040 39.4427
-7 -8 -26 5.4207 0.9961
-7 -8 -24 0.2705 -2.4773
-7 -8 -22 0.0290 -0.8479
-7 -8 -20 -3.4642 0.4180
-7 -8 -18 -13.9487 0.3656
-7 -8 -16 1.3849 6.4724
-7 -8 -14 -6.7957 3.9179
-7 -8 -12 -11.0139 -0.4789
-7 -8 -10 2.8402 3.7314
-7 -8 -8 2.1769 -0.8899
-7 -8 -6 8.3673 -4.3836
-7 -8 -4 28.4242 15.0536
-7 -8 -2 28.0961 -11.0501
-7 -7 -27 -0.2062 -0.1835
-7 -7 -25 2.3462 -0.9856
-7 -7 -23 5.4979 1.4302
-7 -7 -21 0.2925 1.7900
-7 -7 -19 4.3741 -2.9243
-7 -7 -17 14.4440 1.1638
-7 -7 -15 0.1558 -5.9226
-7 -7 -13 9.3522 -0.0039
-7 -7 -11 15.2148 -1.1667
-7 -7 -9 15.9475 2.7936
-7 -7 -7 -0.0652 13.2043
-7 -7 -5 3.3014 1.8322
-7 -7 -3 -18.8899 -13.8768
-7 -7 -1 -21.2271 19.4128
-7 -6 -26 -0.9149 0.5752
-7 -6 -24 -4.4796 0.7622
-7 -6 -22 4.0292 1.5471
-7 -6 -20 -3.9580 -0.1318
-7 -6 -18 -13.5605 0.1039
-7 -6 -16 2.4587 3.7428
-7 -6 -14 -7.1151 6.5350
-7 -6 -12 -14.8562 0.8643
-7 -6 -10 -10.9456 -13.4313
-7 -6 -8 -6.6514 -31.6941
-7 -6 -6 -13.5081 -18.0192
-7 -6 -4 2.8323 14.0559
-7 -6 -2 10.7450 -9.2619
-7 -5 -27 1.7402 -2.6579
-7 -5 -25 -0.8981 -3.8539
-7 -5 -23 -0.4186 -0.8934
-7 -5 -21 3.8950 0.6583
-7 -5 -19 6.6903 -6.0635
-7 -5 -17 9.6778 -0.3661
-7 -5 -15 -8.1214 -0.2413
-7 -5 -13 -7.2090 -1.2012
-7 -5 -11 1.0504 -4.2453
-7 -5 -9 8.1641 9.6844
-7 -5 -7 -8.0629 32.7452
-7 -5 -5 5.9723 11.7816
-7 -5 -3 -3.3589 -4.4836
-7 -5 -1 7.2084 10.5105
-7 -4 -26 6.0652 1.3091
-7 -4 -24 1.1346 -0.4516
-7 -4 -22 2.5177 -0.1522
-7 -4 -20 -10.6627 -1.1125
-7 -4 -18 -7.5008 4.9993
-7 -4 -16 11.1142 6.9082
-7 -4 -14 5.2120 13.1170
-7 -4 -12 6.0593 8.4506
-7 -4 -10 1.8294 -1.9877
-7 -4 -8 4.7121 -35.2822
-7 -4 -6 4.7221 -23.9118
-7 -4 -4 32.6856 17.2100
-7 -4 -2 1.3760 23.8043
-7 -3 -25 0.5362 -2.0453
-7 -3 -23 -0.7785 1.4005
-7 -3 -21 0.7166 3.1473
-7 -3 -19 -0.2476 -3.5265
-7 -3 -17 -0.5889 1.5234
-7 -3 -15 -13.1950 -9.4790
-7 -3 -13 -13.5689 -21.0390
-7 -3 -11 -5.1267 -12.3410
-7 -3 -9 8.6776 -3.9396
-7 -3 -7 -0.2855 8.8008
-7 -3 -5 2.8152 -17.5242
-7 -3 -3 -27.6714 -26.1625
-7 -3 -1 24.0961 -6.0835
-7 -2 -26 0.2056 1.4799
-7 -2 -24 -0.3014 -1.1443
-7 -2 -22 8.5438 -0.0440
-7 -2 -20 -1.3763 -0.5844
-7 -2 -18 -5.0967 -1.2601
-7 -2 -16 5.3762 -0.1549
-7 -2 -14 12.0334 19.5010
-7 -2 -12 16.9769 10.3190
-7 -2 -10 1.0750 11.8550
-7 -2 -8 -10.2039 3.3290
-7 -2 -6 -24.7342 33.2632
-7 -2 -4 4.0146 19.4688
-7 -2 -2 -31.9464 1.3973
-7 -1 -25 2.0815 1.8414
-7 -1 -23 -5.4744 4.6985
-7 -1 -21 -4.2824 3.4926
-7 -1 -19 -3.3471 -5.5875
-7 -1 -17 -2.2753 -1.6613
-7 -1 -15 -6.4518 -12.7919
-7 -1 -13 -10.1136 -17.8710
-7 -1 -11 -4.2607 4.5302
-7 -1 -9 5.9829 -1.2198
-7 -1 -7 -3.9262 -17.2989
-7 -1 -5 24.7862 -52.4226
-7 -1 -3 3.5775 -14.4603
-7 -1 -1 67.3677 16.7481
-7 0 -26 1.1971 -0.8381
-7 0 -24 6.1261 -8.2015
-7 0 -22 8.4052 -5.2967
-7 0 -20 -3.4536 1.7515
-7 0 -18 -1.6984 8.2811
-7 0 -16 5.1196 11.4603
-7 0 -14 7.1705 21.0256
-7 0 -12 7.9079 -5.8573
-7 0 -10 -5.7422 -9.2997
-7 0 -8 1.6682 -14.8532
-7 0 -6 -3.4087 42.8343
-7 0 -4 -0.8451 28.1098
-7 0 -2 -70.7767 -6.7734
-6 -27 -15 -5.3245 0.4301
-6 -27 -13 -3.3857 -4.7472
-6 -27 -11 2.3170 -6.5764
-6 -27 -9 -1.2144 0.1044
-6 -27 -7 -0.4469 3.3537
-6 -27 -5 3.0677 -0.7471
-6 -27 -3 3.3101 -2.3649
-6 -27 -1 3.3894 1.7930
-6 -26 -16 1.6502 -3.6007
-6 -26 -14 3.9852 -0.2000
-6 -26 -12 0.0026 7.1260
-6 -26 -10 -3.1538 2.2932
-6 -26 -8 1.9053 -2.0912
-6 -26 -6 7.0350 4.6031
-6 -26 -4 0.2033 7.1280
-6 -26 -2 0.9044 1.2039
-6 -25 -17 3.1475 0.8395
-6 -25 -15 -0.5458 -0.3403
-6 -25 -13 -3.3465 -4.7992
-6 -25 -11 3.2976 -9.5202
-6 -25 -9 0.3424 -3.5304
-6 -25 -7 -1.1291 -1.9143
-6 -25 -5 0.1057 -6.7002
-6 -25 -3 2.5144 -7.6073
-6 -25 -1 1.0572 -0.2791
-6 -24 -16 -1.4976 3.7376
-6 -24 -14 1.2993 1.1451
-6 -24 -12 2.6738 7.0037
-6 -24 -10 -0.3202 4.8198
-6 -24 -8 -4.6109 5.0567
-6 -24 -6 -0.4301 3.2624
-6 -24 -4 -7.8002 1.3344
-6 -24 -2 1.5858 3.5067
-6 -23 -17 -1.9070 -2.7899
-6 -23 -15 0.3605 -0.2491
-6 -23 -13 -0.1491 2.0665
-6 -23 -11 1.4868 -4.7029
-6 -23 -9 2.8367 -1.3693
-6 -23 -7 5.8064 4.2495
-6 -23 -5 1.5826 0.8508
-6 -23 -3 -1.6861 -6.1616
-6 -23 -1 -10.2237 -5.0206
-6 -22 -18 0.8647 0.5000
-6 -22 -16 -1.2213 3.7502
-6 -22 -14 -0.6188 -2.4862
-6 -22 -12 -2.5709 -1.6501
-6 -22 -10 -3.6015 -8.0235
-6 -22 -8 -1.9033 -7.4310
-6 -22 -6 11.8165 -2.9212
-6 -22 -4 7.6495 6.3954
-6 -22 -2 12.3190 18.8982
-6 -21 -19 6.4135 1.8866
-6 -21 -17 9.5807 1.4465
-6 -21 -15 -0.6130 1.6702
-6 -21 -13 -4.6276 0.7473
-6 -21 -11 1.0412 0.3999
-6 -21 -9 3.6687 5.8121
-6 -21 -7 -0.4963 4.5557
-6 -21 -5 -10.1393 -4.3073
-6 -21 -3 -10.8820 -5.7171
-6 -21 -1 -21.0316 -5.2177
-6 -20 -18 -4.6765 -3.0271
-6 -20 -16 -4.1960 -1.3565
-6 -20 -14 1.2415 0.1106
-6 -20 -12 2.0500 -1.4599
-6 -20 -10 -2.4411 -4.8326
-6 -20 -8 0.2290 -0.5198
-6 -20 -6 3.9633 6.6279
-6 -20 -4 1.0777 1.4620
-6 -20 -2 20.9441 0.0510
-6 -19 -19 -5.1095 3.6108
-6 -19 -17 -0.5793 -1.1733
-6 -19 -15 4.9941 -1.7722
-6 -19 -13 3.1691 4.5682
-6 -19 -11 0.1078 10.8613
-6 -19 -9 3.6274 6.1317
-6 -19 -7 -1.5919 1.7746
-6 -19 -5 -5.7620 -5.4256
-6 -19 -3 -3.2891 -0.5593
-6 -19 -1 -18.0271 0.4225
-6 -18 -20 4.3861 -5.4659
-6 -18 -18 8.4044 3.5997
-6 -18 -16 -5.1352 2.8538
-6 -18 -14 -6.0207 1.5294
-6 -18 -12 2.2937 -7.3559
-6 -18 -10 -4.8861 -11.2079
-6 -18 -8 1.0903 -17.3912
-6 -18 -6 10.0928 -5.8075
-6 -18 -4 7.3831 9.4882
-6 -18 -2 0.2373 12.0460
-6 -17 -19 3.2484 3.8430
-6 -17 -17 10.3793 0.1126
-6 -17 -15 8.9243 2.1025
-6 -17 -13 -3.6196 1.3053
-6 -17 -11 -4.6306 17.8754
-6 -17 -9 6.8977 12.4959
-6 -17 -7 -4.8337 4.9065
-6 -17 -5 -7.9923 -0.2526
-6 -17 -3 -2.3227 1.3964
-6 -17 -1 -0.1080 -0.0148
-6 -16 -22 -0.8677 -3.1081
-6 -16 -20 -3.6302 -3.8615
-6 -16 -18 -6.2241 -3.9288
-6 -16 -16 -11.9934 -8.4543
-6 -16 -14 -5.1110 -5.4307
-6 -16 -12 3.1549 -13.9396
-6 -16 -10 -2.5740 -8.7876
-6 -16 -8 -1.0331 0.4507
-6 -16 -6 3.4967 6.9315
-6 -16 -4 3.9403 -3.9685
-6 -16 -2 7.3265 -13.7605
-6 -15 -23 -1.4807 -2.3489
-6 -15 -21 -2.0876 1.2495
-6 -15 -19 -2.8045 2.1749
-6 -15 -17 0.5414 2.0205
-6 -15 -15 9.4496 10.3535
-6 -15 -13 9.3620 5.1625
-6 -15 -11 -1.1854 18.4843
-6 -15 -9 -1.2986 8.3218
-6 -15 -7 -17.5877 -8.9444
-6 -15 -5 -9.8655 -15.2587
-6 -15 -3 -1.0681 -9.7049
-6 -15 -1 4.2703 -4.8469
-6 -14 -24 2.8231 -1.2659
-6 -14 -22 3.2031 -0.9057
-6 -14 -20 9.4549 5.1423
-6 -14 -18 4.3737 1.2412
-6 -14 -16 -0.5851 -3.4542
-6 -14 -14 -1.7271 2.4368
-6 -14 -12 3.8241 -2.9912
-6 -14 -10 4.0457 -6.0702
-6 -14 -8 4.8803 -0.8361
-6 -14 -6 15.5612 12.3878
-6 -14 -4 1.4852 30.3043
-6 -14 -2 -13.3216 18.9042
-6 -13 -25 -0.3083 -2.8610
-6 -13 -23 -2.5751 2.4809
-6 -13 -21 -4.8887 0.2875
-6 -13 -19 1.4531 -2.2608
-6 -13 -17 1.7907 -1.8664
-6 -13 -15 -4.3877 5.4837
-6 -13 -13 -1.8468 -8.7506
-6 -13 -11 -8.6146 0.2920
-6 -13 -9 0.3766 6.4466
-6 -13 -7 -2.1203 -7.1903
-6 -13 -5 8.2971 -12.4322
-6 -13 -3 4.6630 -19.6656
-6 -13 -1 6.4003 -9.0720
-6 -12 -26 1.5553 0.9672
-6 -12 -24 3.4852 -0.9307
-6 -12 -22 0.4385 -1.1639
-6 -12 -20 2.1012 0.1921
-6 -12 -18 -6.1358 -2.2304
-6 -12 -16 0.8920 -1.2808
-6 -12 -14 -1.1244 4.5100
-6 -12 -12 1.2629 1.6066
-6 -12 -10 -7.1240 -7.1732
-6 -12 -8 -11.9982 0.5058
-6 -12 -6 1.1626 -6.2926
-6 -12 -4 -3.7383 2.7650
-6 -12 -2 -0.4668 -6.7843
-6 -11 -25 0.5028 -6.6525
-6 -11 -23 1.7161 -1.5465
-6 -11 -21 0.0655 2.4573
-6 -11 -19 1.2585 5.6317
-6 -11 -17 5.1711 -3.5538
-6 -11 -15 7.2332 9.5283
-6 -11 -13 7.8661 1.2791
-6 -11 -11 -2.3914 -5.4405
-6 -11 -9 7.3093 7.1496
-6 -11 -7 -6.2548 8.4848
-6 -11 -5 -4.2655 11.9418
-6 -11 -3 -15.8728 -12.7445
-6 -11 -1 -23.9324 0.1915
-6 -10 -26 -2.8336 0.7664
-6 -10 -24 -0.0401 -0.3600
-6 -10 -22 -2.0143 2.5919
-6 -10 -20 0.0219 -1.1414
-6 -10 -18 -7.4115 1.7410
-6 -10 -16 -4.1847 0.0258
-6 -10 -14 -9.4876 -2.7871
-6 -10 -12 7.9667 10.8583
-6 -10 -10 3.7184 3.7909
-6 -10 -8 2.7615 8.8342
-6 -10 -6 9.1558 -0.1061
-6 -10 -4 11.1061 18.7708
-6 -10 -2 31.8270 6.7304
-6 -9 -27 2.5628 4.9363
-6 -9 -25 5.3167 -3.0013
-6 -9 -23 5.4816 -3.9529
-6 -9 -21 1.7572 -4.4347
-6 -9 -19 2.1190 0.2991
-6 -9 -17 5.5192 -3.0604
-6 -9 -15 1.0764 9.5925
-6 -9 -13 -6.8531 -6.4714
-6 -9 -11 -21.7860 -19.9138
-6 -9 -9 -10.9457 -26.6814
-6 -9 -7 1.2530 -27.8914
-6 -9 -5 19.2254 -6.1949
-6 -9 -3 -9.2737 -30.9592
-6 -9 -1 -44.5217 -11.7044
-6 -8 -26 -1.8780 -0.4066
-6 -8 -24 -1.5620 0.4211
-6 -8 -22 -0.8138 4.1923
-6 -8 -20 2.8696 -2.4494
-6 -8 -18 2.8183 -1.2476
-6 -8 -16 11.9916 1.2425
-6 -8 -14 -3.0979 6.8208
-6 -8 -12 10.4571 18.3738
-6 -8 -10 21.5320 6.9997
-6 -8 -8 9.3771 21.6364
-6 -8 -6 -14.0506 4.2759
-6 -8 -4 -5.5097 26.4377
-6 -8 -2 -11.6015 37.4521
-6 -7 -27 -2.2720 3.9633
-6 -7 -25 -2.2235 0.7686
-6 -7 -23 -1.2040 -1.6666
-6 -7 -21 -2.4512 1.0015
-6 -7 -19 -8.4576 5.5057
-6 -7 -17 -3.6720 1.0581
-6 -7 -15 -5.6638 5.1863
-6 -7 -13 -11.2010 -9.7262
-6 -7 -11 -19.1315 -11.9117
-6 -7 -9 -10.4095 -23.2274
-6 -7 -7 3.5785 -5.4759
-6 -7 -5 7.2868 11.7524
-6 -7 -3 13.7900 -27.8322
-6 -7 -1 8.2286 -33.5047
-6 -6 -28 2.4777 -0.8637
-6 -6 -26 3.4449 -3.6610
-6 -6 -24 6.4413 -4.7805
-6 -6 -22 4.2043 -1.4266
-6 -6 -20 1.4671 -3.8563
-6 -6 -18 0.5763 -1.3647
-6 -6 -16 6.2347 -0.6028
-6 -6 -14 -1.7894 1.6144
-6 -6 -12 10.4487 11.4842
-6 -6 -10 16.1947 16.2406
-6 -6 -8 -2.3263 30.6272
-6 -6 -6 -18.1927 -1.9813
-6 -6 -4 4.2453 -12.1675
-6 -6 -2 12.8475 -6.5297
-6 -5 -27 -0.4063 3.8780
-6 -5 -25 -1.3695 2.8795
-6 -5 -23 -1.3414 3.8356
-6 -5 -21 -0.3224 1.7637
-6 -5 -19 -3.9757 -2.9982
-6 -5 -17 6.1008 -3.9530
-6 -5 -15 -1.9952 3.1826
-6 -5 -13 -9.2984 -3.8897
-6 -5 -11 -3.1745 -11.4163
-6 -5 -9 -2.6269 -55.8977
-6 -5 -7 5.0060 -39.6490
-6 -5 -5 2.2960 -1.1536
-6 -5 -3 27.2483 32.7985
-6 -5 -1 -12.7635 -3.5346
-6 -4 -26 -1.9139 -2.5514
-6 -4 -24 -2.2259 -2.1428
-6 -4 -22 -0.8142 -3.9618
-6 -4 -20 -0.0527 2.7726
-6 -4 -18 1.1521 4.7972
-6 -4 -16 0.5639 4.6359
-6 -4 -14 -6.9084 6.5583
-6 -4 -12 -3.6469 1.2769
-6 -4 -10 8.0662 23.1653
-6 -4 -8 5.9126 42.8333
-6 -4 -6 0.4103 10.5477
-6 -4 -4 -9.1600 -9.2228
-6 -4 -2 -67.7940 -8.4102
-6 -3 -27 2.5633 4.2089
-6 -3 -25 2.6697 0.5057
-6 -3 -23 4.1408 2.2157
-6 -3 -21 5.3490 -3.0496
-6 -3 -19 -2.8727 -5.5674
-6 -3 -17 2.6851 -2.2097
-6 -3 -15 4.8427 0.8380
-6 -3 -13 2.1254 -1.6055
-6 -3 -11 6.2164 2.9602
-6 -3 -9 -2.7084 -34.5309
-6 -3 -7 6.0028 2.4516
-6 -3 -5 0.1484 10.2616
-6 -3 -3 37.0144 11.9840
-6 -3 -1 16.5936 -11.8160
-6 -2 -26 0.5917 -3.7776
-6 -2 -24 0.9029 1.0067
-6 -2 -22 -6.3061 1.3420
-6 -2 -20 -13.2559 10.0784
-6 -2 -18 -5.7176 -1.4288
-6 -2 -16 -8.9221 -9.0549
-6 -2 -14 -11.6511 -5.1958
-6 -2 -12 -6.7358 -14.5606
-6 -2 -10 0.5848 11.8133
-6 -2 -8 -16.6470 1.4309
-6 -2 -6 -30.3050 -45.8159
-6 -2 -4 -6.4001 -54.7205
-6 -2 -2 -20.8293 -22.1038
-6 -1 -25 0.0866 -4.1536
-6 -1 -23 3.4193 0.3049
-6 -1 -21 9.5350 -3.2482
-6 -1 -19 5.9199 -2.0252
-6 -1 -17 6.9674 5.5266
-6 -1 -15 17.1277 9.0552
-6 -1 -13 17.2911 5.5939
-6 -1 -11 17.5040 20.2803
-6 -1 -9 -0.7120 -6.5396
-6 -1 -7 10.5905 50.8300
-6 -1 -5 12.0435 54.7827
-6 -1 -3 22.3319 25.4792
-6 -1 -1 -2.8815 6.6561
-6 0 -26 1.7435 1.4434
-6 0 -24 1.3266 5.6813
-6 0 -22 -4.9296 -3.3716
-6 0 -20 -12.7235 5.4661
-6 0 -18 -8.1719 -4.0442
-6 0 -16 -16.2533 -10.4358
-6 0 -14 -20.8536 -5.5068
-6 0 -12 -21.9036 -21.9833
-6 0 -10 -4.5653 -3.7271
-6 0 -8 3.2367 -27.4572
-6 0 -6 -4.3587 -71.5759
-6 0 -4 -9.8040 -60.8395
-6 0 -2 -96.1638 -4.8223
-5 -28 -8 -3.2078 0.1036
-5 -27 -15 4.8606 0.3360
-5 -27 -13 -0.6690 5.9213
-5 -27 -11 4.7505 2.6611
-5 -27 -9 -3.6126 -3.2658
-5 -27 -7 3.1195 -1.1614
-5 -27 -5 4.4701 4.3901
-5 -27 -3 -4.4376 7.0016
-5 -27 -1 -4.8430 -1.4993
-5 -26 -16 0.1997 -0.0390
-5 -26 -14 -3.3460 -4.0860
-5 -26 -12 -0.3962 -2.1494
-5 -26 -10 1.9759 -2.4284
-5 -26 -8 2.4615 2.5826
-5 -26 -6 -2.2092 -2.9480
-5 -26 -4 -0.2163 -13.1160
-5 -26 -2 13.0201 -7.1977
-5 -25 -17 -2.9624 1.3871
-5 -25 -15 -0.0486 -1.5491
-5 -25 -13 -1.2586 1.9929
-5 -25 -11 6.5133 -0.1098
-5 -25 -9 -4.1648 0.8223
-5 -25 -7 -0.5525 4.3896
-5 -25 -5 -2.7935 9.2548
-5 -25 -3 -14.6332 7.1286
-5 -25 -1 -5.9744 5.5965
-5 -24 -18 -0.9086 0.1967
-5 -24 -16 3.8696 1.4436
-5 -24 -14 -0.7892 -0.5561
-5 -24 -12 -2.2103 3.6606
-5 -24 -10 -2.6255 -1.5391
-5 -24 -8 4.8904 1.0423
-5 -24 -6 11.5920 -0.3088
-5 -24 -4 10.9764 -3.1884
-5 -24 -2 8.6651 -1.1346
-5 -23 -17 0.6945 0.5557
-5 -23 -15 1.2213 -4.7508
-5 -23 -13 -1.7529 -4.7661
-5 -23 -11 3.5394 -8.9935
-5 -23 -9 -3.8675 -6.4418
-5 -23 -7 1.6950 -5.7856
-5 -23 -5 -1.7132 -3.0167
-5 -23 -3 -10.7559 -0.7197
-5 -23 -1 -2.5939 10.2196
-5 -22 -18 -2.3621 1.3032
-5 -22 -16 -1.6695 4.0441
-5 -22 -14 -5.2635 1.7772
-5 -22 -12 -1.9668 5.4252
-5 -22 -10 3.1808 4.5694
-5 -22 -8 -1.5435 13.6915
-5 -22 -6 -0.9875 8.9001
-5 -22 -4 2.5431 -1.8270
-5 -22 -2 12.6545 1.4591
-5 -21 -19 -1.9966 -3.1698
-5 -21 -17 -1.1584 2.5423
-5 -21 -15 6.5168 -0.3008
-5 -21 -13 3.5532 3.9528
-5 -21 -11 4.2144 -3.5006
-5 -21 -9 -3.5991 -7.3207
-5 -21 -7 4.6105 -6.3136
-5 -21 -5 -6.2032 -2.9981
-5 -21 -3 -8.8986 -1.3081
-5 -21 -1 -3.8357 9.4902
-5 -20 -18 8.1166 1.4929
-5 -20 -16 1.6169 3.4989
-5 -20 -14 -1.9820 -1.2715
-5 -20 -12 -5.1887 3.3843
-5 -20 -10 0.7139 1.3656
-5 -20 -8 4.6181 6.4005
-5 -20 -6 14.2214 8.3876
-5 -20 -4 5.6341 4.5707
-5 -20 -2 0.1535 9.3035
-5 -19 -19 -4.4097 -1.0593
-5 -19 -17 -2.3346 -1.3713
-5 -19 -15 -0.5332 -8.0914
-5 -19 -13 -5.1887 -3.1638
-5 -19 -11 3.1642 -3.8642
-5 -19 -9 -6.3501 -12.7242
-5 -19 -7 -2.1851 -16.8605
-5 -19 -5 -8.7590 -8.8511
-5 -19 -3 -1.3176 0.6370
-5 -19 -1 2.5767 10.0571
-5 -18 -20 4.1009 -0.7394
-5 -18 -18 4.3020 1.8148
-5 -18 -16 -1.3642 2.1954
-5 -18 -14 3.0002 -2.3697
-5 -18 -12 -3.9492 4.3806
-5 -18 -10 -0.2432 14.3499
-5 -18 -8 -1.1405 20.9834
-5 -18 -6 1.4279 11.7472
-5 -18 -4 3.4916 -8.4168
-5 -18 -2 11.9895 -5.1014
-5 -17 -21 -8.0243 -1.2599
-5 -17 -19 -6.4351 -0.0356
-5 -17 -17 -0.8481 5.8889
-5 -17 -15 7.5923 6.3935
-5 -17 -13 5.9880 6.4849
-5 -17 -11 10.8452 0.4102
-5 -17 -9 1.5673 -13.7195
-5 -17 -7 -4.5891 -12.6557
-5 -17 -5 -5.0536 4.3482
-5 -17 -3 -7.2200 6.1981
-5 -17 -1 -8.4411 10.4146
-5 -16 -22 5.9018 -3.6300
-5 -16 -20 7.7884 -1.5351
-5 -16 -18 6.5958 -6.0329
-5 -16 -16 -2.3754 -0.5038
-5 -16 -14 -4.3132 -6.3549
-5 -16 -12 -9.7719 -3.3756
-5 -16 -10 -6.2458 13.4411
-5 -16 -8 -1.4603 12.0599
-5 -16 -6 3.8633 3.1247
-5 -16 -4 2.3172 -8.7114
-5 -16 -2 2.3083 -4.6380
-5 -15 -21 -2.1593 2.6053
-5 -15 -19 0.7775 5.7390
-5 -15 -17 -4.7180 -0.2663
-5 -15 -15 4.7955 0.8327
-5 -15 -13 7.3465 8.1583
-5 -15 -11 3.7190 0.2881
-5 -15 -9 3.9012 -12.7957
-5 -15 -7 -7.6266 -12.9261
-5 -15 -5 -0.1264 10.6431
-5 -15 -3 -9.8050 -2.5775
-5 -15 -1 4.3182 2.0153
-5 -14 -24 -0.5431 -0.3215
-5 -14 -22 -0.8847 1.8038
-5 -14 -20 0.9429 -1.8921
-5 -14 -18 0.5162 -7.5844
-5 -14 -16 0.1643 1.5046
-5 -14 -14 -3.1623 -9.9038
-5 -14 -12 -5.5180 -14.2157
-5 -14 -10 -7.2563 7.1748
-5 -14 -8 -5.1037 5.9281
-5 -14 -6 7.8998 -11.8170
-5 -14 -4 13.8113 -19.3349
-5 -14 -2 4.6241 -1.8393
-5 -13 -25 1.9164 -3.1454
-5 -13 -23 2.0755 -4.2367
-5 -13 -21 -4.1698 -0.5446
-5 -13 -19 1.6355 3.2268
-5 -13 -17 -1.4457 6.4861
-5 -13 -15 1.2725 13.0963
-5 -13 -13 13.3066 15.2624
-5 -13 -11 8.0272 7.5257
-5 -13 -9 -1.0064 18.2202
-5 -13 -7 -19.9595 7.9897
-5 -13 -5 1.7385 20.7878
-5 -13 -3 -14.1255 -2.9981
-5 -13 -1 3.4733 3.9188
-5 -12 -26 -0.6960 0.7560
-5 -12 -24 -2.4819 -3.0951
-5 -12 -22 3.7350 2.3842
-5 -12 -20 5.1099 1.8898
-5 -12 -18 -6.5043 -8.8860
-5 -12 -16 7.3688 -2.6036
-5 -12 -14 3.2636 -0.1741
-5 -12 -12 -10.4308 -7.4334
-5 -12 -10 -2.5230 -9.9915
-5 -12 -8 9.5417 1.0056
-5 -12 -6 2.3933 10.0177
-5 -12 -4 -17.0432 -1.3375
-5 -12 -2 -5.0730 -8.7529
-5 -11 -27 1.5023 0.1504
-5 -11 -25 2.1770 0.8747
-5 -11 -23 2.5134 -1.5390
-5 -11 -21 -0.9572 -3.4407
-5 -11 -19 9.4634 -0.6083
-5 -11 -17 1.3664 5.8732
-5 -11 -15 -11.8156 0.7382
-5 -11 -13 8.2838 5.4564
-5 -11 -11 -2.4514 -2.6780
-5 -11 -9 -9.7058 -6.9974
-5 -11 -7 0.9593 -27.6441
-5 -11 -5 33.3035 -9.9136
-5 -11 -3 1.4050 -27.7431
-5 -11 -1 24.1153 4.2132
-5 -10 -26 3.0757 -2.5008
-5 -10 -24 -2.1574 -3.8452
-5 -10 -22 -4.4523 2.4448
-5 -10 -20 -0.5691 2.1874
-5 -10 -18 -9.5503 -7.3738
-5 -10 -16 9.2683 0.6648
-5 -10 -14 -0.5624 1.6870
-5 -10 -12 -11.6475 -4.8248
-5 -10 -10 0.8374 -2.6209
-5 -10 -8 -10.7858 3.0050
-5 -10 -6 -10.2466 -1.8958
-5 -10 -4 -2.4746 14.5069
-5 -10 -2 -10.7340 19.3086
-5 -9 -27 -2.2896 4.4703
-5 -9 -25 -0.7550 1.8608
-5 -9 -23 5.7579 -1.3904
-5 -9 -21 -4.0634 -2.3325
-5 -9 -19 0.8563 -1.2532
-5 -9 -17 9.5682 7.5767
-5 -9 -15 -2.8987 1.3276
-5 -9 -13 11.2066 10.4165
-5 -9 -11 6.5867 12.2356
-5 -9 -9 8.5313 25.6314
-5 -9 -7 1.1556 28.1208
-5 -9 -5 8.9607 15.0303
-5 -9 -3 -25.9768 -20.4522
-5 -9 -1 -5.3911 18.8727
-5 -8 -26 -0.2873 0.2817
-5 -8 -24 -1.7991 -1.3747
-5 -8 -22 2.7819 1.8414
-5 -8 -20 4.5822 5.0204
-5 -8 -18 -10.7042 -0.3759
-5 -8 -16 3.4077 4.8321
-5 -8 -14 -2.3850 -1.5892
-5 -8 -12 -10.5757 -15.0881
-5 -8 -10 -2.3380 -34.6725
-5 -8 -8 0.2559 -38.8409
-5 -8 -6 5.0803 -8.6425
-5 -8 -4 4.5755 5.1223
-5 -8 -2 42.0079 -38.1902
-5 -7 -27 2.8629 0.6411
-5 -7 -25 0.8402 -4.0263
-5 -7 -23 2.1516 -6.1147
-5 -7 -21 0.6169 -7.0118
-5 -7 -19 5.8469 -7.6052
-5 -7 -17 10.8762 -4.6812
-5 -7 -15 -11.4294 -5.2639
-5 -7 -13 -9.5883 17.8053
-5 -7 -11 -6.3166 21.2934
-5 -7 -9 5.6497 23.5094
-5 -7 -7 -17.5238 15.8112
-5 -7 -5 0.8710 -20.0085
-5 -7 -3 -8.3748 -8.6400
-5 -7 -1 -13.2639 36.6900
-5 -6 -28 0.8991 -0.1982
-5 -6 -26 1.9742 2.8684
-5 -6 -24 -3.6964 5.0355
-5 -6 -22 -1.6270 4.9419
-5 -6 -20 -5.5430 3.4327
-5 -6 -18 -6.2348 1.6852
-5 -6 -16 8.8502 5.9476
-5 -6 -14 2.5663 -1.8291
-5 -6 -12 10.6602 -9.7637
-5 -6 -10 7.3653 -18.0403
-5 -6 -8 -3.9969 -39.8328
-5 -6 -6 0.5756 -9.3570
-5 -6 -4 1.5087 31.8757
-5 -6 -2 -3.2179 -4.9803
-5 -5 -27 -2.7040 4.2410
-5 -5 -25 0.2658 -2.9670
-5 -5 -23 1.2043 -4.7017
-5 -5 -21 -1.0633 -3.8876
-5 -5 -19 0.5339 -3.2145
-5 -5 -17 11.9128 4.3823
-5 -5 -15 -4.4475 1.2485
-5 -5 -13 -7.0150 4.9440
-5 -5 -11 -2.2317 11.9592
-5 -5 -9 15.1848 36.0467
-5 -5 -7 0.9357 38.3760
-5 -5 -5 20.4899 -22.5655
-5 -5 -3 -2.0248 -12.6555
-5 -5 -1 -15.1890 18.4356
-5 -4 -28 5.0558 -1.3513
-5 -4 -26 3.0405 0.6195
-5 -4 -24 -3.9230 2.5025
-5 -4 -22 7.1006 5.2593
-5 -4 -20 1.5208 8.5601
-5 -4 -18 -8.1674 1.4869
-5 -4 -16 -5.5172 -10.4969
-5 -4 -14 -11.9467 -1.2419
-5 -4 -12 -6.2595 -9.9478
-5 -4 -10 -2.6442 -28.5572
-5 -4 -8 0.5985 -43.5769
-5 -4 -6 -23.9223 6.2871
-5 -4 -4 -26.1427 4.9916
-5 -4 -2 6.1537 -42.9944
-5 -3 -27 -3.8546 -1.4309
-5 -3 -25 1.4034 -5.6067
-5 -3 -23 -5.1354 -2.7297
-5 -3 -21 -7.1800 -2.7646
-5 -3 -19 -3.2590 -10.7630
-5 -3 -17 8.5598 -4.4371
-5 -3 -15 -1.5817 -6.0439
-5 -3 -13 6.3514 -0.5406
-5 -3 -11 14.0104 24.4619
-5 -3 -9 1.5991 36.5560
-5 -3 -7 -30.7174 21.3977
-5 -3 -5 15.1311 -38.7870
-5 -3 -3 42.2846 -0.9850
-5 -3 -1 109.2914 20.4883
-5 -2 -26 4.4707 6.1148
-5 -2 -24 1.0247 1.5843
-5 -2 -22 6.6635 -2.3541
-5 -2 -20 5.1942 3.6776
-5 -2 -18 4.8731 9.5607
-5 -2 -16 8.0906 3.8801
-5 -2 -14 3.8045 14.6892
-5 -2 -12 -2.8490 -6.5439
-5 -2 -10 -2.2714 -4.9665
-5 -2 -8 18.5492 -23.1937
-5 -2 -6 22.2749 11.0141
-5 -2 -4 -22.1535 9.8408
-5 -2 -2 -177.5178 0.0094
-5 -1 -27 -2.2611 -0.3073
-5 -1 -25 2.3569 0.7038
-5 -1 -23 -3.6380 2.7050
-5 -1 -21 -7.7509 4.3737
-5 -1 -19 -14.0527 -6.1308
-5 -1 -17 -9.5562 -2.2780
-5 -1 -15 -17.7916 -10.2294
-5 -1 -13 -10.9003 -13.7627
-5 -1 -11 0.6142 2.5288
-5 -1 -9 -0.0577 -15.9857
-5 -1 -7 -20.7514 -17.5079
-5 -1 -5 18.8095 -52.0447
-5 -1 -3 49.8171 -12.7740
-5 -1 -1 189.3700 10.7711
-5 0 -26 0.8079 -2.2708
-5 0 -24 -0.7713 -4.5413
-5 0 -22 3.5582 -1.5372
-5 0 -20 8.9096 5.8191
-5 0 -18 9.6333 1.9359
-5 0 -16 12.7143 -12.2363
-5 0 -14 18.3841 8.5052
-5 0 -12 11.8585 0.1309
-5 0 -10 5.7041 33.1428
-5 0 -8 -1.2137 39.5851
-5 0 -6 -20.1638 58.6257
-5 0 -4 -29.4939 -3.7669
-5 0 -2 -120.9683 -33.1437
-4 -28 -10 2.6228 -1.4237
-4 -28 -8 4.3042 -4.9029
-4 -28 -6 -0.6144 3.7034
-4 -27 -15 -4.5494 -7.6398
-4 -27 -13 -3.9251 -2.8883
-4 -27 -11 1.5758 -2.4476
-4 -27 -9 2.1941 2.6810
-4 -27 -7 2.0965 2.8666
-4 -27 -5 3.3754 0.2974
-4 -27 -3 2.9170 0.1886
-4 -27 -1 8.1811 3.3452
-4 -26 -16 2.8923 2.1973
-4 -26 -14 2.6755 1.2328
-4 -26 -12 5.4438 3.5839
-4 -26 -10 -0.2541 5.9182
-4 -26 -8 -2.2577 1.9374
-4 -26 -6 -0.9519 1.8246
-4 -26 -4 -5.4884 1.3140
-4 -26 -2 -2.8772 -5.4186
-4 -25 -17 0.0732 0.8372
-4 -25 -15 -0.8110 -3.5926
-4 -25 -13 -4.2808 -2.1588
-4 -25 -11 -1.6452 -7.4450
-4 -25 -9 0.9823 -3.7203
-4 -25 -7 4.2409 -3.5154
-4 -25 -5 5.1894 -5.6834
-4 -25 -3 1.5381 -2.8757
-4 -25 -1 -7.6958 1.4788
-4 -24 -18 -1.6493 0.8667
-4 -24 -16 -2.9029 0.6913
-4 -24 -14 -2.1660 -0.9332
-4 -24 -12 0.6109 2.7124
-4 -24 -10 -1.8290 -1.9180
-4 -24 -8 -0.9975 -0.9205
-4 -24 -6 7.3549 5.5079
-4 -24 -4 1.5048 9.0426
-4 -24 -2 9.8999 6.7615
-4 -23 -17 4.2271 2.6233
-4 -23 -15 2.7503 4.6858
-4 -23 -13 -1.7258 1.8500
-4 -23 -11 1.1968 -2.8086
-4 -23 -9 2.6139 3.7868
-4 -23 -7 0.6625 1.2727
-4 -23 -5 -7.2977 -5.7616
-4 -23 -3 -6.5350 -4.7672
-4 -23 -1 -18.7949 -3.1461
-4 -22 -18 0.5319 -0.7217
-4 -22 -16 -2.6203 -1.5046
-4 -22 -14 -0.3546 -5.6719
-4 -22 -12 2.7618 -1.9862
-4 -22 -10 3.2721 -2.5561
-4 -22 -8 -1.3237 4.3071
-4 -22 -6 6.6580 7.8052
-4 -22 -4 0.5707 4.1696
-4 -22 -2 10.3042 3.1878
-4 -21 -19 -2.4049 1.6215
-4 -21 -17 1.4862 -0.4133
-4 -21 -15 1.4627 -3.3137
-4 -21 -13 0.4049 2.4583
-4 -21 -11 -1.6482 6.0170
-4 -21 -9 0.3636 3.2022
-4 -21 -7 5.2328 -4.7902
-4 -21 -5 -5.4645 -10.7755
-4 -21 -3 0.6506 -5.8794
-4 -21 -1 -16.5684 -3.3841
-4 -20 -20 1.1038 -8.0677
-4 -20 -18 1.5324 -0.0064
-4 -20 -16 -2.8053 1.7555
-4 -20 -14 -3.9997 0.9412
-4 -20 -12 -4.9329 -5.6283
-4 -20 -10 -6.3175 -12.4991
-4 -20 -8 -6.4876 -9.8221
-4 -20 -6 7.5227 -2.2678
-4 -20 -4 10.1252 9.5969
-4 -20 -2 11.9954 12.3847
-4 -19 -19 1.6235 5.0889
-4 -19 -17 8.1024 10.9084
-4 -19 -15 6.4243 6.7388
-4 -19 -13 0.5334 5.4082
-4 -19 -11 0.5885 12.1569
-4 -19 -9 5.4908 10.0215
-4 -19 -7 4.5590 10.9339
-4 -19 -5 -13.0499 7.1264
-4 -19 -3 -9.8302 1.8560
-4 -19 -1 -30.1792 -0.3739
-4 -18 -20 -1.6669 -2.1005
-4 -18 -18 -2.6826 -4.1215
-4 -18 -16 -7.1813 -10.2264
-4 -18 -14 -0.6497 -4.0339
-4 -18 -12 8.3805 -6.1466
-4 -18 -10 5.8317 -1.8403
-4 -18 -8 -0.3817 -2.1581
-4 -18 -6 -0.0390 -7.3186
-4 -18 -4 4.0970 -6.8418
-4 -18 -2 16.1235 -7.1302
-4 -17 -21 -1.9776 -2.5915
-4 -17 -19 -1.3708 -3.6933
-4 -17 -17 0.4319 0.1998
-4 -17 -15 2.0981 -3.8029
-4 -17 -13 -4.7484 -5.0281
-4 -17 -11 -8.7447 10.7904
-4 -17 -9 -4.1810 3.7475
-4 -17 -7 -5.1997 2.6324
-4 -17 -5 -4.9352 -2.8089
-4 -17 -3 8.6604 -10.0940
-4 -17 -1 -3.0774 -6.6180
-4 -16 -22 1.6200 -3.4513
-4 -16 -20 4.2706 4.2976
-4 -16 -18 4.6948 3.3177
-4 -16 -16 3.2673 0.2687
-4 -16 -14 8.9014 12.2158
-4 -16 -12 4.6274 1.9562
-4 -16 -10 -2.9256 -5.2337
-4 -16 -8 -5.8980 -10.0085
-4 -16 -6 -4.6146 -8.6377
-4 -16 -4 -11.8690 0.6328
-4 -16 -2 -15.9466 0.5780
-4 -15 -23 -0.7955 0.2061
-4 -15 -21 -0.9207 2.9436
-4 -15 -19 0.8727 0.7263
-4 -15 -17 1.4510 10.2257
-4 -15 -15 -6.1812 6.9815
-4 -15 -13 -3.9748 -13.3497
-4 -15 -11 3.3613 7.2787
-4 -15 -9 7.5149 15.4215
-4 -15 -7 9.6261 13.9339
-4 -15 -5 23.5208 15.9353
-4 -15 -3 19.1404 19.6304
-4 -15 -1 -5.1992 7.0293
-4 -14 -24 1.2422 0.2438
-4 -14 -22 0.5710 -6.1526
-4 -14 -20 2.0528 -4.8869
-4 -14 -18 -6.3744 -10.6008
-4 -14 -16 -2.7103 -7.8658
-4 -14 -14 8.6182 8.2192
-4 -14 -12 1.5330 1.7152
-4 -14 -10 -8.8064 -1.3017
-4 -14 -8 -17.6701 1.5276
-4 -14 -6 -16.3261 -8.9167
-4 -14 -4 -18.6163 -17.1028
-4 -14 -2 0.6380 -26.5834
-4 -13 -25 2.3502 -1.8585
-4 -13 -23 -0.1632 3.2341
-4 -13 -21 2.6784 5.2473
-4 -13 -19 3.1727 2.7171
-4 -13 -17 5.6047 -1.3102
-4 -13 -15 2.6544 6.7799
-4 -13 -13 4.9989 -0.5661
-4 -13 -11 -1.9155 -3.9138
-4 -13 -9 6.8256 -7.8408
-4 -13 -7 4.4795 -5.5623
-4 -13 -5 -2.3978 -8.4723
-4 -13 -3 -12.2237 -19.2504
-4 -13 -1 -6.8668 -4.3445
-4 -12 -26 -0.7682 -3.2808
-4 -12 -24 -2.8633 -3.3328
-4 -12 -22 -4.8560 -0.8342
-4 -12 -20 2.4096 -3.6397
-4 -12 -18 -1.8428 -4.1455
-4 -12 -16 -3.3242 -1.1772
-4 -12 -14 -2.0388 -5.6361
-4 -12 -12 7.6828 -4.1886
-4 -12 -10 -1.8863 13.8637
-4 -12 -8 -12.8882 19.9551
-4 -12 -6 6.7444 -1.5956
-4 -12 -4 14.3853 16.0801
-4 -12 -2 15.6536 -0.5317
-4 -11 -27 -2.2249 6.4617
-4 -11 -25 1.1880 -2.9520
-4 -11 -23 1.0574 -2.4505
-4 -11 -21 -0.1281 -0.4563
-4 -11 -19 -3.8499 8.3622
-4 -11 -17 2.1773 3.0361
-4 -11 -15 0.5356 15.5998
-4 -11 -13 4.0068 9.9681
-4 -11 -11 -11.3721 -0.5618
-4 -11 -9 0.1367 -1.6366
-4 -11 -7 6.6307 6.9878
-4 -11 -5 5.0445 14.4166
-4 -11 -3 -20.6909 -6.5329
-4 -11 -1 -24.7803 19.6275
-4 -10 -26 0.2769 3.9632
-4 -10 -24 2.0663 2.9705
-4 -10 -22 1.9204 1.9859
-4 -10 -20 6.9686 -10.5539
-4 -10 -18 5.0021 -4.0171
-4 -10 -16 10.4774 0.1409
-4 -10 -14 0.5953 -5.4010
-4 -10 -12 1.1163 -4.4864
-4 -10 -10 -8.9671 -11.8027
-4 -10 -8 -5.9735 -9.0857
-4 -10 -6 4.4057 -22.6284
-4 -10 -4 3.3430 10.5402
-4 -10 -2 -18.3619 -9.9761
-4 -9 -27 -0.4476 0.7228
-4 -9 -25 -0.4908 -5.1583
-4 -9 -23 -3.4069 -3.4549
-4 -9 -21 0.5682 -0.1926
-4 -9 -19 -2.4907 3.5863
-4 -9 -17 -2.4461 -7.4360
-4 -9 -15 -13.1471 12.7818
-4 -9 -13 -0.1914 7.8782
-4 -9 -11 2.5920 0.4540
-4 -9 -9 15.1852 -4.8285
-4 -9 -7 2.7809 1.8420
-4 -9 -5 -2.9391 -0.1493
-4 -9 -3 10.0502 -41.7785
-4 -9 -1 45.8613 7.4837
-4 -8 -26 0.9140 0.9027
-4 -8 -24 4.3538 -1.7481
-4 -8 -22 -0.2949 2.0354
-4 -8 -20 -5.0460 -2.7095
-4 -8 -18 -4.7272 4.1919
-4 -8 -16 9.3748 -10.6057
-4 -8 -14 1.3828 -16.9653
-4 -8 -12 5.2498 8.7516
-4 -8 -10 -1.6756 25.7801
-4 -8 -8 -16.9556 38.4906
-4 -8 -6 -26.3357 0.7689
-4 -8 -4 -0.0468 7.0023
-4 -8 -2 -6.4754 -16.3097
-4 -7 -27 -3.6425 6.5117
-4 -7 -25 -1.9438 2.9029
-4 -7 -23 -1.9824 -1.2780
-4 -7 -21 -0.1153 -3.3079
-4 -7 -19 0.2627 -3.8696
-4 -7 -17 11.1913 -3.0710
-4 -7 -15 -5.9240 16.7978
-4 -7 -13 -0.4581 -1.6798
-4 -7 -11 -5.2909 -13.1496
-4 -7 -9 7.0398 -44.8275
-4 -7 -7 22.9572 -25.1093
-4 -7 -5 1.9705 16.3466
-4 -7 -3 -11.1183 -1.4181
-4 -7 -1 -21.6922 4.5897
-4 -6 -26 -2.6885 0.6897
-4 -6 -24 -3.3945 0.0324
-4 -6 -22 0.9098 0.3256
-4 -6 -20 9.6279 4.8232
-4 -6 -18 9.2212 15.3743
-4 -6 -16 7.4673 3.0075
-4 -6 -14 -11.0641 3.0118
-4 -6 -12 -7.7369 3.9692
-4 -6 -10 10.5813 9.3475
-4 -6 -8 2.4163 20.2620
-4 -6 -6 7.8311 -22.2032
-4 -6 -4 42.9842 10.3767
-4 -6 -2 -38.0850 34.6955
-4 -5 -27 3.8706 -1.6682
-4 -5 -25 0.6632 -2.6519
-4 -5 -23 0.0811 -2.9551
-4 -5 -21 -0.6936 -1.8927
-4 -5 -19 -13.8323 -7.9048
-4 -5 -17 -7.1187 -17.8290
-4 -5 -15 -14.6523 -4.8751
-4 -5 -13 -0.0387 -1.0092
-4 -5 -11 -1.3625 13.9159
-4 -5 -9 -7.1565 -16.8294
-4 -5 -7 -11.8267 11.3108
-4 -5 -5 -53.1547 14.9262
-4 -5 -3 30.9363 -47.6465
-4 -5 -1 122.0921 -57.3767
-4 -4 -26 1.9991 -0.0609
-4 -4 -24 6.3580 0.4705
-4 -4 -22 -4.8256 0.3666
-4 -4 -20 -6.4442 -0.8936
-4 -4 -18 10.2290 -2.3024
-4 -4 -16 12.4052 -6.8737
-4 -4 -14 2.0748 -7.1389
-4 -4 -12 11.6117 -13.5931
-4 -4 -10 24.6830 23.6601
-4 -4 -8 -5.1226 34.7559
-4 -4 -6 -8.6531 -35.3769
-4 -4 -4 15.7816 -40.5966
-4 -4 -2 -85.2054 7.4720
-4 -3 -27 1.1179 5.7466
-4 -3 -25 -7.1228 4.1652
-4 -3 -23 -4.5212 0.6467
-4 -3 -21 9.4890 2.5562
-4 -3 -19 1.5447 11.9508
-4 -3 -17 0.4728 7.0963
-4 -3 -15 -3.0993 12.7661
-4 -3 -13 -5.8300 9.3714
-4 -3 -11 -6.4986 6.5730
-4 -3 -9 0.9599 -42.2974
-4 -3 -7 15.5099 -2.5380
-4 -3 -5 -23.8933 38.3971
-4 -3 -3 3.9011 29.0241
-4 -3 -1 8.6970 -13.8149
-4 -2 -26 1.0357 -6.0784
-4 -2 -24 2.2076 -0.1260
-4 -2 -22 -6.5133 0.9152
-4 -2 -20 -6.8680 3.4129
-4 -2 -18 5.9387 -7.8014
-4 -2 -16 -6.2231 -11.7465
-4 -2 -14 -10.0796 -8.5725
-4 -2 -12 -6.3389 -17.0417
-4 -2 -10 -2.9447 12.2202
-4 -2 -8 -5.6100 7.5948
-4 -2 -6 23.5457 -32.8010
-4 -2 -4 52.3637 -42.7627
-4 -2 -2 -55.3168 9.1209
-4 -1 -27 -1.2640 1.2246
-4 -1 -25 1.0139 -3.4943
-4 -1 -23 -0.0188 -2.9907
-4 -1 -21 7.0965 -8.2019
-4 -1 -19 0.0125 -3.2308
-4 -1 -17 -4.8950 -8.1187
-4 -1 -15 3.9844 -3.7047
-4 -1 -13 5.3785 -5.2218
-4 -1 -11 15.7169 29.7835
-4 -1 -9 -0.4113 25.5088
-4 -1 -7 -22.3169 43.4242
-4 -1 -5 -36.5474 17.6342
-4 -1 -3 7.5065 -15.4293
-4 -1 -1 20.3952 -16.2861
-4 0 -26 2.1729 4.5878
-4 0 -24 2.5283 6.4819
-4 0 -22 -7.5928 7.9521
-4 0 -20 -11.8361 16.5707
-4 0 -18 6.4718 4.1005
-4 0 -16 0.8025 2.8370
-4 0 -14 0.1835 7.1106
-4 0 -12 -6.5340 -16.1803
-4 0 -10 -2.4738 -22.3985
-4 0 -8 11.8398 -43.1261
-4 0 -6 21.2143 -44.7466
-4 0 -4 9.7643 -42.6542
-4 0 -2 -103.7708 8.0480
-3 -28 -10 3.4077 2.8336
-3 -28 -8 0.7051 3.4476
-3 -28 -6 2.5470 -1.0990
-3 -27 -17 1.4122 3.5125
-3 -27 -15 3.8984 0.6563
-3 -27 -13 -0.4484 0.5669
-3 -27 -11 3.0958 -3.1999
-3 -27 -9 -3.9608 -3.9917
-3 -27 -7 -0.9929 -2.0017
-3 -27 -5 -2.7844 3.8198
-3 -27 -3 -5.2115 2.5289
-3 -27 -1 3.6064 0.7816
-3 -26 -16 -3.5615 -5.4675
-3 -26 -14 -4.0393 -5.3361
-3 -26 -12 -1.1429 -0.8487
-3 -26 -10 -2.7659 -1.4341
-3 -26 -8 2.2989 -0.1538
-3 -26 -6 3.4555 -0.7856
-3 -26 -4 2.4812 -1.9691
-3 -26 -2 1.0836 -2.4212
-3 -25 -17 1.0711 1.8249
-3 -25 -15 2.5347 1.1250
-3 -25 -13 -2.4901 3.8209
-3 -25 -11 2.5988 -0.0166
-3 -25 -9 1.0664 3.0654
-3 -25 -7 5.0511 3.2266
-3 -25 -5 1.1498 5.3764
-3 -25 -3 -6.6717 -0.6396
-3 -25 -1 2.8276 5.1591
-3 -24 -18 2.1842 1.0475
-3 -24 -16 1.6561 2.7569
-3 -24 -14 -2.7606 -0.7048
-3 -24 -12 4.5862 -4.5936
-3 -24 -10 4.2341 -3.9278
-3 -24 -8 0.9985 0.2943
-3 -24 -6 -1.1626 -2.6042
-3 -24 -4 5.6660 -0.7721
-3 -24 -2 3.3911 3.3231
-3 -23 -17 -4.3419 -0.7195
-3 -23 -15 -0.6335 -4.6414
-3 -23 -13 -1.4316 1.7414
-3 -23 -11 -0.7320 1.4003
-3 -23 -9 -3.1999 3.8794
-3 -23 -7 1.4818 -0.0259
-3 -23 -5 -1.2229 0.5031
-3 -23 -3 -4.7827 -5.2313
-3 -23 -1 4.6038 4.2976
-3 -22 -18 1.4156 2.6090
-3 -22 -16 2.7752 3.8123
-3 -22 -14 -0.4244 0.8516
-3 -22 -12 -2.9865 -0.3205
-3 -22 -10 -4.4759 -6.0885
-3 -22 -8 -0.6235 -4.3115
-3 -22 -6 5.7023 2.7690
-3 -22 -4 2.2101 3.3602
-3 -22 -2 -0.9731 6.1926
-3 -21 -19 0.6708 -4.6639
-3 -21 -17 1.3690 1.8432
-3 -21 -15 0.9228 -0.3846
-3 -21 -13 -3.3991 1.3982
-3 -21 -11 4.1590 -2.6710
-3 -21 -9 0.9441 1.2631
-3 -21 -7 2.7757 -3.2713
-3 -21 -5 -0.9202 -2.1621
-3 -21 -3 1.8708 2.4103
-3 -21 -1 -1.8836 5.5908
-3 -20 -20 3.5940 3.1500
-3 -20 -18 2.2270 5.2286
-3 -20 -16 -4.0832 0.2503
-3 -20 -14 0.3299 -5.1024
-3 -20 -12 0.5057 2.6122
-3 -20 -10 6.0270 3.1214
-3 -20 -8 1.9081 6.8688
-3 -20 -6 2.0105 8.6522
-3 -20 -4 -1.8503 -2.1621
-3 -20 -2 7.4572 3.3361
-3 -19 -19 -5.4408 -8.6913
-3 -19 -17 1.3510 -1.3871
-3 -19 -15 2.8911 -1.0531
-3 -19 -13 -4.6239 3.3432
-3 -19 -11 -0.2932 1.7391
-3 -19 -9 -7.8984 -3.2418
-3 -19 -7 -0.8960 -7.9975
-3 -19 -5 -3.4504 -6.6295
-3 -19 -3 2.6297 -6.5065
-3 -19 -1 4.1289 -3.0160
-3 -18 -20 0.2585 4.9160
-3 -18 -18 5.5039 5.0902
-3 -18 -16 0.6496 3.6365
-3 -18 -14 3.3923 -2.3879
-3 -18 -12 -4.7785 1.6757
-3 -18 -10 0.6246 -1.3968
-3 -18 -8 -0.2951 -1.1117
-3 -18 -6 3.8317 6.5253
-3 -18 -4 -0.9546 4.3228
-3 -18 -2 -0.3932 7.1677
-3 -17 -21 4.3684 -0.9702
-3 -17 -19 0.9328 1.3519
-3 -17 -17 -0.4372 1.2833
-3 -17 -15 4.4288 -1.0012
-3 -17 -13 1.7528 0.9774
-3 -17 -11 6.8478 4.5005
-3 -17 -9 -1.8124 1.3985
-3 -17 -7 -7.2416 -1.4241
-3 -17 -5 -3.7575 0.9748
-3 -17 -3 -4.4928 -1.0779
-3 -17 -1 -6.3006 4.8974
-3 -16 -20 1.0095 2.0881
-3 -16 -18 -0.3494 -0.6731
-3 -16 -16 -6.5394 2.4131
-3 -16 -14 -5.3552 -5.1506
-3 -16 -12 -3.8144 -1.5503
-3 -16 -10 3.0349 8.7821
-3 -16 -8 0.8223 7.5583
-3 -16 -6 4.7334 1.8582
-3 -16 -4 7.2282 -5.7296
-3 -16 -2 12.9975 -4.1962
-3 -15 -23 -1.9047 5.0390
-3 -15 -21 -6.6341 -1.5351
-3 -15 -19 -1.0551 -8.7299
-3 -15 -17 -1.0571 -5.9838
-3 -15 -15 8.5365 4.9083
-3 -15 -13 6.4807 4.7609
-3 -15 -11 -0.9424 -3.9508
-3 -15 -9 -1.2705 -4.2374
-3 -15 -7 -10.0339 -0.5005
-3 -15 -5 -1.0107 3.9150
-3 -15 -3 -8.1900 -19.4728
-3 -15 -1 8.0944 -2.3432
-3 -14 -24 -4.5577 -4.1185
-3 -14 -22 3.7772 -2.3522
-3 -14 -20 7.8909 6.4742
-3 -14 -18 5.2811 2.3577
-3 -14 -16 3.4349 6.6003
-3 -14 -14 -4.2048 0.2541
-3 -14 -12 0.0113 -1.3107
-3 -14 -10 0.7387 5.3094
-3 -14 -8 -3.7310 -0.2511
-3 -14 -6 -0.5966 -9.2246
-3 -14 -4 -7.0202 -5.6758
-3 -14 -2 -12.4392 3.8118
-3 -13 -25 -2.6257 -2.1340
-3 -13 -23 -0.2818 -2.5532
-3 -13 -21 -1.7165 1.6178
-3 -13 -19 1.0926 -0.3962
-3 -13 -17 -7.2274 -2.5817
-3 -13 -15 2.1107 -0.2207
-3 -13 -13 12.7608 0.3713
-3 -13 -11 -3.2934 -1.8874
-3 -13 -9 -2.6414 15.1283
-3 -13 -7 -1.5539 19.4534
-3 -13 -5 16.5486 34.6994
-3 -13 -3 -7.2037 3.9098
-3 -13 -1 15.6159 11.5056
-3 -12 -26 6.4514 1.6217
-3 -12 -24 3.0031 5.1527
-3 -12 -22 -0.2389 1.3491
-3 -12 -20 0.9394 -1.7373
-3 -12 -18 -1.7327 -4.0711
-3 -12 -16 6.8342 3.3117
-3 -12 -14 -3.3720 1.2832
-3 -12 -12 -2.5461 1.1917
-3 -12 -10 -3.9769 -1.4575
-3 -12 -8 -8.3903 -13.3928
-3 -12 -6 2.6716 -34.3797
-3 -12 -4 -0.0372 -28.9855
-3 -12 -2 -6.2666 -3.2354
-3 -11 -27 0.1465 1.5434
-3 -11 -25 -4.8354 -0.4497
-3 -11 -23 -0.0844 -1.2545
-3 -11 -21 -1.0854 -1.1932
-3 -11 -19 5.0570 -6.8138
-3 -11 -17 -0.2127 2.5624
-3 -11 -15 -9.3723 8.8149
-3 -11 -13 6.6893 3.7338
-3 -11 -11 4.9288 -9.9932
-3 -11 -9 11.1354 4.3974
-3 -11 -7 6.6903 10.5074
-3 -11 -5 12.5072 22.3898
-3 -11 -3 -22.6856 -14.7259
-3 -11 -1 19.7281 8.9384
-3 -10 -26 2.5992 -3.5351
-3 -10 -24 1.9929 -4.8304
-3 -10 -22 0.0027 -3.5150
-3 -10 -20 0.8192 1.3070
-3 -10 -18 -6.9848 -3.9476
-3 -10 -16 10.0558 -3.3609
-3 -10 -14 3.1130 -5.6077
-3 -10 -12 -5.7823 0.8847
-3 -10 -10 -7.0391 2.6373
-3 -10 -8 -15.9009 9.6403
-3 -10 -6 -15.6075 8.1645
-3 -10 -4 -17.6654 1.7875
-3 -10 -2 13.7224 -4.1246
-3 -9 -27 -2.2260 1.8229
-3 -9 -25 -5.8722 2.6449
-3 -9 -23 0.2833 1.8253
-3 -9 -21 -1.7930 3.9598
-3 -9 -19 2.7448 3.7582
-3 -9 -17 7.3178 1.8308
-3 -9 -15 -4.4556 -8.3727
-3 -9 -13 6.8669 5.9990
-3 -9 -11 0.4841 11.0385
-3 -9 -9 10.4377 6.2705
-3 -9 -7 17.1839 -0.0461
-3 -9 -5 35.8328 3.1466
-3 -9 -3 -13.9285 -6.2270
-3 -9 -1 -0.8201 22.3567
-3 -8 -26 2.4912 5.6304
-3 -8 -24 -0.0028 1.9477
-3 -8 -22 -1.1871 -6.3139
-3 -8 -20 3.5038 -7.2797
-3 -8 -18 -0.1169 -4.0390
-3 -8 -16 4.7217 13.4181
-3 -8 -14 -6.2314 2.3601
-3 -8 -12 0.8373 -4.9503
-3 -8 -10 4.4529 -10.8243
-3 -8 -8 -13.3324 -28.3107
-3 -8 -6 -12.3149 -19.9219
-3 -8 -4 -12.9499 10.7741
-3 -8 -2 -0.8776 4.7563
-3 -7 -27 0.7150 -3.5000
-3 -7 -25 -0.5590 -3.7012
-3 -7 -23 4.6878 1.2387
-3 -7 -21 2.0468 4.9810
-3 -7 -19 0.5478 7.2855
-3 -7 -17 4.1937 5.3748
-3 -7 -15 -13.3265 -5.4010
-3 -7 -13 -6.7835 2.5513
-3 -7 -11 -0.1708 0.9825
-3 -7 -9 12.9676 12.6463
-3 -7 -7 -4.4045 23.7204
-3 -7 -5 16.0990 -11.1431
-3 -7 -3 -9.2395 -7.3499
-3 -7 -1 -6.3010 16.4493
-3 -6 -26 -0.1669 2.5897
-3 -6 -24 -4.7424 -2.6538
-3 -6 -22 -3.2250 -6.5293
-3 -6 -20 -11.1206 -5.5466
-3 -6 -18 -8.6690 -19.4161
-3 -6 -16 9.2906 -15.5880
-3 -6 -14 2.6519 -8.4861
-3 -6 -12 2.6623 4.4799
-3 -6 -10 5.4787 9.9914
-3 -6 -8 4.6520 -3.8737
-3 -6 -6 -16.3643 27.4041
-3 -6 -4 -15.2452 5.6363
-3 -6 -2 74.4335 -67.5982
-3 -5 -27 -0.3815 4.4847
-3 -5 -25 0.3714 0.2275
-3 -5 -23 -1.0786 3.5203
-3 -5 -21 3.5298 4.8646
-3 -5 -19 14.4509 8.9457
-3 -5 -17 15.1246 13.9726
-3 -5 -15 -15.2269 0.6835
-3 -5 -13 -8.5894 -3.2770
-3 -5 -11 11.9025 -3.5064
-3 -5 -9 18.0987 4.9744
-3 -5 -7 -5.5302 -7.2612
-3 -5 -5 20.0114 -43.2704
-3 -5 -3 -34.9403 53.1088
-3 -5 -1 -99.1555 53.1781
-3 -4 -26 -0.7101 -0.6682
-3 -4 -24 -6.1526 -1.5209
-3 -4 -22 4.5906 -5.5049
-3 -4 -20 1.0012 3.8238
-3 -4 -18 -5.2571 2.9635
-3 -4 -16 2.8276 2.9387
-3 -4 -14 5.8402 12.0724
-3 -4 -12 0.3034 6.9702
-3 -4 -10 -14.6651 0.5102
-3 -4 -8 -13.9782 -38.9893
-3 -4 -6 -6.8965 12.8891
-3 -4 -4 3.7260 26.3773
-3 -4 -2 -4.3065 -32.4418
-3 -3 -25 5.0958 -2.8664
-3 -3 -23 -1.0898 3.5327
-3 -3 -21 -7.5004 4.5302
-3 -3 -19 -3.7906 -11.2929
-3 -3 -17 4.1510 -8.7699
-3 -3 -15 -17.3022 -17.2338
-3 -3 -13 -9.6254 -23.8877
-3 -3 -11 11.7233 -0.3892
-3 -3 -9 13.4763 31.5062
-3 -3 -7 -1.7952 31.3039
-3 -3 -5 28.4662 -66.0856
-3 -3 -3 15.3778 -27.3383
-3 -3 -1 59.4082 1.4441
-3 -2 -26 0.0091 1.7168
-3 -2 -24 -2.5653 -1.6017
-3 -2 -22 0.0937 -5.5235
-3 -2 -20 2.4206 4.2522
-3 -2 -18 -4.2241 0.6554
-3 -2 -16 1.9023 -4.8591
-3 -2 -14 9.2042 17.3395
-3 -2 -12 -2.6053 1.4607
-3 -2 -10 11.2828 12.5455
-3 -2 -8 7.3024 -15.4213
-3 -2 -6 -17.2227 30.5441
-3 -2 -4 -11.3080 23.8772
-3 -2 -2 -64.5535 -15.8196
-3 -1 -25 2.3611 -0.5969
-3 -1 -23 -4.8571 2.8584
-3 -1 -21 -3.3534 9.5517
-3 -1 -19 7.1281 -2.1124
-3 -1 -17 14.3825 7.2903
-3 -1 -15 -5.3587 -3.3101
-3 -1 -13 -0.8527 -12.1002
-3 -1 -11 -0.1977 -1.8506
-3 -1 -9 -10.7830 -29.1403
-3 -1 -7 -6.1905 -4.4779
-3 -1 -5 6.2802 -25.6999
-3 -1 -3 -50.7818 34.9164
-3 -1 -1 26.5124 34.4733
-3 0 -26 -1.4472 -3.0701
-3 0 -24 1.9053 -1.8346
-3 0 -22 1.8414 -5.5790
-3 0 -20 0.4848 -0.0774
-3 0 -18 -16.4108 -4.5390
-3 0 -16 -12.7037 -10.7327
-3 0 -14 5.6033 4.5138
-3 0 -12 -3.4154 -11.2007
-3 0 -10 8.1261 48.3752
-3 0 -8 -3.3251 25.2523
-3 0 -6 18.5937 1.1997
-3 0 -4 77.5357 -51.4605
-3 0 -2 -37.6268 -54.7525
-2 -28 -12 1.6690 -1.6519
-2 -28 -10 -1.3941 -1.7997
-2 -28 -8 1.4960 -3.8124
-2 -28 -6 -1.7257 3.5770
-2 -27 -17 2.6695 -1.4846
-2 -27 -15 1.0384 -3.6987
-2 -27 -13 -4.5171 0.4392
-2 -27 -11 0.2408 -0.8175
-2 -27 -9 4.5980 5.4378
-2 -27 -7 1.3284 -0.8802
-2 -27 -5 5.4778 -1.0919
-2 -27 -3 -2.1893 2.1221
-2 -27 -1 -9.8474 -1.0927
-2 -26 -16 -3.2082 4.3687
-2 -26 -14 -0.4054 5.9001
-2 -26 -12 5.0801 -1.6262
-2 -26 -10 -2.8089 -6.4449
-2 -26 -8 3.3970 -5.4448
-2 -26 -6 4.1510 0.8161
-2 -26 -4 0.3944 3.2246
-2 -26 -2 5.7590 2.4779
-2 -25 -17 0.8963 -1.9488
-2 -25 -15 1.3009 -2.5724
-2 -25 -13 -1.0155 0.1458
-2 -25 -11 4.4075 0.6410
-2 -25 -9 3.3372 5.8438
-2 -25 -7 -3.4115 0.6149
-2 -25 -5 -0.6338 4.0239
-2 -25 -3 3.4001 3.2381
-2 -25 -1 3.9217 -4.7957
-2 -24 -18 -3.9557 0.5193
-2 -24 -16 -3.1168 -2.3038
-2 -24 -14 -0.4720 -4.2709
-2 -24 -12 -0.4826 -6.6970
-2 -24 -10 -7.7960 -4.9999
-2 -24 -8 -5.5634 1.9860
-2 -24 -6 -3.0055 -1.6385
-2 -24 -4 -11.9743 -8.8242
-2 -24 -2 -7.3617 -7.9034
-2 -23 -17 2.0481 1.9336
-2 -23 -15 -1.5471 6.4575
-2 -23 -13 -1.7734 5.9898
-2 -23 -11 4.3715 1.7509
-2 -23 -9 8.1929 1.1538
-2 -23 -7 7.9071 -0.5601
-2 -23 -5 4.8876 6.0063
-2 -23 -3 14.0327 11.9218
-2 -23 -1 -0.5821 1.0476
-2 -22 -18 0.4568 0.0204
-2 -22 -16 -0.8963 -0.1030
-2 -22 -14 0.2032 -1.7647
-2 -22 -12 -1.5487 -2.5769
-2 -22 -10 -1.1093 -5.9581
-2 -22 -8 -2.9040 -4.9520
-2 -22 -6 8.8883 -6.6865
-2 -22 -4 5.3873 1.4497
-2 -22 -2 1.7770 3.2086
-2 -21 -19 3.0840 -0.7312
-2 -21 -17 0.8065 1.8770
-2 -21 -15 -2.7902 3.3696
-2 -21 -13 -4.0083 1.2208
-2 -21 -11 -3.9290 0.5869
-2 -21 -9 -1.6309 0.4427
-2 -21 -7 3.4589 5.2274
-2 -21 -5 -11.9048 4.4847
-2 -21 -3 5.0986 1.4326
-2 -21 -1 -10.9095 -1.9961
-2 -20 -20 -8.1285 0.3720
-2 -20 -18 -1.0975 1.0215
-2 -20 -16 1.9474 -2.2763
-2 -20 -14 4.7915 0.2170
-2 -20 -12 3.9659 1.2638
-2 -20 -10 4.2627 1.5059
-2 -20 -8 -6.6084 2.4772
-2 -20 -4 -4.5335 4.2601
-2 -20 -2 -3.4138 -6.3959
-2 -19 -19 3.5707 2.0259
-2 -19 -17 0.1578 0.0794
-2 -19 -15 -2.3935 -6.8435
-2 -19 -13 -1.8898 -7.0954
-2 -19 -11 2.2526 1.2098
-2 -19 -9 2.3331 -4.0428
-2 -19 -7 3.0977 -1.2302
-2 -19 -5 -6.3791 -6.0026
-2 -19 -3 24.3090 -4.1694
-2 -19 -1 0.7673 0.9209
-2 -18 -20 1.9313 -2.4735
-2 -18 -18 4.4134 2.7141
-2 -18 -16 -1.0169 0.7736
-2 -18 -14 -2.4536 11.1312
-2 -18 -12 -5.8004 7.9045
-2 -18 -10 -3.0175 1.4282
-2 -18 -8 -1.3747 0.0396
-2 -18 -6 6.9723 -0.9299
-2 -18 -4 -2.6399 9.9796
-2 -18 -2 -12.1901 -1.3563
-2 -17 -21 -3.9191 2.5394
-2 -17 -19 -3.6046 0.4940
-2 -17 -17 2.6499 4.7605
-2 -17 -15 1.8614 1.4623
-2 -17 -13 -4.4483 -9.9890
-2 -17 -11 0.3309 0.7184
-2 -17 -9 2.0135 -4.9301
-2 -17 -7 2.4620 6.0430
-2 -17 -5 -3.7057 9.7277
-2 -17 -3 13.6617 2.6480
-2 -17 -1 -9.1465 -6.8972
-2 -16 -22 0.4278 0.2352
-2 -16 -20 -0.5365 1.0343
-2 -16 -18 0.8892 -3.8510
-2 -16 -16 -4.2786 -6.6854
-2 -16 -14 4.2973 6.2324
-2 -16 -12 9.4622 3.8829
-2 -16 -10 7.3872 4.5528
-2 -16 -8 -5.0721 6.1116
-2 -16 -6 0.7816 -8.3502
-2 -16 -4 -1.1659 -7.7047
-2 -16 -2 2.2660 -3.9049
-2 -15 -23 -0.8952 -5.0868
-2 -15 -21 6.1667 0.9403
-2 -15 -19 1.9648 4.3642
-2 -15 -17 3.3157 -0.2400
-2 -15 -15 3.5916 -3.6759
-2 -15 -13 -1.4849 -12.7500
-2 -15 -11 -5.1761 2.0002
-2 -15 -9 -9.7381 -1.7280
-2 -15 -7 -18.7716 4.2822
-2 -15 -5 -20.0579 0.3748
-2 -15 -3 -2.1904 -6.9206
-2 -15 -1 -7.9961 -18.0945
-2 -14 -24 1.2514 4.1402
-2 -14 -22 -0.3292 4.0967
-2 -14 -20 -1.1230 1.9941
-2 -14 -18 -0.8906 -3.7826
-2 -14 -16 -2.5623 3.2255
-2 -14 -14 1.5899 15.3981
-2 -14 -12 3.3228 4.5240
-2 -14 -10 7.0506 2.1597
-2 -14 -8 12.5734 14.9931
-2 -14 -6 26.7186 6.2550
-2 -14 -4 1.5809 8.5756
-2 -14 -2 -3.3844 3.4366
-2 -13 -25 -0.9590 1.3366
-2 -13 -23 -5.4346 0.0656
-2 -13 -21 1.0721 -5.5264
-2 -13 -19 0.4041 -0.9484
-2 -13 -17 3.0078 -1.9522
-2 -13 -15 -9.4301 -0.6400
-2 -13 -13 -1.6889 -13.8210
-2 -13 -11 0.0584 -3.1961
-2 -13 -9 -1.1850 -5.7648
-2 -13 -7 -0.5573 -7.1768
-2 -13 -5 9.8277 -3.5481
-2 -13 -3 10.4197 -4.8077
-2 -13 -1 1.8730 -4.1976
-2 -12 -26 1.6068 -3.2506
-2 -12 -24 1.0327 -5.0090
-2 -12 -22 2.8675 -0.6006
-2 -12 -20 3.6571 -3.4403
-2 -12 -18 -0.7668 -1.1719
-2 -12 -16 5.4253 9.2901
-2 -12 -14 6.2733 18.1010
-2 -12 -12 1.3380 3.6144
-2 -12 -10 -13.6377 -7.9900
-2 -12 -8 -11.4771 7.8463
-2 -12 -6 1.3609 -3.6693
-2 -12 -4 -22.2183 19.4222
-2 -12 -2 -29.8935 5.3147
-2 -11 -27 -1.6055 -1.7109
-2 -11 -25 3.7948 -1.2773
-2 -11 -23 -1.9977 6.6971
-2 -11 -21 -0.4338 4.3297
-2 -11 -19 -3.0092 6.9351
-2 -11 -17 8.0524 -16.2944
-2 -11 -15 -1.1086 -16.9177
-2 -11 -13 11.1414 -13.5348
-2 -11 -11 4.1445 6.5751
-2 -11 -9 10.5859 10.5794
-2 -11 -7 0.0050 12.1951
-2 -11 -5 -0.7789 8.2555
-2 -11 -3 3.0303 -20.9024
-2 -11 -1 14.1294 18.6889
-2 -10 -28 2.2965 0.1607
-2 -10 -26 -3.5757 6.9211
-2 -10 -24 -4.4539 -0.5496
-2 -10 -22 0.0885 -0.8761
-2 -10 -20 -0.2730 -8.1288
-2 -10 -18 -5.6567 5.4741
-2 -10 -16 -3.3044 10.6045
-2 -10 -14 -11.2568 6.7869
-2 -10 -12 11.6252 4.3092
-2 -10 -10 5.7772 5.4921
-2 -10 -8 4.1343 12.0783
-2 -10 -6 12.1446 -25.3212
-2 -10 -4 8.1586 4.3523
-2 -10 -2 0.2450 -26.6578
-2 -9 -27 -0.8701 2.8208
-2 -9 -25 7.3670 -0.6204
-2 -9 -23 5.0514 0.1869
-2 -9 -21 4.4113 -4.5651
-2 -9 -19 -1.1213 4.6246
-2 -9 -17 8.5349 -2.3964
-2 -9 -15 -6.8845 8.8773
-2 -9 -13 1.1256 -3.0111
-2 -9 -11 -18.7937 -8.6761
-2 -9 -9 2.5742 -27.3258
-2 -9 -7 -1.1372 -1.4104
-2 -9 -5 -18.3496 35.2000
-2 -9 -3 -25.2680 -0.6174
-2 -9 -1 -29.0149 49.1903
-2 -8 -26 -4.8230 -2.3773
-2 -8 -24 -6.5937 -1.7747
-2 -8 -22 -4.4957 0.0625
-2 -8 -20 0.0727 -7.9951
-2 -8 -18 5.9993 1.0498
-2 -8 -16 11.8348 -10.8108
-2 -8 -14 -11.2158 -12.5340
-2 -8 -12 4.0323 -4.0858
-2 -8 -10 -0.4666 4.2665
-2 -8 -8 -0.9690 11.0718
-2 -8 -6 16.7695 -27.9271
-2 -8 -4 35.7038 24.8815
-2 -8 -2 -27.3411 -4.6959
-2 -7 -27 -1.0496 5.2503
-2 -7 -25 -0.6582 2.5389
-2 -7 -23 -0.1984 -1.3098
-2 -7 -21 1.7271 3.3042
-2 -7 -19 -10.6502 7.4668
-2 -7 -17 1.9306 -6.9570
-2 -7 -15 -7.4284 9.0522
-2 -7 -13 14.9890 12.2793
-2 -7 -11 11.7561 29.4469
-2 -7 -9 33.4517 5.2008
-2 -7 -7 11.5518 10.7967
-2 -7 -5 -15.9329 27.0053
-2 -7 -3 40.5267 -15.5046
-2 -7 -1 58.7438 28.1400
-2 -6 -26 2.2122 -1.1221
-2 -6 -24 6.5702 -0.3487
-2 -6 -22 2.7766 -0.7424
-2 -6 -20 3.4742 -4.4168
-2 -6 -18 6.5601 10.5563
-2 -6 -16 -3.4616 -3.5694
-2 -6 -14 -22.3463 -20.8016
-2 -6 -12 2.6762 -31.0533
-2 -6 -10 -3.8651 -11.5787
-2 -6 -8 -30.7725 4.6934
-2 -6 -6 -43.1875 -35.1552
-2 -6 -4 -28.5031 -7.9695
-2 -6 -2 -90.4680 -30.5307
-2 -5 -27 -1.3592 -0.3130
-2 -5 -25 -5.5818 0.4606
-2 -5 -23 -2.5540 -1.5648
-2 -5 -21 4.0157 1.7514
-2 -5 -19 -8.3627 1.8720
-2 -5 -17 11.0048 -6.9912
-2 -5 -15 4.6924 15.4156
-2 -5 -13 7.5424 16.2337
-2 -5 -11 -4.0792 18.5765
-2 -5 -9 17.0994 -15.3059
-2 -5 -7 22.6888 -2.5583
-2 -5 -5 4.4067 34.3401
-2 -5 -3 56.2989 7.8697
-2 -5 -1 18.0054 2.7085
-2 -4 -26 -0.1358 1.2760
-2 -4 -24 -3.5108 -0.0069
-2 -4 -22 -9.9373 -2.2519
-2 -4 -20 -0.6625 -2.2726
-2 -4 -18 10.2826 0.1914
-2 -4 -16 -7.5186 -7.8405
-2 -4 -14 -21.6323 -12.5865
-2 -4 -12 -0.0337 -24.2985
-2 -4 -10 12.3027 0.7388
-2 -4 -8 20.9865 15.6575
-2 -4 -6 33.4741 -14.0784
-2 -4 -4 54.7023 7.1540
-2 -4 -2 -59.9507 28.7350
-2 -3 -27 1.6449 -2.3074
-2 -3 -25 3.8378 -3.7403
-2 -3 -23 4.1053 -1.3703
-2 -3 -21 7.7367 -0.9211
-2 -3 -19 -7.8879 3.4264
-2 -3 -17 -1.7714 -3.5504
-2 -3 -15 -0.1864 7.1962
-2 -3 -13 3.4540 4.3093
-2 -3 -11 0.0893 23.7852
-2 -3 -9 -14.8676 -3.2310
-2 -3 -7 -36.1691 -20.5455
-2 -3 -5 -46.6330 23.0082
-2 -3 -3 -0.0587 22.4766
-2 -3 -1 -34.0352 -5.5662
-2 -2 -26 -1.5574 -1.5806
-2 -2 -24 0.2981 -0.8659
-2 -2 -22 -4.4536 2.5765
-2 -2 -20 1.7343 5.5483
-2 -2 -18 14.2601 -1.9760
-2 -2 -16 -2.0125 2.8087
-2 -2 -14 2.5623 -0.0287
-2 -2 -12 13.0777 -23.8583
-2 -2 -10 5.2245 -12.5826
-2 -2 -8 14.8308 11.2962
-2 -2 -6 8.3976 9.6050
-2 -2 -4 17.9860 -44.0319
-2 -2 -2 -96.7736 -20.4719
-2 -1 -25 1.9680 0.7040
-2 -1 -23 -0.9561 4.5937
-2 -1 -21 1.3687 1.2545
-2 -1 -19 -14.0957 6.1818
-2 -1 -17 -11.0576 -3.6512
-2 -1 -15 4.9025 -0.2637
-2 -1 -13 -7.8309 -16.0991
-2 -1 -11 -1.3542 16.4981
-2 -1 -9 -0.4641 22.2209
-2 -1 -7 -7.0334 -19.8603
-2 -1 -5 22.7582 -19.7139
-2 -1 -3 61.7763 -30.8205
-2 -1 -1 34.5826 -24.4403
-2 0 -26 2.3790 -5.1981
-2 0 -24 -0.1459 -5.9066
-2 0 -22 -7.5622 -6.5947
-2 0 -20 7.2925 -4.3244
-2 0 -18 23.3004 -10.4730
-2 0 -16 -7.2037 5.5065
-2 0 -14 -4.2955 12.7352
-2 0 -12 4.4606 -4.6422
-2 0 -10 -11.4481 -21.5716
-2 0 -8 9.7671 -23.7984
-2 0 -6 18.2482 38.6401
-2 0 -4 2.5943 62.1504
-2 0 -2 -194.3841 102.8557
-1 -28 -10 0.8902 0.2802
-1 -28 -8 -1.9565 1.9135
-1 -27 -17 -5.2223 -1.1652
-1 -27 -15 -3.7956 -3.7747
-1 -27 -13 1.2697 2.3948
-1 -27 -11 5.9040 -1.0216
-1 -27 -9 1.3654 -2.8679
-1 -27 -7 4.4079 0.7090
-1 -27 -5 0.1474 3.8832
-1 -27 -3 -3.2057 -6.1237
-1 -27 -1 6.2920 1.6912
-1 -26 -16 3.0751 2.4754
-1 -26 -14 -3.1450 1.4382
-1 -26 -12 -4.7782 -8.3152
-1 -26 -10 -1.7715 -0.8689
-1 -26 -8 -2.0433 2.5782
-1 -26 -6 -7.4865 -0.9565
-1 -26 -4 -3.4765 4.4624
-1 -26 -2 -8.1799 3.8908
-1 -25 -17 -2.9089 0.0520
-1 -25 -15 -1.4670 -0.1585
-1 -25 -13 5.1100 5.9387
-1 -25 -11 5.5338 -1.3340
-1 -25 -9 0.5398 -3.1247
-1 -25 -7 4.5725 -4.8865
-1 -25 -5 8.5481 0.5628
-1 -25 -3 7.7646 -4.4605
-1 -25 -1 11.3180 7.6114
-1 -24 -18 0.3531 -2.5885
-1 -24 -16 -0.4725 1.2423
-1 -24 -14 -2.9861 3.4085
-1 -24 -12 -2.2538 -3.0006
-1 -24 -10 -3.3555 -0.1330
-1 -24 -8 0.0818 -2.7887
-1 -24 -6 -2.7849 0.7027
-1 -24 -4 -2.3373 4.2463
-1 -24 -2 -6.9602 -0.0601
-1 -23 -19 -0.3066 2.2085
-1 -23 -17 -1.9945 1.7000
-1 -23 -15 -1.0866 -1.5735
-1 -23 -13 1.3450 0.7413
-1 -23 -11 3.7858 -3.8816
-1 -23 -9 5.4457 7.1702
-1 -23 -7 1.9618 5.9816
-1 -23 -5 3.2835 6.0458
-1 -23 -3 9.5015 -1.4893
-1 -23 -1 8.7966 3.7654
-1 -22 -18 3.0037 -2.1858
-1 -22 -16 0.3122 2.2261
-1 -22 -14 -1.1712 1.9018
-1 -22 -12 -3.5149 -5.9011
-1 -22 -10 -3.8123 -9.2262
-1 -22 -8 -5.2138 -13.8765
-1 -22 -6 -3.8604 -6.3970
-1 -22 -4 -5.2075 -4.9333
-1 -22 -2 -11.1747 4.8401
-1 -21 -19 1.7536 -1.5741
-1 -21 -17 0.0182 2.4718
-1 -21 -15 -1.3238 0.1225
-1 -21 -13 2.1412 6.4737
-1 -21 -11 4.2806 5.0369
-1 -21 -9 0.2046 7.6488
-1 -21 -7 2.0142 4.8290
-1 -21 -5 1.4353 15.8067
-1 -21 -3 12.0217 11.3670
-1 -21 -1 9.4461 -3.4934
-1 -20 -20 -2.1446 2.1659
-1 -20 -18 2.1035 1.3601
-1 -20 -16 -3.8052 -2.6512
-1 -20 -14 -4.4829 -4.1633
-1 -20 -12 -10.0328 -2.9737
-1 -20 -10 2.7388 -4.6784
-1 -20 -8 1.9639 -8.9075
-1 -20 -4 4.5208 -21.8545
-1 -20 -2 6.8888 -4.1534
-1 -19 -19 -2.2949 -1.3220
-1 -19 -17 4.4071 3.1892
-1 -19 -15 6.0546 2.7986
-1 -19 -13 3.7051 7.7197
-1 -19 -11 5.0683 5.0436
-1 -19 -9 -4.5448 2.8076
-1 -19 -7 -0.0578 7.3675
-1 -19 -5 -3.6794 20.6410
-1 -19 -3 -1.2890 17.9851
-1 -19 -1 -15.0013 -2.7522
-1 -18 -20 -1.6450 2.8398
-1 -18 -18 1.6663 1.3862
-1 -18 -16 -5.7013 -1.0863
-1 -18 -14 -2.5730 -4.8374
-1 -18 -12 -5.7531 -3.8370
-1 -18 -10 8.7950 -2.5844
-1 -18 -8 -2.0322 -2.3455
-1 -18 -6 -6.3231 0.7651
-1 -18 -4 -4.1137 -11.2578
-1 -18 -2 8.9233 -7.8340
-1 -17 -21 2.4853 -0.3852
-1 -17 -19 0.7520 0.5494
-1 -17 -17 0.5625 -0.6938
-1 -17 -15 -1.0285 -5.3862
-1 -17 -13 -2.7606 -1.0930
-1 -17 -11 2.1242 1.7753
-1 -17 -9 -5.5753 -5.6969
-1 -17 -5 0.6703 2.6631
-1 -17 -3 6.9630 1.7078
-1 -17 -1 9.3265 3.5722
-1 -16 -22 -0.1320 1.7469
-1 -16 -20 0.1976 7.3419
-1 -16 -18 4.7432 0.1462
-1 -16 -16 4.1781 4.3955
-1 -16 -14 2.4960 6.5090
-1 -16 -12 -4.4643 3.7859
-1 -16 -10 5.9053 5.9808
-1 -16 -8 5.8171 4.0484
-1 -16 -6 10.8597 6.2314
-1 -16 -4 6.7064 1.6331
-1 -16 -2 -8.3519 -10.0601
-1 -15 -23 1.3857 -1.5670
-1 -15 -21 -2.0419 -3.3055
-1 -15 -19 -0.2500 -5.0710
-1 -15 -17 -3.5804 -3.3371
-1 -15 -15 -3.8967 -2.7806
-1 -15 -13 1.0138 -3.1403
-1 -15 -11 4.7613 -2.4502
-1 -15 -9 -1.1411 1.8462
-1 -15 -7 -10.8393 7.1467
-1 -15 -5 -6.6675 4.2259
-1 -15 -3 -10.7413 -4.9012
-1 -15 -1 9.4718 15.8553
-1 -14 -24 -2.9726 1.3170
-1 -14 -22 4.0228 -0.1472
-1 -14 -20 2.8172 8.0509
-1 -14 -18 -1.5147 -0.0083
-1 -14 -16 4.3572 1.6592
-1 -14 -14 1.4941 1.7694
-1 -14 -12 1.5741 -0.9782
-1 -14 -10 2.2136 6.1639
-1 -14 -8 -3.3306 4.1352
-1 -14 -6 2.7108 3.1076
-1 -14 -4 4.7508 10.2095
-1 -14 -2 -12.0824 -2.7122
-1 -13 -25 1.8138 0.2331
-1 -13 -23 0.1675 1.6090
-1 -13 -21 -6.1329 1.7028
-1 -13 -19 0.7315 -2.9559
-1 -13 -17 -3.0412 -0.9685
-1 -13 -15 -5.6023 2.0392
-1 -13 -13 3.9971 0.7912
-1 -13 -11 -2.0342 -13.9969
-1 -13 -9 -0.0210 -10.2686
-1 -13 -7 6.6303 -3.7325
-1 -13 -5 9.5781 -1.5967
-1 -13 -3 -7.7289 -16.9853
-1 -13 -1 48.7572 18.1217
-1 -12 -26 1.6773 -2.0050
-1 -12 -24 -2.9839 2.4454
-1 -12 -22 3.1877 -0.0898
-1 -12 -20 7.9975 -0.5734
-1 -12 -18 5.9523 -3.7689
-1 -12 -16 10.3450 2.0879
-1 -12 -14 -4.6157 -2.4686
-1 -12 -12 0.2951 -1.5235
-1 -12 -10 6.7912 9.3405
-1 -12 -8 -0.2102 10.7754
-1 -12 -6 0.7033 8.2879
-1 -12 -4 -5.7585 16.2533
-1 -12 -2 -34.0688 4.1315
-1 -11 -27 -1.3188 -0.2400
-1 -11 -25 -3.7732 2.7751
-1 -11 -23 1.7514 -3.1460
-1 -11 -21 -3.5385 -0.2287
-1 -11 -19 -7.3640 0.9422
-1 -11 -17 -7.5312 -1.8542
-1 -11 -15 -7.9711 -2.6665
-1 -11 -13 8.4063 7.4661
-1 -11 -11 -0.6559 1.3089
-1 -11 -9 -5.9059 8.1588
-1 -11 -7 6.3246 5.2406
-1 -11 -5 18.3508 2.5356
-1 -11 -3 -14.5448 -2.3326
-1 -11 -1 49.9135 31.1829
-1 -10 -28 -0.3705 0.8754
-1 -10 -26 4.2066 -0.4894
-1 -10 -24 5.0209 1.7488
-1 -10 -22 -0.7118 2.5180
-1 -10 -20 1.1826 -0.6398
-1 -10 -18 4.5064 -0.6884
-1 -10 -16 15.7271 5.9803
-1 -10 -14 3.8745 -7.3669
-1 -10 -12 0.0116 -3.8972
-1 -10 -10 7.0664 -4.3012
-1 -10 -8 3.5214 -7.7114
-1 -10 -6 -5.9831 6.3428
-1 -10 -4 -14.8319 14.0274
-1 -10 -2 -13.8704 -5.8035
-1 -9 -27 -0.2423 -5.7329
-1 -9 -25 -8.3346 2.5535
-1 -9 -23 -1.9671 -1.3302
-1 -9 -21 0.0811 -2.2300
-1 -9 -19 -1.1840 2.2325
-1 -9 -17 -2.2466 1.6122
-1 -9 -15 -22.0660 -6.1009
-1 -9 -13 -2.7045 0.0626
-1 -9 -11 9.4314 -4.7899
-1 -9 -9 3.9975 -10.3808
-1 -9 -7 13.8019 -18.7620
-1 -9 -5 39.1493 -17.9324
-1 -9 -3 -19.3622 7.0096
-1 -9 -1 12.6679 30.5143
-1 -8 -26 3.0327 6.0933
-1 -8 -24 7.4617 -1.0645
-1 -8 -22 6.5266 -4.6499
-1 -8 -20 0.0061 -1.5629
-1 -8 -18 -6.0531 -4.3915
-1 -8 -16 7.1084 5.4812
-1 -8 -14 2.8282 -2.1780
-1 -8 -12 -4.5228 5.1660
-1 -8 -10 6.8152 11.7923
-1 -8 -8 -1.2121 21.7517
-1 -8 -6 -34.1605 52.1610
-1 -8 -4 -20.0863 39.9487
-1 -8 -2 39.3132 -8.3739
-1 -7 -27 -1.6598 -5.4886
-1 -7 -25 -5.7060 -1.2160
-1 -7 -23 -3.3034 3.9368
-1 -7 -21 -7.9865 4.1465
-1 -7 -19 3.8214 5.6627
-1 -7 -17 20.3498 0.3649
-1 -7 -15 -9.1706 -17.4254
-1 -7 -13 -5.6825 -10.3173
-1 -7 -11 9.3147 -2.5860
-1 -7 -9 8.3743 -14.0035
-1 -7 -7 10.4377 -31.1605
-1 -7 -5 28.2186 -45.3350
-1 -7 -3 -31.5734 1.7069
-1 -7 -1 -5.0067 7.1522
-1 -6 -26 -0.3170 3.8953
-1 -6 -24 -3.4166 -2.0396
-1 -6 -22 8.8569 -9.1663
-1 -6 -20 6.9401 -1.2407
-1 -6 -18 -7.5974 -1.6325
-1 -6 -16 -5.7329 11.9034
-1 -6 -14 1.5322 8.1445
-1 -6 -12 11.2950 5.4359
-1 -6 -10 14.1843 13.0121
-1 -6 -8 2.2394 -3.4348
-1 -6 -6 -6.6240 26.7750
-1 -6 -4 15.3028 49.4730
-1 -6 -2 -20.2426 17.6969
-1 -5 -27 4.3930 0.7435
-1 -5 -25 1.0844 -2.2911
-1 -5 -23 1.0389 0.8459
-1 -5 -21 -10.8169 3.6105
-1 -5 -19 -7.6977 5.3007
-1 -5 -17 5.3560 3.8890
-1 -5 -15 -15.7834 -12.1077
-1 -5 -13 -16.9650 -9.7871
-1 -5 -11 -4.4547 -13.5377
-1 -5 -9 7.2444 -22.6218
-1 -5 -7 5.3299 -4.6944
-1 -5 -5 6.9927 -27.4838
-1 -5 -3 -2.6191 8.0525
-1 -5 -1 91.6456 -14.6436
-1 -4 -26 3.1214 -0.1835
-1 -4 -24 -2.3590 -0.0541
-1 -4 -22 6.7079 -1.5462
-1 -4 -20 8.3576 -1.9810
-1 -4 -18 2.0362 -13.0218
-1 -4 -16 -0.5887 -0.4108
-1 -4 -14 2.2606 2.9387
-1 -4 -12 13.9605 -9.2917
-1 -4 -10 15.4089 33.9209
-1 -4 -8 -15.7834 13.9134
-1 -4 -6 -15.6535 19.9984
-1 -4 -4 38.4998 25.9511
-1 -4 -2 -17.0653 0.7047
-1 -3 -27 0.0508 0.8150
-1 -3 -25 -1.3017 -3.0823
-1 -3 -23 -0.9762 -4.0724
-1 -3 -21 -5.2094 3.0921
-1 -3 -19 5.1626 6.1936
-1 -3 -17 17.4962 14.9650
-1 -3 -15 1.8584 2.4859
-1 -3 -13 -6.2650 1.6416
-1 -3 -11 -0.4390 -12.2089
-1 -3 -9 17.6865 -46.8338
-1 -3 -7 16.9268 1.9887
-1 -3 -5 -21.0413 -6.5068
-1 -3 -3 -93.3201 30.1747
-1 -3 -1 -38.2643 -0.1444
-1 -2 -26 3.1318 0.3027
-1 -2 -24 -3.2794 0.7610
-1 -2 -22 -1.1446 2.1846
-1 -2 -20 1.7876 1.2798
-1 -2 -18 -17.5052 -9.1424
-1 -2 -16 -22.7425 -2.9144
-1 -2 -14 -2.4639 -4.2949
-1 -2 -12 -4.8275 -32.4454
-1 -2 -10 -7.2635 30.8384
-1 -2 -8 -18.7257 -15.2959
-1 -2 -6 47.3943 -32.9477
-1 -2 -4 134.6724 -5.6243
-1 -2 -2 19.4400 13.6961
-1 -1 -25 3.1986 -5.0851
-1 -1 -23 3.8946 -6.9268
-1 -1 -21 -1.5441 1.3576
-1 -1 -19 2.3148 -4.9835
-1 -1 -17 10.3038 9.2577
-1 -1 -15 6.3892 8.4443
-1 -1 -13 11.9728 19.5605
-1 -1 -11 16.5298 26.7567
-1 -1 -9 3.1772 -7.3672
-1 -1 -7 -21.0077 67.7519
-1 -1 -5 -46.3482 38.5063
-1 -1 -3 -108.6023 27.6214
-1 -1 -1 -41.0048 3.0445
-1 0 -26 2.5568 4.0340
-1 0 -24 -1.7705 2.8342
-1 0 -22 -6.1682 5.3008
-1 0 -20 6.9792 3.5735
-1 0 -18 -1.7215 -4.5763
-1 0 -16 -8.2735 1.5179
-1 0 -14 -3.2038 -9.4254
-1 0 -12 -26.4711 -66.6737
-1 0 -10 -4.8364 -12.9911
-1 0 -8 8.4929 -58.0955
-1 0 -6 56.2485 -62.5646
-1 0 -4 106.5763 -24.1820
-1 0 -2 -22.9166 11.1819
0 -28 -10 2.4155 -7.2779
0 -28 -8 6.5162 -4.2797
0 -27 -17 4.1137 1.7784
0 -27 -15 8.2078 6.5438
0 -27 -13 0.3466 6.0070
0 -27 -11 -2.0509 1.2979
0 -27 -9 -1.9029 5.3547
0 -27 -7 -6.6030 -5.3142
0 -27 -5 0.7613 -0.0754
0 -27 -1 -4.9005 -6.8293
0 -26 -16 -9.4826 -8.2045
0 -26 -14 -0.6162 -3.0618
0 -26 -12 11.8450 -3.9693
0 -26 -10 -0.5521 -6.2755
0 -26 -8 2.4443 -3.5915
0 -26 -4 -4.3240 -3.9933
0 -26 -2 11.7861 -4.1335
0 -25 -17 -1.3231 3.0138
0 -25 -15 2.0205 5.4725
0 -25 -13 -8.2323 1.0367
0 -25 -11 -3.7403 -0.9352
0 -25 -9 5.1122 10.6073
0 -25 -7 -0.5523 5.9844
0 -25 -5 1.2317 6.3186
0 -25 -3 -0.0229 0.4510
0 -25 -1 -9.7369 -10.8618
0 -24 -18 7.8945 2.0461
0 -24 -16 -2.6773 0.7640
0 -24 -14 -2.2696 2.4272
0 -24 -12 5.6389 -6.7642
0 -24 -10 0.7412 -14.6043
0 -24 -8 0.4787 -10.1094
0 -24 -4 -2.0589 7.7256
0 -24 -2 -2.0470 18.4196
0 -23 -19 -0.1030 -9.5983
0 -23 -17 -2.2999 -1.7959
0 -23 -15 2.6429 6.2906
0 -23 -13 1.5669 3.8607
0 -23 -11 -4.4927 3.8029
0 -23 -9 -7.0575 -0.0666
0 -23 -7 -0.2144 -6.9314
0 -23 -5 4.8997 -1.1871
0 -23 -3 17.6696 -3.9637
0 -23 -1 6.0469 -12.0364
0 -22 -18 0.8240 2.4894
0 -22 -16 -5.4778 -3.7346
0 -22 -12 1.0964 0.1423
0 -22 -10 8.3710 2.4335
0 -22 -8 0.4084 11.8887
0 -22 -4 -17.6026 7.9508
0 -22 -2 -11.2297 -1.1696
0 -21 -19 -2.3912 1.3922
0 -21 -17 -0.3783 -0.5576
0 -21 -15 1.2446 1.3521
0 -21 -13 -0.6287 -4.0427
0 -21 -11 -0.8675 -3.6808
0 -21 -9 0.6577 -3.8544
0 -21 -7 7.0042 -6.5723
0 -21 -5 7.2410 -15.8986
0 -21 -3 38.2561 -10.3638
0 -21 -1 7.9272 -2.7875
0 -20 -20 4.2229 -8.2438
0 -20 -18 8.0994 0.8575
0 -20 -16 2.2896 2.8603
0 -20 -14 3.9750 9.1731
0 -20 -12 0.5068 5.6912
0 -20 -10 0.5282 -8.4826
0 -20 -8 -5.4139 -7.3012
0 -20 -4 -18.7103 36.4748
0 -20 -2 -30.5065 12.7327
0 -19 -19 -0.7253 3.5528
0 -19 -17 -3.4401 1.7108
0 -19 -15 -12.0644 -2.9839
0 -19 -13 -16.2876 -9.9705
0 -19 -11 -6.7007 -0.4133
0 -19 -9 -2.1869 -3.0774
0 -19 -7 2.0981 -0.0732
0 -19 -5 -5.4411 -9.4156
0 -19 -3 34.8844 -14.2382
0 -19 -1 15.1925 -6.1088
0 -18 -20 -5.1395 6.7557
0 -18 -18 3.0588 3.4767
0 -18 -16 5.1249 -7.6603
0 -18 -14 12.6155 3.4354
0 -18 -12 13.1557 9.8460
0 -18 -10 10.8515 5.8132
0 -18 -8 0.5567 2.5996
0 -18 -6 9.6365 -6.2139
0 -18 -4 2.9271 6.2285
0 -18 -2 -7.7385 -2.8421
0 -17 -21 0.3360 -3.4186
0 -17 -19 0.4300 -6.3914
0 -17 -17 1.0914 -2.7931
0 -17 -15 -1.5290 3.4021
0 -17 -13 -9.7449 -5.4962
0 -17 -11 -2.0354 4.4486
0 -17 -9 0.2013 1.7626
0 -17 -5 -16.1079 6.8283
0 -17 -3 11.6660 -8.0489
0 -17 -1 -16.9615 -15.8730
0 -16 -22 6.0812 -5.5971
0 -16 -20 -1.8433 6.4878
0 -16 -18 0.0428 7.4317
0 -16 -16 -3.7467 -4.1361
0 -16 -14 0.8412 1.7130
0 -16 -12 3.3694 -1.4501
0 -16 -10 2.2154 -8.2031
0 -16 -8 -10.0237 -0.3084
0 -16 -6 -6.4544 -2.9207
0 -16 -4 -21.2814 5.7003
0 -16 -2 -8.0291 7.6234
0 -15 -23 -5.2886 5.5589
0 -15 -21 3.6791 5.6399
0 -15 -19 2.6199 0.9553
0 -15 -17 1.9677 -1.1443
0 -15 -15 -3.2342 7.0661
0 -15 -13 -8.2636 -6.1580
0 -15 -11 -1.5547 2.4038
0 -15 -9 10.8589 -8.6372
0 -15 -5 31.0866 16.3688
0 -15 -3 35.9652 9.5817
0 -15 -1 2.4398 -21.2019
0 -14 -22 -3.7681 -1.4591
0 -14 -20 -3.8380 -4.1554
0 -14 -18 4.4717 -2.7354
0 -14 -16 -0.7729 -1.5120
0 -14 -14 0.5371 3.6650
0 -14 -12 6.8057 -3.3040
0 -14 -10 -2.7571 -6.9097
0 -14 -6 -3.4964 -20.2921
0 -14 -4 -24.7321 -16.2189
0 -14 -2 -16.7916 4.9009
0 -13 -25 3.2641 -4.0758
0 -13 -23 1.3179 -0.6065
0 -13 -21 11.3603 2.3343
0 -13 -19 1.1741 3.9892
0 -13 -17 7.5374 -10.1971
0 -13 -15 5.7039 1.3096
0 -13 -13 4.2771 -0.5700
0 -13 -11 0.4380 15.8796
0 -13 -9 4.6027 21.0290
0 -13 -7 -9.6215 30.1559
0 -13 -5 -10.9547 29.3529
0 -13 -3 -7.7286 7.0294
0 -13 -1 -32.3782 -10.8662
0 -12 -26 -1.3031 5.5711
0 -12 -24 -0.9145 3.6218
0 -12 -22 -3.9027 4.5839
0 -12 -20 -12.5781 0.1261
0 -12 -18 -13.9768 1.1163
0 -12 -16 -9.1056 -4.3021
0 -12 -14 -3.4445 -4.4354
0 -12 -12 15.7369 -7.4055
0 -12 -10 5.6352 -8.3180
0 -12 -8 7.1676 8.0695
0 -12 -6 23.8040 -23.4677
0 -12 -4 -6.6226 -6.2909
0 -12 -2 15.8381 -4.1092
0 -11 -27 2.1960 0.8475
0 -11 -25 4.5082 -4.3812
0 -11 -23 -2.9832 1.0285
0 -11 -21 6.1867 -5.0877
0 -11 -19 9.6334 6.7655
0 -11 -17 17.1805 8.1142
0 -11 -15 -5.4716 18.7229
0 -11 -13 -3.9426 -0.0200
0 -11 -11 -16.3444 -10.7579
0 -11 -9 6.9512 -33.2991
0 -11 -7 12.8192 -9.3939
0 -11 -5 13.9920 31.9277
0 -11 -3 2.9858 -5.3648
0 -11 -1 -16.6329 16.4861
0 -10 -28 -2.0719 -10.1521
0 -10 -26 -3.3588 2.7703
0 -10 -24 -1.2332 2.9282
0 -10 -22 7.0678 -2.6497
0 -10 -20 3.5414 -14.0612
0 -10 -18 -5.2733 -6.9135
0 -10 -16 -5.1344 -13.7640
0 -10 -14 -17.1528 -10.4720
0 -10 -12 11.2217 -3.8711
0 -10 -10 -4.2643 4.9475
0 -10 -8 -13.8297 15.6386
0 -10 -6 3.9631 -34.8903
0 -10 -4 -10.8524 32.1912
0 -10 -2 -58.5134 34.2178
0 -9 -27 -2.8431 3.8507
0 -9 -25 4.0561 -4.7174
0 -9 -23 -2.7439 2.4535
0 -9 -21 -9.1578 8.9292
0 -9 -19 -12.5233 15.0707
0 -9 -17 18.1565 -5.1435
0 -9 -15 15.6699 4.5481
0 -9 -13 17.5216 6.4272
0 -9 -11 -8.5526 24.1862
0 -9 -9 24.5010 20.4451
0 -9 -7 1.5540 51.4612
0 -9 -5 -11.9473 59.6822
0 -9 -3 39.9843 -32.6405
0 -9 -1 69.8380 30.5790
0 -8 -26 -4.4867 2.7287
0 -8 -24 -0.6284 4.1690
0 -8 -22 6.2111 -0.3218
0 -8 -20 5.8541 -9.5424
0 -8 -18 2.5690 8.3132
0 -8 -16 -9.2013 -7.3379
0 -8 -14 -26.3011 -22.7292
0 -8 -12 31.5460 -14.5526
0 -8 -10 23.5999 -5.8070
0 -8 -8 5.8579 -32.6893
0 -8 -6 9.6073 -99.6208
0 -8 -4 -8.8299 -23.2078
0 -8 -2 -69.5722 -36.6693
0 -7 -27 2.2324 2.4106
0 -7 -25 1.8966 -1.8670
0 -7 -23 0.7220 -8.0925
0 -7 -21 6.0305 -5.8049
0 -7 -19 -13.1016 7.0503
0 -7 -17 -4.5471 5.4563
0 -7 -15 -10.0286 27.7522
0 -7 -13 -4.8437 10.1550
0 -7 -11 -38.2759 -12.4746
0 -7 -9 -1.7272 -27.7955
0 -7 -7 -9.0234 42.0739
0 -7 -5 -19.4819 103.2511
0 -7 -3 8.6652 45.0017
0 -7 -1 -76.6190 65.6549
0 -6 -26 -1.6116 2.1624
0 -6 -24 1.8047 4.7387
0 -6 -22 -5.2748 4.2618
0 -6 -20 -5.0057 -4.4732
0 -6 -18 17.2881 -1.9935
0 -6 -16 14.7370 -21.9818
0 -6 -14 -20.1524 -23.4676
0 -6 -12 13.2050 -5.3646
0 -6 -10 21.4583 19.4344
0 -6 -8 21.5680 -0.7045
0 -6 -6 25.4278 -56.2913
0 -6 -4 67.7891 2.7896
0 -6 -2 87.2687 -21.4376
0 -5 -27 -2.1229 -3.5748
0 -5 -25 -4.1697 -4.3316
0 -5 -23 -3.1221 -3.4499
0 -5 -21 11.2007 0.1334
0 -5 -19 -0.4870 3.3067
0 -5 -17 6.0449 0.2376
0 -5 -15 -5.9117 16.9893
0 -5 -13 15.3540 -0.6332
0 -5 -11 13.3500 8.1425
0 -5 -9 12.6627 10.9157
0 -5 -7 -20.9736 14.8099
0 -5 -5 -38.1679 39.5458
0 -5 -3 -54.7472 27.4213
0 -5 -1 -251.1046 35.4349
0 -4 -26 0.2676 0.3160
0 -4 -24 7.9258 -3.0847
0 -4 -22 0.7360 -3.5995
0 -4 -20 -6.6580 6.4284
0 -4 -18 -1.5384 13.6962
0 -4 -16 -6.0670 -2.3845
0 -4 -14 -11.1423 -6.0923
0 -4 -12 -3.6545 -11.3741
0 -4 -10 -13.6813 -23.4607
0 -4 -8 9.4818 -33.5017
0 -4 -6 -9.2880 -20.5015
0 -4 -4 4.5070 -2.2991
0 -4 -2 10.3925 -31.4661
0 -3 -27 2.6967 0.5324
0 -3 -25 -4.7941 -0.6141
0 -3 -23 -5.8058 6.1507
0 -3 -21 6.2974 0.8905
0 -3 -19 -11.5415 -7.8926
0 -3 -17 -11.6226 -8.7757
0 -3 -15 -10.1642 10.8697
0 -3 -13 6.4366 -17.6394
0 -3 -11 18.6093 0.2320
0 -3 -9 6.5488 31.2439
0 -3 -7 3.1458 -3.6190
0 -3 -5 61.4738 -5.8774
0 -3 -3 87.8307 -11.4391
0 -3 -1 -58.8549 -5.6069
0 -2 -26 4.6615 -2.3084
0 -2 -24 7.9590 -5.3714
0 -2 -22 -6.0073 -8.0276
0 -2 -20 2.8793 2.2496
0 -2 -18 27.6248 2.6315
0 -2 -16 13.3179 7.0915
0 -2 -14 -0.3436 16.2856
0 -2 -12 -7.4348 13.5228
0 -2 -10 -14.6185 -4.8098
0 -2 -8 11.7420 -1.8359
0 -2 -6 -22.9326 67.7942
0 -2 -4 -21.4699 85.1260
0 -2 -2 -134.6027 83.6445
0 -1 -25 -1.8562 -2.7248
0 -1 -23 -4.1557 6.0229
0 -1 -21 8.3125 -3.5340
0 -1 -19 -1.9290 -6.2786
0 -1 -17 -11.4803 -0.9081
0 -1 -15 -9.8041 3.9845
0 -1 -13 -13.9009 -51.8345
0 -1 -11 2.1885 -51.2030
0 -1 -9 8.2289 -45.6184
0 -1 -7 25.7454 -110.6155
0 -1 -5 59.5655 -64.1575
0 -1 -3 6.1645 -20.9603
0 -1 -1 -112.0714 -0.3218
0 0 -26 1.4899 -4.5367
0 0 -22 -2.5395 0.0061
0 0 -20 -9.7289 15.3617
0 0 -18 -5.5878 1.6721
0 0 -16 -4.9702 4.5161
0 0 -14 26.3154 26.4623
0 0 -12 26.6126 50.5924
0 0 -10 -14.6155 66.2002
0 0 -8 -22.1868 93.9050
0 0 -6 -42.0841 126.3247
0 0 -4 39.0475 16.2810
0 0 -2 -28.4478 -9.3247
0 0 2 -28.4478 9.3247
0 0 4 39.0475 -16.2810
0 0 6 -42.0841 -126.3247
0 0 8 -22.1868 -93.9050
0 0 10 -14.6155 -66.2002
0 0 12 26.6126 -50.5924
0 0 14 26.3154 -26.4623
0 0 16 -4.9702 -4.5161
0 0 18 -5.5878 -1.6721
0 0 20 -9.7289 -15.3617
0 0 22 -2.5395 -0.0061
0 0 24 6.9241 5.1579
0 0 26 1.4899 4.5367
0 0 28 3.6667 2.2031
0 1 1 -112.0714 0.3218
0 1 3 6.1645 20.9603
0 1 5 59.5655 64.1575
0 1 7 25.7454 110.6155
0 1 9 8.2289 45.6184
0 1 11 2.1885 51.2030
0 1 13 -13.9009 51.8345
0 1 15 -9.8041 -3.9845
0 1 17 -11.4803 0.9081
0 1 19 -1.9290 6.2786
0 1 21 8.3125 3.5340
0 1 23 -4.1557 -6.0229
0 1 25 -1.8562 2.7248
0 1 27 -0.8852 -3.4105
0 2 0 148.1311 -8.6197
0 2 2 -134.6027 -83.6445
0 2 4 -21.4699 -85.1260
0 2 6 -22.9326 -67.7942
0 2 8 11.7420 1.8359
0 2 10 -14.6185 4.8098
0 2 12 -7.4348 -13.5228
0 2 14 -0.3436 -16.2856
0 2 16 13.3179 -7.0915
0 2 18 27.6248 -2.6315
0 2 20 2.8793 -2.2496
0 2 22 -6.0073 8.0276
0 2 24 7.9590 5.3714
0 2 26 4.6615 2.3084
0 2 28 0.2304 -1.7527
0 3 1 -58.8549 5.6069
0 3 3 87.8307 11.4391
0 3 5 61.4738 5.8774
0 3 7 3.1458 3.6190
0 3 9 6.5488 -31.2439
0 3 11 18.6093 -0.2320
0 3 13 6.4366 17.6394
0 3 15 -10.1642 -10.8697
0 3 17 -11.6226 8.7757
0 3 19 -11.5415 7.8926
0 3 21 6.2974 -0.8905
0 3 23 -5.8058 -6.1507
0 3 25 -4.7941 0.6141
0 3 27 2.6967 -0.5324
0 3 29 0.3001 0.6739
0 4 0 259.4324 0.0745
0 4 2 10.3925 31.4661
0 4 4 4.5070 2.2991
0 4 6 -9.2880 20.5015
0 4 8 9.4818 33.5017
0 4 10 -13.6813 23.4607
0 4 12 -3.6545 11.3741
0 4 14 -11.1423 6.0923
0 4 16 -6.0670 2.3845
0 4 18 -1.5384 -13.6962
0 4 20 -6.6580 -6.4284
0 4 22 0.7360 3.5995
0 4 24 7.9258 3.0847
0 4 26 0.2676 -0.3160
0 4 28 2.8890 -2.8505
0 5 1 -251.1046 -35.4349
0 5 3 -54.7472 -27.4213
0 5 5 -38.1679 -39.5458
0 5 7 -20.9736 -14.8099
0 5 9 12.6627 -10.9157
0 5 11 13.3500 -8.1425
0 5 13 15.3540 0.6332
0 5 15 -5.9117 -16.9893
0 5 17 6.0449 -0.2376
0 5 19 -0.4870 -3.3067
0 5 21 11.2007 -0.1334
0 5 23 -3.1221 3.4499
0 5 25 -4.1697 4.3316
0 5 27 -2.1229 3.5748
0 5 29 -5.2853 1.9555
0 6 0 232.1149 4.5042
0 6 2 87.2687 21.4376
0 6 4 67.7891 -2.7896
0 6 6 25.4278 56.2913
0 6 8 21.5680 0.7045
0 6 10 21.4583 -19.4344
0 6 12 13.2050 5.3646
0 6 14 -20.1524 23.4676
0 6 16 14.7370 21.9818
0 6 18 17.2881 1.9935
0 6 20 -5.0057 4.4732
0 6 22 -5.2748 -4.2618
0 6 24 1.8047 -4.7387
0 6 26 -1.6116 -2.1624
0 6 28 1.1765 -0.0182
0 7 1 -76.6190 -65.6549
0 7 3 8.6652 -45.0017
0 7 5 -19.4819 -103.2511
0 7 7 -9.0234 -42.0739
0 7 9 -1.7272 27.7955
0 7 11 -38.2759 12.4746
0 7 13 -4.8437 -10.1550
0 7 15 -10.0286 -27.7522
0 7 17 -4.5471 -5.4563
0 7 19 -13.1016 -7.0503
0 7 21 6.0305 5.8049
0 7 23 0.7220 8.0925
0 7 25 1.8966 1.8670
0 7 27 2.2324 -2.4106
0 8 0 -18.3594 1.2871
0 8 2 -69.5722 36.6693
0 8 4 -8.8299 23.2078
0 8 6 9.6073 99.6208
0 8 8 5.8579 32.6893
0 8 10 23.5999 5.8070
0 8 12 31.5460 14.5526
0 8 14 -26.3011 22.7292
0 8 16 -9.2013 7.3379
0 8 18 2.5690 -8.3132
0 8 20 5.8541 9.5424
0 8 22 6.2111 0.3218
0 8 24 -0.6284 -4.1690
0 8 26 -4.4867 -2.7287
0 9 1 69.8380 -30.5790
0 9 3 39.9843 32.6405
0 9 5 -11.9473 -59.6822
0 9 7 1.5540 -51.4612
0 9 9 24.5010 -20.4451
0 9 11 -8.5526 -24.1862
0 9 13 17.5216 -6.4272
0 9 15 15.6699 -4.5481
0 9 17 18.1565 5.1435
0 9 19 -12.5233 -15.0707
0 9 21 -9.1578 -8.9292
0 9 23 -2.7439 -2.4535
0 9 25 4.0561 4.7174
0 9 27 -2.8431 -3.8507
0 10 0 -42.7153 -8.0395
0 10 2 -58.5134 -34.2178
0 10 4 -10.8524 -32.1912
0 10 6 3.9631 34.8903
0 10 8 -13.8297 -15.6386
0 10 10 -4.2643 -4.9475
0 10 12 11.2217 3.8711
0 10 14 -17.1528 10.4720
0 10 16 -5.1344 13.7640
0 10 18 -5.2733 6.9135
0 10 20 3.5414 14.0612
0 10 22 7.0678 2.6497
0 10 24 -1.2332 -2.9282
0 10 26 -3.3588 -2.7703
0 11 1 -16.6329 -16.4861
0 11 3 2.9858 5.3648
0 11 5 13.9920 -31.9277
0 11 7 12.8192 9.3939
0 11 9 6.9512 33.2991
0 11 11 -16.3444 10.7579
0 11 13 -3.9426 0.0200
0 11 15 -5.4716 -18.7229
0 11 17 17.1805 -8.1142
0 11 19 9.6334 -6.7655
0 11 21 6.1867 5.0877
0 11 23 -2.9832 -1.0285
0 11 25 4.5082 4.3812
0 11 27 2.1960 -0.8475
0 12 0 61.6482 -15.0897
0 12 2 15.8381 4.1092
0 12 4 -6.6226 6.2909
0 12 6 23.8040 23.4677
0 12 8 7.1676 -8.0695
0 12 10 5.6352 8.3180
0 12 12 15.7369 7.4055
0 12 14 -3.4445 4.4354
0 12 16 -9.1056 4.3021
0 12 18 -13.9768 -1.1163
0 12 20 -12.5781 -0.1261
0 12 22 -3.9027 -4.5839
0 12 24 -0.9145 -3.6218
0 12 26 -1.3031 -5.5711
0 13 1 -32.3782 10.8662
0 13 3 -7.7286 -7.0294
0 13 5 -10.9547 -29.3529
0 13 7 -9.6215 -30.1559
0 13 9 4.6027 -21.0290
0 13 11 0.4380 -15.8796
0 13 13 4.2771 0.5700
0 13 15 5.7039 -1.3096
0 13 17 7.5374 10.1971
0 13 19 1.1741 -3.9892
0 13 21 11.3603 -2.3343
0 13 23 1.3179 0.6065
0 13 25 3.2641 4.0758
0 14 0 -2.4334 -15.7562
0 14 2 -16.7916 -4.9009
0 14 4 -24.7321 16.2189
0 14 6 -3.4964 20.2921
0 14 8 -17.3893 -4.4129
0 14 10 -2.7571 6.9097
0 14 12 6.8057 3.3040
0 14 14 0.5371 -3.6650
0 14 16 -0.7729 1.5120
0 14 18 4.4717 2.7354
0 14 20 -3.8380 4.1554
0 14 22 -3.7681 1.4591
0 15 1 2.4398 21.2019
0 15 3 35.9652 -9.5817
0 15 5 31.0866 -16.3688
0 15 7 23.7482 -2.7243
0 15 9 10.8589 8.6372
0 15 11 -1.5547 -2.4038
0 15 13 -8.2636 6.1580
0 15 15 -3.2342 -7.0661
0 15 17 1.9677 1.1443
0 15 19 2.6199 -0.9553
0 15 21 3.6791 -5.6399
0 15 23 -5.2886 -5.5589
0 16 0 10.6345 -9.3421
0 16 2 -8.0291 -7.6234
0 16 4 -21.2814 -5.7003
0 16 6 -6.4544 2.9207
0 16 8 -10.0237 0.3084
0 16 10 2.2154 8.2031
0 16 12 3.3694 1.4501
0 16 14 0.8412 -1.7130
0 16 16 -3.7467 4.1361
0 16 18 0.0428 -7.4317
0 16 20 -1.8433 -6.4878
0 16 22 6.0812 5.5971
0 17 1 -16.9615 15.8730
0 17 3 11.6660 8.0489
0 17 5 -16.1079 -6.8283
0 17 7 -6.9202 -14.6150
0 17 9 0.2013 -1.7626
0 17 11 -2.0354 -4.4486
0 17 13 -9.7449 5.4962
0 17 15 -1.5290 -3.4021
0 17 17 1.0914 2.7931
0 17 19 0.4300 6.3914
0 17 21 0.3360 3.4186
0 18 0 -6.4900 -1.3810
0 18 2 -7.7385 2.8421
0 18 4 2.9271 -6.2285
0 18 6 9.6365 6.2139
0 18 8 0.5567 -2.5996
0 18 10 10.8515 -5.8132
0 18 12 13.1557 -9.8460
0 18 14 12.6155 -3.4354
0 18 16 5.1249 7.6603
0 18 18 3.0588 -3.4767
0 18 20 -5.1395 -6.7557
0 19 1 15.1925 6.1088
0 19 3 34.8844 14.2382
0 19 5 -5.4411 9.4156
0 19 7 2.0981 0.0732
0 19 9 -2.1869 3.0774
0 19 11 -6.7007 0.4133
0 19 13 -16.2876 9.9705
0 19 15 -12.0644 2.9839
0 19 17 -3.4401 -1.7108
0 19 19 -0.7253 -3.5528
0 20 0 -29.9828 1.7891
0 20 2 -30.5065 -12.7327
0 20 4 -18.7103 -36.4748
0 20 6 -0.7204 -10.0171
0 20 8 -5.4139 7.3012
0 20 10 0.5282 8.4826
0 20 12 0.5068 -5.6912
0 20 14 3.9750 -9.1731
0 20 16 2.2896 -2.8603
0 20 18 8.0994 -0.8575
0 20 20 4.2229 8.2438
0 21 1 7.9272 2.7875
0 21 3 38.2561 10.3638
0 21 5 7.2410 15.8986
0 21 7 7.0042 6.5723
0 21 9 0.6577 3.8544
0 21 11 -0.8675 3.6808
0 21 13 -0.6287 4.0427
0 21 15 1.2446 -1.3521
0 21 17 -0.3783 0.5576
0 21 19 -2.3912 -1.3922
0 22 0 -10.2130 -0.9755
0 22 2 -11.2297 1.1696
0 22 4 -17.6026 -7.9508
0 22 6 -5.6959 -9.0038
0 22 8 0.4084 -11.8887
0 22 10 8.3710 -2.4335
0 22 12 1.0964 -0.1423
0 22 14 -3.8617 1.5871
0 22 16 -5.4778 3.7346
0 22 18 0.8240 -2.4894
0 23 1 6.0469 12.0364
0 23 3 17.6696 3.9637
0 23 5 4.8997 1.1871
0 23 7 -0.2144 6.9314
0 23 9 -7.0575 0.0666
0 23 11 -4.4927 -3.8029
0 23 13 1.5669 -3.8607
0 23 15 2.6429 -6.2906
0 23 17 -2.2999 1.7959
0 23 19 -0.1030 9.5983
0 24 0 -11.8148 -6.0367
0 24 2 -2.0470 -18.4196
0 24 4 -2.0589 -7.7256
0 24 6 2.5077 5.7065
0 24 8 0.4787 10.1094
0 24 10 0.7412 14.6043
0 24 12 5.6389 6.7642
0 24 14 -2.2696 -2.4272
0 24 16 -2.6773 -0.7640
0 24 18 7.8945 -2.0461
0 25 1 -9.7369 10.8618
0 25 3 -0.0229 -0.4510
0 25 5 1.2317 -6.3186
0 25 7 -0.5523 -5.9844
0 25 9 5.1122 -10.6073
0 25 11 -3.7403 0.9352
0 25 13 -8.2323 -1.0367
0 25 15 2.0205 -5.4725
0 25 17 -1.3231 -3.0138
0 26 0 16.8611 -8.9471
0 26 2 11.7861 4.1335
0 26 4 -4.3240 3.9933
0 26 6 -0.5997 -1.6766
0 26 8 2.4443 3.5915
0 26 10 -0.5521 6.2755
0 26 12 11.8450 3.9693
0 26 14 -0.6162 3.0618
0 26 16 -9.4826 8.2045
0 27 1 -4.9005 6.8293
0 27 3 -3.3039 -2.1272
0 27 5 0.7613 0.0754
0 27 7 -6.6030 5.3142
0 27 9 -1.9029 -5.3547
0 27 11 -2.0509 -1.2979
0 27 13 0.3466 -6.0070
0 28 2 6.3122 -6.4059
0 28 4 4.4794 -5.1303
0 28 6 5.0409 -6.3184
0 28 8 6.5162 4.2797
0 28 10 2.4155 7.2779
0 28 12 1.5416 5.4975
0 29 5 -7.4899 4.3951
0 29 7 -6.8517 2.5059
0 29 9 0.7947 -6.2575
0 29 11 0.1075 -1.5562
0 30 12 0.4682 4.2484
1 0 0 127.2327 4.9088
1 0 2 -22.9166 -11.1819
1 0 4 106.5763 24.1820
1 0 6 56.2485 62.5646
1 0 8 8.4929 58.0955
1 0 10 -4.8364 12.9911
1 0 12 -26.4711 66.6737
1 0 14 -3.2038 9.4254
1 0 16 -8.2735 -1.5179
1 0 18 -1.7215 4.5763
1 0 20 6.9792 -3.5735
1 0 22 -6.1682 -5.3008
1 0 24 -1.7705 -2.8342
1 0 26 2.5568 -4.0340
1 0 28 -2.2020 -6.5005
1 1 1 -41.0048 -3.0445
1 1 3 -108.6023 -27.6214
1 1 5 -46.3482 -38.5063
1 1 7 -21.0077 -67.7519
1 1 9 3.1772 7.3672
1 1 11 16.5298 -26.7567
1 1 13 11.9728 -19.5605
1 1 15 6.3892 -8.4443
1 1 17 10.3038 -9.2577
1 1 19 2.3148 4.9835
1 1 21 -1.5441 -1.3576
1 1 23 3.8946 6.9268
1 1 25 3.1986 5.0851
1 1 27 2.2387 4.1593
1 2 0 98.2552 11.6385
1 2 2 19.4400 -13.6961
1 2 4 134.6724 5.6243
1 2 6 47.3943 32.9477
1 2 8 -18.7257 15.2959
1 2 10 -7.2635 -30.8384
1 2 12 -4.8275 32.4454
1 2 14 -2.4639 4.2949
1 2 16 -22.7425 2.9144
1 2 18 -17.5052 9.1424
1 2 20 1.7876 -1.2798
1 2 22 -1.1446 -2.1846
1 2 24 -3.2794 -0.7610
1 2 26 3.1318 -0.3027
1 2 28 -0.1572 -1.5938
1 3 1 -38.2643 0.1444
1 3 3 -93.3201 -30.1747
1 3 5 -21.0413 6.5068
1 3 7 16.9268 -1.9887
1 3 9 17.6865 46.8338
1 3 11 -0.4390 12.2089
1 3 13 -6.2650 -1.6416
1 3 15 1.8584 -2.4859
1 3 17 17.4962 -14.9650
1 3 19 5.1626 -6.1936
1 3 21 -5.2094 -3.0921
1 3 23 -0.9762 4.0724
1 3 25 -1.3017 3.0823
1 3 27 0.0508 -0.8150
1 3 29 -2.5934 1.1231
1 4 0 -34.1881 7.1019
1 4 2 -17.0653 -0.7047
1 4 4 38.4998 -25.9511
1 4 6 -15.6535 -19.9984
1 4 8 -15.7834 -13.9134
1 4 10 15.4089 -33.9209
1 4 12 13.9605 9.2917
1 4 14 2.2606 -2.9387
1 4 16 -0.5887 0.4108
1 4 18 2.0362 13.0218
1 4 20 8.3576 1.9810
1 4 22 6.7079 1.5462
1 4 24 -2.3590 0.0541
1 4 26 3.1214 0.1835
1 4 28 -3.0083 -0.1477
1 5 1 91.6456 14.6436
1 5 3 -2.6191 -8.0525
1 5 5 6.9927 27.4838
1 5 7 5.3299 4.6944
1 5 9 7.2444 22.6218
1 5 11 -4.4547 13.5377
1 5 13 -16.9650 9.7871
1 5 15 -15.7834 12.1077
1 5 17 5.3560 -3.8890
1 5 19 -7.6977 -5.3007
1 5 21 -10.8169 -3.6105
1 5 23 1.0389 -0.8459
1 5 25 1.0844 2.2911
1 5 27 4.3930 -0.7435
1 5 29 1.9794 -0.3730
1 6 0 -117.2954 -0.9657
1 6 2 -20.2426 -17.6969
1 6 4 15.3028 -49.4730
1 6 6 -6.6240 -26.7750
1 6 8 2.2394 3.4348
1 6 10 14.1843 -13.0121
1 6 12 11.2950 -5.4359
1 6 14 1.5322 -8.1445
1 6 16 -5.7329 -11.9034
1 6 18 -7.5974 1.6325
1 6 20 6.9401 1.2407
1 6 22 8.8569 9.1663
1 6 24 -3.4166 2.0396
1 6 26 -0.3170 -3.8953
1 6 28 -1.9436 0.9409
1 7 1 -5.0067 -7.1522
1 7 3 -31.5734 -1.7069
1 7 5 28.2186 45.3350
1 7 7 10.4377 31.1605
1 7 9 8.3743 14.0035
1 7 11 9.3147 2.5860
1 7 13 -5.6825 10.3173
1 7 15 -9.1706 17.4254
1 7 17 20.3498 -0.3649
1 7 19 3.8214 -5.6627
1 7 21 -7.9865 -4.1465
1 7 23 -3.3034 -3.9368
1 7 25 -5.7060 1.2160
1 7 27 -1.6598 5.4886
1 8 0 -5.4720 0.3542
1 8 2 39.3132 8.3739
1 8 4 -20.0863 -39.9487
1 8 6 -34.1605 -52.1610
1 8 8 -1.2121 -21.7517
1 8 10 6.8152 -11.7923
1 8 12 -4.5228 -5.1660
1 8 14 2.8282 2.1780
1 8 16 7.1084 -5.4812
1 8 18 -6.0531 4.3915
1 8 20 0.0061 1.5629
1 8 22 6.5266 4.6499
1 8 24 7.4617 1.0645
1 8 26 3.0327 -6.0933
1 8 28 -0.1995 -2.6507
1 9 1 12.6679 -30.5143
1 9 3 -19.3622 -7.0096
1 9 5 39.1493 17.9324
1 9 7 13.8019 18.7620
1 9 9 3.9975 10.3808
1 9 11 9.4314 4.7899
1 9 13 -2.7045 -0.0626
1 9 15 -22.0660 6.1009
1 9 17 -2.2466 -1.6122
1 9 19 -1.1840 -2.2325
1 9 21 0.0811 2.2300
1 9 23 -1.9671 1.3302
1 9 25 -8.3346 -2.5535
1 9 27 -0.2423 5.7329
1 10 0 -58.9509 7.3671
1 10 2 -13.8704 5.8035
1 10 4 -14.8319 -14.0274
1 10 6 -5.9831 -6.3428
1 10 8 3.5214 7.7114
1 10 10 7.0664 4.3012
1 10 12 0.0116 3.8972
1 10 14 3.8745 7.3669
1 10 16 15.7271 -5.9803
1 10 18 4.5064 0.6884
1 10 20 1.1826 0.6398
1 10 22 -0.7118 -2.5180
1 10 24 5.0209 -1.7488
1 10 26 4.2066 0.4894
1 10 28 -0.3705 -0.8754
1 11 1 49.9135 -31.1829
1 11 3 -14.5448 2.3326
1 11 5 18.3508 -2.5356
1 11 7 6.3246 -5.2406
1 11 9 -5.9059 -8.1588
1 11 11 -0.6559 -1.3089
1 11 13 8.4063 -7.4661
1 11 15 -7.9711 2.6665
1 11 17 -7.5312 1.8542
1 11 19 -7.3640 -0.9422
1 11 21 -3.5385 0.2287
1 11 23 1.7514 3.1460
1 11 25 -3.7732 -2.7751
1 11 27 -1.3188 0.2400
1 12 0 -67.7200 13.5382
1 12 2 -34.0688 -4.1315
1 12 4 -5.7585 -16.2533
1 12 6 0.7033 -8.2879
1 12 8 -0.2102 -10.7754
1 12 10 6.7912 -9.3405
1 12 12 0.2951 1.5235
1 12 14 -4.6157 2.4686
1 12 16 10.3450 -2.0879
1 12 18 5.9523 3.7689
1 12 20 7.9975 0.5734
1 12 22 3.1877 0.0898
1 12 24 -2.9839 -2.4454
1 12 26 1.6773 2.0050
1 13 1 48.7572 -18.1217
1 13 3 -7.7289 16.9853
1 13 5 9.5781 1.5967
1 13 7 6.6303 3.7325
1 13 9 -0.0210 10.2686
1 13 11 -2.0342 13.9969
1 13 13 3.9971 -0.7912
1 13 15 -5.6023 -2.0392
1 13 17 -3.0412 0.9685
1 13 19 0.7315 2.9559
1 13 21 -6.1329 -1.7028
1 13 23 0.1675 -1.6090
1 13 25 1.8138 -0.2331
1 14 0 -25.2138 14.0152
1 14 2 -12.0824 2.7122
1 14 4 4.7508 -10.2095
1 14 6 2.7108 -3.1076
1 14 8 -3.3306 -4.1352
1 14 10 2.2136 -6.1639
1 14 12 1.5741 0.9782
1 14 14 1.4941 -1.7694
1 14 16 4.3572 -1.6592
1 14 18 -1.5147 0.0083
1 14 20 2.8172 -8.0509
1 14 22 4.0228 0.1472
1 15 1 9.4718 -15.8553
1 15 3 -10.7413 4.9012
1 15 5 -6.6675 -4.2259
1 15 7 -10.8393 -7.1467
1 15 9 -1.1411 -1.8462
1 15 11 4.7613 2.4502
1 15 13 1.0138 3.1403
1 15 15 -3.8967 2.7806
1 15 17 -3.5804 3.3371
1 15 19 -0.2500 5.0710
1 15 21 -2.0419 3.3055
1 15 23 1.3857 1.5670
1 16 0 -24.1993 8.4723
1 16 2 -8.3519 10.0601
1 16 4 6.7064 -1.6331
1 16 6 10.8597 -6.2314
1 16 8 5.8171 -4.0484
1 16 10 5.9053 -5.9808
1 16 12 -4.4643 -3.7859
1 16 14 2.4960 -6.5090
1 16 16 4.1781 -4.3955
1 16 18 4.7432 -0.1462
1 16 20 0.1976 -7.3419
1 16 22 -0.1320 -1.7469
1 17 1 9.3265 -3.5722
1 17 3 6.9630 -1.7078
1 17 5 0.6703 -2.6631
1 17 7 -4.3755 3.0620
1 17 9 -5.5753 5.6969
1 17 11 2.1242 -1.7753
1 17 13 -2.7606 1.0930
1 17 15 -1.0285 5.3862
1 17 17 0.5625 0.6938
1 17 19 0.7520 -0.5494
1 17 21 2.4853 0.3852
1 18 0 -2.9048 2.4024
1 18 2 8.9233 7.8340
1 18 4 -4.1137 11.2578
1 18 6 -6.3231 -0.7651
1 18 8 -2.0322 2.3455
1 18 10 8.7950 2.5844
1 18 12 -5.7531 3.8370
1 18 14 -2.5730 4.8374
1 18 16 -5.7013 1.0863
1 18 18 1.6663 -1.3862
1 18 20 -1.6450 -2.8398
1 19 1 -15.0013 2.7522
1 19 3 -1.2890 -17.9851
1 19 5 -3.6794 -20.6410
1 19 7 -0.0578 -7.3675
1 19 9 -4.5448 -2.8076
1 19 11 5.0683 -5.0436
1 19 13 3.7051 -7.7197
1 19 15 6.0546 -2.7986
1 19 17 4.4071 -3.1892
1 19 19 -2.2949 1.3220
1 20 0 -13.1107 -0.3963
1 20 2 6.8888 4.1534
1 20 4 4.5208 21.8545
1 20 6 5.2167 9.6658
1 20 8 1.9639 8.9075
1 20 10 2.7388 4.6784
1 20 12 -10.0328 2.9737
1 20 14 -4.4829 4.1633
1 20 16 -3.8052 2.6512
1 20 18 2.1035 -1.3601
1 20 20 -2.1446 -2.1659
1 21 1 9.4461 3.4934
1 21 3 12.0217 -11.3670
1 21 5 1.4353 -15.8067
1 21 7 2.0142 -4.8290
1 21 9 0.2046 -7.6488
1 21 11 4.2806 -5.0369
1 21 13 2.1412 -6.4737
1 21 15 -1.3238 -0.1225
1 21 17 0.0182 -2.4718
1 21 19 1.7536 1.5741
1 22 0 -24.5767 1.5949
1 22 2 -11.1747 -4.8401
1 22 4 -5.2075 4.9333
1 22 6 -3.8604 6.3970
1 22 8 -5.2138 13.8765
1 22 10 -3.8123 9.2262
1 22 12 -3.5149 5.9011
1 22 14 -1.1712 -1.9018
1 22 16 0.3122 -2.2261
1 22 18 3.0037 2.1858
1 23 1 8.7966 -3.7654
1 23 3 9.5015 1.4893
1 23 5 3.2835 -6.0458
1 23 7 1.9618 -5.9816
1 23 9 5.4457 -7.1702
1 23 11 3.7858 3.8816
1 23 13 1.3450 -0.7413
1 23 15 -1.0866 1.5735
1 23 17 -1.9945 -1.7000
1 23 19 -0.3066 -2.2085
1 24 0 -8.8308 5.6948
1 24 2 -6.9602 0.0601
1 24 4 -2.3373 -4.2463
1 24 6 -2.7849 -0.7027
1 24 8 0.0818 2.7887
1 24 10 -3.3555 0.1330
1 24 12 -2.2538 3.0006
1 24 14 -2.9861 -3.4085
1 24 16 -0.4725 -1.2423
1 24 18 0.3531 2.5885
1 25 1 11.3180 -7.6114
1 25 3 7.7646 4.4605
1 25 5 8.5481 -0.5628
1 25 7 4.5725 4.8865
1 25 9 0.5398 3.1247
1 25 11 5.5338 1.3340
1 25 13 5.1100 -5.9387
1 25 15 -1.4670 0.1585
1 25 17 -2.9089 -0.0520
1 26 0 -10.7949 8.0727
1 26 2 -8.1799 -3.8908
1 26 4 -3.4765 -4.4624
1 26 6 -7.4865 0.9565
1 26 8 -2.0433 -2.5782
1 26 10 -1.7715 0.8689
1 26 12 -4.7782 8.3152
1 26 14 -3.1450 -1.4382
1 26 16 3.0751 -2.4754
1 27 1 6.2920 -1.6912
1 27 3 -3.2057 6.1237
1 27 5 0.1474 -3.8832
1 27 7 4.4079 -0.7090
1 27 9 1.3654 2.8679
1 27 11 5.9040 1.0216
1 27 13 1.2697 -2.3948
1 28 0 7.3948 6.7778
1 28 2 5.2795 -1.4067
1 28 4 1.2603 -1.9024
1 28 6 -2.4183 -1.5225
1 28 8 -1.9565 -1.9135
1 28 10 0.8902 -0.2802
1 28 12 0.2886 3.1731
1 29 5 2.0400 -0.2908
1 29 7 3.2536 3.8043
1 29 9 1.0553 5.9554
1 29 11 1.2977 1.5124
1 30 10 2.3916 -2.7326
2 0 0 67.5975 -14.9791
2 0 2 -194.3841 -102.8557
2 0 4 2.5943 -62.1504
2 0 6 18.2482 -38.6401
2 0 8 9.7671 23.7984
2 0 10 -11.4481 21.5716
2 0 12 4.4606 4.6422
2 0 14 -4.2955 -12.7352
2 0 16 -7.2037 -5.5065
2 0 18 23.3004 10.4730
2 0 20 7.2925 4.3244
2 0 22 -7.5622 6.5947
2 0 24 -0.1459 5.9066
2 0 26 2.3790 5.1981
2 0 28 4.3406 -0.7514
2 1 1 34.5826 24.4403
2 1 3 61.7763 30.8205
2 1 5 22.7582 19.7139
2 1 7 -7.0334 19.8603
2 1 9 -0.4641 -22.2209
2 1 11 -1.3542 -16.4981
2 1 13 -7.8309 16.0991
2 1 15 4.9025 0.2637
2 1 17 -11.0576 3.6512
2 1 19 -14.0957 -6.1818
2 1 21 1.3687 -1.2545
2 1 23 -0.9561 -4.5937
2 1 25 1.9680 -0.7040
2 1 27 -0.4569 -2.9047
2 2 0 156.9945 -9.8323
2 2 2 -96.7736 20.4719
2 2 4 17.9860 44.0319
2 2 6 8.3976 -9.6050
2 2 8 14.8308 -11.2962
2 2 10 5.2245 12.5826
2 2 12 13.0777 23.8583
2 2 14 2.5623 0.0287
2 2 16 -2.0125 -2.8087
2 2 18 14.2601 1.9760
2 2 20 1.7343 -5.5483
2 2 22 -4.4536 -2.5765
2 2 24 0.2981 0.8659
2 2 26 -1.5574 1.5806
2 2 28 2.9107 -2.5574
2 3 1 -34.0352 5.5662
2 3 3 -0.0587 -22.4766
2 3 5 -46.6330 -23.0082
2 3 7 -36.1691 20.5455
2 3 9 -14.8676 3.2310
2 3 11 0.0893 -23.7852
2 3 13 3.4540 -4.3093
2 3 15 -0.1864 -7.1962
2 3 17 -1.7714 3.5504
2 3 19 -7.8879 -3.4264
2 3 21 7.7367 0.9211
2 3 23 4.1053 1.3703
2 3 25 3.8378 3.7403
2 3 27 1.6449 2.3074
2 3 29 -1.6300 1.9765
2 4 0 65.6390 -7.9176
2 4 2 -59.9507 -28.7350
2 4 4 54.7023 -7.1540
2 4 6 33.4741 14.0784
2 4 8 20.9865 -15.6575
2 4 10 12.3027 -0.7388
2 4 12 -0.0337 24.2985
2 4 14 -21.6323 12.5865
2 4 16 -7.5186 7.8405
2 4 18 10.2826 -0.1914
2 4 20 -0.6625 2.2726
2 4 22 -9.9373 2.2519
2 4 24 -3.5108 0.0069
2 4 26 -0.1358 -1.2760
2 4 28 2.7805 -3.6986
2 5 1 18.0054 -2.7085
2 5 3 56.2989 -7.8697
2 5 5 4.4067 -34.3401
2 5 7 22.6888 2.5583
2 5 9 17.0994 15.3059
2 5 11 -4.0792 -18.5765
2 5 13 7.5424 -16.2337
2 5 15 4.6924 -15.4156
2 5 17 11.0048 6.9912
2 5 19 -8.3627 -1.8720
2 5 21 4.0157 -1.7514
2 5 23 -2.5540 1.5648
2 5 25 -5.5818 -0.4606
2 5 27 -1.3592 0.3130
2 5 29 1.3059 1.7455
2 6 0 -22.1888 -3.4015
2 6 2 -90.4680 30.5307
2 6 4 -28.5031 7.9695
2 6 6 -43.1875 35.1552
2 6 8 -30.7725 -4.6934
2 6 10 -3.8651 11.5787
2 6 12 2.6762 31.0533
2 6 14 -22.3463 20.8016
2 6 16 -3.4616 3.5694
2 6 18 6.5601 -10.5563
2 6 20 3.4742 4.4168
2 6 22 2.7766 0.7424
2 6 24 6.5702 0.3487
2 6 26 2.2122 1.1221
2 6 28 1.7847 0.6584
2 7 1 58.7438 -28.1400
2 7 3 40.5267 15.5046
2 7 5 -15.9329 -27.0053
2 7 7 11.5518 -10.7967
2 7 9 33.4517 -5.2008
2 7 11 11.7561 -29.4469
2 7 13 14.9890 -12.2793
2 7 15 -7.4284 -9.0522
2 7 17 1.9306 6.9570
2 7 19 -10.6502 -7.4668
2 7 21 1.7271 -3.3042
2 7 23 -0.1984 1.3098
2 7 25 -0.6582 -2.5389
2 7 27 -1.0496 -5.2503
2 8 0 -11.2327 -5.5822
2 8 2 -27.3411 4.6959
2 8 4 35.7038 -24.8815
2 8 6 16.7695 27.9271
2 8 8 -0.9690 -11.0718
2 8 10 -0.4666 -4.2665
2 8 12 4.0323 4.0858
2 8 14 -11.2158 12.5340
2 8 16 11.8348 10.8108
2 8 18 5.9993 -1.0498
2 8 20 0.0727 7.9951
2 8 22 -4.4957 -0.0625
2 8 24 -6.5937 1.7747
2 8 26 -4.8230 2.3773
2 8 28 -0.0925 7.7164
2 9 1 -29.0149 -49.1903
2 9 3 -25.2680 0.6174
2 9 5 -18.3496 -35.2000
2 9 7 -1.1372 1.4104
2 9 9 2.5742 27.3258
2 9 11 -18.7937 8.6761
2 9 13 1.1256 3.0111
2 9 15 -6.8845 -8.8773
2 9 17 8.5349 2.3964
2 9 19 -1.1213 -4.6246
2 9 21 4.4113 4.5651
2 9 23 5.0514 -0.1869
2 9 25 7.3670 0.6204
2 9 27 -0.8701 -2.8208
2 10 0 39.2703 -7.8448
2 10 2 0.2450 26.6578
2 10 4 8.1586 -4.3523
2 10 6 12.1446 25.3212
2 10 8 4.1343 -12.0783
2 10 10 5.7772 -5.4921
2 10 12 11.6252 -4.3092
2 10 14 -11.2568 -6.7869
2 10 16 -3.3044 -10.6045
2 10 18 -5.6567 -5.4741
2 10 20 -0.2730 8.1288
2 10 22 0.0885 0.8761
2 10 24 -4.4539 0.5496
2 10 26 -3.5757 -6.9211
2 11 1 14.1294 -18.6889
2 11 3 3.0303 20.9024
2 11 5 -0.7789 -8.2555
2 11 7 0.0050 -12.1951
2 11 9 10.5859 -10.5794
2 11 11 4.1445 -6.5751
2 11 13 11.1414 13.5348
2 11 15 -1.1086 16.9177
2 11 17 8.0524 16.2944
2 11 19 -3.0092 -6.9351
2 11 21 -0.4338 -4.3297
2 11 23 -1.9977 -6.6971
2 11 25 3.7948 1.2773
2 11 27 -1.6055 1.7109
2 12 0 -8.5566 -9.9434
2 12 2 -29.8935 -5.3147
2 12 4 -22.2183 -19.4222
2 12 6 1.3609 3.6693
2 12 8 -11.4771 -7.8463
2 12 10 -13.6377 7.9900
2 12 12 1.3380 -3.6144
2 12 14 6.2733 -18.1010
2 12 16 5.4253 -9.2901
2 12 18 -0.7668 1.1719
2 12 20 3.6571 3.4403
2 12 22 2.8675 0.6006
2 12 24 1.0327 5.0090
2 12 26 1.6068 3.2506
2 13 1 1.8730 4.1976
2 13 3 10.4197 4.8077
2 13 5 9.8277 3.5481
2 13 7 -0.5573 7.1768
2 13 9 -1.1850 5.7648
2 13 11 0.0584 3.1961
2 13 13 -1.6889 13.8210
2 13 15 -9.4301 0.6400
2 13 17 3.0078 1.9522
2 13 19 0.4041 0.9484
2 13 21 1.0721 5.5264
2 13 23 -5.4346 -0.0656
2 13 25 -0.9590 -1.3366
2 14 0 11.0957 -10.1384
2 14 2 -3.3844 -3.4366
2 14 4 1.5809 -8.5756
2 14 6 26.7186 -6.2550
2 14 8 12.5734 -14.9931
2 14 10 7.0506 -2.1597
2 14 12 3.3228 -4.5240
2 14 14 1.5899 -15.3981
2 14 16 -2.5623 -3.2255
2 14 18 -0.8906 3.7826
2 14 20 -1.1230 -1.9941
2 14 22 -0.3292 -4.0967
2 14 24 1.2514 -4.1402
2 15 1 -7.9961 18.0945
2 15 3 -2.1904 6.9206
2 15 5 -20.0579 -0.3748
2 15 7 -18.7716 -4.2822
2 15 9 -9.7381 1.7280
2 15 11 -5.1761 -2.0002
2 15 13 -1.4849 12.7500
2 15 15 3.5916 3.6759
2 15 17 3.3157 0.2400
2 15 19 1.9648 -4.3642
2 15 21 6.1667 -0.9403
2 15 23 -0.8952 5.0868
2 16 0 14.5999 -7.1036
2 16 2 2.2660 3.9049
2 16 4 -1.1659 7.7047
2 16 6 0.7816 8.3502
2 16 8 -5.0721 -6.1116
2 16 10 7.3872 -4.5528
2 16 12 9.4622 -3.8829
2 16 14 4.2973 -6.2324
2 16 16 -4.2786 6.6854
2 16 18 0.8892 3.8510
2 16 20 -0.5365 -1.0343
2 16 22 0.4278 -0.2352
2 17 1 -9.1465 6.8972
2 17 3 13.6617 -2.6480
2 17 5 -3.7057 -9.7277
2 17 7 2.4620 -6.0430
2 17 9 2.0135 4.9301
2 17 11 0.3309 -0.7184
2 17 13 -4.4483 9.9890
2 17 15 1.8614 -1.4623
2 17 17 2.6499 -4.7605
2 17 19 -3.6046 -0.4940
2 17 21 -3.9191 -2.5394
2 18 0 -4.3111 -4.1342
2 18 2 -12.1901 1.3563
2 18 4 -2.6399 -9.9796
2 18 6 6.9723 0.9299
2 18 8 -1.3747 -0.0396
2 18 10 -3.0175 -1.4282
2 18 12 -5.8004 -7.9045
2 18 14 -2.4536 -11.1312
2 18 16 -1.0169 -0.7736
2 18 18 4.4134 -2.7141
2 18 20 1.9313 2.4735
2 19 1 0.7673 -0.9209
2 19 3 24.3090 4.1694
2 19 5 -6.3791 6.0026
2 19 7 3.0977 1.2302
2 19 9 2.3331 4.0428
2 19 11 2.2526 -1.2098
2 19 13 -1.8898 7.0954
2 19 15 -2.3935 6.8435
2 19 17 0.1578 -0.0794
2 19 19 3.5707 -2.0259
2 20 0 2.0457 -2.4562
2 20 2 -3.4138 6.3959
2 20 4 -4.5335 -4.2601
2 20 6 -2.1266 2.0526
2 20 8 -6.6084 -2.4772
2 20 10 4.2627 -1.5059
2 20 12 3.9659 -1.2638
2 20 14 4.7915 -0.2170
2 20 16 1.9474 2.2763
2 20 18 -1.0975 -1.0215
2 20 20 -8.1285 -0.3720
2 21 1 -10.9095 1.9961
2 21 3 5.0986 -1.4326
2 21 5 -11.9048 -4.4847
2 21 7 3.4589 -5.2274
2 21 9 -1.6309 -0.4427
2 21 11 -3.9290 -0.5869
2 21 13 -4.0083 -1.2208
2 21 15 -2.7902 -3.3696
2 21 17 0.8065 -1.8770
2 21 19 3.0840 0.7312
2 22 0 -4.0950 -3.4066
2 22 2 1.7770 -3.2086
2 22 4 5.3873 -1.4497
2 22 6 8.8883 6.6865
2 22 8 -2.9040 4.9520
2 22 10 -1.1093 5.9581
2 22 12 -1.5487 2.5769
2 22 14 0.2032 1.7647
2 22 16 -0.8963 0.1030
2 22 18 0.4568 -0.0204
2 23 1 -0.5821 -1.0476
2 23 3 14.0327 -11.9218
2 23 5 4.8876 -6.0063
2 23 7 7.9071 0.5601
2 23 9 8.1929 -1.1538
2 23 11 4.3715 -1.7509
2 23 13 -1.7734 -5.9898
2 23 15 -1.5471 -6.4575
2 23 17 2.0481 -1.9336
2 23 19 8.1182 1.6895
2 24 0 -9.0662 -5.1153
2 24 2 -7.3617 7.9034
2 24 4 -11.9743 8.8242
2 24 6 -3.0055 1.6385
2 24 8 -5.5634 -1.9860
2 24 10 -7.7960 4.9999
2 24 12 -0.4826 6.6970
2 24 14 -0.4720 4.2709
2 24 16 -3.1168 2.3038
2 24 18 -3.9557 -0.5193
2 25 1 3.9217 4.7957
2 25 3 3.4001 -3.2381
2 25 5 -0.6338 -4.0239
2 25 7 -3.4115 -0.6149
2 25 9 3.3372 -5.8438
2 25 11 4.4075 -0.6410
2 25 13 -1.0155 -0.1458
2 25 15 1.3009 2.5724
2 25 17 0.8963 1.9488
2 26 0 3.5998 -5.8278
2 26 2 5.7590 -2.4779
2 26 4 0.3944 -3.2246
2 26 6 4.1510 -0.8161
2 26 8 3.3970 5.4448
2 26 10 -2.8089 6.4449
2 26 12 5.0801 1.6262
2 26 14 -0.4054 -5.9001
2 26 16 -3.2082 -4.3687
2 27 1 -9.8474 1.0927
2 27 3 -2.1893 -2.1221
2 27 5 5.4778 1.0919
2 27 7 1.3284 0.8802
2 27 9 4.5980 -5.4378
2 27 11 0.2408 0.8175
2 27 13 -4.5171 -0.4392
2 28 0 8.9189 -5.1161
2 28 2 3.9823 5.7309
2 28 4 -4.7948 0.2445
2 28 6 -1.7257 -3.5770
2 28 8 1.4960 3.8124
2 28 10 -1.3941 1.7997
2 28 12 1.6690 1.6519
2 29 5 0.8357 -2.7133
2 29 7 -3.3924 -0.8315
2 29 9 -1.7335 -2.6845
2 29 11 -0.8785 1.6612
2 30 10 7.6675 0.9726
3 0 0 70.2518 2.8612
3 0 2 -37.6268 54.7525
3 0 4 77.5357 51.4605
3 0 6 18.5937 -1.1997
3 0 8 -3.3251 -25.2523
3 0 10 8.1261 -48.3752
3 0 12 -3.4154 11.2007
3 0 14 5.6033 -4.5138
3 0 16 -12.7037 10.7327
3 0 18 -16.4108 4.5390
3 0 20 0.4848 0.0774
3 0 22 1.8414 5.5790
3 0 24 1.9053 1.8346
3 0 26 -1.4472 3.0701
3 0 28 -4.2357 7.1616
3 1 1 26.5124 -34.4733
3 1 3 -50.7818 -34.9164
3 1 5 6.2802 25.6999
3 1 7 -6.1905 4.4779
3 1 9 -10.7830 29.1403
3 1 11 -0.1977 1.8506
3 1 13 -0.8527 12.1002
3 1 15 -5.3587 3.3101
3 1 17 14.3825 -7.2903
3 1 19 7.1281 2.1124
3 1 21 -3.3534 -9.5517
3 1 23 -4.8571 -2.8584
3 1 25 2.3611 0.5969
3 1 27 4.0344 -3.6574
3 2 0 50.1297 5.8483
3 2 2 -64.5535 15.8196
3 2 4 -11.3080 -23.8772
3 2 6 -17.2227 -30.5441
3 2 8 7.3024 15.4213
3 2 10 11.2828 -12.5455
3 2 12 -2.6053 -1.4607
3 2 14 9.2042 -17.3395
3 2 16 1.9023 4.8591
3 2 18 -4.2241 -0.6554
3 2 20 2.4206 -4.2522
3 2 22 0.0937 5.5235
3 2 24 -2.5653 1.6017
3 2 26 0.0091 -1.7168
3 2 28 -0.9774 0.0798
3 3 1 59.4082 -1.4441
3 3 3 15.3778 27.3383
3 3 5 28.4662 66.0856
3 3 7 -1.7952 -31.3039
3 3 9 13.4763 -31.5062
3 3 11 11.7233 0.3892
3 3 13 -9.6254 23.8877
3 3 15 -17.3022 17.2338
3 3 17 4.1510 8.7699
3 3 19 -3.7906 11.2929
3 3 21 -7.5004 -4.5302
3 3 23 -1.0898 -3.5327
3 3 25 5.0958 2.8664
3 3 27 2.8363 -2.1002
3 3 29 0.0098 -0.3821
3 4 0 37.5334 10.0748
3 4 2 -4.3065 32.4418
3 4 4 3.7260 -26.3773
3 4 6 -6.8965 -12.8891
3 4 8 -13.9782 38.9893
3 4 10 -14.6651 -0.5102
3 4 12 0.3034 -6.9702
3 4 14 5.8402 -12.0724
3 4 16 2.8276 -2.9387
3 4 18 -5.2571 -2.9635
3 4 20 1.0012 -3.8238
3 4 22 4.5906 5.5049
3 4 24 -6.1526 1.5209
3 4 26 -0.7101 0.6682
3 4 28 2.2113 4.4617
3 5 1 -99.1555 -53.1781
3 5 3 -34.9403 -53.1088
3 5 5 20.0114 43.2704
3 5 7 -5.5302 7.2612
3 5 9 18.0987 -4.9744
3 5 11 11.9025 3.5064
3 5 13 -8.5894 3.2770
3 5 15 -15.2269 -0.6835
3 5 17 15.1246 -13.9726
3 5 19 14.4509 -8.9457
3 5 21 3.5298 -4.8646
3 5 23 -1.0786 -3.5203
3 5 25 0.3714 -0.2275
3 5 27 -0.3815 -4.4847
3 5 29 -3.1669 -0.8096
3 6 0 111.1969 8.3748
3 6 2 74.4335 67.5982
3 6 4 -15.2452 -5.6363
3 6 6 -16.3643 -27.4041
3 6 8 4.6520 3.8737
3 6 10 5.4787 -9.9914
3 6 12 2.6623 -4.4799
3 6 14 2.6519 8.4861
3 6 16 9.2906 15.5880
3 6 18 -8.6690 19.4161
3 6 20 -11.1206 5.5466
3 6 22 -3.2250 6.5293
3 6 24 -4.7424 2.6538
3 6 26 -0.1669 -2.5897
3 6 28 1.6763 -0.8204
3 7 1 -6.3010 -16.4493
3 7 3 -9.2395 7.3499
3 7 5 16.0990 11.1431
3 7 7 -4.4045 -23.7204
3 7 9 12.9676 -12.6463
3 7 11 -0.1708 -0.9825
3 7 13 -6.7835 -2.5513
3 7 15 -13.3265 5.4010
3 7 17 4.1937 -5.3748
3 7 19 0.5478 -7.2855
3 7 21 2.0468 -4.9810
3 7 23 4.6878 -1.2387
3 7 25 -0.5590 3.7012
3 7 27 0.7150 3.5000
3 8 0 -36.3754 8.0133
3 8 2 -0.8776 -4.7563
3 8 4 -12.9499 -10.7741
3 8 6 -12.3149 19.9219
3 8 8 -13.3324 28.3107
3 8 10 4.4529 10.8243
3 8 12 0.8373 4.9503
3 8 14 -6.2314 -2.3601
3 8 16 4.7217 -13.4181
3 8 18 -0.1169 4.0390
3 8 20 3.5038 7.2797
3 8 22 -1.1871 6.3139
3 8 24 -0.0028 -1.9477
3 8 26 2.4912 -5.6304
3 8 28 0.8725 -2.2437
3 9 1 -0.8201 -22.3567
3 9 3 -13.9285 6.2270
3 9 5 35.8328 -3.1466
3 9 7 17.1839 0.0461
3 9 9 10.4377 -6.2705
3 9 11 0.4841 -11.0385
3 9 13 6.8669 -5.9990
3 9 15 -4.4556 8.3727
3 9 17 7.3178 -1.8308
3 9 19 2.7448 -3.7582
3 9 21 -1.7930 -3.9598
3 9 23 0.2833 -1.8253
3 9 25 -5.8722 -2.6449
3 9 27 -2.2260 -1.8229
3 10 0 13.2687 6.9328
3 10 2 13.7224 4.1246
3 10 4 -17.6654 -1.7875
3 10 6 -15.6075 -8.1645
3 10 8 -15.9009 -9.6403
3 10 10 -7.0391 -2.6373
3 10 12 -5.7823 -0.8847
3 10 14 3.1130 5.6077
3 10 16 10.0558 3.3609
3 10 18 -6.9848 3.9476
3 10 20 0.8192 -1.3070
3 10 22 0.0027 3.5150
3 10 24 1.9929 4.8304
3 10 26 2.5992 3.5351
3 11 1 19.7281 -8.9384
3 11 3 -22.6856 14.7259
3 11 5 12.5072 -22.3898
3 11 7 6.6903 -10.5074
3 11 9 11.1354 -4.3974
3 11 11 4.9288 9.9932
3 11 13 6.6893 -3.7338
3 11 15 -9.3723 -8.8149
3 11 17 -0.2127 -2.5624
3 11 19 5.0570 6.8138
3 11 21 -1.0854 1.1932
3 11 23 -0.0844 1.2545
3 11 25 -4.8354 0.4497
3 11 27 0.1465 -1.5434
3 12 0 -12.5276 6.1564
3 12 2 -6.2666 3.2354
3 12 4 -0.0372 28.9855
3 12 6 2.6716 34.3797
3 12 8 -8.3903 13.3928
3 12 10 -3.9769 1.4575
3 12 12 -2.5461 -1.1917
3 12 14 -3.3720 -1.2832
3 12 16 6.8342 -3.3117
3 12 18 -1.7327 4.0711
3 12 20 0.9394 1.7373
3 12 22 -0.2389 -1.3491
3 12 24 3.0031 -5.1527
3 12 26 6.4514 -1.6217
3 13 1 15.6159 -11.5056
3 13 3 -7.2037 -3.9098
3 13 5 16.5486 -34.6994
3 13 7 -1.5539 -19.4534
3 13 9 -2.6414 -15.1283
3 13 11 -3.2934 1.8874
3 13 13 12.7608 -0.3713
3 13 15 2.1107 0.2207
3 13 17 -7.2274 2.5817
3 13 19 1.0926 0.3962
3 13 21 -1.7165 -1.6178
3 13 23 -0.2818 2.5532
3 13 25 -2.6257 2.1340
3 14 0 -8.6982 5.6824
3 14 2 -12.4392 -3.8118
3 14 4 -7.0202 5.6758
3 14 6 -0.5966 9.2246
3 14 8 -3.7310 0.2511
3 14 10 0.7387 -5.3094
3 14 12 0.0113 1.3107
3 14 14 -4.2048 -0.2541
3 14 16 3.4349 -6.6003
3 14 18 5.2811 -2.3577
3 14 20 7.8909 -6.4742
3 14 22 3.7772 2.3522
3 14 24 -4.5577 4.1185
3 15 1 8.0944 2.3432
3 15 3 -8.1900 19.4728
3 15 5 -1.0107 -3.9150
3 15 7 -10.0339 0.5005
3 15 9 -1.2705 4.2374
3 15 11 -0.9424 3.9508
3 15 13 6.4807 -4.7609
3 15 15 8.5365 -4.9083
3 15 17 -1.0571 5.9838
3 15 19 -1.0551 8.7299
3 15 21 -6.6341 1.5351
3 15 23 -1.9047 -5.0390
3 16 0 13.8500 5.6292
3 16 2 12.9975 4.1962
3 16 4 7.2282 5.7296
3 16 6 4.7334 -1.8582
3 16 8 0.8223 -7.5583
3 16 10 3.0349 -8.7821
3 16 12 -3.8144 1.5503
3 16 14 -5.3552 5.1506
3 16 16 -6.5394 -2.4131
3 16 18 -0.3494 0.6731
3 16 20 1.0095 -2.0881
3 17 1 -6.3006 -4.8974
3 17 3 -4.4928 1.0779
3 17 5 -3.7575 -0.9748
3 17 7 -7.2416 1.4241
3 17 9 -1.8124 -1.3985
3 17 11 6.8478 -4.5005
3 17 13 1.7528 -0.9774
3 17 15 4.4288 1.0012
3 17 17 -0.4372 -1.2833
3 17 19 0.9328 -1.3519
3 17 21 4.3684 0.9702
3 18 0 -13.7366 6.5442
3 18 2 -0.3932 -7.1677
3 18 4 -0.9546 -4.3228
3 18 6 3.8317 -6.5253
3 18 8 -0.2951 1.1117
3 18 10 0.6246 1.3968
3 18 12 -4.7785 -1.6757
3 18 14 3.3923 2.3879
3 18 16 0.6496 -3.6365
3 18 18 5.5039 -5.0902
3 18 20 0.2585 -4.9160
3 19 1 4.1289 3.0160
3 19 3 2.6297 6.5065
3 19 5 -3.4504 6.6295
3 19 7 -0.8960 7.9975
3 19 9 -7.8984 3.2418
3 19 11 -0.2932 -1.7391
3 19 13 -4.6239 -3.3432
3 19 15 2.8911 1.0531
3 19 17 1.3510 1.3871
3 19 19 -5.4408 8.6913
3 20 0 -4.6980 6.3963
3 20 2 7.4572 -3.3361
3 20 4 -1.8503 2.1621
3 20 6 2.0105 -8.6522
3 20 8 1.9081 -6.8688
3 20 10 6.0270 -3.1214
3 20 12 0.5057 -2.6122
3 20 14 0.3299 5.1024
3 20 16 -4.0832 -0.2503
3 20 18 2.2270 -5.2286
3 20 20 3.5940 -3.1500
3 21 1 -1.8836 -5.5908
3 21 3 1.8708 -2.4103
3 21 5 -0.9202 2.1621
3 21 7 2.7757 3.2713
3 21 9 0.9441 -1.2631
3 21 11 4.1590 2.6710
3 21 13 -3.3991 -1.3982
3 21 15 0.9228 0.3846
3 21 17 1.3690 -1.8432
3 21 19 0.6708 4.6639
3 22 0 -14.5947 5.4958
3 22 2 -0.9731 -6.1926
3 22 4 2.2101 -3.3602
3 22 6 5.7023 -2.7690
3 22 8 -0.6235 4.3115
3 22 10 -4.4759 6.0885
3 22 12 -2.9865 0.3205
3 22 14 -0.4244 -0.8516
3 22 16 2.7752 -3.8123
3 22 18 1.4156 -2.6090
3 23 1 4.6038 -4.2976
3 23 3 -4.7827 5.2313
3 23 5 -1.2229 -0.5031
3 23 7 1.4818 0.0259
3 23 9 -3.1999 -3.8794
3 23 11 -0.7320 -1.4003
3 23 13 -1.4316 -1.7414
3 23 15 -0.6335 4.6414
3 23 17 -4.3419 0.7195
3 24 0 -8.9316 4.2421
3 24 2 3.3911 -3.3231
3 24 4 5.6660 0.7721
3 24 6 -1.1626 2.6042
3 24 8 0.9985 -0.2943
3 24 10 4.2341 3.9278
3 24 12 4.5862 4.5936
3 24 14 -2.7606 0.7048
3 24 16 1.6561 -2.7569
3 24 18 2.1842 -1.0475
3 25 1 2.8276 -5.1591
3 25 3 -6.6717 0.6396
3 25 5 1.1498 -5.3764
3 25 7 5.0511 -3.2266
3 25 9 1.0664 -3.0654
3 25 11 2.5988 0.0166
3 25 13 -2.4901 -3.8209
3 25 15 2.5347 -1.1250
3 25 17 1.0711 -1.8249
3 26 0 -5.5418 3.1281
3 26 2 1.0836 2.4212
3 26 4 2.4812 1.9691
3 26 6 3.4555 0.7856
3 26 8 2.2989 0.1538
3 26 10 -2.7659 1.4341
3 26 12 -1.1429 0.8487
3 26 14 -4.0393 5.3361
3 26 16 -3.5615 5.4675
3 27 1 3.6064 -0.7816
3 27 3 -5.2115 -2.5289
3 27 5 -2.7844 -3.8198
3 27 7 -0.9929 2.0017
3 27 9 -3.9608 3.9917
3 27 11 3.0958 3.1999
3 27 13 -0.4484 -0.5669
3 28 0 -3.1119 3.0085
3 28 2 3.9414 0.2935
3 28 4 3.7629 6.0791
3 28 6 2.5470 1.0990
3 28 8 0.7051 -3.4476
3 28 10 3.4077 -2.8336
3 28 12 0.5808 -1.1774
3 29 3 -5.3803 -4.8408
3 29 5 -1.9894 -4.1653
3 29 7 3.9138 -0.5700
3 29 9 4.1953 1.1989
3 29 11 3.8248 -1.1190
3 30 10 -5.0568 2.1935
4 0 0 134.2386 1.4535
4 0 2 -103.7708 -8.0480
4 0 4 9.7643 42.6542
4 0 6 21.2143 44.7466
4 0 8 11.8398 43.1261
4 0 10 -2.4738 22.3985
4 0 12 -6.5340 16.1803
4 0 14 0.1835 -7.1106
4 0 16 0.8025 -2.8370
4 0 18 6.4718 -4.1005
4 0 20 -11.8361 -16.5707
4 0 22 -7.5928 -7.9521
4 0 24 2.5283 -6.4819
4 0 26 2.1729 -4.5878
4 0 28 6.6997 -3.7338
4 1 1 20.3952 16.2861
4 1 3 7.5065 15.4293
4 1 5 -36.5474 -17.6342
4 1 7 -22.3169 -43.4242
4 1 9 -0.4113 -25.5088
4 1 11 15.7169 -29.7835
4 1 13 5.3785 5.2218
4 1 15 3.9844 3.7047
4 1 17 -4.8950 8.1187
4 1 19 0.0125 3.2308
4 1 21 7.0965 8.2019
4 1 23 -0.0188 2.9907
4 1 25 1.0139 3.4943
4 1 27 -1.2640 -1.2246
4 2 0 120.6709 -4.0674
4 2 2 -55.3168 -9.1209
4 2 4 52.3637 42.7627
4 2 6 23.5457 32.8010
4 2 8 -5.6100 -7.5948
4 2 10 -2.9447 -12.2202
4 2 12 -6.3389 17.0417
4 2 14 -10.0796 8.5725
4 2 16 -6.2231 11.7465
4 2 18 5.9387 7.8014
4 2 20 -6.8680 -3.4129
4 2 22 -6.5133 -0.9152
4 2 24 2.2076 0.1260
4 2 26 1.0357 6.0784
4 2 28 1.2130 3.4939
4 3 1 8.6970 13.8149
4 3 3 3.9011 -29.0241
4 3 5 -23.8933 -38.3971
4 3 7 15.5099 2.5380
4 3 9 0.9599 42.2974
4 3 11 -6.4986 -6.5730
4 3 13 -5.8300 -9.3714
4 3 15 -3.0993 -12.7661
4 3 17 0.4728 -7.0963
4 3 19 1.5447 -11.9508
4 3 21 9.4890 -2.5562
4 3 23 -4.5212 -0.6467
4 3 25 -7.1228 -4.1652
4 3 27 1.1179 -5.7466
4 3 29 5.0430 0.1754
4 4 0 -17.7769 -10.4160
4 4 2 -85.2054 -7.4720
4 4 4 15.7816 40.5966
4 4 6 -8.6531 35.3769
4 4 8 -5.1226 -34.7559
4 4 10 24.6830 -23.6601
4 4 12 11.6117 13.5931
4 4 14 2.0748 7.1389
4 4 16 12.4052 6.8737
4 4 18 10.2290 2.3024
4 4 20 -6.4442 0.8936
4 4 22 -4.8256 -0.3666
4 4 24 6.3580 -0.4705
4 4 26 1.9991 0.0609
4 4 28 -2.1051 -3.3414
4 5 1 122.0921 57.3767
4 5 3 30.9363 47.6465
4 5 5 -53.1547 -14.9262
4 5 7 -11.8267 -11.3108
4 5 9 -7.1565 16.8294
4 5 11 -1.3625 -13.9159
4 5 13 -0.0387 1.0092
4 5 15 -14.6523 4.8751
4 5 17 -7.1187 17.8290
4 5 19 -13.8323 7.9048
4 5 21 -0.6936 1.8927
4 5 23 0.0811 2.9551
4 5 25 0.6632 2.6519
4 5 27 3.8706 1.6682
4 5 29 5.5227 1.0974
4 6 0 -43.7640 -15.6706
4 6 2 -38.0850 -34.6955
4 6 4 42.9842 -10.3767
4 6 6 7.8311 22.2032
4 6 8 2.4163 -20.2620
4 6 10 10.5813 -9.3475
4 6 12 -7.7369 -3.9692
4 6 14 -11.0641 -3.0118
4 6 16 7.4673 -3.0075
4 6 18 9.2212 -15.3743
4 6 20 9.6279 -4.8232
4 6 22 0.9098 -0.3256
4 6 24 -3.3945 -0.0324
4 6 26 -2.6885 -0.6897
4 6 28 1.0778 2.4720
4 7 1 -21.6922 -4.5897
4 7 3 -11.1183 1.4181
4 7 5 1.9705 -16.3466
4 7 7 22.9572 25.1093
4 7 9 7.0398 44.8275
4 7 11 -5.2909 13.1496
4 7 13 -0.4581 1.6798
4 7 15 -5.9240 -16.7978
4 7 17 11.1913 3.0710
4 7 19 0.2627 3.8696
4 7 21 -0.1153 3.3079
4 7 23 -1.9824 1.2780
4 7 25 -1.9438 -2.9029
4 7 27 -3.6425 -6.5117
4 8 0 19.9085 -14.2927
4 8 2 -6.4754 16.3097
4 8 4 -0.0468 -7.0023
4 8 6 -26.3357 -0.7689
4 8 8 -16.9556 -38.4906
4 8 10 -1.6756 -25.7801
4 8 12 5.2498 -8.7516
4 8 14 1.3828 16.9653
4 8 16 9.3748 10.6057
4 8 18 -4.7272 -4.1919
4 8 20 -5.0460 2.7095
4 8 22 -0.2949 -2.0354
4 8 24 4.3538 1.7481
4 8 26 0.9140 -0.9027
4 8 28 3.0994 3.0387
4 9 1 45.8613 -7.4837
4 9 3 10.0502 41.7785
4 9 5 -2.9391 0.1493
4 9 7 2.7809 -1.8420
4 9 9 15.1852 4.8285
4 9 11 2.5920 -0.4540
4 9 13 -0.1914 -7.8782
4 9 15 -13.1471 -12.7818
4 9 17 -2.4461 7.4360
4 9 19 -2.4907 -3.5863
4 9 21 0.5682 0.1926
4 9 23 -3.4069 3.4549
4 9 25 -0.4908 5.1583
4 9 27 -0.4476 -0.7228
4 10 0 0.5832 -7.6703
4 10 2 -18.3619 9.9761
4 10 4 3.3430 -10.5402
4 10 6 4.4057 22.6284
4 10 8 -5.9735 9.0857
4 10 10 -8.9671 11.8027
4 10 12 1.1163 4.4864
4 10 14 0.5953 5.4010
4 10 16 10.4774 -0.1409
4 10 18 5.0021 4.0171
4 10 20 6.9686 10.5539
4 10 22 1.9204 -1.9859
4 10 24 2.0663 -2.9705
4 10 26 0.2769 -3.9632
4 11 1 -24.7803 -19.6275
4 11 3 -20.6909 6.5329
4 11 5 5.0445 -14.4166
4 11 7 6.6307 -6.9878
4 11 9 0.1367 1.6366
4 11 11 -11.3721 0.5618
4 11 13 4.0068 -9.9681
4 11 15 0.5356 -15.5998
4 11 17 2.1773 -3.0361
4 11 19 -3.8499 -8.3622
4 11 21 -0.1281 0.4563
4 11 23 1.0574 2.4505
4 11 25 1.1880 2.9520
4 11 27 -2.2249 -6.4617
4 12 0 39.5700 -1.4818
4 12 2 15.6536 0.5317
4 12 4 14.3853 -16.0801
4 12 6 6.7444 1.5956
4 12 8 -12.8882 -19.9551
4 12 10 -1.8863 -13.8637
4 12 12 7.6828 4.1886
4 12 14 -2.0388 5.6361
4 12 16 -3.3242 1.1772
4 12 18 -1.8428 4.1455
4 12 20 2.4096 3.6397
4 12 22 -4.8560 0.8342
4 12 24 -2.8633 3.3328
4 12 26 -0.7682 3.2808
4 13 1 -6.8668 4.3445
4 13 3 -12.2237 19.2504
4 13 5 -2.3978 8.4723
4 13 7 4.4795 5.5623
4 13 9 6.8256 7.8408
4 13 11 -1.9155 3.9138
4 13 13 4.9989 0.5661
4 13 15 2.6544 -6.7799
4 13 17 5.6047 1.3102
4 13 19 3.1727 -2.7171
4 13 21 2.6784 -5.2473
4 13 23 -0.1632 -3.2341
4 13 25 2.3502 1.8585
4 14 0 31.2719 -0.2825
4 14 2 0.6380 26.5834
4 14 4 -18.6163 17.1028
4 14 6 -16.3261 8.9167
4 14 8 -17.6701 -1.5276
4 14 10 -8.8064 1.3017
4 14 12 1.5330 -1.7152
4 14 14 8.6182 -8.2192
4 14 16 -2.7103 7.8658
4 14 18 -6.3744 10.6008
4 14 20 2.0528 4.8869
4 14 22 0.5710 6.1526
4 14 24 1.2422 -0.2438
4 15 1 -5.1992 -7.0293
4 15 3 19.1404 -19.6304
4 15 5 23.5208 -15.9353
4 15 7 9.6261 -13.9339
4 15 9 7.5149 -15.4215
4 15 11 3.3613 -7.2787
4 15 13 -3.9748 13.3497
4 15 15 -6.1812 -6.9815
4 15 17 1.4510 -10.2257
4 15 19 0.8727 -0.7263
4 15 21 -0.9207 -2.9436
4 15 23 -0.7955 -0.2061
4 16 0 -1.8213 -3.9877
4 16 2 -15.9466 -0.5780
4 16 4 -11.8690 -0.6328
4 16 6 -4.6146 8.6377
4 16 8 -5.8980 10.0085
4 16 10 -2.9256 5.2337
4 16 12 4.6274 -1.9562
4 16 14 8.9014 -12.2158
4 16 16 3.2673 -0.2687
4 16 18 4.6948 -3.3177
4 16 20 4.2706 -4.2976
4 16 22 1.6200 3.4513
4 17 1 -3.0774 6.6180
4 17 3 8.6604 10.0940
4 17 5 -4.9352 2.8089
4 17 7 -5.1997 -2.6324
4 17 9 -4.1810 -3.7475
4 17 11 -8.7447 -10.7904
4 17 13 -4.7484 5.0281
4 17 15 2.0981 3.8029
4 17 17 0.4319 -0.1998
4 17 19 -1.3708 3.6933
4 17 21 -1.9776 2.5915
4 18 0 33.3040 -8.5511
4 18 2 16.1235 7.1302
4 18 4 4.0970 6.8418
4 18 6 -0.0390 7.3186
4 18 8 -0.3817 2.1581
4 18 10 5.8317 1.8403
4 18 12 8.3805 6.1466
4 18 14 -0.6497 4.0339
4 18 16 -7.1813 10.2264
4 18 18 -2.6826 4.1215
4 18 20 -1.6669 2.1005
4 19 1 -30.1792 0.3739
4 19 3 -9.8302 -1.8560
4 19 5 -13.0499 -7.1264
4 19 7 4.5590 -10.9339
4 19 9 5.4908 -10.0215
4 19 11 0.5885 -12.1569
4 19 13 0.5334 -5.4082
4 19 15 6.4243 -6.7388
4 19 17 8.1024 -10.9084
4 19 19 1.6235 -5.0889
4 20 0 14.0927 -9.9611
4 20 2 11.9954 -12.3847
4 20 4 10.1252 -9.5969
4 20 6 7.5227 2.2678
4 20 8 -6.4876 9.8221
4 20 10 -6.3175 12.4991
4 20 12 -4.9329 5.6283
4 20 14 -3.9997 -0.9412
4 20 16 -2.8053 -1.7555
4 20 18 1.5324 0.0064
4 20 20 1.1038 8.0677
4 21 1 -16.5684 3.3841
4 21 3 0.6506 5.8794
4 21 5 -5.4645 10.7755
4 21 7 5.2328 4.7902
4 21 9 0.3636 -3.2022
4 21 11 -1.6482 -6.0170
4 21 13 0.4049 -2.4583
4 21 15 1.4627 3.3137
4 21 17 1.4862 0.4133
4 21 19 -2.4049 -1.6215
4 22 0 14.9929 -7.4983
4 22 2 10.3042 -3.1878
4 22 4 0.5707 -4.1696
4 22 6 6.6580 -7.8052
4 22 8 -1.3237 -4.3071
4 22 10 3.2721 2.5561
4 22 12 2.7618 1.9862
4 22 14 -0.3546 5.6719
4 22 16 -2.6203 1.5046
4 22 18 0.5319 0.7217
4 23 1 -18.7949 3.1461
4 23 3 -6.5350 4.7672
4 23 5 -7.2977 5.7616
4 23 7 0.6625 -1.2727
4 23 9 2.6139 -3.7868
4 23 11 1.1968 2.8086
4 23 13 -1.7258 -1.8500
4 23 15 2.7503 -4.6858
4 23 17 4.2271 -2.6233
4 24 0 12.1832 -3.3683
4 24 2 9.8999 -6.7615
4 24 4 1.5048 -9.0426
4 24 6 7.3549 -5.5079
4 24 8 -0.9975 0.9205
4 24 10 -1.8290 1.9180
4 24 12 0.6109 -2.7124
4 24 14 -2.1660 0.9332
4 24 16 -2.9029 -0.6913
4 24 18 -1.6493 -0.8667
4 25 1 -7.6958 -1.4788
4 25 3 1.5381 2.8757
4 25 5 5.1894 5.6834
4 25 7 4.2409 3.5154
4 25 9 0.9823 3.7203
4 25 11 -1.6452 7.4450
4 25 13 -4.2808 2.1588
4 25 15 -0.8110 3.5926
4 25 17 0.0732 -0.8372
4 26 0 -4.7881 -0.3841
4 26 2 -2.8772 5.4186
4 26 4 -5.4884 -1.3140
4 26 6 -0.9519 -1.8246
4 26 8 -2.2577 -1.9374
4 26 10 -0.2541 -5.9182
4 26 12 5.4438 -3.5839
4 26 14 2.6755 -1.2328
4 26 16 2.8923 -2.1973
4 27 1 8.1811 -3.3452
4 27 3 2.9170 -0.1886
4 27 5 3.3754 -0.2974
4 27 7 2.0965 -2.8666
4 27 9 2.1941 -2.6810
4 27 11 1.5758 2.4476
4 27 13 -3.9251 2.8883
4 28 0 -8.8829 -0.9969
4 28 2 -5.2494 3.6047
4 28 4 -5.3994 -3.3159
4 28 6 -0.6144 -3.7034
4 28 8 4.3042 4.9029
4 28 10 2.6228 1.4237
4 28 12 1.2465 -1.7175
4 29 3 5.5879 4.0230
4 29 5 7.5963 5.1504
4 29 7 -1.1599 3.6853
4 29 9 -6.4835 -0.3018
4 29 11 -5.4190 0.2545
4 30 10 7.8101 -1.6127
5 0 0 -27.1756 -4.6404
5 0 2 -120.9683 33.1437
5 0 4 -29.4939 3.7669
5 0 6 -20.1638 -58.6257
5 0 8 -1.2137 -39.5851
5 0 10 5.7041 -33.1428
5 0 12 11.8585 -0.1309
5 0 14 18.3841 -8.5052
5 0 16 12.7143 12.2363
5 0 18 9.6333 -1.9359
5 0 20 8.9096 -5.8191
5 0 22 3.5582 1.5372
5 0 24 -0.7713 4.5413
5 0 26 0.8079 2.2708
5 1 1 189.3700 -10.7711
5 1 3 49.8171 12.7740
5 1 5 18.8095 52.0447
5 1 7 -20.7514 17.5079
5 1 9 -0.0577 15.9857
5 1 11 0.6142 -2.5288
5 1 13 -10.9003 13.7627
5 1 15 -17.7916 10.2294
5 1 17 -9.5562 2.2780
5 1 19 -14.0527 6.1308
5 1 21 -7.7509 -4.3737
5 1 23 -3.6380 -2.7050
5 1 25 2.3569 -0.7038
5 1 27 -2.2611 0.3073
5 2 0 -157.3248 5.3371
5 2 2 -177.5178 -0.0094
5 2 4 -22.1535 -9.8408
5 2 6 22.2749 -11.0141
5 2 8 18.5492 23.1937
5 2 10 -2.2714 4.9665
5 2 12 -2.8490 6.5439
5 2 14 3.8045 -14.6892
5 2 16 8.0906 -3.8801
5 2 18 4.8731 -9.5607
5 2 20 5.1942 -3.6776
5 2 22 6.6635 2.3541
5 2 24 1.0247 -1.5843
5 2 26 4.4707 -6.1148
5 2 28 4.1592 -2.0112
5 3 1 109.2914 -20.4883
5 3 3 42.2846 0.9850
5 3 5 15.1311 38.7870
5 3 7 -30.7174 -21.3977
5 3 9 1.5991 -36.5560
5 3 11 14.0104 -24.4619
5 3 13 6.3514 0.5406
5 3 15 -1.5817 6.0439
5 3 17 8.5598 4.4371
5 3 19 -3.2590 10.7630
5 3 21 -7.1800 2.7646
5 3 23 -5.1354 2.7297
5 3 25 1.4034 5.6067
5 3 27 -3.8546 1.4309
5 4 0 68.9679 12.9854
5 4 2 6.1537 42.9944
5 4 4 -26.1427 -4.9916
5 4 6 -23.9223 -6.2871
5 4 8 0.5985 43.5769
5 4 10 -2.6442 28.5572
5 4 12 -6.2595 9.9478
5 4 14 -11.9467 1.2419
5 4 16 -5.5172 10.4969
5 4 18 -8.1674 -1.4869
5 4 20 1.5208 -8.5601
5 4 22 7.1006 -5.2593
5 4 24 -3.9230 -2.5025
5 4 26 3.0405 -0.6195
5 4 28 5.0558 1.3513
5 5 1 -15.1890 -18.4356
5 5 3 -2.0248 12.6555
5 5 5 20.4899 22.5655
5 5 7 0.9357 -38.3760
5 5 9 15.1848 -36.0467
5 5 11 -2.2317 -11.9592
5 5 13 -7.0150 -4.9440
5 5 15 -4.4475 -1.2485
5 5 17 11.9128 -4.3823
5 5 19 0.5339 3.2145
5 5 21 -1.0633 3.8876
5 5 23 1.2043 4.7017
5 5 25 0.2658 2.9670
5 5 27 -2.7040 -4.2410
5 6 0 -15.4562 17.4000
5 6 2 -3.2179 4.9803
5 6 4 1.5087 -31.8757
5 6 6 0.5756 9.3570
5 6 8 -3.9969 39.8328
5 6 10 7.3653 18.0403
5 6 12 10.6602 9.7637
5 6 14 2.5663 1.8291
5 6 16 8.8502 -5.9476
5 6 18 -6.2348 -1.6852
5 6 20 -5.5430 -3.4327
5 6 22 -1.6270 -4.9419
5 6 24 -3.6964 -5.0355
5 6 26 1.9742 -2.8684
5 6 28 0.8991 0.1982
5 7 1 -13.2639 -36.6900
5 7 3 -8.3748 8.6400
5 7 5 0.8710 20.0085
5 7 7 -17.5238 -15.8112
5 7 9 5.6497 -23.5094
5 7 11 -6.3166 -21.2934
5 7 13 -9.5883 -17.8053
5 7 15 -11.4294 5.2639
5 7 17 10.8762 4.6812
5 7 19 5.8469 7.6052
5 7 21 0.6169 7.0118
5 7 23 2.1516 6.1147
5 7 25 0.8402 4.0263
5 7 27 2.8629 -0.6411
5 8 0 55.7039 13.6360
5 8 2 42.0079 38.1902
5 8 4 4.5755 -5.1223
5 8 6 5.0803 8.6425
5 8 8 0.2559 38.8409
5 8 10 -2.3380 34.6725
5 8 12 -10.5757 15.0881
5 8 14 -2.3850 1.5892
5 8 16 3.4077 -4.8321
5 8 18 -10.7042 0.3759
5 8 20 4.5822 -5.0204
5 8 22 2.7819 -1.8414
5 8 24 -1.7991 1.3747
5 8 26 -0.2873 -0.2817
5 8 28 -1.1041 -0.0174
5 9 1 -5.3911 -18.8727
5 9 3 -25.9768 20.4522
5 9 5 8.9607 -15.0303
5 9 7 1.1556 -28.1208
5 9 9 8.5313 -25.6314
5 9 11 6.5867 -12.2356
5 9 13 11.2066 -10.4165
5 9 15 -2.8987 -1.3276
5 9 17 9.5682 -7.5767
5 9 19 0.8563 1.2532
5 9 21 -4.0634 2.3325
5 9 23 5.7579 1.3904
5 9 25 -0.7550 -1.8608
5 9 27 -2.2896 -4.4703
5 10 0 -29.9684 6.6881
5 10 2 -10.7340 -19.3086
5 10 4 -2.4746 -14.5069
5 10 6 -10.2466 1.8958
5 10 8 -10.7858 -3.0050
5 10 10 0.8374 2.6209
5 10 12 -11.6475 4.8248
5 10 14 -0.5624 -1.6870
5 10 16 9.2683 -0.6648
5 10 18 -9.5503 7.3738
5 10 20 -0.5691 -2.1874
5 10 22 -4.4523 -2.4448
5 10 24 -2.1574 3.8452
5 10 26 3.0757 2.5008
5 11 1 24.1153 -4.2132
5 11 3 1.4050 27.7431
5 11 5 33.3035 9.9136
5 11 7 0.9593 27.6441
5 11 9 -9.7058 6.9974
5 11 11 -2.4514 2.6780
5 11 13 8.2838 -5.4564
5 11 15 -11.8156 -0.7382
5 11 17 1.3664 -5.8732
5 11 19 9.4634 0.6083
5 11 21 -0.9572 3.4407
5 11 23 2.5134 1.5390
5 11 25 2.1770 -0.8747
5 11 27 1.5023 -0.1504
5 12 0 13.5841 0.3030
5 12 2 -5.0730 8.7529
5 12 4 -17.0432 1.3375
5 12 6 2.3933 -10.0177
5 12 8 9.5417 -1.0056
5 12 10 -2.5230 9.9915
5 12 12 -10.4308 7.4334
5 12 14 3.2636 0.1741
5 12 16 7.3688 2.6036
5 12 18 -6.5043 8.8860
5 12 20 5.1099 -1.8898
5 12 22 3.7350 -2.3842
5 12 24 -2.4819 3.0951
5 12 26 -0.6960 -0.7560
5 13 1 3.4733 -3.9188
5 13 3 -14.1255 2.9981
5 13 5 1.7385 -20.7878
5 13 7 -19.9595 -7.9897
5 13 9 -1.0064 -18.2202
5 13 11 8.0272 -7.5257
5 13 13 13.3066 -15.2624
5 13 15 1.2725 -13.0963
5 13 17 -1.4457 -6.4861
5 13 19 1.6355 -3.2268
5 13 21 -4.1698 0.5446
5 13 23 2.0755 4.2367
5 13 25 1.9164 3.1454
5 14 0 3.1063 -1.0304
5 14 2 4.6241 1.8393
5 14 4 13.8113 19.3349
5 14 6 7.8998 11.8170
5 14 8 -5.1037 -5.9281
5 14 10 -7.2563 -7.1748
5 14 12 -5.5180 14.2157
5 14 14 -3.1623 9.9038
5 14 16 0.1643 -1.5046
5 14 18 0.5162 7.5844
5 14 20 0.9429 1.8921
5 14 22 -0.8847 -1.8038
5 14 24 -0.5431 0.3215
5 15 1 4.3182 -2.0153
5 15 3 -9.8050 2.5775
5 15 5 -0.1264 -10.6431
5 15 7 -7.6266 12.9261
5 15 9 3.9012 12.7957
5 15 11 3.7190 -0.2881
5 15 13 7.3465 -8.1583
5 15 15 4.7955 -0.8327
5 15 17 -4.7180 0.2663
5 15 19 0.7775 -5.7390
5 15 21 -2.1593 -2.6053
5 15 23 -2.0235 -0.6139
5 16 0 6.0373 3.6209
5 16 2 2.3083 4.6380
5 16 4 2.3172 8.7114
5 16 6 3.8633 -3.1247
5 16 8 -1.4603 -12.0599
5 16 10 -6.2458 -13.4411
5 16 12 -9.7719 3.3756
5 16 14 -4.3132 6.3549
5 16 16 -2.3754 0.5038
5 16 18 6.5958 6.0329
5 16 20 7.7884 1.5351
5 16 22 5.9018 3.6300
5 17 1 -8.4411 -10.4146
5 17 3 -7.2200 -6.1981
5 17 5 -5.0536 -4.3482
5 17 7 -4.5891 12.6557
5 17 9 1.5673 13.7195
5 17 11 10.8452 -0.4102
5 17 13 5.9880 -6.4849
5 17 15 7.5923 -6.3935
5 17 17 -0.8481 -5.8889
5 17 19 -6.4351 0.0356
5 17 21 -8.0243 1.2599
5 18 0 7.9516 9.4124
5 18 2 11.9895 5.1014
5 18 4 3.4916 8.4168
5 18 6 1.4279 -11.7472
5 18 8 -1.1405 -20.9834
5 18 10 -0.2432 -14.3499
5 18 12 -3.9492 -4.3806
5 18 14 3.0002 2.3697
5 18 16 -1.3642 -2.1954
5 18 18 4.3020 -1.8148
5 18 20 4.1009 0.7394
5 19 1 2.5767 -10.0571
5 19 3 -1.3176 -0.6370
5 19 5 -8.7590 8.8511
5 19 7 -2.1851 16.8605
5 19 9 -6.3501 12.7242
5 19 11 3.1642 3.8642
5 19 13 -5.1887 3.1638
5 19 15 -0.5332 8.0914
5 19 17 -2.3346 1.3713
5 19 19 -4.4097 1.0593
5 20 0 -15.3780 11.4121
5 20 2 0.1535 -9.3035
5 20 4 5.6341 -4.5707
5 20 6 14.2214 -8.3876
5 20 8 4.6181 -6.4005
5 20 10 0.7139 -1.3656
5 20 12 -5.1887 -3.3843
5 20 14 -1.9820 1.2715
5 20 16 1.6169 -3.4989
5 20 18 8.1166 -1.4929
5 21 1 -3.8357 -9.4902
5 21 3 -8.8986 1.3081
5 21 5 -6.2032 2.9981
5 21 7 4.6105 6.3136
5 21 9 -3.5991 7.3207
5 21 11 4.2144 3.5006
5 21 13 3.5532 -3.9528
5 21 15 6.5168 0.3008
5 21 17 -1.1584 -2.5423
5 21 19 -1.9966 3.1698
5 22 0 1.9794 8.2009
5 22 2 12.6545 -1.4591
5 22 4 2.5431 1.8270
5 22 6 -0.9875 -8.9001
5 22 8 -1.5435 -13.6915
5 22 10 3.1808 -4.5694
5 22 12 -1.9668 -5.4252
5 22 14 -5.2635 -1.7772
5 22 16 -1.6695 -4.0441
5 22 18 -2.3621 -1.3032
5 23 1 -2.5939 -10.2196
5 23 3 -10.7559 0.7197
5 23 5 -1.7132 3.0167
5 23 7 1.6950 5.7856
5 23 9 -3.8675 6.4418
5 23 11 3.5394 8.9935
5 23 13 -1.7529 4.7661
5 23 15 1.2213 4.7508
5 23 17 0.6945 -0.5557
5 24 0 -7.3217 2.7982
5 24 2 8.6651 1.1346
5 24 4 10.9764 3.1884
5 24 6 11.5920 0.3088
5 24 8 4.8904 -1.0423
5 24 10 -2.6255 1.5391
5 24 12 -2.2103 -3.6606
5 24 14 -0.7892 0.5561
5 24 16 3.8696 -1.4436
5 24 18 -0.9086 -0.1967
5 25 1 -5.9744 -5.5965
5 25 3 -14.6332 -7.1286
5 25 5 -2.7935 -9.2548
5 25 7 -0.5525 -4.3896
5 25 9 -4.1648 -0.8223
5 25 11 6.5133 0.1098
5 25 13 -1.2586 -1.9929
5 25 15 -0.0486 1.5491
5 25 17 -2.9624 -1.3871
5 26 0 4.5743 -0.8440
5 26 2 13.0201 7.1977
5 26 4 -0.2163 13.1160
5 26 6 -2.2092 2.9480
5 26 8 2.4615 -2.5826
5 26 10 1.9759 2.4284
5 26 12 -0.3962 2.1494
5 26 14 -3.3460 4.0860
5 26 16 0.1997 0.0390
5 27 1 -4.8430 1.4993
5 27 3 -4.4376 -7.0016
5 27 5 4.4701 -4.3901
5 27 7 3.1195 1.1614
5 27 9 -3.6126 3.2658
5 27 11 4.7505 -2.6611
5 27 13 -0.6690 -5.9213
5 28 0 -2.3589 -0.0365
5 28 2 5.5824 2.3144
5 28 4 0.8122 5.8245
5 28 6 3.9923 -0.5109
5 28 8 -3.2078 -0.1036
5 28 10 -5.4282 -0.9785
5 28 12 -2.2139 1.8007
5 29 3 -0.9230 -7.8562
5 29 5 -0.7679 -2.5324
5 29 7 4.0711 -1.0481
5 29 9 7.5225 3.2604
5 29 11 7.3901 -0.6459
5 30 10 -4.8336 -1.0722
6 0 0 70.8215 5.0327
6 0 2 -96.1638 4.8223
6 0 4 -9.8040 60.8395
6 0 6 -4.3587 71.5759
6 0 8 3.2367 27.4572
6 0 10 -4.5653 3.7271
6 0 12 -21.9036 21.9833
6 0 14 -20.8536 5.5068
6 0 16 -16.2533 10.4358
6 0 18 -8.1719 4.0442
6 0 20 -12.7235 -5.4661
6 0 22 -4.9296 3.3716
6 0 24 1.3266 -5.6813
6 0 26 1.7435 -1.4434
6 1 1 -2.8815 -6.6561
6 1 3 22.3319 -25.4792
6 1 5 12.0435 -54.7827
6 1 7 10.5905 -50.8300
6 1 9 -0.7120 6.5396
6 1 11 17.5040 -20.2803
6 1 13 17.2911 -5.5939
6 1 15 17.1277 -9.0552
6 1 17 6.9674 -5.5266
6 1 19 5.9199 2.0252
6 1 21 9.5350 3.2482
6 1 23 3.4193 -0.3049
6 1 25 0.0866 4.1536
6 1 27 -0.2508 -2.8790
6 2 0 149.3464 -1.2454
6 2 2 -20.8293 22.1038
6 2 4 -6.4001 54.7205
6 2 6 -30.3050 45.8159
6 2 8 -16.6470 -1.4309
6 2 10 0.5848 -11.8133
6 2 12 -6.7358 14.5606
6 2 14 -11.6511 5.1958
6 2 16 -8.9221 9.0549
6 2 18 -5.7176 1.4288
6 2 20 -13.2559 -10.0784
6 2 22 -6.3061 -1.3420
6 2 24 0.9029 -1.0067
6 2 26 0.5917 3.7776
6 2 28 -0.3590 0.4616
6 3 1 16.5936 11.8160
6 3 3 37.0144 -11.9840
6 3 5 0.1484 -10.2616
6 3 7 6.0028 -2.4516
6 3 9 -2.7084 34.5309
6 3 11 6.2164 -2.9602
6 3 13 2.1254 1.6055
6 3 15 4.8427 -0.8380
6 3 17 2.6851 2.2097
6 3 19 -2.8727 5.5674
6 3 21 5.3490 3.0496
6 3 23 4.1408 -2.2157
6 3 25 2.6697 -0.5057
6 3 27 2.5633 -4.2089
6 4 0 -4.1956 -9.0062
6 4 2 -67.7940 8.4102
6 4 4 -9.1600 9.2228
6 4 6 0.4103 -10.5477
6 4 8 5.9126 -42.8333
6 4 10 8.0662 -23.1653
6 4 12 -3.6469 -1.2769
6 4 14 -6.9084 -6.5583
6 4 16 0.5639 -4.6359
6 4 18 1.1521 -4.7972
6 4 20 -0.0527 -2.7726
6 4 22 -0.8142 3.9618
6 4 24 -2.2259 2.1428
6 4 26 -1.9139 2.5514
6 4 28 -0.4631 1.9428
6 5 1 -12.7635 3.5346
6 5 3 27.2483 -32.7985
6 5 5 2.2960 1.1536
6 5 7 5.0060 39.6490
6 5 9 -2.6269 55.8977
6 5 11 -3.1745 11.4163
6 5 13 -9.2984 3.8897
6 5 15 -1.9952 -3.1826
6 5 17 6.1008 3.9530
6 5 19 -3.9757 2.9982
6 5 21 -0.3224 -1.7637
6 5 23 -1.3414 -3.8356
6 5 25 -1.3695 -2.8795
6 5 27 -0.4063 -3.8780
6 6 0 48.4983 -16.3928
6 6 2 12.8475 6.5297
6 6 4 4.2453 12.1675
6 6 6 -18.1927 1.9813
6 6 8 -2.3263 -30.6272
6 6 10 16.1947 -16.2406
6 6 12 10.4487 -11.4842
6 6 14 -1.7894 -1.6144
6 6 16 6.2347 0.6028
6 6 18 0.5763 1.3647
6 6 20 1.4671 3.8563
6 6 22 4.2043 1.4266
6 6 24 6.4413 4.7805
6 6 26 3.4449 3.6610
6 6 28 2.4777 0.8637
6 7 1 8.2286 33.5047
6 7 3 13.7900 27.8322
6 7 5 7.2868 -11.7524
6 7 7 3.5785 5.4759
6 7 9 -10.4095 23.2274
6 7 11 -19.1315 11.9117
6 7 13 -11.2010 9.7262
6 7 15 -5.6638 -5.1863
6 7 17 -3.6720 -1.0581
6 7 19 -8.4576 -5.5057
6 7 21 -2.4512 -1.0015
6 7 23 -1.2040 1.6666
6 7 25 -2.2235 -0.7686
6 7 27 -2.2720 -3.9633
6 8 0 -3.9830 -14.8553
6 8 2 -11.6015 -37.4521
6 8 4 -5.5097 -26.4377
6 8 6 -14.0506 -4.2759
6 8 8 9.3771 -21.6364
6 8 10 21.5320 -6.9997
6 8 12 10.4571 -18.3738
6 8 14 -3.0979 -6.8208
6 8 16 11.9916 -1.2425
6 8 18 2.8183 1.2476
6 8 20 2.8696 2.4494
6 8 22 -0.8138 -4.1923
6 8 24 -1.5620 -0.4211
6 8 26 -1.8780 0.4066
6 8 28 0.9929 3.4551
6 9 1 -44.5217 11.7044
6 9 3 -9.2737 30.9592
6 9 5 19.2254 6.1949
6 9 7 1.2530 27.8914
6 9 9 -10.9457 26.6814
6 9 11 -21.7860 19.9138
6 9 13 -6.8531 6.4714
6 9 15 1.0764 -9.5925
6 9 17 5.5192 3.0604
6 9 19 2.1190 -0.2991
6 9 21 1.7572 4.4347
6 9 23 5.4816 3.9529
6 9 25 5.3167 3.0013
6 9 27 2.5628 -4.9363
6 10 0 68.8598 -7.3396
6 10 2 31.8270 -6.7304
6 10 4 11.1061 -18.7708
6 10 6 9.1558 0.1061
6 10 8 2.7615 -8.8342
6 10 10 3.7184 -3.7909
6 10 12 7.9667 -10.8583
6 10 14 -9.4876 2.7871
6 10 16 -4.1847 -0.0258
6 10 18 -7.4115 -1.7410
6 10 20 0.0219 1.1414
6 10 22 -2.0143 -2.5919
6 10 24 -0.0401 0.3600
6 10 26 -2.8336 -0.7664
6 11 1 -23.9324 -0.1915
6 11 3 -15.8728 12.7445
6 11 5 -4.2655 -11.9418
6 11 7 -6.2548 -8.4848
6 11 9 7.3093 -7.1496
6 11 11 -2.3914 5.4405
6 11 13 7.8661 -1.2791
6 11 15 7.2332 -9.5283
6 11 17 5.1711 3.5538
6 11 19 1.2585 -5.6317
6 11 21 0.0655 -2.4573
6 11 23 1.7161 1.5465
6 11 25 0.5028 6.6525
6 11 27 2.0350 -1.9932
6 12 0 18.9324 0.3559
6 12 2 -0.4668 6.7843
6 12 4 -3.7383 -2.7650
6 12 6 1.1626 6.2926
6 12 8 -11.9982 -0.5058
6 12 10 -7.1240 7.1732
6 12 12 1.2629 -1.6066
6 12 14 -1.1244 -4.5100
6 12 16 0.8920 1.2808
6 12 18 -6.1358 2.2304
6 12 20 2.1012 -0.1921
6 12 22 0.4385 1.1639
6 12 24 3.4852 0.9307
6 12 26 1.5553 -0.9672
6 13 1 6.4003 9.0720
6 13 3 4.6630 19.6656
6 13 5 8.2971 12.4322
6 13 7 -2.1203 7.1903
6 13 9 0.3766 -6.4466
6 13 11 -8.6146 -0.2920
6 13 13 -1.8468 8.7506
6 13 15 -4.3877 -5.4837
6 13 17 1.7907 1.8664
6 13 19 1.4531 2.2608
6 13 21 -4.8887 -0.2875
6 13 23 -2.5751 -2.4809
6 13 25 -0.3083 2.8610
6 14 0 -11.1800 1.7214
6 14 2 -13.3216 -18.9042
6 14 4 1.4852 -30.3043
6 14 6 15.5612 -12.3878
6 14 8 4.8803 0.8361
6 14 10 4.0457 6.0702
6 14 12 3.8241 2.9912
6 14 14 -1.7271 -2.4368
6 14 16 -0.5851 3.4542
6 14 18 4.3737 -1.2412
6 14 20 9.4549 -5.1423
6 14 22 3.2031 0.9057
6 14 24 2.8231 1.2659
6 15 1 4.2703 4.8469
6 15 3 -1.0681 9.7049
6 15 5 -9.8655 15.2587
6 15 7 -17.5877 8.9444
6 15 9 -1.2986 -8.3218
6 15 11 -1.1854 -18.4843
6 15 13 9.3620 -5.1625
6 15 15 9.4496 -10.3535
6 15 17 0.5414 -2.0205
6 15 19 -2.8045 -2.1749
6 15 21 -2.0876 -1.2495
6 15 23 -1.4807 2.3489
6 16 0 11.0621 -3.4544
6 16 2 7.3265 13.7605
6 16 4 3.9403 3.9685
6 16 6 3.4967 -6.9315
6 16 8 -1.0331 -0.4507
6 16 10 -2.5740 8.7876
6 16 12 3.1549 13.9396
6 16 14 -5.1110 5.4307
6 16 16 -11.9934 8.4543
6 16 18 -6.2241 3.9288
6 16 20 -3.6302 3.8615
6 16 22 -0.8677 3.1081
6 17 1 -0.1080 0.0148
6 17 3 -2.3227 -1.3964
6 17 5 -7.9923 0.2526
6 17 7 -4.8337 -4.9065
6 17 9 6.8977 -12.4959
6 17 11 -4.6306 -17.8754
6 17 13 -3.6196 -1.3053
6 17 15 8.9243 -2.1025
6 17 17 10.3793 -0.1126
6 17 19 3.2484 -3.8430
6 17 21 -0.0586 -5.0493
6 18 0 -8.0582 -9.3494
6 18 2 0.2373 -12.0460
6 18 4 7.3831 -9.4882
6 18 6 10.0928 5.8075
6 18 8 1.0903 17.3912
6 18 10 -4.8861 11.2079
6 18 12 2.2937 7.3559
6 18 14 -6.0207 -1.5294
6 18 16 -5.1352 -2.8538
6 18 18 8.4044 -3.5997
6 18 20 4.3861 5.4659
6 19 1 -18.0271 -0.4225
6 19 3 -3.2891 0.5593
6 19 5 -5.7620 5.4256
6 19 7 -1.5919 -1.7746
6 19 9 3.6274 -6.1317
6 19 11 0.1078 -10.8613
6 19 13 3.1691 -4.5682
6 19 15 4.9941 1.7722
6 19 17 -0.5793 1.1733
6 19 19 -5.1095 -3.6108
6 20 0 25.5858 -11.2615
6 20 2 20.9441 -0.0510
6 20 4 1.0777 -1.4620
6 20 6 3.9633 -6.6279
6 20 8 0.2290 0.5198
6 20 10 -2.4411 4.8326
6 20 12 2.0500 1.4599
6 20 14 1.2415 -0.1106
6 20 16 -4.1960 1.3565
6 20 18 -4.6765 3.0271
6 21 1 -21.0316 5.2177
6 21 3 -10.8820 5.7171
6 21 5 -10.1393 4.3073
6 21 7 -0.4963 -4.5557
6 21 9 3.6687 -5.8121
6 21 11 1.0412 -0.3999
6 21 13 -4.6276 -0.7473
6 21 15 -0.6130 -1.6702
6 21 17 9.5807 -1.4465
6 21 19 6.4135 -1.8866
6 22 0 5.7713 -8.0844
6 22 2 12.3190 -18.8982
6 22 4 7.6495 -6.3954
6 22 6 11.8165 2.9212
6 22 8 -1.9033 7.4310
6 22 10 -3.6015 8.0235
6 22 12 -2.5709 1.6501
6 22 14 -0.6188 2.4862
6 22 16 -1.2213 -3.7502
6 22 18 0.8647 -0.5000
6 23 1 -10.2237 5.0206
6 23 3 -1.6861 6.1616
6 23 5 1.5826 -0.8508
6 23 7 5.8064 -4.2495
6 23 9 2.8367 1.3693
6 23 11 1.4868 4.7029
6 23 13 -0.1491 -2.0665
6 23 15 0.3605 0.2491
6 23 17 -1.9070 2.7899
6 24 0 2.4830 -2.5838
6 24 2 1.5858 -3.5067
6 24 4 -7.8002 -1.3344
6 24 6 -0.4301 -3.2624
6 24 8 -4.6109 -5.0567
6 24 10 -0.3202 -4.8198
6 24 12 2.6738 -7.0037
6 24 14 1.2993 -1.1451
6 24 16 -1.4976 -3.7376
6 25 1 1.0572 0.2791
6 25 3 2.5144 7.6073
6 25 5 0.1057 6.7002
6 25 7 -1.1291 1.9143
6 25 9 0.3424 3.5304
6 25 11 3.2976 9.5202
6 25 13 -3.3465 4.7992
6 25 15 -0.5458 0.3403
6 25 17 3.1475 -0.8395
6 26 0 -2.9248 0.7150
6 26 2 0.9044 -1.2039
6 26 4 0.2033 -7.1280
6 26 6 7.0350 -4.6031
6 26 8 1.9053 2.0912
6 26 10 -3.1538 -2.2932
6 26 12 0.0026 -7.1260
6 26 14 3.9852 0.2000
6 26 16 1.6502 3.6007
6 27 1 3.3894 -1.7930
6 27 3 3.3101 2.3649
6 27 5 3.0677 0.7471
6 27 7 -0.4469 -3.3537
6 27 9 -1.2144 -0.1044
6 27 11 2.3170 6.5764
6 27 13 -3.3857 4.7472
6 28 0 -8.4404 -0.0401
6 28 2 -3.9051 4.8479
6 28 4 -5.2950 2.7986
6 28 6 -0.9895 0.9179
6 28 8 1.8497 5.8725
6 28 10 0.5617 -2.2210
6 28 12 -0.8326 -5.8805
6 29 5 4.1189 0.8583
6 29 7 -5.3870 1.9575
6 29 9 -5.7220 -1.7730
7 0 0 -11.4330 -1.7015
7 0 2 -70.7767 6.7734
7 0 4 -0.8451 -28.1098
7 0 6 -3.4087 -42.8343
7 0 8 1.6682 14.8532
7 0 10 -5.7422 9.2997
7 0 12 7.9079 5.8573
7 0 14 7.1705 -21.0256
7 0 16 5.1196 -11.4603
7 0 18 -1.6984 -8.2811
7 0 20 -3.4536 -1.7515
7 0 22 8.4052 5.2967
7 0 24 6.1261 8.2015
7 0 26 1.1971 0.8381
7 1 1 67.3677 -16.7481
7 1 3 3.5775 14.4603
7 1 5 24.7862 52.4226
7 1 7 -3.9262 17.2989
7 1 9 5.9829 1.2198
7 1 11 -4.2607 -4.5302
7 1 13 -10.1136 17.8710
7 1 15 -6.4518 12.7919
7 1 17 -2.2753 1.6613
7 1 19 -3.3471 5.5875
7 1 21 -4.2824 -3.4926
7 1 23 -5.4744 -4.6985
7 1 25 2.0815 -1.8414
7 1 27 2.1582 3.1761
7 2 0 6.4577 5.7383
7 2 2 -31.9464 -1.3973
7 2 4 4.0146 -19.4688
7 2 6 -24.7342 -33.2632
7 2 8 -10.2039 -3.3290
7 2 10 1.0750 -11.8550
7 2 12 16.9769 -10.3190
7 2 14 12.0334 -19.5010
7 2 16 5.3762 0.1549
7 2 18 -5.0967 1.2601
7 2 20 -1.3763 0.5844
7 2 22 8.5438 0.0440
7 2 24 -0.3014 1.1443
7 2 26 0.2056 -1.4799
7 2 28 -1.0370 -3.3250
7 3 1 24.0961 6.0835
7 3 3 -27.6714 26.1625
7 3 5 2.8152 17.5242
7 3 7 -0.2855 -8.8008
7 3 9 8.6776 3.9396
7 3 11 -5.1267 12.3410
7 3 13 -13.5689 21.0390
7 3 15 -13.1950 9.4790
7 3 17 -0.5889 -1.5234
7 3 19 -0.2476 3.5265
7 3 21 0.7166 -3.1473
7 3 23 -0.7785 -1.4005
7 3 25 0.5362 2.0453
7 3 27 -1.4146 3.1175
7 4 0 -10.5658 11.0555
7 4 2 1.3760 -23.8043
7 4 4 32.6856 -17.2100
7 4 6 4.7221 23.9118
7 4 8 4.7121 35.2822
7 4 10 1.8294 1.9877
7 4 12 6.0593 -8.4506
7 4 14 5.2120 -13.1170
7 4 16 11.1142 -6.9082
7 4 18 -7.5008 -4.9993
7 4 20 -10.6627 1.1125
7 4 22 2.5177 0.1522
7 4 24 1.1346 0.4516
7 4 26 6.0652 -1.3091
7 4 28 0.2687 -5.5603
7 5 1 7.2084 -10.5105
7 5 3 -3.3589 4.4836
7 5 5 5.9723 -11.7816
7 5 7 -8.0629 -32.7452
7 5 9 8.1641 -9.6844
7 5 11 1.0504 4.2453
7 5 13 -7.2090 1.2012
7 5 15 -8.1214 0.2413
7 5 17 9.6778 0.3661
7 5 19 6.6903 6.0635
7 5 21 3.8950 -0.6583
7 5 23 -0.4186 0.8934
7 5 25 -0.8981 3.8539
7 5 27 1.7402 2.6579
7 6 0 3.4117 13.4389
7 6 2 10.7450 9.2619
7 6 4 2.8323 -14.0559
7 6 6 -13.5081 18.0192
7 6 8 -6.6514 31.6941
7 6 10 -10.9456 13.4313
7 6 12 -14.8562 -0.8643
7 6 14 -7.1151 -6.5350
7 6 16 2.4587 -3.7428
7 6 18 -13.5605 -0.1039
7 6 20 -3.9580 0.1318
7 6 22 4.0292 -1.5471
7 6 24 -4.4796 -0.7622
7 6 26 -0.9149 -0.5752
7 7 1 -21.2271 -19.4128
7 7 3 -18.8899 13.8768
7 7 5 3.3014 -1.8322
7 7 7 -0.0652 -13.2043
7 7 9 15.9475 -2.7936
7 7 11 15.2148 1.1667
7 7 13 9.3522 0.0039
7 7 15 0.1558 5.9226
7 7 17 14.4440 -1.1638
7 7 19 4.3741 2.9243
7 7 21 0.2925 -1.7900
7 7 23 5.4979 -1.4302
7 7 25 2.3462 0.9856
7 7 27 -0.2062 0.1835
7 8 0 13.1010 10.8819
7 8 2 28.0961 11.0501
7 8 4 28.4242 -15.0536
7 8 6 8.3673 4.3836
7 8 8 2.1769 0.8899
7 8 10 2.8402 -3.7314
7 8 12 -11.0139 0.4789
7 8 14 -6.7957 -3.9179
7 8 16 1.3849 -6.4724
7 8 18 -13.9487 -0.3656
7 8 20 -3.4642 -0.4180
7 8 22 0.0290 0.8479
7 8 24 0.2705 2.4773
7 8 26 5.4207 -0.9961
7 8 28 3.0430 -3.4300
7 9 1 -24.2040 -39.4427
7 9 3 -25.4544 -16.8795
7 9 5 2.2915 -16.8462
7 9 7 -2.5941 3.7468
7 9 9 2.0323 15.1339
7 9 11 -5.5032 10.0105
7 9 13 -5.7333 -10.7225
7 9 15 -8.0304 -0.1364
7 9 17 9.2048 -0.1625
7 9 19 4.4150 0.5434
7 9 21 -0.0762 -1.2845
7 9 23 0.5003 2.1379
7 9 25 -4.9133 3.0205
7 9 27 -3.4771 2.8722
7 10 0 9.9878 6.2948
7 10 2 10.1586 26.7189
7 10 4 10.1773 6.0125
7 10 6 4.5697 12.6315
7 10 8 -5.9394 14.4469
7 10 10 -3.1090 12.1107
7 10 12 -2.9191 9.2121
7 10 14 5.2958 -0.1541
7 10 16 7.6751 -3.8798
7 10 18 -6.1006 0.4316
7 10 20 3.0046 -0.9902
7 10 22 2.5480 -3.6191
7 10 24 3.8001 -0.2029
7 10 26 5.2661 -0.7667
7 11 1 16.5614 -9.0266
7 11 3 -15.7002 9.7075
7 11 5 2.6442 -19.1763
7 11 7 -1.8746 -17.1046
7 11 9 3.7232 -21.0844
7 11 11 0.1706 -7.0736
7 11 13 3.0045 -12.7219
7 11 15 -5.6514 -0.3628
7 11 17 0.2881 1.6241
7 11 19 -2.3159 -2.1392
7 11 21 -1.2855 -1.2469
7 11 23 3.1278 4.1506
7 11 25 -0.6355 0.9651
7 11 27 -2.3320 -1.5572
7 12 0 -16.7875 2.3261
7 12 2 -8.9066 0.4318
7 12 4 2.0307 8.4341
7 12 6 -2.8523 11.4306
7 12 8 -4.6331 -1.5940
7 12 10 5.0966 -2.1805
7 12 12 -2.5596 10.4452
7 12 14 -6.5321 5.6860
7 12 16 2.8922 2.9738
7 12 18 1.5850 4.6130
7 12 20 2.5032 -0.1492
7 12 22 -2.5439 -4.6328
7 12 24 -1.5812 1.8678
7 12 26 2.3074 3.1434
7 13 1 -2.4417 -15.8291
7 13 3 -2.7100 -18.4810
7 13 5 23.8668 -21.9472
7 13 7 8.2730 12.2120
7 13 9 5.5334 12.3142
7 13 11 0.8876 8.5475
7 13 13 11.0010 -8.0354
7 13 15 3.3538 -6.9666
7 13 17 -0.6208 -4.2289
7 13 19 2.2808 -7.5376
7 13 21 2.4327 -2.0046
7 13 23 2.6955 3.9101
7 13 25 4.2376 1.7701
7 14 0 20.2579 1.5100
7 14 2 1.2587 20.9585
7 14 4 -11.5387 18.7084
7 14 6 -9.9143 3.1774
7 14 8 -9.2291 -2.0857
7 14 10 -6.5104 -6.9738
7 14 12 -6.8837 2.5009
7 14 14 -7.4786 0.9054
7 14 16 -7.0921 3.8983
7 14 18 -6.8230 5.9998
7 14 20 -4.6876 -0.2382
7 14 22 -1.2163 -3.0948
7 14 24 -3.3388 -1.4621
7 15 1 -0.8248 -6.0779
7 15 3 2.4247 -0.2422
7 15 5 6.4918 -10.2064
7 15 7 -5.6316 -3.6303
7 15 9 1.8543 -9.7539
7 15 11 -0.4333 -6.4087
7 15 13 1.3670 0.3778
7 15 15 4.7045 0.0635
7 15 17 7.4175 1.6637
7 15 19 7.6156 -0.5834
7 15 21 1.9237 -1.7106
7 15 23 1.8850 0.8531
7 16 0 -3.5153 4.3059
7 16 2 -7.1510 -6.9387
7 16 4 -3.9009 0.4606
7 16 6 -0.9238 -1.4425
7 16 8 4.0173 1.9252
7 16 10 6.1240 0.6970
7 16 12 1.2088 4.6792
7 16 14 4.3444 -0.6268
7 16 16 1.0474 -0.1987
7 16 18 3.6171 -1.3560
7 16 20 -0.9911 -1.3045
7 16 22 0.2203 2.6632
7 17 1 3.7004 -4.8085
7 17 3 10.5059 3.1489
7 17 5 4.8821 5.4436
7 17 7 -0.4340 15.7806
7 17 9 -2.5121 1.7957
7 17 11 5.3707 -12.9931
7 17 13 0.0394 -1.9554
7 17 15 -5.5803 1.9060
7 17 17 -5.1226 -1.6817
7 17 19 0.0587 -2.4478
7 17 21 0.0275 -3.3229
7 18 0 -7.7441 7.6564
7 18 2 -6.7955 -7.7779
7 18 4 -6.8891 -4.2570
7 18 6 -0.7786 -15.5812
7 18 8 0.7146 -8.2367
7 18 10 -2.6492 4.1370
7 18 12 -9.8055 4.2427
7 18 14 0.2665 -0.2690
7 18 16 -2.0115 3.0238
7 18 18 -0.9312 2.9007
7 18 20 -6.6890 3.4211
7 19 1 4.4244 -4.3460
7 19 3 5.7197 0.5044
7 19 5 -2.0624 2.9839
7 19 7 7.5036 14.6685
7 19 9 -2.4938 10.3328
7 19 11 1.0411 -0.4372
7 19 13 -1.3905 -0.7927
7 19 15 4.1441 0.5194
7 19 17 7.7904 -1.4013
7 19 19 4.9324 1.9233
7 20 0 -13.4927 8.6519
7 20 2 -1.6204 -8.6675
7 20 4 -0.8008 5.0542
7 20 6 0.5823 -6.7902
7 20 8 -1.6663 -14.1508
7 20 10 6.7909 -8.5136
7 20 12 1.8725 -8.3967
7 20 14 1.8474 -2.6957
7 20 16 -1.1183 -1.7377
7 20 18 6.0491 -4.9748
7 21 1 9.9796 -7.6899
7 21 3 1.6380 -2.3064
7 21 5 -6.1861 -1.0017
7 21 7 3.4489 5.8256
7 21 9 -3.7204 8.5126
7 21 11 -2.5136 11.2556
7 21 13 -5.3257 5.1890
7 21 15 -4.0567 2.4602
7 21 17 -5.7923 1.7228
7 22 0 -14.4094 6.4428
7 22 2 -0.7839 -0.0396
7 22 4 4.0744 4.6590
7 22 6 10.6036 -4.0640
7 22 8 1.5482 -2.7802
7 22 10 3.4715 0.9881
7 22 12 0.4201 -7.4974
7 22 14 2.9059 -3.6173
7 22 16 3.9213 -1.5674
7 22 18 4.3461 1.2198
7 23 1 -2.5025 -12.7659
7 23 3 -7.6440 -7.2636
7 23 5 -2.9008 -0.7708
7 23 7 0.9973 3.4419
7 23 9 -4.5580 3.3986
7 23 11 -0.6862 6.6314
7 23 13 -2.0120 0.3410
7 23 15 -3.1674 -3.1548
7 23 17 -3.0238 -3.6042
7 24 0 1.6656 2.7950
7 24 2 9.4719 6.5790
7 24 4 -0.9318 8.0197
7 24 6 -0.9914 -3.8240
7 24 8 0.2172 -5.8396
7 24 10 4.5231 -1.2450
7 24 12 -0.8642 -3.1815
7 24 14 0.6407 3.5027
7 24 16 5.8598 3.2351
7 25 1 5.1270 -3.4598
7 25 3 -1.9189 -3.0040
7 25 5 5.4631 -3.4485
7 25 7 3.5555 -2.0181
7 25 9 -5.0666 3.3378
7 25 11 2.7515 7.2369
7 25 13 1.4478 0.4418
7 25 15 -0.9832 -2.7902
7 25 17 -7.1395 -2.6714
7 26 0 -13.1933 0.8300
7 26 2 0.9157 1.5184
7 26 4 -1.3743 6.6685
7 26 6 0.5468 1.6873
7 26 8 -1.1949 0.4850
7 26 10 0.0287 -2.9210
7 26 12 -2.4860 -4.2222
7 26 14 -2.8958 1.0875
7 27 1 6.5695 1.4744
7 27 3 -2.4396 -5.1310
7 27 5 -0.3714 -0.4175
7 27 7 0.5928 2.8189
7 27 9 -4.1099 5.7472
7 27 11 3.3661 1.5841
7 27 13 0.7683 -1.9489
7 28 0 -9.4657 0.6491
7 28 2 4.1183 1.4859
7 28 4 1.4276 6.7014
7 28 6 0.7107 -2.4012
7 28 8 -2.1330 -2.3416
7 28 10 1.1179 -3.0991
7 28 12 0.4427 -0.3427
7 29 5 3.2642 -1.6891
7 29 7 4.5247 -1.0305
7 29 9 -1.6465 4.6715
8 0 0 62.4617 -8.2178
8 0 2 -50.6005 -42.3520
8 0 4 30.4063 -3.6987
8 0 6 0.9668 18.7031
8 0 8 -16.1377 -13.0605
8 0 10 -19.2908 -14.8391
8 0 12 1.3074 9.9185
8 0 14 -0.7106 -15.6196
8 0 16 -5.5901 -1.8364
8 0 18 -1.2456 9.3902
8 0 20 -6.1709 1.1081
8 0 22 -1.1295 -2.4520
8 0 24 -2.9221 -5.4610
8 0 26 2.5989 3.6858
8 1 1 26.4953 20.8865
8 1 3 12.2056 27.2486
8 1 5 -18.9669 -10.7873
8 1 7 -6.3682 -5.2001
8 1 9 5.6552 18.8698
8 1 11 9.3927 -17.1091
8 1 13 0.8329 7.5566
8 1 15 3.6481 5.8354
8 1 17 -1.0720 -2.1209
8 1 19 -2.2618 -0.2106
8 1 21 4.0078 1.1627
8 1 23 4.1862 -0.4804
8 1 25 2.3665 3.4237
8 1 27 -2.9846 -3.3855
8 2 0 31.2570 -8.2893
8 2 2 -61.9879 -8.3483
8 2 4 18.0175 7.0448
8 2 6 23.6644 14.3727
8 2 8 18.0399 0.0067
8 2 10 -5.0142 12.3384
8 2 12 -0.3141 27.2469
8 2 14 2.1887 -4.6251
8 2 16 2.8659 -5.6954
8 2 18 0.1536 -2.9286
8 2 20 -6.8619 -4.9353
8 2 22 -1.2445 1.3933
8 2 24 -0.6893 0.6947
8 2 26 2.9546 3.1664
8 3 1 -0.4858 4.9590
8 3 3 14.8904 -12.1884
8 3 5 -22.8128 -7.7418
8 3 7 -14.5721 -0.7529
8 3 9 -2.7905 5.4586
8 3 11 2.6348 -27.8156
8 3 13 -5.5288 -7.1973
8 3 15 -1.3889 -0.3983
8 3 17 -2.6929 1.3004
8 3 19 -7.0637 4.6721
8 3 21 1.4334 0.8885
8 3 23 2.5291 -5.3243
8 3 25 3.7816 1.2915
8 3 27 1.0086 1.4785
8 4 0 27.9710 -6.9746
8 4 2 -14.0089 -8.1464
8 4 4 26.1983 -9.8992
8 4 6 5.3842 -1.8517
8 4 8 -2.0618 -7.2667
8 4 10 -2.1418 11.0680
8 4 12 2.6580 19.0546
8 4 14 -7.1142 -1.6210
8 4 16 2.4086 -3.9770
8 4 18 5.3893 5.1821
8 4 20 2.8078 -0.3851
8 4 22 2.4082 -2.1526
8 4 24 -2.6278 2.7253
8 4 26 -0.4494 1.6599
8 4 28 1.1202 -3.4613
8 5 1 12.8811 18.1973
8 5 3 14.6488 3.1299
8 5 5 -17.5593 13.5842
8 5 7 -2.5125 26.3890
8 5 9 1.2541 21.2492
8 5 11 -0.5660 -12.4070
8 5 13 1.5614 -6.5588
8 5 15 8.8372 -3.5792
8 5 17 2.4161 -0.8450
8 5 19 -9.2668 2.1708
8 5 21 -0.0123 4.3393
8 5 23 1.6155 -2.1443
8 5 25 -0.4632 -1.6839
8 5 27 -4.1253 0.5265
8 6 0 -35.3725 -6.3738
8 6 2 -23.7735 -0.5057
8 6 4 21.1199 -7.5185
8 6 6 12.0894 -15.0309
8 6 8 12.4372 -27.6958
8 6 10 4.4764 -2.8305
8 6 12 -2.1670 7.6569
8 6 14 -15.0876 9.4254
8 6 16 -1.2006 -1.9637
8 6 18 -0.9994 -4.0062
8 6 20 0.5527 -5.6217
8 6 22 -1.2724 -4.8916
8 6 24 0.9275 2.8794
8 6 26 6.1337 2.0076
8 7 1 10.6235 -0.9869
8 7 3 1.4835 -22.6531
8 7 5 -20.9985 -17.4472
8 7 7 -9.3437 15.1890
8 7 9 10.8020 20.1650
8 7 11 0.8985 5.0008
8 7 13 -8.7870 -10.0185
8 7 15 1.1285 -14.3928
8 7 17 5.4488 6.1508
8 7 19 -4.6965 5.6740
8 7 21 1.7069 3.7762
8 7 23 3.1199 0.0342
8 7 25 -1.4827 0.8289
8 7 27 -1.6644 0.9084
8 8 0 -32.0140 -7.1987
8 8 2 -11.0662 -1.3849
8 8 4 28.2797 2.7362
8 8 6 17.2987 18.4421
8 8 8 -2.3830 9.3278
8 8 10 -13.5787 12.1261
8 8 12 1.2038 -0.2720
8 8 14 -2.4293 5.5571
8 8 16 8.5853 -3.3278
8 8 18 1.7757 -2.2913
8 8 20 3.8946 -0.6859
8 8 22 0.5717 -4.6764
8 8 24 1.3572 1.2317
8 8 26 -0.4210 0.3309
8 9 1 25.3124 7.2541
8 9 3 -1.6421 1.5114
8 9 5 -10.6958 -21.3327
8 9 7 -6.3265 -3.8229
8 9 9 8.9298 -5.6273
8 9 11 3.1419 -0.1956
8 9 13 0.3780 0.1845
8 9 15 -4.2887 -0.6803
8 9 17 -2.2796 6.9599
8 9 19 -5.5592 -4.0205
8 9 21 -1.3089 2.6271
8 9 23 2.0625 -0.8820
8 9 25 -0.4024 0.1536
8 9 27 0.7581 0.0620
8 10 0 -13.1489 -6.4567
8 10 2 -7.0436 0.1327
8 10 4 3.3062 2.1334
8 10 6 0.7580 0.8681
8 10 8 4.3575 -21.6921
8 10 10 4.0197 -4.7108
8 10 12 -0.7996 -8.0677
8 10 14 -9.0028 -5.1560
8 10 16 5.2037 -1.4015
8 10 18 -4.2008 -1.0266
8 10 20 2.6054 -6.2122
8 10 22 1.0726 -2.8525
8 10 24 1.3471 4.7030
8 10 26 1.2020 0.3734
8 11 1 -10.6448 3.5006
8 11 3 -9.1294 -2.9306
8 11 5 10.4894 -6.1838
8 11 7 8.0735 18.2745
8 11 9 4.8991 17.9033
8 11 11 -2.8205 19.2468
8 11 13 1.0831 8.2777
8 11 15 -2.3778 -3.7044
8 11 17 9.1011 5.4224
8 11 19 4.6033 1.1039
8 11 21 -0.8632 6.0315
8 11 23 1.0117 -2.3676
8 11 25 -1.0102 2.1842
8 12 0 6.4823 -5.5598
8 12 2 1.8328 -0.8442
8 12 4 -0.7628 -8.6813
8 12 6 2.5101 1.5036
8 12 8 -11.0492 -2.2034
8 12 10 -8.0104 2.9606
8 12 12 1.2848 -4.7426
8 12 14 -4.1458 -4.3197
8 12 16 -4.2276 0.0472
8 12 18 -11.1348 -2.3298
8 12 20 -1.1860 -7.7697
8 12 22 -1.2562 -4.1123
8 12 24 3.9661 -0.2527
8 12 26 3.0646 -0.8559
8 13 1 7.2181 2.9724
8 13 3 -2.0651 -7.0908
8 13 5 -1.0206 -1.5811
8 13 7 -2.3257 -5.0763
8 13 9 8.2234 -18.0291
8 13 11 1.6337 -13.4349
8 13 13 2.1044 -0.6500
8 13 15 -0.3689 -0.3008
8 13 17 7.2759 9.1827
8 13 19 5.3499 -3.1826
8 13 21 5.2940 -1.1979
8 13 23 1.7873 -1.1103
8 13 25 -4.4911 4.2221
8 14 0 -7.9157 -5.3390
8 14 2 -2.7718 16.4621
8 14 4 -3.1938 9.3945
8 14 6 0.4376 -1.7263
8 14 8 -3.8399 -3.1721
8 14 10 2.3748 10.1999
8 14 12 8.1659 10.6850
8 14 14 3.7422 0.0968
8 14 16 1.5629 0.8281
8 14 18 -1.8573 0.1179
8 14 20 -1.6251 -1.0447
8 14 22 -4.7185 4.0705
8 14 24 2.6158 4.0670
8 15 1 2.2637 -0.3610
8 15 3 0.5531 -15.5907
8 15 5 8.2975 -0.4752
8 15 7 6.8546 8.1095
8 15 9 8.0595 2.1768
8 15 11 -7.8567 -8.0016
8 15 13 -9.8593 3.4294
8 15 15 -6.9871 -3.5519
8 15 17 -1.6587 2.9567
8 15 19 -0.5295 -2.1660
8 15 23 -0.7509 -6.4097
8 16 0 -5.3403 -5.6294
8 16 2 0.0034 7.4032
8 16 4 -5.2267 1.6394
8 16 6 -7.6516 0.2627
8 16 8 -10.5826 1.6195
8 16 10 -4.4875 -6.2685
8 16 12 9.5354 -4.8351
8 16 14 -0.9343 -4.3649
8 16 16 -4.1544 2.1458
8 16 18 5.3455 -0.3197
8 16 20 2.3140 -3.1488
8 16 22 -0.0849 -2.2395
8 17 1 -4.1139 -6.1839
8 17 3 3.2320 -14.7409
8 17 5 1.1433 -2.2372
8 17 7 3.3022 -3.7235
8 17 9 9.5009 1.7045
8 17 11 -7.6527 0.9039
8 17 13 -3.4398 8.5181
8 17 15 9.5827 2.3225
8 17 17 3.8732 3.9777
8 17 19 -3.4086 -2.5096
8 17 21 -0.7285 3.2455
8 18 0 -7.7281 -5.6155
8 18 2 2.2543 9.1341
8 18 4 0.9914 3.3906
8 18 6 2.2316 4.1727
8 18 8 1.0154 8.6186
8 18 10 0.1568 -1.1989
8 18 12 11.0656 -4.5003
8 18 14 -1.6237 -5.6319
8 18 16 -6.2207 0.5451
8 18 18 5.4299 0.3840
8 18 20 2.2050 2.0996
8 19 1 4.6800 -1.7537
8 19 3 3.0024 -5.0201
8 19 5 -6.3209 -1.7224
8 19 7 0.0896 -10.2149
8 19 9 3.1807 -9.7268
8 19 11 -6.6768 -7.0248
8 19 13 -4.9279 0.2199
8 19 15 1.2758 0.9454
8 19 17 0.8328 1.8760
8 19 19 -3.4072 -3.8503
8 20 0 -8.7615 -5.1299
8 20 2 1.5873 -1.8355
8 20 4 -1.5822 -0.0203
8 20 6 1.9619 5.7049
8 20 8 2.0494 11.8413
8 20 10 -1.5991 11.8683
8 20 12 -2.1515 5.1207
8 20 14 -7.1872 -2.1499
8 20 16 -3.3364 -3.8930
8 20 18 6.1073 0.6409
8 21 1 -9.0958 -3.8731
8 21 3 4.3064 -6.8198
8 21 5 3.5041 0.1008
8 21 7 3.5876 -0.1391
8 21 9 0.0559 -0.6439
8 21 11 1.1060 0.9084
8 21 13 5.6625 -0.7660
8 21 15 3.9793 1.7002
8 21 17 -0.4022 3.0250
8 22 0 1.2674 -4.3368
8 22 2 1.8544 -1.2607
8 22 4 -8.8791 1.2926
8 22 6 -0.9803 -3.3032
8 22 8 2.2536 -5.6569
8 22 10 -1.5241 -1.0214
8 22 12 -4.4939 -6.5445
8 22 14 -1.6272 -2.7431
8 22 16 -0.7208 -0.9606
8 23 1 4.3252 2.8983
8 23 3 4.9004 2.4321
8 23 5 1.5412 -1.8944
8 23 7 0.5337 -1.8684
8 23 9 0.6859 0.0006
8 23 11 6.9622 7.3175
8 23 13 2.8412 3.1630
8 23 15 1.1981 -4.0354
8 23 17 1.0104 -2.3587
8 24 0 -2.9259 -3.4021
8 24 2 2.0487 -5.2824
8 24 4 0.5900 2.8912
8 24 6 3.4316 6.2026
8 24 8 -0.6238 1.9062
8 24 10 -7.2173 4.8243
8 24 12 -7.8152 -0.6430
8 24 14 -4.3863 1.2276
8 24 16 -5.0343 0.0279
8 25 1 -4.1103 1.9546
8 25 3 -4.4183 1.8892
8 25 5 -2.9316 -1.3424
8 25 7 0.3570 -1.0672
8 25 9 2.7776 -1.0331
8 25 11 8.9151 -0.2384
8 25 13 2.1913 -1.1620
8 25 15 1.4991 -1.4783
8 26 0 7.3805 -3.1485
8 26 2 7.5686 1.4430
8 26 4 0.4252 -0.6769
8 26 6 1.2980 -2.2423
8 26 8 -0.5754 -1.5734
8 26 10 -6.6479 1.0829
8 26 12 -2.2129 1.1943
8 26 14 3.0787 1.6102
8 27 1 -6.1765 0.8134
8 27 3 0.7679 0.5913
8 27 7 -2.1571 3.1920
8 27 9 -1.6453 -0.3379
8 27 11 5.3579 -2.9003
8 27 13 0.5075 -1.8633
8 28 0 6.5558 -2.8647
8 28 2 6.0372 0.9187
8 28 4 -2.1221 -2.5874
8 28 6 0.8999 -5.1204
8 28 8 2.4305 3.9892
8 28 10 -4.1058 3.7319
8 28 12 -3.6387 2.5158
8 29 5 0.9952 6.3228
8 29 7 -4.8942 1.4623
8 29 9 -0.1224 -2.7640
9 0 0 97.4323 3.6166
9 0 2 30.4419 22.4605
9 0 4 33.3107 11.5736
9 0 6 -2.2930 -6.6140
9 0 8 10.6335 8.6098
9 0 10 9.3659 -10.0426
9 0 12 19.0514 15.0119
9 0 14 10.7679 6.1753
9 0 16 2.0177 10.6542
9 0 18 -5.7626 5.8878
9 0 20 -7.9475 -6.3901
9 0 22 -3.1811 -1.2691
9 0 24 -4.5649 -0.7052
9 0 26 -0.7715 -2.8600
9 1 1 -43.8519 -19.4457
9 1 3 -51.0290 0.7324
9 1 5 3.2255 16.3738
9 1 7 -9.8846 -4.3879
9 1 9 -5.4044 -2.4660
9 1 11 -10.2248 -6.5446
9 1 13 -3.7371 1.9963
9 1 15 3.0191 -3.2270
9 1 17 -0.5804 -8.6773
9 1 19 -1.1036 4.1414
9 1 21 0.1063 -2.5999
9 1 23 5.3984 -2.2839
9 1 25 6.2698 2.6838
9 1 27 2.3513 4.7341
9 2 0 71.9594 5.5278
9 2 2 17.1065 0.5813
9 2 4 16.8012 -17.8515
9 2 6 -4.2782 -15.0215
9 2 8 3.3550 14.0927
9 2 10 -5.6130 -7.5543
9 2 12 2.4793 5.5581
9 2 14 -8.5224 -4.5184
9 2 16 -6.6366 -3.1319
9 2 18 -0.1235 3.9636
9 2 20 -0.0313 3.3461
9 2 22 1.5793 1.0799
9 2 24 -2.1295 -0.0490
9 2 26 1.1265 0.2872
9 3 1 -6.8279 -7.9565
9 3 3 -2.3326 5.9713
9 3 5 24.7969 19.5017
9 3 7 5.0804 7.0964
9 3 9 8.5557 11.4188
9 3 11 -6.3788 7.9330
9 3 13 -4.3789 3.9658
9 3 15 9.7303 -1.3777
9 3 17 10.9830 -4.0632
9 3 19 0.4617 0.5906
9 3 21 -1.4396 -2.5958
9 3 23 -1.5818 3.1057
9 3 25 -1.5197 1.8734
9 3 27 0.1154 -1.5945
9 4 0 0.6825 5.8483
9 4 2 -6.9148 -3.4580
9 4 4 -2.5930 -9.3169
9 4 6 -17.6420 -0.9444
9 4 8 -0.4681 1.1957
9 4 10 2.1003 -16.8212
9 4 12 13.4303 -4.4527
9 4 14 4.0718 -3.3047
9 4 16 -1.6139 -0.6559
9 4 18 -9.5337 4.7631
9 4 20 -5.0045 2.5919
9 4 22 3.7977 -6.6699
9 4 24 -0.4135 -4.7178
9 4 26 3.8891 5.2952
9 4 28 -1.5964 2.9234
9 5 1 -10.1519 5.4933
9 5 3 -4.5284 14.9846
9 5 5 5.4544 3.6377
9 5 7 -9.9141 -5.4070
9 5 9 -1.9685 0.7224
9 5 11 -10.6535 6.5150
9 5 13 -16.1394 11.5700
9 5 15 -10.9767 7.6703
9 5 17 4.7291 -0.0174
9 5 19 -1.6661 0.2570
9 5 21 -2.6288 -4.1430
9 5 23 2.0526 0.2590
9 5 25 4.0958 0.6812
9 5 27 3.2879 -3.0509
9 6 0 12.9992 2.3658
9 6 2 13.7748 -17.8620
9 6 4 1.7224 -33.9308
9 6 6 -2.7761 -2.9830
9 6 8 19.5694 10.5583
9 6 10 16.2535 -0.1818
9 6 12 11.1040 -5.4301
9 6 14 6.7879 -12.0279
9 6 16 11.0465 -9.4745
9 6 18 0.0255 1.3261
9 6 20 3.3805 4.8910
9 6 22 5.2538 1.3812
9 6 24 -4.4681 1.3155
9 6 26 0.2208 3.8189
9 7 1 -17.9067 -7.7412
9 7 3 13.8137 13.7599
9 7 5 27.3778 13.2142
9 7 7 0.8120 12.1496
9 7 9 -5.9282 12.9139
9 7 11 -13.9718 7.7679
9 7 13 -11.7152 -0.3379
9 7 15 -8.5011 3.0719
9 7 17 5.2909 2.5163
9 7 19 -1.7910 1.9035
9 7 21 -3.9265 -3.4000
9 7 23 -2.0806 -2.5412
9 7 25 -3.1419 -1.4813
9 8 0 -9.4033 3.4894
9 8 2 -6.3361 -8.3747
9 8 4 -16.5298 -28.8394
9 8 6 -18.1440 -6.6754
9 8 8 1.9318 -5.1841
9 8 10 7.9000 -3.9151
9 8 12 -2.8619 2.1969
9 8 14 -5.3462 -1.1438
9 8 16 4.8714 -1.6385
9 8 18 -7.0009 -0.2685
9 8 20 0.0245 -2.5939
9 8 22 5.4377 -1.2895
9 8 24 2.6813 2.3291
9 8 26 5.4128 5.2214
9 9 1 13.7554 -1.0645
9 9 3 5.0205 29.4577
9 9 5 14.2749 10.0481
9 9 7 1.3629 -1.3523
9 9 9 1.2613 -7.9434
9 9 11 5.8761 -2.5182
9 9 13 7.9669 -4.8190
9 9 15 -4.0732 0.5890
9 9 17 6.2221 0.3604
9 9 19 1.9790 2.1657
9 9 21 -1.2425 0.6106
9 9 23 0.2961 -1.7194
9 9 25 -0.5494 -4.1791
9 9 27 0.1847 -3.6678
9 10 0 -10.2282 5.9973
9 10 2 -9.3321 -2.3089
9 10 4 -9.8669 -21.3937
9 10 6 0.4876 -3.9629
9 10 8 5.2469 5.6919
9 10 10 2.0011 10.5581
9 10 12 -8.7415 5.7883
9 10 14 -7.1419 0.4060
9 10 16 6.7479 5.4609
9 10 18 -3.5899 1.9831
9 10 20 1.0178 -2.4243
9 10 22 1.1427 -1.3825
9 10 24 -1.3443 3.9612
9 10 26 0.4872 3.9676
9 11 1 1.7188 -24.7951
9 11 3 -3.8702 -8.3290
9 11 5 5.3745 1.3836
9 11 7 -7.0542 4.4036
9 11 9 1.6766 -6.4274
9 11 11 5.5708 2.4140
9 11 13 6.4633 -5.6814
9 11 15 -7.7524 -2.4938
9 11 17 -3.2497 1.4270
9 11 19 -2.2840 -4.6874
9 11 21 2.3879 -4.3761
9 11 23 0.7570 -1.4783
9 11 25 -0.2232 -2.5096
9 12 0 1.3578 8.8221
9 12 2 -1.6854 13.7470
9 12 4 4.5368 -5.0522
9 12 6 16.9862 -6.4221
9 12 8 3.8598 -1.7520
9 12 10 0.6741 1.8136
9 12 12 -0.9553 2.7383
9 12 14 -3.0006 -3.0950
9 12 16 9.3010 -0.5673
9 12 18 2.8193 -0.1041
9 12 20 1.1598 1.9097
9 12 22 1.5641 0.0384
9 12 24 1.6696 4.2166
9 13 1 12.0864 -5.8424
9 13 3 -8.2257 16.6077
9 13 5 -4.3232 9.3655
9 13 7 -8.7305 -0.2432
9 13 9 -0.3627 -9.5688
9 13 11 -4.3931 2.2768
9 13 13 0.0200 4.7110
9 13 15 -7.0288 2.8093
9 13 17 -2.9129 6.8781
9 13 19 -1.8331 1.0754
9 13 21 -1.6571 0.7522
9 13 23 -6.2271 -0.2766
9 13 25 0.8153 -3.0755
9 14 0 -2.6735 8.8565
9 14 2 -7.8607 -4.3510
9 14 4 -5.8844 -7.9914
9 14 6 -3.2534 0.2274
9 14 8 -6.3971 4.3652
9 14 10 1.4972 -6.5246
9 14 12 2.1536 -9.1333
9 14 14 -1.9536 -7.5598
9 14 16 1.1175 1.9005
9 14 18 2.4868 -3.2043
9 14 20 5.8607 -6.7855
9 14 22 7.9234 -6.4224
9 14 24 3.4613 0.2375
9 15 1 3.4241 -10.6678
9 15 3 0.5968 -0.9353
9 15 5 4.2136 -5.4675
9 15 7 1.3001 -4.2629
9 15 9 6.7296 -2.8560
9 15 11 6.3594 3.6292
9 15 13 8.7308 11.6045
9 15 15 1.9503 2.4563
9 15 17 -0.3139 3.2714
9 15 19 -3.1359 -0.3813
9 15 21 -2.5138 -0.5012
9 15 23 -6.2684 2.5712
9 16 0 -7.0694 6.2259
9 16 2 -5.5717 -1.7827
9 16 4 5.4164 0.6055
9 16 6 7.3877 2.2142
9 16 8 5.7615 6.4923
9 16 10 0.7086 1.1660
9 16 12 -8.2796 -0.1637
9 16 14 -5.1935 -6.7583
9 16 16 -2.1262 -1.0544
9 16 18 2.4026 1.0258
9 16 20 -1.4547 3.1894
9 16 22 1.5795 1.3684
9 17 1 4.6073 -1.7980
9 17 3 2.6963 -0.0471
9 17 5 -3.5206 -5.2970
9 17 7 -3.9961 2.6859
9 17 9 -10.2002 0.1560
9 17 11 -4.1331 -10.3308
9 17 13 0.9894 -0.6136
9 17 15 -1.0346 1.6678
9 17 17 0.9180 3.1685
9 17 19 2.5659 0.8406
9 18 0 -1.3077 3.3568
9 18 2 0.7053 -1.4455
9 18 4 -3.3708 12.0685
9 18 6 -5.2329 3.9199
9 18 8 4.7322 -2.4175
9 18 10 5.6815 -2.4954
9 18 12 -3.7490 1.1215
9 18 14 0.4429 -0.5594
9 18 16 -2.1527 0.0862
9 18 18 3.6304 -4.5800
9 18 20 -3.9065 -4.8530
9 19 1 -1.1664 -0.2128
9 19 3 4.2593 -7.5888
9 19 5 -3.5892 -9.6713
9 19 7 1.8180 0.4096
9 19 9 -1.0913 1.3659
9 19 11 4.8870 -1.1967
9 19 13 2.8489 0.0500
9 19 15 -0.3493 -0.0575
9 19 17 2.7331 1.6818
9 20 0 -13.8426 1.7996
9 20 2 -3.3790 -9.8654
9 20 4 0.3874 3.5896
9 20 6 6.2632 1.9705
9 20 8 3.7757 4.5704
9 20 10 -0.3677 7.2064
9 20 12 -6.8011 2.1301
9 20 14 0.9512 -0.0284
9 20 16 -3.9231 1.8247
9 20 18 -0.4397 3.6021
9 21 1 7.0923 0.0075
9 21 3 5.1260 -3.0946
9 21 5 -0.6386 -5.4750
9 21 7 4.2116 -2.1810
9 21 9 -0.4808 -4.5816
9 21 11 -1.2841 -4.4353
9 21 13 1.0015 -7.6717
9 21 15 -1.2267 -5.4736
9 21 17 4.5880 -1.4823
9 22 0 -9.0915 2.4332
9 22 2 0.3001 -3.9673
9 22 4 -2.3341 8.4536
9 22 6 -1.6930 6.3427
9 22 8 -4.5498 3.5116
9 22 10 1.8089 6.6349
9 22 12 -5.6973 6.3073
9 22 14 -2.2718 5.5125
9 22 16 -3.3561 -1.3939
9 23 1 9.6385 -0.8058
9 23 3 -3.3073 3.4954
9 23 5 -3.5547 -1.7580
9 23 7 2.9782 -5.6720
9 23 9 2.7045 -6.1740
9 23 11 1.7739 -0.5567
9 23 13 3.8053 -3.7142
9 23 15 -3.2468 -1.3866
9 23 17 0.1629 4.9787
9 24 0 -11.7648 4.0351
9 24 2 -0.8732 -4.2668
9 24 4 -0.0055 0.0074
9 24 6 0.7461 -0.2168
9 24 8 -2.7870 1.0910
9 24 10 2.3997 3.2276
9 24 12 -1.9847 1.5102
9 24 14 3.5686 2.8063
9 24 16 2.5804 -2.1146
9 25 1 7.6365 -5.8064
9 25 3 1.0628 -5.2746
9 25 5 7.6324 0.5576
9 25 7 6.0808 4.0500
9 25 9 -3.5494 1.9939
9 25 11 -2.1864 1.8253
9 25 13 -0.0988 -2.6023
9 25 15 -4.0019 -4.5816
9 26 0 -7.0426 5.1989
9 26 2 0.0374 3.9959
9 26 4 -6.4442 7.7822
9 26 6 -6.8935 0.7585
9 26 8 -3.2608 -1.1431
9 26 10 3.0057 -2.8627
9 26 12 -0.4552 -2.8860
9 26 14 1.3191 3.2212
9 27 1 9.7811 0.9965
9 27 3 -0.1885 -1.8222
9 27 5 3.4130 -1.2669
9 27 7 5.6123 -1.4947
9 27 9 -0.8329 0.4357
9 27 11 0.7577 4.2641
9 28 2 3.7599 -1.4149
9 28 4 1.8614 4.1233
9 28 6 -3.1723 -1.8003
9 28 8 -4.9087 0.0753
9 29 5 1.3645 4.4179
9 29 7 2.6004 7.1577
10 0 0 52.8818 -22.1564
10 0 4 12.0710 0.5465
10 0 6 -3.3395 -3.9667
10 0 8 12.6489 -19.6805
10 0 10 -3.9253 -16.2215
10 0 12 3.3998 4.7303
10 0 14 8.4327 -16.0023
10 0 16 12.4126 -4.7796
10 0 18 18.9971 -2.1572
10 0 20 2.8295 0.2442
10 0 22 5.0564 2.6525
10 0 24 3.8241 3.4430
10 0 26 2.4423 4.7831
10 1 1 17.5961 21.5864
10 1 3 1.2082 23.3792
10 1 5 -3.8027 0.9262
10 1 7 1.5750 17.3574
10 1 9 -5.6042 21.4272
10 1 11 -3.1530 -4.7312
10 1 13 -0.9945 19.1913
10 1 15 -8.7554 6.0634
10 1 17 -12.7349 0.6057
10 1 19 -11.0350 -3.5412
10 1 21 -3.2728 -1.3213
10 1 23 -3.7251 -5.3024
10 1 25 2.1061 -0.8010
10 2 0 22.1366 -14.7602
10 2 2 -35.8210 -16.0630
10 2 4 21.1365 2.0911
10 2 6 -6.7177 -1.6537
10 2 8 5.2142 -26.2611
10 2 10 -3.4143 -18.3075
10 2 12 0.4288 5.0274
10 2 14 2.2647 -12.4809
10 2 16 8.1546 2.5741
10 2 18 8.6133 10.9131
10 2 20 -4.3122 4.7644
10 2 22 1.8740 0.2007
10 2 24 0.3098 2.2255
10 2 26 0.7947 4.7797
10 3 1 4.4534 13.7448
10 3 3 2.4671 2.5391
10 3 5 -3.9677 -1.7403
10 3 7 4.2624 16.4802
10 3 9 -4.8834 15.3172
10 3 11 5.7152 -11.0934
10 3 13 10.7260 6.7754
10 3 15 -0.6369 -3.0468
10 3 17 -3.8007 -6.4823
10 3 19 -6.6412 -4.2184
10 3 21 0.0816 -1.1042
10 3 23 -0.2858 -6.8842
10 3 25 4.9285 -1.3239
10 3 27 0.6275 -2.6127
10 4 0 29.3799 -5.4134
10 4 2 -5.2992 6.6319
10 4 4 12.2195 7.4490
10 4 6 -8.8978 4.8648
10 4 8 10.5842 -9.0361
10 4 10 -7.1207 0.4008
10 4 12 -16.6672 14.4850
10 4 14 -13.6383 6.7727
10 4 16 4.3206 4.3434
10 4 18 9.4783 0.8427
10 4 20 1.6533 -0.9975
10 4 22 -0.1806 2.5654
10 4 24 -1.7677 4.1724
10 4 26 0.3912 -0.2178
10 5 1 -11.3912 2.5879
10 5 3 -4.4033 -18.6226
10 5 5 -12.6886 -17.9291
10 5 7 5.1444 -1.0650
10 5 9 9.6829 3.2966
10 5 11 14.6316 -12.3611
10 5 13 9.6455 -8.6901
10 5 15 -0.5779 -10.8503
10 5 17 -1.5273 1.5615
10 5 19 -8.5085 3.4783
10 5 21 0.6921 0.1530
10 5 23 -1.3102 -4.6496
10 5 25 1.6520 3.7484
10 5 27 0.8289 5.4325
10 6 0 -7.1802 2.4639
10 6 2 4.0834 5.9507
10 6 4 30.7089 13.3401
10 6 6 -1.3050 26.2731
10 6 8 -1.1404 6.5640
10 6 10 -8.9187 6.2259
10 6 12 -6.4977 9.8807
10 6 14 -7.7411 4.6292
10 6 16 8.0534 0.9032
10 6 18 4.0385 6.9622
10 6 20 -3.0522 1.1187
10 6 22 -0.4077 -5.4109
10 6 24 2.7222 -1.6338
10 6 26 -0.6226 -2.8694
10 7 1 -6.3183 -0.9108
10 7 3 -8.1751 -15.1811
10 7 5 -11.8296 -23.8312
10 7 7 1.9352 -7.7120
10 7 9 1.7527 -6.0428
10 7 11 -2.2046 -11.5273
10 7 13 1.3220 -4.8096
10 7 15 0.3913 -3.6293
10 7 17 3.8086 -1.8955
10 7 19 -1.5215 -7.2259
10 7 21 4.0557 4.5692
10 7 23 -2.6799 2.5034
10 7 25 0.1274 0.0157
10 8 0 14.0369 -0.1973
10 8 2 7.7171 13.5252
10 8 4 4.0551 8.8073
10 8 6 -9.0795 10.8301
10 8 8 8.0310 -4.6798
10 8 10 7.1702 4.8417
10 8 12 3.5416 8.2392
10 8 14 -14.3744 7.6724
10 8 16 -2.8542 4.3296
10 8 18 0.2536 5.9093
10 8 20 0.1514 0.4238
10 8 22 -2.2335 -4.4499
10 8 24 2.1575 0.0669
10 8 26 0.3930 0.8450
10 9 1 -6.3470 -3.7813
10 9 3 -1.0161 -7.3884
10 9 5 1.8450 -10.7340
10 9 7 6.3403 2.8283
10 9 9 8.8209 2.6296
10 9 11 1.5163 0.5661
10 9 13 2.9929 -10.2753
10 9 15 3.3456 -10.1413
10 9 17 5.4678 4.9735
10 9 19 -5.9581 -4.9565
10 9 21 3.4661 0.8746
10 9 23 0.6965 0.0343
10 9 25 -3.9028 1.6823
10 10 0 -8.5997 -5.5974
10 10 2 -11.4926 -5.2275
10 10 4 -0.7212 -6.3805
10 10 6 0.1853 10.3019
10 10 8 -6.2065 -1.4327
10 10 10 -6.0754 3.9407
10 10 12 4.6929 5.3389
10 10 14 -5.7598 3.5902
10 10 16 1.8315 0.0679
10 10 18 0.1215 0.5535
10 10 20 -0.1999 0.0958
10 10 22 -2.4890 -2.5228
10 10 24 5.1696 -3.5424
10 10 26 3.8492 -0.6899
10 11 1 10.4446 12.5202
10 11 3 1.8860 9.5141
10 11 5 1.9671 -4.6059
10 11 7 2.9006 -9.2665
10 11 9 -1.7545 -9.9550
10 11 11 -6.1063 -2.1822
10 11 13 -0.3858 -2.5960
10 11 15 -3.1403 -0.7920
10 11 17 4.6902 9.5254
10 11 19 -0.6362 -2.2957
10 11 21 4.4961 6.0253
10 11 23 -2.9864 2.3590
10 11 25 -5.4698 2.6629
10 12 0 24.3554 -11.0470
10 12 2 6.9820 0.6243
10 12 4 -9.7457 7.1643
10 12 6 -4.6226 11.7454
10 12 8 2.9150 -5.8597
10 12 10 11.7521 -1.5316
10 12 12 7.3058 -0.8904
10 12 14 -5.9813 -1.4028
10 12 16 -1.0182 1.4476
10 12 18 -2.5495 -1.8575
10 12 20 0.7090 -7.6617
10 12 22 -0.0804 -4.2859
10 12 24 3.9535 -1.2835
10 13 1 -25.9873 7.5786
10 13 3 -13.0712 -13.5716
10 13 5 3.0954 -12.6188
10 13 7 0.1343 -4.6600
10 13 9 -7.2667 1.7319
10 13 11 -1.0987 5.5480
10 13 13 6.9604 5.2234
10 13 15 -0.7411 -5.1572
10 13 17 2.1564 4.3368
10 13 19 -0.8146 -1.2057
10 13 21 5.8049 3.8164
10 13 23 -1.5240 -0.8758
10 13 25 -1.7914 1.2062
10 14 0 23.1639 -11.5794
10 14 2 10.0258 5.5357
10 14 4 -0.6923 9.8294
10 14 6 6.0145 7.4781
10 14 8 5.0392 -0.6713
10 14 10 3.8512 -1.2011
10 14 12 1.6063 -3.2252
10 14 14 -3.4075 -3.4789
10 14 16 -0.8307 0.2474
10 14 18 -1.3757 1.6702
10 14 20 -4.1523 0.2076
10 14 22 -5.6496 -0.1100
10 14 24 1.2534 -1.4704
10 15 1 -4.7669 4.8567
10 15 3 4.7170 -10.6674
10 15 5 1.8342 0.1643
10 15 7 -4.7014 -0.8622
10 15 9 -5.5843 -3.3333
10 15 11 -5.3964 -4.1277
10 15 13 -1.2775 6.1209
10 15 15 0.5703 -0.6811
10 15 17 2.5628 7.5156
10 15 19 2.5811 0.4313
10 15 21 9.8090 0.7362
10 15 23 0.9346 -0.0824
10 16 0 3.0590 -7.1915
10 16 2 -4.7272 7.2394
10 16 4 -8.0625 1.5309
10 16 6 -2.5058 -1.8045
10 16 8 -0.0532 1.2412
10 16 10 -2.5639 -2.5702
10 16 12 4.0335 -5.7986
10 16 14 0.0433 -4.4370
10 16 16 -3.0572 -1.4228
10 16 18 0.2342 -5.6941
10 16 20 -1.4564 -5.0746
10 16 22 -2.8196 -1.3044
10 17 1 -0.9319 2.5050
10 17 3 7.7506 -3.8736
10 17 5 -1.0536 4.7127
10 17 7 3.0116 0.3309
10 17 9 5.6671 -1.3864
10 17 11 0.8406 0.4948
10 17 13 -0.9873 10.1310
10 17 15 -0.1344 -0.3278
10 17 17 1.1141 3.1256
10 17 19 0.2969 2.6509
10 17 21 1.8915 0.7997
10 18 0 -3.2410 -1.8203
10 18 2 -4.1027 -0.2201
10 18 4 -2.9290 -9.6659
10 18 6 -3.3331 -3.1602
10 18 8 1.6582 4.4724
10 18 10 -0.4169 -0.7966
10 18 12 5.3156 -8.2773
10 18 14 1.1229 -8.2783
10 18 16 -0.5840 -0.3037
10 18 18 2.5682 0.7102
10 19 1 2.6017 -2.3828
10 19 3 14.4862 -1.6579
10 19 5 2.4744 7.9381
10 19 7 5.8686 5.0136
10 19 9 -2.1870 3.2749
10 19 11 -9.5409 6.4579
10 19 13 -5.5034 7.9591
10 19 15 -3.7949 2.0228
10 19 17 -3.5422 2.1425
10 20 0 -14.3055 0.8754
10 20 2 -11.0586 -0.5223
10 20 4 -5.2373 -7.2845
10 20 6 -5.5565 -1.5815
10 20 8 0.3653 -2.2610
10 20 10 -0.1194 -4.2438
10 20 12 2.2470 -9.5838
10 20 14 2.4375 -4.2815
10 20 16 3.3783 0.0175
10 21 1 13.7997 2.2033
10 21 3 8.4218 5.6189
10 21 5 -4.1685 3.4842
10 21 7 6.1858 0.0704
10 21 9 3.6804 -3.7680
10 21 11 1.7030 4.2305
10 21 13 -0.8182 2.5781
10 21 15 -4.4746 -3.0644
10 21 17 -0.6133 -0.4677
10 22 0 -6.5114 -0.9100
10 22 2 -4.7926 -5.3935
10 22 4 -1.2696 -6.3437
10 22 6 -5.7116 0.3175
10 22 8 -1.3838 -1.0029
10 22 10 -0.6668 7.6211
10 22 12 0.7945 0.5730
10 22 14 1.4295 2.4729
10 22 16 -1.3052 1.8085
10 23 1 -0.3606 -2.7328
10 23 3 6.0304 -0.1223
10 23 5 4.5992 6.0399
10 23 7 6.3908 7.6017
10 23 9 -1.6262 -2.9674
10 23 11 -2.5605 -0.2739
10 23 13 -4.5055 -2.1211
10 23 15 -1.8815 -3.0015
10 24 0 2.9112 -4.4328
10 24 2 -3.1902 1.1353
10 24 4 -4.4086 -4.8970
10 24 6 -2.4182 -1.6816
10 24 8 3.5307 -3.4908
10 24 10 1.0821 3.8617
10 24 12 4.7840 -1.2451
10 24 14 2.1076 1.1574
10 24 16 -2.7274 -0.7677
10 25 1 1.0910 2.2162
10 25 3 -0.9238 3.9880
10 25 5 -3.9195 5.7837
10 25 7 -1.3141 0.6425
10 25 9 -2.5683 -7.1197
10 25 11 0.8977 -2.2926
10 25 13 -3.1261 1.9035
10 25 15 1.0356 2.0653
10 26 0 6.9875 -6.5236
10 26 2 6.3699 -2.0637
10 26 4 5.6214 -7.7745
10 26 6 3.3402 -1.7128
10 26 8 3.0985 2.3491
10 26 10 -4.3326 7.6875
10 26 12 -0.2898 4.1003
10 26 14 -0.3606 -0.1095
10 27 1 -3.5418 3.3228
10 27 3 -3.6867 2.3964
10 27 5 -4.8438 9.6251
10 27 7 -3.8767 3.9379
10 27 9 -0.4747 -4.3572
10 27 11 5.0240 -7.7547
10 28 2 1.4378 -0.2815
10 28 4 2.9431 -2.6850
10 28 6 4.6248 -0.9746
10 28 8 3.9862 2.8133
10 29 7 -2.9082 -3.0612
11 0 0 74.3955 4.4818
11 0 2 2.8073 36.6688
11 0 4 10.5117 15.3889
11 0 6 7.0635 -8.6232
11 0 8 1.5911 10.3981
11 0 10 -14.4574 -11.5276
11 0 12 -10.1195 8.3971
11 0 14 -16.6853 -4.7642
11 0 16 -16.8559 0.7279
11 0 18 -9.5094 6.6025
11 0 20 -6.0143 -2.8250
11 0 22 -0.8853 -1.3085
11 0 24 -0.1008 -3.4710
11 1 1 -18.6763 -23.0432
11 1 3 -22.9646 -11.6813
11 1 5 0.4853 5.1800
11 1 7 -0.5443 -11.9921
11 1 9 10.3647 -5.7852
11 1 11 2.9734 -2.5898
11 1 13 7.5948 3.8913
11 1 15 11.3386 -0.9915
11 1 17 9.5250 -9.0577
11 1 19 6.7209 4.1993
11 1 21 -2.4057 3.0453
11 1 23 -0.0602 6.2514
11 1 25 3.3734 1.9991
11 2 0 56.5499 5.1089
11 2 2 9.4133 12.3382
11 2 4 17.2610 12.5646
11 2 6 4.6985 13.0641
11 2 8 -3.5843 23.3395
11 2 10 -9.9323 -9.7217
11 2 12 4.8518 6.2287
11 2 14 4.3437 3.4086
11 2 16 0.4495 6.2520
11 2 18 -2.6073 2.4503
11 2 20 -4.4731 -8.3626
11 2 22 0.6436 -6.3445
11 2 24 1.7091 -6.0400
11 2 26 2.2141 -1.2276
11 3 1 -14.4489 2.8103
11 3 3 -26.0072 10.1349
11 3 5 -17.8524 5.1270
11 3 7 -10.9449 -17.9651
11 3 9 6.9898 -13.1673
11 3 11 -3.4469 -3.2953
11 3 13 -5.7030 5.4905
11 3 15 -5.8130 4.4381
11 3 17 -0.0826 -0.7190
11 3 19 -0.8739 3.9430
11 3 21 -3.8136 -0.0513
11 3 23 -1.2359 2.3878
11 3 25 3.1582 1.8864
11 4 0 20.9475 3.2346
11 4 2 5.3411 -0.3211
11 4 4 9.3861 -15.3341
11 4 6 7.8173 -10.8557
11 4 8 8.8357 8.1677
11 4 10 2.4640 -7.0755
11 4 12 9.1227 1.2172
11 4 14 1.1351 -6.5533
11 4 16 0.4815 -7.1985
11 4 18 -0.6894 4.5650
11 4 20 -2.0159 5.2050
11 4 22 3.5880 0.1696
11 4 24 0.6931 1.3420
11 4 26 2.3608 4.0174
11 5 1 4.4534 0.2556
11 5 3 17.1564 8.0764
11 5 5 16.3611 23.6715
11 5 7 6.0644 15.2977
11 5 9 8.6549 9.2649
11 5 11 -11.6275 5.3695
11 5 13 -10.7373 -0.3636
11 5 15 -1.0376 0.2783
11 5 17 11.3305 -1.3332
11 5 19 1.9608 -4.4143
11 5 21 -4.5258 -2.9481
11 5 23 -6.1468 0.2574
11 5 25 -1.9527 -5.5512
11 6 0 -30.8990 -1.9677
11 6 2 -20.6287 -13.2719
11 6 4 -18.6226 -28.1210
11 6 6 -20.5945 -12.7554
11 6 8 -9.5755 -1.6094
11 6 10 -5.2382 -11.1881
11 6 12 3.4009 2.3815
11 6 14 -1.1160 5.5527
11 6 16 0.8065 -0.6964
11 6 18 -0.6517 3.4463
11 6 20 2.3670 3.6928
11 6 22 5.5300 -0.7412
11 6 24 1.0577 1.0408
11 6 26 5.0281 7.2709
11 7 1 41.1553 14.9289
11 7 3 15.5623 34.2059
11 7 5 4.0642 18.9066
11 7 7 3.0382 -0.6259
11 7 9 15.1790 -5.1497
11 7 11 10.8380 -2.0326
11 7 13 3.0011 -3.9860
11 7 15 -9.7471 2.8638
11 7 17 -0.3643 6.5176
11 7 19 -7.2123 0.2725
11 7 21 -7.4566 -4.1027
11 7 23 -0.1433 -1.7553
11 7 25 2.5258 -0.8664
11 8 0 -39.3932 0.4850
11 8 2 -17.0347 -8.1919
11 8 4 -6.2049 -20.2115
11 8 6 -3.7898 -1.8227
11 8 8 3.0299 4.1941
11 8 10 -1.5612 -1.7498
11 8 12 -2.4850 -0.1827
11 8 14 3.2084 -3.7017
11 8 16 12.0162 -4.5944
11 8 18 1.2127 0.6252
11 8 20 3.6820 1.8968
11 8 22 2.6970 2.1103
11 8 24 -3.6016 -0.8776
11 9 1 11.0090 -12.7131
11 9 3 -3.4172 -3.7750
11 9 5 6.9006 -4.5020
11 9 7 3.2012 -3.9639
11 9 9 0.0491 3.4991
11 9 11 -4.2595 10.8837
11 9 13 -5.6358 -0.9776
11 9 15 -11.2683 0.8462
11 9 17 5.9006 3.1855
11 9 19 2.6572 -1.4039
11 9 21 -2.0367 -0.0447
11 9 23 -1.6530 0.4616
11 9 25 -0.9518 -0.6438
11 10 0 -2.6477 5.5539
11 10 2 7.0823 10.9083
11 10 4 0.6521 4.8290
11 10 6 -3.6162 9.4844
11 10 8 -2.5185 -3.3283
11 10 10 6.8785 -8.0992
11 10 12 6.4945 0.5927
11 10 14 -0.7292 2.2190
11 10 16 2.8397 2.5924
11 10 18 -8.6120 1.2174
11 10 20 -0.8494 -1.4875
11 10 22 1.9503 0.2392
11 10 24 0.3505 3.1393
11 11 1 21.4921 -9.2702
11 11 3 -11.9370 5.9011
11 11 5 3.4272 -0.9797
11 11 7 4.7635 -4.7787
11 11 9 -0.6416 -4.0738
11 11 11 0.1029 0.4830
11 11 13 2.7885 -6.2292
11 11 15 -8.1467 -5.1833
11 11 17 3.6329 -0.7050
11 11 19 1.5128 -0.6903
11 11 21 0.0723 1.7148
11 11 23 -0.6591 -2.9525
11 11 25 1.3073 -5.5790
11 12 0 -22.2196 11.1095
11 12 2 -15.9380 9.7195
11 12 4 -14.4414 2.2164
11 12 6 -8.9243 0.4808
11 12 8 -10.7155 -4.8237
11 12 10 -0.6632 -1.6356
11 12 12 3.2420 0.0680
11 12 14 4.8683 -0.1335
11 12 16 9.1692 8.0077
11 12 18 -2.8005 4.1353
11 12 20 3.1815 -0.5079
11 12 22 -0.6858 0.4072
11 12 24 -3.1531 3.5063
11 13 1 25.6945 -18.0525
11 13 3 0.5715 -2.5928
11 13 5 9.2127 1.3152
11 13 7 6.7944 -1.7274
11 13 9 6.5343 0.5357
11 13 11 2.9715 6.2870
11 13 13 0.5793 4.4113
11 13 15 -7.8281 -4.6488
11 13 17 -1.7421 -0.5644
11 13 19 -4.7277 0.1166
11 13 21 1.9333 0.3326
11 13 23 1.3777 -0.2967
11 14 0 -10.2385 11.2275
11 14 2 -7.0765 2.1372
11 14 4 5.8830 -6.3548
11 14 6 9.6542 -1.3604
11 14 8 -2.9843 -1.3706
11 14 10 -0.8874 -4.7692
11 14 12 -0.3763 0.2932
11 14 14 -0.8662 -1.4018
11 14 16 3.4594 0.0942
11 14 18 1.7732 -1.9630
11 14 20 2.7447 -2.4737
11 14 22 -1.8771 -1.6608
11 14 24 -0.3208 1.1837
11 15 1 5.1174 -9.0610
11 15 3 -11.2824 5.6126
11 15 5 -6.4095 2.4564
11 15 7 -5.5002 0.5812
11 15 9 -7.7484 1.9772
11 15 11 -5.2028 -6.4355
11 15 13 0.5428 -0.4803
11 15 15 -3.0909 -2.5229
11 15 17 -2.1936 0.3358
11 15 19 0.7146 3.4015
11 15 21 5.4118 5.0977
11 15 23 -3.7754 0.8414
11 16 0 9.1571 6.5718
11 16 2 4.7808 9.4045
11 16 4 2.4629 9.2075
11 16 6 -4.5380 6.0861
11 16 8 0.4244 0.5290
11 16 10 6.3564 -3.1530
11 16 12 5.0656 2.0515
11 16 14 5.7224 -2.3488
11 16 16 1.3141 0.2461
11 16 18 -0.4812 1.2723
11 16 20 -2.5078 -2.8768
11 17 1 -1.3721 -6.9086
11 17 3 -1.3161 -10.3062
11 17 5 -0.9411 -12.0998
11 17 7 2.8911 -4.8308
11 17 9 0.3170 1.1260
11 17 11 0.6337 -3.9583
11 17 13 -2.0927 1.6645
11 17 15 -0.1966 0.7250
11 17 17 -0.6352 1.0147
11 17 19 -1.2664 1.4591
11 18 0 -11.9532 1.2596
11 18 2 -4.7279 -1.6390
11 18 4 5.0850 3.8639
11 18 6 4.1483 6.7553
11 18 8 1.3112 6.8190
11 18 10 -6.5962 2.8709
11 18 12 -6.3269 4.2481
11 18 14 -0.4415 0.1421
11 18 16 -4.3887 -1.8655
11 18 18 2.6176 -0.7399
11 19 1 4.4343 2.6963
11 19 3 3.7321 -6.8164
11 19 5 -3.8952 -8.4240
11 19 7 1.2194 -2.1581
11 19 9 3.3056 -3.0040
11 19 11 4.9780 -7.2800
11 19 13 2.3882 -4.7305
11 19 15 2.5399 -0.5346
11 19 17 2.8355 -0.6671
11 20 0 1.2251 -1.1211
11 20 2 5.5625 2.1876
11 20 4 -2.0171 11.6344
11 20 6 -5.5712 7.4352
11 20 8 -3.2699 2.9981
11 20 10 -1.0489 4.2580
11 20 12 -3.5088 4.0272
11 20 14 -1.9030 -0.5306
11 20 16 -7.1425 -3.3044
11 21 1 1.0074 0.6985
11 21 3 1.3349 -7.5436
11 21 5 0.1074 -6.1853
11 21 7 2.1918 -1.4694
11 21 9 2.1504 -2.5091
11 21 11 -1.6344 -0.8314
11 21 13 1.5455 -1.0051
11 21 15 0.2014 3.9969
11 22 0 -13.6535 0.7758
11 22 2 -4.8992 -1.1607
11 22 4 -3.8280 5.6029
11 22 6 0.2605 5.7035
11 22 8 0.7588 0.1253
11 22 10 6.0152 -0.8822
11 22 12 -0.1794 -1.9396
11 22 14 1.5282 -0.7720
11 22 16 -2.0623 -3.3273
11 23 1 10.6984 -3.7224
11 23 3 1.2014 -6.7308
11 23 5 3.2848 -6.2852
11 23 7 2.7011 -1.9156
11 23 9 -0.1464 1.3479
11 23 11 -2.5916 5.9749
11 23 13 1.5839 2.5281
11 23 15 -5.8255 -1.8969
11 24 0 -5.1108 4.5264
11 24 2 2.0905 -2.6086
11 24 4 0.6725 2.0951
11 24 6 -2.2093 5.1056
11 24 8 -4.2278 -1.0388
11 24 10 0.2354 -2.3203
11 24 12 -5.1171 -2.9864
11 24 14 1.4507 2.2699
11 25 1 8.4362 -0.0984
11 25 3 -6.4742 4.4554
11 25 5 -2.2662 4.2125
11 25 7 2.3598 2.6058
11 25 9 1.7922 -0.6383
11 25 11 4.1407 -0.3753
11 25 13 3.3809 0.5318
11 26 0 -11.1648 6.7574
11 26 2 -1.5424 -4.7695
11 26 4 2.5929 -1.1939
11 26 6 0.6921 0.3244
11 26 8 0.4760 -2.9320
11 26 10 3.2638 -1.7048
11 26 12 0.1417 -0.4007
11 27 1 6.3497 -0.5089
11 27 3 -3.9632 -0.9882
11 27 5 -0.3419 0.0013
11 27 7 1.0352 3.7691
11 27 11 -3.5640 0.1879
11 28 2 3.8683 -3.2021
11 28 4 2.3277 -2.3627
11 28 6 1.2048 -4.5764
12 0 0 24.2340 -18.7999
12 0 2 -33.8585 -20.8190
12 0 4 9.9792 -0.8046
12 0 6 -2.8098 -1.1116
12 0 8 5.3990 -9.6810
12 0 10 -5.8366 -9.3757
12 0 12 -1.1727 11.3899
12 0 14 5.0175 -4.8337
12 0 16 6.1855 2.8655
12 0 18 10.4213 3.8244
12 0 20 -5.9612 5.3479
12 0 22 -2.1414 4.1128
12 0 24 2.7766 -1.2972
12 1 1 11.6073 23.1339
12 1 3 -7.7206 18.5006
12 1 5 -3.5588 -0.5757
12 1 7 3.0511 7.5518
12 1 9 -4.0909 13.0231
12 1 11 -2.2146 -7.6747
12 1 13 4.8757 8.3301
12 1 15 -4.5654 -0.1563
12 1 17 -5.0744 2.9168
12 1 19 -3.8187 -6.3506
12 1 21 2.0620 -1.4302
12 1 23 0.9234 -4.2214
12 1 25 2.6304 2.3590
12 2 0 39.4678 -12.7446
12 2 2 -9.8901 1.7295
12 2 4 12.7120 12.3986
12 2 6 -4.1681 -2.0415
12 2 8 12.1703 -18.7931
12 2 10 2.9419 -14.8134
12 2 12 -0.0904 6.0476
12 2 14 -1.9689 -5.3351
12 2 16 -0.8284 -2.7782
12 2 18 6.1107 -2.7502
12 2 20 -5.6161 1.0037
12 2 22 -4.3353 3.8473
12 2 24 -0.1724 2.8135
12 3 1 5.1612 12.7827
12 3 3 -4.7376 -2.1086
12 3 5 -4.4804 -5.3604
12 3 7 5.9525 9.9613
12 3 9 -4.2615 16.6535
12 3 11 -3.1833 -2.8493
12 3 13 1.0908 5.9335
12 3 15 -6.3281 -0.8048
12 3 17 -0.6843 4.5317
12 3 19 -2.5075 -0.1894
12 3 21 1.8939 2.8062
12 3 23 0.9055 -1.2126
12 3 25 4.1806 2.9023
12 4 0 -0.9135 -4.6836
12 4 2 -8.4888 -2.3509
12 4 4 15.1485 6.3186
12 4 6 -6.7340 11.7426
12 4 8 1.7464 -4.9423
12 4 10 -3.2313 -6.2264
12 4 12 -1.7279 5.2122
12 4 14 0.3290 0.3815
12 4 16 6.9302 -1.2741
12 4 18 6.8845 0.9026
12 4 20 -2.5200 -0.0271
12 4 22 -2.7875 -2.3229
12 4 24 -0.0759 -4.2889
12 4 26 -1.1763 -4.3130
12 5 1 -2.1422 11.1552
12 5 3 -9.3038 -5.1135
12 5 5 -13.6357 -17.7869
12 5 7 6.2172 -8.8135
12 5 9 2.6832 2.8391
12 5 11 3.7978 -8.4402
12 5 13 8.5931 -3.6682
12 5 15 -0.3519 -3.5206
12 5 17 1.7142 4.5591
12 5 19 -4.9719 -1.0569
12 5 21 0.4663 0.3708
12 5 23 -0.0153 1.4626
12 5 25 3.9029 4.9118
12 6 0 16.4751 1.7751
12 6 2 14.4309 13.4217
12 6 4 13.5102 15.9331
12 6 6 -6.3684 19.1695
12 6 8 8.5207 -0.3439
12 6 10 1.9744 1.1237
12 6 12 -8.2780 8.6092
12 6 14 -17.4305 8.3924
12 6 16 -5.6055 2.1505
12 6 18 0.6792 1.1926
12 6 20 -1.3178 1.1320
12 6 22 -4.2775 1.4432
12 6 24 0.8455 -0.2861
12 7 1 -12.0089 -2.8543
12 7 3 -3.7244 -15.6070
12 7 5 -5.3704 -19.4529
12 7 7 2.0166 -2.7104
12 7 9 0.8827 2.3997
12 7 11 5.2761 -7.0035
12 7 13 10.9215 -6.6037
12 7 15 2.6878 -10.1707
12 7 17 8.6614 -0.2486
12 7 19 -0.2078 -1.8053
12 7 21 0.7041 -0.8396
12 7 23 -1.2643 -1.7038
12 8 0 -0.2801 -0.8269
12 8 2 -1.9510 4.9500
12 8 4 3.0327 4.1670
12 8 6 -4.2630 11.6240
12 8 8 1.8201 -1.5616
12 8 10 -2.4653 5.3146
12 8 12 0.2451 6.7333
12 8 14 -3.4341 3.5647
12 8 16 4.8478 5.0083
12 8 18 0.2131 4.2334
12 8 20 -0.5919 0.8869
12 8 22 -1.5469 2.1473
12 8 24 1.1477 0.1220
12 9 1 11.0080 5.2008
12 9 3 8.1025 9.6828
12 9 5 -0.4769 -3.7363
12 9 7 2.8359 -3.7882
12 9 9 1.1643 -5.3027
12 9 11 -3.2663 -7.7409
12 9 13 0.3654 -3.7737
12 9 15 -7.9704 -1.8075
12 9 17 -1.2214 4.3730
12 9 19 -5.4735 -4.7775
12 9 21 -1.3525 0.6078
12 9 23 -1.8297 0.5846
12 9 25 2.1568 0.2522
12 10 0 10.7489 -5.3324
12 10 2 -10.5889 0.3998
12 10 4 -15.5149 -2.7732
12 10 6 -5.4051 5.9001
12 10 8 -0.3294 -3.4613
12 10 10 0.8497 2.5806
12 10 12 2.4367 1.9865
12 10 14 -6.7687 -3.8078
12 10 16 4.4677 -1.3236
12 10 18 6.2808 2.7292
12 10 20 3.7175 3.4918
12 10 22 -1.0882 1.0164
12 10 24 1.0068 -2.8023
12 11 1 -6.4686 2.9952
12 11 3 4.1410 2.8040
12 11 5 2.1926 -3.0990
12 11 7 -0.2810 -5.6394
12 11 9 2.8304 -3.4643
12 11 11 9.1561 3.6009
12 11 13 14.3024 3.8341
12 11 15 3.0447 -0.3999
12 11 17 1.3824 5.6378
12 11 19 -5.7580 -7.2632
12 11 21 2.6818 -0.0817
12 11 23 -1.3225 1.7740
12 12 0 23.5350 -9.5597
12 12 2 -1.7678 -0.5378
12 12 4 -4.5901 0.2228
12 12 6 10.7962 5.9355
12 12 8 0.1758 -1.2744
12 12 10 -6.3224 1.4704
12 12 12 -4.0743 1.2122
12 12 14 -6.8459 -0.4095
12 12 16 -2.4706 -1.7163
12 12 18 -4.3450 0.0777
12 12 20 -5.4357 1.1504
12 12 22 -4.3327 -0.7033
12 12 24 1.3867 -2.5960
12 13 1 -4.0580 4.4870
12 13 3 4.8874 -1.7231
12 13 5 0.5720 -0.6678
12 13 7 -4.4984 -1.2767
12 13 9 -4.3175 -2.3893
12 13 11 -1.5538 -2.4219
12 13 13 -0.7706 -1.9866
12 13 15 -1.0690 -5.8325
12 13 17 7.6708 6.1217
12 13 19 6.6515 0.7941
12 13 21 9.8530 7.5062
12 13 23 -2.4310 2.4329
12 14 0 22.4452 -9.5632
12 14 2 -4.5125 7.8730
12 14 4 -11.1658 9.0466
12 14 6 1.0708 2.9012
12 14 8 -2.4692 -5.1664
12 14 10 -2.9441 -4.8828
12 14 12 3.7535 -3.3508
12 14 14 4.2553 0.5294
12 14 16 -1.8501 -1.4627
12 14 18 -5.1167 -3.1077
12 14 20 -3.8712 -5.2252
12 14 22 -2.1142 -4.3826
12 15 1 -9.6619 5.2048
12 15 3 1.5316 -4.2583
12 15 5 -2.8908 -2.2808
12 15 7 -3.2062 2.2323
12 15 9 1.3809 4.0054
12 15 11 6.6913 5.3967
12 15 13 1.6857 8.1778
12 15 15 0.7814 -4.8529
12 15 17 2.1984 3.5823
12 15 19 -3.2257 4.0484
12 15 21 3.7178 4.3407
12 16 0 7.9331 -5.9267
12 16 2 -3.1309 -6.6553
12 16 4 6.3640 -7.3257
12 16 6 12.0184 -1.7905
12 16 8 7.2638 -0.6378
12 16 10 -3.6481 -4.0541
12 16 12 -1.3338 -5.8233
12 16 14 2.5030 -0.5026
12 16 16 -2.0636 0.1315
12 16 18 0.8072 -4.2925
12 16 20 2.9630 -3.0292
12 17 1 1.3723 7.0054
12 17 3 6.0642 4.1581
12 17 5 -8.9145 2.6646
12 17 7 -6.8216 3.5146
12 17 9 -7.4125 1.9230
12 17 11 -2.3089 0.5352
12 17 13 -2.4435 5.7401
12 17 15 -1.9504 -1.4023
12 17 17 -0.3256 1.6887
12 17 19 -1.5264 4.6689
12 18 0 0.4153 -1.5863
12 18 2 -3.9340 0.1652
12 18 4 3.7132 -5.0178
12 18 6 -0.9564 1.6380
12 18 8 3.4784 -0.3205
12 18 10 0.0797 -1.5542
12 18 12 -1.8369 -3.4988
12 18 14 0.3107 -5.6655
12 18 16 0.4647 -4.1915
12 18 18 -0.8380 -4.4204
12 19 1 1.6777 3.1247
12 19 3 4.4607 4.0271
12 19 5 -6.8833 3.3907
12 19 7 4.0492 4.8355
12 19 9 -0.9931 1.1617
12 19 11 0.8813 -1.1038
12 19 13 2.1799 1.3877
12 19 15 -1.2252 4.3257
12 19 17 -0.4796 4.7915
12 20 0 -5.7644 0.2660
12 20 2 -7.0787 -1.9826
12 20 4 0.8372 -12.7088
12 20 6 -5.1254 -3.4344
12 20 8 2.3897 -3.9585
12 20 10 4.4098 0.0818
12 20 12 3.2743 -1.2154
12 20 14 2.8020 0.1215
12 20 16 0.9873 -2.7696
12 21 1 4.2717 -2.2679
12 21 3 9.6325 4.0393
12 21 5 -0.3359 7.9052
12 21 7 3.8727 5.6439
12 21 9 -2.0002 -0.9559
12 21 11 -1.3387 5.4611
12 21 13 -4.2094 2.3654
12 21 15 -5.3508 1.0056
12 22 0 1.4413 -1.3415
12 22 2 -3.1166 -2.4270
12 22 4 1.8314 -13.4119
12 22 6 -4.2708 -1.4366
12 22 8 -0.8839 -0.2243
12 22 10 -3.3035 5.3957
12 22 12 -3.1150 -3.3464
12 22 14 -0.8191 -0.4053
12 23 1 0.6358 0.1072
12 23 3 -2.1274 7.1069
12 23 5 -2.9753 6.6906
12 23 7 6.5210 2.4227
12 23 9 3.3914 -9.1109
12 23 11 7.4364 -5.3312
12 23 13 2.9433 -3.2469
12 23 15 -0.5890 2.0727
12 24 0 2.9387 -4.1980
12 24 2 -1.1380 1.7349
12 24 4 0.8726 -4.1245
12 24 6 -6.7782 5.6613
12 24 8 -1.3006 0.1370
12 24 10 -0.9564 6.0633
12 24 12 1.4117 1.9234
12 24 14 -1.6286 4.6832
12 25 1 -2.7835 -3.0976
12 25 3 0.8217 -3.7305
12 25 5 2.4081 -0.8463
12 25 7 3.0840 -1.6428
12 25 9 -4.5002 -2.6875
12 25 11 -0.1765 2.4509
12 26 0 10.9156 -5.4646
12 26 2 4.4968 1.3400
12 26 4 0.7687 -6.3930
12 26 6 -0.2326 4.0358
12 26 8 5.2231 2.7129
12 26 10 1.3593 -0.1899
12 27 1 -10.2130 2.6911
12 27 3 -6.2314 0.0791
12 27 5 -1.6847 1.8571
12 27 7 1.0935 -2.4671
12 28 4 5.1719 1.1414
12 28 6 -0.1213 4.1245
13 0 0 54.1004 1.2380
13 0 2 -1.4029 18.0803
13 0 4 1.0510 14.8697
13 0 6 -1.9183 3.3453
13 0 8 2.5771 16.3264
13 0 10 4.4598 -6.7669
13 0 12 9.4305 -0.2437
13 0 14 9.4764 -4.0696
13 0 16 -3.5821 6.9315
13 0 18 -8.3313 -2.1915
13 0 20 -7.0268 -7.9183
13 0 22 -2.4683 2.7458
13 0 24 1.6471 2.7208
13 1 1 -6.4977 -5.6393
13 1 3 -7.3736 0.0383
13 1 5 6.3264 6.5152
13 1 7 3.4393 -9.7888
13 1 9 -2.5615 -4.6159
13 1 11 -6.2863 -1.4107
13 1 13 -4.6047 6.3582
13 1 15 -1.6010 1.7125
13 1 17 5.5050 -4.9153
13 1 19 4.9970 6.5614
13 1 21 -1.4853 -2.0325
13 1 23 -0.5174 0.0474
13 2 0 32.1300 4.2375
13 2 2 -8.9824 4.8238
13 2 4 -5.4479 -6.2674
13 2 6 -3.1625 -13.7381
13 2 8 0.5063 9.8804
13 2 10 0.5224 0.4288
13 2 12 0.9033 6.0237
13 2 14 -1.3520 -5.7144
13 2 16 -7.1697 -0.5174
13 2 18 -3.6658 -0.0778
13 2 20 -0.3741 1.9023
13 2 22 2.8686 6.0543
13 2 24 2.1539 0.6248
13 3 1 -10.5154 -0.4310
13 3 3 2.3074 4.6090
13 3 5 12.0513 11.8791
13 3 7 8.0168 -3.5330
13 3 9 3.8831 -2.6411
13 3 11 -4.8979 -0.8478
13 3 13 0.3784 3.3611
13 3 15 4.4167 1.6604
13 3 17 9.2522 -3.7802
13 3 19 1.3057 0.7145
13 3 21 -3.6305 -3.4396
13 3 23 -5.2874 1.3188
13 3 25 0.4285 -1.9472
13 4 0 21.1130 5.2691
13 4 2 2.5159 1.3992
13 4 4 -6.8521 -5.5808
13 4 6 -5.2557 0.0114
13 4 8 2.5933 18.6467
13 4 10 3.6184 0.8587
13 4 12 1.6967 -2.7035
13 4 14 -3.4186 -5.4373
13 4 16 -4.9350 1.7226
13 4 18 -1.5472 2.7726
13 4 20 -4.1438 0.2435
13 4 22 0.2569 -0.0565
13 4 24 2.7397 1.9960
13 5 1 4.5319 4.9914
13 5 3 7.9425 11.0324
13 5 5 2.5222 8.0019
13 5 7 -6.2685 -10.7583
13 5 9 -2.5408 -13.3397
13 5 11 -3.2973 -2.5907
13 5 13 0.9672 8.9874
13 5 15 -6.3695 7.1984
13 5 17 1.2828 -1.7589
13 5 19 -0.8057 0.3097
13 5 21 1.1775 -1.0107
13 5 23 0.5465 -0.9530
13 5 25 3.5884 -1.0539
13 6 0 -10.0906 3.5281
13 6 2 -5.6865 0.6120
13 6 4 -10.4224 -14.7585
13 6 6 -5.6174 -5.9843
13 6 8 4.8478 14.7630
13 6 10 7.0906 3.7747
13 6 12 7.6342 -4.1250
13 6 14 4.6717 -9.2780
13 6 16 4.9806 -2.9583
13 6 18 2.8640 4.1083
13 6 20 -3.4484 1.4340
13 6 22 -2.4130 0.6826
13 6 24 -3.8561 0.4599
13 7 1 -4.5822 -6.7511
13 7 3 7.9688 4.7601
13 7 5 14.6649 7.7300
13 7 7 10.8703 -5.8683
13 7 9 6.9199 -2.3735
13 7 11 -11.2139 5.8137
13 7 13 -8.4329 1.0165
13 7 15 -3.4991 2.9833
13 7 17 5.9085 0.3643
13 7 19 -0.0364 -1.9769
13 7 21 -0.7339 0.0285
13 7 23 -2.5347 1.5602
13 8 0 9.2535 3.9128
13 8 2 10.1487 3.1338
13 8 4 -8.2908 -11.8295
13 8 6 -12.6294 0.7114
13 8 8 -8.4872 12.0907
13 8 10 0.4546 -1.0975
13 8 12 2.8851 -0.3826
13 8 14 -9.2030 -0.3298
13 8 16 -4.7369 -1.2275
13 8 18 0.7435 4.4779
13 8 20 -1.0132 1.0542
13 8 22 0.9058 -0.2708
13 9 1 0.9330 -2.7434
13 9 3 -8.3222 13.3002
13 9 5 4.8932 5.8207
13 9 7 4.0953 -7.4493
13 9 9 2.8827 -8.6950
13 9 11 6.5504 -2.3794
13 9 13 13.3767 -2.9890
13 9 15 2.6086 2.7763
13 9 17 0.6265 -0.9311
13 9 19 -3.0894 -2.1884
13 9 21 -1.8924 1.1296
13 9 23 -2.0747 -0.7243
13 10 0 -2.2428 4.9669
13 10 2 4.9516 3.5274
13 10 4 -6.4300 0.4644
13 10 6 -7.4963 0.6590
13 10 8 -4.0281 0.7103
13 10 10 2.0459 1.4741
13 10 12 -0.2246 0.4715
13 10 14 0.8217 -1.4321
13 10 16 8.9462 4.7232
13 10 18 0.7032 3.7811
13 10 20 -0.4727 -4.6230
13 10 22 -3.1910 -2.0715
13 10 24 -3.0458 0.9642
13 11 1 5.9441 -10.2959
13 11 3 -7.9515 -1.7474
13 11 5 12.4593 -3.8800
13 11 7 9.1273 -3.9022
13 11 9 -2.5541 0.0205
13 11 11 -6.2750 6.0001
13 11 13 -6.7537 0.5828
13 11 15 -9.8556 -4.2621
13 11 17 0.3033 -2.7730
13 11 19 -0.7010 4.4155
13 11 21 0.0862 6.0354
13 11 23 1.3897 3.2726
13 12 0 0.8336 6.5197
13 12 2 2.9581 -0.1501
13 12 4 -2.1907 -0.0526
13 12 6 0.0426 1.2590
13 12 8 -4.8288 -1.0234
13 12 10 4.7209 -2.5398
13 12 12 2.9501 -2.0003
13 12 14 0.6188 -0.7911
13 12 16 3.9592 2.3285
13 12 18 -1.0581 -0.7569
13 12 20 3.4340 -2.9223
13 12 22 -0.9042 -0.3405
13 13 1 6.5561 -3.0746
13 13 3 -15.4711 11.0194
13 13 5 0.7487 5.3407
13 13 7 0.1846 2.5381
13 13 9 -7.5380 -1.0445
13 13 11 1.9119 -2.8622
13 13 13 8.1198 2.9125
13 13 15 0.6403 0.0023
13 13 17 -0.4197 -1.7479
13 13 19 -3.1326 0.5224
13 13 21 -1.8780 -1.9023
13 14 0 1.5558 6.3018
13 14 2 3.7544 -2.7471
13 14 4 4.3853 0.1449
13 14 6 -2.0726 -1.0852
13 14 8 -3.2411 -3.4947
13 14 10 5.1501 -0.8170
13 14 12 -2.5518 0.2573
13 14 14 2.1974 -3.4341
13 14 16 5.0741 0.6662
13 14 18 -1.3424 1.6565
13 14 20 1.6072 1.9835
13 14 22 -0.6979 4.4141
13 15 1 2.2093 -6.8066
13 15 3 -7.8757 0.3731
13 15 5 3.9713 -2.9530
13 15 7 5.7027 1.2603
13 15 9 -5.1596 4.1461
13 15 11 -1.4533 0.9735
13 15 13 -2.1481 4.8003
13 15 15 -2.3543 -0.9647
13 15 17 -2.0217 -2.7366
13 15 19 0.3427 0.7302
13 15 21 2.6242 -3.1481
13 16 0 2.7233 4.6402
13 16 2 -0.1638 1.9594
13 16 4 5.1239 -3.9947
13 16 6 1.2019 -5.1926
13 16 8 -0.6954 -4.2620
13 16 10 -0.7467 -7.8404
13 16 12 -5.1422 -0.9058
13 16 14 -0.9933 0.5273
13 16 16 -0.2388 -0.6760
13 16 18 0.4600 0.3895
13 16 20 -1.8578 0.4305
13 17 1 -2.9536 -4.0086
13 17 3 -3.3482 0.6586
13 17 5 -3.9811 6.8047
13 17 7 0.5998 13.1954
13 17 9 -2.1667 9.6776
13 17 11 4.3921 0.2397
13 17 13 1.8711 -2.3703
13 17 15 4.9305 -1.3409
13 17 17 -1.7849 -1.9332
13 17 19 0.7014 1.3146
13 18 0 2.2674 2.9192
13 18 2 3.0033 3.8359
13 18 4 3.9955 -0.3492
13 18 6 -1.6488 -5.7238
13 18 8 0.0762 -4.5386
13 18 10 1.1352 -4.5313
13 18 12 0.6933 1.4212
13 18 14 1.1610 3.1206
13 18 16 -3.0876 -0.1945
13 18 18 1.9184 -1.7598
13 19 1 2.5290 0.1612
13 19 3 1.1800 -4.2722
13 19 5 -5.2039 -3.2496
13 19 7 -1.1914 0.3894
13 19 9 -0.5230 -1.0405
13 19 11 1.2072 1.7658
13 19 13 -2.4304 -0.1647
13 19 15 3.2344 0.3832
13 20 0 -7.2229 2.0853
13 20 2 0.7502 -0.9353
13 20 4 3.4867 1.2814
13 20 6 2.9686 2.0588
13 20 8 0.2349 3.7060
13 20 10 -0.7176 1.5692
13 20 12 -5.9840 -1.5493
13 20 14 -4.4976 -0.0661
13 21 1 1.8084 0.5370
13 21 3 -3.7220 -3.4157
13 21 5 -3.1443 -3.5468
13 21 7 1.9014 -0.0093
13 21 9 3.8299 -1.2573
13 21 11 4.0210 0.4722
13 21 13 4.7702 -0.7117
13 21 15 -0.2153 0.5304
13 22 0 -4.7470 2.4785
13 22 2 3.8469 -0.6721
13 22 4 2.6312 3.0103
13 22 6 -0.7664 4.2538
13 22 8 -3.9836 -0.1474
13 22 10 5.1838 -0.4422
13 22 12 -0.5096 -1.1055
13 22 14 -0.8014 1.2899
13 23 1 5.1284 -2.7210
13 23 3 -2.8293 0.2248
13 23 5 -1.9474 2.2706
13 23 7 -2.8880 -0.3529
13 23 9 -3.9505 -1.2138
13 23 11 -4.5654 1.9901
13 23 13 1.3923 0.3427
13 24 0 -3.2262 3.4672
13 24 2 0.1028 -0.8232
13 24 4 -0.5765 -5.8900
13 24 6 2.3628 -1.9186
13 24 8 1.4200 0.9840
13 24 10 7.7227 2.3285
13 24 12 2.3951 -0.7708
13 24 14 -1.0881 1.0325
13 25 1 2.2840 -4.8514
13 25 3 -3.2673 -2.3728
13 25 5 3.0510 2.8757
13 25 7 4.9312 1.5273
13 25 9 -0.2816 -2.3327
13 25 11 -1.6871 -2.9237
13 26 0 -3.2224 3.9190
13 26 2 0.4106 3.2798
13 26 4 0.1428 0.4420
13 26 6 -2.6403 -0.2276
13 26 10 -0.9088 0.5435
13 27 1 2.6867 -3.2128
13 27 3 -0.9972 -1.7389
13 27 5 0.6216 3.5004
13 28 4 -0.4694 -3.2744
14 0 0 12.8754 -4.6713
14 0 2 -14.4228 -5.3683
14 0 4 19.0280 5.1525
14 0 6 5.6994 -4.4685
14 0 8 1.8550 -8.2722
14 0 10 3.6369 -0.9213
14 0 12 -1.0499 6.9134
14 0 14 -5.1754 -7.7680
14 0 16 0.5772 2.2843
14 0 18 4.0519 1.1741
14 0 20 -3.6152 -5.4972
14 0 22 0.1528 2.5886
14 1 1 8.7814 9.5672
14 1 3 -5.5926 0.9472
14 1 5 -7.1103 -2.1903
14 1 7 0.7638 0.9407
14 1 9 -2.3275 6.8913
14 1 11 -5.9405 -7.2642
14 1 13 5.9079 5.9036
14 1 15 -0.6368 -1.5392
14 1 17 -5.4806 -1.7944
14 1 19 -0.8363 -0.0169
14 1 21 1.5647 6.6176
14 1 23 -0.9409 -3.8092
14 2 0 13.1049 -5.1736
14 2 2 -15.5839 10.2757
14 2 4 6.4567 8.4261
14 2 6 7.3504 2.9956
14 2 8 5.1241 5.3019
14 2 10 0.2553 3.9584
14 2 12 0.4231 4.2234
14 2 14 -2.2029 -1.6932
14 2 16 2.8671 2.9411
14 2 18 4.9828 1.3678
14 2 20 -4.3229 -3.1621
14 2 22 -3.3026 2.9303
14 2 24 3.3523 4.0562
14 3 1 7.5049 4.8368
14 3 3 2.4506 -11.6448
14 3 5 -7.0829 -6.7415
14 3 7 -0.8636 -3.9184
14 3 9 -1.0647 3.3307
14 3 11 -1.8851 -6.5034
14 3 13 5.2192 -1.1283
14 3 15 0.4302 -4.0780
14 3 17 -1.0730 0.7612
14 3 19 -0.8911 -0.0424
14 3 21 2.3031 0.8934
14 3 23 1.7729 -5.5622
14 4 0 -10.5326 -4.6337
14 4 2 -6.7641 6.6024
14 4 4 8.7856 4.2322
14 4 6 0.7430 -2.0436
14 4 8 4.5233 -8.8598
14 4 10 2.6673 2.4951
14 4 12 -1.6759 6.2922
14 4 14 -6.4624 5.0944
14 4 16 -1.0812 0.6869
14 4 18 -0.8908 0.9414
14 4 20 -0.6508 -2.7469
14 4 22 -0.5400 1.8803
14 4 24 0.9610 3.8630
14 5 1 5.4878 9.7026
14 5 3 1.5007 -4.5979
14 5 5 -3.1765 0.8395
14 5 7 3.8051 12.3729
14 5 9 -2.7296 12.4115
14 5 11 -2.3354 -6.2401
14 5 13 1.9771 -4.3046
14 5 15 -4.2211 -2.7808
14 5 17 2.6452 1.8332
14 5 19 -0.8015 3.2207
14 5 21 -6.7529 4.0372
14 5 23 -5.6470 0.4498
14 5 25 0.1515 -1.1335
14 6 0 -11.2225 -5.4311
14 6 2 1.7822 0.1471
14 6 4 7.2080 -3.5633
14 6 6 -0.8412 -1.8909
14 6 8 4.7623 -9.2675
14 6 10 4.0554 2.1747
14 6 12 3.5609 2.2198
14 6 14 -0.5734 0.3002
14 6 16 5.9181 -7.2750
14 6 18 3.0490 -1.4451
14 6 20 5.3693 -1.9313
14 6 22 4.0050 -0.7278
14 6 24 4.7885 0.4828
14 7 1 9.4470 10.7716
14 7 3 -1.4611 3.3952
14 7 5 -8.6689 -7.6300
14 7 7 -0.4824 2.0789
14 7 9 -3.5124 9.1453
14 7 11 -6.8281 -4.1979
14 7 13 1.0336 -2.1271
14 7 15 -5.0117 7.3292
14 7 17 -2.4940 12.1981
14 7 19 -5.7296 1.9557
14 7 21 -5.7242 -2.4972
14 7 23 -1.2493 1.3827
14 8 0 -17.5922 -6.3552
14 8 2 -3.6070 -1.0232
14 8 4 5.3272 5.6638
14 8 6 -0.8637 9.7182
14 8 8 2.7361 -7.3886
14 8 10 5.2365 -0.1651
14 8 12 4.1179 1.7763
14 8 14 -3.4983 -2.0767
14 8 16 4.1359 -7.1530
14 8 18 2.0370 -3.5749
14 8 20 2.1344 -2.1608
14 8 22 -4.9002 -1.0925
14 9 1 4.2691 1.3206
14 9 3 -2.3468 -3.1916
14 9 5 -2.0725 -14.2677
14 9 7 2.3437 -3.8974
14 9 9 2.7924 2.2879
14 9 11 0.4692 -1.6387
14 9 13 4.1336 1.0053
14 9 15 -2.4837 -0.3747
14 9 17 5.6726 5.8878
14 9 19 1.3517 3.9494
14 9 21 -2.1562 1.6948
14 10 0 8.8697 -5.3364
14 10 2 2.9897 6.4073
14 10 4 3.5513 5.2640
14 10 6 5.5150 6.3455
14 10 8 -3.2369 -2.1573
14 10 10 -6.2335 2.1854
14 10 12 -1.0030 1.2204
14 10 14 -3.2965 0.0506
14 10 16 -2.0505 0.2580
14 10 18 -5.7913 -2.8707
14 10 20 -0.4589 -1.8272
14 10 22 -2.2166 4.3931
14 11 1 -1.1874 -3.2671
14 11 3 -4.2101 1.2589
14 11 5 -4.8861 -1.3201
14 11 7 -1.6272 2.8063
14 11 9 3.2076 2.2666
14 11 11 0.1284 -2.9980
14 11 13 3.7165 -1.5606
14 11 15 0.6215 0.3638
14 11 17 4.1954 8.1044
14 11 19 -0.4205 -0.4346
14 11 21 -2.1140 -2.2239
14 11 23 -0.6249 -5.4990
14 12 0 11.8200 -3.6162
14 12 2 -2.5420 5.0847
14 12 4 -3.2938 6.2986
14 12 6 2.1300 5.2534
14 12 8 -6.9047 -6.1882
14 12 10 -1.4762 -3.9003
14 12 12 2.9569 0.6347
14 12 14 0.0359 -2.0791
14 12 16 3.7491 -5.4180
14 12 18 5.2287 -2.2971
14 12 20 1.4262 0.2298
14 12 22 -2.5351 1.0690
14 13 1 -5.0400 -3.2888
14 13 3 2.5165 -3.8155
14 13 5 5.1043 -10.3942
14 13 7 1.9162 -4.5523
14 13 9 1.3615 0.6798
14 13 11 -1.4173 2.9308
14 13 13 -0.5819 4.1496
14 13 15 0.1644 -2.4398
14 13 17 -2.2034 3.9407
14 13 19 -6.9795 -1.2931
14 13 21 0.5949 3.0392
14 14 0 12.2403 -2.7239
14 14 2 -6.0179 1.2443
14 14 4 -5.4474 3.1648
14 14 6 7.0674 5.4977
14 14 8 0.8513 0.8201
14 14 10 -1.7563 -2.5535
14 14 12 0.1342 -1.3028
14 14 14 -0.0861 4.0160
14 14 16 -3.8414 3.5730
14 14 18 3.4770 1.1065
14 14 20 2.3251 -0.3903
14 15 1 0.5818 0.0444
14 15 3 7.5584 -0.6984
14 15 5 0.2155 -3.2827
14 15 7 -4.3547 3.8557
14 15 9 -1.6477 -0.0799
14 15 11 1.3105 -3.3940
14 15 13 -0.5691 2.1200
14 15 15 3.8158 -4.5270
14 15 17 2.2547 -1.7760
14 15 19 -3.5105 -2.0277
14 15 21 1.6007 1.9092
14 16 0 4.6164 -3.1613
14 16 2 -4.6829 1.9086
14 16 4 -2.0332 5.2996
14 16 6 0.1116 5.8069
14 16 8 -2.5360 0.5740
14 16 10 -3.0901 1.7937
14 16 12 -2.0902 1.0688
14 16 14 1.0091 -4.4913
14 16 16 -2.5172 -1.8858
14 16 18 2.6693 0.1113
14 16 20 1.7997 -2.4995
14 17 1 -3.7130 4.5152
14 17 3 4.6059 -0.5757
14 17 5 -0.9462 -8.2221
14 17 7 2.6442 -0.5874
14 17 9 0.3391 -0.6317
14 17 11 0.3529 -1.5261
14 17 13 -1.8410 5.6626
14 17 15 3.2881 1.9310
14 17 17 1.4744 -1.2748
14 17 19 -3.0575 0.7469
14 18 0 5.1839 -3.9958
14 18 2 -0.8798 -3.1768
14 18 4 -1.5820 -6.8199
14 18 6 0.4805 -0.9721
14 18 8 2.7408 -2.2221
14 18 10 1.9462 -3.9140
14 18 12 1.4452 -4.0462
14 18 14 1.1142 -2.0201
14 18 16 -4.8624 4.5146
14 19 1 -4.5960 4.6639
14 19 3 4.9749 5.3269
14 19 5 -4.7625 4.0877
14 19 7 -1.7090 4.7579
14 19 9 -0.5971 2.4749
14 19 11 0.6346 4.9903
14 19 13 -4.3415 5.3459
14 19 15 -0.1559 0.9753
14 20 0 3.7376 -4.4508
14 20 2 3.4309 -0.3213
14 20 4 4.6158 -6.0067
14 20 6 2.4494 -0.1735
14 20 8 1.4745 -0.7168
14 20 10 1.8523 2.4867
14 20 12 0.0970 -0.0237
14 20 14 -0.7620 -2.4302
14 21 1 -4.0027 -0.2868
14 21 3 -0.8931 0.7557
14 21 5 -5.6275 1.4740
14 21 7 -1.0511 2.3309
14 21 9 -2.2519 -2.6324
14 21 11 -0.5113 -3.7876
14 21 13 -0.5939 -5.0530
14 22 0 5.3712 -3.9207
14 22 2 0.9154 5.7626
14 22 4 -2.1232 -3.0335
14 22 6 -4.0270 -0.3167
14 22 8 -1.6315 -2.4663
14 22 10 2.3813 2.7478
14 22 12 3.1340 -0.0150
14 22 14 -2.6142 3.3235
14 23 1 -1.4275 -4.8451
14 23 3 2.5223 -1.8762
14 23 5 3.2770 0.0718
14 23 7 5.8816 -1.1146
14 23 9 2.6205 -1.9475
14 23 11 3.1038 5.3522
14 23 13 -3.4000 3.9856
14 24 0 -1.3223 -2.8406
14 24 2 -0.4495 0.2997
14 24 4 3.8738 -5.5232
14 24 6 0.1569 4.4529
14 24 8 -1.9964 0.4002
14 24 10 -2.4602 -0.0570
14 25 1 2.0591 0.1745
14 25 3 -5.3029 4.3945
14 25 5 -6.1432 2.3986
14 25 7 0.4837 0.1885
14 25 9 -2.6923 1.1508
14 26 0 -3.9719 -1.6990
14 26 2 -0.8648 0.3713
14 26 4 3.9554 -5.4712
14 27 1 7.5497 0.7312
14 27 3 2.7524 0.8880
15 0 0 26.8853 -2.0920
15 0 2 -8.8020 -3.2806
15 0 4 4.3728 -7.5692
15 0 6 7.7020 -9.2981
15 0 8 5.0799 5.4224
15 0 10 0.1692 -3.9598
15 0 12 3.1324 0.6022
15 0 14 9.3983 -3.2949
15 0 16 -0.4636 -1.5828
15 0 18 0.3908 -3.9634
15 0 20 5.2082 3.9814
15 0 22 -0.3853 4.7102
15 1 1 -5.1783 6.0054
15 1 3 0.9605 8.9455
15 1 5 3.1814 9.3341
15 1 7 -3.2019 -2.0948
15 1 9 -3.7209 4.7376
15 1 11 -1.6657 3.3894
15 1 13 -7.3493 3.8359
15 1 15 -1.9208 1.6587
15 1 17 2.6507 -2.0390
15 1 19 -1.6662 2.7038
15 1 21 -1.4273 -4.6795
15 1 23 -0.5742 3.9710
15 2 0 8.5055 3.5643
15 2 2 -11.1969 -9.1713
15 2 4 0.8055 -7.8908
15 2 6 1.1877 -6.9909
15 2 8 2.2045 4.1676
15 2 10 2.3150 -3.6675
15 2 12 1.1711 -3.2163
15 2 14 7.3819 -4.7036
15 2 16 -0.5357 5.3898
15 2 18 -5.0503 3.1565
15 2 20 -1.6496 0.1413
15 2 22 0.6308 -1.7550
15 3 1 8.5361 8.5603
15 3 3 5.0786 14.3421
15 3 5 4.8483 7.2147
15 3 7 2.6846 -3.7166
15 3 9 -0.7297 1.1524
15 3 11 -4.2813 -0.8888
15 3 13 -5.4974 2.6229
15 3 15 -5.9372 0.7568
15 3 17 1.7343 -5.0750
15 3 19 0.2087 2.3704
15 3 21 1.0533 -0.7912
15 3 23 -1.4334 3.0819
15 4 0 -4.9065 7.8911
15 4 2 -4.2063 -5.7962
15 4 4 3.2280 -6.8276
15 4 6 -1.7741 0.7289
15 4 8 -6.2708 9.4525
15 4 10 4.0350 0.2494
15 4 12 8.2083 0.8267
15 4 14 6.5270 -1.0889
15 4 16 0.6971 -2.4981
15 4 18 1.2296 -2.7175
15 4 20 -0.6363 4.6000
15 4 22 -1.7656 4.6265
15 4 24 -1.3763 1.0346
15 5 1 -5.1655 -5.9585
15 5 3 -2.2853 -0.1568
15 5 5 -0.9868 -3.0410
15 5 7 5.7897 -10.3278
15 5 9 6.5972 2.0560
15 5 11 -10.6168 3.2968
15 5 13 -5.9080 -1.6356
15 5 15 0.8802 2.7392
15 5 17 6.3977 5.7827
15 5 19 -1.4304 3.6847
15 5 21 2.2710 -9.4864
15 5 23 0.6620 -5.5079
15 6 0 -0.9584 9.7595
15 6 2 7.3797 5.8191
15 6 4 8.2881 -4.3529
15 6 6 4.8087 1.7127
15 6 8 -2.4226 11.1295
15 6 10 1.8624 0.5026
15 6 12 1.0618 -2.5299
15 6 14 -4.7401 -0.6565
15 6 16 -4.5882 -0.9042
15 6 18 -1.3613 -1.7416
15 6 20 -3.8756 0.3672
15 6 22 -1.3838 2.8243
15 7 1 -2.8008 -8.6618
15 7 3 -6.2613 4.8893
15 7 5 -5.1992 3.2529
15 7 7 -3.7304 -5.1387
15 7 9 2.0445 -4.9708
15 7 11 1.2061 -1.5715
15 7 13 7.1424 0.7402
15 7 15 -1.2598 0.9091
15 7 17 2.0680 -2.3279
15 7 19 1.9599 5.0823
15 7 21 0.8243 -0.1591
15 7 23 -1.3589 -2.4822
15 8 0 -0.3105 7.6687
15 8 2 6.9437 6.8941
15 8 4 0.4577 -0.8612
15 8 6 -0.7867 -2.9040
15 8 8 -1.8755 2.0549
15 8 10 2.5816 0.0279
15 8 12 1.6812 -1.0690
15 8 14 -0.4791 0.4520
15 8 16 2.8263 2.1130
15 8 18 -1.0955 0.9563
15 8 20 -4.7374 -0.3071
15 8 22 -1.4300 3.2439
15 9 1 3.5317 -10.4317
15 9 3 2.0613 -0.0132
15 9 5 8.8929 -0.6335
15 9 7 4.7844 1.5313
15 9 9 0.0990 5.2737
15 9 11 -8.8645 3.5677
15 9 13 -2.3941 -4.5636
15 9 15 0.1793 1.2952
15 9 17 3.0417 4.1316
15 9 19 3.1786 1.8891
15 9 21 1.1027 -7.9088
15 10 0 -7.8316 4.0604
15 10 2 -4.9592 -2.0991
15 10 4 -10.5694 1.4043
15 10 6 -2.4433 1.1205
15 10 8 -3.8629 -0.7099
15 10 10 4.3996 -2.9224
15 10 12 3.2832 0.9486
15 10 14 -4.7723 1.4603
15 10 16 0.7858 -3.8882
15 10 18 0.5397 -1.7619
15 10 20 -2.9287 3.6702
15 10 22 -1.7440 2.4218
15 11 1 5.9926 1.9276
15 11 3 -2.2775 7.4369
15 11 5 7.3861 -5.8379
15 11 7 0.8562 -5.1207
15 11 9 -2.6775 -4.7299
15 11 11 1.5941 -1.7431
15 11 13 6.4385 -0.5452
15 11 15 0.3398 1.8857
15 11 17 -2.0762 0.7965
15 11 19 0.6244 0.2249
15 11 21 -0.3152 -3.7125
15 12 0 7.2791 0.9634
15 12 2 7.6596 -6.9698
15 12 4 -3.8211 9.6187
15 12 6 -1.4002 6.8542
15 12 8 -2.6875 1.2191
15 12 10 1.7170 0.9179
15 12 12 -4.6915 -0.8765
15 12 14 0.1417 1.2627
15 12 16 5.8926 5.7049
15 12 18 -0.7159 2.9323
15 12 20 -1.9705 1.8247
15 12 22 -2.6386 1.7853
15 13 1 -5.7702 -0.3200
15 13 3 -5.9393 -0.7253
15 13 5 8.9714 -7.0324
15 13 7 2.9380 1.3674
15 13 9 -3.3989 -0.0519
15 13 11 3.0073 0.5433
15 13 13 0.6983 0.5955
15 13 15 -3.3541 -5.8346
15 13 17 -0.9911 -5.0899
15 13 19 1.9784 1.0343
15 13 21 -0.2422 -2.3898
15 14 0 4.6374 0.4091
15 14 2 1.8459 -4.7025
15 14 4 -3.6310 4.2553
15 14 6 -2.2555 2.1288
15 14 8 -4.8002 0.3551
15 14 10 -1.5418 -2.5083
15 14 12 -6.4398 0.1684
15 14 14 0.3987 3.1397
15 14 16 2.7351 3.8035
15 14 18 1.8058 -0.5232
15 14 20 0.6184 -1.9261
15 15 1 2.5527 1.3619
15 15 3 -0.0380 5.2941
15 15 5 5.1839 -2.8302
15 15 7 5.3869 -0.6710
15 15 9 -1.0613 -1.9276
15 15 11 4.9371 -0.4887
15 15 13 0.6272 -1.6679
15 15 15 2.7765 -3.8819
15 15 17 -0.8795 -1.4380
15 15 19 -0.0866 3.2587
15 16 0 -4.0198 2.5722
15 16 2 -4.2173 -6.1282
15 16 4 -3.0753 -2.4728
15 16 6 -3.4925 0.9133
15 16 8 -1.1789 4.3392
15 16 10 0.6380 -1.0483
15 16 12 -2.9044 1.4998
15 16 14 0.8942 3.4322
15 16 16 -2.3641 3.0590
15 16 18 1.2537 -0.6575
15 17 1 5.0029 -0.4454
15 17 3 4.2631 4.0945
15 17 5 -0.3371 -0.3399
15 17 7 0.1332 -0.8092
15 17 9 -4.3819 -4.4103
15 17 11 4.4842 0.8281
15 17 13 -2.3054 -0.1148
15 17 15 1.8281 -0.1860
15 17 17 -4.0446 -2.8151
15 18 0 -2.1849 5.2232
15 18 2 1.1259 -0.1203
15 18 4 2.0414 -0.7132
15 18 6 2.6971 -1.6125
15 18 8 4.5860 2.2213
15 18 10 2.1598 0.7315
15 18 12 -5.1329 2.4451
15 18 14 -2.2277 -0.3133
15 18 16 2.3279 0.6688
15 19 1 -0.8671 -2.6542
15 19 3 -2.6344 0.1287
15 19 5 -4.1510 0.4167
15 19 7 0.5141 5.3639
15 19 9 -4.0078 2.8848
15 19 11 0.9658 1.3434
15 19 13 0.6305 -4.4223
15 19 15 3.3132 0.5818
15 20 0 -3.9321 6.1884
15 20 2 2.9972 0.2141
15 20 4 -1.7047 -1.8982
15 20 6 -3.4847 -6.4411
15 20 8 -3.3986 -5.4077
15 20 10 4.6320 -4.8545
15 20 12 -0.5285 -1.7613
15 20 14 -3.5644 -0.8133
15 21 1 5.0538 -4.0331
15 21 3 0.7677 2.5945
15 21 5 0.8759 4.1359
15 21 7 2.6223 0.9928
15 21 9 2.1168 1.3373
15 21 11 1.1807 8.9311
15 21 13 1.3456 5.6793
15 22 0 -5.8065 4.5356
15 22 2 3.5393 0.8311
15 22 4 2.1090 -1.6467
15 22 6 3.9080 -2.3738
15 22 8 -2.0005 0.4182
15 22 10 3.3060 -2.4675
15 22 12 -3.2259 -6.2142
15 23 1 -1.4254 -6.3951
15 23 3 -8.4715 -2.9398
15 23 5 -2.8322 1.3942
15 23 7 -0.8191 2.8182
15 23 9 -2.0926 3.6433
15 23 11 -0.0855 3.6837
15 24 0 1.3498 2.0041
15 24 2 6.0698 5.1221
15 24 4 0.3697 2.2515
15 24 6 -0.6283 -2.8104
15 24 8 -3.3522 -4.0955
15 24 10 2.2146 -3.0875
15 25 1 -0.1293 -4.1951
15 25 3 -0.2683 -2.7881
15 25 5 5.0430 1.4268
15 25 7 3.1892 0.5118
15 25 9 -0.8114 0.5152
15 26 0 -0.0742 0.2940
15 26 2 0.8015 1.5878
15 27 1 -1.1986 0.2941
16 0 0 21.4808 3.0741
16 0 2 -8.8970 11.1773
16 0 4 6.7833 14.5663
16 0 6 4.7274 12.2244
16 0 8 -0.9057 11.6979
16 0 10 -4.4544 6.9967
16 0 12 -6.0532 6.7609
16 0 14 -9.7147 1.5274
16 0 16 -8.3994 10.3366
16 0 18 -5.3388 5.3746
16 0 20 -3.7936 -3.9473
16 1 1 -6.2582 0.3749
16 1 3 -1.7075 -10.2331
16 1 5 -2.5949 -13.2288
16 1 7 -1.0531 -11.8779
16 1 9 1.9552 -4.3399
16 1 11 -0.3879 -11.5841
16 1 13 6.7581 -1.3288
16 1 15 9.0467 -5.8682
16 1 17 4.4707 -5.0468
16 1 19 1.7209 2.0516
16 1 21 1.3655 4.3902
16 2 0 6.6534 -0.6893
16 2 2 -3.0880 1.4644
16 2 4 16.0253 11.8126
16 2 6 4.8768 9.9113
16 2 8 1.0933 0.3793
16 2 10 0.4848 5.4924
16 2 12 -2.2206 6.9511
16 2 14 -1.9964 -0.2408
16 2 16 1.4297 2.1288
16 2 18 -0.9031 -1.1277
16 2 20 -0.6639 -5.4608
16 2 22 0.1063 2.2088
16 3 1 -1.4486 8.7826
16 3 3 -1.3296 -3.0319
16 3 5 -6.7059 -3.9878
16 3 7 -6.4849 -0.2415
16 3 9 -5.6083 3.6033
16 3 11 -1.3381 -4.9733
16 3 13 3.4784 3.9537
16 3 15 2.1734 3.6788
16 3 17 0.5980 1.8464
16 3 19 -1.4890 4.8458
16 3 21 -1.4901 2.2108
16 4 0 2.6401 -4.8633
16 4 2 -0.5321 -0.4016
16 4 4 5.0195 -4.4470
16 4 6 8.2004 -1.1797
16 4 8 8.2647 -4.3012
16 4 10 -1.1136 -0.1130
16 4 12 -3.5668 -7.3204
16 4 14 -4.7339 -4.4701
16 4 16 1.7298 -3.2657
16 4 18 0.3231 2.7963
16 4 20 0.7824 -2.5528
16 4 22 1.6075 -1.7714
16 5 1 -9.9298 10.2363
16 5 3 2.1150 1.5270
16 5 5 -0.8882 1.7992
16 5 7 -2.4190 2.5847
16 5 9 0.2555 7.4559
16 5 11 2.2459 3.8754
16 5 13 2.2255 4.5490
16 5 15 -0.1660 2.0894
16 5 17 -0.5540 -2.7334
16 5 19 -0.3933 0.5493
16 5 21 1.4753 1.9175
16 5 23 0.2395 2.8384
16 6 0 -1.4516 -9.4366
16 6 2 5.4675 -3.3489
16 6 4 -0.1008 -1.1671
16 6 6 -2.6480 0.5919
16 6 8 1.6430 -10.8166
16 6 10 -1.9077 -2.5810
16 6 12 0.7663 -5.3044
16 6 14 -0.3205 0.6084
16 6 16 4.5095 -1.9802
16 6 18 -1.8929 4.8143
16 6 20 -3.2156 -0.0312
16 6 22 -5.2428 -0.7995
16 7 1 -0.3367 8.4706
16 7 3 3.8495 1.9248
16 7 5 3.6507 -0.8865
16 7 7 -0.2644 5.6988
16 7 9 -0.1836 9.3212
16 7 11 -1.1704 2.6563
16 7 13 -0.7561 3.3744
16 7 15 -3.4577 3.7052
16 7 17 1.7210 0.8250
16 7 19 3.3635 1.3423
16 7 21 0.8774 -4.6716
16 8 0 -2.3390 -9.1693
16 8 2 1.0102 -1.1002
16 8 4 -2.7337 -4.7460
16 8 6 1.6723 -3.4040
16 8 8 1.7962 -8.7420
16 8 10 -2.4095 -3.9943
16 8 12 3.5450 -6.5524
16 8 14 1.5396 -3.4288
16 8 16 5.0030 -3.2798
16 8 18 -0.1645 3.1511
16 8 20 1.3530 1.2005
16 9 1 -3.3243 2.2243
16 9 3 -2.8275 6.1391
16 9 5 -0.2514 4.5752
16 9 7 -0.9198 4.2548
16 9 9 1.9308 5.8050
16 9 11 -3.5495 2.7056
16 9 13 -0.1061 5.1583
16 9 15 -4.9198 3.6852
16 9 17 -4.3222 -0.4731
16 9 19 -2.8968 -1.1137
16 9 21 -6.1767 -2.4191
16 10 0 6.4174 -4.8986
16 10 2 6.4962 0.8853
16 10 4 0.0431 -0.3773
16 10 6 -3.0135 -1.4253
16 10 8 -2.1948 -7.2294
16 10 10 2.9810 -2.9693
16 10 12 3.0488 -2.3944
16 10 14 -1.7529 -4.1525
16 10 16 4.5131 1.2896
16 10 18 3.4062 6.2269
16 10 20 2.9718 1.7021
16 11 1 -1.5822 -4.1918
16 11 3 -3.7611 0.6607
16 11 5 5.2529 0.3954
16 11 7 2.6702 3.6734
16 11 9 -1.5946 2.4997
16 11 11 -4.4915 0.0712
16 11 13 3.6006 2.6542
16 11 15 2.0399 -4.1436
16 11 17 3.5402 -3.8252
16 11 19 1.2083 -2.7416
16 11 21 -3.9585 -1.2827
16 12 0 0.6154 0.0054
16 12 2 -0.7506 2.8602
16 12 4 -0.5067 -0.7214
16 12 6 -0.5857 -2.3148
16 12 8 -4.4789 -4.8126
16 12 10 0.0278 -4.6556
16 12 12 1.9522 -1.0588
16 12 14 -1.3439 4.1351
16 12 16 -6.1242 7.9128
16 12 18 -4.7447 3.9579
16 12 20 -0.7983 1.3960
16 13 1 5.9152 -5.3235
16 13 3 -0.8734 2.8196
16 13 5 -0.3216 3.8717
16 13 7 1.4713 6.1733
16 13 9 3.3050 2.1902
16 13 11 -0.5670 1.4634
16 13 13 -0.5722 1.4340
16 13 15 1.5954 -5.3822
16 13 17 6.6909 0.3229
16 13 19 3.8370 -2.6160
16 14 0 -3.5238 1.1291
16 14 2 -3.3517 -1.2935
16 14 4 0.4200 -1.9415
16 14 6 -0.6011 -1.7924
16 14 8 -4.5147 -2.7172
16 14 10 -1.4387 -1.6530
16 14 12 -1.8097 -0.4020
16 14 14 1.1779 -3.5943
16 14 16 -2.0549 -1.5478
16 14 18 0.0660 0.7610
16 14 20 -1.6591 3.1408
16 15 1 0.4992 -0.1535
16 15 3 2.3244 2.9682
16 15 5 2.0604 -1.3576
16 15 7 1.0774 3.3430
16 15 9 -3.2916 -1.3443
16 15 11 -1.1146 -0.3546
16 15 13 -0.2209 1.8255
16 15 15 -0.8133 -3.5148
16 15 17 0.6281 -0.2465
16 15 19 0.5246 -2.6261
16 16 0 5.6341 -1.6633
16 16 2 2.7632 -1.8239
16 16 4 -1.7315 0.9567
16 16 6 -0.8874 1.7764
16 16 8 2.0854 -0.6048
16 16 10 5.1088 -2.0210
16 16 12 1.9068 2.8798
16 16 14 2.7801 4.8907
16 16 16 -2.7666 8.4129
16 16 18 1.5213 2.6546
16 17 1 -6.9908 3.5359
16 17 3 -1.0188 -0.4520
16 17 5 -1.6721 -6.1022
16 17 7 4.0925 -0.6464
16 17 9 -0.6073 -1.8938
16 17 11 -1.8876 -0.7452
16 17 13 -2.1805 -3.4116
16 17 15 1.7115 -5.9402
16 17 17 2.0646 -2.5441
16 18 0 4.0090 -5.4331
16 18 2 6.0682 -2.8533
16 18 4 -0.4579 2.3295
16 18 6 -4.2444 4.4256
16 18 8 -6.5818 5.2553
16 18 10 -1.8298 5.7416
16 18 12 -2.9422 5.5821
16 18 14 -3.0693 -3.1574
16 18 16 -5.3992 -1.6966
16 19 1 -5.5675 6.0570
16 19 3 1.8471 1.5087
16 19 5 -0.4416 -3.8433
16 19 7 5.4290 -5.8183
16 19 9 4.3903 -8.3992
16 19 11 1.9539 -3.0356
16 19 13 0.0960 -1.0805
16 19 15 5.5904 2.4314
16 20 0 11.2493 -6.7074
16 20 2 7.6932 0.2475
16 20 4 -3.7685 2.1595
16 20 6 0.4843 1.7047
16 20 8 -0.8501 4.7476
16 20 10 1.6531 3.9454
16 20 12 1.7652 1.9441
16 20 14 0.1468 -0.2075
16 21 1 -14.6541 1.8287
16 21 3 -2.0467 -0.8533
16 21 5 -1.6630 -0.9981
16 21 7 -1.8374 -1.4407
16 21 9 -0.8333 -3.1342
16 21 11 -0.3867 0.1259
16 22 0 11.3654 -4.9600
16 22 2 7.7341 -3.4272
16 22 4 -0.8267 -2.7278
16 22 6 1.7824 -2.6391
16 22 8 -0.2890 -0.1333
16 22 10 0.9288 4.7854
16 23 1 -4.2514 1.0434
16 23 3 1.4595 4.8578
16 23 5 0.6137 3.3927
16 23 7 0.9238 -0.6713
16 23 9 -0.0816 -2.5737
16 23 11 1.4310 -1.7136
16 24 0 3.2819 -1.6731
16 24 2 -0.8529 2.8580
16 24 4 -2.8324 -1.6530
16 24 6 2.1328 1.6473
16 24 8 -1.9721 2.6270
16 25 1 -1.3284 -5.1107
16 25 3 1.8157 -3.0426
16 25 5 -1.7519 -0.0570
16 26 0 0.6145 0.4367
16 26 2 0.2472 5.0814
17 0 0 -6.3377 -1.5897
17 0 2 -27.5593 -6.4829
17 0 4 -8.9676 -6.5295
17 0 6 -9.8102 -15.5591
17 0 8 -2.2168 -10.7578
17 0 10 -0.2279 -5.4720
17 0 12 -4.2253 1.7069
17 0 14 9.3329 -1.8916
17 0 16 13.3085 2.7802
17 0 18 3.1215 -0.8584
17 0 20 2.3675 -5.7420
17 1 1 11.8045 7.7774
17 1 3 13.9767 12.8163
17 1 5 9.8729 13.1112
17 1 7 -0.5324 8.4785
17 1 9 -1.8134 4.5669
17 1 11 2.1214 -2.1821
17 1 13 -0.8059 2.9513
17 1 15 -1.3526 2.7589
17 1 17 -4.0081 -0.9110
17 1 19 -4.4855 5.2528
17 2 0 10.4146 3.1329
17 2 2 -6.8396 -8.9229
17 2 4 5.8477 -9.0736
17 2 6 4.3727 -6.9138
17 2 8 -0.0420 0.2524
17 2 10 -1.4228 -5.3890
17 2 12 -5.3810 -2.6678
17 2 14 -0.8604 -2.9068
17 2 16 1.3783 -1.7312
17 2 18 1.0314 -1.8013
17 2 20 3.4149 -1.4723
17 3 1 -21.9284 -3.3033
17 3 3 -6.0315 2.0793
17 3 5 -0.7226 6.2128
17 3 7 -4.3273 -0.5186
17 3 9 1.5096 0.5323
17 3 11 0.8776 0.6452
17 3 13 0.6316 3.8332
17 3 15 2.4481 2.8126
17 3 17 3.4178 0.1042
17 3 19 -2.3130 4.8475
17 3 21 0.0035 1.8565
17 4 0 16.5129 7.0810
17 4 2 7.3373 5.5848
17 4 4 4.9350 -0.5209
17 4 6 3.9414 -4.8367
17 4 8 1.3880 1.0893
17 4 10 0.4872 1.5112
17 4 12 -4.9897 0.6411
17 4 14 2.3201 -1.3170
17 4 16 4.4291 -0.3926
17 4 18 -2.3344 -1.1818
17 4 20 -1.9186 -3.2381
17 4 22 -0.7945 -3.9401
17 5 1 4.9048 -4.7431
17 5 3 0.9076 4.6966
17 5 5 -0.4947 2.5271
17 5 7 -3.8682 -4.0889
17 5 9 -0.3388 -4.6266
17 5 11 0.1585 -7.5792
17 5 13 5.1930 -0.0511
17 5 15 -2.6049 3.1353
17 5 17 1.4698 -1.8424
17 5 19 0.4563 3.6938
17 5 21 1.3402 0.7339
17 6 0 -10.1052 8.8566
17 6 2 -2.6169 -1.3307
17 6 4 1.4897 -2.3026
17 6 6 -0.5033 4.0823
17 6 8 -4.0739 6.7356
17 6 10 1.4520 5.6276
17 6 12 -2.9805 4.8551
17 6 14 -3.0999 1.1992
17 6 16 1.2604 -1.4928
17 6 18 -1.2276 1.5033
17 6 20 -1.2032 2.7305
17 6 22 2.0153 -0.4777
17 7 1 -7.0592 -10.1431
17 7 3 -4.9117 0.1172
17 7 5 5.2030 -3.3131
17 7 7 5.6582 -6.6015
17 7 9 2.9158 -4.3109
17 7 11 -5.9304 -5.6915
17 7 13 3.3168 -2.7324
17 7 15 2.6542 1.1058
17 7 17 4.8608 -1.9608
17 7 19 0.1939 0.9846
17 7 21 -1.6242 -3.9183
17 8 0 12.9922 6.6977
17 8 2 12.6531 3.7928
17 8 4 1.2461 4.1437
17 8 6 -1.0091 1.9415
17 8 8 -0.6903 2.7605
17 8 10 4.2718 5.3029
17 8 12 0.4563 1.9134
17 8 14 -5.1647 -1.3744
17 8 16 -2.1712 -1.6973
17 8 18 -3.2475 1.0780
17 8 20 -0.8092 2.3356
17 9 1 -8.8066 -2.4597
17 9 3 -13.7499 5.0186
17 9 5 -4.0696 -5.0970
17 9 7 -4.5008 -4.6979
17 9 9 -1.6083 -4.3316
17 9 11 -2.1593 -1.0601
17 9 13 4.6195 3.9753
17 9 15 0.2987 2.3940
17 9 17 2.5838 -1.9098
17 9 19 3.5788 2.9034
17 10 0 11.8588 3.0963
17 10 2 13.6343 -7.0964
17 10 4 4.3063 5.6237
17 10 6 4.4641 3.4328
17 10 8 -1.2723 -1.9539
17 10 10 0.4197 -2.3065
17 10 12 3.2403 -3.8709
17 10 14 2.3703 0.7197
17 10 16 3.0623 3.5353
17 10 18 -4.3743 0.4029
17 11 1 -5.3596 -0.0684
17 11 3 -2.5692 0.9485
17 11 5 5.1821 -2.4028
17 11 7 -2.4074 4.3439
17 11 9 0.6920 1.6686
17 11 11 -2.3856 1.6205
17 11 13 -3.2527 -0.2324
17 11 15 -4.3931 -3.9228
17 11 17 1.0558 -0.2343
17 11 19 4.4094 3.8483
17 12 0 -2.2607 0.0370
17 12 2 -2.9449 -5.2545
17 12 4 -11.5705 6.6557
17 12 6 -0.8463 0.1792
17 12 8 -1.6318 -0.7298
17 12 10 -0.3384 3.6187
17 12 12 0.2812 2.5877
17 12 14 -0.2089 -0.4110
17 12 16 1.2959 -3.2351
17 12 18 0.2572 -4.3623
17 12 20 -0.3803 1.5573
17 13 1 7.7822 3.8455
17 13 3 5.0913 0.2133
17 13 5 6.1820 -8.5361
17 13 7 -2.9139 -4.4561
17 13 9 -2.9131 -8.5482
17 13 11 0.0465 -7.4973
17 13 13 2.5556 -3.2077
17 13 15 2.3687 -0.1458
17 13 17 0.8829 5.2649
17 13 19 0.6421 3.6793
17 14 0 0.1542 -0.2025
17 14 2 2.9887 -4.6191
17 14 4 -2.8325 10.4657
17 14 6 0.8199 8.2519
17 14 8 1.6858 4.3642
17 14 10 4.5006 4.9419
17 14 12 2.0070 7.1047
17 14 14 -0.6692 3.1581
17 14 16 -4.4002 1.0448
17 14 18 -0.1732 -2.2614
17 15 1 -6.0968 -0.9464
17 15 3 -3.1232 -4.1303
17 15 5 -0.4287 -6.8648
17 15 7 -2.3146 0.7524
17 15 9 -4.6195 -2.2464
17 15 11 0.3920 -2.3387
17 15 13 -0.9281 -2.9305
17 15 15 2.4556 -1.9335
17 15 17 0.6608 1.3112
17 16 0 0.0364 2.0614
17 16 2 2.8987 -2.1811
17 16 4 0.0837 1.7361
17 16 6 2.2801 -1.4989
17 16 8 0.1349 -1.0501
17 16 10 -3.9100 1.4006
17 16 12 -4.0985 3.4860
17 16 14 -1.0381 -4.7646
17 16 16 -2.5156 -3.9126
17 16 18 4.5598 -1.9364
17 17 1 8.3460 -1.2005
17 17 3 5.0559 2.9711
17 17 5 -2.9417 0.6591
17 17 7 -0.4955 3.2636
17 17 9 0.2044 -0.3665
17 17 11 4.5773 -0.2049
17 17 13 -1.4901 -3.8125
17 17 15 2.9576 0.3215
17 17 17 -0.9303 2.0571
17 18 0 -8.9400 5.0939
17 18 2 -5.7491 3.3799
17 18 4 -7.5564 2.3255
17 18 6 1.4338 -3.6201
17 18 8 1.6779 -3.7645
17 18 10 -0.4230 -0.8874
17 18 12 1.8146 5.4114
17 18 14 1.5490 2.2683
17 18 16 -3.0566 2.6180
17 19 1 3.6372 -8.9724
17 19 3 5.6066 -5.8962
17 19 5 -0.0674 -1.9591
17 19 7 -0.6091 2.8134
17 19 9 1.2012 1.8517
17 19 11 2.9558 2.7096
17 19 13 -1.9306 -3.2120
17 20 0 -5.5879 5.8492
17 20 2 1.2819 3.2552
17 20 4 -2.8520 2.3955
17 20 6 3.1091 -3.9023
17 20 8 -2.8489 -2.9389
17 20 10 -4.2694 -0.3865
17 20 12 -4.8974 1.6946
17 21 1 6.2813 -5.7349
17 21 3 -1.6964 0.8158
17 21 5 -2.4064 1.4942
17 21 7 0.8841 2.6076
17 21 9 4.8441 3.1817
17 21 11 2.7504 2.3009
17 22 0 -5.8886 4.1538
17 22 2 3.4704 3.4017
17 22 4 -0.3916 3.0056
17 22 6 1.8310 -3.6506
17 22 8 -5.5298 -3.6662
17 22 10 -1.2625 -2.1635
17 23 1 -2.9205 -6.6903
17 23 3 -6.5500 -3.3652
17 23 5 -0.1165 0.7317
17 23 7 2.0471 1.9036
17 24 0 1.4286 1.3888
17 24 2 7.9218 -0.7689
17 24 4 2.9842 -0.7407
17 24 6 2.1566 -4.1750
17 25 3 -5.4460 3.0570
18 0 0 13.7653 -0.8192
18 0 4 17.4080 6.1990
18 0 6 4.6887 7.1561
18 0 8 3.7833 4.2926
18 0 10 -0.3474 -2.2326
18 0 12 -6.5006 3.4898
18 0 14 -0.7188 -4.2111
18 0 16 1.7746 4.6451
18 0 18 0.8487 4.6085
18 1 1 -6.3403 3.3901
18 1 3 -3.3360 -1.7058
18 1 5 -3.4622 -4.1185
18 1 7 -3.2476 -4.1263
18 1 9 -0.4335 -1.8739
18 1 11 0.8506 -6.1764
18 1 13 2.4422 2.0850
18 1 15 1.2169 -1.1553
18 1 17 1.4923 -3.9297
18 1 19 -3.8691 -5.3368
18 2 0 9.0025 -2.3768
18 2 2 -7.8411 5.2184
18 2 4 6.1240 5.8347
18 2 6 -4.7556 2.8748
18 2 8 -4.2665 -2.7034
18 2 10 -2.9548 -4.2556
18 2 12 -2.1287 5.4378
18 2 14 3.4081 4.2308
18 2 16 6.3368 7.3133
18 2 18 4.0758 6.1014
18 3 1 2.4737 3.7356
18 3 3 3.9062 -4.4795
18 3 5 3.9871 -4.9661
18 3 7 6.4046 -0.2027
18 3 9 2.6169 3.6742
18 3 11 -0.6288 -4.7466
18 3 13 -0.5710 -6.0969
18 3 15 -0.7577 -7.3532
18 3 17 -0.4394 -6.5661
18 3 19 -4.7686 -3.9482
18 4 0 -1.0364 -4.3887
18 4 2 -3.2598 -0.8139
18 4 4 2.8874 3.4505
18 4 6 -7.2934 4.3164
18 4 8 -1.1952 -6.7615
18 4 10 1.3942 -0.8887
18 4 12 -1.8009 5.1287
18 4 14 -2.7009 7.2490
18 4 16 1.9969 1.3013
18 4 18 1.0798 1.7931
18 4 20 0.1837 -0.2579
18 5 1 -8.4448 6.0039
18 5 3 -2.4535 -0.7792
18 5 5 4.2276 -0.9381
18 5 7 4.2143 4.2317
18 5 9 -3.2062 4.8050
18 5 11 -2.2512 -0.8173
18 5 13 2.4461 0.3726
18 5 15 3.2598 2.7113
18 5 17 2.3990 1.8780
18 5 19 -4.7125 3.1773
18 5 21 -1.7597 1.0818
18 6 0 7.0425 -6.1948
18 6 2 4.1693 0.5690
18 6 4 -0.2247 -2.8896
18 6 6 -2.2500 -3.5843
18 6 8 1.6284 -11.6036
18 6 10 0.1672 -6.5091
18 6 12 0.9621 -5.4363
18 6 14 -2.4340 -0.1095
18 6 16 2.2183 -7.4987
18 6 18 3.0094 -2.3849
18 6 20 4.4691 -1.9272
18 7 1 -0.2652 4.6016
18 7 3 -0.8146 2.8273
18 7 5 -0.2609 2.2383
18 7 7 1.0590 3.6037
18 7 9 1.9178 9.9817
18 7 11 -2.1838 7.4232
18 7 13 0.5383 1.9081
18 7 15 -0.3000 1.3994
18 7 17 -1.3685 1.0006
18 7 19 -3.5500 3.0575
18 7 21 -1.0768 0.6231
18 8 0 -1.6384 -6.1228
18 8 2 -0.9622 -2.6438
18 8 4 -2.9617 -1.6565
18 8 6 -3.1592 -0.9470
18 8 8 -0.8852 -9.0719
18 8 10 -0.3030 -4.3745
18 8 12 1.3979 2.7147
18 8 14 -3.2065 5.1624
18 8 16 1.3401 -4.2522
18 8 18 -1.3639 -1.8417
18 8 20 -2.4687 -1.3789
18 9 1 2.6582 1.7258
18 9 3 0.3908 -0.3070
18 9 5 6.6957 -0.3221
18 9 7 4.3961 1.7622
18 9 9 1.1523 3.2852
18 9 11 -2.2605 -4.4559
18 9 13 4.1700 -4.5895
18 9 15 0.3619 -0.4550
18 9 17 1.5587 3.7157
18 9 19 3.4693 4.7337
18 10 0 -2.5928 -3.8141
18 10 2 -2.3717 2.4957
18 10 4 -4.1104 3.6690
18 10 6 -5.6863 2.0929
18 10 8 -3.6593 -2.1495
18 10 10 -1.2471 0.5962
18 10 12 0.9602 4.7082
18 10 14 -1.6007 -0.0372
18 10 16 1.4981 -6.8761
18 10 18 0.2076 -5.3389
18 11 1 4.7644 -0.6702
18 11 3 -1.4723 -0.5370
18 11 5 1.2307 -2.4601
18 11 7 0.3539 -4.6580
18 11 9 -0.2101 -1.6403
18 11 11 -3.0563 -1.4762
18 11 13 3.0899 2.1620
18 11 15 -1.9265 2.6837
18 11 17 -2.5343 6.6938
18 12 0 3.5801 -1.1684
18 12 2 3.0820 -4.2745
18 12 4 1.2629 -2.4538
18 12 6 -2.4729 1.5327
18 12 8 3.0569 0.4170
18 12 10 6.1040 -0.3757
18 12 12 1.6883 0.5367
18 12 14 -1.3550 -3.6392
18 12 16 2.1547 -2.5043
18 12 18 3.2522 -1.6250
18 13 1 -5.9377 3.3215
18 13 3 -3.5714 8.2824
18 13 5 2.1633 4.6553
18 13 7 -1.5517 3.2781
18 13 9 -8.2323 1.3227
18 13 11 -4.4703 2.4250
18 13 13 3.1952 2.4266
18 13 15 -3.8876 -5.5171
18 13 17 -3.1844 -2.2140
18 14 0 2.8471 -0.7809
18 14 2 3.4189 -9.7473
18 14 4 3.3409 -8.1056
18 14 6 -2.2472 -1.8231
18 14 8 0.8264 -1.6593
18 14 10 1.7164 -3.2506
18 14 12 1.0743 -0.8848
18 14 14 3.4756 0.5346
18 14 16 3.1862 5.3104
18 15 1 2.2344 3.3675
18 15 3 -0.2361 6.3117
18 15 5 -4.7216 1.0520
18 15 7 -0.9964 -0.5052
18 15 9 -2.8751 -3.5373
18 15 11 -1.2822 0.8542
18 15 13 0.1224 -2.5926
18 15 15 -3.9451 -5.6615
18 16 0 -1.7012 -2.2744
18 16 2 -1.1968 -0.4995
18 16 4 0.3155 -0.7638
18 16 6 1.8394 0.6362
18 16 8 4.2822 3.5241
18 16 10 1.7006 3.9889
18 16 12 0.2670 4.5679
18 16 14 0.8564 -1.0324
18 16 16 -2.4648 0.2535
18 17 1 -2.3876 1.2327
18 17 3 2.6862 -0.7587
18 17 5 -2.9433 -1.7267
18 17 7 -0.9575 -1.2221
18 17 9 -3.3496 -4.5576
18 17 11 0.5998 3.1611
18 17 13 2.5129 -0.7137
18 17 15 0.0117 -2.3840
18 18 0 2.0537 -4.0300
18 18 2 2.4532 -4.7372
18 18 4 -0.9862 -1.4723
18 18 6 1.0469 0.5876
18 18 8 0.5493 3.6267
18 18 10 -2.5894 -0.1082
18 18 12 -2.6782 0.1305
18 18 14 -0.4269 -1.9551
18 19 1 1.3941 6.2781
18 19 3 1.9114 4.1607
18 19 5 -3.1338 -1.6304
18 19 7 0.4463 -3.0347
18 19 9 -0.5123 -4.8469
18 19 11 0.4030 0.2883
18 19 13 1.7827 -3.8932
18 20 0 -3.2653 -4.4570
18 20 2 -2.1673 -1.8308
18 20 4 -5.1105 3.6440
18 20 6 0.0836 -0.6413
18 20 8 2.1984 2.5662
18 20 10 2.0124 5.3485
18 20 12 -0.6925 6.8274
18 21 1 -0.0460 -0.9163
18 21 3 5.7520 -5.8879
18 21 5 3.0543 -4.5004
18 21 7 0.4885 -1.0427
18 21 9 -0.5544 -2.7951
18 21 11 -0.6986 -1.1769
18 22 0 1.8518 -3.2227
18 22 2 -3.2021 3.7856
18 22 4 -7.1656 6.0191
18 22 6 0.8552 0.8171
18 22 8 0.6390 2.1832
18 23 1 0.9802 -2.7775
18 23 3 7.5426 -3.8545
18 23 5 2.4417 -1.9175
18 23 7 -2.0889 -2.0857
19 0 0 23.9063 1.4651
19 0 2 2.1417 -0.9588
19 0 4 14.1754 1.8070
19 0 6 4.2266 -0.3060
19 0 8 1.6637 4.7580
19 0 10 0.2805 -3.2519
19 0 12 -2.9940 -0.6419
19 0 14 2.1763 -0.3029
19 0 16 3.2437 2.8387
19 1 1 -12.6207 -2.9462
19 1 3 -4.3177 -0.4059
19 1 5 0.0835 0.3949
19 1 7 -5.8919 -0.4529
19 1 9 -2.6622 -3.2680
19 1 11 1.4249 -2.2296
19 1 13 -1.6722 3.4930
19 1 15 1.7317 -0.3537
19 1 17 1.8322 -0.2333
19 2 0 12.9139 2.9612
19 2 2 -7.6437 2.9402
19 2 4 -1.9242 0.7003
19 2 6 -1.1490 -5.8534
19 2 8 4.2104 1.7473
19 2 10 2.4137 -1.8568
19 2 12 -4.3230 -1.8840
19 2 14 1.6098 -3.7051
19 2 16 1.4588 -0.1907
19 2 18 -2.0030 -1.6255
19 3 1 7.5607 0.3214
19 3 3 7.5165 7.5238
19 3 5 6.2727 6.5912
19 3 7 -4.3662 -0.6000
19 3 9 -2.0169 -4.0354
19 3 11 2.2970 -1.7977
19 3 13 1.8386 8.5320
19 3 15 0.8026 6.2904
19 3 17 1.7546 -0.4070
19 4 0 -9.3762 3.9144
19 4 2 -12.4598 -3.6206
19 4 4 -1.1255 -6.0664
19 4 6 1.8188 -1.8154
19 4 8 -0.6902 4.4585
19 4 10 -1.0888 -1.8267
19 4 12 -4.0507 -3.6630
19 4 14 2.9863 -4.6718
19 4 16 5.1353 0.6373
19 4 18 4.1670 5.0794
19 5 1 3.3999 -7.6303
19 5 3 -0.5004 -3.7193
19 5 5 1.4738 -0.4268
19 5 7 -1.5021 -2.3916
19 5 9 3.3439 1.1333
19 5 11 -0.8304 1.0381
19 5 13 -4.7073 3.6427
19 5 15 -6.5975 -3.0962
19 5 17 0.2518 -10.5002
19 5 19 -4.2855 -3.6374
19 6 0 4.5412 2.8792
19 6 2 0.5453 8.9914
19 6 4 -0.4378 0.5547
19 6 6 2.8973 -4.9208
19 6 8 1.8726 -2.8886
19 6 10 1.4581 -0.3434
19 6 12 0.5404 2.3350
19 6 14 4.8863 1.3814
19 6 16 3.1870 2.5669
19 6 18 -1.4135 1.3139
19 6 20 -0.6701 -1.5960
19 7 1 -1.2400 -5.1346
19 7 3 -5.8118 2.8285
19 7 5 0.6657 3.0685
19 7 7 -0.4327 0.8403
19 7 9 2.9296 0.9464
19 7 11 0.2793 -1.8719
19 7 13 1.3561 4.5376
19 7 15 -4.9018 3.8712
19 7 17 -1.7576 -3.2059
19 7 19 -2.5117 4.2031
19 8 0 1.3998 2.6774
19 8 2 -1.3636 -1.0964
19 8 4 -3.6045 -2.9853
19 8 6 -2.2263 -2.0901
19 8 8 -4.9956 -2.0123
19 8 10 -4.5293 -1.2249
19 8 12 -1.2980 -1.7940
19 8 14 1.6692 -3.5866
19 8 16 7.9148 -1.1867
19 8 18 6.2409 -0.2157
19 9 1 3.7416 -5.4014
19 9 3 3.6686 -0.2363
19 9 5 8.9554 0.8237
19 9 7 3.2044 0.9807
19 9 9 5.6266 1.4309
19 9 11 -1.0414 2.2501
19 9 13 -0.7512 4.3441
19 9 15 -4.9007 -1.9481
19 9 17 -4.2020 -6.7648
19 10 0 1.6211 2.7017
19 10 2 -3.0512 -0.3206
19 10 4 -9.2345 -0.4124
19 10 6 -3.2278 -5.2982
19 10 8 -1.4806 -3.0907
19 10 10 -0.8093 1.6671
19 10 12 2.6676 -0.3299
19 10 14 -0.7722 -1.9456
19 10 16 1.1399 0.4123
19 11 1 -2.1944 1.1820
19 11 3 -6.0819 3.1772
19 11 5 1.4937 0.6430
19 11 7 -0.1849 1.9496
19 11 9 4.1997 -0.5277
19 11 11 -0.3866 -0.9132
19 11 13 1.0360 4.3986
19 11 15 -3.0606 1.8789
19 11 17 -0.3627 -0.9856
19 12 0 4.5851 2.9913
19 12 2 9.8365 -5.6830
19 12 4 6.6337 2.2756
19 12 6 0.6778 -0.1268
19 12 8 -6.3277 -2.4547
19 12 10 -4.4953 -0.4898
19 12 12 4.0597 0.4833
19 12 14 5.3797 -1.6961
19 12 16 4.4741 -1.5691
19 13 1 -0.7675 -1.4053
19 13 3 -4.8188 -3.1103
19 13 5 -1.2057 -0.9825
19 13 7 -2.5712 1.8735
19 13 9 2.3452 0.2331
19 13 11 -1.2598 -0.4388
19 13 13 -4.7407 -1.3395
19 13 15 -5.5321 -2.9736
19 13 17 1.6669 2.8062
19 14 0 -9.9428 3.1281
19 14 2 -4.5091 0.6386
19 14 4 -3.4636 1.4856
19 14 6 1.1092 -1.7921
19 14 8 1.7877 0.9936
19 14 10 -2.4989 1.8574
19 14 12 1.5030 1.3680
19 14 14 3.4824 -0.9195
19 14 16 -4.0582 -1.4729
19 15 1 10.6517 -0.0600
19 15 3 5.7033 0.3235
19 15 5 2.7948 -1.2515
19 15 7 -0.5129 -1.8147
19 15 9 -0.5378 -2.1996
19 15 11 4.1954 1.2691
19 15 13 1.2759 -0.4677
19 15 15 -0.5639 -3.4433
19 16 0 -6.0334 2.7612
19 16 2 -1.0917 -4.4813
19 16 4 -2.8611 -0.0906
19 16 6 -4.4131 2.5990
19 16 8 -1.5192 0.3676
19 16 10 -3.2930 0.5158
19 16 12 -1.4373 4.2674
19 17 1 -1.9717 0.5417
19 17 3 -1.1338 1.8926
19 17 5 0.4990 -2.7781
19 17 7 2.7563 -0.3504
19 17 9 -3.7955 0.1581
19 17 11 -0.5206 -2.2493
19 17 13 0.2829 -6.3548
19 18 0 1.3469 2.5974
19 18 2 2.7958 -1.6886
19 18 4 -1.4975 -0.5724
19 18 6 1.3890 -1.4853
19 18 8 4.0524 -3.3853
19 18 10 2.0889 0.6328
19 18 12 1.0079 4.9001
19 19 1 0.0658 -1.9280
19 19 3 0.4021 0.8529
19 19 5 -2.5427 -0.9148
19 19 7 -0.9439 2.1921
19 19 9 -0.6434 4.2941
19 19 11 -0.4628 3.7552
19 20 0 1.5288 2.1090
19 20 2 1.8085 0.7454
19 20 4 -3.3415 1.3810
19 20 6 2.1154 -0.5188
19 20 8 -2.2711 -2.7621
19 20 10 -3.9023 -3.6963
19 21 1 -3.0242 -3.5487
19 21 3 0.8059 -1.0077
19 21 5 1.1774 -2.0785
19 21 7 0.2612 -1.7021
19 22 0 -0.4777 1.6499
19 22 2 1.0722 -2.3934
19 22 4 -3.1994 -0.5192
19 22 6 2.3481 -0.2819
19 23 1 0.3258 0.1705
20 0 0 1.6004 -7.6345
20 0 2 -13.1949 -4.4791
20 0 4 5.6484 -2.6103
20 0 6 -2.6969 -8.8177
20 0 8 1.0503 -7.0981
20 0 10 4.7737 -8.2459
20 0 12 -1.0765 3.2365
20 0 14 -1.6251 -9.7558
20 1 1 5.8541 9.0551
20 1 3 1.9899 3.8530
20 1 5 0.4889 2.0665
20 1 7 -0.2868 6.4941
20 1 9 -4.6820 4.8178
20 1 11 -3.2731 -4.0613
20 1 13 4.9049 2.7464
20 1 15 1.2358 6.1603
20 2 0 -0.9057 -5.4782
20 2 2 -10.8435 -2.6952
20 2 4 5.5992 1.8800
20 2 6 -2.7573 0.3285
20 2 8 2.0066 -1.3865
20 2 10 4.7320 -2.0473
20 2 12 -2.6679 6.0783
20 2 14 -3.7345 -3.3866
20 2 16 0.1847 0.7144
20 3 1 2.2816 4.7523
20 3 3 -1.5412 -2.8152
20 3 5 -1.7122 -6.1820
20 3 7 2.2062 -0.1392
20 3 9 -0.3449 0.9767
20 3 11 -0.1913 -5.6218
20 3 13 3.8907 -3.9442
20 3 15 0.4361 -0.9775
20 3 17 3.5029 0.0542
20 4 0 3.6978 -3.0745
20 4 2 -3.8086 0.2976
20 4 4 4.4113 -1.7947
20 4 6 0.2006 -0.4824
20 4 8 -0.7380 -4.0351
20 4 10 -0.7561 -2.2670
20 4 12 -1.7741 4.2413
20 4 14 -2.9998 3.5588
20 4 16 -0.3849 -2.8317
20 5 1 -3.9756 4.4890
20 5 3 -0.9453 3.6107
20 5 5 0.0826 1.1168
20 5 7 1.9804 1.9639
20 5 9 0.7439 2.8820
20 5 11 0.2055 0.7574
20 5 13 3.5499 0.0368
20 5 15 -0.3017 2.9134
20 5 17 0.3929 3.2927
20 6 0 5.1391 -0.6084
20 6 2 -2.0969 -1.2738
20 6 4 -3.6472 -3.0290
20 6 6 -2.2267 1.5613
20 6 8 1.7422 -0.7471
20 6 10 0.6128 2.5649
20 6 12 -2.2345 1.8808
20 6 14 -2.2410 1.7140
20 6 16 6.3280 -5.3870
20 6 18 5.2160 -0.1339
20 7 1 0.8707 1.2212
20 7 3 -0.8633 -5.4150
20 7 5 3.4623 -7.7487
20 7 7 3.6150 -3.7599
20 7 9 1.1205 -2.9615
20 7 11 -0.9155 -3.8735
20 7 13 -0.0399 -0.0956
20 7 15 -7.2254 -0.3075
20 7 17 -4.7496 -2.3046
20 7 19 -3.8670 -3.2453
20 8 0 -0.7962 -1.4261
20 8 2 -1.9646 4.5104
20 8 4 -0.5935 5.3314
20 8 6 -0.0356 2.8626
20 8 8 -0.1851 -1.2971
20 8 10 -1.3001 3.1362
20 8 12 1.9600 1.0237
20 8 14 3.1707 -0.3420
20 8 16 4.3352 -4.1337
20 8 18 -0.2682 -0.1524
20 9 1 -1.1497 1.1401
20 9 3 -5.2168 -4.9173
20 9 5 -1.4997 -3.0632
20 9 7 -0.1222 -0.5380
20 9 9 3.2393 1.1898
20 9 11 0.1317 0.5054
20 9 13 0.6886 6.6307
20 9 15 -4.9051 3.1312
20 9 17 -0.9217 0.1814
20 10 0 4.4631 -2.5616
20 10 2 1.1816 -0.9553
20 10 4 0.1613 -0.9400
20 10 6 0.7975 -1.3790
20 10 8 1.7683 -2.6057
20 10 10 -1.7206 1.0629
20 10 12 -0.8466 1.0336
20 10 14 -0.2129 0.0976
20 10 16 3.5216 -0.2849
20 11 1 0.4149 4.8896
20 11 3 0.4316 0.7552
20 11 5 1.9074 1.0737
20 11 7 -2.7038 0.0780
20 11 9 -0.7902 0.2436
20 11 11 -1.2363 -2.6821
20 11 13 1.6790 -0.1828
20 11 15 -2.6447 -7.5349
20 12 0 -0.9160 -3.8697
20 12 2 -2.8115 -2.4199
20 12 4 -0.7093 -0.8083
20 12 6 -1.5029 2.4449
20 12 8 0.9247 0.0838
20 12 10 -1.2911 0.1894
20 12 12 1.8409 -0.6713
20 12 14 -0.3674 0.4851
20 13 1 -4.0011 3.1006
20 13 3 -0.1206 -2.7671
20 13 5 1.2047 -5.1321
20 13 7 1.1965 -3.6765
20 13 9 1.2959 -0.6425
20 13 11 -0.4459 0.8004
20 13 13 3.3333 5.2902
20 13 15 -0.2958 0.6745
20 14 0 8.2152 -4.3167
20 14 2 3.6718 -0.7513
20 14 4 1.5387 0.5914
20 14 6 -5.2737 4.6255
20 14 8 -1.7510 -0.6862
20 14 10 -0.4414 0.7742
20 14 12 1.7726 0.8231
20 14 14 -2.0153 -4.2803
20 15 1 -5.3869 4.9859
20 15 3 -0.2135 4.0113
20 15 5 -0.4430 -1.2225
20 15 7 3.2244 -0.4180
20 15 9 -1.2946 0.7902
20 15 11 -4.8833 1.6255
20 15 13 1.1534 0.1332
20 16 0 -0.7144 -3.0854
20 16 2 -2.6801 -4.1849
20 16 4 1.8596 -6.5273
20 16 6 0.8409 1.1560
20 16 8 -0.2001 -0.7066
20 16 10 -1.9809 -3.7953
20 16 12 4.7274 -2.8414
20 17 1 3.5253 1.1269
20 17 3 3.6374 1.7151
20 17 5 -5.3172 -0.0980
20 17 7 -1.2175 -0.3554
20 17 9 1.8130 -0.1801
20 18 0 -0.1601 -1.8284
20 18 2 -3.0661 4.3858
20 18 4 -1.3464 -0.0179
20 18 6 2.8031 -1.1935
20 18 8 2.6443 -0.5523
20 18 10 -3.6591 -0.4636
20 19 1 -2.1290 -1.0949
20 19 3 1.3929 -1.9439
20 19 5 -1.9749 -1.7192
20 19 7 -2.7374 0.9907
20 19 9 -1.7883 -2.2609
20 20 0 2.3694 -0.6138
20 20 2 -0.2821 -0.9515
20 20 4 -0.9060 -1.6571
20 20 6 3.1715 -1.9468
20 20 8 5.9621 0.9820
20 21 1 -1.1410 0.9559
20 21 3 0.5936 1.2458
20 21 5 -0.3491 0.0239
21 0 0 7.4626 3.1303
21 0 2 -9.7058 10.3084
21 0 4 -0.9347 7.2301
21 0 6 -2.5534 0.0101
21 0 8 -0.5762 9.5532
21 0 10 1.0381 -0.4714
21 0 12 -0.2364 1.6908
21 1 1 1.8056 -6.8779
21 1 3 -0.0269 -3.1522
21 1 5 0.1278 0.3138
21 1 7 -2.8535 -2.8134
21 1 9 -2.2198 -5.9824
21 1 11 4.3491 -3.0779
21 1 13 -0.0327 -2.8874
21 2 0 8.0192 2.8837
21 2 2 -2.4507 2.4611
21 2 4 6.8046 -2.5573
21 2 6 6.4689 -7.7123
21 2 8 5.9509 5.2654
21 2 10 0.9656 0.2507
21 2 12 -5.3642 -1.2954
21 2 14 4.3167 -1.9172
21 3 1 -8.4851 -4.3077
21 3 3 -7.1322 -2.4669
21 3 5 -1.1706 3.2642
21 3 7 -6.5596 2.7277
21 3 9 -7.8819 0.9520
21 3 11 1.2827 1.2369
21 3 13 -1.1979 4.4503
21 4 0 8.9758 1.7633
21 4 2 0.7185 6.5288
21 4 4 -1.4352 1.1612
21 4 6 -1.1214 -3.3330
21 4 8 4.7260 1.2575
21 4 10 6.4008 -2.4230
21 4 12 -1.1907 0.6018
21 4 14 4.5866 -1.3104
21 5 1 5.0985 -1.0844
21 5 3 -0.2533 -1.1024
21 5 5 5.6324 -1.9575
21 5 7 3.9838 -2.8903
21 5 9 1.3843 -0.0899
21 5 11 3.3240 -4.1356
21 5 13 -0.1343 -1.5856
21 5 15 -5.3137 1.2197
21 6 0 -7.0105 -0.7931
21 6 2 -8.1796 0.2007
21 6 4 -3.9120 -4.0763
21 6 6 -2.2308 -1.1084
21 6 8 -3.6248 1.0010
21 6 10 -4.2622 -1.1807
21 6 12 -4.0569 2.6998
21 6 14 3.5867 1.1549
21 6 16 0.5256 1.1108
21 7 1 0.9912 -1.6082
21 7 3 0.6537 1.0203
21 7 5 4.6753 0.7751
21 7 7 2.1542 0.1948
21 7 9 3.0351 4.8184
21 7 11 1.0631 2.6299
21 7 13 -1.7989 0.8981
21 7 15 -1.8829 -2.2295
21 8 0 7.0536 0.2281
21 8 2 -2.6479 -0.3980
21 8 4 -5.3331 -5.1557
21 8 6 -0.3564 -2.7549
21 8 8 2.2395 -2.7210
21 8 10 2.6014 -1.5848
21 8 12 2.0118 5.2342
21 8 14 -1.8035 4.8352
21 8 16 -3.5315 1.9572
21 9 1 -0.9566 1.7495
21 9 3 -1.9439 4.9091
21 9 5 2.7265 -0.8693
21 9 7 1.6614 -0.6648
21 9 9 1.6947 1.0425
21 9 11 -2.9856 -5.5983
21 9 13 1.1184 -5.0748
21 9 15 0.4681 -0.5442
21 10 0 1.5735 2.7336
21 10 2 -1.5006 -3.4244
21 10 4 0.2118 0.2897
21 10 6 -2.0494 1.9476
21 10 8 -3.9218 -2.4422
21 10 10 -1.1484 -0.4182
21 10 12 2.3068 4.7661
21 10 14 -1.6241 1.3295
21 11 1 1.2456 -1.9090
21 11 3 -0.4118 -2.9442
21 11 5 3.2977 -4.6160
21 11 7 1.0742 -0.2543
21 11 9 4.0331 2.6207
21 11 11 -0.6882 -0.2553
21 11 13 1.9965 1.0246
21 12 0 -4.8790 5.1700
21 12 2 -5.4895 -0.1470
21 12 4 -2.3131 0.9110
21 12 6 -0.4038 -0.6029
21 12 8 0.3498 -0.7394
21 12 10 -3.0874 0.6295
21 12 12 -3.0216 2.0716
21 13 1 5.5631 0.9547
21 13 3 0.6907 3.4282
21 13 5 0.1375 2.2052
21 13 7 -3.7719 0.1836
21 13 9 1.5259 -1.4896
21 13 11 4.8934 -3.0124
21 13 13 5.6941 -0.9569
21 14 0 -1.1101 5.1479
21 14 2 0.5850 -4.0196
21 14 4 4.1980 -4.4013
21 14 6 2.7522 -2.0415
21 14 8 2.9028 -0.3640
21 14 10 -3.2901 -0.1055
21 14 12 -3.4346 1.0497
21 15 1 -4.9662 -0.8337
21 15 3 -3.4163 0.5595
21 15 5 -2.6175 0.5191
21 15 7 -5.8267 -0.0679
21 15 9 -5.8966 -0.3688
21 15 11 1.4984 -0.5391
21 16 0 4.8889 3.0259
21 16 2 1.1069 1.1101
21 16 4 0.0648 0.0661
21 16 6 2.3213 1.0977
21 16 8 9.8590 0.4425
21 16 10 3.8289 1.4883
21 17 1 -1.4316 1.6566
21 17 3 0.4722 1.4023
21 17 5 -0.0942 -4.5059
21 17 7 -2.3150 -3.5474
21 17 9 -8.7493 -2.0258
21 18 0 4.4771 0.6322
21 18 2 0.0184 -2.2523
21 18 4 -1.8647 0.0290
21 18 6 -1.6305 5.1353
21 19 1 -3.7680 1.1138
21 19 3 1.4271 1.1264
22 0 0 -0.3337 -8.1223
22 0 2 -8.1603 -3.1975
22 0 4 -2.6858 3.0757
22 0 6 -2.7075 0.6235
22 0 8 0.4500 -2.9340
22 0 10 -3.0372 -7.0149
22 1 1 3.9027 8.8453
22 1 3 0.6428 1.7125
22 1 5 0.5124 -4.6011
22 1 7 0.8385 -0.4963
22 1 9 1.0601 6.2348
22 1 11 1.7829 2.1965
22 2 0 0.8120 -5.4685
22 2 2 -3.7275 -2.5341
22 2 4 2.6511 0.9958
22 2 6 0.2088 3.5839
22 2 8 -2.7508 -1.3945
22 2 10 -2.9032 -8.5517
22 3 1 0.9250 4.0564
22 3 3 0.2507 0.6934
22 3 5 -0.0173 -0.4157
22 3 7 2.8998 1.6208
22 3 9 4.2946 4.1945
22 3 11 -0.1331 2.0522
22 4 0 2.5798 -1.8630
22 4 2 -1.5523 4.3375
22 4 4 -1.8127 -1.3480
22 4 6 -1.0188 -1.3219
22 4 8 -1.6674 -2.1119
22 4 10 -2.9899 -1.1725
22 4 12 2.8617 -1.1717
22 5 1 -2.1890 0.1184
22 5 3 -3.5998 -4.5693
22 5 5 -1.2163 -4.8345
22 5 7 1.2059 -1.1422
22 5 9 0.8276 -1.3792
22 5 11 -1.3005 -0.7418
22 5 13 -0.0105 0.8473
22 6 0 -0.7281 1.2666
22 6 2 -0.3319 5.0603
22 6 4 -0.1280 1.2802
22 6 6 1.8600 3.7589
22 6 8 2.6241 0.7529
22 6 10 2.7600 4.6465
22 6 12 1.2776 2.9950
22 7 1 2.1642 -0.4956
22 7 3 0.3354 -5.0351
22 7 5 2.0367 -2.8627
22 7 7 0.4972 0.5314
22 7 9 -0.3351 -1.9861
22 7 11 -0.1448 -5.5490
22 7 13 5.4146 -1.5929
22 8 0 -1.3232 0.2219
22 8 2 -1.5341 3.9324
22 8 4 -2.2912 0.1867
22 8 6 2.0023 0.4836
22 8 8 1.2567 -2.8744
22 8 10 -2.1012 1.2198
22 8 12 -2.4046 0.2817
22 8 14 -2.5247 0.8774
22 9 1 -1.4742 3.7478
22 9 3 -5.3151 -1.0290
22 9 5 -4.1185 -2.1284
22 9 7 -3.1946 -2.3740
22 9 9 3.5949 1.5772
22 9 11 1.7373 2.2337
22 9 13 -0.5586 4.9237
22 9 15 -3.1055 -1.4025
22 10 0 3.4419 -1.9325
22 10 2 3.2597 -1.9275
22 10 4 3.4221 -2.0062
22 10 6 5.1526 3.3872
22 10 8 1.3589 -0.2777
22 10 10 -3.2795 -0.8805
22 10 12 0.8912 -2.3128
22 10 14 1.6732 0.1025
22 11 1 -6.5750 4.6910
22 11 3 -1.8513 -0.9586
22 11 5 1.3451 -0.4648
22 11 7 -2.0052 -1.5554
22 11 9 2.0698 0.5354
22 11 11 0.6202 -3.4243
22 11 13 -0.4978 2.6342
22 12 0 4.6299 -4.3032
22 12 2 1.4188 -2.1758
22 12 4 -1.5850 -2.5095
22 12 6 -1.8601 1.7970
22 12 8 1.6505 -3.6324
22 12 10 0.9678 0.2695
22 12 12 2.9281 2.1956
22 13 1 -0.7561 7.7712
22 13 3 0.5870 4.6187
22 13 5 -0.2322 0.0358
22 13 7 -2.6888 -1.2909
22 13 9 -2.1304 3.0989
22 14 0 -3.3229 -4.5451
22 14 2 -2.9873 -2.8308
22 14 4 3.0232 -4.2193
22 14 6 3.3126 3.4477
22 14 8 3.1556 -2.6230
22 15 1 -0.4452 2.5548
22 15 3 -1.4396 -0.1584
22 15 5 -5.0320 -1.4293
22 15 7 -2.8780 0.1355
22 15 9 0.1644 2.8283
22 16 0 4.2510 -3.0129
22 16 2 2.5603 2.3236
22 16 4 4.6662 -3.1709
22 16 6 2.2073 -0.0483
22 16 8 0.1610 -5.2445
22 17 1 -3.9629 2.7659
22 17 3 -2.9235 5.1822
22 17 5 -3.4472 2.7922
22 17 7 0.4684 2.2414
22 18 0 2.4777 -0.5169
22 18 2 -1.0445 -1.4930
22 18 4 -1.0364 -8.2143
22 19 1 -0.2823 1.1115
23 0 0 8.4542 1.9435
23 0 2 1.8084 1.3094
23 0 4 3.3403 0.7702
23 1 1 -2.7494 -2.8872
23 1 3 -2.9794 -1.3770
23 1 5 1.2020 3.2145
23 2 0 7.2260 2.4467
23 2 2 0.4648 3.4532
23 2 4 -3.3995 6.4961
23 2 6 -7.3114 -0.5341
23 3 1 0.2981 1.4730
23 3 3 -2.4690 0.3475
23 3 5 1.6156 -4.3881
23 3 7 4.4874 -5.5080
23 4 0 -0.3076 1.7229
23 4 2 -1.1445 -3.3627
23 4 4 -0.3196 -0.4603
23 4 6 1.5458 3.7206
23 4 8 1.9269 5.1039
23 5 1 0.9872 2.0621
23 5 3 1.7301 2.4271
23 5 5 2.3717 -0.5796
23 5 7 0.0707 -1.8380
23 5 9 -2.2659 3.5115
23 6 0 2.5378 0.0674
23 6 2 -1.7545 -1.5512
23 6 4 -3.8315 -2.6997
23 6 6 -1.4990 1.4179
23 6 8 -1.8472 -1.7814
23 7 1 -2.3066 4.3711
23 7 3 -3.0701 6.5315
23 7 5 -0.2443 -1.6600
23 7 7 3.9090 -3.5339
23 7 9 4.0862 -0.0982
23 8 0 4.4962 0.8271
23 8 2 0.2874 -4.1577
23 8 4 -0.4032 -1.4349
23 8 6 -2.0136 3.8956
23 8 8 -2.9424 2.3175
23 8 10 -0.5012 3.0589
23 9 1 0.2389 -1.2384
23 9 3 3.0922 -2.6596
23 9 5 5.5376 -4.9280
23 9 7 2.0464 -0.1025
23 9 9 0.2063 -3.8896
23 9 11 -1.7134 -4.4923
23 10 0 -3.2137 2.4392
23 10 2 -7.0922 2.9324
23 10 4 -4.2680 4.1403
23 10 6 -0.2099 -0.3186
23 10 8 2.2773 -1.5414
23 10 10 2.0164 4.0967
23 11 1 4.9756 -0.5081
23 11 3 0.0199 0.7969
23 11 5 -2.7590 0.7094
23 11 7 -4.9471 3.3778
23 11 9 0.4952 -2.7122
23 11 11 -0.9307 -3.6813
23 12 0 -0.6015 3.9263
23 12 2 -0.1785 -0.9201
23 12 4 5.8682 -0.1259
23 12 6 4.9927 -2.8347
23 12 8 0.8205 -2.3064
23 12 10 -0.7388 0.8117
23 13 1 -2.9249 -2.1385
23 13 3 -3.9783 -2.4366
23 13 5 -2.5179 -1.9905
23 13 7 -2.9804 1.1464
23 13 9 1.0835 0.6220
23 14 0 3.0907 3.6532
23 14 2 0.4116 0.0196
23 14 4 1.6912 1.4059
23 14 6 0.0008 1.2814
23 15 1 -0.8943 2.2827
23 15 3 0.0847 4.9795
23 15 5 1.2249 0.3193
23 16 2 -2.1306 -1.9038
23 16 4 -1.6433 -3.5903
0 0 0 0.0 0.0
;
_shelx_fab_checksum              94483
_olex2_submission_special_instructions 'No special instructions were received'
loop_
_space_group_symop_operation_xyz
'x, y, z'
'-x, -y, z'
'-x, y, z'
'x, -y, z'
'x, y+1/2, z+1/2'
'-x, -y+1/2, z+1/2'
'-x, y+1/2, z+1/2'
'x, -y+1/2, z+1/2'
loop_
_atom_site_label
_atom_site_type_symbol
_atom_site_fract_x
_atom_site_fract_y
_atom_site_fract_z
_atom_site_U_iso_or_equiv
_atom_site_adp_type
_atom_site_occupancy
_atom_site_site_symmetry_order
_atom_site_calc_flag
_atom_site_refinement_flags_posn
_atom_site_refinement_flags_adp
_atom_site_refinement_flags_occupancy
_atom_site_disorder_assembly
_atom_site_disorder_group
Zr1 Zr 0.40738(4) 0.42471(3) 0.52738(5) 0.0391(2) Uani 1 1 d . . . . .
O1 O 0.3925(4) 0.500000 0.4623(4) 0.0310(14) Uani 1 2 d S T P . .
C1 C 0.2464(4) 0.2516(5) 0.2757(7) 0.058(2) Uani 1 1 d . . . . .
H1A H 0.214081 0.257960 0.239736 0.069 Uiso 1 1 calc R U . . .
H1B H 0.217244 0.244077 0.313488 0.069 Uiso 1 1 calc R U . . .
N51 N 0.2153(7) 0.4488(5) 0.7167(6) 0.045(4) Uani 0.5 1 d G U P A 1
N52 N 0.1842(8) 0.4185(6) 0.7676(5) 0.055(4) Uani 0.5 1 d G U P A 1
C53 C 0.1401(8) 0.3753(6) 0.7420(7) 0.052(4) Uani 0.5 1 d G U P A 1
H53 H 0.112876 0.348627 0.765379 0.062 Uiso 0.5 1 calc R U P A 1
C54 C 0.1439(7) 0.3790(5) 0.6752(6) 0.043(3) Uani 0.5 1 d DG U P A 1
C55 C 0.1903(7) 0.4244(5) 0.6596(5) 0.043(3) Uani 0.5 1 d G U P A 1
H55 H 0.202541 0.436387 0.618244 0.051 Uiso 0.5 1 calc R U P A 1
Zr2 Zr 0.500000 0.500000 0.41147(8) 0.0392(4) Uani 1 4 d S T P . .
O2 O 0.500000 0.4366(3) 0.4773(3) 0.0322(15) Uani 1 2 d S T P . .
Zr3 Zr 0.500000 0.500000 0.64360(8) 0.0375(4) Uani 1 4 d S T P . .
O3 O 0.4205(4) 0.500000 0.5760(4) 0.0341(16) Uani 1 2 d S T P . .
Zr4 Zr 0.09282(13) 0.16362(12) 0.48697(12) 0.0612(6) Uani 0.5 1 d . . P . .
O4 O 0.500000 0.4155(4) 0.5913(4) 0.0369(17) Uani 1 2 d S T P . .
Zr5 Zr 0.000000 0.24252(13) 0.60106(15) 0.0541(7) Uani 0.5 2 d S T P B .
Zr6 Zr 0.000000 0.23719(14) 0.36795(15) 0.0563(7) Uani 0.5 2 d S T P B .
Zr7 Zr 0.09217(11) 0.31447(11) 0.48129(11) 0.0536(5) Uani 0.5 1 d . . P B .
O9 O 0.0826(6) 0.2380(5) 0.4311(5) 0.039(2) Uani 0.5 1 d . . P B .
O10 O 0.000000 0.1490(5) 0.4192(7) 0.031(3) Uani 0.5 2 d S T P B .
O11 O 0.000000 0.3215(6) 0.4135(7) 0.035(3) Uani 0.5 2 d S T P . .
N11 N 0.2860(4) 0.3019(4) 0.2858(4) 0.0465(18) Uani 1 1 d . . . . .
O12 O 0.000000 0.3053(7) 0.5322(9) 0.043(3) Uani 0.5 2 d S T P . .
N12 N 0.3171(5) 0.3272(4) 0.2352(5) 0.057(2) Uani 1 1 d . . . . .
O13 O 0.000000 0.1715(12) 0.5391(14) 0.091(11) Uani 0.5 2 d S T P B .
C13 C 0.3553(6) 0.3705(5) 0.2616(4) 0.049(2) Uani 1 1 d . . . . .
H13 H 0.379629 0.399279 0.238750 0.059 Uiso 1 1 calc R U . . .
O14 O 0.1063(7) 0.2392(5) 0.5450(6) 0.046(3) Uani 0.5 1 d . . P B .
C14 C 0.3531(4) 0.3661(3) 0.3270(4) 0.0318(15) Uani 1 1 d . . . . .
C15 C 0.3076(4) 0.3208(3) 0.3432(4) 0.0383(17) Uani 1 1 d . . . . .
H15 H 0.295175 0.307067 0.383873 0.046 Uiso 1 1 calc R U . . .
C16 C 0.3901(4) 0.4037(3) 0.3734(4) 0.0302(14) Uani 1 1 d . . . . .
O17 O 0.3789(3) 0.3875(3) 0.4322(3) 0.0364(12) Uani 1 1 d . . . . .
O18 O 0.4293(3) 0.4417(3) 0.3555(3) 0.0359(12) Uani 1 1 d . . . . .
O57A O 0.0715(7) 0.1826(6) 0.3161(7) 0.0507(18) Uani 0.5 1 d D U P . .
N21 N 0.2895(4) 0.2007(3) 0.2626(4) 0.0416(16) Uani 1 1 d . . . . .
O47A O 0.1323(7) 0.3407(7) 0.3884(6) 0.052(3) Uani 0.5 1 d . U P B 2
N22 N 0.3191(4) 0.1717(3) 0.3141(3) 0.0374(15) Uani 1 1 d . . . . .
O58A O 0.1383(7) 0.1393(6) 0.3883(6) 0.0507(18) Uani 0.5 1 d D U P B .
C23 C 0.3554(4) 0.1338(3) 0.2892(3) 0.0314(15) Uani 1 1 d . . . . .
H23 H 0.385438 0.109354 0.312865 0.038 Uiso 1 1 calc R U . . .
C24 C 0.3487(4) 0.1297(3) 0.2229(3) 0.0308(15) Uani 1 1 d . . . . .
O48A O 0.0695(7) 0.2945(6) 0.3111(6) 0.048(3) Uani 0.5 1 d . U P B 2
C25 C 0.3060(5) 0.1744(4) 0.2090(4) 0.046(2) Uani 1 1 d . . . . .
H25 H 0.290471 0.185051 0.168050 0.055 Uiso 1 1 calc R U . . .
C26 C 0.3831(4) 0.0951(3) 0.1753(4) 0.0335(15) Uani 1 1 d . . . . .
O27 O 0.4270(3) 0.0578(2) 0.1955(3) 0.0306(10) Uani 1 1 d . . . . .
O28 O 0.3637(3) 0.1004(2) 0.1206(2) 0.0330(11) Uani 1 1 d . . . . .
C31 C 0.259(4) 0.000000 0.746(5) 0.047(5) Uani 0.5 2 d S TU P B 1
H31A H 0.271759 0.000000 0.791676 0.057 Uiso 0.5 2 calc R U P B 1
H31B H 0.302693 0.000001 0.720634 0.057 Uiso 0.5 2 calc R U P B 1
N42 N 0.1897(9) 0.0786(7) 0.7821(6) 0.042(4) Uani 0.5 1 d G U P B 1
N41 N 0.2154(11) 0.0454(7) 0.7310(8) 0.058(5) Uani 0.5 1 d G U P B 1
C45 C 0.1867(11) 0.0681(6) 0.6745(6) 0.050(5) Uani 0.5 1 d G U P B 1
H45 H 0.195100 0.054082 0.633080 0.059 Uiso 0.5 1 calc R U P B 1
C44 C 0.1432(8) 0.1152(5) 0.6906(6) 0.042(3) Uani 0.5 1 d DG U P B 1
C43 C 0.1451(8) 0.1218(6) 0.7572(6) 0.047(5) Uani 0.5 1 d G U P B 1
H43 H 0.120743 0.150053 0.780854 0.056 Uiso 0.5 1 calc R U P B 1
C46 C 0.1032(12) 0.1422(8) 0.6387(8) 0.060(5) Uani 0.5 1 d D U P B 1
O47 O 0.0657(8) 0.1859(5) 0.6567(9) 0.063(4) Uani 0.5 1 d D U P B 1
O48 O 0.1170(8) 0.1308(5) 0.5824(6) 0.059(3) Uani 0.5 1 d D U P B 1
C50 C 0.2582(8) 0.500000 0.7239(9) 0.059(4) Uani 0.5 2 d S T P A 1
H50A H 0.295932 0.500000 0.691776 0.071 Uiso 0.5 2 calc R U P A 1
H50B H 0.280475 0.499999 0.766074 0.071 Uiso 0.5 2 calc R U P A 1
C56 C 0.1058(11) 0.3447(8) 0.6282(7) 0.054(4) Uani 0.5 1 d D U P A 1
O57 O 0.1122(7) 0.3556(4) 0.5691(6) 0.046(3) Uani 0.5 1 d D U P . .
O58 O 0.0707(9) 0.3015(5) 0.6510(6) 0.057(3) Uani 0.5 1 d D U P . .
O61 O 0.500000 0.3163(3) 0.6631(4) 0.0374(15) Uiso 1 2 d S . P . .
C62 C 0.500000 0.3143(5) 0.7207(5) 0.041(2) Uiso 1 2 d S . P . .
H62 H 0.500000 0.349545 0.742954 0.049 Uiso 1 2 calc R U P . .
N63 N 0.500000 0.2646(5) 0.7555(5) 0.045(2) Uiso 1 2 d S . P . .
C65 C 0.500000 0.2109(7) 0.7134(7) 0.059(3) Uiso 1 2 d S . P . .
H65A H 0.500000 0.176606 0.739972 0.089 Uiso 0.5 1 calc R U P C -1
H65B H 0.457924 0.211027 0.686745 0.089 Uiso 0.5 1 calc R U P C -1
H65C H 0.542076 0.211027 0.686745 0.089 Uiso 0.5 1 calc R U P C -1
O71 O 0.4223(4) 0.3307(2) 0.5300(4) 0.0575(16) Uani 1 1 d . . . . .
O73 O 0.2925(3) 0.4285(2) 0.5189(2) 0.0343(11) Uani 1 1 d . . . . .
C74A C 0.2496(5) 0.4365(4) 0.4758(4) 0.051(2) Uani 0.687(18) 1 d . . P D .
O75A O 0.2664(5) 0.4680(4) 0.4245(4) 0.051(3) Uani 0.687(18) 1 d . . P D 1
C74B C 0.2496(5) 0.4365(4) 0.4758(4) 0.051(2) Uani 0.313(18) 1 d . . P D 2
O77 O 0.0580(7) 0.4083(5) 0.4789(8) 0.057(4) Uani 0.5 1 d . . P . .
O81 O 0.2080(6) 0.3059(5) 0.4842(6) 0.044(2) Uani 0.5 1 d . . P . .
O75B O 0.1738(9) 0.4372(9) 0.4896(10) 0.048(6) Uani 0.313(18) 1 d . . P D 2
C56A C 0.1201(10) 0.1475(8) 0.3338(9) 0.0507(18) Uani 0.5 1 d D U P B 2
N51A N 0.2192(8) 0.0436(6) 0.2396(6) 0.050(4) Uani 0.5 1 d G U P B 2
C55A C 0.1998(7) 0.0682(7) 0.2983(5) 0.044(4) Uani 0.5 1 d G U P B 2
H55A H 0.217300 0.057259 0.338498 0.053 Uiso 0.5 1 calc R U P B 2
C54A C 0.1495(7) 0.1118(6) 0.2864(7) 0.051(4) Uani 0.5 1 d G U P B 2
C53A C 0.1379(8) 0.1143(6) 0.2203(7) 0.055(5) Uani 0.5 1 d G U P B 2
H53A H 0.106813 0.139659 0.199199 0.066 Uiso 0.5 1 calc R U P B 2
N52A N 0.1810(9) 0.0721(6) 0.1914(5) 0.056(4) Uani 0.5 1 d G U P B 2
C50A C 0.2582(8) 0.500000 0.7239(9) 0.059(4) Uani 0.5 2 d S T P E 2
H50C H 0.268350 0.500000 0.678122 0.071 Uiso 0.5 2 calc R U P E 2
H50D H 0.303063 0.500000 0.747521 0.071 Uiso 0.5 2 calc R U P E 2
N41A N 0.2137(10) 0.0500(7) 0.7485(9) 0.058(5) Uani 0.5 1 d G U P F 2
N42A N 0.1862(9) 0.0810(7) 0.6964(7) 0.069(5) Uani 0.5 1 d G U P F 2
C43A C 0.1450(9) 0.1268(6) 0.7204(7) 0.067(6) Uani 0.5 1 d G U P F 2
H43A H 0.120449 0.154418 0.696031 0.081 Uiso 0.5 1 calc R U P F 2
C44A C 0.1470(8) 0.1241(6) 0.7873(7) 0.046(4) Uani 0.5 1 d DG U P F 2
C45A C 0.1895(10) 0.0766(7) 0.8046(7) 0.054(5) Uani 0.5 1 d G U P F 2
H45A H 0.199814 0.064705 0.846458 0.065 Uiso 0.5 1 calc R U P F 2
C46A C 0.1144(9) 0.3320(7) 0.3341(8) 0.043(3) Uani 0.5 1 d . U P B 2
C31A C 0.250(4) 0.000000 0.743(5) 0.047(5) Uani 0.5 2 d S TU P F 2
H31C H 0.287870 0.000001 0.774585 0.057 Uiso 0.5 2 calc R U P F 2
H31D H 0.272907 0.000000 0.700670 0.057 Uiso 0.5 2 calc R U P F 2
C64 C 0.500000 0.2743(11) 0.8250(11) 0.097(6) Uiso 1 2 d S . P . .
H64A H 0.500000 0.237316 0.846821 0.146 Uiso 1 2 calc R U P . .
H64B H 0.542076 0.295955 0.836905 0.146 Uiso 0.5 1 calc R U P . .
H64C H 0.457924 0.295955 0.836905 0.146 Uiso 0.5 1 calc R U P . .
loop_
_atom_site_aniso_label
_atom_site_aniso_U_11
_atom_site_aniso_U_22
_atom_site_aniso_U_33
_atom_site_aniso_U_23
_atom_site_aniso_U_13
_atom_site_aniso_U_12
Zr1 0.0451(4) 0.0299(4) 0.0423(4) -0.0001(4) -0.0016(5) -0.0024(3)
O1 0.041(4) 0.021(3) 0.031(3) 0.000 0.004(3) 0.000
C1 0.052(4) 0.035(4) 0.085(6) -0.028(4) -0.009(6) 0.010(4)
N51 0.057(9) 0.036(8) 0.044(9) 0.010(6) -0.028(7) 0.017(6)
N52 0.052(9) 0.052(9) 0.060(9) 0.001(7) -0.010(7) 0.015(7)
C53 0.068(10) 0.033(8) 0.054(9) 0.021(7) -0.014(8) 0.016(6)
C54 0.061(9) 0.021(6) 0.047(7) 0.015(5) -0.009(6) -0.001(5)
C55 0.043(8) 0.042(8) 0.042(8) 0.005(7) -0.008(7) -0.001(6)
Zr2 0.0455(10) 0.0358(9) 0.0363(9) 0.000 0.000 0.000
O2 0.052(4) 0.018(3) 0.027(3) -0.013(3) 0.000 0.000
Zr3 0.0446(10) 0.0269(8) 0.0409(9) 0.000 0.000 0.000
O3 0.036(3) 0.020(3) 0.046(4) 0.000 -0.001(3) 0.000
Zr4 0.0743(15) 0.0532(14) 0.0561(13) 0.0001(11) 0.0010(10) 0.0024(10)
O4 0.042(4) 0.040(4) 0.028(3) 0.001(3) 0.000 0.000
Zr5 0.0595(16) 0.0413(15) 0.0614(17) -0.0020(12) 0.000 0.000
Zr6 0.0635(18) 0.0487(18) 0.0569(17) 0.0015(13) 0.000 0.000
Zr7 0.0572(12) 0.0479(12) 0.0557(12) -0.0020(10) -0.0011(9) 0.0011(8)
O9 0.060(6) 0.031(5) 0.025(5) 0.001(4) 0.015(4) -0.004(4)
O10 0.035(6) 0.018(6) 0.041(7) 0.011(5) 0.000 0.000
O11 0.038(7) 0.032(7) 0.036(7) -0.005(6) 0.000 0.000
N11 0.048(4) 0.047(4) 0.045(4) -0.017(3) -0.013(3) 0.010(3)
O12 0.027(6) 0.058(9) 0.045(8) 0.016(9) 0.000 0.000
N12 0.047(4) 0.059(5) 0.064(5) -0.038(4) -0.010(4) -0.006(4)
O13 0.025(7) 0.13(2) 0.12(2) -0.090(19) 0.000 0.000
C13 0.057(5) 0.050(5) 0.040(4) -0.023(4) -0.006(4) -0.002(4)
O14 0.064(7) 0.032(6) 0.042(6) -0.007(4) -0.011(5) 0.006(5)
C14 0.036(4) 0.023(3) 0.037(4) -0.008(3) 0.002(3) 0.004(2)
C15 0.039(4) 0.021(3) 0.055(5) -0.014(3) -0.007(3) 0.004(3)
C16 0.029(3) 0.030(4) 0.032(3) -0.003(3) 0.002(3) 0.007(3)
O17 0.043(3) 0.034(3) 0.032(2) -0.009(2) -0.005(2) 0.006(2)
O18 0.027(2) 0.038(3) 0.043(3) -0.007(3) 0.008(2) -0.004(2)
O57A 0.051(4) 0.039(4) 0.062(5) -0.004(4) -0.004(4) 0.007(3)
N21 0.041(4) 0.034(3) 0.050(4) -0.021(3) -0.009(3) 0.014(3)
O47A 0.050(6) 0.056(8) 0.050(6) 0.006(5) -0.005(5) -0.008(6)
N22 0.043(4) 0.048(4) 0.021(3) -0.002(3) -0.007(2) -0.002(3)
O58A 0.051(4) 0.039(4) 0.062(5) -0.004(4) -0.004(4) 0.007(3)
C23 0.048(4) 0.029(4) 0.018(3) 0.001(2) -0.001(3) 0.001(3)
C24 0.042(4) 0.031(4) 0.019(3) -0.006(3) 0.001(3) 0.007(3)
O48A 0.055(7) 0.049(7) 0.040(6) -0.009(5) 0.015(5) 0.000(5)
C25 0.051(5) 0.043(5) 0.045(5) -0.002(4) -0.022(4) 0.001(4)
C26 0.037(4) 0.025(3) 0.038(4) -0.001(3) 0.005(3) 0.005(3)
O27 0.044(3) 0.021(2) 0.027(2) 0.003(2) 0.000(2) -0.003(2)
O28 0.047(3) 0.020(2) 0.032(2) -0.0056(19) -0.004(2) 0.0025(19)
C31 0.037(16) 0.064(7) 0.042(10) 0.000 -0.001(11) 0.000
N42 0.038(7) 0.030(7) 0.056(9) 0.024(6) -0.003(7) -0.014(5)
N41 0.067(13) 0.053(10) 0.055(9) 0.011(7) -0.009(9) 0.007(8)
C45 0.071(11) 0.017(7) 0.060(9) -0.001(7) -0.007(9) 0.018(7)
C44 0.059(9) 0.014(6) 0.055(8) -0.001(6) -0.002(7) 0.006(6)
C43 0.052(9) 0.049(10) 0.038(8) 0.018(8) 0.012(9) 0.007(7)
C46 0.091(12) 0.030(8) 0.060(7) -0.005(7) -0.024(8) 0.016(7)
O47 0.070(8) 0.023(6) 0.094(10) -0.001(6) -0.022(7) 0.009(5)
O48 0.084(9) 0.031(6) 0.061(6) 0.010(5) -0.022(6) 0.019(6)
C50 0.045(6) 0.056(8) 0.076(9) 0.000 0.009(6) 0.000
C56 0.082(11) 0.036(8) 0.046(7) 0.011(6) -0.017(7) -0.008(7)
O57 0.077(8) 0.014(5) 0.047(5) -0.002(4) -0.012(5) -0.007(4)
O58 0.103(10) 0.028(6) 0.040(6) -0.005(5) -0.024(6) -0.013(6)
O71 0.109(5) 0.019(2) 0.044(3) 0.001(3) 0.002(4) 0.012(3)
O73 0.038(2) 0.036(3) 0.028(3) 0.0025(19) -0.005(2) -0.0012(18)
C74A 0.053(5) 0.059(5) 0.041(4) 0.014(4) -0.006(3) 0.013(4)
O75A 0.070(6) 0.050(5) 0.033(4) 0.006(4) -0.004(4) -0.020(4)
C74B 0.053(5) 0.059(5) 0.041(4) 0.014(4) -0.006(3) 0.013(4)
O77 0.063(8) 0.026(5) 0.081(9) -0.015(6) -0.035(7) -0.006(5)
O81 0.043(6) 0.039(6) 0.051(6) 0.002(5) -0.003(5) -0.013(5)
O75B 0.031(9) 0.050(11) 0.064(12) -0.025(10) 0.010(8) 0.000(8)
C56A 0.051(4) 0.039(4) 0.062(5) -0.004(4) -0.004(4) 0.007(3)
N51A 0.050(9) 0.057(10) 0.043(9) -0.021(7) 0.008(7) -0.007(6)
C55A 0.042(8) 0.053(10) 0.038(7) -0.027(7) -0.002(6) -0.009(6)
C54A 0.040(8) 0.042(8) 0.070(9) -0.009(7) 0.010(7) -0.013(6)
C53A 0.054(10) 0.041(10) 0.070(10) -0.014(9) 0.020(8) -0.003(7)
N52A 0.075(11) 0.038(8) 0.055(8) -0.011(7) 0.019(8) 0.008(7)
C50A 0.045(6) 0.056(8) 0.076(9) 0.000 0.009(6) 0.000
N41A 0.031(8) 0.053(9) 0.089(13) 0.001(8) 0.024(8) -0.008(6)
N42A 0.067(11) 0.066(12) 0.075(11) -0.030(9) 0.004(10) 0.013(9)
C43A 0.070(13) 0.069(14) 0.063(10) -0.030(10) -0.016(11) 0.023(10)
C44A 0.044(8) 0.039(8) 0.056(10) -0.001(8) 0.003(9) -0.016(6)
C45A 0.064(12) 0.034(9) 0.065(12) 0.011(9) 0.015(11) -0.007(7)
C46A 0.049(8) 0.033(7) 0.047(7) 0.000(6) -0.002(6) 0.010(6)
C31A 0.037(16) 0.064(7) 0.042(10) 0.000 -0.001(11) 0.000
loop_
_atom_type_symbol
_atom_type_description
_atom_type_scat_dispersion_real
_atom_type_scat_dispersion_imag
_atom_type_scat_source
C C 0.0032 0.0016 'International Tables Vol C Tables 4.2.6.8 and 6.1.1.4'
H H 0.0000 0.0000 'International Tables Vol C Tables 4.2.6.8 and 6.1.1.4'
N N 0.0061 0.0032 'International Tables Vol C Tables 4.2.6.8 and 6.1.1.4'
O O 0.0106 0.0058 'International Tables Vol C Tables 4.2.6.8 and 6.1.1.4'
Zr Zr -5.2998 3.6620 'International Tables Vol C Tables 4.2.6.8 and 6.1.1.4'
loop_
_geom_angle_atom_site_label_1
_geom_angle_atom_site_label_2
_geom_angle_atom_site_label_3
_geom_angle
_geom_angle_site_symmetry_1
_geom_angle_site_symmetry_3
_geom_angle_publ_flag
Zr1 Zr1 Zr1 90.0 4_565 3_655 ?
O1 Zr1 Zr1 38.71(15) . 4_565 ?
O1 Zr1 Zr1 97.19(19) . 3_655 ?
O1 Zr1 Zr2 40.55(18) . . ?
O1 Zr1 Zr3 95.87(17) . . ?
O1 Zr1 O17 73.9(2) . . ?
Zr2 Zr1 Zr1 59.818(19) . 4_565 ?
Zr2 Zr1 Zr1 59.769(19) . 3_655 ?
Zr2 Zr1 Zr3 89.36(3) . . ?
O2 Zr1 Zr1 31.92(18) . 3_655 ?
O2 Zr1 Zr1 82.31(19) . 4_565 ?
O2 Zr1 O1 71.8(3) . . ?
O2 Zr1 Zr2 31.34(19) . . ?
O2 Zr1 Zr3 82.30(17) . . ?
O2 Zr1 O4 69.8(2) . . ?
O2 Zr1 O17 78.4(2) . . ?
O2 Zr1 O28 143.8(2) . 8 ?
O2 Zr1 O71 92.1(3) . . ?
O2 Zr1 O73 142.9(2) . . ?
Zr3 Zr1 Zr1 59.862(19) . 4_565 ?
Zr3 Zr1 Zr1 59.812(19) . 3_655 ?
O3 Zr1 Zr1 31.1(2) . 4_565 ?
O3 Zr1 Zr1 83.0(2) . 3_655 ?
O3 Zr1 O1 69.8(3) . . ?
O3 Zr1 Zr2 82.0(2) . . ?
O3 Zr1 O2 92.2(3) . . ?
O3 Zr1 Zr3 32.4(2) . . ?
O3 Zr1 O4 71.5(3) . . ?
O3 Zr1 O17 143.7(3) . . ?
O3 Zr1 O28 79.9(3) . 8 ?
O3 Zr1 O71 145.2(3) . . ?
O3 Zr1 O73 97.4(2) . . ?
O4 Zr1 Zr1 95.5(2) . 4_565 ?
O4 Zr1 Zr1 37.94(16) . 3_655 ?
O4 Zr1 O1 123.1(3) . . ?
O4 Zr1 Zr2 94.48(18) . . ?
O4 Zr1 Zr3 39.2(2) . . ?
O4 Zr1 O17 133.9(2) . . ?
O17 Zr1 Zr1 103.85(15) . 3_655 ?
O17 Zr1 Zr1 112.59(15) . 4_565 ?
O17 Zr1 Zr2 71.76(16) . . ?
O17 Zr1 Zr3 160.16(16) . . ?
O28 Zr1 Zr1 111.94(14) 8 3_655 ?
O28 Zr1 Zr1 105.29(14) 8 4_565 ?
O28 Zr1 O1 134.7(2) 8 . ?
O28 Zr1 Zr2 161.01(14) 8 . ?
O28 Zr1 Zr3 72.21(14) 8 . ?
O28 Zr1 O4 74.3(2) 8 . ?
O28 Zr1 O17 127.03(19) 8 . ?
O71 Zr1 Zr1 172.5(2) . 4_565 ?
O71 Zr1 Zr1 82.7(2) . 3_655 ?
O71 Zr1 O1 143.6(3) . . ?
O71 Zr1 Zr2 116.9(2) . . ?
O71 Zr1 Zr3 114.6(2) . . ?
O71 Zr1 O4 77.8(3) . . ?
O71 Zr1 O17 70.9(3) . . ?
O71 Zr1 O28 76.3(2) . 8 ?
O73 Zr1 Zr1 87.71(14) . 4_565 ?
O73 Zr1 Zr1 174.76(13) . 3_655 ?
O73 Zr1 O1 78.1(2) . . ?
O73 Zr1 Zr2 115.06(14) . . ?
O73 Zr1 Zr3 122.58(14) . . ?
O73 Zr1 O4 147.0(2) . . ?
O73 Zr1 O17 72.8(2) . . ?
O73 Zr1 O28 73.2(2) . 8 ?
O73 Zr1 O71 99.7(2) . . ?
Zr1 O1 Zr1 102.6(3) 4_565 . ?
Zr1 O1 Zr2 100.1(2) . . ?
Zr1 O1 Zr2 100.1(2) 4_565 . ?
H1A C1 H1B 107.7 . . ?
N11 C1 H1A 108.8 . . ?
N11 C1 H1B 108.8 . . ?
N11 C1 N21 113.8(7) . . ?
N21 C1 H1A 108.8 . . ?
N21 C1 H1B 108.8 . . ?
N52 N51 C55 108.0 . . ?
N52 N51 C50 124.3(11) . . ?
C55 N51 C50 127.3(11) . . ?
C53 N52 N51 108.0 . . ?
N52 C53 H53 126.0 . . ?
N52 C53 C54 108.0 . . ?
C54 C53 H53 126.0 . . ?
C53 C54 C56 128.2(11) . . ?
C55 C54 C53 108.0 . . ?
C55 C54 C56 123.7(11) . . ?
N51 C55 H55 126.0 . . ?
C54 C55 N51 108.0 . . ?
C54 C55 H55 126.0 . . ?
Zr1 Zr2 Zr1 90.72(5) . 2_665 ?
Zr1 Zr2 Zr1 60.36(4) 2_665 3_655 ?
Zr1 Zr2 Zr1 60.46(4) . 3_655 ?
Zr1 Zr2 Zr1 90.72(5) 4_565 3_655 ?
Zr1 Zr2 Zr1 60.46(4) 2_665 4_565 ?
Zr1 Zr2 Zr1 60.36(4) . 4_565 ?
O1 Zr2 Zr1 39.37(12) . . ?
O1 Zr2 Zr1 96.76(18) . 2_665 ?
O1 Zr2 Zr1 39.37(12) 2_665 2_665 ?
O1 Zr2 Zr1 96.76(18) . 3_655 ?
O1 Zr2 Zr1 39.37(12) 2_665 3_655 ?
O1 Zr2 Zr1 96.76(18) 2_665 . ?
O1 Zr2 Zr1 96.76(18) 2_665 4_565 ?
O1 Zr2 Zr1 39.37(12) . 4_565 ?
O1 Zr2 O1 124.4(4) . 2_665 ?
O2 Zr2 Zr1 32.02(6) . 3_655 ?
O2 Zr2 Zr1 32.02(6) 2_665 2_665 ?
O2 Zr2 Zr1 83.33(16) 2_665 3_655 ?
O2 Zr2 Zr1 32.02(6) . . ?
O2 Zr2 Zr1 32.02(6) 2_665 4_565 ?
O2 Zr2 Zr1 83.32(16) . 2_665 ?
O2 Zr2 Zr1 83.32(16) . 4_565 ?
O2 Zr2 Zr1 83.33(16) 2_665 . ?
O2 Zr2 O1 71.35(15) 2_665 . ?
O2 Zr2 O1 71.35(15) . . ?
O2 Zr2 O1 71.35(15) . 2_665 ?
O2 Zr2 O1 71.35(15) 2_665 2_665 ?
O2 Zr2 O2 93.4(4) 2_665 . ?
O2 Zr2 O18 143.28(15) . 2_665 ?
O2 Zr2 O18 85.5(2) 2_665 4_565 ?
O2 Zr2 O18 143.28(15) 2_665 . ?
O2 Zr2 O18 85.5(2) 2_665 2_665 ?
O2 Zr2 O18 143.28(15) 2_665 3_655 ?
O2 Zr2 O18 143.28(15) . 4_565 ?
O2 Zr2 O18 85.5(2) . 3_655 ?
O2 Zr2 O18 85.5(2) . . ?
O18 Zr2 Zr1 167.13(17) 4_565 3_655 ?
O18 Zr2 Zr1 76.42(16) 3_655 3_655 ?
O18 Zr2 Zr1 167.13(17) 2_665 . ?
O18 Zr2 Zr1 76.42(16) 4_565 4_565 ?
O18 Zr2 Zr1 111.94(15) 3_655 2_665 ?
O18 Zr2 Zr1 167.13(17) 3_655 4_565 ?
O18 Zr2 Zr1 76.42(16) 2_665 2_665 ?
O18 Zr2 Zr1 111.50(17) 2_665 4_565 ?
O18 Zr2 Zr1 111.94(15) . 4_565 ?
O18 Zr2 Zr1 167.13(17) . 2_665 ?
O18 Zr2 Zr1 111.50(17) 3_655 . ?
O18 Zr2 Zr1 111.50(17) . 3_655 ?
O18 Zr2 Zr1 76.42(16) . . ?
O18 Zr2 Zr1 111.94(15) 4_565 . ?
O18 Zr2 Zr1 111.50(17) 4_565 2_665 ?
O18 Zr2 Zr1 111.94(15) 2_665 3_655 ?
O18 Zr2 O1 73.6(2) 4_565 . ?
O18 Zr2 O1 140.69(17) 2_665 . ?
O18 Zr2 O1 73.6(2) 3_655 2_665 ?
O18 Zr2 O1 140.69(17) 3_655 . ?
O18 Zr2 O1 140.69(17) 4_565 2_665 ?
O18 Zr2 O1 73.6(2) . . ?
O18 Zr2 O1 140.69(17) . 2_665 ?
O18 Zr2 O1 73.6(2) 2_665 2_665 ?
O18 Zr2 O18 116.4(3) 4_565 3_655 ?
O18 Zr2 O18 74.5(3) . 4_565 ?
O18 Zr2 O18 116.4(3) . 2_665 ?
O18 Zr2 O18 74.5(3) 3_655 2_665 ?
O18 Zr2 O18 73.3(3) . 3_655 ?
O18 Zr2 O18 73.3(3) 4_565 2_665 ?
Zr1 O2 Zr1 116.2(4) . 3_655 ?
Zr2 O2 Zr1 116.6(2) . 3_655 ?
Zr2 O2 Zr1 116.6(2) . . ?
Zr1 Zr3 Zr1 90.56(5) 3_655 4_565 ?
Zr1 Zr3 Zr1 60.37(4) 3_655 . ?
Zr1 Zr3 Zr1 60.37(4) 4_565 2_665 ?
Zr1 Zr3 Zr1 60.27(4) 3_655 2_665 ?
Zr1 Zr3 Zr1 60.28(4) 4_565 . ?
Zr1 Zr3 Zr1 90.56(5) 2_665 . ?
O3 Zr3 Zr1 31.90(7) 2_665 2_665 ?
O3 Zr3 Zr1 31.90(7) . 4_565 ?
O3 Zr3 Zr1 83.2(2) . 2_665 ?
O3 Zr3 Zr1 31.90(7) 2_665 3_655 ?
O3 Zr3 Zr1 83.2(2) . 3_655 ?
O3 Zr3 Zr1 83.2(2) 2_665 4_565 ?
O3 Zr3 Zr1 31.90(7) . . ?
O3 Zr3 Zr1 83.2(2) 2_665 . ?
O3 Zr3 O3 93.1(5) 2_665 . ?
O3 Zr3 O4 70.32(16) 2_665 2_665 ?
O3 Zr3 O4 70.32(16) . 2_665 ?
O3 Zr3 O4 70.31(16) . . ?
O3 Zr3 O4 70.31(16) 2_665 . ?
O3 Zr3 O27 83.5(2) . 8 ?
O3 Zr3 O27 142.36(14) . 6_655 ?
O3 Zr3 O27 142.36(14) 2_665 5 ?
O3 Zr3 O27 83.5(2) 2_665 7_655 ?
O3 Zr3 O27 83.5(2) 2_665 6_655 ?
O3 Zr3 O27 142.36(14) 2_665 8 ?
O3 Zr3 O27 142.36(14) . 7_655 ?
O3 Zr3 O27 83.5(2) . 5 ?
O4 Zr3 Zr1 95.35(18) . 2_665 ?
O4 Zr3 Zr1 95.35(18) 2_665 . ?
O4 Zr3 Zr1 38.53(12) . 3_655 ?
O4 Zr3 Zr1 95.35(18) 2_665 3_655 ?
O4 Zr3 Zr1 38.53(12) 2_665 2_665 ?
O4 Zr3 Zr1 38.53(12) . . ?
O4 Zr3 Zr1 95.35(18) . 4_565 ?
O4 Zr3 Zr1 38.53(12) 2_665 4_565 ?
O4 Zr3 O4 121.4(4) 2_665 . ?
O27 Zr3 Zr1 110.86(14) 7_655 4_565 ?
O27 Zr3 Zr1 74.31(15) 7_655 2_665 ?
O27 Zr3 Zr1 74.31(15) 6_655 3_655 ?
O27 Zr3 Zr1 109.79(16) 5 . ?
O27 Zr3 Zr1 164.85(16) 8 2_665 ?
O27 Zr3 Zr1 109.79(15) 8 4_565 ?
O27 Zr3 Zr1 110.86(14) 5 2_665 ?
O27 Zr3 Zr1 74.31(15) 8 . ?
O27 Zr3 Zr1 110.86(14) 6_655 . ?
O27 Zr3 Zr1 164.85(16) 6_655 4_565 ?
O27 Zr3 Zr1 109.79(15) 6_655 2_665 ?
O27 Zr3 Zr1 110.86(14) 8 3_655 ?
O27 Zr3 Zr1 164.85(16) 5 3_655 ?
O27 Zr3 Zr1 74.31(15) 5 4_565 ?
O27 Zr3 Zr1 164.85(16) 7_655 . ?
O27 Zr3 Zr1 109.79(15) 7_655 3_655 ?
O27 Zr3 O4 140.41(16) 6_655 2_665 ?
O27 Zr3 O4 140.41(16) 7_655 . ?
O27 Zr3 O4 73.3(2) 8 . ?
O27 Zr3 O4 140.41(16) 5 . ?
O27 Zr3 O4 73.3(2) 6_655 . ?
O27 Zr3 O4 73.3(2) 5 2_665 ?
O27 Zr3 O4 73.3(2) 7_655 2_665 ?
O27 Zr3 O4 140.41(16) 8 2_665 ?
O27 Zr3 O27 74.7(3) 8 5 ?
O27 Zr3 O27 120.8(3) 6_655 5 ?
O27 Zr3 O27 77.1(3) 7_655 5 ?
O27 Zr3 O27 74.7(3) 7_655 6_655 ?
O27 Zr3 O27 120.8(3) 7_655 8 ?
O27 Zr3 O27 77.1(3) 8 6_655 ?
Zr1 O3 Zr1 117.8(4) 4_565 . ?
Zr1 O3 Zr3 115.7(2) 4_565 . ?
Zr1 O3 Zr3 115.7(2) . . ?
Zr5 Zr4 Zr4 59.87(5) . 3 ?
Zr5 Zr4 Zr6 89.19(8) . . ?
Zr5 Zr4 Zr7 59.86(7) . . ?
Zr6 Zr4 Zr4 59.97(5) . 3 ?
Zr7 Zr4 Zr4 89.80(5) . 3 ?
Zr7 Zr4 Zr6 59.13(7) . . ?
O9 Zr4 Zr4 84.7(3) . 3 ?
O9 Zr4 Zr5 84.7(3) . . ?
O9 Zr4 Zr6 32.0(3) . . ?
O9 Zr4 Zr7 32.7(3) . . ?
O9 Zr4 O10 72.6(5) . . ?
O9 Zr4 O14 70.1(4) . . ?
O9 Zr4 O58A 74.4(4) . . ?
O9 Zr4 O48 144.8(5) . . ?
O10 Zr4 Zr4 39.9(3) . 3 ?
O10 Zr4 Zr5 97.0(3) . . ?
O10 Zr4 Zr6 40.7(3) . . ?
O10 Zr4 Zr7 97.1(3) . . ?
O10 Zr4 O58A 71.9(4) . . ?
O13 Zr4 Zr4 32.4(6) . 3 ?
O13 Zr4 Zr5 33.5(5) . . ?
O13 Zr4 Zr6 85.0(9) . . ?
O13 Zr4 Zr7 85.8(8) . . ?
O13 Zr4 O9 98.4(10) . . ?
O13 Zr4 O10 72.3(7) . . ?
O13 Zr4 O14 74.2(7) . . ?
O13 Zr4 O58A 143.9(7) . . ?
O13 Zr4 O48 73.9(9) . . ?
O14 Zr4 Zr4 96.8(3) . 3 ?
O14 Zr4 Zr5 40.7(4) . . ?
O14 Zr4 Zr6 94.0(3) . . ?
O14 Zr4 Zr7 37.4(3) . . ?
O14 Zr4 O10 124.5(5) . . ?
O14 Zr4 O58A 131.6(5) . . ?
O14 Zr4 O48 74.8(5) . . ?
O58A Zr4 Zr4 111.8(3) . 3 ?
O58A Zr4 Zr5 158.5(3) . . ?
O58A Zr4 Zr6 70.3(3) . . ?
O58A Zr4 Zr7 102.4(3) . . ?
O48 Zr4 Zr4 102.0(4) . 3 ?
O48 Zr4 Zr5 69.9(4) . . ?
O48 Zr4 Zr6 158.0(4) . . ?
O48 Zr4 Zr7 112.2(4) . . ?
O48 Zr4 O10 132.8(5) . . ?
O48 Zr4 O58A 131.2(5) . . ?
Zr1 O4 Zr1 104.1(3) 3_655 . ?
Zr1 O4 Zr3 102.3(3) . . ?
Zr1 O4 Zr3 102.3(3) 3_655 . ?
Zr4 Zr5 Zr4 60.25(10) . 3 ?
Zr7 Zr5 Zr4 60.20(7) . . ?
Zr7 Zr5 Zr4 60.20(7) 3 3 ?
Zr7 Zr5 Zr4 90.21(9) . 3 ?
Zr7 Zr5 Zr4 90.21(9) 3 . ?
Zr7 Zr5 Zr7 59.84(9) 3 . ?
O12 Zr5 Zr4 83.4(5) . . ?
O12 Zr5 Zr4 83.4(5) . 3 ?
O12 Zr5 Zr7 31.90(19) . . ?
O12 Zr5 Zr7 31.90(19) . 3 ?
O12 Zr5 O13 96.7(11) . . ?
O12 Zr5 O14 70.5(4) . 3 ?
O12 Zr5 O14 70.5(4) . . ?
O12 Zr5 O47 144.7(5) . . ?
O12 Zr5 O47 144.7(5) . 3 ?
O12 Zr5 O58 84.0(6) . 3 ?
O12 Zr5 O58 84.1(6) . . ?
O13 Zr5 Zr4 33.1(4) . 3 ?
O13 Zr5 Zr4 33.1(4) . . ?
O13 Zr5 Zr7 85.8(8) . 3 ?
O13 Zr5 Zr7 85.8(8) . . ?
O13 Zr5 O14 70.1(5) . 3 ?
O13 Zr5 O14 70.1(5) . . ?
O13 Zr5 O47 81.9(9) . 3 ?
O13 Zr5 O47 81.9(9) . . ?
O13 Zr5 O58 142.3(4) . 3 ?
O13 Zr5 O58 142.3(4) . . ?
O14 Zr5 Zr4 93.8(3) 3 . ?
O14 Zr5 Zr4 37.0(3) 3 3 ?
O14 Zr5 Zr4 37.0(3) . . ?
O14 Zr5 Zr4 93.8(3) . 3 ?
O14 Zr5 Zr7 38.8(3) . . ?
O14 Zr5 Zr7 38.8(3) 3 3 ?
O14 Zr5 Zr7 94.6(3) . 3 ?
O14 Zr5 Zr7 94.6(3) 3 . ?
O14 Zr5 O14 119.0(6) 3 . ?
O47 Zr5 Zr4 110.1(4) . 3 ?
O47 Zr5 Zr4 76.5(5) 3 3 ?
O47 Zr5 Zr4 110.1(4) 3 . ?
O47 Zr5 Zr4 76.5(5) . . ?
O47 Zr5 Zr7 166.5(5) . 3 ?
O47 Zr5 Zr7 113.5(5) . . ?
O47 Zr5 Zr7 166.5(5) 3 . ?
O47 Zr5 Zr7 113.5(5) 3 3 ?
O47 Zr5 O14 138.7(5) . 3 ?
O47 Zr5 O14 138.7(5) 3 . ?
O47 Zr5 O14 76.1(6) . . ?
O47 Zr5 O14 76.1(6) 3 3 ?
O47 Zr5 O47 70.3(9) 3 . ?
O47 Zr5 O58 118.2(6) . 3 ?
O47 Zr5 O58 76.5(5) 3 3 ?
O47 Zr5 O58 76.5(5) . . ?
O47 Zr5 O58 118.2(6) 3 . ?
O58 Zr5 Zr4 110.7(4) 3 3 ?
O58 Zr5 Zr4 165.4(4) 3 . ?
O58 Zr5 Zr4 110.7(4) . . ?
O58 Zr5 Zr4 165.4(4) . 3 ?
O58 Zr5 Zr7 75.1(4) . . ?
O58 Zr5 Zr7 110.7(4) 3 . ?
O58 Zr5 Zr7 75.1(4) 3 3 ?
O58 Zr5 Zr7 110.7(4) . 3 ?
O58 Zr5 O14 74.8(5) . . ?
O58 Zr5 O14 142.4(5) 3 . ?
O58 Zr5 O14 142.4(5) . 3 ?
O58 Zr5 O14 74.8(5) 3 3 ?
O58 Zr5 O58 75.5(9) . 3 ?
Zr4 Zr6 Zr4 60.06(10) 3 . ?
Zr7 Zr6 Zr4 60.42(7) 3 3 ?
Zr7 Zr6 Zr4 60.42(7) . . ?
Zr7 Zr6 Zr4 90.60(9) 3 . ?
Zr7 Zr6 Zr4 90.60(9) . 3 ?
Zr7 Zr6 Zr7 60.49(9) . 3 ?
O9 Zr6 Zr4 32.8(3) 3 3 ?
O9 Zr6 Zr4 85.5(3) . 3 ?
O9 Zr6 Zr4 32.8(3) . . ?
O9 Zr6 Zr4 85.5(3) 3 . ?
O9 Zr6 Zr7 33.2(3) 3 3 ?
O9 Zr6 Zr7 33.2(3) . . ?
O9 Zr6 Zr7 86.0(3) 3 . ?
O9 Zr6 Zr7 86.0(3) . 3 ?
O9 Zr6 O9 99.1(6) 3 . ?
O9 Zr6 O10 72.9(4) . . ?
O9 Zr6 O10 72.9(4) 3 . ?
O9 Zr6 O11 72.9(4) . . ?
O9 Zr6 O11 72.9(4) 3 . ?
O9 Zr6 O57A 144.4(5) 3 . ?
O9 Zr6 O57A 81.8(5) 3 3 ?
O9 Zr6 O57A 81.8(5) . . ?
O9 Zr6 O57A 144.4(5) . 3 ?
O9 Zr6 O48A 142.6(5) 3 . ?
O9 Zr6 O48A 84.0(5) . . ?
O9 Zr6 O48A 84.0(5) 3 3 ?
O9 Zr6 O48A 142.6(5) . 3 ?
O10 Zr6 Zr4 40.1(2) . . ?
O10 Zr6 Zr4 40.1(2) . 3 ?
O10 Zr6 Zr7 97.8(3) . . ?
O10 Zr6 Zr7 97.8(3) . 3 ?
O11 Zr6 Zr4 97.0(4) . . ?
O11 Zr6 Zr4 97.0(4) . 3 ?
O11 Zr6 Zr7 39.7(3) . 3 ?
O11 Zr6 Zr7 39.7(3) . . ?
O11 Zr6 O10 126.1(6) . . ?
O11 Zr6 O48A 72.5(5) . 3 ?
O11 Zr6 O48A 72.5(5) . . ?
O57A Zr6 Zr4 113.0(4) 3 . ?
O57A Zr6 Zr4 76.2(4) . . ?
O57A Zr6 Zr4 76.2(4) 3 3 ?
O57A Zr6 Zr4 113.0(4) . 3 ?
O57A Zr6 Zr7 166.6(4) 3 . ?
O57A Zr6 Zr7 109.9(4) 3 3 ?
O57A Zr6 Zr7 166.7(4) . 3 ?
O57A Zr6 Zr7 109.9(4) . . ?
O57A Zr6 O10 73.5(5) . . ?
O57A Zr6 O10 73.5(5) 3 . ?
O57A Zr6 O11 138.8(4) . . ?
O57A Zr6 O11 138.8(4) 3 . ?
O57A Zr6 O57A 77.9(7) . 3 ?
O57A Zr6 O48A 73.0(5) 3 3 ?
O57A Zr6 O48A 116.8(5) . 3 ?
O57A Zr6 O48A 116.8(5) 3 . ?
O57A Zr6 O48A 73.0(5) . . ?
O48A Zr6 Zr4 167.0(4) 3 . ?
O48A Zr6 Zr4 112.5(4) . . ?
O48A Zr6 Zr7 76.4(3) . . ?
O48A Zr6 Zr7 111.1(3) 3 . ?
O48A Zr6 O10 141.4(4) 3 . ?
O48A Zr6 O10 141.4(4) . . ?
O48A Zr6 O48A 72.5(7) 3 . ?
Zr5 Zr7 Zr4 59.94(7) . . ?
Zr6 Zr7 Zr4 60.45(7) . . ?
Zr6 Zr7 Zr5 89.99(8) . . ?
Zr6 Zr7 Zr7 59.76(4) . 3 ?
Zr7 Zr7 Zr4 90.20(6) 3 . ?
Zr7 Zr7 Zr5 60.08(4) 3 . ?
O9 Zr7 Zr4 33.1(3) . . ?
O9 Zr7 Zr5 85.2(3) . . ?
O9 Zr7 Zr6 32.8(3) . . ?
O9 Zr7 Zr7 85.0(3) . 3 ?
O9 Zr7 O11 70.8(5) . . ?
O9 Zr7 O14 69.3(4) . . ?
O9 Zr7 O47A 79.2(5) . . ?
O9 Zr7 O57 148.0(4) . . ?
O9 Zr7 O77 141.6(5) . . ?
O9 Zr7 O81 91.4(5) . . ?
O11 Zr7 Zr4 95.5(4) . . ?
O11 Zr7 Zr5 96.2(3) . . ?
O11 Zr7 Zr6 38.0(4) . . ?
O11 Zr7 Zr7 39.6(3) . 3 ?
O11 Zr7 O77 72.4(5) . . ?
O12 Zr7 Zr4 83.2(5) . . ?
O12 Zr7 Zr5 31.9(4) . . ?
O12 Zr7 Zr6 83.1(5) . . ?
O12 Zr7 Zr7 32.1(4) . 3 ?
O12 Zr7 O9 95.9(6) . . ?
O12 Zr7 O11 71.6(5) . . ?
O12 Zr7 O14 72.8(5) . . ?
O12 Zr7 O47A 142.2(6) . . ?
O12 Zr7 O57 75.1(6) . . ?
O12 Zr7 O77 82.5(6) . . ?
O12 Zr7 O81 145.0(5) . . ?
O14 Zr7 Zr4 36.1(3) . . ?
O14 Zr7 Zr5 41.1(3) . . ?
O14 Zr7 Zr6 94.0(3) . . ?
O14 Zr7 Zr7 96.9(3) . 3 ?
O14 Zr7 O11 122.2(5) . . ?
O14 Zr7 O77 143.3(6) . . ?
O47A Zr7 Zr4 107.9(4) . . ?
O47A Zr7 Zr5 162.5(4) . . ?
O47A Zr7 Zr6 72.6(4) . . ?
O47A Zr7 O11 71.4(5) . . ?
O47A Zr7 O14 136.0(5) . . ?
O47A Zr7 O77 79.2(6) . . ?
O47A Zr7 O81 72.8(5) . . ?
O57 Zr7 Zr4 114.9(3) . . ?
O57 Zr7 Zr5 70.9(3) . . ?
O57 Zr7 Zr6 158.2(4) . . ?
O57 Zr7 Zr7 100.3(4) . 3 ?
O57 Zr7 O11 131.2(5) . . ?
O57 Zr7 O14 78.8(4) . . ?
O57 Zr7 O47A 126.5(5) . . ?
O57 Zr7 O77 68.7(5) . . ?
O57 Zr7 O81 80.7(5) . . ?
O77 Zr7 Zr4 163.7(4) . . ?
O77 Zr7 Zr5 109.4(5) . . ?
O77 Zr7 Zr6 109.8(3) . . ?
O77 Zr7 Zr7 73.5(3) . 3 ?
O81 Zr7 Zr4 84.6(3) . . ?
O81 Zr7 Zr5 115.7(3) . . ?
O81 Zr7 Zr6 118.3(3) . . ?
O81 Zr7 Zr7 174.6(3) . 3 ?
O81 Zr7 O11 142.3(5) . . ?
O81 Zr7 O14 78.0(5) . . ?
O81 Zr7 O77 111.8(4) . . ?
Zr6 O9 Zr4 115.2(5) . . ?
Zr6 O9 Zr7 113.9(6) . . ?
Zr7 O9 Zr4 114.2(5) . . ?
Zr4 O10 Zr4 100.2(6) 3 . ?
Zr4 O10 Zr6 99.2(4) . . ?
Zr4 O10 Zr6 99.2(4) 3 . ?
Zr6 O11 Zr7 102.3(5) . . ?
Zr6 O11 Zr7 102.3(5) . 3 ?
Zr7 O11 Zr7 100.9(6) . 3 ?
N12 N11 C1 118.2(9) . . ?
C15 N11 C1 124.6(10) . . ?
C15 N11 N12 115.8(8) . . ?
Zr5 O12 Zr7 116.2(5) . . ?
Zr5 O12 Zr7 116.2(5) . 3 ?
Zr7 O12 Zr7 115.7(9) 3 . ?
N11 N12 C13 103.3(8) . . ?
Zr4 O13 Zr4 115.2(12) 3 . ?
Zr4 O13 Zr5 113.4(8) 3 . ?
Zr4 O13 Zr5 113.4(8) . . ?
N12 C13 H13 125.1 . . ?
N12 C13 C14 109.8(9) . . ?
C14 C13 H13 125.1 . . ?
Zr4 O14 Zr5 102.3(5) . . ?
Zr4 O14 Zr7 106.4(5) . . ?
Zr7 O14 Zr5 100.1(5) . . ?
C13 C14 C15 108.5(7) . . ?
C13 C14 C16 126.8(8) . . ?
C15 C14 C16 124.7(7) . . ?
N11 C15 C14 102.2(8) . . ?
N11 C15 H15 128.9 . . ?
C14 C15 H15 128.9 . . ?
O17 C16 C14 112.2(7) . . ?
O18 C16 C14 120.7(7) . . ?
O18 C16 O17 126.9(7) . . ?
C16 O17 Zr1 133.9(5) . . ?
C16 O18 Zr2 129.9(5) . . ?
C56A O57A Zr6 132.6(13) . . ?
N22 N21 C1 117.8(8) . . ?
C25 N21 C1 131.8(9) . . ?
C25 N21 N22 110.4(6) . . ?
C46A O47A Zr7 134.7(12) . . ?
C23 N22 N21 103.7(6) . . ?
C56A O58A Zr4 134.8(12) . . ?
N22 C23 H23 122.6 . . ?
N22 C23 C24 114.9(7) . . ?
C24 C23 H23 122.6 . . ?
C23 C24 C26 133.6(7) . . ?
C25 C24 C23 102.6(7) . . ?
C25 C24 C26 123.2(7) . . ?
C46A O48A Zr6 125.5(11) . . ?
N21 C25 C24 108.1(7) . . ?
N21 C25 H25 125.9 . . ?
C24 C25 H25 125.9 . . ?
O27 C26 C24 116.2(7) . . ?
O28 C26 C24 118.0(7) . . ?
O28 C26 O27 125.5(7) . . ?
C26 O27 Zr3 130.9(5) . 5_544 ?
C26 O28 Zr1 134.8(5) . 8_554 ?
H31A C31 H31B 109.5 . . ?
N41 C31 H31A 111.8 4 . ?
N41 C31 H31A 111.8 . . ?
N41 C31 H31B 111.8 4 . ?
N41 C31 H31B 111.8 . . ?
N41 C31 N41 100(6) . 4 ?
N41 N42 C43 108.0 . . ?
C31 N41 N42 116(5) . . ?
C31 N41 C45 136(5) . . ?
N42 N41 C45 108.0 . . ?
N41 C45 H45 126.0 . . ?
N41 C45 C44 108.0 . . ?
C44 C45 H45 126.0 . . ?
C45 C44 C43 108.0 . . ?
C45 C44 C46 116.8(11) . . ?
C43 C44 C46 135.0(12) . . ?
N42 C43 C44 108.0 . . ?
N42 C43 H43 126.0 . . ?
C44 C43 H43 126.0 . . ?
O47 C46 C44 113.4(15) . . ?
O48 C46 C44 120.8(15) . . ?
O48 C46 O47 124.2(16) . . ?
C46 O47 Zr5 129.3(14) . . ?
C46 O48 Zr4 139.1(11) . . ?
N51 C50 N51 110.5(15) . 4_565 ?
N51 C50 H50A 109.6 4_565 . ?
N51 C50 H50A 109.6 . . ?
N51 C50 H50B 109.6 4_565 . ?
N51 C50 H50B 109.6 . . ?
H50A C50 H50B 108.1 . . ?
O57 C56 C54 120.5(14) . . ?
O57 C56 O58 124.3(15) . . ?
O58 C56 C54 115.0(13) . . ?
C56 O57 Zr7 138.3(10) . . ?
C56 O58 Zr5 128.3(11) . . ?
O61 C62 H62 117.6 . . ?
O61 C62 N63 124.7(11) . . ?
N63 C62 H62 117.6 . . ?
C62 N63 C65 112.0(10) . . ?
C62 N63 C64 113.8(14) . . ?
C64 N63 C65 134.2(15) . . ?
N63 C65 H65A 109.5 . . ?
N63 C65 H65B 109.5 . . ?
N63 C65 H65C 109.5 . . ?
H65A C65 H65B 109.5 . . ?
H65A C65 H65C 109.5 . . ?
H65B C65 H65C 109.5 . . ?
C74A O73 Zr1 136.2(6) . . ?
O73 C74A O75A 121.5(9) . . ?
O73 C74A O75B 119.9(12) . . ?
C74A O75A O75A 122.9(6) . 4_565 ?
O57A C56A C54A 116.8(16) . . ?
O58A C56A O57A 125.2(17) . . ?
O58A C56A C54A 117.7(15) . . ?
C55A N51A N52A 108.0 . . ?
C50A N51A C55A 133.4(12) 5_544 . ?
C50A N51A N52A 118.3(12) 5_544 . ?
N51A C55A H55A 126.0 . . ?
C54A C55A N51A 108.0 . . ?
C54A C55A H55A 126.0 . . ?
C56A C54A C55A 124.1(12) . . ?
C56A C54A C53A 127.8(12) . . ?
C53A C54A C55A 108.0 . . ?
C54A C53A H53A 126.0 . . ?
C54A C53A N52A 108.0 . . ?
N52A C53A H53A 126.0 . . ?
C53A N52A N51A 108.0 . . ?
N51A C50A H50C 111.2 8 . ?
N51A C50A H50C 111.2 5 . ?
N51A C50A H50D 111.2 8 . ?
N51A C50A H50D 111.2 5 . ?
H50C C50A H50D 109.1 . . ?
N42A N41A C45A 108.0 . . ?
C31A N41A N42A 124(5) . . ?
C31A N41A C45A 128(5) . . ?
N41A N42A C43A 108.0 . . ?
N42A C43A H43A 126.0 . . ?
N42A C43A C44A 108.0 . . ?
C44A C43A H43A 126.0 . . ?
C45A C44A C43A 108.0 . . ?
N41A C45A H45A 126.0 . . ?
C44A C45A N41A 108.0 . . ?
C44A C45A H45A 126.0 . . ?
O47A C46A O48A 130.1(16) . . ?
N41A C31A H31C 107.8 . . ?
N41A C31A H31C 107.8 4 . ?
N41A C31A H31D 107.8 . . ?
N41A C31A H31D 107.8 4 . ?
H31C C31A H31D 107.2 . . ?
N63 C64 H64A 109.5 . . ?
N63 C64 H64B 109.5 . . ?
N63 C64 H64C 109.5 . . ?
H64A C64 H64B 109.5 . . ?
H64A C64 H64C 109.5 . . ?
H64B C64 H64C 109.5 . . ?
loop_
_geom_bond_atom_site_label_1
_geom_bond_atom_site_label_2
_geom_bond_distance
_geom_bond_site_symmetry_2
_geom_bond_publ_flag
Zr1 Zr1 3.5175(17) 4_565 ?
Zr1 Zr1 3.5227(17) 3_655 ?
Zr1 O1 2.254(5) . ?
Zr1 Zr2 3.4983(16) . ?
Zr1 O2 2.075(4) . ?
Zr1 Zr3 3.5029(16) . ?
Zr1 O3 2.054(5) . ?
Zr1 O4 2.233(5) . ?
Zr1 O17 2.263(6) . ?
Zr1 O28 2.223(5) 8 ?
Zr1 O71 2.215(5) . ?
Zr1 O73 2.194(5) . ?
O1 Zr2 2.310(7) . ?
C1 H1A 0.9900 . ?
C1 H1B 0.9900 . ?
C1 N11 1.414(13) . ?
C1 N21 1.471(11) . ?
N51 N52 1.4200 . ?
N51 C55 1.4200 . ?
N51 C50 1.456(13) . ?
N52 C53 1.4200 . ?
C53 H53 0.9500 . ?
C53 C54 1.4200 . ?
C54 C55 1.4200 . ?
C54 C56 1.469(17) . ?
C55 H55 0.9500 . ?
Zr2 O2 2.036(8) 2_665 ?
Zr2 O2 2.036(8) . ?
Zr2 O18 2.253(6) 4_565 ?
Zr2 O18 2.253(6) . ?
Zr2 O18 2.253(6) 2_665 ?
Zr2 O18 2.253(6) 3_655 ?
Zr3 O3 2.083(8) 2_665 ?
Zr3 O3 2.083(8) . ?
Zr3 O4 2.264(8) 2_665 ?
Zr3 O4 2.264(8) . ?
Zr3 O27 2.228(6) 5 ?
Zr3 O27 2.228(6) 7_655 ?
Zr3 O27 2.228(6) 8 ?
Zr3 O27 2.228(6) 6_655 ?
Zr4 Zr4 3.530(5) 3 ?
Zr4 Zr5 3.517(4) . ?
Zr4 Zr6 3.527(4) . ?
Zr4 Zr7 3.526(3) . ?
Zr4 O9 2.113(11) . ?
Zr4 O10 2.302(10) . ?
Zr4 O13 2.091(14) . ?
Zr4 O14 2.167(12) . ?
Zr4 O58A 2.335(14) . ?
Zr4 O48 2.213(13) . ?
Zr5 Zr7 3.514(4) 3 ?
Zr5 Zr7 3.514(4) . ?
Zr5 O12 2.069(17) . ?
Zr5 O13 2.12(2) . ?
Zr5 O14 2.347(13) 3 ?
Zr5 O14 2.347(13) . ?
Zr5 O47 2.169(14) . ?
Zr5 O47 2.169(14) 3 ?
Zr5 O58 2.197(12) . ?
Zr5 O58 2.197(12) 3 ?
Zr6 Zr7 3.480(4) . ?
Zr6 Zr7 3.480(4) 3 ?
Zr6 O9 2.063(12) 3 ?
Zr6 O9 2.063(12) . ?
Zr6 O10 2.329(13) . ?
Zr6 O11 2.194(15) . ?
Zr6 O57A 2.165(13) 3 ?
Zr6 O57A 2.164(13) . ?
Zr6 O48A 2.234(13) 3 ?
Zr6 O48A 2.234(13) . ?
Zr7 Zr7 3.505(4) 3 ?
Zr7 O9 2.087(11) . ?
Zr7 O11 2.273(10) . ?
Zr7 O12 2.070(10) . ?
Zr7 O14 2.235(13) . ?
Zr7 O47A 2.201(14) . ?
Zr7 O57 2.130(12) . ?
Zr7 O77 2.286(13) . ?
Zr7 O81 2.212(12) . ?
N11 N12 1.360(14) . ?
N11 C15 1.358(11) . ?
N12 C13 1.364(11) . ?
C13 H13 0.9500 . ?
C13 C14 1.392(12) . ?
C14 C15 1.409(11) . ?
C14 C16 1.495(10) . ?
C15 H15 0.9500 . ?
C16 O17 1.320(10) . ?
C16 O18 1.219(10) . ?
O57A C56A 1.291(18) . ?
N21 N22 1.403(10) . ?
N21 C25 1.329(12) . ?
O47A C46A 1.22(2) . ?
N22 C23 1.241(11) . ?
O58A C56A 1.222(19) . ?
C23 H23 0.9500 . ?
C23 C24 1.415(9) . ?
C24 C25 1.356(12) . ?
C24 C26 1.448(10) . ?
O48A C46A 1.32(2) . ?
C25 H25 0.9500 . ?
C26 O27 1.280(10) . ?
C26 O28 1.224(10) . ?
C31 H31A 0.9900 . ?
C31 H31B 0.9900 . ?
C31 N41 1.39(5) 4 ?
C31 N41 1.39(5) . ?
N42 N41 1.4200 . ?
N42 C43 1.4200 . ?
N41 C45 1.4200 . ?
C45 H45 0.9500 . ?
C45 C44 1.4200 . ?
C44 C43 1.4200 . ?
C44 C46 1.479(17) . ?
C43 H43 0.9500 . ?
C46 O47 1.303(18) . ?
C46 O48 1.251(19) . ?
C50 H50A 0.9900 . ?
C50 H50B 0.9900 . ?
C56 O57 1.286(17) . ?
C56 O58 1.304(18) . ?
O61 C62 1.221(14) . ?
C62 H62 0.9500 . ?
C62 N63 1.376(16) . ?
N63 C65 1.539(18) . ?
N63 C64 1.49(3) . ?
C65 H65A 0.9800 . ?
C65 H65B 0.9800 . ?
C65 H65C 0.9800 . ?
O73 C74A 1.239(10) . ?
C74A O75A 1.350(12) . ?
C74A O75B 1.47(2) . ?
O75A O75A 1.496(19) 4_565 ?
C56A C54A 1.42(2) . ?
N51A C55A 1.4200 . ?
N51A N52A 1.4200 . ?
N51A C50A 1.303(13) 5_544 ?
C55A H55A 0.9500 . ?
C55A C54A 1.4200 . ?
C54A C53A 1.4200 . ?
C53A H53A 0.9500 . ?
C53A N52A 1.4200 . ?
C50A H50C 0.9900 . ?
C50A H50D 0.9900 . ?
N41A N42A 1.4200 . ?
N41A C45A 1.4200 . ?
N41A C31A 1.36(5) . ?
N42A C43A 1.4200 . ?
C43A H43A 0.9500 . ?
C43A C44A 1.4200 . ?
C44A C45A 1.4200 . ?
C45A H45A 0.9500 . ?
C31A H31C 0.9900 . ?
C31A H31D 0.9900 . ?
C64 H64A 0.9800 . ?
C64 H64B 0.9800 . ?
C64 H64C 0.9800 . ?
loop_
_geom_torsion_atom_site_label_1
_geom_torsion_atom_site_label_2
_geom_torsion_atom_site_label_3
_geom_torsion_atom_site_label_4
_geom_torsion
_geom_torsion_site_symmetry_1
_geom_torsion_site_symmetry_2
_geom_torsion_site_symmetry_3
_geom_torsion_site_symmetry_4
_geom_torsion_publ_flag
Zr1 O73 C74A O75A -27.5(15) . . . . ?
Zr1 O73 C74A O75B -178.5(10) . . . . ?
C1 N11 N12 C13 -174.9(8) . . . . ?
C1 N11 C15 C14 171.2(8) . . . . ?
C1 N21 N22 C23 -176.0(8) . . . . ?
C1 N21 C25 C24 178.9(9) . . . . ?
N51 N52 C53 C54 0.0 . . . . ?
N52 N51 C55 C54 0.0 . . . . ?
N52 N51 C50 N51 -94.4(16) . . . 4_565 ?
N52 C53 C54 C55 0.0 . . . . ?
N52 C53 C54 C56 -177.8(18) . . . . ?
C53 C54 C55 N51 0.0 . . . . ?
C53 C54 C56 O57 176.0(15) . . . . ?
C53 C54 C56 O58 -9(3) . . . . ?
C54 C56 O57 Zr7 163.1(13) . . . . ?
C54 C56 O58 Zr5 174.9(12) . . . . ?
C55 N51 N52 C53 0.0 . . . . ?
C55 N51 C50 N51 77.7(18) . . . 4_565 ?
C55 C54 C56 O57 -1(3) . . . . ?
C55 C54 C56 O58 173.9(15) . . . . ?
Zr4 O58A C56A O57A 12(3) . . . . ?
Zr4 O58A C56A C54A -161.3(12) . . . . ?
Zr6 O57A C56A O58A -3(3) . . . . ?
Zr6 O57A C56A C54A 170.4(11) . . . . ?
Zr6 O48A C46A O47A 7(3) . . . . ?
Zr6 O48A C46A C44A -168(5) . . . 8_554 ?
Zr7 O47A C46A O48A -13(3) . . . . ?
Zr7 O47A C46A C44A 162(5) . . . 8_554 ?
N11 C1 N21 N22 81.5(13) . . . . ?
N11 C1 N21 C25 -100.1(13) . . . . ?
N11 N12 C13 C14 7.1(11) . . . . ?
N12 N11 C15 C14 5.0(10) . . . . ?
N12 C13 C14 C15 -4.5(11) . . . . ?
N12 C13 C14 C16 177.7(8) . . . . ?
C13 C14 C15 N11 -0.1(9) . . . . ?
C13 C14 C16 O17 -178.4(8) . . . . ?
C13 C14 C16 O18 -3.3(13) . . . . ?
C14 C16 O17 Zr1 -174.1(5) . . . . ?
C14 C16 O18 Zr2 -173.7(5) . . . . ?
C15 N11 N12 C13 -7.7(11) . . . . ?
C15 C14 C16 O17 4.1(10) . . . . ?
C15 C14 C16 O18 179.3(7) . . . . ?
C16 C14 C15 N11 177.7(7) . . . . ?
O17 C16 O18 Zr2 0.7(12) . . . . ?
O18 C16 O17 Zr1 11.1(12) . . . . ?
O57A C56A C54A C55A -175.4(14) . . . . ?
O57A C56A C54A C53A 8(3) . . . . ?
N21 C1 N11 N12 73.3(13) . . . . ?
N21 C1 N11 C15 -92.6(13) . . . . ?
N21 N22 C23 C24 -5.9(10) . . . . ?
N22 N21 C25 C24 -2.7(11) . . . . ?
N22 C23 C24 C25 4.5(11) . . . . ?
N22 C23 C24 C26 175.8(9) . . . . ?
O58A C56A C54A C55A -1(3) . . . . ?
O58A C56A C54A C53A -178.1(14) . . . . ?
C23 C24 C25 N21 -0.7(10) . . . . ?
C23 C24 C26 O27 3.8(14) . . . . ?
C23 C24 C26 O28 177.8(9) . . . . ?
C24 C26 O27 Zr3 -173.9(5) . . . 5_544 ?
C24 C26 O28 Zr1 164.8(5) . . . 8_554 ?
C25 N21 N22 C23 5.3(10) . . . . ?
C25 C24 C26 O27 173.6(8) . . . . ?
C25 C24 C26 O28 -12.4(13) . . . . ?
C26 C24 C25 N21 -173.2(8) . . . . ?
O27 C26 O28 Zr1 -21.9(14) . . . 8_554 ?
O28 C26 O27 Zr3 12.7(13) . . . 5_544 ?
C31 N41 C45 C44 178(5) . . . . ?
N42 N41 C45 C44 0.0 . . . . ?
N41 C31 N41 N42 111(5) 4 . . . ?
N41 C31 N41 C45 -67(8) 4 . . . ?
N41 N42 C43 C44 0.0 . . . . ?
N41 C45 C44 C43 0.0 . . . . ?
N41 C45 C44 C46 -175.0(17) . . . . ?
C45 C44 C43 N42 0.0 . . . . ?
C45 C44 C46 O47 -178.6(16) . . . . ?
C45 C44 C46 O48 -13(3) . . . . ?
C44 C46 O47 Zr5 177.9(12) . . . . ?
C44 C46 O48 Zr4 -167.1(14) . . . . ?
C43 N42 N41 C31 -179(4) . . . . ?
C43 N42 N41 C45 0.0 . . . . ?
C43 C44 C46 O47 8(3) . . . . ?
C43 C44 C46 O48 174.0(17) . . . . ?
C46 C44 C43 N42 174(2) . . . . ?
O47 C46 O48 Zr4 -3(4) . . . . ?
O48 C46 O47 Zr5 13(4) . . . . ?
C50 N51 N52 C53 173.4(15) . . . . ?
C50 N51 C55 C54 -173.2(16) . . . . ?
C56 C54 C55 N51 177.9(17) . . . . ?
O57 C56 O58 Zr5 -10(3) . . . . ?
O58 C56 O57 Zr7 -12(4) . . . . ?
O61 C62 N63 C65 0.000(5) . . . . ?
O61 C62 N63 C64 180.000(7) . . . . ?
O73 C74A O75A O75A -79.4(10) . . . 4_565 ?
C56A C54A C53A N52A 177.2(17) . . . . ?
N51A C55A C54A C56A -177.3(17) . . . . ?
N51A C55A C54A C53A 0.0 . . . . ?
C55A N51A N52A C53A 0.0 . . . . ?
C55A C54A C53A N52A 0.0 . . . . ?
C54A C53A N52A N51A 0.0 . . . . ?
N52A N51A C55A C54A 0.0 . . . . ?
C50A N51A C55A C54A -174(2) 5_544 . . . ?
C50A N51A N52A C53A 174.7(16) 5_544 . . . ?
N41A N42A C43A C44A 0.0 . . . . ?
N42A N41A C45A C44A 0.0 . . . . ?
N42A N41A C31A N41A -95(8) . . . 4 ?
N42A C43A C44A C45A 0.0 . . . . ?
C43A C44A C45A N41A 0.0 . . . . ?
C45A N41A N42A C43A 0.0 . . . . ?
C45A N41A C31A N41A 77(8) . . . 4 ?
C31A N41A N42A C43A 173(4) . . . . ?
C31A N41A C45A C44A -173(4) . . . . ?
loop_
_twin_individual_id
_twin_individual_mass_fraction_refined
1 0.492
2 0.508
loop_
_smtbx_masks_void_nr
_smtbx_masks_void_average_x
_smtbx_masks_void_average_y
_smtbx_masks_void_average_z
_smtbx_masks_void_volume
_smtbx_masks_void_count_electrons
_smtbx_masks_void_content
1 0.376 0.000 0.510 1511.1 248.6 '6 DMF'
2 -0.382 0.500 0.010 1511.1 248.6 '6 DMF'
