#------------------------------------------------------------------------------
#$Date: 2022-03-26 00:54:26 +0200 (Sat, 26 Mar 2022) $
#$Revision: 274005 $
#$URL: file:///home/coder/svn-repositories/cod/cif/7/12/98/7129892.cif $
#------------------------------------------------------------------------------
#
# This file is available in the Crystallography Open Database (COD),
# http://www.crystallography.net/
#
# All data on this site have been placed in the public domain by the
# contributors.
#
data_7129892
loop_
_publ_author_name
'Feng, Ying'
'Zou, Ming-Yan'
'Hu, Hao-Chen'
'Li, Wan-Han'
'Cai, Songliang'
'Zhang, Wei-Guang'
'Zheng, Sheng-Run'
_publ_section_title
;
 Amorphous metal-organic frameworks obtained from a crystalline precursor
 for the capture of iodine with high capacities
;
_journal_name_full               'Chemical Communications'
_journal_paper_doi               10.1039/D1CC07229C
_journal_year                    2022
_chemical_formula_moiety         'C90 H60 Co2 N27'
_chemical_formula_sum            'C90 H60 Co2 N27'
_chemical_formula_weight         1637.51
_space_group_crystal_system      trigonal
_space_group_IT_number           155
_space_group_name_Hall           'R 3 2"'
_space_group_name_H-M_alt        'R 3 2 :H'
_atom_sites_solution_hydrogens   geom
_audit_creation_date             2021-08-02
_audit_creation_method
;
Olex2 1.3
(compiled 2020.11.12 svn.r5f609507 for OlexSys, GUI svn.r6272)
;
_audit_update_record
;
2021-12-11 deposited with the CCDC.	2022-03-25 downloaded from the CCDC.
;
_cell_angle_alpha                90
_cell_angle_beta                 90
_cell_angle_gamma                120
_cell_formula_units_Z            3
_cell_length_a                   29.6590(4)
_cell_length_b                   29.6590(4)
_cell_length_c                   20.6874(12)
_cell_measurement_reflns_used    5019
_cell_measurement_temperature    100.01(10)
_cell_measurement_theta_max      64.0990
_cell_measurement_theta_min      4.6760
_cell_volume                     15759.8(10)
_computing_cell_refinement       'CrysAlisPro 1.171.40.84a (Rigaku OD, 2020)'
_computing_data_collection       'CrysAlisPro 1.171.40.84a (Rigaku OD, 2020)'
_computing_data_reduction        'CrysAlisPro 1.171.40.84a (Rigaku OD, 2020)'
_computing_molecular_graphics    'Olex2 1.3 (Dolomanov et al., 2009)'
_computing_publication_material  'Olex2 1.3 (Dolomanov et al., 2009)'
_computing_structure_refinement  'SHELXL 2018/1 (Sheldrick, 2015)'
_computing_structure_solution    'SHELXT 2014/5 (Sheldrick, 2014)'
_diffrn_ambient_environment      N~2~
_diffrn_ambient_temperature      100.01(10)
_diffrn_detector                 'Hybrid Pixel Array Detector'
_diffrn_detector_area_resol_mean 10.0000
_diffrn_measured_fraction_theta_full 0.994
_diffrn_measured_fraction_theta_max 0.977
_diffrn_measurement_details
;
List of Runs (angles in degrees, time in seconds):

  # Type    Start    End  Width  t~exp~   \w     \q     \k     \f   Frames
#--------------------------------------------------------------------------
  1  \w    -36.00  34.00   1.00    3.00    --    0.00 -82.00 -60.00   70
  2  \w     19.00 124.00   1.00   10.00    --  101.30 -57.00  30.00  105
  3  \w    129.00 187.00   1.00   10.00    --  101.30  28.00-157.00   58
  4  \w     20.00 127.00   1.00   10.00    --  101.30 -57.00 150.00  107
  5  \w     64.00  89.00   1.00    3.00    --    0.00  57.00  90.00   25
  6  \w     88.00 174.00   1.00   10.00    --  101.30  38.00  60.00   86
;
_diffrn_measurement_device       'four-circle diffractometer'
_diffrn_measurement_device_type  'XtaLAB AFC12 (RINC): Kappa single'
_diffrn_measurement_method       '\w scans'
_diffrn_orient_matrix_type
'CrysAlisPro convention (1999,Acta A55,543-557)'
_diffrn_orient_matrix_UB_11      0.0226974000
_diffrn_orient_matrix_UB_12      0.0111191000
_diffrn_orient_matrix_UB_13      0.0689116000
_diffrn_orient_matrix_UB_21      0.0382490000
_diffrn_orient_matrix_UB_22      -0.0184796000
_diffrn_orient_matrix_UB_23      -0.0197381000
_diffrn_orient_matrix_UB_31      0.0402536000
_diffrn_orient_matrix_UB_32      0.0559730000
_diffrn_orient_matrix_UB_33      -0.0200810000
_diffrn_radiation_monochromator  mirror
_diffrn_radiation_probe          x-ray
_diffrn_radiation_type           'Cu K\a'
_diffrn_radiation_wavelength     1.54178
_diffrn_reflns_av_R_equivalents  0.0500
_diffrn_reflns_av_unetI/netI     0.0657
_diffrn_reflns_Laue_measured_fraction_full 0.994
_diffrn_reflns_Laue_measured_fraction_max 0.977
_diffrn_reflns_limit_h_max       36
_diffrn_reflns_limit_h_min       -37
_diffrn_reflns_limit_k_max       36
_diffrn_reflns_limit_k_min       -27
_diffrn_reflns_limit_l_max       23
_diffrn_reflns_limit_l_min       -25
_diffrn_reflns_number            18133
_diffrn_reflns_point_group_measured_fraction_full 0.985
_diffrn_reflns_point_group_measured_fraction_max 0.946
_diffrn_reflns_theta_full        67.679
_diffrn_reflns_theta_max         76.213
_diffrn_reflns_theta_min         4.608
_diffrn_source                   'Rotating-anode X-ray tube (dual wavelength)'
_diffrn_source_type              'Rigaku (Cu) X-ray DW Source'
_exptl_absorpt_coefficient_mu    1.439
_exptl_absorpt_correction_T_max  1.00000
_exptl_absorpt_correction_T_min  0.37270
_exptl_absorpt_correction_type   multi-scan
_exptl_absorpt_process_details
;
CrysAlisPro 1.171.40.84a (Rigaku Oxford Diffraction, 2020)
Empirical absorption correction using spherical harmonics,
implemented in SCALE3 ABSPACK scaling algorithm.
;
_exptl_crystal_colour            green
_exptl_crystal_colour_primary    green
_exptl_crystal_density_diffrn    0.518
_exptl_crystal_description       block
_exptl_crystal_F_000             2529
_exptl_crystal_size_max          0.19
_exptl_crystal_size_mid          0.18
_exptl_crystal_size_min          0.18
_refine_diff_density_max         0.921
_refine_diff_density_min         -0.358
_refine_diff_density_rms         0.050
_refine_ls_abs_structure_details
;
 Flack x determined using 1762 quotients [(I+)-(I-)]/[(I+)+(I-)]
 (Parsons, Flack and Wagner, Acta Cryst. B69 (2013) 249-259).
;
_refine_ls_abs_structure_Flack   -0.015(6)
_refine_ls_extinction_method     none
_refine_ls_goodness_of_fit_ref   0.999
_refine_ls_hydrogen_treatment    constr
_refine_ls_matrix_type           full
_refine_ls_number_parameters     182
_refine_ls_number_reflns         6967
_refine_ls_number_restraints     102
_refine_ls_restrained_S_all      1.081
_refine_ls_R_factor_all          0.0906
_refine_ls_R_factor_gt           0.0697
_refine_ls_shift/su_max          0.000
_refine_ls_shift/su_mean         0.000
_refine_ls_structure_factor_coef Fsqd
_refine_ls_weighting_details
'w=1/[\s^2^(Fo^2^)+(0.1515P)^2^] where P=(Fo^2^+2Fc^2^)/3'
_refine_ls_weighting_scheme      calc
_refine_ls_wR_factor_gt          0.1969
_refine_ls_wR_factor_ref         0.2186
_reflns_Friedel_coverage         0.828
_reflns_Friedel_fraction_full    0.975
_reflns_Friedel_fraction_max     0.912
_reflns_number_gt                4977
_reflns_number_total             6967
_reflns_threshold_expression     'I > 2\s(I)'
_cod_data_source_file            d1cc07229c2.cif
_cod_data_source_block           1_sq
_cod_original_sg_symbol_H-M      'R 3 2'
_cod_database_code               7129892
_shelx_shelxl_version_number     2018/1
_shelx_space_group_comment
;
The symmetry employed for this shelxl refinement is uniquely defined
by the following loop, which should always be used as a source of
symmetry information in preference to the above space-group names.
They are only intended as comments.
;
_reflns_odcompleteness_completeness 99.46
_reflns_odcompleteness_iscentric 1
_reflns_odcompleteness_theta     66.97
_olex2_refinement_description
;
1. Fixed Uiso
 At 1.2 times of:
  All C(H) groups
2. Uiso/Uaniso restraints and constraints
Uanis(C1) \\sim Ueq, Uanis(C2) \\sim Ueq, Uanis(C3) \\sim Ueq, Uanis(C4) \\sim
Ueq, Uanis(C5) \\sim Ueq, Uanis(C6) \\sim Ueq, Uanis(C7) \\sim Ueq, Uanis(C8)
\\sim Ueq, Uanis(C9) \\sim Ueq, Uanis(C10) \\sim Ueq, Uanis(C11) \\sim Ueq,
Uanis(C12) \\sim Ueq, Uanis(C13) \\sim Ueq, Uanis(C14) \\sim Ueq, Uanis(C15)
\\sim Ueq, Uanis(C16) \\sim Ueq, Uanis(C17) \\sim Ueq: with sigma of 0.01 and
sigma for terminal atoms of 0.02
3.a Aromatic/amide H refined with riding coordinates:
 C1(H1), C2(H2), C3(H3), C5(H5), C6(H6), C8(H8), C9(H9), C11(H11), C14(H14),
 C15(H15)
;
_shelx_res_file
;
TITL 1_a.res in R32
    1_sq.res
    created by SHELXL-2018/1 at 11:37:29 on 02-Aug-2021
REM Old TITL 1 in R32
REM SHELXT solution in R32
REM R1 0.311, Rweak 0.053, Alpha 0.017, Orientation as input
REM Flack x = 0.055 ( 0.005 ) from Parsons' quotients
REM Formula found by SHELXT: C93 N27 Co2
CELL 1.54178 29.659 29.659 20.6874 90 90 120
ZERR 3 0.0004 0.0004 0.0012 0 0 0
LATT -3
SYMM -Y,+X-Y,+Z
SYMM +Y-X,-X,+Z
SYMM +Y,+X,-Z
SYMM -Y+X,-Y,-Z
SYMM -X,-X+Y,-Z
SFAC C H Co N
UNIT 270 180 6 81
ISOR 0.01 0.02 C1 > C17

L.S. 10 0 99
PLAN  1
CONF
MORE -1
BOND $H
ABIN
fmap 2 53
acta
REM <olex2.extras>
REM <HklSrc "%.\\1_sq.hkl">
REM </olex2.extras>

WGHT    0.151500
FVAR       0.22611
CO1   3    0.333333    0.666667    0.258281    10.33333    0.02607    0.02607 =
         0.09736    0.00000    0.00000    0.01304
N1    4    0.343011    0.731050    0.315450    11.00000    0.04064    0.03660 =
         0.10670   -0.01500   -0.00945    0.01935
N2    4    0.398632    0.805374    0.361465    11.00000    0.03957    0.04876 =
         0.14114   -0.03427   -0.02511    0.02295
N3    4    0.939138    0.995762    0.468738    11.00000    0.03036    0.03413 =
         0.10444   -0.00766   -0.01088    0.01663
N4    4    0.895221    0.993260    0.446559    11.00000    0.03031    0.04516 =
         0.11256   -0.01271   -0.00981    0.02392
N5    4    0.585471    1.000000    0.500000    10.50000    0.04547    0.07127 =
         0.15325   -0.06320   -0.03160    0.03564
C1    1    0.325941    0.765892    0.306804    11.00000    0.05161    0.05349 =
         0.15748   -0.03499   -0.03373    0.03495
AFIX  43
H1    2    0.296061    0.759113    0.284272    11.00000   -1.20000
AFIX   0
C2    1    0.358523    0.810985    0.335492    11.00000    0.06719    0.06311 =
         0.19591   -0.05054   -0.04666    0.04661
AFIX  43
H2    2    0.355045    0.840421    0.337664    11.00000   -1.20000
AFIX   0
C3    1    0.386570    0.756456    0.349031    11.00000    0.04823    0.04452 =
         0.11147   -0.02468   -0.01770    0.02308
AFIX  43
H3    2    0.406481    0.741945    0.362425    11.00000   -1.20000
AFIX   0
C4    1    0.445746    0.844010    0.389989    11.00000    0.04274    0.05847 =
         0.12771   -0.03511   -0.01944    0.02753
C5    1    0.490567    0.842777    0.379838    11.00000    0.04792    0.07356 =
         0.15423   -0.05998   -0.02026    0.03310
AFIX  43
H5    2    0.489854    0.816438    0.354687    11.00000   -1.20000
AFIX   0
C6    1    0.536475    0.879868    0.406275    11.00000    0.05198    0.07375 =
         0.15094   -0.05195   -0.02437    0.03779
AFIX  43
H6    2    0.566665    0.878617    0.398099    11.00000   -1.20000
AFIX   0
C7    1    0.539256    0.919542    0.445185    11.00000    0.04671    0.06335 =
         0.12962   -0.04112   -0.01458    0.03227
C8    1    0.493723    0.920313    0.452778    11.00000    0.06704    0.09069 =
         0.18780   -0.07658   -0.03539    0.05106
AFIX  43
H8    2    0.494340    0.947256    0.476489    11.00000   -1.20000
AFIX   0
C9    1    0.447779    0.883448    0.427180    11.00000    0.05604    0.09432 =
         0.19619   -0.07535   -0.03054    0.04819
AFIX  43
H9    2    0.417603    0.884852    0.434800    11.00000   -1.20000
AFIX   0
C10   1    0.588470    0.960868    0.473671    11.00000    0.05019    0.06788 =
         0.12888   -0.04299   -0.02226    0.03766
C11   1    0.634311    0.958825    0.472986    11.00000    0.04820    0.07036 =
         0.14129   -0.04285   -0.01767    0.03846
AFIX  43
H11   2    0.634950    0.930469    0.454815    11.00000   -1.20000
AFIX   0
C12   1    0.679530    1.000000    0.500000    10.50000    0.04681    0.07937 =
         0.11799   -0.04154   -0.02077    0.03968
C13   1    0.729501    1.000000    0.500000    10.50000    0.04498    0.07494 =
         0.12098   -0.03518   -0.01759    0.03747
C14   1    0.741530    0.976209    0.450616    11.00000    0.04512    0.07383 =
         0.12973   -0.03852   -0.02407    0.03860
AFIX  43
H14   2    0.718292    0.960618    0.416615    11.00000   -1.20000
AFIX   0
C15   1    0.787539    0.975437    0.451416    11.00000    0.04752    0.07319 =
         0.11094   -0.03538   -0.01447    0.03985
AFIX  43
H15   2    0.794395    0.958132    0.418781    11.00000   -1.20000
AFIX   0
C16   1    0.823704    1.000000    0.500000    10.50000    0.03853    0.05839 =
         0.10912   -0.02840   -0.01420    0.02920
C17   1    0.873554    1.000000    0.500000    10.50000    0.03663    0.05097 =
         0.10150   -0.01297   -0.00649    0.02548
HKLF 4




REM  1_a.res in R32
REM R1 =  0.0697 for    4977 Fo > 4sig(Fo)  and  0.0906 for all    6967 data
REM    182 parameters refined using    102 restraints

END

WGHT      0.1514      0.0000

REM Highest difference peak  0.921,  deepest hole -0.358,  1-sigma level  0.050
Q1    1   0.3559  0.6788  0.2220  11.00000  0.05    0.53
;
_shelx_res_checksum              29340
_shelx_hkl_file
;
   0   0   3  805.69   51.99
   0   0  -6 8775.81  571.35
   0   0   6 8938.91  571.20
   0   0  -9  418.42   27.92
   0   0 -12   20.53    4.47
   0   0 -12   13.56    5.35
   0   0 -15   20.26    6.35
   0   0 -18    0.46    7.51
   0   0 -24   -1.39    3.58
   1   0 -23   -3.27    5.04
   0  -1 -23    1.69    4.39
  -1   1 -23    2.08    4.70
  -1   1 -17   15.71    7.32
   1   0 -17   17.60    7.39
   0  -1 -17   16.98    7.20
   1   0 -14    3.23    4.89
  -1   1 -14   -1.89    5.39
   0  -1 -14    1.93    5.31
   0  -1 -11   19.87    5.51
  -1   1 -11   18.02    4.85
   0  -1  -8 1134.88   72.13
   1   0  -8 1074.65   72.05
  -1   1  -8 1139.00   71.98
   0   1   8 1135.27   71.90
  -1   0   8 1081.81   71.67
   1   0  -5 1140.66   73.63
   0   1   5 1159.68   73.56
  -1   0   5 1120.79   73.40
   1   0  -2   21.76    1.96
  -1   0   2   19.53    1.96
   1  -1  -4  262.22   18.22
   0   1  -4  287.33   18.02
  -1   1   4  259.10   18.10
   1   0   4  299.31   18.06
  -1   0  -4  265.69   17.95
   0   1  -7   20.76    3.58
   1  -1  -7   10.28    3.89
  -1   1   7   15.83    3.27
   1  -1 -10    7.47    5.12
  -1   0 -10   14.60    4.70
   0   1 -10    6.24    4.08
  -1   0 -13    6.59    4.97
   1  -1 -13    7.66    4.47
   0   1 -16   34.43    7.09
  -1   0 -16   36.70    7.55
   1  -1 -16   34.58    7.09
  -1   0 -22   11.40    5.31
   0   1 -22   12.82    6.24
   1  -1 -25   -2.89    2.54
  -1   0 -25    0.19    2.27
   0   1 -25    1.31    2.62
  -2   1   3 3881.33  236.88
   1   1   3 3512.94  236.80
   1  -2  -3 3668.71  236.80
   1   1  -6  574.82   38.67
   1  -2  -6  565.96   38.82
  -2   1   6  592.84   38.67
   1   1   6  643.79   38.78
   1  -2  -9   14.75    4.74
  -2   1  -9   12.17    3.85
  -2   1   9   11.01    3.31
   1  -2 -12   25.30    4.78
  -2   1 -12   18.29    4.66
  -2   1 -12   27.96    5.55
   1  -2 -12   16.21    5.70
  -2   1 -15   11.71    6.20
   1  -2 -15   14.02    6.16
   1  -2 -18   19.76    7.43
   1   1 -18    5.55    7.74
  -2   1 -24   -3.50    3.35
   1  -2 -24   -0.35    3.39
   1   1 -24   -0.04    3.85
  -1  -1   3 3682.15  238.19
   2  -1  -3 3755.71  238.31
  -1   2   3 3778.28  238.31
  -1  -1  -3 3618.38  238.23
  -1   2  -6  358.23   21.84
   2  -1  -6  354.07   22.26
  -1  -1   6  311.25   21.60
  -1   2   6  337.01   22.07
  -1  -1  -6  330.85   21.84
   2  -1  -9    1.42    4.62
  -1   2  -9    2.35    3.58
  -1   2   9    1.73    3.85
  -1  -1 -12   14.63    4.43
   2  -1 -12   12.32    4.20
  -1  -1 -12    7.32    5.51
  -1  -1 -15   17.10    6.59
   2  -1 -15   13.44    5.97
   2  -1 -18   14.75    7.70
  -1   2 -21   13.90    6.43
  -1   2 -24    2.70    3.62
   2  -1 -24    1.62    3.74
  -1  -1 -24    0.31    3.20
   0  -2 -25   -2.23    2.23
  -2   2 -25    1.31    2.31
   2   0 -25   -0.12    2.66
  -2   2 -22    3.35    5.62
   2   0 -19   -6.43    7.20
   0  -2 -16   17.68    7.16
   2   0 -16   21.84    6.62
   0  -2 -13   15.48    5.12
   2   0 -13   10.36    4.31
   0  -2 -13    5.31    5.78
   0  -2 -10   12.13    4.97
  -2   2 -10   16.52    4.24
   0   2   7 1222.07   73.29
  -2   0   7 1079.77   72.94
  -2   0   4 2346.48  147.69
   0   2   4 2219.62  147.77
   0  -2  -4 2296.33  147.69
   0  -2   2  354.26   22.95
   0   2  -5  624.11   42.48
   2  -2  -5  688.27   42.90
  -2   0  -5  677.87   42.55
  -2   2   5  655.88   42.75
   2  -2  -8   31.19    5.24
  -2   2   8   30.15    4.24
  -2   0 -11   10.86    4.97
   2  -2 -11    9.82    5.62
  -2   2  11   -0.39    4.01
  -2   0 -14    9.47    5.66
   2  -2 -14    9.82    5.12
   2  -2 -17   60.19    8.59
   2  -2 -23    3.58    4.74
   0   2 -23    3.93    5.01
  -2   0 -23   -1.89    4.24
   1  -3 -23    3.00    4.35
   2   1 -23   -5.08    5.12
  -3   2 -23   -4.12    4.08
   2   1 -20    7.51    7.78
   1  -3 -17   82.18    9.63
   1  -3 -14   25.57    6.01
  -3   2 -11  133.36    8.82
   1  -3 -11  136.75    9.74
   1  -3  -8  165.83   12.02
  -3   1   8  157.36   11.28
   1  -3  -5   26.03    3.74
   1   2   5   25.61    4.08
   1  -3  -2  947.41   61.69
   1   2   2  961.16   61.77
   1  -3   1 1318.81   85.07
   2  -3  -4 9576.15  633.12
  -3   1  -4 9999.00  632.93
   2  -3  -7   70.82    6.08
  -3   2   7   57.84    5.58
  -3   1  -7   60.00    4.62
   2  -3 -10   14.33    5.89
  -3   2  10   13.25    3.97
  -3   1 -13    5.01    5.12
   2  -3 -13    4.66    4.81
   2  -3 -16   76.98    8.97
   1   2 -22    3.16    6.28
  -3   1 -22    1.04    4.78
   2  -3 -25    0.08    2.39
  -3   1 -25   -1.73    1.96
   1   2 -25   -2.54    2.73
   2  -4   0 1361.75   88.73
   2  -4   0 1395.22   88.84
   2  -4  -3 1018.92   66.05
   2  -4  -6 2407.05  166.06
  -4   2  -6 2634.89  165.67
  -4   2   6 2589.29  165.98
   2  -4  -9   13.52    5.43
  -4   2   9   10.94    4.01
   2  -4 -12  185.82   12.05
   2  -4 -12  152.16   13.25
  -4   2 -12  153.39   12.40
   2  -4 -15   44.60    7.05
   2  -4 -18   24.11    7.66
  -4   2 -21   -4.35    5.55
   2  -4 -24   -2.66    3.39
  -4   2 -24    3.89    2.97
   2   2 -24    3.04    4.01
  -1  -2 -23    2.97    4.08
   3  -1 -23    6.85    4.78
  -2   3 -23    4.54    4.58
   3  -1 -20    6.62    7.39
   3  -1 -17   56.96    8.16
  -1  -2 -14   21.41    6.08
   3  -1 -14   27.92    5.62
  -1  -2 -11   64.78    7.36
  -2   3  -8  199.49   12.40
  -2  -1   8  167.79   12.02
  -1   3   8  190.71   13.02
  -1   3   5  171.14   11.90
  -1  -2  -5  163.02   11.48
  -1   3   2  851.90   56.92
  -1  -2  -2  905.70   56.92
  -1   3  -1 1322.39   85.19
  -1  -2   1 1319.54   85.26
   3  -2  -4 8926.01  585.95
  -1  -2   4 8977.61  585.68
  -2  -1  -4 9223.58  585.83
  -2   3   4 9396.15  585.95
  -1   3  -7  162.75   11.63
   3  -2  -7  173.53   12.55
  -2   3   7  184.89   12.44
  -2  -1  -7  177.34   11.82
  -2   3  10    3.04    4.51
  -2  -1 -13    9.78    4.66
   3  -2 -13    7.47    4.43
  -1   3 -13   -0.46    4.74
  -2  -1 -13   10.09    5.62
   3  -2 -16   83.57    8.90
   3  -2 -19   11.51    7.12
  -2  -1 -22    1.42    4.89
  -1   3 -22   -1.62    5.93
  -2  -1 -25    1.42    1.85
   3  -2 -25   -5.89    2.66
  -1   3 -25   -1.66    2.50
   3   0 -24    4.89    3.74
   0  -3 -24    5.16    3.12
  -3   3 -24   -1.50    3.31
  -3   3 -21    2.54    6.16
   3   0 -18   13.02    7.51
   3   0 -15   17.14    5.70
   0  -3 -15   21.14    6.47
  -3   3 -12  105.52    8.40
   0  -3 -12  113.30    8.36
   3   0 -12  112.95    8.20
  -3   3 -12   83.76    8.32
   0  -3 -12  100.74    9.74
  -3   3  -9   11.13    3.54
   0   3   9    9.32    4.85
  -3   0   9    7.47    2.97
   0  -3  -6  611.86   39.36
   0   3   6  588.68   39.59
   0   3   3   87.42    6.62
   0  -3  -3   79.49    6.55
   3  -3  -3 3097.06  203.49
   0  -3   3 3133.49  203.15
   0  -3   3 3233.92  203.26
  -3   3   3 3220.33  203.45
  -3   0  -3 3113.85  203.38
   3  -3  -6 1936.87  125.97
  -3   3   6 1915.92  125.89
  -3   0  -6 1970.84  125.62
   3  -3  -9   13.02    5.01
  -3   3   9   13.48    4.35
  -3   0 -12   42.48    5.39
   0   3 -12   36.55    4.97
   3  -3 -12   41.01    4.85
  -3   0 -12   37.78    6.05
  -3   0 -15   99.01    9.44
   3  -3 -15   90.15    8.90
   3  -3 -18   15.25    7.51
   0   3 -21   13.90    7.01
   3  -3 -24    0.92    3.77
  -3   0 -24   -2.20    2.85
   0   3 -24   -2.16    3.81
   3   1 -25    0.27    2.62
   1  -4 -25    0.92    1.96
  -4   3 -25    1.08    1.96
  -4   3 -22   -3.50    5.28
   3   1 -19    6.55    7.28
   1  -4 -16   52.61    7.89
   1  -4 -13    8.24    5.04
   1  -4 -10   14.71    5.35
  -4   3 -10   16.06    4.01
  -4   1  10    3.70    3.58
   1   3   7  550.82   33.62
  -4   1   7  476.57   33.16
  -4   1   4 9656.21  581.98
   1  -4  -4 8554.76  581.90
   1   3   4 8989.59  582.02
   1  -4   2  351.99   23.03
   3  -4  -5 7641.66  479.50
  -4   1  -5 7388.61  479.23
  -4   3   5 7353.91  479.39
   3  -4  -8   81.30    7.16
  -4   1  -8   67.20    5.31
  -4   3   8   68.82    6.59
  -4   1 -11   63.74    5.97
   1   3 -11   69.09    5.35
   3  -4 -11   55.61    7.70
  -4   3  11   48.68    6.32
   3  -4 -14   19.56    5.47
   1   3 -14   22.26    5.20
  -4   1 -14   18.72    5.97
   3  -4 -17   51.34    8.24
   1   3 -23   -3.00    4.89
  -4   1 -23   -2.43    3.58
  -5   3 -23    2.31    3.74
  -5   3 -20   -7.78    5.82
   2  -5 -17   45.64    7.66
   2  -5 -14   21.22    5.93
  -5   3 -11  280.40   17.29
   3   2 -11  253.06   16.91
   2  -5 -11  278.43   18.72
   2  -5  -8    7.20    5.24
  -5   2   8    6.05    4.16
  -5   2   5 4278.88  270.77
   2  -5  -5 4140.24  270.66
   2   3   5 4185.15  270.85
   2  -5   1 1284.61   82.84
   3  -5  -1 1250.18   83.03
   2  -5   1 1318.77   83.03
   3  -5  -7  348.26   25.38
  -5   3   7  371.13   25.34
  -5   2  -7  388.65   24.65
   3  -5 -10   93.81    8.90
  -5   3  10   73.98    7.51
   2   3 -13    2.08    4.27
   3  -5 -13    9.01    4.93
   3  -5 -16   68.93    8.20
   2   3 -16   56.73    7.78
  -5   2 -22    1.27    4.35
   2   3 -25    1.73    2.66
   3  -5 -25    0.58    2.16
   3  -6   0  486.47   32.23
   3  -6   0  503.88   32.43
   3  -6  -3 1697.10  109.79
  -6   3   6  773.11   50.72
   3  -6  -6  792.13   50.76
  -6   3  -6  763.44   50.18
   3  -6  -9  156.35   12.25
  -6   3   9  150.77   11.71
   3   3 -12   97.39    7.32
   3  -6 -12   80.33    7.39
   3   3 -15   37.86    6.35
   3  -6 -15   31.23    6.59
  -6   3 -21   -4.08    5.04
   3  -6 -24   -3.04    3.12
  -6   3 -24   -2.04    2.39
  -2   4   0 1692.98  109.26
  -2  -2  -3 1032.79   68.13
  -2   4  -3 1058.24   67.82
  -2   4  -6 3023.58  204.34
  -2  -2  -6 3499.38  204.76
  -2   4   6 3520.33  205.03
  -2   4   9   21.87    5.01
  -2  -2  -9   13.40    3.58
  -2   4 -12  107.45    9.17
  -2  -2 -12  123.16    9.51
   4  -2 -12  141.91    9.20
  -2  -2 -12  108.87   10.44
  -2   4 -15   50.33    6.93
   4  -2 -15   43.52    6.59
   4  -2 -18   19.10    7.70
  -2   4 -18   18.29    7.32
  -2   4 -21    2.43    6.43
   4  -2 -24    0.04    3.70
  -2  -2 -24    0.96    2.70
  -2   4 -24    0.08    3.62
  -1  -3 -25    2.39    1.62
  -3   4 -25    1.66    2.39
   4  -1 -25    1.62    2.58
  -3   4 -22    3.74    5.70
   4  -1 -19   -6.59    7.47
   4  -1 -16   39.86    6.85
  -3   4 -16   33.16    7.36
  -1  -3 -13    4.89    5.16
  -3   4 -13    9.59    4.97
  -1  -3 -13    7.93    5.97
   4  -1 -13    5.85    4.24
  -3   4 -10   16.75    3.47
  -1   4  10   16.87    5.58
  -3   4  -7  769.22   48.29
  -1   4   7  715.61   48.91
  -1  -3  -7  716.65   48.64
  -3  -1   4 7870.80  514.89
  -1  -3  -4 7931.96  515.01
  -1   4   4 8302.98  515.16
  -3   4  -1 5456.01  345.33
  -3   4  -1 5243.43  345.41
  -1   4  -2  495.94   32.12
  -1  -3   2  492.02   32.23
   4  -3  -5 7058.88  459.59
  -1  -3   5 6997.84  459.24
  -3   4   5 7283.36  459.59
  -3  -1  -5 7331.46  459.44
   4  -3  -8   50.18    6.20
  -3   4   8   54.11    6.39
  -3  -1  -8   59.73    5.12
  -3   4  11    7.51    4.89
  -3  -1 -14   14.17    5.97
   4  -3 -14   22.84    5.43
  -1   4 -14   16.83    5.16
   4  -3 -17   34.89    7.51
  -1   4 -17   34.16    7.70
  -1   4 -20    7.78    7.74
   4  -3 -20   -0.35    6.89
  -1   4 -23   -0.81    5.04
  -3  -1 -23    2.35    3.62
   0  -4 -23    3.12    3.66
  -4   4 -23    2.04    4.27
  -4   4 -20    9.97    6.51
   4   0 -20   -1.85    7.86
   4   0 -17    6.89    6.89
  -4   4 -14   13.09    5.66
   4   0 -14    9.44    5.20
   0  -4 -14    8.43    5.55
  -4   4 -11   17.79    3.58
  -4   4 -11   11.21    3.81
   0  -4 -11    1.66    5.82
   4   0 -11    9.24    3.35
  -4   0  11    7.51    2.50
   0   4   8   59.15    6.51
   0  -4  -8   57.96    5.78
  -4   0   8   57.15    5.39
  -4   0   5 4887.55  314.17
   0  -4  -5 4890.40  314.21
   0   4   5 4840.60  314.37
   0  -4   1  111.41    7.82
   0   4  -1  103.67    7.70
   4  -4  -4 7960.19  498.49
  -4   4   4 7782.38  498.45
  -4   0  -4 7913.67  498.37
   0  -4   4 7534.14  498.14
   4  -4  -7  152.77   11.32
  -4   4   7  138.06   11.17
  -4   0  -7  146.57   10.40
   4  -4 -10   69.20    7.93
  -4   4  10   74.17    7.28
   4  -4 -13   16.17    4.97
   0   4 -13   22.64    4.81
   0   4 -16   37.78    7.01
   4  -4 -16   30.39    6.74
   0   4 -19    2.58    7.74
   4  -4 -19    7.16    7.20
  -4   0 -22    3.81    4.31
   0   4 -22    0.42    6.16
   0   4 -25   -0.04    2.62
   4  -4 -25    4.31    2.35
   1  -5 -24    0.23    2.85
  -5   4 -24    0.81    2.89
   4   1 -21    5.51    7.36
  -5   4 -21    4.58    5.74
   1  -5 -15   66.89    7.97
   1  -5 -12  106.87    8.51
  -5   4 -12  119.92    8.82
   1  -5 -12   94.58   10.55
   1  -5  -9   38.86    6.12
  -5   1   9   39.70    4.93
  -5   1   6  687.00   45.10
  -5   4  -6  697.16   44.48
   1   4   6  654.03   45.25
   1  -5  -6  683.49   45.06
   1  -5  -3  116.38    8.74
   1  -5   0  838.54   54.49
   1  -5   3 9654.44  621.41
   4  -5  -6 8283.91  539.27
  -5   4   6 8338.94  539.19
  -5   1  -6 8443.31  538.96
   4  -5  -9  264.72   17.29
  -5   1  -9  219.59   15.79
  -5   4   9  267.69   16.98
   4  -5 -12   30.77    4.70
   1   4 -12   28.69    4.58
   1   4 -15   21.41    5.97
   4  -5 -15   22.41    6.01
   1   4 -18    4.93    7.20
   4  -5 -18    2.43    7.43
  -5   1 -21    6.47    5.01
   4  -5 -24   -2.66    3.39
  -5   1 -24    4.93    2.39
   1   4 -24   -1.46    3.77
   2  -6 -25   -0.42    1.66
  -6   4 -22    0.42    4.24
  -6   4 -19    3.70    5.93
   2  -6 -16   87.42    9.24
   2  -6 -13   20.37    5.04
   2  -6 -10  119.11   10.05
  -6   2  10   99.44    8.78
  -6   4  -7  215.08   14.29
  -6   2   4 1548.22  101.59
   2  -6  -4 1533.66  101.63
   2   4   4 1649.35  101.94
   2  -6   2 4271.80  274.70
   4  -6  -2 4187.03  275.05
   2  -6   2 4317.97  274.93
   4  -6  -5 1174.09   76.21
  -6   4   5 1168.50   76.25
   4  -6  -8  117.07   10.13
  -6   2  -8  115.61    8.36
  -6   4   8  111.87    9.70
   2   4 -11  244.58   15.75
   4  -6 -11  241.66   17.56
  -6   4  11  198.72   16.79
   2   4 -14    9.17    5.35
   4  -6 -14    8.09    5.43
   2   4 -17   49.87    7.78
   4  -6 -17   38.67    7.70
  -6   2 -20    5.12    4.85
   2   4 -20    0.92    7.51
  -6   2 -23    0.85    3.12
  -7   4 -23    6.20    3.27
   4   3 -23   -6.89    4.70
  -7   4 -20    1.54    5.12
  -7   4 -17   20.26    5.78
   4   3 -17   14.56    7.09
   3  -7 -14   33.27    5.82
   4   3 -14   32.46    5.66
   4   3 -11  115.07    8.36
   3  -7 -11  109.29   10.86
  -7   3  11  108.06    9.67
   3  -7  -8  460.71   30.27
  -7   3   8  392.89   30.04
  -7   4  -8  461.28   29.19
  -7   3   5 1080.50   68.51
   3  -7  -5 1022.31   68.40
   4  -7  -1  221.67   16.60
   3  -7   1  257.14   16.25
   3  -7   1  244.93   16.64
   4  -7  -7  144.11   11.09
  -7   3  -7  134.25    9.82
   4  -7 -10  722.81   46.21
  -7   4  10  665.39   45.67
   4  -7 -13   95.35    8.28
   3   4 -13   98.05    8.20
   4  -7 -16   26.30    6.70
   3   4 -16   18.99    6.74
   3   4 -19    3.23    8.16
  -7   3 -19    3.16    5.31
  -7   3 -22    1.50    3.85
   4  -7 -25    1.23    1.77
   4  -8   0  987.88   64.39
   4  -8   0  997.44   64.58
   4  -8  -3 3084.62  199.18
  -8   4   6 1330.05   86.69
   4  -8  -9  435.44   28.88
  -8   4   9  427.09   28.58
  -8   4  -9  410.41   27.38
   4  -8 -12  103.75    8.74
   4   4 -12  126.74    8.90
   4  -8 -15   27.77    6.20
   4   4 -15   24.11    6.28
   4   4 -18    8.66    7.66
  -8   4 -18    2.00    4.89
   4   4 -21    9.78    6.51
   4   4 -21    5.31    7.32
  -8   4 -21    7.12    4.24
   4  -8 -24   -1.00    2.66
   4   4 -24   -4.85    3.27
  -8   4 -24   -0.35    1.69
  -3   5 -23   -2.35    4.58
  -2  -3 -23    1.46    3.31
  -3   5 -20    7.12    7.12
   5  -2 -20    9.78    7.39
   5  -2 -17   35.47    7.43
  -3   5 -17   32.77    7.66
   5  -2 -14   25.57    5.24
  -3   5 -14   27.50    5.70
  -3   5 -11  316.21   20.56
   5  -2 -11  324.15   20.53
  -2  -3  -8    7.12    3.66
  -2   5   8   11.17    4.93
  -3  -2   5 3279.21  214.89
  -2   5   5 3401.99  215.32
  -2  -3  -5 3363.86  215.12
  -2  -3  -2 2614.51  168.99
  -3   5  -2 2620.94  168.79
  -2  -3   1 1251.92   83.07
  -2   5  -1 1312.03   83.03
  -3  -2  -4  428.44   27.88
  -3   5   4  416.00   28.15
  -2   5  -4  419.77   27.38
  -3   5   7  595.15   39.78
  -3  -2  -7  598.96   39.32
  -2  -3   7  600.69   39.01
  -3   5  10   72.13    7.32
  -3  -2 -10   62.27    5.89
   5  -3 -13    0.04    4.51
  -2   5 -13   -2.73    4.70
  -3  -2 -13    6.66    5.78
  -2   5 -16   79.60    8.59
   5  -3 -16   73.52    8.32
   5  -3 -19    0.58    7.12
  -2   5 -19    2.04    7.63
  -3  -2 -22    1.50    4.16
  -2   5 -22    3.12    6.05
   5  -3 -25    1.39    2.58
  -2   5 -25   -0.31    2.46
  -4   5 -24    3.39    3.35
  -1  -4 -24   -1.08    2.54
   5  -1 -21    7.47    6.89
  -4   5 -21    1.23    6.08
   5  -1 -18   -2.62    6.97
   5  -1 -15   63.54    7.12
  -4   5 -15   56.53    7.59
  -1  -4 -12   92.27    8.16
   5  -1 -12  105.06    7.86
  -4   5 -12  108.68    8.28
  -1  -4 -12   80.76    9.74
  -4   5  -9   82.45    6.01
  -4  -1   9   71.28    6.20
  -1  -4  -9   81.07    6.97
  -1   5   9   84.45    8.32
  -4  -1   6 1171.85   77.48
  -1   5   6 1256.88   77.98
  -1  -4  -6 1183.14   77.56
  -1  -4  -3  160.71   11.05
  -4   5  -3  148.96   10.32
  -4   5   0 1182.75   76.29
  -1  -4   0 1176.82   76.48
  -4  -1  -3 9411.05  615.10
  -1  -4   3 9493.31  614.98
  -1   5  -3 9694.65  614.91
  -1  -4   6 7870.03  516.47
  -4  -1  -6 8206.39  516.78
  -4   5   6 8227.72  517.05
  -4  -1  -9  276.86   19.10
  -4   5   9  300.81   20.18
   5  -4 -12   17.14    3.93
  -1   5 -12    6.74    4.27
   5  -4 -15   27.80    6.12
  -1   5 -15   27.15    6.12
   5  -4 -18   11.44    7.20
  -1   5 -18   -1.77    7.28
  -4  -1 -21    0.73    4.39
  -1   5 -21    9.13    7.16
   5  -4 -24    1.19    3.77
  -1   5 -24   -0.96    3.70
  -4  -1 -24    1.04    2.20
  -5   5 -25   -1.93    1.93
  -5   5 -22    3.62    5.20
   5   0 -19    2.27    7.24
  -5   5 -19   -1.04    6.66
   5   0 -16   30.35    6.47
   0  -5 -13   44.36    5.85
  -5   5 -13   37.28    5.70
   5   0 -13   46.48    5.28
  -5   5 -10    5.28    3.12
   0   5  10    5.28    6.05
  -5   0  10    4.20    3.54
   0   5   7    5.20    5.28
   0  -5  -7    2.43    3.93
   0   5   4 2115.95  144.57
   0  -5  -4 2336.46  144.45
   0  -5   2  433.94   29.00
   0   5  -2  448.58   29.00
   5  -5  -5 1505.59   93.93
  -5   5   5 1493.77   93.93
  -5   0  -5 1478.32   93.66
   0  -5   5 1392.13   93.35
   5  -5  -8  253.98   19.06
  -5   0  -8  278.70   18.29
  -5   5   8  269.50   18.99
  -5   5  11    4.78    5.24
   0   5 -11    4.12    3.50
   5  -5 -14    5.39    5.31
   0   5 -14    5.85    5.16
   0   5 -17   29.85    7.59
   5  -5 -17   29.46    7.12
  -5   0 -20   -2.35    4.93
   0   5 -23   -1.31    4.74
  -5   0 -23    3.27    3.04
  -6   5 -23    6.05    3.62
  -6   5 -20   -5.62    6.01
  -6   5 -17   20.80    6.24
   1  -6 -14   13.56    5.47
  -6   5 -11  130.98    8.28
  -6   5 -11   98.86    8.01
   1  -6 -11  119.04   10.36
   1   5   8  134.48   11.17
   1  -6  -8  132.32   10.28
  -6   1   5  844.12   55.03
   1   5   5  813.51   55.26
   1  -6  -5  864.50   55.07
   1  -6   1  514.58   33.77
   1  -6   4 3690.43  237.77
   5  -6  -7  722.12   46.75
  -6   1  -7  721.00   46.21
  -6   5   7  671.44   46.60
   5  -6 -10  167.60   12.17
  -6   5  10  149.46   11.86
  -6   1 -10  134.17    9.94
   5  -6 -13   14.71    4.78
   1   5 -13   16.71    4.54
   1   5 -16   71.40    8.43
   5  -6 -16   76.56    8.28
  -6   1 -19  -10.21    4.85
   1   5 -19    0.77    7.43
   5  -6 -19   -1.04    6.89
  -6   1 -22   -2.66    3.62
   5  -6 -25    5.35    2.20
   1   5 -25   -3.27    2.54
   2  -7 -24    1.08    2.43
   5   2 -24   -1.42    3.43
  -7   5 -24   -2.43    2.35
  -7   5 -21    2.20    5.01
  -7   5 -18    3.85    5.78
   2  -7 -15   31.00    6.55
   5   2 -12  232.41   15.29
   2  -7 -12  213.04   15.33
   2  -7  -9  334.20   22.76
  -7   2   9  312.90   22.03
  -7   2   6  119.65    9.51
   2   5   6  101.09    9.70
   2  -7  -6  112.45    9.13
   2  -7  -3 1142.58   74.29
   2  -7   0  401.94   26.73
   5  -7  -3 6471.66  402.44
   2  -7   3 6138.66  401.79
   2  -7   3 6485.87  402.13
   5  -7  -6 1251.88   83.72
  -7   5   6 1271.48   83.53
  -7   2  -6 1311.95   83.26
   5  -7  -9  343.44   22.68
  -7   2  -9  321.53   21.45
  -7   5   9  300.96   22.64
   2   5 -12   88.81    7.32
   5  -7 -12   94.54    7.55
   2   5 -15    5.85    5.82
   5  -7 -15    3.93    5.82
   5  -7 -18  -14.98    7.12
   2   5 -18   -3.93    7.63
  -7   2 -21    1.46    4.16
  -7   2 -24   -0.89    1.73
   5   3 -25   -1.69    2.16
  -8   5 -22    2.39    3.93
   5   3 -22    8.09    5.62
  -8   5 -19    7.70    5.51
  -8   5 -16   29.85    5.62
   5   3 -16   24.07    7.05
   3  -8 -13  142.76   11.63
   5   3 -13  175.42   11.63
   5   3 -10  174.34   11.82
   3  -8 -10  169.02   14.02
  -8   3  10  166.14   13.06
   3  -8  -7  735.06   49.06
  -8   3   7  749.31   49.10
  -8   3   4  907.74   62.39
   3  -8  -4 1006.60   62.46
   3  -8  -1  388.54   26.07
   3  -8   2  305.28   19.76
   5  -8  -2  282.63   20.45
   3  -8   2  303.12   20.22
  -8   5   5 1344.03   87.50
   5  -8  -8   65.28    7.97
  -8   5   8   50.06    7.51
  -8   3  -8   61.66    5.66
  -8   5  11  170.33   15.56
   3   5 -11  217.78   14.10
   3   5 -14   25.69    5.62
   5  -8 -14   20.56    5.39
   5  -8 -17   31.39    6.85
   3   5 -17   27.15    7.66
  -8   3 -17   31.42    5.62
   3   5 -20   14.79    7.70
   3   5 -20    2.54    7.39
  -8   3 -20    4.70    4.54
   3   5 -23   -5.51    4.54
  -8   3 -23   -1.50    2.54
  -9   5 -23   -3.62    2.54
   5   4 -23    1.58    4.16
   5   4 -20   -1.39    7.43
   5   4 -20   12.48    7.74
  -9   5 -20   -1.35    4.54
   5   4 -17   15.98    7.59
  -9   5 -17    2.04    5.31
  -9   5 -14   45.17    5.28
   4  -9 -14   31.50    5.74
   5   4 -14   50.53    6.51
   5   4 -11  161.78   11.32
  -9   5 -11  168.83   11.13
   4  -9  -8  278.40   20.76
  -9   5  -8  296.30   19.56
  -9   4   5  606.82   40.40
   4  -9  -2  271.66   18.64
   5  -9  -1   80.49    7.01
   4  -9   1   74.90    6.39
   4  -9   1   84.03    7.20
  -9   5   4  192.40   14.17
   5  -9  -4  190.51   14.17
  -9   5   7 1144.62   74.83
   5  -9  -7 1138.85   74.87
   4   5 -10  154.04    9.32
   5  -9 -10  154.58   12.32
  -9   5  10  135.79   11.44
   4   5 -13   28.19    5.28
   5  -9 -13   26.73    4.93
   5  -9 -16   20.45    6.08
   4   5 -16   22.57    7.05
  -9   4 -16   15.40    5.12
   4   5 -19    3.16    7.36
  -9   4 -19    2.70    4.74
   4   5 -22    0.12    5.35
  -9   4 -22    3.39    3.12
   4   5 -25   -2.50    2.00
   5 -10   0 1202.39   78.10
   5 -10  -3  101.28    8.90
 -10   5   6 1031.98   67.82
 -10   5  -9  161.52   11.21
 -10   5   9  139.72   13.09
   5 -10  -9  161.86   13.52
   5   5 -12  112.57    7.97
 -10   5 -12  109.56    7.47
   5   5 -15   18.83    6.47
   5 -10 -15   14.33    5.35
 -10   5 -15   14.63    4.66
   5   5 -18   12.36    7.86
 -10   5 -18    9.78    5.01
   5   5 -21   11.82    7.12
 -10   5 -21    7.74    3.70
   5   5 -21    1.77    6.24
   5   5 -24    0.15    2.85
  -3   6  -3 1557.31   99.94
  -3  -3  -3 1529.00  100.28
  -3  -3   6  607.47   40.94
  -3  -3  -6  656.65   41.44
  -3   6   6  647.33   41.78
  -3  -3  -9  166.95    9.01
  -3   6   9  155.78   10.63
   6  -3 -12   96.97    7.78
  -3   6 -12   99.36    7.86
  -3   6 -15   46.29    6.97
   6  -3 -15   39.55    6.47
   6  -3 -18   13.09    7.16
  -3   6 -18   15.33    7.39
   6  -3 -21    1.89    6.24
  -3   6 -21    1.93    6.62
   6  -3 -24    0.62    3.66
  -3   6 -24   -1.39    3.47
  -3  -3 -24   -0.96    2.04
  -4   6 -25   -0.85    2.20
  -4   6 -22    2.81    5.51
   6  -2 -19   15.25    7.12
  -4   6 -19    9.01    6.70
   6  -2 -16   68.74    8.13
  -4   6 -16   73.86    8.59
  -4   6 -13   14.33    5.16
   6  -2 -13   21.76    4.54
  -2  -4 -10  161.63    9.78
  -4  -2  10  102.52    8.32
  -4  -2  10  126.20    8.78
  -2   6  10  165.25   11.32
  -4  -2   7  399.01   26.19
  -2  -4  -7  397.93   26.46
  -2   6   7  380.33   27.15
  -2   6   4 1353.01   90.42
  -2  -4  -4 1385.24   90.27
  -4   6  -4 1407.85   89.85
  -4   6  -1 1649.73  106.60
  -4  -2  -2 4509.68  287.48
  -2   6  -2 4515.38  287.25
  -2  -4   2 4350.20  287.37
  -2  -4   5 1333.10   89.38
  -4   6   5 1440.93   90.12
  -2  -4   5 1424.83   89.65
  -4  -2  -5 1418.67   89.88
  -4   6   8  118.07    9.86
  -2  -4   8   99.36    7.05
  -4  -2  -8  109.87    8.40
   6  -4 -11  206.38   13.44
  -2   6 -11  200.80   13.56
  -2   6 -14    9.74    5.28
   6  -4 -14   10.90    5.01
   6  -4 -17   28.11    7.39
  -2   6 -17   34.08    7.51
   6  -4 -20   11.21    7.28
  -2   6 -20   -3.35    7.05
  -2   6 -23   -3.77    4.85
  -4  -2 -23   -1.16    2.81
  -1  -5 -23   -1.00    3.12
  -5   6 -23    7.70    4.20
   6  -1 -20   -1.54    7.16
  -5   6 -20    7.32    6.70
  -5   6 -17    7.86    6.28
   6  -1 -17   12.02    7.12
  -5   6 -14    9.97    5.43
   6  -1 -14    5.31    5.12
  -5   6 -11  111.30    7.16
   6  -1 -11   94.12    6.59
  -1   6  11   94.85    9.44
  -5   6  -8  128.16    8.90
  -1   6   8  139.56   11.36
  -1  -5  -8  143.99   10.36
  -5  -1   5  670.09   46.83
  -1   6   5  716.88   47.37
  -5   6  -5  741.18   46.44
  -1  -5  -5  712.22   47.02
  -5   6  -2 6195.69  402.32
  -5   6  -2 6329.36  402.48
  -1  -5   1  157.28   11.75
  -1   6  -1  170.22   11.63
  -1  -5   4 3207.31  205.61
  -5   6   4 3155.63  205.88
  -5  -1  -4 3190.60  205.80
  -5  -1  -7  729.90   42.55
  -5   6   7  687.04   43.09
  -1  -5   7  617.06   41.86
  -5   6  10  213.24   15.64
  -5  -1 -10  201.64   14.25
  -1   6 -13   29.00    5.16
   6  -5 -13   28.11    5.04
  -1   6 -16   54.57    7.66
   6  -5 -16   53.49    7.51
  -1   6 -19   -8.90    7.43
   6  -5 -19    6.05    7.20
  -1   6 -22   13.44    6.12
  -5  -1 -22   -4.31    3.62
   6  -5 -25   -0.65    2.31
  -1   6 -25    0.12    2.43
   6   0 -24    0.39    3.58
   0  -6 -24    2.54    2.20
  -6   6 -24    1.96    2.85
   6   0 -21   -3.47    6.55
  -6   6 -21    0.12    5.35
   6   0 -18    6.35    7.55
  -6   6 -18    0.46    5.89
   6   0 -15   17.45    5.97
   0  -6 -12  361.73   25.99
   6   0 -12  376.52   25.96
   0   6   9  128.55   11.40
   0  -6  -9  123.16    9.97
  -6   0   6  102.29    8.74
   0  -6  -6   91.43    8.55
   0   6   6  102.52    9.28
  -6   6  -6  103.56    7.16
   0  -6  -3   48.49    5.89
   0  -6   0  253.71   17.37
   0  -6   3 2820.32  182.00
   6  -6  -6  312.36   20.95
  -6   6   6  286.75   20.91
   0  -6   6  290.18   19.79
  -6   0  -6  326.34   20.37
  -6   0  -9 1595.20  104.33
  -6   6   9 1639.84  104.94
   6  -6 -12   24.88    4.70
   0   6 -12   27.07    4.47
   6  -6 -15    7.86    5.89
   0   6 -15   16.75    6.01
   6  -6 -18    5.85    6.85
   0   6 -18   10.47    7.47
  -6   0 -21   -2.66    4.16
   0   6 -24    2.12    3.66
  -6   0 -24    1.50    1.62
   6   1 -25    0.50    2.23
   6   1 -22    0.19    5.47
  -7   6 -22   10.01    4.35
  -7   6 -19    4.24    5.70
  -7   6 -16   26.11    5.74
   1  -7 -13   93.43    7.86
   1  -7 -10   92.54    8.97
  -7   1  10   76.56    7.63
  -7   1   7   46.91    6.20
   1  -7  -7   48.52    6.24
  -7   6  -7   45.75    4.01
   1   6   7   36.16    7.24
   1   6   4 2806.07  192.32
   1  -7  -4 3129.44  192.25
   1  -7  -1 3365.86  217.28
   1  -7   2 5472.61  352.65
   1  -7   5  870.43   56.15
  -7   6   5  852.75   56.80
   6  -7  -8   14.33    6.35
  -7   1  -8   16.44    4.12
  -7   6   8   13.21    5.93
  -7   6  11  164.17   14.52
   1   6 -11  196.87   13.06
   1   6 -14   26.03    5.62
   6  -7 -14   32.00    5.82
   6  -7 -17   24.34    6.97
   1   6 -17   17.33    7.39
   1   6 -20    1.89    7.82
  -7   1 -20    4.66    4.43
  -7   1 -23    3.16    2.43
  -8   6 -23    4.04    3.27
   6   2 -23   -2.62    4.27
  -8   6 -20   -1.42    5.35
  -8   6 -17   16.60    5.97
   2  -8 -14   27.38    5.39
  -8   6 -14   34.66    4.85
   6   2 -11  190.90   12.67
  -8   2  11  163.33   13.56
  -8   2   8  300.39   20.76
  -8   6  -8  291.26   19.26
  -8   2   5 1301.60   84.57
   2   6   5 1266.28   84.96
   2  -8  -5 1323.08   84.65
   2  -8   1 1470.35   95.31
   2  -8   4 3110.23  200.60
   6  -8  -7  516.36   34.47
  -8   6   7  513.08   34.51
  -8   2  -7  506.88   33.81
   6  -8 -10 1171.93   74.44
  -8   2 -10 1101.92   73.29
  -8   6  10 1165.27   74.33
   2   6 -13   80.37    7.51
   6  -8 -13   88.34    7.59
   6  -8 -16   29.61    6.74
   2   6 -16   38.47    6.93
   2   6 -19   -4.54    8.01
   2   6 -19    2.89    7.82
  -8   2 -19    4.27    4.54
  -8   2 -22    3.04    3.04
   2   6 -22    5.66    6.01
   6  -8 -25    0.96    1.77
   3  -9 -24   -1.04    2.12
   6   3 -24    3.74    3.12
  -9   6 -24    2.39    1.62
   6   3 -21   13.29    6.24
  -9   6 -21    7.86    4.24
   6   3 -18   -3.85    7.43
  -9   6 -18    1.62    5.39
   6   3 -15   17.91    6.28
  -9   6 -15    9.44    5.16
   6   3 -12   97.82    7.66
  -9   6 -12  112.57    7.36
   3  -9  -9   85.38    8.66
  -9   6  -9   70.78    5.43
  -9   3   6 1833.20  118.23
   3  -9  -6 1806.55  118.11
   3  -9   0   59.46    6.62
   6  -9  -3   33.27    5.62
   3  -9   3   26.57    4.74
  -9   6   6  715.88   47.56
   6  -9  -9  117.92   11.63
  -9   6   9  127.01   11.51
  -9   3  -9  143.07   10.01
   3   6 -12   13.79    4.31
   6  -9 -12   14.02    4.16
   3   6 -15    8.90    6.05
   6  -9 -15    2.89    5.47
  -9   3 -15    6.35    4.43
   3   6 -18   13.06    7.36
  -9   3 -18    0.77    4.66
  -9   3 -21    7.28    3.62
   3   6 -21    3.70    6.70
   3   6 -24    3.04    3.20
 -10   6 -22    2.54    3.16
   6   4 -22    2.81    4.89
   6   4 -19    2.08    7.63
 -10   6 -19    4.24    4.93
   6   4 -16    4.89    7.12
 -10   6 -16    1.31    5.08
   6   4 -13   68.36    6.70
 -10   6 -13   69.24    5.82
   6   4 -10  263.61   17.02
 -10   4  10  217.66   18.72
 -10   4   7  952.42   62.77
   4 -10  -4  414.73   28.81
   4 -10  -4  442.07   28.77
 -10   4   4  418.58   28.73
   4 -10  -1  229.29   16.60
   4 -10  -1  233.38   16.21
   4 -10   2   26.88    4.85
   6 -10  -2   23.49    5.47
   4 -10   2   23.53    3.50
 -10   6   5  459.36   31.69
   6 -10  -5  475.03   31.66
 -10   4  -8  578.32   37.63
 -10   6   8  558.83   38.36
   6 -10  -8  561.72   38.55
   4   6 -11  293.34   19.18
 -10   4 -11  298.46   18.99
 -10   4 -14   52.64    5.62
   6 -10 -14   44.52    6.20
   4   6 -17    5.70    7.16
 -10   4 -17    6.66    4.70
   4   6 -20    3.97    7.28
   4   6 -20    3.70    7.16
 -10   4 -20    6.32    3.89
   4   6 -23    1.73    4.20
   6   5 -23    0.89    3.62
   6   5 -20   16.52    7.47
   6   5 -20   11.44    6.74
 -11   6 -20   10.13    4.27
   6   5 -17   -2.16    7.93
 -11   6 -17    6.70    4.74
   6   5 -14   30.81    6.59
 -11   6 -14   40.09    5.01
   6   5 -11  382.38   25.76
 -11   6 -11  393.43   25.61
   5 -11  -8  241.93   18.49
 -11   5   8  249.47   18.56
 -11   5   5  971.79   62.93
   5 -11  -5  940.48   62.81
   5 -11  -2  556.87   36.93
   5 -11   1   18.95    4.01
   6 -11  -1   17.10    5.12
   6 -11  -4   91.81    8.93
 -11   6   4   88.38    8.93
 -11   6   7 1037.26   68.43
 -11   6  10  439.26   35.93
   5   6 -10  550.01   34.39
   5   6 -13   87.11    7.20
 -11   5 -13   75.44    6.12
   5   6 -16    3.93    6.97
 -11   5 -16   -1.31    4.62
   5   6 -19    8.63    7.55
   5   6 -19   13.98    8.05
 -11   5 -19    5.47    4.16
   5   6 -22    0.54    5.01
 -11   5 -22    6.20    2.50
   6 -12   0  710.37   46.64
   6 -12  -3  175.15   13.56
   6 -12  -6  656.54   43.06
 -12   6   6  623.26   43.06
 -12   6  -9  116.84    9.17
 -12   6   9   96.59   11.25
   6   6  -9  126.24    8.78
   6   6 -12  156.28   11.51
 -12   6 -12  149.15   10.86
   6   6 -15   -5.55    6.89
 -12   6 -15    8.86    4.51
   6   6 -18    5.35    7.24
   6   6 -18    8.16    8.24
 -12   6 -18    3.31    4.39
   6   6 -21   -6.43    6.39
   6   6 -21    3.27    5.39
 -12   6 -21    5.01    2.97
   6 -12 -24    0.69    1.62
   6   6 -24    4.51    2.27
  -4   7 -23    4.97    4.35
  -3  -4 -23    2.23    2.70
   7  -3 -20    4.93    7.20
  -4   7 -20    4.39    7.12
   7  -3 -17   16.37    6.97
  -4   7 -17   19.22    6.93
   7  -3 -14   52.03    6.24
  -4   7 -14   42.98    6.51
  -3  -4 -11  159.01   13.02
  -3   7  11  157.16   14.48
  -4   7 -11  199.76   12.75
   7  -3 -11  183.85   12.40
  -3  -4  -8  499.49   32.77
  -3   7   8  478.65   33.50
  -3  -4  -5  977.49   62.66
  -4   7  -5  936.47   62.04
  -3   7   5 1023.62   63.04
  -3  -4  -2 1368.53   98.28
  -4   7  -2 1631.48   98.09
  -3  -4   1   32.27    4.62
  -4   7   4  628.04   37.63
  -4  -3  -4  584.98   37.28
  -3   7  -4  557.41   36.70
  -3  -4   4  517.24   37.05
  -4  -3  -7  235.42   16.14
  -4   7   7  207.04   16.87
  -3  -4   7  232.26   15.71
  -4  -3 -10  637.47   41.82
  -4   7  10  627.00   42.82
   7  -4 -13   78.95    6.85
  -3   7 -13   65.08    6.85
   7  -4 -16   15.94    6.24
  -3   7 -16    7.05    6.66
   7  -4 -19   -2.20    7.05
  -3   7 -19    5.97    7.24
  -3   7 -22    9.86    5.93
  -4  -3 -22    0.35    3.31
  -3   7 -25   -0.04    2.31
   7  -4 -25   -1.96    2.35
  -5   7 -24   -7.09    3.16
  -2  -5 -24    3.12    1.77
   7  -2 -21   -4.54    6.59
  -5   7 -21    6.66    6.20
   7  -2 -18    2.50    7.59
  -5   7 -18   -2.08    6.97
  -5   7 -15   37.39    6.78
   7  -2 -15   38.78    6.35
   7  -2 -12  202.11   14.06
  -5   7 -12  203.92   14.25
  -2  -5  -9  246.62   17.33
  -2   7   9  240.69   18.37
  -5  -2   6  163.02   10.74
  -2   7   6  152.85   12.05
  -2  -5  -6  149.00   11.13
  -5   7  -6  136.17    9.55
  -5   7  -3 1048.15   69.28
  -2  -5  -3 1108.62   69.97
  -5   7  -3 1104.50   69.55
  -2  -5   0  336.74   22.72
  -5  -2  -3 6282.92  404.33
  -2   7  -3 6332.41  404.06
  -2  -5   3 6191.11  404.21
  -2  -5   6 1619.70  108.10
  -5   7   6 1695.45  108.99
  -5  -2  -6 1735.77  108.72
  -2  -5   6 1747.48  108.45
  -5  -2  -9  295.07   20.18
  -5   7   9  290.26   21.30
   7  -5 -12   87.38    7.24
  -2   7 -12   84.22    7.20
  -2   7 -15   17.98    6.05
   7  -5 -15   13.40    5.78
  -2   7 -18   -9.09    7.59
   7  -5 -18    4.12    6.85
  -2   7 -18    6.20    7.36
  -5  -2 -21    5.28    3.85
  -2   7 -21    4.58    6.66
   7  -5 -24    2.93    3.47
  -2   7 -24    3.62    3.47
   7  -1 -25    5.28    2.23
  -6   7 -25    2.20    1.73
  -6   7 -22    5.74    4.89
   7  -1 -19   -0.08    7.32
  -6   7 -19    3.27    6.20
   7  -1 -16   13.86    6.62
  -6   7 -16   16.83    5.82
   7  -1 -13   91.46    7.74
  -6   7 -13   88.42    8.13
  -6  -1  10   62.85    6.16
  -1  -6 -10   58.92    6.93
  -6  -1   7  138.72   10.40
  -1   7   7  121.16   11.51
  -1  -6  -7  125.93   10.59
  -1  -6  -4 2920.21  187.13
  -1   7   4 2850.70  187.24
  -6   7  -4 2901.42  186.66
  -6   7  -1 4090.49  263.57
  -1  -6   2 5743.57  370.17
  -1  -6   5  435.75   29.88
  -6  -1  -5  498.14   30.77
  -6   7   5  517.43   31.19
  -1  -6   5  487.16   30.46
  -6   7   8   10.44    6.43
  -6  -1  -8   10.21    4.43
  -6   7  11   96.70   11.44
  -6  -1 -11  101.94    9.44
  -1   7 -11  137.91    9.28
   7  -6 -11  144.92    9.32
   7  -6 -14   32.58    5.74
  -1   7 -14   36.39    5.74
   7  -6 -17   28.46    6.97
  -1   7 -17   16.91    7.16
  -6  -1 -20   -2.23    4.24
   7  -6 -20    2.54    6.12
  -6  -1 -23    3.31    2.31
  -1   7 -23    6.70    4.74
   7   0 -23    6.93    4.58
   0  -7 -23   -0.69    2.77
  -7   7 -23    1.42    3.81
   7   0 -20   -1.66    8.01
  -7   7 -20    1.89    5.70
   7   0 -17    2.08    7.12
  -7   7 -17   -0.58    6.12
  -7   7 -14   12.90    4.62
   7   0 -14   18.33    5.20
  -7   0   8   62.39    7.16
   0   7   8   64.16    8.47
   0  -7  -8   66.12    7.28
   0  -7  -5 2360.11  158.78
  -7   7  -5 2527.63  158.36
   0   7   5 2395.96  159.05
   0  -7   1 1628.25  105.52
   0  -7   4 2330.49  150.73
  -7   7   4 2337.70  151.04
  -7   0  -7   24.99    4.78
   0  -7   7   11.86    2.58
  -7   7   7   25.49    6.39
  -7   0 -10 1723.87  112.30
  -7   7  10 1753.64  113.15
   7  -7 -13  120.39    9.32
   0   7 -13  113.45    9.44
   7  -7 -16    1.00    6.24
   0   7 -16    3.74    6.55
  -7   0 -19   -2.12    4.27
   7  -7 -19   -3.62    6.43
   0   7 -19    2.62    7.32
  -7   0 -22    1.81    2.93
   7  -7 -25    2.12    2.04
   7   1 -24    1.46    3.12
  -8   7 -24    0.96    2.27
   1  -8 -24    1.93    1.77
  -8   7 -21   -1.12    4.74
  -8   7 -18    6.24    5.62
  -8   7 -15    3.81    4.85
  -8   7 -12  162.40   11.51
  -8   1   6  623.84   40.51
   1  -8  -6  627.23   40.59
   1   7   6  568.46   41.05
   1  -8  -3  381.76   25.84
   1  -8   0 1932.75  125.24
   1  -8   3  288.14   19.60
   7  -8  -6  182.31   13.71
   1  -8   6  158.74   12.09
  -8   7   6  172.11   13.63
  -8   7   9   81.68    9.55
  -8   1  -9   97.20    7.89
   7  -8 -12   27.46    4.70
   1   7 -12   33.16    4.81
   7  -8 -15   11.09    5.82
   1   7 -15    4.78    6.08
   1   7 -18   -0.77    7.93
   7  -8 -18   -4.20    6.16
  -8   1 -18    3.77    4.54
   1   7 -18    2.93    7.39
  -8   1 -21    2.81    3.47
   1   7 -21    0.23    7.16
   7   2 -25    2.43    1.77
   7   2 -22    4.66    5.04
  -9   7 -22    2.89    3.85
  -9   7 -19    9.17    5.58
  -9   7 -16   24.26    5.82
  -9   7 -13   26.46    4.66
   7   2 -13   17.52    5.31
   7   2 -10  160.32   10.71
  -9   2  10  129.97   12.13
  -9   2   7  249.90   18.37
   2  -9  -7  256.29   18.22
   2  -9  -4  790.44   51.18
   2   7   4  758.67   51.49
   2  -9  -1   94.24    8.43
  -9   7   2 1267.09   83.68
   2  -9   2 1303.17   83.57
  -9   7   5 1285.54   79.18
   2  -9   5 1175.09   78.56
   7  -9  -8    5.35    6.59
  -9   7   8   10.90    6.55
  -9   2  -8    8.97    4.24
  -9   7  11  253.13   21.99
   7  -9 -11  286.06   20.18
   7  -9 -14   29.46    5.51
   2   7 -14   29.81    5.97
   7  -9 -17    7.82    6.47
   2   7 -17    9.51    7.55
  -9   2 -17   15.79    4.58
   2   7 -20   -0.50    7.47
   2   7 -20   11.75    7.43
  -9   2 -20    0.65    3.85
   2   7 -23    1.27    4.35
   7   3 -23   11.67    3.93
 -10   7 -23    8.20    2.58
 -10   7 -20    2.20    4.70
   7   3 -17   21.07    7.74
 -10   7 -17    1.39    5.43
   7   3 -14   24.88    6.24
 -10   7 -14   19.41    5.12
   7   3 -11  112.80    8.93
 -10   7 -11  126.39    8.90
 -10   3   8   21.18    7.16
   3 -10  -8   29.11    7.32
 -10   3   5 1138.35   75.33
   3 -10  -5 1166.65   75.40
   3 -10   1  150.15   10.44
   3 -10   1  136.29   11.13
   7 -10  -4  364.08   25.53
   3 -10   4  379.45   25.03
 -10   3  -7   88.96    7.86
 -10   7   7   85.80    9.32
 -10   3 -10  759.28   53.38
 -10   7  10  771.38   54.53
   3   7 -10  863.46   53.03
   7 -10 -13   65.70    6.78
   3   7 -13   79.06    7.36
 -10   3 -13   80.80    6.39
   7 -10 -16    4.66    5.70
   3   7 -16   -1.35    6.93
 -10   3 -16    9.28    4.43
   3   7 -19    3.23    7.32
   3   7 -19    2.97    7.74
 -10   3 -19    2.54    3.93
   3   7 -22   -6.55    5.51
   4 -11 -24    0.69    1.54
   7   4 -24    0.04    2.43
   7   4 -21    4.12    6.93
 -11   7 -21    5.97    3.81
   7   4 -21    3.00    5.85
   7   4 -18    5.85    7.89
 -11   7 -18    2.89    4.89
   7   4 -15    8.51    6.78
 -11   7 -15    0.39    4.66
   7   4 -12  160.17   12.02
 -11   7 -12  166.75   11.71
   7   4  -9   81.95    6.16
 -11   7  -9   65.31    6.01
   4 -11  -6  328.65   23.95
 -11   4   6  357.92   24.34
   4 -11  -3  363.62   24.84
   4 -11   0  229.14   17.10
   4 -11   0  243.97   16.44
   4 -11   3   72.79    7.20
   7 -11  -3   76.83    7.66
 -11   7   6  529.53   36.05
 -11   4  -9  164.29   11.71
 -11   7   9  134.13   13.36
   4   7 -12   91.66    7.16
 -11   4 -12   83.34    6.35
   4   7 -15   16.37    6.51
   7 -11 -15    1.58    5.01
 -11   4 -15   12.25    4.16
   4   7 -18    6.35    7.51
   4   7 -18   15.79    7.78
 -11   4 -18    3.08    4.12
   4   7 -21   -4.62    6.74
 -11   4 -21    2.08    2.89
   4   7 -21    8.20    5.82
   4   7 -24    1.93    2.66
   7   5 -22    1.85    5.20
 -12   7 -22    4.04    2.43
   7   5 -22    6.78    4.31
   7   5 -19   14.17    7.70
   7   5 -19   13.25    7.16
 -12   7 -19    5.82    4.51
   7   5 -16   12.09    7.82
 -12   7 -16    5.66    4.97
   7   5 -13   12.21    5.89
 -12   7 -13   11.17    4.39
   7   5 -10  521.63   33.70
 -12   7 -10  548.28   33.58
 -12   5   7  447.27   31.00
 -12   5   4  611.52   41.13
   5 -12  -4  619.57   41.13
   5 -12  -1  450.31   29.65
   5 -12  -1  422.39   29.11
   7 -12  -2   20.64    5.51
 -12   7   5  673.13   44.10
   7 -12  -5  641.71   43.94
 -12   7   8   76.10    9.67
 -12   5  -8   94.01    7.97
   5   7 -11  515.86   32.35
 -12   5 -11  474.30   32.08
   5   7 -14   29.19    6.55
   7 -12 -14   11.21    4.35
 -12   5 -14   21.26    4.35
   5   7 -17   11.28    7.36
   5   7 -17   11.09    7.97
 -12   5 -17   11.36    4.39
   5   7 -20    5.31    7.39
   5   7 -20   15.33    6.35
 -12   5 -20    5.28    3.31
   5   7 -23   -0.12    3.47
   7   6 -23    5.16    2.85
   7   6 -20   15.40    7.32
   7   6 -20    2.27    6.08
 -13   7 -20    4.12    3.47
   7   6 -17   11.71    7.86
   7   6 -17    1.69    6.70
 -13   7 -17    3.16    4.58
   7   6 -14    7.66    6.47
 -13   7 -14    9.47    4.51
   7   6 -11  474.76   32.16
 -13   7 -11  495.83   31.93
   7   6  -8   88.81    6.89
 -13   6   8   76.17   10.74
 -13   6   5  642.56   45.48
   6 -13  -5  716.07   45.56
   6 -13  -2 1015.30   66.59
   6 -13   1  687.34   46.21
   7 -13  -1  729.32   46.56
   7 -13  -4  600.62   40.40
 -13   7   7  170.72   14.21
   7 -13  -7  144.69   13.75
   6   7 -10  444.07   28.38
 -13   7  10  416.15   28.31
   6   7 -13   20.80    6.05
 -13   6 -13   12.21    4.16
   6   7 -16   30.85    7.86
   6   7 -16   27.50    7.12
 -13   6 -16   13.32    4.62
   6   7 -19    2.50    7.63
 -13   6 -19    5.55    3.70
   6   7 -19    8.05    6.85
   6   7 -22   -3.31    4.04
   7 -14  -3  971.09   64.01
 -14   7   6  115.26   12.17
   7 -14  -6  126.20   11.82
   7   7  -9  114.45    8.90
   7   7 -12  127.20    9.94
 -14   7 -12  113.15    8.86
   7   7 -15   16.21    7.39
   7   7 -15   21.80    6.12
 -14   7 -15   16.75    4.58
   7   7 -18    0.23    8.13
 -14   7 -18    3.27    3.97
   7   7 -18    7.70    6.85
   7   7 -21    3.16    5.78
   7   7 -21    2.89    4.51
  -4  -4   0  746.42   48.99
  -4  -4  -3 2975.78  192.29
  -4  -4   6 1468.58   97.39
  -4  -4  -6 1584.65   97.93
  -4  -4   6 1487.41   97.74
  -4   8   6 1530.31   98.36
  -4  -4  -9  323.22   22.95
  -4   8   9  331.96   24.15
  -4  -4   9  341.67   22.53
   8  -4 -12   62.12    5.89
  -4   8 -12   65.55    6.28
  -4   8 -15   42.52    6.55
   8  -4 -15   31.16    6.32
  -4   8 -15   41.44    6.70
   8  -4 -18   14.60    6.97
  -4   8 -18    5.01    7.47
   8  -4 -21    1.16    5.93
  -4  -4 -21    0.46    3.74
  -4   8 -21    1.08    6.28
  -4   8 -24   -1.00    3.39
  -5   8 -25   -2.62    2.00
  -3  -5 -22   -2.12    3.20
  -5   8 -22    2.43    5.28
   8  -3 -19   -0.92    7.24
  -5   8 -19    4.62    7.09
  -5   8 -16   40.74    6.47
   8  -3 -16   28.27    6.74
  -5   8 -13  138.37   10.71
   8  -3 -13  136.25   10.36
   8  -3 -10  162.21   10.05
  -3  -5 -10  168.41   11.40
  -3   8  10  147.07   12.98
  -5  -3  10  159.20   10.82
  -5  -3   7  974.48   62.58
  -3   8   7  974.94   63.62
  -3  -5  -7  930.08   63.04
  -3   8   4  628.85   41.17
  -5   8  -4  605.82   40.21
  -3  -5  -4  624.07   40.78
  -3  -5   2  306.47   22.11
  -5  -3  -2  353.15   22.41
  -3   8  -5 1460.92   96.08
  -5   8   5 1483.98   97.01
  -5  -3  -5 1553.92   96.62
  -3  -5   5 1480.06   96.43
  -5   8   8   52.41    8.66
  -3  -5   8   60.39    5.89
  -5  -3  -8   71.17    6.89
  -5  -3 -11  182.00   15.29
  -5   8  11  176.26   16.71
   8  -5 -11  235.61   14.75
  -3   8 -11  228.25   14.83
   8  -5 -14   35.85    5.70
  -3   8 -14   33.97    6.05
   8  -5 -17   25.69    6.97
  -3   8 -17   20.56    6.85
  -3   8 -17   17.83    7.05
   8  -5 -20    1.27    6.55
  -3   8 -20   -5.04    7.47
  -5  -3 -23   -1.08    2.08
  -3   8 -23   -0.89    4.47
   8  -2 -23   -1.89    4.39
  -6   8 -23    4.16    4.01
  -2  -6 -23    0.69    2.35
   8  -2 -20   -2.46    7.32
  -6   8 -20   -5.93    6.59
   8  -2 -17    7.70    6.74
  -6   8 -17    1.85    6.32
  -6   8 -14   40.94    5.78
   8  -2 -14   37.82    6.05
  -6   8 -11  218.82   14.02
   8  -2 -11  189.51   13.75
  -6   8 -11  207.77   13.67
  -6  -2   8  338.74   22.41
  -2   8   8  319.95   23.61
  -2  -6  -8  317.22   22.68
  -2  -6  -5  871.66   58.65
  -2   8   5  827.14   58.92
  -6   8  -5  926.50   58.00
  -6   8  -2  697.43   45.33
  -2  -6   1 1986.28  128.59
  -2  -6   4 2998.16  189.28
  -6  -2  -4 2982.45  189.51
  -6   8   4 2793.01  189.47
  -6   8   7  697.90   45.64
  -2  -6   7  664.01   44.52
  -6  -2  -7  699.24   45.02
  -6  -2 -10  860.37   57.34
  -6   8  10  906.09   58.42
  -2   8 -13   53.57    6.32
   8  -6 -13   60.08    6.20
   8  -6 -16   31.35    6.47
  -2   8 -16   38.86    7.28
   8  -6 -19   -1.46    6.70
  -2   8 -22   -1.35    5.62
  -6  -2 -22    4.39    2.77
  -2   8 -25   -0.92    2.16
   8  -6 -25    3.27    2.08
   8  -1 -24   -1.16    3.20
  -7   8 -24    5.58    2.77
   8  -1 -21   -1.16    6.55
  -7   8 -21    5.66    5.78
   8  -1 -18    4.51    7.32
  -7   8 -18   -0.39    6.28
   8  -1 -15    3.66    5.97
  -7   8 -15    3.20    5.35
   8  -1 -12  163.06   11.59
  -7   8 -12  163.36   11.55
  -1  -7  -9   23.53    6.08
  -1   8   9   24.22    7.32
  -7  -1   6  734.94   47.64
  -7   8  -6  716.54   47.10
  -1   8   6  719.92   48.49
  -1  -7  -6  734.64   47.87
  -7   8  -3  481.58   31.81
  -1  -7  -3  499.49   32.70
  -1  -7   0 2653.33  171.53
  -1  -7   3  244.66   17.10
  -7  -1  -6  203.49   13.44
  -1  -7   6  166.79   12.52
  -7   8   6  169.02   13.98
  -7  -1  -9   96.51    8.47
  -7   8   9   90.15   10.28
   8  -7 -12   41.67    5.12
  -1   8 -12   36.08    5.01
  -1   8 -15   18.25    6.08
   8  -7 -15    9.44    5.82
  -1   8 -18    9.55    7.32
   8  -7 -18    6.12    6.66
  -7  -1 -21    2.77    3.35
   8   0 -25    4.89    1.85
   8   0 -22    5.31    5.12
   8   0 -22    0.12    5.89
  -8   8 -22    5.78    4.51
   8   0 -19    0.65    7.59
  -8   8 -19    2.23    6.08
   8   0 -16   -0.35    6.97
  -8   8 -16    2.46    5.66
  -8   8 -13   60.04    5.93
  -8   8 -10   12.48    3.23
   0   8  10    9.59    7.43
  -8   0   7   76.33    7.82
   0   8   7   72.09    9.28
  -8   8  -7   66.24    5.55
   0  -8  -7   67.20    7.59
   0   8   4 2466.25  162.36
   0  -8  -4 2536.18  162.17
   0  -8  -1 2720.69  176.00
  -8   8   2   82.38    7.93
   0  -8   2   93.70    7.93
  -8   8   5   68.59    8.24
  -8   0  -5   91.19    7.70
   0  -8   5   72.17    6.82
  -8   0  -8    6.35    4.70
  -8   8   8   12.59    6.74
   8  -8 -11  120.73    9.09
   0   8 -11  115.07    8.93
  -8   8  11   92.31   11.51
   0   8 -14   -5.70    5.47
   8  -8 -14   -1.81    5.12
   8  -8 -17    3.35    6.20
   0   8 -17   10.24    6.89
   0   8 -17    7.51    7.78
  -8   0 -20    2.89    3.70
   8   1 -23    4.93    3.85
  -9   8 -23   -0.85    3.00
  -9   8 -20    3.00    5.31
  -9   8 -17   15.75    6.20
  -9   8 -14   -1.58    4.70
  -9   8 -11   33.12    4.31
  -9   1   8    7.97    6.16
  -9   8  -8    0.54    2.58
   1   8   8    5.35    7.39
   1  -9  -8    7.12    5.78
   1  -9  -5 2088.14  134.40
   1   8   5 2048.82  134.79
  -9   8   1 2215.50  139.72
   1  -9   1 2098.16  139.76
   1  -9   4 1089.17   71.59
  -9   8   4 1116.47   72.02
  -9   8   7  593.84   42.13
  -9   1  -7  648.95   41.51
  -9   8  10   86.19   10.63
  -9   1 -10   88.50    8.05
   1   8 -10   96.43    7.16
   8  -9 -13    8.74    4.70
   1   8 -13    6.12    4.85
   1   8 -16   24.18    7.63
   1   8 -16   19.49    6.66
  -9   1 -16   15.91    4.27
   8  -9 -16   12.05    6.16
   1   8 -19    2.58    7.51
   8  -9 -19   -0.69    5.74
   1   8 -19    7.63    7.93
  -9   1 -19   -1.89    3.81
   1   8 -22    3.04    5.35
   8  -9 -25   -0.19    1.58
   1   8 -25   -2.54    1.89
   8   2 -24    1.69    2.62
   8   2 -21    7.32    5.85
 -10   8 -21    3.50    4.43
 -10   8 -18    7.36    5.66
 -10   8 -15   21.18    5.08
   8   2 -12    3.93    4.74
 -10   8 -12    7.89    4.04
   8   2  -9   54.92    4.20
 -10   2   9   48.68    7.63
   2 -10  -9   55.49    8.01
 -10   8  -9   31.66    3.27
 -10   8  -9   32.31    3.27
 -10   2   6  727.51   50.03
   2 -10  -6  787.43   50.22
 -10   8   0  353.61   24.11
   2 -10   0  360.46   24.45
 -10   8   3  713.22   46.48
   2 -10   3  691.66   45.52
   2 -10   3  718.92   46.14
 -10   8   6 1512.98   94.62
   2 -10   6 1421.21   93.77
 -10   2  -9   47.56    5.93
 -10   8   9   39.20    8.16
   2   8 -12   98.43    7.74
 -10   8  12  106.64    8.24
   2   8 -15    8.86    6.20
   8 -10 -15   -2.31    5.43
 -10   2 -15    3.16    3.74
   8 -10 -18    8.93    6.05
   2   8 -18    1.00    7.89
 -10   2 -18    4.04    4.01
   2   8 -18    2.66    7.97
   2   8 -21    8.97    6.51
 -10   2 -21   -2.73    2.85
   2   8 -24    5.62    2.93
   8   3 -22    3.47    4.51
 -11   8 -22    5.31    3.08
   8   3 -19    5.89    8.59
 -11   8 -19    4.70    4.85
   8   3 -16    9.97    7.47
 -11   8 -16   13.63    5.51
   8   3 -13   44.90    6.35
 -11   8 -13   37.24    5.20
   8   3 -10  107.79    9.01
 -11   8 -10  130.86    8.82
 -11   3   7  255.25   19.14
   3 -11  -7  261.61   19.06
   3 -11  -4 2327.91  151.04
   3 -11  -1  314.13   21.87
 -11   8   2  475.07   31.93
   3 -11   2  474.69   31.12
   3 -11   2  471.45   31.81
   8 -11  -5 1097.37   72.02
   8 -11  -8  255.52   19.18
 -11   3  -8  250.82   17.72
 -11   8   8  258.37   19.22
   8 -11 -11   94.20    7.93
   3   8 -11  131.98    8.59
 -11   8  11   80.41   11.44
 -11   8  11  117.42    8.74
   3   8 -14   -3.66    5.74
   8 -11 -14   -1.93    4.85
 -11   3 -14   -0.15    3.70
   8 -11 -17    6.66    5.35
   3   8 -17    1.31    7.66
   3   8 -17    1.62    7.89
 -11   3 -17   -0.54    3.97
   3   8 -20    2.04    7.16
 -11   3 -20    4.27    3.23
   3   8 -20    5.35    6.78
   3   8 -23   -1.73    3.85
   8   4 -23   -1.00    3.23
   8   4 -20    8.51    6.39
   8   4 -20   16.25    7.59
 -12   8 -20   10.36    4.16
   8   4 -17    5.62    7.89
 -12   8 -17    2.73    5.08
   8   4 -14   -3.66    6.51
 -12   8 -14   -2.58    4.93
   8   4 -11  255.83   18.41
 -12   8 -11  280.59   18.22
   8   4  -8  138.33    9.70
 -12   4   8  114.49   12.63
 -12   4   5  228.52   17.25
   4 -12  -5  226.29   17.10
   4 -12  -5  231.03   17.33
   4 -12  -2  652.22   44.33
   4 -12  -2  697.78   44.83
   4 -12   1  146.38   10.86
   4 -12   1  144.34   11.63
   8 -12  -4  550.21   37.05
 -12   8   7  717.54   48.14
   4   8 -10  204.19   12.98
 -12   8  10  179.42   13.06
   4   8 -13   51.45    6.32
 -12   4 -13   45.75    4.74
   4   8 -16   10.90    7.36
   4   8 -16   15.25    7.43
   8 -12 -16    7.36    5.04
 -12   4 -16    5.85    4.08
   4   8 -19   -2.93    7.70
   4   8 -19    3.54    7.28
 -12   4 -19    3.81    3.54
   4   8 -22    6.70    4.74
   8   5 -21    5.70    6.43
 -13   8 -21    6.43    2.97
   8   5 -21    4.12    4.89
   8   5 -18   -3.27    7.86
 -13   8 -18   -3.08    4.43
   8   5 -15   22.91    7.39
 -13   8 -15   11.94    5.04
   8   5 -12   51.64    6.74
 -13   8 -12   49.99    5.62
   8   5  -9   71.75    6.39
 -13   5   6  476.42   33.50
   5 -13  -6  490.25   33.20
   5 -13  -3  281.90   20.10
   5 -13   0   89.69    8.13
   5 -13   0   88.58    9.20
 -13   8   3  399.55   28.54
   8 -13  -3  430.90   28.50
   8 -13  -6 1785.56  117.50
 -13   8   6 1817.57  117.57
   5   8  -9  105.75    7.51
 -13   8   9   88.38    7.74
   5   8 -12   90.96    8.55
 -13   8  12  102.17    8.20
   5   8 -15   24.18    6.55
   5   8 -15   23.99    7.32
 -13   5 -15   22.80    4.39
   5   8 -18    2.23    7.59
   5   8 -18    3.58    7.05
 -13   5 -18    4.16    3.70
   5   8 -21   -5.01    6.05
   5   8 -21    0.85    5.20
   5   8 -24    0.04    1.85
   8   6 -22    6.43    3.74
   8   6 -19   -0.42    7.70
   8   6 -19   -4.08    6.28
 -14   8 -19    6.08    3.81
   8   6 -16    9.74    8.20
   8   6 -16   10.98    6.93
 -14   8 -16    8.74    4.58
   8   6 -13   -3.39    6.43
 -14   8 -13    2.81    4.24
   8   6 -10  295.03   20.76
 -14   8 -10  313.48   20.37
   8   6  -7  137.37    9.94
 -14   6   4  303.27   22.91
   6 -14  -4  346.52   23.22
   6 -14  -1  234.19   17.14
   8 -14  -2  730.32   47.98
 -14   8   2  716.04   48.10
 -14   8   5 1346.77   84.45
   8 -14  -5 1228.73   84.22
   6   8  -8  161.05   11.32
   6   8 -11  228.14   14.33
 -14   8  11  185.39   14.10
   6   8 -11  190.94   14.10
   6   8 -14   16.68    6.89
   6   8 -14    7.59    6.05
   6   8 -17    2.85    8.05
 -14   6 -17    7.47    3.85
   6   8 -17    7.70    7.20
   6   8 -20    3.89    6.97
   6   8 -20   -3.47    5.78
   6   8 -23    7.05    2.73
   8   7 -23    0.62    1.96
   8   7 -20   13.98    6.59
   8   7 -20    4.54    5.04
   8   7 -17   -0.31    8.36
 -15   8 -17    5.20    4.12
   8   7 -17   -6.51    6.12
   8   7 -14   45.75    7.47
   8   7 -14   27.65    6.43
 -15   8 -14   32.58    5.01
   8   7 -11  324.61   20.53
 -15   8 -11  283.75   19.83
 -15   7   8   47.56    5.47
   8   7  -8   54.30    5.74
   7 -15  -5   24.57    8.32
 -15   7   5   20.68    8.51
   7 -15  -2 1122.56   73.67
   8 -15  -4  443.88   30.65
   7   8  -7  376.37   24.07
 -15   8   7  348.22   24.15
 -15   8  10  250.05   17.98
   7   8 -10  244.97   17.79
   7   8 -13   20.14    6.66
   7   8 -13   18.33    5.47
   7   8 -16   15.33    8.01
   7   8 -16   12.98    6.74
   7   8 -19    1.96    7.28
   7   8 -19   -3.54    6.01
   7   8 -22   -2.54    3.23
   8 -16  -3  466.21   32.12
   8   8  -6  241.62   15.98
 -16   8   6  227.68   16.06
   8   8  -9   16.60    5.01
 -16   8   9   10.28    4.81
   8   8  -9   12.59    3.20
   8   8 -12   95.58    8.51
   8   8 -12   71.82    7.47
   8   8 -15   12.90    7.97
   8   8 -15   14.63    6.05
   8   8 -18   10.55    7.82
 -16   8 -18    0.96    4.66
   8   8 -18   -1.93    5.55
   8   8 -21    5.58    4.78
   8   8 -21    6.43    3.74
  -5   9 -23    1.81    4.39
   9  -4 -20   -5.28    6.89
  -5   9 -20   -5.12    6.85
   9  -4 -17    1.96    6.85
  -5   9 -17    4.85    6.66
   9  -4 -14   59.88    6.93
  -5   9 -14   62.46    7.20
  -5   9 -14   67.43    6.85
  -4  -5 -11  117.15   11.21
  -4   9  11  109.26   13.17
   9  -4 -11  150.92   10.13
  -5   9 -11  152.20   10.44
  -5   9 -11  145.23   10.17
  -5  -4   8  307.32   21.10
  -4   9   8  292.68   23.07
  -5  -4   8  326.00   21.76
  -4  -5  -8  319.33   22.03
  -4   9   5  409.45   28.38
  -4  -5  -5  421.39   27.77
  -5   9  -5  402.13   26.92
  -4  -5   1  176.50   12.98
  -5  -4  -4  213.77   15.33
  -5   9   4  219.59   15.91
  -4  -5   4  201.45   15.17
  -4  -5   7 1184.71   77.33
  -5  -4  -7 1180.21   77.98
  -4  -5   7 1198.50   77.83
  -5   9   7 1229.46   78.60
   9  -5 -10  167.21    6.32
  -5   9  10  179.92    7.20
  -5   9  10  145.53   10.94
  -5  -4 -10  152.20    8.32
   9  -5 -13   13.52    4.74
  -4   9 -13   17.10    5.04
  -4   9 -16    9.78    6.74
  -4   9 -16    1.58    6.47
   9  -5 -16    6.28    6.08
   9  -5 -19    1.77    6.89
  -4   9 -19    2.43    7.32
  -5  -4 -22    2.27    2.62
  -4   9 -22    5.70    5.58
  -4   9 -25    3.81    1.93
   9  -3 -24   -1.50    3.16
  -6   9 -24    4.39    3.04
   9  -3 -21    7.70    6.51
  -6   9 -21    1.12    5.85
   9  -3 -18   10.90    7.24
  -6   9 -18   10.90    7.16
   9  -3 -15   18.68    6.24
  -6   9 -15   38.63    6.01
   9  -3 -12   54.15    5.24
  -6   9 -12   47.48    5.85
  -6   9 -12   44.98    5.24
  -3   9   9   84.22   10.05
  -3  -6  -9   66.59    7.70
  -6   9  -6 1666.03  111.68
  -3  -6  -6 1829.08  112.57
  -3   9   6 1865.94  113.03
  -3  -6  -3  567.96   37.86
  -6   9   0  233.65   17.14
  -3  -6   0  250.94   17.33
  -3   9   0  255.06   17.45
  -3  -6   3   40.78    5.78
  -6  -3  -3   45.67    6.47
  -3  -6   6  917.41   60.08
  -3  -6   6  940.63   60.69
  -6  -3  -6  957.85   60.92
  -6   9   6  899.12   61.27
  -6   9   9   68.97    9.24
  -3  -6   9   54.15    5.08
  -6  -3  -9   79.41    7.16
   9  -6 -12   19.45    4.35
  -3   9 -12   17.98    4.62
  -3   9 -15   11.90    6.08
   9  -6 -15   16.83    5.82
   9  -6 -18    4.51    6.85
   9  -6 -21    0.73    5.58
  -6  -3 -21    3.62    3.20
  -3   9 -21    4.04    6.74
  -3   9 -24   -0.96    3.31
   9  -2 -25    0.50    1.81
  -2  -7 -22    0.54    2.85
   9  -2 -22    2.97    5.47
  -7   9 -22    4.58    4.93
   9  -2 -19    4.85    7.16
  -7   9 -19    1.08    6.43
   9  -2 -16   11.25    6.51
  -7   9 -16    9.32    6.35
   9  -2 -13    9.20    4.81
  -7   9 -13   10.01    4.58
  -2  -7 -10  175.65   15.40
  -2   9  10  182.50   16.44
   9  -2 -10  205.42   13.90
  -7   9 -10  218.67   13.90
  -7  -2   7  388.19   23.76
  -7   9  -7  324.57   22.53
  -2   9   7  334.12   24.84
  -2  -7  -7  396.89   24.11
  -7   9  -4  487.66   32.00
  -2   9   4  493.02   33.58
  -2  -7  -4  502.53   33.08
  -2  -7  -1  270.77   17.83
  -7   9  -1  234.99   17.29
  -2  -7   2 1335.60   86.88
  -2  -7   5 1051.70   68.24
  -7  -2  -5 1094.02   68.43
  -7   9   5  980.68   68.63
  -2  -7   8   13.98    3.50
  -7   9   8   13.63    7.74
  -7  -2  -8   17.79    5.43
   9  -7 -11  388.61   23.57
  -2   9 -11  337.70   23.53
  -7   9  11  369.78   23.84
  -2   9 -14   40.09    6.20
   9  -7 -14   41.21    6.12
  -2   9 -14   43.94    6.32
   9  -7 -17   -2.54    6.74
  -2   9 -17   10.59    6.93
   9  -7 -20    1.85    6.16
  -7  -2 -20   -0.85    3.54
   9  -1 -23    3.35    4.04
  -1  -8 -23   -1.00    2.04
  -8   9 -23    0.92    3.43
   9  -1 -20    2.43    7.55
  -8   9 -20   -4.54    5.97
   9  -1 -17    9.78    7.51
  -8   9 -17    0.46    6.35
   9  -1 -14    0.54    5.55
  -8   9 -14    4.62    4.70
   9  -1 -11   94.62    7.47
  -8   9 -11   98.97    7.28
  -8  -1   8    8.74    5.82
  -1   9   8    1.46    7.47
  -1  -8  -8    9.24    5.82
  -8   9  -5 2017.21  131.78
  -1  -8  -5 2141.94  132.67
  -1   9   5 2019.09  132.98
  -8   9  -2  525.87   34.85
  -8   9   1 2601.27  162.94
  -1   9  -1 2387.76  163.06
  -8   9   1 2468.71  163.09
  -1  -8   1 2627.34  163.17
  -1  -8   4  796.10   52.99
  -8   9   4  779.50   53.34
  -8  -1  -4  852.71   53.34
  -8   9   7  468.37   31.27
  -8  -1  -7  486.97   30.54
  -1  -8   7  426.59   29.77
  -8   9  10  236.19   15.37
  -8  -1 -10  213.20   15.71
  -8   9  10  181.00   17.41
   9  -8 -13    6.78    4.74
  -1   9 -13    6.82    4.89
  -1   9 -13    9.24    4.85
  -1   9 -16    9.90    6.55
  -1   9 -16    6.16    7.16
   9  -8 -16   15.29    6.12
   9  -8 -19   -1.69    6.55
  -8  -1 -19   -3.39    3.74
   9  -8 -25    0.27    1.73
   9   0 -24    1.08    2.62
  -9   9 -24   -0.19    2.04
   9   0 -21    3.58    6.85
  -9   9 -21    3.58    5.01
   9   0 -18    2.89    7.51
  -9   9 -18    4.74    5.85
  -9   9 -15    0.65    5.62
  -9   9 -12   91.77    7.51
  -9   0   9    2.54    5.97
   0   9   9    4.24    8.13
   0  -9  -9    6.47    6.05
  -9   0   6 1168.23   74.25
   0   9   6 1097.53   74.79
   0  -9  -6 1124.68   74.36
  -9   9   0 5298.35  337.32
   0   9   0 5012.13  337.59
   0  -9   0 5369.28  337.63
  -9   9   3   16.83    5.62
   0  -9   3   18.06    5.04
  -9   9   6  838.35   57.77
   0  -9   6  838.73   56.92
  -9   0  -6  960.73   57.50
  -9   9   9   14.52    7.51
  -9   0  -9   26.80    5.28
   0   9 -12  253.36   17.56
   9  -9 -12  240.58   17.52
  -9   9  12  287.48   18.10
   0   9 -15    9.24    6.39
   0   9 -15   10.94    6.28
   9  -9 -15   14.75    5.74
   9  -9 -18    8.59    6.05
   0   9 -18    2.70    7.32
  -9   0 -18    4.12    3.85
   0   9 -18    9.44    7.66
   0   9 -21   10.86    6.55
   0   9 -24   -2.08    3.08
   9   1 -22   -1.93    4.58
 -10   9 -22   -5.51    3.70
 -10   9 -19    6.05    5.39
 -10   9 -16   29.81    6.20
 -10   9 -13   12.05    4.70
 -10   9 -10    0.85    3.47
 -10   1   7  187.47   14.56
   1 -10  -7  173.34   14.40
   1   9   7  183.43   15.56
   1 -10  -4  472.30   32.27
   1   9   4  478.04   32.81
 -10   9  -1 2063.69  136.87
   1   9   1 2171.83  137.41
   1 -10  -1 2141.60  137.25
 -10   9   2   15.33    5.62
   1 -10   2   17.45    5.12
   1 -10   5  668.13   45.33
 -10   9   5  730.98   46.14
 -10   1  -8    7.39    5.35
 -10   9   8    5.04    7.09
   9 -10 -11   79.49    6.82
   1   9 -11   87.27    7.05
 -10   9  11   88.81    7.66
 -10   9  11   65.20   10.44
 -10   1 -14    7.63    3.39
   1   9 -14   11.01    5.62
   1   9 -14   11.55    6.12
   9 -10 -14    8.74    5.20
   1   9 -17   -4.12    7.47
   9 -10 -17   11.40    6.08
 -10   1 -17    0.27    3.70
   1   9 -17    1.54    7.74
   1   9 -20    4.20    7.12
   1   9 -23    2.93    4.16
   9   2 -23    3.97    3.27
 -11   9 -23   -1.23    2.35
 -11   9 -20    3.16    4.58
 -11   9 -17   35.24    6.43
   9   2 -14    5.97    6.47
 -11   9 -14   -2.70    4.70
   9   2 -11   10.17    4.62
 -11   9 -11    9.24    3.89
   9   2  -8   23.11    3.85
   2 -11  -8   28.58    7.05
 -11   2   8   26.23    7.82
   2 -11  -5 2028.14  131.90
   2 -11  -2 2909.66  188.40
   2 -11   1   18.10    6.12
 -11   9   1   21.07    6.12
   2 -11   4  418.31   26.03
   2 -11   4  376.48   25.07
 -11   9   7  745.15   53.30
 -11   2  -7  837.38   52.80
   2   9 -10   58.88    5.35
 -11   9  10   49.64    8.86
 -11   9  10   56.00    6.28
   2   9 -10   52.84    5.47
   2   9 -13   61.62    6.59
   2   9 -13   61.19    6.66
   9 -11 -13   44.02    5.85
   2   9 -16    7.09    7.28
   9 -11 -16   -5.43    5.39
   2   9 -16    0.89    7.12
 -11   2 -16    0.77    3.74
   2   9 -19    0.73    7.16
   2   9 -19    1.85    7.47
   2   9 -22   -1.46    5.04
   9   3 -24   -0.35    1.85
   9   3 -21    5.74    6.66
 -12   9 -21   11.17    3.70
   9   3 -21   -1.66    5.20
   9   3 -18   -5.82    8.40
 -12   9 -18    0.23    5.20
   9   3 -15   13.86    7.66
 -12   9 -15   13.48    5.58
   9   3 -12   53.38    6.39
 -12   9 -12   52.88    5.85
   9   3  -9   29.61    4.74
 -12   3   9   26.23    8.16
 -12   9  -9   28.54    4.01
   3 -12  -6  292.68   20.95
 -12   3   6  277.43   20.76
   3 -12   0  361.50   24.42
 -12   9   0  340.51   24.15
   3 -12   3   37.59    6.32
 -12   9   3   40.40    7.47
   3 -12   3   44.90    4.51
 -12   9   6  410.37   28.84
   3   9  -9  166.71   11.86
 -12   3  -9  171.72   13.02
 -12   9   9  148.34   14.67
 -12   9   9  191.63   12.40
   3   9  -9  169.80   11.86
   3   9 -12  131.44    9.47
 -12   9  12  135.40    9.74
   3   9 -12  131.86    9.47
   3   9 -15    5.58    7.16
   9 -12 -15    1.46    5.01
   3   9 -15    0.50    6.78
   3   9 -18    7.63    7.55
   3   9 -18    8.55    7.86
   3   9 -21    3.74    5.43
   3   9 -24   -2.62    2.27
   9   4 -22    0.89    5.16
 -13   9 -22    0.92    2.23
   9   4 -22    1.23    3.77
   9   4 -19    9.13    6.28
   9   4 -19    5.66    8.20
 -13   9 -19    7.01    4.47
   9   4 -16   16.10    8.09
 -13   9 -16   15.52    5.47
   9   4 -13    9.09    6.16
 -13   9 -13    6.47    4.78
   9   4 -10  247.82   17.45
 -13   9 -10  257.95   17.14
   9   4  -7  171.14   11.90
 -13   4   7  179.65   14.75
   4 -13  -7  172.11   14.71
   4 -13  -4  790.75   52.45
   4 -13  -1  279.71   19.37
   4 -13  -1  272.50   20.14
   4 -13   2   73.17    6.70
 -13   9   2   74.13    8.93
   4 -13   2   76.10    8.13
 -13   4  -8   10.86    5.24
 -13   9   8   16.98    7.78
   4   9 -11   29.35    4.78
 -13   9  11   25.46    5.47
   4   9 -11   30.50    5.12
   4   9 -14   11.25    6.20
   4   9 -14   14.36    6.66
   4   9 -17   22.07    7.59
   4   9 -17   21.57    7.74
   4   9 -20    4.04    6.82
   4   9 -20    2.58    5.97
   4   9 -23   -1.16    2.97
   9   5 -23    4.27    2.39
   9   5 -20   -1.23    7.12
   9   5 -20   -3.77    5.43
 -14   9 -20    1.66    3.43
   9   5 -17   10.59    8.28
   9   5 -17    5.28    6.62
 -14   9 -17   -0.62    4.62
   9   5 -14   22.03    7.51
 -14   9 -14   26.38    5.16
   9   5 -11  165.79   12.09
 -14   9 -11  156.82   11.59
   9   5  -8   23.11    4.24
 -14   5   5  929.85   61.54
   5 -14  -5  924.92   61.43
   5 -14  -2 1231.35   80.91
   5 -14  -2 1230.54   80.53
   5 -14   1  309.36   21.37
 -14   9   1  314.67   22.22
 -14   9   7  140.80   13.48
   5   9 -10  115.42    8.63
 -14   9  10  102.79    8.97
   5   9 -10  106.79    8.36
   5   9 -13  109.10    9.28
   5   9 -13   93.04    8.97
   5   9 -16   28.73    7.47
   5   9 -16   21.14    6.82
   5   9 -19    5.66    7.12
   5   9 -19    1.66    6.51
   5   9 -22   -3.04    3.77
   9   6 -21    7.66    5.55
   9   6 -21    3.12    3.97
   9   6 -18   14.17    7.89
 -15   9 -18    9.09    4.12
   9   6 -18    5.85    6.16
   9   6 -15   57.07    8.74
   9   6 -15   40.05    7.16
 -15   9 -15   46.29    5.82
   9   6 -12  186.12   12.82
 -15   9 -12  152.04   11.82
   9   6  -9   85.15    7.63
 -15   9  -9   82.11    6.66
   9   6  -6   43.94    4.78
   6 -15  -3  223.67   16.98
   6 -15   0 1295.59   84.49
 -15   9   3  406.83   28.38
   6   9  -9   65.89    6.01
 -15   9   9   62.00    6.32
   6   9  -9   51.95    5.31
   6   9 -12   86.88    7.93
 -15   9  12   67.51    7.43
   6   9 -12   76.02    7.16
   6   9 -15   23.41    7.32
   6   9 -15   24.22    6.47
   6   9 -18    2.62    7.51
   6   9 -18    2.54    6.16
   6   9 -21   -0.15    4.39
   9   7 -22    2.58    2.54
   9   7 -19   -5.82    6.85
   9   7 -19   -2.73    4.97
   9   7 -16    0.23    7.93
 -16   9 -16    3.12    4.27
   9   7 -16   -2.16    6.05
   9   7 -13   12.90    6.85
   9   7 -13   11.75    5.24
 -16   9 -13    7.55    4.35
   9   7 -10  138.68    9.63
   9   7 -10  104.29    8.59
   9   7  -7   61.04    5.89
 -16   7   7   50.87    5.66
   7 -16  -4  185.58   15.21
   7 -16  -1 1047.46   68.82
 -16   9   2  141.61   12.55
 -16   9   5  194.29   13.52
   7   9  -8  101.21    8.13
 -16   9   8  100.74    8.40
 -16   9  11  135.64   11.01
   7   9 -11  132.90   10.59
   7   9 -14   -0.39    6.70
   7   9 -14    1.27    5.66
   7   9 -17    7.63    7.86
   7   9 -17    7.24    5.93
   7   9 -20    1.16    5.70
   7   9 -20   -3.62    4.54
   9   8 -20    2.70    5.47
   9   8 -20    4.51    4.04
   9   8 -17   14.56    7.66
 -17   9 -17    9.70    5.35
   9   8 -17    9.20    5.66
   9   8 -14   10.86    7.74
   9   8 -14    9.44    5.16
   9   8 -11  203.30   11.86
   9   8 -11  123.54   10.63
 -17   8   8   47.98    6.01
   9   8  -8   47.06    6.01
   9   8  -5  344.90   23.26
 -17   8   5  359.38   23.49
   8 -17  -2   18.02    6.85
 -17   8   2   18.60    4.51
 -17   9   1  407.02   26.26
 -17   8  -1  385.73   26.26
 -17   9   4  312.90   21.03
   8   9  -7  248.90   17.45
 -17   9   7  263.38   17.75
   8   9 -10  134.87    9.90
 -17   9  10  124.31    9.40
   8   9 -10  102.90    8.63
   8   9 -13   -3.66    7.09
   8   9 -13    3.74    5.24
   8   9 -16   -8.24    7.47
   8   9 -16    4.31    5.82
   8   9 -19    6.35    6.28
   8   9 -19   -0.04    4.89
   8   9 -22    2.39    2.00
 -18   9   0 1236.09   80.06
 -18   9   3  644.21   39.32
   9   9  -3  570.89   39.05
   9   9  -6  150.77   11.17
 -18   9   6  154.43   11.63
   9   9  -9   18.68    5.85
 -18   9   9   19.68    5.47
   9   9 -12   42.48    7.47
   9   9 -12   33.54    4.93
   9   9 -15    7.89    7.97
   9   9 -15    2.54    5.24
   9   9 -18   -0.39    7.05
 -18   9 -18    9.01    4.31
   9   9 -18    5.24    4.54
   9   9 -21   -0.27    2.39
  -5  -5   0 1453.06   97.66
  -5  10   0 1552.61   97.70
  -5  -5  -3  105.56    9.44
  -5  -5   3   99.40    8.97
  -5  -5  -6  967.97   58.38
  -5  10  -6  825.68   57.38
  -5  -5   6  917.37   58.23
  -5  10   6  974.52   59.15
  -5  -5   9  198.68   13.83
  -5  -5  -9  167.45   14.10
  -5  10   9  177.15   15.64
  10  -5 -12   66.39    6.32
  -5  10 -12   64.51    6.62
  -5  10 -12   68.86    6.43
  10  -5 -15   29.31    6.39
  -5  10 -15   35.85    6.39
  -5  10 -15   39.97    6.74
  10  -5 -18   14.83    6.89
  -5  10 -18   13.79    6.97
  10  -5 -21    5.08    5.82
  -5  10 -21    3.35    6.20
  -5  -5 -21    4.04    2.93
  10  -5 -24    3.50    2.93
  -5  10 -24    1.89    3.08
  10  -4 -25    1.89    1.62
  -6  10 -22    4.16    5.01
  -4  -6 -22    1.62    2.31
  10  -4 -19    5.43    6.89
  -6  10 -19    5.28    7.16
  10  -4 -16    9.78    6.59
  -6  10 -16   22.57    6.85
  10  -4 -13   44.13    5.89
  -6  10 -13   37.66    6.20
  -6  10 -13   51.53    5.62
  -4  10  10  224.94   21.41
  -4  -6 -10  269.46   19.83
  10  -4 -10  279.82   18.49
  -6  10 -10  286.75   18.49
  -6  -4   7 1180.29   65.43
  -6  -4   7 1057.05   65.82
  -4  -6  -7 1160.99   66.12
  -4  10   7 1128.60   66.82
  -4  10   4  267.88   20.26
  -4  -6  -4  282.48   19.68
  -4  10   1  481.20   31.08
  -6  -4   1  448.81   30.85
  -6  10  -1  449.46   30.65
  -4  10  -2   25.69    5.24
  -4  -6   2   29.11    5.62
  -6  -4  -2   34.27    5.89
  -4  -6   5  382.57   26.26
  -6  -4  -5  394.01   26.34
  -6  10   5  374.10   26.92
  -4  -6   8  649.95   42.05
  -6  -4  -8  641.13   42.36
  -6  10   8  590.18   43.21
  10  -6 -11  288.64   18.37
  -4  10 -11  272.04   18.52
  10  -6 -14   76.71    7.55
  -4  10 -14   76.29    7.93
  10  -6 -17    8.93    6.66
  10  -6 -20   15.94    6.05
  -6  -4 -20    3.93    3.43
  -4  10 -20   15.40    7.36
  -4  10 -23    3.97    4.12
  10  -3 -23    5.04    3.97
  -7  10 -23    4.12    3.77
  10  -3 -20    5.58    6.62
  -7  10 -20    1.54    6.24
  10  -3 -17   20.10    7.12
  -7  10 -17    4.47    6.35
  10  -3 -14   26.46    5.62
  -7  10 -14   20.10    5.62
  -3  -7 -11  109.49   10.55
  10  -3 -11  125.82    9.09
  -7  10 -11  130.21    9.01
  -3  -7  -8   27.50    6.51
  -3  10   8   26.96    8.78
  -7  -3   8   22.41    5.51
  -3  -7  -5 1093.64   70.17
  -3  10   5 1033.87   70.59
  -7  10  -2  454.82   30.39
  -3  -7   1  139.22   11.17
  -3  10  -1  144.69   11.17
  -7  10   1  136.95   11.25
  -7  10   4  260.03   19.18
  -3  -7   4  247.90   18.56
  -7  -3  -4  282.36   18.75
  -7  -3  -7   69.78    7.70
  -3  -7   7   67.12    7.05
  -7  10   7   50.49    9.13
  -3  -7   7   69.82    5.39
  10  -7 -10  968.40   63.04
  -7  -3 -10  965.78   64.01
  -7  10  10  898.92   65.05
  -7  10  10 1037.26   63.35
  -3  10 -10  955.23   63.08
  10  -7 -13   65.47    6.55
  -3  10 -13   58.34    6.55
  -3  10 -16   -1.12    6.08
  10  -7 -16    3.39    6.05
  10  -7 -19   -3.16    6.66
  -7  -3 -19    3.47    3.54
  -3  10 -25    1.12    1.73
  -8  10 -24   -1.50    2.43
  10  -2 -24    1.39    2.54
  10  -2 -21   11.48    6.62
  -8  10 -21    3.08    5.39
  10  -2 -18    1.39    7.32
  -8  10 -18    6.12    6.66
  10  -2 -15    6.12    6.08
  -8  10 -15    8.20    5.55
  10  -2 -12    3.50    4.39
  -8  10 -12    2.27    4.31
  10  -2  -9   65.28    5.70
  -2  -8  -9   75.87    8.28
  -2  10   9   60.54   10.13
  -8  -2   9   67.39    7.86
  -8  10  -9   78.95    5.78
  -2  10   6  828.56   58.31
  -2  -8  -6  903.58   57.73
  -8  10  -3  846.13   54.65
  -2  -8  -3  817.70   55.07
  -2  -8   0  775.65   49.45
  -2  10   0  756.86   49.49
  -8  10   0  718.92   49.26
  -8  -2  -3  672.56   41.98
  -2  10  -3  602.66   41.36
  -2  -8   3  624.15   41.59
  -2  -8   6 1185.25   79.33
  -8  10   6 1211.17   80.72
  -2  -8   6 1312.99   80.14
  -8  -2  -6 1338.72   80.45
  -8  10   9   38.36    8.82
  -8  -2  -9   40.98    6.47
  -2  -8   9   18.18    3.04
  -2  10  -9   36.86    3.70
  10  -8 -12   57.77    5.82
  -2  10 -12   48.87    5.82
  -2  10 -12   54.53    5.89
  -2  10 -15    3.85    5.93
  10  -8 -15   10.86    5.66
  -2  10 -15   22.22    6.39
  -8  -2 -18   15.06    3.81
  10  -8 -18    7.74    6.59
  10  -1 -22    1.73    5.66
  10  -1 -22    8.51    4.58
  -9  10 -22    0.85    4.20
  10  -1 -19    2.77    7.74
  -9  10 -19    1.73    6.16
  10  -1 -16   10.94    6.85
  -9  10 -16    3.04    6.16
  10  -1 -13   22.14    5.51
  -9  10 -13   19.29    4.97
  -1  10  10   22.18    8.90
  10  -1 -10   33.66    4.35
  -1  -9 -10   31.12    7.05
  -9  10 -10   34.89    4.27
  -1  10   7  253.17   19.87
  -1  -9  -7  297.92   18.91
  -9  -1   7  280.09   18.37
  -9  10  -7  241.16   16.52
  -9  10  -4  584.25   37.39
  -1  -9  -4  552.56   37.97
  -1  10   4  542.20   38.36
  -9  10  -1 1941.11  129.05
  -1  10   1 1984.55  129.40
  -1  -9  -1 2190.43  129.44
  -9  10  -1 1928.48  128.78
  -1  10  -2   54.65    6.85
  -1  -9   2   63.35    7.01
  -1  -9   5  666.90   45.06
  -9  -1  -5  748.81   45.48
  -9  10   5  632.20   45.48
  -9  10   8   20.99    8.05
  -1  -9   8    9.09    3.31
  -9  -1  -8    8.13    5.51
  10  -9 -11   90.73    7.51
  -1  10 -11   89.00    7.59
  -9  10  11  108.68    8.93
  -1  10 -11   97.36    7.59
  -1  10 -14   11.13    5.66
  10  -9 -14   17.14    5.39
  -1  10 -14   14.06    5.82
  10  -9 -17    3.81    6.12
  -9  -1 -17    1.39    3.58
  -1  10 -17    4.89    6.93
  -1  10 -17    2.89    7.86
  -1  10 -20    2.70    7.24
 -10  10 -23    4.58    2.85
  10   0 -23    3.58    3.47
  10   0 -20    4.39    7.28
 -10  10 -20   11.67    5.08
 -10  10 -17    3.12    5.93
 -10  10 -14   24.38    5.78
 -10  10 -11   14.17    4.27
 -10   0   8   30.73    7.39
 -10  10  -8   27.38    3.31
   0 -10  -8   21.03    6.66
 -10  10  -8   23.92    3.62
   0  10   8   13.56    9.17
   0 -10  -5 1185.83   79.18
 -10  10  -5 1261.81   78.68
   0  10   5 1131.76   79.60
 -10  10  -2  690.04   44.71
 -10  10  -2  668.51   44.98
 -10  10   1  280.90   19.56
   0 -10   1  294.72   19.87
 -10  10   1  279.01   19.95
   0  10  -1  263.49   19.83
 -10  10   4   66.32    8.47
   0 -10   4   81.68    7.66
   0 -10   7    9.09    4.01
 -10   0  -7   15.98    5.55
 -10  10   7    4.70    7.70
   0  10 -10   16.33    3.97
 -10  10  10   22.26    5.20
 -10  10  10   18.22    8.36
   0  10 -10   11.71    3.62
 -10   0 -10   13.09    5.55
   0  10 -13   19.87    5.89
   0  10 -13   25.34    5.47
  10 -10 -13   21.95    5.04
   0  10 -16   -2.62    6.62
  10 -10 -16    0.96    5.74
   0  10 -16    0.69    7.39
   0  10 -19    4.66    6.82
  10 -10 -19   -1.00    5.51
   0  10 -19    4.24    7.51
   0  10 -22    8.82    5.08
  10   1 -24    0.39    2.04
  10   1 -21    1.39    5.28
 -11  10 -21    6.32    4.24
 -11  10 -18    8.55    6.05
 -11  10 -15    7.78    5.70
 -11  10 -12    7.20    4.62
  10   1  -9   93.81    7.78
 -11   1   9  113.45   10.63
 -11  10  -9  107.91    7.51
   1  10   6 1730.38  123.43
   1 -11  -6 1900.40  123.00
 -11  10  -6 1992.56  122.43
 -11   1   6 1841.33  122.77
 -11  10  -3  121.66    9.82
   1 -11   0  885.79   57.65
 -11  10   0  864.69   57.42
   1 -11   3  262.61   18.56
 -11  10   3  261.22   18.95
   1 -11   6  758.59   52.64
 -11  10   6  761.75   53.68
 -11   1  -6  927.65   53.53
 -11   1  -9   36.74    6.35
 -11  10   9   38.67    8.66
 -11  10   9   41.40    5.62
   1  10  -9   39.51    4.35
   1  10 -12   40.21    5.39
  10 -11 -12   26.50    4.81
   1  10 -12   37.51    5.66
 -11  10  12   34.35    6.62
   1  10 -15   19.76    6.43
  10 -11 -15   23.95    5.62
   1  10 -15   19.60    7.28
  10 -11 -18   -4.27    5.43
   1  10 -18   -6.05    7.32
   1  10 -18    6.85    7.70
   1  10 -21    3.20    6.01
   1  10 -24    4.20    2.50
 -12  10 -22    4.31    2.93
  10   2 -22    4.47    4.08
 -12  10 -19    9.82    4.93
 -12  10 -16   60.08    7.09
  10   2 -13   -1.96    6.08
 -12  10 -13    2.12    5.04
  10   2 -10   12.36    4.81
 -12  10 -10   16.71    4.08
 -12  10  -7   38.59    6.01
   2 -12  -7   38.59    8.20
 -12   2   7   45.37    8.20
   2 -12  -4  160.24   13.48
   2 -12  -1 1972.15  127.28
 -12  10  -1 1945.81  126.97
   2 -12   2  257.52   18.99
 -12  10   2  274.43   19.29
   2 -12   5 1067.76   68.05
 -12  10   5  995.74   68.78
 -12   2  -8   87.61    8.32
 -12  10   8   71.48   10.51
   2  10 -11   79.68    6.85
 -12  10  11   73.36    7.97
   2  10 -11   76.79    6.93
   2  10 -14    3.04    5.89
  10 -12 -14    1.27    4.51
   2  10 -14    8.78    6.12
   2  10 -17   -4.39    7.32
  10 -12 -17    5.43    5.55
   2  10 -17   16.60    7.59
   2  10 -20   -4.47    6.74
   2  10 -23    1.85    3.50
  10   3 -23    1.77    2.54
  10   3 -20   -0.81    7.09
  10   3 -20   -4.54    5.28
 -13  10 -20   -0.31    4.20
  10   3 -17   -1.96    8.82
 -13  10 -17   -0.46    5.47
  10   3 -14   23.99    7.28
 -13  10 -14   17.41    5.55
  10   3 -11  103.83    9.24
 -13  10 -11  112.72    8.63
 -13  10  -8   12.98    4.89
  10   3  -8   15.64    4.24
 -13   3   8    8.47    8.09
   3 -13  -5 1149.98   75.91
   3 -13  -2   93.89   10.09
   3 -13   1  240.69   18.06
   3 -13   1  247.13   17.06
 -13  10   1  242.47   18.02
   3 -13   4  935.70   60.96
 -13  10   4  916.64   61.43
 -13  10   7  596.11   44.06
 -13   3  -7  687.42   43.48
   3  10 -10   51.68    5.74
 -13  10  10   66.74    6.85
   3  10 -10   57.65    5.78
   3  10 -13   43.56    6.47
 -13  10  13   38.01    6.82
   3  10 -13   47.18    6.85
   3  10 -16   28.69    7.24
  10 -13 -16   20.22    5.08
   3  10 -16   40.40    7.97
   3  10 -19    3.58    7.01
   3  10 -19    2.89    7.01
   3  10 -22   -0.62    4.31
  10   4 -21    6.39    5.74
  10   4 -21    1.66    4.16
 -14  10 -21   -1.12    2.81
  10   4 -18   10.40    6.39
  10   4 -18   14.87    8.05
 -14  10 -18    5.01    4.85
  10   4 -15   54.34    8.78
 -14  10 -15   60.81    6.89
  10   4 -12   85.03    8.55
 -14  10 -12   83.45    7.59
  10   4  -9   19.76    4.78
 -14  10  -9   25.30    4.12
  10   4  -6  469.33   31.23
 -14   4   6  494.02   33.16
   4 -14  -6  500.84   33.31
   4 -14  -3  683.61   46.44
   4 -14  -3  695.28   46.10
   4 -14   0  230.76   18.29
   4 -14   0  243.20   17.45
 -14  10   0  259.64   18.18
   4 -14   3  627.85   39.82
 -14  10   3  678.33   40.28
   4 -14   3  555.33   38.70
 -14  10   6  255.67   19.53
   4  10  -9  185.85   12.55
 -14  10   9  182.66   13.02
   4  10  -9  173.72   12.44
   4  10 -12  175.23   13.02
 -14  10  12  170.37   13.25
   4  10 -12  177.42   12.86
   4  10 -15   56.61    7.82
   4  10 -15   45.13    7.74
   4  10 -18    8.32    7.47
   4  10 -18    5.82    7.12
   4  10 -21    3.08    4.97
  10   5 -22    1.35    4.31
  10   5 -22    4.93    2.85
  10   5 -19    4.85    7.55
  10   5 -19   -3.31    5.39
 -15  10 -19    6.78    3.77
  10   5 -16   -6.47    8.24
  10   5 -16    4.12    6.32
 -15  10 -16    4.62    4.97
  10   5 -13   44.17    7.43
 -15  10 -13   37.09    5.51
  10   5 -10   87.69    8.13
 -15  10 -10   85.26    7.20
  10   5  -7    0.42    4.01
   5 -15  -4  177.96   14.63
   5 -15  -1 1312.69   84.53
   5 -15  -1 1265.09   83.99
 -15  10   2  723.58   45.06
   5 -15   2  643.10   43.75
   5  10  -8   31.35    4.16
 -15   5  -8   22.61    6.12
 -15  10   8   26.69    5.35
   5  10  -8   27.88    3.70
   5  10 -11   95.28    8.20
 -15  10  11   89.77    8.55
   5  10 -11   89.27    7.86
   5  10 -14    4.89    6.62
   5  10 -14    5.28    6.51
   5  10 -17   18.14    7.51
   5  10 -17    3.00    6.82
   5  10 -20   -4.93    5.70
   5  10 -20    0.31    5.16
   5  10 -23   -0.50    2.16
  10   6 -20    7.70    6.28
  10   6 -20    1.73    4.24
  10   6 -17    9.74    8.43
  10   6 -17    8.59    5.97
 -16  10 -17    4.43    4.31
  10   6 -14   41.09    8.24
  10   6 -14   37.36    6.05
 -16  10 -14   35.58    5.43
  10   6 -11  214.74   14.36
 -16  10 -11  182.08   13.40
  10   6  -8   52.30    6.43
 -16  10  -8   61.89    5.28
  10   6  -5  152.43   10.82
   6 -16  -2  217.43   16.68
 -16  10   1  406.14   25.49
   6 -16   1  329.62   24.18
 -16  10   4  159.71   11.44
   6  10  -7  126.05    9.78
 -16  10   7  150.42   10.63
   6  10 -10  176.88   11.86
 -16  10  10  165.44   12.21
   6  10 -10  144.96   11.40
   6  10 -13   26.23    6.89
   6  10 -13   27.84    6.28
   6  10 -16   19.45    7.36
   6  10 -16   16.94    6.74
   6  10 -19    1.23    6.32
 -16   6 -19   -3.35    4.31
   6  10 -19    1.35    5.24
   6  10 -22    2.46    2.77
  10   7 -21    7.47    4.58
  10   7 -21    4.54    2.97
  10   7 -18    5.28    7.82
  10   7 -18   -0.04    4.89
  10   7 -15    7.78    7.93
  10   7 -15    6.97    5.39
 -17  10 -15   13.48    4.31
  10   7 -12   59.92    7.70
 -17  10 -12   57.92    5.35
  10   7  -9   45.25    6.55
  10   7  -6  224.52   15.13
 -17   7   6  214.66   15.10
 -17  10  -3   79.76    6.78
   7 -17  -3   78.25    9.67
 -17   7   3   88.92    6.82
  10   7  -3   77.56    6.32
 -17   7   0 1188.53   76.68
 -17  10   0 1178.63   76.64
 -17  10   3   69.82    6.89
   7  10  -6   84.26    7.20
 -17  10   6   97.39    8.24
   7  10  -9   46.94    5.66
 -17  10   9   45.25    6.20
   7  10  -9   32.00    4.31
   7  10 -12   32.43    6.62
 -17  10  12   25.88    5.82
   7  10 -12   26.46    5.39
   7  10 -15   -3.62    7.51
   7  10 -15    1.85    5.74
   7  10 -18    0.50    6.59
   7  10 -18    7.43    5.39
   7  10 -21    5.55    3.23
  10   8 -19   -4.31    6.16
  10   8 -19    6.51    3.97
  10   8 -16   -0.77    8.01
 -18  10 -16    5.12    6.05
  10   8 -16    2.70    5.01
  10   8 -13    6.66    7.86
  10   8 -13   -1.62    4.51
  10   8 -10  143.68   11.51
  10   8  -7   20.99    5.28
 -18   8   7   18.45    5.04
  10   8  -4  137.37   10.17
 -18   8   4  143.57   10.55
 -18  10  -4  138.68   10.71
  10   8  -1   97.93    7.63
 -18  10  -1   97.97    8.05
 -18   8   1  118.15    8.59
 -18  10   2  146.84   10.74
   8  10  -5   33.70    4.58
 -18  10   5   35.31    5.85
   8  10  -8   33.97    5.55
 -18  10   8   22.88    6.05
 -18  10  11  130.59   10.67
   8  10 -11  116.30    9.86
   8  10 -14   25.99    7.70
   8  10 -14   19.76    5.58
   8  10 -17   11.44    7.43
   8  10 -17    9.78    5.39
   8  10 -20   -4.81    4.58
   8  10 -20    4.24    3.58
  10   9 -20   -0.19    4.31
  10   9 -17   -1.27    6.82
 -19  10 -17   14.06    5.20
  10   9 -17    2.81    4.27
  10   9 -14    3.77    7.20
  10   9 -14    3.89    4.43
  10   9 -11   89.96    9.13
 -19   9   8   61.39    6.93
  10   9  -8   62.66    7.32
  10   9  -5  271.70   18.64
 -19   9   5  277.97   18.91
 -19   9   2  107.10    8.28
 -19  10  -2  110.18    8.66
   9  10   2   87.38    7.39
  10   9  -2   95.74    7.47
 -19  10   1  572.24   35.97
 -19   9  -1  549.71   35.97
  10   9   1  563.26   35.70
   9  10  -1  513.66   35.62
   9  10  -4   91.85    7.51
 -19  10   4   93.97    8.16
   9  10  -7  212.47   14.67
 -19  10   7  197.21   14.90
   9  10 -10   98.20    8.59
 -19  10  10   70.48    7.97
   9  10 -13    6.66    6.85
   9  10 -13    2.66    4.43
   9  10 -16   12.32    7.01
 -19   9 -16    8.36    6.39
   9  10 -16    2.77    4.81
   9  10 -19   12.09    5.12
   9  10 -19    1.62    3.54
 -20  10   0 1006.99   60.81
  10  10   0  888.80   60.50
 -20  10   3  109.68    9.44
  10  10  -3  100.24    8.24
  10  10   3  109.10    8.20
  10  10  -6  335.24   21.95
 -20  10   6  307.86   22.14
  10  10  -9   18.25    6.24
 -20  10   9    8.74    5.93
  10  10 -12    4.12    6.97
  10  10 -15    1.35    7.28
 -20  10 -15    8.74    6.74
  10  10 -15    7.59    4.08
  10  10 -18    1.85    5.82
 -20  10 -18   -0.73    3.93
  -6  11 -23   -0.19    4.01
  11  -5 -20    4.78    6.12
  -6  11 -20    8.28    6.85
  11  -5 -17    5.74    6.93
  -6  11 -17    4.35    7.28
  11  -5 -14   40.01    6.43
  -6  11 -14   46.48    6.32
  11  -5 -11  352.91   23.26
  -6  11 -11  353.34   23.45
  -6  11 -11  346.21   23.34
  -6  -5   8  247.55   17.14
  -5  -6  -8  248.74   18.22
  -6  -5   8  237.61   17.95
  -5  11   8  250.05   19.83
  -5  11   5  517.09   36.01
  -5  -6  -5  555.44   35.47
  -6  -5   5  500.18   35.28
  -6  -5   2  555.17   36.82
  -5  11   2  514.55   36.97
  -6  11  -2  568.19   36.59
  -5  11  -1  119.50    9.78
  -6  11   1  112.49    9.97
  -5  -6   1   98.09    9.78
  -6  11   4   15.79    6.97
  -6  -5  -4   17.83    5.89
  -5  11  -4   12.09    4.62
  -5  -6   4    8.16    5.78
  -5  -6   7 1339.41   87.50
  -5  -6   7 1371.99   88.27
  -6  -5  -7 1355.70   88.31
  -6  11   7 1338.84   89.00
  -5  11 -10  541.00   36.16
  11  -6 -10  557.87   36.08
  -6  -5 -10  489.98   37.12
  -6  11  10  462.94   38.70
  11  -6 -13   50.41    6.20
  -5  11 -13   59.38    6.66
  11  -6 -16    7.05    6.35
  -5  11 -16    4.81    6.82
  11  -6 -19    4.04    6.51
  -5  11 -19    8.36    7.66
  -5  11 -22    1.62    5.12
  11  -4 -24   -1.66    2.54
  -7  11 -24    6.62    2.62
  11  -4 -21   10.09    6.08
  -4  -7 -21    2.35    2.62
  -7  11 -21    1.93    5.62
  11  -4 -18    4.81    7.32
  -7  11 -18   10.01    6.89
  11  -4 -15   16.52    6.08
  -7  11 -15   19.99    6.05
  11  -4 -12  116.84    8.93
  -7  11 -12  114.26    9.17
  11  -4  -9   94.08    7.09
  -4  -7  -9   81.95    9.44
  -4  11   9   81.37   11.32
  -7  -4   9   96.93    9.40
  -7  -4   9   90.39    8.28
  -7  11  -9   97.86    7.09
  -4  -7  -6  551.09   36.12
  -4  11   6  504.69   36.86
  -4  -7  -3  351.26   25.11
  -7  11  -3  368.05   24.49
  -4  11   0  166.37   13.21
  -7  11   0  169.06   12.98
  -4  -7   0  161.21   13.09
  -7  -4   0  181.00   13.48
  -4  -7   3   41.44    6.82
  -4  11  -3   51.37    6.01
  -7  -4  -3   55.22    7.47
  -7  -4  -6  244.97   16.64
  -4  -7   6  217.66   16.21
  -7  11   6  191.55   17.21
  -7  -4  -9  192.32   15.83
  -4  -7   9  188.86   14.90
  -7  11   9  204.42   17.68
  -7  11   9  238.27   15.02
  -4  11  -9  213.39   14.21
  11  -7 -12   53.72    5.74
  -4  11 -12   54.22    6.05
  11  -7 -15   14.29    5.55
  -4  11 -15   15.29    6.12
  11  -7 -18   15.33    6.66
  11  -7 -21   -4.20    5.04
  -4  11 -21    0.58    6.47
  11  -7 -24   -1.23    2.70
  -4  11 -24   -2.04    2.81
  11  -3 -22    3.08    5.04
  -8  11 -22   10.36    4.62
  11  -3 -19   -2.27    7.32
  -8  11 -19    5.12    6.51
  11  -3 -16   28.77    7.24
  -8  11 -16   20.37    6.47
  11  -3 -13   22.99    5.51
  -8  11 -13   19.45    5.08
  -3  -8 -10  126.09   13.44
  -3  11  10  129.94   15.48
  11  -3 -10  176.15   11.71
  -8  11 -10  179.15   11.75
  -3  -8  -7  204.84   15.94
  -3  11   7  182.31   17.10
  -8  -3   7  215.32   15.29
  -3  11   4 1826.46  130.24
  -3  -8  -4 2110.06  130.01
  -8  11  -4 2022.41  129.47
  -3  -8  -1  398.05   27.77
  -3  11   1  417.77   28.00
  -8  11  -1  404.33   27.50
  -8  -3  -2  682.22   40.36
  -3  11  -2  572.12   39.74
  -8  11   2  550.90   39.94
  -3  -8   2  612.56   40.01
  -3  -8   5  945.83   61.96
  -8  -3  -5 1005.41   62.20
  -8  11   5  869.54   62.27
  -8  11   8  241.50   19.60
  -8  -3  -8  265.42   18.25
  -3  -8   8  241.04   17.52
  11  -8 -11  199.22   14.25
  -3  11 -11  196.25   14.33
  -3  11 -11  207.92   14.40
  11  -8 -14    3.93    5.24
  -3  11 -14   -0.73    5.51
  -3  11 -14   -0.27    5.97
  11  -8 -17   17.79    6.39
  11  -8 -20   -2.54    5.66
  11  -2 -23    6.62    3.31
  -9  11 -23    5.66    3.20
  11  -2 -20    9.51    6.93
  -9  11 -20    6.43    5.85
  11  -2 -17   26.65    8.01
  -9  11 -17   36.78    6.85
  11  -2 -14    3.08    5.74
  -9  11 -14    1.69    5.39
  11  -2 -11   27.84    4.81
  -9  11 -11   31.19    4.74
  11  -2  -8   24.61    3.47
  -9  11  -8   16.29    2.73
  -2  11   8   36.55    9.44
  -2  -9  -8   31.93    6.82
  -9  -2   8   28.23    6.55
  -9  11  -5 2397.85  152.97
  -2  11   5 2224.86  154.01
  -2  -9  -5 2415.91  153.58
  -9  11  -2 2782.92  177.96
  -2  11   2 2703.59  178.38
  -2  -9   1   99.24    9.01
  -2  11  -1  102.98    9.01
  -9  11   1   84.72    8.93
  -9  11   4  377.72   29.31
  -2  -9   4  432.40   29.08
  -9  -2  -4  473.30   29.54
  -2  -9   7  819.01   52.99
  -9  11   7  752.35   53.92
  -9  -2  -7  827.22   53.41
  -2  11 -10   93.89    7.55
  11  -9 -10   99.74    7.51
  -9  -2 -10   88.38    9.20
  -9  11  10  103.59    8.97
  -2  11 -10  100.63    7.55
  11  -9 -13   40.67    5.85
  -2  11 -13   38.01    5.89
  -2  11 -13   46.29    6.39
  11  -9 -16    7.47    5.97
  -2  11 -16   10.90    6.47
  -2  11 -16   13.52    7.28
  11  -9 -19    3.47    5.78
  -2  11 -19   -2.46    7.97
  11  -1 -24    2.27    2.08
  11  -1 -21    6.89    6.32
 -10  11 -21    5.28    4.85
  11  -1 -18    2.43    7.59
 -10  11 -18    3.50    6.01
  11  -1 -15   -1.27    6.59
 -10  11 -15   -4.31    5.70
  11  -1 -12   34.70    5.78
 -10  11 -12   37.82    5.12
  11  -1  -9   94.01    7.70
  -1 -10  -9   88.23   10.28
  -1  11   9  106.52   12.79
 -10  -1   9   90.92    9.97
 -10  11  -9  106.79    7.70
  -1  11   6 1728.91  119.92
  -1 -10  -6 1738.85  119.31
 -10  11  -6 1925.05  118.73
 -10  11  -6 1835.97  118.27
 -10  11  -3  114.65    9.82
 -10  11   0  845.39   57.15
  -1 -10   0  898.31   57.27
  -1  11   0  835.96   57.27
 -10  11   0  883.48   56.80
  -1 -10   3  254.25   18.33
 -10  11   6  607.40   41.75
  -1 -10   6  608.28   40.86
 -10  -1  -6  624.61   41.21
 -10  11   9   74.83   10.47
 -10  -1  -9   76.75    8.59
 -10  11   9   84.99    7.66
  -1  11  -9   88.23    6.62
  -1  11 -12   41.63    5.43
  11 -10 -12   40.44    5.39
 -10  11  12   34.27    7.16
  -1  11 -12   50.72    6.12
  -1  11 -15   15.64    6.08
  11 -10 -15   17.37    5.66
  -1  11 -15   18.52    6.74
  11 -10 -18   -2.39    5.97
  -1  11 -18   -6.66    7.01
  -1  11 -18   -5.74    8.13
  -1  11 -21   10.13    6.35
  -1  11 -24   -0.69    2.62
  11   0 -22    1.23    5.24
 -11  11 -22   10.01    3.58
  11   0 -22    9.13    4.12
  11   0 -19   16.60    7.89
 -11  11 -19   11.44    5.55
 -11  11 -16    0.31    5.58
 -11  11 -13   31.46    5.47
 -11  11 -10   27.27    4.70
   0  11   7  862.76   60.92
 -11  11  -7  925.77   59.04
   0 -11  -7  834.65   59.85
 -11   0   7  950.61   59.85
   0 -11  -4   61.12    8.55
 -11  11  -4   69.47    7.66
   0  11   4   69.05   10.21
 -11  11  -4   86.26    7.28
   0 -11  -1 1055.05   65.28
   0  11   1  968.63   65.31
 -11  11  -1  961.58   64.93
 -11  11  -1  979.64   64.62
   0 -11   2  600.00   36.89
 -11  11   2  529.56   37.01
 -11  11   2  515.05   36.62
   0 -11   5  866.42   61.16
 -11  11   5  915.56   61.89
 -11   0  -5 1055.51   61.89
   0 -11   8    9.24    3.66
 -11   0  -8    3.23    5.85
 -11  11   8   11.67    8.09
 -11  11   8    8.70    4.24
   0  11  -8    9.82    3.04
   0  11 -11   54.26    5.62
  11 -11 -11   49.60    5.39
 -11  11  11   58.46    7.09
   0  11 -11   54.72    5.82
  11 -11 -14    0.08    5.31
   0  11 -14   -8.51    5.62
   0  11 -14    1.50    6.66
   0  11 -17    2.81    6.89
  11 -11 -17   -0.35    5.89
   0  11 -17    5.39    7.55
   0  11 -20    4.43    6.62
   0  11 -23    6.85    3.62
  11   1 -23    1.04    2.73
 -12  11 -23    4.43    1.96
 -12  11 -20    2.04    4.78
 -12  11 -17   56.26    7.39
 -12  11 -14   10.17    5.66
 -12  11 -11    2.58    4.39
 -12  11  -8   13.29    4.12
  11   1  -8   17.68    4.04
 -12   1   8   11.90    7.63
 -12  11  -8   17.25    3.70
   1  11   5  436.14   36.89
 -12  11  -5  559.57   35.93
   1 -12  -5  476.69   36.39
 -12  11  -5  596.23   35.62
   1  11   2  442.80   34.31
   1 -12  -2  491.71   34.08
 -12  11  -2  540.46   33.54
   1 -12   1  854.79   56.65
 -12  11   1  857.79   56.46
 -12  11   4  652.68   43.56
   1 -12   4  681.26   43.06
   1 -12   4  632.47   41.98
 -12  11   7   23.38    7.82
   1 -12   7   22.37    4.85
 -12   1  -7   36.24    6.59
 -12  11   7   23.03    4.20
   1  11 -10   43.44    5.12
 -12  11  10   56.84    6.43
   1  11 -10   50.76    5.24
  11 -12 -13   10.67    4.78
   1  11 -13   16.44    5.47
 -12  11  13    5.43    6.97
   1  11 -13   12.48    6.16
  11 -12 -16   15.75    5.89
   1  11 -16   27.77    7.16
   1  11 -19    2.54    6.78
   1  11 -19    0.50    7.36
   1  11 -22    2.23    4.58
  11   2 -21    2.31    4.47
 -13  11 -21    6.08    3.47
 -13  11 -18    5.08    5.47
  11   2 -15   59.11    8.51
 -13  11 -15   44.52    6.97
  11   2 -12    0.27    5.89
 -13  11 -12   -3.00    4.78
  11   2  -9   41.86    5.66
 -13  11  -9   49.83    5.16
 -13  11  -6  583.25   35.78
   2 -13  -6  511.04   36.47
  11   2  -6  530.18   34.66
 -13   2   6  484.28   36.12
 -13  11  -3  149.04   11.90
   2 -13   0  616.45   41.55
 -13  11   0  616.33   41.32
   2 -13   3  938.82   63.00
 -13  11   3 1011.76   63.31
   2 -13   3  944.44   62.20
 -13   2  -6  283.06   18.52
 -13  11   6  235.07   19.14
   2 -13   6  231.68   17.56
   2  11  -9   32.04    4.31
 -13   2  -9   40.05    6.59
 -13  11   9   39.09    5.70
   2  11  -9   34.39    4.43
   2  11 -12   58.58    6.47
 -13  11  12   50.14    7.70
   2  11 -12   63.00    6.55
   2  11 -15   15.44    6.62
  11 -13 -15   13.40    5.12
   2  11 -15   31.08    7.55
   2  11 -18   -2.70    7.16
   2  11 -18    1.39    7.12
   2  11 -21    1.19    5.31
  11   3 -22    5.66    4.58
 -14  11 -22    4.66    1.96
  11   3 -22    5.47    3.16
  11   3 -19    6.35    7.66
  11   3 -19    2.62    5.47
 -14  11 -19    3.70    4.54
  11   3 -16   31.62    8.93
 -14  11 -16   21.07    5.97
  11   3 -13   13.17    6.78
 -14  11 -13   10.86    5.66
  11   3 -10  123.62   10.24
 -14  11 -10  133.59    9.94
  11   3  -7  116.46    9.01
 -14  11  -7  127.70   10.44
   3 -14  -1  305.66   22.91
 -14  11  -1  323.49   22.41
   3 -14   2  157.78   13.21
 -14  11   2  166.60   13.56
   3 -14   2  155.01   11.71
 -14  11   5  126.51   12.25
   3 -14   5  116.26   10.09
 -14  11   5  110.18   11.40
   3  11  -8   11.17    3.27
 -14   3  -8   12.13    5.62
 -14  11   8    7.16    4.78
   3  11  -8    7.70    3.27
   3  11 -11  126.82   10.09
 -14  11  11  130.51   10.90
   3  11 -11  138.41   10.21
   3  11 -14    1.96    6.35
   3  11 -14   10.05    6.66
   3  11 -17   16.17    7.51
   3  11 -17   16.21    7.55
   3  11 -20    0.23    6.05
   3  11 -23   -0.27    2.58
  11   4 -20  -10.51    6.39
 -15  11 -20   -0.27    3.27
  11   4 -20    3.04    4.47
  11   4 -17   16.25    5.93
 -15  11 -17   17.33    5.16
  11   4 -14   51.64    8.36
 -15  11 -14   41.48    6.51
 -15  11 -14   45.60    6.20
  11   4 -11  115.73    9.97
 -15  11 -11  112.49    9.17
  11   4  -8   89.04    8.09
 -15  11  -8   98.20    7.47
  11   4  -5  110.26    8.51
 -15   4   5   97.55   11.63
 -15  11  -5  128.01    8.90
   4 -15  -5  121.69   11.86
   4 -15  -2  491.13   34.89
   4 -15  -2  495.91   34.12
 -15  11  -2  521.32   34.27
   4 -15   1  134.10   12.17
 -15  11   1  133.25   12.55
   4 -15   1  137.14   10.82
 -15  11   4  124.47    9.44
 -15  11   4  119.96   12.21
 -15   4  -7  129.47   11.55
 -15  11   7  133.21   10.36
   4  11 -10    6.39    4.47
 -15  11  10   10.28    6.01
   4  11 -10   12.36    4.27
   4  11 -13   28.23    6.39
 -15  11  13   18.87    6.66
   4  11 -13   23.26    6.32
   4  11 -16   23.92    7.74
   4  11 -16   44.75    7.20
   4  11 -19   -0.54    6.16
   4  11 -19    5.51    6.16
   4  11 -22   -0.89    3.23
  11   5 -21    2.39    4.97
  11   5 -21    8.20    3.20
  11   5 -18   -1.04    7.82
 -16  11 -18    1.08    4.16
  11   5 -18    4.51    5.47
  11   5 -15    8.47    5.43
  11   5 -15   14.44    8.63
 -16  11 -15    2.43    5.85
 -16  11 -15   10.40    5.12
  11   5 -12  143.15   11.75
 -16  11 -12  137.95   10.74
  11   5  -9  150.27   11.82
 -16  11  -9  156.51   11.13
  11   5  -6  111.18    8.51
   5 -16  -3  235.84   17.87
 -16  11  -3  232.61   15.71
   5 -16   0  370.28   26.19
 -16  11   0  395.05   26.88
 -16  11   3  192.98   13.25
 -16  11   3  166.68   15.25
 -16  11   6  203.45   15.37
 -16  11   6  239.58   15.48
   5  11  -9   23.22    4.62
 -16  11   9   23.38    6.08
   5  11  -9   25.53    4.20
   5  11 -12   97.55    8.51
 -16  11  12   79.29    8.93
   5  11 -12   89.81    7.86
   5  11 -15   27.11    7.16
   5  11 -15   22.91    6.74
   5  11 -18    5.28    6.62
   5  11 -18    6.93    6.01
   5  11 -21   -4.97    3.93
  11   6 -19    5.51    6.82
  11   6 -19    4.54    4.31
  11   6 -16   18.33    8.36
 -17  11 -16   17.10    5.70
 -17  11 -16   18.72    4.58
  11   6 -16   13.32    5.35
  11   6 -13    7.70    7.70
  11   6 -13    3.35    4.62
 -17  11 -13    5.12    4.81
  11   6 -10  136.98   10.63
 -17  11 -10  118.23    9.36
  11   6  -7   22.03    4.93
 -17   6   7   13.17    4.39
 -17  11  -7   28.27    3.54
  11   6  -4  134.40    9.74
 -17   6   4  129.82    9.82
 -17  11  -4  141.57   10.21
 -17   6   1  833.19   52.61
   6 -17  -1  760.59   53.72
 -17  11  -1  782.35   53.99
 -17  11   2   36.32    5.43
 -17  11   5  234.03   18.18
 -17  11   5  297.00   18.25
   6  11  -8   48.49    5.47
 -17  11   8   48.87    6.97
   6  11 -11  161.17   11.17
 -17  11  11  138.02   11.32
   6  11 -11  125.01   10.47
   6  11 -14    2.43    6.78
   6  11 -14    6.74    6.08
   6  11 -17    8.66    7.12
   6  11 -17    6.66    5.78
   6  11 -20    5.08    5.01
   6  11 -20    4.04    4.24
  11   7 -20   -2.46    5.24
  11   7 -20    5.31    2.97
  11   7 -17   19.60    7.55
  11   7 -17   16.60    4.81
  11   7 -14   10.36    8.24
 -18  11 -14    2.08    6.59
  11   7 -14    8.24    4.58
  11   7 -11  123.66   10.90
  11   7  -8   47.91    6.39
 -18   7   8   38.28    5.47
  11   7  -5  332.27   22.26
 -18   7   5  332.04   22.30
 -18  11  -5  334.20   22.57
  11   7  -2  276.01   17.95
 -18   7   2  263.22   18.18
   7 -18  -2  246.43   19.91
  11   7   1  308.74   21.03
 -18   7  -1  319.45   21.26
 -18  11   1  325.15   21.41
 -18  11   4   10.36    4.78
 -18  11   4   11.94    5.24
   7  11  -7  174.61   13.29
 -18  11   7  214.74   14.17
   7  11 -10  197.68   12.09
 -18  11  10  169.99   12.36
   7  11 -13   -2.77    7.09
   7  11 -13   -0.19    5.20
   7  11 -16   29.92    7.09
   7  11 -16   19.95    6.12
   7  11 -19   -2.85    5.66
 -18   7 -19    4.39    3.85
   7  11 -19    0.23    4.39
  11   8 -21    1.66    3.39
  11   8 -18    1.73    6.59
  11   8 -18    3.16    3.70
  11   8 -15    5.85    7.47
 -19  11 -15   -5.70    6.16
  11   8 -15    0.35    4.24
  11   8 -12   16.02    7.20
 -19   8   9   35.55    5.74
  11   8  -9   53.80    7.20
  11   8  -6  290.80   20.18
 -19  11  -6  325.03   20.53
 -19   8   6  278.94   20.14
 -19   8   3    7.97    4.93
  11   8  -3    6.08    3.93
 -19  11   0  441.95   29.46
 -19   8   0  458.20   29.50
  11   8   0  435.98   29.19
 -19  11   3  235.23   15.17
   8  11  -3  199.14   14.33
   8  11  -6  431.28   28.69
 -19  11   6  434.13   28.96
   8  11  -9   38.93    6.16
 -19  11   9   31.04    6.78
   8  11 -12   25.88    6.59
 -19  11  12   15.02    5.93
   8  11 -12   14.67    4.58
   8  11 -15    1.00    7.32
   8  11 -15    4.43    4.85
   8  11 -18    3.50    5.78
 -19   8 -18   10.74    4.58
   8  11 -18    4.12    4.35
  11   9 -19   -5.43    4.97
  11   9 -16   15.40    7.09
 -20  11 -16   15.67    6.01
 -20  11 -13    3.70    7.24
  11   9 -13   -0.54    7.82
  11   9 -10   34.16    7.32
  11   9  -7  243.70   15.87
 -20   9   7  191.78   15.67
 -20  11  -7  230.37   16.37
 -20   9   4  219.82   15.33
  11   9  -4  208.58   14.87
 -20  11  -1  350.41   22.41
 -20   9   1  325.76   22.11
  11   9  -1  315.02   21.72
 -20   9  -2  107.52    9.28
 -20  11   2  109.99    9.09
   9  11  -2   89.62    7.55
  11   9   2   95.70    7.78
   9  11  -5  342.48   23.65
 -20  11   5  368.97   24.15
   9  11  -8   85.65    8.09
 -20  11   8   81.14    8.74
   9  11 -11   19.95    6.93
 -20  11  11   18.14    6.05
   9  11 -14   -6.62    6.97
   9  11 -14    7.20    4.35
   9  11 -17   24.18    6.43
 -20   9 -17   26.61    5.55
   9  11 -17   10.28    4.27
  11  10 -20   -0.42    2.93
  11  10 -17    7.78    6.12
 -21  11 -17   13.94    4.66
 -21  11 -14   14.83    7.24
  11  10 -14   26.84    7.70
 -21  11 -11   57.54    8.74
  11  10 -11   46.71    8.13
 -21  10   8   40.63    6.97
 -21  11  -8   53.84    8.20
  11  10  -8   41.17    7.28
  11  10  -5  270.08   18.87
 -21  11  -5  290.45   19.53
 -21  10   5  266.03   19.22
 -21  10   2  218.82   15.02
 -21  11  -2  210.15   15.17
  10  11   2  199.10   14.17
  11  10  -2  197.33   14.17
 -21  10  -1  275.08   18.06
 -21  11   1  290.72   18.14
  11  10   1  248.09   17.25
  10  11  -1  232.61   17.14
  10  11  -4  252.90   17.64
 -21  11   4  261.84   18.22
  10  11  -7  184.28   12.82
 -21  11   7  153.27   13.29
 -21  11  10    2.00    6.08
  10  11 -10    3.81    6.35
 -21  10 -13   20.87    7.89
  10  11 -13   29.69    7.24
  10  11 -16   29.31    6.55
 -21  10 -16   27.96    6.35
  10  11 -19    0.69    4.01
 -22  11   0   65.97    8.09
  11  11   0   57.77    6.08
 -22  11  -3  184.47   13.36
 -22  11   3  176.15   13.06
  11  11  -3  145.42   11.90
  11  11   3  158.70   11.82
  11  11  -6  105.48    9.05
 -22  11   6   77.72    9.63
 -22  11  -6  111.72   10.86
 -22  11  -9   14.48    8.24
 -22  11   9   16.14    6.20
  11  11  -9    7.55    6.24
 -22  11 -12   84.72   10.13
  11  11 -12   88.65    9.36
  11  11 -15   14.17    6.43
 -22  11 -15   -0.58    6.43
  11  11 -18   -0.23    4.35
  -6  -6   0  793.67   52.61
  -6  12   0  794.64   52.61
  -6  12  -3  168.52   12.94
  -6  -6  -3  178.38   13.52
  -6  -6   3  163.67   13.29
  -6  12   6 1017.77   67.32
  -6  -6  -6 1090.36   66.66
  -6  -6   6  933.43   66.39
  12  -6  -9  174.96   11.67
  -6  12   9  169.41   12.67
  -6  12   9  158.47   15.83
  -6  -6  -9  143.15   13.63
  -6  -6   9  176.26   13.59
  12  -6 -12  104.06    8.20
  -6  12 -12   95.55    8.36
  12  -6 -15   15.98    6.12
  -6  12 -15   21.64    6.70
  12  -6 -18    9.74    7.05
  -6  12 -18    7.24    7.59
  12  -6 -21   -1.62    5.16
  -6  12 -21    2.66    5.82
  12  -6 -24   -0.62    2.31
  -6  12 -24   -0.31    2.54
  12  -5 -22   10.13    4.62
  -7  12 -22   -0.89    4.58
  12  -5 -19    3.12    6.93
  -7  12 -19   22.18    7.09
  12  -5 -16   24.72    6.97
  -7  12 -16   23.49    6.70
  12  -5 -13    1.23    5.20
  -7  12 -13   -0.08    4.89
  12  -5 -10  556.21   33.27
  -7  12 -10  497.68   33.20
  -5  -7  -7  472.41   31.85
  -7  -5   7  415.92   31.69
  -5  12   7  442.38   32.89
  -7  -5   7  490.40   30.92
  -7  12  -4  390.62   26.26
  -5  12   4  370.63   27.57
  -5  -7  -4  392.81   26.88
  -7  -5   4  383.30   26.69
  -7  12  -1  490.82   32.97
  -7  -5   1  507.58   33.24
  -5  12   1  480.66   33.24
  -5  -7  -1  472.03   33.04
  -7  12   2    5.08    6.70
  -5  -7   2    6.43    5.51
  -5  12  -2    7.09    5.43
  -7  -5  -5  284.29   19.45
  -5  12  -5  258.99   18.25
  -5  -7   5  261.64   19.37
  -7  12   5  256.41   20.03
  -7  -5  -8   97.59    9.44
  -7  12   8   89.73   11.36
  -5  -7   8   95.58    8.97
  -7  12   8   76.56    6.70
  -5  -7   8   77.60    6.93
  -7  12   8   79.53    7.59
  -5  12  -8   88.38    6.43
  12  -7 -11  494.29   31.50
  -7  12  11  555.14   32.27
  12  -7 -14   34.20    5.82
  -5  12 -14   26.07    6.08
  12  -7 -17   18.37    6.66
  12  -7 -20   17.60    5.82
  -5  12 -20    7.01    7.01
  -5  12 -23   12.44    3.97
  12  -4 -23    3.47    3.27
  -8  12 -23   -0.19    3.43
  12  -4 -20    5.43    6.32
  -8  12 -20    3.20    6.16
  12  -4 -17   12.79    7.24
  -8  12 -17    7.16    7.28
  12  -4 -14   -0.39    5.97
  -8  12 -14   -1.66    5.74
  12  -4 -11  258.87   17.45
  -8  12 -11  254.25   17.48
  12  -4  -8  110.30    8.13
  -8  -4   8  108.99   10.32
  -4  -8  -8  101.21   10.71
  -4  12   8  125.28   13.21
  -8  -4   8  119.38    9.97
  -8  12  -8  110.80    8.13
  -8  12  -5  226.02   15.56
  -4  -8  -5  219.59   16.60
  -4  12   5  190.32   18.02
  -4  12   2  637.55   45.79
  -8  12  -2  715.30   45.29
  -4  -8   1  238.50   17.29
  -8  12   1  222.05   17.18
  -4  12  -1  245.51   17.21
  -4  -8   4  396.24   25.84
  -8  12   4  344.98   26.30
  -8  -4  -4  421.31   26.19
  -4  12  -4  341.75   25.22
  -8  12   7  602.31   45.29
  -8  -4  -7  740.99   44.75
  -4  -8   7  685.73   44.48
  -4  -8   7  650.07   43.36
  -4  12 -10  273.04   18.83
  12  -8 -10  278.86   18.75
  -8  -4 -10  266.69   20.45
  -8  12  10  286.68   19.45
  -4  12 -10  293.99   18.91
  12  -8 -13   38.59    5.70
  -4  12 -13   31.89    5.82
  -4  12 -13   42.48    6.08
  12  -8 -16   23.15    6.28
  12  -8 -19    3.74    6.24
  -9  12 -24    1.69    1.93
  12  -3 -24    1.69    2.00
  12  -3 -21    1.08    6.12
  -9  12 -21    7.12    5.31
  12  -3 -18   -3.74    7.55
  -9  12 -18    5.08    6.93
  12  -3 -15   26.61    6.78
  -9  12 -15   29.77    6.82
  12  -3 -12   17.33    5.16
  -9  12 -12   13.25    5.16
  -3  -9  -9   22.14    6.78
  12  -3  -9   28.07    4.35
  -9  -3   9   18.18    6.39
  -9  12  -9   31.62    4.12
  -9  12  -6  277.78   19.22
  -3  -9  -6  288.25   20.64
  -3  12   6  264.38   21.91
  -9  12  -3  459.09   30.96
  -9  12   0  132.71   11.09
  -3  -9   0  119.69   11.36
  -3  12   0  151.73   11.82
  -3  12  -3   40.32    6.35
  -9  -3  -3   54.22    8.01
  -3  -9   3   50.18    7.01
  -3  -9   6  470.72   31.50
  -9  -3  -6  469.72   31.73
  -9  12   6  435.25   32.39
  12  -9  -9  185.97   12.52
  -9  -3  -9  160.21   14.44
  -9  12   9  188.24   13.25
  -3  12  -9  184.81   12.67
  12  -9 -12   92.20    7.63
  -3  12 -12   81.10    7.55
  -9  12  12   91.23    9.51
  -3  12 -12   91.39    7.97
  -3  12 -15    4.66    6.01
  12  -9 -15    1.39    5.58
  -3  12 -15    4.47    6.39
  12  -9 -18   -4.78    6.20
  -3  12 -18    6.24    7.82
  12  -2 -22    3.66    3.85
  12  -2 -22    1.50    4.85
 -10  12 -22    3.35    3.93
  12  -2 -19    5.24    7.59
 -10  12 -19    0.08    6.20
  12  -2 -16   57.57    8.51
 -10  12 -16   58.81    7.36
  12  -2 -13    7.05    5.55
 -10  12 -13    1.73    5.04
  12  -2 -10   23.38    4.74
 -10  12 -10   22.61    4.58
  -2  12   7   -0.58    8.86
  12  -2  -7    7.82    3.39
  -2 -10  -7    5.39    6.47
 -10  -2   7   11.13    6.32
  -2  12   4  151.50   14.67
  -2 -10  -4  171.87   13.63
 -10  12  -4  160.63   12.44
 -10  12  -1 1698.99  116.15
  -2 -10  -1 1885.19  116.50
  -2  12   1 1802.55  116.57
 -10  12   2  302.12   22.18
  -2  12  -2  304.81   21.84
  -2 -10   2  327.15   22.14
  -2 -10   5  718.35   46.29
 -10  -2  -5  699.71   46.48
 -10  12   5  656.04   46.71
 -10  12   8   68.28   10.36
 -10  -2  -8   87.00    8.97
  -2 -10   8   72.75    7.24
 -10  12   8   82.14    6.82
  -2  12  -8   75.33    6.12
  12 -10 -11   71.78    6.43
  -2  12 -11   73.09    6.47
 -10  12  11   81.80    8.47
  -2  12 -11   68.43    6.70
  -2  12 -14    9.74    5.74
  12 -10 -14    5.74    5.31
  -2  12 -14    8.51    6.39
  -2  12 -17    9.28    6.66
  12 -10 -17   18.99    6.24
  -2  12 -17    8.97    8.24
  12 -10 -20    5.51    4.85
  -2  12 -20    3.74    6.93
  -2  12 -23    3.66    3.58
 -11  12 -23    0.62    2.46
  12  -1 -23    5.43    2.66
  12  -1 -20    0.31    7.05
 -11  12 -20   -1.12    5.16
  12  -1 -17   37.63    8.20
 -11  12 -17   27.38    6.47
  12  -1 -14    9.97    7.01
 -11  12 -14   10.21    5.70
  12  -1 -11   41.75    6.01
 -11  12 -11   48.83    5.78
  -1 -11  -8   20.41    7.39
 -11  -1   8   19.60    7.36
 -11  12  -8   21.68    4.08
 -11  12  -5  539.15   34.54
  -1  12   5  480.62   36.05
  -1 -11  -5  499.87   35.24
  -1 -11  -2  408.14   28.65
  -1  12   2  381.14   28.81
 -11  12  -2  413.61   28.31
 -11  12  -2  429.05   27.77
 -11  12   1  936.16   62.46
  -1 -11   1  989.85   62.50
  -1  12  -1  912.83   62.43
 -11  12   4  443.61   33.93
  -1 -11   4  487.74   33.66
 -11  -1  -4  565.84   34.35
 -11  12   7   11.67    8.24
  -1 -11   7   13.06    5.20
 -11  -1  -7    7.24    6.28
 -11  12   7   13.21    4.54
 -11  12   7   12.67    3.66
  -1  12 -10   57.07    5.55
  12 -11 -10   59.50    5.51
 -11  12  10   61.62    7.12
  -1  12 -10   65.70    5.97
  -1  12 -13    8.63    5.16
  12 -11 -13   13.63    4.93
  -1  12 -13    6.59    5.55
  -1  12 -16   16.52    6.82
  12 -11 -16   23.22    6.32
  -1  12 -16   37.74    7.89
  12 -11 -19    7.66    5.12
  -1  12 -19    1.54    7.51
  -1  12 -22   13.48    4.97
  12   0 -21   11.17    6.20
  12   0 -21    5.08    4.51
 -12  12 -21    9.01    4.12
 -12  12 -18    4.01    6.08
 -12  12 -15   16.83    6.20
 -12  12 -12   30.85    5.43
 -12   0   9  380.22   30.58
 -12  12  -9  458.78   29.04
   0 -12  -6  327.42   24.92
 -12  12  -6  362.16   24.22
   0  12   6  358.15   26.53
 -12  12  -3   37.05    7.20
 -12  12  -3   34.62    5.93
   0  12   0 1530.31  104.98
 -12  12   0 1619.12  104.98
   0 -12   0 1725.87  105.10
 -12  12   0 1573.56  104.63
   0 -12   3  257.60   18.75
 -12  12   6   96.43   11.05
 -12   0  -6  126.70   10.98
   0 -12   6  106.98    9.78
 -12   0  -9   16.71    6.39
   0  12  -9   19.79    3.58
 -12  12   9   22.61    5.47
   0  12  -9   24.22    4.04
   0  12 -12   67.43    6.82
  12 -12 -12   60.73    6.55
 -12  12  12   73.67    8.66
   0  12 -12   84.07    7.43
   0  12 -15    8.93    6.39
  12 -12 -15   12.32    5.28
   0  12 -15    8.66    7.36
   0  12 -18   -3.54    6.66
  12 -12 -18   -8.16    5.01
   0  12 -18    0.50    7.82
   0  12 -21    4.35    5.62
   0  12 -24    0.35    1.89
  12   1 -22    2.23    3.16
 -13  12 -22   -2.31    2.66
 -13  12 -19    4.97    4.93
 -13  12 -16   68.86    7.59
 -13  12 -13   21.22    5.85
  12   1 -10   55.65    7.05
 -13  12 -10   66.47    6.47
 -13  12 -10   74.75    6.62
  12   1  -7  292.22   20.33
 -13  12  -7  284.71   21.26
 -13   1   7  253.36   22.26
 -13  12  -7  336.66   20.95
 -13  12  -7  319.64   20.26
 -13  12  -4  452.93   31.23
 -13  12  -4  457.74   30.77
 -13  12  -1  363.08   25.19
   1 -13  -1  337.28   25.22
 -13  12  -1  363.27   24.76
 -13  12   2  204.99   16.21
   1 -13   2  189.28   15.75
 -13  12   2  209.58   15.91
 -13  12   5  163.63   14.98
   1 -13   5  171.68   13.25
 -13   1  -8  150.23   13.90
   1  12  -8  169.14   12.05
   1  12 -11  117.54    9.63
 -13  12  11  136.64   10.94
   1  12 -11  129.55    9.78
   1  12 -14    4.74    5.93
  12 -13 -14    5.01    4.74
   1  12 -14   13.71    6.89
   1  12 -17   19.72    6.74
   1  12 -17   32.20    8.24
   1  12 -20    5.85    6.24
   1  12 -23    1.08    2.89
  12   2 -20    2.27    4.58
 -14  12 -20    1.00    4.08
 -14  12 -17   16.10    5.82
  12   2 -14   44.02    8.28
 -14  12 -14   44.17    6.47
  12   2 -11   50.22    7.01
 -14  12 -11   46.94    6.16
 -14  12 -11   49.68    6.35
  12   2  -8   26.34    4.97
 -14  12  -8   17.68    4.74
 -14  12  -8   27.77    4.62
 -14  12  -5  691.73   40.67
 -14  12  -5  682.30   40.21
   2 -14  -2   90.27   10.36
 -14  12  -2   88.58    9.70
   2 -14   1  672.21   47.06
 -14  12   1  733.10   47.10
 -14  12   4  770.10   47.64
   2 -14   4  765.33   47.02
 -14  12   4  790.13   47.45
   2 -14   4  654.30   45.64
 -14   2  -7   97.28    9.78
 -14  12   7  111.87    8.59
 -14  12   7   95.74    7.86
   2  12  -7   82.18    6.78
   2  12 -10  100.90    8.20
 -14  12  10  123.85    9.90
   2  12 -10  101.44    8.32
   2  12 -13    2.00    5.70
 -14  12  13    3.43    7.20
   2  12 -13    9.28    5.78
   2  12 -16   29.50    7.05
   2  12 -16   36.32    7.78
   2  12 -19   -3.47    6.05
   2  12 -19    0.85    6.74
   2  12 -22   -3.66    3.77
  12   3 -21    3.74    5.31
  12   3 -21   -0.35    3.35
 -15  12 -21    3.20    2.54
  12   3 -18   25.15    8.86
  12   3 -18   18.87    5.82
 -15  12 -18   21.26    5.31
  12   3 -15   13.36    8.28
 -15  12 -15   10.82    6.01
  12   3 -12  134.40   11.05
 -15  12 -12  128.59   10.24
 -15  12 -12  120.62   10.01
  12   3  -9  296.61   20.68
 -15  12  -9  295.65   20.53
 -15  12  -9  309.71   20.37
 -15  12  -6   57.54    8.28
  12   3  -6   50.41    5.51
 -15  12  -6   59.00    7.82
 -15  12  -6   64.58    5.70
 -15  12  -6   57.88    5.28
   3 -15  -3  245.85   19.33
 -15  12  -3  262.30   18.83
   3 -15   0  750.46   49.83
   3 -15   0  731.40   48.95
 -15  12   0  745.23   49.56
   3 -15   3  436.18   30.54
 -15  12   3  478.77   29.23
   3 -15   3  395.47   29.31
 -15  12   3  461.48   31.04
 -15  12   6  264.53   18.18
 -15  12   6  269.08   18.41
   3  12  -9   10.13    3.85
 -15  12   9    1.00    5.70
   3  12  -9    8.47    4.08
   3  12 -12  106.64    9.32
 -15  12  12  107.37   10.40
   3  12 -12  116.92    9.36
   3  12 -15   27.15    6.97
   3  12 -15   30.42    7.32
   3  12 -18   16.87    6.51
   3  12 -18    2.73    6.93
   3  12 -21    3.08    4.39
  12   4 -22    2.85    3.81
  12   4 -19    1.35    7.36
 -16  12 -19    4.54    3.70
  12   4 -19    2.46    4.54
  12   4 -16   35.01    9.36
  12   4 -16   25.30    6.12
 -16  12 -16   41.44    5.97
  12   4 -13   30.00    7.82
 -16  12 -13   17.98    6.12
 -16  12 -13   12.75    5.35
  12   4 -10   78.14    8.43
 -16  12 -10   74.21    7.86
 -16  12 -10   89.08    7.55
  12   4  -7   44.10    5.82
 -16  12  -7   57.88    6.35
 -16  12  -7   53.68    5.39
  12   4  -4  340.98   22.80
 -16  12  -4  374.25   24.49
 -16  12  -4  339.71   22.95
   4 -16  -1  479.15   36.05
   4 -16  -1  515.35   35.31
 -16  12  -1  529.68   34.20
 -16  12  -1  541.89   35.82
   4 -16   2  255.98   20.53
 -16  12   2  294.15   18.75
 -16  12   2  294.46   20.76
   4 -16   2  254.13   19.33
 -16  12   5  299.42   19.14
 -16  12   5  261.45   19.22
   4  12  -8   57.65    5.39
 -16  12   8   67.36    7.36
   4  12  -8   49.06    5.08
   4  12 -11  138.72   10.90
 -16  12  11  153.50   11.98
   4  12 -11  140.10   10.71
   4  12 -14    9.28    6.70
   4  12 -14   14.79    6.12
   4  12 -17   15.71    6.66
   4  12 -17   12.63    6.66
 -16   4 -20    4.51    3.58
   4  12 -20   -6.66    4.93
  12   5 -20    1.96    5.70
  12   5 -20    5.16    3.27
  12   5 -17   13.52    5.16
 -17  12 -17   22.45    4.58
  12   5 -14    1.85    4.85
  12   5 -14   13.71    8.28
 -17  12 -14   10.05    6.12
 -17  12 -14   13.48    5.31
  12   5 -11  212.97   14.94
 -17  12 -11  188.51   14.29
 -17  12 -11  188.74   13.86
  12   5  -8   55.34    7.12
 -17  12  -8   72.63    7.24
 -17  12  -8   65.70    6.01
  12   5  -5  141.91   10.74
 -17  12  -5  157.24   12.82
 -17  12  -5  152.00   11.05
 -17   5   5  144.72   10.74
 -17  12  -5  153.35   10.40
  12   5  -2  170.57   11.86
 -17   5   2  178.27   12.05
   5 -17  -2  180.73   14.40
 -17  12  -2  161.25   12.17
 -17  12  -2  168.22   14.21
 -17  12   1  130.82    9.63
   5 -17   1  107.83   10.44
 -17  12   4  330.66   20.76
 -17  12   4  279.01   20.83
   5  12  -7   20.99    4.04
 -17  12   7   29.00    6.47
   5  12 -10   76.41    7.01
 -17  12  10   70.78    8.28
   5  12 -10   63.35    6.43
   5  12 -13   42.21    7.36
 -17  12  13   44.71    7.32
   5  12 -13   53.76    6.85
   5  12 -16   23.92    7.47
   5  12 -16   30.23    6.93
   5  12 -19    9.05    5.66
   5  12 -19   -4.01    5.08
   5  12 -22    2.31    2.12
  12   6 -21    6.78    4.16
  12   6 -18   -2.85    7.28
  12   6 -18    0.12    4.04
  12   6 -15   23.07    8.40
 -18  12 -15   19.29    6.12
  12   6 -15   14.02    4.74
 -18  12 -15   15.64    4.85
  12   6 -12    5.82    7.47
 -18  12 -12   17.41    6.66
 -18  12 -12    9.09    4.70
  12   6  -9  209.46   14.52
 -18  12  -9  190.48   14.25
 -18  12  -9  187.05   13.36
  12   6  -6   62.54    6.55
 -18   6   6   52.80    6.12
 -18  12  -6   63.47    6.78
 -18  12  -6   68.16    5.35
  12   6  -3    7.70    3.70
 -18   6   3   10.63    4.04
 -18  12  -3    1.27    5.20
  12   6   0  274.97   18.91
 -18  12   0  283.71   19.29
   6 -18   0  240.04   20.30
 -18   6   0  315.87   19.29
 -18  12   3   23.76    5.35
 -18  12   3   28.04    5.04
   6  12  -6  182.54   13.21
 -18  12   6  207.38   14.17
   6  12  -9   72.94    6.59
 -18  12   9   71.05    8.05
   6  12  -9   59.69    5.74
   6  12 -12   39.13    6.59
 -18  12  12   24.45    7.05
   6  12 -12   29.85    5.58
   6  12 -15   40.44    7.39
   6  12 -15   36.47    6.66
   6  12 -18    2.43    5.97
   6  12 -18    7.63    5.16
   6  12 -21    5.89    2.73
  12   7 -19   -4.20    5.58
  12   7 -16   28.07    8.40
 -19  12 -16   25.73    5.62
  12   7 -16   19.60    4.51
 -19  12 -13   34.62    7.28
  12   7 -13   35.66    8.20
  12   7 -10  166.75   12.29
 -19  12 -10  130.90   12.02
 -19  12  -7   52.57    7.36
 -19   7   7   38.55    5.97
  12   7  -7   60.50    6.82
 -19   7   4  133.71   10.05
 -19  12  -4  148.07   10.78
  12   7  -4  120.15    9.82
 -19   7   1  318.76   20.18
  12   7  -1  305.32   19.83
 -19  12   2  114.19   10.44
 -19  12   2  138.10    9.90
   7  12  -5  206.34   14.60
 -19  12   5  220.01   15.29
   7  12  -8    7.63    4.62
 -19  12   8    8.28    6.89
   7  12 -11   94.97    8.20
 -19  12  11   76.75    8.63
   7  12 -11   69.47    6.78
   7  12 -14   22.53    7.24
   7  12 -14   22.68    5.47
   7  12 -17  -12.25    6.08
   7  12 -17    3.54    4.85
   7  12 -20    6.35    3.00
  12   8 -20   -1.08    3.81
  12   8 -17   -5.12    7.01
 -20  12 -14    6.16    6.85
  12   8 -14    4.85    7.78
 -20  12 -11    2.85    7.28
  12   8 -11    8.70    7.20
 -20   8   8   13.36    5.16
 -20  12  -8   11.67    7.28
  12   8  -8   17.29    6.35
  12   8  -5  299.35   19.99
 -20  12  -5  303.43   20.49
 -20   8   5  279.47   20.03
 -20   8   2   95.01    8.20
  12   8  -2   88.88    7.55
 -20   8  -1  289.33   19.83
 -20  12   1  274.66   19.83
  12   8   1  293.26   19.41
 -20  12   4  367.78   24.26
 -20  12   4  345.29   24.38
   8  12  -7  297.11   20.41
 -20  12   7  305.82   21.10
   8  12 -10   19.37    6.32
 -20  12  10   24.18    6.89
   8  12 -13    6.35    6.59
   8  12 -13    0.46    4.51
   8  12 -16   13.75    6.62
   8  12 -16    9.67    4.66
   8  12 -19   -0.12    4.24
   8  12 -19    6.05    2.97
  12   9 -18    0.23    5.12
 -21  12 -15   33.00    6.82
  12   9 -15   25.46    7.70
 -21  12 -12   39.67    8.16
  12   9 -12   33.00    8.20
 -21  12  -9    7.70    7.70
 -21   9   9    5.70    5.16
  12   9  -9    1.27    6.74
  12   9  -6  317.75   20.95
 -21  12  -6  319.80   21.30
 -21   9   6  279.74   20.91
 -21   9   3   77.83    8.40
  12   9  -3   81.26    7.24
 -21  12   0  274.70   18.41
 -21   9   0  271.85   18.37
  12   9   0  242.81   17.60
 -21  12   3  131.40   11.44
 -21   9  -3  146.30   11.63
  12   9   3  134.10   10.47
   9  12  -6  236.46   16.87
 -21  12   6  250.82   17.72
 -21  12   9   18.99    6.78
   9  12  -9   17.45    5.93
 -21  12  12    6.24    5.85
   9  12 -12   31.69    7.01
   9  12 -15   41.01    7.47
 -21   9 -15   45.52    7.66
   9  12 -18    2.93    4.66
 -21   9 -18   -0.62    3.97
  12  10 -19   -2.04    3.50
  12  10 -16    3.50    6.20
 -22  12 -16   -0.77    5.28
 -22  12 -13   97.90    9.82
  12  10 -13   79.87    9.82
 -22  12 -10   57.77    9.20
  12  10 -10   57.61    8.24
 -22  10   7   47.37    7.59
 -22  12  -7   60.85    8.90
  12  10  -7   61.04    7.82
  12  10  -4  173.30   12.40
 -22  10   4  155.47   13.02
 -22  10   1  218.59   15.40
 -22  12  -1  207.61   15.25
  12  10  -1  193.40   14.29
 -22  10  -2  112.64   10.40
 -22  12   2  104.21   10.24
  10  12  -2  101.82    8.36
  12  10   2  104.98    8.66
  10  12  -5  128.63   10.40
 -22  12   5  137.02   11.59
 -22  12   8   72.21    8.86
  10  12  -8   79.37    8.01
  10  12 -11  160.94   12.09
 -22  12  11  131.94   11.51
  10  12 -14   25.61    6.93
 -22  10 -14   25.49    7.78
  10  12 -17    3.20    5.08
 -22  10 -17    4.89    4.74
  12  11 -17    9.20    4.81
 -23  12 -17    4.74    3.81
 -23  12 -14    8.63    6.78
  12  11 -14   -5.01    6.35
 -23  12 -11   93.00    9.97
  12  11 -11   69.63    8.74
 -23  12  -8   15.13    8.93
 -23  11   8   -2.35    6.39
  12  11  -8   11.59    6.70
  12  11  -5  111.34    9.78
 -23  11   5  108.95   10.44
 -23  11   2   51.37    8.24
 -23  12  -2   41.32    8.70
  12  11  -2   45.94    6.05
 -23  12   1   33.00    7.89
 -23  11  -1   45.75    8.28
  12  11   1   39.36    5.51
  11  12  -1   37.43    5.47
 -23  12   4   58.73    8.55
  11  12  -4   60.00    6.78
  12  11   4   58.92    6.74
 -23  11  -7   34.97    9.36
 -23  12   7   27.69    7.82
  11  12  -7   42.17    6.55
  11  12 -10  156.35   12.67
 -23  12  10  148.46   12.40
 -23  11 -10  189.28   14.29
 -23  11 -13   25.42    7.78
  11  12 -13   11.48    6.89
  11  12 -16   16.33    5.39
 -23  11 -16   21.41    5.55
 -24  12   0  126.43   11.71
  12  12   0  114.80    9.32
 -24  12  -3   10.40    8.93
 -24  12   3   27.42    8.05
  12  12  -3    9.97    5.66
  12  12  -6  142.11   11.21
 -24  12  -6  135.87   13.17
 -24  12   6  114.84   11.71
 -24  12  -9   72.25   10.13
 -24  12   9   57.61    7.51
  12  12  -9   54.57    7.70
 -24  12 -12   87.77    9.94
  12  12 -12   71.48    8.43
  12  12 -15    9.17    5.55
 -24  12 -15    7.63    5.74
  12  12 -18    4.01    2.70
  -7  13 -23    5.66    3.54
  13  -6 -20    2.89    6.01
  -7  13 -20    3.77    6.78
  13  -6 -17    8.09    6.93
  -7  13 -17    9.17    7.28
  13  -6 -14   11.44    5.78
  -7  13 -14    9.32    5.82
  13  -6 -11  424.35   28.07
  13  -6  -8   68.13    6.05
  -6  13   8   66.66   11.09
  -7  -6   8   76.29    9.36
  -6  -7  -8   73.56    9.13
  -6  13   8   75.17    6.43
  -7  -6   8   89.88    7.59
  -6  13   8   87.42    7.89
  -6  -7  -5 1025.63   62.50
  -7  13  -5  938.74   61.66
  -6  13   5  945.41   63.00
  -7  -6   5  870.93   62.12
  -7  13  -2  831.91   53.45
  -7  -6   2  788.98   53.65
  -6  13   2  798.22   53.80
  -7  13   1  376.41   26.50
  -6  -7   1  383.34   26.50
  -6  13  -1  375.25   26.26
  -7  -6  -4  338.59   22.91
  -6  -7   4  284.79   22.49
  -6  13  -4  326.69   21.95
  -6  -7   7   60.12    7.93
  -7  13   7   50.22   10.82
  -7  -6  -7   45.67    7.82
  -6  13  -7   47.95    4.51
  -6  13 -10  415.26   28.84
  13  -7 -10  441.18   28.81
  -7  13  10  476.61   29.54
  13  -7 -13    1.77    5.08
  13  -7 -16   39.51    7.05
  13  -7 -19   20.64    6.55
  -6  13 -19   21.87    7.89
  -6  13 -22    1.89    4.97
  -8  13 -24    2.70    2.08
  13  -5 -24   -1.62    1.85
  13  -5 -21    1.54    5.35
  -8  13 -21    4.97    5.28
  13  -5 -18    0.27    6.89
  -8  13 -18    3.20    7.20
  13  -5 -15   15.10    6.74
  -8  13 -15   19.10    6.85
  13  -5 -12   37.70    5.62
  -8  13 -12   44.10    5.97
  13  -5  -9  102.71    8.20
  -5  13   9  113.49    9.63
  -8  13  -9  113.80    8.28
  -8  -5   6  417.31   32.16
  -5  -8  -6  476.34   32.35
  -8  13  -6  483.12   31.27
  -5  13   6  494.79   33.81
  -5  -8  -3  268.34   19.87
  -8  13  -3  286.98   19.56
  -8  -5   3  257.06   19.79
  -8  13   0   54.96    8.05
  -5  13   0   67.97    8.36
  -5  -8   0   61.62    8.16
  -8  -5   0   68.09    8.82
  -8  -5  -3  453.43   28.11
  -5  13  -3  377.99   27.11
  -5  -8   3  378.91   27.46
  -8  13   6 1529.97  103.83
  -8  -5  -6 1599.40  103.33
  -5  -8   6 1597.17  103.25
  13  -8  -9  142.49   10.59
  -8  -5  -9  151.00   13.02
  -8  13   9  168.87   11.86
  -5  13  -9  153.89   10.78
  13  -8 -12   68.51    6.47
  -5  13 -12   51.03    6.32
  -5  13 -12   68.90    6.93
  13  -8 -15   44.90    6.74
  13  -8 -18    9.78    6.39
  13  -8 -21   -5.85    4.66
  13  -8 -24    0.23    2.04
  -5  13 -24    3.58    2.27
  13  -4 -22    2.77    4.39
  -9  13 -22    1.39    4.39
  13  -4 -19    2.81    7.24
  -9  13 -19    7.63    6.59
  13  -4 -16   22.30    7.36
  -9  13 -16   29.31    7.12
  13  -4 -13    1.46    5.78
  -9  13 -13    5.08    5.35
  13  -4 -10  211.54   15.17
  -9  13 -10  227.68   15.13
  13  -4  -7  143.45   10.17
  13  -4  -7  135.98   10.05
  -4  -9  -7  164.25   13.40
  -4  13   7  164.40   15.64
  -4  13   7  174.61   11.25
  -9  13  -7  142.80   10.05
  -4  -9  -4  955.54   64.20
  -9  13  -4  977.56   63.62
  -9  13  -1   65.31    8.20
  -4  13   1   73.13    9.05
  -4  -9  -1   70.40    8.55
  -9  -4   1   81.45    8.82
  -4  -9   2   42.32    7.20
  -9  13   2   46.17    7.78
  -9  -4  -2   54.34    8.86
  -4  13  -2   35.66    6.93
  -4  -9   5  182.81   14.48
  -9  13   5  161.75   15.44
  -4  13  -5  174.96   13.52
  -9  -4  -5  199.53   14.83
  -4  -9   8   17.14    6.20
  -9  -4  -8   19.22    6.70
  -9  13   8   21.53    5.89
  -9  13   8   17.87    4.24
  -4  13  -8   17.02    3.43
  -4  13 -11   33.43    4.74
  13  -9 -11   29.96    4.62
  -9  13  11   28.07    7.39
  -4  13 -11   24.53    5.20
  13  -9 -14   20.33    5.62
  -4  13 -14    8.90    5.82
  -4  13 -14   22.30    6.70
  13  -9 -17   18.49    6.74
  13  -9 -20   -2.62    5.01
  13  -3 -23   -0.04    2.62
 -10  13 -23    1.50    2.89
  13  -3 -20   -0.58    6.70
 -10  13 -20   -1.19    5.55
  13  -3 -17    8.66    7.47
 -10  13 -17   -1.12    6.74
  13  -3 -14   22.37    6.97
 -10  13 -14   31.58    6.55
  13  -3 -11   70.05    6.82
 -10  13 -11   64.51    6.62
  13  -3  -8   13.83    3.89
 -10  13  -8   13.02    3.97
 -10  13  -5 1391.13   90.89
  -3  13   5 1323.62   92.23
  -3 -10  -5 1451.13   91.58
 -10  13  -2  158.93   12.86
  -3  13   2  167.48   14.44
  -3 -10   1  160.44   13.32
  -3  13  -1  181.27   13.48
 -10  13   1  151.58   13.21
  -3  13  -4  660.12   46.52
  -3 -10   4  722.85   47.06
 -10  -3  -4  747.65   47.33
  13 -10  -7  633.20   39.70
  -3 -10   7  744.49   41.32
 -10  -3  -7  709.03   41.59
 -10  13   7  642.79   42.32
 -10  13   7  808.12   40.24
  -3  13  -7  670.32   39.70
  13 -10 -10  116.46    8.74
  -3  13 -10  105.91    8.74
 -10  13  10  139.29   10.59
  -3  13 -10  124.89    8.97
  13 -10 -13   47.18    6.12
  -3  13 -13   40.98    6.08
  -3  13 -13   41.75    6.59
  -3  13 -16   16.56    6.28
  13 -10 -16   24.72    6.28
  -3  13 -16   30.19    7.70
  13 -10 -19   -0.77    5.66
  -3  13 -19   -5.78    7.74
  13  -2 -21    7.05    5.93
 -11  13 -21    1.89    4.58
  13  -2 -18    1.23    8.05
 -11  13 -18    6.20    6.59
  13  -2 -15   61.08    8.70
 -11  13 -15   68.40    8.13
  13  -2 -12   11.90    5.66
 -11  13 -12   11.98    5.04
  13  -2  -9   17.37    4.39
 -11  -2   9   18.68    6.85
 -11  13  -9   16.17    4.47
  13  -2  -6  657.23   43.94
  -2  13   6  646.33   46.79
 -11  13  -6  723.04   44.90
  -2 -11  -6  718.04   45.87
 -11  13  -3  145.46   12.09
  -2 -11   0  607.63   39.67
  -2  13   0  579.32   39.47
 -11  13   0  568.04   39.44
  -2 -11   3  942.25   62.00
  -2  13  -3  852.71   61.62
  -2 -11   6  389.96   26.77
 -11  13   6  336.89   27.30
 -11  -2  -6  415.46   27.27
 -11  13   6  414.57   25.65
 -11  13   6  367.90   25.22
  13 -11  -9   65.28    5.82
 -11  -2  -9   62.58    8.47
 -11  13   9   76.56    7.97
  -2  13  -9   73.52    6.12
  -2  13 -12   24.26    5.24
  13 -11 -12   30.15    5.20
 -11  13  12   45.40    7.97
  -2  13 -12   43.90    5.85
  13 -11 -15   13.09    6.08
  -2  13 -15   33.39    6.35
  -2  13 -15   33.70    7.43
  13 -11 -18    2.23    5.31
  -2  13 -18   -0.50    7.66
  -2  13 -21    5.58    5.74
  -2  13 -24    3.27    2.00
  13  -1 -22    0.54    4.62
 -12  13 -22   -1.04    3.20
  13  -1 -22    0.65    3.20
  13  -1 -19   12.36    7.74
 -12  13 -19    5.82    5.43
  13  -1 -16   44.71    8.40
 -12  13 -16   31.50    7.20
  13  -1 -13   23.72    6.85
 -12  13 -13   22.88    6.05
 -12  13 -10   76.56    7.24
 -12  13  -7  342.75   25.46
 -12  -1   7  365.55   26.50
 -12  13  -7  393.85   24.80
  -1 -12  -4  346.60   23.88
 -12  13  -4  323.65   23.03
 -12  13  -4  319.03   22.11
  -1 -12  -1  399.32   27.38
  -1  13   1  396.12   27.73
 -12  13  -1  386.46   26.96
 -12  13  -1  374.79   26.30
  -1 -12   2  244.62   18.22
 -12  13   2  234.72   18.10
  -1 -12   5   43.21    7.47
 -12  13   5   37.70    9.09
 -12  -1  -5   53.41    8.93
 -12  -1  -8  163.75   13.48
 -12  13   8  165.14   11.51
 -12  13   8  166.79   11.98
  -1  13  -8  152.35   11.13
  13 -12 -11   99.28    7.78
  -1  13 -11   90.96    7.93
 -12  13  11  111.99   10.17
  -1  13 -11   95.24    8.36
  13 -12 -14   -1.08    5.12
  -1  13 -14    7.43    5.43
  -1  13 -14    6.93    6.85
  13 -12 -17   18.60    5.55
  -1  13 -17   16.29    6.51
  -1  13 -17   19.56    8.43
  -1  13 -20    1.81    6.70
  -1  13 -23   -3.00    3.04
  13   0 -23   -0.12    1.77
  13   0 -20    7.89    4.81
 -13  13 -20    4.31    4.58
 -13  13 -17    4.81    6.47
 -13  13 -14   17.25    5.82
 -13  13 -11   51.53    6.70
 -13  13  -8   29.27    4.54
 -13  13  -8   30.85    4.81
 -13  13  -5  540.27   35.01
  13   0  -5  506.96   33.66
   0  13   5  464.94   36.35
   0 -13  -5  488.90   35.51
 -13  13  -5  552.36   34.43
 -13  13  -2    6.16    7.05
   0 -13  -2   11.63    6.89
   0  13   2    5.28    8.86
 -13  13  -2    8.90    5.58
 -13  13   1  473.30   32.20
   0 -13   1  449.81   32.12
 -13  13   1  464.64   31.54
 -13  13   4    4.58    7.28
   0 -13   4    6.59    6.62
 -13   0  -7   71.82    9.09
   0 -13   7   70.55    7.63
 -13  13   7   76.02    6.59
 -13  13   7   78.52    7.59
   0  13  -7   70.05    5.85
   0  13 -10  120.23    9.97
 -13  13  10  158.55   11.67
   0  13 -10  148.88   10.24
  13 -13 -13    0.31    4.58
   0  13 -13    3.31    5.12
 -13  13  13    8.93    7.82
   0  13 -13    4.08    6.05
  13 -13 -16   26.96    5.85
   0  13 -16   25.61    6.66
   0  13 -16   31.77    7.78
   0  13 -19   -1.85    7.01
   0  13 -22   -0.62    4.08
 -14  13 -21    1.54    3.16
  13   1 -21    4.70    3.62
 -14  13 -18   45.56    6.43
 -14  13 -15   68.55    7.82
 -14  13 -12   62.39    7.55
  13   1  -9   58.46    7.09
 -14  13  -9   72.90    6.82
 -14  13  -9   70.05    7.01
  13   1  -6  390.42   27.84
 -14  13  -6  408.68   29.11
 -14  13  -6  432.40   28.65
 -14  13  -6  416.00   27.80
 -14  13  -6  459.74   27.80
   1 -14  -3  274.97   21.53
 -14  13  -3  290.57   21.14
 -14  13  -3  286.60   20.45
   1 -14   0  660.08   43.25
 -14  13   0  616.37   43.13
 -14  13   0  631.85   42.59
   1 -14   3  483.43   33.31
   1 -14   6   31.39    6.85
 -14  13   6   23.80    5.31
 -14  13   6   36.66    4.85
   1  13  -9   77.25    6.70
 -14  13   9   87.23    8.74
   1  13  -9   92.35    7.01
   1  13 -12   10.24    4.81
 -14  13  12    8.78    8.09
   1  13 -12    5.97    5.78
   1  13 -15   45.91    7.05
   1  13 -15   43.63    8.20
   1  13 -18   11.59    6.28
   1  13 -18   16.14    7.63
   1  13 -21   -0.65    4.62
  13   2 -22   -2.08    2.12
 -15  13 -19    5.97    4.43
  13   2 -19    2.97    4.78
  13   2 -16   20.14    8.97
 -15  13 -16   25.03    6.24
  13   2 -13   25.03    7.78
 -15  13 -13   20.41    6.08
  13   2 -10   40.71    7.20
 -15  13 -10   47.48    6.28
 -15  13 -10   50.37    6.16
  13   2  -7  101.40    8.63
 -15  13  -7  102.48    8.66
 -15  13  -7  121.31    8.51
  13   2  -4  253.02   18.29
 -15  13  -4  274.66   20.56
 -15  13  -4  294.88   18.60
 -15  13  -4  303.66   20.10
   2 -15  -1  412.57   29.61
 -15  13  -1  416.23   29.58
 -15  13  -1  409.41   27.54
 -15  13  -1  446.30   29.15
   2 -15   2  165.64   13.98
 -15  13   2  158.32   14.10
 -15  13   2  166.10   13.86
   2 -15   2  158.20   12.32
   2 -15   5  286.64   22.64
 -15  13   5  321.84   21.68
 -15  13   5  329.69   21.37
 -15  13   8   22.14    6.62
   2  13  -8   10.40    3.74
   2  13 -11   64.78    6.74
 -15  13  11   72.29    8.90
   2  13 -11   74.52    7.12
   2  13 -14    7.39    6.08
   2  13 -14   13.94    6.51
   2  13 -17   29.61    7.16
   2  13 -17   38.86    7.63
   2  13 -20    5.43    5.43
   2  13 -23   -1.73    1.93
  13   3 -20    7.63    6.01
 -16  13 -20    3.27    3.04
  13   3 -20    4.54    3.58
  13   3 -17   36.74    6.20
 -16  13 -17   47.52    6.20
  13   3 -14    5.35    8.01
 -16  13 -14   10.82    5.66
  13   3 -11  142.49   11.51
 -16  13 -11  116.88   10.59
 -16  13 -11  137.95   10.47
  13   3  -8  275.82   19.72
 -16  13  -8  281.01   19.60
 -16  13  -8  297.27   19.45
  13   3  -5  317.37   22.61
 -16  13  -5  352.99   24.84
 -16  13  -5  337.24   22.68
 -16  13  -5  357.42   24.34
 -16  13  -5  355.46   22.53
  13   3  -2    5.01    3.23
 -16  13  -2   11.48    4.54
   3 -16  -2    3.47    6.59
 -16  13  -2   -5.78    7.63
   3 -16   1  509.12   36.74
 -16  13   1  551.75   36.59
   3 -16   1  532.03   35.70
   3 -16   4  423.74   33.16
 -16  13   4  479.54   31.93
 -16  13   4  505.92   31.77
 -16  13   7   27.38    6.51
   3  13  -7   17.98    3.70
 -16  13   7   20.91    5.58
   3  13 -10    9.24    4.31
 -16  13  10    8.40    6.93
   3  13 -10   12.13    4.89
   3  13 -13   -2.12    5.89
 -16  13  13    4.39    7.51
   3  13 -13    1.12    5.89
   3  13 -16   41.86    7.59
   3  13 -16   44.36    7.59
   3  13 -19   -0.23    5.70
   3  13 -22    2.85    2.81
  13   4 -21   -3.12    4.58
  13   4 -18   26.50    8.05
  13   4 -18   19.18    4.66
 -17  13 -18   16.25    4.31
  13   4 -15   25.96    8.82
  13   4 -15   11.55    5.12
 -17  13 -15   23.57    5.39
  13   4 -12    5.04    7.66
 -17  13 -12    0.19    6.20
 -17  13 -12    3.85    5.78
  13   4  -9   86.61    8.86
 -17  13  -9   86.15    8.40
 -17  13  -9   92.50    7.63
  13   4  -6  147.04   11.51
 -17  13  -6  159.86   11.71
 -17  13  -6  161.59   11.17
  13   4  -3  187.97   13.32
 -17  13  -3  222.63   15.94
 -17  13  -3  218.97   13.83
 -17   4   3  177.07   13.21
  13   4   0   65.05    5.74
   4 -17   0   65.58    8.55
 -17  13   0   75.60    9.67
 -17  13   3   27.88    4.97
 -17  13   3   29.58    4.93
 -17  13   6  112.18    9.24
 -17  13   6   98.63    9.40
   4  13  -9    7.09    4.31
 -17  13   9    6.12    6.66
   4  13  -9    4.62    3.85
   4  13 -12  138.60   11.36
 -17  13  12  149.46   12.44
   4  13 -12  148.65   11.28
   4  13 -15   40.74    7.12
   4  13 -15   45.94    7.43
   4  13 -18    7.86    5.78
   4  13 -18   15.67    5.85
  13   4  21    4.39    3.04
   4  13 -21   -1.19    3.43
  13   5 -19   -0.65    6.28
  13   5 -19    0.35    3.23
 -18  13 -16   36.97    5.24
  13   5 -16   20.33    4.93
  13   5 -13   60.35    9.44
 -18  13 -13   59.50    7.66
 -18  13 -13   52.61    6.55
  13   5 -10  441.68   27.00
 -18  13 -10  366.70   26.69
 -18  13 -10  387.77   26.34
  13   5  -7  169.83   12.90
 -18  13  -7  164.06   12.86
 -18  13  -7  182.54   12.29
  13   5  -4  238.11   16.37
 -18   5   4  233.26   16.29
 -18  13  -4  248.90   16.79
 -18  13  -4  239.04   16.02
  13   5  -1  278.40   19.06
   5 -18  -1  228.10   20.87
 -18   5   1  293.38   19.29
 -18  13  -1  299.31   19.02
 -18  13   2  261.80   18.91
 -18  13   2  281.05   18.56
 -18  13   5  268.73   18.45
 -18  13   5  256.79   18.52
   5  13  -8   15.52    4.35
 -18  13   8   16.06    7.12
   5  13  -8   22.80    3.93
   5  13 -11   17.72    5.43
 -18  13  11   17.64    7.39
   5  13 -11   23.38    5.24
   5  13 -14   24.18    6.89
   5  13 -14   37.09    6.20
   5  13 -17   18.87    6.47
   5  13 -17   18.99    5.82
   5  13 -20   -3.77    3.89
  13   6 -20    2.93    4.66
  13   6 -17   14.29    7.82
  13   6 -14    4.89    8.16
 -19  13 -14   10.67    6.43
 -19  13 -14    8.97    4.70
  13   6 -11    1.46    7.43
 -19  13 -11   14.10    6.97
 -19  13 -11   11.17    4.78
  13   6  -8   16.94    6.35
 -19  13  -8   28.04    6.55
 -19  13  -8   15.60    4.31
  13   6  -5  145.15   11.17
 -19   6   5  138.22   11.05
 -19  13  -5  159.05   11.71
 -19  13  -5  151.35   10.44
  13   6  -2  103.71    8.05
 -19   6   2  104.21    8.36
 -19  13  -2   94.01    8.90
 -19  13  -2  103.06    7.82
  13   6   1  180.58   13.17
 -19   6  -1  181.81   13.63
 -19  13   1  178.65   13.83
 -19  13   1  201.68   13.25
 -19  13   4  519.59   31.73
 -19  13   4  432.02   31.69
   6  13  -7  121.77    9.59
 -19  13   7  146.07   11.17
   6  13 -10   65.97    6.59
 -19  13  10   58.19    8.20
   6  13 -10   44.36    5.66
   6  13 -13   28.46    6.51
 -19  13  13   26.19    7.01
   6  13 -13   26.80    5.55
   6  13 -16   32.77    6.74
   6  13 -16   36.55    5.85
 -19   6 -19    3.85    3.85
   6  13 -19    3.43    3.97
  13   7 -21    2.54    2.73
  13   7 -18   10.82    6.32
 -20  13 -15   43.40    6.66
  13   7 -15   39.47    8.70
 -20  13 -12   21.91    7.05
  13   7 -12   15.91    7.70
 -20  13  -9   47.48    7.63
  13   7  -9   42.94    7.59
  13   7  -6  256.64   16.71
 -20   7   6  205.84   16.37
 -20  13  -6  255.64   16.98
  13   7  -3    6.70    4.51
 -20   7   3    5.89    5.12
 -20  13  -3    4.04    6.28
  13   7   0  346.29   23.34
 -20  13   0  342.75   23.84
 -20   7   0  359.54   23.68
 -20  13   3    9.78    6.70
 -20  13   3   18.83    5.82
 -20  13   6  462.32   31.12
   7  13  -9    9.20    5.43
 -20  13   9   10.13    7.51
   7  13 -12   15.79    6.43
 -20  13  12   15.64    6.78
   7  13 -12    9.67    4.62
   7  13 -15   44.75    7.39
   7  13 -15   41.21    5.74
   7  13 -18    3.70    4.89
 -20   7 -18    3.93    4.62
   7  13 -18   -5.47    3.70
  13   8 -19    1.39    4.39
  13   8 -16   22.11    7.24
 -21  13 -16   27.19    5.28
 -21  13 -13   54.18    8.01
  13   8 -13   50.03    8.70
 -21  13 -10   18.10    7.55
  13   8 -10    2.77    7.39
  13   8  -7  193.29   14.21
 -21   8   7  158.55   13.71
 -21  13  -4  132.71   11.32
 -21   8   4  128.82   10.67
  13   8  -4  135.14   10.36
 -21   8   1  155.39   11.55
  13   8  -1  137.18   10.59
 -21   8  -2   26.30    7.28
 -21  13   2   26.77    6.66
  13   8   2   28.00    5.35
 -21  13   5  421.43   28.69
   8  13  -8  137.79   10.82
 -21  13   8  147.92   12.36
 -21  13  11   26.19    6.93
   8  13 -11   12.63    6.12
   8  13 -14   69.70    8.40
   8  13 -17   18.99    5.31
 -21   8 -17   33.12    5.62
  13   9 -20   -2.00    2.50
  13   9 -17    1.23    5.55
 -22  13 -14   14.13    6.74
  13   9 -14    9.17    7.32
 -22  13 -11  112.99   10.86
  13   9 -11   99.44   10.71
 -22  13  -8    2.70    7.78
 -22   9   8    0.35    5.58
  13   9  -8   -2.77    7.28
  13   9  -5  345.44   22.95
 -22  13  -5  383.03   23.53
 -22   9   2  167.87   12.44
  13   9  -2  146.07   11.55
 -22  13   1    6.59    6.85
  13   9   1   15.33    5.04
 -22  13   4   86.23    9.78
 -22   9  -4  104.60   10.94
   9  13  -7  134.75   10.90
 -22  13   7  146.30   12.29
   9  13 -10  195.91   14.29
 -22  13  10  190.51   14.87
   9  13 -13    7.51    6.47
   9  13 -16   10.36    5.51
 -22   9 -16   22.95    6.05
  13  10 -18   -0.89    3.93
  13  10 -15   14.79    6.51
 -23  13 -15   14.36    5.66
  13  10 -12  176.50   13.90
 -23  13 -12  174.03   14.29
 -23  10   9    1.89    5.47
 -23  13  -9   12.55    8.40
  13  10  -9   13.48    6.93
  13  10  -6  168.79   12.86
 -23  13  -6  170.91   13.86
 -23  10   6  152.93   12.98
 -23  10   3   53.95    8.16
  13  10  -3   57.84    6.85
 -23  13   0   31.81    7.78
 -23  10   0   26.26    8.20
  13  10   0   24.84    5.58
 -23  10  -3   36.70    8.90
 -23  13   3   22.91    8.28
  13  10   3   32.66    6.08
  10  13  -6  171.95   12.82
 -23  13   6  166.14   14.13
  10  13  -9  101.82    9.28
 -23  13   9   93.35   10.28
 -23  10 -12   19.76    8.40
  10  13 -12   15.25    6.82
  10  13 -15   15.98    5.78
 -23  10 -15   35.70    6.93
  10  13 -18   -2.39    3.04
 -23  10 -18    3.70    2.89
  13  11 -16    3.20    4.89
 -24  13 -16    7.66    4.47
 -24  13 -13   25.96    7.39
  13  11 -13   25.07    7.05
 -24  13 -10   23.03    9.05
  13  11 -10   34.54    7.55
 -24  11   7   56.23    8.09
 -24  13  -7   62.58   10.32
  13  11  -7   61.93    7.97
  13  11  -4   99.71    9.05
 -24  11   4   91.19   10.28
 -24  11   1   67.39    9.47
 -24  13  -1   66.01    9.74
  13  11  -1   66.08    7.24
 -24  11  -2   39.17    9.01
 -24  13   2   27.15    8.66
  13  11   2   28.92    5.70
  11  13  -5  192.52   13.90
 -24  13   5  180.54   15.06
  13  11   5  189.71   14.06
 -24  13   8    9.51    7.32
 -24  11  -8   18.25    9.97
  11  13  -8    7.70    6.24
 -24  13  11   20.37    6.20
 -24  11 -11   31.69    9.17
  11  13 -11   27.80    6.66
  11  13 -14    6.20    5.20
 -24  11 -14   -3.97    6.74
  11  13 -17   11.44    3.50
 -24  11 -17    6.89    3.77
  13  12 -17    3.54    2.97
  13  12 -14   -5.55    5.20
 -25  13 -14    2.97    6.16
  13  12 -11  103.56   10.55
 -25  13 -11  137.29   11.75
 -25  12   8    6.59    6.62
 -25  13  -8   13.09    9.55
  13  12  -8   -1.00    6.16
  13  12  -5  186.93   13.83
 -25  12   5  163.98   14.33
 -25  12   2    4.08    8.40
 -25  13  -2    6.43    9.67
  13  12  -2   -2.93    5.55
 -25  13   1   21.26    9.36
 -25  12  -1   28.46    9.94
  13  12   1   28.84    5.55
 -25  13   4   46.98    8.93
  12  13  -4   46.44    6.89
 -25  12  -7   76.37   11.51
 -25  13   7   56.92    8.97
  12  13  -7   65.85    7.47
 -25  13  10   23.30    6.59
 -25  12 -10   41.48    9.47
  12  13 -10   38.93    7.05
  12  13 -13    0.35    5.66
 -25  12 -13    1.85    7.36
  12  13 -16    8.82    3.74
 -25  12 -16   14.10    4.43
 -26  13   0  124.97   13.13
 -26  13   3    6.47    8.78
 -26  13  -3   -9.59   10.24
  13  13  -3   -4.70    5.85
  13  13  -6  136.91   10.94
 -26  13   6  129.90   12.29
 -26  13   9    4.62    6.05
 -26  13  -9   -0.58    9.51
  13  13  -9    5.04    6.20
 -26  13 -12    9.40    7.51
  13  13 -12   21.10    5.78
  13  13 -15    3.39    3.77
 -26  13 -15   18.06    4.78
  -7  14   0  412.49   29.65
  -7  -7   0  443.84   29.77
  -7  14  -3  855.18   55.65
  -7  -7   3  801.41   55.84
  -7  -7  -3  861.22   56.03
  -7  14  -6   65.89    6.97
  -7  14   6   59.11   10.59
  -7  -7  -6   79.99    9.70
  -7  -7   6   67.47    9.47
  -7  14   6   83.92    7.36
  -7  14  -6   71.94    5.78
  14  -7  -9  151.43   11.01
  -7  14   9  157.28   12.44
  14  -7 -12  133.83   10.44
  14  -7 -15   25.46    6.47
  14  -7 -18   10.94    6.62
  -7  14 -18    8.28    7.51
  14  -7 -21    3.77    4.54
  -7  14 -21    6.39    5.62
  -7  14 -24   -1.12    1.89
  14  -6 -22    4.24    3.74
  -8  14 -22    6.82    4.51
  14  -6 -19   15.83    6.43
  -8  14 -19    3.66    6.97
  14  -6 -16   12.17    6.93
  -8  14 -16   14.48    7.12
  14  -6 -13   -4.43    5.66
  -8  14 -13    9.59    5.66
  14  -6 -10  260.41   17.72
  14  -6  -7   93.93    7.01
  14  -6  -7   94.08    6.97
  -8  -6   7   89.27    9.97
  -6  -8  -7  100.32   10.51
  -8  14  -7   80.99    7.47
  -6  14   7   92.85    7.32
  -6  -8  -4  409.76   27.03
  -8  -6   4  364.35   26.80
  -8  14  -4  374.17   26.30
  -8  14  -1  512.16   34.93
  -6  14   1  486.32   35.24
  -8  -6   1  524.02   35.20
  -6  -8  -1  527.49   35.24
  -8  14   2  793.98   54.99
  -6  -8   2  845.70   54.80
  -6  14  -2  823.37   54.61
  -8  14   5 1124.68   72.94
  -6  14  -5 1025.51   71.51
  -6  -8   5 1123.10   72.29
  -8  -6  -5 1162.88   72.48
  14  -8  -8  127.16    9.20
  -6  -8   8  131.52   11.94
  -8  14   8  124.39    9.59
  -8  14   8  137.68   10.28
  -6  14  -8  126.70    9.28
  14  -8 -11  237.92   16.87
  -6  14 -11  229.99   16.94
  14  -8 -14   26.15    6.28
  14  -8 -17    4.39    6.32
  14  -8 -20   -5.97    5.35
  -6  14 -23   -1.27    3.23
  14  -5 -23   -0.23    2.54
  -9  14 -23    4.31    2.93
  14  -5 -20   -1.66    6.16
  -9  14 -20   -0.54    6.08
  14  -5 -17    1.85    7.12
  -9  14 -17    7.93    7.01
  14  -5 -14   31.31    6.89
  -9  14 -14   31.66    6.97
  14  -5 -11  135.60    9.86
  -9  14 -11  113.99    9.70
  14  -5  -8   18.83    4.01
  -9  -5   8   15.87    7.39
  -9  -5   8   22.45    6.12
  -5  14   8   24.99    4.54
  -9  14  -8   24.69    4.24
  -5  14   5  767.22   52.68
  -9  14  -5  803.19   51.18
  -9  -5   5  723.78   51.64
  -5  -9  -5  786.70   51.91
  -9  14  -2 1496.38   96.08
  -9  -5   2 1494.88   96.43
  -5  14   2 1405.50   96.59
  -5  14  -1  289.99   20.91
  -5  -9   1  304.89   21.10
  -9  14   1  268.00   20.87
  -5  -9   4  147.07   13.25
  -5  14  -4  158.59   12.32
  -9  -5  -4  158.32   13.59
  14  -9  -7  170.68   11.78
  -5  -9   7  177.11   14.21
  -9  -5  -7  172.11   14.33
  -9  14   7  173.92   11.94
  -5  -9   7  163.06   12.05
  -9  14   7  207.42   12.82
  -5  14  -7  153.54   11.71
  14  -9 -10  135.60   10.01
  -9  14  10  148.88   11.55
  -5  14 -10  136.44   10.36
  14  -9 -13   91.93    8.01
  -5  14 -13   72.02    7.66
  -5  14 -13  100.24    8.66
  14  -9 -16   26.30    6.39
  14  -9 -19   -0.65    5.43
  14  -4 -21    5.78    5.43
 -10  14 -21    4.35    5.08
  14  -4 -18   18.06    7.63
 -10  14 -18    7.97    7.20
  14  -4 -15   60.15    8.74
 -10  14 -15   70.94    8.09
  14  -4 -12   98.51    8.93
 -10  14 -12  101.05    8.86
  14  -4  -9   18.41    4.47
 -10  14  -9   17.79    4.43
  14  -4  -6  328.11   21.87
  14  -4  -6  312.32   21.84
 -10  14  -6  320.84   22.80
  -4 -10  -6  315.25   23.92
  -4  14   6  336.82   26.19
  -4  14   6  359.00   22.57
 -10  14  -6  344.98   21.87
 -10  14  -3  611.44   41.13
 -10  -4   0  286.18   20.49
 -10  14   0  251.48   19.68
  -4 -10   0  271.77   19.99
  -4  14   0  267.46   20.22
  -4 -10   3  553.79   38.32
  -4  14  -3  518.94   37.93
 -10  -4  -3  653.22   39.01
  -4 -10   6  447.88   28.38
 -10  14   6  390.89   29.31
 -10  -4  -6  460.90   28.69
  14 -10  -6  391.58   26.34
  -4  14  -6  394.16   26.30
  14 -10  -9  231.37   15.60
 -10  14   9  256.48   16.87
  -4  14  -9  217.39   15.71
  -4  14 -12  122.31   10.47
  14 -10 -12  143.34   10.67
 -10  14  12  144.76   12.75
  -4  14 -12  163.44   11.05
  14 -10 -15   44.06    6.62
  -4  14 -15   40.48    7.70
  14 -10 -18    0.31    5.74
  -4  14 -18    7.93    8.05
  14  -3 -22    4.27    4.27
  14  -3 -22    4.97    3.16
 -11  14 -22    0.46    3.47
  14  -3 -19    5.16    6.97
 -11  14 -19   10.55    6.01
  14  -3 -16   13.32    7.51
 -11  14 -16   17.75    7.16
  14  -3 -13    0.85    6.28
 -11  14 -13    6.20    5.82
  14  -3 -10   48.45    6.12
 -11  14 -10   47.25    6.12
  14  -3  -7   72.40    6.01
  14  -3  -7   71.71    6.35
 -11  14  -7   65.62    7.09
  -3  14   7   70.78    6.12
 -11  14  -7   75.25    6.20
  -3 -11  -4  423.27   30.35
 -11  14  -4  446.34   30.00
  -3  14   1  516.24   37.89
 -11  14  -1  553.98   37.32
  -3 -11  -1  577.13   37.74
  -3 -11   2  186.74   15.06
  -3  14  -2  170.41   14.79
 -11  14   2  171.34   15.02
  -3 -11   5  185.66   13.86
 -11  14   5  136.52   13.98
 -11  -3  -5  206.00   14.90
 -11  14   5  157.66   11.32
  14 -11  -8   11.17    3.23
 -11  14   8   19.29    5.35
  -3  14  -8    8.66    3.66
  14 -11 -11   93.66    7.70
  -3  14 -11   81.68    7.66
 -11  14  11  114.69   10.40
  -3  14 -11  101.75    8.36
  14 -11 -14    9.40    5.51
  -3  14 -14    3.27    5.51
  -3  14 -14    5.74    6.93
  14 -11 -17   17.45    5.82
  -3  14 -17   24.15    8.09
  -3  14 -20   -3.00    6.62
  -3  14 -23   -3.43    3.00
 -12  14 -23   -5.58    1.96
  14  -2 -23    3.66    1.77
  14  -2 -20   -0.65    6.59
 -12  14 -20    0.62    4.78
  14  -2 -17   38.93    8.59
 -12  14 -17   34.58    7.36
  14  -2 -14   51.26    8.05
 -12  14 -14   48.49    7.39
  14  -2 -11   58.69    7.32
 -12  14 -11   54.49    7.01
  14  -2  -8   17.18    4.62
 -12  -2   8   13.67    7.43
 -12  14  -8   20.41    4.70
  14  -2  -5  331.73   22.80
 -12  14  -5  372.86   24.30
  -2  14   5  311.98   26.34
  -2 -12  -5  342.25   25.22
 -12  14  -5  354.69   22.84
  -2 -12  -2  144.30   13.36
  -2  14   2  140.10   13.75
 -12  14  -2  158.28   12.82
  -2 -12   1  767.95   49.87
 -12  14   1  685.11   49.56
  -2  14  -1  779.89   49.87
  -2 -12   4  552.13   40.17
 -12  -2  -4  651.45   41.05
  -2 -12   7   90.58    9.74
 -12  14   7  105.64    8.86
 -12  14   7   94.51    7.63
  -2  14  -7   92.46    7.24
  14 -12 -10  103.29    8.55
  -2  14 -10  117.38    9.13
  -2  14 -13   -2.93    5.12
  14 -12 -13    0.08    5.04
 -12  14  13   11.71    8.36
  -2  14 -13    4.39    6.55
  -2  14 -16   29.15    6.62
  14 -12 -16   23.53    6.20
  -2  14 -16   42.29    8.28
  14 -12 -19    1.27    4.66
  -2  14 -19    0.08    7.47
  -2  14 -22   -0.04    4.04
  14  -1 -21    1.00    5.24
  14  -1 -21    0.89    3.70
 -13  14 -21    7.05    3.77
  14  -1 -18   44.36    8.74
 -13  14 -18   33.97    6.70
  14  -1 -15   51.14    9.24
 -13  14 -15   56.19    7.59
 -13  14 -12  106.75    9.47
 -13  14  -9  111.49    9.01
 -13  14  -9  127.01    9.51
 -13  14  -6  314.48   23.95
  14  -1  -6  326.73   22.64
 -13  14  -6  371.28   22.80
 -13  14  -3  266.34   19.76
 -13  14   0  776.96   53.84
  -1 -13   0  844.55   53.99
  -1  14   0  792.71   54.07
  -1 -13   3  446.80   31.16
  14 -13  -6   23.45    3.43
  -1 -13   6   19.95    6.74
 -13  14   6   26.26    5.31
 -13  14   6   25.46    4.35
  -1  14  -6   23.26    3.50
 -13  14   9  134.36   10.63
  -1  14  -9  118.34    9.36
  -1  14 -12   23.65    4.78
  14 -13 -12   15.98    4.62
 -13  14  12   21.80    8.43
  -1  14 -12   16.83    6.01
  -1  14 -15   28.00    6.43
  14 -13 -15   20.64    5.55
  -1  14 -15   35.39    7.93
  14 -13 -18    3.58    4.70
  -1  14 -18   22.95    7.86
  -1  14 -21    3.70    5.24
  14   0 -22    3.08    3.97
  14   0 -22   -0.39    2.23
 -14  14 -22    2.27    2.23
 -14  14 -19    5.47    4.78
 -14  14 -16    6.28    6.32
 -14  14 -13   42.75    7.12
 -14  14 -10  167.60   12.36
 -14  14 -10  172.26   12.82
 -14  14  -7  174.92   13.06
 -14  14  -7  191.17   12.98
 -14  14  -4  277.05   20.83
  14   0  -4  271.77   18.75
 -14  14  -4  271.54   19.87
 -14  14  -4  293.72   18.75
 -14  14  -1  262.95   19.91
   0 -14  -1  240.50   19.26
 -14  14  -1  264.19   18.72
 -14  14   2  518.94   34.62
   0 -14   2  471.72   33.97
  14 -14  -5   15.79    3.08
   0 -14   5   18.06    7.12
 -14  14   5   20.68    4.66
 -14  14   5   19.14    4.31
 -14  14   8   85.88    8.01
 -14  14   8   95.05    8.82
   0  14  -8   93.00    7.28
   0  14 -11   33.70    4.81
 -14  14  11   33.39    8.51
   0  14 -11   29.19    5.55
   0  14 -14    5.89    5.58
   0  14 -14   14.56    7.28
   0  14 -17   29.42    6.66
   0  14 -17   56.07    8.63
   0  14 -20    3.70    5.82
   0  14 -23   -0.69    2.23
  14   1 -20   -0.23    3.77
 -15  14 -20   -0.89    3.70
 -15  14 -17   76.33    7.82
 -15  14 -14   69.74    8.13
  14   1 -11  237.57   16.21
 -15  14 -11  199.29   15.40
 -15  14 -11  222.09   15.60
  14   1  -8   25.11    5.78
 -15  14  -8   34.35    5.78
 -15  14  -8   37.63    5.78
  14   1  -5   44.17    4.85
 -15  14  -5   39.09    8.47
  14   1  -5   46.87    5.39
 -15  14  -5   62.93    5.82
 -15  14  -5   51.30    7.16
 -15  14  -5   59.19    5.28
  14   1  -2    3.39    3.16
 -15  14  -2    3.77    8.36
 -15  14  -2    2.77    6.85
 -15  14  -2    7.97    4.58
 -15  14   1  912.36   60.58
   1 -15   1  864.15   60.08
 -15  14   1  887.87   59.81
 -15  14   1  910.44   58.50
   1 -15   4  208.08   15.94
 -15  14   4  198.29   13.98
 -15  14   4  192.56   13.56
 -15  14   7    2.93    6.08
 -15  14   7   -4.70    5.01
   1  14  -7   -0.96    3.66
 -15  14  10   69.51    8.66
   1  14 -10   58.07    5.93
   1  14 -13   11.86    5.24
 -15  14  13   21.30    8.74
   1  14 -13    5.43    6.74
   1  14 -16   41.05    7.28
   1  14 -16   60.23    8.40
   1  14 -19    3.85    6.12
   1  14 -22    6.59    3.16
  14   2 -21    1.89    2.35
 -16  14 -21   -1.31    2.12
  14   2 -18   18.10    8.28
  14   2 -18   10.74    4.70
 -16  14 -18   22.57    5.12
  14   2 -15   18.95    9.17
 -16  14 -15   19.79    6.47
  14   2 -12   54.88    8.43
 -16  14 -12   36.47    6.70
 -16  14 -12   50.49    7.12
  14   2  -9   64.70    7.93
 -16  14  -9   72.98    7.55
 -16  14  -9   76.33    7.59
  14   2  -6  130.71   10.82
 -16  14  -6  153.89   11.17
 -16  14  -6  156.82   10.82
  14   2  -3   43.79    5.12
 -16  14  -3   49.02    9.28
 -16  14  -3   49.41    8.24
 -16  14  -3   50.18    5.74
 -16  14  -3   48.79    4.97
 -16  14   0 1074.26   72.40
 -16  14   0 1114.55   70.98
 -16  14   0 1084.20   70.82
   2 -16   3  160.44   15.67
 -16  14   3  185.28   13.52
 -16  14   3  194.52   13.06
 -16  14   6    3.58    5.47
   2  14  -6    7.01    3.31
 -16  14   6    3.70    4.97
 -16  14   9   29.00    7.82
   2  14  -9   20.87    4.85
   2  14 -12   41.90    6.24
 -16  14  12   50.87    9.05
   2  14 -12   51.64    6.93
   2  14 -15   23.99    6.47
   2  14 -15   32.81    7.70
   2  14 -18    1.96    6.66
   2  14 -21   -2.81    3.85
  14   3 -22   -8.40    3.12
  14   3 -19    4.39    6.82
 -17  14 -19    1.42    3.39
  14   3 -19   -0.12    3.47
  14   3 -16   66.59    9.74
 -17  14 -16   54.88    6.62
  14   3 -13    2.50    8.05
 -17  14 -13    8.47    5.97
 -17  14 -13    8.70    5.74
  14   3 -10  285.60   20.18
 -17  14 -10  270.96   19.68
 -17  14 -10  292.61   19.49
  14   3  -7  194.52   14.83
 -17  14  -7  199.53   14.79
 -17  14  -7  220.51   14.44
  14   3  -4   96.32    7.51
  14 -17   4   98.55    7.55
  14   3  -4   95.82    7.97
 -17  14  -4  104.13    8.36
 -17  14  -4   98.90   10.86
 -17   3   4  104.13    7.70
 -17  14  -4  115.73    7.89
  14   3  -1  130.36    9.78
 -17  14  -1  131.25   12.79
 -17  14  -1  138.60   10.21
 -17   3   1  135.75    9.78
   3 -17  -1  111.07   11.86
 -17  14  -1  135.94    9.63
 -17  14   2  416.61   27.46
  14   3   5  425.78   30.77
 -17  14   5  513.54   31.12
 -17  14   5  503.34   31.46
 -17  14   8   13.48    7.32
   3  14  -8   12.09    4.12
 -17  14  11  223.59   15.29
   3  14 -11  201.10   13.79
   3  14 -14    6.47    5.78
   3  14 -14    8.43    6.70
   3  14 -17   11.13    6.12
   3  14 -17   22.80    6.78
 -17   3 -20   -0.96    3.31
   3  14 -20   -7.01    4.27
  14 -18  20   -1.35    4.08
  14   4 -20   -0.46    5.16
  14   4 -17   50.56    8.74
 -18  14 -17   34.16    4.85
  14   4 -14   24.61    9.13
 -18  14 -14   12.36    6.05
 -18  14 -14   28.27    6.08
  14   4 -11  137.60   11.40
 -18  14 -11  109.99   10.47
 -18  14 -11  124.04   10.24
  14   4  -8   53.15    7.28
 -18  14  -8   46.98    6.93
 -18  14  -8   49.26    5.89
  14 -18   5  219.24   15.44
  14   4  -5  228.18   15.87
 -18   4   5  210.00   15.56
 -18  14  -5  247.66   16.06
 -18  14  -5  246.62   15.64
  14   4  -2   35.12    4.89
 -18   4   2   34.01    5.01
 -18  14  -2   35.31    5.43
 -18  14  -2   48.37    4.70
 -18  14   1  497.52   32.66
 -18  14   4  147.73   10.78
 -18  14   4  133.52   11.63
 -18  14   7   30.42    7.28
   4  14  -7   23.57    3.97
   4  14 -10   17.72    4.93
 -18  14  10    6.74    7.97
   4  14 -10   14.90    4.58
   4  14 -13   -2.77    5.93
 -18  14  13    1.85    7.55
   4  14 -13   -5.39    5.74
   4  14 -16   30.23    6.12
   4  14 -16   32.97    6.66
   4  14 -19    7.09    4.78
  14   5 -21   -0.89    3.31
  14   5 -18   14.98    6.47
  14   5 -15   23.57    8.70
 -19  14 -15   27.61    5.51
 -19  14 -15   24.76    5.08
  14   5 -12   52.68    9.01
 -19  14 -12   43.71    7.51
 -19  14 -12   47.14    6.39
  14   5  -9  265.65   19.14
 -19  14  -9  270.46   18.83
 -19  14  -9  264.11   18.14
  14   5  -6  277.36   19.41
 -19  14  -6  323.61   19.79
 -19  14  -6  301.70   18.95
  14   5  -3   12.94    4.62
 -19   5   3   11.09    4.97
 -19  14  -3   14.40    6.24
 -19  14  -3   11.98    3.62
  14   5   0  198.64   13.90
 -19   5   0  200.18   14.13
 -19  14   0  196.33   13.71
 -19  14   3   11.01    6.08
 -19  14   3   13.17    5.55
 -19  14   6  202.18   14.71
 -19  14   6  182.04   14.79
   5  14  -9   54.42    5.97
 -19  14   9   56.23    8.47
   5  14  -9   51.49    5.51
   5  14 -12  133.86   11.17
 -19  14  12  168.91   12.59
   5  14 -12  139.56   11.13
   5  14 -15   30.73    6.85
   5  14 -15   38.05    6.16
   5  14 -18    7.47    4.66
   5  14 -18   -1.96    4.78
  14   6 -19    3.89    4.89
  14   6 -16   36.39    8.47
  14   6 -13    9.90    8.24
 -20  14 -13    7.36    6.82
 -20  14 -13    7.59    4.58
  14   6 -10   12.75    7.70
 -20  14 -10   14.71    7.24
 -20  14 -10    6.12    4.54
  14   6  -7   98.82    9.17
 -20  14  -7   99.28    9.44
 -20  14  -7   95.24    7.66
  14   6  -4   15.40    5.16
 -20  14  -4    9.94    6.51
 -20   6   4    7.28    5.16
 -20  14  -4   18.25    3.97
  14   6  -1  392.70   27.27
 -20   6   1  414.96   27.46
 -20  14  -1  423.47   27.15
 -20  14   2   55.11    7.93
 -20  14   2   69.78    7.05
 -20  14   5  623.49   39.47
 -20  14   5  563.65   39.55
 -20  14   8    1.66    7.78
   6  14 -11   34.62    6.39
 -20  14  11   39.94    8.13
   6  14 -11   39.63    5.24
   6  14 -14   24.76    6.32
   6  14 -14   23.76    5.39
   6  14 -17   10.17    5.16
   6  14 -17    5.24    4.58
  14   7 -20    1.39    3.31
  14   7 -17    4.54    6.51
  14   7 -14   10.01    8.28
 -21  14 -14   11.36    6.12
  14   7 -11   50.83    8.20
 -21  14 -11   31.62    8.05
  14   7  -8   -2.54    7.12
 -21  14  -8   13.63    7.24
  14   7  -5  138.10   10.59
 -21  14  -5  137.72   11.36
 -21   7   5  119.15   10.32
  14   7  -2  249.94   17.37
 -21   7   2  253.09   17.72
  14   7   1  119.65    9.59
 -21   7  -1  123.66   10.55
 -21  14   1  114.19   10.44
 -21  14   1  121.96    9.36
 -21  14   4   82.14    9.86
 -21  14   4   99.63    9.13
 -21  14   7  296.38   21.10
   7  14 -10   47.52    6.70
 -21  14  10   74.87    8.70
   7  14 -13   11.82    5.70
 -21  14  13    4.27    6.05
   7  14 -13   12.44    4.51
   7  14 -16   -0.12    5.28
   7  14 -16   10.63    4.12
 -21   7 -19    4.97    2.89
  14   8 -18    0.77    4.66
 -22  14 -15   12.79    5.43
  14   8 -15    0.19    7.12
  14   8 -12  204.07   15.17
 -22  14 -12  187.43   15.02
 -22  14  -9   11.21    7.47
  14   8  -9    0.89    7.36
  14   8  -6  230.80   16.48
 -22  14  -6  234.84   16.83
 -22   8   6  213.97   16.06
 -22   8   3  154.01   11.94
 -22  14  -3  138.72   12.52
  14   8  -3  146.96   11.32
 -22  14   0   12.75    7.59
 -22   8   0   24.03    7.01
  14   8   0   20.72    5.28
 -22  14   3   86.38   10.13
 -22  14   3  107.56    9.05
 -22   8  -3  105.21   10.74
  14   8   3   99.86    9.05
 -22  14   6  325.88   23.07
   8  14  -9  313.29   22.49
 -22  14   9  370.24   23.49
   8  14 -12   10.28    5.74
 -22  14  12   10.94    6.70
   8  14 -15    5.04    5.55
 -22   8 -15    1.31    7.09
 -22   8 -18    8.05    3.89
  14   9 -19    0.73    2.89
  14   9 -16    6.59    5.55
 -23  14 -16    9.78    4.47
 -23  14 -13   42.13    7.97
  14   9 -13   51.18    7.74
 -23  14 -10   67.05    9.36
  14   9 -10   70.24    8.78
 -23  14  -7   22.57    8.43
 -23   9   7   23.68    6.32
  14   9  -7   15.06    7.12
  14   9  -4  104.87    9.40
 -23   9   4   95.16    9.94
 -23  14  -4  114.07   10.67
 -23  14  -1   23.99    7.97
 -23   9   1   14.21    7.39
  14   9  -1   18.41    5.47
 -23   9  -2  130.67   11.55
 -23  14   2  104.52   10.82
  14   9   2  107.18    9.67
 -23  14   5   97.47   10.82
 -23   9  -5  112.72   12.25
 -23  14   8   46.14    8.78
   9  14  -8   47.02    6.12
 -23  14  11   51.45    7.63
   9  14 -11   38.01    6.35
   9  14 -14   -2.77    5.35
 -23   9 -14   -3.54    7.66
   9  14 -17   11.86    3.81
 -23   9 -17   26.19    4.78
  14  10 -17    5.24    4.27
 -24  14 -14    9.05    6.16
  14  10 -14    4.58    6.47
  14  10 -11  110.72   10.71
 -24  14 -11  106.48   10.90
 -24  14  -8   20.60    8.86
 -24  10   8   21.45    5.93
  14  10  -8    7.36    7.70
  14  10  -5  119.96   10.44
 -24  10   5  108.10   10.67
 -24  14  -5  127.36   11.98
 -24  10   2   92.08   10.21
  14  10  -2   91.73    8.59
 -24  10  -1   65.01    9.70
 -24  14   1   56.53    9.78
  14  10   1   66.59    7.28
 -24  14   4   25.65    9.13
 -24  10  -4   52.64   10.63
  14  10   4   44.21    6.85
 -24  14   7  136.21   12.44
 -24  14  10   55.80    8.36
  10  14 -10   62.35    7.66
  10  14 -13    2.46    5.20
 -24  10 -13    1.19    7.86
  10  14 -16    8.51    3.93
 -24  10 -16    3.58    5.04
  14  11 -15   14.79    5.12
 -25  14 -15    4.74    5.01
 -25  14 -12   97.47    9.63
  14  11 -12   77.95    8.97
 -25  11   9    4.12    5.58
 -25  14  -9    8.90    8.86
  14  11  -9    0.89    6.93
  14  11  -6  132.29   11.25
 -25  14  -6  130.48   12.90
 -25  11   6  117.15   11.28
 -25  11   3   25.99    8.47
  14  11  -3   28.38    6.51
 -25  14   0   33.00    9.90
 -25  11   0   31.73    9.74
  14  11   0   41.01    6.47
 -25  11  -3    4.66   10.13
 -25  14   3    7.09    9.01
  14  11   3   12.17    5.85
 -25  14   6  164.63   14.52
  14  11   6  176.23   13.09
  11  14  -9  134.44   11.63
 -25  14   9  143.26   12.44
  11  14 -12   17.48    5.70
 -25  11 -12   20.76    8.24
  11  14 -15   14.13    4.08
 -25  11 -15   14.40    5.62
  14  12 -16    5.31    3.23
 -26  14 -16    8.70    3.27
  14  12 -13    7.47    5.35
 -26  14 -13    7.74    6.55
 -26  14 -10  101.98   10.63
  14  12 -10   75.29    9.05
 -26  12   7   28.96    7.24
 -26  14  -7   35.08    9.94
  14  12  -7   22.95    6.78
 -26  12   4    6.16    8.40
  14  12  -4   16.25    6.74
 -26  14  -1   90.04   11.82
 -26  12   1   88.54   11.44
  14  12  -1   90.04    8.55
 -26  14   2   35.55    9.97
 -26  12  -2   63.50   11.36
  14  12   2   53.49    6.82
 -26  14   5   99.17   11.21
 -26  14   8   40.51    8.16
  12  14  -8   50.76    6.66
 -26  12 -11   26.11    8.86
  12  14 -11   23.49    5.85
 -26  12 -14    9.78    5.97
  14  13 -14    3.43    3.66
 -27  14 -14   -3.70    5.12
 -27  14 -11   99.40    9.70
  14  13 -11   71.21    7.97
 -27  13   8    7.78    6.24
 -27  14  -8   18.56    9.86
  14  13  -8    5.47    6.16
  14  13  -5  128.63   11.32
 -27  13   5  138.87   12.29
 -27  13   2   26.38    9.78
 -27  14  -2   33.54   11.32
 -27  14   1   30.08   10.28
 -27  13  -1   20.87   10.86
 -27  14   4   61.43   10.40
 -27  13  -4   87.61   12.52
 -27  13  -7   94.12   12.59
 -27  14   7   69.94    9.51
  13  14 -10   59.11    7.12
 -27  14  10   56.30    7.05
 -27  13 -13   12.79    6.24
 -27  13 -16   13.13    3.08
 -28  14   0  190.09   16.87
 -28  14  -3   75.98   12.79
 -28  14   3   55.26   10.63
 -28  14   6   68.01    9.47
 -28  14   9   35.97    6.08
 -28  14  -9   44.02    9.82
 -28  14 -12    6.93    6.51
 -28  14 -15    9.40    3.43
  15  -7 -23   -0.23    2.31
  -8  15 -23    3.89    2.89
  15  -7 -20   -2.31    5.35
  -8  15 -20   -3.66    6.16
  15  -7 -17    8.90    7.12
  -8  15 -17   11.51    7.89
  15  -7 -14   34.93    6.97
  15  -7 -11  325.53   21.99
  15  -7  -8   38.82    4.58
  -7  15   8   36.62    5.28
  -8  -7   5    1.96    7.16
  -8  15  -5   21.45    6.12
  -7  15   5   19.83    9.01
  -7  -8  -5   28.54    8.36
  -7  15   5   14.21    5.43
  -7  15   5   16.02    3.89
  -8  15  -5   17.25    3.50
  -8  15  -2 1245.83   80.57
  -7  15   2 1162.84   80.83
  -8  -7   2 1265.32   80.91
  -8  15   1  150.23   14.02
  -7  15  -1  141.61   13.75
  -8  -7  -1  190.48   14.40
  -7  -8   1  160.67   13.75
  -8  -7  -4  346.18   23.68
  -7  -8   4  321.88   23.45
  -7  15  -4  308.24   22.80
  15  -8  -7  220.36   14.98
  -7  -8   7  215.32   17.68
  -8  15   7  227.48   15.25
  -7  15  -7  221.09   15.13
  15  -8 -10  331.08   21.95
  -8  15  10  317.75   22.95
  15  -8 -13   22.68    5.82
  15  -8 -16    4.39    6.59
  15  -8 -19    0.81    5.62
  -7  15 -22    6.66    4.20
  15  -6 -21   -4.08    4.66
  -9  15 -21   11.17    5.24
  15  -6 -18    2.62    7.01
  -9  15 -18   10.28    7.36
  15  -6 -15   49.91    8.05
  -9  15 -15   53.99    8.20
  15  -6 -12  154.89   11.82
  -9  15 -12  154.16   11.94
  15  -6  -9   54.11    5.78
  -9  15  -9   52.61    6.05
  15  -6  -6    4.54    3.58
  -9  -6   6    3.43    6.93
  -9  15  -6   -2.35    5.12
  15  -6  -6    3.85    3.31
  -6  15   6   -1.54    5.66
  -6  15   6    3.77    3.74
  -9  15  -3  279.82   19.83
  -9  -6   3  254.29   19.99
  -6  15   3  277.55   21.41
  -6  -9   0  868.35   54.99
  -9  -6   0  879.13   55.15
  -6  15   0  788.74   54.88
  -9  15   0  758.13   54.61
  -9  15   3  311.36   25.34
  -6  -9   3  350.10   25.11
  -6  15  -3  344.52   24.72
  -9  -6  -3  401.79   25.96
  -6  15  -6  397.13   30.46
  -6  -9   6  460.78   31.89
  15  -9  -6  478.73   29.73
  -6  15  -6  446.27   29.69
  -9  15   6  457.66   29.73
  15  -9  -9   78.14    6.85
  -9  15   9   85.30    7.51
  -9  15   9   76.33    9.24
  -6  15  -9   85.15    7.01
  15  -9 -12   68.28    7.24
  -6  15 -12   83.53    7.97
  15  -9 -15   18.68    6.05
  15  -9 -18   11.90    6.01
  15  -9 -21    1.12    3.97
  15  -5 -22    2.93    3.08
  15  -5 -22    3.08    3.85
 -10  15 -22    4.27    3.62
  15  -5 -19   11.98    6.59
 -10  15 -19    8.43    6.59
  15  -5 -16    6.28    7.39
 -10  15 -16   10.74    7.24
  15  -5 -13   37.63    6.66
 -10  15 -13   34.01    6.74
  15  -5 -10   49.26    6.20
 -10  15 -10   54.11    6.32
  15  -5  -7   32.58    4.39
  15  -5  -7   23.38    4.20
 -10  -5   7   22.34    7.28
  -5  15   7   20.14    6.97
  -5  15   7   30.42    4.54
 -10  15  -7   24.30    4.47
 -10  15  -4  236.53   16.48
  -5 -10  -4  214.81   16.94
 -10  -5   4  181.58   16.60
 -10  15  -4  215.78   14.48
 -10  15  -1 1442.43   95.55
 -10  -5   1 1538.71   96.01
  -5  15   1 1402.03   95.85
  -5 -10  -1 1457.14   95.74
  -5 -10   2  868.96   56.92
 -10  15   2  792.02   57.00
 -10  -5  -2  904.51   57.46
  -5  15  -2  852.63   56.80
  15 -10  -5  324.57   20.26
  -5  15  -5  272.50   21.53
 -10  -5  -5  327.73   22.72
  -5 -10   5  324.80   22.64
 -10  15   5  351.18   20.83
  -5  15  -5  294.69   20.22
 -10  15   5  276.36   20.26
  15 -10  -8   21.68    3.74
 -10  15   8   29.61    7.09
  -5  15  -8   24.11    4.39
 -10  15   8   18.10    5.01
  15 -10 -11   70.71    6.89
 -10  15  11   77.25    9.78
  -5  15 -11   81.64    7.51
  15 -10 -14    0.65    5.58
  -5  15 -14   18.68    7.20
  15 -10 -17    7.24    5.89
  -5  15 -17    8.40    8.09
  15 -10 -20   -6.39    4.54
 -11  15 -23   -1.31    2.23
  15  -4 -20   -2.62    5.85
 -11  15 -20    2.04    5.35
  15  -4 -17   24.53    7.93
 -11  15 -17   16.33    7.43
  15  -4 -14   44.90    7.97
 -11  15 -14   52.49    7.47
  15  -4 -11  134.75   10.55
 -11  15 -11  125.93   10.47
  15  -4  -8   92.89    7.59
  -4  15   8   95.43    7.47
 -11  15  -8   94.08    7.70
  15  -4  -5  140.18    9.51
  15  -4  -5  120.92    9.44
 -11  15  -5  129.78   11.51
  -4  15   5  141.64   10.74
 -11  15  -5  132.79    9.63
  -4 -11  -2  549.28   37.97
 -11  15  -2  569.89   37.70
  -4  15   2  516.32   38.36
 -11  -4   2  562.34   37.89
 -11  15   1  159.71   14.02
  -4  15  -1  165.52   13.98
  -4 -11   1  156.82   14.02
  15 -11  -4   51.34    4.74
 -11  -4  -4   69.59   10.17
  -4  15  -4   40.24    7.43
  -4 -11   4   51.60    8.55
 -11  15   4   56.61    5.31
  15 -11  -7  207.88   14.52
  -4 -11   7  209.77   16.94
 -11  15   7  244.78   15.25
  -4  15  -7  202.99   14.56
  15 -11 -10   25.61    4.54
 -11  15  10   29.65    7.78
  -4  15 -10   32.35    5.55
  15 -11 -13   21.41    5.47
  -4  15 -13   11.25    4.81
  -4  15 -13   22.07    6.66
  15 -11 -16   24.96    6.28
  -4  15 -16   34.24    8.43
  15 -11 -19   -2.62    4.89
  -4  15 -19    5.51    7.39
  -4  15 -22   -1.54    4.16
  15  -3 -21    2.43    5.16
  15  -3 -21    5.01    3.50
 -12  15 -21    2.97    4.04
  15  -3 -18    9.59    7.70
 -12  15 -18   16.98    6.66
  15  -3 -15    7.63    7.47
 -12  15 -15    5.20    7.01
  15  -3 -12  144.19   11.25
 -12  15 -12  127.43   11.05
  15  -3  -9  182.20   13.90
 -12  15  -9  203.15   13.90
 -12  15  -6   41.05    7.12
  15  -3  -6   47.56    4.93
  15  -3  -6   41.36    4.70
  -3  15   6   48.99    4.97
 -12  15  -6   45.37    5.20
  15  -3  -3  205.69   14.06
 -12  15  -3  211.08   16.29
  -3  15   3  182.00   17.10
 -12  15  -3  211.73   14.06
  -3 -12   0  968.44   61.62
  -3  15   0  912.56   61.54
 -12  15   0  890.88   61.39
  -3  15  -3  336.55   27.03
  -3 -12   3  388.69   27.61
 -12  15   3  333.74   27.38
 -12  15   3  423.12   25.88
 -12  15   3  377.02   25.46
  15 -12  -6  384.38   25.38
  -3 -12   6  388.61   27.54
 -12  15   6  423.47   25.96
  -3  15  -6  377.83   25.38
 -12  15   6  372.02   25.46
  15 -12  -9   -0.58    3.58
 -12  15   9   -6.20    7.36
  -3  15  -9    1.62    4.35
  15 -12 -12   75.60    7.09
 -12  15  12   93.89   10.32
  -3  15 -12   83.68    8.28
  15 -12 -15    8.70    5.62
  -3  15 -15   13.32    7.47
  15 -12 -18    1.12    4.78
  -3  15 -18   -3.35    7.89
  -3  15 -21    5.28    5.39
  15  -2 -22   -2.77    3.89
  15  -2 -22    2.66    2.23
 -13  15 -22    0.77    2.66
  15  -2 -19    6.89    7.20
 -13  15 -19    7.93    5.55
  15  -2 -16   40.01    8.70
 -13  15 -16   39.86    7.36
  15  -2 -13   22.22    7.12
 -13  15 -13   22.49    6.93
  15  -2 -10   35.31    6.70
 -13  15 -10   43.13    6.20
  15  -2  -7  163.83   12.90
 -13  15  -7  192.21   12.82
  -2  15   7  185.12   12.67
 -13  15  -7  185.89   13.06
 -13  15  -4  111.03   11.67
  15  -2  -4  125.97    9.05
 -13  15  -4  130.13    9.28
  -2  15   1  636.66   44.13
  -2 -13  -1  635.97   43.59
 -13  15  -1  649.30   43.63
 -13  15   2  255.75   20.33
  -2 -13   2  252.29   20.41
 -13  -2  -2  306.36   21.22
 -13  15   2  289.53   18.56
 -13  15   2  263.53   18.06
  -2 -13   5  303.81   22.11
  15 -13  -5  299.19   19.76
 -13  15   5  303.62   19.91
  -2  15  -5  291.45   19.76
 -13  15   8    9.36    7.05
 -13  15   8    7.39    5.01
  -2  15  -8    7.86    4.08
  15 -13 -11   41.09    5.47
 -13  15  11   52.03    9.09
  -2  15 -11   50.41    6.66
  -2  15 -14    3.04    5.24
  15 -13 -14    4.35    5.01
  -2  15 -14    8.90    7.01
  15 -13 -17   28.58    5.62
  -2  15 -17   36.97    8.59
  -2  15 -20    1.73    5.97
  15  -2  23   -3.43    2.62
  -2  15 -23   -0.46    2.23
  15  -1 -20    8.20    3.77
  15  -1 -20   10.40    6.16
 -14  15 -20    4.04    4.16
  15  -1 -17   73.29    9.82
 -14  15 -17   66.66    7.82
 -14  15 -14   56.57    8.05
 -14  15 -11  226.68   16.29
 -14  15  -8   37.32    5.51
 -14  15  -8   50.03    6.24
  15  -1  -5    5.66    3.43
 -14  15  -5   17.02    7.09
 -14  15  -5    7.70    4.35
 -14  15  -5    9.74    4.20
 -14  15  -2   38.28    4.70
 -14  15  -2   33.47    4.24
  -1 -14   1  842.81   57.46
 -14  15   1  829.10   57.81
 -14  15   1  876.55   55.84
 -14  15   1  854.64   55.73
  -1 -14   4  108.91   11.40
  15 -14  -4  109.33    7.89
  15  -1   4  111.64    8.20
 -14  15   4  108.06    8.40
 -14  15   7   35.97    7.24
  -1  15  -7   29.81    4.39
 -14  15   7   36.51    5.39
 -14  15  10   39.78    8.47
  -1  15 -10   36.05    5.82
  -1  15 -13    8.28    5.24
  15 -14 -13   13.09    4.89
 -14  15  13   28.61    9.24
  -1  15 -13    8.43    6.89
  15 -14 -16   37.05    5.93
  -1  15 -16   33.81    6.35
  -1  15 -19    0.19    6.89
  -1  15 -22   -4.39    3.35
 -15  15 -21    7.82    2.81
  15   0 -21    3.93    2.54
 -15  15 -18    5.93    5.12
 -15  15 -15   29.23    6.78
 -15  15 -12  197.64   14.79
 -15  15  -9  134.94   11.25
 -15  15  -9  166.02   11.51
  15   0  -6   10.09    3.85
  15   0  -6   15.10    4.47
 -15  15  -6   21.45    4.97
 -15  15  -6   16.21    4.97
  15   0  -3    6.97    3.00
  15 -15   3   14.44    3.43
 -15  15  -3   10.40    8.13
  15   0  -3    7.97    3.58
 -15  15  -3    6.43    4.08
 -15  15  -3    8.16    3.81
 -15  15   0  891.99   57.65
 -15  15   0  883.40   57.54
   0 -15   3   10.51    7.47
  15   0   3    8.97    3.16
  15 -15  -3    8.63    3.00
 -15  15   3    9.44    3.77
  15 -15  -6   47.64    4.70
 -15  15   6   45.29    7.09
   0  15  -6   45.52    4.78
 -15  15   6   41.71    5.74
 -15  15   9  156.32   12.79
   0  15  -9  146.11   10.98
 -15  15  12   68.70    9.70
   0  15 -12   61.39    7.39
   0  15 -15   13.83    5.78
   0  15 -15   23.65    7.43
   0  15 -18   10.67    7.20
   0  15 -21    2.77    4.08
  15   1 -19    2.70    3.62
 -16  15 -19    1.42    4.04
 -16  15 -16   75.25    8.28
 -16  15 -13   98.70    9.40
  15   1 -10  163.98   13.56
 -16  15 -10  161.48   12.71
 -16  15 -10  182.20   12.94
  15   1  -7   55.65    6.89
 -16  15  -7   58.84    6.97
 -16  15  -7   60.81    6.74
  15 -16   4   58.07    5.58
  15   1  -4   57.57    5.31
  15   1  -4   62.85    5.93
 -16  15  -4   73.06    6.82
 -16  15  -4   66.47    5.85
  15   1  -1  472.18   29.77
 -16  15  -1  467.37   29.92
 -16  15  -1  406.79   31.23
 -16  15  -1  436.91   29.58
   1 -16   2  386.23   29.96
 -16  15   2  466.10   29.08
  15 -16  -5  180.31   12.52
  15   1   5  179.11   12.71
   1 -16   5  160.90   15.25
 -16  15   5  207.65   13.75
 -16  15   5  196.91   13.06
   1  15  -5  174.69   12.48
 -16  15   8  165.29   12.71
   1  15  -8  142.95   10.82
 -16  15  11   66.35    9.67
   1  15 -11   55.57    6.85
   1  15 -14    7.70    5.62
   1  15 -14    5.28    7.24
   1  15 -17   26.50    7.36
   1  15 -20    5.78    4.93
  15   2 -20   -2.66    5.28
 -17  15 -20    1.08    2.58
  15   2 -17   60.23    9.13
 -17  15 -17   54.42    5.93
  15   2 -14   14.98    8.66
 -17  15 -14   -3.81    6.05
  15   2 -11   96.32   10.01
 -17  15 -11   77.52    8.63
 -17  15 -11   92.35    8.86
  15   2  -8  115.53   10.44
 -17  15  -8  116.34    9.97
 -17  15  -8  133.40   10.05
  15   2  -5   15.52    3.74
  15 -17   5   16.64    3.97
  15   2  -5   22.03    4.85
 -17  15  -5   17.72    5.16
 -17  15  -5   21.26    4.66
  15 -17   2   93.08    7.16
  15   2  -2   93.35    7.05
  15   2  -2   97.12    7.74
 -17  15  -2  105.40    8.01
 -17  15  -2   88.19   10.74
 -17   2   2   92.46    7.43
 -17  15  -2   94.08    7.55
   2 -17   1  861.88   62.89
 -17  15   1  987.42   61.93
  15   2   4  305.74   20.72
  15 -17  -4  289.33   20.53
 -17  15   4  327.65   21.30
 -17  15   4  344.60   20.99
 -17  15   7   38.86    7.32
   2  15  -7   33.20    4.70
 -17  15   7   40.71    6.62
 -17  15  10  127.97   11.90
   2  15 -10  120.19    9.82
   2  15 -13    3.04    5.01
 -17  15  13   -2.58    8.82
   2  15 -13   -0.15    6.74
   2  15 -16   24.72    6.01
   2  15 -16   36.28    7.32
   2  15 -19    1.31    5.31
  15   3 -21   -4.39    3.74
  15   3 -18   13.98    7.01
 -18  15 -18    6.47    3.81
  15   3 -15   30.35    8.82
 -18  15 -15   18.83    5.70
  15   3 -12   11.28    8.28
 -18  15 -12   13.06    6.28
 -18  15 -12   14.79    6.55
  15   3  -9  240.23   18.95
 -18  15  -9  267.11   18.64
 -18  15  -9  275.74   18.45
  15 -18   6  132.71   10.67
  15   3  -6  153.35   11.40
 -18  15  -6  146.15   11.51
 -18  15  -6  165.60   11.09
  15   3  -3   19.18    3.54
  15 -18   3   14.29    3.43
  15   3  -3   19.49    4.66
 -18   3   3   18.64    4.20
 -18  15  -3   20.30    5.39
 -18  15  -3   18.79    4.43
  15 -18   0  415.11   27.61
  15   3   0  399.67   27.65
  15   3   0  435.98   27.96
 -18  15   0  461.17   28.34
 -18  15   0  428.09   27.80
  15 -18  -3  119.62    8.97
  15   3   3  119.69    9.17
 -18  15   3  147.50   10.82
 -18  15   3  146.00    9.86
  15   3   6   20.37    4.35
 -18  15   6   18.22    6.85
   3  15  -6   22.61    3.74
 -18  15   6   21.57    6.32
 -18  15   9   -3.93    7.70
   3  15  -9    5.78    4.24
   3  15 -12   16.64    5.39
 -18  15  12   19.10    8.90
   3  15 -12   14.94    6.12
   3  15 -15   15.21    5.89
   3  15 -15   26.77    6.55
   3  15 -18   10.63    5.35
   3  15 -21   -0.31    2.58
  15 -19  19   -6.28    4.35
  15   4 -19    3.70    5.62
  15   4 -16   64.97    8.78
 -19  15 -16   45.75    5.82
  15   4 -13   43.06    9.51
 -19  15 -13   46.52    7.01
 -19  15 -13   39.13    6.51
  15   4 -10  191.71   15.98
 -19  15 -10  223.13   15.52
 -19  15 -10  201.95   14.94
  15 -19   7   65.62    6.35
  15   4  -7   68.78    7.93
 -19  15  -7   72.94    7.93
 -19  15  -7   74.75    6.89
  15   4  -4   40.24    5.85
 -19   4   4   37.51    5.35
 -19  15  -4   52.76    6.93
 -19  15  -4   51.10    5.43
  15   4  -1   75.56    6.93
 -19   4   1   75.40    7.28
 -19  15  -1   77.68    8.01
 -19  15  -1   75.56    6.59
 -19  15   2  179.77   14.40
 -19  15   2  206.03   13.86
 -19  15   5  276.43   20.83
 -19  15   5  314.06   20.64
  15   4   8   37.43    5.70
   4  15  -8   46.98    5.12
   4  15 -11  138.33   11.01
 -19  15  11  162.90   13.40
   4  15 -11  153.20   11.32
   4  15 -14    5.62    5.43
   4  15 -14   10.51    6.08
   4  15 -17    6.28    4.81
   4  15 -17    6.32    5.55
 -19   4 -20   -1.12    2.54
   4  15 -20   -1.35    2.93
  15   5 -20    2.62    3.97
  15 -20  17    9.01    4.81
  15   5 -17   24.61    7.43
  15   5 -14    7.28    8.43
 -20  15 -14    3.89    6.01
 -20  15 -14   -0.19    4.78
  15   5 -11   55.34    8.97
 -20  15 -11   44.02    7.82
 -20  15 -11   40.01    6.28
  15 -20   8   75.06    6.47
  15   5  -8   72.59    8.66
 -20  15  -8   76.48    8.66
 -20  15  -8   62.70    6.74
  15   5  -5  164.13   11.78
 -20  15  -5  159.63   12.21
 -20   5   5  135.40   11.28
 -20  15  -5  157.51   11.01
  15   5  -2   92.35    8.36
 -20  15  -2   98.78    9.51
 -20   5   2  103.40    8.36
 -20  15  -2   91.16    7.74
  15   5   1  120.12    9.74
 -20   5  -1  116.88   10.55
 -20  15   1  128.13    9.55
 -20  15   4  314.40   20.22
 -20  15   4  262.45   20.49
 -20  15   7  136.37   12.40
  15   5  10   28.46    5.43
 -20  15  10   33.74    8.90
   5  15 -10   36.74    5.24
   5  15 -13    8.36    5.62
 -20  15  13   13.13    7.36
   5  15 -13   14.52    5.35
  15   5  16    4.97    5.39
   5  15 -16    6.35    5.12
   5  15 -16   14.44    5.01
 -20   5 -19    3.00    3.50
   5  15 -19    0.73    3.12
  15   6 -18    5.62    5.39
  15   6 -15   29.50    8.13
 -21  15 -15   26.80    5.78
  15   6 -12   75.52    9.67
 -21  15 -12   65.70    8.66
 -21  15 -12   75.13    6.74
  15   6  -9    2.08    7.74
 -21  15  -9    7.32    7.43
 -21  15  -9    9.36    4.58
  15   6  -6   91.77    8.97
 -21   6   6   80.37    8.13
 -21  15  -6  104.02    9.47
 -21  15  -6   97.70    7.55
  15   6  -3  105.44    9.09
 -21   6   3  110.41    9.20
 -21  15  -3  120.66   10.13
 -21  15  -3   99.97    8.16
  15   6   0  149.65   11.82
 -21   6   0  170.26   12.44
 -21  15   0  152.70   11.55
 -21  15   3   24.22    7.28
 -21  15   3   24.84    6.05
 -21  15   6  615.79   41.09
 -21  15   9  199.99   15.87
   6  15 -12   42.59    6.24
 -21  15  12   38.51    8.32
   6  15 -12   34.54    5.35
   6  15 -15   25.80    5.74
   6  15 -15   28.73    5.01
 -21   6 -18   -2.97    4.35
   6  15 -18   -0.04    3.04
  15   7 -19    6.70    3.85
  15   7 -16    7.36    6.82
  15   7 -13   39.78    8.70
 -22  15 -13   36.12    7.20
  15   7 -10   83.53    9.94
 -22  15 -10   83.57    9.55
  15   7  -7    1.46    6.55
 -22   7   7    1.58    5.24
 -22  15  -7   14.02    7.66
  15   7  -4   37.66    6.47
 -22   7   4   40.74    6.70
 -22  15  -4   47.06    8.05
  15   7  -1   75.79    8.05
 -22   7   1   80.57    8.70
 -22  15  -1   88.54    7.16
 -22   7  -2  125.66   11.40
 -22  15   2  122.93   11.51
 -22  15   2  124.81   10.09
  15   7   2  114.07   10.13
 -22  15   5  132.17   12.17
 -22  15   8  322.88   22.91
   7  15 -11   92.93    8.93
 -22  15  11  123.20   10.55
   7  15 -14   15.60    5.47
 -22   7 -17   10.82    5.16
  15   8 -17    4.24    4.93
 -23  15 -14   12.44    6.05
  15   8 -14   -7.55    7.24
  15   8 -11  251.71   19.56
 -23  15 -11  283.60   19.49
 -23  15  -8    7.36    8.32
  15   8  -8    0.89    7.51
  15   8  -5  197.95   14.10
 -23  15  -5  194.40   14.87
 -23   8   5  168.87   13.90
 -23   8   2   54.99    8.13
  15   8  -2   52.07    7.01
 -23   8  -1   25.34    8.43
 -23  15   1   12.71    8.09
  15   8   1   18.18    5.97
 -23   8  -4   11.51    9.55
 -23  15   4   19.33    8.82
  15   8   4   26.92    6.55
 -23  15   7  114.07   11.86
 -23  15  10  103.33   10.51
   8  15 -13    9.82    5.39
 -23  15  13   14.60    5.97
 -23   8 -16    7.93    5.74
  15   9 -18   -0.12    3.31
  15   9 -15    5.85    5.89
 -24  15 -15   10.82    5.04
 -24  15 -12   95.85    9.78
  15   9 -12   91.54    9.97
 -24  15  -9   41.32    8.70
  15   9  -9   34.58    8.16
 -24   9   6   46.83    7.59
  15   9  -6   56.15    8.32
 -24   9   3   90.39   10.09
  15   9  -3  113.49    9.51
 -24   9   0    2.58    8.51
 -24  15   0    0.27    8.97
  15   9   0   -3.70    5.74
 -24  15   3   74.83   10.86
  15   9   3   79.95    8.82
 -24  15   6  408.02   28.34
 -24   9  -9  331.39   21.22
 -24  15   9  240.85   19.79
 -24  15  12    9.36    6.32
 -24   9 -12   14.56    8.74
 -24   9 -15   13.52    6.35
 -24   9 -18    3.66    2.58
  15  10 -16    0.46    4.31
 -25  15 -16    4.04    3.31
 -25  15 -13   18.22    6.55
  15  10 -13   10.32    6.59
 -25  15 -10   86.00   10.21
  15  10 -10   79.45    9.17
 -25  10   7   37.66    7.05
 -25  15  -7   55.38    9.55
  15  10  -7   54.65    8.36
 -25  10   4   83.15    9.63
  15  10  -4   80.45    8.59
 -25  10   1   22.03    8.90
 -25  15  -1   19.41    9.70
  15  10  -1   22.88    6.12
 -25  15   2   40.36    9.82
 -25  10  -2   48.06   10.28
  15  10   2   48.95    7.32
 -25  15   5  101.48   12.59
  15  10   5  125.51   10.67
 -25  15   8   85.69   10.28
 -25  15  11   14.83    6.51
 -25  10 -11   15.56    9.40
 -25  10 -14   -2.93    6.59
 -25  10 -17    5.12    3.27
  15  11 -14    6.05    4.78
 -26  15 -14   -0.81    5.39
  15  11 -11  108.06   10.09
 -26  15 -11  118.92   11.09
 -26  11   8   11.78    6.05
 -26  15  -8    2.12    9.24
  15  11  -8   19.26    7.12
 -26  11   5   47.37    8.66
 -26  15  -5   54.34   11.13
  15  11  -5   66.35    8.24
 -26  15  -2   58.77   10.94
 -26  11   2   60.23   10.32
  15  11  -2   72.29    7.97
 -26  15   1   64.74   10.86
 -26  11  -1   61.62   11.09
  15  11   1   66.24    7.63
 -26  11  -4   32.20   11.51
 -26  15   4   25.22    9.63
  15  11   4   28.73    6.20
 -26  15   7   17.72    8.59
  15  11   7   24.42    6.35
 -26  15  10   67.43    8.01
  15  11  10   53.76    7.28
 -26  11 -13   15.29    7.32
 -26  11 -16    5.04    3.81
  15  12 -15    1.46    3.23
 -27  15 -15    4.39    3.74
 -27  15 -12   49.64    7.59
  15  12 -12   41.25    6.08
 -27  15  -9   30.39    8.82
  15  12  -9   17.29    6.55
  15  12  -6  102.86    9.67
 -27  15  -6  110.37   12.44
 -27  12   6   75.25    9.97
 -27  12   3   46.33    9.86
  15  12  -3   53.03    7.97
 -27  15   0   24.65   10.51
 -27  12   0   21.60   10.36
  15  12   0   17.68    6.62
 -27  15   3   -4.27    9.94
 -27  12  -3  -11.63   11.01
  15  12   3    4.89    6.01
 -27  15   6   44.98    9.28
 -27  12  -9  130.36   12.40
 -27  15   9   80.53    9.13
 -27  12 -12   35.28    7.82
 -27  12 -15    2.54    4.35
 -28  15 -13   -2.81    5.43
 -28  15 -10   49.60    8.66
  15  13 -10   42.21    6.08
 -28  15  -7   68.51   10.98
 -28  13   7   53.61    8.01
  15  13  -7   71.51    7.66
  15  13  -4   96.28    9.51
 -28  13   4   97.05   11.17
 -28  15  -1   81.60   12.82
 -28  13   1   93.77   11.86
 -28  13  -2   61.35   11.98
 -28  15   2   21.34   10.74
 -28  15   5   60.62   10.01
 -28  15   8   17.45    7.01
 -28  13  -8   18.83   10.47
 -28  13 -11   47.45    8.24
 -28  13 -14    4.43    4.70
 -29  15 -14    9.74    3.70
 -29  15 -11   24.07    7.09
 -29  14   8   11.78    5.89
 -29  15  -8   23.41    9.63
 -29  14   5   47.10    8.74
 -29  15  -2    5.70   11.86
 -29  14   2    4.89    9.78
 -29  14  -1  198.14   17.02
 -29  15   1  178.96   16.64
 -29  15   4   11.51    9.09
 -29  14  -4    9.40   12.05
 -29  15   7   -0.08    7.01
 -29  14 -10   66.89    9.20
 -29  14 -13   12.90    5.01
 -30  15   0  290.53   22.45
 -30  15  -3   11.75   11.90
 -30  15   3   18.79    9.36
 -30  15   6    0.31    6.89
 -30  15  -9   27.69    8.36
 -30  15 -12   17.64    5.31
  -8  -8   0   49.45    9.51
  -8  16   0   34.74    8.74
  -8  -8  -3  526.45   33.66
  -8  16   3  409.30   33.31
  -8  -8   3  464.83   33.04
  -8  16  -3  450.96   32.58
  -8  16  -3  479.00   30.85
  -8  16   3  471.45   30.89
  -8  -8   6  106.37   11.36
  -8  16  -6   93.74    9.44
  16  -8  -6  110.03    7.93
  -8  16   6  119.27    9.70
  -8  16   6  106.64    8.36
  -8  16  -6  106.17    8.24
  16  -8  -9   35.08    5.24
  -8  16   9   32.58    5.78
  16  -8 -12   96.93    8.63
  16  -8 -15    9.70    6.70
  16  -8 -18    5.39    6.32
  -8  16 -18   -2.00    7.55
  16  -8 -21    3.27    3.93
  -8  16 -21    8.40    4.78
  -9  16 -22    3.97    3.74
  16  -7 -19    3.23    5.97
  -9  16 -19    2.97    6.62
  16  -7 -16   27.84    7.20
  -9  16 -16   20.80    8.20
  16  -7 -13    5.51    6.05
  -9  16 -13    2.20    6.24
  16  -7 -10  117.54    9.47
  16  -7  -7   31.73    4.89
  -9  -7   7   16.75    8.13
  16  -7  -7   26.96    4.27
  -7  16   7   28.84    6.28
  -7  16   7   33.47    5.31
  16  -7  -4  278.59   18.95
  16  -7  -4  281.67   18.83
  -9  -7   4  269.04   21.10
  -9  16  -4  252.32   20.68
  -7  16   4  305.47   19.56
  -7  16   4  291.26   18.95
  -9  16  -1 1132.11   80.06
  -9  -7   1 1308.91   80.53
  -7  -9  -1 1284.80   80.45
  -7  16   1 1153.67   80.33
  -7  16  -2  103.79   11.59
  -7  -9   2  116.88   11.71
  -9  16   2  112.61   12.75
  16  -9  -2  122.73    8.63
  16  -7   2  124.43    8.82
  16  -9  -5  333.00   22.30
  16  -9  -5  323.42   22.14
  -7  -9   5  330.69   24.76
  -7  16  -5  300.31   23.45
  -9  16   5  401.94   22.99
  -9  16   5  342.29   22.45
  -7  16  -5  337.66   22.30
  16  -9  -8   82.18    7.28
  -9  16   8  103.83    8.09
  -7  16  -8   91.31    7.51
  16  -9 -11  159.36   12.48
  -9  16  11  186.05   14.90
  -7  16 -11  178.65   12.90
  16  -9 -14    1.23    6.01
  16  -9 -17    1.23    6.05
  16  -9 -20    1.31    4.66
  16  -9 -23   -0.96    1.93
  -7  16 -23   -0.39    2.58
  16 -10  23    4.12    3.62
 -10  16 -23    3.31    2.23
  16  -6 -20    7.51    5.51
 -10  16 -20   -0.92    5.39
  16  -6 -17    7.01    7.20
 -10  16 -17   15.17    7.66
  16  -6 -14   36.86    7.43
 -10  16 -14   41.71    7.43
  16  -6 -11  214.74   14.98
 -10  16 -11  198.99   14.98
  16  -6  -8   58.27    6.16
  -6  16   8   66.51    8.28
  -6  16   8   65.82    6.93
 -10  16  -8   70.21    6.59
  16  -6  -5  172.99   11.67
  16  -6  -5  165.98   11.51
 -10  16  -5  154.04   13.32
  -6  16   5  182.31   12.32
  -6  16   5  167.29   11.75
  -6 -10  -2  188.01   16.48
  -6  16   2  164.40   16.10
 -10  -6   2  171.26   16.02
 -10  16  -2  173.26   15.79
  16 -10   2  194.71   13.21
  16  -6  -2  210.00   13.32
  -6  16  -1  136.14   12.55
 -10  16   1  134.36   13.25
  -6 -10   1  140.60   12.82
  16 -10  -4  133.48    9.78
  -6  16  -4  110.99   11.82
  -6 -10   4  157.24   13.40
 -10  16   4  154.70   10.36
  -6  16  -4  140.80    9.82
 -10  16   4  139.45   10.01
  16 -10  -7  150.04   10.40
  16 -10  -7  144.07   10.05
 -10  16   7  140.53   10.51
  -6  16  -7  130.98   10.21
  16 -10 -10  169.64   12.67
 -10  16  10  189.55   14.90
  -6  16 -10  183.89   12.98
  16 -10 -13   27.11    6.20
  -6  16 -13   33.35    7.28
  16 -10 -16   -1.04    6.16
  -6  16 -16   -1.54    7.70
  16 -10 -19    2.66    5.12
  16  -5 -21    1.27    4.51
 -11  16 -21    5.04    4.24
  16  -5 -18   -1.35    6.89
 -11  16 -18    7.93    6.55
  16  -5 -15   15.25    7.63
 -11  16 -15   22.07    7.24
  16  -5 -12  107.98    9.86
 -11  16 -12  108.68    9.82
  16  -5  -9   74.17    7.78
 -11  16  -9   90.85    7.70
  16  -5  -6  149.35   11.28
  16  -5  -6  150.39   11.28
  -5  16   6  182.77   12.63
 -11  16  -6  160.05   11.44
  -5  16   6  162.63   11.32
 -11  16  -3  213.27   17.91
  16  -5  -3  229.29   15.64
 -11  -5   3  221.25   18.22
  16  -5  -3  241.08   15.67
  16 -11   3  229.45   15.71
 -11  16  -3  233.49   15.67
  -5 -11   0  234.69   18.02
 -11  16   0  202.30   17.45
 -11  -5   0  243.93   18.22
  -5  16   0  223.36   17.87
  16 -11  -3  161.98   10.55
  16  -5   3  159.40   10.71
  -5 -11   3  148.77   13.63
  -5  16  -3  137.79   13.06
 -11  16   3  146.57   11.13
  -5  16  -3  137.60   10.44
  -5 -11   6  271.50   21.18
  16 -11  -6  280.82   18.49
  16 -11  -6  277.70   18.29
  -5  16  -6  268.42   18.49
  16 -11  -9   44.29    5.01
 -11  16   9   48.45    8.63
  -5  16  -9   44.06    5.51
 -11  16   9   38.32    6.47
  16 -11 -12   84.53    7.93
 -11  16  12   89.11   11.32
  -5  16 -12   89.96    8.93
  16 -11 -15   12.48    6.20
  -5  16 -15   30.85    7.66
  16 -11 -18   -3.16    5.16
  -5  16 -18   15.79    7.93
  -5  16 -21    0.08    4.85
  16  -4 -22    1.23    3.43
  16  -4 -22   -1.85    2.20
 -12  16 -22   -3.08    2.97
  16  -4 -19    3.74    6.47
 -12  16 -19   -1.31    6.01
  16  -4 -16   58.61    9.32
 -12  16 -16   53.65    8.09
  16  -4 -13    2.54    7.09
 -12  16 -13    2.54    6.93
  16  -4 -10   59.19    7.47
 -12  16 -10   60.19    7.36
  16  -4  -7   85.19    7.36
  16  -4  -7   89.04    7.47
  -4  16   7   85.07    7.43
 -12  16  -7   94.81    7.82
  16  -4  -4  210.96   14.44
  16 -12   4  200.95   14.56
 -12  16  -4  207.27   16.79
  16  -4  -4  206.15   14.52
  -4  16   4  240.50   15.17
 -12  16  -4  217.63   14.60
  -4 -12  -1  372.09   27.92
 -12  16  -1  348.99   27.38
 -12  -4   1  358.81   28.00
  -4  16   1  339.36   28.04
  16 -12   1  380.80   25.49
  16  -4  -1  399.24   25.46
 -12  16  -1  404.29   25.46
  16 -12  -2  324.88   21.03
  16  -4   2  318.37   21.07
 -12  16   2  307.55   23.95
  -4  16  -2  274.12   23.11
  -4 -12   2  322.14   23.53
 -12  16   2  339.13   21.49
 -12  16   2  307.82   21.10
  -4 -12   5  271.58   20.99
  16 -12  -5  277.82   18.56
  -4  16  -5  278.59   18.52
  16 -12  -8   64.58    5.89
 -12  16   8   78.79    8.90
  -4  16  -8   65.85    6.35
  16 -12 -11  152.93   11.98
 -12  16  11  195.06   14.87
  -4  16 -11  170.91   12.52
  16 -12 -14    8.36    5.58
  -4  16 -14   13.98    7.63
  16 -12 -17    8.63    5.28
  -4  16 -17   19.53    7.97
  -4  16 -20   -3.93    6.12
  16  -4  23    1.96    2.73
  -4  16 -23    1.77    2.31
  16  -3 -20   -0.54    5.78
 -13  16 -20    8.55    4.74
  16  -3 -17   40.09    8.86
 -13  16 -17   60.54    7.86
  16  -3 -14    8.51    7.74
 -13  16 -14   10.36    7.28
  16  -3 -11  134.83   11.36
 -13  16 -11  132.48   10.94
  16  -3  -8  277.86   19.60
 -13  16  -8  292.30   19.53
  16  -3  -5  193.36   13.09
  16  -3  -5  173.18   13.13
 -13  16  -5  163.33   15.17
 -13  16  -5  187.36   13.13
 -13  16  -5  199.76   13.36
  -3  16   5  200.68   13.09
  16 -13   2    6.97    3.43
  16  -3  -2    3.85    3.47
 -13  16  -2    1.31    7.66
  16  -3  -2    7.24    3.77
 -13  16  -2    3.77    4.31
 -13  16  -2    8.63    3.70
  16  -3   1  677.02   44.40
  16 -13  -1  713.19   44.44
  -3 -13   1  656.27   46.29
  -3  16  -1  616.95   46.29
 -13  16   1  549.32   46.06
 -13  16   1  718.15   44.60
 -13  16   1  681.61   44.40
  16  -3   4  400.36   26.23
  16 -13  -4  397.01   26.11
  -3 -13   4  392.31   28.34
 -13  16   4  423.16   26.61
 -13  16   4  367.13   26.15
  -3  16  -4  405.14   26.03
  16 -13  -7   53.92    5.39
 -13  16   7   52.34    7.86
 -13  16   7   54.92    6.47
  -3  16  -7   55.53    5.78
  16 -13 -10   50.41    5.85
  -3  16 -10   57.88    6.62
  16 -13 -13    3.97    5.20
  -3  16 -13    3.97    4.47
  -3  16 -13    0.58    7.20
  16 -13 -16   31.35    6.20
  -3  16 -16   66.97    8.66
  16 -13 -19   -0.15    3.89
  -3  16 -19    4.31    6.78
  -3  16 -22    6.66    3.47
  16  -2 -21    5.08    4.62
 -14  16 -21    9.28    3.23
  16  -2 -21    3.62    2.54
  16  -2 -18   18.10    8.36
 -14  16 -18   27.65    5.97
  16  -2 -15   43.29    9.09
 -14  16 -15   37.59    7.59
  16  -2 -12    4.24    7.32
 -14  16 -12    6.62    6.70
  16  -2  -9   30.35    6.85
 -14  16  -9   39.13    6.20
  16  -2  -6  167.18   13.02
  -2  16   6  185.66   12.98
 -14  16  -6  208.15   13.36
 -14  16  -6  196.87   13.44
  16  -2  -3   62.58    5.58
  16 -14   3   65.58    5.58
 -14  16  -3   60.81    9.51
 -14  16  -3   64.20    6.05
 -14  16  -3   61.35    6.08
  16 -14   0 1023.01   71.01
  16  -2   0 1159.80   71.09
 -14  16   0 1154.21   71.28
 -14  16   0 1081.35   71.05
  16  -2   3  150.92   10.63
  16 -14  -3  148.61   10.36
  -2 -14   3  125.05   13.59
 -14  16   3  165.67   11.13
  -2  16  -3  140.53   10.40
 -14  16   3  154.20   10.67
  16 -14  -6   26.50    4.43
 -14  16   6   29.31    6.55
  -2  16  -6   36.86    4.31
 -14  16   6   33.89    5.43
 -14  16   9   52.26    9.20
  -2  16  -9   54.84    6.20
  16 -14 -12   26.07    5.04
 -14  16  12   43.59    9.97
  -2  16 -12   34.93    7.12
  16 -14 -15   26.57    5.43
  -2  16 -15   55.19    8.51
  -2  16 -18   10.44    7.51
  -2  16 -21    5.04    4.43
  16 -15  22   -1.50    3.43
  16  -1 -22    3.58    3.12
  16  -1 -19    0.15    3.81
  16  -1 -19    1.23    6.39
 -15  16 -19   -1.39    4.70
  16  -1 -16   58.04   10.47
 -15  16 -16   70.28    8.32
 -15  16 -13  134.79   11.36
 -15  16 -10  261.57   18.41
 -15  16  -7  107.87    9.09
 -15  16  -7  109.76    9.17
  16  -1  -4  158.82   11.82
  16 -15   4  175.23   12.02
 -15  16  -4  155.05   14.63
 -15  16  -4  172.76   12.36
 -15  16  -4  179.35   12.13
  16  -1  -1  434.40   27.00
  16 -15   1  391.08   26.96
  16  -1  -1  392.00   27.11
 -15  16  -1  427.20   27.27
 -15  16  -1  411.64   27.03
  16  -1   2  514.08   33.08
  16 -15  -2  494.67   33.00
 -15  16   2  526.79   33.43
 -15  16   2  494.40   33.08
  16 -15  -5   77.72    6.89
  16  -1   5   98.01    7.43
  -1 -15   5   68.82   10.44
 -15  16   5  102.94    8.82
  -1  16  -5   92.73    7.01
 -15  16   5   91.08    7.59
 -15  16   8  132.36   11.59
 -15  16   8  133.21   10.74
  -1  16  -8  134.40   10.13
 -15  16  11   33.39   10.05
  -1  16 -11   29.15    6.70
  -1  16 -14   -4.54    4.78
  -1  16 -14   15.44    7.01
  -1  16 -17   20.83    7.97
  -1  16 -20    5.55    5.24
 -16  16 -20    2.23    3.31
  16   0 -20    1.23    2.58
 -16  16 -17   19.79    5.62
 -16  16 -14   68.70    8.70
 -16  16 -11  203.42   15.52
 -16  16 -11  233.68   16.14
 -16  16  -8   12.94    5.82
 -16  16  -8    6.78    6.28
  16   0  -5   27.54    4.54
  16 -16   5   34.54    4.66
  16   0  -5   36.43    5.51
 -16  16  -5   35.08    5.66
 -16  16  -5   36.24    5.31
  16   0  -2  174.69   12.36
  16 -16   2  174.92   12.40
  16   0  -2  193.59   12.79
 -16  16  -2  190.78   13.09
 -16  16  -2  172.61   12.59
  16 -16  -1 1347.46   88.38
  16   0   1 1380.50   88.46
 -16  16   1 1388.17   88.61
 -16  16   1 1363.64   88.46
  16 -16  -4    6.55    3.39
  16   0   4   13.52    3.85
 -16  16   4    7.86    4.54
   0  16  -4   13.13    3.27
 -16  16   7   -4.08    7.55
 -16  16   7    9.90    5.78
   0  16  -7    2.81    4.31
 -16  16  10   21.26    9.01
   0  16 -10   30.46    6.12
 -16  16  13   13.25    9.78
   0  16 -13   24.80    6.89
   0  16 -16   22.64    7.89
   0  16 -19   -0.62    5.66
   0  16 -22    0.58    2.27
  16 -17  21   -1.89    3.66
 -17  16 -18   17.21    4.54
  16   1 -18    7.32    3.58
 -17  16 -15   60.19    7.78
  16   1 -12   77.06    9.51
 -17  16 -12   61.08    7.66
 -17  16 -12   67.05    8.55
  16   1  -9   43.94    8.20
 -17  16  -9   50.10    7.16
 -17  16  -9   60.00    7.59
  16 -17   6   73.36    6.82
  16   1  -6   76.98    7.63
 -17  16  -6   71.90    7.89
 -17  16  -6   86.26    7.55
  16 -17   3   33.12    4.31
  16   1  -3   34.47    4.20
  16   1  -3   28.38    5.04
 -17  16  -3   41.13    6.24
 -17   1   3   29.61    4.27
 -17  16  -3   35.97    5.08
  16   1   0 1201.31   79.53
  16 -17   0 1230.58   79.53
  16   1   0 1230.50   79.64
 -17  16   0 1239.44   79.79
 -17  16   0 1249.80   79.56
  16 -17  -3    2.85    3.12
  16   1   3    7.39    3.70
 -17  16   3   10.78    4.93
   1  16  -3    8.43    3.12
  16   1   6   36.16    5.20
 -17  16   6   41.40    7.32
 -17  16   6   45.48    6.12
   1  16  -6   32.08    4.47
 -17  16   9   78.02   10.21
   1  16  -9   79.45    7.59
 -17  16  12   28.61    9.74
   1  16 -12   13.40    6.85
   1  16 -15   16.41    5.31
   1  16 -15   23.26    7.20
   1  16 -18   12.59    6.12
  16   1  21    2.62    3.08
   1  16 -21   -0.23    3.12
  16   2 -19    0.15    6.12
 -18  16 -19    3.97    3.04
  16   2 -16   60.08    9.94
 -18  16 -16   54.03    6.74
  16   2 -13   40.13    9.32
 -18  16 -13   43.40    7.16
  16   2 -10  136.87   11.86
 -18  16 -10  109.64   10.86
 -18  16 -10  142.11   10.98
  16 -18   7  101.21    9.24
  16   2  -7  131.67   10.36
 -18  16  -7  116.11   10.24
 -18  16  -7  140.76    9.90
  16   2  -4    2.66    3.62
  16 -18   4    0.39    3.77
  16   2  -4    0.08    4.66
 -18  16  -4   -0.39    6.24
 -18  16  -4    4.74    4.39
  16   2  -1  470.72   31.50
  16 -18   1  486.51   31.50
  16   2  -1  492.06   31.73
 -18   2   1  472.49   31.66
 -18  16  -1  477.15   31.89
 -18  16  -1  486.28   31.66
  16 -18  -2  435.75   30.54
  16   2   2  479.00   30.69
 -18  16   2  502.41   30.85
  16 -18  -5  173.45   12.05
  16   2   5  161.01   12.32
 -18  16   5  193.71   13.17
 -18  16   5  189.32   13.59
   2  16  -5  168.33   11.90
 -18  16   8   58.15    9.09
   2  16  -8   56.92    6.08
 -18  16  11   18.83    9.36
   2  16 -11   24.07    6.24
   2  16 -14   -0.54    5.08
   2  16 -14    3.47    6.35
   2  16 -17   34.97    6.78
  16   2  20    2.85    3.70
 -18   2 -20    0.85    2.97
   2  16 -20    5.28    3.54
  16   3 -20    5.58    4.35
  16   3 -17   33.24    7.82
 -19  16 -17   25.26    4.51
  16   3 -14    0.23    8.93
 -19  16 -14    4.62    5.82
  16   3 -11    3.39    8.24
 -19  16 -11   -0.77    6.78
 -19  16 -11    0.73    6.12
  16 -19   8   98.16    9.28
  16   3  -8  120.54   10.71
 -19  16  -8  110.30   10.28
 -19  16  -8  135.29    9.74
  16 -19   5   51.64    5.66
  16   3  -5   54.61    6.85
 -19  16  -5   50.37    7.59
 -19  16  -5   54.65    6.05
  16   3  -2  217.36   15.56
  16 -19   2  236.77   15.56
  16   3  -2  230.99   16.02
 -19  16  -2  230.53   16.37
 -19   3   2  226.68   15.91
 -19  16  -2  235.76   15.83
  16   3   1  646.02   40.17
  16 -19  -1  584.14   39.78
  16   3   1  594.30   39.82
 -19  16   1  645.83   40.05
  16   3   4  274.66   19.33
  16 -19  -4  276.74   19.14
 -19  16   4  304.78   20.49
 -19  16   4  316.06   19.95
  16   3   7   12.94    4.62
 -19  16   7   17.41    8.09
   3  16  -7   13.98    4.24
 -19  16  10  160.32   14.06
   3  16 -10  153.39   11.55
 -19  16  13   20.03    8.82
   3  16 -13   17.06    6.24
   3  16 -16   17.91    5.20
   3  16 -16   32.93    6.28
  16   3  19    2.35    4.01
   3  16 -19    1.19    3.93
  16   4 -21    5.47    2.54
  16   4 -18   -1.12    6.12
  16 -20  18    4.27    4.35
  16   4 -15   71.63    9.55
 -20  16 -15   62.39    6.47
  16   4 -12   50.14    9.44
 -20  16 -12   42.63    7.66
 -20  16 -12   47.60    6.66
  16 -20   9   46.10    6.43
  16   4  -9   62.12    8.90
 -20  16  -9   72.13    8.28
 -20  16  -9   71.09    7.01
  16 -20   6  138.99   11.44
  16   4  -6  170.99   12.36
 -20  16  -6  171.61   12.67
 -20  16  -6  163.52   11.78
  16   4  -3   43.25    6.20
 -20  16  -3   40.44    7.74
 -20   4   3   43.21    5.70
 -20  16  -3   43.98    5.28
  16   4   0  247.97   17.72
 -20   4   0  273.31   17.98
 -20  16   0  247.39   17.52
 -20  16   3   52.64    8.47
 -20  16   3   51.45    6.62
  16   4   6  181.93   14.17
 -20  16   6  233.76   15.60
 -20  16   6  227.99   16.21
  16   4   9   49.68    6.62
 -20  16   9   69.63    9.74
   4  16  -9   62.93    6.12
  16   4  12   37.39    6.47
   4  16 -12   43.71    6.39
  16   4  15   10.36    6.01
   4  16 -15   10.82    5.35
   4  16 -18   -0.08    4.04
  16   5 -19    0.65    4.27
  16   5 -16   34.51    8.05
  16 -21  13    0.19    5.31
  16   5 -13   20.95    8.24
 -21  16 -13   12.25    6.39
 -21  16 -13    7.63    4.89
  16 -21  10   42.40    5.89
  16   5 -10   56.30    9.20
 -21  16 -10   50.10    8.24
 -21  16 -10   58.96    6.32
  16   5  -7   44.48    7.43
 -21  16  -7   37.20    8.13
 -21  16  -7   37.89    5.35
  16   5  -4   82.22    8.01
 -21   5   4   69.24    7.51
 -21  16  -4   81.76    8.97
 -21  16  -4   79.95    7.12
  16   5  -1  215.01   15.60
 -21  16  -1  202.95   16.44
 -21   5   1  230.14   15.87
 -21  16  -1  221.28   15.13
  16   5   2   74.63    7.70
 -21  16   2   66.78    8.63
 -21  16   2   71.44    7.39
 -21  16   5  623.57   39.59
 -21  16   5  562.92   39.82
 -21  16   8  408.64   28.38
  16   5  11   86.34    8.51
   5  16 -11   95.66    8.16
  16   5  14   35.78    5.93
   5  16 -14   41.21    5.62
   5  16 -17   13.52    4.01
  16   6 -20    3.66    2.58
  16   6 -17    4.66    5.70
 -22  16 -14   11.25    5.74
  16   6 -14   16.10    8.16
  16   6 -11  202.99   15.60
 -22  16 -11  190.24   15.17
  16   6  -8   27.80    7.93
 -22  16  -8   23.72    7.78
 -22  16  -8   30.19    5.04
  16   6  -5   71.67    8.13
 -22   6   5   69.36    7.47
 -22  16  -5   81.30    9.51
 -22  16  -5   70.51    6.70
  16   6  -2  251.05   17.79
 -22  16  -2  269.96   18.72
 -22   6   2  260.03   17.95
 -22  16  -2  244.01   17.29
  16   6   1  114.22   10.01
 -22  16   1  115.03   10.98
 -22   6  -1  134.21   11.13
 -22  16   1  115.53    9.86
 -22  16   4   20.60    8.55
 -22  16   4   14.52    6.74
 -22  16   7   85.11   10.55
 -22  16  10   92.12   10.59
 -22  16  13   19.53    7.01
 -22   6 -19   -4.01    2.54
  16   7 -18    0.39    4.01
 -23  16 -15   14.75    4.85
  16   7 -15    5.58    6.93
  16   7 -12  155.20   12.21
 -23  16 -12  124.01   11.75
  16   7  -9   31.66    8.24
 -23  16  -9   26.38    8.24
  16   7  -6   53.88    8.05
 -23   7   6   49.72    6.74
 -23  16  -6   65.28    8.97
  16   7  -3  100.55    9.44
 -23  16  -3  111.49   10.82
 -23   7   3  100.09    9.63
  16   7   0   48.91    7.20
 -23   7   0   60.04    8.74
 -23  16   0   42.09    5.93
 -23  16   3  136.10   13.13
 -23   7  -3  166.14   14.02
 -23  16   3  158.16   11.94
  16   7   3  146.50   12.48
 -23  16   6  237.19   18.37
 -23  16   9   96.70   10.78
 -23  16  12    7.05    7.24
 -23   7 -15   15.52    6.78
 -23   7 -18    5.43    3.31
  16   8 -16   10.36    5.39
 -24  16 -13    8.28    6.59
  16   8 -13   10.55    7.20
  16   8 -10  169.18   13.32
 -24  16 -10  150.96   13.36
 -24  16  -7   21.57    8.59
 -24   8   7   19.99    6.01
  16   8  -7   22.34    7.74
 -24   8   4   43.71    7.63
 -24  16  -4   57.73    9.36
  16   8  -4   56.46    7.93
 -24   8   1   24.96    8.40
  16   8  -1   33.62    6.70
 -24   8  -2   69.13   10.82
 -24  16   2   59.11   10.32
 -24  16   2   91.12    7.47
  16   8   2   62.62    8.24
 -24  16   5  228.68   19.06
  16   8   5  237.65   18.22
 -24  16   8   75.67   10.28
 -24  16  11   23.57    7.47
 -24   8 -14   10.36    7.36
 -24   8 -17   10.71    4.08
  16   9 -17    2.39    3.58
 -25  16 -14   -7.55    5.24
  16   9 -14    1.19    5.66
  16   9 -11  123.89   10.98
 -25  16 -11  110.99   11.05
 -25  16  -8   14.94    8.55
  16   9  -8   18.02    8.05
 -25   9   5   59.69    8.40
 -25  16  -5   79.02   10.63
  16   9  -5   84.96    8.90
 -25   9   2   56.73    9.09
  16   9  -2   55.53    7.55
 -25  16   1   32.77    9.59
 -25   9  -1   34.85    9.86
  16   9   1   27.50    7.05
 -25  16   4    9.55    9.32
 -25   9  -4    0.69   10.86
  16   9   4   15.83    7.01
 -25  16   7   73.25   10.21
  16   9   7   62.20    8.51
 -25  16  10   18.29    7.86
 -25   9 -10   49.45   10.67
 -25   9 -13   -1.08    7.66
 -25   9 -16    0.46    4.47
  16  10 -15    1.39    4.54
 -26  16 -15   10.90    3.77
 -26  16 -12   72.75    8.09
  16  10 -12   51.03    7.82
 -26  16  -9   40.82    8.78
  16  10  -9   30.00    7.55
 -26  10   6   18.99    7.05
 -26  16  -6   -4.93    9.63
  16  10  -6   14.67    7.55
 -26  10   3   25.92    8.28
  16  10  -3   15.64    7.20
 -26  16   0   30.08   10.28
 -26  10   0   37.55   10.13
  16  10   0   29.08    7.05
 -26  16   3   53.57   10.40
 -26  10  -3   54.15   11.36
  16  10   3   46.75    7.28
 -26  16   6  348.60   26.61
  16  10   6  358.69   25.76
 -26  16   9   42.09    8.28
 -26  10  -9   60.31   11.51
  16  10   9   45.83    6.93
 -26  10 -12   -0.08    8.28
 -26  16  12   -3.58    5.24
  16  10  12    4.04    4.81
 -26  10 -15    7.39    5.08
  16  11 -16    7.20    2.54
 -27  16 -13    9.59    5.78
  16  11 -13    9.67    4.85
 -27  16 -10   88.50    9.90
  16  11 -10   73.13    8.59
 -27  16  -7   91.39   11.28
 -27  11   7   70.71    8.24
  16  11  -7   73.44    8.82
  16  11  -4   95.74    9.63
 -27  11   4   91.46   10.32
 -27  16  -1   22.49   10.82
 -27  11   1   16.41    9.97
  16  11  -1   16.87    7.16
 -27  16   2   36.55   10.51
 -27  11  -2   58.65   11.67
  16  11   2   39.01    6.93
 -27  16   5  240.15   18.87
  16  11   5  223.40   17.37
 -27  16   8   46.41    8.51
  16  11   8   38.59    6.35
 -27  11 -11   13.02    8.82
 -27  16  11   16.41    5.58
 -27  11 -14    2.46    5.39
  16  12 -14   -0.27    3.20
 -28  16 -14    7.89    4.01
  16  12 -11   42.17    6.32
 -28  16 -11   48.25    7.70
  16  12  -8   17.52    6.51
 -28  16  -8   11.44    9.44
 -28  12   8   12.63    5.51
  16  12  -5    4.81    6.97
 -28  12   5   -2.04    7.55
  16  12  -2   30.04    6.82
 -28  12   2   29.88    9.86
 -28  16  -2   34.12   11.63
  16  12   1   96.01    9.47
 -28  16   1  100.98   12.98
 -28  12  -1  124.01   13.09
 -28  12  -4  200.30   16.37
 -28  16   4  134.13   14.90
 -28  16   7   55.57    8.90
 -28  16  10    3.85    5.51
 -28  12 -10   19.02    9.01
 -28  12 -13    0.62    5.93
 -29  16 -12   14.60    5.62
  16  13  -9    4.97    5.01
 -29  16  -9   12.82    8.13
  16  13  -6    7.12    5.89
 -29  16  -6    8.09   10.28
 -29  13   6   10.74    6.74
 -29  13   3   33.54    9.47
 -29  16   0  236.88   19.56
 -29  13   0  244.28   19.37
 -29  13  -3   28.34   12.02
 -29  16   3   10.78   10.24
 -29  16   6   39.44    8.63
 -29  16   9    3.93    5.85
 -29  13  -9   -2.23    9.09
 -29  13 -12    9.90    6.12
 -29  13 -15    2.73    2.70
 -30  16 -13    0.69    3.77
 -30  16 -10   25.30    7.12
 -30  16  -7   51.34    9.94
 -30  14   7   33.31    6.28
 -30  14   4   29.04    8.55
 -30  14   1   99.24   12.40
 -30  16  -1  107.68   13.56
 -30  16   2    3.70    9.78
 -30  14  -2    8.59   11.09
 -30  14  -5   69.40   12.25
 -30  16   5   38.13    8.82
 -30  14  -8   -1.00    9.24
 -30  16   8    0.89    5.70
 -30  14 -11   26.73    6.51
 -30  14 -14    2.62    2.97
 -31  16 -11   32.93    5.62
 -31  16  -8    6.28    8.01
 -31  15   5    1.73    6.97
 -31  16  -2   22.45   11.21
 -31  15   2   13.25    9.47
 -31  16   1   96.28   11.98
 -31  15  -1   88.19   12.52
 -31  15  -4   16.41   10.78
 -31  16   4    9.74    8.43
 -31  16   7   30.46    6.24
 -31  15 -10   16.10    6.35
 -31  15 -13    3.58    3.16
 -32  16   0   99.24   11.86
 -32  16  -3    7.70   10.13
 -32  16   3   -1.16    8.09
 -32  16   6   25.88    5.85
 -32  16  -9   14.44    6.32
 -32  16 -12    9.86    3.31
  -9  17 -23   -0.31    2.04
  17  -8 -20    3.47    4.39
  -9  17 -20   -0.15    5.66
  17  -8 -17    2.35    6.62
  -9  17 -17    9.24    7.66
  17  -8 -14    1.77    6.39
  17  -8 -11  180.39   13.36
  17  -8  -8   37.47    5.12
  -8  17   8   41.13    6.16
  17  -8  -5  164.21   11.55
  -8  17   5  188.28   12.98
  -9  17  -5  164.40   11.82
  -8  17   5  175.07   11.94
  17  -8  -2   14.60    3.43
  -9  17  -2   14.25    7.63
  -8  17   2   11.82    4.20
  -9  17  -2   15.79    3.70
  -8  17   2   18.14    4.01
  -8  17  -1  329.35   26.65
  -9  17   1  325.73   26.96
  -8  17  -1  374.13   24.34
  -9  17   1  379.95   24.38
  17  -9  -4  287.91   19.26
  -8  17  -4  270.81   21.37
  -8  -9   4  253.21   21.64
  -9  17   4  341.28   20.10
  -8  17  -4  274.97   19.41
  -9  17   4  298.61   19.56
  17  -9  -7  221.71   15.13
  -9  17   7  234.96   16.25
  -9  17   7  222.32   15.56
  -8  17  -7  214.58   15.37
  17  -9 -10  138.14   11.09
  -9  17  10  158.05   13.79
  -8  17 -10  148.31   11.48
  17  -9 -13   -1.27    5.58
  17  -9 -16   22.64    6.85
  17  -9 -19   -3.27    5.43
  -8  17 -22    0.19    3.47
  17  -7 -21   -0.46    3.89
 -10  17 -21    5.97    4.43
  17  -7 -18   15.40    6.62
 -10  17 -18    5.70    7.09
  17  -7 -15   21.57    7.28
 -10  17 -15   19.14    7.47
  17  -7 -12   57.38    7.09
 -10  17 -12   43.67    7.63
  17  -7  -9   26.15    5.51
  17  -7  -6   72.86    6.70
  17  -7  -6   75.87    6.43
  -7  17   6   81.10    8.78
  -7  17   6   60.54    6.89
  17  -7  -3  113.18    8.40
  17 -10   3  106.44    8.40
  17  -7  -3  110.33    8.28
 -10  17  -3   92.31   11.25
  -7  17   3  118.69    9.32
  -7  17   3  113.03    8.51
 -10  17   0 1165.15   88.50
  -7  17   0 1111.12   88.50
  17  -7   0 1417.01   86.96
  17 -10   0 1390.86   86.92
 -10  17   0 1324.59   86.88
  -7  17   0 1345.31   86.84
  17 -10  -3   54.49    5.16
  17  -7   3   53.72    5.16
  -7  17  -3   41.36    8.55
  -7 -10   3   40.94    8.66
 -10  17   3   58.50    6.28
 -10  17   3   53.65    5.51
  -7  17  -3   49.56    5.01
  17 -10  -6  121.00    8.90
  17 -10  -6  124.35    8.43
  -7 -10   6   91.23   11.94
 -10  17   6  111.87    9.70
 -10  17   6  104.94    9.05
  -7  17  -6  107.64    8.70
  17 -10  -9   53.30    6.01
 -10  17   9   53.34    9.17
  -7  17  -9   64.62    6.70
 -10  17   9   58.58    7.51
  17 -10 -12   29.15    6.05
  -7  17 -12   34.66    7.05
  17 -10 -15    0.77    6.01
  -7  17 -15   -5.39    7.55
  17 -10 -18    4.66    5.70
 -11  17 -22    1.35    3.00
  17  -6 -22    1.42    2.00
  17  -6 -19    1.00    6.05
 -11  17 -19    2.31    6.01
  17  -6 -16   26.73    8.01
 -11  17 -16   38.20    7.97
  17  -6 -13   19.29    6.93
 -11  17 -13   20.10    7.28
  17  -6 -10  113.99    9.94
 -11  17 -10  119.50    9.82
  17  -6  -7   16.33    4.78
  17  -6  -7   22.22    4.62
  -6  17   7   25.19    8.20
 -11  17  -7   19.37    4.93
  -6  17   7   14.48    5.31
  17  -6  -4  153.70   10.47
  17 -11   4  150.12   10.78
 -11  17  -4  123.97   12.90
  17  -6  -4  142.14   10.55
  -6  17   4  156.28   11.82
  -6  17   4  143.53   10.71
 -11  17  -1  547.78   45.48
  17  -6  -1  665.09   43.71
  17  -6  -1  687.08   43.75
  17 -11   1  652.99   43.71
  -6  17   1  706.41   43.67
  17  -6   2    8.01    3.89
  17 -11  -2   13.94    3.93
  -6  17  -2   13.94    8.05
  -6 -11   2   18.18    8.32
 -11  17   2   14.48    4.74
  -6  17  -2   16.87    3.66
  17 -11  -5  282.48   18.75
  17 -11  -5  287.45   18.52
  -6 -11   5  258.95   21.41
  -6  17  -5  207.96   20.10
 -11  17   5  298.23   19.22
  -6  17  -5  271.35   18.75
 -11  17   5  291.76   18.91
  17 -11  -8   42.25    5.12
  -6  17  -8   46.02    5.66
 -11  17   8   51.49    6.62
  17 -11 -11  119.31    9.63
 -11  17  11  123.00   12.94
  -6  17 -11  121.77   10.21
  17 -11 -14    4.51    5.97
  -6  17 -14   12.17    7.74
  17 -11 -17   12.25    5.66
  -6  17 -17   11.05    8.09
  17 -11 -20   -0.04    3.66
  -6  17 -20   -3.66    5.78
  17  -6  23   -3.70    2.66
  17  -5 -20   -4.97    5.28
 -12  17 -20    3.89    4.81
  17  -5 -17   23.26    7.36
 -12  17 -17   23.76    7.05
  17  -5 -14   10.55    7.28
 -12  17 -14   14.10    7.16
  17  -5 -11  179.38   13.63
 -12  17 -11  167.18   13.36
  17  -5  -8   65.62    7.09
  -5  17   8   76.17    7.28
 -12  17  -8   78.29    7.51
  17  -5  -5  172.53   12.25
 -12  17  -5  148.58   14.44
  17  -5  -5  169.33   12.32
  -5  17   5  190.09   13.75
 -12  17  -5  168.83   12.40
  -5  17   5  183.74   12.32
  17  -5  -2  142.80   10.01
  17 -12   2  131.13   10.01
 -12  17  -2  113.34   12.86
  17  -5  -2  140.03    9.90
 -12  17  -2  135.40   10.01
  -5  17   2  152.16   10.71
 -12  17  -2  133.90   10.05
  -5  17   2  140.30    9.94
  17  -5   1  280.01   18.95
  17 -12  -1  292.68   18.99
 -12  17   1  303.58   19.33
  -5  17  -1  279.78   18.87
  17 -12  -4  210.50   13.67
  17  -5   4  206.42   13.86
  -5 -12   4  194.25   16.44
  -5  17  -4  151.31   15.56
 -12  17   4  207.54   14.29
  -5  17  -4  187.90   13.52
  17 -12  -7   66.78    6.16
  17 -12  -7   79.41    6.85
  -5  17  -7   75.48    6.62
  17 -12 -10   85.03    7.39
 -12  17  10   77.25   10.51
  -5  17 -10   86.23    8.05
  17 -12 -13   47.02    6.20
  -5  17 -13   38.28    8.05
  17 -12 -16   17.21    5.85
  -5  17 -16   24.45    8.40
  17 -12 -19    0.65    4.12
  -5  17 -19   -0.77    6.51
  17  -5  22   -3.35    3.97
  -5  17 -22    1.89    3.16
  17  -4 -21    7.82    4.27
 -13  17 -21   -0.89    3.54
  17  -4 -21    4.35    2.50
  17  -4 -18   16.75    7.16
 -13  17 -18   17.41    6.01
  17  -4 -15   40.90    9.01
 -13  17 -15   38.90    8.01
  17  -4 -12    6.47    7.24
 -13  17 -12    3.04    6.97
  17  -4  -9   74.13    7.97
 -13  17  -9   67.05    7.66
  17  -4  -6  148.15   11.17
  17  -4  -6  146.42   11.28
 -13  17  -6  151.46   11.05
  -4  17   6  163.94   11.21
 -13  17  -6  158.20   11.51
  17 -13   3  164.63   11.82
  17  -4  -3  173.68   11.78
  17  -4  -3  173.61   11.94
 -13  17  -3  132.55   14.29
 -13  17  -3  162.71   11.94
  -4  17   3  168.56   12.71
  -4  17   3  168.64   11.75
 -13  17  -3  172.68   11.94
  17  -4   0   94.89    7.55
  17 -13   0  101.36    7.66
 -13  17   0   92.31    7.97
 -13  17   0   89.42    7.66
  -4  17   0  106.83    7.47
  17  -4   3   18.56    4.24
  17 -13  -3   16.52    3.97
  -4  17  -3   11.55    7.39
 -13  17   3   19.91    5.93
 -13  17   3   12.36    4.24
  -4  17  -3   13.86    3.66
  17 -13  -6  186.86   13.71
  17 -13  -6  205.15   13.40
  -4  17  -6  195.71   13.71
  17 -13  -9    5.58    4.16
 -13  17   9   12.17    8.70
  -4  17  -9    4.66    5.51
  17 -13 -12  105.83    9.32
 -13  17  12  116.57   13.29
  -4  17 -12  118.61   10.44
  17 -13 -15   38.59    6.32
  -4  17 -15   49.06    8.63
  17 -13 -18    9.05    4.47
  -4  17 -18   15.06    7.78
  -4  17 -21    2.20    4.31
  17 -14  22   -0.19    3.74
  17  -3 -22    0.08    2.85
 -14  17 -22   -3.54    1.93
  17  -3 -19    0.85    6.47
 -14  17 -19   -2.23    4.93
  17  -3 -16   55.53    9.70
 -14  17 -16   53.61    7.93
  17  -3 -13   14.79    8.20
 -14  17 -13    5.04    6.89
  17  -3 -10  234.38   17.72
 -14  17 -10  250.21   17.60
  17  -3  -7  312.90   21.72
  17  -3  -7  313.75   21.87
  -3  17   7  326.57   21.72
 -14  17  -7  321.99   21.68
 -14  17  -7  338.43   22.07
  17 -14   4   28.84    4.89
  17  -3  -4   29.81    4.27
 -14  17  -4   17.18    8.28
  17  -3  -4   27.65    4.85
 -14  17  -4   29.96    5.04
  -3  17   4   31.81    4.66
 -14  17  -4   27.19    5.01
  17  -3  -1   37.78    4.35
  17 -14   1   38.78    4.43
  17  -3  -1   37.09    4.85
 -14  17  -1   38.47    5.35
 -14  17  -1   31.39    4.97
  -3  17   1   41.51    4.35
  17 -14  -2  460.86   30.00
  17  -3   2  447.15   30.04
 -14  17   2  472.92   30.31
  -3  17  -2  454.85   29.92
 -14  17   2  453.27   30.04
  17  -3   5  537.34   33.85
  17 -14  -5  499.06   33.66
  -3  17  -5  509.35   33.66
 -14  17   5  515.70   33.89
 -14  17   8    3.54    8.24
  -3  17  -8   18.22    5.12
 -14  17   8   14.87    6.12
  17 -14 -11  112.88    9.67
  -3  17 -11  131.44   10.67
  17 -14 -14    5.28    5.04
  -3  17 -14   10.63    7.55
  17 -14 -17   25.22    5.12
  -3  17 -17   55.07    8.51
  -3  17 -20    2.85    5.31
  17  -2 -20    3.08    5.24
 -15  17 -20    7.09    3.66
  17  -2 -20    0.85    2.62
  17  -2 -17   54.92    8.86
 -15  17 -17   48.64    7.12
  17  -2 -14    8.20    8.74
 -15  17 -14    9.05    7.12
  17  -2 -11   42.67    8.13
 -15  17 -11   45.94    8.01
 -15  17  -8  125.24    9.90
 -15  17  -8  122.58   10.71
  17  -2  -5   15.75    4.27
  17 -15   5   11.05    4.58
 -15  17  -5   19.56    5.20
 -15  17  -5   15.13    5.20
  -2  17   5   13.25    4.31
  17  -2  -2   42.29    4.85
  17 -15   2   44.36    4.85
 -15  17  -2   41.94    6.28
 -15  17  -2   44.67    5.35
  -2  17   2   41.51    4.70
  17 -15  -1 1024.16   65.62
  17  -2   1  987.54   65.66
 -15  17   1 1031.94   65.82
  -2  17  -1 1025.28   65.55
 -15  17   1  994.47   65.62
  17  -2   4  278.36   17.87
  17 -15  -4  256.06   17.64
 -15  17   4  257.72   17.91
  -2  17  -4  259.49   17.64
 -15  17   7   44.21    7.70
 -15  17   7   33.16    6.43
  -2  17  -7   44.02    5.39
 -15  17  10   56.80   10.13
  -2  17 -10   59.27    7.51
 -15  17  13   10.28   10.55
  -2  17 -13    7.43    7.51
  -2  17 -16   67.20    9.13
  -2  17 -19   -1.89    6.05
  17  -2  22   -3.54    2.70
  -2  17 -22   -1.35    2.39
  17  -1 -21   -4.43    4.01
  17 -16  21   -4.58    4.31
 -16  17 -21   -1.35    2.12
  17  -1 -18   16.29    7.43
  17  -1 -18    6.78    3.62
 -16  17 -18    4.74    5.12
 -16  17 -15   33.58    7.43
 -16  17 -12  143.53   12.17
 -16  17  -9   82.99    8.20
 -16  17  -9   87.65    8.66
  17 -16   6   15.91    4.97
  17  -1  -6   14.10    4.70
 -16  17  -6   18.99    5.89
 -16  17  -6   14.79    5.62
  -1  17   6   13.83    3.93
  17  -1  -3   46.44    5.20
  17 -16   3   53.99    5.28
 -16  17  -3   41.82    6.66
 -16  17  -3   54.03    6.01
  -1  17   3   42.75    4.74
  17  -1   0 1183.44   77.83
  17 -16   0 1197.08   77.83
 -16  17   0 1275.41   78.10
 -16  17   0 1194.19   77.87
  -1  17   0 1190.68   77.72
  17 -16  -3   14.21    3.70
  17  -1   3   19.22    4.27
 -16  17   3   16.17    6.82
 -16  17   3   15.60    4.85
  -1  17  -3   14.06    3.70
  17  -1   6  135.02   10.17
  17 -16  -6  125.62    9.82
 -16  17   6  140.37   10.74
 -16  17   6  143.30   11.71
  -1  17  -6  128.82    9.82
 -16  17   9   75.79   10.47
  -1  17  -9   85.03    7.86
 -16  17  12   34.43   10.71
  -1  17 -12   28.58    7.16
  -1  17 -15   13.59    7.55
  -1  17 -18    3.35    6.55
  17  -1  21    3.70    3.81
  -1  17 -21    1.54    3.23
  17   0 -22    0.31    2.20
 -17  17 -19    7.28    3.70
 -17  17 -16   27.69    6.28
 -17  17 -13  281.36   20.06
 -17  17 -10  272.70   20.56
 -17  17 -10  327.00   20.91
  17 -17   7   12.05    5.16
  17   0  -7   13.63    6.32
 -17  17  -7   25.84    6.20
 -17  17  -7   18.75    6.01
  17 -17   4  157.86   12.21
  17   0  -4  161.52   12.02
  17   0  -4  178.07   12.48
 -17  17  -4  184.47   13.09
 -17  17  -4  184.85   12.63
  17 -17   1  540.08   37.28
  17   0  -1  556.37   37.28
  17   0  -1  602.27   37.51
 -17  17  -1  614.37   37.78
 -17  17  -1  567.88   37.39
  17   0   2  165.37   11.48
  17 -17  -2  162.32   11.28
 -17  17   2  168.60   12.67
 -17  17   2  164.02   11.86
   0  17  -2  153.50   11.17
  17 -17  -5   18.49    4.08
  17   0   5   26.42    4.85
 -17  17   5   32.62    7.51
 -17  17   5   18.10    5.93
   0  17  -5   22.99    4.16
 -17  17   8  186.01   15.29
 -17  17   8  220.82   16.14
   0  17  -8  204.19   14.25
 -17  17  11   -8.59    9.94
   0  17 -11    6.20    6.55
   0  17 -14    4.51    7.01
   0  17 -17   43.02    7.55
  17   0  20    7.09    4.54
   0  17 -20   -0.81    3.97
  17 -18  20    1.35    4.20
 -18  17 -20   -1.58    1.93
 -18  17 -17   22.22    5.12
 -18  17 -14   22.95    6.78
  17   1 -11   42.63    8.86
 -18  17 -11   34.62    7.12
 -18  17 -11   57.46    7.78
  17 -18   8   10.47    5.28
  17   1  -8    6.74    7.09
 -18  17  -8   12.63    6.62
 -18  17  -8   11.48    6.55
  17 -18   5  150.00   11.98
  17   1  -5  155.16   11.86
  17   1  -5  168.68   12.52
 -18  17  -5  174.45   12.82
 -18  17  -5  194.21   12.40
  17 -18   2  131.28    9.67
  17   1  -2  125.01    9.59
  17   1  -2  132.32   10.13
 -18   1   2  130.32    9.74
 -18  17  -2  141.64   10.67
 -18  17  -2  131.90   10.05
  17   1   1  849.51   56.15
  17 -18  -1  846.13   56.07
 -18  17   1  913.98   56.57
 -18  17   1  870.46   56.19
  17   1   4  163.48   11.05
  17 -18  -4  145.38   10.67
 -18  17   4  157.05   12.25
   1  17  -4  140.83   10.47
 -18  17   4  153.54   11.40
  17   1   7   74.79    7.51
 -18  17   7   91.58    9.78
 -18  17   7   83.38    8.51
   1  17  -7   76.10    7.09
 -18  17  10   28.96    9.67
   1  17 -10   21.41    6.05
 -18  17  13    6.28    9.78
   1  17 -13   12.94    6.62
   1  17 -16   55.30    7.86
  17   1  19   -9.74    5.20
   1  17 -19    3.00    4.35
  17   2 -21   -0.04    2.81
  17   2 -18   -1.58    6.28
  17 -19  18   -4.66    5.39
 -19  17 -18    5.55    3.35
  17   2 -15   51.91    9.90
 -19  17 -15   47.68    6.47
  17   2 -12   58.92    9.55
 -19  17 -12   59.08    7.70
 -19  17 -12   61.35    8.05
  17   2  -9  120.92   11.63
 -19  17  -9  129.63   10.82
 -19  17  -9  143.53   10.51
  17 -19   6  343.56   24.15
  17   2  -6  345.25   24.61
 -19  17  -6  352.14   24.69
 -19  17  -6  402.13   24.42
  17   2  -3    6.39    3.89
  17 -19   3    9.09    3.97
  17   2  -3    4.04    5.24
 -19  17  -3    7.32    6.70
 -19   2   3    5.58    4.35
 -19  17  -3    4.70    4.97
  17 -19   0  633.24   42.13
  17   2   0  619.03   42.13
  17   2   0  685.96   42.44
 -19  17   0  646.52   42.59
 -19  17   0  663.74   42.29
  17 -19  -3   90.19    7.39
  17   2   3   91.73    7.74
 -19  17   3  111.26    8.55
  17   2   6   12.13    4.89
 -19  17   6    5.28    7.70
   2  17  -6   15.71    4.12
 -19  17   6    3.20    6.85
  17   2   9   53.92    6.93
 -19  17   9   45.87    9.67
   2  17  -9   47.91    6.16
 -19  17  12   20.22    9.78
   2  17 -12    7.28    6.24
   2  17 -15   16.94    6.62
  17   2  18    4.39    5.20
   2  17 -18    7.01    4.66
  17   3 -19    1.58    4.70
  17   3 -16   48.49    8.55
  17 -20  16   28.65    6.59
 -20  17 -16   39.28    5.12
  17 -20  13   -3.31    5.85
  17   3 -13   13.86    8.43
 -20  17 -13    4.70    5.97
 -20  17 -13   -2.81    6.12
  17 -20  10   22.11    5.82
  17   3 -10   28.27    9.09
 -20  17 -10   38.90    7.63
 -20  17 -10   36.35    6.59
  17 -20   7   78.10    7.78
  17   3  -7   93.12    9.36
 -20  17  -7   88.96    9.51
 -20  17  -7   99.05    8.20
  17 -20   4   24.69    4.51
  17   3  -4   19.45    6.01
 -20  17  -4   32.16    7.20
 -20   3   4   29.96    4.97
 -20  17  -4   22.76    5.31
  17 -20   1  428.78   27.54
  17   3  -1  390.73   27.54
  17   3  -1  440.57   28.00
 -20  17  -1  421.31   28.31
 -20   3   1  406.45   27.88
 -20  17  -1  427.63   27.80
  17   3   2  201.68   14.60
  17 -20  -2  207.65   14.44
 -20  17   2  235.80   15.29
  17   3   5  291.10   20.87
 -20  17   5  330.19   21.49
 -20  17   5  314.79   22.07
  17   3   8  300.96   20.99
 -20  17   8  345.56   22.53
   3  17  -8  299.69   20.68
  17   3  11   30.85    6.51
 -20  17  11   38.32   10.13
   3  17 -11   46.41    6.20
  17   3  14    4.89    5.85
   3  17 -14    2.00    5.82
  17   3  17   11.63    5.55
   3  17 -17    7.20    4.85
  17   4 -20    0.31    3.04
  17   4 -17   15.52    6.62
  17   4 -14   34.24    8.66
  17 -21  14   22.03    5.85
 -21  17 -14   33.62    5.24
  17 -21  11   48.72    7.05
  17   4 -11   68.97    9.74
 -21  17 -11   74.75    8.40
 -21  17 -11   64.51    7.24
  17 -21   8   -0.39    4.97
  17   4  -8    4.93    7.89
 -21  17  -8    0.77    7.59
 -21  17  -8    8.59    5.66
  17   4  -5  252.86   17.95
 -21  17  -5  258.33   18.56
 -21  17  -5  247.39   17.41
  17   4  -2   84.65    8.24
 -21  17  -2   94.51    9.55
 -21   4   2   76.17    7.97
 -21  17  -2   87.50    7.78
  17   4   1  308.90   22.11
 -21   4  -1  343.75   22.37
 -21  17   1  316.79   21.99
 -21  17   4  342.94   22.30
 -21  17   4  290.80   22.72
  17   4   7  329.96   23.72
 -21  17   7  417.11   25.22
  17   4  10   65.35    7.43
   4  17 -10   72.67    7.01
  17   4  13   13.29    6.05
 -21  17  13   20.56    8.20
   4  17 -13   20.22    5.24
  17   4  16    2.43    4.74
   4  17 -16    7.74    4.39
 -21   4 -19    0.35    2.93
  17   5 -18    3.31    4.58
  17   5 -15   11.01    7.12
  17   5 -12   82.30    9.94
 -22  17 -12   85.96    8.63
 -22  17 -12   55.69    6.70
  17   5  -9   37.82    8.63
 -22  17  -9   50.37    8.40
 -22  17  -9   45.64    6.16
  17   5  -6   17.91    7.12
 -22  17  -6   32.16    8.59
 -22  17  -6   33.00    5.28
  17   5  -3   49.18    7.20
 -22  17  -3   52.49    8.93
 -22   5   3   54.34    7.01
 -22  17  -3   45.83    6.16
  17   5   0  127.63   11.21
 -22   5   0  146.34   11.75
 -22  17   0  134.90   10.55
  17   5   3   21.37    7.01
 -22  17   3   27.96    8.43
 -22  17   3   17.21    6.82
 -22  17   6   66.93   10.28
 -22  17   9   21.68    9.40
 -22  17  12   71.51    9.78
   5  17 -15    4.04    3.97
 -22   5 -18    2.27    3.81
  17   6 -19    2.43    2.97
  17   6 -16   -0.73    5.70
 -23  17 -13   16.21    6.55
  17   6 -13   25.69    7.82
  17   6 -10  132.52   12.29
 -23  17 -10  126.47   11.86
  17   6  -7   54.96    8.55
 -23  17  -7   61.12    9.05
 -23  17  -7   50.80    6.05
  17   6  -4   37.51    6.85
 -23   6   4   35.28    6.47
 -23  17  -4   32.31    8.90
 -23  17  -4   33.58    5.24
  17   6  -1  144.84   11.48
 -23   6   1  142.72   11.78
 -23  17  -1  132.90   10.71
 -23   6  -2  234.11   16.64
 -23  17   2  201.76   14.83
 -23  17   2  175.42   16.06
  17   6   2  205.84   15.17
 -23  17   5  255.83   19.41
 -23  17   8   74.06   10.71
 -23  17  11   62.27    9.63
 -23   6 -17    7.59    4.54
  17   7 -17    5.01    4.39
 -24  17 -14    6.93    5.28
  17   7 -14    4.24    6.70
  17   7 -11  135.33   12.17
 -24  17 -11  135.02   11.86
  17   7  -8   19.14    8.13
 -24  17  -8   12.98    8.32
  17   7  -5   40.71    7.32
 -24  17  -5   46.37    9.20
 -24   7   5   29.46    6.66
  17   7  -2   47.72    7.20
 -24  17  -2   46.52    9.63
 -24   7   2   50.41    8.05
  17   7   1   52.45    7.78
 -24  17   1   40.32    9.78
 -24   7  -1   52.07    9.44
 -24  17   1   49.87    6.59
 -24  17   4   78.56   11.40
  17   7   4   79.14    9.63
 -24  17   7   79.79   10.94
 -24  17  10  113.38   11.71
 -24   7 -13   11.82    8.20
 -24  17  13   12.55    6.01
 -24   7 -16    4.08    5.12
  17   8 -18    4.81    2.58
  17   8 -15   16.83    5.31
 -25  17 -12   43.13    7.43
  17   8 -12   45.83    7.55
 -25  17  -9   10.67    8.43
  17   8  -9    2.00    7.43
  17   8  -6  190.28   14.33
 -25  17  -6  198.83   15.02
 -25   8   6  149.50   13.06
 -25   8   3   11.75    7.39
 -25  17  -3   13.40    9.70
  17   8  -3    8.20    6.97
 -25   8   0   28.50    9.09
  17   8   0   49.60    7.55
 -25  17   3   26.46    9.74
 -25   8  -3   36.05   11.13
  17   8   3   29.11    7.74
 -25  17   6  194.06   17.68
 -25   8  -6  242.31   19.10
  17   8   6  227.79   16.56
 -25  17   9   33.50    8.74
 -25   8 -12   -0.96    9.13
 -25  17  12    3.04    6.39
 -25   8 -15    8.28    5.78
  17   9 -16    8.66    3.85
 -26  17 -13   21.14    5.82
  17   9 -13   22.91    6.05
 -26  17 -10   91.35    9.97
  17   9 -10   92.93    9.90
 -26  17  -7   40.78    9.74
 -26   9   7   47.18    6.47
  17   9  -7   51.07    8.32
 -26   9   4   27.23    7.82
 -26  17  -4   44.75   10.17
  17   9  -4   34.74    7.97
 -26   9   1   28.84    9.32
  17   9  -1   28.38    7.39
 -26  17   2  100.24   11.67
 -26   9  -2   82.80   11.63
  17   9   2   73.21    8.97
 -26  17   5  315.06   25.46
  17   9   5  336.43   24.30
 -26  17   8   10.90    8.90
  17   9   8   23.76    7.16
 -26  17  11   18.06    6.93
 -26   9 -11   14.71    9.63
  17   9  11   19.76    5.74
 -26   9 -14   -2.70    6.24
  17   9  14    3.93    4.01
 -26   9 -17    4.78    2.77
  17  10 -14    0.50    4.51
 -27  17 -14    4.51    4.27
 -27  17 -11   52.80    7.55
  17  10 -11   25.69    7.05
 -27  17  -8    6.05    8.93
  17  10  -8    7.89    7.20
  17  10  -5  112.45   10.86
 -27  17  -5  123.27   12.63
 -27  10   5   90.62   10.32
 -27  10   2    8.78    8.74
  17  10  -2   12.05    6.82
 -27  17   1   68.20   11.63
 -27  10  -1   80.53   11.48
  17  10   1   62.85    8.51
 -27  17   4   62.50   11.01
 -27  10  -4   92.50   12.79
  17  10   4   63.47    8.28
 -27  17   7   16.68    8.70
  17  10   7   17.48    6.43
 -27  17  10   10.47    6.97
 -27  10 -10   25.15   10.09
  17  10  10   21.68    5.62
 -27  10 -13    2.58    6.43
 -27  10 -16    0.85    3.23
  17  11 -15    3.93    2.50
 -28  17 -12   18.72    6.01
  17  11 -12   20.18    5.35
 -28  17  -9   20.87    8.13
  17  11  -9   24.11    6.16
 -28  17  -6   69.74   11.21
 -28  11   6   54.42    7.82
  17  11  -6   53.18    8.13
 -28  11   3   30.89    8.63
  17  11  -3   25.11    7.39
 -28  17   0  120.35   13.94
 -28  11   0  122.93   13.02
  17  11   0  107.52   10.51
 -28  11  -3   15.75   12.05
 -28  17   3    9.86   10.55
  17  11   3    2.27    6.24
 -28  11  -6   58.27   12.63
 -28  17   6   52.95    9.97
  17  11   6   53.18    6.70
 -28  17   9   10.44    6.93
 -28  11  -9    4.58    9.86
 -28  11 -12    9.28    6.97
 -28  11 -15   10.01    3.77
 -29  17 -13    5.39    4.16
 -29  17 -10   26.57    7.24
  17  12 -10   12.98    5.24
 -29  17  -7   14.36    9.59
 -29  12   7    7.47    5.70
  17  12  -7   12.79    6.28
 -29  12   4    4.16    7.78
  17  12  -4    2.54    6.43
  17  12  -1  117.54   10.55
 -29  17  -1  130.24   14.52
 -29  12   1  124.74   12.94
  17  12   2  115.61   10.32
 -29  17   2  128.05   13.67
 -29  12  -2  154.08   14.79
 -29  12  -5  138.91   14.40
 -29  17   5  110.95   12.52
 -29  17   8   -2.39    7.01
 -29  12 -11   17.10    7.36
 -29  12 -14    2.70    4.01
 -30  17 -11   20.83    5.82
 -30  17  -8   45.29    9.01
 -30  13   5   -1.62    6.78
 -30  13   2    8.01    8.97
 -30  17  -2    5.62   11.17
 -30  13  -1  176.11   15.48
 -30  17   1  152.73   15.60
 -30  13  -4   78.52   12.86
 -30  17   4   56.50   10.51
 -30  17   7    6.85    6.97
 -30  13 -10   -7.74    7.28
 -30  13 -13   -1.62    4.27
 -31  17 -12   -3.50    3.89
 -31  17  -9   -0.81    6.59
 -31  17  -6    3.54    9.47
 -31  14   6    7.93    5.74
 -31  17  -3   21.30   11.09
 -31  14   3   19.56    8.63
 -31  17   0  224.40   18.41
 -31  14   0  224.06   18.18
 -31  14  -3   -5.08   10.86
 -31  17   3    9.01    9.24
 -31  17   6   45.75    7.82
 -31  14  -9    1.39    7.32
 -31  14 -12   -0.39    4.31
 -32  17 -10   19.76    5.20
 -32  17  -7    0.77    7.55
 -32  15   4   -4.16    6.93
 -32  15   1  127.82   12.86
 -32  17  -1  138.25   13.48
 -32  15  -2   61.96   11.09
 -32  17   2   50.33    9.86
 -32  15  -5   18.75    9.78
 -32  17   5   13.48    7.01
 -32  17   8    0.27    4.08
 -32  15 -11    4.31    4.27
 -33  17 -11    8.66    3.12
 -33  17  -8   36.70    6.51
 -33  16   5   17.95    5.39
 -33  17  -2   49.18    9.82
 -33  16   2   45.37    8.16
 -33  16  -1   66.20   10.28
 -33  17   1   69.51    9.78
 -33  16  -4   -6.55    8.74
 -33  17   4   13.86    6.47
 -33  17   7   14.60    3.93
 -33  16 -10    5.31    4.39
 -34  17   0   86.61    9.86
 -34  17   3   13.98    6.08
 -34  17  -3   32.89    8.09
 -34  17  -9   10.98    4.12
  -9  18   0 1306.52   84.72
  -9  18   0 1310.38   84.65
  18  -9  -3  694.66   43.21
  -9  18  -3  538.96   45.06
  -9  18   3  676.83   43.52
  -9  18  -3  623.99   43.21
  -9  18   3  692.74   43.29
  18  -9  -6  165.37   11.90
  -9  18   6  194.21   13.79
  -9  18   6  167.25   12.44
  -9  18  -6  158.86   12.05
  18  -9  -9    7.16    5.31
  -9  18   9   10.78    6.62
  -9  18  -9   10.01    5.70
  18  -9 -12   54.76    7.09
  18  -9 -15    6.97    6.51
  18  -9 -18    3.50    5.31
  18  -9 -21    0.42    2.97
  -9  18 -21   -5.55    4.04
 -10  18 -22    3.04    2.85
  18  -8 -19   -2.70    5.39
 -10  18 -19   -4.16    6.32
  18  -8 -16    1.50    6.74
 -10  18 -16    5.74    7.66
  18  -8 -13    9.44    6.24
  18  -8 -10  105.71    9.32
  18  -8  -7   24.80    5.55
  18  -8  -7   26.65    4.97
  -8  18   7   23.30    8.40
  -8  18   7   22.91    6.12
  18 -10   4  114.88    8.93
  18  -8  -4  113.11    8.55
  18  -8  -4  108.22    8.28
 -10  18  -4   82.18   11.28
  -8  18   4  107.37    9.59
 -10  18  -4  114.49    8.66
  -8  18   4  115.15    8.97
  18  -8  -1  206.38   13.52
  18 -10   1  196.68   13.52
  18  -8  -1  209.69   13.40
 -10  18  -1  165.56   13.32
  -8  18   1  195.33   13.67
  -8  18   1  198.99   13.40
 -10  18  -1  183.43   13.40
  18 -10  -2  103.44    7.93
  18  -8   2  107.37    8.01
  -8  18  -2   71.86   11.67
  18 -10  -2  102.71    7.63
 -10  18   2  104.13    8.28
  -8  18  -2   98.90    8.01
 -10  18   2   99.28    8.13
  18  -8   5   52.84    6.39
  18 -10  -5   52.84    5.89
  18 -10  -5   52.76    5.24
 -10  18   5   57.38    7.59
 -10  18   5   55.19    6.20
  -8  18  -5   50.60    5.89
  18 -10  -8   18.87    4.66
  -8  18  -8   14.52    5.51
 -10  18   8   16.60    6.32
  18 -10 -11  157.32   11.67
  -8  18 -11  147.15   12.36
  18 -10 -14   12.21    6.47
  18 -10 -17    0.54    5.78
  18 -10 -20   -4.62    3.70
  18  -7 -20    1.27    4.54
 -11  18 -20    5.24    4.85
  18  -7 -17    7.78    7.09
 -11  18 -17   17.25    7.24
  18  -7 -14   12.40    7.47
 -11  18 -14   30.04    7.47
  18  -7 -11   89.04    8.78
 -11  18 -11   79.02    9.13
  18  -7  -8   45.87    6.24
  -7  18   8   53.26    9.24
  -7  18   8   43.48    7.09
  18  -7  -5  278.36   19.02
  18 -11   5  264.76   19.26
  18  -7  -5  281.36   19.02
  -7  18   5  293.15   19.99
  -7  18   5  292.65   19.18
  18 -11   2  237.34   15.91
  18  -7  -2  242.81   15.83
  18  -7  -2  238.42   15.71
 -11  18  -2  209.27   15.75
  -7  18   2  228.22   16.14
  -7  18   2  227.21   15.79
  18 -11  -1  345.44   23.07
  18  -7   1  346.06   23.03
  18 -11  -1  343.25   22.80
 -11  18   1  351.22   23.26
  -7  18  -1  348.56   22.91
 -11  18   1  341.71   22.99
  18  -7   4   43.63    5.39
  18 -11  -4   39.44    5.08
  18 -11  -4   45.13    4.47
  -7  18  -4   43.09    8.28
 -11  18   4   40.63    6.12
 -11  18   4   36.62    5.70
  -7  18  -4   42.36    5.16
  18 -11  -7  229.03   15.06
  18 -11  -7  215.85   14.60
 -11  18   7  204.57   15.13
  -7  18  -7  197.25   14.75
  18 -11 -10  194.52   13.94
 -11  18  10  167.79   16.29
  -7  18 -10  207.00   14.36
  18 -11 -13    5.35    5.70
  -7  18 -13    6.35    7.66
  18 -11 -16   11.40    6.01
  -7  18 -16   11.28    8.32
  18 -11 -19    2.66    4.43
  18  -7  22   -0.23    3.77
  18  -6 -21   -2.39    3.62
  18  -6 -21    0.92    2.31
 -12  18 -21    3.00    3.62
  18  -6 -18   -3.85    6.55
 -12  18 -18    3.50    6.32
  18  -6 -15   34.39    8.51
 -12  18 -15   36.82    8.13
  18  -6 -12   35.39    7.70
 -12  18 -12   44.02    7.55
  18  -6  -9  147.57   11.86
 -12  18  -9  155.12   11.78
  18  -6  -6  114.30    8.97
  18  -6  -6  103.71    8.82
  -6  18   6  104.67    9.01
  -6  18   6  125.08   11.25
 -12  18  -6  108.29    9.01
  18 -12   3   14.79    4.35
  18  -6  -3   18.68    4.16
  18  -6  -3   22.88    4.20
  -6  18   3   11.05    6.05
 -12  18  -3   18.56    4.24
  -6  18   3   23.45    4.62
  18  -6   0  201.53   13.90
  18 -12   0  211.19   14.06
 -12  18   0  193.79   14.21
  -6  18   0  197.29   13.83
  18  -6   3   30.23    4.97
  18 -12  -3   28.96    4.51
  18 -12  -3   30.81    3.70
 -12  18   3   34.78    6.35
  -6  18  -3   32.46    4.74
  18 -12  -6  350.64   22.68
  18 -12  -6  340.48   22.41
 -12  18   6  357.73   23.49
  -6  18  -6  318.06   22.64
 -12  18   6  329.50   22.91
  18 -12  -9   98.01    8.13
 -12  18   9   90.46   11.25
  -6  18  -9  101.17    9.01
 -12  18   9   98.67    9.82
  18 -12 -12   26.53    5.70
  -6  18 -12   28.19    7.63
  18 -12 -15   30.73    6.39
  -6  18 -15   31.85    8.05
  18 -12 -18    6.32    4.39
  -6  18 -18   -3.39    7.05
  -6  18 -21    4.93    4.27
  18 -13  22   -3.27    3.66
 -13  18 -22    0.31    2.12
  18  -5 -19    4.04    6.01
 -13  18 -19   11.48    5.16
  18  -5 -16   46.44    8.90
 -13  18 -16   61.08    8.47
  18  -5 -13   55.34    8.59
 -13  18 -13   65.70    8.59
  18  -5 -10  298.73   20.87
 -13  18 -10  294.76   20.56
  18  -5  -7  253.17   18.41
  18  -5  -7  282.02   18.60
  -5  18   7  269.58   18.60
 -13  18  -7  267.96   18.52
  18  -5  -4  215.85   15.37
  18 -13   4  209.89   15.56
  18  -5  -4  226.87   15.44
 -13  18  -4  221.78   15.48
  -5  18   4  249.36   16.48
 -13  18  -4  228.45   15.52
  -5  18   4  224.10   15.48
  18 -13   1  106.21    8.40
  18  -5  -1  112.45    8.51
  18  -5  -1  109.72    8.59
  -5  18   1  102.25    8.66
 -13  18  -1  103.13    9.09
 -13  18  -1  117.77    8.63
  -5  18   1  113.41    8.40
  18 -13  -2  331.39   21.76
  18  -5   2  332.27   21.84
 -13  18   2  335.93   22.11
  -5  18  -2  310.75   21.64
  18  -5   5  302.12   20.30
  18 -13  -5  303.81   20.10
  18 -13  -5  297.54   19.76
 -13  18   5  306.01   20.91
  -5  18  -5  285.10   19.99
  18 -13  -8    9.86    4.24
 -13  18   8   19.76    8.51
  -5  18  -8   15.13    5.16
  18 -13 -11   25.57    5.43
  -5  18 -11   16.56    7.16
  18 -13 -14   45.52    6.39
  -5  18 -14   46.52    8.90
  18 -13 -17   14.25    4.81
  -5  18 -17   31.46    8.16
  -5  18 -20    8.51    5.20
  18  -4 -20    2.58    4.78
  18  -4 -20    2.73    2.58
 -14  18 -20    4.62    4.16
  18  -4 -17   45.64    8.43
 -14  18 -17   36.93    7.09
  18  -4 -14   37.20    8.40
 -14  18 -14   31.23    7.55
  18  -4 -11   32.39    7.82
 -14  18 -11   25.15    7.63
  18  -4  -8   65.20    7.43
 -14  18  -8   54.15    7.63
  18 -14   5  256.71   18.52
  18  -4  -5  273.43   18.41
  18  -4  -5  269.04   18.52
 -14  18  -5  280.21   18.52
 -14  18  -5  286.14   18.68
  -4  18   5  258.76   18.45
  18  -4  -2    6.20    4.12
  18 -14   2    6.55    4.12
  18  -4  -2   12.44    4.47
  -4  18   2   13.06    5.47
 -14  18  -2    9.05    4.85
 -14  18  -2    8.28    4.74
  -4  18   2    7.97    4.04
  18  -4   1  645.64   40.98
  18 -14  -1  628.42   40.94
 -14  18   1  632.74   41.25
  -4  18  -1  623.26   40.86
 -14  18   1  606.05   40.98
  18 -14  -4  200.41   13.83
  18  -4   4  204.42   14.02
 -14  18   4  211.08   14.90
  -4  18  -4  196.14   13.75
 -14  18   4  184.74   14.17
  18 -14  -7   51.18    6.05
  -4  18  -7   52.57    6.05
  18 -14 -10    5.28    4.31
 -14  18  10   15.67    9.44
  -4  18 -10    6.74    6.39
  18 -14 -13    0.73    5.16
  -4  18 -13    4.54    7.51
  18 -14 -16   37.43    6.01
  -4  18 -16   66.35    8.93
  -4  18 -19    3.74    6.08
  18  -4  22    3.12    2.77
  -4  18 -22    1.46    2.43
  18  -3 -21   -2.70    3.66
  18 -15  21   -1.62    4.66
 -15  18 -21    0.19    2.54
  18  -3 -18    4.01    7.24
 -15  18 -18    7.59    5.51
  18  -3 -15   22.76    8.74
 -15  18 -15   23.11    6.82
  18  -3 -12   34.01    8.63
 -15  18 -12   32.73    7.82
  18  -3  -9  209.85   16.44
 -15  18  -9  229.91   16.41
  18 -15   6  307.43   20.80
  18  -3  -6  288.49   20.53
  18  -3  -6  293.65   20.76
 -15  18  -6  300.31   20.68
  -3  18   6  304.31   20.45
 -15  18  -6  335.39   20.99
  18  -3  -3   22.57    4.47
  18 -15   3   19.83    4.74
  18  -3  -3   13.98    4.93
 -15  18  -3   15.67    5.74
  -3  18   3   21.07    4.51
 -15  18  -3   16.71    5.35
  18 -15   0  458.05   29.88
  18  -3   0  469.03   29.92
 -15  18   0  444.57   30.12
  -3  18   0  464.21   29.73
 -15  18   0  425.39   29.92
  18  -3   3  113.30    8.74
  18 -15  -3  109.37    8.47
 -15  18   3  121.58    9.94
 -15  18   3  108.02    9.01
  -3  18  -3  108.95    8.43
  18  -3   6   36.66    5.70
  18 -15  -6   38.51    5.28
 -15  18   6   29.77    6.39
  -3  18  -6   35.89    5.16
 -15  18   9   13.71    9.32
  -3  18  -9    9.59    6.12
 -15  18  12    7.43   11.13
  -3  18 -12    9.20    7.36
  -3  18 -15   33.39    7.93
  -3  18 -18    5.78    7.01
  18  -3  21    6.62    3.97
  -3  18 -21    1.73    3.54
  18  -2 -22    2.39    2.00
  18  -2 -19    0.65    5.85
 -16  18 -19   -3.47    4.01
  18  -2 -16   64.70   10.21
 -16  18 -16   72.13    8.01
  18  -2 -13   19.91    9.24
 -16  18 -13   19.29    7.78
  18  -2 -10   38.24    8.90
 -16  18 -10   44.29    7.97
  18 -16   7  152.16   11.86
 -16  18  -7  167.60   12.02
  -2  18   7  138.56   11.21
 -16  18  -7  170.10   12.21
  18 -16   4   17.37    4.78
  18  -2  -4   18.18    4.51
 -16  18  -4   22.57    5.70
 -16  18  -4   18.37    5.35
  -2  18   4   21.45    4.47
  18 -16   1  504.69   33.97
  18  -2  -1  533.88   33.97
 -16  18  -1  535.69   34.35
 -16  18  -1  501.88   34.04
  -2  18   1  516.24   33.85
  18 -16  -2  475.65   31.85
  18  -2   2  515.78   31.96
 -16  18   2  543.78   32.50
  -2  18  -2  460.90   31.73
 -16  18   2  461.94   32.00
  18  -2   5  238.92   16.21
  18 -16  -5  227.37   15.91
  -2  18  -5  228.56   15.91
 -16  18   5  233.45   16.44
 -16  18   8   56.50    9.78
 -16  18   8   54.96    8.16
  -2  18  -8   64.31    6.93
 -16  18  11   10.24   10.51
  -2  18 -11   -4.78    6.39
  -2  18 -14   10.74    7.74
  -2  18 -17   26.96    7.43
  18  -2  20    3.54    4.70
  -2  18 -20   -4.66    4.20
  18 -17  20   -1.42    4.93
  18  -1 -20   -4.16    4.39
 -17  18 -20    2.85    2.58
 -17  18 -17   14.87    5.58
 -17  18 -14    7.82    6.97
 -17  18 -11  121.19   11.40
 -17  18  -8    5.24    6.43
 -17  18  -8   10.90    6.89
  18 -17   5  124.81   10.36
  18  -1  -5  126.66   10.17
 -17  18  -5  146.07   10.94
 -17  18  -5  150.39   10.98
  18 -17   2  166.52   11.94
  18  -1  -2  170.45   11.90
  18  -1  -2  155.58   12.32
 -17  18  -2  182.31   12.71
 -17  -1   2  166.83   11.67
 -17  18  -2  171.61   12.21
  -1  18   2  159.82   11.67
  18 -17  -1  862.99   57.03
  18  -1   1  910.71   57.11
 -17  18   1  880.25   57.38
  -1  18  -1  852.56   56.96
 -17  18   1  897.81   57.11
  18 -17  -4   57.57    5.62
  18  -1   4   48.75    6.01
  -1  18  -4   54.99    5.62
 -17  18   4   56.42    6.97
  18  -1   7   18.25    5.85
 -17  18   7   36.86    8.43
 -17  18   7   18.79    7.28
  -1  18  -7   28.69    5.12
 -17  18  10  -10.82    9.86
  -1  18 -10   -2.73    6.24
 -17  18  13   38.24   10.74
  -1  18 -13   16.29    7.51
  -1  18 -16   47.41    8.09
  18  -1  19    1.23    5.62
  -1  18 -19   -1.50    4.70
  18 -18  18   -1.69    6.24
 -18  18 -18    1.46    4.12
 -18  18 -15   10.13    5.89
 -18  18 -12  274.43   19.83
 -18  18  -9  172.22   12.86
 -18  18  -9  194.98   13.17
  18 -18   6   36.97    6.20
  18   0  -6   47.52    7.32
 -18  18  -6   51.80    7.51
 -18  18  -6   55.03    7.05
  18   0  -3   21.87    4.51
  18 -18   3   15.13    4.58
  18   0  -3   24.07    5.74
 -18  18  -3   15.25    6.66
 -18  18  -3   19.41    5.47
  18   0   0 1424.29   90.62
  18 -18   0 1391.87   90.58
  18   0   0 1421.56   90.77
 -18  18   0 1389.17   90.85
 -18  18   0 1372.30   90.62
  18 -18  -3    4.51    3.93
  18   0   3   -0.50    4.43
 -18  18   3   -1.19    5.43
   0  18  -3    6.24    3.50
  18   0   6  202.45   15.40
 -18  18   6  231.91   16.87
 -18  18   6  230.84   15.87
   0  18  -6  215.62   15.06
  18   0   9   18.75    6.47
 -18  18   9   20.87    9.90
   0  18  -9   33.74    6.01
 -18  18  12   -8.78   10.44
   0  18 -12    6.39    6.32
   0  18 -15   32.20    7.47
  18   0  18   -5.51    6.35
   0  18 -18   -0.62    5.24
  18 -19  19   -2.39    4.54
 -19  18 -19   -0.19    2.35
  18 -19  16   31.50    7.24
 -19  18 -16   39.51    5.74
  18   1 -13   32.23    9.24
 -19  18 -13   19.76    6.66
  18   1 -10  177.42   14.21
 -19  18 -10  172.68   13.02
 -19  18 -10  186.89   13.36
  18 -19   7  102.32    9.24
  18   1  -7  114.42   10.47
 -19  18  -7  117.77   10.55
 -19  18  -7  114.11   10.40
  18 -19   4  168.56   12.32
  18   1  -4  163.25   12.25
  18   1  -4  164.25   12.86
 -19  18  -4  170.06   13.32
 -19  18  -4  186.35   12.82
  18 -19   1  877.47   56.88
  18   1  -1  858.41   56.84
  18   1  -1  891.68   57.07
 -19  18  -1  892.80   57.30
 -19   1   1  855.14   56.92
 -19  18  -1  883.83   57.00
  18 -19  -2   90.23    7.63
  18   1   2   99.40    7.89
 -19  18   2   94.31    8.55
  18 -19  -5   14.67    4.54
  18   1   5   11.17    5.16
 -19  18   5   24.61    7.89
 -19  18   5   13.44    7.01
   1  18  -5   25.65    4.24
  18   1   8   65.12    7.51
 -19  18   8   71.17   10.17
   1  18  -8   74.29    6.89
  18   1  11    1.73    6.89
 -19  18  11    2.89   10.05
   1  18 -11    2.93    6.28
   1  18 -14    4.93    6.66
  18   1  17   18.91    6.74
   1  18 -17   20.37    5.74
 -19   1 -20    0.65    2.43
   1  18 -20    1.35    2.58
  18   2 -20    5.82    3.43
  18 -20  17    7.78    5.43
  18   2 -17   19.06    6.43
 -20  18 -17   10.44    3.74
  18   2 -14   29.27    9.17
  18 -20  14   27.80    7.09
 -20  18 -14   38.93    6.39
  18 -20  11   27.03    6.74
  18   2 -11   52.84    9.44
 -20  18 -11   30.85    7.32
 -20  18 -11   33.89    7.20
  18 -20   8   42.67    6.28
  18   2  -8   43.86    8.90
 -20  18  -8   48.56    8.13
 -20  18  -8   56.96    7.82
  18 -20   5  439.87   30.04
  18   2  -5  456.63   30.50
 -20  18  -5  443.03   30.62
 -20  18  -5  477.04   30.31
  18   2  -2  214.51   15.13
  18 -20   2  217.63   15.17
  18   2  -2  229.33   15.83
 -20  18  -2  221.32   16.33
 -20   2   2  206.03   15.37
 -20  18  -2  233.92   15.71
  18   2   1  211.70   15.71
  18 -20  -1  231.64   15.56
  18   2   1  229.18   16.44
 -20  18   1  236.53   16.98
 -20  18   1  238.34   16.21
  18 -20  -4  378.68   25.34
  18   2   4  362.66   25.53
 -20  18   4  405.91   26.03
 -20  18   4  398.24   26.65
  18   2   7  428.47   28.88
 -20  18   7  455.16   29.85
 -20  18   7  466.21   29.50
   2  18  -7  412.11   28.46
  18   2  10   83.84    9.01
 -20  18  10   98.74   11.86
   2  18 -10   94.12    8.36
  18   2  13  -10.86    6.82
 -20  18  13   -1.19    9.28
   2  18 -13    0.08    6.08
  18   2  16   14.67    6.16
   2  18 -16   29.81    5.55
 -20   2 -19    3.39    3.39
   2  18 -19   -1.96    2.89
  18   3 -18   -3.04    5.12
  18   3 -15   35.16    8.16
  18 -21  15   21.49    6.08
 -21  18 -15   38.05    5.04
  18 -21  12   28.23    5.97
  18   3 -12   39.94    9.40
 -21  18 -12   37.32    7.12
 -21  18 -12   33.74    6.28
  18 -21   9   55.30    7.05
  18   3  -9   76.33    9.90
 -21  18  -9   72.75    9.05
 -21  18  -9   66.93    8.05
  18 -21   6   34.62    5.51
  18   3  -6   31.62    7.70
 -21  18  -6   39.28    8.16
 -21  18  -6   35.05    5.97
  18   3  -3    0.81    4.43
  18 -21   3    2.54    4.24
  18   3  -3    7.20    6.24
 -21  18  -3   10.82    8.13
 -21   3   3   -1.66    5.16
 -21  18  -3   10.28    5.82
  18 -21   0  310.75   20.53
  18   3   0  279.98   20.56
  18   3   0  323.34   21.30
 -21  18   0  314.25   21.80
 -21   3   0  324.61   21.26
 -21  18   0  307.16   20.99
  18   3   3  287.22   19.22
  18 -21  -3  265.23   19.06
 -21  18   3  314.37   19.95
 -21  18   6  544.85   32.04
 -21  18   6  500.26   32.54
  18   3   9   38.86    6.39
 -21  18   9   42.98   10.13
   3  18  -9   41.17    5.51
  18   3  12   16.33    5.78
 -21  18  12   18.99    9.55
   3  18 -12    6.78    5.31
  18   3  15   -3.20    5.58
   3  18 -15   11.09    4.89
 -21   3 -18   13.63    4.24
   3  18 -18    3.54    3.08
  18   4 -19   -3.58    3.47
  18   4 -16   22.22    6.85
  18 -22  13   11.36    5.24
  18   4 -13   15.67    8.28
 -22  18 -13    7.78    5.93
 -22  18 -13   16.52    4.93
  18 -22  10   31.27    6.12
  18   4 -10   48.91    9.55
 -22  18 -10   60.35    8.28
 -22  18 -10   48.25    6.47
  18   4  -7   43.52    8.20
 -22  18  -7   36.43    8.51
 -22  18  -7   35.82    6.47
  18   4  -4  220.28   15.91
 -22   4   4  195.64   15.25
 -22  18  -4  214.31   16.41
 -22  18  -4  232.41   15.33
  18   4  -1   69.36    8.13
 -22  18  -1   67.47    9.28
 -22   4   1   76.75    8.20
 -22  18  -1   63.16    7.47
  18   4   2   63.77    8.40
 -22   4  -2   68.51    9.59
 -22  18   2   71.36    7.97
 -22  18   5   68.67   10.28
 -22  18   5   64.43    8.86
 -22  18   8    6.82    9.67
  18   4  11  154.47   12.25
   4  18 -11  157.47   11.71
   4  18 -14    1.93    4.31
 -22   4 -17   13.13    5.04
  18   5 -17   -1.93    4.97
  18   5 -14    6.32    7.70
  18   5 -11  152.08   12.17
 -23  18 -11  137.45   11.48
 -23  18 -11  117.69    9.86
  18   5  -8    8.86    8.51
 -23  18  -8   20.99    8.32
 -23  18  -8   12.21    5.16
  18   5  -5   26.38    7.78
 -23   5   5   22.07    5.70
 -23  18  -5   37.47    8.82
 -23  18  -5   33.97    5.43
  18   5  -2  180.46   14.02
 -23  18  -2  191.36   15.02
 -23   5   2  185.39   13.90
 -23  18  -2  177.11   13.29
  18   5   1  104.90   10.13
 -23   5  -1  124.78   11.05
 -23  18   1   98.97    9.20
 -23  18   4  110.91   10.32
 -23  18   4  104.87   12.13
  18   5   4  117.11   10.82
 -23  18   7   62.39   10.55
 -23  18  10   71.78   10.67
 -23  18  13   10.05    7.36
 -23   5 -16   10.17    5.74
  18   6 -18    1.08    3.23
  18   6 -15   10.59    6.20
  18   6 -12   42.79    8.16
 -24  18 -12   42.48    7.32
  18   6  -9   21.18    8.59
 -24  18  -9   40.05    8.40
  18   6  -6   41.63    8.55
 -24  18  -6   48.14    9.51
 -24  18  -6   41.78    5.55
  18   6  -3   82.76    9.05
 -24  18  -3   81.53   10.67
 -24   6   3   75.06    8.55
 -24  18  -3   78.91    7.20
  18   6   0  111.76   10.47
 -24   6   0  133.56   11.44
 -24  18   0  105.40    9.55
  18   6   3   21.57    7.66
 -24  18   3   37.24   10.01
 -24   6  -3   34.20   10.40
 -24  18   3   24.38    6.93
 -24  18   6   31.85    9.90
 -24  18   9   37.97    9.70
 -24  18  12    4.20    7.74
 -24   6 -15   15.13    6.39
 -24   6 -18    2.16    2.66
  18   7 -16   -6.97    4.39
 -25  18 -13    4.62    5.62
  18   7 -13    8.05    6.55
 -25  18 -10   33.24    8.24
  18   7 -10   51.76    8.43
  18   7  -7  111.95   10.98
 -25  18  -7   98.43   11.67
 -25   7   4   24.69    6.97
 -25  18  -4   44.63   10.01
  18   7  -4   46.98    7.82
 -25   7   1   88.19   11.01
 -25  18  -1  117.19    8.93
  18   7  -1  116.03   10.24
 -25  18   2  125.35   13.25
 -25  18   2  125.85   10.51
 -25   7  -2  148.34   13.36
  18   7   2  128.40   11.82
 -25   7  -5  117.84   14.36
 -25  18   5  101.36   13.02
  18   7   5  133.06   11.32
 -25  18   8   25.07    9.47
 -25  18  11   19.26    7.74
 -25   7 -11   20.68    9.97
 -25   7 -14    3.58    6.78
 -25   7 -17    0.73    3.27
  18   8 -17    4.24    2.70
 -26  18 -14   -4.01    4.24
  18   8 -14   -2.12    5.04
 -26  18 -11   74.90    8.90
  18   8 -11   80.68    8.93
 -26  18  -8    9.20    8.59
  18   8  -8    8.78    8.09
 -26   8   5   50.80    7.66
 -26  18  -5   71.01   11.05
  18   8  -5   80.76    9.13
 -26   8   2    7.89    8.09
  18   8  -2    9.97    7.74
 -26  18   1   96.20   12.36
 -26   8  -1  109.41   11.94
  18   8   1   91.31    9.90
 -26  18   4  102.59   13.63
  18   8   4  129.94   11.90
 -26  18   7   66.82   11.25
  18   8   7   77.45    9.63
 -26  18  10   17.83    7.82
  18   8  10    6.08    6.28
 -26   8 -13    9.40    7.24
  18   8  13    7.97    5.04
 -26   8 -16   -1.77    3.89
  18   9 -15    6.32    3.89
 -27  18 -12   37.43    6.66
  18   9 -12   40.90    6.66
 -27  18  -9    2.50    7.93
  18   9  -9    5.01    6.89
  18   9  -6  182.77   13.59
 -27  18  -6  169.06   14.44
 -27   9   6  136.68   12.13
 -27   9   3   21.22    8.13
 -27  18  -3   26.80   10.44
  18   9  -3   32.43    7.74
 -27  18   0   75.10   12.29
 -27   9   0   80.72   11.17
  18   9   0   78.37    9.17
 -27  18   3   35.35   10.55
 -27   9  -3   54.88   11.51
  18   9   3   24.34    7.55
 -27   9  -6   87.42   13.06
 -27  18   6   53.45   10.74
  18   9   6   66.93    8.32
 -27  18   9    8.78    7.63
  18   9   9    1.73    5.78
 -27   9 -12    4.81    7.78
 -27  18  12   -1.12    5.31
  18   9  12    7.12    4.74
 -27   9 -15   -6.62    4.47
 -28  18 -13    6.16    4.39
  18  10 -13   13.79    4.62
 -28  18 -10    7.09    7.20
  18  10 -10    8.13    6.08
 -28  18  -7   39.67    9.51
  18  10  -7   53.07    8.24
 -28  10   4   32.50    7.59
 -28  18  -4   40.32   11.13
  18  10  -4   18.79    7.55
 -28  10   1  119.04   12.29
  18  10  -1  109.99   10.59
 -28  18   2   84.80   12.13
 -28  10  -2   97.63   12.63
  18  10   2   78.14    8.93
 -28  18   5  257.22   19.64
  18  10   5  224.33   17.95
 -28  18   8   -5.70    7.78
  18  10   8   -0.62    5.24
 -28  18  11   -0.15    5.55
 -28  10 -11    7.12    7.93
 -28  10 -14   -5.97    4.74
 -29  18 -14    3.58    2.62
 -29  18 -11   17.02    5.93
  18  11 -11   10.78    4.97
 -29  18  -8   12.86    8.32
  18  11  -8    8.13    5.78
 -29  18  -5   17.91   10.28
 -29  11   5    8.16    6.59
  18  11  -5   11.17    6.89
 -29  11   2   20.14    8.86
  18  11  -2   25.22    7.20
 -29  11  -1  486.74   29.96
 -29  18   1  399.59   29.88
  18  11   1  402.67   28.58
 -29  18   4  198.60   17.45
  18  11   4  190.51   15.29
 -29  18   7    7.47    8.09
  18  11   7    3.66    4.97
 -29  18  10   11.13    5.78
 -29  11 -10    5.85    8.51
 -29  11 -13   12.52    5.16
 -30  18 -12   19.02    4.66
 -30  18  -9   15.02    7.32
  18  12  -9   21.41    4.89
 -30  18  -6   11.63    9.55
 -30  12   6   11.25    5.47
  18  12  -6   20.18    5.89
 -30  12   3    4.35    7.89
  18  12  -3    5.01    6.12
  18  12   0  207.96   15.75
 -30  12   0  228.60   17.87
 -30  18   0  235.65   18.29
 -30  12  -3   24.53   11.32
 -30  18   3   23.65   10.17
 -30  18   6   36.74    8.55
 -30  12  -6   50.26   11.21
 -30  18   9    5.82    5.78
 -30  12 -12    0.50    5.20
 -31  18 -10    9.32    5.58
 -31  18  -7   22.49    8.28
 -31  13   4    9.51    7.05
 -31  18  -1   86.00   12.82
 -31  13   1  105.87   11.51
 -31  13  -2   45.91   10.82
 -31  18   2   42.59   10.63
 -31  13  -5  130.90   13.63
 -31  18   5  113.41   11.55
 -31  18   8    7.43    5.70
 -31  13 -11    7.51    5.43
 -32  18 -11    8.20    3.85
 -32  18  -8    3.81    6.59
 -32  14   5   21.76    5.58
 -32  18  -2   44.71   10.94
 -32  14   2   63.50    8.82
 -32  14  -1   81.22   11.32
 -32  18   1   79.06   11.44
 -32  14  -4   34.62   10.21
 -32  18   4   22.68    8.24
 -32  18   7   15.02    5.66
 -32  14 -10    2.70    5.28
 -33  18  -9   14.25    5.01
 -33  18  -3   35.31    9.32
 -33  15   3   24.45    6.59
 -33  18   0   69.13   10.86
 -33  15   0   93.35   10.24
 -33  15  -3   -2.43    9.09
 -33  18   3   -2.12    7.70
 -33  15  -6   66.05    8.55
 -33  18   6   43.06    6.32
 -33  15  -9   10.71    5.20
 -34  18 -10   12.75    3.08
 -34  18  -7    9.59    5.55
 -34  18  -4   13.90    7.36
 -34  16   4    8.20    4.58
 -34  16   1   53.57    7.93
 -34  18  -1   65.47    9.17
 -34  16  -2   28.42    8.05
 -34  18   2   27.15    7.32
 -34  18   5   23.49    5.01
 -34  16  -5   13.36    7.12
 -35  18  -8    3.35    3.47
 -35  18  -5   27.92    6.08
 -35  17   2   35.43    5.62
 -35  18  -2   33.66    7.12
 -35  18   1   38.40    6.66
 -35  17  -1   45.29    7.12
 -35  18   4    6.51    4.12
 -35  17  -4    4.97    5.97
 -36  18   0   50.22    5.78
 -36  18  -3    4.74    4.81
  19  -9 -20    0.77    3.66
 -10  19 -20    8.66    5.01
  19  -9 -17   -2.31    5.70
  19  -9 -14   -6.74    6.70
  19  -9 -11   40.67    6.82
  19  -9  -8   75.33    7.63
  -9  19   8   86.88   11.05
  -9  19   8   87.96    9.13
  19  -9  -5  258.29   17.18
  -9  19   5  266.23   18.41
 -10  19  -5  241.70   17.33
  -9  19   5  247.24   17.52
  19  -9  -2   61.89    5.62
  -9  19   2   49.18    6.66
 -10  19  -2   42.32    5.39
 -10  19  -2   54.42    5.85
  -9  19   2   57.84    6.20
  19 -10  -1  609.74   38.74
 -10  19   1  604.08   39.01
  -9  19  -1  545.05   38.78
  -9  19  -1  582.98   38.78
 -10  19   1  629.66   38.86
  19 -10  -4  198.41   13.44
 -10  19   4  195.52   14.33
 -10  19   4  198.29   13.90
  -9  19  -4  183.93   13.75
  19 -10  -7  216.32   15.60
 -10  19   7  243.47   17.18
 -10  19   7  239.85   16.33
  -9  19  -7  216.20   15.94
  19 -10 -10   54.72    6.93
  -9  19 -10   56.19    7.86
  19 -10 -13   15.94    6.55
  19 -10 -16    0.89    5.78
  19 -10 -19   11.32    4.27
  -9  19 -22    5.39    2.46
  19 -11  21   11.13    4.93
  19  -8 -21    1.81    2.85
  19  -8 -21    2.23    2.08
 -11  19 -21    4.12    3.58
  19  -8 -18    5.58    5.78
 -11  19 -18   -7.93    6.32
  19  -8 -15   13.48    7.24
 -11  19 -15    8.05    8.05
  19  -8 -12   21.80    6.62
  19  -8  -9    8.16    5.93
  19  -8  -6  259.37   18.87
  19 -11   6  276.28   19.26
  19  -8  -6  273.51   18.75
  -8  19   6  311.59   20.18
  -8  19   6  273.27   19.14
  19  -8  -3    6.93    4.47
  19 -11   3    1.93    5.12
  19  -8  -3    5.70    4.24
  -8  19   3    7.01    5.70
 -11  19  -3    1.04    3.89
 -11  19  -3    5.47    4.74
  -8  19   3    3.04    4.97
  19 -11   0  574.58   35.85
  19  -8   0  574.01   35.82
  19 -11   0  542.20   35.58
 -11  19   0  512.77   35.74
  -8  19   0  502.84   35.74
  -8  19   0  563.03   35.66
 -11  19   0  544.89   35.70
  19 -11  -3  238.46   16.33
  19  -8   3  248.36   16.52
  19 -11  -3  234.26   15.98
 -11  19   3  241.00   16.91
  -8  19  -3  231.87   16.21
 -11  19   3  229.60   16.48
  19 -11  -6  475.57   34.12
  19 -11  -6  527.60   33.93
  19  -8   6  586.52   34.43
 -11  19   6  572.54   34.93
  -8  19  -6  472.61   34.08
 -11  19   6  509.69   34.31
  19 -11  -9   17.87    5.28
  -8  19  -9   22.22    6.62
 -11  19   9   16.94    7.66
  19 -11 -12    1.39    5.78
  -8  19 -12    2.89    7.16
  19 -11 -15   -0.96    6.12
  -8  19 -15   19.76    8.16
  19 -11 -18   -0.89    4.78
  19  -8  21    0.65    4.70
  19 -12  22   -1.16    3.27
 -12  19 -22    0.54    2.12
  19  -7 -19    1.35    5.16
 -12  19 -19   16.87    5.35
  19  -7 -16   35.08    7.66
 -12  19 -16   31.81    8.09
  19  -7 -13   22.84    7.89
 -12  19 -13   37.66    7.82
  19  -7 -10   77.41    8.16
 -12  19 -10   54.84    7.93
  19  -7  -7   74.25    7.82
  19  -7  -7   82.34    7.74
  -7  19   7   70.28   10.32
  -7  19   7   82.91    8.01
  19 -12   4   60.27    6.66
  19  -7  -4   64.74    6.35
  19  -7  -4   55.11    5.93
  -7  19   4   47.48    8.32
 -12  19  -4   51.53    5.74
  -7  19   4   60.81    6.47
  19  -7  -1  290.91   18.49
  19 -12   1  279.86   18.49
  19  -7  -1  258.25   18.33
 -12  19  -1  256.79   18.41
  -7  19   1  251.71   18.49
  -7  19   1  285.48   18.33
  19 -12  -2  150.46   10.67
  19  -7   2  142.34   10.74
  19 -12  -2  147.46   10.17
 -12  19   2  144.84   11.21
  -7  19  -2  138.41   10.47
 -12  19   2  138.18   10.82
  19 -12  -5  417.04   28.00
  19  -7   5  454.70   28.23
  19 -12  -5  406.41   27.73
 -12  19   5  438.60   28.58
 -12  19   5  438.83   28.15
  -7  19  -5  399.32   27.92
  19 -12  -8    6.97    4.66
 -12  19   8   11.82    6.70
  -7  19  -8   10.05    5.47
  19 -12 -11   64.58    7.20
 -12  19  11   65.24   11.86
  -7  19 -11   67.78    8.40
  19 -12 -14   21.80    6.05
  -7  19 -14   36.74    8.59
  19 -12 -17   -8.74    5.16
  -7  19 -17   -4.39    7.66
  -7  19 -20    1.66    5.08
  19  -6 -20    1.93    4.24
  19  -6 -20    3.66    2.43
 -13  19 -20    0.04    4.08
  19  -6 -17   19.18    7.16
 -13  19 -17   11.48    6.74
  19  -6 -14   12.21    7.66
 -13  19 -14    4.12    7.82
  19  -6 -11   14.10    7.47
 -13  19 -11    2.97    6.97
  19  -6  -8   20.56    6.43
 -13  19  -8   27.69    6.51
  -6  19   8   24.11    6.43
  19 -13   5  113.84    9.70
  19  -6  -5  117.77    9.51
  19  -6  -5  123.27    9.47
 -13  19  -5  102.67    9.09
  -6  19   5  131.05   11.01
  -6  19   5  123.12    9.51
 -13  19  -5  117.81    9.74
  19 -13   2   74.29    7.09
  19  -6  -2   85.03    6.85
  19  -6  -2   69.74    6.97
  -6  19   2   75.79    7.78
 -13  19  -2   66.08    6.97
 -13  19  -2   70.59    7.24
  -6  19   2   75.37    6.82
  19  -6   1  221.09   14.83
  19 -13  -1  207.04   14.67
  19 -13  -1  207.81   14.25
 -13  19   1  216.47   15.02
  -6  19  -1  207.04   14.63
  19  -6   4  637.74   39.36
  19 -13  -4  601.77   39.20
  19 -13  -4  576.01   38.93
 -13  19   4  629.81   39.67
  -6  19  -4  576.09   39.13
  19 -13  -7  172.64   12.29
  19 -13  -7  167.41   11.78
 -13  19   7  151.77   12.94
  -6  19  -7  157.51   12.13
  19 -13 -10   35.43    5.78
 -13  19  10   36.32   10.67
  -6  19 -10   32.70    6.89
  19 -13 -13   22.76    5.82
  -6  19 -13   22.11    8.32
  19 -13 -16   16.14    5.31
  -6  19 -16   22.84    8.32
  -6  19 -19    2.73    5.85
  19  -6  22    5.43    2.70
  -6  19 -22    2.58    2.27
  19  -5 -21    5.16    3.16
  19 -14  21    3.97    4.54
 -14  19 -21   -0.15    2.77
  19  -5 -18    4.66    6.35
 -14  19 -18    0.85    5.70
  19  -5 -15   45.87    9.17
 -14  19 -15   62.27    8.55
  19  -5 -12   59.00    9.09
 -14  19 -12   63.62    8.43
  19  -5  -9  201.61   16.33
 -14  19  -9  234.07   16.25
  19 -14   6  430.17   28.54
  19  -5  -6  410.64   28.27
  19  -5  -6  432.02   28.34
 -14  19  -6  402.59   28.11
  -5  19   6  435.52   28.34
 -14  19  -6  443.42   28.50
  19 -14   3   20.87    5.28
  19  -5  -3   16.06    4.74
  19  -5  -3   12.98    5.12
  -5  19   3    9.63    6.12
 -14  19  -3   15.29    5.51
 -14  19  -3   16.02    5.24
  -5  19   3   21.14    4.58
  19  -5   0   91.04    7.47
  19 -14   0   94.08    7.78
  19 -14   0   85.53    6.85
  -5  19   0   85.34    7.63
 -14  19   0   85.03    8.13
 -14  19   0   82.03    8.01
  -5  19   0  101.28    7.39
  19 -14  -3   15.21    4.54
  19  -5   3   20.30    4.97
  19 -14  -3   31.31    3.43
 -14  19   3   24.80    7.09
  -5  19  -3   20.80    4.70
  19  -5   6  289.45   19.18
  19 -14  -6  277.63   18.60
  19 -14  -6  270.81   18.91
  -5  19  -6  268.23   18.79
  19 -14  -9   53.88    5.85
 -14  19   9   48.79   10.55
  -5  19  -9   55.30    7.24
  19 -14 -12  108.60    9.78
 -14  19  12  136.48   14.44
  -5  19 -12  142.14   11.13
  19 -14 -15   22.45    5.43
  -5  19 -15   30.19    8.47
  -5  19 -18   -0.08    6.82
  19  -5  21    3.50    3.93
  -5  19 -21   -0.42    3.31
  19  -4 -19    7.43    5.20
 -15  19 -19   -3.66    4.39
  19  -4 -16   60.46    9.01
 -15  19 -16   64.81    8.24
  19  -4 -13   40.94    8.93
 -15  19 -13   26.65    8.32
  19  -4 -10   80.80   10.17
 -15  19 -10   97.12    9.36
  19 -15   7   85.69    8.86
  19  -4  -7   87.65    8.86
 -15  19  -7   90.85    8.13
  -4  19   7   91.81    8.55
 -15  19  -7   97.43    9.32
  19  -4  -4   38.43    5.43
  19 -15   4   41.01    6.05
  19  -4  -4   33.66    5.70
 -15  19  -4   27.92    6.01
  -4  19   4   31.39    5.47
 -15  19  -4   38.67    6.35
  19  -4  -1   56.26    5.70
  19 -15   1   45.17    6.01
  19  -4  -1   47.45    6.08
 -15  19  -1   44.21    6.97
  -4  19   1   50.37    5.43
 -15  19  -1   43.83    6.08
  19 -15  -2  246.59   16.52
  19  -4   2  237.96   16.52
 -15  19   2  270.04   17.45
  -4  19  -2  229.45   16.33
 -15  19   2  231.49   16.64
  19  -4   5  420.00   27.38
  19 -15  -5  415.73   27.15
 -15  19   5  413.15   27.92
  -4  19  -5  395.62   27.11
 -15  19   5  398.51   27.42
 -15  19   8   65.89   10.17
  -4  19  -8   63.31    6.97
 -15  19  11  142.64   14.71
  -4  19 -11  133.67   11.59
  -4  19 -14    3.58    8.24
  -4  19 -17    7.28    7.43
  19  -4  20    6.62    5.08
  -4  19 -20    7.70    4.20
  19 -16  20    1.50    5.28
  19  -3 -20    3.62    4.24
 -16  19 -20    6.47    3.00
  19  -3 -17   28.61    7.63
 -16  19 -17   24.69    5.97
  19  -3 -14    8.47    8.40
 -16  19 -14   10.90    7.51
  19  -3 -11   11.90    8.40
 -16  19 -11   19.02    7.36
  19  -3  -8  110.57   10.67
  19 -16   8  105.98   10.28
 -16  19  -8  114.96    9.78
 -16  19  -8  137.18   10.90
  19 -16   5  135.44   10.74
  19  -3  -5  129.13   10.47
  19  -3  -5  128.09   10.86
 -16  19  -5  141.84   11.05
  -3  19   5  139.10   10.32
 -16  19  -5  149.31   11.17
  19  -3  -2  260.45   17.56
  19 -16   2  243.51   17.60
 -16  19  -2  259.87   18.14
  -3  19   2  264.65   17.37
 -16  19  -2  250.63   17.83
  19  -3   1  574.82   36.01
  19 -16  -1  554.83   35.93
 -16  19   1  554.37   36.28
 -16  19   1  522.13   36.05
  -3  19  -1  532.95   35.78
  19  -3   4  361.77   24.18
  19 -16  -4  351.80   23.95
 -16  19   4  372.32   24.88
  -3  19  -4  350.49   23.88
 -16  19   4  371.21   24.30
  19  -3   7   19.41    6.05
 -16  19   7   20.03    8.66
  -3  19  -7   23.45    5.31
 -16  19   7   26.96    6.85
 -16  19  10  107.79   13.13
  -3  19 -10  114.15   10.09
  -3  19 -13   40.63    8.16
  -3  19 -16   34.31    8.01
  19  -3  19    3.27    6.01
  -3  19 -19    5.04    5.08
  19  -2 -21    3.00    2.81
  19 -17  18    4.43    7.05
  19  -2 -18    2.62    6.01
 -17  19 -18    1.69    4.27
  19  -2 -15   52.18    9.47
 -17  19 -15   38.82    7.12
  19  -2 -12   28.54    9.51
 -17  19 -12   21.57    8.05
  19 -17   9   59.08    8.20
 -17  19  -9   76.37    7.86
 -17  19  -9   81.57    8.90
  19 -17   6  350.18   24.57
  19  -2  -6  359.69   24.45
 -17  19  -6  384.38   24.80
  -2  19   6  346.21   24.22
 -17  19  -6  392.08   24.96
  19  -2  -3    6.43    4.62
  19 -17   3    6.05    4.81
 -17  19  -3    4.66    6.28
 -17  19  -3    5.62    5.74
  -2  19   3   -1.39    4.31
  19  -2   0  695.09   44.02
  19 -17   0  668.51   43.98
 -17  19   0  654.76   44.29
  -2  19   0  677.33   43.83
 -17  19   0  659.39   44.02
  19  -2   3   82.45    7.82
  19 -17  -3   85.07    7.51
 -17  19   3   91.81    9.51
 -17  19   3   81.60    8.24
  -2  19  -3   86.34    7.32
  19  -2   6   60.12    7.24
  19 -17  -6   63.12    6.55
  -2  19  -6   64.66    6.55
 -17  19   6   69.70    7.89
  19  -2   9   38.05    7.36
 -17  19   9   49.06   10.59
  -2  19  -9   39.97    6.78
 -17  19  12   72.48   12.09
  -2  19 -12   58.23    8.55
  -2  19 -15   27.57    7.97
  19  -2  18    2.97    6.35
  -2  19 -18    2.54    5.66
  -2  19 -21    0.42    2.16
  19  -1 -19   -3.35    4.89
  19 -18  19    4.35    5.24
 -18  19 -19   -3.08    3.00
 -18  19 -16   36.70    6.20
 -18  19 -13   30.54    7.89
  19 -18  10  220.01   17.60
 -18  19 -10  229.56   17.29
  19 -18   7   38.90    6.82
 -18  19  -7   38.67    7.63
 -18  19  -7   56.65    8.05
  19 -18   4  188.78   14.79
  19  -1  -4  204.65   14.67
 -18  19  -4  217.90   15.52
 -18  19  -4  232.26   15.25
  19 -18   1  921.49   59.04
  19  -1  -1  891.11   59.04
  19  -1  -1  912.87   59.19
 -18  19  -1  941.83   59.38
 -18  19  -1  893.88   59.11
  -1  19   1  897.73   58.84
  19  -1   2   83.49    7.32
  19 -18  -2   77.06    6.89
 -18  19   2   82.22    9.63
  -1  19  -2   68.51    6.47
 -18  19   2   78.02    7.66
  19  -1   5   92.54    8.97
  19 -18  -5  102.79    8.43
 -18  19   5  102.48    9.59
  -1  19  -5  105.37    8.36
  19  -1   8   80.53    8.01
 -18  19   8   56.88   10.78
  -1  19  -8   73.67    7.47
 -18  19   8   51.68    9.24
  19  -1  11   11.21    7.16
 -18  19  11    6.12   10.98
  -1  19 -11    7.93    6.51
  -1  19 -14    4.35    7.28
  19  -1  17    9.67    7.20
  -1  19 -17   14.87    5.74
  19  -1  20    8.90    3.23
  -1  19 -20    1.23    2.93
  19 -19  17    3.89    6.55
 -19  19 -17    6.82    4.27
  19 -19  14   -3.35    7.28
 -19  19 -14   -6.89    6.70
  19 -19  11   97.55   10.01
 -19  19 -11   93.27    9.59
  19 -19   8  107.68   10.40
  19   0  -8  115.03   11.75
 -19  19  -8  135.83   11.09
 -19  19  -8  134.10   11.36
  19 -19   5  187.16   13.17
  19   0  -5  166.33   13.02
  19   0  -5  177.65   13.71
 -19  19  -5  173.30   14.21
 -19  19  -5  193.56   13.63
  19 -19   2  419.00   26.96
  19   0  -2  400.48   26.92
  19   0  -2  420.96   27.27
 -19  19  -2  408.02   27.54
 -19   0   2  375.29   26.80
 -19  19  -2  416.11   27.07
  19 -19  -1  631.20   42.40
  19   0   1  635.47   42.52
  19   0   1  686.81   42.79
 -19  19   1  637.28   43.06
 -19  19   1  662.08   42.59
  19   0   4  322.11   22.30
  19 -19  -4  326.80   22.07
   0  19  -4  328.38   21.95
 -19  19   4  340.59   22.61
  19   0   7   35.78    6.82
 -19  19   7   46.37    9.86
   0  19  -7   45.13    6.01
 -19  19   7   40.90    7.82
  19   0  10    3.16    6.39
 -19  19  10   10.13   10.82
   0  19 -10   -6.39    5.93
  19   0  13   -9.28    7.28
 -19  19  13   -3.50   10.40
   0  19 -13   17.98    6.55
  19   0  16   23.80    7.55
   0  19 -16   31.35    6.55
  19   0  19    5.01    3.93
   0  19 -19   -0.62    3.43
  19 -20  18    5.74    4.62
 -20  19 -18    3.20    2.70
  19   1 -15   57.38    9.17
  19 -20  15   41.51    7.51
 -20  19 -15   50.26    6.39
  19   1 -12   21.53    9.13
  19 -20  12   16.29    6.59
 -20  19 -12    8.47    6.89
  19 -20   9  224.44   18.18
  19   1  -9  251.98   19.64
 -20  19  -9  278.63   18.68
 -20  19  -9  284.06   18.87
  19 -20   6  177.34   13.83
  19   1  -6  200.68   14.71
 -20  19  -6  176.61   14.87
 -20  19  -6  210.04   14.44
  19   1  -3    5.62    4.58
  19 -20   3    3.00    4.78
  19   1  -3   10.21    6.51
 -20  19  -3    6.51    7.82
 -20  19  -3   10.67    6.35
  19 -20   0  949.57   60.96
  19   1   0  893.76   61.00
  19   1   0  959.69   61.27
 -20  19   0  947.33   61.46
 -20   1   0  939.90   61.16
 -20  19   0  949.95   61.16
  19 -20  -3    6.66    4.24
  19   1   3    8.13    5.04
 -20  19   3   14.17    6.01
  19   1   6  438.45   29.73
 -20  19   6  472.57   30.81
 -20  19   6  469.37   30.12
   1  19  -6  427.47   29.31
  19   1   9   19.10    6.35
 -20  19   9   21.57    9.94
   1  19  -9   23.76    5.85
  19   1  12   -6.20    6.85
 -20  19  12   13.29   10.40
   1  19 -12    4.31    5.93
  19   1  15    5.58    6.89
   1  19 -15   10.17    5.89
  19   1  18    1.27    4.27
   1  19 -18    9.09    3.85
  19   2 -19   -0.15    3.81
  19   2 -16   30.04    7.09
  19 -21  16   27.23    5.66
 -21  19 -16   26.46    4.31
  19   2 -13   21.72    8.63
  19 -21  13   12.29    5.85
 -21  19 -13   22.80    6.20
  19 -21  10    1.96    5.55
  19   2 -10   11.32    9.20
 -21  19 -10   14.44    7.28
 -21  19 -10   20.33    7.20
  19 -21   7   38.47    6.12
  19   2  -7   26.96    8.55
 -21  19  -7   29.11    8.24
 -21  19  -7   37.43    6.97
  19 -21   4  254.87   18.91
  19   2  -4  273.70   19.60
 -21  19  -4  297.50   20.26
 -21  19  -4  302.66   19.45
  19 -21   1  705.56   45.79
  19   2  -1  673.17   45.79
  19   2  -1  724.78   46.17
 -21  19  -1  732.52   46.52
 -21   2   1  707.91   46.02
 -21  19  -1  685.92   46.02
  19   2   2  322.22   21.45
  19   2   2  303.20   20.72
  19 -21  -2  292.80   20.45
 -21  19   2  314.67   21.26
  19   2   5  480.04   34.81
 -21  19   5  576.51   35.31
 -21  19   5  566.57   35.93
  19   2   8  324.69   22.53
   2  19  -8  314.02   22.07
  19   2  11   24.84    6.62
 -21  19  11   20.60   10.21
   2  19 -11   21.10    5.70
  19   2  14    0.08    6.20
   2  19 -14   16.64    5.43
  19   2  17   10.05    4.27
   2  19 -17    2.85    3.74
  19   3 -17    5.70    5.28
  19   3 -14   15.33    8.47
  19 -22  14   19.33    5.08
 -22  19 -14   17.18    4.62
  19 -22  11   54.76    7.43
  19   3 -11   89.15   10.24
 -22  19 -11   73.86    8.43
 -22  19 -11   73.98    7.82
  19 -22   8   68.74    8.05
  19   3  -8   88.42   10.59
 -22  19  -8   99.78   10.24
 -22  19  -8  107.18    9.05
  19 -22   5   69.63    6.97
  19   3  -5   66.78    8.93
 -22  19  -5   69.94    9.74
 -22  19  -5   62.85    7.63
  19 -22   2  207.30   13.63
  19   3  -2  192.67   14.63
 -22   3   2  175.49   14.13
 -22  19  -2  184.54   15.37
 -22  19  -2  193.52   14.25
  19   3   1 1013.88   64.58
 -22   3  -1 1015.07   64.54
 -22  19   1  942.13   64.39
  19   3   4    8.63    4.74
 -22  19   4   15.91    9.13
 -22  19   4   13.17    7.39
  19   3   7   81.37    7.78
 -22  19   7   92.93   11.59
  19   3  10   78.02    8.36
   3  19 -10   85.88    7.47
  19   3  13    3.77    5.35
 -22  19  13    1.85    8.63
   3  19 -13    0.77    4.58
   3  19 -16    8.82    3.62
 -22   3 -19    1.46    2.31
  19   4 -18    2.00    3.74
  19   4 -15   17.18    7.01
  19   4 -12   23.18    8.63
 -23  19 -12   24.49    6.62
 -23  19 -12   25.38    5.20
  19   4  -9   13.25    9.05
 -23  19  -9   16.75    7.97
 -23  19  -9   21.60    5.89
  19   4  -6   84.61    9.63
 -23  19  -6   75.13   10.17
 -23  19  -6   69.01    7.78
  19   4  -3   25.22    7.63
 -23  19  -3   43.02    8.82
 -23   4   3   26.19    6.28
 -23  19  -3   34.35    6.05
  19   4   0  478.81   31.54
 -23  19   0  430.59   31.96
 -23   4   0  478.58   31.54
 -23  19   0  468.33   31.16
 -23  19   3  229.56   17.79
 -23   4  -3  281.55   19.33
 -23  19   3  227.33   19.29
  19   4   3  263.61   18.41
 -23  19   6  216.12   17.37
 -23  19   9   -1.50    9.70
 -23  19  12   25.38    8.55
 -23   4 -18    1.08    3.16
  19   5 -16   14.90    5.20
  19   5 -13   11.98    7.59
 -24  19 -13   15.71    5.12
  19   5 -10   99.05   10.17
 -24  19 -10   87.15    9.59
 -24  19 -10   78.99    7.47
  19   5  -7   16.56    8.09
 -24  19  -7   -4.54    8.74
 -24  19  -7   12.71    5.35
  19   5  -4   55.65    8.47
 -24   5   4   35.78    6.74
 -24  19  -4   49.79    9.51
 -24  19  -4   50.91    6.20
  19   5  -1  263.88   17.75
 -24  19  -1  244.66   18.72
 -24   5   1  244.04   17.83
 -24  19  -1  226.83   17.14
 -24   5  -2  145.57   13.25
 -24  19   2  127.63   11.40
  19   5   2  144.26   12.21
 -24  19   5   54.26   10.28
  19   5   5   40.67    8.86
 -24  19   8   49.56   10.36
 -24  19  11   85.96   10.67
 -24   5 -17   -1.54    3.77
  19   6 -17   -1.19    3.47
  19   6 -14    6.62    6.35
  19   6 -11   51.84    8.28
 -25  19 -11   52.99    7.66
  19   6  -8    2.00    8.13
 -25  19  -8    1.16    8.16
  19   6  -5   10.55    8.16
 -25   6   5    4.70    5.78
 -25  19  -5   18.99    9.36
 -25  19  -5   22.61    4.78
  19   6  -2   50.26    8.13
 -25  19  -2   45.10   10.24
 -25   6   2   44.79    8.09
 -25  19  -2   46.29    6.12
  19   6   1   85.84    9.51
 -25   6  -1   88.00   10.71
 -25  19   1   82.45    8.28
 -25  19   4   68.59   11.32
 -25   6  -4   91.62   11.71
  19   6   4   61.23    9.44
 -25  19   7  202.61   18.72
 -25   6  -7  289.18   20.33
 -25  19  10   64.01   10.05
 -25  19  13    6.16    6.08
 -25   6 -13    8.24    7.89
 -25   6 -16    0.54    4.43
  19   7 -15    7.24    4.70
  19   7 -12   40.74    7.47
 -26  19 -12   39.82    6.55
  19   7  -9   48.75    8.63
 -26  19  -9   61.00    8.93
  19   7  -6   42.02    8.90
 -26  19  -6   26.57    9.40
  19   7  -3   22.84    8.05
 -26  19  -3   16.33   10.32
 -26   7   3   24.76    7.43
  19   7   0   53.80    8.55
 -26   7   0   64.89   10.01
 -26  19   0   61.58    6.70
 -26   7  -3  257.22   18.87
 -26  19   3  197.29   18.60
  19   7   3  227.41   17.18
 -26  19   6  124.62   14.29
  19   7   6  154.74   12.90
 -26  19   9   21.91    8.78
  19   7   9    2.43    7.24
 -26  19  12   14.21    6.51
 -26   7 -12   34.27    8.55
 -26   7 -15    8.51    5.01
  19   7  15   -2.73    3.77
  19   8 -16    6.28    2.93
 -27  19 -13    7.12    4.58
  19   8 -13   11.01    5.43
 -27  19 -10   29.96    7.55
  19   8 -10   23.45    7.32
 -27  19  -7   15.44    9.05
  19   8  -7   25.38    7.78
 -27  19  -4   57.69   10.24
  19   8  -4   45.98    8.51
 -27   8   1   13.02    8.63
  19   8  -1   20.95    8.01
 -27   8  -2  135.83   13.32
 -27  19   2   95.78   13.52
  19   8   2  119.62   11.36
 -27  19   5  153.58   14.90
 -27   8  -5  186.89   16.21
  19   8   5  148.46   13.25
 -27   8  -8    9.36   11.75
 -27  19   8   14.63    8.82
  19   8   8    1.62    6.78
 -27  19  11   13.71    6.74
 -27   8 -11   33.16    8.78
  19   8  11   15.25    5.66
 -27   8 -14   10.78    5.43
  19   8  14   -4.35    3.47
  19   9 -14    1.39    3.81
 -28  19 -11   34.01    6.35
  19   9 -11   27.50    6.32
 -28  19  -8   18.79    8.36
  19   9  -8   23.57    7.09
 -28  19  -5   47.87   10.21
 -28   9   5   48.68    7.12
  19   9  -5   55.88    8.51
  19   9  -2  131.25   12.09
 -28   9   2  139.72   12.44
  19   9   1  138.22   11.82
 -28  19   1  117.38   14.44
 -28   9  -1  151.39   13.94
  19   9   4  269.85   21.91
 -28  19   4  308.40   23.30
  19   9   7    1.16    5.82
 -28   9  -7   14.10   11.67
 -28  19   7    9.97    8.82
  19   9  10    9.47    5.04
 -28  19  10   13.83    6.59
 -28   9 -13   11.55    5.74
 -28   9 -16    3.50    2.35
  19  10 -12   23.76    4.62
 -29  19 -12   27.96    5.08
  19  10  -9    7.74    5.93
 -29  19  -9   12.09    6.89
  19  10  -6   45.56    7.70
 -29  19  -6   51.10    9.59
  19  10  -3   31.12    7.89
 -29  10   3   24.84    7.74
  19  10   0  260.76   19.14
 -29  19   0  255.98   20.95
 -29  10   0  282.32   20.26
  19  10   3   72.75    8.40
 -29  19   3   77.45   11.98
  19  10   6   38.16    6.35
 -29  19   6   43.94    9.40
 -29  10  -6   53.11   11.67
  19  10   9    4.01    4.39
 -29  19   9    6.62    6.97
 -29  10 -12   16.37    6.16
 -29  10 -15    0.42    2.77
 -30  19 -13   -2.23    2.89
  19  11 -10    1.31    4.47
 -30  19 -10    8.93    6.01
  19  11  -7   11.90    5.89
 -30  19  -7   11.17    8.51
  19  11  -4   16.33    6.66
 -30  19  -4   28.54   10.21
 -30  11   4    7.32    6.82
  19  11  -1   30.23    6.74
 -30  19  -1   27.65   11.51
 -30  11   1   37.47    9.05
  19  11   2   32.62    6.35
 -30  19   2   45.40   11.05
 -30  11  -2   49.45   10.82
  19  11   5  107.79    9.67
 -30  19   5  131.21   12.48
 -30  19   8    6.62    6.82
 -30  11 -11    6.78    6.39
 -30  11 -14    1.58    3.16
 -31  19 -11   37.05    5.08
  19  12  -8   21.26    4.51
 -31  19  -8   25.19    7.16
  19  12  -5   16.98    5.39
 -31  19  -5   20.22    9.20
 -31  12   5   15.83    5.58
  19  12  -2   29.85    6.05
 -31  12   2   34.93    8.28
 -31  12  -1  200.60   16.29
 -31  19   1  182.97   16.79
 -31  12  -4  159.01   13.79
 -31  19   4  111.99   12.71
 -31  19   7    5.20    6.70
 -31  12  -7    7.70    9.13
 -31  12 -10    1.31    6.47
 -31  12 -13    0.39    3.27
 -32  19  -9   12.02    5.39
 -32  19  -6   10.09    7.89
 -32  13   3    4.74    6.62
 -32  13   0   50.64    9.44
 -32  19   0   48.83   10.86
 -32  13  -3    5.47    9.40
 -32  19   3    9.09    8.86
 -32  13  -6   43.44    9.17
 -32  19   6   27.88    6.97
 -32  19   9    4.16    3.66
 -32  13 -12    7.05    3.35
 -33  19 -10   13.63    3.85
 -33  19  -7    7.39    6.24
 -33  14   4    7.39    5.08
 -33  14   1   47.75    7.97
 -33  19  -1   53.92    9.94
 -33  14  -2   18.22    8.63
 -33  19   2   13.44    8.40
 -33  14  -5   74.75    9.13
 -33  19   5   40.90    7.32
 -33  19   8    0.62    3.39
 -33  14 -11   10.28    3.43
 -34  19  -8    7.59    4.51
 -34  15   2   60.69    6.82
 -34  19  -2   47.48    8.86
 -34  15  -1   30.54    7.66
 -34  19   1   36.24    8.05
 -34  15  -4    3.54    7.09
 -34  19   4   -5.66    5.78
 -34  15 -10    6.55    2.97
 -35  16   3    8.86    3.77
 -35  19  -3   10.24    6.55
 -35  19   0   18.06    6.78
 -35  16   0   24.99    5.93
 -35  19   3    2.39    5.08
 -35  16  -3    1.93    6.08
 -35  16  -6   34.31    5.55
 -35  16  -9    5.51    2.46
 -36  19  -4    5.82    4.58
 -36  17   1   34.12    4.43
 -36  19  -1   37.97    5.62
 -36  19   2    9.36    4.04
 -36  17  -2   15.48    4.70
 -36  17  -5   24.76    4.39
  20 -10   0 1094.91   66.66
 -10  20   0  932.70   66.66
 -10  20   0 1053.31   66.66
  20 -10  -3  141.91   10.36
 -10  20   3  141.49   11.36
 -10  20  -3  140.80   10.82
 -10  20   3  137.48   10.98
  20 -10  -6  279.59   19.49
 -10  20   6  305.74   20.83
 -10  20  -6  265.11   19.79
 -10  20   6  310.90   20.06
  20 -10  -9    5.24    6.08
 -10  20  -9    4.27    6.24
  20 -10 -12   26.34    6.66
  20 -10 -15   -1.31    6.16
  20 -10 -18    7.32    5.01
 -10  20 -21    5.85    3.20
  20 -11  22   -0.15    2.46
  20  -9 -19    5.31    4.35
 -11  20 -19    0.73    5.35
  20  -9 -16   10.90    6.35
 -11  20 -16    9.97    7.66
  20  -9 -13    3.47    6.85
  20  -9 -10    3.50    6.32
  20 -11   7  214.31   16.56
  20  -9  -7  191.52   16.17
  20  -9  -7  237.92   15.94
  -9  20   7  241.43   16.60
  -9  20   7  253.09   17.87
  20 -11   4  265.65   18.56
  20  -9  -4  281.75   18.33
  20  -9  -4  244.58   18.06
  -9  20   4  274.04   19.22
 -11  20  -4  261.07   18.33
  -9  20   4  272.77   18.37
  20  -9  -1  240.23   15.48
  20 -11   1  230.68   15.48
  20  -9  -1  236.77   15.21
  -9  20   1  202.57   15.60
 -11  20  -1  194.40   15.21
  -9  20   1  219.24   15.37
 -11  20  -1  208.65   15.33
  20 -11  -2   56.07    6.74
  20  -9   2   67.47    6.82
  20 -11  -2   57.73    5.66
  -9  20  -2   43.90    5.78
 -11  20   2   64.47    7.32
  -9  20  -2   59.50    6.24
 -11  20   2   64.20    6.62
  20  -9   5  505.19   32.00
  20 -11  -5  466.98   31.77
  20 -11  -5  468.37   31.50
 -11  20   5  497.79   32.50
  -9  20  -5  478.11   31.66
 -11  20   5  471.30   31.96
  20 -11  -8   96.35    8.47
 -11  20   8  100.28    9.90
 -11  20   8   80.72   11.75
  -9  20  -8   87.61    8.86
  20 -11 -11    5.70    6.05
  -9  20 -11    6.47    7.63
  20 -11 -14    3.08    6.20
  -9  20 -14    5.93    8.09
  20 -11 -17   19.14    5.62
  20  -9  20   -3.47    5.62
  20 -11 -20   -1.16    2.58
  20  -8 -20    3.62    3.62
  20 -12  20   11.36    5.74
 -12  20 -20    8.78    4.08
  20  -8 -17    8.59    6.51
 -12  20 -17   14.36    6.70
  20  -8 -14   -9.55    7.39
 -12  20 -14   -2.20    8.13
  20  -8 -11   12.29    7.12
 -12  20 -11   13.83    7.82
  20  -8  -8   15.02    6.28
  -8  20   8   24.42    7.24
  20 -12   5  230.14   16.64
  20  -8  -5  243.08   16.48
  20  -8  -5  224.52   16.21
  -8  20   5  228.79   17.37
  -8  20   5  237.69   16.68
  20  -8  -2   69.63    6.82
  20 -12   2   64.85    7.20
  20  -8  -2   68.97    6.59
  -8  20   2   60.04    7.59
 -12  20  -2   63.54    6.51
  -8  20   2   70.09    6.74
  20 -12  -1  355.26   22.14
  20  -8   1  355.11   22.14
  20 -12  -1  333.31   21.72
  -8  20  -1  267.57   21.76
 -12  20   1  311.67   22.26
  -8  20  -1  337.97   21.84
 -12  20   1  338.59   22.07
  20  -8   4  491.40   31.50
  20 -12  -4  486.74   31.39
  20 -12  -4  444.07   31.08
 -12  20   4  485.70   31.85
  -8  20  -4  463.13   31.23
 -12  20   4  492.13   31.50
  20 -12  -7  260.99   18.83
  20  -8   7  282.44   19.22
  20 -12  -7  261.30   18.45
 -12  20   7  277.74   19.37
 -12  20   7  293.30   20.22
  -8  20  -7  261.45   18.64
  20 -12 -10   28.46    5.82
 -12  20  10   24.72   11.67
  -8  20 -10   27.46    7.20
  20 -12 -13    7.70    5.97
  -8  20 -13   18.14    8.40
  20 -12 -16    3.43    5.28
  -8  20 -16    4.93    7.93
  20 -12 -19    7.16    3.31
  -8  20 -19   -9.70    5.62
  20  -7 -21    0.89    2.39
 -13  20 -21   -1.42    2.77
  20  -7 -18   -1.93    5.62
 -13  20 -18   10.82    5.97
  20  -7 -15   39.78    8.16
 -13  20 -15   45.56    8.20
  20  -7 -12   29.38    7.78
 -13  20 -12   27.80    8.01
  20  -7  -9   12.82    7.28
 -13  20  -9   22.26    7.39
  20 -13   6  238.65   17.48
  20  -7  -6  247.43   17.25
  20  -7  -6  240.73   17.14
  -7  20   6  263.30   17.41
  -7  20   6  237.84   18.60
 -13  20  -6  236.00   17.29
  20  -7  -3   17.25    5.08
  20 -13   3   17.91    5.78
  20  -7  -3   15.87    5.24
  -7  20   3   12.75    6.35
 -13  20  -3   11.86    5.08
  -7  20   3   10.71    5.55
  20  -7   0  282.09   17.68
  20 -13   0  271.31   17.72
  20 -13   0  252.13   17.29
  20  -7   0  258.14   17.68
  -7  20   0  227.52   17.56
 -13  20   0  250.17   17.91
  -7  20   0  257.29   17.60
  20  -7   3   24.49    5.39
  20 -13  -3   27.07    5.16
  20 -13  -3   17.91    3.89
 -13  20   3   22.91    6.59
  -7  20  -3   27.69    5.31
  20  -7   6  474.80   30.50
  20 -13  -6  464.75   30.23
  20 -13  -6  447.34   29.88
 -13  20   6  455.66   30.92
 -13  20   6  455.78   30.54
  -7  20  -6  433.44   30.15
  20 -13  -9   -4.20    5.16
  -7  20  -9    8.01    6.66
 -13  20   9   -3.74    7.74
  20 -13 -12   19.02    5.89
  -7  20 -12   19.72    7.86
  20 -13 -15   37.32    6.24
  -7  20 -15   44.06    8.51
  20 -13 -18   14.48    3.97
  -7  20 -18    8.05    6.51
  20  -7  21   -1.35    3.74
  -7  20 -21    4.39    3.08
  20 -14  19    3.16    6.55
  20  -6 -19  -12.02    4.89
 -14  20 -19   -0.50    4.43
  20  -6 -16   44.71    7.82
 -14  20 -16   52.88    7.86
  20  -6 -13    2.31    8.36
 -14  20 -13    9.74    7.66
  20  -6 -10    6.20    7.86
 -14  20 -10    8.93    7.78
  20 -14   7  107.72   10.67
  20  -6  -7  123.66   10.55
  20  -6  -7  119.73   10.17
  -6  20   7  126.93   10.59
 -14  20  -7  124.74   10.47
  20  -6  -4   61.35    6.78
  20 -14   4   60.96    7.12
  20  -6  -4   56.80    6.70
 -14  20  -4   52.22    6.51
  -6  20   4   58.42    8.90
 -14  20  -4   60.73    7.47
  -6  20   4   59.23    7.05
  20 -14   1  257.06   16.91
  20  -6  -1  267.42   16.75
  20  -6  -1  242.97   16.87
  20 -14   1  221.90   16.25
  -6  20   1  230.72   16.94
 -14  20  -1  228.60   16.94
  -6  20   1  258.22   16.68
 -14  20  -1  232.61   16.94
  20 -14  -2   62.16    6.62
  20  -6   2   57.81    6.74
  20 -14  -2   62.54    5.39
 -14  20   2   60.96    7.74
  -6  20  -2   57.11    6.32
  20  -6   5  753.16   45.71
  20 -14  -5  689.77   45.25
  20 -14  -5  734.52   45.56
 -14  20   5  675.75   45.94
  -6  20  -5  637.20   45.44
  20 -14  -8   22.26    5.08
  20  -6   8   31.08    7.09
  -6  20  -8   16.60    6.55
  20 -14 -11    5.35    4.97
 -14  20  11    2.00   11.44
  -6  20 -11   14.40    7.70
  20 -14 -14   28.00    5.43
  -6  20 -14   35.85    8.66
  20 -14 -17    5.16    4.08
  -6  20 -17   32.58    7.24
  20  -6  20   -3.47    4.89
  -6  20 -20   -3.70    4.24
  20 -15  20   -5.97    5.16
  20  -5 -20   -3.23    3.77
 -15  20 -20    0.31    3.04
  20  -5 -17   24.92    7.05
 -15  20 -17   36.05    6.35
  20  -5 -14   -2.50    8.51
 -15  20 -14    9.59    7.86
  20  -5 -11   50.45    9.55
 -15  20 -11   52.68    8.32
  20  -5  -8   75.40    8.74
  20 -15   8   65.43    8.74
 -15  20  -8   81.07    9.05
  20 -15   5  293.30   21.03
  20  -5  -5  300.96   20.83
  20  -5  -5  315.02   20.99
 -15  20  -5  277.74   20.87
 -15  20  -5  321.99   21.03
  -5  20   5  321.34   20.83
  20  -5  -2   54.15    6.51
  20 -15   2   57.50    6.59
  20  -5  -2   58.46    6.85
 -15  20  -2   55.42    7.20
  -5  20   2   62.12    6.24
 -15  20  -2   57.88    7.12
  20 -15  -1  145.53   10.71
  20  -5   1  139.37   10.78
 -15  20   1  144.69   11.86
 -15  20   1  141.61   11.17
  -5  20  -1  137.87   10.59
  20  -5   4  296.30   20.14
  20 -15  -4  297.00   19.91
 -15  20   4  279.51   20.68
  -5  20  -4  289.64   19.76
 -15  20   4  289.68   20.14
  20  -5   7  113.18   10.17
  20 -15  -7  110.14    9.55
  -5  20  -7  108.99    9.44
  20 -15 -10   26.30    5.20
 -15  20  10   45.94   11.28
  -5  20 -10   28.61    7.24
  20 -15 -13   12.05    5.01
  -5  20 -13    1.31    7.78
  -5  20 -16   15.40    7.82
  20  -5  19   -4.39    6.08
  -5  20 -19    9.70    5.08
  20  -4 -21   -2.31    2.43
  20 -16  21   -2.50    3.04
  20 -16  18   10.71    7.20
  20  -4 -18    7.63    6.16
 -16  20 -18    8.51    4.93
  20  -4 -15   60.85    9.63
 -16  20 -15   60.50    8.43
  20  -4 -12   30.27    9.51
 -16  20 -12   43.21    8.32
  20  -4  -9   30.69    8.63
  20 -16   9   27.54    7.82
 -16  20  -9   35.66    8.05
  20 -16   6  155.35   12.90
  20  -4  -6  177.07   12.75
  20  -4  -6  169.80   13.25
 -16  20  -6  166.44   12.82
  -4  20   6  162.86   12.55
 -16  20  -6  182.89   13.32
  20  -4  -3   45.21    6.01
  20 -16   3   41.51    6.12
  20  -4  -3   39.36    6.62
 -16  20  -3   43.56    6.89
  -4  20   3   45.25    6.12
 -16  20  -3   42.52    7.12
  20 -16   0  187.47   13.36
  20  -4   0  191.44   13.44
  20  -4   0  185.43   13.59
 -16  20   0  186.62   14.13
 -16  20   0  171.41   13.59
  -4  20   0  186.89   13.21
  20 -16  -3   52.95    6.12
  20  -4   3   42.63    6.32
 -16  20   3   50.10    8.40
  -4  20  -3   51.91    5.89
 -16  20   3   45.71    6.97
  20  -4   6  253.33   19.33
  20 -16  -6  272.23   19.06
 -16  20   6  280.01   19.76
  -4  20  -6  295.84   18.99
  20  -4   9   64.70    8.43
 -16  20   9   65.78   11.63
  -4  20  -9   68.93    8.09
 -16  20  12   12.71   11.78
  -4  20 -12   33.04    7.47
  -4  20 -15   15.67    7.89
  20  -4  18    9.51    7.16
  -4  20 -18   10.90    5.62
  -4  20 -21    0.89    2.23
  20 -17  19   -2.97    5.70
  20  -3 -19   -2.39    4.70
 -17  20 -19    2.50    3.47
  20  -3 -16   35.12    8.01
  20 -17  16   35.35    8.47
 -17  20 -16   39.32    6.74
  20  -3 -13   11.63    8.90
 -17  20 -13   11.71    7.63
  20  -3 -10   61.27    9.55
  20 -17  10   52.57    8.93
 -17  20 -10   58.23    9.13
  20 -17   7   31.77    6.74
  20  -3  -7   42.40    7.82
 -17  20  -7   31.31    6.70
 -17  20  -7   38.24    7.70
  20  -3  -4   69.24    7.05
  20 -17   4   75.21    7.47
  20  -3  -4   66.05    7.82
 -17  20  -4   61.93    8.13
 -17  20  -4   77.95    8.16
  -3  20   4   67.63    7.01
  20  -3  -1  490.94   33.00
  20 -17   1  510.66   33.04
 -17  20  -1  525.87   33.50
 -17  20  -1  489.59   33.16
  -3  20   1  490.25   32.85
  20 -17  -2  259.56   17.68
  20  -3   2  283.63   17.83
 -17  20   2  240.81   18.56
  -3  20  -2  240.81   17.48
 -17  20   2  257.37   18.06
  20 -17  -5  436.33   29.42
  20  -3   5  468.83   29.69
  -3  20  -5  429.44   29.31
 -17  20   5  443.18   29.88
  20  -3   8  348.02   24.26
 -17  20   8  377.18   24.42
 -17  20   8  369.24   25.46
  -3  20  -8  328.00   23.95
  20  -3  11    5.35    7.59
 -17  20  11    3.70   11.55
  -3  20 -11    5.62    7.51
  -3  20 -14    9.40    7.74
  20  -3  17   25.99    7.82
  -3  20 -17   17.56    6.59
  20  -3  20   -2.62    3.62
  -3  20 -20    6.05    3.20
  20 -18  20   -3.50    3.39
  20  -2 -20    1.04    3.43
  20  -2 -17   12.25    6.43
  20 -18  17   24.65    7.05
 -18  20 -17   19.02    5.04
  20  -2 -14   30.81    9.47
  20 -18  14   26.11    8.40
 -18  20 -14   30.81    7.16
  20 -18  11    0.35    7.51
 -18  20 -11   -3.93    7.97
  20 -18   8   59.04    7.93
 -18  20  -8   57.92    7.82
 -18  20  -8   65.55    8.78
  20 -18   5  539.00   36.05
  20  -2  -5  552.59   35.97
 -18  20  -5  559.53   36.35
  -2  20   5  493.79   35.78
 -18  20  -5  622.95   36.43
  20 -18   2  234.22   17.10
  20  -2  -2  262.49   17.10
 -18  20  -2  248.32   17.83
 -18  20  -2  244.28   17.45
  -2  20   2  240.62   16.83
  20 -18  -1  174.99   11.86
  20  -2   1  162.32   12.05
 -18  20   1  153.20   13.32
  -2  20  -1  151.46   11.63
 -18  20   1  161.98   12.32
  20  -2   4  484.04   30.46
  20 -18  -4  449.69   30.23
 -18  20   4  431.94   31.08
  -2  20  -4  453.16   30.12
 -18  20   4  456.32   30.65
  20  -2   7  420.93   29.00
 -18  20   7  439.22   29.19
 -18  20   7  459.28   30.04
  -2  20  -7  419.65   28.65
  20  -2  10   22.34    7.59
 -18  20  10   46.10   11.01
  -2  20 -10   41.01    7.39
  20  -2  13   10.13    7.97
 -18  20  13   23.49   11.05
  -2  20 -13    7.47    7.24
  20  -2  16   13.71    7.86
  -2  20 -16   20.49    6.74
  20  -2  19   -1.12    4.47
  -2  20 -19   -1.00    3.77
  20 -19  18    3.12    5.51
 -19  20 -18    0.77    3.23
  20 -19  15   25.53    7.28
 -19  20 -15   36.47    6.51
  20 -19  12   50.10    8.43
 -19  20 -12   54.53    8.70
 -19  20  -9  302.54   20.68
 -19  20  -9  338.17   21.03
  20 -19   6   84.34    9.09
 -19  20  -6  106.87   10.21
 -19  20  -6  107.48   10.17
  20  -1  -3    8.51    5.12
  20 -19   3    0.62    5.31
  20  -1  -3    1.58    6.59
 -19  20  -3    2.58    7.28
 -19  20  -3    4.54    6.70
  20  -1   0  912.17   58.46
  20 -19   0  937.78   58.42
  20  -1   0  917.79   58.73
 -19  20   0  920.61   58.92
  -1  20   0  833.88   58.19
 -19  20   0  911.06   58.58
  20 -19  -3   16.83    4.93
  20  -1   3   10.36    5.47
 -19  20   3   17.37    8.24
 -19  20   3    8.51    6.97
  -1  20  -3    8.63    4.27
  20  -1   6  428.82   29.31
 -19  20   6  456.28   29.77
 -19  20   6  436.45   30.19
  -1  20  -6  429.28   28.92
  20  -1   9   19.56    6.82
 -19  20   9   19.60   10.82
  -1  20  -9   13.79    6.39
  20  -1  12   32.81    8.01
 -19  20  12   45.29   11.51
  -1  20 -12   28.96    7.43
  20  -1  15    4.35    7.55
  -1  20 -15   15.56    6.32
  20  -1  18    3.43    5.12
  -1  20 -18   -1.54    4.31
  20 -20  16   12.90    6.24
 -20  20 -16    7.78    4.62
  20 -20  13    1.73    6.78
 -20  20 -13   -1.93    6.51
  20 -20  10   52.26    8.05
 -20  20 -10   56.19    8.09
 -20  20 -10   74.52    9.28
  20   0  -7  185.35   14.25
  20 -20   7  146.30   13.13
 -20  20  -7  167.02   14.06
 -20  20  -7  208.34   14.13
  20 -20   4  148.19   10.78
  20   0  -4  123.27   10.71
  20   0  -4  139.33   11.75
 -20  20  -4  126.20   12.40
 -20  20  -4  151.54   11.63
  20 -20   1  808.62   52.03
  20   0  -1  796.18   52.07
  20   0  -1  800.95   52.30
 -20  20  -1  824.48   52.57
 -20   0   1  740.41   51.99
 -20  20  -1  832.53   52.18
  20   0   2  162.63   11.90
  20 -20  -2  158.59   11.59
  20   0   2  163.44   12.75
 -20  20   2  153.85   13.59
 -20  20   2  140.91   12.55
  20   0   5 1412.16   91.31
 -20  20   5 1491.15   91.46
   0  20  -5 1359.94   91.00
  20   0   8   13.67    6.66
 -20  20   8   17.33   10.47
   0  20  -8   20.87    5.74
  20   0  11    9.09    7.01
 -20  20  11   -7.12   11.01
   0  20 -11    7.16    6.05
  20   0  14   -4.54    7.28
   0  20 -14   -0.39    6.05
  20   0  17    6.20    5.35
   0  20 -17   -1.73    4.51
  20 -21  17    8.24    4.51
  20   1 -17   13.44    5.51
 -21  20 -17    1.46    2.93
  20   1 -14   41.28    8.70
  20 -21  14   31.35    6.55
 -21  20 -14   30.12    5.93
  20 -21  11   24.15    6.55
  20   1 -11   28.34    9.63
 -21  20 -11   16.37    6.47
 -21  20 -11   23.76    7.39
  20 -21   8  209.73   16.37
  20   1  -8  245.35   17.91
 -21  20  -8  221.28   17.06
 -21  20  -8  250.67   17.06
  20 -21   5  325.76   22.95
  20   1  -5  328.42   23.53
 -21  20  -5  326.00   23.84
 -21  20  -5  369.44   23.34
  20 -21   2  180.27   12.32
  20   1  -2  171.99   12.32
  20   1  -2  175.26   13.21
 -21  20  -2  167.33   14.10
 -21   1   2  144.03   12.32
 -21  20  -2  165.14   13.09
  20   1   1  210.92   14.83
  20 -21  -1  205.73   14.67
  20   1   1  224.02   15.79
 -21  20   1  190.78   16.33
 -21  20   1  207.46   15.71
  20   1   4  688.08   45.64
  20 -21  -4  681.84   45.44
 -21  20   4  723.28   45.94
  20   1   7  561.30   36.97
 -21  20   7  612.94   38.05
   1  20  -7  536.69   36.59
  20   1  10   16.14    6.35
   1  20 -10   19.10    5.70
  20   1  13    2.77    6.66
 -21  20  13    4.27    9.40
   1  20 -13    6.97    5.58
  20   1  16    8.51    5.16
   1  20 -16    9.82    4.47
 -21   1 -19   -1.58    2.62
  20   2 -18   -9.28    4.39
  20   2 -15   27.23    7.59
  20 -22  15   18.14    5.20
 -22  20 -15   18.10    4.16
  20 -22  12    4.85    5.28
  20   2 -12    6.78    8.86
 -22  20 -12    1.35    5.74
 -22  20 -12    1.08    5.97
  20 -22   9    9.32    5.74
  20   2  -9   12.36    9.51
 -22  20  -9   22.45    7.70
 -22  20  -9    5.70    7.12
  20 -22   6   43.09    6.08
  20   2  -6   43.21    9.01
 -22  20  -6   33.81    9.01
 -22  20  -6   45.06    7.82
  20 -22   3   66.08    6.89
  20   2  -3   58.42    6.89
  20   2  -3   82.34    8.66
 -22  20  -3   65.05   10.13
 -22   2   3   52.61    6.78
 -22  20  -3   73.94    8.05
  20   2   0  287.95   19.91
  20 -22   0  302.35   19.87
  20   2   0  298.34   20.95
 -22  20   0  297.04   21.41
 -22   2   0  280.98   20.49
 -22  20   0  288.95   20.53
  20   2   3   82.41    9.51
  20 -22  -3   65.39    6.82
  20   2   3   64.81    7.16
 -22  20   3   71.71    8.82
  20   2   6  135.94   10.98
 -22  20   6  145.88   12.67
 -22  20   6  143.99   13.98
  20   2   9   35.20    6.32
 -22  20   9   32.58   10.55
   2  20  -9   30.12    5.28
  20   2  12   24.57    6.01
 -22  20  12   21.87    9.55
   2  20 -12   32.12    5.39
  20   2  15   -0.04    4.97
   2  20 -15    4.62    4.08
 -22   2 -18   -1.16    3.43
  20   3 -19    1.19    2.39
  20   3 -16    0.27    5.58
  20   3 -13    5.01    7.89
  20 -23  13    8.97    4.51
 -23  20 -13   -3.85    4.51
  20 -23  10   69.47    7.70
  20   3 -10   94.58   10.71
 -23  20 -10   87.15    9.55
 -23  20 -10  100.09    8.47
  20 -23   7   77.68    7.82
  20   3  -7   85.30   10.17
 -23  20  -7   84.96   10.32
 -23  20  -7   92.70    8.63
  20   3  -4  264.88   19.06
 -23  20  -4  251.21   19.53
 -23  20  -4  261.53   18.45
  20   3  -1   58.73    8.36
 -23  20  -1   50.06   10.01
 -23   3   1   55.76    7.66
 -23  20  -1   50.30    7.70
  20   3   2  307.93   20.64
 -23   3  -2  305.51   20.95
 -23  20   2  254.60   20.26
 -23  20   5  125.39   13.56
 -23  20   5  131.01   11.82
  20   3   8  106.10    9.47
 -23  20   8  129.44   12.79
  20   3  11   40.40    6.12
 -23  20  11   50.76   10.05
 -23   3 -17    1.73    4.16
  20   4 -17    3.43    4.04
  20   4 -14   16.44    6.66
  20   4 -11   49.10    9.24
 -24  20 -11   34.97    7.43
 -24  20 -11   50.56    5.85
  20   4  -8    9.20    9.13
 -24  20  -8   20.60    8.13
 -24  20  -8    3.77    5.93
  20   4  -5   49.76    8.86
 -24  20  -5   43.98    9.59
 -24  20  -5   50.53    6.85
  20   4  -2  202.18   14.87
 -24  20  -2  192.71   15.87
 -24   4   2  171.57   14.13
 -24  20  -2  189.01   13.98
  20   4   1  298.19   20.68
 -24   4  -1  294.07   20.56
 -24  20   1  266.88   19.83
  20   4   4   59.65    9.47
 -24   4  -4   52.18   11.28
 -24  20   4   53.65   10.71
 -24  20   4   42.48    8.32
 -24  20   7  193.63   16.64
 -24  20  10  128.51   13.13
 -24  20  13    6.89    7.39
 -24   4 -16    3.77    4.74
  20   5 -18    3.62    2.27
  20   5 -15    9.32    5.31
  20   5 -12   29.69    7.66
 -25  20 -12   14.75    5.70
  20   5  -9   41.71    9.24
 -25  20  -9   35.39    8.43
 -25  20  -9   61.27    5.74
  20   5  -6   68.47    9.55
 -25  20  -6   57.19    9.78
 -25  20  -6   58.11    6.66
  20   5  -3  139.41   11.51
 -25   5   3  103.02   10.17
 -25  20  -3  121.93   12.52
 -25  20  -3  118.34    9.70
  20   5   0  143.76   12.21
 -25   5   0  126.74   12.05
 -25  20   0  132.40   10.98
 -25   5  -3  177.69   15.44
 -25  20   3  151.04   15.40
 -25  20   3  160.36   13.21
  20   5   3  183.31   14.33
 -25  20   6  249.24   21.22
  20   5   6  270.58   20.45
 -25  20   9   14.56    9.40
 -25  20  12   45.91    8.24
 -25   5 -12   55.30    9.47
 -25   5 -15    1.77    5.43
  20   6 -16    5.70    3.70
  20   6 -13    2.81    6.12
 -26  20 -13    4.78    4.31
  20   6 -10   55.15    8.93
 -26  20 -10   64.04    8.16
  20   6  -7   24.30    8.93
 -26  20  -7   25.53    8.70
  20   6  -4  174.84   13.71
 -26   6   4  134.13   12.52
 -26  20  -4  177.42   14.63
 -26  20  -4  168.52   11.71
  20   6  -1   17.25    7.97
 -26  20  -1   19.41   10.13
 -26   6   1   14.40    8.01
 -26  20  -1   17.37    5.39
 -26  20   2  117.61   13.52
 -26  20   2   99.86    9.90
 -26   6  -2  134.63   12.90
  20   6   2  141.80   11.40
 -26  20   5   98.01   13.32
  20   6   5  112.11   11.67
 -26   6  -8    6.24   11.75
 -26  20   8    9.86    9.40
  20   6   8   14.90    7.89
 -26  20  11   46.14    8.47
 -26   6 -14   -0.65    5.93
  20   6  14    3.93    4.81
 -26   6 -17    1.50    2.43
  20   7 -14    2.35    4.51
 -27  20 -11   52.68    6.78
  20   7 -11   40.32    7.47
 -27  20  -8    9.55    8.13
  20   7  -8   -7.59    7.70
  20   7  -5  273.74   18.95
 -27  20  -5  232.26   19.53
  20   7  -2   73.25    9.59
 -27  20  -2   85.84   11.63
 -27   7   2   67.16    9.20
  20   7   1   38.93    8.32
 -27   7  -1   37.20   10.01
 -27  20   1   47.48    5.85
 -27  20   4  116.84   14.10
  20   7   4  138.87   12.21
 -27   7  -7   66.01   12.21
 -27  20   7   51.26    9.94
  20   7   7   28.42    8.01
 -27  20  10   42.32    8.13
  20   7  10   28.27    6.74
 -27   7 -13    8.93    6.43
  20   7  13   -2.35    4.70
 -27   7 -16    4.54    2.97
  20   8 -15   -0.12    2.85
 -28  20 -12   -2.77    4.78
  20   8 -12    9.28    5.08
 -28  20  -9   11.17    7.28
  20   8  -9   16.64    7.20
  20   8  -6  135.60   11.75
 -28  20  -6  107.56   12.48
  20   8  -3  212.62   15.52
 -28   8   3  183.12   15.10
 -28  20  -3  205.38   16.91
 -28   8   0   15.37    9.24
  20   8   0   26.61    7.74
 -28   8  -3  157.28   14.10
 -28  20   3  114.42   14.06
  20   8   3  133.44   11.67
 -28  20   6  102.90   11.98
  20   8   6  100.90    9.97
 -28  20   9    4.01    7.66
  20   8   9   -3.66    5.85
 -28  20  12    2.12    4.93
  20   8  12    6.85    4.04
 -28   8 -15   -0.15    3.39
  20   9 -13    4.01    3.70
 -29  20 -13    7.39    3.08
  20   9 -10   26.30    5.93
 -29  20 -10   24.15    6.20
  20   9  -7   56.42    8.16
 -29  20  -7   63.00    9.44
  20   9  -4   17.29    7.78
 -29  20  -4   22.80    9.78
 -29   9   4   24.65    6.39
  20   9  -1   21.60    7.74
 -29   9   1   23.38    8.59
  20   9   2   39.36    7.28
 -29   9  -2   40.13   10.55
 -29  20   2   35.66   11.25
  20   9   5  193.36   15.56
 -29  20   5  199.02   17.41
  20   9   8    3.58    4.97
 -29  20   8   13.94    7.82
 -29   9  -8   16.98    9.97
  20   9  11    4.93    3.54
 -29  20  11    2.50    5.20
 -29   9 -14    6.55    3.93
  20  10 -11    2.39    4.08
 -30  20 -11    9.97    4.58
  20  10  -8   28.96    6.05
 -30  20  -8   38.55    7.55
  20  10  -5   14.48    6.66
 -30  10   5   16.33    5.43
  20  10  -2   32.54    7.36
 -30  10   2   33.04    7.59
  20  10   1  131.44   11.75
 -30  10  -1  169.99   13.83
 -30  20   1  155.05   14.90
  20  10   4  179.73   13.94
 -30  20   4  172.80   16.14
  20  10   7   15.37    4.70
 -30  20   7   10.86    7.74
 -30  10  -7   15.44    9.97
 -30  20  10   11.21    5.20
 -30  10 -13    9.82    4.20
 -31  20 -12   -2.66    2.89
  20  11  -9    4.24    3.93
 -31  20  -9   14.25    5.78
  20  11  -6    2.66    5.04
 -31  20  -6   26.96    8.24
  20  11  -3   11.59    5.85
 -31  11   3   10.40    6.55
  20  11   0   85.34    8.93
 -31  11   0  103.33   10.94
 -31  20   0  115.88   12.44
  20  11   3   27.46    5.47
 -31  11  -3   50.99   10.09
 -31  20   3   32.93    9.67
 -31  20   6   39.05    8.28
 -31  11  -6   42.98    9.74
 -31  20   9   -4.78    5.08
 -31  11 -12   15.64    4.51
 -32  20 -10    9.47    4.24
 -32  20  -7   28.11    7.05
 -32  12   4   15.33    5.12
 -32  12   1   29.50    7.63
 -32  20  -1   42.48   10.24
 -32  12  -2   32.81    8.82
 -32  20   2   31.54    9.74
 -32  12  -5   74.94   10.17
 -32  20   5   61.93    8.97
 -32  20   8   11.63    5.16
 -32  12  -8   14.36    7.01
 -32  12 -11   15.17    4.51
 -33  20  -8   16.21    5.28
 -33  20  -5   30.31    7.82
 -33  13   2   24.26    6.24
 -33  20  -2   21.87    9.05
 -33  13  -1   18.99    7.59
 -33  20   1   17.48    8.82
 -33  13  -4   53.30    8.86
 -33  20   4   55.15    8.36
 -33  20   7    9.44    5.01
 -33  13  -7   11.44    6.74
 -34  20  -9    5.93    3.43
 -34  20  -6   17.10    5.85
 -34  14   3    3.39    4.31
 -34  20   0   49.49    8.51
 -34  14   0   40.59    7.12
 -34  14  -3    9.17    7.01
 -34  20   3   13.13    6.70
 -34  14  -6   17.75    6.08
 -34  20   6    3.31    4.47
 -35  20  -7   -0.58    3.89
 -35  15   1   21.95    5.08
 -35  20  -1   45.64    7.01
 -35  15  -2   12.48    5.78
 -35  20   2   -1.23    5.78
 -35  15  -5   18.52    5.51
 -35  20   5   13.09    4.04
 -36  20  -2   20.68    5.43
 -36  20   1   15.13    4.85
 -36  16  -1    6.35    4.20
 -36  16  -4   13.17    4.27
  21 -10 -20    0.19    2.43
 -11  21 -20   -4.35    3.85
  21 -10 -17   -3.89    5.58
  21 -10 -14   15.29    6.66
  21 -10 -11  134.48   11.55
  21 -10  -8   42.82    6.74
 -10  21   8   50.30   11.05
 -10  21   8   51.72    8.66
 -11  21  -8   32.58    7.63
  21 -10  -5  247.20   17.02
 -10  21   5  260.60   18.72
 -10  21   5  241.66   17.75
 -11  21  -5  237.81   17.25
  21 -10  -2  162.29   10.78
 -10  21   2  150.69   11.63
 -11  21  -2  116.26   10.63
 -11  21  -2  142.84   11.17
 -10  21   2  144.11   11.09
  21 -11  -1  303.04   18.95
 -10  21  -1  233.57   18.95
 -11  21   1  266.34   19.37
 -10  21  -1  288.95   19.14
 -11  21   1  304.51   19.22
  21 -11  -4  314.13   21.76
 -11  21   4  335.47   22.91
 -11  21   4  334.85   22.26
 -10  21  -4  321.95   22.11
  21 -11  -7  120.31    9.70
 -11  21   7  123.93   12.94
 -11  21   7  108.14   11.09
 -10  21  -7  113.11   10.01
  21 -11 -10   33.85    6.82
 -10  21 -10   24.34    7.89
  21 -11 -13   44.02    7.43
 -10  21 -13   47.91    8.78
  21 -11 -16    0.85    5.66
  21 -11 -19    3.16    3.20
  21 -12  21    4.43    3.66
 -12  21 -21    1.04    2.50
  21 -12  18    4.58    7.63
  21  -9 -18    3.70    4.70
 -12  21 -18   -0.15    5.51
  21  -9 -15   17.06    6.93
 -12  21 -15    4.16    8.09
  21  -9 -12   71.71    8.40
  21  -9  -9    5.82    6.55
  21 -12   6  226.44   16.14
  21  -9  -6  210.92   15.87
  21  -9  -6  217.82   15.56
  -9  21   6  221.28   16.25
  -9  21   6  206.88   17.33
  21  -9  -3  120.08    9.36
  21 -12   3  119.85    9.51
  21  -9  -3  111.80    8.82
 -12  21  -3   86.03    8.47
  -9  21   3  116.96   10.17
 -12  21  -3  102.59    9.36
  -9  21   3  101.86    9.24
  21 -12   0  237.23   15.83
  21  -9   0  239.35   15.79
  21 -12   0  225.71   15.37
  21  -9   0  223.63   15.64
  -9  21   0  191.63   15.56
 -12  21   0  204.03   15.71
  -9  21   0  226.06   15.56
 -12  21   0  225.94   15.83
  21 -12  -3  170.76   12.17
  21  -9   3  167.14   12.32
  21 -12  -3  156.86   11.44
 -12  21   3  145.26   12.79
  -9  21  -3  152.81   11.98
 -12  21   3  159.63   12.44
  21 -12  -6  179.58   13.36
  21  -9   6  190.67   14.25
  21 -12  -6  198.10   13.94
 -12  21   6  180.66   15.44
  -9  21  -6  182.66   13.67
 -12  21   6  181.43   14.44
  21 -12  -9   41.71    6.43
  21  -9   9   44.67    8.74
  -9  21  -9   38.90    7.86
  21 -12 -12   93.70    8.82
  -9  21 -12   84.26   10.09
  21 -12 -15   12.40    6.01
  -9  21 -15   24.80    8.01
  21  -9  18   -3.50    7.55
  21 -12 -18    9.74    3.89
  -9  21 -18   -4.35    6.20
  21  -9  21    5.97    3.39
  21 -13  19   -1.31    6.28
  21  -8 -19    3.58    4.12
 -13  21 -19    2.58    4.51
  21  -8 -16   23.61    6.70
 -13  21 -16   22.84    7.43
  21  -8 -13   63.20    8.78
 -13  21 -13   55.26    8.70
  21  -8 -10   55.80    8.16
 -13  21 -10   44.17    8.59
  21 -13   7  135.25   11.59
  21  -8  -7  121.50   10.90
  21  -8  -7  120.81   10.82
  -8  21   7  133.63   11.17
  21 -13   4  145.57   11.51
  21  -8  -4  141.72   10.90
  21  -8  -4  141.30   10.74
  -8  21   4  126.12   11.98
 -13  21  -4  122.39   10.36
  -8  21   4  147.81   11.01
  21  -8  -1   97.66    8.51
  21 -13   1   81.57    8.51
  21  -8  -1   91.16    8.16
  21 -13   1   90.08    7.51
  -8  21   1   77.48    8.47
 -13  21  -1   91.58    8.28
  -8  21   1   96.51    8.43
  21 -13  -2   39.70    6.28
  21  -8   2   31.04    6.16
  21 -13  -2   32.39    4.78
 -13  21   2   33.43    7.32
 -13  21   2   32.35    6.35
  -8  21  -2   38.09    5.89
  21  -8   5  505.11   31.69
  21 -13  -5  497.41   31.50
  21 -13  -5  471.88   31.16
 -13  21   5  486.36   32.12
  -8  21  -5  433.25   31.39
 -13  21   5  447.42   31.77
  21  -8   8  136.71   12.13
  21 -13  -8  130.13   10.59
 -13  21   8  139.95   12.36
  -8  21  -8  139.18   11.28
  21 -13 -11   94.43    9.01
  -8  21 -11  112.26   10.67
  21 -13 -14   53.61    7.16
  -8  21 -14   75.87    9.67
  21 -13 -17   10.98    4.43
  -8  21 -17   15.06    6.78
  21  -8  20    3.85    4.66
  -8  21 -20   -3.20    3.93
  21 -14  20    6.28    4.93
  21  -7 -20    0.96    3.16
 -14  21 -20    4.58    3.31
  21 -14  17    8.24    8.20
  21  -7 -17    4.39    6.01
 -14  21 -17    4.89    6.28
  21  -7 -14    6.62    7.63
 -14  21 -14    8.63    7.66
  21  -7 -11   81.87    9.90
 -14  21 -11   63.39    9.55
  21  -7  -8    4.70    7.16
  21 -14   8    9.05    7.74
 -14  21  -8    3.47    7.20
  -7  21   8    8.36    6.85
  21 -14   5  117.42   10.63
  21  -7  -5  129.71   10.13
  21  -7  -5  125.01   10.17
 -14  21  -5  103.67    9.51
 -14  21  -5  118.42   10.71
  -7  21   5  131.63   10.44
  21  -7  -2  195.91   13.25
  21 -14   2  172.84   13.32
  21  -7  -2  197.60   13.25
  -7  21   2  162.05   13.63
 -14  21  -2  162.75   13.13
  -7  21   2  174.72   13.13
  21  -7   1  110.64    8.90
  21 -14  -1  104.75    8.66
  21 -14  -1   88.34    7.59
 -14  21   1   89.11    9.44
  -7  21  -1   95.16    8.40
  21  -7   4  202.45   13.86
  21 -14  -4  185.32   13.52
  21 -14  -4  178.58   12.79
 -14  21   4  171.91   14.60
  -7  21  -4  178.61   13.25
  21  -7   7  228.64   16.75
  21 -14  -7  228.64   16.33
  21 -14  -7  221.82   15.71
 -14  21   7  222.82   17.06
 -14  21   7  253.90   18.18
  -7  21  -7  212.12   16.10
  21 -14 -10  129.17   10.51
 -14  21  10  142.57   14.98
  -7  21 -10  131.01   11.71
  21 -14 -13   14.90    5.82
  -7  21 -13   32.27    8.43
  21 -14 -16    5.20    4.58
  -7  21 -16   10.71    7.47
  21  -7  19    2.43    5.78
  -7  21 -19   -0.39    4.74
  21 -15  21    3.12    2.97
  21  -6 -18   -1.85    5.04
  21 -15  18   -2.81    7.24
 -15  21 -18    1.85    4.78
  21  -6 -15   26.42    8.01
 -15  21 -15   30.27    7.28
  21  -6 -12   90.19   10.63
 -15  21 -12   79.26   10.24
  21  -6  -9   17.21    8.01
  21 -15   9   25.30    8.47
 -15  21  -9   16.68    7.36
  21 -15   6   85.61    9.40
  21  -6  -6  104.83    8.86
  21  -6  -6   97.55    9.17
 -15  21  -6   76.02    8.16
  -6  21   6   89.81    9.09
 -15  21  -6   99.86    9.63
  21 -15   3  142.34   11.17
  21  -6  -3  147.04   11.01
  21  -6  -3  125.55   10.94
 -15  21  -3  132.40   11.01
 -15  21  -3  142.38   11.51
  -6  21   3  141.45   11.05
  21  -6   0   85.53    7.78
  21 -15   0   89.00    7.93
  21  -6   0   76.75    8.13
  21 -15   0   74.75    6.55
 -15  21   0   71.63    8.40
  -6  21   0   79.56    7.63
 -15  21   0   79.56    8.51
  21 -15  -3   30.54    5.97
  21  -6   3   34.81    6.32
  21 -15  -3   27.57    4.39
 -15  21   3   29.54    8.09
  -6  21  -3   30.08    5.55
  21  -6   6  566.54   36.28
  21 -15  -6  536.57   35.70
  21 -15  -6  546.55   36.01
 -15  21   6  560.22   36.97
  -6  21  -6  525.06   35.93
  21  -6   9  280.75   19.49
  21 -15  -9  263.30   18.22
  -6  21  -9  262.34   18.99
  21 -15 -12   70.36    7.28
  -6  21 -12   89.11    9.78
  -6  21 -15   14.83    8.16
  21  -6  18    4.97    6.70
  -6  21 -18    1.27    5.66
  -6  21 -21    1.93    2.12
  21 -16  19    1.16    5.58
  21  -5 -19   -5.70    4.20
 -16  21 -19   -0.19    3.54
  21  -5 -16   41.21    7.78
  21 -16  16   47.95    8.97
 -16  21 -16   45.06    7.05
  21  -5 -13   26.34    8.86
 -16  21 -13   26.88    8.01
  21  -5 -10   95.55   11.21
  21 -16  10   95.28   10.74
 -16  21 -10   87.46   10.55
  21 -16   7   16.75    7.36
  21  -5  -7   21.80    7.51
 -16  21  -7    5.85    5.62
 -16  21  -7   15.25    7.74
  -5  21   7   16.94    6.62
  21 -16   4  185.43   14.06
  21  -5  -4  188.24   13.79
  21  -5  -4  198.49   14.10
 -16  21  -4  167.25   13.98
 -16  21  -4  195.33   14.33
  -5  21   4  191.55   13.79
  21  -5  -1   98.70    8.63
  21 -16   1  100.40    8.66
  21  -5  -1   90.85    8.93
 -16  21  -1   96.70    9.40
  -5  21   1   94.24    8.51
 -16  21  -1   93.89    9.17
  21 -16  -2   46.21    6.16
  21  -5   2   42.94    6.51
 -16  21   2   51.57    7.78
 -16  21   2   35.66    7.24
  -5  21  -2   34.66    6.05
  21  -5   5  501.91   31.85
  21 -16  -5  463.44   31.58
 -16  21   5  445.88   32.31
  -5  21  -5  472.26   31.46
 -16  21   5  482.58   31.96
  21  -5   8  385.34   26.07
  -5  21  -8  369.71   25.57
  21  -5  11  186.97   15.29
 -16  21  11  199.83   17.72
  -5  21 -11  179.69   14.83
  21  -5  14   46.44    9.55
  -5  21 -14   51.14    9.09
  21  -5  17   17.75    8.05
  -5  21 -17   26.65    6.55
  21  -5  20   -0.35    3.62
  -5  21 -20    5.16    3.16
  21  -4 -20    5.20    3.04
  21 -17  20    2.08    3.74
 -17  21 -20   -1.96    2.08
  21  -4 -17   10.98    6.59
  21 -17  17   17.87    7.59
 -17  21 -17   13.71    5.12
  21  -4 -14   34.47    8.86
  21 -17  14   31.73    8.66
 -17  21 -14   16.06    7.32
  21  -4 -11   42.21    9.67
  21 -17  11   42.05    8.97
 -17  21 -11   55.34    9.05
  21  -4  -8    5.35    8.16
  21 -17   8   -7.51    7.39
 -17  21  -8    7.78    8.20
  21 -17   5  279.55   19.99
  21  -4  -5  285.83   19.60
  21  -4  -5  296.03   20.03
  -4  21   5  276.82   19.60
 -17  21  -5  272.85   19.99
 -17  21  -5  296.23   20.33
  21 -17   2  114.65    9.13
  21  -4  -2  103.86    8.93
  21  -4  -2  101.52    9.55
 -17  21  -2  102.79   10.28
 -17  21  -2   98.55    9.78
  -4  21   2   94.20    8.70
  21 -17  -1  363.85   23.84
  21  -4   1  360.19   23.95
  21  -4   1  349.49   24.15
 -17  21   1  345.60   24.45
  -4  21  -1  345.33   23.57
 -17  21   1  352.45   24.07
  21  -4   4  250.98   17.95
  21 -17  -4  240.35   17.72
 -17  21   4  268.46   19.06
  -4  21  -4  257.60   17.64
 -17  21   4  260.60   18.49
  21  -4   7  292.91   19.64
 -17  21   7  256.29   19.79
  -4  21  -7  272.97   19.06
  21  -4  10  182.04   14.25
 -17  21  10  178.81   16.52
  -4  21 -10  165.10   13.59
  21  -4  13   31.23    9.24
  -4  21 -13   38.78    8.55
  21  -4  16   19.72    8.28
  -4  21 -16   22.37    6.89
  21  -4  19   -2.43    4.70
  -4  21 -19   -3.81    4.04
  21  -3 -18    4.47    5.16
  21 -18  18   -0.27    5.78
 -18  21 -18   -0.62    3.74
  21  -3 -15   34.43    8.59
  21 -18  15   27.54    8.16
 -18  21 -15   30.58    6.66
  21  -3 -12   44.75    9.32
  21 -18  12   24.26    8.63
 -18  21 -12   41.86    8.43
  21  -3  -9  118.31   11.82
 -18  21  -9  123.58   11.01
  21  -3  -6   27.42    6.39
  21 -18   6   26.34    6.55
  21  -3  -6   35.05    7.86
 -18  21  -6   28.23    7.32
 -18  21  -6   28.88    8.24
  -3  21   6   24.61    5.66
  21  -3  -3   15.79    5.78
  21 -18   3   22.41    5.89
 -18  21  -3   19.68    7.70
  -3  21   3   12.36    5.04
 -18  21  -3   15.10    6.93
  21  -3   0  256.29   17.06
  21 -18   0  253.09   16.98
 -18  21   0  240.69   17.91
  -3  21   0  223.36   16.64
 -18  21   0  241.62   17.45
  21  -3   3  276.16   19.45
  21 -18  -3  282.32   19.26
 -18  21   3  267.23   20.41
  -3  21  -3  278.43   19.10
 -18  21   3  290.14   19.79
  21  -3   6  284.79   19.91
  21 -18  -6  268.96   19.49
 -18  21   6  280.51   20.14
  -3  21  -6  289.72   19.41
  21  -3   9   73.25    9.55
 -18  21   9   97.59   12.75
  -3  21  -9   89.62    9.09
  21  -3  12   35.85    8.74
 -18  21  12   42.98   11.78
  -3  21 -12   47.52    8.28
  21  -3  15   13.63    8.28
  -3  21 -15   21.26    6.66
  21  -3  18    2.08    5.28
  -3  21 -18   -0.73    4.66
  21  -2 -19    0.58    3.77
  21 -19  19   -1.46    3.66
 -19  21 -19    2.20    2.08
  21  -2 -16   31.46    7.05
  21 -19  16   21.64    6.78
 -19  21 -16   23.53    5.24
  21  -2 -13   30.27    9.67
  21 -19  13   31.66    8.01
 -19  21 -13   21.84    7.24
  21 -19  10   18.72    7.39
 -19  21 -10    6.43    8.24
  21 -19   7   78.18    8.47
 -19  21  -7   75.87    9.36
 -19  21  -7   96.08   10.13
  21 -19   4  337.59   23.15
  21  -2  -4  342.21   23.07
 -19  21  -4  346.87   23.76
  -2  21   4  304.74   22.68
 -19  21  -4  399.51   23.61
  21 -19   1  698.40   42.59
  21  -2  -1  667.28   42.55
 -19  -2   1  585.02   42.36
 -19  21  -1  661.81   43.09
  -2  21   1  628.69   42.32
 -19  21  -1  687.61   42.79
  21  -2   2  410.14   27.07
  21 -19  -2  404.71   26.96
 -19  21   2  405.52   27.88
 -19  21   2  384.03   27.34
  -2  21  -2  404.71   26.77
  21  -2   5  255.33   19.26
  21 -19  -5  284.06   19.10
 -19  21   5  279.74   19.99
  -2  21  -5  279.17   18.95
  21  -2   8  306.62   23.03
 -19  21   8  350.95   24.49
  -2  21  -8  338.36   22.61
  21  -2  11  101.05   10.59
 -19  21  11   96.93   13.63
  -2  21 -11   93.54    9.74
  21  -2  14   10.09    7.43
  -2  21 -14    2.20    6.47
  21  -2  17   15.21    6.16
  -2  21 -17    2.62    4.78
  21  -1 -20    0.85    2.16
  21 -20  17    5.08    5.43
 -20  21 -17    5.51    3.47
  21 -20  14   17.98    7.20
 -20  21 -14   37.82    6.39
  21 -20  11   78.56    9.24
 -20  21 -11   91.81    9.70
  21 -20   8  205.15   16.17
 -20  21  -8  204.72   16.56
  21 -20   5  268.58   19.18
  21  -1  -5  262.88   19.10
 -20  21  -5  282.13   20.14
 -20  21  -5  296.19   19.76
  21 -20   2  204.07   15.13
  21  -1  -2  213.97   15.13
  21  -1  -2  211.70   15.83
 -20  21  -2  203.72   16.44
 -20  21  -2  211.89   15.67
  21  -1   1  427.40   27.92
  21 -20  -1  428.86   27.77
  21  -1   1  409.30   28.34
 -20  21   1  420.16   28.81
 -20  21   1  432.83   28.15
  -1  21  -1  392.97   27.50
  21  -1   4  510.54   33.62
  21 -20  -4  510.23   33.39
  -1  21  -4  487.74   33.12
 -20  21   4  517.55   33.85
  21  -1   7  432.25   29.88
 -20  21   7  479.04   31.08
 -20  21   7  424.93   30.27
  -1  21  -7  442.84   29.38
  21  -1  10   38.63    7.43
 -20  21  10   33.12   11.51
  -1  21 -10   38.05    7.05
  21  -1  13    4.31    7.20
 -20  21  13   25.42   10.13
  -1  21 -13   16.68    6.59
  21  -1  16    8.01    6.32
  -1  21 -16   13.36    5.20
 -20  -1 -19   -0.04    2.73
  21 -21  18    1.46    3.04
  21 -21  15    7.43    5.82
 -21  21 -15    0.89    4.62
  21 -21  12   20.26    6.85
 -21  21 -12   20.91    7.09
  21 -21   9   27.69    6.66
  21   0  -9   26.50    9.90
 -21  21  -9   24.92    7.63
 -21  21  -9   27.30    8.36
  21 -21   6   58.31    7.32
  21   0  -6   66.01    9.59
 -21  21  -6   53.53    9.28
 -21  21  -6   74.83    9.13
  21   0  -3   28.07    5.97
  21 -21   3   26.50    6.01
  21   0  -3   30.12    7.63
 -21  21  -3   30.12    9.28
 -21  21  -3   33.66    8.05
  21 -21   0  174.80   13.25
  21   0   0  187.63   13.25
  21   0   0  192.94   14.25
 -21   0   0  170.22   13.59
 -21  21   0  176.19   15.21
 -21  21   0  179.81   14.06
  21   0   3  151.81   12.21
  21 -21  -3  152.73   11.98
  21   0   3  188.05   13.56
 -21  21   3  155.39   14.44
 -21  21   3  161.36   13.36
  21   0   6  204.92   15.33
 -21  21   6  207.81   16.44
 -21  21   6  234.22   17.52
   0  21  -6  202.95   14.52
  21   0   9   32.39    7.24
 -21  21   9   43.32   11.13
   0  21  -9   36.78    6.12
  21   0  12   30.46    7.20
 -21  21  12   30.54   10.90
   0  21 -12   37.24    6.20
  21   0  15    5.20    6.01
   0  21 -15    5.04    4.78
   0  21 -18   -1.54    2.43
  21   1 -19   -0.96    2.70
  21   1 -16   -2.00    5.89
  21 -22  16   -0.42    4.12
 -22  21 -16   -4.01    3.12
  21   1 -13   12.36    8.05
  21 -22  13    0.27    5.66
 -22  21 -13    4.70    5.55
  21 -22  10   39.13    7.20
  21   1 -10   68.86   10.55
 -22  21 -10   57.65    7.93
 -22  21 -10   66.82    8.24
  21   1  -7  236.46   17.37
 -22  21  -7  216.16   17.02
 -22  21  -7  258.37   16.56
  21 -22   4  394.78   28.27
  21   1  -4  456.01   29.04
 -22  21  -4  412.30   29.35
 -22  21  -4  445.88   28.88
  21 -22   1  633.58   40.67
  21   1  -1  624.96   40.71
  21   1  -1  643.17   41.09
 -22   1   1  572.00   40.71
 -22  21  -1  601.31   41.51
 -22  21  -1  634.39   40.94
  21   1   2  463.90   29.88
  21 -22  -2  427.82   29.81
  21   1   2  452.12   30.65
 -22  21   2  467.49   31.12
 -22  21   2  440.91   30.27
  21   1   5  127.82   10.90
 -22  21   5  145.84   11.98
 -22  21   5  134.98   13.75
  21   1   8   15.17    6.32
   1  21  -8   16.79    5.04
  21   1  11   41.25    7.24
 -22  21  11   65.35   10.94
   1  21 -11   58.31    6.39
  21   1  14    5.97    5.47
   1  21 -14    1.77    4.51
  21   2 -17   -1.00    4.43
  21   2 -14    9.09    7.28
  21 -23  14   12.29    4.31
 -23  21 -14   -1.19    3.97
  21 -23  11   11.48    5.51
  21   2 -11   31.42    9.09
 -23  21 -11   21.03    6.35
 -23  21 -11   21.76    6.20
  21 -23   8   68.28    6.97
  21   2  -8   60.92   10.40
 -23  21  -8   71.21    9.47
 -23  21  -8   60.35    8.20
  21 -23   5   45.75    5.93
  21   2  -5   40.98    8.86
 -23  21  -5   45.13    9.28
 -23  21  -5   30.08    7.82
  21 -23   2  259.41   17.72
  21   2  -2  244.66   17.68
  21   2  -2  290.91   18.99
 -23  21  -2  253.09   19.49
 -23   2   2  227.75   17.83
 -23  21  -2  276.12   18.22
  21 -23  -1  156.97   11.78
  21   2   1  157.32   12.02
  21   2   1  165.02   13.90
 -23   2  -1  173.18   13.52
 -23  21   1  158.51   14.79
 -23  21   1  166.02   13.32
  21   2   4   74.71   10.59
  21   2   4   86.46    7.66
 -23  21   4   71.48    9.51
  21   2   7  148.11   11.63
 -23  21   7  164.25   14.71
  21   2  10   49.99    6.66
 -23  21  10   45.71   11.25
  21   2  13   -4.24    4.97
 -23  21  13   -6.20    8.09
   2  21 -13   -0.08    3.97
  21   3 -18    3.50    2.70
  21   3 -15   12.90    5.89
  21   3 -12   28.92    8.09
 -24  21 -12   36.43    5.82
 -24  21 -12   32.31    5.20
  21   3  -9   78.18   10.21
 -24  21  -9   60.46    8.93
 -24  21  -9   66.28    7.78
  21   3  -6  153.66   14.25
 -24  21  -6  157.97   14.29
 -24  21  -6  175.46   12.94
  21   3  -3   70.40    9.32
 -24  21  -3   45.17   10.17
 -24   3   3   46.83    6.85
 -24  21  -3   65.78    8.05
  21   3   0  374.21   25.15
 -24   3   0  370.55   24.76
 -24  21   0  337.90   25.84
 -24  21   0  347.60   24.61
 -24   3  -3  122.54   13.13
 -24  21   3  122.89   11.32
  21   3   3  139.87   12.44
 -24  21   6   97.01   12.75
 -24  21   9   30.58   10.47
 -24  21  12   25.96    8.86
 -24   3 -15    2.12    5.62
 -24   3 -18   -1.00    2.12
  21   4 -16    4.78    4.24
  21   4 -13   25.80    6.62
  21   4 -10   74.98    9.67
 -25  21 -10   59.31    8.28
 -25  21 -10   63.16    6.51
  21   4  -7  151.39   12.63
 -25  21  -7  123.31   12.40
 -25  21  -7  126.66   10.51
  21   4  -4    9.01    8.51
 -25  21  -4   14.06    9.47
 -25  21  -4    7.39    5.97
  21   4  -1  395.85   24.34
 -25   4   1  324.03   23.92
 -25  21  -1  350.99   25.15
 -25  21  -1  329.12   23.68
 -25  21   2  189.44   15.52
 -25   4  -2  214.24   16.79
  21   4   2  229.64   16.52
 -25   4  -5  118.15   13.32
 -25  21   5   86.19   12.98
  21   4   5  115.49   11.48
 -25  21   8   50.33   10.86
 -25  21  11   95.43   10.94
 -25   4 -14    8.01    6.32
 -25   4 -17    0.77    2.81
  21   5 -17    8.32    2.50
  21   5 -14   13.17    5.39
  21   5 -11   99.20    9.36
 -26  21 -11   75.67    8.16
  21   5  -8   51.10    9.17
 -26  21  -8   45.17    8.66
  21   5  -5   52.99    9.01
 -26  21  -5   49.33    9.82
 -26  21  -5   49.53    6.24
  21   5  -2   37.55    8.70
 -26  21  -2   42.32   10.36
 -26   5   2   28.50    7.28
 -26  21  -2   37.39    6.20
  21   5   1   37.39    9.01
 -26   5  -1   37.36    9.32
 -26  21   1   36.39    6.85
 -26   5  -4   42.17   10.86
 -26  21   4   33.85   11.28
  21   5   4   45.02    8.78
 -26   5  -7  124.12   13.75
 -26  21   7  104.13   12.29
  21   5   7   98.13   11.13
 -26  21  10   40.36    9.05
  21   5  10   37.55    8.01
 -26   5 -13    5.62    6.66
  21   5  13    6.01    5.89
 -26   5 -16   -0.81    3.43
  21   5  16   -2.93    2.70
  21   6 -15    7.12    3.62
  21   6 -12   12.48    6.12
 -27  21 -12   29.42    5.01
  21   6  -9   18.56    7.47
 -27  21  -9    4.62    7.12
  21   6  -6   59.54    9.44
 -27  21  -6   59.54    9.82
  21   6  -3   29.81    8.97
 -27  21  -3   30.77    9.90
 -27   6   3   18.72    6.70
  21   6   0   39.55    8.40
 -27   6   0   46.14    8.82
 -27  21   0   29.81    5.85
 -27  21   3   10.09   10.59
 -27   6  -3   22.84   10.21
  21   6   3    8.20    7.93
 -27   6  -6  137.21   14.13
 -27  21   6  107.75   12.94
  21   6   6  126.59   11.44
 -27   6  -9    8.36    9.86
 -27  21   9    3.39    8.59
  21   6   9    9.63    7.16
 -27  21  12    8.59    6.05
  21   6  12   20.22    5.51
 -27   6 -15    4.35    3.85
  21   6  15   -6.01    2.73
  21   7 -13   18.14    4.85
 -28  21 -10   52.64    7.20
  21   7 -10   56.26    7.63
 -28  21  -7    7.93    8.13
  21   7  -7   20.53    7.59
 -28   7   4   74.48    8.36
 -28  21  -4  101.28   11.51
  21   7  -4  112.80   10.59
 -28   7   1   15.13    8.05
  21   7  -1    8.01    7.78
 -28   7  -2   28.81    9.86
 -28  21   2   16.06   10.90
  21   7   2   13.06    7.51
 -28  21   5  130.98   14.44
 -28   7  -5  174.99   14.94
  21   7   5  149.42   12.75
 -28   7  -8   10.71   10.13
 -28  21   8    0.39    8.32
  21   7   8    7.63    6.16
 -28  21  11   19.79    6.32
  21   7  11   16.68    4.97
 -28   7 -14   -2.08    4.39
  21   8 -14    1.23    2.77
 -29  21 -11   27.03    5.12
  21   8 -11   33.47    5.43
 -29  21  -8   14.71    7.16
  21   8  -8    5.12    6.47
 -29  21  -5   15.56    9.09
  21   8  -5   19.14    7.63
 -29  21  -2   34.93   10.67
 -29   8   2   38.70    7.82
  21   8  -2   39.94    8.43
 -29   8  -1  142.11   13.17
 -29  21   1  107.45   14.33
  21   8   1  144.30   11.71
 -29   8  -4  162.05   14.17
 -29  21   4  131.98   13.79
  21   8   4  138.29   11.67
 -29  21   7   26.96    8.74
 -29   8  -7   39.01   10.40
  21   8   7   19.95    6.20
 -29  21  10    5.24    6.47
  21   8  10   -0.89    4.39
 -29   8 -13    3.12    4.58
 -30  21 -12   12.48    3.31
  21   9 -12   11.78    3.47
 -30  21  -9    5.85    5.74
  21   9  -9   17.06    5.47
 -30  21  -6   47.60    9.01
  21   9  -6   59.35    7.59
 -30  21  -3   45.06   10.44
 -30   9   3   37.97    7.16
  21   9  -3   50.68    7.82
  21   9   0  123.43   11.21
 -30   9   0  130.55   12.02
  21   9   3   12.40    6.35
 -30   9  -3   16.41    9.67
 -30  21   3   18.95   10.24
  21   9   6   53.41    6.66
 -30  21   6   57.61    9.40
 -30   9  -6   78.95   10.71
  21   9   9   -0.62    3.77
 -30  21   9    0.81    6.47
 -30   9  -9    2.77    7.82
 -30   9 -12    8.70    4.89
  21  10 -10   20.60    3.89
 -31  21 -10   20.95    4.89
  21  10  -7   33.47    5.66
 -31  21  -7   40.59    7.36
  21  10  -4   10.59    6.43
 -31  21  -4    7.51    8.66
 -31  10   4    7.59    5.35
  21  10  -1   56.11    7.63
 -31  10   1   54.72    8.24
  21  10   2   33.97    6.05
 -31  10  -2   29.15    9.36
 -31  21   2   29.23   10.01
  21  10   5   65.16    6.66
 -31  21   5   74.79    9.86
 -31  21   8   -1.77    6.28
 -31  10  -8   12.17    7.63
 -32  21 -11    5.47    2.81
 -32  21  -8    8.55    5.66
  21  11  -5   13.40    4.54
 -32  21  -5   19.14    7.70
  21  11  -2   -3.35    5.04
 -32  11   2   -0.65    6.20
 -32  11  -1   93.70   10.17
 -32  21   1   98.55   11.40
 -32  11  -4   45.44    9.01
 -32  21   4   41.75    8.74
 -32  21   7   12.63    6.16
 -32  11  -7    8.82    7.55
 -33  21  -9    4.93    4.01
 -33  21  -6   13.13    6.39
 -33  12   3   -2.81    4.62
 -33  12   0   49.49    7.59
 -33  21   0   59.35    9.55
 -33  12  -3   11.13    7.55
 -33  21   3   -3.23    7.74
 -33  12  -6   24.99    7.16
 -33  21   6   23.80    6.16
 -34  21  -7    0.85    4.81
 -34  21  -1   40.82    8.01
 -34  13   1   29.35    5.74
 -34  13  -2   24.61    6.66
 -34  21   2   43.09    7.59
 -34  13  -5   22.34    6.32
 -34  21   5    9.36    5.66
 -34  13  -8    3.89    4.66
 -35  21  -8   -3.81    2.77
 -35  21  -5   35.58    5.66
 -35  14   2    6.82    3.31
 -35  21  -2    3.85    6.24
 -35  21   1   32.08    6.82
 -35  14  -1   25.65    5.31
 -35  14  -4    6.78    5.04
 -35  21   4    7.16    4.85
 -35  14  -7   28.50    4.27
 -36  21  -6    4.58    2.93
 -36  21  -3   -0.04    4.70
 -36  21   0   54.84    5.97
 -36  15   0   36.05    4.27
 -36  21   3    5.39    3.85
 -36  15  -3    0.62    3.81
 -36  15  -6   19.56    3.39
 -37  21  -1   14.56    3.47
  22 -11   0   31.42    5.62
 -11  22   0   37.74    6.43
 -11  22   0   20.64    6.66
  22 -11  -3  200.14   13.67
 -11  22   3  176.34   14.87
 -11  22  -3  189.32   14.06
 -11  22   3  183.43   14.29
  22 -11  -6   64.93    7.20
 -11  22   6   66.82   10.67
 -11  22   6   75.06    9.05
 -11  22  -6   61.96    7.93
  22 -11  -9   18.33    6.43
 -11  22  -9    6.97    7.43
  22 -11 -12  130.01   11.17
  22 -11 -15   -2.85    6.12
  22 -11 -18   -1.27    3.77
 -11  22 -21    4.54    2.08
  22 -10 -19    4.89    3.16
 -12  22 -19   -5.12    4.35
  22 -10 -16    3.93    5.58
  22 -10 -13  110.06   10.36
  22 -10 -10  118.31   10.59
  22 -10  -7   24.07    6.70
 -10  22   7   11.17   10.67
 -10  22   7   22.80    8.36
 -12  22  -7   13.52    7.43
  22 -12   4  218.74   16.10
  22 -10  -4  215.62   15.64
  22 -10  -4  222.52   15.29
 -10  22   4  205.65   16.75
 -12  22  -4  211.70   15.75
 -10  22   4  204.11   15.94
  22 -10  -1  124.51   10.36
  22 -12   1  130.28   10.40
  22 -10  -1  119.19    9.78
  22 -12   1  124.47    9.67
 -10  22   1  111.14   10.24
 -12  22  -1  106.33    9.74
 -12  22  -1  125.05   10.21
 -10  22   1  117.38   10.28
  22 -12  -2   89.23    8.05
  22 -10   2   74.79    8.20
  22 -12  -2   77.87    7.01
 -10  22  -2   51.26    6.89
 -12  22   2   74.33    8.70
 -12  22   2   78.83    8.40
 -10  22  -2   74.60    7.86
  22 -10   5  144.69   12.13
  22 -12  -5  140.10   11.63
  22 -12  -5  149.62   11.01
 -12  22   5  136.37   13.36
 -10  22  -5  142.38   11.55
 -12  22   5  143.61   12.44
  22 -10   8   63.50    9.70
  22 -12  -8   65.66    7.59
 -12  22   8   62.50   11.51
 -10  22  -8   61.46    8.20
 -12  22   8   68.16    9.94
  22 -10  11  260.22   19.53
  22 -12 -11  242.89   17.52
 -10  22 -11  246.12   18.52
  22 -12 -14   21.87    6.32
 -10  22 -14   26.42    8.32
  22 -10  17    8.28    7.70
  22 -12 -17    9.63    4.20
  22 -10  20    5.20    4.24
  22 -13  20   -2.23    4.31
 -13  22 -20   -0.39    3.08
  22 -13  17   -3.93    8.24
  22  -9 -17   -4.54    5.28
 -13  22 -17   -3.04    5.66
  22  -9 -14    7.55    6.78
  22 -13  14    5.35    9.47
 -13  22 -14   14.75    8.20
  22 -13  11  140.68   14.10
  22  -9 -11  145.96   12.40
  22  -9  -8    4.93    6.55
  22 -13   8    0.85    8.13
  -9  22   8   -2.89    7.55
  22 -13   5  314.10   21.41
  22  -9  -5  299.12   21.07
  22  -9  -5  287.37   20.76
  -9  22   5  289.53   22.07
  -9  22   5  324.15   21.34
  22  -9  -2   97.16    8.40
  22 -13   2   94.81    8.70
  22  -9  -2   88.46    8.16
  -9  22   2   77.41    9.05
 -13  22  -2   70.90    8.13
  -9  22   2   83.18    8.40
 -13  22  -2   88.65    8.82
  22 -13  -1    9.20    5.89
  22  -9   1    5.55    6.20
  22 -13  -1    5.01    4.43
  22  -9   1   11.32    5.85
  -9  22  -1   11.51    5.01
 -13  22   1   12.59    6.47
 -13  22   1   13.52    6.08
  -9  22  -1    8.24    5.55
  22  -9   4  183.85   13.71
  22 -13  -4  180.00   13.59
  22 -13  -4  175.26   12.67
 -13  22   4  174.26   14.60
 -13  22   4  172.38   13.94
  -9  22  -4  175.30   13.17
  22  -9   7   90.23   10.05
  22 -13  -7  100.94    9.40
  22 -13  -7   86.46    8.28
 -13  22   7   87.96   11.86
 -13  22   7   86.73    9.97
  -9  22  -7   83.57    9.44
  22  -9  10  261.14   20.03
  22 -13 -10  255.79   18.49
  -9  22 -10  278.28   19.18
  22 -13 -13   30.00    6.43
  -9  22 -13   40.82    8.90
  22  -9  16    6.89    8.82
  22 -13 -16    9.47    4.58
  -9  22 -16    9.63    7.09
  22  -9  19    0.46    5.51
  -9  22 -19    2.66    4.24
  22 -14  18   -3.23    6.70
  22  -8 -18    3.35    4.58
 -14  22 -18    3.43    4.78
  22  -8 -15    9.86    7.12
  22 -14  15    6.66    9.05
 -14  22 -15   14.79    7.01
  22 -14  12  188.47   17.91
  22  -8 -12  227.64   16.29
 -14  22 -12  211.54   16.52
  22  -8  -9   17.64    7.59
  22 -14   9   16.87    8.66
 -14  22  -9   13.86    7.70
  22 -14   6  139.56   12.67
  22  -8  -6  158.01   12.36
  22  -8  -6  149.15   12.25
  -8  22   6  150.89   12.40
  22 -14   3  160.51   13.32
  22  -8  -3  197.52   13.09
  22  -8  -3  181.93   12.98
  -8  22   3  166.52   13.75
 -14  22  -3  148.31   12.71
  -8  22   3  172.03   13.02
  22  -8   0   36.89    6.82
  22 -14   0   41.05    6.97
  22 -14   0   37.82    5.16
  22  -8   0   43.44    6.74
  -8  22   0   34.31    6.16
 -14  22   0   40.48    7.20
  -8  22   0   40.09    6.47
  22  -8   3  128.47   10.40
  22 -14  -3  133.52    9.97
  22 -14  -3  113.15    8.90
 -14  22   3   98.86   10.86
  -8  22  -3  111.37    9.78
 -14  22   3  104.83   10.71
  22  -8   6  270.89   18.29
  22 -14  -6  242.81   17.75
  22 -14  -6  250.21   17.18
 -14  22   6  233.84   18.14
 -14  22   6  250.78   19.37
  -8  22  -6  243.24   17.56
  22  -8   9  444.80   28.69
  22 -14  -9  405.25   27.54
  -8  22  -9  401.36   28.19
  22 -14 -12    3.08    5.43
  22  -8  12    7.97    9.59
  -8  22 -12   -0.69    8.20
  22  -8  15    5.47    9.09
  22 -14 -15    1.93    4.51
  -8  22 -15   -1.81    7.43
  22  -8  18   -2.23    6.74
  -8  22 -18   11.48    5.28
  22 -15  19    5.85    5.43
  22  -7 -19    1.89    3.62
 -15  22 -19    2.62    3.62
  22  -7 -16   10.90    6.74
  22 -15  16   11.05    8.63
 -15  22 -16   13.75    6.12
  22  -7 -13   49.26    9.01
  22 -15  13   72.59   10.67
 -15  22 -13   62.12    9.24
  22 -15  10   97.28   11.78
  22  -7 -10  114.42   11.25
 -15  22 -10  101.17   10.59
  22  -7  -7    0.69    7.32
  22 -15   7    6.32    7.47
  -7  22   7    6.35    7.32
 -15  22  -7    4.93    7.47
  22  -7  -4  101.40    8.86
  22 -15   4   98.16    9.55
  22  -7  -4   94.97    9.01
 -15  22  -4   73.48    8.43
 -15  22  -4   89.00    9.20
  -7  22   4   93.27    9.20
  22  -7  -1   33.58    6.59
  22 -15   1   39.17    6.82
  22  -7  -1   38.59    6.74
  22 -15   1   32.85    4.81
  -7  22   1   32.04    6.47
 -15  22  -1   25.73    7.28
  -7  22   1   30.96    6.24
  22 -15  -2   99.90    8.70
  22  -7   2  104.63    8.90
  22 -15  -2   82.72    7.28
 -15  22   2   77.37    9.70
  -7  22  -2   80.95    8.36
  22  -7   5  118.38   10.59
  22 -15  -5  113.88   10.09
  22 -15  -5  117.15    9.13
 -15  22   5  113.22   12.25
  -7  22  -5  116.50    9.94
  22  -7   8  342.79   23.84
  22 -15  -8  339.32   22.76
 -15  22   8  318.14   24.03
  -7  22  -8  343.06   23.30
  22  -7  11  110.91   11.44
  22 -15 -11   88.00    8.59
 -15  22  11   81.76   14.10
  -7  22 -11  109.53   10.74
  22  -7  14   18.14    9.90
  22 -15 -14   12.09    4.81
  -7  22 -14    8.05    7.89
  22  -7  17    4.70    7.32
  -7  22 -17   13.94    6.39
  22  -7  20   -1.04    3.47
  -7  22 -20    0.42    2.93
  22  -6 -20    4.27    2.43
 -16  22 -20    0.19    2.20
  22 -16  17   12.48    7.47
  22  -6 -17   12.29    5.78
 -16  22 -17   18.95    5.16
  22  -6 -14   10.05    7.97
  22 -16  14    6.32    8.82
 -16  22 -14    1.54    6.93
  22 -16  11  208.61   17.45
  22  -6 -11  232.99   17.37
 -16  22 -11  214.47   16.91
  22  -6  -8   22.99    8.13
  22 -16   8   23.80    8.43
 -16  22  -8   33.24    8.55
  22  -6  -5   81.30    8.05
  22 -16   5   72.86    8.51
  22  -6  -5   74.67    8.40
 -16  22  -5   47.56    7.86
 -16  22  -5   79.79    9.20
  -6  22   5   73.90    8.24
  22  -6  -2  191.59   13.59
  22 -16   2  193.48   13.86
  22  -6  -2  194.21   13.79
  22 -16   2  161.78   12.75
 -16  22  -2  179.54   14.02
 -16  22  -2  193.52   13.98
  -6  22   2  183.81   13.44
  22 -16  -1   61.27    7.32
  22  -6   1   65.85    7.36
  22  -6   1   61.69    7.97
 -16  22   1   50.37    8.93
 -16  22   1   54.61    8.36
  -6  22  -1   56.80    6.66
  22 -16  -4    1.93    6.12
  22  -6   4   -3.08    6.35
 -16  22   4    3.77    8.28
  -6  22  -4    6.62    6.05
  22  -6   7   51.22    8.47
  -6  22  -7   43.63    7.70
  22  -6  10  125.74   12.09
 -16  22  10   94.93   14.63
  -6  22 -10  120.42   10.86
  22  -6  13   28.54    9.51
  -6  22 -13   23.22    8.36
  22  -6  16    9.70    8.20
  -6  22 -16   12.17    6.85
  22  -6  19    1.31    4.47
  -6  22 -19   -7.09    3.97
  22 -17  18   -3.20    5.82
  22  -5 -18    4.43    4.89
 -17  22 -18   -3.58    3.77
  22  -5 -15   14.06    7.28
  22 -17  15   12.09    8.16
 -17  22 -15    9.28    6.51
  22  -5 -12   82.76   10.82
  22 -17  12   78.68   11.25
 -17  22 -12   84.65   10.13
  22  -5  -9   78.91   10.40
  22 -17   9   84.49   10.28
 -17  22  -9   87.38   10.17
  22  -5  -6    5.89    6.47
  22 -17   6    6.35    7.28
  22  -5  -6    0.15    7.63
 -17  22  -6   -1.93    6.43
  -5  22   6    5.16    6.51
 -17  22  -6    2.66    7.78
  22  -5  -3   77.60    8.24
  22 -17   3   70.48    8.36
  22  -5  -3   81.10    8.70
 -17  22  -3   83.11    8.97
 -17  22  -3   78.56    9.24
  -5  22   3   71.63    7.47
  22 -17   0  184.66   12.98
  22  -5   0  174.96   12.98
  22  -5   0  173.68   13.32
 -17  22   0  154.62   14.10
  -5  22   0  167.95   12.79
 -17  22   0  166.75   13.40
  22 -17  -3   18.99    6.28
  22  -5   3   31.19    6.85
 -17  22   3   29.27    8.70
 -17  22   3   29.96    7.43
  -5  22  -3   30.31    5.97
  22 -17  -6    2.50    6.39
  22  -5   6    6.28    6.78
 -17  22   6  -12.21    9.97
  -5  22  -6    8.74    6.05
 -17  22   6   15.98    7.59
  22  -5   9   42.17    9.01
 -17  22   9   52.18   12.02
  -5  22  -9   41.94    7.24
  22  -5  12   84.65   10.86
 -17  22  12   92.66   13.83
  -5  22 -12   90.23   10.24
  22  -5  15    4.47    8.51
  -5  22 -15   -0.54    7.01
  22  -5  18    4.51    5.55
  -5  22 -18    5.97    4.47
  22 -18  19    1.54    4.24
  22  -4 -19    5.78    3.47
 -18  22 -19    3.47    2.46
  22  -4 -16   27.42    7.09
  22 -18  16   11.98    7.36
 -18  22 -16   16.94    5.62
  22  -4 -13   37.78    8.51
  22 -18  13   15.48    8.78
 -18  22 -13   31.39    7.89
  22  -4 -10   47.33    9.90
  22 -18  10   40.48    8.66
 -18  22 -10   47.75    9.40
  22 -18   7   69.63    9.05
  22  -4  -7   86.15   10.21
 -18  22  -7   76.14    8.66
 -18  22  -7   85.03   10.32
  22 -18   4  230.99   17.75
  22  -4  -4  238.77   17.64
  22  -4  -4  263.42   18.25
  -4  22   4  250.78   17.45
 -18  22  -4  260.37   18.29
 -18  22  -4  263.34   18.45
  22  -4  -1   30.92    6.16
  22 -18   1   28.88    6.32
  22  -4  -1   35.31    7.36
 -18  22  -1   24.61    7.97
  -4  22   1   27.03    5.78
 -18  22  -1   26.80    7.66
  22  -4   2  102.79    9.05
  22 -18  -2   99.86    8.74
 -18  22   2   94.81   10.63
  -4  22  -2   87.23    8.05
 -18  22   2   91.12   10.13
  22 -18  -5   33.58    6.70
  22  -4   5   30.12    6.74
 -18  22   5   31.42    9.78
  -4  22  -5   34.08    6.28
 -18  22   5   31.62    8.13
  22  -4   8    5.78    7.43
 -18  22   8    3.35    8.13
  -4  22  -8   13.40    6.93
  22  -4  11  187.32   15.25
 -18  22  11  197.25   17.52
  -4  22 -11  183.39   14.48
  22  -4  14    2.43    8.36
  -4  22 -14   11.44    7.16
  22  -4  17    1.73    6.39
  -4  22 -17   25.34    5.43
  22  -3 -17    1.69    5.58
  22 -19  17   -1.54    5.62
 -19  22 -17   -1.35    4.01
  22  -3 -14    6.93    8.40
  22 -19  14    8.70    7.74
 -19  22 -14   17.02    6.55
  22  -3 -11   51.26   10.74
  22 -19  11   56.26    8.51
 -19  22 -11   54.80    8.86
  22 -19   8   69.97    9.47
  22  -3  -8   87.42   10.86
 -19  22  -8   82.68    8.90
 -19  22  -8  100.74   10.13
  22  -3  -5   50.99    7.89
  22 -19   5   81.80    8.05
 -19  22  -5   61.46    9.13
  -3  22   5   56.26    7.16
 -19  22  -5   78.37    9.59
  22 -19   2  190.67   14.63
  22  -3  -2  203.18   14.60
 -19  22  -2  189.63   15.64
 -19  22  -2  214.81   15.56
  -3  22   2  197.52   14.25
  22 -19  -1 1133.34   71.67
  22  -3   1 1150.98   71.75
 -19  22   1 1067.95   72.09
 -19  22   1 1089.25   71.90
  -3  22  -1 1068.60   71.44
  22 -19  -4   11.05    5.51
  22  -3   4    5.51    6.43
 -19  22   4   12.82    9.09
 -19  22   4   11.05    8.20
  -3  22  -4   10.28    5.62
  22  -3   7   55.65    8.13
 -19  22   7   60.46    9.32
  -3  22  -7   50.03    7.32
  22  -3  10  101.67   11.28
 -19  22  10  109.26   14.40
  -3  22 -10  116.03   10.17
  22  -3  13   14.79    7.70
  -3  22 -13    5.35    7.09
  22  -3  16   20.10    6.78
  -3  22 -16   26.38    5.93
  -3  22 -19   -0.85    2.50
  22  -2 -18   -1.39    4.27
  22 -20  18    6.70    3.97
 -20  22 -18    1.69    2.43
  22  -2 -15   18.87    7.43
  22 -20  15    9.78    6.89
 -20  22 -15   13.75    5.12
  22 -20  12    4.43    7.28
 -20  22 -12    1.00    7.28
  22 -20   9   13.36    7.09
 -20  22  -9   18.33    6.55
 -20  22  -9   21.57    8.51
  22 -20   6  132.59   12.25
 -20  22  -6  165.75   13.25
 -20  22  -6  171.72   13.63
  22  -2  -3   56.61    7.43
  22 -20   3   62.81    7.24
 -20  22  -3   52.76    9.40
 -20  22  -3   64.58    9.09
  22  -2   0  400.32   25.61
  22 -20   0  395.43   25.53
 -20  22   0  391.93   26.61
 -20  -2   0  345.17   25.46
 -20  22   0  421.97   25.99
  -2  22   0  352.18   25.15
  22 -20  -3   53.22    6.89
  22  -2   3   65.97    7.55
 -20  22   3   58.77   10.67
 -20  22   3   47.87    9.24
  -2  22  -3   48.91    6.32
  22  -2   6   59.81    8.01
  -2  22  -6   59.50    7.09
 -20  22   6   50.14    9.59
  22  -2   9   22.68    7.51
 -20  22   9   27.50   11.51
  -2  22  -9   27.54    6.55
  22  -2  12   49.26    8.63
 -20  22  12   50.41   11.78
  -2  22 -12   53.92    7.55
  22  -2  15   11.48    6.74
  -2  22 -15   20.10    5.58
  22  -2  18   -7.24    3.50
  -2  22 -18   -3.54    3.04
  22  -1 -19    1.16    2.70
  22 -21  16   -1.42    5.16
 -21  22 -16    4.12    3.70
  22 -21  13   -1.27    6.12
 -21  22 -13   13.56    6.16
  22 -21  10  105.75   10.09
 -21  22 -10   93.20    9.59
 -21  22 -10  128.70   11.05
  22 -21   7  165.67   14.06
 -21  22  -7  188.74   15.02
  22 -21   4  336.36   24.11
  22  -1  -4  345.98   24.07
  22  -1  -4  350.76   24.61
 -21  22  -4  357.77   25.03
 -21  22  -4  392.04   24.96
  22 -21   1  556.91   34.74
  22  -1  -1  536.42   34.78
  22  -1  -1  566.61   35.28
 -21  -1   1  452.43   34.51
 -21  22  -1  516.89   35.58
 -21  22  -1  547.70   35.08
  22  -1   2  369.59   24.11
  22 -21  -2  352.14   23.99
  22  -1   2  375.91   24.88
 -21  22   2  356.30   25.42
  -1  22  -2  327.07   23.57
 -21  22   2  376.45   24.72
  22  -1   5  272.70   19.22
 -21  22   5  274.28   20.10
  -1  22  -5  271.04   18.60
  22  -1   8   23.26    7.05
  -1  22  -8   10.09    5.62
  22  -1  11   81.95    9.44
 -21  22  11   93.58   12.44
  -1  22 -11   89.15    8.40
  22  -1  14    3.66    6.24
  -1  22 -14    9.13    5.47
  22  -1  17   -0.15    3.81
  -1  22 -17    6.97    3.27
  22 -22  14   10.05    5.55
 -22  22 -14    2.16    4.93
  22 -22  11  107.25   10.32
  22   0 -11  133.29   12.71
 -22  22 -11  132.55   10.94
  22 -22   8   -3.50    6.01
  22   0  -8   -1.66    9.74
 -22  22  -8    3.54    7.86
 -22  22  -8    4.85    8.13
  22 -22   5   19.37    5.97
  22   0  -5   18.22    8.86
 -22  22  -5   13.90    8.97
 -22  22  -5   28.69    8.74
  22 -22   2  421.20   28.65
  22   0  -2  403.56   28.61
  22   0  -2  463.17   29.23
 -22  22  -2  421.23   29.88
 -22  22  -2  446.84   29.19
  22   0   1  298.61   21.03
  22 -22  -1  299.27   20.83
  22   0   1  322.91   21.95
 -22   0  -1  296.80   21.26
 -22  22   1  298.88   22.61
 -22  22   1  319.56   21.80
  22   0   4   60.15    9.63
  22   0   4   58.07    7.24
 -22  22   4   50.30    8.63
  22   0   7  247.70   17.56
 -22  22   7  278.74   19.72
   0  22  -7  230.14   16.71
  22   0  10   65.01    7.82
 -22  22  10   56.80   12.02
   0  22 -10   61.46    6.97
  22   0  13    4.24    5.85
   0  22 -13    3.62    4.89
  22   0  16    3.50    3.85
   0  22 -16    2.23    3.23
  22   1 -18    4.24    3.00
  22   1 -15   10.01    5.93
  22 -23  15    5.85    3.77
 -23  22 -15    7.05    3.20
  22 -23  12   24.84    5.66
 -23  22 -12   26.07    5.93
  22 -23   9   28.34    6.35
  22   1  -9   40.24    9.90
 -23  22  -9   42.25    7.82
 -23  22  -9   49.18    7.74
  22 -23   6  236.61   18.10
  22   1  -6  293.61   19.53
 -23  22  -6  252.25   19.45
 -23  22  -6  283.83   19.22
  22 -23   3   61.39    6.82
  22   1  -3   46.48    9.36
 -23  22  -3   50.45   10.32
 -23  22  -3   57.34    8.86
  22   1   0   58.00    7.16
  22 -23   0   61.89    6.89
  22   1   0   55.22    9.13
 -23   1   0   57.34    7.86
 -23  22   0   59.88   10.94
 -23  22   0   70.90    8.63
  22   1   3  132.52   10.67
  22 -23  -3  129.28   10.59
  22   1   3  141.37   13.06
 -23  22   3  133.44   12.17
  22   1   6    5.66    5.58
 -23  22   6    6.93   10.59
 -23  22   6    5.51    8.66
  22   1   9   83.26    8.51
 -23  22   9   90.19   12.32
  22   1  12   28.54    5.97
 -23  22  12   21.80    9.55
   1  22 -12   27.38    4.70
 -23   1 -18   -4.74    2.43
  22   1  18    1.16    3.08
  22   2 -16    1.16    4.54
  22   2 -13   21.37    7.51
 -24  22 -13   17.52    4.31
  22 -24  10   14.48    5.08
  22   2 -10   28.73    8.78
 -24  22 -10   19.06    6.85
 -24  22 -10   25.84    6.12
  22 -24   7  150.19   12.59
  22   2  -7  186.32   14.98
 -24  22  -7  172.57   14.29
 -24  22  -7  191.78   13.44
  22 -24   4   57.23    6.39
  22   2  -4   61.23    9.78
 -24  22  -4   54.99   10.24
 -24  22  -4   56.96    8.05
  22   2  -1   88.15    8.13
  22 -24   1   87.00    7.93
  22   2  -1  108.56   10.63
 -24   2   1   84.88    8.86
 -24  22  -1   85.53   11.78
 -24  22  -1   92.20    9.67
  22 -24  -2  104.29    8.82
  22   2   2   91.46    8.93
  22   2   2  111.91   11.55
 -24   2  -2  113.11   11.13
 -24  22   2  116.26   10.28
 -24  22   2  100.55   12.63
  22   2   5   35.74    5.93
  22   2   5   41.09    9.36
 -24  22   5   25.96   11.09
 -24  22   5   31.08    8.59
  22   2   8    0.58    4.93
 -24  22   8   19.79   10.63
 -24  22  11   55.46   10.09
 -24   2 -17    9.05    3.27
  22   2  17    2.31    3.74
  22   3 -17    0.19    2.89
  22   3 -14    5.78    5.78
  22   3 -11   48.72    8.74
 -25  22 -11   45.25    6.43
 -25  22 -11   36.16    5.35
  22   3  -8  109.29   11.55
 -25  22  -8   87.77   10.55
 -25  22  -8  101.90    9.01
  22   3  -5  140.68   12.79
 -25  22  -5  131.21   12.86
 -25  22  -5  128.59   11.21
  22   3  -2   15.44    8.86
 -25  22  -2   25.57    9.97
 -25   3   2    8.40    6.08
 -25  22  -2   13.67    7.20
  22   3   1   91.62   10.74
 -25  22   1   82.95   11.98
 -25   3  -1   96.74   10.24
 -25  22   1   78.56    9.24
  22   3   4    0.19    9.28
 -25   3  -4   12.67    9.82
 -25  22   4    7.59    7.66
  22   3   7   66.16    9.97
 -25  22   7   64.54   11.13
 -25  22  10  102.17   11.71
  22   3  16    1.69    4.01
 -25   3 -16    3.04    3.81
  22   4 -15   -1.77    4.27
  22   4 -12   37.28    7.36
  22   4  -9   57.92    9.17
 -26  22  -9   52.72    7.70
 -26  22  -9   39.82    5.58
  22   4  -6  109.53   11.01
 -26  22  -6   88.50   11.01
 -26  22  -6   94.04    8.63
  22   4  -3   54.11    9.36
 -26  22  -3   62.08   10.51
 -26   4   3   41.59    6.89
 -26  22  -3   53.92    7.28
  22   4   0   25.15    9.01
 -26   4   0   23.68    7.82
 -26  22   0   32.58   10.98
 -26  22   0   26.61    6.97
  22   4   3   23.53    8.93
 -26   4  -3   24.22    9.55
 -26  22   3   27.61    7.43
 -26   4  -6   45.33   10.74
 -26  22   6   41.90   10.78
  22   4   6   39.17    9.32
 -26  22   9   11.09    9.44
 -26   4  -9   29.04   10.05
  22   4   9   18.02    8.24
 -26  22  12   37.97    7.24
  22   4  12   12.75    7.01
 -26   4 -15   10.74    4.43
  22   4  15    9.05    4.04
  22   5 -16    5.93    2.54
  22   5 -13   24.76    5.51
  22   5 -10   73.98    8.74
 -27  22 -10   63.43    7.59
  22   5  -7   24.15    8.43
 -27  22  -7   24.53    8.24
  22   5  -4  228.91   16.06
 -27  22  -4  192.25   16.14
 -27  22  -4  185.62   13.94
  22   5  -1  164.37   12.48
 -27  22  -1  122.23   10.55
 -27   5   1  130.28   11.63
 -27  22  -1  142.38   14.02
  22   5   2   35.47    8.51
 -27   5  -2   16.17    9.09
 -27  22   2   15.91    6.24
 -27   5  -5   51.68   11.09
 -27  22   5   56.15   11.09
  22   5   5   59.23    8.82
 -27   5  -8   18.68    9.90
 -27  22   8    6.12    8.90
  22   5   8   15.29    7.47
 -27  22  11   48.29    7.55
  22   5  11   28.04    6.66
 -27   5 -14   -0.50    4.81
  22   5  14  -10.24    4.08
  22   6 -14    9.94    3.66
 -28  22 -11   30.39    5.39
  22   6 -11   41.86    6.20
 -28  22  -8    0.19    7.09
  22   6  -8    5.20    7.43
  22   6  -5  197.29   15.10
 -28  22  -5  164.29   15.13
 -28  22  -2   78.10   11.67
 -28   6   2   66.35    8.32
  22   6  -2   94.31   10.32
 -28   6  -1   43.59    8.86
  22   6   1   34.51    8.24
 -28  22   4   19.72   10.63
 -28   6  -4   28.00    9.86
  22   6   4   40.74    7.82
 -28   6  -7   28.65   10.01
 -28  22   7   14.67    9.24
  22   6   7   23.03    7.20
 -28   6 -10   34.89    8.59
 -28  22  10   13.29    7.55
  22   6  10   17.33    5.70
 -28   6 -13    1.89    5.08
  22   6  13   -1.81    3.66
 -29  22 -12   19.29    3.47
  22   7 -12   25.34    4.78
 -29  22  -9   21.10    5.93
  22   7  -9    6.35    5.82
 -29  22  -6   23.22    8.28
  22   7  -6   45.40    8.32
  22   7  -3  123.85   11.05
 -29  22  -3  114.49   12.09
 -29   7   3   98.82    9.59
 -29   7   0  115.22   11.71
  22   7   0  140.80   11.59
 -29   7  -3   11.17    9.28
 -29  22   3   -1.31   10.32
  22   7   3    3.93    7.28
 -29  22   6   51.76    9.94
 -29   7  -6   70.01   10.28
  22   7   6   50.76    7.59
 -29  22   9  -17.37    7.39
 -29   7  -9   -1.46    8.13
  22   7   9   -3.35    5.20
  22   7  12    0.31    3.20
 -29   7 -15    2.46    2.20
 -30  22 -10   10.36    4.78
  22   8 -10   15.21    5.04
 -30  22  -7   51.53    7.89
  22   8  -7   52.22    7.43
 -30  22  -4   16.56    8.74
  22   8  -4   17.95    7.55
 -30   8   1   44.25    7.47
  22   8  -1   39.86    8.01
 -30   8  -2   67.05    9.51
 -30  22   2   65.16   10.71
  22   8   2   52.07    8.09
 -30  22   5   87.07   10.74
 -30   8  -5   95.51   11.25
  22   8   5   84.53    8.13
 -30  22   8    3.77    7.12
 -30   8  -8   -6.16    8.13
  22   8   8   -4.62    4.35
 -30  22  11   12.71    4.51
 -30   8 -14    1.81    2.58
 -31  22 -11    5.82    3.04
  22   9 -11    3.77    2.93
 -31  22  -8   15.10    5.74
  22   9  -8    8.32    5.01
 -31  22  -5   -3.93    7.70
  22   9  -5    7.59    6.32
 -31   9   2   12.63    5.82
  22   9  -2   23.11    6.55
  22   9   1   98.59    9.20
 -31   9  -1  107.95   10.32
 -31  22   1   85.46   12.05
 -31   9  -4   28.04    8.97
 -31  22   4   30.73    9.09
  22   9   4   27.88    5.66
 -31  22   7   13.63    7.36
 -31   9  -7   12.09    7.86
  22   9   7    4.27    3.81
 -31  22  10    1.81    4.39
 -31   9 -13   -2.08    2.77
 -32  22  -9   14.63    4.35
  22  10  -9    5.08    2.85
 -32  22  -6   11.86    6.59
  22  10  -6   10.32    4.31
 -32  10   3    6.08    4.54
 -32  22  -3    7.89    8.51
  22  10  -3    3.58    5.16
  22  10   0   97.90    8.90
 -32  10   0  109.33    9.67
 -32  22   0  117.73   11.75
  22  10   3    4.97    4.47
 -32  10  -3   11.94    7.63
 -32  22   3    2.31    8.28
 -32  22   6   30.08    7.28
 -32  10  -6   36.43    7.82
 -32  22   9    5.93    4.51
 -32  10  -9    3.54    5.47
 -32  10 -12    1.12    2.73
 -33  22  -7   19.10    5.35
 -33  22  -4   11.63    7.20
 -33  11   1   45.56    6.16
 -33  11  -2   29.27    7.01
 -33  22   2   25.34    8.28
 -33  11  -5   28.77    7.05
 -33  22   5   34.62    7.01
 -33  22   8    6.51    4.31
 -33  11  -8   -1.96    5.35
 -34  22  -8   11.44    3.54
 -34  22  -5    8.86    5.70
 -34  12   2   13.86    3.81
 -34  22   1   56.77    8.47
 -34  12  -1   64.97    6.97
 -34  12  -4    5.85    5.78
 -34  22   4    9.70    6.24
 -34  22   7    4.70    3.85
 -34  12  -7    8.78    4.70
 -35  22  -6   16.52    4.35
 -35  22   0   18.99    6.35
 -35  13   0   18.37    4.16
 -35  22   3   -6.59    5.55
 -35  13  -3    7.63    4.58
 -35  13  -6   20.53    4.24
 -36  22  -1   27.07    5.24
 -36  22   2    8.51    4.51
 -36  14  -2    5.74    3.27
 -36  14  -5   16.75    3.16
 -12  23 -20    3.74    2.58
  23 -11 -17    2.12    4.20
  23 -11 -14    3.74    5.70
  23 -11 -11   88.61    9.20
  23 -11  -8    9.09    6.74
 -12  23  -8   20.45    7.97
 -11  23   8   28.04    9.32
  23 -11  -5  119.73   10.44
 -11  23   5  129.44   13.13
 -12  23  -5  124.24   11.01
 -11  23   5  124.20   11.67
  23 -11  -2   25.46    5.85
  23 -12   2   21.80    6.01
 -11  23   2   11.17    7.47
 -12  23  -2   19.10    5.47
 -11  23   2   36.86    7.16
 -12  23  -2   17.72    6.85
  23 -12  -1   46.21    6.16
  23 -11   1   43.63    6.66
 -11  23  -1   31.93    6.32
 -12  23   1   37.66    7.43
 -12  23   1   48.25    7.59
 -11  23  -1   32.58    6.85
  23 -12  -4  124.20    9.82
 -12  23   4  120.12   11.98
 -11  23  -4  104.06   10.59
 -12  23   4  131.94   11.36
  23 -12  -7   21.49    6.47
 -12  23   7   25.49   10.40
 -12  23   7   21.37    8.28
 -11  23  -7    9.51    7.70
  23 -12 -10  140.14   11.51
 -11  23 -10  139.45   12.52
  23 -12 -13   21.57    6.20
 -11  23 -13   15.67    8.28
  23 -12 -16    2.43    4.54
  23 -13  18   -1.27    6.05
  23 -10 -18   -1.81    3.62
 -13  23 -18    3.97    4.74
  23 -13  15   25.88    9.55
  23 -10 -15   26.73    6.28
  23 -13  12  196.64   16.56
  23 -10 -12  184.97   14.60
  23 -13   9    0.92    9.59
  23 -10  -9   13.56    7.05
  23 -13   6  106.17   11.59
  23 -10  -6  128.32   10.74
  23 -10  -6  104.71    9.82
 -10  23   6   88.42   12.94
 -10  23   6  124.08   11.40
  23 -10  -3   71.51    8.47
  23 -13   3   82.68    8.70
  23 -10  -3   80.30    7.47
 -10  23   3   51.53    9.13
 -13  23  -3   50.10    6.93
 -10  23   3   66.01    8.74
 -13  23  -3   75.87    7.93
  23 -10   0   63.66    8.01
  23 -13   0   66.20    8.13
  23 -13   0   55.96    6.62
  23 -10   0   62.73    7.39
 -10  23   0   46.10    7.32
 -13  23   0   57.23    7.78
 -13  23   0   64.27    7.82
 -10  23   0   67.05    7.97
  23 -13  -3   48.29    7.78
  23 -10   3   46.10    7.93
  23 -13  -3   50.83    6.12
 -13  23   3   49.02    8.78
 -13  23   3   41.36    8.16
 -10  23  -3   44.17    7.39
  23 -13  -6  178.46   13.09
  23 -10   6  185.43   14.52
  23 -13  -6  186.32   14.06
 -13  23   6  175.61   14.71
 -13  23   6  162.63   15.98
 -10  23  -6  161.21   13.86
  23 -10   9  111.14   11.75
  23 -13  -9   80.60    8.93
 -13  23   9   88.07   13.79
 -10  23  -9   95.74   10.09
  23 -13 -12   45.75    7.16
  23 -10  12   66.20   10.71
 -10  23 -12   58.54    9.28
  23 -10  15   17.91    9.78
  23 -13 -15   15.33    4.66
 -10  23 -15    9.20    7.43
  23 -10  18    9.70    6.20
 -10  23 -18    6.66    4.93
  23  -9 -19    0.89    2.66
  23 -14  19    3.50    4.89
 -14  23 -19    0.77    3.47
  23  -9 -16    5.85    5.43
  23 -14  16   22.07    8.55
 -14  23 -16   13.98    6.39
  23  -9 -13   55.38    8.32
  23 -14  13   66.74   10.51
 -14  23 -13   59.08    9.09
  23  -9 -10   78.49    9.67
  23 -14  10   67.86   11.28
  23  -9  -7   36.05    7.74
  23  -9  -7   24.76    7.74
  23 -14   7   36.01    8.78
  -9  23   7   30.15    8.36
  23 -14   4  166.60   12.40
  23  -9  -4  168.06   12.05
  23  -9  -4  151.23   11.90
  -9  23   4  139.53   13.06
  -9  23   4  161.75   12.55
  23  -9  -1   13.56    6.51
  23 -14   1   15.83    6.89
  23  -9  -1    9.90    6.12
  23 -14   1   16.02    5.12
  -9  23   1   10.21    6.43
 -14  23  -1   13.56    6.62
  -9  23   1    9.17    6.05
  23 -14  -2   78.25    8.16
  23  -9   2   75.44    8.28
  23 -14  -2   61.31    6.62
 -14  23   2   58.42    9.24
 -14  23   2   67.74    8.78
  -9  23  -2   74.33    7.82
  23  -9   5  210.96   15.52
  23 -14  -5  196.83   14.13
  23 -14  -5  200.03   14.94
 -14  23   5  173.76   16.21
  -9  23  -5  205.15   14.71
 -14  23   5  192.52   15.67
  23  -9   8   75.64    9.94
  23 -14  -8   54.76    7.05
 -14  23   8   48.87   12.25
  -9  23  -8   62.89    8.66
 -14  23   8   53.38    9.40
  23 -14 -11   -2.85    5.55
  23  -9  11    5.43    9.55
  -9  23 -11    6.39    8.20
  23 -14 -14   -1.00    5.04
  23  -9  14   -2.66    9.63
  -9  23 -14   -2.00    7.78
  23  -9  17   17.72    7.43
  -9  23 -17   34.51    6.35
  23  -9  20    2.97    3.04
  -9  23 -20    1.00    2.50
  23 -15  20   -0.96    3.12
 -15  23 -20   -1.16    2.08
  23 -15  17   -1.77    7.12
  23  -8 -17   14.33    4.81
 -15  23 -17    4.12    4.97
  23  -8 -14  -10.67    7.20
  23 -15  14    4.16    8.93
 -15  23 -14   12.75    7.01
  23 -15  11  278.55   22.22
  23  -8 -11  317.29   20.99
 -15  23 -11  273.51   21.07
  23  -8  -8    7.20    7.63
  23 -15   8   -3.12    8.90
 -15  23  -8   -9.17    8.43
  23  -8  -5  118.65   10.63
  23 -15   5  125.97   11.44
  23  -8  -5  109.87   10.59
  -8  23   5  113.34   10.63
  23  -8  -2   29.73    6.62
  23 -15   2   17.48    7.24
  23  -8  -2   28.31    6.74
  23 -15   2   17.02    5.28
  -8  23   2   23.38    6.97
 -15  23  -2   27.96    6.70
  -8  23   2   17.41    6.59
  23 -15  -1   25.38    6.66
  23  -8   1   39.78    7.01
  23 -15  -1   30.27    5.08
  23  -8   1   34.54    7.01
 -15  23   1   20.37    7.74
  -8  23  -1   26.42    6.32
  23 -15  -4   82.38    8.90
  23  -8   4   92.27    9.24
  23 -15  -4   80.14    7.47
 -15  23   4   82.64   10.63
  -8  23  -4   83.11    8.36
  23  -8   7  135.94   12.52
  23 -15  -7  145.65   10.74
 -15  23   7  135.83   13.13
 -15  23   7  130.13   14.79
  -8  23  -7  136.56   12.02
  23  -8  10  129.09   12.32
  23 -15 -10  103.48    9.32
  -8  23 -10  115.19   11.09
  23 -15 -13   18.72    5.12
  23  -8  13   37.12    9.90
  -8  23 -13   26.11    8.20
  23  -8  16   16.87    8.05
  -8  23 -16   17.52    6.85
  23  -8  19   -3.23    4.43
  -8  23 -19    5.82    3.62
  23 -16  18   -1.23    5.55
  23  -7 -18    0.12    4.04
 -16  23 -18    4.51    3.97
  23  -7 -15   15.40    7.12
  23 -16  15   12.17    8.43
 -16  23 -15   21.07    6.32
  23 -16  12  129.09   14.17
  23  -7 -12  152.58   12.90
 -16  23 -12  163.09   13.06
  23  -7  -9   33.35    8.93
  23 -16   9   31.54    9.28
 -16  23  -9   33.89    9.01
  23  -7  -6    5.01    7.66
  23  -7  -6    3.77    7.16
  23 -16   6    1.39    7.89
  -7  23   6    9.47    7.39
 -16  23  -6    5.51    7.78
  23 -16   3  140.53   11.17
  23  -7  -3  131.09   10.63
  23  -7  -3  129.71   10.74
  23 -16   3  104.87    9.51
 -16  23  -3  106.29   10.59
 -16  23  -3  121.12   11.48
  -7  23   3  134.40   10.51
  23  -7   0   70.13    8.01
  23 -16   0   71.59    8.16
  23  -7   0   69.67    8.32
  23 -16   0   63.85    6.24
 -16  23   0   59.04    8.82
  -7  23   0   70.28    7.78
  23  -7   3  166.83   13.36
  23 -16  -3  179.23   13.06
  23 -16  -3  167.79   12.02
 -16  23   3  149.50   14.36
  -7  23  -3  165.33   12.75
  23  -7   6  343.98   24.34
  23 -16  -6  369.78   23.45
  23 -16  -6  348.41   24.18
 -16  23   6  331.35   25.34
  -7  23  -6  327.42   23.95
  23  -7   9  144.57   13.25
  -7  23  -9  139.91   12.13
  23  -7  12   30.08    9.24
  -7  23 -12   10.71    8.43
  23  -7  15    8.63    8.55
  -7  23 -15   15.40    6.82
  23  -7  18    5.43    5.35
  -7  23 -18   11.32    4.62
  23  -6 -19    5.20    2.89
 -17  23 -19    1.50    2.58
  23  -6 -16   28.31    6.55
  23 -17  16   33.04    7.86
 -17  23 -16   30.81    6.05
  23  -6 -13   18.18    7.86
  23 -17  13   12.75    9.17
 -17  23 -13   19.33    7.74
  23 -17  10  152.04   14.48
  23  -6 -10  178.96   14.44
 -17  23 -10  170.14   14.13
  23  -6  -7   25.22    8.36
  23 -17   7   24.53    8.66
 -17  23  -7   17.60    8.74
  -6  23   7   20.10    6.70
  23  -6  -4   12.17    6.78
  23 -17   4   16.06    7.28
  23  -6  -4   20.64    7.05
 -17  23  -4   13.94    7.01
  -6  23   4   24.72    6.51
 -17  23  -4   25.76    8.01
  23  -6  -1  164.56   11.98
  23 -17   1  144.72   12.05
  23  -6  -1  144.99   12.02
 -17  23  -1  129.09   12.48
 -17  23  -1  143.72   12.55
  -6  23   1  142.91   11.44
  23  -6   2  143.88   11.51
  23 -17  -2  137.06   11.40
  23  -6   2  114.96   11.94
 -17  23   2  126.39   12.55
  -6  23  -2  142.45   10.82
 -17  23   2  136.21   11.90
  23  -6   5  382.61   25.49
  23 -17  -5  372.09   25.30
 -17  23   5  371.59   26.46
  -6  23  -5  356.96   25.07
  23  -6   8   53.49    9.05
  -6  23  -8   61.19    8.28
  23  -6  11   59.46    9.86
 -17  23  11   56.57   12.94
  -6  23 -11   53.49    8.93
  23  -6  14   15.29    8.63
  -6  23 -14    4.47    6.93
  23  -6  17    7.36    6.28
  -6  23 -17   12.86    5.24
  23  -5 -17    2.43    5.12
  23 -18  17   19.06    6.08
 -18  23 -17   10.63    4.12
  23  -5 -14   10.28    7.70
  23 -18  14    5.89    7.86
 -18  23 -14    1.27    6.89
  23 -18  11  106.10   12.40
  23  -5 -11  118.50   12.05
 -18  23 -11  140.10   11.90
  23  -5  -8   11.86    8.90
  23 -18   8    6.82    8.28
 -18  23  -8   15.25    9.05
  23  -5  -5   18.06    6.89
  23 -18   5   17.37    7.24
  23  -5  -5   22.18    8.13
 -18  23  -5   23.95    7.28
  -5  23   5   21.72    6.43
 -18  23  -5   28.31    8.47
  23 -18   2  113.95   10.78
  23  -5  -2  141.61   10.59
  23  -5  -2  120.27   11.05
 -18  23  -2  106.21   11.59
 -18  23  -2  112.95   11.17
  -5  23   2  119.54   10.05
  23 -18  -1   55.34    7.28
  23  -5   1   50.91    7.43
  23  -5   1   48.33    8.43
 -18  23   1   40.40    9.20
 -18  23   1   56.07    8.59
  -5  23  -1   50.14    6.85
  23  -5   4  185.55   14.29
  23 -18  -4  173.92   13.86
 -18  23   4  197.29   15.75
  -5  23  -4  177.84   13.59
 -18  23   4  194.94   15.13
  23  -5   7   25.26    7.86
 -18  23   7   44.36    9.67
  -5  23  -7   36.82    7.05
  23  -5  10  103.59   10.94
 -18  23  10  100.17   14.36
  -5  23 -10   96.59   10.44
  23  -5  13    4.62    8.66
  -5  23 -13   14.17    7.24
  23  -5  16   14.29    7.01
  -5  23 -16   12.40    5.82
  23  -5  19   -0.58    2.93
  -5  23 -19   -2.54    2.58
  23  -4 -18    6.82    3.89
  23 -19  18    6.28    4.43
 -19  23 -18   -0.23    2.77
  23  -4 -15   29.08    7.20
  23 -19  15   18.06    7.43
 -19  23 -15   27.23    5.97
  23  -4 -12   29.50    9.28
  23 -19  12   27.15    8.43
 -19  23 -12   26.11    7.82
  23  -4  -9   22.61    9.28
  23 -19   9   17.33    8.09
 -19  23  -9   29.73    8.74
  23 -19   6  188.01   14.36
  23  -4  -6  206.38   14.83
  -4  23   6  153.89   13.25
 -19  23  -6  174.88   14.17
 -19  23  -6  206.11   14.98
  23  -4  -3   34.12    6.93
  23 -19   3   34.12    7.09
  23  -4  -3   24.61    8.01
 -19  23  -3   28.27    8.59
  -4  23   3   29.08    6.20
 -19  23  -3   38.67    8.59
  23  -4   0  485.51   31.93
  23 -19   0  532.18   31.93
  23  -4   0  456.16   32.20
 -19  23   0  444.15   32.58
  -4  23   0  454.47   31.54
 -19  23   0  482.27   32.27
  23  -4   3  265.03   17.83
  23 -19  -3  239.11   17.45
 -19  23   3  226.14   19.10
  -4  23  -3  233.57   17.10
 -19  23   3  261.57   18.41
  23  -4   6   95.93    9.67
  -4  23  -6   92.77    9.01
 -19  23   6   89.08   11.21
  23  -4   9   31.58    8.59
 -19  23   9   18.79   11.78
  -4  23  -9   27.46    7.09
  23  -4  12    8.66    8.05
 -19  23  12    8.74   11.21
  -4  23 -12   13.25    7.09
  23  -4  15    6.01    6.93
  -4  23 -15   15.83    5.89
  23  -4  18    5.08    3.81
  -4  23 -18   10.44    3.31
  23  -3 -19   -3.08    2.43
  23  -3 -16    1.00    5.74
  23 -20  16   14.94    5.58
 -20  23 -16    7.89    4.16
  23  -3 -13    1.50    8.13
  23 -20  13   -1.73    7.24
 -20  23 -13    2.54    6.62
  23  -3 -10   88.19   11.40
  23 -20  10   59.69    9.17
 -20  23 -10   94.97   10.17
  23 -20   7   87.19    9.36
 -20  23  -7   90.31    9.63
 -20  23  -7   84.34   10.55
  23 -20   4  134.94   11.75
  23  -3  -4  149.81   11.71
  -3  23   4  130.32   10.90
 -20  23  -4  144.15   12.90
 -20  23  -4  158.05   12.94
  23  -3  -1   30.15    6.39
  23 -20   1   31.27    6.62
 -20  23  -1   27.54    9.78
  -3  23   1   32.73    5.66
 -20  23  -1   31.39    9.09
  23  -3   2  331.85   22.22
  23 -20  -2  316.25   21.95
 -20  23   2  315.02   23.38
 -20  23   2  344.06   22.91
  -3  23  -2  304.62   21.68
  23 -20  -5   47.18    7.05
  23  -3   5   48.41    7.86
 -20  23   5   48.52   11.51
 -20  23   5   53.61    9.20
  -3  23  -5   48.99    6.59
  23  -3   8  137.91   11.59
 -20  23   8  119.19   14.63
  -3  23  -8  131.75   10.90
  23  -3  11   41.51    8.32
 -20  23  11   35.31   11.86
  -3  23 -11   32.97    7.24
  23  -3  14   -0.15    7.32
  -3  23 -14    2.54    5.70
  23  -3  17    9.78    4.39
  -3  23 -17    4.12    3.62
  23  -2 -17    1.50    4.35
  23 -21  17   -2.08    3.85
 -21  23 -17    5.35    2.62
  23 -21  14    0.46    6.28
 -21  23 -14   13.40    5.43
  23 -21  11   12.82    6.85
 -21  23 -11   18.14    7.16
  23 -21   8   61.19    8.63
 -21  23  -8   66.66    8.82
 -21  23  -8   84.34   10.28
  23 -21   5  116.34   10.44
 -21  23  -5   96.55   11.67
 -21  23  -5  132.29   11.63
  23 -21   2  180.46   13.94
  23  -2  -2  186.28   13.94
 -21  23  -2  171.49   15.64
 -21  23  -2  208.58   15.37
  23  -2   1   75.79    8.20
  23 -21  -1   87.34    8.20
 -21  23   1   80.57   11.09
 -21  23   1   76.64   10.17
  -2  23  -1   72.75    7.20
  23  -2   4  155.24   11.78
  23 -21  -4  138.25   11.48
 -21  23   4  134.10   14.02
 -21  23   4  152.47   12.82
  -2  23  -4  134.13   10.98
  23  -2   7  155.58   12.67
 -21  23   7  175.34   13.75
  -2  23  -7  147.92   11.86
  23  -2  10   27.65    7.59
 -21  23  10   20.33   11.25
  -2  23 -10   16.41    6.24
  23  -2  13    3.62    6.89
  -2  23 -13    0.31    5.58
  23  -2  16   14.29    4.85
  -2  23 -16    7.97    4.01
  23 -22  15    0.42    4.70
 -22  23 -15   -0.08    3.77
  23 -22  12   22.30    6.55
 -22  23 -12   28.07    6.74
  23 -22   9   46.06    7.51
 -22  23  -9   50.95    7.86
 -22  23  -9   69.82    8.59
  23 -22   6  222.82   16.64
 -22  23  -6  222.52   17.83
 -22  23  -6  256.06   18.02
  23  -1  -3   60.58    7.39
  23 -22   3   45.48    7.09
  23  -1  -3   48.68    9.32
 -22  23  -3   52.64    9.94
 -22  23  -3   48.95    8.97
  23  -1   0  156.47   11.94
  23 -22   0  149.88   11.75
  23  -1   0  153.12   13.32
 -22  -1   0  133.75   11.71
 -22  23   0  140.68   14.25
 -22  23   0  161.44   13.48
  23  -1   3  100.32   10.05
  23 -22  -3  120.27    9.70
  23  -1   3  109.53   11.71
 -22  23   3  105.06   12.90
 -22  23   3  123.77   11.90
  23  -1   6   23.72    7.12
  -1  23  -6   27.11    5.51
  23  -1   9   61.23    8.01
 -22  23   9   51.14   12.09
  -1  23  -9   56.88    6.70
  23  -1  12   43.67    7.24
 -22  23  12   33.00   10.21
  -1  23 -12   38.74    5.97
  23  -1  15   15.64    4.97
  -1  23 -15   11.36    3.89
 -22  -1 -18    1.77    2.50
  23 -23  13    9.70    4.93
 -23  23 -13   10.63    5.01
  23 -23  10  120.27   10.78
  23   0 -10  157.05   13.17
 -23  23 -10  123.74   10.78
 -23  23 -10  154.74   11.55
  23 -23   7   58.73    7.20
  23   0  -7   61.96   10.09
 -23  23  -7   59.46    9.17
 -23  23  -7   50.03    9.40
  23 -23   4    9.36    5.82
  23   0  -4    5.97    8.90
 -23  23  -4   -4.27    9.55
 -23  23  -4   11.48    8.32
  23   0  -1   20.03    6.01
  23 -23   1   12.98    5.55
  23   0  -1   23.72    8.59
 -23   0   1   14.63    5.85
 -23  23  -1   23.76    9.94
 -23  23  -1   22.14    7.66
  23   0   2  104.98   10.17
  23 -23  -2  117.38    9.82
  23   0   2  139.83   12.05
 -23  23   2  120.19   13.56
 -23   0  -2  112.80   11.21
 -23  23   2  141.53   11.86
  23   0   5  161.75   12.75
  23   0   5  174.88   14.79
 -23  23   5  174.49   14.52
  23   0   8    1.85    5.66
   0  23  -8    4.78    4.66
  23   0  11   91.96    8.66
   0  23 -11   90.58    7.82
  23   0  14   -2.35    4.58
   0  23 -14    8.32    3.43
 -23   0 -17    2.54    3.35
  23   1 -17   -1.58    3.08
  23   1 -14    2.66    5.85
 -24  23 -14   -0.85    3.16
  23   1 -11   44.36    8.55
  23 -24  11   37.01    5.66
 -24  23 -11   56.15    6.66
  23 -24   8    9.90    5.43
  23   1  -8    0.50    9.44
 -24  23  -8   -1.77    7.78
 -24  23  -8    2.62    7.20
  23 -24   5  398.17   28.92
  23   1  -5  483.43   29.96
 -24  23  -5  394.24   30.00
 -24  23  -5  480.46   29.54
  23   1  -2   49.68    7.01
  23 -24   2   61.69    6.85
  23   1  -2   48.02    9.59
 -24  23  -2   64.58   10.63
 -24  23  -2   59.35    8.63
  23 -24  -1  105.37    9.40
  23   1   1  102.75    9.67
  23   1   1  132.90   11.90
 -24   1  -1  113.07   10.55
 -24  23   1  123.74   13.17
 -24  23   1  122.73   11.55
  23   1   4   58.69    7.28
  23   1   4   72.40   10.44
 -24   1  -4   71.48   10.01
 -24  23   4   77.64   10.05
  23   1   7   53.53    6.89
 -24  23   7   63.04   11.40
  23   1  10   59.85    6.82
 -24  23  10   62.50   10.74
 -24   1 -16    4.66    4.01
  23   2 -15    9.70    4.66
  23   2 -12    8.90    7.05
 -25  23 -12   14.44    4.04
  23   2  -9   21.10    9.24
 -25  23  -9    8.13    6.66
 -25  23  -9   14.79    5.97
  23   2  -6  367.74   23.53
 -25  23  -6  292.65   23.03
 -25  23  -6  319.26   22.49
  23   2  -3   44.52    9.17
 -25  23  -3   55.61   10.40
 -25  23  -3   45.60    8.28
  23   2   0   57.92    9.78
 -25   2   0   48.52    7.63
 -25  23   0   43.98   11.13
 -25  23   0   49.37    8.74
 -25   2  -3  112.57   11.86
 -25  23   3  116.69   11.28
  23   2   3  122.97   12.48
 -25  23   6   62.50   11.90
 -25   2  -6   82.11   10.94
  23   2   6   76.87   10.82
 -25  23   9   68.40   10.94
 -25  23  12   50.56    8.82
 -25   2 -15    1.27    4.47
  23   2  15   -4.12    4.97
  23   3 -16    1.96    2.97
  23   3 -13   24.53    5.82
  23   3 -10   68.63    8.74
 -26  23 -10   59.15    7.24
 -26  23 -10   54.72    5.89
  23   3  -7  159.82   13.09
 -26  23  -7  127.51   12.13
 -26  23  -7  128.05   10.71
 -26  23  -4  112.76   12.94
 -26  23  -4  130.17   11.01
  23   3  -1   18.75    8.86
 -26   3   1   20.30    6.62
 -26  23  -1   19.49   10.40
 -26  23  -1   15.37    6.85
  23   3   2   84.65   11.09
 -26  23   2  104.17    9.86
 -26   3  -2   93.27   10.63
  23   3   5  141.68   12.71
 -26  23   5  104.29   13.83
 -26   3  -5  137.64   13.09
  23   3   8    6.01    8.05
 -26  23   8    8.74    9.94
 -26   3  -8   10.59    9.67
  23   3  11   57.73    8.40
 -26  23  11   58.04    8.93
 -26   3 -11   54.30    9.17
  23   3  14   17.10    5.20
  23   4 -14   -0.35    4.04
  23   4 -11   42.90    6.97
 -27  23 -11   27.23    5.04
  23   4  -8   32.62    8.86
 -27  23  -8   27.92    7.39
  23   4  -5  272.74   17.87
 -27  23  -5  234.07   17.75
 -27  23  -5  211.93   16.17
  23   4  -2   11.36    8.59
 -27   4   2   14.98    5.89
 -27  23  -2   21.41    9.78
 -27  23  -2   15.17    6.24
  23   4   1   67.09    9.59
 -27   4  -1   58.27    8.78
 -27  23   1   52.72   11.40
 -27  23   1   52.18    7.70
 -27   4  -4  124.28   12.13
 -27  23   4  110.33   12.90
  23   4   4  105.37   11.59
 -27   4  -7   -0.08    9.28
 -27  23   7    6.51    9.51
  23   4   7    9.97    7.78
 -27  23  10   72.48    9.36
 -27   4 -10   82.14    9.86
  23   4  10   62.16    8.40
  23   4  13   13.90    5.04
 -27   4 -16    1.69    2.20
  23   5 -15    3.93    2.39
  23   5 -12   23.76    5.24
  23   5  -9    8.43    7.16
 -28  23  -9   13.17    6.01
  23   5  -6   74.36   10.17
 -28  23  -6   72.17    9.55
  23   5  -3   37.39    8.93
 -28  23  -3   19.83    9.44
 -28  23  -3   25.65    5.28
  23   5   0   48.41    8.74
 -28   5   0   37.28    7.97
 -28  23   0   32.35   11.05
 -28  23   0   38.13    6.01
 -28   5  -3   64.51    9.70
  23   5   3   60.46    9.28
 -28   5  -6   48.25    9.94
 -28  23   6   45.60   10.24
  23   5   6   50.83    8.01
 -28   5  -9   21.91    8.63
 -28  23   9   17.87    8.20
  23   5   9   19.83    6.51
  23   5  12   31.73    5.16
 -28   5 -15    4.54    2.66
  23   6 -13   10.55    3.66
 -29  23 -10   14.06    4.93
  23   6 -10   18.72    5.78
 -29  23  -7   18.79    7.09
  23   6  -7    8.43    7.36
 -29  23  -4   85.03   10.63
  23   6  -4   90.54   10.32
 -29   6   1   37.55    6.97
 -29  23  -1   22.41   10.36
  23   6  -1   32.50    8.36
 -29   6  -2   65.43    9.32
  23   6   2   65.74    8.97
 -29  23   5   44.90   10.17
 -29   6  -5   69.28    9.63
  23   6   5   54.65    7.86
 -29  23   8    3.39    7.97
 -29   6  -8    3.97    8.01
  23   6   8    7.47    5.74
 -29  23  11   22.37    5.93
  23   6  11   25.53    4.74
 -29   6 -14    0.65    3.16
 -30  23 -11   17.14    3.39
  23   7 -11   29.50    4.54
 -30  23  -8   -1.96    5.85
  23   7  -8  -17.14    5.85
 -30  23  -5   72.29    9.51
  23   7  -5   84.69    8.93
 -30   7   2    3.74    5.78
 -30  23  -2   15.17    9.32
  23   7  -2    6.35    7.51
 -30   7  -1   91.50   10.05
  23   7   1  105.37   10.13
 -30  23   4   39.36    9.44
 -30   7  -4   31.81    8.55
  23   7   4   30.39    6.74
 -30  23   7   -0.46    7.86
 -30   7  -7   13.36    7.97
  23   7   7    4.78    5.20
 -30  23  10   23.15    5.82
  23   7  10   19.95    3.97
 -31  23  -9    4.93    4.47
  23   8  -9    8.24    4.35
  23   8  -6   76.98    7.36
 -31  23  -6   54.07    8.16
  23   8  -3   46.52    7.39
 -31  23  -3   33.24    8.86
  23   8   0   59.27    7.66
 -31   8   0   59.50    7.47
  23   8   3   11.13    5.78
 -31   8  -3    0.08    7.55
 -31  23   3    9.44    9.01
  23   8   6    4.12    4.51
 -31  23   6    7.43    7.66
 -31   8  -6   11.17    7.70
  23   8   9    8.36    3.04
 -31  23   9   22.41    5.78
 -31   8  -9   16.17    6.05
 -32  23 -10    5.78    2.85
  23   9  -7   27.15    4.74
 -32  23  -7   40.24    5.85
  23   9  -4   23.99    5.51
 -32  23  -4   21.91    7.51
  23   9  -1   13.36    5.51
 -32   9   1   26.84    5.43
  23   9   2   32.73    5.24
 -32   9  -2   27.54    6.82
 -32  23   2   28.00    8.82
  23   9   5   23.76    4.16
 -32   9  -5   31.58    7.24
 -32  23   5   18.29    7.63
 -32  23   8   15.10    5.58
 -32   9  -8    7.63    5.82
 -33  23  -8    8.13    3.89
  23  10  -5   19.29    3.70
 -33  23  -5   33.31    6.24
  23  10  -2    4.12    4.01
 -33  10   2    6.74    3.97
 -33  10  -1   32.46    6.05
 -33  23   1   47.48    8.40
 -33  10  -4    7.97    6.20
 -33  23   4    7.70    6.97
 -33  23   7    0.31    5.35
 -33  10  -7    6.66    5.43
 -33  10 -10   13.59    3.62
 -34  23  -6   19.10    4.74
 -34  23  -3    2.12    6.05
 -34  23   0   38.05    7.43
 -34  11   0   33.62    4.81
 -34  11  -3    0.96    5.04
 -34  23   3   10.63    6.43
 -34  11  -6    5.20    4.74
 -34  23   6   -2.20    4.85
 -34  11  -9   30.27    3.62
 -35  23  -7    2.27    2.70
 -35  23  -4   19.79    4.89
 -35  23  -1    9.86    5.70
 -35  23   2   18.41    5.85
 -35  12  -2   15.06    4.08
 -35  12  -5   17.02    3.97
 -35  23   5   10.86    4.43
 -36  23  -5   11.98    3.12
 -36  23   1   15.75    4.78
  24 -12   0   65.31    7.32
 -12  24   0   44.02    7.43
 -12  24   0   53.49    8.43
  24 -12  -3   28.58    6.08
 -12  24   3   28.07    8.86
 -12  24   3   30.92    8.20
 -12  24  -3   21.37    7.28
  24 -12  -6  139.22   11.09
 -12  24   6  111.53   13.79
 -12  24   6  126.55   12.13
 -12  24  -6  130.01   11.78
  24 -12  -9   37.20    7.36
 -12  24  -9   43.13    9.13
  24 -12 -12  103.63    9.78
 -12  24 -12  115.30   11.21
  24 -12 -15   -4.78    4.93
  24 -12 -18    0.89    2.23
 -13  24 -19    4.27    3.08
  24 -11 -16    1.69    4.66
  24 -11 -13   44.83    7.16
  24 -11 -10    9.86    6.89
  24 -11  -7  100.40    9.55
 -13  24  -7   87.73   10.28
 -11  24   7  103.25   11.44
  24 -11  -4  152.16   11.40
 -11  24   4  124.93   13.25
 -13  24  -4  138.14   12.32
 -11  24   4  147.42   12.32
  24 -11  -1   18.06    7.51
  24 -13   1   11.36    7.70
  24 -11  -1   17.10    5.97
  24 -13   1   23.68    6.16
 -11  24   1   -0.08    7.16
 -13  24  -1   17.02    6.51
 -11  24   1   26.53    7.12
 -13  24  -1   25.38    7.55
  24 -13  -2   -2.97    7.55
  24 -11   2    8.90    7.86
  24 -11   2    6.32    6.47
  24 -13  -2    4.35    5.47
 -13  24   2   14.90    7.78
 -13  24   2   13.02    7.36
 -11  24  -2    7.28    6.89
  24 -11   5  273.12   19.87
  24 -13  -5  266.23   19.49
  24 -13  -5  278.36   18.75
 -13  24   5  250.67   20.53
 -11  24  -5  261.26   19.29
 -13  24   5  273.66   19.99
  24 -11   8   16.25    9.74
  24 -13  -8    9.94    6.39
 -13  24   8    1.66   11.98
 -11  24  -8   10.51    8.32
 -13  24   8   17.48    8.86
  24 -11  11  104.75   12.82
  24 -13 -11   90.42    9.09
 -11  24 -11  113.95   11.01
  24 -13 -14    7.78    5.12
  24 -11  14    6.74    9.13
 -11  24 -14    4.54    7.16
  24 -11  17    0.08    6.51
  24 -13 -17    3.81    2.93
 -11  24 -17    4.20    5.01
  24 -10 -17    4.47    4.04
  24 -14  17    1.58    6.43
 -14  24 -17    1.54    5.04
  24 -10 -14   12.79    5.93
  24 -14  14   -1.46    8.86
  24 -14  11  125.01   13.71
  24 -10 -11  125.51   11.40
  24 -10  -8   23.95    7.63
  24 -14   8   21.76    9.24
 -10  24   8   21.10    8.82
  24 -14   5  126.97   12.44
  24 -10  -5  138.02   11.82
  24 -10  -5  139.18   11.55
 -10  24   5  127.86   13.52
 -10  24   5  129.63   12.17
  24 -10  -2   43.94    7.59
  24 -14   2   42.86    7.82
  24 -10  -2   45.25    6.97
  24 -14   2   37.78    6.20
 -10  24   2   31.85    7.82
 -14  24  -2   20.87    6.66
 -10  24   2   38.59    7.70
 -14  24  -2   39.09    8.16
  24 -14  -1   39.74    7.59
  24 -10   1   40.32    7.86
  24 -14  -1   37.47    5.70
  24 -10   1   30.77    7.12
 -10  24  -1   22.07    6.12
 -14  24   1   24.76    7.89
 -14  24   1   37.20    8.13
 -10  24  -1   38.47    7.32
  24 -10   4  102.67   10.74
  24 -14  -4  123.70   10.44
  24 -14  -4  116.69    9.13
 -14  24   4   83.99   11.75
 -10  24  -4  111.45    9.90
 -14  24   4   93.58   11.36
  24 -10   7  169.18   13.90
  24 -14  -7  148.92   11.75
 -14  24   7  148.34   15.37
 -14  24   7  145.38   13.86
 -10  24  -7  137.18   12.75
  24 -14 -10   62.97    7.39
  24 -10  10   66.32   11.21
 -10  24 -10   57.69    9.09
  24 -14 -13   -0.23    5.12
  24 -10  13    2.00    9.24
 -10  24 -13   -2.12    7.97
  24 -10  16    7.63    7.66
  24 -14 -16    7.01    3.39
 -10  24 -16   10.24    6.35
  24 -10  19    2.00    3.89
 -10  24 -19    3.62    3.08
  24  -9 -18    2.73    3.23
  24 -15  18   -1.46    5.39
 -15  24 -18    3.47    3.77
  24  -9 -15    7.47    5.89
  24 -15  15    7.93    8.47
 -15  24 -15   17.45    6.05
  24 -15  12  115.42   13.44
  24  -9 -12  126.47   11.25
 -15  24 -12  136.29   12.09
  24  -9  -9   28.81    8.51
  24 -15   9   24.18    9.63
  24  -9  -6   71.09    8.70
  24  -9  -6   54.61    9.01
  24 -15   6   52.53    9.55
  -9  24   6   64.35    8.66
  24 -15   3  138.41   11.78
  24  -9  -3  168.56   11.86
  24  -9  -3  147.54   11.28
  24 -15   3  118.81   10.63
 -15  24  -3  102.90   10.78
  -9  24   3  147.00   11.67
  24  -9   0   44.67    7.70
  24 -15   0   28.07    7.63
  24 -15   0   28.92    5.39
  24  -9   0   28.54    7.12
  -9  24   0   14.60    6.24
 -15  24   0   26.88    7.55
  -9  24   0   28.00    7.05
  24  -9   3  118.88   10.82
  24 -15  -3  110.68   10.71
  24 -15  -3  106.14    8.90
 -15  24   3   94.27   11.82
  -9  24  -3  103.63    9.86
 -15  24   3  104.63   10.90
  24  -9   6  439.14   27.84
  24 -15  -6  396.28   26.96
  24 -15  -6  423.43   27.65
 -15  24   6  400.82   27.73
 -15  24   6  334.74   28.73
  -9  24  -6  395.28   27.42
  24  -9   9  340.82   21.57
  24 -15  -9  271.54   19.91
  -9  24  -9  283.25   20.83
  24 -15 -12   24.42    5.47
  24  -9  12   41.71   10.17
  -9  24 -12   27.69    8.24
  24  -9  15   11.09    8.51
  -9  24 -15   -4.47    7.01
  24  -9  18    0.39    5.01
  -9  24 -18    7.43    4.12
  24 -16  19    5.12    3.66
 -16  24 -19    3.62    2.50
  24  -8 -16    8.55    5.16
  24 -16  16   15.25    7.36
 -16  24 -16    8.24    5.43
  24  -8 -13   20.80    7.59
  24 -16  13   20.80    9.01
 -16  24 -13    7.74    7.66
  24 -16  10  137.52   14.02
  24  -8 -10  141.95   12.79
 -16  24 -10  132.17   12.90
  24  -8  -7   11.82    7.86
  24 -16   7   15.40    8.82
 -16  24  -7    6.78    8.43
  -8  24   7    3.74    7.93
  24 -16   4  113.57   10.51
  24  -8  -4  113.72    9.90
  24  -8  -4  112.61   10.01
  24 -16   4   86.80    8.36
 -16  24  -4   73.71    9.01
  -8  24   4   95.97   10.01
  24  -8  -1   34.62    7.47
  24 -16   1   38.93    8.13
  24  -8  -1   42.32    7.78
  24 -16   1   40.21    5.43
 -16  24  -1   28.11    7.66
  -8  24   1   38.43    6.78
  24 -16  -2   38.63    7.59
  24  -8   2   25.53    7.82
  24  -8   2   34.78    7.74
  24 -16  -2   35.58    5.31
 -16  24   2   28.07    8.97
  -8  24  -2   32.50    6.51
  24  -8   5  233.11   16.25
  24 -16  -5  210.27   14.94
  24 -16  -5  216.12   15.83
 -16  24   5  187.32   17.48
  -8  24  -5  200.03   15.67
  24  -8   8   65.08   10.17
  24 -16  -8   71.32    7.01
 -16  24   8   55.34   12.94
  -8  24  -8   74.17    8.97
 -16  24   8   67.74   11.21
  24  -8  11   23.49    9.05
  -8  24 -11   25.69    7.97
  24  -8  14   -3.08    8.97
  -8  24 -14   11.32    7.43
  24  -8  17   -1.27    5.97
  -8  24 -17   11.28    5.16
  24  -7 -17    3.50    4.43
  24 -17  17    1.66    6.01
 -17  24 -17    4.58    4.31
  24  -7 -14   11.40    7.32
  24 -17  14    7.24    8.43
 -17  24 -14    3.66    6.39
  24 -17  11  127.86   13.63
  24  -7 -11  133.59   13.17
 -17  24 -11  163.75   12.71
  24  -7  -8   12.13    8.74
  24 -17   8   12.13    8.93
 -17  24  -8   11.36    8.59
  24  -7  -5   10.86    7.16
  24 -17   5   -0.08    7.97
  24  -7  -5    9.32    8.24
 -17  24  -5    4.08    6.32
  -7  24   5   -1.66    6.97
 -17  24  -5    0.23    8.78
  24  -7  -2   40.82    7.51
  24 -17   2   39.47    8.01
  24  -7  -2   28.96    7.74
  24 -17   2   32.43    5.28
 -17  24  -2   29.35    7.86
  -7  24   2   39.70    7.05
 -17  24  -2   37.05    8.36
  24 -17  -1   30.39    7.20
  24  -7   1   21.57    7.20
  24  -7   1   25.80    8.13
 -17  24   1   20.91    8.97
  -7  24  -1   14.48    6.78
  24 -17  -4   51.03    7.97
  24  -7   4   43.71    8.70
 -17  24   4   45.33   10.67
  -7  24  -4   63.24    7.59
  24  -7   7   42.48    8.59
 -17  24   7   46.06   11.67
  -7  24  -7   39.28    8.01
  24  -7  10  139.22   13.40
  -7  24 -10  142.76   12.48
  24  -7  13   27.54    9.32
  -7  24 -13   28.42    7.70
  24  -7  16    0.42    6.85
  -7  24 -16   -1.54    5.51
  24  -7  19    4.43    2.85
  -7  24 -19    0.42    2.39
  24  -6 -18    4.39    3.31
  24 -18  18    4.62    4.27
 -18  24 -18    5.01    2.85
  24  -6 -15   24.42    6.47
  24 -18  15   29.65    7.70
 -18  24 -15   18.75    6.01
  24  -6 -12   49.64    9.20
  24 -18  12   50.18    9.63
 -18  24 -12   53.49    8.47
  24  -6  -9   13.79    9.40
  24 -18   9   14.90    8.74
 -18  24  -9   29.92    8.74
  24 -18   6   39.59    8.63
  24  -6  -6   48.72    9.44
 -18  24  -6   33.97    7.05
 -18  24  -6   43.09    9.55
  -6  24   6   36.82    7.59
  24 -18   3  103.17   10.13
  24  -6  -3   93.08    9.70
  24  -6  -3   97.12   10.28
 -18  24  -3   92.08   10.13
 -18  24  -3   93.27   11.21
  -6  24   3   93.74    9.13
  24  -6   0  123.70   10.24
  24 -18   0  113.18   10.51
  24  -6   0  114.65   10.98
 -18  24   0   99.17   11.67
  -6  24   0  110.60   10.01
 -18  24   0  106.95   11.51
  24 -18  -3   18.14    7.05
  24  -6   3   26.07    7.66
  24  -6   3   19.06    8.05
 -18  24   3   28.07    9.78
 -18  24   3   12.63    8.86
  -6  24  -3   20.14    6.20
  24 -18  -6   38.51    7.74
  24  -6   6   46.48    8.09
 -18  24   6   31.39   11.40
  -6  24  -6   35.31    7.51
  24  -6   9   51.37    9.09
  -6  24  -9   45.17    8.24
  24  -6  12   16.14    8.28
  -6  24 -12   18.83    7.51
  24  -6  15   11.05    7.36
  -6  24 -15   -5.28    6.12
  24  -6  18    2.27    3.81
  -6  24 -18    2.12    3.23
  24  -5 -16   18.75    5.55
  24 -19  16    7.55    6.08
 -19  24 -16   19.14    4.43
  24  -5 -13    4.08    7.82
  24 -19  13    3.23    7.39
 -19  24 -13    8.16    6.39
  24  -5 -10   75.48   10.86
  24 -19  10   65.20    9.70
 -19  24 -10   99.59   10.09
  24 -19   7   39.67    8.24
  24  -5  -7   31.81    9.13
 -19  24  -7   32.66    7.12
 -19  24  -7   40.05    9.55
  24  -5  -4   25.80    6.82
  24 -19   4    6.08    7.09
  24  -5  -4   18.33    8.13
 -19  24  -4    3.35    7.97
  -5  24   4    7.66    6.32
 -19  24  -4   22.68    9.17
  24 -19   1  218.78   16.29
  24  -5  -1  243.51   16.21
  24  -5  -1  222.02   16.83
 -19  24  -1  194.17   17.06
  -5  24   1  215.16   15.79
 -19  24  -1  204.76   17.06
  24  -5   2  224.37   15.29
  24 -19  -2  216.24   15.21
  24  -5   2  201.72   16.02
 -19  24   2  173.88   16.64
  -5  24  -2  193.94   14.75
 -19  24   2  188.32   16.17
  24 -19  -5   12.55    7.20
  24  -5   5    3.04    7.32
 -19  24   5    2.39   10.74
 -19  24   5    7.59    8.93
  -5  24  -5   11.05    6.62
  24  -5   8   67.20    9.01
  -5  24  -8   51.14    7.93
  24  -5  11  106.79   10.94
 -19  24  11   78.99   13.56
  -5  24 -11   99.82   10.13
  24  -5  14    2.00    7.55
  -5  24 -14    9.09    6.16
  24  -5  17    5.16    4.66
  -5  24 -17    1.58    3.85
  24  -4 -17    7.47    4.31
  24 -20  17    2.50    4.39
 -20  24 -17   11.21    3.00
  24  -4 -14   21.45    7.28
  24 -20  14   25.30    6.93
 -20  24 -14   31.69    5.93
  24  -4 -11   34.08    9.63
  24 -20  11   32.77    7.89
 -20  24 -11   41.59    8.16
  24  -4  -8   27.57    9.47
  24 -20   8   12.21    7.63
 -20  24  -8   15.02    8.78
  24  -4  -5   34.78    7.39
  24 -20   5   35.05    7.51
  24  -4  -5   30.89    9.59
 -20  24  -5   33.85    8.55
 -20  24  -5   36.78    9.24
  -4  24   5   31.12    6.08
  24 -20   2  218.24   15.64
  24  -4  -2  212.58   15.56
  24  -4  -2  209.77   16.29
 -20  24  -2  186.47   16.75
  -4  24   2  195.91   14.87
 -20  24  -2  234.92   16.79
  24  -4   1  550.36   33.97
  24 -20  -1  524.52   33.81
 -20  24   1  457.32   34.70
 -20  24   1  533.61   34.54
  -4  24  -1  473.38   33.58
  24 -20  -4   40.48    7.32
  24  -4   4   37.89    7.43
 -20  24   4   34.35   10.67
 -20  24   4   47.52    9.36
  -4  24  -4   42.98    6.51
  24  -4   7  201.64   15.87
 -20  24   7  216.51   16.83
  -4  24  -7  201.41   15.17
  24  -4  10  118.77   11.44
 -20  24  10  110.60   14.48
  -4  24 -10  122.77   10.63
  24  -4  13   10.21    7.63
  -4  24 -13   20.72    6.47
  24  -4  16   16.60    5.39
  -4  24 -16    7.89    4.27
  24  -3 -18    3.89    2.77
  24  -3 -15    8.66    6.01
  24 -21  15   10.17    5.47
 -21  24 -15    8.40    4.43
  24  -3 -12    4.35    7.97
  24 -21  12    6.32    6.59
 -21  24 -12   17.52    6.78
  24  -3  -9   32.12   10.32
  24 -21   9   34.12    7.47
 -21  24  -9   58.88    8.93
  24 -21   6  158.16   13.59
 -21  24  -6  147.11   14.02
  24  -3  -3   45.37    7.32
  24 -21   3   50.80    7.32
 -21  24  -3   42.52    9.59
 -21  24  -3   40.36   10.01
  24  -3   0  412.88   25.46
  24 -21   0  401.36   25.46
 -21  -3   0  323.03   24.99
 -21  24   0  362.89   26.53
  -3  24   0  354.26   24.88
 -21  24   0  424.93   26.19
  24  -3   3  135.02   11.01
  24 -21  -3  128.51   10.90
 -21  24   3  129.82   13.67
 -21  24   3  127.09   12.48
  -3  24  -3  122.16   10.28
  24  -3   6  110.53   10.63
 -21  24   6  111.45   12.44
  -3  24  -6  109.53    9.59
  24  -3   9   14.10    7.66
 -21  24   9    7.74   11.98
  -3  24  -9   23.76    6.24
  24  -3  12   50.91    8.16
  -3  24 -12   45.25    6.85
  24  -3  15   14.48    5.66
  -3  24 -15    6.74    4.35
 -21  -3 -18   -1.04    2.54
  24  -2 -16    2.81    4.58
  24 -22  16   -2.54    3.66
 -22  24 -16    5.89    2.73
  24 -22  13   15.64    5.89
 -22  24 -13   15.98    5.70
  24 -22  10   30.23    6.82
 -22  24 -10   35.12    8.09
  24 -22   7  208.88   15.98
 -22  24  -7  208.31   16.56
 -22  24  -7  247.70   17.29
  24 -22   4   13.56    6.51
 -22  24  -4   24.96    9.17
 -22  24  -4    6.78    9.63
  24 -22   1  163.36   13.17
  24  -2  -1  175.07   13.25
 -22  24  -1  161.67   15.29
 -22  24  -1  187.97   14.56
  24  -2   2  134.98   10.86
  24 -22  -2  129.20   10.51
  24  -2   2  123.31   12.71
 -22  24   2  108.37   13.59
 -22  24   2  150.27   12.71
  -2  24  -2  115.65    9.78
  24  -2   5   87.07   11.40
  24  -2   5   85.30    8.93
 -22  24   5   91.66   11.21
  -2  24  -5   80.45    7.74
  24  -2   8   25.19    7.12
 -22  24   8    8.55   11.71
  -2  24  -8   24.22    5.82
  24  -2  11   87.07    9.32
 -22  24  11   94.20   12.05
  -2  24 -11   86.88    8.01
  24  -2  14    0.89    5.47
  -2  24 -14    4.08    4.24
  24 -23  14    2.66    4.27
 -23  24 -14    4.01    3.89
  24 -23  11   57.84    7.28
 -23  24 -11   69.28    7.66
  24 -23   8   -0.77    6.05
 -23  24  -8    7.55    7.12
 -23  24  -8   -6.55    7.86
  24 -23   5  319.49   22.80
  24  -1  -5  338.82   24.11
 -23  24  -5  303.35   23.76
 -23  24  -5  382.99   23.92
  24 -23   2   98.20    9.20
  24  -1  -2   92.27    9.40
  24  -1  -2  105.37   10.98
 -23  24  -2   86.69   12.09
 -23  24  -2  106.14   11.28
  24 -23  -1  110.06    9.40
  24  -1   1   98.13    9.44
  24  -1   1  118.34   11.44
 -23  -1  -1   92.39    9.86
 -23  24   1   95.28   12.63
 -23  24   1  116.77   11.63
  24  -1   4   60.46    7.59
  24  -1   4   57.65   10.32
 -23  24   4   41.01   11.86
 -23  24   4   54.57    9.59
  24  -1   7   32.23    6.74
 -23  24   7   32.50   11.67
  -1  24  -7   23.68    5.12
  24  -1  10   60.23    7.78
 -23  24  10   85.92   11.63
  -1  24 -10   77.33    6.85
  24  -1  13   11.48    5.01
  -1  24 -13    0.15    3.77
  24   0 -12   37.51    7.89
  24 -24  12   21.41    4.97
 -24  24 -12   34.74    5.43
  24 -24   9   76.79    8.16
  24   0  -9  100.36   11.40
 -24  24  -9   79.33    8.74
 -24  24  -9  108.79    9.24
  24   0  -6  182.04   14.17
  24 -24   6  146.23   11.78
 -24  24  -6  142.72   13.52
 -24  24  -6  162.55   13.44
  24 -24   3  244.20   18.18
  24   0  -3  283.13   19.60
 -24  24  -3  235.15   19.91
 -24  24  -3  283.98   19.26
  24   0   0   70.13    7.63
  24 -24   0   78.33    7.28
  24   0   0   73.02   10.55
 -24  24   0   50.22   11.36
 -24   0   0   68.55    7.86
 -24  24   0   71.44   10.13
  24   0   3   14.10    6.05
  24   0   3   14.48    9.63
 -24   0  -3   16.29    8.09
 -24  24   3   30.89   11.13
 -24  24   3   21.60    8.36
  24   0   6    1.69    5.51
  24   0   6   13.09    8.93
  24   0   9    7.09    5.62
 -24  24   9  -17.45   10.44
  24   0  12   58.69    6.28
 -24  24  12   63.43    9.55
  24   1 -16    3.23    3.20
  24   1 -13   15.25    6.24
 -25  24 -13    2.58    3.08
 -25  24 -10   50.18    6.55
 -25  24 -10   52.61    6.66
  24 -25   7   15.44    5.01
  24   1  -7   15.25    9.44
 -25  24  -7   27.50    8.01
 -25  24  -7   16.25    7.51
  24 -25   4    2.16    5.12
  24   1  -4   25.49    9.36
 -25  24  -4    2.04    9.40
 -25  24  -4    4.51    8.01
  24   1  -1   45.48    6.43
  24 -25   1   49.06    6.39
  24   1  -1   50.91    9.78
 -25   1   1   43.06    6.93
 -25  24  -1   56.23   10.86
 -25  24  -1   55.26    8.90
  24   1   2   27.15    5.85
  24   1   2   33.47    9.55
 -25   1  -2   32.04    7.86
 -25  24   2   19.91   10.59
 -25  24   2   39.70    8.82
  24   1   5   26.53    5.62
  24   1   5   42.02    9.32
 -25   1  -5   35.55    9.20
  24   1   8   33.31    9.32
 -25  24   8   19.26   10.55
 -25  24  11  112.80   11.55
  24   1  14    5.20    5.74
  24   2 -14   -7.36    4.47
  24   2 -11   19.06    6.85
 -26  24 -11   12.90    3.89
  24   2  -8   50.26    9.40
 -26  24  -8   31.39    7.39
 -26  24  -8   46.68    6.55
  24   2  -5  270.04   18.41
 -26  24  -5  246.47   17.33
  24   2  -2   15.67    8.93
 -26  24  -2    5.08    9.63
 -26  24  -2    5.58    7.47
  24   2   1   40.05    9.44
 -26  24   1   24.30   10.98
 -26   2  -1   27.19    7.36
 -26  24   1   28.15    8.09
  24   2   4   27.30    9.36
 -26   2  -4   18.45    8.43
 -26  24   4   20.76    7.93
 -26  24   7   26.19   10.21
 -26   2  -7   49.53    9.36
  24   2   7   26.92    8.82
 -26  24  10   46.21    9.32
 -26   2 -10   39.82    8.70
  24   2  10   46.33    8.59
  24   2  13    4.47    5.66
 -26   2 -16    5.51    2.62
  24   3 -15   -0.08    2.93
  24   3 -12   15.75    5.74
  24   3  -9   60.27    8.78
 -27  24  -9   77.14    5.89
  24   3  -6   70.21   10.36
 -27  24  -6   65.31    9.17
 -27  24  -6   64.27    7.20
  24   3  -3    8.93    8.97
 -27  24  -3    5.62    9.24
 -27  24  -3    3.74    6.12
  24   3   0   26.26    8.97
 -27   3   0   18.68    6.93
 -27  24   0   17.06    9.97
 -27  24   0   12.94    6.66
  24   3   3   19.18    8.32
 -27   3  -3    9.82    8.13
 -27  24   3    6.70    7.01
 -27   3  -6   74.40    9.97
 -27  24   6   73.52   10.94
  24   3   6   65.28    9.67
 -27  24   9   35.12    9.36
 -27   3  -9   57.46    8.78
  24   3   9   47.83    7.89
 -27   3 -12   18.06    6.24
  24   3  12   20.41    5.74
 -27   3 -15   10.47    3.12
  24   4 -13    4.70    4.04
 -28  24 -10   26.07    4.85
  24   4 -10   29.50    6.66
 -28  24  -7    4.97    6.93
  24   4  -7    5.85    7.47
  24   4  -4  123.93   11.40
 -28  24  -4   99.94    8.82
 -28  24  -4  107.48   11.32
  24   4  -1   43.75    9.09
 -28   4   1   29.69    6.51
 -28  24  -1   27.00   10.13
 -28  24  -1   27.07    6.12
 -28   4  -2   18.64    7.59
  24   4   2    9.36    8.09
 -28  24   5  113.26   13.44
 -28   4  -5  135.83   12.44
  24   4   5  142.11   11.98
 -28   4  -8   18.52    8.05
 -28  24   8   18.52    8.63
  24   4   8    6.78    6.55
 -28  24  11   28.27    6.55
 -28   4 -11   34.35    6.70
  24   4  11   27.27    5.74
  24   5 -11   37.28    5.55
 -29  24  -8   16.14    5.93
  24   5  -8   22.26    6.74
 -29  24  -5   73.02    9.05
  24   5  -5   63.89    9.59
 -29  24  -2   56.15    9.97
  24   5  -2   55.76    9.05
 -29   5  -1    0.39    6.62
  24   5   1    2.54    7.32
 -29  24   4   47.56   10.28
 -29   5  -4   55.22    8.78
  24   5   4   59.15    8.28
 -29  24   7   29.88    8.40
 -29   5  -7   16.56    7.82
  24   5   7   12.71    6.32
 -29  24  10   22.30    6.55
 -29   5 -10   24.03    6.51
  24   5  10   11.75    4.89
  24   6 -12   19.79    3.43
 -30  24  -9    5.78    4.51
  24   6  -9   18.56    5.31
 -30  24  -6   52.18    8.01
  24   6  -6   67.70    7.97
 -30  24  -3   11.59    8.24
  24   6  -3   -2.00    7.28
 -30   6   0    7.43    6.16
 -30  24   0    0.15    9.01
  24   6   0   12.17    7.20
 -30   6  -3   27.77    7.32
 -30  24   3   11.13    9.32
  24   6   3   18.33    6.62
 -30  24   6   53.65    9.09
 -30   6  -6   63.31    8.28
  24   6   6   49.41    6.93
 -30  24   9    7.74    6.32
 -30   6  -9    8.09    6.05
  24   6   9    8.97    4.27
 -31  24 -10   18.41    3.20
  24   7 -10   26.42    3.93
 -31  24  -7    2.70    5.51
  24   7  -7   -0.35    5.12
 -31  24  -4    7.78    7.43
  24   7  -4   18.79    6.62
 -31   7   1    6.66    5.16
 -31  24  -1    8.20    8.47
  24   7  -1    3.77    6.35
 -31   7  -2   20.18    6.66
  24   7   2   18.33    6.01
 -31  24   5   29.65    8.28
 -31   7  -5   38.28    7.24
  24   7   5   25.88    5.35
 -31  24   8   21.37    6.51
 -31   7  -8   18.79    6.12
  24   7   8   13.32    3.81
 -31   7 -11   10.59    4.27
 -32  24  -8   10.01    4.16
  24   8  -8    1.16    3.62
 -32  24  -5   29.15    6.59
  24   8  -5   26.73    5.35
 -32  24  -2    6.59    7.63
  24   8  -2   -1.54    5.51
 -32   8  -1   31.12    5.89
  24   8   1   37.59    6.01
 -32   8  -4   24.61    6.35
 -32  24   4   18.72    7.74
  24   8   4   20.30    4.66
 -32  24   7   16.56    6.24
 -32   8  -7   11.13    5.74
  24   8   7    6.47    3.04
 -32   8 -10   21.14    4.27
 -33  24  -6   22.99    5.01
  24   9  -6    6.82    3.16
 -33  24  -3   23.45    6.74
  24   9  -3   12.32    4.12
 -33   9   0   13.21    4.47
  24   9   0    8.47    4.20
 -33   9  -3    3.23    5.16
 -33  24   3   -7.43    7.16
  24   9   3   -2.00    3.35
 -33  24   6   44.83    6.82
 -33   9  -6   41.21    5.89
 -33   9  -9   20.56    3.89
 -34  24  -7    1.08    3.35
 -34  24  -4   22.95    5.43
 -34  10  -2   10.40    4.20
 -34  24   2    7.59    6.59
 -34  10  -5    3.62    4.35
 -34  24   5   10.36    5.55
 -34  10  -8   20.26    3.54
 -35  24  -5   24.49    4.20
 -35  24   1   19.76    5.85
 -35  11  -4    9.09    3.39
 -35  24   4    5.28    4.81
 -36  24   0    2.04    4.27
 -36  24   3   12.29    3.85
  25 -12 -17    1.12    2.70
  25 -12 -14    4.62    5.20
  25 -12 -11  134.63   11.36
 -13  25 -11  135.14   12.40
  25 -12  -8   10.13    7.12
 -13  25  -8    5.89    8.55
 -12  25   8   12.05    9.09
  25 -12  -5  210.12   14.52
 -12  25   5  182.70   15.52
 -12  25   5  159.74   16.21
 -13  25  -5  187.39   15.02
  25 -13   2  -10.36    6.35
  25 -12  -2   10.24    6.24
 -12  25   2    4.20    7.86
 -13  25  -2    1.04    5.82
 -12  25   2    3.50    7.82
 -13  25  -2   18.83    7.59
  25 -13  -1   10.24    5.70
  25 -12   1    7.70    6.32
 -12  25  -1    0.89    6.01
 -13  25   1   -1.27    7.24
 -13  25   1    2.81    7.47
 -12  25  -1    5.31    7.28
  25 -13  -4   70.67    7.86
 -13  25   4   51.18   10.51
 -13  25   4   73.52    9.51
 -12  25  -4   66.05    9.20
  25 -13  -7   51.49    7.89
 -13  25   7   53.61   11.98
 -13  25   7   55.15    9.63
 -12  25  -7   52.41    8.47
  25 -13 -10   63.00    7.86
 -12  25 -10   69.13    9.67
  25 -13 -13    3.54    5.28
 -12  25 -13    8.51    7.51
  25 -13 -16    2.23    3.31
 -12  25 -16   11.44    5.28
  25 -14  18    0.85    4.54
 -14  25 -18   -0.12    3.31
  25 -11 -15    7.70    4.97
  25 -14  15    5.04    7.89
  25 -14  12  145.69   13.13
  25 -11 -12  116.03   10.82
  25 -11  -9   -8.86    7.55
  25 -14   9   -5.43    9.97
  25 -14   6  168.18   14.90
  25 -11  -6  188.20   14.06
  25 -11  -6  189.28   14.40
 -11  25   6  161.59   14.48
 -14  25  -6  165.25   14.36
  25 -11  -3   36.62    8.47
  25 -14   3   41.67    8.97
  25 -14   3   36.59    6.82
  25 -11  -3   39.67    7.05
 -11  25   3   29.08    8.66
 -14  25  -3   24.45    6.39
 -11  25   3   27.03    8.51
 -14  25  -3   34.08    8.32
  25 -11   0    8.40    7.82
  25 -14   0    7.93    7.78
  25 -14   0   14.87    5.97
  25 -11   0    6.85    6.55
 -11  25   0    1.96    6.35
 -14  25   0    7.20    6.97
 -11  25   0   13.75    7.51
 -14  25   0   16.29    8.01
  25 -14  -3   17.25    7.97
  25 -11   3   28.34    8.43
  25 -11   3   13.52    7.16
  25 -14  -3   19.87    5.89
 -14  25   3   19.02    9.09
 -14  25   3   15.02    8.78
 -11  25  -3   18.22    7.43
  25 -11   6  218.40   15.52
  25 -14  -6  180.73   13.98
  25 -14  -6  189.97   15.10
 -14  25   6  205.23   15.60
 -14  25   6  158.28   16.71
 -11  25  -6  174.69   14.71
  25 -11   9  140.26   13.83
  25 -14  -9  135.94   10.82
 -11  25  -9  123.58   12.05
  25 -14 -12    0.96    5.31
  25 -11  12    2.50    9.44
 -11  25 -12    0.35    7.74
  25 -14 -15   17.56    3.89
  25 -11  15   15.17    7.66
 -11  25 -15   17.56    6.35
  25 -11  18   -0.27    4.35
 -11  25 -18   -1.58    3.50
  25 -15  19    0.77    2.89
 -15  25 -19    0.46    2.16
  25 -10 -16    8.09    4.35
  25 -15  16   10.63    6.97
 -15  25 -16    7.63    5.01
  25 -10 -13   27.65    6.35
  25 -15  13   31.23    9.44
 -15  25 -13   17.72    7.43
  25 -10 -10   74.33    9.47
  25 -15  10   83.88   11.94
  25 -10  -7   54.96    8.40
  25 -15   7   38.28    9.97
 -10  25   7   43.02    8.55
  25 -15   4   88.50    9.09
  25 -10  -4   95.47    9.82
  25 -10  -4  104.67   10.40
  25 -15   4  104.79   11.01
 -10  25   4   93.43   10.67
  25 -10  -1    8.82    7.36
  25 -15   1    1.77    7.74
  25 -10  -1    0.62    6.74
  25 -15   1    3.16    5.28
 -10  25   1   -3.08    6.62
 -15  25  -1    5.58    7.05
 -10  25   1    3.93    7.16
 -15  25  -1    3.31    7.66
  25 -15  -2   31.54    8.01
  25 -10   2   32.77    7.86
  25 -10   2   22.45    7.63
  25 -15  -2   29.23    5.58
 -15  25   2   25.42    8.90
 -15  25   2   32.39    8.13
 -10  25  -2   30.65    7.63
  25 -15  -5   81.91    9.74
  25 -10   5   94.74   10.71
  25 -15  -5   82.53    8.09
 -15  25   5   67.24   11.90
 -15  25   5   97.74   10.59
 -10  25  -5   78.41    9.36
  25 -15  -8   99.01    8.74
  25 -10   8  101.09   11.36
 -15  25   8   92.20   13.75
 -10  25  -8   98.01   10.78
 -15  25   8   93.27   11.78
  25 -15 -11   33.74    5.62
  25 -10  11   33.31    9.70
 -10  25 -11   29.23    8.82
  25 -15 -14    8.93    3.89
  25 -10  14    4.85    8.28
 -10  25 -14    4.51    7.05
  25 -10  17   11.32    5.58
 -10  25 -17    8.09    4.62
  25  -9 -17   13.32    3.70
  25 -16  17    4.01    5.58
 -16  25 -17    9.59    4.01
  25  -9 -14    2.50    5.78
  25 -16  14    0.35    8.40
 -16  25 -14    2.54    6.12
  25 -16  11  165.14   15.37
  25  -9 -11  174.72   13.86
 -16  25 -11  175.34   14.13
  25  -9  -8    6.66    8.32
  25 -16   8   16.02    9.97
 -16  25  -8   11.40    8.20
  25  -9  -5   95.01   10.09
  25  -9  -5   90.92   10.21
  25 -16   5   91.00   10.94
  -9  25   5   80.99   10.13
  25  -9  -2   17.37    7.51
  25 -16   2   16.41    7.86
  25 -16   2   24.18    5.31
  25  -9  -2   12.44    7.36
 -16  25  -2   16.06    7.09
  -9  25   2   12.90    7.36
  25 -16  -1   23.22    7.74
  25  -9   1   29.11    7.74
  25  -9   1   35.20    7.78
  25 -16  -1   17.52    5.01
 -16  25   1   23.34    8.55
  -9  25  -1   22.14    7.24
  25 -16  -4   39.24    7.93
  25  -9   4   35.55    8.90
  25 -16  -4   34.70    5.74
 -16  25   4   36.97   10.36
 -16  25   4   33.89    9.63
  -9  25  -4   28.61    7.63
  25  -9   7   83.49   10.55
  25 -16  -7   80.45    7.86
 -16  25   7   76.52   12.79
 -16  25   7   98.70   11.48
  -9  25  -7   78.29    9.90
  25 -16 -10   22.84    5.47
  25  -9  10   32.04    9.40
  -9  25 -10   25.34    8.51
  25  -9  13   -0.81    8.55
  -9  25 -13    8.40    7.36
  25  -9  16   14.36    6.59
  -9  25 -16    7.16    5.39
  25  -8 -18   -1.77    2.43
  25 -17  18   -1.77    3.93
 -17  25 -18   -3.77    2.73
  25  -8 -15    4.47    5.43
  25 -17  15    9.55    7.05
 -17  25 -15    8.16    5.43
  25  -8 -12   74.33    8.51
  25 -17  12   54.38    9.97
 -17  25 -12   59.96    8.51
  25  -8  -9    9.40    8.59
  25 -17   9   10.63    9.32
 -17  25  -9   -0.92    8.59
  25  -8  -6   84.38    9.94
  25  -8  -6   93.81    9.63
  25 -17   6   76.06   10.63
  -8  25   6   75.37    9.44
 -17  25  -6   81.22   10.17
  25  -8  -3   15.21    7.74
  25 -17   3   15.33    8.05
  25 -17   3   21.41    5.28
  25  -8  -3   20.49    8.09
 -17  25  -3    9.20    7.05
  -8  25   3   15.13    7.43
 -17  25  -3   23.45    8.24
  25  -8   0   56.30    8.78
  25 -17   0   64.51    8.93
  25  -8   0   55.80    8.97
  25 -17   0   54.84    6.12
 -17  25   0   59.65    9.09
  -8  25   0   62.85    8.01
  25 -17  -3   44.60    7.86
  25  -8   3   52.26    8.40
  25  -8   3   43.02    8.78
 -17  25   3   38.97   10.51
  -8  25  -3   38.86    7.51
  25  -8   6  276.39   18.22
  25 -17  -6  236.46   17.79
 -17  25   6  224.02   19.72
  -8  25  -6  220.44   17.25
  25  -8   9   38.20    9.36
  -8  25  -9   48.25    8.24
  25  -8  12   11.98    8.74
  -8  25 -12   12.48    7.51
  25  -8  15   -6.66    6.97
  -8  25 -15    2.16    5.85
  25  -8  18    2.16    3.62
  -8  25 -18    6.55    3.08
  25  -7 -16    5.58    4.66
  25 -18  16    0.31    6.08
 -18  25 -16    5.62    4.20
  25  -7 -13    9.59    6.93
  25 -18  13   -4.31    7.93
 -18  25 -13    4.24    6.97
  25  -7 -10   67.74    9.70
  25 -18  10   55.34    9.94
 -18  25 -10   67.01    9.59
  25  -7  -7  103.83   10.86
  25 -18   7   70.94   10.44
 -18  25  -7   92.89   11.01
  25  -7  -4   81.87    9.32
  25 -18   4   80.37    9.82
  25  -7  -4   89.69    9.94
 -18  25  -4   54.65    8.90
  -7  25   4   78.56    8.70
 -18  25  -4   79.72   10.55
  25 -18   1  107.75   10.74
  25  -7  -1  120.15   10.63
  25  -7  -1  107.02   10.98
 -18  25  -1   96.97   11.40
 -18  25  -1  113.41   11.86
  -7  25   1  107.37   10.01
  25  -7   2  136.95   11.32
  25 -18  -2  131.13   11.40
  25  -7   2  129.05   11.71
 -18  25   2  105.21   12.55
  -7  25  -2  112.14   10.40
 -18  25   2  123.43   12.25
  25  -7   5  219.24   16.10
  25 -18  -5  223.21   16.10
 -18  25   5  207.54   18.06
  -7  25  -5  191.44   15.60
  25  -7   8   21.80    8.82
  -7  25  -8   20.68    7.70
  25  -7  11   33.50    9.20
  -7  25 -11   27.30    7.55
  25  -7  14    7.36    7.70
  -7  25 -14    8.74    6.12
  25  -7  17    3.66    4.51
  -7  25 -17   -2.77    3.77
  25  -6 -17    4.12    3.62
  25 -19  17    8.09    4.51
 -19  25 -17    7.55    3.12
  25  -6 -14   13.94    6.66
  25 -19  14   12.98    7.16
 -19  25 -14   20.80    5.97
  25  -6 -11   74.60    9.86
  25 -19  11   69.67   10.09
 -19  25 -11   79.29    9.17
  25  -6  -8    5.35    9.17
  25 -19   8    7.20    8.47
 -19  25  -8    6.32    8.97
  25  -6  -5    4.47    7.43
  25 -19   5   10.55    7.74
  25  -6  -5   10.90    8.47
 -19  25  -5   16.56    6.97
  -6  25   5    3.43    6.74
 -19  25  -5   10.51    8.93
  25  -6  -2   70.09    8.51
  25 -19   2   68.36    8.93
  25  -6  -2   67.89    9.36
 -19  25  -2   59.38    9.82
  -6  25   2   63.47    8.05
 -19  25  -2   60.04    9.63
  25 -19  -1   89.15    9.67
  25  -6   1   85.73    9.40
  25  -6   1   83.26   10.71
 -19  25   1   76.95   11.25
 -19  25   1   98.01   10.71
  -6  25  -1   81.30    8.55
  25 -19  -4   77.18    8.78
  25  -6   4   76.64    9.24
  25  -6   4   66.51   10.51
 -19  25   4   73.48   12.02
 -19  25   4   72.94   10.44
  -6  25  -4   68.82    8.24
  25  -6   7  198.37   15.60
 -19  25   7  192.29   17.79
  -6  25  -7  190.17   14.60
  25  -6  10   53.15    9.17
 -19  25  10   62.93   12.79
  -6  25 -10   52.30    8.05
  25  -6  13   10.09    7.66
  -6  25 -13    1.85    6.47
  25  -6  16    2.73    5.39
  -6  25 -16   19.56    4.51
  25  -5 -18    4.85    2.35
  25  -5 -15   17.37    5.66
  25 -20  15   13.21    5.82
 -20  25 -15   17.98    4.54
  25  -5 -12   18.68    8.20
  25 -20  12    8.40    7.32
 -20  25 -12   13.17    6.51
  25  -5  -9   44.98    9.67
  25 -20   9   31.73    8.20
 -20  25  -9   42.55    9.20
  25 -20   6   58.54    9.05
  25  -5  -6   69.94   10.47
 -20  25  -6   43.79    8.32
 -20  25  -6   70.40   10.71
  25 -20   3  111.49   10.63
  25  -5  -3  103.44   10.36
  25  -5  -3  110.26   11.28
  -5  25   3   90.46    9.36
 -20  25  -3  106.33   11.48
 -20  25  -3  127.28   11.75
  25  -5   0   81.14    9.59
  25 -20   0   97.70    9.51
  25  -5   0   98.67   10.78
 -20  25   0   76.60   11.32
 -20  25   0  102.29   11.48
  -5  25   0   99.55    8.93
  25  -5   3  186.55   13.83
  25 -20  -3  179.35   13.48
  25  -5   3  172.26   14.48
 -20  25   3  164.79   15.79
  -5  25  -3  159.86   12.90
 -20  25   3  167.52   14.79
  25  -5   6  318.79   21.07
 -20  25   6  281.13   21.99
 -20  25   6  289.03   22.84
  -5  25  -6  283.56   20.45
  25  -5   9    6.43    7.93
  -5  25  -9    7.12    7.05
  25  -5  12   37.74    8.24
  -5  25 -12   31.08    6.62
  25  -5  15   14.02    5.74
  -5  25 -15    5.24    4.74
  25  -4 -16    4.97    4.43
  25 -21  16    9.70    4.31
 -21  25 -16   12.32    3.23
  25  -4 -13   10.86    6.97
  25 -21  13   11.36    6.28
 -21  25 -13   23.88    5.89
  25  -4 -10   93.08   11.17
  25 -21  10   72.32    9.13
 -21  25 -10   87.77    9.94
  25 -21   7  194.25   15.25
  25  -4  -7  231.30   16.44
 -21  25  -7  227.45   16.25
  25  -4  -4    2.85    6.85
  25 -21   4    2.31    7.05
  25  -4  -4   -4.31    8.93
 -21  25  -4    2.04    8.66
  -4  25   4    3.35    5.66
 -21  25  -4   11.44    9.47
  25 -21   1  200.37   14.83
  25  -4  -1  207.57   15.06
 -21  25  -1  176.77   16.37
  -4  25   1  181.12   14.10
 -21  25  -1  219.86   16.10
  25  -4   2  210.08   14.67
  25 -21  -2  198.41   14.52
 -21  25   2  178.04   16.44
 -21  25   2  210.27   15.79
  -4  25  -2  168.52   13.94
  25  -4   5  139.72   11.21
 -21  25   5  105.91   14.10
 -21  25   5  127.97   12.90
  -4  25  -5  113.26   10.05
  25  -4   8   53.57    8.59
  -4  25  -8   50.33    7.43
  25  -4  11   92.97    9.32
 -21  25  11   65.58   12.40
  -4  25 -11   79.99    8.36
  25  -4  14   12.59    6.12
  -4  25 -14   15.25    4.81
  25  -3 -17    1.93    2.93
  25  -3 -14    6.28    5.97
  25 -22  14    6.62    5.12
 -22  25 -14    4.20    4.31
  25  -3 -11   53.30    8.90
  25 -22  11   47.06    7.47
 -22  25 -11   47.91    7.74
  25 -22   8   99.01    9.59
 -22  25  -8   85.49    8.93
 -22  25  -8  111.84   11.21
  25 -22   5   39.55    7.59
 -22  25  -5   45.48    9.01
 -22  25  -5   45.13   10.21
  25  -3  -2   33.00    6.93
  25 -22   2   29.81    7.01
 -22  25  -2   32.58   10.01
 -22  25  -2   26.42    9.24
  25 -22  -1  166.02   12.21
  25  -3   1  171.10   12.40
 -22  -3  -1  128.32   11.90
 -22  25   1  148.88   14.52
 -22  25   1  169.53   14.25
  -3  25  -1  149.15   11.48
  25 -22  -4    8.32    6.32
  25  -3   4   17.06    7.01
 -22  25   4   17.48   10.74
 -22  25   4   10.67    9.74
  -3  25  -4   12.17    5.58
  25  -3   7   80.22    9.13
  -3  25  -7   78.87    7.82
  25  -3  10   73.94    8.90
 -22  25  10   97.93   12.40
  -3  25 -10   75.91    7.74
  25  -3  13    7.74    6.05
  -3  25 -13    3.62    4.54
  25  -3  16    3.70    2.93
  25 -23  15    6.93    3.23
 -23  25 -15    5.97    2.81
  25 -23  12    0.23    5.31
 -23  25 -12   12.32    5.66
  25 -23   9   -7.78    6.05
 -23  25  -9   13.32    7.47
  25 -23   6  336.47   23.45
 -23  25  -6  319.87   23.99
 -23  25  -6  383.34   24.45
  25  -2  -3   79.68    8.40
  25 -23   3   67.39    8.09
 -23  25  -3   62.62   10.67
 -23  25  -3   80.26   10.59
  25  -2   0    2.81    6.12
  25 -23   0   -3.70    6.16
 -23  25   0    9.86    9.90
 -23  -2   0    3.58    5.82
 -23  25   0    5.31    9.47
  25  -2   3   93.16    8.93
  25 -23  -3   82.61    8.97
  25  -2   3   98.70   11.55
 -23  25   3   84.88   12.67
 -23  -2  -3   90.58    9.59
 -23  25   3  108.22   11.21
  25  -2   6   29.23    9.86
  25  -2   6   17.37    6.51
  -2  25  -6   11.09    5.08
 -23  25   6   23.99    8.97
  25  -2   9   42.29    7.09
 -23  25   9   24.88   11.40
  -2  25  -9   37.01    5.51
  25  -2  12   53.18    6.66
  -2  25 -12   48.60    5.43
  25  -2  15   11.63    3.20
  25 -24  13    6.01    3.81
 -24  25 -13    3.77    3.81
  25 -24  10   64.70    7.16
 -24  25 -10   91.27    8.40
  25 -24   7   23.11    6.01
 -24  25  -7   37.78    7.78
 -24  25  -7   35.55    8.13
  25 -24   4   21.64    6.16
  25  -1  -4   14.52    9.63
 -24  25  -4   20.41    9.01
 -24  25  -4   16.75    8.82
  25  -1  -1   90.89    9.44
  25 -24   1   94.89    9.01
  25  -1  -1  111.60   11.32
 -24  25  -1  106.98   12.40
 -24  25  -1  125.51   11.78
  25 -24  -2   47.75    6.55
  25  -1   2   48.10    7.05
  25  -1   2   52.91    9.90
 -24  -1  -2   42.13    7.47
 -24  25   2   49.91   11.32
 -24  25   2   53.03    9.44
  25  -1   5   75.75   10.36
  25  -1   5   56.65    7.28
 -24  25   5   65.31   10.24
  25  -1   8   20.64    5.82
 -24  25   8   26.77   10.67
  25  -1   8   36.66    9.74
  25  -1  11  124.31    9.74
 -24  25  11  115.76   12.40
  25   0 -14    6.32    4.85
  25   0 -11   45.71    7.86
 -25  25 -11   50.14    5.82
  25 -25   8   26.77    5.24
  25   0  -8   36.55    9.51
 -25  25  -8   26.03    6.82
 -25  25  -8   36.08    7.09
  25 -25   5  110.30    9.28
  25   0  -5  125.28   12.59
 -25  25  -5   99.94   11.67
 -25  25  -5  125.39   11.01
  25 -25   2   19.76    5.74
  25   0  -2   21.14    9.40
 -25  25  -2   16.10    9.74
 -25  25  -2   11.71    8.90
  25 -25  -1   32.23    5.89
  25   0   1   37.78    6.24
  25   0   1   40.05    9.44
 -25  25   1   45.71   10.86
 -25   0  -1   26.61    6.70
 -25  25   1   41.94    9.32
  25   0   4   45.83    6.32
  25   0   4   58.54    9.78
 -25   0  -4   56.00    8.74
 -25  25   4   55.92    9.51
  25   0   7    6.93    4.97
 -25  25   7   -4.39   10.55
  25   0   7    0.69    8.78
 -25  25  10  102.44   12.02
  25   0  10  122.20   11.51
 -25   0 -13    8.51    5.66
  25   0  13   16.10    6.51
 -25   0 -16    4.01    2.70
  25   0  16    3.89    3.00
  25   1 -15    0.50    3.16
  25   1 -12   23.68    5.93
  25   1  -9   39.01    8.24
 -26  25  -9   20.30    5.66
 -26  25  -9   29.96    5.74
  25   1  -6  201.18   15.79
 -26  25  -6  172.88   14.83
 -26  25  -6  195.40   14.40
  25   1  -3   40.17    9.90
 -26  25  -3   36.05    9.67
 -26  25  -3   41.05    8.24
  25   1   0   -3.43    8.90
 -26   1   0    0.42    6.08
 -26  25   0   14.06   10.24
 -26  25   0    5.43    8.28
  25   1   3   42.32    9.55
 -26   1  -3   37.12    7.78
 -26  25   3   36.05   11.13
 -26  25   3   38.78    8.36
  25   1   6  101.67   11.13
 -26   1  -6  106.14   10.74
 -26  25   6   81.68   12.29
  25   1   9   27.30    8.24
 -26  25   9   29.61    9.13
 -26   1  -9   14.90    8.09
  25   1  12   15.37    6.59
 -26   1 -12   32.39    6.43
  25   1  15   -3.54    3.47
  25   2 -13   -2.77    4.39
  25   2 -10   15.29    6.78
  25   2  -7  101.09   10.17
 -27  25  -7   74.67    9.09
 -27  25  -7   79.02    7.82
  25   2  -4  182.70   14.21
 -27  25  -4  143.26   13.90
 -27  25  -4  162.36   12.67
  25   2  -1    1.54    8.93
 -27  25  -1   -4.39    9.36
 -27  25  -1    4.27    7.09
  25   2   2    2.77    8.40
 -27  25   2    5.82   10.40
 -27   2  -2    2.73    6.89
 -27  25   2    3.74    7.32
 -27   2  -5   83.99    9.67
  25   2   5   83.26   10.21
 -27  25   8   31.19    8.97
 -27   2  -8   18.52    7.93
  25   2   8   22.61    7.63
 -27  25  11   45.79    7.47
 -27   2 -11   42.40    7.01
  25   2  11   37.97    6.89
  25   2  14    6.16    3.58
  25   3 -14    0.04    2.73
  25   3 -11   16.60    5.31
  25   3  -8   -2.93    7.09
 -28  25  -8   -6.16    5.78
 -28  25  -5  124.35   11.36
 -28  25  -5  105.02    9.51
  25   3  -2   27.69    8.78
 -28  25  -2   28.92    9.13
 -28  25  -2   28.54    6.24
  25   3   1   48.33    8.70
 -28   3  -1   33.85    6.93
 -28  25   1   33.16   10.32
 -28  25   1   37.82    6.82
  25   3   4   43.09    8.40
 -28   3  -4   36.24    7.63
  25   3   7   32.54    7.39
 -28   3  -7   25.92    7.93
 -28  25   7   25.49    8.93
  25   3  10   25.42    5.97
 -28  25  10   32.54    7.24
 -28   3 -10   41.48    6.78
  25   3  13    8.32    3.54
  25   4 -12   13.44    3.89
  25   4  -9   16.83    5.74
 -29  25  -9    8.97    4.43
  25   4  -6   59.58    8.55
 -29  25  -6   54.42    7.89
  25   4  -3   15.29    8.16
 -29  25  -3    8.63    8.24
 -29  25  -3    9.70    4.54
  25   4   0   26.80    7.78
 -29   4   0   17.02    5.93
 -29  25   0   18.25    9.13
 -29  25   0   20.72    5.28
  25   4   3    7.66    6.89
 -29   4  -3    5.58    6.59
  25   4   6   87.38    8.90
 -29  25   6   88.92   10.74
 -29   4  -6   99.86    9.59
  25   4   9   14.60    5.31
 -29  25   9    2.89    7.05
 -29   4  -9    5.43    6.39
  25   4  12   13.83    3.74
 -29   4 -12   38.16    4.62
  25   5 -10    3.54    4.39
  25   5  -7    8.32    6.20
 -30  25  -7    0.12    5.51
  25   5  -4   15.40    7.39
 -30  25  -4    8.28    7.28
  25   5  -1   33.74    7.86
 -30  25  -1   21.18    8.55
  25   5   2   -9.44    6.85
 -30   5  -2    6.82    5.97
  25   5   5   70.40    7.66
 -30  25   5   71.55    9.74
 -30   5  -5   67.09    8.16
  25   5   8   -4.08    4.78
 -30  25   8    1.89    6.78
 -30   5  -8   -0.89    6.08
  25   5  11   24.96    3.50
 -30   5 -11   33.39    4.89
  25   6 -11    9.97    2.70
  25   6  -8    1.46    4.66
 -31  25  -8   -3.27    4.08
  25   6  -5   77.87    7.82
 -31  25  -5   56.26    7.82
  25   6  -2   -6.62    6.82
 -31  25  -2    1.50    7.55
  25   6   1   22.22    6.24
 -31   6  -1   22.03    5.55
  25   6   4   16.48    5.78
 -31  25   4   30.12    7.93
 -31   6  -4   20.76    6.12
  25   6   7   10.94    4.43
 -31   6  -7   20.53    5.85
 -31   6 -10   19.79    4.47
  25   7  -9    0.58    2.85
  25   7  -6   31.39    5.01
 -32  25  -6   24.84    5.35
  25   7  -3    9.09    5.62
 -32  25  -3   12.79    6.55
  25   7   0   24.61    5.82
 -32   7   0   20.26    4.43
  25   7   3    8.86    4.85
 -32   7  -3   21.57    5.39
 -32  25   3   14.36    7.55
  25   7   6   19.91    4.01
 -32  25   6   25.73    6.89
 -32   7  -6   31.93    5.58
 -32  25   9    7.51    4.31
 -32   7  -9    7.32    4.20
 -33  25  -7   14.90    3.74
  25   8  -4   28.69    4.31
 -33  25  -4   27.11    5.89
  25   8  -1   15.60    4.47
 -33  25  -1   10.74    6.70
  25   8   2    2.54    3.77
 -33   8  -2   -2.31    4.12
 -33  25   2   -2.31    6.85
 -33   8  -5   33.81    4.97
 -33  25   5   19.64    6.51
 -33  25   8    8.90    4.12
 -33   8  -8    4.58    3.70
 -34  25  -5   18.91    4.31
 -34  25  -2   10.63    5.51
 -34   9  -1   15.10    3.20
 -34   9  -4    3.89    3.66
 -34  25   4    0.77    5.58
 -34  25   7    0.31    3.74
 -34   9  -7   -2.08    3.12
 -35  25  -3   16.83    4.54
 -35  25   3   29.77    5.28
 -36  25   2    7.59    3.89
  26 -13   0   18.68    6.20
 -13  26   0   15.64    7.09
 -13  26   0   24.22    8.47
  26 -13   3   -1.54    7.09
  26 -13  -3    2.85    6.55
 -13  26   3   -6.05    8.90
 -13  26   3   -2.66    7.97
 -13  26  -3    3.85    8.32
  26 -13  -6  186.70   13.48
 -13  26   6  176.38   15.29
 -13  26   6  157.70   16.17
 -13  26  -6  162.05   14.44
  26 -13  -9    1.85    6.28
 -13  26  -9    6.66    8.43
  26 -13 -12   27.42    5.97
 -13  26 -12   32.62    8.24
  26 -13 -15    1.58    3.70
 -13  26 -15    8.59    5.78
  26 -12 -16    1.62    3.12
  26 -12 -13    0.31    5.43
  26 -12 -10   83.38    8.74
  26 -12  -7   70.67    8.74
 -14  26  -7   71.28    9.94
 -12  26   7   78.60   10.01
  26 -14   4    7.97    6.82
  26 -12  -4   17.14    7.36
 -12  26   4   11.94    9.40
 -12  26   4   12.82    8.20
 -14  26  -4   24.18    8.51
  26 -12  -1   25.49    6.82
  26 -14   1   30.73    6.74
 -12  26   1   28.50    7.43
 -14  26  -1   16.44    7.01
 -12  26   1   18.68    7.63
 -14  26  -1   27.27    8.70
  26 -12   2   38.43    8.74
  26 -12   2   41.09    7.59
  26 -14  -2   36.28    6.55
 -14  26   2   26.73    8.74
 -14  26   2   43.75    9.05
 -12  26  -2   30.42    8.24
  26 -14  -5  145.19   11.48
  26 -12   5  137.10   13.75
  26 -14  -5  151.35   12.98
 -14  26   5  133.79   14.13
 -14  26   5  152.20   13.86
 -12  26  -5  142.45   12.79
  26 -14  -8   84.96    8.86
  26 -12   8   91.46   11.71
 -12  26  -8   92.12   10.47
  26 -14 -11   26.92    5.55
  26 -12  11   31.93   10.63
 -12  26 -11   26.50    8.36
  26 -14 -14   -0.85    4.08
  26 -12  14   -9.78    8.24
 -12  26 -14   11.55    6.51
  26 -12  17    5.35    4.93
 -12  26 -17   11.51    4.08
  26 -11 -17   -0.81    2.31
  26 -15  17    2.23    4.78
 -15  26 -17   -0.31    3.50
  26 -11 -14    3.12    5.04
  26 -15  14  -11.36    8.01
  26 -15  11  142.49   13.98
  26 -11 -11  134.40   11.21
  26 -11  -8   11.71    7.66
  26 -15   8   26.80   10.05
  26 -15   5   82.99    9.40
  26 -11  -5  105.06   10.13
  26 -11  -5  116.00   10.90
  26 -15   5   89.65   11.63
 -11  26   5   85.22   10.71
 -15  26  -5   81.14   10.82
  26 -11  -2   35.31    8.47
  26 -15   2   34.58    8.93
  26 -15   2   36.89    6.66
  26 -11  -2   41.51    7.16
 -15  26  -2   26.26    6.93
 -11  26   2   36.70    8.01
 -15  26  -2   34.43    8.59
  26 -15  -1   53.88    8.97
  26 -11   1   58.31    8.86
  26 -11   1   49.64    8.32
  26 -15  -1   48.83    6.66
 -15  26   1   39.55    9.17
 -15  26   1   34.78    9.05
 -11  26  -1   45.40    8.40
  26 -15  -4   53.49    8.74
  26 -11   4   54.11    9.67
  26 -11   4   46.33    8.24
  26 -15  -4   48.10    6.59
 -15  26   4   26.26   10.47
 -15  26   4   41.05    9.63
 -11  26  -4   38.13    8.40
  26 -11   7   56.30    9.86
  26 -15  -7   42.67    6.51
 -15  26   7   27.34   12.21
 -15  26   7   39.74   10.17
 -11  26  -7   40.32    8.40
  26 -11  10  137.60   13.13
  26 -15 -10  110.22    9.55
 -11  26 -10  119.46   11.40
  26 -15 -13   10.94    4.04
  26 -11  13    1.19    8.78
 -11  26 -13    6.12    6.97
  26 -11  16    6.93    5.85
 -11  26 -16   14.94    5.08
  26 -16  18    0.85    3.31
 -16  26 -18   -0.19    2.43
  26 -10 -15    7.66    4.51
  26 -16  15    6.32    6.89
 -16  26 -15    7.24    5.24
  26 -10 -12   71.86    8.51
  26 -16  12   76.06   10.59
 -16  26 -12   70.09    8.93
  26 -10  -9   49.14    8.63
  26 -16   9   38.93   10.40
  26 -10  -6   45.98    8.20
  26 -10  -6   26.23    8.66
  26 -16   6   42.48    9.32
 -10  26   6   34.12    8.86
  26 -10  -3   43.83    8.09
  26 -16   3   41.98    8.86
  26 -16   3   28.73    6.24
  26 -10  -3   29.11    8.09
 -16  26  -3   13.59    6.78
 -10  26   3   32.31    8.51
  26 -10   0   39.20    8.47
  26 -16   0   23.76    8.78
  26 -10   0   27.69    7.74
  26 -16   0   18.68    5.66
 -16  26   0   35.70    8.36
 -10  26   0   30.73    7.93
 -16  26   0   18.75    9.17
  26 -16  -3   55.49    9.44
  26 -10   3   64.01    9.32
  26 -10   3   54.15    9.17
  26 -16  -3   73.29    7.01
 -16  26   3   52.57   10.78
 -16  26   3   68.82   10.63
 -10  26  -3   55.26    8.66
  26 -10   6  344.06   23.41
  26 -16  -6  318.91   21.87
  26 -16  -6  333.20   23.11
 -16  26   6  329.27   23.72
 -16  26   6  287.37   24.34
 -10  26  -6  319.33   22.57
  26 -16  -9   60.19    6.47
  26 -10   9   76.87   10.13
 -10  26  -9   59.88    9.28
  26 -10  12    4.39    8.90
 -10  26 -12   12.71    7.66
  26 -10  15    3.00    6.62
 -10  26 -15    5.12    5.70
  26 -10  18   -1.04    3.16
 -10  26 -18    3.04    2.54
  26 -17  16   23.76    5.74
  26  -9 -16   19.37    4.20
 -17  26 -16   15.67    4.39
  26  -9 -13   12.75    6.35
  26 -17  13   17.18    8.32
 -17  26 -13   11.25    6.70
  26  -9 -10  126.66   11.25
  26 -17  10  111.80   12.48
 -17  26 -10  111.10   11.32
  26  -9  -7   22.37    8.59
  26 -17   7   17.29    9.05
 -17  26  -7    7.01    9.20
  26  -9  -4   74.13    8.97
  26 -17   4   76.64    9.59
  26 -17   4   60.92    7.05
  26  -9  -4   71.13    9.17
 -17  26  -4   44.13    7.63
  -9  26   4   65.12    9.09
  26  -9  -1   22.61    8.05
  26 -17   1   20.64    8.09
  26 -17   1   21.26    5.08
  26  -9  -1   20.26    7.93
 -17  26  -1   13.17    8.05
  -9  26   1   16.68    6.82
  26 -17  -2   45.98    8.47
  26  -9   2   45.98    9.17
  26  -9   2   53.65    9.05
  26 -17  -2   40.78    5.62
 -17  26   2   48.83   10.13
  -9  26  -2   36.47    7.70
  26  -9   5  338.55   21.91
  26 -17  -5  314.29   21.57
 -17  26   5  259.56   22.76
 -17  26   5  305.35   22.18
  -9  26  -5  280.90   21.22
  26  -9   8   35.16    8.93
 -17  26   8   19.22   12.63
  -9  26  -8   39.28    7.97
  26  -9  11   71.63   10.13
  -9  26 -11   67.09    8.90
  26  -9  14   20.18    7.43
  -9  26 -14    5.08    6.24
  26  -9  17    3.50    4.24
  -9  26 -17    6.85    3.54
  26  -8 -17    4.93    2.89
  26 -18  17   -6.12    4.20
 -18  26 -17   -3.70    2.93
  26  -8 -14    3.70    5.74
 -18  26 -14   -0.85    5.47
  26  -8 -11  106.56   10.36
  26 -18  11   97.97   11.44
 -18  26 -11  107.06   10.47
  26  -8  -8   14.67    8.93
  26 -18   8    3.39    9.20
 -18  26  -8   -3.08    8.97
  26  -8  -5   99.97   10.01
  26 -18   5  101.05   10.78
  26 -18   5   67.63    7.78
  26  -8  -5  100.59   10.74
 -18  26  -5   67.59    8.43
  -8  26   5   93.04    9.51
 -18  26  -5   99.71   10.67
  26  -8  -2   37.01    8.28
  26 -18   2   24.03    8.40
  26  -8  -2   15.79    8.47
 -18  26  -2   26.11    8.28
  -8  26   2   29.38    7.16
 -18  26  -2   32.39    9.51
  26 -18  -1   67.89    9.24
  26  -8   1   64.66    9.24
  26  -8   1   70.82    9.17
 -18  26   1   55.92   10.01
  -8  26  -1   51.91    7.78
  26 -18  -4  100.67   10.44
  26  -8   4  112.72   11.05
  26  -8   4  109.56   11.32
 -18  26   4   94.35   12.90
  -8  26  -4   96.32    9.74
  26  -8   7   43.56    9.36
 -18  26   7   43.48   11.86
  -8  26  -7   32.62    8.16
  26  -8  10   38.90    9.17
  -8  26 -10   41.86    8.32
  26  -8  13    3.66    7.59
  -8  26 -13   -1.39    6.62
  26  -8  16   10.13    5.04
  -8  26 -16    6.32    4.27
  26  -7 -15    6.35    4.81
  26 -19  15    8.20    5.78
 -19  26 -15    7.43    4.27
  26  -7 -12   53.76    7.59
  26 -19  12   37.16    8.28
 -19  26 -12   48.25    7.43
  26  -7  -9   51.99    9.32
  26 -19   9   22.95    9.09
 -19  26  -9   43.79    9.17
  26  -7  -6   26.19    9.44
  26 -19   6   37.01    8.66
 -19  26  -6   20.30    9.74
  -7  26   6   19.76    7.20
  26  -7  -3   15.94    7.78
  26 -19   3   16.06    8.13
  26  -7  -3   22.72    8.74
 -19  26  -3    8.36    7.89
  -7  26   3    9.74    6.93
 -19  26  -3   23.41    8.90
  26  -7   0   12.32    7.78
  26 -19   0   17.25    7.74
  26  -7   0   16.87    8.66
 -19  26   0    9.63    9.40
  -7  26   0   15.75    6.39
 -19  26   0   15.10    8.70
  26  -7   3  208.61   15.40
  26 -19  -3  208.38   15.44
  26  -7   3  213.62   16.06
 -19  26   3  162.55   16.71
  -7  26  -3  190.63   14.63
 -19  26   3  188.16   16.56
  26  -7   6   93.47   10.90
 -19  26   6  108.76   13.48
  -7  26  -6  105.64   10.17
  26  -7   9   26.42    8.32
  -7  26  -9   18.64    7.59
  26  -7  12   18.64    7.89
  -7  26 -12   11.17    6.89
  26  -7  15    6.39    5.66
  -7  26 -15   13.25    4.74
  26  -7  18   -3.12    2.58
  26  -6 -16    7.28    3.85
  26 -20  16    4.66    4.51
 -20  26 -16    7.01    3.16
  26  -6 -13    8.01    6.35
  26 -20  13    7.32    6.59
 -20  26 -13   -0.15    5.55
  26  -6 -10   67.55    9.90
  26 -20  10   71.32    9.01
 -20  26 -10   61.04    9.24
  26  -6  -7   51.37   10.13
  26 -20   7   28.50    8.70
 -20  26  -7   35.05    9.74
  26 -20   4  133.56   11.94
  26  -6  -4  134.06   11.55
  26  -6  -4  148.96   12.67
  -6  26   4  119.04   10.71
 -20  26  -4  102.32   11.82
 -20  26  -4  151.58   12.94
  26  -6  -1   10.98    7.51
  26 -20   1    9.90    7.43
  26  -6  -1   13.25    8.59
 -20  26  -1    8.32    8.97
  -6  26   1   -0.69    6.43
 -20  26  -1   -3.93    9.94
  26  -6   2  178.15   13.94
  26 -20  -2  168.33   13.98
  26  -6   2  185.47   14.83
 -20  26   2  158.59   15.64
 -20  26   2  172.61   15.29
  -6  26  -2  169.91   13.17
  26  -6   5  148.31   12.25
  26  -6   5  148.42   13.17
 -20  26   5  124.62   15.25
 -20  26   5  149.77   13.98
  -6  26  -5  134.87   11.55
  26  -6   8   11.75    8.24
  -6  26  -8   18.52    6.97
  26  -6  11   34.20    7.89
  -6  26 -11   38.05    6.97
  26  -6  14    3.08    6.08
  -6  26 -14    8.36    4.93
  26  -5 -17    7.86    2.62
  26  -5 -14   14.63    5.62
  26 -21  14    9.51    5.62
 -21  26 -14    7.82    4.39
  26  -5 -11   83.45    9.44
  26 -21  11   59.23    8.74
 -21  26 -11   78.02    8.24
  26  -5  -8   63.66   10.59
  26 -21   8   68.97    8.47
 -21  26  -8   45.79    9.47
  26 -21   5   68.01    8.74
  26  -5  -5   68.55   10.55
 -21  26  -5   50.56    8.86
 -21  26  -5   74.06   11.01
  26  -5  -2   16.64    7.59
  26 -21   2   16.41    7.70
  26  -5  -2   27.42    8.66
 -21  26  -2   17.33    9.20
  -5  26   2   17.60    5.97
 -21  26  -2   14.40   10.01
  26 -21  -1   56.23    8.32
  26  -5   1   61.85    8.24
  26  -5   1   70.82    9.94
 -21  26   1   68.24   11.09
 -21  26   1   59.42   10.74
  -5  26  -1   50.06    7.28
  26 -21  -4   34.20    7.55
  26  -5   4   43.94    7.82
  26  -5   4   34.24    9.86
 -21  26   4   34.27   11.28
 -21  26   4   29.96   10.36
  -5  26  -4   30.96    6.62
  26  -5   7  117.69   10.74
  -5  26  -7  110.68   10.01
  26  -5  10   45.56    8.13
 -21  26  10   25.84   11.55
  -5  26 -10   37.66    6.78
  26  -5  13   -0.54    6.16
  -5  26 -13   -0.23    5.01
  26  -5  16    2.00    3.39
  -5  26 -16    6.39    2.62
  26  -4 -15    2.39    4.39
  26 -22  15    0.12    3.85
 -22  26 -15   -2.85    3.12
  26  -4 -12   15.83    7.12
  26 -22  12   16.87    6.05
 -22  26 -12   14.87    5.74
  26  -4  -9   46.94    9.59
  26 -22   9   43.09    7.51
 -22  26  -9   68.86    8.63
  26 -22   6  115.30   10.17
  26  -4  -6  116.61   12.29
 -22  26  -6   91.81   10.40
 -22  26  -6  123.00   12.13
  26  -4  -3   45.33    7.47
  26 -22   3   55.73    7.59
  26  -4  -3   40.82    9.94
 -22  26  -3   41.09    9.67
 -22  26  -3   51.72   10.63
  26  -4   0   96.82    9.40
  26 -22   0  100.82    9.51
 -22  26   0   97.05   12.02
  -4  26   0   70.78    8.20
 -22  26   0  113.95   11.94
  26 -22  -3   14.52    6.93
  26  -4   3   19.06    7.24
 -22  26   3    9.86   10.51
 -22  26   3   24.22   10.17
  -4  26  -3   17.95    5.58
  26  -4   6   72.05    8.74
 -22  26   6   72.71   12.52
  -4  26  -6   72.55    7.51
 -22  26   6   69.40   10.55
  26  -4   9    7.20    6.97
 -22  26   9   -1.93   11.17
  -4  26  -9    3.47    5.51
  26  -4  12   16.98    6.32
  -4  26 -12   16.79    4.89
  26  -4  15    9.32    3.85
  -4  26 -15   10.86    2.89
  26  -3 -16   -0.85    3.00
  26  -3 -13   13.75    6.12
  26 -23  13    3.85    4.51
 -23  26 -13   13.09    4.39
  26  -3 -10   56.03    8.97
  26 -23  10   47.25    7.28
 -23  26 -10   67.51    7.82
  26 -23   7  202.80   14.75
 -23  26  -7  162.90   14.79
  26 -23   4   95.66    9.78
 -23  26  -4  104.36   11.51
 -23  26  -4  130.32   12.29
  26  -3  -1   70.05    8.74
  26 -23   1   83.53    8.63
 -23  26  -1   79.64   11.25
 -23  26  -1  101.82   11.71
  26 -23  -2  146.80   11.71
  26  -3   2  145.96   11.71
 -23  26   2  141.03   14.25
 -23  -3  -2  119.42   11.21
 -23  26   2  162.86   13.79
  26  -3   5   30.23    6.93
 -23  26   5   22.26   11.55
 -23  26   5   31.08    9.24
  -3  26  -5   26.38    5.35
  26  -3   8   15.44    9.59
  26  -3   8    3.27    6.35
  -3  26  -8    7.59    5.01
  26  -3  11   46.60    6.89
 -23  26  11   45.87    9.70
  -3  26 -11   62.89    5.82
  26  -3  14   24.53    4.12
  -3  26 -14   16.02    2.97
 -24  26 -14    5.35    2.66
  26 -24  11   15.06    4.89
 -24  26 -11   16.25    5.47
  26 -24   8   42.82    6.55
 -24  26  -8   40.82    6.74
 -24  26  -8   62.66    8.13
  26 -24   5  197.60   15.29
 -24  26  -5  190.82   16.29
  26  -2  -2   11.67    6.24
  26 -24   2   13.52    6.28
 -24  26  -2   23.76    9.67
 -24  26  -2   12.36    9.55
  26 -24  -1   30.35    6.39
  26  -2   1   44.87    6.93
  26  -2   1   42.59    9.82
 -24  26   1   44.33   10.55
 -24  -2  -1   31.58    6.66
 -24  26   1   50.83   10.21
  26  -2   4   12.44    6.28
  26  -2   4   11.40    9.55
 -24  26   4   13.59   10.98
 -24  -2  -4    7.39    7.16
 -24  26   4   17.68    9.67
  26  -2   7   35.20    6.59
  26  -2   7   26.92    9.51
  26  -2  10   36.70    5.93
 -24  26  10   37.74    9.59
  26  -2  10   30.27    8.74
  26  -2  13    9.82    6.70
  26  -2  13    4.62    3.58
  26  -2  16    1.96    3.20
 -25  26 -12   24.26    4.12
  26 -25   9   23.99    4.89
 -25  26  -9   31.19    6.70
  26 -25   6  122.00   10.44
 -25  26  -6  126.59   11.86
 -25  26  -6  137.83   12.32
  26 -25   3   28.81    5.85
  26  -1  -3   37.70    9.94
 -25  26  -3   12.98    9.28
 -25  26  -3   35.43    9.05
  26  -1   0   53.61    7.32
  26 -25   0   62.50    6.93
  26  -1   0   67.32    9.94
 -25  26   0   60.27   10.67
 -25  26   0   79.76    9.86
  26  -1   3   28.15    5.89
  26  -1   3   27.92    9.51
 -25  -1  -3   31.85    6.85
 -25  26   3   22.45   11.01
 -25  26   3   29.11    9.40
  26  -1   6   20.06    5.55
 -25  -1  -6   23.38    7.55
  26  -1   6   24.30    9.09
  26  -1   9    8.74    4.70
  26  -1   9   13.29    8.47
  26  -1  12   41.59    7.47
 -25  -1 -12   34.27    6.66
  26  -1  15    7.89    3.89
  26   0 -13    5.47    4.54
  26   0 -10   28.77    7.16
 -26  26 -10   27.65    4.81
  26   0  -7   50.56    9.05
 -26  26  -7   40.51    7.16
 -26  26  -7   42.02    7.47
  26 -26   4   77.56    7.55
  26   0  -4  116.80   11.28
 -26  26  -4   81.72   10.51
 -26  26  -4  104.94   10.13
  26 -26   1   53.41    6.24
  26   0  -1   62.62   10.13
 -26  26  -1   46.25   10.28
 -26  26  -1   71.51    9.09
  26   0   2    7.20    4.70
  26   0   2    2.85    9.09
 -26  26   2    7.97    9.86
 -26   0  -2    8.97    6.35
 -26  26   2   13.40    8.28
  26   0   5   37.86    9.17
 -26   0  -5   23.76    7.47
  26   0   8   11.13    8.09
 -26  26   8    5.04    9.01
 -26   0  -8   -5.62    7.09
  26   0  11   55.19    7.55
 -26   0 -11   58.61    7.16
  26   0  14    0.96    4.20
 -26   0 -14   -1.46    3.77
  26   1 -14   -0.04    3.00
  26   1 -11    9.20    5.58
  26   1  -8    9.86    7.43
 -27  26  -8    5.39    5.24
 -27  26  -8    6.47    4.97
  26   1  -5  177.77   14.02
 -27  26  -5  136.60   13.06
 -27  26  -5  159.24   12.55
  26   1  -2    5.31    8.78
 -27  26  -2   -1.46    8.74
 -27  26  -2    4.97    7.20
  26   1   1    2.27    8.32
 -27  26   1    2.39    9.44
 -27   1  -1   -0.23    5.58
 -27  26   1   -3.89    7.86
  26   1   4    9.63    8.47
 -27   1  -4   -3.31    6.70
  26   1   7   15.02    7.66
 -27   1  -7   -2.89    7.01
 -27  26   7    8.55    8.93
  26   1  10   25.07    6.59
 -27  26  10   29.96    7.47
 -27   1 -10   26.92    6.59
  26   1  13   -6.89    4.35
 -27   1 -13    0.54    4.20
  26   2 -12    6.55    4.16
  26   2  -9    0.58    6.12
 -28  26  -9   -5.62    3.97
 -28  26  -6  133.21   11.78
 -28  26  -6  139.41   10.90
  26   2  -3   48.22    8.86
 -28  26  -3   40.51    8.78
 -28  26  -3   42.52    6.85
  26   2   0   36.82    8.16
 -28   2   0   19.33    5.28
 -28  26   0   13.25    9.20
 -28  26   0   19.83    6.89
  26   2   3   30.19    7.89
 -28   2  -3   16.91    6.20
  26   2   6   92.50    8.97
 -28   2  -6   68.24    8.63
 -28  26   6   64.01   10.44
  26   2   9    0.19    6.08
 -28   2  -9   -2.89    6.12
 -28  26   9    5.97    7.36
  26   2  12   15.94    4.43
 -28   2 -12   10.05    4.47
  26   3 -13    2.23    2.50
  26   3 -10   13.25    5.01
  26   3  -7   14.10    6.85
 -29  26  -7   18.56    5.39
 -29  26  -4   40.36    7.97
 -29  26  -4   38.63    5.51
  26   3  -1   68.59    8.70
 -29  26  -1   45.17    9.36
 -29  26  -1   49.56    6.55
  26   3   2   -3.23    7.36
 -29   3  -2    8.90    5.66
 -29  26   2    4.58    9.05
  26   3   5  114.96    9.82
 -29  26   5   98.36   11.25
 -29   3  -5   98.59    9.36
  26   3   8   -3.66    5.28
 -29  26   8  -11.36    7.16
 -29   3  -8    1.50    5.74
  26   3  11   22.57    4.39
 -29   3 -11   34.81    5.01
  26   4 -11   11.05    3.54
  26   4  -8    5.82    5.35
 -30  26  -8    5.24    4.08
  26   4  -5   77.45    7.97
 -30  26  -5   36.93    7.24
  26   4  -2   13.13    7.47
 -30  26  -2   14.44    7.66
  26   4   1    9.44    6.89
 -30   4  -1   -4.54    4.89
 -30  26   1    6.12    8.16
  26   4   4   37.63    6.55
 -30   4  -4   47.37    6.47
  26   4   7   23.30    5.35
 -30  26   7   11.21    7.36
 -30   4  -7   19.26    5.58
  26   4  10   17.68    3.85
 -30  26  10   17.29    5.24
 -30   4 -10   25.38    4.78
  26   5  -9    0.15    3.77
  26   5  -6   34.35    5.82
 -31  26  -6   25.22    5.43
  26   5  -3   14.48    6.62
 -31  26  -3   19.22    6.85
  26   5   0   12.75    6.43
 -31  26   0   22.45    7.63
  26   5   3   -1.23    5.62
 -31   5  -3    4.47    4.93
  26   5   6   34.78    5.51
 -31  26   6   33.27    7.43
 -31   5  -6   48.60    5.97
  26   5   9    1.73    3.00
 -31  26   9    5.08    5.04
 -31   5  -9    4.78    4.24
  26   6  -7   16.79    3.97
 -32  26  -7    7.66    3.77
  26   6  -4   28.11    5.47
 -32  26  -4   23.26    5.82
  26   6  -1   18.79    5.70
 -32  26  -1    8.32    6.82
  26   6   2    4.08    4.93
 -32   6  -2    6.20    4.08
  26   6   5   28.46    4.39
 -32  26   5   27.88    7.01
 -32   6  -5   24.57    4.93
 -32  26   8   20.22    5.28
 -32   6  -8   30.46    4.39
  26   7  -5   14.13    3.58
 -33  26  -5   24.38    4.58
  26   7  -2   19.91    4.39
 -33  26  -2   21.14    5.93
  26   7   1   20.10    4.20
  26   7   4    6.28    3.08
 -33   7  -4    2.77    3.77
 -33  26   4    1.96    5.97
 -33  26   7   45.98    5.89
 -33   7  -7   47.45    4.74
 -34  26  -6    8.59    2.97
 -34  26  -3   12.44    4.58
 -34   8  -3    4.08    2.70
 -34  26   3    2.08    5.55
 -34   8  -6    9.44    2.77
 -34  26   6    3.70    4.24
 -35  26  -4   17.21    3.47
 -35  26  -1   22.88    4.70
 -35  26   2    8.93    4.93
 -35  26   5    6.74    3.81
 -36  26  -2    2.81    2.93
 -36  26   1    8.13    3.50
  27 -13 -14    2.16    3.89
  27 -13 -11   88.58    8.24
 -14  27 -11   93.77    9.63
  27 -13  -8   18.83    7.16
 -14  27  -8   17.18    8.55
  27 -13  -5  187.55   14.10
  27 -14   5  186.32   14.36
 -13  27   5  185.28   15.48
 -14  27  -5  173.88   15.17
  27 -14   2   28.65    7.36
  27 -13  -2   33.00    7.12
 -13  27   2   10.55    8.32
 -13  27   2   26.46    8.97
 -14  27  -2   33.50    8.66
  27 -13   1   -4.16    6.59
  27 -14  -1    4.74    6.35
 -13  27  -1    1.89    6.08
 -14  27   1  -10.32    7.97
 -14  27   1   -3.66    8.43
 -13  27  -1    2.46    8.55
  27 -13   4  101.52    9.82
  27 -14  -4   93.35    9.05
 -14  27   4   64.39   11.71
 -14  27   4   95.74   11.09
 -13  27  -4   86.69   10.40
  27 -14  -7  147.04   11.55
 -14  27   7  133.25   13.36
 -13  27  -7  135.37   12.71
  27 -14 -10   46.98    6.74
 -13  27 -10   66.24    8.86
  27 -14 -13   -1.85    4.04
 -13  27 -13   -0.23    6.47
 -13  27 -16   10.28    4.31
  27 -12 -15    1.00    3.31
  27 -15  15    2.50    6.05
  27 -12 -12   54.26    6.74
  27 -15  12   62.93    9.74
  27 -12  -9   21.60    7.39
  27 -15   9   27.69    9.78
  27 -15   6  225.33   17.79
  27 -12  -6  244.04   16.37
  27 -15   6  203.57   16.25
 -12  27   6  207.57   17.06
 -15  27  -6  216.12   16.87
  27 -15   3   56.73    7.74
  27 -12  -3   47.91    7.93
  27 -12  -3   68.40    9.32
  27 -15   3   67.51   10.24
 -12  27   3   56.26    9.28
 -15  27  -3   41.82    9.70
  27 -12   0    8.24    8.40
  27 -15   0   22.18    8.36
  27 -12   0    3.47    7.43
  27 -15   0    7.43    6.20
 -15  27   0    2.77    7.66
 -12  27   0    9.20    7.51
 -15  27   0   -0.89    8.70
  27 -15  -3   13.83    8.74
  27 -12   3   13.29    8.82
  27 -12   3    9.28    7.70
  27 -15  -3    4.16    5.70
 -15  27   3   12.32    9.47
 -15  27   3   14.40    9.24
 -12  27  -3   14.94    7.70
  27 -12   6   33.81    9.90
  27 -15  -6   19.79    6.55
 -15  27   6   15.13   11.25
 -15  27   6   29.46    9.90
 -12  27  -6   17.72    8.24
  27 -12   9  125.43   12.29
  27 -15  -9  104.33    9.20
 -12  27  -9  114.61   10.86
  27 -15 -12   15.48    4.58
  27 -12  12   24.92    8.93
 -12  27 -12   20.56    7.28
  27 -12  15    5.78    6.01
 -12  27 -15   16.29    4.93
  27 -11 -16    0.92    2.70
  27 -16  16   -0.04    5.04
 -16  27 -16    2.81    3.77
  27 -16  13   14.02    7.78
  27 -11 -13    7.51    5.39
  27 -11 -10   92.43    9.32
  27 -16  10   94.47   11.90
  27 -16   7  157.16   13.17
  27 -11  -7  147.23   11.63
  27 -16   7  109.29   10.67
 -11  27   7  112.45   11.71
  27 -16   4   86.34    8.93
  27 -11  -4  109.33   10.32
  27 -11  -4  110.45   11.01
  27 -16   4  119.85   11.98
 -11  27   4   88.07   10.63
  27 -11  -1    3.77    8.70
  27 -16   1   -1.66    8.63
  27 -16   1   -6.32    5.78
  27 -11  -1   -1.31    7.59
 -16  27  -1   12.55    7.66
 -11  27   1    3.66    7.66
 -16  27  -1   -3.81    8.74
  27 -16  -2   24.65    8.70
  27 -11   2   18.02    8.78
  27 -11   2   31.89    8.09
  27 -16  -2   21.30    5.70
 -16  27   2   23.72    9.28
 -16  27   2   23.61    9.67
 -11  27  -2   22.41    7.89
  27 -11   5  180.35   14.60
  27 -16  -5  157.28   12.44
  27 -16  -5  189.17   14.10
  27 -11   5  165.14   14.10
 -16  27   5  144.69   15.44
 -16  27   5  164.21   14.40
 -11  27  -5  149.11   13.48
  27 -16  -8   41.82    5.97
  27 -11   8   44.63   10.28
 -11  27  -8   48.33    8.78
  27 -11  11   27.46    8.90
 -11  27 -11   22.22    7.74
  27 -11  14   12.09    7.09
 -11  27 -14   -3.93    5.62
  27 -11  17   11.44    3.70
 -11  27 -17    3.81    3.04
  27 -17  17    5.35    3.62
 -17  27 -17   -0.15    2.62
  27 -10 -14    0.81    4.74
  27 -17  14    5.04    6.78
 -17  27 -14   -2.39    5.35
  27 -10 -11   66.51    8.01
  27 -17  11   59.81    9.94
 -17  27 -11   59.38    8.32
  27 -17   8    1.73    9.36
  27 -10  -8   10.44    8.28
  27 -10  -5  121.31   11.28
  27 -17   5  132.82   12.40
  27 -10  -5  133.90   11.55
  27 -17   5  100.51    9.55
 -10  27   5  105.25   11.09
  27 -10  -2   11.86    8.51
  27 -17   2   15.91    8.78
  27 -17   2   13.44    5.20
  27 -10  -2   18.83    8.09
 -17  27  -2    9.28    7.59
 -10  27   2   17.91    7.63
  27 -17  -1   55.42    9.40
  27 -10   1   53.11    9.20
  27 -10   1   60.31    8.86
  27 -17  -1   48.72    6.28
 -17  27   1   37.51    9.74
 -10  27  -1   51.26    7.74
  27 -17  -4   39.55    9.01
  27 -10   4   41.36    9.13
  27 -10   4   44.25    9.09
  27 -17  -4   40.51    5.97
 -17  27   4   35.28   10.98
 -17  27   4   36.51   10.17
 -10  27  -4   33.97    8.24
  27 -10   7   56.61    9.86
 -17  27   7   47.72   12.17
 -10  27  -7   49.14    8.63
 -17  27   7   52.88   10.55
  27 -10  10   39.67    9.47
 -10  27 -10   43.56    8.01
  27 -10  13    0.92    7.51
 -10  27 -13   -4.78    6.08
  27 -10  16    4.04    4.74
 -10  27 -16   11.98    3.93
  27  -9 -15    6.24    3.97
  27 -18  15    1.54    5.51
 -18  27 -15   16.33    4.12
  27  -9 -12   26.53    6.39
  27 -18  12   23.22    8.05
 -18  27 -12   23.49    6.43
  27  -9  -9    2.00    7.63
  27 -18   9    4.16    5.04
  27 -18   9    7.12    8.70
 -18  27  -9    0.65    8.28
  27 -18   6  195.02   15.02
  27  -9  -6  221.55   14.56
  -9  27   6  171.34   14.02
 -18  27  -6  204.69   15.25
  27  -9  -3   32.97    8.43
  27 -18   3   28.04    9.36
  27 -18   3   29.00    5.12
  27  -9  -3   36.62    8.55
 -18  27  -3   17.95    7.43
  -9  27   3   30.00    7.55
  27  -9   0  102.09   10.28
  27 -18   0   89.58   10.21
  27  -9   0   95.97   10.13
 -18  27   0   75.25   10.71
  -9  27   0   68.63    9.17
  27 -18  -3   33.70    8.74
  27  -9   3   22.41    8.66
  27  -9   3   26.11    9.17
 -18  27   3   18.75   10.40
  -9  27  -3   13.25    7.20
  27  -9   6   52.91    9.55
  27  -9   6   66.28    9.55
 -18  27   6   43.71   11.63
  -9  27  -6   45.06    8.13
  27  -9   9   15.02    8.28
  -9  27  -9   10.47    7.55
  27  -9  12    6.74    7.74
  -9  27 -12    3.70    6.66
  27  -9  15    8.36    5.43
  -9  27 -15    0.23    4.58
  27  -8 -16   -1.39    3.08
  27 -19  16    3.43    4.16
 -19  27 -16    1.81    3.08
  27  -8 -13    7.28    5.82
  27 -19  13   -5.35    6.85
 -19  27 -13    7.01    5.51
  27  -8 -10   24.34    7.63
  27 -19  10   24.03    8.09
 -19  27 -10   16.37    7.36
  27  -8  -7   32.43    8.86
  27 -19   7   19.91    9.24
 -19  27  -7   16.75    8.70
  27  -8  -4   23.92    7.89
  27 -19   4   25.96    8.63
  27  -8  -4   24.49    9.05
 -19  27  -4   20.18    7.16
  -8  27   4   25.53    7.32
 -19  27  -4   29.08    9.78
  27  -8  -1  108.49   10.59
  27 -19   1  109.72   10.74
  27  -8  -1  111.22   11.01
 -19  27  -1   86.53   11.17
 -19  27  -1   86.61   12.17
  -8  27   1   98.67    9.78
  27  -8   2  193.63   14.29
  27 -19  -2  178.23   13.75
  27  -8   2  167.87   14.44
 -19  27   2  148.34   15.52
  -8  27  -2  152.70   13.06
  27  -8   5  182.31   14.63
  27 -19  -5  164.56   14.29
  27  -8   5  183.00   15.17
 -19  27   5  160.59   16.21
  -8  27  -5  177.27   13.56
  27  -8   8   21.91    8.66
 -19  27   8   12.82   11.55
  -8  27  -8   12.71    7.51
  27  -8  11   11.63    7.59
  -8  27 -11   23.45    6.55
  27  -8  14   -0.89    6.05
  -8  27 -14   -0.08    5.08
  27  -8  17    0.81    3.08
  27  -7 -14   15.91    4.97
  27 -20  14   21.95    5.66
 -20  27 -14   19.22    4.66
  27  -7 -11   18.02    7.24
  27 -20  11   32.66    7.47
 -20  27 -11   25.34    6.78
  27  -7  -8   -0.73    8.74
  27 -20   8    5.12    8.20
 -20  27  -8    4.08    8.13
  27 -20   5  218.36   15.48
  27  -7  -5  239.08   16.02
  -7  27   5  186.86   14.21
 -20  27  -5  233.49   16.10
  27 -20   2  128.32   11.90
  27  -7  -2  139.14   11.44
  27  -7  -2  138.25   11.98
 -20  27  -2   99.74   12.17
 -20  27  -2  114.22   12.90
  -7  27   2  122.85   10.71
  27 -20  -1   60.85    8.63
  27  -7   1   47.18    8.66
  27  -7   1   51.07    9.51
 -20  27   1   36.12   10.63
 -20  27   1   50.30   10.67
  -7  27  -1   44.63    7.32
  27  -7   4  142.61   12.21
  27 -20  -4  147.88   12.36
  27  -7   4  141.87   13.36
 -20  27   4  119.92   14.60
 -20  27   4  131.71   13.71
  -7  27  -4  132.79   11.36
  27  -7   7   84.49    9.24
 -20  27   7   49.99   12.63
  -7  27  -7   63.20    8.55
  27  -7  10   44.33    8.05
  -7  27 -10   41.55    7.36
  27  -7  13    0.96    6.24
  -7  27 -13    3.23    5.24
  27  -7  16   -2.04    4.31
  27  -7  16    0.04    3.31
  -7  27 -16    3.27    2.70
  27  -6 -15   14.63    4.12
  27 -21  15   17.79    4.43
 -21  27 -15   21.49    3.50
  27  -6 -12    9.40    6.47
  27 -21  12    6.20    6.32
 -21  27 -12    6.93    5.43
  27  -6  -9    9.47    8.24
  27 -21   9   -1.50    7.05
 -21  27  -9   -0.96    7.78
  27 -21   6  115.53   10.13
  27  -6  -6  113.76   11.55
 -21  27  -6  126.16   11.63
  27  -6  -3   20.64    7.32
  27 -21   3   23.11    7.89
  27  -6  -3   32.50    8.63
 -21  27  -3   23.18    8.70
  -6  27   3   31.58    6.28
 -21  27  -3   24.18   10.09
  27  -6   0    0.08    7.28
  27 -21   0    4.81    7.36
  27  -6   0    4.24    9.20
 -21  27   0    3.27    9.90
  -6  27   0    3.54    6.16
 -21  27   0  -10.28    9.51
  27 -21  -3    8.01    7.59
  27  -6   3    8.20    7.36
  27  -6   3   14.33    9.32
 -21  27   3    5.28   10.40
 -21  27   3   16.14    9.70
  -6  27  -3   13.75    6.39
  27  -6   6  220.78   16.29
  27  -6   6  227.64   17.33
 -21  27   6  175.96   18.45
 -21  27   6  218.55   17.33
  -6  27  -6  205.42   15.37
  27  -6   9   13.13    7.59
  -6  27  -9   13.21    6.16
  27  -6  12   21.10    6.66
  -6  27 -12   12.67    5.51
  27  -6  15   12.13    3.97
  -6  27 -15    9.32    3.16
  27  -5 -16    7.78    2.73
  27  -5 -13    4.62    5.47
  27 -22  13   10.05    5.08
 -22  27 -13    8.51    4.39
  27  -5 -10   82.64    9.55
  27 -22  10   74.87    8.36
 -22  27 -10   76.91    8.74
  27  -5  -7   65.51   10.36
  27 -22   7   57.65    8.32
 -22  27  -7   70.67    9.70
  27 -22   4  134.10   11.32
  27  -5  -4  152.04   12.63
 -22  27  -4  146.84   13.21
  27  -5  -1  162.86   12.63
  27 -22   1  164.17   12.82
  27  -5  -1  173.07   13.86
  -5  27   1  134.63   11.71
 -22  27  -1  137.33   14.25
 -22  27  -1  194.02   14.79
  27 -22  -2   24.53    6.89
  27  -5   2   22.07    7.36
  27  -5   2   30.92    9.20
 -22  -5  -2   14.13    5.78
 -22  27   2    8.24   10.28
 -22  27   2   18.29   10.28
  -5  27  -2   18.64    5.85
  27  -5   5  111.84   10.13
 -22  27   5   74.75   13.02
 -22  27   5  103.33   11.86
  -5  27  -5   98.36    8.97
  27  -5   8    0.39    7.20
  -5  27  -8   10.71    5.85
  27  -5  11   29.58    6.93
  -5  27 -11   37.28    5.51
  27  -5  14    4.16    4.20
  -5  27 -14    5.31    3.20
  27  -4 -14    4.93    4.39
  27 -23  14    3.20    3.39
 -23  27 -14    1.54    3.04
  27  -4 -11   22.57    6.70
  27 -23  11    6.51    5.51
 -23  27 -11   15.60    5.78
  27  -4  -8   45.48    8.90
  27 -23   8   29.31    6.62
 -23  27  -8   35.31    8.09
  27 -23   5  203.80   15.29
  27  -4  -5  237.30   16.75
 -23  27  -5  233.42   16.52
  27  -4  -2    9.55    6.97
  27 -23   2   21.26    6.51
 -23  27  -2   25.69    9.20
 -23  27  -2   12.05    9.82
  27 -23  -1  132.63   11.05
  27  -4   1  132.09   11.28
 -23  27   1  107.37   13.63
 -23  27   1  141.49   13.17
  27  -4   4   35.16    7.36
 -23  27   4   49.56   11.21
 -23  -4  -4   30.92    6.82
 -23  27   4   45.10   10.40
  -4  27  -4   43.13    5.70
  27  -4   7   10.55    6.47
  -4  27  -7   14.21    5.12
  27  -4  10   52.41    7.16
 -23  27  10   47.83   10.28
  -4  27 -10   50.68    5.78
  27  -4  13    6.74    6.43
  27  -4  13   13.44    4.35
  -4  27 -13    5.70    3.08
  27  -4  16    3.20    3.00
  27  -3 -15    3.58    3.04
  27  -3 -12   14.33    5.82
  27 -24  12    4.47    3.97
 -24  27 -12    3.23    4.20
  27 -24   9   27.11    5.66
 -24  27  -9   46.29    7.24
  27 -24   6   82.34    8.13
 -24  27  -6   63.70    8.59
  27 -24   3    0.89    5.78
 -24  27  -3   12.86    8.82
 -24  27  -3   12.02    9.05
  27  -3   0  100.67    9.32
  27 -24   0  107.18    9.36
 -24  27   0   76.60   11.90
 -24  27   0  117.15   12.21
  27  -3   3   13.32    6.39
 -24  -3  -3    1.04    6.12
 -24  27   3   -7.32   10.17
 -24  27   3   -0.65    9.05
  27  -3   6   35.85    6.66
  27  -3   9   21.95    5.55
 -24  27   9   29.15    9.55
  27  -3   9   33.93    8.28
  27  -3  12   15.29    4.35
  27  -3  12   11.51    6.97
  27  -3  15    8.66    3.97
 -24  -3 -15    4.70    3.31
 -25  27 -13   -1.50    2.46
  27 -25  10   15.71    4.31
 -25  27 -10   19.14    5.55
  27 -25   7   58.27    6.78
 -25  27  -7   54.88    7.39
  27 -25   4  118.85   10.09
 -25  27  -4  111.87   11.90
  27  -2  -1   27.34    6.16
  27 -25   1   23.88    6.01
  27  -2  -1   38.55    9.44
 -25  27  -1   20.95    9.40
 -25  27  -1   33.31    9.17
  27  -2   2   16.44    5.93
  27  -2   2   13.75    8.40
 -25  27   2    2.43   10.09
 -25  -2  -2    5.78    5.74
 -25  27   2   23.07    8.86
  27  -2   5   14.29    5.55
 -25  27   5   14.60   10.17
 -25  -2  -5    9.24    6.66
  27  -2   5   21.18    8.59
  27  -2   8   25.69    5.31
 -25  27   8   17.95    9.67
 -25  -2  -8   25.03    6.93
  27  -2   8   31.04    8.24
  27  -2  11   46.14    5.08
  27  -2  11   45.91    8.05
 -25  -2 -11   61.31    6.85
  27  -2  14    1.62    4.47
 -25  -2 -14   15.21    3.74
 -26  27 -11   28.15    4.04
  27 -26   8   13.94    3.89
  27  -1  -8    9.47    7.78
 -26  27  -8    5.39    4.85
 -26  27  -8    6.66    6.01
  27 -26   5  108.02    9.24
 -26  27  -5  110.22   10.74
 -26  27  -5  131.90   11.13
  27 -26   2   10.94    5.08
  27  -1  -2   27.38    8.97
 -26  27  -2   16.94    8.70
 -26  27  -2   19.99    8.86
  27  -1   1   22.37    5.39
  27  -1   1   36.70    8.90
 -26  27   1    8.13    9.82
 -26  27   1   15.64    8.82
  27  -1   4   10.78    4.93
  27  -1   4    9.63    8.70
 -26  -1  -4   10.90    6.28
 -26  27   4    7.55    9.86
 -26  27   4   19.68    8.40
  27  -1   7   10.59    4.24
  27  -1   7    9.59    7.59
 -26  -1  -7   13.86    6.35
  27  -1  10   39.17    7.24
 -26  27  10   33.89    7.82
 -26  -1 -10   42.05    6.62
  27  -1  13   -1.96    4.66
 -26  -1 -13   -4.16    4.08
  27   0 -12    6.05    4.31
  27   0  -9   10.90    6.20
 -27  27  -9    5.89    4.31
  27   0  -6   67.05    9.05
 -27  27  -6   47.87    7.28
 -27  27  -6   57.50    7.32
  27   0  -3   35.05    8.55
 -27  27  -3   24.42    8.09
 -27  27  -3   31.08    7.97
  27   0   0  127.43   11.63
 -27  27   0   96.39   11.75
 -27  27   0  107.72   10.78
  27   0   3   31.81    8.51
 -27  27   3   28.38    9.67
 -27   0  -3   23.53    5.85
 -27  27   3   27.73    7.89
  27   0   6    9.67    7.70
 -27   0  -6    6.39    6.20
  27   0   9    2.27    6.55
 -27  27   9    8.82    7.55
 -27   0  -9   14.40    5.93
  27   0  12   -0.89    4.74
 -27   0 -12   -1.46    4.27
  27   1 -13    1.81    2.73
  27   1 -10   22.84    5.24
  27   1  -7   52.26    7.78
 -28  27  -7   43.48    5.97
 -28  27  -7   50.30    5.62
 -28  27  -4   53.80    8.63
 -28  27  -4   66.93    7.86
  27   1  -1   77.37    9.40
 -28  27  -1   49.10    9.70
 -28  27  -1   72.67    8.20
  27   1   2    9.32    7.43
 -28  27   2    5.20    8.74
 -28   1  -2   -4.24    5.16
 -28  27   2  -10.59    7.09
 -28   1  -5   42.09    6.74
  27   1   5   54.88    8.24
 -28   1  -8    4.31    5.58
 -28  27   8   -1.31    7.24
  27   1   8   -6.78    6.01
 -28   1 -11    8.63    4.66
  27   1  11   22.80    4.78
  27   2 -11    1.08    3.70
 -29  27  -8    5.62    3.66
  27   2  -8   -0.54    5.62
 -29  27  -5   93.00    7.59
 -29  27  -5   77.18    8.74
  27   2  -2   16.25    7.70
 -29  27  -2   16.29    7.47
 -29  27  -2   10.36    5.51
  27   2   1   33.35    7.70
 -29   2  -1   28.27    4.81
  27   2   4   33.39    7.09
 -29   2  -4   26.77    5.66
  27   2   7   26.46    5.89
 -29  27   7   27.77    7.70
 -29   2  -7   14.56    5.51
  27   2  10   13.06    4.43
 -29   2 -10   13.83    4.58
  27   3  -9    9.63    4.31
  27   3  -6   37.16    6.66
 -30  27  -6   28.65    5.47
  27   3  -3   12.67    6.85
 -30  27  -3   10.63    6.51
  27   3   0   56.11    7.97
 -30  27   0   46.29    8.40
  27   3   3   11.90    6.43
 -30   3  -3    8.09    4.81
  27   3   6   56.26    6.62
 -30  27   6   55.80    8.20
 -30   3  -6   61.50    6.35
  27   3   9   -2.16    3.85
 -30  27   9    2.20    5.35
 -30   3  -9   -3.04    4.12
  27   4 -10   11.28    2.89
  27   4  -7    4.04    4.51
 -31  27  -7    4.24    3.58
  27   4  -4   20.95    6.05
 -31  27  -4   23.30    5.74
  27   4  -1   42.86    6.78
 -31  27  -1   25.69    7.09
  27   4   2   17.91    5.93
 -31   4  -2    2.50    3.85
  27   4   5   72.02    6.78
 -31  27   5   63.70    8.16
 -31   4  -5   63.16    6.39
  27   4   8   21.72    3.93
 -31  27   8   16.06    5.78
 -31   4  -8   27.38    4.27
  27   5  -8   -5.24    3.08
  27   5  -5   26.07    4.93
 -32  27  -5   25.84    4.81
  27   5  -2   26.11    5.58
 -32  27  -2   13.94    6.05
  27   5   1   21.80    5.28
 -32  27   1    5.89    6.43
  27   5   4   22.14    4.54
 -32   5  -4   17.98    3.89
 -32  27   4   13.98    6.43
 -32  27   7   43.63    5.85
 -32   5  -7   34.16    4.16
  27   6  -6   11.13    2.93
 -33  27  -6   13.52    3.16
  27   6  -3   -1.04    3.77
 -33  27  -3    7.16    4.66
  27   6   0   30.00    4.51
 -33  27   0   16.75    5.82
  27   6   3    5.93    3.39
 -33   6  -3    8.16    2.81
 -33  27   6   53.34    6.01
 -33   6  -6   46.25    4.39
 -34  27  -4    9.70    3.50
 -34  27  -1   35.55    5.39
 -34  27   5    6.78    4.43
 -35  27  -2   10.36    3.47
 -35  27   4   25.76    4.12
  28 -14   0  184.62   12.44
 -14  28   0  162.75   13.44
  28 -14   3   57.23    7.78
  28 -14  -3   54.42    7.47
 -14  28   3   47.48    9.63
 -14  28  -3   43.52    9.32
  28 -14  -6  154.54   12.21
  28 -14   6  146.73   12.59
 -14  28   6  162.75   13.86
 -14  28  -6  143.65   13.32
  28 -14  -9   18.14    5.78
 -14  28  -9   28.15    7.93
  28 -14 -12   -3.70    4.27
 -14  28 -12    0.85    6.24
 -14  28 -15    5.24    4.12
  28 -15  16   -5.74    4.35
  28 -13 -13    5.97    4.08
  28 -13 -10   32.04    6.28
 -15  28 -10   34.97    7.82
  28 -15   7   67.36    8.55
  28 -13  -7   73.63    8.93
 -15  28  -7   78.33    9.67
  28 -15   4   60.39    8.09
  28 -13  -4   55.57    8.40
 -13  28   4   58.46    9.82
 -15  28  -4   67.20    9.78
  28 -13  -1  134.25   10.59
  28 -15   1  127.82    9.90
 -13  28   1  123.66   11.48
 -15  28  -1  116.15   11.51
  28 -13   2   54.76    8.01
  28 -15  -2   60.65    7.63
 -15  28   2   53.68    9.78
 -15  28   2   59.35    9.86
 -13  28  -2   51.03    9.17
  28 -13   5   20.72    8.09
  28 -15  -5   10.21    6.55
 -15  28   5   13.21    9.13
 -13  28  -5   20.68    7.93
  28 -15  -8   28.73    6.05
  28 -13   8   18.22    9.40
 -13  28  -8   24.76    8.28
  28 -15 -11   30.69    5.01
  28 -13  11   29.61    9.24
 -13  28 -11   40.09    7.24
  28 -13  14   -0.89    6.43
 -13  28 -14    2.20    5.04
  28 -13  17   -2.04    2.73
 -13  28 -17    6.39    2.35
  28 -16  17   -1.54    2.73
 -16  28 -17    2.62    2.12
  28 -16  14   -0.73    4.16
  28 -12 -14    2.23    3.50
  28 -16  14   -5.47    6.39
  28 -12 -11   40.78    6.39
  28 -16  11   37.43    8.63
  28 -12  -8    4.62    7.24
  28 -16   8    2.89    6.51
  28 -16   8   -2.85    9.59
  28 -16   5   18.37    6.16
  28 -12  -5   13.21    7.70
  28 -12  -5   11.21    8.86
  28 -16   5   18.45    9.44
 -12  28   5   21.91    7.86
 -16  28  -5    4.89    8.90
  28 -12  -2   67.05    9.97
  28 -16   2   72.25   10.28
  28 -16   2   46.98    7.24
  28 -12  -2   71.05    8.74
 -16  28  -2   35.05    7.82
 -12  28   2   68.51    8.82
 -16  28  -2   56.34   10.09
  28 -12   1  159.51   13.86
  28 -16  -1  158.01   13.59
  28 -16  -1  149.31   11.59
  28 -12   1  154.66   12.82
 -16  28   1  123.50   13.25
 -16  28   1  152.54   13.48
 -12  28  -1  148.38   12.98
  28 -12   4  134.29   11.94
  28 -16  -4  124.20   11.71
  28 -16  -4  115.69    9.78
  28 -12   4  114.49   11.40
 -16  28   4   90.69   12.82
 -12  28  -4  102.86   11.48
 -16  28   4  110.10   12.05
  28 -12   7   73.29   10.59
  28 -16  -7   94.97    8.51
  28 -12   7  102.44   11.86
 -12  28  -7   99.44   10.32
 -16  28   7  105.60   11.25
  28 -16 -10   21.37    4.81
  28 -12  10   35.05    9.28
 -12  28 -10   31.46    7.66
  28 -12  13    6.28    6.78
 -12  28 -13    1.04    5.62
  28 -12  16    5.35    3.50
  28 -12  16    5.35    4.04
 -12  28 -16    9.13    3.23
  28 -11 -15   10.24    2.97
  28 -17  15    7.89    5.08
 -17  28 -15    7.86    3.81
  28 -11 -12   19.99    5.43
  28 -17  12    8.70    4.93
  28 -17  12   17.06    7.74
  28 -11  -9   67.78    7.66
  28 -17   9   60.89   10.09
  28 -17   6   42.82    6.97
  28 -11  -6   75.75    8.93
  28 -17   6   56.73   10.63
 -11  28   6   48.37    8.20
  28 -17   3   26.23    5.58
  28 -11  -3   14.60    7.93
  28 -11  -3   21.99    8.70
  28 -17   3   19.22    9.09
 -11  28   3    9.97    8.16
  28 -11   0  188.24   14.02
  28 -17   0  197.87   14.36
  28 -17   0  155.12   12.09
  28 -11   0  189.74   13.79
 -17  28   0  124.20   13.79
 -11  28   0  157.97   13.40
 -17  28   0  159.40   14.71
  28 -17  -3    2.70    8.20
  28 -11   3   -4.39    8.82
  28 -11   3    1.04    7.89
  28 -17  -3    2.04    5.20
 -17  28   3   -2.20    9.90
 -17  28   3    8.20    9.32
 -11  28  -3   -4.62    7.86
  28 -11   6   78.06   10.47
  28 -17  -6   67.47    7.24
  28 -11   6   74.56   10.17
 -17  28   6   67.93   11.90
 -17  28   6   88.34   11.17
 -11  28  -6   79.14    9.32
  28 -11   9    5.74    8.55
 -11  28  -9   10.67    7.51
  28 -11  12    2.73    7.63
 -11  28 -12   10.94    6.32
  28 -11  15    5.35    5.01
 -11  28 -15    9.97    4.20
  28 -18  16    3.89    3.66
 -18  28 -16    3.20    2.81
  28 -18  13   11.63    3.62
  28 -10 -13    8.74    4.85
  28 -18  13   12.25    6.59
 -18  28 -13    4.08    4.97
  28 -10 -10   29.27    7.20
  28 -18  10   14.79    5.31
  28 -18  10   37.43    8.78
 -18  28 -10   26.88    7.09
  28 -18   7   31.31    5.78
  28 -10  -7   43.29    8.32
  28 -18   7   23.18    9.47
  28 -18   4   -4.20    5.08
  28 -10  -4    1.66    8.28
  28 -10  -4    0.42    8.59
  28 -18   4    6.62    8.93
 -10  28   4    1.35    7.59
  28 -18   1  245.82   16.98
  28 -10  -1  241.27   16.75
  28 -18   1  195.44   14.83
  28 -10  -1  240.81   16.64
 -18  28  -1  189.36   16.33
 -10  28   1  207.61   16.21
  28 -18  -2   87.34   10.24
  28 -10   2   85.73   10.01
  28 -10   2   79.60   10.28
 -18  28   2   58.61   10.98
 -10  28  -2   77.60    8.90
  28 -10   5  232.72   17.33
  28 -18  -5  238.15   16.98
  28 -10   5  218.55   17.29
 -18  28   5  210.00   17.68
 -18  28   5  206.84   18.41
 -10  28  -5  210.31   16.56
  28 -10   8    3.04    8.59
 -10  28  -8   -3.47    7.55
  28 -10  11   18.10    8.05
 -10  28 -11   23.03    6.55
  28 -10  14    1.19    5.62
 -10  28 -14    1.35    4.43
  28  -9 -14   -0.81    4.12
  28 -19  14    4.89    5.43
 -19  28 -14   10.09    4.24
  28  -9 -11   29.42    6.66
  28 -19  11   23.38    7.82
 -19  28 -11   31.19    6.51
  28  -9  -8   23.03    8.40
  28 -19   8   20.45    8.70
 -19  28  -8   27.11    8.28
  28  -9  -5   43.29    8.47
  28 -19   5   36.28    8.82
 -19  28  -5   35.55    9.36
  -9  28   5   27.84    7.16
  28 -19   2  230.06   16.25
  28  -9  -2  223.86   15.98
  28  -9  -2  233.57   16.25
  -9  28   2  191.21   15.52
  28  -9   1  157.20   12.55
  28 -19  -1  162.29   12.90
  28  -9   1  150.50   13.17
 -19  28   1  111.87   13.67
  -9  28  -1  133.83   11.78
  28  -9   4  292.14   20.49
  28 -19  -4  270.27   20.22
  28  -9   4  315.44   20.41
 -19  28   4  232.53   21.41
  -9  28  -4  269.11   19.68
  28  -9   7   37.51    8.43
  28  -9   7   44.36    9.44
 -19  28   7   35.51   11.59
  -9  28  -7   32.89    7.74
  28  -9  10   -7.12    7.39
  -9  28 -10    3.97    6.70
  28  -9  13    8.47    6.20
  -9  28 -13    9.63    5.01
  28  -9  16    5.39    3.04
  -9  28 -16    0.50    2.43
  28 -20  15   -2.50    4.01
  28  -8 -15    3.93    3.08
 -20  28 -15    2.12    3.04
  28  -8 -12   11.17    5.85
  28 -20  12   19.33    6.55
 -20  28 -12   21.91    5.78
  28  -8  -9   39.09    8.40
  28 -20   9   36.20    8.47
 -20  28  -9   44.60    7.89
  28 -20   6  118.65   12.09
  28  -8  -6  135.14   11.94
 -20  28  -6  118.61   12.36
  28 -20   3  215.43   15.60
  28  -8  -3  206.19   15.17
  28  -8  -3  223.33   15.64
  -8  28   3  180.62   14.33
 -20  28  -3  194.87   16.25
  28  -8   0   27.23    8.09
  28 -20   0   29.31    8.55
  28  -8   0   36.47    8.70
 -20  28   0   29.92    9.51
  -8  28   0   22.14    6.97
 -20  28   0   31.85   10.05
  28  -8   3  116.65   10.67
  28 -20  -3  112.26   10.71
  28  -8   3  116.73   11.63
 -20  28   3   95.85   13.06
  -8  28  -3   97.39   10.01
  28  -8   6  137.83   12.13
  28  -8   6  138.87   12.86
 -20  28   6  141.53   14.40
  -8  28  -6  129.47   11.48
  28  -8   9   20.06    8.24
  28  -8   9    1.58    7.39
  -8  28  -9   10.32    6.74
  28  -8  12    6.51    6.39
  -8  28 -12   -0.58    5.16
  28  -8  15    3.50    4.35
  28  -8  15   -5.12    3.81
  -8  28 -15    5.74    3.04
  28  -7 -13   15.13    4.85
  28 -21  13    7.93    5.08
 -21  28 -13   11.05    4.39
  28  -7 -10   39.32    7.70
  28 -21  10   30.27    7.32
 -21  28 -10   33.27    7.09
  28  -7  -7   22.80    8.63
  28 -21   7   11.67    7.82
 -21  28  -7   23.92    8.55
  28 -21   4   55.38    8.55
  28  -7  -4   59.73    9.40
 -21  28  -4   46.68    8.16
 -21  28  -4   57.69   10.32
  -7  28   4   41.82    6.89
  28  -7  -1   14.94    7.66
  28 -21   1   15.75    7.59
  28  -7  -1   15.48    8.93
 -21  28  -1    8.16    9.09
  -7  28   1   14.75    6.43
 -21  28  -1    8.55   10.13
  28 -21  -2   27.19    7.63
  28  -7   2   28.77    7.82
  28  -7   2   26.03    8.47
 -21  28   2   15.10   10.47
 -21  28   2   18.72    9.90
  -7  28  -2   25.11    6.59
  28  -7   5  223.59   15.64
  28  -7   5  207.19   16.56
 -21  28   5  204.88   16.98
 -21  28   5  182.04   17.64
  -7  28  -5  195.98   15.06
  28  -7   8    6.55    7.47
  28  -7   8    7.43    8.32
 -21  28   8   24.53   10.98
  -7  28  -8   11.59    6.08
  28  -7  11   14.63    7.39
  28  -7  11    5.24    6.47
  -7  28 -11   14.60    5.47
  28  -7  14    7.12    5.43
  28  -7  14   -2.97    4.39
  -7  28 -14   -3.39    3.35
  28  -6 -14   10.47    4.01
  28 -22  14    5.78    3.81
 -22  28 -14   11.36    3.27
  28  -6 -11   29.77    6.55
  28 -22  11   21.30    6.01
 -22  28 -11   26.92    5.78
  28  -6  -8   -8.20    8.05
  28 -22   8    2.08    6.43
 -22  28  -8   -1.08    7.74
  28 -22   5  107.18   10.21
  28  -6  -5  133.79   11.36
 -22  28  -5  126.09   11.90
  28  -6  -2   98.05    9.78
  28 -22   2  106.64    9.82
  28  -6  -2  117.15   10.86
 -22  28  -2   74.94   10.98
  -6  28   2   81.99    8.43
 -22  28  -2  110.87   12.13
  28 -22  -1   54.65    8.01
  28  -6   1   53.03    8.28
  28  -6   1   57.42    9.78
 -22  28   1   41.86   10.59
 -22  28   1   52.37   10.94
  -6  28  -1   46.64    6.74
  28  -6   4   30.35    7.36
  28  -6   4   24.76    9.13
 -22  28   4   20.26   10.82
 -22  28   4   32.23   10.36
  -6  28  -4   28.54    5.97
  28  -6   7   70.86    8.43
  28  -6   7   60.46    9.97
 -22  28   7   54.42   11.48
  -6  28  -7   63.97    7.32
  28  -6  10    9.63    8.09
  28  -6  10    2.81    6.05
  -6  28 -10    2.93    4.97
  28  -6  13    3.93    4.51
  -6  28 -13    8.24    3.54
  28  -5 -15    2.39    2.62
  28  -5 -12   12.63    5.20
  28 -23  12    2.23    4.54
 -23  28 -12   11.36    4.24
  28  -5  -9    7.36    7.63
  28 -23   9   18.64    5.89
 -23  28  -9   18.22    6.82
  28 -23   6   75.75    8.36
  28  -5  -6  102.63   10.01
 -23  28  -6  101.09   10.05
  28 -23   3   22.80    6.70
  28  -5  -3   20.83    8.86
 -23  28  -3   14.60    8.32
 -23  28  -3   27.69    9.55
  28  -5   0  170.64   12.86
  28 -23   0  176.65   12.71
  28  -5   0  177.46   13.86
 -23  28   0  127.09   14.56
  -5  28   0  140.95   11.78
 -23  28   0  190.67   15.02
  28  -5   3   39.28    7.20
 -23  -5  -3   26.53    6.12
 -23  28   3   41.13   10.55
  -5  28  -3   35.66    5.82
  28  -5   6   73.48    8.51
 -23  28   6   70.90   12.02
  -5  28  -6   77.06    7.16
  28  -5   9   14.44    5.70
  -5  28  -9    7.28    4.70
  28  -5  12   31.58    5.01
  -5  28 -12   25.53    3.81
 -23  -5 -15    6.12    3.00
  28  -4 -13    2.08    4.27
  28 -24  13    3.85    2.81
 -24  28 -13   -1.27    2.93
  28  -4 -10   34.70    6.59
  28 -24  10   20.68    5.08
 -24  28 -10   28.50    5.70
  28  -4  -7   13.29    8.55
  28 -24   7   12.48    5.47
 -24  28  -7   13.09    7.39
  28 -24   4   80.83    8.09
 -24  28  -4   69.20    9.40
 -24  28  -4   92.46   10.78
  28  -4  -1   75.10    8.20
  28 -24   1   77.56    8.24
 -24  28  -1   71.55   10.74
 -24  28  -1   84.38   11.32
  28 -24  -2   13.02    6.35
  28  -4   2   11.82    6.39
 -24  28   2   27.19   10.21
 -24  28   2   17.79    9.63
  28  -4   5   87.38    8.40
 -24  28   5   89.69   12.09
 -24  -4  -5   72.90    8.13
 -24  28   5   95.05   10.63
  28  -4   8   21.57    5.74
  -4  28  -8   14.60    4.12
  28  -4  11   40.48    5.20
  28  -4  14    3.58    4.27
 -24  -4 -14   -0.50    3.50
  28  -3 -14    5.12    2.89
  28  -3 -11    4.31    5.39
  28 -25  11    3.47    3.31
 -25  28 -11    8.40    4.04
  28 -25   8    0.62    4.47
 -25  28  -8   -1.93    6.35
  28 -25   5  105.02    8.90
 -25  28  -5   84.53    9.82
  28 -25   2   42.79    6.62
 -25  28  -2   59.81    9.17
 -25  28  -2   60.12   10.01
  28 -25  -1  123.66    9.90
  28  -3   1  104.71    9.78
 -25  28   1  116.69   12.40
  28  -3   4    7.66    5.47
 -25  -3  -4   13.71    5.51
 -25  28   4    4.54    9.97
 -25  28   4   24.15    8.78
  28  -3   7   29.81    5.28
 -25  -3  -7   31.19    6.16
  28  -3   7   33.08    8.43
  28  -3  10   31.62    4.66
  28  -3  10   37.55    7.36
 -25  -3 -10   29.19    5.89
  28  -3  13    3.27    4.74
 -25  -3 -13    7.20    3.97
 -26  28 -12    6.59    2.27
 -26  28  -9    2.35    4.97
  28 -26   6  110.99    8.59
 -26  28  -6   87.15    9.32
  28 -26   3   27.96    5.08
 -26  28  -3   19.22    7.89
 -26  28  -3   24.65    8.40
  28 -26   0   42.25    5.93
  28  -2   0   44.40    8.74
 -26  28   0   36.78    9.51
 -26  28   0   49.56    9.28
  28  -2   3   19.14    5.12
  28  -2   3   39.24    8.20
 -26  28   3   32.93    9.32
 -26  -2  -3   14.33    5.35
 -26  28   3   25.88    8.28
  28  -2   6   38.67    5.28
  28  -2   6   54.03    8.28
 -26  -2  -6   41.13    6.39
  28  -2   9    2.62    6.55
 -26  28   9   -3.00    7.59
 -26  -2  -9    4.93    5.31
  28  -2  12   18.02    5.20
 -26  -2 -12   26.69    4.47
  28  -1 -10   22.30    5.28
 -27  28 -10   12.86    3.27
  28  -1  -7   39.74    7.51
 -27  28  -7   22.07    5.04
 -27  28  -7   37.86    5.89
  28  -1  -4   69.90    8.82
 -27  28  -4   46.14    7.97
 -27  28  -4   54.22    8.32
  28  -1  -1  114.96   10.71
 -27  28  -1  111.80   10.51
  28  -1   2   10.90    7.63
 -27  28   2   11.28    8.78
 -27  -1  -2    3.62    4.74
 -27  28   2   -2.27    7.55
  28  -1   5   15.98    7.74
 -27  28   5   12.05    9.09
 -27  -1  -5   12.82    5.24
  28  -1   8   13.52    6.32
 -27  28   8   -1.81    7.63
 -27  -1  -8   -3.31    5.20
  28  -1  11   29.61    5.58
 -27  -1 -11   34.81    4.97
  28   0 -11   10.74    4.08
  28   0  -8    8.01    5.89
 -28  28  -8    4.85    3.58
  28   0  -5   46.52    7.89
 -28  28  -5   37.01    6.70
 -28  28  -5   39.70    6.24
  28   0  -2    9.09    7.70
 -28  28  -2   12.29    7.47
 -28  28  -2    4.89    6.97
  28   0   1   48.29    8.36
 -28  28   1   41.44    8.86
 -28  28   1   38.32    7.66
 -28  28   4    4.01    8.32
 -28   0  -4    2.27    4.93
  28   0   7   29.38    6.43
 -28  28   7    9.74    7.74
 -28   0  -7   20.22    5.20
  28   0  10   11.71    4.89
 -28   0 -10    6.39    4.24
  28   1 -12    1.19    2.35
  28   1  -9   17.48    4.74
  28   1  -6   66.86    7.55
 -29  28  -6   55.84    5.12
  28   1  -3    2.70    6.82
 -29  28  -3   -2.04    6.51
 -29  28  -3    2.54    5.08
  28   1   0  101.71    9.05
 -29  28   0   84.34    8.20
  28   1   3   18.68    6.85
 -29  28   3   18.79    7.82
 -29   1  -3   11.51    4.47
  28   1   6   52.53    6.74
 -29   1  -6   44.83    5.58
  28   1   9    5.35    4.62
 -29  28   9   10.78    5.66
 -29   1  -9    8.51    4.01
  28   2 -10   -1.19    3.23
  28   2  -7   30.85    5.35
 -30  28  -7    9.59    3.54
  28   2  -4   28.00    6.82
 -30  28  -4   23.15    5.66
  28   2  -1   43.59    6.97
 -30  28  -1   28.11    7.16
  28   2   2    8.90    6.12
 -30  28   2   11.59    7.24
  28   2   5   44.25    6.35
 -30   2  -5   46.64    5.24
  28   2   8   14.21    4.47
 -30  28   8   16.06    5.82
 -30   2  -8   14.71    3.93
  28   3  -8   10.28    3.70
  28   3  -5   51.87    6.12
 -31  28  -5   35.55    5.12
  28   3  -2   32.46    6.28
 -31  28  -2   17.83    5.89
  28   3   1   34.70    6.16
 -31  28   1   34.08    7.01
  28   3   4   50.99    5.89
 -31   3  -4   44.21    4.74
  28   3   7   22.57    4.27
 -31  28   7   20.56    5.66
 -31   3  -7   20.18    3.81
  28   4  -6   14.87    3.77
 -32  28  -6    9.28    3.08
  28   4  -3   11.67    4.81
 -32  28  -3   21.45    4.85
  28   4   0   19.37    4.89
 -32  28   0   11.90    5.62
  28   4   3   15.87    4.43
  28   4   6   17.45    3.62
 -32  28   6   20.99    5.47
 -32   4  -6   17.29    3.16
  28   5  -4    9.24    3.20
 -33  28  -4    5.93    3.62
  28   5  -1   14.52    3.97
 -33  28  -1   16.10    4.78
  28   5   2   -2.85    3.50
 -33  28   5   19.22    4.97
 -34  28  -2   13.25    3.77
 -34  28   1   14.71    4.74
 -34  28   4    6.28    4.31
 -35  28   0    6.62    3.43
 -35  28   3    2.31    3.16
  29 -15  14    2.23    3.77
 -15  29 -14    1.93    4.35
  29 -14 -11   25.92    4.54
  29 -15  11   14.02    6.01
 -15  29 -11   12.52    6.62
  29 -14  -8   27.77    6.01
  29 -15   8   30.31    6.93
 -15  29  -8   26.96    8.05
  29 -14  -5  140.45   11.82
  29 -15   5  126.86   11.67
 -14  29   5  137.60   12.67
 -15  29  -5  161.78   12.36
  29 -15   2   10.21    6.55
  29 -14  -2    3.97    6.62
 -14  29   2    3.12    8.59
 -15  29  -2    6.85    8.40
  29 -15  -1  148.77   11.21
  29 -14   1  136.48   11.78
 -15  29   1  137.75   12.79
 -14  29  -1  129.44   12.71
  29 -14   4   -2.27    6.97
  29 -15  -4   15.17    5.82
 -15  29   4   -1.66    8.40
 -14  29  -4    5.04    7.93
  29 -15  -7    8.32    5.82
  29 -14   7    9.40    7.20
 -14  29  -7    9.24    8.01
  29 -15 -10   38.82    5.47
  29 -14  10   56.26    7.32
 -14  29 -10   46.48    7.70
  29 -14  13    7.89    4.93
 -14  29 -13    0.89    5.01
 -14  29 -16    1.96    2.46
  29 -16  15   10.98    4.31
  29 -16  12    1.50    4.89
  29 -13 -12    9.40    4.12
  29 -13  -9   19.76    5.97
  29 -16   9    9.74    6.12
  29 -16   9   11.21    8.59
 -16  29  -9    4.12    7.28
  29 -16   6   44.83    6.97
  29 -13  -6   40.59    7.28
  29 -16   6   52.22    9.90
 -16  29  -6   36.43    8.97
 -13  29   6   35.20    8.51
  29 -16   3   38.43    6.39
  29 -13  -3   39.63    7.66
  29 -13  -3   47.68    9.70
  29 -16   3   47.52   10.21
 -13  29   3   35.12    8.74
 -16  29  -3   29.61    9.20
  29 -13   0  237.88   15.94
  29 -16   0  221.52   15.94
  29 -16   0  187.20   14.02
  29 -13   0  210.31   14.90
 -13  29   0  198.22   15.44
 -16  29   0  205.84   15.83
  29 -16  -3    7.93    9.32
  29 -13   3   18.68    9.20
  29 -13   3    4.20    7.01
  29 -16  -3   12.71    5.55
 -16  29   3    7.89    8.97
 -16  29   3    7.09    9.32
 -13  29  -3    4.74    8.28
  29 -13   6   39.82    8.20
  29 -16  -6   40.05    6.28
  29 -13   6   45.21    9.59
 -13  29  -6   29.81    8.36
 -16  29   6   38.51    8.90
  29 -16  -9    5.04    4.24
  29 -13   9   -3.50    7.39
  29 -13   9   13.63    8.36
 -13  29  -9   10.63    7.43
  29 -13  12    9.74    6.01
  29 -13  12   13.09    6.89
 -13  29 -12   20.37    5.85
  29 -13  15   -6.39    3.31
  29 -13  15    5.93    4.31
 -13  29 -15    5.35    3.39
  29 -17  16    2.12    2.93
 -17  29 -16   -1.46    2.35
  29 -17  13    1.19    3.58
  29 -12 -13    7.16    3.62
  29 -12 -10   47.56    6.12
  29 -17  10   59.00    8.66
  29 -17   7   24.30    6.28
  29 -12  -7   25.84    7.09
  29 -17   7   28.61    9.40
  29 -17   4   23.88    5.85
  29 -12  -4   30.65    7.89
  29 -12  -4   28.23    8.93
  29 -17   4   40.63    9.63
 -12  29   4   30.62    7.97
 -17  29  -4   23.18    9.20
  29 -17   1  148.34   12.48
  29 -12  -1  156.82   12.40
  29 -12  -1  148.00   11.32
  29 -17   1  120.92   10.17
 -12  29   1  131.63   11.71
 -17  29  -1  129.71   12.48
  29 -12   2  137.95   11.94
  29 -17  -2  120.23   12.02
  29 -17  -2  108.56    9.32
  29 -12   2  108.22   10.94
 -17  29   2   96.35   11.90
 -17  29   2  111.80   12.25
 -12  29  -2  100.40   11.01
  29 -12   5   68.24    9.47
  29 -12   5   41.40    8.55
  29 -17  -5   43.29    6.28
 -17  29   5   50.95   10.98
 -17  29   5   44.06   10.17
 -12  29  -5   50.22    8.51
  29 -12   8   -0.31    7.82
  29 -12   8    4.51    8.63
 -12  29  -8    7.89    7.36
  29 -12  11    4.39    6.82
  29 -12  11    6.74    7.59
 -12  29 -11   16.33    6.35
  29 -12  14    6.93    4.31
  29 -12  14   -3.23    5.04
 -12  29 -14    2.97    4.04
  29 -11 -14   -0.12    3.00
 -18  29 -14   -1.85    3.70
  29 -11 -11   15.40    5.39
  29 -18  11    6.55    4.04
  29 -18  11    1.54    7.01
 -18  29 -11    7.89    6.20
  29 -18   8   -1.31    4.74
  29 -11  -8    1.66    6.97
  29 -18   8   -8.24    8.32
  29 -18   5   50.72    6.28
  29 -11  -5   55.46    8.59
  29 -18   5   51.37   10.01
 -11  29   5   50.80    8.28
  29 -11  -2   44.90    8.90
  29 -18   2   49.91    9.17
  29 -11  -2   43.59    8.24
  29 -18   2   35.58    5.51
 -18  29  -2   31.46    7.36
 -11  29   2   39.09    8.16
  29 -18  -1  412.88   26.61
  29 -11   1  437.87   26.73
  29 -11   1  411.07   26.30
 -18  29   1  373.67   26.73
 -11  29  -1  365.82   26.03
  29 -11   4  166.52   13.83
  29 -18  -4  163.17   13.44
  29 -11   4  161.98   13.52
 -18  29   4  113.38   14.60
 -18  29   4  158.40   14.36
 -11  29  -4  158.86   12.75
  29 -11   7   21.34    8.20
  29 -11   7   29.04    8.82
 -11  29  -7   21.22    7.86
  29 -11  10   17.33    7.24
  29 -11  10   10.44    7.55
 -11  29 -10    8.74    6.74
  29 -11  13   -1.77    5.31
  29 -11  13   -0.65    5.74
 -11  29 -13    5.31    4.78
  29 -19  15    0.62    3.58
 -19  29 -15   -1.23    2.77
  29 -10 -12    7.39    4.97
  29 -19  12   21.99    6.35
 -19  29 -12   17.41    5.35
  29 -10  -9   30.54    6.59
  29 -19   9   35.55    7.97
 -19  29  -9   20.99    7.32
  29 -10  -6   67.36    9.28
  29 -19   6   65.47   10.01
 -19  29  -6   69.90    9.74
  29 -10  -3   22.14    8.36
  29 -19   3   22.41    8.93
  29 -10  -3   14.29    8.32
 -19  29  -3    3.00    6.78
 -10  29   3   23.30    7.36
  29 -10   0  332.81   22.45
  29 -19   0  359.62   22.45
  29 -10   0  358.19   22.30
 -10  29   0  297.38   21.80
  29 -19  -3   75.98    9.55
  29 -10   3   70.86    9.24
  29 -10   3   73.90    9.44
 -10  29  -3   57.34    8.59
  29 -10   6   79.53    9.24
  29 -10   6   65.20    9.32
 -19  29   6   56.11   11.71
 -10  29  -6   58.84    8.28
 -19  29   6   58.54   10.21
  29 -10   9   -6.05    7.32
  29 -10   9   -7.66    7.63
 -10  29  -9    0.96    6.20
  29 -10  12    3.93    6.08
  29 -10  12   12.29    6.16
 -10  29 -12    1.27    5.04
  29 -10  15   -2.43    3.47
  29 -10  15    0.12    3.39
 -10  29 -15    5.66    2.81
  29  -9 -13    4.31    4.01
  29 -20  13    0.81    5.04
 -20  29 -13    3.23    4.16
  29  -9 -10    4.12    5.97
  29 -20  10    4.35    7.05
 -20  29 -10   -1.19    5.93
  29  -9  -7   50.10    9.05
  29 -20   7   40.63    8.78
 -20  29  -7   53.53    8.82
  29  -9  -4   -2.50    8.24
  29  -9  -4    5.47    7.59
  29 -20   4    5.93    8.16
 -20  29  -4    2.35    9.09
  -9  29   4    3.93    6.20
  29  -9  -1   68.74    9.36
  29 -20   1   65.01    9.51
  29  -9  -1   71.63    9.20
 -20  29  -1   48.29    9.28
  -9  29   1   63.47    7.82
  29 -20  -2   59.08    8.36
  29  -9   2   45.83    8.66
  29  -9   2   49.91    8.90
 -20  29   2   30.27   10.28
  -9  29  -2   30.15    7.43
  29  -9   5  219.94   16.29
  29  -9   5  227.06   16.37
 -20  29   5  210.39   17.79
  -9  29  -5  195.33   15.56
  29  -9   8    8.43    7.97
  29  -9   8    6.12    7.74
  -9  29  -8    4.12    6.47
  29  -9  11    4.78    6.59
  29  -9  11    6.70    6.28
  -9  29 -11    6.59    5.47
  29  -9  14    3.16    4.47
  29  -9  14    7.93    4.08
  -9  29 -14   -0.04    3.31
  29  -8 -14   -0.69    3.16
  29 -21  14   -0.92    3.70
 -21  29 -14    5.85    2.97
  29  -8 -11    6.55    5.28
  29 -21  11    9.20    5.66
 -21  29 -11   17.10    5.58
  29  -8  -8   11.21    7.70
  29 -21   8    8.70    7.28
 -21  29  -8    7.66    7.16
  29  -8  -5   63.31    9.44
  29 -21   5   49.18    8.59
 -21  29  -5   57.81    9.74
  29  -8  -2   82.49    9.01
  29 -21   2   77.29    9.44
  29  -8  -2   87.92   10.05
 -21  29  -2   58.84    9.70
  -8  29   2   70.90    8.05
 -21  29  -2   88.88   11.01
  29 -21  -1  144.07   11.71
  29  -8   1  140.64   11.44
  29  -8   1  132.82   12.25
 -21  29   1  110.83   13.09
 -21  29   1  136.02   13.32
  -8  29  -1  105.44   10.67
  29  -8   4  158.24   12.02
  29  -8   4  147.07   12.98
 -21  29   4  124.04   14.02
  -8  29  -4  128.36   11.25
  29  -8   7   71.59    8.55
  29  -8   7   75.56    9.67
 -21  29   7   62.04   11.36
  -8  29  -7   60.08    7.47
  29  -8  10   -2.04    6.89
  29  -8  10   10.63    6.39
  -8  29 -10   10.01    5.20
  29  -8  13    4.89    5.28
  29  -8  13    3.81    4.54
  -8  29 -13   11.01    3.58
  29  -7 -12   14.52    4.85
  29 -22  12   16.64    4.89
 -22  29 -12   19.22    4.35
  29  -7  -9   21.37    6.97
  29 -22   9   22.07    6.39
 -22  29  -9   21.76    6.70
  29  -7  -6   25.80    8.59
  29 -22   6   30.12    7.36
 -22  29  -6   42.63    8.59
  29  -7  -3  104.52    9.70
  29 -22   3  112.72   10.09
  29  -7  -3  119.62   10.74
 -22  29  -3   74.63    9.94
  -7  29   3   83.61    8.32
 -22  29  -3  105.44   11.17
  29  -7   0  119.46   10.71
  29 -22   0  130.48   10.59
  29  -7   0  146.07   11.25
 -22  29   0   81.10   12.05
 -22  29   0  115.03   12.36
  -7  29   0   96.78    9.47
  29 -22  -3    6.97    6.78
  29  -7   3  -12.55    6.85
  29  -7   3    7.66    8.66
 -22  29   3   -0.08    9.97
 -22  29   3   10.94    9.74
  -7  29  -3   -2.12    5.78
  29  -7   6  113.76   10.36
  29  -7   6  135.60   11.28
 -22  29   6   95.35   12.98
  -7  29  -6  106.98    9.51
  29  -7   9   -3.16    7.43
  29  -7   9    8.05    6.01
  -7  29  -9    9.05    5.01
  29  -7  12   17.52    5.74
  29  -7  12    7.78    4.66
  -7  29 -12    5.58    3.70
  29  -7  15    1.81    2.89
 -22  -7 -15    3.04    2.39
  29  -6 -13    1.62    3.74
  29 -23  13    9.01    3.20
 -23  29 -13    6.97    3.00
  29  -6 -10    8.16    5.93
  29 -23  10    4.04    5.08
 -23  29 -10    7.89    5.55
  29  -6  -7   14.87    8.09
  29 -23   7   16.75    6.20
 -23  29  -7   21.76    7.78
  29 -23   4   42.63    7.20
  29  -6  -4   44.10    9.09
 -23  29  -4   31.46    7.47
 -23  29  -4   51.41    9.36
  29  -6  -1  103.25    9.47
  29 -23   1   96.39    9.36
  29  -6  -1  102.36   10.82
 -23  29  -1   90.69   10.74
  -6  29   1   76.87    7.86
 -23  29  -1  109.87   11.40
  29 -23  -2   87.00    8.59
  29  -6   2   83.22    8.70
  29  -6   2   83.57   10.13
 -23  29   2   76.25   11.36
 -23  29   2   86.42   10.82
  -6  29  -2   69.78    7.43
  29  -6   5   72.48    7.89
  29  -6   5   75.56    9.78
 -23  29   5   77.95   11.28
 -23  -6  -5   52.80    7.09
  -6  29  -5   72.25    6.93
 -23  29   5   82.26   10.51
  29  -6   8   -2.93    5.47
  29  -6   8    6.08    7.82
 -23  29   8    0.81    9.13
  -6  29  -8    7.55    4.58
  29  -6  11   23.34    4.97
  -6  29 -11   17.14    3.70
 -23  -6 -14    2.97    3.12
  29  -5 -14    3.16    2.54
  29  -5 -11   24.92    5.12
  29 -24  11   17.10    4.12
 -24  29 -11   21.72    4.39
  29  -5  -8   29.15    7.43
  29 -24   8   22.49    5.24
 -24  29  -8   12.90    6.55
  29 -24   5   35.93    6.16
  29  -5  -5   43.90    8.13
 -24  29  -5   17.06    6.51
 -24  29  -5   32.70    8.36
  29 -24   2   59.81    7.24
  29  -5  -2   70.51    9.70
 -24  29  -2   76.33   10.63
  29 -24  -1   31.96    6.66
  29  -5   1   30.85    6.51
  29  -5   1   29.46    8.43
 -24  29   1   23.03    9.94
 -24  29   1   31.16    9.51
  29  -5   4   33.97    6.32
 -24  -5  -4   22.26    5.39
 -24  29   4   17.98    9.97
 -24  29   4   34.08    9.40
  29  -5   7   22.61    5.78
 -24  29   7   11.44    9.40
 -24  -5  -7   13.06    5.28
  -5  29  -7   15.83    4.04
  29  -5  10   17.75    4.58
 -24  -5 -13    4.27    3.62
  29  -4 -12   24.80    4.27
 -25  29 -12   15.64    2.97
  29  -4  -9   13.48    6.28
  29 -25   9   11.21    4.12
 -25  29  -9   19.45    5.01
  29  -4  -6   36.89    8.43
  29 -25   6   29.19    5.24
 -25  29  -6   26.53    7.32
  29 -25   3   -0.54    5.51
 -25  29  -3    2.31    7.24
 -25  29  -3    1.85    8.78
  29 -25   0   80.37    8.20
  29  -4   0   99.55    8.47
 -25  29   0   68.90   10.82
  29  -4   3   -7.86    5.51
 -25  29   3    2.20    9.24
 -25  29   3   15.06    8.93
  29  -4   6   60.73    6.28
 -25  29   6   74.94    9.97
  29  -4   9   11.86    4.16
 -25  -4  -9   14.10    4.97
  29  -4  12   19.18    5.08
 -25  -4 -12   24.88    4.24
  29  -3 -13   -6.01    2.77
 -26  29 -10    8.59    3.70
  29 -26   7    8.93    3.89
 -26  29  -7   13.94    5.82
  29 -26   4   48.49    5.66
 -26  29  -4   52.99    7.59
 -26  29  -4   61.19    8.78
  29 -26   1   75.67    7.51
 -26  29  -1   80.87    9.97
  29  -3   2   -2.70    4.66
 -26  29   2   13.52    8.78
 -26  29   2    7.28    8.13
  29  -3   5   35.24    5.20
 -26  -3  -5   33.66    5.28
 -26  29   5   34.85    9.28
  29  -3   5   53.11    7.86
  29  -3   8    0.58    3.50
  29  -3   8   -0.23    6.51
 -26  -3  -8    3.20    4.66
  29  -3  11   45.33    5.93
 -26  -3 -11   41.32    5.01
 -27  29  -8    3.50    4.39
 -27  29  -5   81.18    8.59
 -27  29  -5  115.30    9.13
  29 -27   2   12.71    4.16
  29  -2  -2   23.38    7.93
 -27  29  -2   18.60    7.32
 -27  29  -2   21.95    7.28
  29  -2   1   37.01    8.16
 -27  29   1   29.92    8.40
 -27  29   1   47.98    8.20
  29  -2   4    9.82    7.12
 -27  29   4    8.36    8.13
 -27  -2  -4    2.35    4.31
  29  -2   7   29.54    6.70
 -27  -2  -7   20.95    4.74
  29  -2  10   28.92    5.62
 -27  -2 -10   31.19    4.58
  29  -1 -12   -1.31    2.39
  29  -1  -9   13.67    4.70
 -28  29  -9    7.32    2.46
  29  -1  -6   54.49    7.05
 -28  29  -6   38.16    5.28
  29  -1  -3   -3.20    6.85
 -28  29  -3   -4.08    6.24
 -28  29  -3   -4.78    6.47
  29  -1   0  132.94   10.36
 -28  29   0  109.64   10.17
  29  -1   3   15.44    7.05
 -28  29   3   18.37    7.89
  29  -1   6   53.26    6.39
 -28  -1  -6   22.91    4.66
  29  -1   9   11.86    4.89
 -28  -1  -9    6.59    3.77
  29   0 -10   11.36    3.47
  29   0  -7   13.21    5.39
  29   0  -4   -1.27    6.16
 -29  29  -4   -5.93    5.39
 -29  29  -4    2.54    4.66
 -29  29  -1   58.15    8.40
 -29  29  -1   70.98    7.63
  29   0   2   14.67    6.59
 -29  29   2    9.13    7.20
  29   0   5   17.87    5.89
 -29   0  -5   13.75    3.89
  29   0   8    9.17    4.78
 -29  29   8   11.17    5.58
 -29   0  -8    3.77    3.58
  29   1  -8   -1.54    3.97
  29   1  -5   23.76    5.85
 -30  29  -5   13.17    4.16
  29   1  -2   15.87    6.35
 -30  29  -2   15.56    5.70
  29   1   1   62.08    7.36
 -30  29   1   49.14    7.47
  29   1   4   23.72    5.47
 -30  29   4   14.90    6.51
 -30   1  -4   14.21    3.35
  29   1   7    1.54    4.24
 -30  29   7   -0.58    5.43
 -30   1  -7    3.58    3.16
  29   2  -9    5.04    2.50
  29   2  -6   43.06    4.70
 -31  29  -6   19.95    3.27
  29   2  -3   -1.93    5.35
 -31  29  -3    0.96    4.62
  29   2   0   52.88    6.59
 -31  29   0   51.41    6.74
  29   2   3    4.58    4.89
 -31  29   3   -1.77    5.85
  29   2   6   18.02    4.12
 -31  29   6   16.60    5.43
 -31   2  -6    6.05    2.77
  29   3  -7   -0.50    2.62
  29   3  -4    8.70    4.16
 -32  29  -4    6.82    3.50
  29   3  -1   31.16    5.08
 -32  29  -1   23.49    5.08
  29   3   2   12.86    4.24
 -32  29   2    6.20    5.20
  29   3   5   29.96    4.01
  29   4  -2   25.07    3.70
 -33  29  -2   11.17    3.93
  29   4   1   16.21    3.50
 -33  29   1   13.56    4.58
 -34  29   0   32.97    4.43
  30 -15   0  273.27   18.68
 -15  30   0  256.64   19.60
  30 -15   3    1.42    6.51
  30 -15  -3   14.56    6.01
 -15  30   3   13.67    7.93
 -15  30  -3    9.09    7.82
  30 -15   6    7.74    6.28
  30 -15  -6   21.53    5.78
 -15  30  -6   17.79    7.47
 -15  30   6    8.97    8.01
  30 -15  -9   11.55    4.51
  30 -15   9    4.78    5.66
 -15  30  -9   13.67    6.66
  30 -15  12   -2.93    4.39
 -15  30 -12    7.93    4.78
 -15  30 -15    0.77    2.54
  30 -16  13   -2.62    3.12
 -16  30 -13   -2.31    4.12
  30 -14 -10   13.25    4.31
  30 -16  10   14.06    5.24
 -16  30 -10   15.83    6.32
  30 -16   7   33.31    6.70
  30 -14  -7   52.99    6.82
 -16  30  -7   47.52    8.05
  30 -16   4   73.29    7.51
  30 -14  -4   76.17    8.40
 -14  30   4   60.27    9.24
 -16  30  -4   62.54    9.44
  30 -14  -1   89.77    8.93
  30 -16   1   83.61    8.28
 -14  30   1   90.65   10.01
 -16  30  -1   86.88   10.28
  30 -16  -2   -0.73    5.66
  30 -14   2   10.51    6.39
 -16  30   2    8.55    8.82
 -14  30  -2    5.82    7.97
  30 -14   5   56.26    8.05
  30 -16  -5   72.79    7.16
 -16  30   5   58.46    9.67
 -14  30  -5   63.31    8.59
  30 -16  -8    2.43    4.16
  30 -14   8    2.62    6.51
  30 -14   8   16.21    8.01
 -14  30  -8    0.69    7.09
  30 -14  11   22.91    5.78
  30 -14  11   32.08    7.12
 -14  30 -11   32.43    5.97
  30 -14  14    5.58    2.93
  30 -14  14   -1.69    4.16
 -14  30 -14   -1.50    3.39
  30 -17  14    0.85    4.12
  30 -17  11    8.47    4.20
  30 -13 -11   21.95    4.35
  30 -17  11   23.99    6.78
  30 -17   8   21.68    5.62
  30 -13  -8   34.16    6.12
  30 -17   8   40.24    8.78
 -17  30  -8   25.34    7.12
  30 -17   5   19.72    5.82
  30 -13  -5   36.01    7.05
  30 -17   5   36.20    9.32
 -17  30  -5   19.22    8.32
 -13  30   5   30.46    7.55
  30 -13  -2   29.23    7.59
  30 -17   2   31.27    5.51
  30 -13  -2   40.67    8.90
  30 -17   2   24.11    9.36
 -13  30   2   30.54    8.24
 -17  30  -2   23.03    9.01
  30 -17  -1  123.66   11.86
  30 -17  -1  108.33    9.17
  30 -13   1  131.78   11.71
  30 -13   1  113.26   10.21
 -17  30   1  113.76   11.75
 -13  30  -1  111.14   10.86
  30 -13   4   53.45    7.97
  30 -17  -4   39.90    6.05
  30 -17  -4   59.50    9.01
  30 -13   4   46.48    9.40
 -17  30   4   57.77    9.28
 -13  30  -4   39.97    8.28
  30 -13   7    7.28    6.78
  30 -13   7    7.51    8.74
 -13  30  -7    4.54    6.85
  30 -13  10    6.28    5.97
  30 -13  10    7.74    7.01
 -13  30 -10   -0.62    6.16
  30 -13  13   -0.89    4.20
  30 -13  13    6.85    5.08
 -13  30 -13    0.85    4.01
  30 -18  15    1.58    2.81
 -18  30 -15    1.77    2.23
  30 -12 -12    6.70    3.50
  30 -18  12    1.85    5.78
  30 -18   9   23.80    4.85
  30 -12  -9   32.16    6.08
  30 -18   6   19.22    5.08
  30 -12  -6   21.22    6.70
  30 -18   6   29.88    8.82
  30 -12  -3   10.24    7.05
  30 -18   3   -5.93    4.81
  30 -12  -3   -2.85    8.36
  30 -18   3   -8.66    8.32
 -12  30   3    9.51    6.89
 -18  30  -3   -4.70    8.66
  30 -12   0  257.68   16.56
  30 -18   0  241.58   16.60
  30 -12   0  242.93   15.91
  30 -18   0  192.52   14.56
 -12  30   0  207.46   15.71
 -18  30   0  219.32   16.52
  30 -18  -3   19.76    8.28
  30 -12   3   22.95    8.51
  30 -12   3   18.60    7.59
 -18  30   3    7.89    9.28
 -18  30   3   25.03    8.90
 -12  30  -3   30.62    7.16
  30 -12   6   47.79    8.20
  30 -12   6   34.35    9.20
 -12  30  -6   42.29    7.63
 -18  30   6   37.55    8.70
  30 -12   9   12.94    6.59
  30 -12   9   18.45    7.43
 -12  30  -9   16.02    6.70
  30 -12  12   17.18    5.24
  30 -12  12   12.55    5.70
 -12  30 -12    8.28    4.78
  30 -12  15    3.85    2.73
  30 -11 -13    0.46    2.85
  30 -19  13   -1.08    4.66
 -19  30 -13    1.16    3.81
  30 -11 -10   28.38    5.24
  30 -19  10   20.26    7.16
 -19  30 -10   25.11    6.20
  30 -11  -7   14.29    6.82
  30 -19   7    7.97    7.74
  30 -11  -4   11.82    7.24
  30 -19   4   26.26    8.90
 -11  30   4   21.57    6.62
  30 -11  -1  115.65   10.40
  30 -19   1  118.15   11.13
  30 -11  -1  111.34   10.44
 -19  30  -1   79.68    9.94
 -11  30   1   88.04    9.86
  30 -19  -2   25.34    8.13
  30 -11   2   21.68    7.93
  30 -11   2   28.81    7.70
 -19  30   2   27.38    9.20
 -19  30   2   21.72    9.44
 -11  30  -2   22.22    7.36
  30 -11   5  114.49   10.24
  30 -11   5   98.74   10.32
 -19  30   5   67.32   12.02
 -19  30   5   95.20   10.74
 -11  30  -5   96.51    9.82
  30 -11   8    8.66    7.16
  30 -11   8   17.14    7.12
 -11  30  -8   14.75    6.43
  30 -11  11   -0.15    5.78
  30 -11  11    2.39    6.05
 -11  30 -11    6.39    5.35
  30 -11  14    8.97    3.39
  30 -11  14    4.62    3.58
 -11  30 -14    1.89    2.97
  30 -20  14   -1.73    3.35
 -20  30 -14    0.81    2.70
  30 -10 -11   14.29    4.54
  30 -20  11    5.04    5.82
 -20  30 -11   12.09    5.08
  30 -10  -8   24.45    6.59
  30 -20   8   20.76    7.32
 -20  30  -8   25.30    7.09
  30 -10  -5   49.79    8.59
  30 -20   5   52.88    8.66
 -20  30  -5   44.90    9.01
  30 -10  -2   71.01    8.51
  30 -20   2   67.39    8.74
  30 -10  -2   67.55    8.97
 -20  30  -2   36.05    7.86
 -10  30   2   44.17    7.51
  30 -20  -1  114.19   10.63
  30 -10   1  114.69   10.67
  30 -10   1  118.73   10.74
 -20  30   1   78.68   11.59
 -10  30  -1   98.86    9.94
  30 -10   4  181.27   13.29
  30 -10   4  166.71   13.52
 -20  30   4  142.57   14.87
 -10  30  -4  153.70   12.59
  30 -10   7   29.50    7.70
  30 -10   7   19.91    7.39
 -10  30  -7   28.23    6.78
  30 -10  10   14.17    6.51
  30 -10  10    8.32    6.20
 -10  30 -10    8.63    5.28
  30 -10  13    0.42    4.27
  30 -10  13    4.39    4.16
 -10  30 -13    0.92    3.43
  30  -9 -12   -6.43    4.01
  30 -21  12   -2.16    4.62
 -21  30 -12    8.82    4.04
  30  -9  -9   20.06    6.12
  30 -21   9   29.15    6.39
  30  -9  -6   73.52    8.90
  30 -21   6   75.52    9.24
 -21  30  -6   77.64    9.51
  30  -9  -3   37.82    7.82
  30 -21   3   32.12    7.86
  30  -9  -3   45.67    8.43
 -21  30  -3   25.03    7.09
 -21  30  -3   36.66    9.20
  -9  30   3   40.28    6.24
  30  -9   0   68.13    9.01
  30 -21   0   74.40    8.93
  30  -9   0   73.71    9.51
 -21  30   0   66.97    9.78
  -9  30   0   62.20    7.78
 -21  30   0   66.47   10.67
  30 -21  -3   10.63    7.12
  30  -9   3   21.53    7.43
  30  -9   3   20.80    7.78
 -21  30   3   18.33    9.63
  -9  30  -3   15.29    6.32
  30  -9   6  100.51    9.67
  30  -9   6   95.28   10.28
 -21  30   6   84.84   11.71
  -9  30  -6   94.12    8.90
  30  -9   9   11.48    7.05
  30  -9   9    8.16    6.20
  -9  30  -9    8.13    5.20
  30  -9  12    3.85    5.16
  30  -9  12   -3.16    4.51
  -9  30 -12    7.20    3.70
  30  -8 -13   -0.69    3.00
  30 -22  13    1.50    3.12
 -22  30 -13    6.01    2.77
  30  -8 -10   20.53    5.43
  30 -22  10   14.79    5.51
 -22  30 -10   29.35    5.31
  30  -8  -7   40.40    7.51
  30 -22   7   24.15    6.97
 -22  30  -7   48.06    7.70
  30  -8  -4    4.93    7.78
  30 -22   4    4.89    6.78
 -22  30  -4    6.43    8.09
  30  -8  -1   29.04    7.28
  30 -22   1   41.94    7.24
  30  -8  -1   40.67    8.20
 -22  30  -1   45.37    8.63
  -8  30   1   25.96    5.85
 -22  30  -1   41.32    9.59
  30 -22  -2   79.83    8.59
  30  -8   2   62.43    8.20
  30  -8   2   71.86    9.09
 -22  30   2   61.23   10.67
 -22  30   2   76.79   10.05
  -8  30  -2   60.04    7.39
  30  -8   5  100.78    8.82
  30  -8   5  116.19    9.86
 -22  30   5  106.75   11.32
  -8  30  -5   85.22    8.09
 -22  30   5  109.10   10.71
  30  -8   8    4.01    6.85
  30  -8   8    3.77    5.70
  -8  30  -8   -3.31    5.01
  30  -8  11    2.77    5.58
  30  -8  11   -1.46    4.81
  -8  30 -11    5.93    3.66
  30  -8  14   -4.39    2.97
 -22  -8 -14    4.24    2.50
  30  -7 -11   15.37    4.58
  30 -23  11   15.48    4.27
 -23  30 -11    7.09    4.04
  30  -7  -8   -2.89    6.28
  30 -23   8   -6.74    5.35
 -23  30  -8    1.89    6.20
  30  -7  -5   86.96    9.28
  30 -23   5   59.77    8.01
 -23  30  -5   79.72    9.20
  30  -7  -2   33.74    6.89
  30 -23   2   34.24    7.01
  30  -7  -2   46.37    8.66
 -23  30  -2   29.42    7.74
 -23  30  -2   44.06    9.44
  30 -23  -1  151.08   11.67
  30  -7   1  150.58   11.59
  30  -7   1  156.82   12.52
 -23  30   1  120.23   13.36
 -23  30   1  177.19   13.48
  -7  30  -1  119.50   10.63
  30  -7   4    4.51    6.28
  30  -7   4   17.75    7.82
 -23  30   4    2.08    9.36
  -7  30  -4   15.83    5.08
 -23  30   4   21.18    9.09
  30  -7   7    4.78    5.66
  30  -7   7    4.16    6.97
 -23  30   7    0.65    8.86
 -23  -7  -7   14.44    4.74
  -7  30  -7    9.67    4.58
  30  -7  10   23.84    6.01
  30  -7  10   16.83    4.93
  -7  30 -10    5.35    3.58
  30  -7  13    5.47    3.85
 -23  -7 -13    4.58    3.08
  30  -6 -12    2.23    3.62
 -24  30 -12   10.28    2.81
  30  -6  -9   10.71    5.78
  30 -24   9    1.50    4.35
 -24  30  -9    9.82    4.97
  30  -6  -6   50.06    8.01
  30 -24   6   44.02    6.12
 -24  30  -6   43.25    7.89
  30 -24   3    2.77    5.82
  30  -6  -3    4.39    7.70
 -24  30  -3   -0.12    6.59
 -24  30  -3    6.20    8.28
  30  -6   0   24.18    6.28
  30 -24   0   25.88    6.24
  30  -6   0   39.82    8.24
 -24  30   0   25.03    8.78
 -24  30   0   33.43    9.09
  30  -6   3   12.52    5.51
  30  -6   3    9.67    7.70
 -24  30   3   19.06    8.93
 -24  30   3   19.83    8.36
  30  -6   6   57.61    6.16
  30  -6   6   63.27    7.89
 -24  30   6   44.25    9.13
 -24  -6  -6   28.46    5.31
  -6  30  -6   37.09    4.85
  30  -6   9   13.90    4.62
  30  -6   9   13.29    6.08
 -24  -6  -9   12.17    4.47
 -24  -6 -12   19.22    3.70
  30  -5 -13   -0.08    2.23
  30  -5 -10    9.47    4.70
  30 -25  10    8.74    3.12
 -25  30 -10    9.94    3.77
  30  -5  -7    9.86    6.62
  30 -25   7    2.62    4.16
 -25  30  -7    3.97    5.85
  30 -25   4   14.17    5.01
  30  -5  -4   21.72    7.51
 -25  30  -4    7.74    6.16
 -25  30  -4   23.84    7.97
  30 -25   1   59.31    6.62
  30  -5  -1   58.73    8.90
 -25  30  -1   58.88    8.74
 -25  30  -1   52.91    9.55
  30  -5   2    0.89    5.12
 -25  30   2    5.47    8.63
 -25  30   2    8.74    8.51
  30  -5   5   57.27    6.05
 -25  -5  -5   41.75    5.24
 -25  30   5   41.05    9.17
  30  -5   8   -3.27    4.12
 -25  -5  -8    6.66    4.01
 -25  -5 -11    8.28    3.50
  30  -4 -11   16.10    3.66
 -26  30 -11    8.78    2.31
  30  -4  -8    6.66    5.39
  30 -26   8    1.96    3.08
 -26  30  -8    2.46    4.62
  30 -26   5   51.41    5.16
 -26  30  -5   67.47    7.66
  30 -26   2   13.98    4.74
 -26  30  -2    1.58    6.97
 -26  30  -2   15.52    8.16
  30  -4   1    7.47    4.70
 -26  30   1   11.51    8.13
 -26  30   1    9.09    8.32
  30  -4   4   15.02    4.58
 -26  30   4   19.10    8.28
  30  -4   7   12.75    3.70
 -26  -4  -7   13.29    3.97
 -26  30   7    9.94    7.24
  30  -4  10   33.93    5.55
 -26  -4 -10   33.00    4.20
  30  -3 -12    2.93    2.31
 -27  30  -9    1.85    3.04
 -27  30  -6   45.17    6.32
  30 -27   3   17.45    3.74
 -27  30  -3    4.78    6.05
 -27  30  -3    9.51    7.12
 -27  30   0   68.28    9.36
 -27  30   0   96.01    9.59
  30  -3   3   -0.08    3.58
 -27  30   3    0.19    7.47
  30  -3   6   24.80    6.20
 -27  30   6   13.56    7.20
 -27  -3  -6   14.98    3.77
  30  -3   9   10.05    5.04
 -27  -3  -9    6.85    3.43
 -28  30  -7   20.22    3.93
  30  -2  -4   46.87    7.36
 -28  30  -4   53.76    6.24
  30  -2  -1   62.81    7.55
 -28  30  -1   53.07    7.43
  30  -2   2    4.16    6.35
 -28  30   2   -6.05    7.09
 -28  30   5   14.40    6.97
 -28  -2  -5   11.32    3.39
  30  -2   8   12.32    4.89
 -28  -2  -8    9.55    3.20
  30  -2  11    3.81    2.89
  30  -1  -8    1.00    4.04
  30  -1  -5   25.65    5.93
 -29  30  -5   20.56    4.01
  30  -1  -2   25.99    6.47
 -29  30  -2   14.83    5.66
 -29  30  -2   16.75    5.28
 -29  30   1   34.27    7.24
  30  -1   1   55.49    7.05
 -29  30   4   15.87    6.39
  30  -1   4    4.81    5.55
 -29  -1  -7    1.85    2.77
  30  -1   7    8.63    4.70
  30  -1  10   -0.35    2.93
  30   0  -9    4.27    2.70
  30   0  -6   29.96    4.85
 -30  30  -3   -7.20    4.58
  30   0  -3    7.05    5.47
  30   0   0  100.40    7.70
 -30  30   0   56.65    7.66
  30   0   3   -2.46    5.12
 -30  30   3    0.39    5.78
  30   0   6   27.19    4.81
  30   0   9    7.70    2.97
  30   1  -7   10.86    3.16
  30   1  -4    5.93    4.47
 -31  30  -4    4.62    3.31
  30   1  -1   61.85    6.05
 -31  30  -1   40.32    5.85
  30   1   2   13.44    4.81
 -31  30   2   17.29    5.43
  30   1   5   43.48    5.08
  30   2  -5   27.54    3.66
  30   2  -2    9.55    4.12
 -32  30  -2    4.85    3.77
  30   2   1   32.46    4.51
 -32  30   1   24.76    4.93
  30   2   4   26.11    3.93
  30   3  -3    4.35    2.58
  30   3   0   18.79    3.35
 -33  30   0   19.10    3.85
 -33  30   3    9.97    3.77
 -34  30   2    3.39    2.93
 -16  31 -14   -2.50    2.54
  31 -16  11   11.63    3.89
 -16  31 -11   24.15    5.01
  31 -16   8    2.04    4.93
  31 -15  -8    3.35    4.08
 -16  31  -8    5.20    6.05
  31 -16   5    3.77    5.47
  31 -15  -5   25.38    5.47
 -16  31  -5   21.37    7.09
 -15  31   5    4.12    7.39
  31 -15  -2   26.19    6.05
  31 -16   2   13.86    5.47
 -15  31   2   26.38    7.70
 -16  31  -2   15.40    7.63
  31 -16  -1   58.04    7.01
  31 -15   1   69.09    7.66
 -16  31   1   58.88    8.86
 -15  31  -1   66.59    9.28
  31 -15   4   19.68    5.93
  31 -16  -4   14.48    5.31
 -16  31   4   14.25    7.82
 -15  31  -4    1.96    7.55
  31 -15   7   19.18    5.78
  31 -16  -7   11.55    4.31
 -15  31  -7   16.06    6.55
  31 -15  10   28.04    5.28
 -15  31 -10   30.65    5.85
 -15  31 -13    2.66    3.39
  31 -17  12    5.43    5.01
 -17  31 -12    4.85    4.24
  31 -14  -9   17.10    4.39
  31 -17   9   15.02    4.39
  31 -17   9   21.84    7.20
 -17  31  -9   16.48    6.12
  31 -17   6   10.63    5.01
  31 -14  -6   17.75    5.93
  31 -17   6   30.35    8.43
 -17  31  -6   26.23    7.28
  31 -14  -3   33.00    6.59
  31 -17   3   26.11    5.39
  31 -14  -3   26.11    8.28
  31 -17   3   46.64    8.63
 -14  31   3   32.27    7.47
 -17  31  -3   19.10    8.16
  31 -14   0  160.86   12.36
  31 -17   0  147.69   11.44
  31 -14   0  175.03   13.25
  31 -17   0  172.34   13.29
 -14  31   0  135.17   12.63
 -17  31   0  135.40   12.86
  31 -17  -3    1.27    5.01
  31 -14   3   -3.31    6.55
  31 -17  -3    1.12    8.05
  31 -14   3   -3.77    7.97
 -17  31   3    1.73    7.51
 -14  31  -3    5.70    6.82
  31 -14   6   23.03    6.51
  31 -14   6   12.59    7.97
 -14  31  -6   23.49    7.20
  31 -14   9   -1.19    5.51
  31 -14   9    3.08    6.78
 -14  31  -9    2.81    5.85
  31 -14  12    5.12    3.70
  31 -14  12    9.47    4.93
 -14  31 -12    4.01    4.08
  31 -18  13    1.16    4.01
  31 -13 -10   23.76    4.31
  31 -18  10   25.46    6.51
  31 -18   7    1.39    4.16
  31 -13  -7    0.81    5.47
  31 -18   7    2.58    7.24
  31 -13  -4   23.88    6.78
  31 -18   4   21.87    4.66
  31 -18   4   21.64    8.47
 -18  31  -4   22.26    7.66
 -13  31   4   20.80    6.97
  31 -18   1  114.03    9.74
  31 -13  -1  146.92   11.13
  31 -13  -1  142.34   12.02
  31 -18   1  157.97   12.21
 -13  31   1  123.00   11.48
 -18  31  -1  125.93   12.13
  31 -13   2   38.43    7.55
  31 -18  -2   54.80    8.47
  31 -13   2   48.95    8.66
 -18  31   2   43.56    8.55
 -13  31  -2   41.82    7.47
  31 -13   5   63.50    7.86
  31 -13   5   65.20    9.01
 -13  31  -5   63.27    8.20
 -18  31   5   56.34    8.97
  31 -13   8    9.13    6.08
  31 -13   8   14.13    7.09
 -13  31  -8    5.78    6.28
  31 -13  11   15.33    4.81
  31 -13  11   21.03    5.55
 -13  31 -11   12.82    4.89
  31 -13  14    3.00    2.85
  31 -19  14    2.35    2.73
 -19  31 -14    0.46    2.20
  31 -12 -11   22.84    3.97
  31 -19  11   27.77    5.74
  31 -12  -8   17.98    5.58
  31 -19   8   24.07    7.24
  31 -12  -5   38.82    7.39
  31 -19   5   43.90    8.55
  31 -12  -2   67.82    8.47
  31 -12  -2   67.32    8.55
  31 -19   2   65.58    9.36
 -12  31   2   54.34    8.05
  31 -19  -1  206.03   13.32
  31 -12   1  182.93   13.32
  31 -12   1  164.71   12.98
 -19  31   1  116.50   13.17
 -19  31   1  152.39   13.79
 -12  31  -1  138.56   12.71
  31 -12   4   94.31    9.44
  31 -12   4  105.37    9.97
 -19  31   4   81.91   10.40
 -12  31  -4   76.71    9.05
  31 -12   7   31.42    6.78
  31 -12   7   17.98    7.36
 -12  31  -7   22.07    6.47
  31 -12  10    2.77    5.28
  31 -12  10   -0.50    5.74
 -12  31 -10    1.04    4.85
  31 -12  13    0.27    3.00
  31 -12  13    0.54    3.54
 -12  31 -13    3.31    3.00
  31 -11 -12    8.32    2.85
  31 -20  12    5.01    4.27
 -20  31 -12    1.50    3.54
  31 -11  -9   18.14    4.93
  31 -20   9   23.18    6.28
 -20  31  -9   14.52    5.62
  31 -11  -6   27.11    6.85
  31 -20   6   26.61    7.32
  31 -11  -3   12.13    7.20
  31 -11  -3   17.37    6.85
  31 -20   3   23.99    7.43
 -11  31   3    9.28    6.16
  31 -11   0  117.69   10.40
  31 -20   0  133.33   10.55
  31 -11   0  129.24   10.44
 -11  31   0   99.63    9.70
  31 -20  -3   43.06    7.93
  31 -11   3   38.09    7.82
  31 -11   3   34.78    7.63
 -20  31   3   40.86    9.36
 -11  31  -3   25.07    6.97
  31 -11   6   43.86    7.51
  31 -11   6   39.90    7.24
 -11  31  -6   42.17    6.62
  31 -11   9    4.47    5.82
  31 -11   9    4.01    5.74
 -11  31  -9    2.58    5.24
  31 -11  12   14.44    4.27
  31 -11  12   16.75    4.31
 -11  31 -12   11.32    3.58
  31 -21  13    5.62    3.00
 -21  31 -13    8.97    2.58
  31 -10 -10   26.15    4.74
  31 -21  10   35.01    5.55
 -21  31 -10   28.42    5.08
  31 -10  -7   37.32    6.62
  31 -21   7   23.68    7.05
 -21  31  -7   30.12    6.89
  31 -10  -4   19.02    7.43
  31 -21   4   19.99    6.89
 -21  31  -4   21.10    8.01
  31 -10  -1   91.62    8.93
  31 -21   1   90.27    9.24
  31 -10  -1   81.68    9.13
 -21  31  -1   57.61    9.01
 -10  31   1   75.60    8.05
  31 -21  -2   17.95    7.36
  31 -10   2   23.38    7.28
  31 -10   2   10.86    7.28
 -21  31   2   21.64    8.51
 -10  31  -2   12.05    6.08
  31 -10   5   80.26    8.82
  31 -10   5   94.93    8.93
 -10  31  -5   74.29    7.82
  31 -10   8   -1.73    6.24
  31 -10   8    2.46    5.82
 -10  31  -8    4.24    4.97
  31 -10  11   14.63    5.01
  31 -10  11   19.72    4.66
 -10  31 -11    6.85    3.70
  31  -9 -11   11.51    3.81
  31 -22  11    4.58    3.97
 -22  31 -11    9.05    3.66
  31  -9  -8   15.21    5.70
  31 -22   8    9.20    5.58
 -22  31  -8    6.51    5.39
  31  -9  -5   14.90    6.89
  31 -22   5    7.20    6.51
 -22  31  -5    1.12    7.05
  31  -9  -2   45.52    7.05
  31 -22   2   44.25    7.12
  31  -9  -2   43.90    7.89
 -22  31  -2   26.80    7.05
 -22  31  -2   40.28    8.90
  -9  31   2   26.46    5.74
  31 -22  -1   92.50    8.86
  31  -9   1   83.84    8.74
  31  -9   1   93.66    9.24
 -22  31   1   59.81   10.01
 -22  31   1   93.35   10.28
  -9  31  -1   74.44    7.82
  31  -9   4   48.64    6.89
  31  -9   4   29.27    7.74
 -22  31   4   23.49    9.13
  -9  31  -4   34.47    5.85
  31  -9   7   10.98    5.97
  31  -9   7   13.67    6.43
 -22  -9  -7   -3.43    3.77
  -9  31  -7   11.82    4.78
  31  -9  10    7.24    5.39
  31  -9  10    5.66    4.70
  -9  31 -10   17.06    3.74
  31  -9  13   -0.92    2.81
  31  -8 -12    9.44    2.93
 -23  31 -12   14.98    2.77
  31  -8  -9   13.52    4.93
  31 -23   9    1.08    4.47
 -23  31  -9   12.63    4.93
  31  -8  -6   37.74    7.20
  31 -23   6   36.24    6.20
 -23  31  -6   41.36    7.28
  31 -23   3   44.48    6.70
  31  -8  -3   38.24    7.63
 -23  31  -3   24.30    6.39
 -23  31  -3   43.29    8.13
  31  -8   0   78.68    8.13
  31 -23   0   76.48    8.13
  31  -8   0   93.39    8.90
 -23  31   0   62.46    9.44
  -8  31   0   58.65    6.74
 -23  31   0   95.39    9.86
  31  -8   3    6.32    5.97
  31  -8   3   14.33    6.70
 -23  31   3   -3.54    8.66
 -23  31   3   -1.85    8.01
  -8  31  -3    0.39    4.66
  31  -8   6   21.99    5.70
  31  -8   6   30.77    6.59
 -23  31   6   28.42    8.40
 -23  -8  -6    7.16    3.77
  -8  31  -6   24.30    4.62
  31  -8   9   11.94    4.58
  31  -8   9    9.44    5.58
 -23  -8  -9    1.89    3.50
  -8  31  -9   11.05    3.47
  31  -8  12   -2.35    3.54
 -23  -8 -12   -2.85    2.58
  31  -7 -10   26.30    4.51
  31 -24  10   21.68    3.74
 -24  31 -10   24.07    4.01
  31  -7  -7   12.13    5.97
  31 -24   7    3.93    4.62
 -24  31  -7   -3.12    5.89
  31  -7  -4    5.28    7.12
  31 -24   4    3.81    5.35
 -24  31  -4   -0.96    7.12
  31 -24   1    0.92    5.51
  31  -7  -1    7.86    7.39
 -24  31  -1   -0.81    7.20
 -24  31  -1    3.54    7.74
  31  -7   2   42.67    6.01
  31  -7   2   30.81    7.28
 -24  31   2   25.92    8.63
 -24  31   2   49.37    8.90
  31  -7   5   33.62    5.55
  31  -7   5   34.04    7.01
 -24  31   5   14.40    8.16
  -7  31  -5   20.53    4.08
  31  -7   8   18.37    4.58
  31  -7   8   13.86    5.85
 -24  -7  -8    5.24    3.58
  31  -7  11   16.17    4.24
 -24  -7 -11    2.70    2.85
  31  -6 -11   12.17    3.31
 -25  31 -11   14.44    2.54
  31  -6  -8    7.09    5.12
  31 -25   8    5.74    3.47
 -25  31  -8    5.35    4.78
  31  -6  -5   45.67    7.28
  31 -25   5   39.13    5.39
 -25  31  -5   36.51    7.05
  31 -25   2    2.58    4.74
  31  -6  -2    5.20    6.93
 -25  31  -2   10.86    6.43
 -25  31  -2    8.47    7.55
  31  -6   1   29.65    5.35
  31  -6   1   39.90    7.51
 -25  31   1   21.95    7.97
 -25  31   1   45.13    8.28
  31  -6   4   20.64    5.01
 -25  31   4   18.72    7.89
  31  -6   4   27.84    6.89
  31  -6   7    0.73    4.08
  31  -6   7    7.12    5.82
 -25  -6  -7   -0.96    3.23
 -25  -6 -10   -1.66    2.81
  31  -5  -9    2.39    4.16
 -26  31  -9    6.01    3.39
  31  -5  -6   18.10    5.89
  31 -26   6   15.91    3.66
 -26  31  -6   25.53    5.62
  31 -26   3   21.18    4.47
  31  -5  -3   31.66    6.89
 -26  31  -3   22.41    5.58
 -26  31  -3   24.38    7.05
  31  -5   0   17.21    6.85
 -26  31   0   35.05    7.28
 -26  31   0   39.13    7.86
  31  -5   3   -2.81    4.01
 -26  31   3   -2.27    7.24
  31  -5   6   12.29    3.66
 -26  31   6   18.29    6.66
 -26  -5  -9    2.66    2.77
  31  -4 -10   15.40    3.27
  31  -4  -7    8.82    4.93
 -27  31  -7    7.09    4.04
  31 -27   4   37.47    3.97
 -27  31  -4   21.45    4.89
 -27  31  -1   51.14    7.32
 -27  31  -1   63.58    8.13
 -27  31   2    8.66    7.05
 -27  31   2    0.77    6.85
 -27  31   5   23.65    6.93
 -27  -4  -8   13.79    2.73
  31  -4  11    3.97    2.73
 -28  31  -5   73.63    6.66
 -28  31  -2   22.57    5.43
 -28  31  -2   23.45    6.08
 -28  31   1   15.64    6.12
  31  -3   4   31.19    5.85
 -28  31   4   23.07    6.55
  31  -3   7   32.73    5.20
  31  -3  10    8.43    3.00
  31  -2  -6   23.41    4.58
 -29  31  -6   16.75    2.97
  31  -2  -3    8.43    5.39
 -29  31  -3    1.19    4.04
 -29  31  -3    0.54    4.31
 -29  31   0   40.78    6.66
  31  -2   0   68.59    6.74
 -29  31   3    6.78    5.70
  31  -2   3    5.04    5.20
 -29  31   6    8.74    5.20
  31  -2   6    2.66    4.39
  31  -2   9   12.02    3.20
  31  -1  -7    3.27    3.12
 -30  31  -4    0.96    2.89
  31  -1  -4   12.25    4.51
  31  -1  -1   84.80    6.59
 -30  31  -1   37.89    6.05
  31  -1   2   27.23    5.01
 -30  31   2   11.40    5.39
  31  -1   5   23.65    4.58
 -30  31   5   20.53    5.16
  31  -1   8    6.12    2.89
  31   0  -5    5.97    3.31
  31   0  -2   43.29    4.89
 -31  31  -2   22.99    4.12
  31   0   1   51.37    5.24
 -31  31   1   28.73    5.08
  31   0   4    3.81    3.77
 -31  31   4   14.67    4.39
  31   1  -3   -2.12    3.16
  31   1   0   32.23    4.04
 -32  31   0   19.26    4.01
  31   1   3   11.59    3.12
 -32  31   3    6.28    3.66
 -33  31   2    4.78    2.85
  32 -16   0   61.27    6.82
 -16  32   0   63.70    8.16
  32 -16  -3   10.01    5.08
  32 -16   3   10.17    5.20
 -16  32   3    9.51    6.93
 -16  32  -3    9.51    7.05
  32 -16  -6    9.01    3.97
  32 -16   6   10.78    4.58
 -16  32  -6    8.70    6.47
  32 -16   9   18.56    4.16
 -16  32  -9   26.88    5.28
 -16  32 -12   10.63    3.39
  32 -17  13    4.97    3.00
 -17  32 -13    2.23    2.43
  32 -17  10   10.63    2.89
 -17  32 -10   23.34    4.70
  32 -15  -7    0.69    3.93
  32 -17   7    8.63    4.08
 -17  32  -7    3.39    5.93
  32 -15  -4   16.71    5.51
  32 -17   4   21.60    4.62
 -17  32  -4   10.67    7.09
 -15  32   4   15.44    6.62
  32 -15  -1  133.25   10.32
  32 -17   1  123.08    9.86
 -15  32   1  131.71   10.98
 -17  32  -1  121.96   11.21
  32 -17  -2   29.61    5.12
  32 -15   2   31.66    5.93
 -17  32   2   27.57    7.59
 -15  32  -2   23.99    7.24
  32 -15   5   20.33    5.82
  32 -15   5   22.34    7.51
 -15  32  -5   29.19    6.47
  32 -15   8    3.70    4.58
  32 -15   8   -9.78    6.39
 -15  32  -8    0.69    5.62
  32 -15  11    2.23    3.08
  32 -15  11   12.98    4.81
 -15  32 -11   17.37    3.81
  32 -18  11    7.89    4.54
  32 -14  -8    9.78    3.97
  32 -18   8   11.75    6.20
 -18  32  -8    9.59    5.39
  32 -14  -5   31.69    5.70
  32 -18   5   26.15    4.47
  32 -18   5   33.43    7.89
 -18  32  -5   36.05    6.97
  32 -14  -2   47.41    6.97
  32 -18   2   35.20    5.16
  32 -14  -2   67.36    8.47
  32 -18   2   56.15    8.32
 -14  32   2   43.63    7.12
 -18  32  -2   50.37    7.89
  32 -14   1   49.18    7.20
  32 -18  -1   58.65    8.55
  32 -14   1   59.77    8.55
 -18  32   1   49.41    8.51
 -14  32  -1   46.21    7.47
  32 -14   4   18.45    6.32
  32 -14   4   39.24    7.55
 -14  32  -4   30.96    7.09
 -18  32   4   33.93    7.47
  32 -14   7   13.71    5.16
  32 -14   7    6.82    6.47
 -14  32  -7   21.41    5.70
  32 -14  10    4.24    4.01
  32 -14  10    5.74    5.16
 -14  32 -10    8.01    4.47
  32 -14  13    4.78    2.70
  32 -19  12    9.36    3.70
  32 -13  -9   18.14    3.81
  32 -19   9   15.64    5.74
  32 -13  -6   14.02    5.43
  32 -19   6   16.68    7.20
  32 -13  -3   -3.08    6.08
  32 -19   3    8.28    7.63
 -19  32  -3   11.82    7.39
 -13  32   3    2.12    6.05
  32 -13   0   63.16    7.78
  32 -13   0   54.69    8.66
  32 -19   0   74.40    8.74
 -13  32   0   56.77    7.63
 -19  32   0   58.19    8.32
  32 -13   3   11.98    6.20
  32 -13   3   10.32    7.24
 -19  32   3    6.97    7.47
 -13  32  -3    7.63    6.39
  32 -13   6   21.80    5.93
  32 -13   6   24.34    6.70
 -13  32  -6   20.37    5.89
  32 -13   9   -0.73    4.74
  32 -13   9    0.69    5.55
 -13  32  -9    0.46    4.62
  32 -13  12    0.04    2.66
  32 -13  12    6.59    3.50
 -13  32 -12    1.50    2.85
  32 -12 -10    7.86    3.23
  32 -20  10    3.12    4.81
 -20  32 -10    8.93    4.16
  32 -12  -7    1.73    4.81
  32 -20   7    7.97    6.39
  32 -12  -4   31.50    6.70
  32 -20   4   30.54    7.51
  32 -12  -1   55.22    7.43
  32 -12  -1   59.65    7.74
  32 -20   1   58.19    8.28
 -12  32   1   46.14    6.89
  32 -12   2   14.83    6.24
  32 -20  -2   11.86    7.28
  32 -12   2   14.06    7.16
 -20  32   2   31.42    7.51
 -12  32  -2   18.72    6.16
  32 -12   5   37.66    6.70
  32 -12   5   34.51    6.89
 -12  32  -5   36.43    6.47
  32 -12   8    3.31    5.20
  32 -12   8   11.48    5.58
 -12  32  -8    4.04    4.85
  32 -12  11    1.81    3.66
  32 -12  11    2.85    4.04
 -12  32 -11    1.42    3.27
  32 -11 -11    5.04    2.54
  32 -21  11    6.32    3.70
 -21  32 -11    3.16    3.31
  32 -11  -8   12.75    4.62
  32 -21   8    2.08    5.51
 -21  32  -8    9.86    5.20
  32 -11  -5   53.53    6.89
  32 -21   5   44.67    7.20
  32 -11  -2    6.39    6.35
  32 -11  -2   -5.20    6.24
  32 -21   2   16.10    6.89
 -11  32   2    5.70    5.20
  32 -21  -1   48.49    7.32
  32 -11   1   42.32    7.09
  32 -11   1   39.36    7.32
 -21  32   1   25.73    7.51
 -11  32  -1   37.82    6.24
  32 -11   4   17.52    6.51
  32 -11   4   26.92    6.47
 -11  32  -4   29.58    5.89
  32 -11   7   24.99    5.89
  32 -11   7   34.47    5.85
 -11  32  -7   26.50    5.24
  32 -11  10    4.20    4.43
  32 -11  10   -1.50    4.24
 -21 -11 -10    0.50    2.46
 -11  32 -10    0.96    3.50
 -22  32 -12   10.55    2.43
  32 -10  -9   17.83    4.27
  32 -22   9   22.03    4.62
 -22  32  -9   14.13    4.62
  32 -10  -6   11.59    5.89
  32 -22   6   11.09    5.51
 -22  32  -6   16.44    6.16
  32 -10  -3    8.74    6.28
  32 -22   3    8.86    6.05
 -22  32  -3   -1.39    6.78
  32 -10   0   89.11    8.16
  32 -22   0   94.58    8.59
  32 -10   0   96.97    8.74
 -22  32   0   56.07    8.51
 -10  32   0   65.28    7.20
  32 -10   3   -1.31    5.74
  32 -10   3    2.39    6.47
 -22  32   3   11.01    7.74
 -10  32  -3    0.77    4.81
  32 -10   6   50.87    6.74
  32 -10   6   38.36    6.32
 -10  32  -6   35.01    5.47
  32 -10   9   -3.23    4.27
  32 -10   9    6.70    4.70
 -22 -10  -9    0.23    2.46
 -10  32  -9    1.89    3.47
  32 -10  12   -1.00    2.66
  32  -9 -10    4.27    3.27
  32 -23  10    7.28    3.35
 -23  32 -10    7.39    3.43
  32  -9  -7   28.88    5.58
  32 -23   7   32.93    5.24
 -23  32  -7   22.72    5.39
  32  -9  -4   18.64    6.70
  32 -23   4   14.90    5.74
 -23  32  -4   14.06    6.85
  32 -23   1   39.09    6.24
  32  -9  -1   35.39    7.28
 -23  32  -1   27.57    6.62
 -23  32  -1   33.89    7.82
  -9  32   1   33.58    4.66
  32  -9   2   25.80    5.78
  32  -9   2   37.70    6.74
 -23  32   2   21.68    7.78
 -23  32   2   30.00    7.59
  -9  32  -2   30.85    4.74
  32  -9   5   32.89    6.59
  32  -9   5   34.78    5.82
  -9  32  -5   37.05    4.85
  32  -9   8    9.86    5.20
  32  -9   8    9.90    4.47
  -9  32  -8    8.32    3.31
  32  -9  11    4.81    3.31
  32  -8 -11   15.60    2.70
 -24  32 -11   17.68    2.58
  32  -8  -8    0.73    4.43
  32 -24   8    1.93    3.81
 -24  32  -8    0.89    4.43
  32  -8  -5   24.49    6.24
  32 -24   5   17.48    4.93
 -24  32  -5   21.14    6.05
  32 -24   2    3.77    5.16
  32  -8  -2    3.00    6.62
 -24  32  -2   -0.42    5.31
 -24  32  -2    2.89    7.01
  32  -8   1   73.32    7.20
  32  -8   1   75.21    7.97
 -24  32   1   65.70    8.51
 -24  32   1   64.74    9.01
  32  -8   4   27.11    5.28
 -24  32   4   22.95    7.74
  32  -8   4   35.01    6.20
  32  -8   7    9.59    5.31
  32  -8   7   10.44    4.24
  32  -8  10   29.19    4.35
  32  -7  -9    3.66    3.54
 -25  32  -9    9.44    3.23
  32  -7  -6   24.38    5.55
  32 -25   6   20.06    4.08
 -25  32  -6   20.22    5.20
  32  -7  -3    2.85    6.08
  32 -25   3    4.66    4.16
 -25  32  -3   10.28    6.43
  32  -7   0   40.32    6.82
 -25  32   0   32.27    7.05
 -25  32   0   47.83    7.47
  32  -7   3    6.59    4.62
  32  -7   3    5.04    6.08
 -25  32   3   25.30    7.01
 -25  32   3   23.26    6.82
  32  -7   6   26.84    5.66
  32  -7   6   26.46    4.31
  32  -7   9    7.20    4.27
  32  -6 -10    5.35    2.66
  32  -6  -7    7.01    4.51
  32 -26   7   10.40    2.62
 -26  32  -7    8.63    3.93
  32  -6  -4   24.26    5.93
  32 -26   4   13.67    3.77
 -26  32  -4   23.72    5.97
  32  -6  -1    6.85    6.05
 -26  32  -1    7.89    5.58
 -26  32  -1    7.66    6.70
  32  -6   2    5.01    5.62
 -26  32   2    0.65    6.39
 -26  32   2    4.01    6.28
  32  -6   5   34.74    4.27
  32  -6   5   41.28    5.85
 -26  32   5   34.51    6.74
  32  -6   8   24.07    4.62
  32  -5  -8    4.97    3.39
 -27  32  -8    4.27    2.58
  32  -5  -5   23.53    5.28
 -27  32  -5   15.75    4.70
  32  -5  -2   12.48    5.70
 -27  32  -2    7.74    4.66
 -27  32  -2   24.26    5.93
 -27  32   1   -8.24    5.74
 -27  32   1    9.24    6.24
 -27  32   4   20.64    6.08
  32  -4  -9    5.51    2.39
 -28  32  -6   15.13    3.31
 -28  32  -3    7.36    3.47
 -28  32  -3   14.10    4.74
 -28  32   0   20.18    5.16
 -28  32   0   18.14    5.39
 -28  32   3    8.16    5.51
  32  -4   9    2.20    2.85
 -29  32  -4   25.96    3.77
 -29  32  -1    8.82    4.16
  32  -3   2   -4.31    4.70
 -29  32   2   13.94    4.74
  32  -3   5    9.44    4.20
 -29  32   5    2.62    4.47
  32  -3   8    4.78    2.81
  32  -2  -5   37.01    4.24
  32  -2  -2    4.08    4.24
 -30  32  -2    1.58    3.08
  32  -2   1   27.30    4.54
 -30  32   1   17.21    4.47
  32  -2   4   13.13    3.97
 -30  32   4   11.63    4.08
  32  -1  -3   -4.24    3.31
  32  -1   0   34.39    4.24
 -31  32   0   20.41    3.70
  32  -1   3    6.47    3.39
 -31  32   3    6.93    3.43
  32   0  -1   30.50    3.62
  32   0   2   21.07    3.12
 -32  32   2   17.98    3.16
 -17  33 -11   20.87    3.39
  33 -17   8   22.95    3.20
 -17  33  -8   25.73    5.04
  33 -16  -5    6.82    3.54
  33 -17   5    1.73    3.81
 -17  33  -5   -3.27    5.85
  33 -16  -2   28.65    5.08
  33 -17   2   34.01    4.81
 -16  33   2   25.88    6.55
 -17  33  -2   30.62    6.62
  33 -17  -1   40.13    4.89
  33 -16   1   34.39    5.31
 -17  33   1   32.08    7.05
 -16  33  -1   34.51    7.01
  33 -16   4   -1.39    4.39
 -16  33  -4    5.62    5.97
 -17  33   4   -0.04    5.97
  33 -16   7    1.08    3.77
 -16  33  -7   10.74    4.97
 -16  33 -10   18.60    3.81
  33 -18  12    2.20    2.70
 -18  33 -12    4.74    2.23
  33 -18   9   15.71    5.04
 -18  33  -9   18.22    4.35
  33 -15  -6   -2.93    3.58
  33 -18   6   -5.78    6.28
 -18  33  -6    4.58    5.31
  33 -15  -3   19.49    5.04
  33 -18   3   24.96    6.97
 -18  33  -3   21.03    6.47
 -15  33   3   22.18    5.97
  33 -15   0   94.93    8.24
  33 -18   0   98.70    9.44
  33 -15   0  104.33    9.44
 -15  33   0   73.71    8.74
 -18  33   0   86.53    9.13
  33 -15   3    6.32    4.78
  33 -15   3    7.01    6.32
 -18  33   3   10.32    6.20
 -15  33  -3   -3.85    6.20
  33 -15   6   19.10    4.54
  33 -15   6   24.42    6.24
 -15  33  -6   24.26    5.78
  33 -15   9    1.66    3.16
  33 -15   9    2.16    4.81
 -15  33  -9    9.90    4.20
  33 -15  12    6.28    2.66
  33 -19  10   -0.04    4.12
  33 -14  -7    3.04    3.50
  33 -19   7   -1.04    5.58
 -19  33  -7    1.00    5.08
  33 -14  -4   22.49    5.31
  33 -19   4   29.69    7.01
 -19  33  -4   23.53    6.51
  33 -14  -1   66.05    7.01
  33 -14  -1   63.77    8.09
  33 -19   1   78.14    8.13
 -14  33   1   53.41    7.28
 -19  33  -1   51.53    8.01
  33 -14   2   10.13    5.55
  33 -14   2   12.44    6.62
 -19  33   2    4.43    6.59
 -14  33  -2   13.56    5.97
  33 -14   5   23.30    5.39
  33 -14   5   30.92    6.43
 -14  33  -5   32.70    5.93
  33 -14   8   11.21    4.01
  33 -14   8   -0.27    5.12
 -14  33  -8   -1.69    4.58
  33 -14  11    6.24    3.35
 -14  33 -11    9.67    2.81
  33 -20  11   10.36    3.12
  33 -13  -8   13.86    3.39
  33 -20   8   19.33    5.12
  33 -13  -5   56.61    6.08
  33 -20   5   48.60    7.12
  33 -13  -2   33.62    6.20
  33 -20   2   45.10    7.01
 -20  33  -2   28.11    6.97
 -13  33   2   31.62    5.70
  33 -13   1   24.96    5.89
  33 -20  -1   26.03    6.62
  33 -13   1   16.75    6.35
 -20  33   1   22.95    6.74
 -13  33  -1   14.25    5.55
  33 -13   4   22.57    5.55
  33 -13   4   20.95    6.20
 -13  33  -4   20.64    5.66
 -20  33   4   17.52    6.47
  33 -13   7   16.71    4.70
  33 -13   7   23.18    5.47
 -13  33  -7   24.03    4.89
  33 -13  10    5.85    3.00
  33 -13  10    4.51    3.74
 -13  33 -10   10.86    3.20
  33 -12  -9    6.43    2.81
  33 -21   9    8.97    4.16
 -21  33  -9    4.74    3.77
  33 -12  -6   18.45    4.85
  33 -21   6   21.45    5.70
  33 -12  -3   -3.08    5.62
  33 -21   3    1.42    6.12
  33 -12   0   46.41    6.82
  33 -12   0   50.45    6.74
  33 -21   0   52.99    7.24
 -12  33   0   41.67    6.16
  33 -12   3    4.89    5.58
  33 -12   3    3.93    5.93
 -12  33  -3    1.77    4.93
 -21  33   3    1.89    5.93
  33 -12   6   29.73    5.31
  33 -12   6   32.43    5.66
 -12  33  -6   27.73    5.01
  33 -12   9    3.35    3.74
  33 -12   9   10.51    4.16
 -12  33  -9    2.08    3.27
  33 -22  10   16.41    3.23
 -22  33 -10    5.35    3.04
  33 -11  -7    3.39    4.01
  33 -22   7    7.55    4.58
 -22  33  -7    2.97    4.66
  33 -11  -4   13.29    5.55
  33 -22   4   14.56    5.58
 -22  33  -4    3.08    5.85
  33 -11  -1   79.22    7.59
  33 -22   1   79.79    7.59
 -11  33   1   58.88    6.32
  33 -11   2    3.54    5.66
  33 -11   2   10.51    5.51
 -11  33  -2   15.94    4.62
  33 -11   5   24.30    5.51
  33 -11   5   24.72    5.31
 -11  33  -5   21.64    4.47
  33 -11   8   -1.16    4.16
  33 -11   8    1.12    4.04
 -11  33  -8    4.47    3.27
  33 -10  -8    1.77    3.39
  33 -23   8    1.62    3.66
 -23  33  -8   -0.62    3.93
  33 -10  -5   12.63    5.08
  33 -23   5   13.71    4.74
 -23  33  -5   18.64    5.43
  33 -10  -2   41.67    6.32
  33 -23   2   29.00    5.58
 -23  33  -2   33.24    6.74
  33 -10   1   49.53    6.55
  33 -10   1   32.81    5.93
 -10  33  -1   40.28    4.70
  33 -10   4    4.62    5.31
  33 -10   4    3.47    4.85
 -10  33  -4    4.04    3.70
  33 -10   7    4.04    4.47
  33 -10   7    4.85    4.04
 -10  33  -7   -1.42    2.85
  33 -10  10    9.51    3.00
  33  -9  -9    2.20    2.73
 -24  33  -9    5.28    2.93
  33  -9  -6   18.72    4.58
  33 -24   6   15.60    4.01
 -24  33  -6   17.06    4.85
  33  -9  -3   25.61    5.78
  33 -24   3   19.95    4.54
 -24  33  -3   10.09    5.97
  33  -9   0   31.85    6.05
 -24  33   0   27.84    6.74
  33  -9   3   -1.58    5.47
  33  -9   3    4.08    4.47
  33  -9   6    7.82    4.78
  33  -9   6    6.20    3.85
  33  -9   9   21.10    3.81
  33  -8  -7    8.51    3.85
  33 -25   7    3.31    2.77
 -25  33  -7    7.63    3.54
  33  -8  -4   22.30    5.39
  33 -25   4   11.09    3.81
 -25  33  -4   19.49    5.43
  33  -8  -1    3.81    5.51
 -25  33  -1   -1.73    4.47
 -25  33  -1    1.39    5.89
  33  -8   2    9.90    3.97
  33  -8   2    5.47    5.39
 -25  33   2    2.89    5.51
 -25  33   2   -2.04    5.82
  33  -8   5   13.63    4.97
  33  -8   5   14.71    3.70
  33  -8   8   -0.35    3.66
  33  -7  -8    4.78    2.89
 -26  33  -8   -0.77    2.50
  33  -7  -5   15.02    4.62
  33 -26   5    8.47    2.77
 -26  33  -5   15.64    4.31
  33  -7  -2   -3.70    5.01
 -26  33  -2    8.59    5.28
  33  -7   1   42.63    6.01
 -26  33   1   48.52    6.32
  33  -7   4   13.40    4.85
  33  -7   7   26.42    4.39
  33  -6  -6   11.09    3.70
 -27  33  -6    9.94    3.20
  33  -6  -3   10.78    4.93
 -27  33  -3   20.06    4.66
  33  -6   0   32.50    5.31
 -27  33   0   19.76    4.74
 -27  33   0   37.01    5.66
  33  -6   3   15.71    4.78
 -27  33   3    7.12    4.93
  33  -6   6   24.38    4.35
  33  -5  -7    7.12    2.70
  33  -5  -4   17.60    4.27
 -28  33  -4   20.41    3.74
  33  -5  -1   20.60    4.81
 -28  33  -1    8.01    3.54
 -28  33  -1   20.33    4.47
 -28  33   2   -0.85    4.24
 -29  33   1    8.47    3.66
  33  -3   0   39.78    4.62
  33  -3   3    1.93    3.20
  33  -2  -1   23.30    3.35
  33  -2   2   13.98    3.04
 -17  34   0   72.21    7.28
  34 -17   3   17.60    3.74
 -17  34  -3   30.08    5.74
 -17  34   3   27.57    5.31
 -17  34  -6   12.44    4.47
 -17  34  -9   11.55    3.43
  34 -18  10   12.44    3.35
 -18  34 -10   15.94    2.89
  34 -18   7    6.28    4.89
 -18  34  -7    9.20    4.12
 -18  34  -4    7.89    5.35
  34 -16  -1   54.26    5.51
  34 -16  -1   57.73    7.01
  34 -18   1   57.11    7.16
 -16  34   1   57.15    6.66
 -18  34  -1   50.83    6.89
  34 -16   2   13.94    4.12
  34 -16   2   13.71    5.82
 -18  34   2   23.41    5.66
 -16  34  -2   11.90    5.28
  34 -16   5   10.59    3.54
  34 -16   5    1.89    5.39
 -16  34  -5   16.79    5.04
  34 -16   8   -2.27    4.35
 -16  34  -8   -1.42    3.62
  34 -19   8   14.13    4.51
 -19  34  -8   13.32    3.74
  34 -15  -5   18.14    3.39
  34 -19   5   25.57    5.62
 -19  34  -5   20.68    5.12
  34 -15  -2   54.72    5.62
  34 -19   2   55.49    7.09
 -19  34  -2   52.03    6.74
 -15  34   2   47.18    6.12
  34 -15   1   17.60    4.54
  34 -15   1   14.94    5.85
 -19  34   1   21.07    6.01
 -15  34  -1   17.95    5.12
  34 -15   4   10.05    4.12
  34 -15   4    9.78    5.35
 -15  34  -4    4.66    4.81
  34 -15   7    5.31    3.12
  34 -15   7   14.71    4.70
 -15  34  -7   12.36    4.08
  34 -15  10    9.78    2.97
  34 -20   9    4.74    3.47
  34 -14  -6   16.52    3.31
 -20  34  -6   24.96    4.85
  34 -14  -3    0.35    4.31
  34 -20   3    9.47    5.47
 -20  34  -3   -3.12    5.31
  34 -14   0    8.24    4.70
  34 -14   0   12.67    5.62
  34 -20   0   12.44    6.05
 -14  34   0   10.71    4.81
 -20  34   0   12.25    5.66
  34 -14   3   10.59    4.58
  34 -14   3   13.44    5.35
 -14  34  -3   14.67    4.81
 -20  34   3    3.39    5.51
  34 -14   6   19.10    3.97
  34 -14   6   24.42    4.97
 -14  34  -6   18.14    4.35
  34 -14   9   10.78    3.43
 -14  34  -9    7.01    2.77
  34 -13  -7   -0.62    2.62
  34 -21   7    6.43    4.20
  34 -13  -4   19.29    4.35
  34 -21   4   17.60    5.43
  34 -13  -1   27.65    5.24
  34 -21   1   34.35    5.82
 -21  34  -1   28.42    6.01
 -13  34   1   18.95    4.62
  34 -13   2   11.90    4.81
  34 -13   2   10.47    5.12
 -13  34  -2    4.85    4.51
 -21  34   2   12.02    5.51
  34 -13   5   12.63    4.39
  34 -13   5   21.07    4.89
 -13  34  -5   10.71    4.12
  34 -13   8   11.09    3.12
  34 -13   8    6.24    3.70
 -13  34  -8    7.66    3.00
  34 -22   8    6.24    3.31
 -22  34  -8    6.05    3.27
  34 -12  -5   31.58    4.54
  34 -22   5   33.04    5.16
  34 -12  -2   22.84    5.04
  34 -22   2   24.11    5.28
  34 -12   1   23.88    5.31
  34 -12   1   27.77    5.24
 -12  34  -1   26.46    4.27
  34 -12   4   -4.47    4.39
  34 -12   4    0.73    4.47
 -12  34  -4    0.85    3.66
  34 -12   7   15.48    3.77
  34 -12   7   16.64    3.89
 -12  34  -7   14.06    2.93
 -23  34  -9   -2.46    2.39
  34 -11  -6   18.10    3.66
  34 -23   6   15.10    3.85
 -23  34  -6   10.21    4.12
  34 -11  -3   -5.43    4.66
  34 -23   3    1.96    4.39
 -23  34  -3   -5.74    5.16
  34 -11   0   26.03    5.31
  34 -11   3    8.82    4.78
  34 -11   3    4.81    4.27
 -11  34  -3    4.54    3.04
  34 -11   6   18.95    4.24
  34 -11   6   24.22    4.01
  34 -10  -7   -0.27    2.81
  34 -24   7   -3.00    2.73
 -24  34  -7    4.35    3.12
  34 -10  -4   16.02    4.47
  34 -24   4   18.52    4.04
 -24  34  -4   15.33    4.78
  34 -10  -1   11.75    4.81
 -24  34  -1   11.90    5.39
  34 -10   2   16.06    4.81
 -24  34   2    8.66    5.16
  34 -10   5    6.35    4.12
  34 -10   5   -1.04    3.54
  34 -10   8   18.41    3.20
 -25  34  -8    0.62    2.16
  34  -9  -5   10.21    3.85
  34 -25   5   13.44    3.04
 -25  34  -5   14.71    3.89
  34  -9  -2    0.39    4.47
 -25  34  -2   10.40    4.89
  34  -9   1   31.35    5.04
 -25  34   1   24.88    5.47
  34  -9   4   20.95    4.51
  34  -9   4   21.41    3.50
  34  -9   7    9.70    3.39
  34  -8  -6    9.63    3.00
 -26  34  -6    4.39    2.93
  34  -8  -3   11.17    4.27
 -26  34  -3   12.40    4.20
  34  -8   0   54.07    5.58
 -26  34   0   40.82    5.66
  34  -8   3   16.79    4.43
  34  -8   6   -1.00    3.39
  34  -7  -4   13.56    3.62
 -27  34  -4   11.44    3.35
  34  -7  -1   20.49    4.43
 -27  34  -1   20.45    4.31
  34  -7   2   10.09    4.04
  34  -7   5   22.57    3.77
  34  -6  -5    8.74    2.70
  34  -6  -2    9.90    3.81
  34  -6   1   12.79    3.89
  34  -6   4   36.39    4.24
  34  -5  -3    9.40    2.97
 -18  35  -8    4.70    2.77
 -18  35  -5   17.95    4.12
 -18  35  -2   18.87    4.66
 -17  35  -1   33.81    5.01
 -18  35   1   31.62    5.01
 -17  35  -4    8.59    3.97
 -17  35  -7    7.86    3.23
  35 -19   6    8.13    4.12
 -19  35  -6   11.32    3.66
  35 -19   3    3.00    4.78
 -19  35  -3   -0.08    4.31
  35 -16   0   18.45    3.27
 -16  35   0   24.92    4.51
 -19  35   0   26.96    5.08
  35 -16   3    5.04    2.73
  35 -16   3    9.86    4.70
 -16  35  -3    2.62    4.20
  35 -16   6   33.50    4.39
 -16  35  -6   21.03    3.97
  35 -20   7    5.24    3.47
 -20  35  -7    8.47    3.16
  35 -20   4   11.51    4.66
 -20  35  -4   11.05    4.24
  35 -15  -1   21.87    3.81
  35 -20   1   28.54    5.28
 -20  35  -1   35.08    5.08
  35 -15   2   -2.00    3.31
  35 -15   2   -5.51    4.62
 -15  35  -2    1.16    4.04
 -20  35   2    1.04    4.39
  35 -15   5    8.90    2.77
 -15  35  -5   11.32    3.66
  35 -15   8   14.83    3.04
  35 -21   8   -0.15    2.62
  35 -21   5   54.11    5.24
 -21  35  -5   38.24    4.85
  35 -14  -2   12.13    3.47
  35 -21   2    9.24    4.62
 -21  35  -2    8.43    4.62
  35 -14   1    3.70    3.62
 -21  35   1    7.89    4.58
 -14  35  -1    5.47    3.62
  35 -14   4   12.55    3.27
  35 -14   4   19.76    4.27
 -14  35  -4   10.98    3.47
  35 -14   7   42.17    4.27
  35 -22   6   17.14    3.58
  35 -13  -3   -4.39    3.31
  35 -22   3   -4.93    4.08
  35 -13   0   12.75    3.93
 -22  35   0   12.09    4.74
  35 -13   3    4.70    3.47
  35 -13   3    5.55    3.97
 -13  35  -3   -2.43    2.89
  35 -13   6   33.39    3.89
  35 -13   6   49.37    4.31
 -23  35  -7    0.19    2.54
  35 -12  -4   11.09    3.16
  35 -23   4   15.06    3.74
  35 -12  -1   32.35    4.54
  35 -12   2    5.39    3.85
  35 -12   5   33.43    4.08
  35 -12   5   42.40    4.20
  35 -11  -5   15.13    2.89
  35 -24   5   21.80    3.12
 -24  35  -5   26.57    3.43
  35 -11  -2   10.67    3.89
 -24  35  -2   16.10    4.16
  35 -11   1    5.24    3.74
  35 -11   4   16.94    3.66
 -25  35  -6    7.20    2.35
  35 -10  -3    9.20    3.39
 -25  35  -3   15.29    3.58
  35 -10   0   -2.23    3.77
 -25  35   0    1.50    3.89
  35 -10   3   17.25    3.70
  35  -9  -4   21.45    3.00
 -26  35  -4   17.06    3.04
  35  -9  -1   16.14    3.54
 -26  35  -1    4.70    3.54
  35  -9   2    3.66    3.35
  35  -9   5   13.36    2.85
  35  -8  -2    3.77    2.97
  35  -8   1    0.73    3.16
  35  -8   4   32.66    3.58
  35  -7   0    4.89    2.77
 -18  36   0   49.83    4.85
 -18  36  -3    4.27    3.27
  36 -19   4    3.62    3.54
 -19  36  -4    8.59    3.20
 -19  36  -1   36.24    4.35
 -17  36  -2   10.44    3.35
  36 -17   5   21.26    3.50
 -17  36  -5   16.44    2.93
  36 -20   5   10.71    3.27
 -20  36  -5    8.13    2.89
 -20  36  -2   19.41    3.77
 -16  36  -1    9.24    3.04
  36 -16   4   17.29    3.47
 -16  36  -4    7.66    2.85
  36 -21   6   12.09    2.58
 -21  36  -6    6.70    2.46
 -21  36  -3    2.35    3.12
 -21  36   0   21.49    3.89
  36 -15   6   23.80    3.00
 -22  36  -4    7.97    3.00
 -22  36  -1   21.95    3.70
  36 -14   5   20.99    2.97
 -24  36  -3   -4.93    2.66
   0   0   0    0.00    0.00

_computing_structure_solution     'SHELXT 2014/5 (Sheldrick, 2014)'
;
_shelx_hkl_checksum              87990
_shelx_fab_file
;
    0    0    3     18.86     -0.35
    0    0    6    233.81     -4.58
    0    0    9     31.84     -0.75
    0    0   12     33.79     -0.28
    0    0   15      6.11     -2.43
    0    0   18      0.61     -0.26
    0    0   24      3.29     -0.43
    0    1   23      2.02     -0.39
    0    1   17     -0.04     -0.84
    0    1   14     -7.30     -0.08
    0    1   11     -1.38      2.31
    0    1    8    -26.44     -1.92
    0    1    5    -14.16      0.66
    0    1    2    181.60      0.41
   -1    1    4    -17.39     -0.58
   -1    1    7    -12.45     -5.11
   -1    1   10      7.05     -0.65
   -1    1   13     -2.49      0.83
   -1    1   16     -1.68     -0.78
   -1    1   22      0.43     -0.46
   -1    1   25      0.35      0.17
   -1    2    3   -186.90    177.99
   -1    2    6    -28.36     36.47
   -1    2    9    -35.65     31.10
   -1    2   12     -2.21     15.45
   -1    2   15     -5.10     -3.51
   -1    2   18      3.17     -3.60
   -1    2   24      0.12     -2.48
   -1    2   21     -1.48     -1.81
    0    2   25     -0.71     -0.05
    0    2   22      1.50      0.54
    0    2   19     -0.13      0.10
    0    2   16      5.68      0.23
    0    2   13     14.51      4.94
    0    2   10    -12.53      2.40
    0    2    7     99.69      3.15
    0    2    4     -1.04     -3.04
   -2    2    2   -167.77      0.00
   -2    2    5     -5.25     -6.09
   -2    2    8     21.10     -1.41
   -2    2   11     10.60      0.29
   -2    2   14      3.53      2.28
   -2    2   17      4.81     -0.12
   -2    2   23     -3.96     -0.23
   -1    3   23     -1.43     -1.83
   -1    3   20      3.45      1.57
   -1    3   17      1.67     -4.95
   -1    3   14      2.41      3.43
   -1    3   11      4.98      1.54
   -1    3    8    -13.98      0.59
   -1    3    5    -25.51     16.84
   -1    3    2   -104.97     -4.05
   -2    3    1    -18.31     -0.63
   -2    3    4   -112.12    -62.26
   -2    3    7    -41.20     10.32
   -2    3   10    -14.76      3.39
   -2    3   13     -3.77      2.06
   -2    3   16     -3.00     -6.16
   -2    3   22     -3.12     -0.44
   -2    3   25     -0.32      2.49
   -2    4    0     87.42   -299.50
   -2    4    3     86.21     28.60
   -2    4    6     14.12    -51.06
   -2    4    9    -16.10     -8.80
   -2    4   12      7.89     -6.33
   -2    4   15      0.20      5.29
   -2    4   18      0.92     -0.50
   -2    4   21      5.15      1.80
   -2    4   24      1.73      1.47
   -2    3   19      1.24     -2.78
    0    3   24     -6.23      0.08
    0    3   21     -0.70      0.29
    0    3   18     -1.17      0.21
    0    3   15     -0.93      0.48
    0    3   12      0.36     -0.91
    0    3    9    -10.49     -5.01
    0    3    6     40.37      0.91
    0    3    3   -109.27     -1.02
   -3    3    3    214.51     -1.87
   -3    3    6     75.28     -3.04
   -3    3    9     34.16     -0.83
   -3    3   12     10.11     -0.60
   -3    3   15      5.56     -0.95
   -3    3   18      0.94     -0.24
   -3    3   21     -5.80     -0.57
   -3    3   24      1.34      0.92
   -1    4   25      1.39     -2.80
   -1    4   22     -1.39     -1.81
   -1    4   19      2.54      3.00
   -1    4   16      1.00      5.08
   -1    4   13     -0.89      4.71
   -1    4   10     -4.36      4.90
   -1    4    7     35.65     32.11
   -1    4    4    -72.26     49.40
   -3    4    2     13.91   -115.20
   -3    4    5     78.61     11.11
   -3    4    8      3.76     14.94
   -3    4   11      4.73      7.93
   -3    4   14     -7.18      0.75
   -3    4   17      1.92      0.15
   -3    4   23      3.24      3.89
   -2    5   23     -1.42     -0.90
   -2    5   20      0.46     -6.66
   -2    5   17     -2.13      3.55
   -2    5   14     -4.76      1.62
   -2    5   11    -12.14     -1.17
   -2    5    8    -25.29    -19.80
   -2    5    5    -15.13    -36.95
   -3    5    1   -206.50    -39.87
   -3    5    7     14.78    -29.13
   -3    5   10     14.89     -5.99
   -3    5   13      0.96     -1.61
   -3    5   16      1.30      4.47
   -3    5   22      1.77      3.29
   -3    5   25      1.92      0.96
   -3    6    0     41.30    209.07
   -3    6    3    -32.20     70.62
   -3    6    6      8.11     23.48
   -3    6    9     -0.58     32.91
   -3    6   12      0.69     11.41
   -3    6   15      1.27      2.32
   -3    6   21     -2.04     -2.36
   -3    6   24      0.54     -1.25
   -1    4    1     94.66     53.71
   -3    4   20     -5.22      2.93
    0    4   23     -0.17      0.00
    0    4   20     -2.57     -0.41
    0    4   17      2.61     -0.38
    0    4   14     -4.56     -0.04
    0    4   11     13.86     -5.70
    0    4    8     42.75     -0.36
    0    4    5     76.27     -1.20
   -4    4    1     44.68      0.32
   -4    4    4    139.03     -0.33
   -4    4    7     19.27      0.57
   -4    4   10      1.51     -1.00
   -4    4   13      4.13     -0.09
   -4    4   16     -0.10     -0.97
   -4    4   19     -6.47      0.63
   -4    4   22     -0.73     -0.06
   -4    4   25     -4.18      0.03
   -1    5   24      1.07     -1.13
   -1    5   21     -0.05     -4.72
   -1    5   15     -7.16     -4.84
   -1    5   12     10.90     -4.20
   -1    5    9     -1.73     -2.12
   -1    5    6      3.30    -47.19
   -1    5    3     55.16      7.23
   -1    5    0      8.04    -75.59
   -4    5    3    -55.10    -60.88
   -4    5    6    -60.31    -39.76
   -4    5    9     -4.50      5.29
   -4    5   12     -3.27      6.29
   -4    5   15     -6.95      0.61
   -4    5   18      0.49      3.55
   -4    5   21     -1.94      0.76
   -4    5   24     -3.03      3.09
   -2    6   25     -1.15     -1.59
   -2    6   22     -0.36     -1.39
   -2    6   19      0.67     -5.99
   -2    6   16     -0.45     -0.41
   -2    6   13      4.13      5.30
   -2    6   10    -12.22     -6.09
   -2    6    7      1.92    -19.17
   -2    6    4     74.06     83.92
   -4    6    2    -67.31      0.22
   -4    6    5     13.59     -0.45
   -4    6    8    -14.29     24.51
   -4    6   11     -2.08      5.87
   -4    6   14      4.47     -1.87
   -4    6   17     -1.34      0.85
   -4    6   20      4.11     -1.36
   -4    6   23      0.97      2.37
   -3    7   23     -2.45      1.86
   -3    7   20      0.29     -1.01
   -3    7   17      0.09      0.26
   -3    7   14     -0.62     -3.57
   -3    7   11      9.33     -7.03
   -3    7    8     -5.93     -2.98
   -3    7    5    -28.98     37.54
   -4    7    1    -19.87     19.85
   -4    7    7     -7.02     12.95
   -4    7   10     12.91      8.40
   -4    7   13     -2.91      0.09
   -4    7   16     -2.30     -1.66
   -4    7   19     -3.62     -1.54
   -4    7   22      4.11      0.28
   -4    7   25      0.46      1.15
   -4    8    0    -50.28   -174.04
   -4    8    3    -38.78    -59.18
   -4    8    6     11.81    -28.58
   -4    8    9      1.25    -15.92
   -4    8   12     -3.64     -3.76
   -4    8   15      0.83     -7.09
   -4    8   18      0.63      4.25
   -4    8   21     -2.50      0.19
   -4    8   24      0.93      0.93
   -2    5    2    105.98    -59.17
   -3    5    4     76.01   -140.62
   -3    5   19      1.72     -1.42
   -1    5   18      4.62     -3.60
    0    5   25      0.75     -0.04
    0    5   22      0.70      0.01
    0    5   19     -0.68      0.27
    0    5   16     -2.72      0.00
    0    5   13      0.64     -0.45
    0    5   10     -8.45     -0.10
    0    5    7      3.36      0.42
    0    5    4    -41.78      1.79
   -5    5    2     -9.43      0.13
   -5    5    5    -71.84      0.58
   -5    5    8    -22.06     -1.38
   -5    5   11      5.15     -0.52
   -5    5   14     -3.00     -2.34
   -5    5   17      4.29      0.49
   -5    5   20     -5.36      0.16
   -5    5   23     -0.28     -1.90
   -1    6   23     -0.63     -0.48
   -1    6   20      0.56     -0.44
   -1    6   17      4.05      0.26
   -1    6   14     -0.67      6.36
   -1    6   11      5.35      4.09
   -1    6    8     -0.33     23.50
   -1    6    5    -20.93    -19.13
   -5    6    1     -0.29     84.80
   -5    6    4     23.47     73.11
   -5    6    7    -78.46     49.19
   -5    6   10      0.56     18.86
   -5    6   13      0.39      1.40
   -5    6   16      0.92      1.08
   -5    6   19      0.52     -0.57
   -5    6   22      0.82     -0.09
   -5    6   25     -2.55      0.13
   -2    7   24     -1.44      3.37
   -2    7   21     -0.30      3.09
   -2    7   18      2.91     -2.74
   -2    7   15     -5.56      4.50
   -2    7   12      3.82     -3.64
   -2    7    9      2.22      1.57
   -2    7    6     15.50     30.36
   -2    7    3      2.09    -23.86
   -2    7    0    -21.54     52.77
   -5    7    3    167.23    -42.62
   -5    7    6     25.98     10.54
   -5    7    9     27.67     -3.55
   -5    7   12      6.54     -3.76
   -5    7   15      6.80     -6.41
   -5    7   18      3.99     -2.45
   -5    7   21     -2.45     -1.38
   -5    7   24      4.74      1.21
   -3    8   25     -0.74      1.24
   -3    8   22     -2.41      4.55
   -3    8   19     -0.26     -0.70
   -3    8   16      0.93      0.79
   -3    8   13      6.57      1.74
   -3    8   10      4.07     -0.02
   -3    8    7    -14.00     42.23
   -3    8    4     51.34     31.37
   -3    8    1     10.10    -29.96
   -5    8    2    -65.06      2.37
   -5    8    5     68.26    -25.14
   -5    8    8      7.03     10.20
   -5    8   11      0.86      0.85
   -5    8   14      0.08      0.96
   -5    8   17     -0.15      1.30
   -5    8   20     -2.47     -2.35
   -5    8   23      3.72     -0.88
   -4    9   23     -1.46      2.19
   -4    9   20     -1.35     -0.08
   -4    9   17      2.44      0.06
   -4    9   14     -1.76      2.15
   -4    9   11      0.33     -9.57
   -4    9    8      4.28      1.92
   -4    9    5     51.90      1.97
   -4    9    2    -39.47    -39.63
   -5    9    1    -22.70     46.27
   -5    9    4     -9.72    -77.22
   -5    9    7     -6.08    -25.95
   -5    9   10      4.67    -13.49
   -5    9   13     -7.80      1.51
   -5    9   16      0.48      1.26
   -5    9   19     -0.38      1.82
   -5    9   22     -0.49     -2.55
   -5    9   25     -3.23     -3.61
   -5   10    0     45.65     12.45
   -5   10    3    -17.31     53.04
   -5   10    6     -1.37    -18.67
   -5   10    9      8.48      6.23
   -5   10   12     -5.95     -1.20
   -5   10   15     -0.71      0.22
   -5   10   18     -4.23      1.08
   -5   10   21      2.09     -0.97
   -5   10   24      1.59     -1.20
   -3    6   18     -2.39      0.21
   -2    6    1    -60.13    -74.88
   -1    6    2     67.31    130.13
    0    6   24      0.54      0.09
    0    6   21      2.73     -0.06
    0    6   18     -1.55     -0.42
    0    6   15      0.97      0.13
    0    6   12      5.38      0.25
    0    6    9    -22.96     -0.16
    0    6    6     19.90     -0.14
    0    6    3    -56.13     -0.37
    0    6    0    -47.28     -0.31
   -6    6    3   -107.66      1.14
   -6    6    6    -44.26      0.67
   -6    6    9    -11.13     -0.87
   -6    6   12     -3.58      0.40
   -6    6   15     -2.50      0.17
   -6    6   18     -2.01      0.26
   -6    6   21      4.51     -0.25
   -6    6   24     -1.57     -1.52
   -1    7   25      4.81      0.60
   -1    7   22      1.04      3.73
   -1    7   19     -0.77      0.94
   -1    7   16     -4.05     -5.84
   -1    7   13     -0.23     -2.38
   -1    7   10     -8.31     -1.52
   -1    7    7      0.29    -41.37
   -1    7    4    -36.15     44.71
   -1    7    1    -51.94    -50.03
   -6    7    2     56.77    134.10
   -6    7    5      1.18    -34.18
   -6    7    8      3.31    -16.21
   -6    7   11      6.21      4.74
   -6    7   14      5.11      2.71
   -6    7   17     -0.58     -1.35
   -6    7   20     -1.16      1.35
   -6    7   23     -0.23     -4.59
   -2    8   23      0.77      1.47
   -2    8   20     -0.35      2.57
   -2    8   17     -1.89     -3.16
   -2    8   14      1.15      1.77
   -2    8   11     -6.93     -6.23
   -2    8    8     10.67      7.89
   -2    8    5    -37.37    -24.77
   -6    8    1     27.19    -58.34
   -6    8    4    -71.22      6.33
   -6    8    7    -13.83    -21.98
   -6    8   10      2.65     -7.24
   -6    8   13     -1.76     -0.78
   -6    8   16      0.27     -1.08
   -6    8   19     -3.20      0.75
   -6    8   22      1.52     -1.46
   -6    8   25      3.75      1.87
   -3    9   24      1.51     -0.53
   -3    9   21     -1.97     -3.92
   -3    9   18     -3.44      0.39
   -3    9   15     -0.17     -3.51
   -3    9   12     -5.78     -4.44
   -3    9    9     -5.87      1.21
   -3    9    6    -25.44     10.39
   -3    9    0    -54.64    -15.94
   -6    9    3    -12.12     32.63
   -6    9    6    -50.04     25.56
   -6    9    9      3.46      1.55
   -6    9   12    -18.91     19.60
   -6    9   15      5.10      3.17
   -6    9   18     -1.63      5.96
   -6    9   21     -0.17     -1.75
   -6    9   24      1.57     -3.22
   -4   10   22      2.28      1.60
   -4   10   19     -3.40      1.84
   -4   10   16      0.52     -6.14
   -4   10   13     -1.09     -3.10
   -4   10   10     -6.63    -11.99
   -4   10    7      5.15     -3.01
   -4   10    4    -37.12    -62.07
   -4   10    1     -8.87      5.58
   -6   10    2    -27.71    -30.67
   -6   10    5    -15.12    -30.84
   -6   10    8    -17.99      0.46
   -6   10   11     -9.54      8.26
   -6   10   14      0.38      0.55
   -6   10   17     -1.87      2.97
   -6   10   20     -0.59     -1.11
   -6   10   23      3.94     -5.60
   -5   11   23      4.41      3.12
   -5   11   20      0.78      1.16
   -5   11   17     -2.35     -3.93
   -5   11   14      1.68     -7.69
   -5   11   11     -4.33      2.86
   -5   11    8    -13.48      6.95
   -5   11    5    -15.21     21.90
   -5   11    2     13.18     51.13
   -6   11    1     10.53     49.95
   -6   11    4      2.47     -8.81
   -6   11    7      9.08     25.67
   -6   11   10      8.98     10.12
   -6   11   13     -1.10      8.07
   -6   11   16      2.16      0.03
   -6   11   19     -2.24      3.90
   -6   11   22      5.03     -2.20
   -6   12    0     28.66    -24.90
   -6   12    3      3.76      6.88
   -6   12    6     15.84    -23.53
   -6   12    9      4.04     -5.57
   -6   12   12     -4.33      1.24
   -6   12   15      5.33     -3.46
   -6   12   18     -2.94     -1.53
   -6   12   21     -1.55     -0.50
   -6   12   24     -0.96     -2.37
   -3    7    2      0.20     15.86
   -4    7    4     15.82     -7.04
    0    7   23      4.23     -0.10
    0    7   20      1.85      0.03
    0    7   17     -0.23     -0.21
    0    7   14     -1.55      0.92
    0    7    8     22.33     -0.29
    0    7    5     15.27     -0.18
   -7    7    1    -24.63     -0.07
   -7    7    4    119.76     -2.12
   -7    7    7     43.12     -0.12
   -7    7   10     38.12      1.97
   -7    7   13      3.42      0.01
   -7    7   16      2.72     -0.09
   -7    7   19      4.67     -0.04
   -7    7   22     -0.25      0.21
   -7    7   25     -2.97      0.82
   -1    8   24      0.94      2.62
   -1    8   21      0.84      2.20
   -1    8   18      2.70      1.47
   -1    8   15     -3.73     -0.43
   -1    8   12      1.12     -0.16
   -1    8    6    -14.26      6.53
   -1    8    3     47.76     55.55
   -1    8    0    -12.92    108.06
   -7    8    3     23.67     23.37
   -7    8    6    -16.93      3.06
   -7    8    9      6.47    -10.23
   -7    8   12     -4.90      3.67
   -7    8   15      1.46      0.99
   -7    8   18     -1.86      0.05
   -7    8   21      0.07      1.14
   -2    9   25     -2.93     -3.88
   -2    9   22     -0.62     -1.08
   -2    9   19      3.49      4.21
   -2    9   16      0.99     -5.12
   -2    9   13      9.13      3.24
   -2    9   10     10.37     10.50
   -2    9    7     35.55    -10.15
   -2    9    4     36.76     27.02
   -2    9    1    143.32     -8.78
   -7    9    2     92.43     36.04
   -7    9    5    -19.13      1.10
   -7    9    8     11.37    -12.41
   -7    9   11      3.18      8.50
   -7    9   14     -0.70     -1.64
   -7    9   17      1.19     -1.44
   -7    9   20     -0.32      2.46
   -7    9   23      1.16      4.31
   -3   10   23     -3.41      2.45
   -3   10   20     -1.38      1.45
   -3   10   17      1.44      2.16
   -3   10   14      2.84      0.59
   -3   10   11      7.55     -2.33
   -3   10    8      2.36     -0.34
   -3   10    5      9.88      3.57
   -7   10    1     -2.98     44.27
   -7   10    4     14.77     66.14
   -7   10    7    -28.98      6.35
   -7   10   10      0.55      5.80
   -7   10   13     -7.17      5.48
   -7   10   16      1.51     -0.52
   -7   10   19      1.22     -0.24
   -7   10   22     -5.26     -0.36
   -4   11   24      2.94      1.92
   -4   11   21      0.96      4.37
   -4   11   18     -1.23      1.29
   -4   11   15      8.24     -1.29
   -4   11   12      6.46     -1.01
   -4   11    9      8.32     13.10
   -4   11    6     28.23     18.55
   -4   11    3     21.21     12.19
   -4   11    0     23.77     10.09
   -7   11    3     41.92    -18.71
   -7   11    6      1.53     -7.98
   -7   11    9     15.32    -16.33
   -7   11   12      2.11      4.35
   -7   11   15     -1.16     -8.71
   -7   11   18      0.90      0.83
   -7   11   21      3.30      0.76
   -7   11   24     -0.71      0.12
   -5   12   22     -0.12      0.01
   -5   12   19     -0.33      1.20
   -5   12   16      1.40     -2.23
   -5   12   13     -0.17      2.39
   -5   12   10      8.77      1.16
   -5   12    7      3.74     22.56
   -5   12    4     17.55      6.29
   -5   12    1      6.50    -32.87
   -7   12    2    -37.89     22.53
   -7   12    5     -8.30     -2.11
   -7   12    8      8.04     -3.21
   -7   12   11     -1.49      1.65
   -7   12   14     -3.29     -0.25
   -7   12   17     -5.33      4.29
   -7   12   20      2.19      0.13
   -7   12   23     -2.70     -2.23
   -6   13   23     -3.39      0.19
   -6   13   20      2.64     -1.03
   -6   13   17     -2.21     -3.45
   -6   13   14     -0.29      2.06
   -6   13   11      4.88     -0.80
   -6   13    8      2.40      9.86
   -6   13    5      8.88      4.81
   -6   13    2     -1.17     15.48
   -7   13    1    -22.92      5.63
   -7   13    4    -36.92     -4.46
   -7   13    7    -16.77    -10.72
   -7   13   10      0.27     -7.48
   -7   13   13     -9.93     -5.88
   -7   13   16     -0.76     -2.80
   -7   13   19     -1.78     -0.11
   -7   13   22     -2.94     -0.56
   -7   14    3     15.07    -23.83
   -7   14    6     -9.58    -15.61
   -7   14    9      1.09     -1.79
   -7   14   12     -0.91      2.19
   -7   14   15      1.89     -3.22
   -7   14   18      2.06     -0.20
   -7   14   21     -1.95     -2.33
   -2    8    2      2.09     -3.77
   -1    8    9     -4.96      4.46
    0    8   25     -7.13      0.25
    0    8   22     -1.01      0.32
    0    8   19      2.07      0.08
    0    8   16     -0.40     -0.59
    0    8   13      1.66      0.45
    0    8   10    -28.65     -3.40
    0    8    7      8.63     -1.20
    0    8    4    -59.85      0.32
    0    8    1    -33.31      0.64
   -8    8    2    -64.13     -0.49
   -8    8    5    -25.96     -1.27
   -8    8    8     -5.04      4.32
   -8    8   11    -12.13      1.23
   -8    8   14      3.51      0.31
   -8    8   17     -2.65     -1.44
   -8    8   20      0.72     -0.16
   -1    9   23      1.87     -1.11
   -1    9   20     -1.66     -1.56
   -1    9   17     -1.69     -3.54
   -1    9   14     -3.35     -4.50
   -1    9   11     -7.29     -1.99
   -1    9    8     -3.91      3.88
   -1    9    5    -18.96     23.97
   -8    9    1    -24.69    -53.06
   -8    9    4    -17.97    -24.20
   -8    9    7     -8.61     15.40
   -8    9   10     -6.82      8.74
   -8    9   13     -8.37      2.91
   -8    9   16      0.21     -2.59
   -8    9   19      0.43      1.24
   -8    9   22     -0.99     -1.96
   -8    9   25     -0.14      3.35
   -2   10   24     -2.79     -2.84
   -2   10   21      1.09      2.60
   -2   10   18     -0.59      2.35
   -2   10   15     -1.17     -0.36
   -2   10   12     -2.76     -3.47
   -2   10    9     -1.67     -8.29
   -2   10    6    -13.47    -22.81
   -2   10    0      8.27      2.53
   -8   10    3    -47.00    -33.55
   -8   10    6      0.52    -12.49
   -8   10    9      3.17     -4.49
   -8   10   12     -4.09     -4.20
   -8   10   15      3.90     -1.08
   -8   10   18     -2.75     -3.32
   -8   10   21      3.06      0.21
   -8   10   24     -2.35      5.39
   -3   11   22      1.27      0.26
   -3   11   19      3.90      3.18
   -3   11   16     -2.82     -0.23
   -3   11   13     -6.77     -0.23
   -3   11   10     -5.47     -3.80
   -3   11    7    -24.19     -9.13
   -3   11    4    -27.28     39.11
   -3   11    1    -35.27     19.80
   -8   11    2     44.60     -6.44
   -8   11    5    -19.02     22.87
   -8   11    8      9.55    -10.66
   -8   11   11      8.14      1.85
   -8   11   14      1.36     -3.24
   -8   11   17     -3.77      1.95
   -8   11   20      0.30      1.16
   -8   11   23      0.56      2.99
   -4   12   23      2.75      1.66
   -4   12   20     -5.15      0.80
   -4   12   17      0.27      0.65
   -4   12   14      2.89      4.30
   -4   12   11     -1.80    -11.57
   -4   12    8     -7.90     -5.29
   -4   12    5    -15.25    -31.48
   -4   12    2      3.25    -29.84
   -8   12    1     -7.87    -17.99
   -8   12    4     28.23      8.41
   -8   12    7      1.50    -16.90
   -8   12   10      8.10    -16.44
   -8   12   13     -1.35     -6.05
   -8   12   16     -0.07     -1.90
   -8   12   19     -2.65     -1.92
   -8   12   22      2.32      5.18
   -5   13   21     -2.44     -0.43
   -5   13   18     -0.75      4.45
   -5   13   15     -4.01     -1.39
   -5   13   12     -8.20     -2.12
   -5   13    9    -15.22      4.60
   -5   13    6     -9.33      4.14
   -5   13    3    -29.66     10.97
   -5   13    0    -34.25     56.19
   -8   13    3     -3.82     23.80
   -8   13    6    -17.04     46.83
   -8   13    9      6.16     -2.50
   -8   13   12     -1.58      7.59
   -8   13   15     -0.28      4.61
   -8   13   18      1.15      1.36
   -8   13   21     -0.61      0.13
   -8   13   24     -0.39      2.66
   -6   14   22      0.73     -0.37
   -6   14   19      2.21     -2.46
   -6   14   16     -0.27      3.53
   -6   14   13      0.82      1.03
   -6   14   10     -0.46     -0.23
   -6   14    7      6.46     -3.37
   -6   14    4     17.23     10.92
   -6   14    1     21.82    -28.27
   -8   14    2      6.88    -14.97
   -8   14    5     18.58    -14.51
   -8   14    8      1.52     -8.73
   -8   14   11      6.36      2.82
   -8   14   14     -0.58     -3.28
   -8   14   17      1.61     -1.60
   -8   14   20     -0.20     -2.02
   -8   14   23     -5.35     -0.61
   -7   15   23      0.39      0.14
   -7   15   20      2.30      0.23
   -7   15   17     -3.58     -0.96
   -7   15   14     -2.27      2.64
   -7   15   11     -5.61      4.02
   -7   15    8     -8.84      1.39
   -7   15    5      2.99      5.99
   -7   15    2      5.22     -6.56
   -8   15    4    -12.44     -3.29
   -8   15    7      0.21      3.06
   -8   15   10      8.82      2.07
   -8   15   13     -0.33      3.15
   -8   15   16     -0.49     -2.71
   -8   15   19      0.34      0.09
   -8   15   22     -0.27      1.09
   -8   16    3     14.19     -4.57
   -8   16    6      5.31     -4.37
   -8   16    9     -1.06      0.30
   -8   16   12      0.85      5.08
   -8   16   15      0.97     -3.61
   -8   16   18     -2.59     -3.19
   -8   16   21     -0.96      3.62
   -3    9    3    -29.73     -1.31
   -1    9    2    -38.43    -24.11
    0    9   24     -4.28      0.31
    0    9   21      2.81      0.15
    0    9   18      1.45     -0.61
    0    9   15     -0.01      0.14
    0    9   12     12.61     -0.23
    0    9    9      1.23     -0.18
    0    9    6     34.46      0.94
    0    9    0     97.59      0.29
   -9    9    3     68.23     -0.22
   -9    9    6     24.16      1.28
   -9    9    9     29.70      8.39
   -9    9   12      1.56      0.96
   -9    9   15     10.05      0.18
   -9    9   18      3.68     -0.63
   -9    9   21     -2.82     -0.03
   -9    9   24      2.18      0.00
   -1   10   22      0.58     -2.84
   -1   10   19     -0.02     -0.27
   -1   10   16     -2.67      1.65
   -1   10   13      1.74     -1.20
   -1   10   10     -9.46      1.52
   -1   10    7     -1.56      9.95
   -1   10    4      0.39    -22.72
   -1   10    1    -18.09    -22.94
   -9   10    2    -80.11    -50.30
   -9   10    5      1.50     25.93
   -9   10    8     -3.71      0.54
   -9   10   11     -7.07     -0.75
   -9   10   14      0.49     -3.49
   -9   10   17      1.22      0.16
   -9   10   20      0.49     -4.91
   -9   10   23     -2.03      3.45
   -2   11   23      0.66     -2.76
   -2   11   20      4.18      0.99
   -2   11   17      3.38      0.68
   -2   11   14      3.57      4.23
   -2   11   11     -1.21     -1.86
   -2   11    8     27.13     -5.78
   -2   11    5     31.87     44.88
   -2   11    2     79.69      6.52
   -9   11    1     23.27     29.02
   -9   11    4     55.62    -50.84
   -9   11    7     23.29     -7.83
   -9   11   10     14.77     -1.60
   -9   11   13      1.46     -5.01
   -9   11   16      0.92      1.81
   -9   11   19      2.57      2.80
   -9   11   22     -3.81     -0.99
   -3   12   24     -1.32      1.84
   -3   12   21      0.02     -3.66
   -3   12   18      1.77     -1.12
   -3   12   15      0.68      3.44
   -3   12   12     -1.01     -5.60
   -3   12    9      3.79    -11.89
   -3   12    6      6.27     19.12
   -3   12    0     30.54     14.52
   -9   12    3    -47.07    -36.40
   -9   12    6      0.58     11.14
   -9   12    9    -14.27      0.89
   -9   12   12     -6.36     -0.37
   -9   12   15     -1.67      2.13
   -9   12   18     -4.58      1.23
   -9   12   21     -1.06      1.33
   -9   12   24     -0.71      1.64
   -4   13   22     -2.93     -2.84
   -4   13   19     -4.40      0.99
   -4   13   16      1.11      1.95
   -4   13   13      2.27     -4.01
   -4   13   10      9.88     -1.81
   -4   13    7      0.71    -12.65
   -4   13    4     28.11      1.19
   -4   13    1      9.91    -20.90
   -9   13    2     -7.45     14.02
   -9   13    8      1.29     -7.43
   -9   13   11      0.72     -3.62
   -9   13   14     -0.26     -2.81
   -9   13   17      1.26      2.78
   -9   13   20      1.54      0.74
   -9   13   23      2.26      0.69
   -5   14   23     -1.58     -3.86
   -5   14   20      2.04      1.63
   -5   14   17     -2.29      0.15
   -5   14   14      3.22     -0.49
   -5   14   11      3.40     -6.10
   -5   14    8      3.21      2.92
   -5   14    5     12.61    -11.18
   -5   14    2    -12.95     -5.44
   -9   14    1      9.48     20.17
   -9   14    7    -14.70     15.20
   -9   14   10     -3.84      7.81
   -9   14   13     -2.83      5.19
   -9   14   16      2.27      3.54
   -9   14   19      2.01     -3.53
   -9   14   22     -0.58      1.43
   -6   15   21      2.24      1.64
   -6   15   18     -0.13     -1.90
   -6   15   15      1.04      1.16
   -6   15   12     -0.35      2.48
   -6   15    9      6.09     13.42
   -6   15    6      0.97      6.25
   -6   15    3    -12.06     14.57
   -6   15    0     -6.38     -3.51
   -9   15    3     -0.65    -21.46
   -9   15    9     -2.85    -10.06
   -9   15   12      0.36      1.24
   -9   15   15     -0.25     -3.75
   -9   15   18      0.62     -0.08
   -9   15   21     -0.07      1.27
   -7   16   22     -0.71      0.93
   -7   16   19      3.04     -0.75
   -7   16   16      4.40     -1.05
   -7   16   13      4.70      2.24
   -7   16   10      2.44     -0.37
   -7   16    7      3.58     -1.79
   -7   16    4     13.57    -21.09
   -7   16    1      6.08    -13.03
   -9   16    2      9.79      1.44
   -9   16    5      3.45     -2.79
   -9   16    8     -3.35      8.39
   -9   16   11      3.60     -0.22
   -9   16   14     -0.90     -0.64
   -9   16   17      5.06     -2.18
   -9   16   20      1.03     -1.16
   -8   17   20     -0.01      0.23
   -8   17   17     -0.40      4.36
   -8   17   14      2.83      1.27
   -8   17   11     -2.56      5.38
   -8   17    8     -4.76      1.93
   -8   17    5    -10.59      0.69
   -8   17    2    -14.98     10.24
   -9   17    1     -6.12      2.85
   -9   17    4     -6.70     -2.77
   -9   17    7     -3.54     11.06
   -9   17   10     -6.57     -4.63
   -9   17   13     -1.96      1.33
   -9   17   16     -4.37     -0.97
   -9   17   19     -2.67     -0.80
   -9   17   22      1.23      0.29
   -9   18    0     13.46      3.78
   -9   18    3     12.09     15.28
   -9   18    6      9.30      7.50
   -9   18    9      7.11      1.21
   -9   18   12      7.45      1.20
   -9   18   15     -2.67      0.45
   -9   18   18      3.96      0.12
   -9   18   21      3.44     -0.31
   -4   10   25      2.56     -0.43
   -3   10    2     11.80    -49.05
   -7   10   25     -0.25     -2.26
   -2   10    3     10.30    -74.11
    0   10   23     -1.24     -0.21
    0   10   20      0.58      0.11
    0   10   17      1.69     -0.44
    0   10   14      0.46     -0.27
    0   10   11     -9.36     -0.51
    0   10    8    -27.49     -0.35
    0   10    5    -24.07      0.68
    0   10    2    -16.49      0.07
  -10   10    1     58.57     -0.38
  -10   10    4    -93.21     -0.93
  -10   10    7     10.66      1.08
  -10   10   10      3.31      2.04
  -10   10   13      8.74     -0.09
  -10   10   16      6.48     -0.10
  -10   10   19     -4.05     -0.05
  -10   10   22      4.17     -0.17
   -1   11   24      2.15     -3.57
   -1   11   21     -2.87     -3.99
   -1   11   18      3.60      2.06
   -1   11   15     -4.16      1.97
   -1   11   12      2.11      1.73
   -1   11    9     -8.54     21.11
   -1   11    6    -15.08      1.61
   -1   11    3    -30.55      5.94
   -1   11    0    -38.19    -38.79
  -10   11    3    -28.28     49.19
  -10   11    6    -14.29      2.42
  -10   11    9     -8.89      5.73
  -10   11   12     -4.07     -0.91
  -10   11   15     -1.34      0.41
  -10   11   18     -0.78     -0.68
  -10   11   21     -1.01     -0.78
  -10   11   24      2.13      0.61
   -2   12   22     -1.36      0.29
   -2   12   19     -2.22     -0.88
   -2   12   16     -2.07      0.13
   -2   12   13     -6.52     -4.72
   -2   12   10     -7.88     -0.14
   -2   12    7     -9.92      3.30
   -2   12    4    -22.22    -10.37
   -2   12    1    -33.72     10.21
  -10   12    2     20.79    -11.46
  -10   12    5      0.22    -12.42
  -10   12    8      0.84     -6.72
  -10   12   11     -1.30      1.12
  -10   12   14      1.55     -0.97
  -10   12   17      0.84      2.04
  -10   12   20     -1.19     -3.95
  -10   12   23     -2.64     -1.75
   -3   13   23      1.58     -1.94
   -3   13   20     -0.88     -2.55
   -3   13   17     -2.92      4.27
   -3   13   14     -3.44      1.67
   -3   13   11     -2.49      4.50
   -3   13    8     -5.60     -7.30
   -3   13    5     -1.83     14.42
   -3   13    2    -23.56      2.92
  -10   13    1    -11.53    -23.28
  -10   13    4    -29.23      6.37
  -10   13    7      6.58     20.07
  -10   13   10     -1.38      2.25
  -10   13   13     -1.46      4.45
  -10   13   16      0.86      6.58
  -10   13   19      5.04     -3.59
  -10   13   22     -1.39     -0.13
   -4   14   21      1.62     -3.08
   -4   14   18     -2.10      3.00
   -4   14   15     -1.77      0.65
   -4   14   12      0.32     -3.85
   -4   14    9      0.99     -9.47
   -4   14    6     -0.96    -26.38
   -4   14    3    -25.48    -18.90
   -4   14    0     -6.27      9.62
  -10   14    3    -10.56    -10.21
  -10   14    6     18.46    -18.37
  -10   14    9      3.90    -12.00
  -10   14   12      6.93     -7.93
  -10   14   15      3.08      1.69
  -10   14   18     -2.86     -3.50
  -10   14   21      2.53     -4.65
   -5   15   22     -2.73     -3.09
   -5   15   19      1.99      0.57
   -5   15   16     -4.28     -1.69
   -5   15   13     -4.18      3.32
   -5   15   10     -3.60      4.43
   -5   15    7      4.56     -7.57
   -5   15    4    -13.25     33.04
   -5   15    1     -6.63     27.99
  -10   15    2     15.94     21.18
  -10   15    8      4.11     11.58
  -10   15   11     -0.86      4.36
  -10   15   14      2.33     -0.06
  -10   15   17      5.22     -0.05
  -10   15   20     -1.26     -0.33
  -10   15   23      2.88     -1.51
   -6   16   20     -0.81      0.55
   -6   16   17      4.79     -0.36
   -6   16   14     -1.29     -2.19
   -6   16   11     -1.05      2.27
   -6   16    8      2.34     -2.07
   -6   16    5     -4.74     -4.27
   -6   16    2     -3.21     -5.55
  -10   16    1     -1.98     -3.03
  -10   16    4      4.49    -19.44
  -10   16    7      6.45      5.54
  -10   16   10     -3.02     -3.62
  -10   16   13      1.46     -3.77
  -10   16   16      5.42     -0.61
  -10   16   19     -0.75     -2.61
  -10   16   22     -0.31      0.25
   -7   17   21      2.26      1.12
   -7   17   18      0.28      0.23
   -7   17   15      0.18      2.12
   -7   17   12     -2.43      5.86
   -7   17    9    -12.49     -7.17
   -7   17    6     -8.92      1.00
   -7   17    3      3.92     16.79
   -7   17    0     -2.53      6.34
  -10   17    3    -13.39     -2.99
  -10   17    6      2.86      9.02
  -10   17    9     -0.43      0.20
  -10   17   12     -0.24      4.62
  -10   17   15      2.19      1.69
  -10   17   18      3.79     -2.73
  -10   17   21     -3.07      1.94
   -8   18   19      2.02      4.53
   -8   18   16      1.24      3.79
   -8   18   13     -0.15      8.02
   -8   18   10     -4.66     -2.48
   -8   18    7     -0.96      3.88
   -8   18    4      6.33      4.38
   -8   18    1      5.93     -4.98
  -10   18    2     -4.54     -5.50
  -10   18    5      0.47     -8.46
  -10   18    8      0.81      7.58
  -10   18   11     -1.60     -3.74
  -10   18   14     -2.99     -0.10
  -10   18   17     -5.76      0.29
  -10   18   20     -0.91     -1.08
   -9   19   20     -0.62     -0.60
   -9   19   17      1.44     -0.46
   -9   19   14     -0.74      1.42
   -9   19   11     -2.16      0.72
   -9   19    8     -5.67     -7.19
   -9   19    5     -5.66     -4.46
   -9   19    2     -7.25     -2.47
  -10   19    1     -1.50      3.43
  -10   19    4    -11.62      3.71
  -10   19    7     -3.09     -5.02
  -10   19   10     -5.95     -9.52
  -10   19   13      1.11      0.63
  -10   19   16      1.66     -1.39
  -10   19   19     -5.59      3.09
  -10   20    0      6.37    -11.84
  -10   20    3      2.09      1.02
  -10   20    6     -2.19     -3.86
  -10   20    9    -11.00      4.57
  -10   20   12      4.04     -0.92
  -10   20   15      4.40      1.25
  -10   20   18     -0.33     -0.94
    0   11   22      1.99     -0.14
    0   11   19      1.43     -0.39
    0   11   16      2.84     -0.03
    0   11   13     11.25     -0.10
    0   11   10      9.59      0.07
    0   11    7     24.61     -0.09
    0   11    4     44.97     -0.10
    0   11    1     71.79      0.55
  -11   11    2     39.82      0.11
  -11   11    5     37.69     -1.27
  -11   11    8      8.31      0.82
  -11   11   11     11.42     -0.72
  -11   11   14     -1.26      0.14
  -11   11   17      3.23      0.24
  -11   11   20      2.42     -0.27
  -11   11   23     -5.04     -0.16
   -1   12   23     -3.50      1.73
   -1   12   20     -0.23     -1.25
   -1   12   17     -1.11     -5.29
   -1   12   14     -1.28     -1.52
   -1   12   11      4.73     -8.43
   -1   12    8      4.26     -0.52
   -1   12    5     -7.95    -12.42
   -1   12    2     -8.99      9.54
  -11   12    1    -34.66    -11.65
  -11   12    4    -20.93     -1.04
  -11   12    7    -12.39    -15.35
  -11   12   10    -13.95      4.83
  -11   12   13     -5.45     -2.11
  -11   12   16     -2.55     -0.99
  -11   12   19     -4.26     -3.73
  -11   12   22      4.42     -2.83
   -2   13   21     -1.11     -1.01
   -2   13   18      4.01     -1.27
   -2   13   15      0.71      3.20
   -2   13   12     -3.79    -10.77
   -2   13    9     15.99      1.46
   -2   13    6      5.72     15.05
   -2   13    3     37.78     27.26
   -2   13    0      5.67    -34.16
  -11   13    3     32.33    -19.76
  -11   13    6      8.16      2.23
  -11   13    9      5.98     -1.79
  -11   13   12      4.68     -3.41
  -11   13   15      2.72      2.23
  -11   13   18     -0.21      1.05
  -11   13   21     -2.45     -4.92
   -3   14   22     -0.55      0.88
   -3   14   19      2.43      0.20
   -3   14   16      1.61      2.33
   -3   14   13      3.79     -3.14
   -3   14   10      5.03     -4.79
   -3   14    7     -0.39     -8.13
   -3   14    1    -16.66     -4.82
  -11   14    2    -21.99    -34.75
  -11   14    5    -18.70     -1.17
  -11   14    8     -6.91      0.09
  -11   14   11     -2.76      1.49
  -11   14   14     -3.62      3.36
  -11   14   17     -0.64      0.05
  -11   14   20     -4.52     -0.95
  -11   14   23     -0.24      0.00
   -4   15   20     -1.09      1.59
   -4   15   17      0.34     -3.53
   -4   15   14      1.08      1.00
   -4   15   11      3.91      6.61
   -4   15    8     -4.18     -8.60
   -4   15    5     -4.14      3.67
   -4   15    2     -0.59      8.80
  -11   15    1      3.52    -12.75
  -11   15    4     -4.63    -21.75
  -11   15    7      6.82     -4.87
  -11   15   10     -0.36     -3.11
  -11   15   13      1.03     -2.90
  -11   15   16      1.56      0.12
  -11   15   19      0.02     -2.98
  -11   15   22     -1.31      0.62
   -5   16   21     -2.08     -2.09
   -5   16   18      3.18     -2.61
   -5   16   15      0.93      2.38
   -5   16   12      4.86     -1.47
   -5   16    9      9.74     -1.73
   -5   16    6     14.47     -8.49
   -5   16    3     13.19    -10.05
   -5   16    0     17.00      8.04
  -11   16    3     13.94      6.40
  -11   16    6      0.30      4.38
  -11   16    9     -7.45     16.76
  -11   16   12     -2.61      3.42
  -11   16   15     -0.39      2.06
  -11   16   18      2.02     -3.44
  -11   16   21      2.41      0.05
   -6   17   19      5.62      0.73
   -6   17   16      4.49     -4.70
   -6   17   13      0.60      0.52
   -6   17   10     -3.61      6.45
   -6   17    7    -15.20     -8.23
   -6   17    4    -11.81      0.16
   -6   17    1    -18.88     -7.05
  -11   17    2      2.30     -4.18
  -11   17    5    -16.05    -13.68
  -11   17    8     -0.73     -4.72
  -11   17   11     -3.01     -1.27
  -11   17   14     -2.02     -0.46
  -11   17   17      2.77     -0.74
  -11   17   20     -1.01     -2.33
   -7   18   20      3.95      0.61
   -7   18   17      1.65     -3.46
   -7   18   14      4.52      3.30
   -7   18   11      3.28     -0.56
   -7   18    8      2.13     -4.72
   -7   18    5     11.48      3.21
   -7   18    2     20.66      1.15
  -11   18    1     17.09      6.08
  -11   18    4     16.30     -0.03
  -11   18    7      5.88      7.74
  -11   18   10      1.34      7.78
  -11   18   13      5.72      3.05
  -11   18   16      1.60      0.74
  -11   18   19      0.02     -1.09
   -8   19   21      0.02     -0.71
   -8   19   18     -2.28      1.30
   -8   19   15     -4.25     -0.23
   -8   19   12      2.26      1.52
   -8   19    9     -1.62     -8.80
   -8   19    6     -3.93     -5.56
   -8   19    3     -6.91    -12.56
   -8   19    0     -6.80    -13.48
  -11   19    3     -9.09     -6.88
  -11   19    6     -7.30     -2.67
  -11   19    9     -5.01     -1.88
  -11   19   12     -4.59     -3.10
  -11   19   15     -3.96     -0.14
  -11   19   18     -1.28      3.35
   -9   20   19      1.82     -4.43
   -9   20   16      1.28     -1.24
   -9   20   13      2.52      2.44
   -9   20   10      5.06     -1.67
   -9   20    7      7.22     -3.17
   -9   20    4      2.95     -3.31
   -9   20    1      6.17     -3.35
  -11   20    2     10.45      7.56
  -11   20    5     11.29      2.92
  -11   20    8      5.10     -0.40
  -11   20   11      2.76      2.96
  -11   20   14      5.69      0.39
  -11   20   17      3.25      0.84
  -10   21   20     -5.30     -3.56
  -10   21   17      3.72     -3.52
  -10   21   14     -2.93      0.10
  -10   21   11      0.89     -1.95
  -10   21    8      4.19      0.94
  -10   21    5      0.06      2.76
  -10   21    2     -3.34      0.39
  -11   21    1     -6.58     -5.79
  -11   21    4     -4.86      1.00
  -11   21    7     -0.18      5.07
  -11   21   10     -1.67      2.48
  -11   21   13      6.79      1.18
  -11   21   16     -2.07      1.36
  -11   21   19     -1.16      0.65
  -11   22    0     -2.70     -4.62
  -11   22    3      4.51      4.42
  -11   22    6      5.08     -0.43
  -11   22    9      5.40      0.93
  -11   22   12      2.11      0.01
  -11   22   15      4.47      1.26
  -11   22   18      0.88      1.18
   -3   12    3     -1.05    -10.66
    0   12   21     -2.97      0.23
    0   12   18      1.07      0.07
    0   12   15     -7.90      0.45
    0   12   12     -3.40      0.82
    0   12    9    -11.14      0.00
    0   12    6     -2.85     -0.04
    0   12    3      9.76      0.14
    0   12    0      5.46     -0.11
  -12   12    3    -10.93      0.30
  -12   12    6     34.36     -0.89
  -12   12    9      1.17      0.15
  -12   12   12      7.50      1.23
  -12   12   15      1.34      0.72
  -12   12   18      3.85      0.91
  -12   12   21     -0.10     -0.04
  -12   12   24     -2.30      0.72
   -1   13   22      0.44      0.22
   -1   13   19      3.69      2.82
   -1   13   16     -0.98      1.22
   -1   13   13      4.33      3.79
   -1   13   10     -7.28      5.29
   -1   13    7      4.37      2.39
   -1   13    4      6.62     22.29
   -1   13    1      8.36     35.26
  -12   13    2     -1.79     21.00
  -12   13    5    -15.00     -9.40
  -12   13    8     -2.45     20.86
  -12   13   11     -0.85      1.55
  -12   13   14     -2.63      2.42
  -12   13   17     -2.01     -4.18
  -12   13   20      1.75     -0.17
  -12   13   23      1.93     -1.05
   -2   14   20      0.00      0.29
   -2   14   17      2.18      0.19
   -2   14   14     -1.33     -1.05
   -2   14   11     -9.36     -1.50
   -2   14    8     -6.65      0.10
   -2   14    5     -9.03      5.40
   -2   14    2     -9.90      3.83
  -12   14    1      7.35     -6.45
  -12   14    4    -12.80     15.59
  -12   14    7     13.46     -1.18
  -12   14   10      4.78     -6.16
  -12   14   13      5.76     -3.17
  -12   14   16      1.99     -2.98
  -12   14   19     -2.15      1.72
  -12   14   22     -2.18     -0.76
   -3   15   21      1.96      3.45
   -3   15   18     -0.50     -0.66
   -3   15   15      1.89      2.66
   -3   15   12     -1.56      7.28
   -3   15    9     -6.83      5.39
   -3   15    6      0.37     -2.99
   -3   15    3      6.10      8.30
   -3   15    0    -10.64     20.32
  -12   15    3     28.47     16.01
  -12   15    6     -9.00      6.83
  -12   15    9      3.68      9.48
  -12   15   12     -1.88      5.12
  -12   15   15     -0.28      1.45
  -12   15   18     -0.13      0.95
  -12   15   21     -0.92      7.45
   -4   16   22      0.49      1.70
   -4   16   19      0.75     -1.60
   -4   16   16     -2.51      1.17
   -4   16   13     -7.19      3.41
   -4   16   10      0.70      5.19
   -4   16    7      0.18      3.60
   -4   16    4     -4.94     -5.35
   -4   16    1     13.38     29.43
  -12   16    2     12.18    -22.68
  -12   16    5      4.63     14.56
  -12   16    8      6.80     -0.46
  -12   16   11      0.42     -5.36
  -12   16   14      0.40      0.40
  -12   16   17      0.49     -3.50
  -12   16   20     -1.71     -1.69
   -5   17   20      1.58     -0.82
   -5   17   17      1.13      0.43
   -5   17   14     -0.55      2.24
   -5   17   11      0.40      8.26
   -5   17    8      3.34      2.20
   -5   17    5      2.76      7.18
   -5   17    2      7.81      2.89
  -12   17    1     -1.25     12.62
  -12   17    4     19.56     17.61
  -12   17    7      4.48      7.62
  -12   17   10      1.03      3.16
  -12   17   13     -0.96     -0.49
  -12   17   16     -2.27      0.31
  -12   17   19     -1.43     -6.08
  -12   17   22      0.61     -0.73
   -6   18   21     -0.59      0.89
   -6   18   18      0.90     -3.89
   -6   18   15      5.70     -1.10
   -6   18   12     -5.66      6.00
   -6   18    9     -5.36     -0.72
   -6   18    6     -0.31      7.55
   -6   18    3    -11.81      0.78
   -6   18    0     -3.17     16.71
  -12   18    3     -0.60     -7.70
  -12   18    6     -6.69     -7.70
  -12   18    9      2.39     -4.48
  -12   18   12     -3.75     -7.64
  -12   18   15      0.49     -0.13
  -12   18   18     -3.28     -0.94
  -12   18   21     -3.35     -2.09
   -7   19   19     -3.64     -1.85
   -7   19   16     -1.25     -2.91
   -7   19   13     -0.15      3.59
   -7   19   10     -2.86      1.32
   -7   19    7      1.57      3.65
   -7   19    4      7.86     17.38
   -7   19    1      1.90     -3.10
  -12   19    2      6.71     -1.82
  -12   19    5      5.17      9.64
  -12   19    8      0.49      3.94
  -12   19   11      0.64      0.28
  -12   19   14      1.32      1.44
  -12   19   17      1.50      2.24
  -12   19   20     -2.01      6.70
   -8   20   20      2.40      2.38
   -8   20   17      1.03      3.62
   -8   20   14     -3.49     -0.38
   -8   20   11      4.00      1.02
   -8   20    8     -4.76      3.67
   -8   20    5     -1.10      9.11
   -8   20    2     -2.43     -3.32
  -12   20    1     -6.42      4.28
  -12   20    4    -11.98     -2.46
  -12   20    7     -5.16      4.89
  -12   20   10     -7.49      0.95
  -12   20   13     -5.46     -2.14
  -12   20   16     -2.50      0.48
  -12   20   19     -3.16      2.18
   -9   21   18     -0.85      0.16
   -9   21   15     -2.09     -1.92
   -9   21   12     -1.80      1.46
   -9   21    9     -5.12     -0.86
   -9   21    6     -4.70     -2.82
   -9   21    3    -11.13      5.84
   -9   21    0      1.51      0.58
  -12   21    3     -6.05      1.80
  -12   21    6      4.97      5.72
  -12   21    9     -3.99      1.09
  -12   21   12      4.18      1.68
  -12   21   15     -2.55      0.24
  -12   21   18     -2.89      1.17
  -10   22   19      2.54     -1.26
  -10   22   16      1.23     -2.43
  -10   22   13     -2.68      4.43
  -10   22   10     -1.79      2.35
  -10   22    7     -1.28      1.83
  -10   22    4     -1.61     -1.32
  -10   22    1      2.06      1.74
  -12   22    2     -3.31      2.97
  -12   22    5     -7.81     -3.13
  -12   22    8     -9.83      8.29
  -12   22   11      1.57     -2.36
  -12   22   14     -0.63      3.89
  -12   22   17     -1.40      5.64
  -11   23   17      0.44      0.81
  -11   23   14      1.85      3.73
  -11   23   11     -1.69     -1.26
  -11   23    8     -3.64     -2.31
  -11   23    5     -4.90     -5.61
  -11   23    2     -3.00      3.20
  -12   23    1      3.22      5.29
  -12   23    4      2.27      0.01
  -12   23    7      2.39     -7.93
  -12   23   10     -4.18     -3.40
  -12   23   13     -0.93     -0.77
  -12   23   16      2.44      4.67
  -12   24    0      2.43      5.93
  -12   24    3      2.46      3.66
  -12   24    6     -1.70      3.25
  -12   24    9     -4.03      3.14
  -12   24   12     -0.63      0.75
  -12   24   15     -0.49      2.16
  -12   24   18      2.55     -1.25
   -5   13   24      2.90     -2.17
   -9   13    5      3.59      6.83
  -11   13   24     -1.17     -5.67
    0   13   23      1.11      0.34
    0   13   20     -2.84     -0.01
    0   13   17      7.68      0.39
    0   13   14      1.44      0.32
    0   13   11      2.75     -0.03
    0   13    8      9.64     -0.03
    0   13    5     13.55      0.14
    0   13    2     25.34      2.22
  -13   13    1     11.97     -0.23
  -13   13    4     64.14      0.21
  -13   13    7     13.66     -0.46
  -13   13   10      1.26      0.40
  -13   13   13      6.04      0.80
  -13   13   16      4.17      0.24
  -13   13   19     -2.95      0.03
  -13   13   22     -4.66     -0.39
   -1   14   21      1.11     -1.67
   -1   14   18     -0.97     -6.11
   -1   14   15      1.27     -0.09
   -1   14   12      7.70    -10.05
   -1   14    9      2.05     -7.09
   -1   14    6     -3.36     -1.54
   -1   14    3     -0.46     13.37
   -1   14    0      1.54      0.15
  -13   14    3    -10.18    -28.89
  -13   14    6     -6.97     13.40
  -13   14    9     -7.97      3.77
  -13   14   12     -2.26      0.22
  -13   14   15     -5.76     -3.29
  -13   14   18     -0.07     -3.36
  -13   14   21      3.18      0.29
   -2   15   22     -0.85     -2.27
   -2   15   19      0.75     -3.57
   -2   15   16     -0.79     -2.71
   -2   15   13      4.48     -5.34
   -2   15   10      3.82      3.03
   -2   15    7     -0.44     -6.52
   -2   15    4    -10.94     -2.88
   -2   15    1     -0.86    -16.43
  -13   15    2    -22.20     -8.02
  -13   15    5      1.30     -7.72
  -13   15    8      4.65      4.38
  -13   15   11      1.68     -6.10
  -13   15   14      3.78      0.59
  -13   15   17      0.27     -4.03
  -13   15   20     -1.30      3.63
  -13   15   23      0.29      2.94
   -3   16   20      0.75      0.20
   -3   16   17     -4.29     -3.27
   -3   16   14     -0.31     -1.54
   -3   16   11      2.11     -6.65
   -3   16    8      4.49    -12.04
   -3   16    5      3.66    -13.34
   -3   16    2     -2.10     -1.31
  -13   16    1      0.40     12.54
  -13   16    4    -10.07     -7.59
  -13   16    7    -10.24      2.89
  -13   16   10     -1.90      1.58
  -13   16   13     -1.57      3.38
  -13   16   16     -3.98      3.29
  -13   16   19     -4.20      3.67
  -13   16   22      2.11      5.31
   -4   17   21     -3.29     -2.15
   -4   17   18     -1.31      0.16
   -4   17   15     -0.46      0.32
   -4   17   12     -3.60      4.16
   -4   17    9     -7.13     -0.54
   -4   17    6     -7.39     -0.84
   -4   17    3     -5.04    -10.92
   -4   17    0    -16.18    -14.49
  -13   17    3    -13.75     -4.73
  -13   17    6    -11.39      5.23
  -13   17    9      0.26     -7.27
  -13   17   12     -0.29     -5.79
  -13   17   15      0.18     -3.29
  -13   17   18     -0.27     -0.42
  -13   17   21     -1.85     -1.79
   -5   18   19     -4.17     -1.82
   -5   18   16      1.20     -1.79
   -5   18   13      0.82      0.88
   -5   18   10     -0.22     -7.49
   -5   18    7      7.92    -15.02
   -5   18    4     -1.91    -18.92
   -5   18    1      2.63     -1.27
  -13   18    2    -10.42      9.64
  -13   18    5      9.92      8.22
  -13   18    8     -1.39     -0.32
  -13   18   11     -0.23     -3.10
  -13   18   14     -0.12     -3.73
  -13   18   17     -0.90      0.19
  -13   18   20     -0.39     -0.04
   -6   19   20     -0.92      1.45
   -6   19   17     -1.05     -6.29
   -6   19   14     -5.11     -2.08
   -6   19   11     -4.07     -2.96
   -6   19    8      1.79     -8.40
   -6   19    5     -4.90     -2.71
   -6   19    2     -6.33     -8.26
  -13   19    1     -8.73      0.58
  -13   19    4     -1.42    -10.65
  -13   19    7     -6.27     -8.38
  -13   19   10     -2.88     -6.36
  -13   19   13     -0.27     -7.34
  -13   19   16     -1.17      2.28
  -13   19   19      3.24      4.35
   -7   20   21      3.76      5.50
   -7   20   18      3.88      7.12
   -7   20   15      2.94     -4.71
   -7   20   12      0.28      5.44
   -7   20    9      9.91      1.75
   -7   20    6      7.65      3.05
   -7   20    3      3.10      3.99
   -7   20    0      5.59      9.66
  -13   20    3     11.64      4.21
  -13   20    6      5.92     -0.04
  -13   20    9      1.47      4.36
  -13   20   12      6.68     -2.58
  -13   20   15     -1.20      0.52
  -13   20   18     -1.59      1.00
   -8   21   19      2.11      2.70
   -8   21   16     -0.78     -3.11
   -8   21   13      0.45     -5.76
   -8   21   10      2.91     -1.10
   -8   21    7      3.99      3.30
   -8   21    4      0.78      1.55
   -8   21    1      4.46      0.33
  -13   21    2     -5.56      0.56
  -13   21    5     -2.76      2.61
  -13   21    8      0.06     -2.90
  -13   21   11    -11.02     -0.49
  -13   21   14      1.07     -2.53
  -13   21   17     -3.16     -3.02
   -9   22   20     -2.02     -2.53
   -9   22   17      0.93     -0.58
   -9   22   14     -1.74     -0.24
   -9   22   11     -0.36      1.19
   -9   22    8      5.93      3.62
   -9   22    5      9.04     -0.83
   -9   22    2     10.88     -0.44
  -13   22    1      4.14     -5.34
  -13   22    4      4.93      1.03
  -13   22    7      4.04      1.72
  -13   22   10      2.33      6.11
  -13   22   13      5.46     -0.57
  -13   22   16     -1.65     -2.91
  -10   23   18      0.49     -3.19
  -10   23   15     -0.15     -1.11
  -10   23   12      0.84     -9.30
  -10   23    9      5.20     -3.65
  -10   23    6      2.38     -5.24
  -10   23    3     -2.01     -0.08
  -10   23    0      3.68     -4.38
  -13   23    3     -1.21     -3.52
  -13   23    6      4.72      0.21
  -13   23    9     -0.36     -1.63
  -13   23   12     -4.45      5.50
  -13   23   15      0.33      2.24
  -13   23   18      0.56     -0.62
  -11   24   16     -2.26      1.80
  -11   24   13      2.51     -5.53
  -11   24   10      4.06     -4.34
  -11   24    7     -2.06      0.74
  -11   24    4     -3.65      2.93
  -11   24    1      2.74      1.31
  -13   24    2     -1.23      1.04
  -13   24    5      1.49     -9.17
  -13   24    8     -1.56      2.00
  -13   24   11      0.31     -1.71
  -13   24   14      0.06     -2.22
  -13   24   17      0.45     -1.92
  -12   25   17      1.03     -1.60
  -12   25   14      2.21      0.10
  -12   25   11      4.10     -3.86
  -12   25    8      4.28      0.24
  -12   25    5      0.50      1.11
  -12   25    2     -2.78      3.09
  -13   25    1     -1.27     -1.57
  -13   25    4     -0.94     -0.92
  -13   25    7     -0.46     -0.46
  -13   25   10      2.13      0.54
  -13   25   13      0.83      2.21
  -13   25   16     -0.04      4.01
  -13   26    0      0.01      1.29
  -13   26    3     -4.09      9.09
  -13   26    6     -0.30     -0.92
  -13   26    9      0.58     -2.07
  -13   26   12      2.07     -5.15
  -13   26   15     -0.57     -3.18
   -7   14    0      7.67    -59.69
   -7   14   24     -0.46     -1.06
   -9   14    4      8.81     -1.30
   -3   14    4      4.01    -17.18
   -2   14   23      3.40      4.65
    0   14   22      2.98     -0.02
    0   14   19     -8.19      0.22
    0   14   16      0.05      1.39
    0   14   13     -1.37      0.51
    0   14   10     -7.29      0.33
    0   14    7    -12.19      0.55
    0   14    4     -6.61      0.63
    0   14    1    -15.75      0.22
  -14   14    2     17.64      0.65
  -14   14    5     22.86      0.08
  -14   14    8     17.03     -0.25
  -14   14   11      0.99     -0.06
  -14   14   14      1.81     -0.68
  -14   14   17      1.60      0.10
  -14   14   20      4.28     -0.03
  -14   14   23      2.05      0.00
   -1   15   20     -0.22      0.22
   -1   15   17     -0.60     -1.78
   -1   15   14      2.15      6.43
   -1   15   11     -1.04      7.35
   -1   15    8      8.79      6.82
   -1   15    5     -0.71     10.49
   -1   15    2      6.10     11.26
  -14   15    1      7.93     10.08
  -14   15    4      4.24      6.01
  -14   15    7     -4.14     12.80
  -14   15   10     -2.57      2.75
  -14   15   13     -4.02      0.94
  -14   15   16      0.18     -5.19
  -14   15   19      2.81      1.36
  -14   15   22      4.08     -0.40
   -2   16   21      0.19      2.94
   -2   16   18      0.41     -4.80
   -2   16   15      0.39     -0.62
   -2   16   12      4.11     -0.91
   -2   16    9      2.79      2.89
   -2   16    6     -0.19      0.76
   -2   16    3     -3.78     -0.48
   -2   16    0      5.29     -1.07
  -14   16    3      4.73     -5.71
  -14   16    6      8.07     -2.91
  -14   16    9      8.77     -4.56
  -14   16   12      5.87     -1.05
  -14   16   15      3.26     -2.23
  -14   16   18      2.97     -3.59
  -14   16   21      1.01      2.20
   -3   17   22     -0.43      0.98
   -3   17   19      0.52      3.44
   -3   17   16     -0.03      0.46
   -3   17   13      0.56      2.57
   -3   17   10      0.48     12.95
   -3   17    7      6.49      4.85
   -3   17    4      6.30     16.04
   -3   17    1      4.62      4.64
  -14   17    2     10.15     12.68
  -14   17    5      5.35      3.06
  -14   17    8      2.73      5.48
  -14   17   11      0.49      1.43
  -14   17   14      0.38      3.99
  -14   17   17     -1.30      4.89
  -14   17   20      0.97     -0.71
   -4   18   20      2.09     -0.22
   -4   18   17      0.26      2.09
   -4   18   14      1.04      2.25
   -4   18   11     -5.45      3.59
   -4   18    8     -3.86      4.48
   -4   18    5      3.46      6.12
   -4   18    2     -2.54     -1.87
  -14   18    1     -0.29     -3.96
  -14   18    4     -6.15      8.04
  -14   18    7      2.07     -0.63
  -14   18   10      0.45     -6.50
  -14   18   13      2.59     -1.04
  -14   18   16      0.71      1.30
  -14   18   19      1.76     -0.98
   -5   19   21     -2.64     -1.38
   -5   19   18     -3.15      0.56
   -5   19   15      2.25     -0.27
   -5   19   12      0.11     -0.16
   -5   19    9     -3.08     -3.82
   -5   19    6      5.48     -1.72
   -5   19    3      6.91     -4.55
   -5   19    0      2.63     -1.28
  -14   19    3      7.96      3.44
  -14   19    6      5.52      0.29
  -14   19    9      9.01      3.98
  -14   19   12      0.21      0.26
  -14   19   15      0.88      2.39
  -14   19   18      2.76      4.73
   -6   20   19     -0.69      2.16
   -6   20   16     -0.13      6.83
   -6   20   13      0.52     -0.77
   -6   20   10     -0.80      2.53
   -6   20    7      2.27     -2.32
   -6   20    4     -9.33      1.86
   -6   20    1     -3.60      0.38
  -14   20    2     -7.11      5.82
  -14   20    5     -5.09     -5.49
  -14   20    8     -8.66     -9.52
  -14   20   11      0.34     -2.23
  -14   20   14     -0.69     -3.24
  -14   20   17     -4.58      2.34
   -7   21   20      1.81      0.26
   -7   21   17     -2.95      4.79
   -7   21   14      8.16     -3.48
   -7   21   11     -2.32      6.61
   -7   21    8     -3.38     -5.95
   -7   21    5     -9.68      1.77
   -7   21    2     -6.91    -10.48
  -14   21    1      3.82     -3.82
  -14   21    4      1.83    -12.17
  -14   21    7      1.38     -6.97
  -14   21   10      5.82     -1.05
  -14   21   13      2.39     -0.22
  -14   21   16      4.53      0.45
  -14   21   19      0.45      1.38
   -8   22   18     -0.12      0.36
   -8   22   15     -2.92     -5.03
   -8   22   12      0.08     10.43
   -8   22    9     -2.22      5.65
   -8   22    6      3.85      7.83
   -8   22    3      1.03      3.43
   -8   22    0     -0.14      3.01
  -14   22    3    -13.60     -5.56
  -14   22    6     -6.47     -3.61
  -14   22    9    -10.32     -2.76
  -14   22   12      0.44      0.41
  -14   22   15      0.93     -1.37
  -14   22   18     -3.73      6.26
   -9   23   19     -1.81     -1.37
   -9   23   16      2.86     -1.32
   -9   23   13     -0.47     -0.74
   -9   23   10     -2.92     -1.55
   -9   23    7      0.26     -3.34
   -9   23    4     -5.84      2.96
   -9   23    1      3.10    -14.38
  -14   23    2     -2.31     -6.05
  -14   23    5      3.13     -5.28
  -14   23    8      6.93      0.70
  -14   23   11      2.73      1.57
  -14   23   14      2.18     -1.41
  -14   23   17     -0.47     -3.49
  -10   24   17     -0.65     -2.21
  -10   24   14     -2.67     -0.49
  -10   24   11      2.24     -2.08
  -10   24    8     -1.14     -1.26
  -10   24    5     -0.66     -3.80
  -10   24    2     -2.19      7.12
  -14   24    1     -0.92     -1.19
  -14   24    4     -3.81     -0.60
  -14   24    7     -0.52      1.48
  -14   24   10     -3.14     -1.35
  -14   24   13      0.74     -2.92
  -14   24   16      2.72     -0.77
  -11   25   15      0.91      0.45
  -11   25   12      0.45     -0.87
  -11   25    9     -0.46     -1.71
  -11   25    6      1.07     -0.41
  -11   25    3     -1.31      6.27
  -11   25    0     -0.94     -3.38
  -14   25    3     -0.44     -2.46
  -14   25    6      0.89     -3.94
  -14   25    9      1.63     -2.19
  -14   25   12      4.50      0.66
  -14   25   15      0.91      1.64
  -12   26   16     -0.21      4.14
  -12   26   13      2.01     -0.77
  -12   26   10      0.48      1.20
  -12   26    7      2.24      5.32
  -12   26    4      4.71      0.59
  -12   26    1      2.29      2.65
  -14   26    2      2.41      3.59
  -14   26    5      3.56      1.50
  -14   26    8      6.10     -1.15
  -14   26   11     -2.43      3.73
  -14   26   14      2.20      4.06
  -13   27   14      2.45     -0.61
  -13   27   11     -1.02     -2.55
  -13   27    8      3.80      2.32
  -13   27    5     -0.62      5.42
  -13   27    2     -1.35     -6.70
  -14   27    1     -1.70      0.50
  -14   27    4      0.34     -4.26
  -14   27    7      0.15      1.03
  -14   27   10     -1.56     -2.15
  -14   27   13     -2.42      2.00
  -14   27   16      0.49     -3.85
  -14   28    0      2.80     -8.69
  -14   28    3      1.86     -1.47
  -14   28    6     -2.31      2.12
  -14   28    9     -0.50      2.48
  -14   28   12     -0.04      1.60
  -14   28   15      0.55      0.75
   -8   15    1      6.42     15.23
   -9   15    6     -0.96     12.99
  -10   15    5     -0.20     10.26
   -4   15   23      1.64     -0.56
    0   15   21     -2.15      0.26
    0   15   18     -1.63      0.56
    0   15   15     -0.84      0.21
    0   15   12     -3.93     -0.56
    0   15    9     -1.27     -0.14
    0   15    6     -7.23      0.30
    0   15    3     -7.01      0.24
    0   15    0    -11.96     -0.19
  -15   15    3      0.42      2.55
  -15   15    6     -7.44     -0.01
  -15   15    9      3.66     -0.27
  -15   15   12      1.72     -0.83
  -15   15   15     -1.35      0.06
  -15   15   18     -4.16     -0.04
  -15   15   21      0.14      0.07
   -1   16   19     -0.65     -0.60
   -1   16   16     -1.12     -3.14
   -1   16   13      4.28     -5.14
   -1   16   10     -0.50    -10.24
   -1   16    7      0.75     -7.15
   -1   16    4      4.91    -11.88
   -1   16    1      5.70     -9.71
  -15   16    2     10.15     -5.45
  -15   16    5     -0.88      6.21
  -15   16    8     -9.21      6.01
  -15   16   11     -3.24      4.04
  -15   16   14     -5.43      1.15
  -15   16   17      2.87      1.62
  -15   16   20     -3.97     -5.98
   -2   17   20      0.29     -0.29
   -2   17   17     -4.32     -9.70
   -2   17   14      4.98     -0.92
   -2   17   11      2.74      5.70
   -2   17    8     -1.76     -5.11
   -2   17    5    -13.03     -4.67
   -2   17    2     -1.37     -8.61
  -15   17    1    -13.53    -18.02
  -15   17    4     -1.66    -18.82
  -15   17    7     -6.36      7.57
  -15   17   10      6.43      4.14
  -15   17   13      3.34      1.41
  -15   17   16      1.25     -3.57
  -15   17   19      1.38     -2.43
   -3   18   21      5.19      0.46
   -3   18   18     -3.83     -2.45
   -3   18   15      1.54     -1.75
   -3   18   12     -2.37     -5.99
   -3   18    9      3.82     -1.25
   -3   18    6     -4.62      0.00
   -3   18    3     -2.88     -0.64
   -3   18    0      0.26     -4.49
  -15   18    3     -5.95     -8.93
  -15   18    6      2.25      9.19
  -15   18    9     -1.54      2.65
  -15   18   12      2.00      6.44
  -15   18   15     -3.90      7.58
  -15   18   18     -0.58      2.57
  -15   18   21      0.34     -0.88
   -4   19   19      3.13     -1.21
   -4   19   16      1.27     -1.65
   -4   19   13     -6.20     -6.76
   -4   19   10      0.34     -1.58
   -4   19    7     -2.67     -0.39
   -4   19    4     -6.35      0.16
   -4   19    1     -5.13     -7.29
  -15   19    2      1.41      5.98
  -15   19    5      2.39    -10.83
  -15   19    8     -4.07      3.93
  -15   19   11      4.35      2.79
  -15   19   14      2.36      2.08
  -15   19   17     -1.99      3.45
  -15   19   20      2.53      0.83
   -5   20   20      0.18     -0.81
   -5   20   17     -2.96      6.72
   -5   20   14      2.88     -3.91
   -5   20   11     -0.04     -0.28
   -5   20    8     -0.35     -1.34
   -5   20    5      0.44     -5.15
   -5   20    2     -9.79      2.46
  -15   20    1     -0.18      5.14
  -15   20    4     -1.15     17.53
  -15   20    7      2.49      1.76
  -15   20   10      1.38      0.52
  -15   20   13      4.17     -1.51
  -15   20   16     -2.78      2.67
  -15   20   19     -4.56      5.56
   -6   21   18     -3.34      4.27
   -6   21   15     -3.51     -8.15
   -6   21   12      2.33     -6.52
   -6   21    9     -4.20     -1.78
   -6   21    6      2.36     -8.72
   -6   21    3     -3.12     -4.55
   -6   21    0     -0.78     -4.50
  -15   21    3      6.93      8.02
  -15   21    6      2.63     -3.15
  -15   21    9     -0.17     -9.25
  -15   21   12      0.18     -2.00
  -15   21   15     -2.47     -1.53
  -15   21   18      5.44      0.49
   -7   22   19     -0.10      3.18
   -7   22   16     -1.79      1.62
   -7   22   13     -1.94      0.01
   -7   22   10     -4.71      4.83
   -7   22    7     -6.56      7.10
   -7   22    4      1.40      3.81
   -7   22    1     -3.26     -0.65
  -15   22    2     -0.53     -1.06
  -15   22    5     -3.32     -6.29
  -15   22    8      8.36     -2.59
  -15   22   11      3.85     -1.68
  -15   22   14     -0.38      2.78
  -15   22   17      2.03      5.76
   -8   23   17      1.53      3.54
   -8   23   14     -1.27     -8.62
   -8   23   11     -1.82     -1.84
   -8   23    8     -1.39      3.51
   -8   23    5      3.47      3.72
   -8   23    2      6.95      7.92
  -15   23    1     -0.93     -1.28
  -15   23    4     -3.88      0.02
  -15   23    7      3.63     -3.25
  -15   23   10     -2.19      1.63
  -15   23   13     -5.79      6.38
  -15   23   16     -3.00      2.33
   -9   24   18      2.43      0.85
   -9   24   15     -7.43      8.42
   -9   24   12      1.84     -0.07
   -9   24    9     -4.67     -1.28
   -9   24    6     -1.23     -3.56
   -9   24    3      4.85     -2.56
   -9   24    0      1.28     -1.04
  -15   24    3     -4.00      2.57
  -15   24    6     -2.25     -6.43
  -15   24    9      0.41      0.15
  -15   24   12      1.34     -4.16
  -15   24   15      0.50     -6.31
  -15   24   18     -2.37     -4.22
  -10   25   16     -2.40      1.35
  -10   25   13     -0.15     -1.43
  -10   25   10     -0.40      2.00
  -10   25    7     -0.21    -11.37
  -10   25    4      1.30     -3.62
  -10   25    1      0.91      0.63
  -15   25    2     -2.95     -1.42
  -15   25    5      0.66      4.46
  -15   25    8     -5.16    -11.92
  -15   25   11     -0.16      6.47
  -15   25   14      0.78     -3.85
  -15   25   17     -1.57      3.06
  -11   26   14      0.74      0.87
  -11   26   11     -1.20      0.41
  -11   26    8     -3.99     -1.07
  -11   26    5     -0.12     -5.78
  -11   26    2      1.01      1.37
  -15   26    1     -1.36     -2.68
  -15   26    4     -3.43     -0.76
  -15   26    7      0.28      0.24
  -15   26   10     -2.46     -2.60
  -15   26   13     -0.41      3.73
  -15   26   16     -0.76     -0.57
  -12   27   15      0.51     -1.00
  -12   27   12      0.93     -2.66
  -12   27    9     -0.68      2.55
  -12   27    6      3.82     -8.84
  -12   27    3     -2.24     -6.83
  -12   27    0     -1.15     -5.11
  -15   27    3      4.14     -9.73
  -15   27    6      1.70      3.92
  -15   27    9     -2.53     -3.34
  -15   27   12     -0.31      4.40
  -15   27   15     -3.22      6.86
  -13   28   13      0.61     -5.92
  -13   28   10     -0.51     -3.28
  -13   28    7     -2.04      4.85
  -13   28    4      3.88      1.06
  -13   28    1     -6.57     -3.16
  -15   28    2      1.68     -2.10
  -15   28    5     -5.13      0.69
  -15   28    8     -9.41      0.96
  -15   28   11      0.18     -1.44
  -15   28   14     -2.18      0.47
  -14   29   14     -2.62     -1.34
  -14   29   11     -0.39      2.65
  -14   29    8     -1.97     -4.68
  -14   29    5      3.67      1.09
  -14   29    2      2.31     -2.65
  -15   29    1      1.09     -4.46
  -15   29    4     -2.33      1.81
  -15   29    7     -0.92      0.27
  -15   29   10      0.23      2.08
  -15   29   13      1.50      3.17
  -15   30    0     -0.65      2.34
  -15   30    3      3.02      6.50
  -15   30    6     -1.84      4.27
  -15   30    9     -1.98     -3.21
  -15   30   12     -2.78     -0.84
   -8   16    0     15.40     -8.46
   -9   16   23      2.11      1.16
   -6   16   23     -3.63      0.18
  -12   16   23      1.67      3.76
   -1   16   22      1.43     -3.10
    0   16   20     -2.94      0.09
    0   16   17      0.12      0.18
    0   16   14      3.17     -0.36
    0   16   11      0.12     -0.04
    0   16    8     -3.77      0.67
    0   16    5     -5.25      0.62
    0   16    2     -2.62     -0.29
  -16   16    1      4.96      0.29
  -16   16    4      2.34      0.54
  -16   16    7     12.91     -0.21
  -16   16   10      2.31     -0.53
  -16   16   13     -0.42      0.02
  -16   16   16     -3.27      0.01
  -16   16   19      0.17     -0.15
  -16   16   22      1.17      0.00
   -1   17   21      1.66      2.21
   -1   17   18     -0.53      2.33
   -1   17   15     -0.37     -1.06
   -1   17   12     -2.39      0.57
   -1   17    9      3.37      5.47
   -1   17    6     -3.31      1.72
   -1   17    3      5.18      7.57
   -1   17    0      7.53     11.15
  -16   17    3      5.98     18.27
  -16   17    6     -4.43      0.28
  -16   17    9     -1.92      3.97
  -16   17   12     -3.84      2.67
  -16   17   15     -0.89      1.00
  -16   17   18     -0.25     -2.30
  -16   17   21     -1.81     -1.65
   -2   18   19      0.26     -2.91
   -2   18   16      2.31      0.68
   -2   18   13      1.52     -3.62
   -2   18   10      5.08     -0.56
   -2   18    7      4.59     10.14
   -2   18    4      0.78      6.55
   -2   18    1      1.76      0.36
  -16   18    2      9.95    -10.21
  -16   18    5     -4.79      1.41
  -16   18    8      8.85     -3.30
  -16   18   11      1.91     -4.40
  -16   18   14      4.65     -1.21
  -16   18   17      0.84     -0.70
  -16   18   20      0.50     -4.67
   -3   19   20      3.86     -0.92
   -3   19   17     -1.97      3.76
   -3   19   14      0.82     -1.50
   -3   19   11      1.90     -1.25
   -3   19    8      4.84      7.69
   -3   19    5     -1.63     10.94
   -3   19    2      8.88     12.32
  -16   19    1      0.39     -2.66
  -16   19    4      6.69      6.33
  -16   19    7     -3.56      2.85
  -16   19   10      2.45      0.85
  -16   19   13     -2.67      5.16
  -16   19   16     -1.98      0.43
  -16   19   19      0.72     -3.61
   -4   20   21      3.70     -2.44
   -4   20   18      0.71      0.89
   -4   20   15     -0.59      1.78
   -4   20   12      2.68     -0.04
   -4   20    9      2.62      4.33
   -4   20    6      2.03      6.66
   -4   20    3      0.14      8.26
   -4   20    0      1.01      3.37
  -16   20    3      0.02      4.70
  -16   20    6     -1.07      7.38
  -16   20    9     -3.61      5.04
  -16   20   12     -4.72     -5.28
  -16   20   15     -0.53     -2.38
  -16   20   18     -0.11     -0.98
   -5   21   19     -0.19      1.42
   -5   21   16     -1.86      0.33
   -5   21   13      7.88      1.69
   -5   21   10     -7.07      5.11
   -5   21    7      3.46     -3.55
   -5   21    4      0.09     -0.50
   -5   21    1     -2.34     -8.22
  -16   21    2      5.11      2.40
  -16   21    5     -5.53     -1.57
  -16   21    8      5.22      4.62
  -16   21   11      0.32      1.64
  -16   21   14      1.44     -1.50
  -16   21   17      2.28     -3.23
   -6   22   20      1.22     -1.52
   -6   22   17     -2.86      5.15
   -6   22   14      1.05     -1.67
   -6   22   11     -0.05      7.97
   -6   22    8      5.17      3.58
   -6   22    5      1.00      5.27
   -6   22    2      1.55      1.13
  -16   22    1      0.08      1.63
  -16   22    4      5.17      8.67
  -16   22    7     -6.30     -2.71
  -16   22   10     -0.38     -0.18
  -16   22   13     -5.64     -2.99
  -16   22   19      0.02     -0.04
   -7   23   18      1.81      2.45
   -7   23   15      7.15     -1.63
   -7   23   12      0.97     -4.56
   -7   23    9     -1.10      7.41
   -7   23    6     -3.59     -0.56
   -7   23    3     -9.06     -1.51
   -7   23    0      2.19     -9.32
  -16   23    3     -1.06     -0.14
  -16   23    6      0.29     -3.55
  -16   23    9      0.87      3.24
  -16   23   12     -0.44      3.69
  -16   23   15      2.83      2.90
  -16   23   18     -1.55      0.24
   -8   24   16      2.25      0.92
   -8   24   13     -3.56     -1.20
   -8   24   10      2.01      0.06
   -8   24    7      1.10      5.71
   -8   24    4     -2.00     -1.12
   -8   24    1      0.82      9.78
  -16   24    2      2.60      6.67
  -16   24    5     -2.35      1.98
  -16   24    8    -15.22      3.88
  -16   24   11     -1.39     -2.38
  -16   24   14     -2.87      3.49
  -16   24   17      1.79      3.31
   -9   25   17      5.62      1.35
   -9   25   14     -1.57     -2.67
   -9   25   11      2.62      1.80
   -9   25    8     -0.05      2.81
   -9   25    5     -0.91      0.83
   -9   25    2     -0.35     -1.65
  -16   25    1      3.83      3.59
  -16   25    4     -8.71      4.84
  -16   25    7      1.82     -0.24
  -16   25   10     -2.89     -0.05
  -16   25   13      7.31     -0.64
  -16   25   16      1.09     -5.63
  -10   26   15      1.00      3.93
  -10   26   12     -0.54      3.80
  -10   26    9      0.55      1.18
  -10   26    6     -3.44      3.78
  -10   26    3      0.13      4.22
  -10   26    0     -0.59      5.86
  -16   26    3     -8.55      3.94
  -16   26    6     -3.29     -0.88
  -16   26    9     -1.05      1.34
  -16   26   12     -1.38     -2.12
  -16   26   15      1.24      1.43
  -11   27   16      0.96      0.08
  -11   27   13      0.71      0.64
  -11   27   10      1.38      2.07
  -11   27    7      1.68     -0.18
  -11   27    4      3.03      0.74
  -11   27    1     -1.21      2.54
  -16   27    2     -0.38      0.00
  -16   27    5      2.07      4.79
  -16   27    8      0.32     -0.51
  -16   27   11      0.91     -2.92
  -16   27   14     -0.74      5.86
  -12   28   14     -3.24     -0.72
  -12   28   11      1.08      0.60
  -12   28    8     -2.62      2.68
  -12   28    5      5.59     -1.58
  -12   28    2      1.37      4.13
  -16   28    1     -1.02      0.68
  -16   28    4      2.27      2.44
  -16   28    7     -0.47      1.43
  -16   28   10      3.34     -3.29
  -16   28   13      0.89      0.09
  -13   29   12      0.59      0.25
  -13   29    9      1.53      3.81
  -13   29    6      2.87     -3.76
  -13   29    3      3.44     -1.68
  -13   29    0     -0.74      4.06
  -16   29    3     -0.01     -1.67
  -16   29    6      3.61      6.99
  -16   29    9     -0.27     -2.32
  -16   29   12      1.04     -3.46
  -16   29   15      0.29      4.21
  -14   30   13     -2.05     -0.75
  -14   30   10     -1.45     -1.21
  -14   30    7     -0.27     -0.82
  -14   30    4      3.38     -5.96
  -14   30    1      2.56      3.27
  -16   30    2     -2.43      3.74
  -16   30    5      0.84     -2.96
  -16   30    8      3.51      4.94
  -16   30   11      1.84     -3.34
  -16   30   14     -1.42     -0.19
  -15   31   11      1.52     -0.15
  -15   31    8     -0.67      2.01
  -15   31    5     -1.71      3.61
  -15   31    2     -0.38      0.41
  -16   31    1      2.52      1.55
  -16   31    4     -0.23      2.49
  -16   31    7     -0.16      0.42
  -16   31   10      1.03     -0.33
  -16   31   13     -4.23      1.60
  -16   32    0      1.48    -10.44
  -16   32    3      0.15     -0.22
  -16   32    6     -0.23     -3.64
  -16   32    9      1.05     -0.37
  -16   32   12      0.81     -1.24
   -8   17   23      1.92      2.63
   -6   17   22     -0.85      0.13
  -11   17   23      0.08     -0.41
  -15   17   22     -3.14     -0.95
    0   17   22      0.47      0.17
    0   17   19     -3.33     -0.23
    0   17   16     -4.61     -0.09
    0   17   13     -5.34      0.22
    0   17   10     -5.31      0.30
    0   17    7     -5.96      0.80
    0   17    4     -8.92      0.15
    0   17    1    -10.18      0.40
  -17   17    2    -17.99      0.40
  -17   17    5     -9.74     -0.06
  -17   17    8    -10.14     -0.05
  -17   17   11      7.15     -0.24
  -17   17   14      3.21      0.23
  -17   17   17     -1.22     -0.04
  -17   17   20      4.16      0.15
   -1   18   20     -0.79     -0.20
   -1   18   17      1.19      1.28
   -1   18   14     -0.69      1.96
   -1   18   11    -12.11     -6.32
   -1   18    8      6.32     -3.75
   -1   18    5     -1.82     -4.26
   -1   18    2      3.21     -5.34
  -17   18    1     -4.17      3.62
  -17   18    4     -0.11      1.37
  -17   18    7     -7.85      1.35
  -17   18   10     -3.20      0.92
  -17   18   13      3.09      0.16
  -17   18   16      0.50      2.07
  -17   18   19      2.13      0.90
   -2   19   21     -0.34     -0.01
   -2   19   18      0.89     -1.25
   -2   19   15     -3.35      7.64
   -2   19   12     -6.58     -0.19
   -2   19    9      8.29      2.42
   -2   19    6     -6.52     -3.60
   -2   19    3     -0.88     -2.70
   -2   19    0    -12.96     -2.33
  -17   19    3     -0.40     -2.97
  -17   19    6     -6.87     -6.15
  -17   19    9     -2.45     -9.70
  -17   19   12      4.85     -0.57
  -17   19   15      3.21     -2.42
  -17   19   18      0.60     -2.19
   -3   20   19      1.88     -0.61
   -3   20   16     -0.27      3.30
   -3   20   13     -2.23     -3.59
   -3   20   10     -1.12      7.65
   -3   20    7      7.96     -5.23
   -3   20    4     -4.79      0.65
   -3   20    1     -1.72      0.88
  -17   20    2     -5.35     -0.13
  -17   20    5     -7.54     11.65
  -17   20    8     -4.12      1.65
  -17   20   11     -3.74      6.87
  -17   20   14     -1.56     -1.84
  -17   20   17      0.07     -0.73
   -4   21   20     -0.71      0.30
   -4   21   17     -0.13     -1.55
   -4   21   14     -6.85     -9.38
   -4   21   11     -3.21      1.73
   -4   21    8      0.10     -5.56
   -4   21    5     -4.94     -5.70
   -4   21    2      6.27     -3.67
  -17   21    1     -3.27      3.98
  -17   21    4      3.59     -7.56
  -17   21    7     -4.62     -2.50
  -17   21   10      5.75     -5.15
  -17   21   13      1.71     -0.59
  -17   21   16      0.30      1.04
  -17   21   19      0.40      0.82
   -5   22   18     -1.76      7.35
   -5   22   15     -1.00      3.34
   -5   22   12     -4.42      4.40
   -5   22    9     -3.23      1.81
   -5   22    6     -1.75      4.92
   -5   22    3     -4.88      5.68
   -5   22    0     -3.73     -4.98
  -17   22    3     -1.71      7.59
  -17   22    6     -5.96     -2.40
  -17   22    9      9.49      1.15
  -17   22   12      1.35      1.61
  -17   22   15     -0.05     -1.68
  -17   22   18      0.22      1.20
   -6   23   19     -1.24      2.41
   -6   23   16     -2.49      0.76
   -6   23   13     -0.13     -2.97
   -6   23   10      5.00     -3.53
   -6   23    7      1.64      3.24
   -6   23    4      2.54     -0.75
   -6   23    1      4.22     -0.98
  -17   23    2      7.06      3.74
  -17   23    5      2.62      4.29
  -17   23    8      5.08      2.69
  -17   23   11      1.15     -4.11
  -17   23   17      1.21     -3.03
   -7   24   17     -2.39      1.94
   -7   24   14     -3.34      0.23
   -7   24   11     -2.07     -3.23
   -7   24    8     -3.32     -0.70
   -7   24    5      1.22     -0.63
   -7   24    2     -5.98     -2.71
  -17   24    1     -3.12     -1.40
  -17   24    4      2.86      3.27
  -17   24    7     -1.80      0.06
  -17   24   10     -1.10     -0.20
  -17   24   13     -1.12     -2.01
  -17   24   16      2.65      1.13
   -8   25   18      2.86     -0.23
   -8   25   15     -4.99     -7.17
   -8   25   12      1.27     -3.35
   -8   25    9      2.21     -6.27
   -8   25    6      1.36     -0.96
   -8   25    3      3.70      4.13
   -8   25    0      5.19     -2.71
  -17   25    3      5.14      9.38
  -17   25    6      0.11      2.74
  -17   25    9      1.62      4.32
  -17   25   12     -4.60      3.80
  -17   25   15      4.26     -1.65
   -9   26   16     -2.06     -2.63
   -9   26   13     -0.22      3.86
   -9   26   10     -3.03      2.98
   -9   26    7      4.27     -0.59
   -9   26    4     -3.25      0.62
   -9   26    1      0.14      2.07
  -17   26    2     -3.64     -4.97
  -17   26    5     -3.01      0.29
  -17   26    8      1.96      5.49
  -17   26   11     -2.31     -1.18
  -17   26   14      6.18     -7.15
  -17   26   17     -0.86     -3.66
  -10   27   14     -3.44      1.79
  -10   27   11      1.93     -1.09
  -10   27    8      0.33     -0.08
  -10   27    5      1.94     -8.82
  -10   27    2      3.03      1.85
  -17   27    1     -0.17     -5.69
  -17   27    4      3.41     -1.38
  -17   27    7      0.48      3.24
  -17   27   10     -1.29     -2.90
  -17   27   13      0.07      0.52
  -17   27   16     -0.39      1.28
  -11   28   15      2.33     -1.35
  -11   28   12     -1.40      1.93
  -11   28    9     -3.40     -0.88
  -11   28    6      1.70      0.45
  -11   28    3      0.48      1.43
  -11   28    0     -1.03      3.90
  -17   28    3      0.20      2.24
  -17   28    6     -2.01      1.49
  -17   28    9     -2.61     -3.14
  -17   28   12      0.19      0.03
  -17   28   15      0.92     -3.39
  -12   29   13     -1.07      1.10
  -12   29   10     -0.33     -0.18
  -12   29    7     -3.91     -0.38
  -12   29    4     -1.06     -2.78
  -12   29    1      3.46     -3.64
  -17   29    2      2.91      1.13
  -17   29    5     -0.63     -0.26
  -17   29    8      0.60     -0.62
  -17   29   11      1.09     -4.52
  -17   29   14      0.51     -0.42
  -13   30   11     -2.10      1.78
  -13   30    8     -1.69     -0.96
  -13   30    5      0.67     -3.30
  -13   30    2     -1.14      2.83
  -17   30    1      0.84      1.79
  -17   30    4      0.89      3.72
  -17   30    7     -0.37     -1.77
  -17   30   10     -0.28     -2.83
  -17   30   13      2.22      1.42
  -14   31   12     -0.67      2.08
  -14   31    9     -0.40     -1.47
  -14   31    6     -3.80      3.10
  -14   31    3      0.09      2.67
  -14   31    0     -1.50      2.37
  -17   31    3     -0.23      0.24
  -17   31    6     -1.27      0.82
  -17   31    9      3.03      2.15
  -17   31   12     -0.27      1.40
  -15   32   10     -1.60     -2.93
  -15   32    7      0.70      2.71
  -15   32    4      0.15     -0.14
  -15   32    1      0.17      1.93
  -17   32    2      0.86     -1.19
  -17   32    5     -0.48     -3.42
  -17   32    8      4.45      0.45
  -17   32   11     -1.17     -1.17
  -16   33   11     -0.40     -1.36
  -16   33    8     -2.08      2.09
  -16   33    5     -0.57      0.76
  -16   33    2     -1.34     -1.88
  -17   33    1     -2.36     -3.68
  -17   33    4     -0.71      0.23
  -17   33    7      0.08      4.96
  -17   33   10      1.95     -0.59
  -17   34    0      1.46      0.68
  -17   34    3     -1.26     -0.24
  -17   34    9     -0.60      1.92
   -8   18   22      1.95      0.11
  -11   18   22     -2.02     -0.32
   -5   18   22     -0.95      3.07
  -14   18   22      2.74      0.51
   -2   18   22      2.34     -1.78
    0   18   18      1.74     -0.23
    0   18   15      7.78     -0.08
    0   18   12      2.08      0.00
    0   18    9      8.68     -0.17
    0   18    6      5.04      0.34
    0   18    3      7.38      0.41
    0   18    0     15.25     -0.22
  -18   18    3      8.00      0.07
  -18   18    6     10.20      0.34
  -18   18    9      2.25      0.24
  -18   18   12      1.16      0.36
  -18   18   15      4.96     -0.29
  -18   18   18      6.04     -0.14
   -1   19   19      0.34      3.40
   -1   19   16      1.51      5.36
   -1   19   13     -1.70      0.24
   -1   19   10      8.75      9.30
   -1   19    7     -6.31     -3.60
   -1   19    4      3.08     -3.19
   -1   19    1      1.32     -2.13
  -18   19    2     -2.76     -2.94
  -18   19    5      1.07     -1.02
  -18   19    8     -1.69     -1.58
  -18   19   11     -0.75     -2.69
  -18   19   14     -3.28     -1.18
  -18   19   17     -2.41      0.17
  -18   19   20      4.61      0.05
   -2   20   20      0.02      3.41
   -2   20   17      1.54      0.60
   -2   20   14      2.45     -0.03
   -2   20   11     13.58      5.39
   -2   20    8     12.19      0.80
   -2   20    5      8.54      0.74
   -2   20    2      2.42     -1.60
  -18   20    1     11.49     -0.64
  -18   20    4      9.14     -6.92
  -18   20    7      4.73     -2.26
  -18   20   10      1.49      0.92
  -18   20   13     -4.19     -2.23
  -18   20   16     -0.58      0.56
  -18   20   19      3.07     -0.70
   -3   21   18     -0.67     -4.28
   -3   21   15     -0.06     -3.41
   -3   21   12     -1.30     -3.15
   -3   21    9      7.15     -1.73
   -3   21    6      3.45      1.82
   -3   21    3      9.32      2.33
   -3   21    0     -3.12     -3.82
  -18   21    3      0.13     -4.40
  -18   21    6     -8.93     -6.24
  -18   21    9      1.58      1.04
  -18   21   12      3.73      1.32
  -18   21   15     -0.50      0.09
  -18   21   18     -1.70     -0.84
   -4   22   19     -0.64      0.14
   -4   22   16     -1.99     -1.27
   -4   22   13     -0.75     -1.34
   -4   22   10      0.04     -6.44
   -4   22    7      7.85     -7.15
   -4   22    4      3.97      7.84
   -4   22    1      2.28     -3.12
  -18   22    2     -1.35     -2.20
  -18   22    5      6.64     -7.02
  -18   22    8      1.43    -10.20
  -18   22   11      2.08     -3.12
  -18   22   14     -0.99     -0.58
  -18   22   17      1.99     -0.62
   -5   23   17      1.56      0.74
   -5   23   14     -2.03      7.75
   -5   23   11      2.40     -1.85
   -5   23    8      6.30     -2.66
   -5   23    5     -1.03      3.58
   -5   23    2      4.93     -9.36
  -18   23    1      0.21     -1.76
  -18   23    4     -1.21     -4.53
  -18   23    7     -4.79     -0.73
  -18   23   10      2.95      1.81
  -18   23   13      1.38      0.77
  -18   23   16      3.77     -2.69
   -6   24   18     -4.24     -0.42
   -6   24   15     -3.68      6.37
   -6   24   12      1.07     -3.18
   -6   24    9     -5.78     -1.82
   -6   24    6      7.75      2.52
   -6   24    3      4.46     -6.90
   -6   24    0      0.35     -0.70
  -18   24    3      8.93      1.93
  -18   24    6     -0.29     -0.91
  -18   24    9      0.24     -8.54
  -18   24   12     -4.50     -3.12
  -18   24   15     -2.26     -4.14
  -18   24   18     -1.53     -0.87
   -7   25   16      0.52     -1.41
   -7   25   13      2.54      0.36
   -7   25   10      2.74     -6.11
   -7   25    7      1.71     -4.39
   -7   25    4     -3.42     -0.47
   -7   25    1      2.93     -6.39
  -18   25    2      2.09      6.87
  -18   25    5      2.96     -6.44
  -18   25    8      0.23     -2.44
  -18   25   11      1.21      0.69
  -18   25   14     -1.66     -2.61
  -18   25   17      0.91     -0.72
   -8   26   17      0.06     -0.36
   -8   26   14     -0.25      0.51
   -8   26   11      0.94     -0.06
   -8   26    8     -1.85     -1.91
   -8   26    5     -3.21     -0.87
   -8   26    2      2.17     -3.41
  -18   26    1      2.10      0.53
  -18   26    4     -1.04     -9.58
  -18   26    7      3.03      3.40
  -18   26   10      0.01     -2.33
  -18   26   13      2.34      0.36
  -18   26   16     -0.39     -0.12
   -9   27   15      2.85     -6.95
   -9   27   12      1.92      1.80
   -9   27    9      7.30      3.66
   -9   27    6      2.98     -4.56
   -9   27    3      1.38      1.88
   -9   27    0      0.73     -6.38
  -18   27    3      1.65     -4.00
  -18   27    6      5.06      4.61
  -18   27    9      0.83      2.72
  -18   27   12      1.93      0.05
  -18   27   15     -0.29     -2.72
  -10   28   13     -1.21      0.63
  -10   28   10      0.68      3.16
  -10   28    7     -1.56      2.39
  -10   28    4      3.20      2.27
  -10   28    1     -2.62     -0.36
  -18   28    2     -1.53     -3.22
  -18   28    5     -4.43     -4.37
  -18   28    8      3.98      8.27
  -18   28   11     -4.66      1.85
  -18   28   14     -0.37      1.80
  -11   29   14      2.31     -2.97
  -11   29   11      2.22      1.16
  -11   29    8      1.91      3.91
  -11   29    5      0.88      1.03
  -11   29    2      0.07      0.34
  -18   29    1     -1.07     -1.35
  -18   29    4      1.56     -0.17
  -18   29    7     -0.12      1.53
  -18   29   10     -2.90      5.59
  -18   29   13      0.61     -2.40
  -12   30   12      2.30      1.98
  -12   30    9     -5.37      0.77
  -12   30    6      0.35      2.27
  -12   30    3     -1.28     -2.16
  -12   30    0     -2.54     -1.91
  -18   30    3     -0.35      1.13
  -18   30    6     -2.46     -1.69
  -18   30    9      1.63     -2.61
  -18   30   12     -0.45      0.70
  -13   31   10     -1.52      2.34
  -13   31    7      2.51     -1.96
  -13   31    4     -0.35     -0.31
  -13   31    1     -0.57      3.38
  -18   31    2      2.22      2.51
  -18   31    5      2.18      3.95
  -18   31    8     -0.23      1.11
  -18   31   11     -1.62      0.32
  -14   32   11      0.63     -1.61
  -14   32    8     -0.26      1.18
  -14   32    5     -0.87     -3.03
  -14   32    2     -0.88      4.64
  -18   32    1     -1.29      0.33
  -18   32    4     -1.21     -1.58
  -18   32    7      1.92      4.26
  -18   32   10     -0.56     -1.85
  -15   33    9     -1.06     -1.32
  -15   33    3     -3.95      0.67
  -15   33    0      1.73     -0.45
  -18   33    3     -0.28     -0.55
  -18   33    6      0.75     -0.05
  -18   33    9     -1.51      2.97
  -16   34   10     -1.39     -2.16
  -16   34    7     -1.36     -1.02
  -16   34    4     -5.29     -0.99
  -16   34    1      1.79     -2.66
  -18   34    2     -0.27      0.80
  -18   34    5     -2.17     -0.03
  -17   35    8      4.52     -2.39
  -17   35    5     -2.80      3.58
  -17   35    2      1.02      1.33
  -18   35    1      0.17     -0.44
  -18   35    4     -0.94     -0.78
  -18   36    0     -0.98     -1.90
  -18   36    3     -1.85      4.43
  -10   19   22      2.84     -0.51
  -11   19   21      1.62      3.18
   -7   19   22     -2.81      0.83
  -13   19   22      2.74     -1.35
  -14   19   21     -0.56     -0.30
  -17   19   21      1.11     -1.71
    0   19   17      0.29      0.02
    0   19   14     -6.46      0.06
    0   19   11     -2.84     -0.67
    0   19    8     -2.63     -0.29
    0   19    5    -12.33      0.42
    0   19    2      2.27      0.32
  -19   19    1     -6.40     -0.39
  -19   19    4     -1.64      0.40
  -19   19    7     -5.19     -0.15
  -19   19   10     -1.83      0.49
  -19   19   13     -1.17     -0.16
  -19   19   16      1.78     -0.01
  -19   19   19      1.90      0.28
   -1   20   18     -0.89      0.41
   -1   20   15      1.43      5.48
   -1   20   12     -2.59      2.65
   -1   20    9      0.47      0.11
   -1   20    6     -3.98     -6.27
   -1   20    3     -3.18     -5.64
   -1   20    0     -7.68     -3.87
  -19   20    3     -2.62      4.37
  -19   20    6     -0.96      3.30
  -19   20    9     -3.82      2.70
  -19   20   12     -7.56      4.13
  -19   20   15     -3.74      3.03
  -19   20   18     -1.87      4.06
   -2   21   19     -0.70      0.82
   -2   21   16     -2.30      1.31
   -2   21   13     -5.30     -2.20
   -2   21   10     -3.76     -3.04
   -2   21    7     -4.15      5.49
   -2   21    4     -3.95      1.50
   -2   21    1     -0.48      8.04
  -19   21    2     -3.76      4.11
  -19   21    5     10.91     -2.96
  -19   21    8     -5.36     -3.79
  -19   21   11      2.48     -1.36
  -19   21   14     -0.57     -0.99
  -19   21   17     -0.18     -1.82
   -3   22   17     -2.61     -1.25
   -3   22   14     -0.29      1.72
   -3   22   11     -3.11     -0.94
   -3   22    8     -3.49      2.09
   -3   22    5     -1.87      4.95
   -3   22    2     -4.02     -0.70
  -19   22    1     -3.68      8.19
  -19   22    4     -7.58      1.64
  -19   22    7      2.97      4.37
  -19   22   10     -0.72      3.62
  -19   22   13     -1.37     -2.54
  -19   22   16      0.52     -2.41
  -19   22   19     -0.35     -1.49
   -4   23   18     -0.26     -1.04
   -4   23   15      1.33     -0.34
   -4   23   12     -1.03     -2.06
   -4   23    9      3.18     -5.66
   -4   23    6     -4.33     -0.91
   -4   23    3      2.96     -2.14
   -4   23    0     -2.76      2.32
  -19   23    3      1.89     -0.73
  -19   23    6      2.93     -3.92
  -19   23    9     -0.33     -2.41
  -19   23   12      1.96     -1.19
  -19   23   18     -4.76     -1.48
   -5   24   16     -2.00      3.19
   -5   24   13     -1.94      4.07
   -5   24   10     -2.64      3.94
   -5   24    7     -8.94      5.15
   -5   24    4      3.92      5.47
   -5   24    1     -2.03     -6.19
  -19   24    2      2.19      7.18
  -19   24    5     -4.04      1.35
  -19   24    8      1.43      6.28
  -19   24   11      2.22      4.82
  -19   24   17     -2.29     -0.03
   -6   25   17      1.99     -2.05
   -6   25   14      0.69      9.10
   -6   25   11     -0.05     -4.23
   -6   25    8     -3.85     -0.50
   -6   25    5      1.53      5.65
   -6   25    2      2.56     -2.16
  -19   25    1      1.38      9.10
  -19   25    4      3.14      0.44
  -19   25    7      4.11      0.70
  -19   25   10      0.63     -3.77
  -19   25   13     -3.05     -6.04
  -19   25   16     -2.90     -3.88
   -7   26   15      1.92      0.63
   -7   26   12     -5.69      7.49
   -7   26    9     -2.25     -2.48
   -7   26    6     -4.05      0.00
   -7   26    3     -0.90     -1.17
   -7   26    0     -1.26      2.30
  -19   26    3     -3.25     -2.54
  -19   26    6      3.66     -2.41
  -19   26    9     -0.96      1.26
  -19   26   12      4.43     -1.52
  -19   26   15      2.64     -3.28
   -8   27   16      2.43      0.02
   -8   27   13      0.75      5.23
   -8   27   10     -3.66     -6.46
   -8   27    7     -0.20      0.38
   -8   27    4      1.35     -5.97
   -8   27    1      3.84     -5.91
  -19   27    2      1.74      0.69
  -19   27    5     -0.56     -2.81
  -19   27    8      7.74      2.97
  -19   27   11     -1.52      1.94
  -19   27   14      3.34      1.86
   -9   28   14     -1.44     -0.05
   -9   28   11     -0.48      4.95
   -9   28    8     -0.03      1.13
   -9   28    5     -1.76     -0.44
   -9   28    2     -5.49      3.00
  -19   28    1     -0.98      1.26
  -19   28    4     -2.45     -2.96
  -19   28    7     -2.74      0.40
  -19   28   10      0.61      3.46
  -19   28   13     -3.18      1.48
  -19   28   16      1.04      2.43
  -10   29   12     -0.80      1.86
  -10   29    9     -0.69      2.07
  -10   29    6      0.87     -2.10
  -10   29    3      2.21      0.71
  -10   29    0     -0.53      2.31
  -19   29    3      4.79      0.11
  -19   29    6      2.30      0.69
  -19   29    9     -2.47     -0.38
  -19   29   12      2.21      5.69
  -19   29   15     -0.33     -2.44
  -11   30   13      2.31     -0.17
  -11   30   10      4.30      0.62
  -11   30    7     -2.53      0.79
  -11   30    4     -0.83     -3.61
  -11   30    1     -5.14      3.29
  -19   30    2      1.17      0.53
  -19   30    5     -0.11      0.02
  -19   30    8      0.46     -5.81
  -19   30   11      2.51      1.95
  -19   30   14     -0.11     -0.41
  -12   31   11     -1.40      0.90
  -12   31    8     -1.77      3.83
  -12   31    5     -1.35     -2.57
  -12   31    2      1.16     -1.64
  -19   31    1      1.16      4.26
  -19   31    4      0.62      3.22
  -19   31    7      3.67     -0.53
  -19   31   10     -3.70      0.70
  -19   31   13      0.90      1.45
  -13   32    9      1.46     -2.82
  -13   32    6      0.28      1.04
  -13   32    3      3.03      0.76
  -13   32    0      0.59     -1.47
  -19   32    3      2.45      1.60
  -19   32    6     -0.44     -2.40
  -19   32    9      0.28      1.41
  -19   32   12      0.21     -2.79
  -14   33   10      1.48      1.58
  -14   33    7     -1.50      4.40
  -14   33    4     -1.40      5.91
  -14   33    1     -0.81     -1.79
  -19   33    2      0.11     -1.56
  -19   33    5     -1.20      0.48
  -19   33    8      0.88      0.99
  -19   33   11     -2.13     -0.79
  -15   34    8      2.01     -3.75
  -15   34    2      1.85      0.29
  -19   34    1      2.46     -2.77
  -19   34    4      0.31     -2.39
  -19   34   10     -1.58      0.61
  -16   35    3      0.43      0.28
  -16   35    0     -2.07     -0.37
  -19   35    3      1.69     -4.51
  -19   35    6      0.12      2.67
  -19   35    9     -0.53     -3.32
  -17   36    4      0.82      1.00
  -17   36    1      2.09     -1.17
  -19   36    2      0.54      2.28
  -19   36    5      0.17     -3.64
  -10   20   21     -2.08     -2.05
   -9   20   22     -2.24      0.44
  -11   20   20     -4.00      0.32
  -13   20   21      1.41     -0.29
  -14   20   20      0.29      0.95
  -16   20   21      0.94      1.55
  -17   20   20     -0.45      2.94
    0   20   16      3.39      0.04
    0   20   13      7.27     -0.63
    0   20   10      6.83     -0.03
    0   20    7      0.33      0.28
    0   20    4     13.62     -0.07
    0   20    1     10.54      0.69
  -20   20    2      3.41     -0.16
  -20   20    5      7.49      0.23
  -20   20    8      3.70     -0.11
  -20   20   11     -2.79      0.61
  -20   20   14     -0.33      0.26
  -20   20   17     -0.31      0.40
   -1   21   17      0.00      0.40
   -1   21   14      3.52      1.48
   -1   21   11     -1.84     -3.52
   -1   21    8     -4.35     -2.52
   -1   21    5      0.29      3.76
   -1   21    2     -2.04      1.83
  -20   21    1    -10.59     -7.12
  -20   21    4     -6.15     -0.06
  -20   21    7      0.03      0.32
  -20   21   10     -2.52      1.94
  -20   21   13     -4.70     -0.19
  -20   21   16     -1.80     -0.27
  -20   21   19     -0.53     -1.08
   -2   22   18      0.11      0.56
   -2   22   15      1.46      2.97
   -2   22   12      2.46     -0.38
   -2   22    9      0.95     -1.37
   -2   22    6     -1.73      7.04
   -2   22    3      7.53      1.52
   -2   22    0      3.13     -1.71
  -20   22    3      1.44      1.37
  -20   22    6      2.78      1.44
  -20   22    9      0.69      4.07
  -20   22   12     -0.86     -0.54
  -20   22   15      1.31     -8.36
  -20   22   18      3.06     -2.06
   -3   23   19      0.49     -2.72
   -3   23   16     -0.70     -0.39
   -3   23   13      1.67      2.67
   -3   23   10      1.23     -1.55
   -3   23    7     -0.38      2.06
   -3   23    4     -1.23     -4.42
   -3   23    1     -1.98     -9.48
  -20   23    2     -8.05      2.48
  -20   23    5      0.01      0.50
  -20   23    8     -4.72      7.04
  -20   23   11     -0.69      3.73
  -20   23   17      0.12     -0.86
   -4   24   17     -0.86     -2.05
   -4   24   14      0.58     -1.20
   -4   24   11     -1.49     -5.88
   -4   24    8     -0.04      0.60
   -4   24    5     -1.46      2.70
   -4   24    2     -8.71     -7.55
  -20   24    1     -1.46     -5.39
  -20   24    4     -1.39      3.11
  -20   24    7      2.22     -5.53
  -20   24   10     -0.49      5.79
  -20   24   13     -2.28      5.25
  -20   24   16     -3.14     -0.37
   -5   25   18      2.27     -1.89
   -5   25   15     -1.26     -1.28
   -5   25   12      5.80      7.07
   -5   25    9     -0.28     -7.13
   -5   25    6     -1.82      5.42
   -5   25    3     -1.27     -6.47
   -5   25    0     -3.94      6.05
  -20   25    3     -2.03      7.81
  -20   25    6     -0.52     -0.62
  -20   25    9     -2.23      5.69
  -20   25   12     -1.20     -1.06
  -20   25   15     -2.30      4.17
   -6   26   16      2.31     -3.33
   -6   26   13      0.10      1.02
   -6   26   10     -3.72     -3.14
   -6   26    7      1.75     -1.71
   -6   26    4     -0.71     -0.58
   -6   26    1     -2.28      1.20
  -20   26    2      1.28      6.54
  -20   26    5     -0.40     -1.75
  -20   26    8     -1.57     -5.03
  -20   26   11     -0.78     -5.56
  -20   26   14      5.46     -2.30
  -20   26   17     -1.32      0.04
   -7   27   14      7.26     -0.27
   -7   27   11      3.36     -0.36
   -7   27    8      2.55     -3.14
   -7   27    5      2.75     -2.04
   -7   27    2      3.74     -0.39
  -20   27    1      3.31      7.92
  -20   27    4     -0.36     -2.76
  -20   27    7      0.65      7.54
  -20   27   10      1.90     -1.19
  -20   27   13      2.19      1.24
  -20   27   16      2.25      0.34
   -8   28   15     -0.69     -2.47
   -8   28   12      0.99      0.56
   -8   28    9     -3.25     -1.02
   -8   28    6      0.42     -0.50
   -8   28    3     -4.97     -0.65
   -8   28    0     -1.07     -0.59
  -20   28    3     -1.58     -5.21
  -20   28    6     -0.63     -6.34
  -20   28    9     -1.12      4.42
  -20   28   12     -1.09      1.16
  -20   28   15     -2.54      6.18
   -9   29   13     -0.46      0.19
   -9   29   10      0.65     -1.70
   -9   29    7      2.38      1.42
   -9   29    4      2.11      4.72
   -9   29    1      0.35      2.92
  -20   29    2      1.73      3.84
  -20   29    5      0.83     -7.09
  -20   29    8      1.38     -1.41
  -20   29   11      0.72      1.31
  -20   29   14      2.01      0.18
  -10   30   11     -0.77     -2.03
  -10   30    8      0.26     -3.34
  -10   30    5      0.87      0.14
  -10   30    2     -2.76      3.59
  -20   30    1      3.44     -1.80
  -20   30    4     -2.73     -2.23
  -20   30    7      1.96     -2.59
  -20   30   10      5.22      1.79
  -20   30   13      2.01     -0.44
  -11   31   12      1.78     -0.35
  -11   31    9      0.49     -2.90
  -11   31    6      1.65     -3.46
  -11   31    3      0.52     -2.37
  -11   31    0      0.49      0.23
  -20   31    3      0.93      3.19
  -20   31    6      0.02     -0.37
  -20   31    9      3.79      2.95
  -20   31   12      0.89     -0.84
  -12   32   10     -0.95     -1.57
  -12   32    7      3.41      1.71
  -12   32    4      1.19     -3.97
  -12   32    1     -1.89     -0.59
  -20   32    2      0.42     -3.01
  -20   32    5     -0.25      1.33
  -20   32    8     -3.03     -0.82
  -20   32   11      1.14      0.80
  -13   33    8     -1.46      1.60
  -13   33    5      0.94      1.51
  -13   33    2      2.05     -0.36
  -20   33    1     -0.82     -2.17
  -20   33    4     -0.57      0.12
  -20   33    7      1.77     -0.44
  -14   34    9     -0.27      0.88
  -14   34    6      0.98      6.90
  -14   34    3     -1.12     -1.37
  -14   34    0     -0.91      1.54
  -20   34    3     -2.74      0.13
  -20   34    6      1.48      1.79
  -15   35    7      2.08      0.13
  -15   35    1      1.26      1.40
  -20   35    2      1.24      0.07
  -20   35    5     -2.63     -0.62
  -16   36    2      1.81     -0.98
  -20   36    1      1.82      1.50
  -20   36    4      1.73      0.86
   -9   21   21     -1.18     -1.60
  -12   21   21     -0.37     -1.86
  -13   21   20     -1.16      0.04
   -6   21   21     -2.52     -2.56
  -15   21   21     -0.91      0.88
  -16   21   20      0.86     -0.33
   -1   21   20     -0.03      1.30
    0   21   18      4.94     -0.08
    0   21   15      1.73     -0.11
    0   21   12      1.09     -0.21
    0   21    9     -6.67      0.91
    0   21    6      1.02     -2.77
    0   21    3     -1.45     -1.72
    0   21    0     -3.55      0.68
  -21   21    3     -6.43      0.21
  -21   21    6     11.29      0.09
  -21   21    9      4.07      0.35
  -21   21   12      2.85      0.08
  -21   21   15     -3.93      0.33
  -21   21   18      2.17      0.06
   -1   22   19     -0.37     -0.79
   -1   22   16      0.66      3.46
   -1   22   13      0.47      1.20
   -1   22   10      1.88     -1.60
   -1   22    7     -0.07     10.56
   -1   22    4     -3.44     -4.95
   -1   22    1     -2.70     -7.84
  -21   22    2     -1.75     -2.37
  -21   22    5     -4.88      0.54
  -21   22    8     -1.45     -5.10
  -21   22   11     -2.11      1.87
  -21   22   14     -2.06      0.32
   -2   23   17      0.12     -0.88
   -2   23   14      0.61      3.60
   -2   23   11      0.43     -0.52
   -2   23    8     -2.54      1.30
   -2   23    5     -0.39     -0.52
   -2   23    2      6.09     -1.41
  -21   23    1     -5.33     -3.56
  -21   23    4      7.22      1.55
  -21   23    7      1.57     -4.66
  -21   23   10      2.69     -3.88
  -21   23   13      3.95     -0.11
   -3   24   18     -1.57     -2.44
   -3   24   15     -1.90      3.41
   -3   24   12      3.73      2.76
   -3   24    9     -5.50      1.55
   -3   24    6      0.21      6.75
   -3   24    3     -7.47     -3.19
   -3   24    0      1.03      0.97
  -21   24    3      3.02      0.76
  -21   24    6      0.71      4.55
  -21   24    9     -0.01      1.26
  -21   24   12      0.68      4.41
  -21   24   15      0.68      3.31
  -21   24   18      2.52     -1.73
   -4   25   16      0.93      0.67
   -4   25   13      4.11      1.71
   -4   25   10     -0.02     -0.74
   -4   25    7     -1.64      0.58
   -4   25    4      0.92     -1.52
   -4   25    1     -3.93     -2.37
  -21   25    2      0.37     -0.23
  -21   25    5      0.40     -8.28
  -21   25    8     -1.10      0.68
  -21   25   11     -0.27     -3.17
  -21   25   14      0.73     -5.80
  -21   25   17     -0.52      1.83
   -5   26   17      0.26     -0.64
   -5   26   14     -1.14      0.07
   -5   26   11     -2.47     -0.07
   -5   26    8      0.70     -3.58
   -5   26    5      1.99      2.11
   -5   26    2      4.19      1.53
  -21   26    1      5.34      3.20
  -21   26    4      4.26      2.56
  -21   26    7      0.68      3.24
  -21   26   10     -1.22      0.98
  -21   26   13      1.76     -0.35
  -21   26   16      3.14      1.09
   -6   27   15      2.23      3.57
   -6   27   12      5.99     -0.04
   -6   27    9      0.56     -2.49
   -6   27    6      0.83     -1.06
   -6   27    3      2.95      2.58
   -6   27    0      4.66      5.31
  -21   27    3      0.65     -0.23
  -21   27    6     -6.09      2.44
  -21   27    9      1.57      0.98
  -21   27   12     -2.69     -4.06
  -21   27   15      3.96     -0.91
   -7   28   13      2.25      4.25
   -7   28   10      1.28      1.39
   -7   28    7      1.71     -1.37
   -7   28    4      0.08     -1.45
   -7   28    1     -2.83      2.52
  -21   28    2      1.79     -2.71
  -21   28    5     -2.11      1.80
  -21   28    8     -3.02      5.30
  -21   28   11     -0.87     -0.26
  -21   28   14      0.05      1.66
   -8   29   14     -2.16      0.50
   -8   29   11     -0.34      4.49
   -8   29    8      1.62      5.54
   -8   29    5      1.34     -4.92
   -8   29    2      1.35     -0.84
  -21   29    1     -0.08     -0.62
  -21   29    4     -0.44     -4.39
  -21   29    7      1.16     -1.48
  -21   29   10     -2.36     -3.01
  -21   29   13     -1.04     -0.77
   -9   30   12      2.50     -2.52
   -9   30    9     -6.11      0.17
   -9   30    6      1.34     -2.43
   -9   30    3      2.62      0.68
   -9   30    0     -4.46     -0.36
  -21   30    3     -0.48     -6.41
  -21   30    6     -1.69     -3.75
  -21   30    9      4.09     -3.33
  -21   30   12     -0.48      0.68
  -10   31   10     -3.72     -0.36
  -10   31    7     -0.16     -0.64
  -10   31    4      2.48     -2.01
  -10   31    1      0.26      1.45
  -21   31    2      1.53      3.11
  -21   31    5     -0.06      0.76
  -21   31    8      2.77      0.64
  -11   32   11      2.78      1.40
  -11   32    8     -2.80     -2.16
  -11   32    5      1.94     -2.08
  -11   32    2     -0.68      0.14
  -21   32    1     -3.37     -4.56
  -21   32    4     -0.88     -0.26
  -21   32    7      1.69     -1.97
  -12   33    9     -0.48      1.13
  -12   33    6     -0.04     -1.10
  -12   33    3     -3.26      3.60
  -12   33    0      1.24     -1.12
  -21   33    3     -1.14      2.70
  -21   33    6     -0.29     -0.81
  -13   34    7      1.01      2.78
  -13   34    1      0.76      1.79
  -21   34    2     -1.24     -1.47
  -21   34    5      1.13      3.18
  -21   34    8      2.57     -0.47
  -14   35    8      0.91      3.08
  -14   35    5     -0.59      2.36
  -14   35    2     -0.45     -1.35
  -21   35    1     -2.17      1.94
  -21   35    4     -1.49      1.73
  -21   35    7     -1.54      1.32
  -15   36    6      2.10      2.05
  -15   36    3      0.23     -1.74
  -15   36    0      0.95     -1.51
  -21   36    3     -0.43      0.15
  -21   36    6      1.30      2.79
  -16   37    1      5.28     -2.73
  -11   22   21     -3.31     -0.11
  -12   22   20      1.41      0.62
  -13   22   19     -3.32     -1.98
  -15   22   20     -2.35      2.49
  -16   22   16     -1.24     -3.29
  -21   22   17      0.37     -2.53
    0   22   14      4.66      0.14
    0   22   11      1.85     -1.15
    0   22    8      0.17     -0.75
    0   22    5     11.11     -7.93
    0   22    2      4.03     -0.42
  -22   22    1      3.49     -0.28
  -22   22    4      7.06      0.36
  -22   22    7     -4.14      0.27
  -22   22   10      0.27      0.01
  -22   22   13      0.38     -0.03
  -22   22   16      1.88      0.09
   -1   23   18     -3.37     -5.36
   -1   23   15     -3.68     -3.40
   -1   23   12     -1.18    -10.57
   -1   23    9     -2.03     -2.26
   -1   23    6      3.39     -7.13
   -1   23    3     -0.81     -0.34
   -1   23    0      5.05    -11.38
  -22   23    3     -4.26     -4.82
  -22   23    6      0.09     -5.77
  -22   23    9     -6.66     -0.59
  -22   23   12     -2.41      4.40
  -22   23   18      0.12      1.23
   -2   24   16     -1.87      0.68
   -2   24   13      0.89     -1.30
   -2   24   10     -2.50     -9.63
   -2   24    7      1.10     -2.67
   -2   24    4      3.30      1.98
   -2   24    1     -1.48      0.14
  -22   24    2     -3.91     -3.32
  -22   24    5     -1.22      6.64
  -22   24    8      0.17     -3.89
  -22   24   11     -0.25      0.96
  -22   24   17      0.13     -1.40
   -3   25   17     -2.22      0.81
   -3   25   14     -0.53      0.13
   -3   25   11     -1.82     -1.08
   -3   25    8     -1.43     -5.74
   -3   25    5      0.00      0.01
   -3   25    2     -1.91     -6.25
  -22   25    1      2.73     -2.32
  -22   25    4      0.33     -1.42
  -22   25    7     -1.79     -1.13
  -22   25   10     -4.89     -1.97
  -22   25   16      1.74      0.10
   -4   26   15     -2.10     -2.52
   -4   26   12     -7.02     -4.34
   -4   26    9     -0.20     -3.55
   -4   26    6      3.16     -1.92
   -4   26    3      1.58     -1.38
   -4   26    0      2.93     -4.23
  -22   26    3     -0.54     -4.04
  -22   26    6      0.39      3.47
  -22   26    9      1.31     -6.40
  -22   26   12      1.56     -3.45
  -22   26   15      0.90     -2.74
   -5   27   16      0.66     -0.12
   -5   27   13     -0.75     -3.05
   -5   27   10     -0.70      1.01
   -5   27    7      3.39     -0.38
   -5   27    4     -1.74     -0.87
   -5   27    1      1.12      4.44
  -22   27    2      0.43      2.31
  -22   27    5      0.25      4.49
  -22   27    8      5.53      3.87
  -22   27   11     -0.06     -1.57
  -22   27   14      1.22      3.75
   -6   28   14      3.57     -1.57
   -6   28   11     -2.63      0.56
   -6   28    8      0.81     -5.50
   -6   28    5     -3.84      1.59
   -6   28    2     -3.94      0.60
  -22   28    1     -4.87     -0.14
  -22   28    4     -3.04     -0.07
  -22   28    7     -0.91      0.77
  -22   28   10      2.71     -1.22
  -22   28   13     -1.69      1.74
   -7   29   12      0.84      1.16
   -7   29    9      2.76      6.98
   -7   29    6      0.77      1.24
   -7   29    3      2.27     -0.94
   -7   29    0      1.15      2.27
  -22   29    3      0.30      1.60
  -22   29    6     -0.96      4.26
  -22   29    9      4.62     -3.97
  -22   29   12      0.07     -0.20
  -22   29   15     -1.63      2.68
   -8   30   10     -1.59      3.53
   -8   30    7     -2.27     -4.17
   -8   30    4     -3.47     -0.99
   -8   30    1      1.25     -0.80
  -22   30    2      0.45     -5.32
  -22   30    5      1.02     -5.22
  -22   30    8     -0.16      0.39
  -22   30   11     -0.12      1.71
  -22   30   14     -1.73      0.12
   -9   31   11      0.87     -6.18
   -9   31    8     -1.69      2.04
   -9   31    5      0.46     -1.98
   -9   31    2      2.02      0.65
  -22   31    1      1.64      3.55
  -22   31    4     -0.36     -3.09
  -22   31    7      1.59     -2.13
  -22   31   10     -1.81      4.73
  -22   31   13      1.80     -1.04
  -10   32    9     -1.05      5.58
  -10   32    6      0.51     -2.95
  -10   32    3     -0.82      1.88
  -10   32    0      0.05     -2.49
  -22   32    3     -0.26     -3.58
  -22   32    6      0.77     -0.77
  -22   32    9     -0.19      4.02
  -22   32   12     -4.54      3.32
  -11   33    7      2.39      0.01
  -11   33    4     -0.81     -2.61
  -11   33    1     -0.54     -0.99
  -22   33    2      1.28     -1.40
  -22   33    5     -1.12     -0.39
  -22   33    8     -0.94     -2.54
  -12   34    8      2.39      0.16
  -12   34    5      3.16     -1.83
  -12   34    2     -0.49      2.43
  -22   34    1     -1.20     -5.57
  -22   34    4      1.60     -0.53
  -22   34    7     -1.92      1.71
  -13   35    6     -0.62     -0.23
  -13   35    0     -1.46     -0.70
  -22   35    3      2.13     -0.50
  -22   35    6      1.50      1.86
  -14   36    1      2.44     -0.15
  -22   36    2     -3.67     -0.38
  -22   36    5     -1.61     -2.93
  -11   23   20     -1.42      3.27
  -14   23   20      3.01     -3.12
   -8   23   20     -0.33     -3.49
  -15   23   19      1.71      2.51
  -17   23   14     -2.06     -4.03
  -18   23   19     -1.31     -1.46
  -19   23   15     -2.12      0.15
  -20   23   14      0.29      3.31
  -21   23   16     -0.59      1.65
  -22   23   15     -0.03      3.32
    0   23   13     -0.59     -0.14
    0   23   10     -3.43     -0.17
    0   23    7     -2.08     -1.18
    0   23    4     -1.13     -3.83
    0   23    1      8.16      1.67
  -23   23    2      3.26      0.00
  -23   23    5      7.42      0.08
  -23   23    8      6.39      0.09
  -23   23   11      2.92     -0.01
  -23   23   14     -0.38     -0.09
  -23   23   17      1.67     -0.10
   -1   24   17     -0.67     -0.83
   -1   24   14     -2.57     -2.17
   -1   24   11      3.47      5.36
   -1   24    8     -5.94      2.59
   -1   24    5     -1.13     -0.77
   -1   24    2     -1.43      4.67
  -23   24    1      3.42      3.88
  -23   24    4     -1.85      1.69
  -23   24    7      1.92      3.97
  -23   24   10     -1.52     -1.14
  -23   24   16     -1.29     -1.27
   -2   25   15      4.88      2.15
   -2   25   12      4.99      2.76
   -2   25    9     -0.04     -2.36
   -2   25    6     -1.27      0.20
   -2   25    3     -0.60      2.66
   -2   25    0      1.69     -1.69
  -23   25    3      4.03      2.96
  -23   25    6      5.59     -1.20
  -23   25    9     -0.32     -4.51
  -23   25   12      0.34     -1.45
  -23   25   15     -1.97      0.06
   -3   26   16      0.52     -1.12
   -3   26   13     -1.43      1.02
   -3   26   10     -0.34      1.31
   -3   26    7     -2.15      1.34
   -3   26    4      1.18      6.06
   -3   26    1      5.37      2.96
  -23   26    2      5.52     -1.54
  -23   26    5      5.57      2.45
  -23   26    8     -0.35     -3.55
  -23   26   11     -1.28      1.87
  -23   26   14      1.90     -0.52
   -4   27   14      0.05     -0.37
   -4   27   11      1.34      6.74
   -4   27    8      1.08      1.37
   -4   27    5      1.72      3.01
   -4   27    2     -4.81      8.34
  -23   27    1     -3.17     -0.78
  -23   27    4     -2.26      0.94
  -23   27    7     -3.42      0.29
  -23   27   10      0.62     -3.42
  -23   27   13     -0.68     -0.19
  -23   27   16      2.45      1.24
   -5   28   15      1.02     -0.19
   -5   28   12     -1.90     -1.74
   -5   28    9      1.96     -1.56
   -5   28    6      0.20      2.01
   -5   28    3     -3.57      1.33
   -5   28    0     -3.37      1.58
  -23   28    3     -1.12     -0.71
  -23   28    6      1.60      5.03
  -23   28    9     -0.71     -1.16
  -23   28   12      2.94      3.16
  -23   28   15      3.00      3.61
   -6   29   13     -1.15     -1.30
   -6   29   10      1.42      3.57
   -6   29    7      2.09      0.85
   -6   29    4     -1.41     -1.20
   -6   29    1     -0.97      1.22
  -23   29    2      0.52     -1.34
  -23   29    5     -1.62      1.92
  -23   29    8     -0.87     -3.14
  -23   29   11      0.73     -2.21
  -23   29   14     -1.34      1.28
   -7   30   11     -2.39     -1.52
   -7   30    8     -2.39      1.19
   -7   30    5     -0.41     -2.23
   -7   30    2      0.39     -1.22
  -23   30    1      1.57     -0.51
  -23   30    4      2.95      0.06
  -23   30    7     -1.25      0.79
  -23   30   10      0.33     -0.61
   -8   31    9      0.46     -1.12
   -8   31    6     -2.85     -1.30
   -8   31    3      1.24      1.60
   -8   31    0     -0.72      2.89
  -23   31    3     -1.08      0.97
  -23   31    6     -0.90      1.96
  -23   31    9     -0.28     -2.98
   -9   32   10     -0.96      1.84
   -9   32    7     -0.22     -0.84
   -9   32    4      1.94      1.22
   -9   32    1     -0.31      0.74
  -23   32    2     -1.14     -2.07
  -23   32    5     -1.82     -1.48
  -23   32    8      1.61     -2.23
  -10   33    8      0.27      0.99
  -10   33    5     -0.56      0.74
  -10   33    2      0.30      1.75
  -23   33    1     -0.88      0.22
  -23   33    4     -0.10      0.82
  -23   33    7     -2.99     -0.11
  -23   33   10     -0.94      0.24
  -11   34    6      0.85     -1.81
  -11   34    3     -0.22     -1.92
  -11   34    0     -1.21     -1.25
  -23   34    3      1.10     -2.96
  -23   34    6      2.40      0.21
  -23   34    9     -0.58     -1.21
  -12   35    7     -2.43     -1.57
  -12   35    4     -3.07      2.20
  -12   35    1     -1.74     -0.66
  -23   35    2      1.54     -1.63
  -23   35    5      0.44     -0.88
  -13   36    5     -3.51     -0.63
  -23   36    1      0.91      0.08
  -11   24   19      0.78     -3.85
  -14   24   19      3.08     -2.79
   -8   24   19      0.20     -2.28
  -17   24   19      0.42      2.72
  -19   24   14     -7.24      2.42
  -22   24   14      0.64      1.63
  -23   24   13     -1.21      0.20
    0   24   12      1.56      0.32
    0   24    9     -4.69      0.97
    0   24    6      1.32     -0.41
    0   24    3     -6.81      0.93
    0   24    0     -4.38      0.40
  -24   24    3     -7.91     -0.21
  -24   24    6     -2.21     -0.08
  -24   24    9      2.66     -0.27
  -24   24   12      2.45      0.12
   -1   25   16     -1.36     -2.39
   -1   25   13     -1.54     -2.94
   -1   25   10     -1.11     -4.55
   -1   25    7     -1.16     -5.18
   -1   25    4     -3.58      2.45
   -1   25    1      0.26     -3.59
  -24   25    2      0.58     -0.76
  -24   25    5      0.43      1.83
  -24   25    8     -1.43     -2.27
  -24   25   11     -1.28      1.77
  -24   25   14     -0.63     -0.32
   -2   26   14     -1.35     -8.33
   -2   26   11      1.14     -4.09
   -2   26    8     -3.17     -0.09
   -2   26    5     -1.60     -0.86
   -2   26    2      1.44     -0.96
  -24   26    1      0.82      2.13
  -24   26    4     -0.42      2.68
  -24   26    7     -1.13     -1.80
  -24   26   10     -1.41     -1.61
  -24   26   13      1.40      1.87
  -24   26   16      2.54     -2.31
   -3   27   15     -2.50     -0.11
   -3   27   12     -3.46     -1.69
   -3   27    9     -4.93      2.57
   -3   27    6      0.07     -0.96
   -3   27    3     -3.11      4.47
   -3   27    0     -1.77     -1.36
  -24   27    3      0.06     -1.76
  -24   27    6     -3.05     -0.31
  -24   27    9     -2.65      0.81
  -24   27   12      0.43      3.23
  -24   27   15     -0.19      1.35
   -4   28   13      0.12     -3.31
   -4   28   10     -2.34     -3.01
   -4   28    7     -3.96     -0.74
   -4   28    4     -1.81      0.37
   -4   28    1     -2.12      1.94
  -24   28    2     -5.94     -1.99
  -24   28    5     -5.82      2.09
  -24   28    8     -2.97     -1.94
  -24   28   11      1.14     -1.07
   -5   29   11     -1.39      1.87
   -5   29    8     -0.21      1.31
   -5   29    5     -0.89     -4.04
   -5   29    2      0.78      0.76
  -24   29    1      1.33     -4.09
  -24   29    4      1.55     -4.45
  -24   29    7      0.94      2.20
  -24   29   10      1.72     -2.02
   -6   30   12     -3.63     -1.40
   -6   30    9     -1.72     -1.71
   -6   30    6     -0.69     -3.43
   -6   30    3     -0.86     -2.92
   -6   30    0      1.22     -4.45
  -24   30    3      3.60     -0.38
  -24   30    6      0.64     -2.02
  -24   30    9     -1.40     -0.15
   -7   31   10      0.01      2.91
   -7   31    7     -0.64     -0.40
   -7   31    4     -0.45     -0.28
   -7   31    1      0.54      2.47
  -24   31    2      0.09      2.65
  -24   31    5     -0.53      4.11
  -24   31    8      0.82      1.54
  -24   31   11      0.06      0.48
   -8   32    8     -0.43     -0.04
   -8   32    5     -0.42     -0.06
   -8   32    2      1.80     -0.34
  -24   32    1     -1.09      2.20
  -24   32    4      0.20      0.39
  -24   32    7      0.77      2.47
  -24   32   10      0.87      1.63
   -9   33    6     -0.20      1.75
   -9   33    3      0.08      0.03
   -9   33    0     -0.97      1.74
  -24   33    3     -1.80      1.60
  -24   33    6     -3.13     -2.74
  -24   33    9      2.70     -0.16
  -10   34    7     -1.38     -0.69
  -10   34    4      1.50      1.94
  -24   34    2     -1.52      1.14
  -24   34    5      0.38      1.46
  -24   34    8      0.57     -1.18
  -11   35    5     -5.00     -0.69
  -24   35    1     -1.10      2.11
  -24   35    4      0.18      3.44
  -12   36    0     -4.25     -2.33
  -24   36    3      3.01      2.79
  -11   25   18      1.04     -0.26
  -14   25   18      4.17      1.30
  -10   25   19     -0.93      0.47
  -17   25   18      0.86     -2.05
  -22   25   13      0.23      0.21
    0   25   14     -4.50      0.26
    0   25   11      4.78      0.04
    0   25    8      2.51      0.07
    0   25    5      1.14     -0.07
    0   25    2     -0.02     -0.08
  -25   25    1      5.20     -0.65
  -25   25    4      3.88     -0.56
  -25   25    7      2.53     -0.06
  -25   25   10      2.51     -0.02
  -25   25   13      0.45      0.13
  -25   25   16     -2.39     -0.04
   -1   26   15     -0.95     -3.28
   -1   26   12     -0.98     -3.70
   -1   26    9     -0.88      1.50
   -1   26    6      0.39     -0.04
   -1   26    3      4.67      0.74
   -1   26    0      5.32      4.88
  -25   26    3      1.71      2.04
  -25   26    6      0.68      0.46
  -25   26    9     -0.84     -1.78
  -25   26   12     -1.23      0.90
  -25   26   15     -2.36     -1.76
   -2   27   13      2.36     -2.36
   -2   27   10      3.46      5.10
   -2   27    7      2.19     -0.54
   -2   27    4      0.17     -1.15
   -2   27    1      4.82     -1.88
  -25   27    2      5.01     -2.33
  -25   27    5      3.92      0.45
  -25   27    8     -1.60     -2.68
  -25   27   11      0.76      2.09
  -25   27   14     -0.74     -0.20
   -3   28   14     -1.13      0.91
   -3   28   11      2.30     -3.71
   -3   28    8      0.72      1.61
   -3   28    5     -0.60      2.27
   -3   28    2      1.28      0.47
  -25   28    1      0.48     -1.92
  -25   28    4     -2.28     -1.00
  -25   28    7      2.35     -0.27
  -25   28   10     -3.26      3.91
  -25   28   13     -0.91      0.96
   -4   29   12      3.61      1.10
   -4   29    9      2.37      2.14
   -4   29    6     -1.18     -0.66
   -4   29    3      0.63      0.75
   -4   29    0     -1.84      0.00
  -25   29    3     -0.46     -4.32
  -25   29    6     -2.12     -0.40
  -25   29    9     -0.72      1.01
  -25   29   12     -1.33     -0.16
   -5   30   10      0.04     -2.29
   -5   30    7      0.49      3.42
   -5   30    4      3.11     -4.40
   -5   30    1     -0.80     -2.94
  -25   30    2      1.17     -6.20
  -25   30    5     -2.41     -1.42
  -25   30    8      0.63     -2.77
  -25   30   11     -1.95     -0.52
   -6   31   11      2.30      1.00
   -6   31    8      0.29      2.55
   -6   31    5      1.12     -0.25
   -6   31    2      1.81     -0.59
  -25   31    1     -0.94     -0.86
  -25   31    4     -2.77      1.68
  -25   31    7     -1.89      1.99
  -25   31   10      0.86     -2.06
   -7   32    9      1.61     -0.29
   -7   32    6     -1.26      1.06
   -7   32    3      3.26     -2.20
   -7   32    0     -0.72      3.09
  -25   32    3      3.60      2.29
  -25   32    6      0.13      6.34
  -25   32    9      1.23     -1.01
   -8   33    7     -2.08      1.16
   -8   33    4      0.70      1.34
   -8   33    1     -1.40     -2.23
  -25   33    2     -3.02      3.41
  -25   33    5     -0.74     -0.52
  -25   33    8      0.29     -0.61
   -9   34    5      0.43      2.17
   -9   34    2      1.17     -2.59
  -25   34    1     -1.05     -0.21
  -25   34    4      0.78      0.47
  -25   34    7      2.37     -3.58
  -10   35    3     -0.34      0.56
  -25   35    3      0.63      4.31
  -25   36    2      0.42      6.35
  -14   26   17      0.60      1.27
  -11   26   17     -1.36      2.49
  -10   26   18     -1.44      1.13
  -16   26   18      2.72      1.99
  -19   26   18      3.60      1.21
    0   26   13     -3.12     -0.15
    0   26   10      0.60     -0.17
    0   26    7     -0.99      0.12
    0   26    4     -1.24     -0.35
    0   26    1     -1.96     -0.37
  -26   26    2     -6.99     -0.03
  -26   26    5     -3.92      0.38
  -26   26    8     -2.01      0.17
  -26   26   11     -1.60     -0.02
  -26   26   14      2.21     -0.07
   -1   27   14     -0.15      1.87
   -1   27   11     -2.28     -2.38
   -1   27    8     -0.08      0.84
   -1   27    5     -0.26     -2.81
   -1   27    2      1.66     -3.42
  -26   27    1     -2.25     -3.44
  -26   27    4     -2.07      2.83
  -26   27    7     -0.62     -3.70
  -26   27   10      0.19      0.43
  -26   27   13      1.24     -1.22
   -2   28   12      1.06     -1.12
   -2   28    9      1.32      1.34
   -2   28    6     -1.07      0.73
   -2   28    3     -2.76     -4.47
   -2   28    0     -2.17     -0.40
  -26   28    3     -1.32      1.96
  -26   28    6      0.81      0.72
  -26   28    9      4.98     -2.07
  -26   28   12      2.74     -1.92
   -3   29   13     -0.41      1.52
   -3   29   10      0.63      1.78
   -3   29    7      0.40      0.03
   -3   29    4     -1.52      2.95
   -3   29    1     -0.10      3.31
  -26   29    2     -2.90     -2.22
  -26   29    5      1.25      5.47
  -26   29    8      1.53      2.34
  -26   29   11      1.73      0.10
   -4   30   11     -1.42     -0.88
   -4   30    8     -0.42     -2.45
   -4   30    5      0.92      1.53
   -4   30    2      0.21      0.17
  -26   30    1     -3.97      1.36
  -26   30    4     -0.42      0.68
  -26   30    7     -0.75      0.56
  -26   30   10      0.02      0.70
   -5   31    9      0.21      0.91
   -5   31    6      0.83      3.06
   -5   31    3     -0.84      2.31
   -5   31    0      2.24      0.50
  -26   31    3     -1.84     -2.46
  -26   31    6      1.41      0.50
  -26   31    9      2.31      2.22
   -6   32    7      1.66      1.44
   -6   32    4     -0.23     -1.09
   -6   32    1      0.09     -1.00
  -26   32    2      1.90      5.54
  -26   32    5      1.67      0.95
  -26   32    8      4.49      0.55
   -7   33    5     -2.38      1.28
   -7   33    2     -3.43      0.05
  -26   33    1     -3.31      2.43
  -26   33    4     -1.04      2.44
  -26   33    7      0.72     -1.47
   -8   34    6      1.29      1.98
   -8   34    3      0.76     -3.18
  -26   34    3      2.04      1.96
  -26   34    6     -1.26     -1.61
   -9   35    4      4.70     -0.33
   -9   35    1     -1.26      1.23
  -26   35    2      3.69      1.12
  -26   35    5     -4.21      1.47
  -10   36    2     -0.19     -2.89
  -26   36    1      3.25      2.40
  -16   27   17      2.51     -0.53
  -10   27   17      1.17     -0.66
  -19   27   17     -5.19     -0.29
    0   27   12      3.86     -0.49
    0   27    9      2.73      0.99
    0   27    6      4.67      0.10
    0   27    3      0.18      0.15
    0   27    0      0.10      0.16
  -27   27    3     -1.84     -0.10
  -27   27    6     -0.32     -0.09
  -27   27    9      0.05      0.13
  -27   27   12     -4.46      0.12
   -1   28   13     -0.79     -2.43
   -1   28   10      0.79      1.53
   -1   28    7      2.28      0.21
   -1   28    4     -1.07     -4.31
   -1   28    1      0.39      1.29
  -27   28    2     -4.38      1.87
  -27   28    5      0.60      0.00
  -27   28    8      2.25     -1.69
  -27   28   11     -2.72      0.30
   -2   29   11      2.12      0.25
   -2   29    8      1.21      1.42
   -2   29    5      1.89      1.18
   -2   29    2     -0.12      0.21
  -27   29    1      0.40      0.20
  -27   29    4      3.39      4.81
  -27   29    7      1.96      1.34
  -27   29   10      2.28      0.02
   -3   30    9     -0.22     -2.22
   -3   30    6      1.20     -0.34
   -3   30    3      1.12      1.08
   -3   30    0     -2.21      1.78
  -27   30    3     -1.80      0.21
  -27   30    6     -1.52      0.22
  -27   30    9     -4.01      0.41
   -4   31   10      1.21     -2.96
   -4   31    7      0.30     -2.47
   -4   31    4      1.96      2.85
   -4   31    1      0.98     -0.24
  -27   31    2      3.08      1.29
  -27   31    5      2.19     -0.78
  -27   31    8      0.08      4.61
   -5   32    8      1.34     -2.13
   -5   32    5      2.22     -0.20
   -5   32    2      0.21     -0.55
  -27   32    1      2.34      0.70
  -27   32    4      0.70     -1.23
  -27   32    7      3.71     -0.94
   -6   33    6      3.04     -0.15
   -6   33    3     -2.71      1.33
   -6   33    0     -1.70     -3.64
  -27   33    3     -0.15     -4.26
  -27   33    6     -1.26      0.44
   -7   34    4     -0.94     -0.24
   -7   34    1      1.23      1.85
  -27   34    5     -0.57     -0.10
   -8   35    2      1.37      2.59
  -27   35    4      1.24     -0.36
  -13   28   16      2.76     -6.00
  -15   28   17      0.53      0.40
  -12   28   17      0.28      0.84
  -16   28   16     -0.26      1.32
  -10   28   16     -1.56     -2.60
  -24   28   14      0.38      3.33
    0   28   11     -1.71     -0.40
    0   28    8      2.91      4.83
    0   28    5     -1.06      0.33
    0   28    2     -1.58      0.64
  -28   28    1     -1.76      0.02
  -28   28    4      0.78     -0.23
  -28   28    7      0.76     -0.25
  -28   28   10      1.25      0.01
   -1   29   12     -0.29     -0.11
   -1   29    9     -0.99      1.09
   -1   29    6     -2.35      0.85
   -1   29    3     -0.33      2.51
   -1   29    0      2.03     -1.10
  -28   29    3      3.07      5.57
  -28   29    6      1.74      3.89
  -28   29    9     -2.95     -2.08
   -2   30   10     -4.30      1.13
   -2   30    7     -0.09     -0.75
   -2   30    4     -1.41      1.88
   -2   30    1     -3.07     -0.02
  -28   30    2      4.36     -0.22
  -28   30    5     -1.34     -2.52
  -28   30    8     -2.88     -2.10
   -3   31    8      0.01     -4.33
   -3   31    5     -1.55     -0.28
   -3   31    2      2.03      4.93
  -28   31    1      0.33     -2.34
  -28   31    4      3.94      3.27
  -28   31    7     -0.43     -2.92
   -4   32    6      1.58     -3.79
   -4   32    3      1.37      1.61
   -4   32    0      2.77      0.96
  -28   32    3      1.33      1.56
  -28   32    6      1.53     -1.96
   -5   33    4     -0.86      1.62
   -5   33    1      1.65      0.11
  -28   33    2     -3.09     -3.49
  -28   33    5     -3.48     -1.51
   -6   34    2     -1.25     -0.17
  -28   34    1      3.09     -2.27
  -28   34    4     -1.64     -1.76
   -7   35    0     -4.74     -0.84
  -28   35    3     -4.09     -4.17
  -15   29   16      0.67      2.65
  -13   29   15      2.30     -4.85
  -12   29   16      3.64      1.08
  -10   29   15     -4.05     -0.15
   -5   29   14     -1.56      1.72
  -24   29   13      5.17     -0.80
    0   29   10      0.54      0.57
    0   29    7      2.60      1.13
    0   29    4      1.80     -0.02
    0   29    1      2.73     -0.03
  -29   29    2      3.60     -0.16
  -29   29    5      2.12     -0.27
  -29   29    8      2.91     -0.16
   -1   30    8     -0.81     -2.37
   -1   30    5     -2.86      1.47
   -1   30    2     -0.15     -2.18
  -29   30    1     -0.76     -3.43
  -29   30    4      1.88     -2.34
  -29   30    7     -3.94     -2.39
   -2   31    9     -2.92     -2.15
   -2   31    6      3.18     -0.06
   -2   31    3      1.54     -0.03
   -2   31    0      0.39     -4.96
  -29   31    3      1.10     -0.90
  -29   31    6      0.37     -3.37
   -3   32    7     -3.75     -4.38
   -3   32    4     -0.20      0.91
   -3   32    1      0.49     -0.93
  -29   32    2      0.14     -2.70
  -29   32    5     -1.16     -2.52
   -4   33    2      0.99      0.82
  -29   33    1      2.75     -0.91
   -5   34    0     -2.64      0.46
  -15   30   15     -1.33     -1.02
  -13   30   14      4.03     -1.86
  -12   30   15      0.39      0.83
  -18   30   15     -3.13     -0.07
  -10   30   14     -0.12     -0.13
   -8   30   13      1.46     -2.07
  -23   30   13      1.95      0.39
  -24   30   12     -1.15      1.63
   -5   30   13      0.93     -0.34
   -3   30   12      1.44      1.74
  -28   30   11      0.18     -1.92
  -29   30   10     -7.41     -0.85
    0   30    9      2.51      0.27
    0   30    6     -0.97     -0.30
    0   30    3     -2.04      0.56
    0   30    0      1.14      0.13
  -30   30    3      1.92     -0.34
  -30   30    6     -3.51     -0.09
  -30   30    9      3.46     -0.45
   -1   31    7     -0.80      1.04
   -1   31    4     -0.16      1.89
   -1   31    1     -1.03     -2.32
  -30   31    2     -0.87      4.75
  -30   31    5     -1.10      3.54
   -2   32    5      0.19     -0.48
   -2   32    2     -2.66      1.74
  -30   32    1      1.31     -1.76
  -30   32    4     -1.57     -1.79
   -3   33    3      0.41      3.14
   -3   33    0     -2.31      0.24
  -30   33    3      1.88      1.04
  -30   34    2     -1.04     -2.07
  -15   31   14      0.64      1.94
  -13   31   13     -0.08      2.49
  -18   31   14     -3.22      1.26
  -12   31   14     -1.25     -0.15
  -10   31   13     -0.57     -2.07
  -21   31   11     -2.14      4.41
   -8   31   12      0.48     -0.99
  -23   31   12     -4.19      1.15
  -27   31   11      1.13      2.40
  -28   31   10     -2.36      0.62
  -29   31    9     -0.09      1.82
  -30   31    8     -0.01     -3.44
    0   31    5     -0.88      0.13
    0   31    2      0.39      0.40
  -31   31    1      0.28      0.17
  -31   31    4     -2.89      0.09
   -1   32    3      0.06      0.11
   -1   32    0     -6.00     -0.65
  -31   32    3     -1.18     -1.38
  -31   33    2     -2.22      2.96
  -15   32   13     -2.98     -1.01
  -18   32   13     -2.06     -2.89
  -13   32   12      1.40      2.00
  -21   32   10     -1.75     -0.15
  -10   32   12     -1.28     -3.69
  -23   32   11     -0.40      1.87
   -8   32   11      1.62     -0.31
   -6   32   10     -2.11     -0.91
   -4   32    9      0.57     -3.15
  -28   32    9      2.47      0.29
  -29   32    8      0.86     -1.64
    0   32    1      4.66      0.14
  -32   32    2     -3.50      0.07
  -15   33   12     -1.75     -2.03
  -15   33    6      2.65      1.12
  -18   33   12     -1.10      0.41
  -13   33   11      1.00      0.16
  -20   33   10     -0.27     -1.48
  -21   33    9     -3.97     -1.39
  -11   33   10     -0.97     -2.24
   -9   33    9     -0.21      2.09
   -7   33    8     -0.79      1.95
   -5   33    7      2.40     -0.79
   -2   33    1      0.09      2.52
  -17   34    6      0.75     -0.03
  -18   34    8     -2.33      0.89
  -15   34    5      0.88      1.15
  -19   34    7      0.26     -1.49
  -20   34    9     -0.13     -3.25
  -13   34    4     -0.58     -0.99
  -11   34    9      4.64      2.03
  -10   34    1     -0.78     -1.45
   -9   34    8      4.99      0.45
   -8   34    0      3.06      0.94
  -27   34    2      1.61     -2.63
   -6   34    5     -1.70     -1.13
   -5   34    3      1.16      0.98
  -18   35    7      1.39     -0.19
  -16   35    6      0.31     -2.53
  -15   35    4      0.08     -0.77
  -20   35    8      1.86      0.39
  -13   35    3      2.92      1.88
  -11   35    2     -6.43      1.04
  -10   35    6      0.94      1.31
  -10   35    0     -6.15      3.11
  -27   35    1      3.99      0.19
  -16   36    5     -1.88      0.07
  -14   36    4      1.08      3.46
  -12   36    3     -4.43      2.88
   -1    2    0   -136.59   -140.35
    0    3    0   -189.89      0.96
    0   33    0      4.02      0.06
   -2   34    0      4.55      2.36
   -4   35    0      2.18     -2.25
   -9   36    0      5.32     -3.30
   -6   36    0      2.21      3.19
  -17   37    0      4.15      0.98
  -14   37    0      1.01     -3.45
  -11   37    0      1.14     -0.43
  -19   38    0     -1.07      2.69
  -16   38    0      2.62      2.03
  -13   38    0     -1.11      1.60
   -1    1    1    109.48      0.14
    0    2    1    136.59      1.35
    0    5    1     75.11     -0.80
  -32   33    1     -4.27      2.96
  -31   34    1     -4.63      0.75
   -4   34    1     -0.95      3.92
   -1   34    1      2.57     -2.86
  -30   35    1     -3.27     -1.11
   -6   35    1     -1.83      0.87
  -29   36    1     -2.21     -1.32
  -11   36    1     -5.93     -0.57
   -8   36    1      0.10      0.26
  -28   37    1     -2.02     -1.51
  -25   37    1     -1.44      2.08
  -22   37    1     -1.24      0.51
  -19   37    1     -4.96      2.15
  -13   37    1     -1.05     -0.68
  -10   37    1      1.10     -1.48
  -24   38    1     -2.88     -2.19
  -21   38    1      3.07      2.55
  -18   38    1      0.23      1.99
  -15   38    1      0.61     -1.33
    0    4    2    -70.04      0.32
    0    7    2     55.62     -0.29
   -1   33    2      4.17      2.20
   -3   34    2      3.37      1.06
  -29   35    2      1.27     -3.19
   -5   35    2     -0.38      1.22
  -28   36    2      3.74     -0.46
  -13   36    2      1.64      3.13
   -7   36    2     -0.53      0.00
  -27   37    2      1.83     -0.75
  -24   37    2     -0.09      1.35
  -21   37    2     -1.60     -0.49
  -18   37    2     -1.46     -2.64
  -15   37    2      0.11     -2.38
  -12   37    2     -2.48     -1.35
   -9   37    2      1.46     -0.76
  -23   38    2     -2.04     -1.57
  -20   38    2      0.41      1.08
  -17   38    2      5.20     -0.67
  -14   38    2      2.63     -1.22
    0    9    3     27.68     -0.78
  -33   33    3     -1.88      0.01
    0   33    3      0.66     -0.03
  -32   34    3     -1.05      2.09
  -29   34    3      2.60      2.05
   -2   34    3      2.37      0.05
  -31   35    3     -1.70     -0.53
   -7   35    3     -1.65      2.04
   -4   35    3     -1.56     -0.86
  -27   36    3      6.58      3.37
   -9   36    3      5.13     -0.25
  -26   37    3      0.45      0.21
  -23   37    3     -2.23     -2.22
  -20   37    3     -1.04     -0.99
  -17   37    3      2.11     -2.07
  -14   37    3      1.32      1.57
  -11   37    3     -0.18     -0.98
  -22   38    3     -1.13      0.59
  -19   38    3      0.63     -0.40
  -16   38    3     -0.63     -0.59
    0   32    4     -1.66      0.25
  -32   33    4      1.08      3.76
  -29   33    4      0.04     -2.47
   -2   33    4     -0.18      0.32
  -31   34    4     -0.05      0.74
   -4   34    4     -0.61     -0.06
  -30   35    4     -1.52      1.64
   -6   35    4     -3.43     -1.28
  -29   36    4      0.34     -0.06
  -26   36    4      1.07     -0.49
  -23   36    4      2.36     -2.13
  -11   36    4     -0.69     -1.66
   -8   36    4     -0.47      0.33
  -25   37    4      3.85      1.63
  -22   37    4     -3.72     -2.06
  -19   37    4     -5.21     -1.38
  -16   37    4     -1.68     -0.37
  -13   37    4     -2.40      2.20
  -10   37    4      0.34     -2.27
  -21   38    4      1.65     -1.83
  -18   38    4      1.64      0.68
  -15   38    4     -1.49     -0.86
  -32   32    5      0.89      0.02
  -31   33    5      0.60      1.62
   -4   33    5      0.89      1.87
   -1   33    5     -0.78     -0.46
  -30   34    5      1.71     -1.42
   -3   34    5     -1.34      0.54
  -29   35    5     -1.25      3.68
   -8   35    5      1.47     -0.41
   -5   35    5     -0.68     -1.31
  -28   36    5     -0.46     -0.58
  -25   36    5      1.03     -1.39
  -10   36    5      5.72     -0.23
  -24   37    5      4.13      0.30
  -21   37    5      2.10     -0.62
  -18   37    5     -1.42      0.23
  -15   37    5     -2.12     -0.87
  -12   37    5      0.41     -1.50
  -20   38    5     -1.58     -0.36
  -17   38    5     -0.10      0.52
  -31   32    6     -2.56      0.38
   -1   32    6     -3.62      1.35
  -30   33    6     -0.91     -2.44
   -3   33    6     -0.68      1.02
  -29   34    6     -4.12      1.07
   -5   34    6     -2.37      1.20
  -28   35    6     -1.98     -1.83
  -25   35    6     -7.22     -1.52
   -7   35    6     -4.53     -1.87
  -27   36    6      0.55      1.12
  -24   36    6      3.14      0.32
  -18   36    6     -5.89      0.12
  -12   36    6     -4.50     -3.59
   -9   36    6      1.85      1.63
  -23   37    6     -2.86     -2.63
  -20   37    6     -0.49     -2.30
  -17   37    6     -1.85     -0.21
  -14   37    6      0.58     -1.02
  -31   31    7      2.73      0.11
  -30   32    7      0.03      0.38
    0   32    7      0.82     -0.15
  -29   33    7     -0.35     -0.41
   -2   33    7      1.90     -0.46
  -28   34    7     -3.09     -0.37
   -7   34    7      0.32      2.15
   -4   34    7      2.41      2.29
  -27   35    7     -1.66      1.44
  -24   35    7     -1.28      0.19
   -9   35    7      0.75      1.88
   -6   35    7     -0.15     -2.67
  -26   36    7     -4.63     -1.99
  -23   36    7      2.07      0.22
  -20   36    7      0.81      0.17
  -17   36    7      2.42     -0.44
  -14   36    7      0.98     -1.70
  -11   36    7     -1.06     -0.88
  -22   37    7     -0.01      0.43
  -19   37    7     -2.65     -1.05
  -16   37    7     -0.93     -1.97
    0   31    8      0.45     -0.34
  -32   32    8      2.62     -0.07
   -2   32    8      3.12      0.07
  -31   33    8     -1.24     -0.75
  -28   33    8      2.50      1.60
   -4   33    8     -1.21     -1.99
  -27   34    8      0.53     -4.13
   -6   34    8     -0.08      1.24
  -26   35    8     -0.07      0.60
  -23   35    8     -0.17      1.29
  -11   35    8     -2.62      0.58
   -8   35    8     -2.21     -0.42
  -25   36    8     -2.58     -0.51
  -22   36    8     -1.85      0.88
  -19   36    8      0.72      0.96
  -16   36    8      1.47     -0.61
  -13   36    8      0.79     -0.32
  -18   37    8     -1.18     -0.70
  -31   32    9      0.43      0.83
   -1   32    9      2.53     -0.04
  -30   33    9      2.97     -0.63
  -27   33    9      5.08      0.43
   -6   33    9     -2.04      0.61
   -3   33    9     -0.15      1.07
  -26   34    9      1.44      0.24
   -8   34    9     -1.16      0.66
  -25   35    9     -1.20     -2.13
  -22   35    9     -2.77      1.88
  -16   35    9      2.90     -1.08
  -13   35    9     -2.38     -0.63
  -10   35    9     -1.59     -0.18
  -21   36    9      1.58     -1.93
  -18   36    9      3.56      0.78
  -15   36    9     -1.31     -1.79
  -31   31   10      3.62     -0.33
   -1   31   10      1.32     -0.04
  -30   32   10      3.30     -0.55
  -27   32   10      0.01      2.93
   -3   32   10      0.69     -0.32
  -29   33   10      5.14      1.75
  -26   33   10      2.45     -1.57
   -8   33   10      1.84     -0.42
   -5   33   10     -0.94      0.06
  -25   34   10      0.11      0.33
  -22   34   10      1.54     -1.92
  -13   34   10     -2.01     -0.80
  -10   34   10      4.17      3.10
   -7   34   10     -1.67     -0.80
  -24   35   10      2.16     -0.12
  -21   35   10     -1.08     -0.13
  -18   35   10     -0.59      0.89
  -15   35   10      2.43     -1.49
  -12   35   10      0.56      0.49
  -17   36   10      1.37      0.36
    0    7   11     -9.71      0.37
  -29   29   11     -4.40     -0.05
   -1   30   11      1.52      1.08
  -30   31   11     -1.95      2.85
   -3   31   11     -3.60      2.54
  -29   32   11     -2.08      0.66
  -26   32   11     -0.61      2.07
   -5   32   11      1.28     -0.04
  -25   33   11     -0.61     -2.18
  -22   33   11     -1.76      2.98
  -10   33   11     -0.17      1.89
   -7   33   11     -2.97      1.53
  -24   34   11      2.73      1.06
  -21   34   11      1.41     -2.21
  -18   34   11     -2.04      1.95
  -15   34   11     -1.09     -0.60
  -12   34   11      1.64     -1.81
   -9   34   11      1.38      1.35
  -20   35   11     -0.63     -0.51
  -17   35   11      1.30      0.49
  -14   35   11     -0.17      0.26
  -28   29   12      0.96      0.62
  -30   30   12     -2.62     -0.05
  -27   30   12     -3.61      1.19
    0   30   12      3.58     -0.31
  -29   31   12     -1.74     -0.31
  -26   31   12     -0.37     -2.92
   -5   31   12     -2.08      2.99
   -2   31   12     -2.55      0.72
  -25   32   12      2.77     -2.42
   -7   32   12      0.56     -0.15
  -24   33   12      1.31      0.83
  -21   33   12      1.03      1.76
  -12   33   12     -0.72      0.97
   -9   33   12      1.29      0.75
  -23   34   12      2.86      1.20
  -20   34   12     -1.48     -0.82
  -17   34   12     -1.05      0.37
  -14   34   12      1.59     -0.24
  -11   34   12      1.30     -0.11
  -28   28   13      1.14      0.09
  -27   29   13     -0.72     -0.22
    0   29   13      1.20     -0.34
  -26   30   13     -2.62     -1.59
   -2   30   13      0.26      0.20
  -25   31   13     -1.84     -1.89
   -7   31   13     -1.92      0.72
   -4   31   13      1.77      1.92
  -24   32   13     -1.96      0.84
  -21   32   13     -1.95      3.65
  -12   32   13      0.56     -0.72
   -9   32   13      3.63     -1.79
  -23   33   13     -0.26      1.13
  -20   33   13     -0.06     -3.06
  -17   33   13      2.70     -0.29
  -14   33   13      2.23     -1.24
  -11   33   13     -2.67      1.17
  -27   28   14      3.09      0.92
    0   28   14     -1.62     -0.15
  -26   29   14     -0.96      0.60
   -2   29   14      2.58      1.04
  -25   30   14     -0.90     -2.96
   -7   30   14     -0.01     -0.73
   -4   30   14      1.49     -0.69
  -24   31   14      4.11     -0.52
  -21   31   14     -0.57     -4.90
   -9   31   14     -2.42      0.98
   -6   31   14      1.44      0.59
  -23   32   14     -1.25      0.71
  -20   32   14     -0.64     -0.58
  -17   32   14     -0.41      1.97
  -14   32   14     -1.11     -2.34
  -11   32   14      0.07      0.90
  -19   33   14      1.11     -2.34
  -16   33   14     -0.94      0.04
  -24   24   15      6.08      0.14
    0   24   15     -2.81      0.43
  -27   27   15      2.50      0.20
    0   27   15     -0.93      0.00
  -26   28   15      3.04      1.29
   -2   28   15     -0.35     -0.84
  -25   29   15     -1.01     -0.62
   -7   29   15      2.58      2.57
   -4   29   15      0.86      2.62
  -24   30   15     -0.95     -0.19
  -21   30   15      1.82     -1.96
   -9   30   15     -1.73      1.47
   -6   30   15      0.25     -0.91
  -23   31   15      1.41     -2.78
  -20   31   15     -1.30     -1.34
  -17   31   15      0.97      1.15
  -14   31   15     -2.80      0.64
  -11   31   15     -0.63     -1.09
   -8   31   15      0.31     -0.10
  -19   32   15     -1.41     -1.69
  -16   32   15     -0.29     -0.81
  -13   32   15      0.02     -1.50
    0   23   16      2.02     -0.18
    0   26   16     -3.25      0.46
  -26   27   16      1.08      0.01
   -2   27   16      2.99      1.51
  -25   28   16     -2.34      2.70
  -22   28   16     -2.60      4.36
   -7   28   16     -0.56     -0.02
   -4   28   16     -2.41      0.85
  -24   29   16     -0.98      1.83
  -21   29   16     -3.14      1.43
  -18   29   16     -1.68      0.38
   -9   29   16     -0.08     -2.44
   -6   29   16      1.42      3.17
  -20   30   16     -0.23     -3.69
  -17   30   16     -2.77     -0.20
  -14   30   16     -1.13      1.06
  -11   30   16     -1.32      1.96
   -8   30   16     -1.68     -0.33
  -16   31   16     -0.38      0.92
  -13   31   16     -0.74     -3.35
    0   22   17     -1.00     -0.26
  -24   25   17      2.22      1.94
    0   25   17      3.81     -0.03
  -26   26   17      0.22     -0.06
  -23   26   17     -0.85     -0.10
   -2   26   17      1.18     -0.75
  -25   27   17     -0.06      0.36
  -22   27   17      1.30      1.49
  -13   27   17      0.49     -2.49
   -7   27   17     -1.05     -2.91
   -4   27   17      1.15      1.34
  -21   28   17     -0.40      1.80
  -18   28   17      0.34     -0.76
   -9   28   17     -1.80     -1.39
   -6   28   17      2.07     -1.61
  -20   29   17     -0.67     -0.35
  -17   29   17     -0.20     -0.17
  -14   29   17     -0.10     -1.17
  -11   29   17      0.80      0.99
   -8   29   17      0.28      1.04
  -16   30   17      0.52      0.13
  -13   30   17      0.02     -1.00
  -24   24   18      1.03      0.01
    0   24   18      1.30      0.04
  -23   25   18      0.46     -0.07
  -20   25   18     -3.04      1.66
   -2   25   18      2.69      0.51
  -22   26   18     -1.49     -1.02
  -13   26   18     -0.77     -3.82
   -7   26   18      0.78      3.28
   -4   26   18     -0.18     -2.66
  -21   27   18     -1.87      0.24
  -18   27   18     -2.92      1.43
  -15   27   18      1.11      0.48
  -12   27   18     -2.60      0.71
   -9   27   18      0.31     -1.03
   -6   27   18      2.15     -1.72
  -20   28   18     -1.35      0.40
  -17   28   18     -0.35     -0.12
  -14   28   18      1.03     -2.17
  -11   28   18      0.98      1.65
   -8   28   18     -0.61     -0.51
   -1    1   19      2.13      0.70
    0   20   19      0.56     -0.03
  -22   22   19      1.48     -0.07
  -21   23   19      0.89      0.38
  -12   23   19     -2.94      3.25
    0   23   19      0.76     -0.20
  -23   24   19      1.41      1.14
  -20   24   19     -4.27     -0.37
   -5   24   19      1.36     -0.41
   -2   24   19     -0.49     -1.32
  -22   25   19     -0.03      0.48
  -19   25   19     -2.38     -0.49
  -16   25   19      2.90     -3.12
  -13   25   19      1.14     -0.11
   -7   25   19      1.57      0.23
   -4   25   19     -0.29     -0.05
  -18   26   19     -1.98      1.83
  -15   26   19      0.54      1.89
  -12   26   19     -1.01     -2.66
   -9   26   19      0.27      1.67
   -6   26   19      0.17     -1.14
  -17   27   19      1.01     -2.44
  -14   27   19      0.22     -0.19
  -11   27   19      0.96      1.18
    0    1   20      1.09      0.94
   -2    2   20     -1.46      0.14
    0   19   20     -0.20     -0.10
  -20   20   20      1.30      0.00
  -19   21   20     -0.02      3.27
  -21   22   20     -1.39     -0.40
  -18   22   20     -4.58      0.79
   -3   22   20      0.89      0.70
    0   22   20     -1.86      0.01
  -20   23   20      1.95     -3.34
  -17   23   20     -0.63     -2.94
   -5   23   20      1.63      0.30
   -2   23   20     -0.25      0.23
  -19   24   20     -1.50      1.50
  -16   24   20     -0.45      0.23
  -13   24   20     -0.16     -1.76
  -10   24   20     -0.81      0.44
   -7   24   20     -0.23     -2.27
   -4   24   20      1.70     -0.66
  -18   25   20      3.64      0.90
  -15   25   20      0.75     -0.75
  -12   25   20     -1.81     -1.42
   -9   25   20     -0.12     -0.73
  -14   26   20      1.17     -0.38
    0    0   21      0.28      0.47
  -18   18   21      3.35      0.15
    0   18   21     -1.71     -0.10
  -19   20   21      0.35      0.86
   -1   20   21     -2.26      1.20
  -21   21   21      0.08      0.02
  -18   21   21     -0.87      2.08
   -3   21   21      1.62     -0.90
    0   21   21      0.54     -0.20
  -20   22   21     -1.53     -2.38
  -17   22   21      1.26     -1.44
  -14   22   21     -1.83      1.29
   -8   22   21      1.96     -1.78
   -5   22   21      0.59      0.63
   -2   22   21      0.49      3.61
  -16   23   21      1.88     -0.43
  -13   23   21      1.44     -1.87
  -10   23   21     -2.31     -0.42
   -7   23   21      1.98     -2.96
  -15   24   21      0.25     -2.12
  -12   24   21     -2.60      2.75
   -9   24   21     -0.68     -1.97
  -17   18   22     -1.48     -3.53
  -19   19   22      2.18      0.12
  -16   19   22     -1.70     -2.03
   -4   19   22     -0.74     -0.23
   -1   19   22      0.98      3.17
  -18   20   22     -0.84      1.50
  -15   20   22      3.00     -0.29
  -12   20   22      1.80      3.94
   -6   20   22      0.86     -1.05
   -3   20   22     -0.36     -1.29
  -17   21   22     -0.49      3.32
  -14   21   22     -2.16     -0.42
  -11   21   22      1.32     -1.95
   -8   21   22      0.34     -0.29
   -5   21   22     -0.60     -3.33
  -13   22   22     -3.20     -3.32
  -10   22   22     -0.17      1.97
   -7   22   22      2.25     -1.39
   -8    8   23     -0.19      0.41
   -1   15   23      0.25      0.41
  -15   16   23     -1.32     -0.78
   -3   16   23     -2.50      1.06
    0   16   23      0.71      0.00
  -17   17   23     -0.64      0.28
  -14   17   23     -0.24     -1.69
   -5   17   23     -2.63     -2.88
   -2   17   23      2.72      0.05
  -16   18   23      1.43     -0.20
  -13   18   23     -1.08     -0.80
  -10   18   23      0.92     -1.18
   -7   18   23     -2.35      2.93
   -4   18   23     -0.83      0.56
   -1   18   23      1.62     -1.09
  -15   19   23     -0.21      0.67
  -12   19   23      0.60      0.13
   -9   19   23     -0.10     -1.20
   -6   19   23     -0.88      0.80
  -11   20   23     -1.04     -1.82
   -8   20   23      2.61      0.42
   -7    8   24     -3.52     -2.12
    0   12   24      3.29     -0.05
   -2   13   24     -1.47      5.15
  -13   14   24      1.26     -0.93
  -10   14   24      0.23     -1.82
   -4   14   24     -1.84      2.90
   -1   14   24      1.26     -2.11
  -15   15   24     -0.75     -0.04
  -12   15   24     -2.58      3.09
   -9   15   24      2.42      2.46
   -6   15   24     -3.86     -1.00
   -3   15   24      0.65      1.00
    0   15   24      0.50      0.15
  -14   16   24      2.19     -1.80
  -11   16   24      1.01      0.64
   -8   16   24     -0.80     -3.90
   -5   16   24      1.50     -0.65
   -2   16   24     -1.80     -0.77
  -13   17   24      1.03      0.35
  -10   17   24      1.55     -2.50
   -7   17   24     -0.04      2.31
   -4   17   24      0.03      1.43
  -10   10   25     -0.11      0.31
   -1   10   25      2.54     -0.04
   -9   11   25     -0.82      0.28
   -6   11   25     -0.44      1.18
   -3   11   25      1.64      0.35
    0   11   25     -2.48     -0.37
  -11   12   25     -0.08     -2.64
   -8   12   25      1.83      0.98
   -5   12   25      0.25     -1.84
   -2   12   25     -3.08      2.03
  -10   13   25      0.09     -1.89
   -7   13   25     -2.06     -0.10
   -4   13   25     -0.36     -0.75
   -1   13   25      0.34      2.31
   -9   14   25      0.77     -0.46
   -6   14   25      0.03     -0.16
   -3   14   25      3.02      0.69
    0    1   26     -1.12      0.04
   -2    2   26     -2.03      0.22
   -1    3   26     -1.28      0.07
   -3    4   26      2.97      0.73
    0    4   26      1.89     -0.11
   -5    5   26     -3.99     -0.21
   -2    5   26      2.19      0.36
   -4    6   26     -1.05      2.18
   -1    6   26      0.74     -1.67
   -6    7   26      0.33     -1.85
   -3    7   26     -1.80      0.14
    0    7   26      2.86     -0.37
   -8    8   26     -1.64     -0.02
   -5    8   26     -0.87     -1.13
   -2    8   26      0.29      1.26
   -7    9   26     -1.03     -2.02
   -4    9   26     -0.52     -0.42
   -1    9   26     -3.39     -2.26
   -6   10   26     -0.74     -0.12
   -3   10   26      1.13     -4.10
    0    0    0      0.00      0.00
# SQUEEZE RESULTS (Version = 160521)
# Note: Data are Listed for all Voids in the P1 Unit Cell
# i.e. Centre of Gravity, Solvent Accessible Volume,
# Recovered number of Electrons in the Void and
# Details about the Squeezed Material
loop_
  _platon_squeeze_void_nr
  _platon_squeeze_void_average_x
  _platon_squeeze_void_average_y
  _platon_squeeze_void_average_z
  _platon_squeeze_void_volume
  _platon_squeeze_void_count_electrons
  _platon_squeeze_void_content
   1 -0.005 -0.003 -0.004     11303      1584 ' '
# Missing Reflections Below sin(th)/lambda = 0.25
loop_
  _platon_missing_refln_index_h
  _platon_missing_refln_index_k
  _platon_missing_refln_index_l
  _platon_missing_refln_theta
   -1    2    0     2.980
    0    3    0     5.166
   -1    1    1     2.742
    0    2    1     4.051
    0    5    1     8.895
    0    4    2     8.123
    0    7    2    12.880
    0    9    3    16.998
_platon_squeeze_void_probe_radius                  1.20
_platon_squeeze_details
)
TITL 1_a.res in R32
CELL   29.6590   29.6590   20.6874     90.00     90.00    120.00
SPGR R32
# Solvent Accessible Volume =     11304
# Electrons Found in S.A.V. =      1542
# Note: Atoms in Void are Labelled as Cxxx and Qxxx for all Others
C101 0.557 1.000-0.002 !       4.43 eA-3
C102 0.220 0.791 0.339 !       2.27 eA-3
C103 0.508 0.459 0.748 !       1.67 eA-3
C104 0.952 0.490 0.751 !       1.65 eA-3
C105 0.773 0.850 0.504 !       1.47 eA-3
C106 0.147 0.920 0.499 !       1.47 eA-3
C107 0.523 0.140 0.839 !       1.42 eA-3
C108 0.476 0.539 0.209 !       1.40 eA-3
C109 0.563 0.973 0.689 !       1.32 eA-3
C110 0.192 0.422 0.142 !       1.28 eA-3
C111 0.748 0.867 0.560 !       1.24 eA-3
C112 0.986 0.203 0.812 !       1.21 eA-3
C113 0.728 0.990-0.001 !       1.15 eA-3
C114 0.776 0.249 0.533 !       1.07 eA-3
C115 0.453 0.455 0.702 !       1.02 eA-3
C116 0.391 0.093 0.004 !       0.99 eA-3
C117 0.896 0.336 0.562 !       0.98 eA-3
C118 0.569 0.752 0.669 !       0.97 eA-3
C119 0.182 0.009 0.498 !       0.95 eA-3
C120 0.157 0.922 0.950 !       0.95 eA-3
C121 0.889 0.922 0.193 !       0.93 eA-3
C122 0.514 0.609 0.638 !       0.92 eA-3
C123 0.530 0.604 0.570 !       0.89 eA-3
C124 0.421 0.614 0.846 !       0.84 eA-3
C125 0.359 0.173 0.832 !       0.84 eA-3
C126 0.390 0.816 0.843 !       0.83 eA-3
C127 0.116 0.398 0.044 !       0.83 eA-3
C128 0.754 0.376 0.152 !       0.83 eA-3
C129 0.897 0.857 0.861 !       0.80 eA-3
C130 0.451 0.059 0.717 !       0.79 eA-3
C131 0.453 0.059 0.457 !       0.77 eA-3
C132 0.984 0.487 0.862 !       0.76 eA-3
C133 0.093 0.407 0.940 !       0.75 eA-3
C134 0.287 0.845 0.655 !       0.74 eA-3
C135 0.239 0.009 0.172 !       0.73 eA-3
C136 0.326 0.748 0.516 !       0.72 eA-3
C137 0.175 0.335 0.476 !       0.72 eA-3
C138 0.679 0.508 0.283 !       0.70 eA-3
C139 0.242 0.591 0.813 !       0.70 eA-3
C140 0.823 0.160 0.852 !       0.70 eA-3
C141 0.228 0.679 0.530 !       0.70 eA-3
C142 0.188 0.972 0.884 !       0.67 eA-3
C143 0.007 0.116 0.112 !       0.67 eA-3
C144 0.457 0.078 0.404 !       0.67 eA-3
Q145 0.510 0.646 0.089 !       0.66 eA-3
C146 0.203 0.276 0.973 !       0.66 eA-3
C147 0.937 0.519 0.347 !       0.65 eA-3
C148 0.790 0.326 0.281 !       0.65 eA-3
C149 0.363 0.892 0.090 !       0.65 eA-3
C150 0.634 0.221 0.431 !       0.64 eA-3
C151 1.001 0.343 0.497 !       0.63 eA-3
C152 0.084 0.109 0.894 !       0.63 eA-3
C153 0.831 0.801 0.061 !       0.63 eA-3
Q154 0.687 0.343 0.894 !       0.63 eA-3
C155 0.009 0.349 0.855 !       0.62 eA-3
C156 0.518 0.643 0.820 !       0.60 eA-3
C157 0.296 0.827 0.755 !       0.60 eA-3
C158 0.709 0.438 0.224 !       0.60 eA-3
C159 0.704 0.695 0.186 !       0.59 eA-3
C160 0.611 0.511 0.950 !       0.59 eA-3
C161 0.657 0.466 0.421 !       0.59 eA-3
Q162 0.217 0.467 0.254 !       0.59 eA-3
C163 0.343 0.020 0.206 !       0.58 eA-3
C164 0.999 0.190 0.127 !       0.58 eA-3
C165 0.289 0.534 0.796 !       0.58 eA-3
C166 0.615 0.705 0.661 !       0.56 eA-3
C167 0.690 0.172 0.422 !       0.56 eA-3
C168 0.124 0.003 0.153 !       0.56 eA-3
C169 0.930 0.021 0.847 !       0.55 eA-3
C170 0.345 0.811 0.788 !       0.55 eA-3
C171 0.867 0.719 0.034 !       0.55 eA-3
C172 0.735 0.377 0.483 !       0.55 eA-3
C173 0.460 0.062 0.329 !       0.54 eA-3
C174 0.492 0.535 0.628 !       0.52 eA-3
C175 0.998 0.422 0.506 !       0.52 eA-3
C176 0.994 0.137 0.857 !       0.52 eA-3
C177 0.969 0.795 0.923 !       0.52 eA-3
C178 0.662 0.484 0.347 !       0.50 eA-3
)
;
_shelx_fab_checksum              19529
_olex2_submission_special_instructions 'No special instructions were received'
_oxdiff_exptl_absorpt_empirical_details
;
Empirical correction (ABSPACK) includes:
- Absorption correction using spherical harmonics
- Frame scaling
;
_oxdiff_exptl_absorpt_empirical_full_max 2.059
_oxdiff_exptl_absorpt_empirical_full_min 0.597
loop_
_space_group_symop_operation_xyz
'x, y, z'
'-y, x-y, z'
'-x+y, -x, z'
'y, x, -z'
'x-y, -y, -z'
'-x, -x+y, -z'
'x+2/3, y+1/3, z+1/3'
'-y+2/3, x-y+1/3, z+1/3'
'-x+y+2/3, -x+1/3, z+1/3'
'y+2/3, x+1/3, -z+1/3'
'x-y+2/3, -y+1/3, -z+1/3'
'-x+2/3, -x+y+1/3, -z+1/3'
'x+1/3, y+2/3, z+2/3'
'-y+1/3, x-y+2/3, z+2/3'
'-x+y+1/3, -x+2/3, z+2/3'
'y+1/3, x+2/3, -z+2/3'
'x-y+1/3, -y+2/3, -z+2/3'
'-x+1/3, -x+y+2/3, -z+2/3'
loop_
_atom_site_label
_atom_site_type_symbol
_atom_site_fract_x
_atom_site_fract_y
_atom_site_fract_z
_atom_site_U_iso_or_equiv
_atom_site_adp_type
_atom_site_occupancy
_atom_site_site_symmetry_order
_atom_site_calc_flag
_atom_site_refinement_flags_posn
_atom_site_refinement_flags_adp
_atom_site_refinement_flags_occupancy
_atom_site_disorder_assembly
_atom_site_disorder_group
Co1 Co 0.333333 0.666667 0.25828(6) 0.0498(3) Uani 1 3 d S T P . .
N1 N 0.34301(14) 0.73105(13) 0.3154(2) 0.0613(10) Uani 1 1 d . . . . .
N2 N 0.39863(15) 0.80537(14) 0.3615(2) 0.0761(12) Uani 1 1 d . . . . .
N3 N 0.93914(12) 0.99576(12) 0.4687(2) 0.0561(10) Uani 1 1 d . . . . .
N4 N 0.89522(13) 0.99326(14) 0.4466(2) 0.0604(11) Uani 1 1 d . . . . .
N5 N 0.58547(18) 1.000000 0.500000 0.087(2) Uani 1 2 d S T P . .
C1 C 0.3259(2) 0.7659(2) 0.3068(4) 0.0837(19) Uani 1 1 d . U . . .
H1 H 0.296061 0.759113 0.284272 0.100 Uiso 1 1 calc R U . . .
C2 C 0.3585(2) 0.8110(2) 0.3355(4) 0.102(2) Uani 1 1 d . U . . .
H2 H 0.355045 0.840421 0.337664 0.123 Uiso 1 1 calc R U . . .
C3 C 0.38657(17) 0.75646(17) 0.3490(3) 0.0681(13) Uani 1 1 d . U . . .
H3 H 0.406481 0.741945 0.362425 0.082 Uiso 1 1 calc R U . . .
C4 C 0.44575(18) 0.84401(19) 0.3900(3) 0.0753(15) Uani 1 1 d . U . . .
C5 C 0.49057(19) 0.8428(2) 0.3798(4) 0.091(2) Uani 1 1 d . U . . .
H5 H 0.489854 0.816438 0.354687 0.109 Uiso 1 1 calc R U . . .
C6 C 0.5365(2) 0.8799(2) 0.4063(3) 0.0894(19) Uani 1 1 d . U . . .
H6 H 0.566665 0.878617 0.398099 0.107 Uiso 1 1 calc R U . . .
C7 C 0.53926(19) 0.9195(2) 0.4452(3) 0.0778(16) Uani 1 1 d . U . . .
C8 C 0.4937(2) 0.9203(3) 0.4528(4) 0.110(3) Uani 1 1 d . U . . .
H8 H 0.494340 0.947256 0.476489 0.132 Uiso 1 1 calc R U . . .
C9 C 0.4478(2) 0.8834(3) 0.4272(4) 0.111(2) Uani 1 1 d . U . . .
H9 H 0.417603 0.884852 0.434800 0.133 Uiso 1 1 calc R U . . .
C10 C 0.58847(19) 0.9609(2) 0.4737(3) 0.0787(16) Uani 1 1 d . U . . .
C11 C 0.63431(19) 0.9588(2) 0.4730(3) 0.0827(18) Uani 1 1 d . U . . .
H11 H 0.634950 0.930469 0.454815 0.099 Uiso 1 1 calc R U . . .
C12 C 0.6795(2) 1.000000 0.500000 0.078(2) Uani 1 2 d S TU P . .
C13 C 0.7295(2) 1.000000 0.500000 0.077(2) Uani 1 2 d S TU P . .
C14 C 0.74153(18) 0.9762(2) 0.4506(3) 0.0790(16) Uani 1 1 d . U . . .
H14 H 0.718292 0.960618 0.416615 0.095 Uiso 1 1 calc R U . . .
C15 C 0.78754(18) 0.9754(2) 0.4514(3) 0.0729(15) Uani 1 1 d . U . . .
H15 H 0.794395 0.958132 0.418781 0.088 Uiso 1 1 calc R U . . .
C16 C 0.82370(19) 1.000000 0.500000 0.0665(18) Uani 1 2 d S TU P . .
C17 C 0.87355(19) 1.000000 0.500000 0.0614(17) Uani 1 2 d S TU P . .
loop_
_atom_site_aniso_label
_atom_site_aniso_U_11
_atom_site_aniso_U_22
_atom_site_aniso_U_33
_atom_site_aniso_U_23
_atom_site_aniso_U_13
_atom_site_aniso_U_12
Co1 0.0261(3) 0.0261(3) 0.0974(9) 0.000 0.000 0.01304(14)
N1 0.0406(17) 0.0366(17) 0.107(3) -0.0150(19) -0.0095(19) 0.0194(14)
N2 0.0396(18) 0.0488(18) 0.141(4) -0.034(2) -0.025(2) 0.0229(17)
N3 0.0304(14) 0.0341(16) 0.104(3) -0.0077(19) -0.0109(16) 0.0166(12)
N4 0.0303(15) 0.0452(18) 0.113(3) -0.0127(19) -0.0098(18) 0.0239(14)
N5 0.0455(19) 0.071(4) 0.153(6) -0.063(4) -0.032(2) 0.0356(19)
C1 0.052(2) 0.053(3) 0.157(5) -0.035(3) -0.034(3) 0.035(2)
C2 0.067(3) 0.063(3) 0.196(7) -0.051(4) -0.047(4) 0.047(3)
C3 0.048(2) 0.045(2) 0.111(4) -0.025(2) -0.018(2) 0.0231(18)
C4 0.043(2) 0.058(3) 0.128(4) -0.035(3) -0.019(3) 0.028(2)
C5 0.048(2) 0.074(3) 0.154(5) -0.060(3) -0.020(3) 0.033(2)
C6 0.052(3) 0.074(3) 0.151(5) -0.052(4) -0.024(3) 0.038(2)
C7 0.047(2) 0.063(3) 0.130(4) -0.041(3) -0.015(3) 0.032(2)
C8 0.067(3) 0.091(4) 0.188(7) -0.077(4) -0.035(4) 0.051(3)
C9 0.056(3) 0.094(4) 0.196(6) -0.075(4) -0.031(4) 0.048(3)
C10 0.050(2) 0.068(3) 0.129(5) -0.043(3) -0.022(3) 0.038(2)
C11 0.048(2) 0.070(3) 0.141(5) -0.043(3) -0.018(3) 0.038(2)
C12 0.047(2) 0.079(4) 0.118(6) -0.042(4) -0.021(2) 0.040(2)
C13 0.045(2) 0.075(4) 0.121(6) -0.035(4) -0.018(2) 0.037(2)
C14 0.045(2) 0.074(3) 0.130(4) -0.039(3) -0.024(3) 0.039(2)
C15 0.048(2) 0.073(3) 0.111(4) -0.035(3) -0.014(2) 0.040(2)
C16 0.039(2) 0.058(3) 0.109(5) -0.028(3) -0.0142(17) 0.0292(17)
C17 0.0366(19) 0.051(3) 0.101(5) -0.013(3) -0.0065(16) 0.0255(16)
loop_
_atom_type_symbol
_atom_type_description
_atom_type_scat_dispersion_real
_atom_type_scat_dispersion_imag
_atom_type_scat_source
C C 0.0181 0.0091 'International Tables Vol C Tables 4.2.6.8 and 6.1.1.4'
H H 0.0000 0.0000 'International Tables Vol C Tables 4.2.6.8 and 6.1.1.4'
Co Co -2.3653 3.6143 'International Tables Vol C Tables 4.2.6.8 and 6.1.1.4'
N N 0.0311 0.0180 'International Tables Vol C Tables 4.2.6.8 and 6.1.1.4'
loop_
_geom_angle_atom_site_label_1
_geom_angle_atom_site_label_2
_geom_angle_atom_site_label_3
_geom_angle
_geom_angle_site_symmetry_1
_geom_angle_site_symmetry_3
_geom_angle_publ_flag
N1 Co1 N1 92.40(17) . 2_665 ?
N1 Co1 N1 92.40(17) . 3_565 ?
N1 Co1 N1 92.40(17) 2_665 3_565 ?
N1 Co1 N3 175.83(14) 2_665 18_655 ?
N1 Co1 N3 86.46(15) 3_565 16_445 ?
N1 Co1 N3 175.82(14) . 16_445 ?
N1 Co1 N3 91.66(14) 3_565 18_655 ?
N1 Co1 N3 91.67(14) . 17_565 ?
N1 Co1 N3 91.66(14) 2_665 16_445 ?
N1 Co1 N3 86.46(15) 2_665 17_565 ?
N1 Co1 N3 175.82(14) 3_565 17_565 ?
N1 Co1 N3 86.46(15) . 18_655 ?
N3 Co1 N3 89.56(15) 17_565 16_445 ?
N3 Co1 N3 89.56(15) 18_655 16_445 ?
N3 Co1 N3 89.56(15) 17_565 18_655 ?
C1 N1 Co1 131.7(4) . . ?
C3 N1 Co1 117.1(3) . . ?
C3 N1 C1 105.2(4) . . ?
C2 N2 C4 128.4(4) . . ?
C3 N2 C2 106.0(4) . . ?
C3 N2 C4 125.4(4) . . ?
N3 N3 Co1 124.42(11) 5_676 16 ?
N3 N3 N4 110.1(3) 5_676 . ?
N4 N3 Co1 124.5(3) . 16 ?
C17 N4 N3 103.5(4) . . ?
C10 N5 C10 119.3(6) . 5_676 ?
N1 C1 H1 125.0 . . ?
C2 C1 N1 110.0(4) . . ?
C2 C1 H1 125.0 . . ?
N2 C2 H2 126.7 . . ?
C1 C2 N2 106.6(4) . . ?
C1 C2 H2 126.7 . . ?
N1 C3 N2 112.1(4) . . ?
N1 C3 H3 124.0 . . ?
N2 C3 H3 124.0 . . ?
C5 C4 N2 119.6(4) . . ?
C5 C4 C9 118.7(5) . . ?
C9 C4 N2 121.7(4) . . ?
C4 C5 H5 119.7 . . ?
C4 C5 C6 120.6(5) . . ?
C6 C5 H5 119.7 . . ?
C5 C6 H6 119.1 . . ?
C5 C6 C7 121.7(5) . . ?
C7 C6 H6 119.1 . . ?
C6 C7 C10 123.1(4) . . ?
C8 C7 C6 115.9(5) . . ?
C8 C7 C10 120.8(4) . . ?
C7 C8 H8 118.6 . . ?
C9 C8 C7 122.8(5) . . ?
C9 C8 H8 118.6 . . ?
C4 C9 H9 119.9 . . ?
C8 C9 C4 120.2(5) . . ?
C8 C9 H9 119.9 . . ?
N5 C10 C7 114.8(4) . . ?
N5 C10 C11 122.5(5) . . ?
C11 C10 C7 122.7(4) . . ?
C10 C11 H11 120.4 . . ?
C10 C11 C12 119.2(4) . . ?
C12 C11 H11 120.4 . . ?
C11 C12 C11 117.2(6) 5_676 . ?
C11 C12 C13 121.4(3) 5_676 . ?
C11 C12 C13 121.4(3) . . ?
C14 C13 C12 120.8(3) . . ?
C14 C13 C12 120.8(3) 5_676 . ?
C14 C13 C14 118.4(6) 5_676 . ?
C13 C14 H14 119.7 . . ?
C15 C14 C13 120.6(5) . . ?
C15 C14 H14 119.7 . . ?
C14 C15 H15 119.5 . . ?
C14 C15 C16 121.0(5) . . ?
C16 C15 H15 119.5 . . ?
C15 C16 C15 118.3(5) 5_676 . ?
C15 C16 C17 120.8(3) 5_676 . ?
C15 C16 C17 120.8(3) . . ?
N4 C17 N4 112.9(5) 5_676 . ?
N4 C17 C16 123.6(3) 5_676 . ?
N4 C17 C16 123.6(3) . . ?
loop_
_geom_bond_atom_site_label_1
_geom_bond_atom_site_label_2
_geom_bond_distance
_geom_bond_site_symmetry_2
_geom_bond_publ_flag
Co1 N1 2.140(4) . ?
Co1 N1 2.140(4) 2_665 ?
Co1 N1 2.140(4) 3_565 ?
Co1 N3 2.146(4) 18_655 ?
Co1 N3 2.146(4) 16_445 ?
Co1 N3 2.146(4) 17_565 ?
N1 C1 1.371(6) . ?
N1 C3 1.321(6) . ?
N2 C2 1.389(7) . ?
N2 C3 1.334(5) . ?
N2 C4 1.419(6) . ?
N3 N3 1.312(9) 5_676 ?
N3 N4 1.348(5) . ?
N4 C17 1.343(5) . ?
N5 C10 1.325(5) 5_676 ?
N5 C10 1.325(5) . ?
C1 H1 0.9300 . ?
C1 C2 1.335(8) . ?
C2 H2 0.9300 . ?
C3 H3 0.9300 . ?
C4 C5 1.364(6) . ?
C4 C9 1.376(7) . ?
C5 H5 0.9300 . ?
C5 C6 1.366(7) . ?
C6 H6 0.9300 . ?
C6 C7 1.394(7) . ?
C7 C8 1.371(7) . ?
C7 C10 1.480(7) . ?
C8 H8 0.9300 . ?
C8 C9 1.358(8) . ?
C9 H9 0.9300 . ?
C10 C11 1.391(6) . ?
C11 H11 0.9300 . ?
C11 C12 1.402(6) . ?
C12 C13 1.482(9) . ?
C13 C14 1.386(6) 5_676 ?
C13 C14 1.386(6) . ?
C14 H14 0.9300 . ?
C14 C15 1.376(6) . ?
C15 H15 0.9300 . ?
C15 C16 1.382(6) . ?
C16 C17 1.478(8) . ?
loop_
_geom_torsion_atom_site_label_1
_geom_torsion_atom_site_label_2
_geom_torsion_atom_site_label_3
_geom_torsion_atom_site_label_4
_geom_torsion
_geom_torsion_site_symmetry_1
_geom_torsion_site_symmetry_2
_geom_torsion_site_symmetry_3
_geom_torsion_site_symmetry_4
_geom_torsion_publ_flag
Co1 N1 C1 C2 -151.9(5) . . . . ?
Co1 N1 C3 N2 155.2(4) . . . . ?
Co1 N3 N4 C17 -170.07(19) 16 . . . ?
N1 C1 C2 N2 2.0(9) . . . . ?
N2 C4 C5 C6 179.3(7) . . . . ?
N2 C4 C9 C8 -178.8(7) . . . . ?
N3 N3 N4 C17 -0.9(5) 5_676 . . . ?
N3 N4 C17 N4 0.32(17) . . . 5_676 ?
N3 N4 C17 C16 -179.67(17) . . . . ?
N5 C10 C11 C12 -1.2(11) . . . . ?
C1 N1 C3 N2 -0.9(7) . . . . ?
C2 N2 C3 N1 2.1(7) . . . . ?
C2 N2 C4 C5 -142.6(8) . . . . ?
C2 N2 C4 C9 36.5(11) . . . . ?
C3 N1 C1 C2 -0.8(8) . . . . ?
C3 N2 C2 C1 -2.5(8) . . . . ?
C3 N2 C4 C5 30.7(10) . . . . ?
C3 N2 C4 C9 -150.2(7) . . . . ?
C4 N2 C2 C1 171.9(6) . . . . ?
C4 N2 C3 N1 -172.5(5) . . . . ?
C4 C5 C6 C7 1.1(12) . . . . ?
C5 C4 C9 C8 0.3(12) . . . . ?
C5 C6 C7 C8 -2.8(11) . . . . ?
C5 C6 C7 C10 -178.9(7) . . . . ?
C6 C7 C8 C9 3.4(13) . . . . ?
C6 C7 C10 N5 169.1(6) . . . . ?
C6 C7 C10 C11 -11.0(11) . . . . ?
C7 C8 C9 C4 -2.2(14) . . . . ?
C7 C10 C11 C12 178.9(5) . . . . ?
C8 C7 C10 N5 -6.8(10) . . . . ?
C8 C7 C10 C11 173.1(8) . . . . ?
C9 C4 C5 C6 0.2(12) . . . . ?
C10 N5 C10 C7 -179.5(7) 5_676 . . . ?
C10 N5 C10 C11 0.6(5) 5_676 . . . ?
C10 C7 C8 C9 179.6(8) . . . . ?
C10 C11 C12 C11 0.6(5) . . . 5_676 ?
C10 C11 C12 C13 -179.4(5) . . . . ?
C11 C12 C13 C14 31.3(5) 5_676 . . 5_676 ?
C11 C12 C13 C14 -148.7(5) 5_676 . . . ?
C11 C12 C13 C14 31.3(5) . . . . ?
C11 C12 C13 C14 -148.7(5) . . . 5_676 ?
C12 C13 C14 C15 -178.8(4) . . . . ?
C13 C14 C15 C16 -2.5(9) . . . . ?
C14 C13 C14 C15 1.2(4) 5_676 . . . ?
C14 C15 C16 C15 1.2(5) . . . 5_676 ?
C14 C15 C16 C17 -178.8(5) . . . . ?
C15 C16 C17 N4 -156.8(4) 5_676 . . . ?
C15 C16 C17 N4 23.2(4) . . . . ?
C15 C16 C17 N4 -156.8(4) . . . 5_676 ?
C15 C16 C17 N4 23.2(4) 5_676 . . 5_676 ?
