#------------------------------------------------------------------------------
#$Date: 2022-01-27 00:50:31 +0200 (Thu, 27 Jan 2022) $
#$Revision: 272254 $
#$URL: file:///home/coder/svn-repositories/cod/cif/7/12/96/7129623.cif $
#------------------------------------------------------------------------------
#
# This file is available in the Crystallography Open Database (COD),
# http://www.crystallography.net/
#
# All data on this site have been placed in the public domain by the
# contributors.
#
data_7129623
loop_
_publ_author_name
'Lai, Qiuxue'
'Chu, Zhao-Qin'
'Xiao, Xinyi'
'Dai, Dejun'
'Song, Ting'
'Luo, Tian-Yi'
'Tang, Wenlei'
'Feng, Xuan'
'Zhang, Zhiyuan'
'Li, Tao'
'Xiao, Hai'
'Su, Jing'
'Liu, Chong'
_publ_section_title
;
 Two-Dimensional Zr/Hf-Hydroxamate Metal-Organic Frameworks
;
_journal_name_full               'Chemical Communications'
_journal_paper_doi               10.1039/D2CC00213B
_journal_year                    2022
_chemical_formula_moiety         '0.33(C48 H36 N12 O24 Zr3)'
_chemical_formula_sum            'C16 H12 N4 O8 Zr'
_chemical_formula_weight         479.52
_space_group_crystal_system      hexagonal
_space_group_IT_number           191
_space_group_name_Hall           '-P 6 2'
_space_group_name_H-M_alt        'P 6/m m m'
_atom_sites_solution_hydrogens   geom
_audit_creation_date             2021-07-26
_audit_creation_method
;
Olex2 1.2
(compiled 2018.05.29 svn.r3508 for OlexSys, GUI svn.r5506)
;
_audit_update_record
;
2021-12-08 deposited with the CCDC.	2022-01-26 downloaded from the CCDC.
;
_cell_angle_alpha                90
_cell_angle_beta                 90
_cell_angle_gamma                120
_cell_formula_units_Z            3
_cell_length_a                   23.168(2)
_cell_length_b                   23.168(2)
_cell_length_c                   8.0801(11)
_cell_measurement_reflns_used    4098
_cell_measurement_temperature    120.0
_cell_measurement_theta_max      23.40
_cell_measurement_theta_min      2.69
_cell_volume                     3756.0(7)
_computing_cell_refinement       'SAINT V8.40B (?, 2016)'
_computing_data_reduction        'SAINT V8.40B (?, 2016)'
_computing_molecular_graphics    'Olex2 (Dolomanov et al., 2009)'
_computing_publication_material  'Olex2 (Dolomanov et al., 2009)'
_computing_structure_refinement  'ShelXL (Sheldrick, 2015)'
_computing_structure_solution    'SHELXT 2018/2 (Sheldrick, 2018)'
_diffrn_ambient_temperature      120.0
_diffrn_measured_fraction_theta_full 0.999
_diffrn_measured_fraction_theta_max 0.999
_diffrn_measurement_device_type  'Bruker APEX-II CCD'
_diffrn_measurement_method       '\f and \w scans'
_diffrn_radiation_type           MoK\a
_diffrn_radiation_wavelength     0.71073
_diffrn_reflns_av_R_equivalents  0.1500
_diffrn_reflns_av_unetI/netI     0.0507
_diffrn_reflns_Laue_measured_fraction_full 0.999
_diffrn_reflns_Laue_measured_fraction_max 0.999
_diffrn_reflns_limit_h_max       30
_diffrn_reflns_limit_h_min       -27
_diffrn_reflns_limit_k_max       29
_diffrn_reflns_limit_k_min       -30
_diffrn_reflns_limit_l_max       10
_diffrn_reflns_limit_l_min       -9
_diffrn_reflns_number            36009
_diffrn_reflns_point_group_measured_fraction_full 0.999
_diffrn_reflns_point_group_measured_fraction_max 0.999
_diffrn_reflns_theta_full        25.242
_diffrn_reflns_theta_max         27.496
_diffrn_reflns_theta_min         2.030
_diffrn_standards_number         0
_exptl_absorpt_coefficient_mu    0.240
_exptl_absorpt_correction_T_max  0.7456
_exptl_absorpt_correction_T_min  0.5888
_exptl_absorpt_correction_type   multi-scan
_exptl_absorpt_process_details
'SADABS-2016/2 (Bruker,2016/2) was used for absorption correction. wR2(int) was 0.1032 before and 0.0853 after correction. The Ratio of minimum to maximum transmission is 0.7897. The \l/2 correction factor is Not present.'
_exptl_crystal_colour            colourless
_exptl_crystal_colour_primary    colourless
_exptl_crystal_density_diffrn    0.636
_exptl_crystal_description       block
_exptl_crystal_F_000             720
_exptl_crystal_size_max          0.11
_exptl_crystal_size_mid          0.09
_exptl_crystal_size_min          0.09
_refine_diff_density_max         1.664
_refine_diff_density_min         -1.374
_refine_diff_density_rms         0.128
_refine_ls_extinction_method     none
_refine_ls_goodness_of_fit_ref   1.080
_refine_ls_hydrogen_treatment    constr
_refine_ls_matrix_type           full
_refine_ls_number_parameters     64
_refine_ls_number_reflns         1724
_refine_ls_number_restraints     0
_refine_ls_restrained_S_all      1.080
_refine_ls_R_factor_all          0.1019
_refine_ls_R_factor_gt           0.0892
_refine_ls_shift/su_max          0.000
_refine_ls_shift/su_mean         0.000
_refine_ls_structure_factor_coef Fsqd
_refine_ls_weighting_details
'w=1/[\s^2^(Fo^2^)+(0.1742P)^2^+2.6618P] where P=(Fo^2^+2Fc^2^)/3'
_refine_ls_weighting_scheme      calc
_refine_ls_wR_factor_gt          0.2487
_refine_ls_wR_factor_ref         0.2633
_reflns_Friedel_coverage         0.000
_reflns_number_gt                1315
_reflns_number_total             1724
_reflns_threshold_expression     'I > 2\s(I)'
_iucr_refine_instructions_details
;
TITL mo_lc_lqx_zr_120k_0m_a.res in P6/mmm
REM Old TITL mo_lc_lqx_zr_120k_0m in P6/mcc #192
REM SHELXT solution in P6/mmm: R1 0.243, Rweak 0.045, Alpha 0.135
REM <I/s> 0.000 for 0 systematic absences, Orientation as input
REM Formula found by SHELXT: C106 N61 O36 I3
CELL 0.71073 23.1683 23.1683 8.0801 90 90 120
ZERR 3 0.0021 0.0021 0.0011 0 0 0
LATT 1
SYMM -Y,+X-Y,+Z
SYMM +Y-X,-X,+Z
SYMM -X,-Y,+Z
SYMM +Y,-X+Y,+Z
SYMM -Y+X,+X,+Z
SYMM +Y,+X,-Z
SYMM -Y+X,-Y,-Z
SYMM -X,-X+Y,-Z
SYMM -Y,-X,-Z
SYMM +Y-X,+Y,-Z
SYMM +X,+X-Y,-Z
SFAC C H N O Zr
UNIT 48 36 12 24 3
EQIV $1 +X,+Y,2-Z
EQIV $2 1-Y,1-X,+Z
 
L.S. 20
PLAN  20 0 0
SIZE 0.09 0.09 0.11
TEMP -153.15
FREE C3 C3_$1
FREE C3 C4_$2
FREE C4 C4_$1
FREE C4 C3_$2
CONF
list 4
MORE -1
BOND $H
ABIN
fmap 2
acta
REM <olex2.extras>
REM <HklSrc "%.\\mo_lc_lqx_zr_120k_0m.hkl">
REM </olex2.extras>
 
WGHT    0.174200    2.661800
FVAR       0.32855
ZR1   5    1.000000    0.500000    1.000000    10.12500    0.01466    0.04469 =
         0.03291    0.00000    0.00000    0.00733
C2    1    0.819609    0.298166    1.000000    10.50000    0.02951    0.04604 =
         0.08480    0.00000    0.00000    0.00511
O2    4    0.914922    0.401186    0.933552    10.50000    0.03291    0.03844 =
         0.04072    0.00099   -0.00290    0.00955
O1    4    0.963582    0.439402    0.780022    10.50000    0.01845    0.04929 =
         0.04403   -0.00827    0.00560   -0.00389
N1    3    0.905084    0.379353    0.797748    10.50000    0.02679    0.04927 =
         0.04473    0.00186    0.00280    0.00223
AFIX  13
H1    2    0.874131    0.395480    0.763149    10.50000   -1.20000
AFIX   0
PART 1
C3    1    0.772972    0.286458    0.886112    10.50000    0.06120    0.04407 =
         0.05414    0.01951    0.01152    0.01240
AFIX  43
H3    2    0.780942    0.319307    0.804985    10.50000   -1.20000
AFIX   0
PART 0
PART 2
C4    1    0.808416    0.250948    0.890605    10.50000    0.09590    0.10745 =
         0.06648    0.02440    0.03851    0.06837
AFIX  43
H4    2    0.841737    0.258227    0.811525    10.50000   -1.20000
AFIX   0
PART 0
C1    1    0.882727    0.362493    0.947688    10.50000    0.03282    0.05069 =
         0.03878   -0.00121   -0.00036    0.01719
HKLF 4
 
REM  mo_lc_lqx_zr_120k_0m_a.res in P6/mmm
REM R1 =  0.0892 for    1315 Fo > 4sig(Fo)  and  0.1019 for all    1724 data
REM     64 parameters refined using      0 restraints
 
END  
     
WGHT      0.1742      2.6618 

REM Highest difference peak  1.664,  deepest hole -1.374,  1-sigma level  0.128
Q1    1   0.9575  0.4309  0.5000  10.50000  0.05    1.66
Q2    1   1.0000  0.5000  1.1264  10.25000  0.05    1.42
Q3    1   0.9043  0.3895  0.5000  10.50000  0.05    0.95
Q4    1   1.0339  0.4771  1.0000  10.50000  0.05    0.70
Q5    1   0.8506  0.3060  1.0000  10.50000  0.05    0.43
Q6    1   0.8818  0.3480  0.7052  11.00000  0.05    0.42
Q7    1   1.0000  0.5000  0.7436  10.25000  0.05    0.37
Q8    1   1.0000  0.5000  0.5000  10.12500  0.05    0.36
Q9    1   1.0000  0.0000  0.8685  10.08333  0.05    0.34
Q10   1   0.9200  0.4600  0.5000  10.25000  0.05    0.34
Q11   1   0.8281  0.2631  0.7075  11.00000  0.05    0.28
Q12   1   0.6667  0.3333  0.7021  10.16667  0.05    0.28
Q13   1   1.0000  0.0493  1.0000  10.25000  0.05    0.27
Q14   1   0.9601  0.4635  0.5871  11.00000  0.05    0.27
Q15   1   0.8128  0.2811  0.9169  11.00000  0.05    0.24
Q16   1   0.7657  0.3564  1.0000  10.50000  0.05    0.24
Q17   1   0.6667  0.3333  1.0000  10.08333  0.05    0.23
Q18   1   0.7645  0.2355  0.9356  10.50000  0.05    0.23
Q19   1   0.7850  0.2150  0.9402  10.50000  0.05    0.23
Q20   1   0.7196  0.3598  1.0000  10.25000  0.05    0.21

  REM The information below was added by Olex2.
  REM
  REM R1 = 0.0892 for 1315 Fo > 4sig(Fo) and 0.1019 for all 36009 data
  REM n/a parameters refined using n/a restraints
  REM Highest difference peak 1.66, deepest hole -1.37
  REM Mean Shift 0, Max Shift 0.000.

  REM +++ Tabular Listing of Refinement Information +++
  REM R1_all = 0.1019
  REM R1_gt = 0.0892
  REM wR_ref = 0.2633
  REM GOOF = 1.080
  REM Shift_max = 0.000
  REM Shift_mean = 0
  REM Reflections_all = 36009
  REM Reflections_gt = 1315
  REM Parameters = n/a
  REM Hole = -1.37
  REM Peak = 1.66
  REM Flack = n/a

  
;
_cod_data_source_file            d2cc00213b2.cif
_cod_data_source_block           SUM-1Zr
_cod_original_cell_volume        3756.1(9)
_cod_database_code               7129623
_shelxl_version_number           2014/6
_shelx_space_group_comment
;
The symmetry employed for this shelxl refinement is uniquely defined
by the following loop, which should always be used as a source of
symmetry information in preference to the above space-group names.
They are only intended as comments.
;
_shelx_estimated_absorpt_t_max   0.979
_shelx_estimated_absorpt_t_min   0.974
_olex2_refinement_description
;
1. Fixed Uiso
 At 1.2 times of:
  All C(H) groups, All N(H) groups
2. Others
 Fixed Sof: O2(0.5) O1(0.5) N1(0.5) H1(0.5) C3(0.5) H3(0.5) C4(0.5) H4(0.5)
 C1(0.5)
3.a Ternary CH refined with riding coordinates:
 N1(H1)
3.b Aromatic/amide H refined with riding coordinates:
 C3(H3), C4(H4)
;
_shelx_fab_file
;
0 0 1 -128.4528 0.2057
0 0 2 138.3097 0.2123
0 0 3 11.3451 0.1652
0 0 4 55.4186 0.1795
0 0 5 -50.8360 0.0961
0 0 6 42.8216 0.0793
0 0 7 -33.7590 0.0889
0 0 8 24.3981 0.0310
0 0 9 -15.9668 0.0483
0 0 10 3.0690 0.0008
1 0 1 52.5062 -0.0332
1 0 2 -16.6059 0.0386
1 0 3 48.1067 -0.0048
1 0 4 -27.0673 -0.0066
1 0 5 7.9820 0.0036
1 0 6 -12.8633 0.0017
1 0 7 10.1072 -0.0053
1 0 8 -6.0375 -0.0022
1 0 9 2.6954 -0.0011
1 0 10 -2.8916 -0.0020
1 1 1 -17.2196 -0.2824
1 1 2 -23.6202 -0.0799
1 1 3 3.7234 -0.1602
1 1 4 -19.5513 -0.1366
1 1 5 -5.6643 -0.0853
1 1 6 -2.5117 -0.0827
1 1 7 -2.3829 -0.0757
1 1 8 3.0390 -0.0622
1 1 9 -0.1336 -0.0460
1 1 10 -4.2262 -0.0168
2 0 0 -33.5028 -0.1952
2 0 1 11.3307 0.2428
2 0 2 -4.2824 -0.1854
2 0 3 -8.2918 0.0371
2 0 4 -7.5257 0.0295
2 0 5 -5.4814 -0.0395
2 0 6 -4.0673 0.0179
2 0 7 0.8801 0.0268
2 0 8 -3.1802 -0.0083
2 0 9 -2.0681 0.0270
2 0 10 1.0875 0.0029
2 1 0 6.9016 0.1309
2 1 1 -8.3175 0.1980
2 1 2 16.4908 0.4397
2 1 3 -23.1222 0.3598
2 1 4 7.9397 0.2939
2 1 5 -15.3946 0.3213
2 1 6 7.6172 0.2572
2 1 7 -7.3381 0.2266
2 1 8 0.8253 0.2203
2 1 9 -3.7975 0.1777
2 1 10 1.4335 0.0838
2 2 0 27.2063 -0.0687
2 2 1 0.6677 -0.6863
2 2 2 -26.7152 -0.8411
2 2 3 13.1781 -0.6217
2 2 4 -16.8060 -0.7424
2 2 5 3.0527 -0.6424
2 2 6 -5.6867 -0.5434
2 2 7 3.6603 -0.5190
2 2 8 -4.3547 -0.4339
2 2 9 1.7630 -0.3656
2 2 10 -0.8974 -0.3055
3 0 0 42.4513 -0.2914
3 0 1 21.0098 -0.0814
3 0 2 1.2329 -0.0116
3 0 3 29.3514 -0.0544
3 0 4 -4.1572 -0.0409
3 0 5 1.6336 -0.0333
3 0 6 -1.3930 -0.0356
3 0 7 -1.7877 -0.0280
3 0 8 -2.4941 -0.0233
3 0 9 -3.0359 -0.0291
3 0 10 0.8126 -0.0236
3 1 0 17.7934 0.4985
3 1 1 32.3306 0.5563
3 1 2 1.7069 0.4588
3 1 3 1.5287 0.3757
3 1 4 -1.7610 0.4667
3 1 5 -0.3598 0.3736
3 1 6 -2.1553 0.3226
3 1 7 1.5593 0.3115
3 1 8 -2.8893 0.2601
3 1 9 0.1854 0.1984
3 1 10 1.1808 0.1618
3 2 0 -12.0041 -0.2947
3 2 1 -7.2898 -0.1233
3 2 2 3.0201 -0.2346
3 2 3 -2.5594 -0.2123
3 2 4 -2.0231 -0.1245
3 2 5 -2.9475 -0.1637
3 2 6 0.5768 -0.1408
3 2 7 -2.7699 -0.1002
3 2 8 -1.5612 -0.1014
3 2 9 -0.8710 -0.1247
3 2 10 2.2546 -0.0196
3 3 0 -11.3458 0.0446
3 3 1 13.5099 0.1696
3 3 2 0.3111 0.2961
3 3 3 11.2093 0.2720
3 3 4 -3.1525 0.2622
3 3 5 1.3843 0.2492
3 3 6 -2.8848 0.2187
3 3 7 -2.1476 0.1805
3 3 8 -3.4068 0.1676
3 3 9 2.6212 0.1667
3 3 10 -1.1753 0.1147
4 0 0 17.4195 -0.5355
4 0 1 55.6827 -0.4146
4 0 2 -6.0194 -0.3326
4 0 3 7.6557 -0.2880
4 0 4 -5.2877 -0.3233
4 0 5 3.3373 -0.2572
4 0 6 -3.6972 -0.2307
4 0 7 2.2883 -0.2112
4 0 8 -2.4959 -0.1752
4 0 9 2.3269 -0.1463
4 0 10 1.0590 -0.1292
4 1 0 22.7650 0.2435
4 1 1 -7.3167 -0.0472
4 1 2 -6.0571 -0.0730
4 1 3 -12.8990 -0.0151
4 1 4 5.5182 -0.0521
4 1 5 -9.8262 -0.0498
4 1 6 6.7206 -0.0219
4 1 7 -9.4416 -0.0256
4 1 8 5.7687 -0.0456
4 1 9 -1.6307 0.0038
4 1 10 2.3495 -0.0051
4 2 0 -19.7473 -0.0266
4 2 1 -2.5647 -0.0796
4 2 2 2.6059 -0.0315
4 2 3 -6.1473 -0.1247
4 2 4 1.2055 -0.1495
4 2 5 -1.6364 -0.0409
4 2 6 1.0924 -0.0803
4 2 7 -5.5554 -0.0967
4 2 8 0.8972 -0.0625
4 2 9 0.2222 -0.0623
4 2 10 0.2421 -0.1300
4 3 0 -6.0075 0.0202
4 3 1 25.1635 -0.1415
4 3 2 1.9410 -0.2488
4 3 3 6.7883 -0.1716
4 3 4 -1.9766 -0.1170
4 3 5 2.5839 -0.1856
4 3 6 -3.9543 -0.1379
4 3 7 3.8978 -0.1112
4 3 8 -2.3139 -0.1172
4 3 9 1.1348 -0.1032
4 3 10 3.8476 -0.0748
4 4 0 10.5990 0.0208
4 4 1 -0.6817 -0.8479
4 4 2 -1.6151 -0.7746
4 4 3 4.0181 -0.7603
4 4 4 0.4975 -0.7380
4 4 5 -0.9842 -0.6239
4 4 6 -0.3500 -0.6227
4 4 7 2.9344 -0.5440
4 4 8 -0.2830 -0.4396
4 4 9 1.0976 -0.3871
4 4 10 1.6438 -0.3451
5 0 0 -51.5797 -0.3055
5 0 1 1.4037 -0.4873
5 0 2 -8.5819 -0.4851
5 0 3 0.7553 -0.3612
5 0 4 -6.9146 -0.4234
5 0 5 3.2562 -0.3820
5 0 6 -3.8852 -0.3253
5 0 7 -1.9206 -0.3060
5 0 8 -2.9303 -0.2547
5 0 9 2.6258 -0.2081
5 0 10 0.3630 -0.0939
5 1 0 -33.2686 0.2465
5 1 1 -20.0590 0.3001
5 1 2 1.5875 0.3358
5 1 3 -3.7670 0.3212
5 1 4 -3.8895 0.3214
5 1 5 2.6599 0.2176
5 1 6 -2.6725 0.2423
5 1 7 -0.8827 0.2288
5 1 8 -3.1950 0.1799
5 1 9 2.3561 0.1836
5 1 10 -1.5144 0.1636
5 2 0 3.5045 -0.1230
5 2 1 -5.5233 0.2732
5 2 2 -8.9911 0.2406
5 2 3 5.7926 0.2187
5 2 4 0.1682 0.2061
5 2 5 1.7108 0.2176
5 2 6 -1.5443 0.1490
5 2 7 0.2101 0.1445
5 2 8 -1.1721 0.1466
5 2 9 2.6611 0.0399
5 2 10 0.9452 0.0518
5 3 0 18.4092 0.0112
5 3 1 -24.3529 -0.1499
5 3 2 12.2026 -0.0435
5 3 3 3.2097 -0.0670
5 3 4 8.4251 -0.0815
5 3 5 -4.5621 -0.0882
5 3 6 0.3623 -0.0428
5 3 7 3.0628 -0.0320
5 3 8 -1.6213 -0.0559
5 3 9 0.6263 -0.0097
5 3 10 5.2839 0.0609
5 4 0 3.6496 0.0982
5 4 1 -5.4315 0.3245
5 4 2 -6.9662 0.1794
5 4 3 5.9532 0.2331
5 4 4 -5.2049 0.1928
5 4 5 2.2238 0.2124
5 4 6 -1.9088 0.1722
5 4 7 1.6515 0.1429
5 4 8 0.3023 0.1565
5 4 9 -1.1633 0.1251
5 4 10 -0.9906 0.0908
5 5 0 7.1040 -0.0576
5 5 1 -2.0126 0.3005
5 5 2 2.4963 0.3074
5 5 3 -8.5618 0.2452
5 5 4 3.7584 0.3007
5 5 5 -0.6237 0.2503
5 5 6 1.3562 0.1982
5 5 7 -2.2816 0.2016
5 5 8 1.9837 0.1582
5 5 9 -1.3213 0.1733
6 0 0 -14.3767 -0.5931
6 0 1 -6.8204 -0.5307
6 0 2 3.9649 -0.5447
6 0 3 2.3287 -0.6632
6 0 4 -1.3678 -0.5079
6 0 5 -1.9138 -0.4539
6 0 6 0.9344 -0.4849
6 0 7 -2.5445 -0.3976
6 0 8 0.1421 -0.3110
6 0 9 -0.0265 -0.2643
6 0 10 -1.2360 -0.2523
6 1 0 6.7593 0.2791
6 1 1 5.4529 0.1310
6 1 2 -0.6113 0.1328
6 1 3 0.8041 0.1777
6 1 4 1.2386 0.1195
6 1 5 -0.3060 0.1296
6 1 6 -0.1817 0.1392
6 1 7 2.7121 0.1072
6 1 8 0.2202 0.0898
6 1 9 1.3447 0.0754
6 1 10 -0.4353 0.1127
6 2 0 5.8231 -0.1465
6 2 1 -3.4904 0.0730
6 2 2 -4.0507 0.0459
6 2 3 10.7479 0.0432
6 2 4 -1.3516 0.0698
6 2 5 3.7697 0.0631
6 2 6 -2.9627 0.0626
6 2 7 3.9545 0.0308
6 2 8 -1.2068 0.0229
6 2 9 3.5529 0.0655
6 2 10 1.3739 -0.1664
6 3 0 10.0920 -0.0094
6 3 1 9.1393 -0.1696
6 3 2 -4.4611 -0.1962
6 3 3 5.4272 -0.1652
6 3 4 -3.1219 -0.1517
6 3 5 1.4472 -0.1594
6 3 6 -2.8027 -0.1210
6 3 7 -0.1485 -0.1154
6 3 8 -1.3917 -0.1050
6 3 9 6.2247 -0.0653
6 4 0 5.1381 0.0728
6 4 1 8.5293 -0.0208
6 4 2 -2.0368 0.0207
6 4 3 -1.0758 0.0104
6 4 4 -0.8886 -0.0167
6 4 5 1.5050 -0.0072
6 4 6 -1.8098 -0.0011
6 4 7 0.3359 -0.0057
6 4 8 -0.1468 0.0044
6 4 9 1.6362 -0.0791
6 5 0 -0.4283 -0.0916
6 5 1 -7.2039 -0.0703
6 5 2 4.1767 -0.1370
6 5 3 0.1096 -0.1291
6 5 4 5.4712 -0.0928
6 5 5 -0.3182 -0.1002
6 5 6 1.4110 -0.0803
6 5 7 1.3317 -0.0876
6 5 8 1.8317 -0.0730
6 5 9 1.4084 -0.0385
6 6 0 12.9532 0.0489
6 6 1 -4.2424 -0.8464
6 6 2 3.3638 -0.7530
6 6 3 -2.0357 -0.7912
6 6 4 3.3132 -0.7211
6 6 5 -1.7988 -0.6346
6 6 6 4.2824 -0.6054
6 6 7 0.0670 -0.5167
6 6 8 3.5631 -0.4200
6 6 9 0.4040 -0.4304
7 0 0 40.9164 -0.3139
7 0 1 2.7260 -0.6219
7 0 2 23.3044 -0.4967
7 0 3 -17.1543 -0.4185
7 0 4 10.1733 -0.5065
7 0 5 -6.1868 -0.3725
7 0 6 3.0696 -0.3400
7 0 7 4.6884 -0.3411
7 0 8 1.2943 -0.2636
7 0 9 0.5798 -0.2080
7 0 10 0.1316 -0.0559
7 1 0 0.8890 0.2064
7 1 1 20.5374 -0.0085
7 1 2 -15.2456 0.0054
7 1 3 8.7479 0.0339
7 1 4 -7.4507 0.0440
7 1 5 7.3262 -0.0307
7 1 6 -2.0033 0.0175
7 1 7 1.4128 0.0386
7 1 8 2.0658 -0.0174
7 1 9 2.4655 -0.0018
7 1 10 -1.2125 0.0178
7 2 0 7.8085 -0.0430
7 2 1 -6.2498 -0.0167
7 2 2 4.2522 -0.0254
7 2 3 -7.5025 -0.0594
7 2 4 7.0168 -0.0433
7 2 5 -2.9878 -0.0075
7 2 6 2.9623 -0.0633
7 2 7 -3.6164 -0.0274
7 2 8 2.8748 0.0036
7 2 9 1.3437 -0.0425
7 3 0 -5.1501 -0.0282
7 3 1 11.2214 -0.0260
7 3 2 -0.2619 0.1059
7 3 3 0.5078 0.0088
7 3 4 -1.1803 0.0235
7 3 5 1.4890 0.0460
7 3 6 0.0996 0.0135
7 3 7 -2.2049 0.0168
7 3 8 1.5475 0.0023
7 3 9 1.0317 0.0525
7 4 0 -0.0065 0.1004
7 4 1 -8.5033 0.1441
7 4 2 2.4350 0.1117
7 4 3 -1.4108 0.1573
7 4 4 0.5001 0.1360
7 4 5 1.7456 0.1024
7 4 6 -0.1621 0.1019
7 4 7 -1.1834 0.0915
7 4 8 0.6600 0.0632
7 4 9 2.3636 0.0391
7 5 0 -1.9321 -0.1143
7 5 1 -8.3086 -0.1774
7 5 2 -8.4615 -0.1976
7 5 3 6.0894 -0.1646
7 5 4 -5.3905 -0.1600
7 5 5 6.5754 -0.1581
7 5 6 -3.2490 -0.1426
7 5 7 4.3547 -0.1038
7 5 8 -0.1043 -0.1289
7 5 9 0.8590 -0.0430
7 6 0 4.5376 0.1475
7 6 1 -4.0604 0.1773
7 6 2 3.3786 0.1932
7 6 3 -5.7937 0.2233
7 6 4 4.6772 0.1700
7 6 5 -3.7643 0.1351
7 6 6 7.1635 0.1649
7 6 7 -1.2133 0.1328
7 6 8 0.2066 0.0795
7 6 9 -0.8137 0.1170
7 7 0 -1.1613 -0.0225
7 7 1 -0.9110 0.4077
7 7 2 0.8638 0.2836
7 7 3 -0.5105 0.3455
7 7 4 -0.8861 0.3132
7 7 5 0.6506 0.2804
7 7 6 2.2682 0.2676
7 7 7 -0.1116 0.2450
7 7 8 -2.6603 0.2048
7 7 9 1.0475 0.1914
8 0 0 -10.1890 -0.5985
8 0 1 -1.2735 -0.1916
8 0 2 1.0339 -0.3173
8 0 3 2.1195 -0.3708
8 0 4 4.1676 -0.2505
8 0 5 -0.1537 -0.2882
8 0 6 0.8178 -0.2788
8 0 7 1.6073 -0.2134
8 0 8 -2.0805 -0.1686
8 0 9 2.0638 -0.2247
8 1 0 -16.3875 0.3186
8 1 1 -9.6572 0.3917
8 1 2 1.5003 0.4445
8 1 3 -0.0670 0.3784
8 1 4 -1.8554 0.3415
8 1 5 3.5472 0.3569
8 1 6 1.8600 0.2837
8 1 7 -2.2943 0.2488
8 1 8 0.3928 0.2407
8 1 9 -0.1925 0.2041
8 2 0 -5.3195 -0.1375
8 2 1 -6.3988 -0.0109
8 2 2 3.6390 -0.2423
8 2 3 -3.5298 -0.0584
8 2 4 2.5339 -0.0801
8 2 5 0.3773 -0.1360
8 2 6 2.9296 -0.0510
8 2 7 -2.4220 -0.0801
8 2 8 -0.3490 -0.0434
8 2 9 -0.2229 -0.0695
8 3 0 -7.6842 -0.0738
8 3 1 -4.8570 -0.1835
8 3 2 0.7907 -0.0951
8 3 3 2.1621 -0.1129
8 3 4 4.6282 -0.1256
8 3 5 0.1675 -0.1034
8 3 6 0.3355 -0.0906
8 3 7 -0.2739 -0.0600
8 3 8 0.3678 -0.0787
8 3 9 -0.3868 -0.0342
8 4 0 2.0165 0.0814
8 4 1 -15.2937 0.4087
8 4 2 0.9707 0.3488
8 4 3 -5.8810 0.3324
8 4 4 3.7690 0.3169
8 4 5 -3.1174 0.3230
8 4 6 3.1857 0.2897
8 4 7 -1.4711 0.2076
8 4 8 2.5167 0.2586
8 4 9 -0.7724 0.1300
8 5 0 -6.7401 -0.0757
8 5 1 -2.6617 -0.0775
8 5 2 -7.8175 -0.0989
8 5 3 3.0541 -0.1117
8 5 4 -4.6283 -0.0880
8 5 5 2.4586 -0.0685
8 5 6 -0.6948 -0.0837
8 5 7 2.5892 -0.0682
8 5 8 0.9191 -0.0422
8 5 9 -2.0570 0.0098
8 6 0 -9.1268 -0.0074
8 6 1 3.4406 -0.0369
8 6 2 -4.9756 0.0990
8 6 3 3.1490 -0.0047
8 6 4 -1.6475 0.0158
8 6 5 4.3373 0.0343
8 6 6 -1.7293 -0.0082
8 6 7 3.1666 -0.0220
8 6 8 -0.8061 0.0360
8 6 9 2.2661 -0.1090
8 7 0 -1.6236 -0.0474
8 7 1 -1.7083 0.1015
8 7 2 -1.8800 0.0093
8 7 3 -0.3709 0.0332
8 7 4 1.1674 0.0382
8 7 5 1.0948 0.0313
8 7 6 0.5277 0.0291
8 7 7 1.2879 0.0296
8 7 8 0.3819 0.0455
8 7 9 1.4762 0.0500
8 8 0 1.1983 0.0095
8 8 1 -4.0406 -0.7058
8 8 2 -1.0299 -0.5723
8 8 3 1.7297 -0.6225
8 8 4 -0.9197 -0.5751
8 8 5 -0.2446 -0.5451
8 8 6 1.5955 -0.4707
8 8 7 3.1188 -0.3810
8 8 8 1.8774 -0.4188
9 0 0 -5.2131 -0.2310
9 0 1 -3.1549 -0.6005
9 0 2 -1.9772 -0.4046
9 0 3 3.0563 -0.3866
9 0 4 -4.6139 -0.4243
9 0 5 3.2555 -0.3502
9 0 6 1.0220 -0.3169
9 0 7 -2.0598 -0.2769
9 0 8 -0.3440 -0.2837
9 0 9 1.4470 -0.1797
9 1 0 4.1810 0.2139
9 1 1 -5.7939 0.0815
9 1 2 2.2346 0.1507
9 1 3 -4.3410 0.1019
9 1 4 3.8393 0.0867
9 1 5 0.4632 0.1205
9 1 6 -0.2439 0.1155
9 1 7 4.3072 0.0610
9 1 8 -4.2064 0.0389
9 1 9 2.1848 0.1044
9 2 0 -12.3207 -0.0187
9 2 1 11.8436 -0.0970
9 2 2 -7.1439 -0.0513
9 2 3 8.9034 -0.1258
9 2 4 -4.8608 -0.0641
9 2 5 5.5844 -0.0745
9 2 6 -2.3957 -0.0709
9 2 7 5.0796 -0.0297
9 2 8 -2.8718 -0.0424
9 2 9 1.0873 -0.0473
9 3 0 9.2452 -0.0085
9 3 1 6.2244 -0.1707
9 3 2 -0.3911 -0.1268
9 3 3 -0.4672 -0.1546
9 3 4 -1.1569 -0.1296
9 3 5 1.1971 -0.1030
9 3 6 -0.8488 -0.1385
9 3 7 1.5379 -0.0872
9 3 8 0.7227 -0.1141
9 3 9 2.1729 -0.0737
9 4 0 3.7458 0.0961
9 4 1 -3.2443 -0.1147
9 4 2 2.2638 -0.1200
9 4 3 -5.8259 -0.0841
9 4 4 2.0360 -0.0540
9 4 5 -1.8548 -0.1063
9 4 6 2.0839 -0.0509
9 4 7 -0.0945 -0.0504
9 4 8 2.1326 -0.0655
9 4 9 1.0123 -0.0249
9 5 0 -5.1694 -0.0755
9 5 1 -0.7849 -0.0540
9 5 2 0.5245 -0.0768
9 5 3 -0.8834 -0.0503
9 5 4 2.6600 -0.0748
9 5 5 -1.1401 -0.0650
9 5 6 -0.0784 -0.0586
9 5 7 2.2450 -0.0055
9 5 8 3.1626 -0.0565
9 5 9 0.8883 -0.0112
9 6 0 12.2227 0.1167
9 6 1 -7.4225 -0.0533
9 6 2 6.0880 -0.0171
9 6 3 -2.4226 -0.0153
9 6 4 6.1049 -0.0233
9 6 5 -3.3859 -0.0272
9 6 6 3.8331 0.0054
9 6 7 -2.0614 -0.0385
9 6 8 4.4509 -0.0844
9 6 9 2.6793 -0.0053
9 7 0 -1.2784 -0.0632
9 7 1 -0.3944 -0.1931
9 7 2 0.9079 -0.3047
9 7 3 -0.9752 -0.1678
9 7 4 1.1635 -0.2002
9 7 5 0.1835 -0.1676
9 7 6 1.3947 -0.1498
9 7 7 2.0232 -0.1520
9 7 8 0.3482 -0.0419
9 8 0 -5.5294 0.0047
9 8 1 2.9321 -0.0609
9 8 2 -2.8927 -0.0000
9 8 3 0.3944 -0.0370
9 8 4 -1.7156 -0.0258
9 8 5 2.3948 -0.0229
9 8 6 -1.9179 -0.0303
9 8 7 4.9124 -0.0254
9 8 8 1.0231 0.0204
9 9 0 -1.0445 -0.0003
9 9 1 -0.8573 0.3271
9 9 2 -0.9445 0.1920
9 9 3 5.2981 0.2607
9 9 4 -0.0999 0.2314
9 9 5 2.3231 0.2411
9 9 6 1.0472 0.2063
9 9 7 -0.1030 0.1550
9 9 8 1.4581 0.1928
10 0 0 11.1681 -0.6878
10 0 1 0.8869 -0.2594
10 0 2 3.6704 -0.4293
10 0 3 -1.1400 -0.3689
10 0 4 0.4140 -0.2907
10 0 5 0.1493 -0.2992
10 0 6 2.5020 -0.2731
10 0 7 0.8227 -0.2419
10 0 8 1.5681 -0.1654
10 0 9 0.8327 -0.2202
10 1 0 8.0964 0.2503
10 1 1 0.0760 0.2088
10 1 2 0.9965 0.2163
10 1 3 0.8565 0.2045
10 1 4 0.3842 0.2067
10 1 5 -0.7840 0.1664
10 1 6 1.9814 0.1258
10 1 7 -0.0653 0.1644
10 1 8 0.0144 0.1115
10 1 9 1.0292 0.0649
10 2 0 3.2839 -0.1248
10 2 1 1.6920 0.1503
10 2 2 0.4342 -0.0112
10 2 3 -1.2705 0.1177
10 2 4 2.2148 0.0294
10 2 5 0.4244 0.0358
10 2 6 -0.0041 0.0591
10 2 7 0.6225 -0.0199
10 2 8 -0.1460 0.0871
10 2 9 0.9166 0.0083
10 3 0 -0.4213 -0.0231
10 3 1 5.2911 0.0795
10 3 2 -0.4187 0.1583
10 3 3 4.0528 0.1225
10 3 4 -2.5404 0.0870
10 3 5 2.7605 0.0838
10 3 6 -0.2453 0.0839
10 3 7 2.6107 0.0703
10 3 8 -0.4736 0.0071
10 3 9 2.4342 0.0815
10 4 0 2.6951 0.0267
10 4 1 -2.4725 0.1560
10 4 2 2.8455 0.1017
10 4 3 1.8573 0.0956
10 4 4 -1.1071 0.0810
10 4 5 -0.0250 0.1164
10 4 6 0.1296 0.0732
10 4 7 0.7757 0.0583
10 4 8 1.6426 0.1571
10 4 9 0.1323 -0.0583
10 5 0 -4.3296 -0.0951
10 5 1 0.7545 -0.0728
10 5 2 -0.0060 -0.1002
10 5 3 0.3828 -0.0538
10 5 4 0.7683 -0.0518
10 5 5 1.8493 -0.0651
10 5 6 -1.8274 -0.0436
10 5 7 1.4559 -0.0498
10 5 8 2.0026 -0.0495
10 5 9 -0.5852 0.0719
10 6 0 -4.7812 0.0670
10 6 1 2.8856 0.3380
10 6 2 -1.1356 0.3977
10 6 3 2.0662 0.2818
10 6 4 -1.5352 0.3364
10 6 5 3.2560 0.2850
10 6 6 -1.2429 0.2165
10 6 7 2.5982 0.2610
10 6 8 -0.8178 0.1136
10 7 0 0.7248 -0.0226
10 7 1 -2.0821 0.1436
10 7 2 0.0278 0.0762
10 7 3 0.6416 0.0990
10 7 4 -1.7636 0.0728
10 7 5 -1.9071 0.0735
10 7 6 3.6900 0.0902
10 7 7 -2.0095 0.0711
10 7 8 0.0546 0.1265
10 8 0 -1.0413 0.0203
10 8 1 -2.9513 -0.0575
10 8 2 2.0199 0.0781
10 8 3 -0.8995 -0.0157
10 8 4 2.2270 0.0315
10 8 5 -0.3031 -0.0107
10 8 6 2.2585 -0.0048
10 8 7 -0.5169 0.0531
10 8 8 1.4147 -0.1319
10 9 0 -0.2404 0.0237
10 9 1 0.5448 0.1742
10 9 2 2.6439 0.1028
10 9 3 1.4831 0.1480
10 9 4 2.9049 0.0976
10 9 5 2.1990 0.1032
10 9 6 1.3888 0.0969
10 9 7 -0.4872 0.0674
10 9 8 1.7658 0.1168
10 10 0 1.3358 0.0123
10 10 1 3.5098 -0.6225
10 10 2 -2.6025 -0.4083
10 10 3 3.8960 -0.4867
10 10 4 -0.5202 -0.4566
10 10 5 2.3403 -0.4146
10 10 6 -0.5958 -0.3456
10 10 7 0.8804 -0.3581
11 0 0 -1.6342 -0.1724
11 0 1 -2.4089 -0.5355
11 0 2 -1.4668 -0.3463
11 0 3 2.5634 -0.4034
11 0 4 1.1303 -0.3784
11 0 5 1.7692 -0.3197
11 0 6 -1.9972 -0.2839
11 0 7 0.2699 -0.2586
11 0 8 -0.6410 -0.2595
11 0 9 1.4327 -0.0870
11 1 0 -3.5449 0.2392
11 1 1 -8.7953 0.2259
11 1 2 3.0620 0.3030
11 1 3 -3.2217 0.2630
11 1 4 2.6370 0.2133
11 1 5 -2.3956 0.2349
11 1 6 2.4918 0.2017
11 1 7 -1.8036 0.1711
11 1 8 0.4238 0.1440
11 1 9 -1.1172 0.1237
11 2 0 -3.4397 -0.0558
11 2 1 -5.0089 -0.1582
11 2 2 -1.0203 -0.1077
11 2 3 1.8901 -0.1953
11 2 4 -0.1088 -0.0815
11 2 5 1.4724 -0.1126
11 2 6 0.3013 -0.1092
11 2 7 0.5029 -0.0785
11 2 8 -0.4061 -0.0810
11 2 9 -1.3415 -0.0387
11 3 0 3.1783 0.0086
11 3 1 -2.7047 -0.1862
11 3 2 2.3260 -0.1939
11 3 3 -3.0952 -0.1695
11 3 4 4.1698 -0.1470
11 3 5 -0.0422 -0.1339
11 3 6 3.5059 -0.1273
11 3 7 -3.0547 -0.0897
11 3 8 1.9713 -0.1450
11 3 9 -0.6164 -0.0562
11 4 0 -2.8632 0.0729
11 4 1 2.2130 0.0799
11 4 2 -1.6381 0.1534
11 4 3 0.5574 0.1071
11 4 4 -1.5455 0.1074
11 4 5 2.9609 0.0818
11 4 6 -1.8904 0.1026
11 4 7 2.9797 0.0774
11 4 8 -0.6291 0.0900
11 5 0 -1.9654 -0.0633
11 5 1 -2.5078 -0.1738
11 5 2 -1.4322 -0.1831
11 5 3 0.9827 -0.1673
11 5 4 -1.0681 -0.1861
11 5 5 0.1093 -0.1358
11 5 6 2.0189 -0.1301
11 5 7 0.2822 -0.1578
11 5 8 1.6221 -0.0510
11 6 0 -2.9441 0.0792
11 6 1 1.0608 -0.1221
11 6 2 -2.5431 -0.1216
11 6 3 -2.0880 -0.1053
11 6 4 -1.4812 -0.0952
11 6 5 2.5303 -0.0770
11 6 6 -0.4390 -0.0692
11 6 7 1.7047 -0.0960
11 6 8 -1.9772 -0.0628
11 7 0 -2.9637 -0.0708
11 7 1 -1.4742 -0.0174
11 7 2 0.5303 -0.0111
11 7 3 -0.2596 -0.0063
11 7 4 0.1637 -0.0444
11 7 5 1.0968 -0.0067
11 7 6 0.6669 -0.0168
11 7 7 -0.1516 -0.0385
11 7 8 -0.1108 0.0250
11 8 0 -1.4645 -0.0044
11 8 1 -3.3785 -0.1330
11 8 2 2.5252 -0.1211
11 8 3 1.0889 -0.1113
11 8 4 1.9568 -0.1148
11 8 5 0.3832 -0.1079
11 8 6 4.1418 -0.0932
11 8 7 -0.0763 -0.1236
11 8 8 1.9323 -0.0867
11 9 0 -2.1034 0.0019
11 9 1 2.3232 -0.0611
11 9 2 -0.7108 -0.1517
11 9 3 -0.1445 -0.0911
11 9 4 1.4030 -0.0811
11 9 5 1.2221 -0.0645
11 9 6 2.4137 -0.1049
11 9 7 1.4161 0.0085
11 10 0 3.1346 -0.0511
11 10 1 -1.8715 -0.0284
11 10 2 1.4615 -0.1233
11 10 3 -1.0553 -0.0891
11 10 4 2.5916 -0.0329
11 10 5 -0.4723 -0.0772
11 10 6 1.0212 -0.0552
11 10 7 1.3382 -0.0021
11 11 0 -0.4912 0.0005
11 11 1 -0.1149 0.2431
11 11 2 -0.0734 0.1687
11 11 3 -0.6173 0.2152
11 11 4 1.8245 0.1903
11 11 5 1.0376 0.1938
11 11 6 1.4073 0.1499
11 11 7 2.6431 0.1532
12 0 0 -11.7214 -0.6514
12 0 1 5.4936 -0.3636
12 0 2 -9.2133 -0.5685
12 0 3 5.9724 -0.4911
12 0 4 -6.0055 -0.3889
12 0 5 5.3071 -0.3839
12 0 6 -3.2585 -0.3685
12 0 7 3.2317 -0.2966
12 0 8 -1.4951 -0.2126
12 0 9 1.4620 -0.2903
12 1 0 -5.5015 0.1825
12 1 1 -5.0228 0.1100
12 1 2 -0.0119 0.1088
12 1 3 -3.2893 0.1533
12 1 4 0.8686 0.1136
12 1 5 1.8226 0.0752
12 1 6 0.9408 0.1112
12 1 7 0.3534 0.1018
12 1 8 0.5454 0.0140
12 1 9 -1.3807 0.0561
12 2 0 -2.8489 -0.0847
12 2 1 -0.5086 0.0631
12 2 2 -0.7341 -0.0420
12 2 3 -1.3464 0.0230
12 2 4 0.9206 -0.0342
12 2 5 1.6857 0.0117
12 2 6 0.4183 -0.0017
12 2 7 0.0252 -0.0042
12 2 8 0.4398 0.0756
12 2 9 -2.2042 -0.1379
12 3 0 0.4706 -0.0245
12 3 1 4.9646 -0.0100
12 3 2 -1.6163 -0.0194
12 3 3 1.5555 0.0061
12 3 4 1.3531 -0.0136
12 3 5 3.1583 -0.0089
12 3 6 -0.6349 0.0119
12 3 7 0.9317 -0.0367
12 3 8 -0.2429 -0.0474
12 4 0 1.6242 0.0442
12 4 1 -4.0902 0.0921
12 4 2 3.5559 0.0365
12 4 3 -3.0944 0.0543
12 4 4 2.9673 0.0803
12 4 5 -1.1322 0.0366
12 4 6 3.2592 -0.0132
12 4 7 -0.9106 0.0993
12 4 8 1.9622 -0.0294
12 5 0 0.7731 -0.0834
12 5 1 -3.1783 -0.0525
12 5 2 0.8649 -0.0529
12 5 3 -4.8126 -0.0287
12 5 4 4.0538 -0.0719
12 5 5 -1.6626 -0.0501
12 5 6 1.3867 -0.0181
12 5 7 -0.2641 -0.0403
12 5 8 3.2367 0.0217
12 6 0 1.4168 0.0445
12 6 1 -2.9850 0.0488
12 6 2 1.2522 0.0563
12 6 3 1.0213 0.0467
12 6 4 2.7604 0.0879
12 6 5 0.2619 0.0214
12 6 6 1.4683 0.0322
12 6 7 -2.2078 0.1140
12 6 8 1.8574 -0.0807
12 7 0 -3.0649 0.0045
12 7 1 1.0585 0.0433
12 7 2 1.5622 -0.0314
12 7 3 2.9584 0.0207
12 7 4 -1.0169 0.0162
12 7 5 2.5680 0.0263
12 7 6 -2.6811 0.0031
12 7 7 2.2002 -0.0091
12 7 8 -0.1018 0.0914
12 8 0 -3.1091 0.0114
12 8 1 1.9139 0.0501
12 8 2 -1.2543 0.1329
12 8 3 1.5495 0.0634
12 8 4 -1.2489 0.0825
12 8 5 2.5445 0.0636
12 8 6 -0.3896 0.1199
12 8 7 2.1323 -0.0196
12 9 0 -0.4305 0.0173
12 9 1 -3.7801 0.1580
12 9 2 1.8008 0.1048
12 9 3 2.1790 0.1492
12 9 4 0.7066 0.1128
12 9 5 -0.3777 0.1029
12 9 6 4.3883 0.0951
12 9 7 -0.7184 0.1557
12 10 0 -3.3614 0.0268
12 10 1 2.3385 -0.0631
12 10 2 0.3700 0.1223
12 10 3 2.5508 0.0080
12 10 4 -0.4940 0.0061
12 10 5 1.4417 0.0307
12 10 6 -0.4887 0.0663
12 10 7 2.1116 -0.1377
12 11 0 -1.7155 -0.0018
12 11 1 0.7212 0.0479
12 11 2 1.4349 -0.0247
12 11 3 -1.3504 -0.0054
12 11 4 1.2985 0.0093
12 11 5 1.7464 0.0123
12 11 6 2.4435 -0.0268
12 12 0 -0.6390 0.0438
12 12 1 -0.7594 -0.4497
12 12 2 2.8674 -0.3423
12 12 3 -0.8385 -0.4131
12 12 4 0.1692 -0.3361
12 12 5 1.9914 -0.2908
12 12 6 2.8834 -0.3461
13 0 0 -0.7941 -0.2536
13 0 1 0.0044 -0.5380
13 0 2 1.3649 -0.3165
13 0 3 1.4090 -0.3618
13 0 4 -0.5279 -0.3429
13 0 5 -0.1845 -0.2914
13 0 6 2.7654 -0.2493
13 0 7 4.2640 -0.2684
13 0 8 -0.2936 -0.2320
13 0 9 1.9343 -0.0292
13 1 0 2.1563 0.2877
13 1 1 -1.9788 0.3161
13 1 2 1.7061 0.3435
13 1 3 0.5442 0.3107
13 1 4 -0.1947 0.2787
13 1 5 -1.4261 0.2603
13 1 6 2.1433 0.1995
13 1 7 0.5817 0.1928
13 1 8 0.5733 0.1954
13 2 0 -6.1153 -0.0885
13 2 1 3.2527 -0.0762
13 2 2 -2.8091 -0.0282
13 2 3 3.9247 -0.1237
13 2 4 -2.4954 -0.0259
13 2 5 3.8144 -0.0463
13 2 6 -1.3998 -0.0698
13 2 7 -1.1006 -0.0336
13 2 8 0.1321 0.0069
13 3 0 2.3564 0.0136
13 3 1 -2.0806 -0.0192
13 3 2 4.6589 0.0689
13 3 3 -0.0318 0.0685
13 3 4 4.4282 0.0248
13 3 5 -0.2478 0.0270
13 3 6 0.6293 0.0607
13 3 7 0.6272 -0.0073
13 3 8 1.4310 0.0264
13 4 0 -0.8317 0.0908
13 4 1 1.7468 0.1978
13 4 2 -1.9772 0.1863
13 4 3 1.8713 0.1268
13 4 4 0.3830 0.1478
13 4 5 1.2765 0.1423
13 4 6 -1.0199 0.1229
13 4 7 0.3159 0.0953
13 4 8 2.7922 0.0897
13 5 0 -3.1357 -0.1005
13 5 1 2.4498 -0.1459
13 5 2 -2.0276 -0.1076
13 5 3 0.0779 -0.1288
13 5 4 1.6116 -0.1126
13 5 5 1.2863 -0.0759
13 5 6 -0.5555 -0.0683
13 5 7 0.6922 -0.1219
13 5 8 0.3878 -0.0114
13 6 0 1.9121 0.0740
13 6 1 0.8861 0.1154
13 6 2 2.8140 0.1274
13 6 3 0.3489 0.1387
13 6 4 1.5412 0.1145
13 6 5 0.5806 0.0891
13 6 6 0.2669 0.0881
13 6 7 -0.6151 0.0923
13 6 8 1.5862 0.0888
13 7 0 3.8593 -0.0335
13 7 1 -0.7141 0.0074
13 7 2 2.3510 0.0122
13 7 3 -0.1819 -0.0514
13 7 4 0.6599 -0.0162
13 7 5 -0.2579 0.0108
13 7 6 -0.1028 -0.0622
13 7 7 -1.0254 0.0561
13 8 0 0.2072 -0.0211
13 8 1 0.4940 -0.0814
13 8 2 0.2400 -0.0562
13 8 3 1.2393 -0.0426
13 8 4 0.4157 -0.0680
13 8 5 1.4459 -0.0585
13 8 6 1.5563 -0.0356
13 8 7 -0.8788 -0.0292
13 9 0 -2.4960 0.0177
13 9 1 1.5290 0.0904
13 9 2 0.6526 0.0673
13 9 3 2.9851 0.0441
13 9 4 -0.0467 0.0632
13 9 5 0.9896 0.0550
13 9 6 1.2271 -0.0185
13 9 7 -0.0243 0.0751
13 10 0 -1.4637 -0.0608
13 10 1 -0.5646 -0.1082
13 10 2 0.0157 -0.1289
13 10 3 2.0309 -0.0881
13 10 4 0.8855 -0.1091
13 10 5 0.1942 -0.1204
13 10 6 -0.2480 -0.0990
13 11 0 1.6965 0.0114
13 11 1 -0.2296 -0.0262
13 11 2 1.0210 -0.0619
13 11 3 -0.1793 0.0012
13 11 4 1.4074 -0.0266
13 11 5 1.6734 -0.0781
13 11 6 1.7361 0.0235
13 12 0 -0.5927 -0.0182
13 12 1 2.3218 0.1179
13 12 2 1.6382 -0.0029
13 12 3 0.7655 0.0167
13 12 4 0.5949 0.0327
13 12 5 0.7432 0.0313
13 13 0 2.0646 -0.0230
13 13 1 -0.8563 0.1957
13 13 2 3.6730 0.1977
13 13 3 0.8985 0.1811
13 13 4 0.2847 0.1592
13 13 5 -1.3545 0.1852
14 0 0 5.3058 -0.5212
14 0 1 1.0385 -0.2311
14 0 2 0.8629 -0.4421
14 0 3 -1.9966 -0.3649
14 0 4 -1.1374 -0.2628
14 0 5 -1.0454 -0.3247
14 0 6 1.4838 -0.2796
14 0 7 0.3335 -0.1961
14 0 8 1.9734 -0.2799
14 1 0 -1.5226 0.1793
14 1 1 -0.4107 0.1305
14 1 2 -1.9188 0.1584
14 1 3 0.6376 0.1522
14 1 4 -1.3562 0.0842
14 1 5 -1.9021 0.1149
14 1 6 0.6992 0.1262
14 1 7 0.3327 0.0595
14 1 8 0.8099 0.0569
14 2 0 -0.4435 -0.1244
14 2 1 -3.5531 -0.1412
14 2 2 -1.4396 -0.2568
14 2 3 2.0855 -0.1578
14 2 4 0.6845 -0.1727
14 2 5 -1.3550 -0.1716
14 2 6 1.9796 -0.1251
14 2 7 -0.4910 -0.0469
14 2 8 1.6381 -0.1717
14 3 0 1.4118 -0.0195
14 3 1 4.2343 -0.1399
14 3 2 -4.6769 -0.1555
14 3 3 0.7471 -0.1362
14 3 4 -3.5686 -0.1211
14 3 5 3.2329 -0.0691
14 3 6 -0.9954 -0.1090
14 3 7 0.7548 -0.1286
14 3 8 -0.1683 0.0073
14 4 0 0.7584 0.0555
14 4 1 -1.1375 0.0701
14 4 2 1.6622 0.0148
14 4 3 -4.8954 0.0649
14 4 4 1.2329 0.0484
14 4 5 0.4177 0.0044
14 4 6 0.4881 0.0277
14 4 7 -0.8062 0.0815
14 4 8 1.0247 -0.1528
14 5 0 -2.2685 -0.0531
14 5 1 -0.9011 -0.1332
14 5 2 -1.2022 -0.1155
14 5 3 1.0742 -0.1014
14 5 4 -1.0471 -0.1170
14 5 5 2.4072 -0.0754
14 5 6 1.5612 -0.0984
14 5 7 0.9622 -0.0729
14 6 0 1.1202 0.0434
14 6 1 -0.2550 -0.0120
14 6 2 0.9494 -0.0451
14 6 3 -0.8919 -0.0260
14 6 4 0.1399 -0.0364
14 6 5 1.0881 -0.0409
14 6 6 2.0526 0.0283
14 6 7 0.5745 -0.1180
14 7 0 -1.0895 -0.0212
14 7 1 0.1381 -0.0487
14 7 2 1.2954 -0.0724
14 7 3 -0.2519 -0.0287
14 7 4 2.4954 -0.0421
14 7 5 0.5096 -0.0545
14 7 6 3.5120 -0.0570
14 7 7 -2.9315 -0.0049
14 8 0 0.0663 0.0038
14 8 1 -1.3230 -0.1319
14 8 2 0.6899 -0.1104
14 8 3 1.1769 -0.0741
14 8 4 2.0324 -0.0677
14 8 5 1.5408 -0.0502
14 8 6 2.2511 -0.0117
14 8 7 -0.1056 -0.2278
14 9 0 -1.2943 0.0349
14 9 1 -2.1190 0.0474
14 9 2 1.8686 0.0001
14 9 3 1.1170 0.0176
14 9 4 1.4050 0.0003
14 9 5 -0.9175 -0.0014
14 9 6 1.8512 0.0475
14 10 0 -2.2740 0.0127
14 10 1 0.4069 0.0068
14 10 2 -0.5982 0.0488
14 10 3 0.4857 -0.0048
14 10 4 1.0184 0.0451
14 10 5 0.9143 0.0897
14 10 6 0.5699 -0.0742
14 11 0 0.0468 -0.0010
14 11 1 0.7236 0.0108
14 11 2 -0.5156 0.0449
14 11 3 -1.3579 0.0515
14 11 4 2.4714 0.0591
14 11 5 2.3520 0.1273
14 12 0 0.1556 0.0128
14 12 1 1.0074 -0.0081
14 12 2 3.0153 0.0385
14 12 3 0.2449 0.0194
14 12 4 1.6890 0.0004
14 12 5 -0.2466 -0.1433
14 13 0 1.8986 0.0090
14 13 1 2.6904 -0.0518
14 13 2 0.8815 -0.0723
14 13 3 2.5200 -0.0832
14 13 4 -3.3511 0.0182
14 14 0 -1.1128 -0.0223
14 14 1 -0.7251 -0.3115
14 14 2 -0.8395 -0.2946
14 14 3 -0.1846 -0.3284
15 0 0 0.0361 -0.2298
15 0 1 -1.3839 -0.4380
15 0 2 -1.4596 -0.3261
15 0 3 0.4719 -0.3444
15 0 4 -0.8234 -0.2870
15 0 5 2.4915 -0.2364
15 0 6 -1.8878 -0.2478
15 0 7 3.0743 -0.2723
15 0 8 3.0874 -0.1340
15 1 0 -2.4225 0.2532
15 1 1 -3.4453 0.1768
15 1 2 0.5086 0.2493
15 1 3 -2.1127 0.2194
15 1 4 0.7322 0.1637
15 1 5 -0.4472 0.1628
15 1 6 2.5815 0.1675
15 1 7 -0.4227 0.1191
15 1 8 3.5339 0.1060
15 2 0 3.9634 -0.0783
15 2 1 -3.9220 0.0257
15 2 2 0.6662 0.0408
15 2 3 -3.8904 -0.0006
15 2 4 0.8459 0.0652
15 2 5 -1.8733 0.0157
15 2 6 3.6968 -0.0147
15 2 7 -1.5462 0.0682
15 2 8 2.8112 0.1343
15 3 0 -1.9607 0.0135
15 3 1 0.2200 0.0211
15 3 2 -1.8218 0.1196
15 3 3 0.2340 0.0645
15 3 4 -1.1963 0.0502
15 3 5 2.1946 0.0426
15 3 6 0.8043 0.0602
15 3 7 -0.5135 0.0047
15 3 8 1.0757 0.0718
15 4 0 -0.3767 0.0593
15 4 1 -4.0105 0.1407
15 4 2 3.0061 0.0942
15 4 3 -2.5183 0.0753
15 4 4 1.1806 0.0913
15 4 5 -2.1901 0.0739
15 4 6 1.4888 0.0568
15 4 7 -0.4264 0.0665
15 5 0 -2.5504 -0.0943
15 5 1 -1.4029 -0.0310
15 5 2 -0.8490 0.0136
15 5 3 1.6424 -0.0333
15 5 4 -0.0312 0.0243
15 5 5 1.9145 0.0090
15 5 6 -1.3430 -0.0247
15 5 7 2.7460 0.0520
15 6 0 -3.6203 0.0515
15 6 1 -2.1911 0.1271
15 6 2 -0.4815 0.1653
15 6 3 5.0252 0.1586
15 6 4 0.7798 0.0969
15 6 5 2.3596 0.0923
15 6 6 3.4529 0.1115
15 6 7 -1.1884 0.1001
15 7 0 -2.1804 -0.0144
15 7 1 1.5422 0.0742
15 7 2 -0.4070 0.0279
15 7 3 3.7872 -0.0112
15 7 4 -0.2806 0.0590
15 7 5 1.2495 0.0185
15 7 6 -0.3947 0.0216
15 8 0 -1.0340 -0.0259
15 8 1 -0.2145 0.0378
15 8 2 1.2895 0.0677
15 8 3 -0.2185 0.0335
15 8 4 3.8714 0.0409
15 8 5 -1.5466 0.0794
15 8 6 -1.3446 0.0174
15 9 0 -2.9867 0.0176
15 9 1 -0.6017 0.0815
15 9 2 1.2222 0.0706
15 9 3 0.8419 0.0724
15 9 4 0.7872 0.0574
15 9 5 0.9548 -0.0400
15 9 6 -0.0498 0.0758
15 10 0 -0.4997 -0.0404
15 10 1 1.2191 -0.0280
15 10 2 1.8904 -0.0182
15 10 3 -2.0120 -0.0181
15 10 4 1.1696 -0.0525
15 10 5 1.5116 -0.0323
15 11 0 1.5150 0.0157
15 11 1 0.3326 0.0660
15 11 2 1.6227 0.0978
15 11 3 0.4991 0.0413
15 11 4 1.5006 0.0204
15 11 5 1.6543 0.0872
15 12 0 0.1938 0.0216
15 12 1 1.6463 -0.0696
15 12 2 3.1479 -0.1218
15 12 3 -0.6517 -0.0632
15 12 4 0.6378 -0.0961
15 13 0 -1.2980 -0.0157
15 13 1 -0.4643 -0.0477
15 13 2 1.5457 -0.0855
15 13 3 -1.3778 -0.0044
15 14 0 -0.2030 0.0206
15 14 1 -3.4127 0.1374
15 14 2 -1.3446 0.0974
15 15 0 1.1199 0.0796
16 0 0 -2.6137 -0.5169
16 0 1 3.7438 -0.2299
16 0 2 0.2936 -0.4074
16 0 3 2.9482 -0.3522
16 0 4 -0.4828 -0.2743
16 0 5 3.9119 -0.3058
16 0 6 -0.3537 -0.2444
16 0 7 3.1887 -0.2088
16 0 8 1.6738 -0.2933
16 1 0 -0.5366 0.2190
16 1 1 0.7194 0.2670
16 1 2 0.2441 0.2808
16 1 3 1.4811 0.2326
16 1 4 0.6425 0.2181
16 1 5 1.7593 0.2388
16 1 6 1.5197 0.1644
16 1 7 0.9192 0.1344
16 1 8 1.6177 0.1874
16 2 0 -3.1618 -0.1095
16 2 1 0.9033 -0.0582
16 2 2 -1.4760 -0.1614
16 2 3 0.4227 -0.0575
16 2 4 -1.1349 -0.1071
16 2 5 2.6312 -0.0976
16 2 6 0.1007 -0.0192
16 2 7 2.3584 -0.1312
16 3 0 -0.2814 -0.0180
16 3 1 3.4399 -0.1130
16 3 2 -0.3086 -0.0651
16 3 3 0.5454 -0.0797
16 3 4 -0.2125 -0.0891
16 3 5 1.2629 -0.0541
16 3 6 -0.8004 -0.0900
16 3 7 2.2252 0.0112
16 4 0 1.4860 0.0608
16 4 1 -0.1693 0.0494
16 4 2 1.2354 -0.0250
16 4 3 1.2374 0.0553
16 4 4 1.5707 0.0032
16 4 5 -0.5803 0.0187
16 4 6 -0.2319 0.0956
16 4 7 -1.0320 -0.0960
16 5 0 -1.1496 -0.0298
16 5 1 -0.3197 -0.1134
16 5 2 -0.2128 -0.0924
16 5 3 2.7376 -0.1010
16 5 4 1.0353 -0.0698
16 5 5 2.7119 -0.0636
16 5 6 -0.6744 -0.1006
16 5 7 1.3905 0.0338
16 6 0 2.2894 0.0338
16 6 1 -1.5756 -0.0150
16 6 2 1.1462 -0.0284
16 6 3 -1.1452 -0.0085
16 6 4 2.3616 -0.0406
16 6 5 -1.1819 0.0217
16 6 6 2.2655 -0.0780
16 7 0 -1.4866 0.0011
16 7 1 0.5746 -0.0844
16 7 2 -0.8172 -0.0626
16 7 3 0.8031 -0.0419
16 7 4 0.4990 -0.0500
16 7 5 -0.2848 -0.0810
16 7 6 -3.1083 -0.0068
16 8 0 0.1259 -0.0072
16 8 1 1.1026 -0.0271
16 8 2 0.3340 -0.0036
16 8 3 1.8305 0.0006
16 8 4 1.0123 -0.0412
16 8 5 2.2689 0.0208
16 8 6 -2.1112 -0.1522
16 9 0 0.2944 0.0289
16 9 1 0.1119 -0.0455
16 9 2 0.9364 -0.0775
16 9 3 -0.0264 -0.0732
16 9 4 -1.0367 -0.0392
16 9 5 3.9091 -0.0236
16 10 0 -1.0833 -0.0132
16 10 1 0.1813 -0.0734
16 10 2 -0.3521 -0.1202
16 10 3 0.7104 -0.0360
16 10 4 0.1098 -0.0290
16 10 5 1.6557 -0.1879
16 11 0 1.3340 -0.0042
16 11 1 2.4013 0.0157
16 11 2 0.5090 0.0446
16 11 3 1.6275 0.0341
16 11 4 2.1208 0.0742
16 12 0 -0.5281 -0.0473
16 12 1 -0.9714 0.0180
16 12 2 1.8092 0.0718
16 12 3 -0.0102 -0.0731
16 13 0 -3.6472 0.0337
16 13 1 -1.8028 0.1255
16 13 2 -0.4849 0.1947
16 14 0 2.1780 -0.1519
17 0 0 2.5812 -0.2570
17 0 1 3.5391 -0.4668
17 0 2 0.8225 -0.3808
17 0 3 0.8601 -0.3602
17 0 4 -0.2717 -0.3593
17 0 5 1.2263 -0.3112
17 0 6 0.7597 -0.2830
17 0 7 -1.5797 -0.2463
17 1 0 -0.8975 0.2434
17 1 1 -0.5654 0.0104
17 1 2 0.3983 0.0800
17 1 3 -0.8614 0.0576
17 1 4 1.8958 0.0627
17 1 5 -0.4526 0.0484
17 1 6 0.9033 0.0411
17 1 7 -0.4363 0.1096
17 2 0 2.4165 -0.0757
17 2 1 -1.7219 0.0199
17 2 2 -0.3979 0.0096
17 2 3 -1.0038 -0.0276
17 2 4 2.8116 0.0106
17 2 5 1.2321 -0.0021
17 2 6 0.4004 -0.0183
17 2 7 5.0377 0.0170
17 3 0 3.9336 -0.0068
17 3 1 2.1720 -0.1043
17 3 2 -0.0268 -0.0510
17 3 3 1.0193 -0.1067
17 3 4 -0.7060 -0.0455
17 3 5 0.6545 -0.0505
17 3 6 -0.1345 -0.0940
17 3 7 1.6993 -0.0092
17 4 0 -2.4454 0.0323
17 4 1 1.2890 0.0662
17 4 2 0.3072 0.0508
17 4 3 2.8821 0.0747
17 4 4 -1.7531 0.0592
17 4 5 3.7389 0.0160
17 4 6 -0.8273 0.0314
17 4 7 -0.3131 0.0357
17 5 0 -1.6626 -0.0647
17 5 1 -0.0250 -0.0134
17 5 2 -1.7476 -0.0138
17 5 3 0.0723 -0.0336
17 5 4 1.3598 0.0097
17 5 5 1.3375 -0.0371
17 5 6 3.9930 0.0448
17 6 0 -0.7020 0.0292
17 6 1 -1.8829 0.0274
17 6 2 0.5963 0.0037
17 6 3 -2.5634 -0.0108
17 6 4 1.7397 -0.0250
17 6 5 -2.8556 0.0174
17 6 6 1.3802 0.0851
17 7 0 -1.9489 -0.0226
17 7 1 -0.6408 0.0599
17 7 2 -0.7446 0.0553
17 7 3 2.1376 0.0777
17 7 4 -1.8597 0.0712
17 7 5 1.1696 -0.0133
17 7 6 -1.3166 0.1338
17 8 0 -0.5301 -0.0285
17 8 1 0.7221 -0.0485
17 8 2 -1.4644 -0.0337
17 8 3 2.5798 -0.0318
17 8 4 -0.8763 0.0134
17 8 5 3.2381 0.0734
17 9 0 -0.6291 0.0236
17 9 1 -1.1876 0.0628
17 9 2 1.2668 0.0408
17 9 3 0.4484 -0.0273
17 9 4 0.9806 0.0051
17 9 5 0.0883 0.1190
17 10 0 2.7660 -0.0089
17 10 1 -1.8283 0.0609
17 10 2 0.3500 0.0773
17 10 3 0.0986 0.0713
17 10 4 0.6304 0.0614
17 11 0 0.4260 0.0222
17 11 1 -0.6646 -0.0509
17 11 2 -0.4137 -0.1077
17 11 3 0.5066 0.0112
17 12 0 -1.1960 0.0475
17 12 1 -1.1001 0.0178
17 12 2 1.9361 -0.0415
17 13 0 -0.5889 0.1359
18 0 0 0.2816 -0.5146
18 0 1 -4.7164 -0.2638
18 0 2 1.0098 -0.3842
18 0 3 -0.0030 -0.3434
18 0 4 3.2730 -0.3007
18 0 5 -1.8239 -0.2667
18 0 6 0.9022 -0.2100
18 0 7 -2.6206 -0.2974
18 1 0 0.6961 0.1862
18 1 1 -2.6378 0.2535
18 1 2 -1.4551 0.2490
18 1 3 1.2650 0.2337
18 1 4 -1.4550 0.2233
18 1 5 0.8341 0.1759
18 1 6 -0.9600 0.1232
18 1 7 0.7978 0.1596
18 2 0 -0.3263 -0.0841
18 2 1 -0.1097 0.0744
18 2 2 -1.1354 -0.0226
18 2 3 0.3421 0.0736
18 2 4 1.5384 0.0246
18 2 5 -1.1441 0.0353
18 2 6 1.0912 0.0796
18 2 7 1.3306 -0.1485
18 3 0 -2.5711 -0.0016
18 3 1 -2.5195 -0.0238
18 3 2 1.6961 0.0575
18 3 3 2.1694 0.0107
18 3 4 1.9197 -0.0229
18 3 5 0.0213 0.0094
18 3 6 2.4997 0.0489
18 4 0 -1.9923 0.0590
18 4 1 -0.0796 0.1860
18 4 2 0.6506 0.1116
18 4 3 1.5969 0.1270
18 4 4 -0.2776 0.0869
18 4 5 1.8675 0.1226
18 4 6 0.5542 -0.0383
18 5 0 -0.2901 -0.0380
18 5 1 -0.1531 -0.1216
18 5 2 -2.0956 -0.0229
18 5 3 1.5249 -0.0543
18 5 4 1.4160 -0.0384
18 5 5 -0.3342 -0.0074
18 5 6 1.3814 0.0431
18 6 0 -2.9512 0.0276
18 6 1 0.3474 0.0591
18 6 2 -2.5803 0.0020
18 6 3 2.6536 0.0474
18 6 4 -0.4052 0.0344
18 6 5 0.3261 -0.0407
18 7 0 1.3700 0.0492
18 7 1 0.3565 0.0488
18 7 2 -0.0271 0.0587
18 7 3 1.7655 -0.0308
18 7 4 -0.8174 0.0312
18 7 5 -2.0814 0.0920
18 8 0 1.3712 -0.0365
18 8 1 0.1105 -0.0265
18 8 2 0.8377 0.0089
18 8 3 2.6375 0.0940
18 8 4 0.2828 -0.1031
18 9 0 0.7696 0.0571
18 9 1 1.5148 -0.0053
18 9 2 -0.8051 0.0422
18 9 3 1.5247 0.0384
18 9 4 0.7139 0.0861
18 10 0 2.3847 -0.0835
18 10 1 -0.0378 0.0003
18 10 2 -0.8019 0.0212
18 10 3 -0.8671 -0.1481
18 11 0 -0.7133 0.0724
18 11 1 -0.0453 0.0481
18 11 2 -0.5304 0.0688
19 0 0 1.4841 -0.2411
19 0 1 1.6009 -0.4215
19 0 2 -0.6681 -0.3416
19 0 3 -0.4115 -0.3161
19 0 4 -1.5665 -0.3478
19 0 5 -0.0172 -0.3042
19 0 6 0.5328 -0.2359
19 0 7 -3.2325 -0.1395
19 1 0 0.9026 0.2661
19 1 1 -0.6276 0.0789
19 1 2 -0.8013 0.1833
19 1 3 0.7452 0.1287
19 1 4 -0.1024 0.1294
19 1 5 1.4088 0.1327
19 1 6 -0.4882 0.1142
19 2 0 -2.8210 -0.0829
19 2 1 -0.5835 -0.0894
19 2 2 -0.2299 -0.1265
19 2 3 0.0606 -0.1526
19 2 4 1.8446 -0.0918
19 2 5 -0.1624 -0.0696
19 2 6 -0.7704 -0.0982
19 3 0 1.5710 -0.0046
19 3 1 -0.3580 -0.1836
19 3 2 0.8148 -0.1327
19 3 3 -0.2351 -0.1130
19 3 4 0.4070 -0.0963
19 3 5 -0.5663 -0.1491
19 3 6 3.2546 -0.0410
19 4 0 -0.5212 0.0387
19 4 1 1.0045 0.0318
19 4 2 0.4975 -0.0239
19 4 3 0.4675 0.0074
19 4 4 3.9831 0.0390
19 4 5 -0.9477 -0.0026
19 4 6 3.6203 -0.0104
19 5 0 0.1558 -0.0723
19 5 1 0.0340 -0.0564
19 5 2 1.0032 -0.0426
19 5 3 -2.2009 -0.0727
19 5 4 6.4485 -0.0801
19 5 5 0.2933 0.0102
19 6 0 1.0486 0.0213
19 6 1 -0.9206 -0.0951
19 6 2 -1.8680 -0.0736
19 6 3 -0.8710 -0.0115
19 6 4 -0.3629 -0.0355
19 6 5 0.6792 -0.0225
19 7 0 -2.1223 -0.0405
19 7 1 0.7654 0.0080
19 7 2 -1.4587 -0.0615
19 7 3 2.4376 -0.0888
19 7 4 -1.7555 0.0454
19 8 0 1.9153 -0.0166
19 8 1 1.0446 -0.0059
19 8 2 1.6184 -0.0167
19 8 3 0.9833 -0.0234
19 8 4 2.7380 -0.0075
19 9 0 2.1216 0.0234
19 9 1 -0.8547 -0.0521
19 9 2 -0.3818 -0.1164
19 9 3 -0.7903 0.0689
19 10 0 -4.0646 -0.0168
19 10 1 2.3064 -0.0094
19 10 2 -3.9596 0.0040
20 0 0 1.2080 -0.4979
20 0 1 1.2508 -0.2751
20 0 2 -0.7609 -0.3605
20 0 3 -0.2069 -0.3332
20 0 4 0.1075 -0.2911
20 0 5 -0.8103 -0.2521
20 0 6 0.0178 -0.3406
20 1 0 -0.8119 0.1510
20 1 1 -1.2372 0.1509
20 1 2 0.3239 0.1159
20 1 3 -1.7021 0.1333
20 1 4 1.9941 0.1097
20 1 5 -1.1303 0.0290
20 1 6 0.0620 0.1081
20 2 0 -0.2151 -0.0851
20 2 1 1.4023 0.1207
20 2 2 -1.2896 0.0151
20 2 3 0.3583 0.0602
20 2 4 0.3692 0.0500
20 2 5 0.5192 0.0636
20 2 6 0.3108 -0.1254
20 3 0 1.5470 -0.0132
20 3 1 0.2397 -0.0537
20 3 2 1.9927 0.0421
20 3 3 1.7500 -0.0163
20 3 4 1.2202 -0.0380
20 3 5 -1.4977 0.0408
20 4 0 -1.2272 0.0519
20 4 1 0.0193 0.1717
20 4 2 0.3895 0.0947
20 4 3 3.5396 0.1642
20 4 4 1.4144 0.1005
20 4 5 1.5088 -0.0501
20 5 0 0.3369 -0.0087
20 5 1 -1.2012 -0.0422
20 5 2 -0.0434 0.0322
20 5 3 -0.8511 -0.0528
20 5 4 2.6119 0.0201
20 5 5 2.9551 0.0689
20 6 0 -1.7341 0.0105
20 6 1 -2.2375 0.1057
20 6 2 0.2797 0.0786
20 6 3 -0.1495 0.1141
20 6 4 0.3616 -0.1002
20 7 0 -1.9475 0.0676
20 7 1 -1.4426 0.0297
20 7 2 0.3505 0.1001
20 7 3 -0.1290 0.0505
20 8 0 -1.6372 -0.0719
20 8 1 0.6598 -0.0261
20 8 2 -1.1972 -0.0797
20 8 3 -0.5978 -0.2379
20 9 0 -1.0852 0.0938
20 9 1 -0.3633 0.1339
21 0 0 -1.0484 -0.2679
21 0 1 -0.8915 -0.3907
21 0 2 -1.6441 -0.3093
21 0 3 0.0760 -0.2986
21 0 4 2.4608 -0.3147
21 0 5 0.3689 -0.2258
21 0 6 -0.7850 -0.0995
21 1 0 0.7739 0.2630
21 1 1 0.7959 0.1420
21 1 2 -0.5781 0.2774
21 1 3 -0.8279 0.2183
21 1 4 1.2852 0.1607
21 1 5 -0.4802 0.1797
21 2 0 -0.2971 -0.0623
21 2 1 2.5274 -0.0570
21 2 2 -0.7355 -0.0726
21 2 3 4.7094 -0.0469
21 2 4 -2.0640 0.0167
21 2 5 -1.0610 -0.0202
21 3 0 1.0614 -0.0028
21 3 1 -0.9453 -0.0708
21 3 2 2.9172 -0.0353
21 3 3 2.0247 -0.1157
21 3 4 4.5229 -0.0742
21 3 5 -3.2024 0.0858
21 4 0 -0.6775 0.0660
21 4 1 1.9863 0.1120
21 4 2 0.0659 0.0350
21 4 3 2.5814 0.0540
21 4 4 1.4637 0.0695
21 5 0 -0.6577 -0.0905
21 5 1 0.8098 -0.1288
21 5 2 0.2363 -0.0957
21 5 3 2.3923 -0.0601
21 5 4 -0.0795 0.0701
21 6 0 -0.3656 0.0255
21 6 1 0.7894 0.0076
21 6 2 -2.3197 -0.0205
21 6 3 3.7701 -0.0088
21 7 0 2.1276 -0.0093
21 7 1 -1.8113 -0.0639
21 7 2 -0.6910 0.0185
21 8 0 -1.2239 -0.0220
21 8 1 -1.4546 -0.0434
22 0 0 1.3875 -0.4230
22 0 1 0.8457 -0.2274
22 0 2 -0.6748 -0.3399
22 0 3 -2.1071 -0.2751
22 0 4 0.4918 -0.2238
22 0 5 1.4650 -0.3191
22 1 0 0.7091 0.1381
22 1 1 0.0929 0.1033
22 1 2 0.0845 0.0684
22 1 3 2.0309 0.0475
22 1 4 -0.9467 0.0839
22 1 5 2.0167 0.1458
22 2 0 0.4294 -0.0843
22 2 1 -0.6904 0.0107
22 2 2 1.6511 -0.0864
22 2 3 0.7736 0.0182
22 2 4 1.8717 -0.1468
22 3 0 0.5507 -0.0241
22 3 1 -0.6149 -0.1730
22 3 2 -0.3109 -0.0506
22 3 3 -0.5249 -0.0320
22 3 4 1.2005 0.0743
22 4 0 0.7724 -0.0164
22 4 1 -0.8593 0.0492
22 4 2 1.1299 -0.0241
22 4 3 0.4383 -0.0901
22 5 0 0.5772 0.0614
22 5 1 -0.6483 -0.0500
22 5 2 2.6000 0.0128
22 5 3 -0.5055 0.0548
22 6 0 -1.2637 -0.1264
22 6 1 0.0293 -0.0086
22 6 2 -1.8777 -0.1650
23 0 0 -1.7212 -0.2910
23 0 1 0.4025 -0.3567
23 0 2 -2.1117 -0.2745
23 0 3 3.7876 -0.2666
23 0 4 -1.9403 -0.2696
23 1 0 -1.3907 0.2273
23 1 1 -0.4349 0.1583
23 1 2 0.4640 0.2113
23 1 3 0.5883 0.0632
23 1 4 -0.7856 0.1352
23 2 0 1.3266 -0.0361
23 2 1 -1.2584 0.0514
23 2 2 0.7209 0.0565
23 2 3 -0.9982 0.0762
23 2 4 -0.1109 0.0464
23 3 0 -1.2671 -0.0052
23 3 1 -0.2462 -0.0097
23 3 2 -1.8708 0.0571
23 3 3 1.3583 0.1351
23 4 0 -0.3595 0.0888
23 4 1 -2.5904 0.1883
23 4 2 0.5878 0.0838
23 5 0 -0.4712 0.0518
23 5 1 -0.9681 0.0920
24 0 0 1.9703 -0.3958
24 0 1 0.1957 -0.2837
24 0 2 0.4212 -0.3479
24 0 3 0.4002 -0.2659
24 0 4 0.3154 -0.3231
24 1 0 1.4227 0.1877
24 1 1 0.8337 0.1118
24 1 2 0.9887 0.1210
24 1 3 0.6435 0.2092
24 2 0 0.3536 -0.1287
24 2 1 0.8147 -0.0233
24 2 2 1.1414 -0.2499
24 3 0 1.4718 0.0986
24 3 1 0.4425 0.0082
25 0 0 0.4587 -0.2472
25 0 1 -0.5015 -0.1944
25 0 2 2.1664 -0.1334
25 1 0 -1.4276 0.1306
25 1 1 1.6931 -0.0043
25 1 2 0.9359 0.2021
25 2 0 -0.7246 -0.0768
26 0 0 -1.1422 -0.3723
0 0 0 0.0 0.0
;
_olex2_submission_special_instructions 'No special instructions were received'
loop_
_space_group_symop_operation_xyz
'x, y, z'
'-y, x-y, z'
'-x+y, -x, z'
'-x, -y, z'
'y, -x+y, z'
'x-y, x, z'
'y, x, -z'
'x-y, -y, -z'
'-x, -x+y, -z'
'-y, -x, -z'
'-x+y, y, -z'
'x, x-y, -z'
'-x, -y, -z'
'y, -x+y, -z'
'x-y, x, -z'
'x, y, -z'
'-y, x-y, -z'
'-x+y, -x, -z'
'-y, -x, z'
'-x+y, y, z'
'x, x-y, z'
'y, x, z'
'x-y, -y, z'
'-x, -x+y, z'
loop_
_atom_site_label
_atom_site_type_symbol
_atom_site_fract_x
_atom_site_fract_y
_atom_site_fract_z
_atom_site_U_iso_or_equiv
_atom_site_adp_type
_atom_site_occupancy
_atom_site_site_symmetry_order
_atom_site_calc_flag
_atom_site_refinement_flags_posn
_atom_site_refinement_flags_adp
_atom_site_refinement_flags_occupancy
_atom_site_disorder_assembly
_atom_site_disorder_group
Zr1 Zr 1.0000 0.5000 1.0000 0.0341(4) Uani 1 8 d S T P A .
C2 C 0.8196(3) 0.2982(3) 1.0000 0.0596(17) Uani 1 2 d S T P . .
O2 O 0.9149(3) 0.4012(3) 0.9336(7) 0.0410(12) Uani 0.5 1 d . . . . .
O1 O 0.9636(2) 0.4394(3) 0.7800(7) 0.0465(14) Uani 0.5 1 d . . . A .
N1 N 0.9051(3) 0.3794(3) 0.7977(9) 0.0477(16) Uani 0.5 1 d . . . A .
H1 H 0.8741 0.3955 0.7631 0.057 Uiso 0.5 1 calc R . . . .
C3 C 0.7730(5) 0.2865(4) 0.8861(12) 0.059(2) Uani 0.5 1 d . . . A 1
H3 H 0.7809 0.3193 0.8050 0.071 Uiso 0.5 1 calc R . . A 1
C4 C 0.8084(6) 0.2509(6) 0.8906(13) 0.082(3) Uani 0.5 1 d . . . A 2
H4 H 0.8417 0.2582 0.8115 0.099 Uiso 0.5 1 calc R . . A 2
C1 C 0.8827(4) 0.3625(4) 0.9477(9) 0.0424(17) Uani 0.5 1 d . . . A .
loop_
_atom_site_aniso_label
_atom_site_aniso_U_11
_atom_site_aniso_U_22
_atom_site_aniso_U_33
_atom_site_aniso_U_23
_atom_site_aniso_U_13
_atom_site_aniso_U_12
Zr1 0.0147(4) 0.0447(6) 0.0329(6) 0.000 0.000 0.0073(2)
C2 0.030(3) 0.046(3) 0.085(5) 0.000 0.000 0.005(2)
O2 0.033(2) 0.038(3) 0.041(3) 0.001(2) -0.003(2) 0.010(2)
O1 0.018(2) 0.049(3) 0.044(3) -0.008(3) 0.0056(19) -0.004(2)
N1 0.027(3) 0.049(3) 0.045(4) 0.002(3) 0.003(3) 0.002(3)
C3 0.061(5) 0.044(4) 0.054(5) 0.020(4) 0.012(4) 0.012(4)
C4 0.096(7) 0.107(8) 0.066(7) 0.024(6) 0.039(6) 0.068(7)
C1 0.033(3) 0.051(4) 0.039(4) -0.001(3) 0.000(3) 0.017(3)
loop_
_atom_type_symbol
_atom_type_description
_atom_type_scat_dispersion_real
_atom_type_scat_dispersion_imag
_atom_type_scat_source
C C 0.0033 0.0016 'International Tables Vol C Tables 4.2.6.8 and 6.1.1.4'
H H 0.0000 0.0000 'International Tables Vol C Tables 4.2.6.8 and 6.1.1.4'
N N 0.0061 0.0033 'International Tables Vol C Tables 4.2.6.8 and 6.1.1.4'
O O 0.0106 0.0060 'International Tables Vol C Tables 4.2.6.8 and 6.1.1.4'
Zr Zr -2.9673 0.5597 'International Tables Vol C Tables 4.2.6.8 and 6.1.1.4'
loop_
_geom_angle_atom_site_label_1
_geom_angle_atom_site_label_2
_geom_angle_atom_site_label_3
_geom_angle
_geom_angle_site_symmetry_1
_geom_angle_site_symmetry_3
_geom_angle_publ_flag
O2 Zr1 O2 180.0 . 13_767 ?
O2 Zr1 O2 28.1(3) 13_767 4_765 ?
O2 Zr1 O2 151.9(3) . 4_765 ?
O2 Zr1 O2 28.1(3) . 16_557 ?
O2 Zr1 O2 180.0 4_765 16_557 ?
O2 Zr1 O2 151.9(3) 13_767 16_557 ?
O1 Zr1 O2 109.2(2) 4_765 . ?
O1 Zr1 O2 136.78(19) 16_557 4_765 ?
O1 Zr1 O2 101.1(2) 24_765 16_557 ?
O1 Zr1 O2 43.22(19) . . ?
O1 Zr1 O2 101.9(2) 12_557 . ?
O1 Zr1 O2 43.22(19) 13_767 13_767 ?
O1 Zr1 O2 70.8(2) 16_557 . ?
O1 Zr1 O2 101.1(2) 21 13_767 ?
O1 Zr1 O2 109.2(2) . 4_765 ?
O1 Zr1 O2 78.9(2) 9_767 13_767 ?
O1 Zr1 O2 101.9(2) 21 16_557 ?
O1 Zr1 O2 101.9(2) 24_765 13_767 ?
O1 Zr1 O2 136.78(19) 4_765 16_557 ?
O1 Zr1 O2 78.1(2) 12_557 13_767 ?
O1 Zr1 O2 101.1(2) 12_557 4_765 ?
O1 Zr1 O2 109.2(2) 16_557 13_767 ?
O1 Zr1 O2 43.22(19) 4_765 4_765 ?
O1 Zr1 O2 70.8(2) 4_765 13_767 ?
O1 Zr1 O2 78.1(2) 24_765 . ?
O1 Zr1 O2 136.78(19) . 13_767 ?
O1 Zr1 O2 109.2(2) 13_767 16_557 ?
O1 Zr1 O2 136.78(19) 13_767 . ?
O1 Zr1 O2 78.1(2) 9_767 16_557 ?
O1 Zr1 O2 78.9(2) 21 . ?
O1 Zr1 O2 43.22(19) 16_557 16_557 ?
O1 Zr1 O2 101.1(2) 9_767 . ?
O1 Zr1 O2 70.8(2) . 16_557 ?
O1 Zr1 O2 101.9(2) 9_767 4_765 ?
O1 Zr1 O2 78.9(2) 24_765 4_765 ?
O1 Zr1 O2 70.8(2) 13_767 4_765 ?
O1 Zr1 O2 78.1(2) 21 4_765 ?
O1 Zr1 O2 78.9(2) 12_557 16_557 ?
O1 Zr1 O1 69.1(3) 13_767 16_557 ?
O1 Zr1 O1 110.9(3) 16_557 . ?
O1 Zr1 O1 39.6(2) 13_767 12_557 ?
O1 Zr1 O1 140.4(2) 21 16_557 ?
O1 Zr1 O1 180.0 21 9_767 ?
O1 Zr1 O1 39.6(2) 9_767 16_557 ?
O1 Zr1 O1 39.6(2) 24_765 . ?
O1 Zr1 O1 125.9(3) 24_765 16_557 ?
O1 Zr1 O1 125.9(3) 13_767 21 ?
O1 Zr1 O1 54.1(3) 12_557 16_557 ?
O1 Zr1 O1 69.1(3) 21 24_765 ?
O1 Zr1 O1 110.9(3) 13_767 4_765 ?
O1 Zr1 O1 180.0 24_765 12_557 ?
O1 Zr1 O1 39.6(2) 21 4_765 ?
O1 Zr1 O1 140.4(2) 12_557 . ?
O1 Zr1 O1 140.4(2) 9_767 4_765 ?
O1 Zr1 O1 69.1(3) 4_765 . ?
O1 Zr1 O1 54.1(3) 24_765 4_765 ?
O1 Zr1 O1 54.1(3) 13_767 9_767 ?
O1 Zr1 O1 125.9(3) 12_557 4_765 ?
O1 Zr1 O1 140.4(2) 13_767 24_765 ?
O1 Zr1 O1 180.0(3) 16_557 4_765 ?
O1 Zr1 O1 110.9(3) 9_767 24_765 ?
O1 Zr1 O1 180.0 13_767 . ?
O1 Zr1 O1 69.1(3) 9_767 12_557 ?
O1 Zr1 O1 54.1(3) 21 . ?
O1 Zr1 O1 125.9(3) 9_767 . ?
O1 Zr1 O1 110.9(3) 21 12_557 ?
C3 C2 C3 86.8(9) . 16_557 ?
C3 C2 C1 131.7(6) 16_557 . ?
C3 C2 C1 106.7(5) 16_557 16_557 ?
C3 C2 C1 106.7(5) . . ?
C3 C2 C1 131.7(6) . 16_557 ?
C4 C2 C4 83.5(10) . 16_557 ?
C4 C2 C1 133.0(7) . 16_557 ?
C4 C2 C1 133.0(7) 16_557 . ?
C4 C2 C1 108.4(6) 16_557 16_557 ?
C4 C2 C1 108.4(6) . . ?
C1 C2 C1 31.9(6) . 16_557 ?
O2 O2 Zr1 75.97(15) 16_557 . ?
O2 O2 O1 140.4(3) 16_557 . ?
O2 O2 N1 158.2(4) 16_557 . ?
O2 O2 C1 40.9(4) 16_557 16_557 ?
O1 O2 Zr1 66.5(3) . . ?
N1 O2 Zr1 123.3(5) . . ?
N1 O2 O1 56.8(4) . . ?
N1 O2 C1 118.7(6) . 16_557 ?
C1 O2 Zr1 116.9(4) 16_557 . ?
C1 O2 Zr1 158.1(8) . . ?
C1 O2 O2 82.2(7) . 16_557 ?
C1 O2 O1 166.6(6) 16_557 . ?
C1 O2 O1 134.1(8) . . ?
C1 O2 N1 77.9(7) . . ?
C1 O2 C1 41.3(8) . 16_557 ?
O2 O1 Zr1 70.2(3) . . ?
O1 O1 Zr1 70.21(11) 24_765 . ?
O1 O1 O2 127.3(3) 24_765 . ?
N1 O1 Zr1 115.9(4) . . ?
N1 O1 O2 45.7(4) . . ?
N1 O1 O1 148.2(4) . 24_765 ?
O2 N1 O1 77.5(5) . . ?
O2 N1 H1 96.9 . . ?
O2 N1 C1 39.2(4) . . ?
O1 N1 H1 96.9 . . ?
C1 N1 O1 116.3(7) . . ?
C1 N1 H1 96.9 . . ?
C2 C3 C3 120.3(4) . 19_665 ?
C2 C3 H3 119.9 . . ?
C3 C3 H3 119.9 19_665 . ?
C2 C4 C4 120.7(5) . 19_665 ?
C2 C4 H4 119.7 . . ?
C4 C4 H4 119.7 19_665 . ?
O2 C1 C2 168.6(10) . . ?
O2 C1 C2 114.5(5) 16_557 . ?
O2 C1 O2 56.9(8) . 16_557 ?
O2 C1 N1 62.9(7) . . ?
O2 C1 N1 119.2(7) 16_557 . ?
O2 C1 C1 97.8(7) . 16_557 ?
N1 C1 C2 126.3(7) . . ?
C1 C1 C2 74.0(3) 16_557 . ?
C1 C1 O2 40.9(4) 16_557 16_557 ?
C1 C1 N1 158.9(5) 16_557 . ?
loop_
_geom_bond_atom_site_label_1
_geom_bond_atom_site_label_2
_geom_bond_distance
_geom_bond_site_symmetry_2
_geom_bond_publ_flag
Zr1 O2 2.214(5) 13_767 ?
Zr1 O2 2.214(5) 16_557 ?
Zr1 O2 2.214(5) 4_765 ?
Zr1 O2 2.214(5) . ?
Zr1 O1 2.158(5) 12_557 ?
Zr1 O1 2.158(5) 13_767 ?
Zr1 O1 2.158(5) 9_767 ?
Zr1 O1 2.158(5) 16_557 ?
Zr1 O1 2.158(5) 24_765 ?
Zr1 O1 2.158(5) 4_765 ?
Zr1 O1 2.158(5) . ?
Zr1 O1 2.158(5) 21 ?
C2 C3 1.340(11) 16_557 ?
C2 C3 1.340(11) . ?
C2 C4 1.327(12) 16_557 ?
C2 C4 1.327(12) . ?
C2 C1 1.536(10) 16_557 ?
C2 C1 1.536(10) . ?
O2 O2 1.074(11) 16_557 ?
O2 O1 1.611(7) . ?
O2 N1 1.182(8) . ?
O2 C1 0.839(8) . ?
O2 C1 1.270(8) 16_557 ?
O1 O1 1.461(8) 24_765 ?
O1 N1 1.381(7) . ?
N1 H1 1.0000 . ?
N1 C1 1.299(10) . ?
C3 C3 1.377(17) 19_665 ?
C3 H3 0.9500 . ?
C4 C4 1.38(2) 19_665 ?
C4 H4 0.9500 . ?
C1 O2 1.270(8) 16_557 ?
C1 C1 0.845(15) 16_557 ?
loop_
_geom_torsion_atom_site_label_1
_geom_torsion_atom_site_label_2
_geom_torsion_atom_site_label_3
_geom_torsion_atom_site_label_4
_geom_torsion
_geom_torsion_site_symmetry_1
_geom_torsion_site_symmetry_2
_geom_torsion_site_symmetry_3
_geom_torsion_site_symmetry_4
_geom_torsion_publ_flag
Zr1 O2 O1 O1 43.4(2) . . . 24_765 ?
Zr1 O2 O1 N1 -178.0(6) . . . . ?
Zr1 O2 N1 O1 2.2(6) . . . . ?
Zr1 O2 N1 C1 174.1(9) . . . . ?
Zr1 O2 C1 C2 48(6) . . . . ?
Zr1 O2 C1 O2 4(2) . . . 16_557 ?
Zr1 O2 C1 N1 -167(2) . . . . ?
Zr1 O2 C1 C1 4(2) . . . 16_557 ?
Zr1 O1 N1 O2 -2.1(6) . . . . ?
Zr1 O1 N1 C1 -7.8(9) . . . . ?
O2 O2 O1 Zr1 -20.3(4) 16_557 . . . ?
O2 O2 O1 O1 23.2(6) 16_557 . . 24_765 ?
O2 O2 O1 N1 161.7(6) 16_557 . . . ?
O2 O2 N1 O1 -147.4(10) 16_557 . . . ?
O2 O2 N1 C1 24.6(11) 16_557 . . . ?
O2 O2 C1 C2 43(5) 16_557 . . . ?
O2 O2 C1 N1 -171.0(4) 16_557 . . . ?
O2 O2 C1 C1 0.001(4) 16_557 . . 16_557 ?
O2 O1 N1 C1 -5.7(6) . . . . ?
O2 N1 C1 C2 172.1(12) . . . . ?
O2 N1 C1 O2 -8.6(4) . . . 16_557 ?
O2 N1 C1 C1 -25.4(13) . . . 16_557 ?
O1 O2 N1 C1 171.9(8) . . . . ?
O1 O2 C1 C2 -155(4) . . . . ?
O1 O2 C1 O2 161.6(8) . . . 16_557 ?
O1 O2 C1 N1 -9.4(9) . . . . ?
O1 O2 C1 C1 161.6(8) . . . 16_557 ?
O1 O1 N1 O2 91.9(7) 24_765 . . . ?
O1 O1 N1 C1 86.3(9) 24_765 . . . ?
O1 N1 C1 C2 -179.1(7) . . . . ?
O1 N1 C1 O2 0.2(11) . . . 16_557 ?
O1 N1 C1 O2 8.8(9) . . . . ?
O1 N1 C1 C1 -16.6(18) . . . 16_557 ?
N1 O2 O1 Zr1 178.0(6) . . . . ?
N1 O2 O1 O1 -138.5(5) . . . 24_765 ?
N1 O2 C1 C2 -146(5) . . . . ?
N1 O2 C1 O2 171.0(4) . . . 16_557 ?
N1 O2 C1 C1 171.0(4) . . . 16_557 ?
C3 C2 C3 C3 -56.5(7) 16_557 . . 19_665 ?
C3 C2 C1 O2 0(5) 16_557 . . . ?
C3 C2 C1 O2 39.6(11) 16_557 . . 16_557 ?
C3 C2 C1 O2 140.5(7) . . . 16_557 ?
C3 C2 C1 O2 101(5) . . . . ?
C3 C2 C1 N1 -141.1(9) 16_557 . . . ?
C3 C2 C1 N1 -40.2(11) . . . . ?
C3 C2 C1 C1 146.3(6) . . . 16_557 ?
C3 C2 C1 C1 45.4(7) 16_557 . . 16_557 ?
C4 C2 C4 C4 58.1(8) 16_557 . . 19_665 ?
C4 C2 C1 O2 169(5) . . . . ?
C4 C2 C1 O2 -92(5) 16_557 . . . ?
C4 C2 C1 O2 -53.0(12) 16_557 . . 16_557 ?
C4 C2 C1 O2 -151.4(8) . . . 16_557 ?
C4 C2 C1 N1 27.9(11) . . . . ?
C4 C2 C1 N1 126.4(10) 16_557 . . . ?
C4 C2 C1 C1 -145.6(7) . . . 16_557 ?
C4 C2 C1 C1 -47.1(8) 16_557 . . 16_557 ?
C1 C2 C3 C3 -166.1(5) 16_557 . . 19_665 ?
C1 C2 C3 C3 170.7(4) . . . 19_665 ?
C1 C2 C4 C4 167.2(5) 16_557 . . 19_665 ?
C1 C2 C4 C4 -168.7(4) . . . 19_665 ?
C1 C2 C1 O2 -45(5) 16_557 . . . ?
C1 C2 C1 O2 -5.8(7) 16_557 . . 16_557 ?
C1 C2 C1 N1 173.5(7) 16_557 . . . ?
C1 O2 O1 Zr1 -108(2) 16_557 . . . ?
C1 O2 O1 Zr1 -171.0(11) . . . . ?
C1 O2 O1 O1 -64(2) 16_557 . . 24_765 ?
C1 O2 O1 O1 -127.5(10) . . . 24_765 ?
C1 O2 O1 N1 74(2) 16_557 . . . ?
C1 O2 O1 N1 11.0(11) . . . . ?
C1 O2 N1 O1 -165.2(7) 16_557 . . . ?
C1 O2 N1 O1 -171.9(8) . . . . ?
C1 O2 N1 C1 6.7(3) 16_557 . . . ?
C1 O2 C1 C2 43(5) 16_557 . . . ?
C1 O2 C1 O2 -0.001(6) 16_557 . . 16_557 ?
C1 O2 C1 N1 -171.0(4) 16_557 . . . ?
loop_
_refln_index_h
_refln_index_k
_refln_index_l
_refln_F_squared_meas
_refln_F_squared_sigma
-2 0 0 3535.45 293.27
-3 1 0 83.39 8.6
-3 1 0 94.69 8.6
1 2 0 81.19 8.2
1 2 0 105.29 9.1
2 -3 0 89.29 8.4
-1 -2 0 104.29 9
-1 -2 0 76.09 8.4
3 -1 0 79.19 8.4
-2 3 0 94.79 8.5
3 -1 0 72.79 8.4
-1 -2 0 83.59 8.2
-3 2 0 93.89 8.4
2 1 0 80.99 8.3
1 -3 0 94.69 8.6
2 1 0 77.59 8.4
-3 2 0 81.39 8.4
-1 3 0 100.89 8.9
-2 -1 0 85.79 8.3
3 -2 0 78.29 8.2
-2 -1 0 71.39 8.5
3 -2 0 93.39 8.3
0 -3 0 1447.36 111.59
-3 3 0 1331.97 111.79
3 0 0 1334.77 111.99
-3 0 0 1221.88 111.89
0 3 0 1471.55 112.09
-3 0 0 1234.28 111.99
0 3 0 1410.86 111.59
3 -3 0 1290.57 111.69
-4 1 0 399.26 40.1
3 -4 0 479.45 39.2
1 3 0 442.86 39
-4 1 0 520.55 39.7
-3 4 0 491.35 39.4
4 -1 0 419.86 39.4
-1 -3 0 460.45 39.1
4 -1 0 467.85 39.5
2 2 0 968.8 82.99
2 -4 0 1033 82.99
-4 2 0 1048.6 83.59
-2 -2 0 947.11 82.99
4 -2 0 868.91 82.99
4 -2 0 978.1 83.09
-2 4 0 1104.29 83.29
3 1 0 427.66 42.2
-4 3 0 516.35 42.2
1 -4 0 546.35 42.4
3 1 0 473.35 42.1
4 -3 0 507.75 42
-1 4 0 547.95 42.5
-3 -1 0 455.55 42.3
4 -3 0 530.35 42.1
-3 -1 0 436.06 42.7
0 -4 0 4582.14 352.16
0 -4 0 4873.11 352.86
4 0 0 4379.26 352.66
-4 4 0 3628.74 353.26
4 0 0 3945.11 352.56
-4 0 0 4134.89 352.76
4 -4 0 4319.77 352.26
-4 0 0 4176.98 352.66
4 -5 0 599.64 48.8
1 4 0 569.44 48.6
-5 1 0 540.75 49.2
-5 1 0 584.04 49.4
1 4 0 587.44 49.5
-4 5 0 606.74 49
5 -1 0 491.65 49
-1 -4 0 634.84 49.6
-1 -4 0 537.45 50.69
-5 2 0 63.69 8
2 3 0 58.79 7.3
-5 2 0 53.59 8.2
3 -5 0 64.69 7.9
-2 -3 0 55.19 7.5
5 -2 0 54.59 8.1
-2 -3 0 67.69 9.4
5 -2 0 58.99 7.7
-2 -3 0 51.69 7.8
-3 5 0 81.29 10.3
3 2 0 60.59 8.6
-5 3 0 64.79 8.8
-5 3 0 79.19 8.5
2 -5 0 79.69 9.1
3 2 0 60.99 8
-2 5 0 62.19 8.7
-3 -2 0 61.79 8.2
-3 -2 0 60.59 8.6
5 -3 0 73.69 8.3
5 -3 0 69.59 8.5
4 1 0 508.35 50.69
1 -5 0 652.83 51.09
4 1 0 540.05 50.59
-5 4 0 646.44 50.79
-1 5 0 647.64 51.19
-4 -1 0 554.84 50.99
5 -4 0 576.84 50.39
-4 -1 0 576.14 50.79
5 -4 0 637.34 50.59
0 -5 0 3832.02 305.97
5 0 0 3458.85 305.87
-5 5 0 3981.9 305.77
5 0 0 3813.82 305.97
5 -5 0 3814.02 305.47
-5 0 0 3133.79 305.87
0 5 0 3799.52 305.97
-5 0 0 3647.64 305.97
-6 1 0 857.31 68.09
-6 1 0 814.12 68.19
5 -6 0 865.81 67.49
1 5 0 752.52 67.99
1 5 0 734.33 66.99
-1 -5 0 799.82 67.19
6 -1 0 821.72 67.89
-1 -5 0 814.92 68.19
6 -1 0 670.63 67.59
-5 6 0 821.52 67.59
2 4 0 14.4 3.8
2 4 0 12.5 5.4
4 -6 0 16.3 4.6
-6 2 0 13.7 5.3
-6 2 0 8.8 4.9
-2 -4 0 12.7 4
-2 -4 0 13.2 5.9
6 -2 0 17 4.8
-2 -4 0 11 4.5
6 -2 0 11.9 4.8
-4 6 0 10.2 4.9
3 3 0 306.07 26.9
-6 3 0 285.27 27.2
-6 3 0 332.07 27.6
3 -6 0 309.07 27.1
-3 -3 0 289.67 27.7
6 -3 0 277.47 26.9
-3 6 0 347.77 27.7
6 -3 0 292.27 27
-3 -3 0 296.27 27.3
-3 -3 0 274.87 26.9
4 2 0 7.3 3.7
4 2 0 5.7 4.5
-6 4 0 12.5 4
-6 4 0 16.3 4.8
2 -6 0 22.8 5.9
6 -4 0 7.6 3.5
6 -4 0 15.7 4.6
-2 6 0 24 6.2
-4 -2 0 8.8 4.6
-4 -2 0 14 4.3
1 -6 0 916.61 71.69
1 -6 0 838.32 71.29
5 1 0 845.52 71.39
-6 5 0 842.02 71.19
5 1 0 749.23 71.39
6 -5 0 854.41 70.99
-5 -1 0 803.52 71.59
6 -5 0 886.41 71.09
-5 -1 0 809.32 71.39
-1 6 0 834.72 71.49
0 -6 0 860.31 71.89
6 0 0 891.01 71.59
-6 6 0 894.91 71.29
0 -6 0 830.42 70.59
6 0 0 768.72 71.49
6 -6 0 904.31 70.99
-6 0 0 710.73 71.49
0 6 0 833.52 71.69
1 6 0 401.46 37.6
-7 1 0 421.26 37.4
-7 1 0 393.56 37.6
1 6 0 413.36 36.3
6 -7 0 431.26 36.7
7 -1 0 362.36 37.1
-6 7 0 487.05 37.3
-1 -6 0 431.36 37.9
7 -1 0 427.56 37.3
-1 -6 0 395.76 36.4
-7 2 0 116.99 14
2 5 0 110.89 12.3
5 -7 0 125.89 12.9
2 5 0 106.19 14.1
-7 2 0 124.89 13.6
-2 -5 0 114.19 12.5
7 -2 0 112.29 13.5
-2 -5 0 118.09 14.4
-5 7 0 117.69 13.6
7 -2 0 101.89 13
-2 -5 0 124.29 13.2
-7 3 0 75.69 11.3
4 -7 0 90.79 11.1
-7 3 0 99.79 11.2
3 4 0 84.69 10.3
-3 -4 0 84.79 12.5
-3 -4 0 85.09 11.1
7 -3 0 87.39 10.7
-4 7 0 84.09 11.9
-3 -4 0 75.39 10.2
7 -3 0 69.39 10.8
3 -7 0 87.69 11.6
4 3 0 83.69 10.6
-7 4 0 80.39 10.9
-7 4 0 96.19 11.4
-4 -3 0 84.29 11.1
-3 7 0 82.39 11.4
-4 -3 0 92.29 10.7
7 -4 0 90.79 10.7
7 -4 0 75.59 10.7
-7 5 0 120.39 13.1
2 -7 0 109.09 13.8
5 2 0 105.49 13.3
5 2 0 116.69 12.9
7 -5 0 104.39 12.6
-2 7 0 109.49 13.9
7 -5 0 118.99 12.5
-5 -2 0 99.59 13
-5 -2 0 116.79 13.5
-7 6 0 446.46 38.7
1 -7 0 424.66 39
1 -7 0 437.26 37.8
6 1 0 453.25 39.3
6 1 0 421.46 38.8
7 -6 0 443.56 38.3
-1 7 0 416.46 39.1
7 -6 0 444.26 38.4
-6 -1 0 422.46 39
-6 -1 0 450.25 39.4
7 0 0 339.57 31.3
-7 7 0 362.46 31.2
0 -7 0 350.16 30.3
7 0 0 299.67 31.3
0 -7 0 344.17 32.1
0 7 0 335.47 31.8
7 -7 0 362.36 30.7
-7 0 0 294.17 31.4
-7 0 0 378.46 31.8
1 7 0 375.96 31.8
-8 1 0 390.16 33.3
-8 1 0 346.57 33.2
7 -8 0 379.06 32.1
1 7 0 343.47 33.2
8 -1 0 361.76 32.7
-7 8 0 364.56 32.5
-1 -7 0 347.27 31.6
-1 -7 0 351.56 33.3
8 -1 0 299.17 32.6
-8 2 0 544.65 50.49
2 6 0 556.34 49.3
-8 2 0 579.64 50.39
2 6 0 512.05 50.29
6 -8 0 611.34 49.6
-2 -6 0 547.35 50.69
-2 -6 0 567.14 49.9
-6 8 0 621.14 50.09
8 -2 0 557.04 50.19
-2 -6 0 572.14 49.4
8 -2 0 613.14 50.29
-8 3 0 325.07 30.8
5 -8 0 342.37 30.3
-8 3 0 348.47 31
3 5 0 323.87 29.9
-5 8 0 376.66 31
8 -3 0 333.37 30.6
-3 -5 0 302.97 30.4
8 -3 0 322.87 30.5
-3 -5 0 330.67 30.1
-3 -5 0 321.77 31.2
-8 4 0 100.29 13
-8 4 0 102.49 13.1
4 -8 0 116.69 13.3
4 4 0 108.99 12.6
8 -4 0 100.89 12.6
-4 -4 0 104.89 14.2
-4 8 0 98.19 13.6
-4 -4 0 114.59 12.7
8 -4 0 114.09 13
-4 -4 0 112.59 12.9
-8 5 0 343.67 30.9
-8 5 0 338.27 31
5 3 0 321.47 30.6
3 -8 0 341.97 31.2
5 3 0 332.07 31.2
8 -5 0 349.67 30.7
-5 -3 0 332.77 31.3
-5 -3 0 346.47 30.9
-3 8 0 360.26 31.8
8 -5 0 309.07 30.5
6 2 0 593.74 51.19
2 -8 0 567.64 51.29
-8 6 0 570.04 50.99
6 2 0 549.74 51.29
-2 8 0 623.04 51.79
8 -6 0 605.84 50.89
8 -6 0 613.64 50.89
-6 -2 0 557.94 51.49
-6 -2 0 583.44 51.39
7 1 0 372.46 34
-8 7 0 409.36 34
7 1 0 346.37 34.2
1 -8 0 356.06 32.8
1 -8 0 382.96 34.4
-1 8 0 365.76 34.5
-7 -1 0 324.67 34.2
-7 -1 0 397.96 34.6
8 -7 0 397.86 33.5
8 -7 0 373.46 33.4
8 0 0 1145.49 91.69
0 -8 0 1011.6 91.59
8 0 0 989.7 91.39
0 -8 0 1046.9 90.39
-8 8 0 1149.58 91.49
-8 0 0 1124.79 91.99
8 -8 0 1122.49 90.79
8 -8 0 1148.29 90.89
-8 0 0 979.7 91.69
0 8 0 997.6 91.69
1 8 0 2.4 5.9
1 8 0 7.6 3.9
-9 1 0 2.6 4.5
8 -9 0 5.2 4.7
-9 1 0 1.7 5.6
9 -1 0 11.8 6.3
-1 -8 0 1.1 6.4
-1 -8 0 5.9 3.8
9 -1 0 -0.7 4.2
-8 9 0 3.5 5.2
-9 2 0 167.78 18.2
2 7 0 152.38 18.2
2 7 0 163.78 16.3
7 -9 0 176.58 16.7
-9 2 0 153.98 17.7
9 -2 0 167.98 17.5
-2 -7 0 151.38 17
9 -2 0 162.88 17.6
-2 -7 0 158.68 16.4
-2 -7 0 139.29 18.1
-7 9 0 164.78 17.6
-9 3 0 304.77 29.1
6 -9 0 314.27 28.3
3 6 0 298.17 27.9
-9 3 0 283.77 29.2
-3 -6 0 313.37 28.8
-3 -6 0 287.87 29.5
9 -3 0 317.47 29
-6 9 0 333.67 29.2
-3 -6 0 313.47 28.3
9 -3 0 301.27 29
-9 4 0 28.8 6.7
5 -9 0 10.1 5.5
-9 4 0 21.6 6.4
4 5 0 28.6 5.5
9 -4 0 24 6.2
-4 -5 0 22.2 8
-4 -5 0 19.7 5.5
9 -4 0 14.9 5.1
-5 9 0 16.7 6.8
-4 -5 0 17.5 5.8
4 -9 0 10.6 5.8
5 4 0 24.9 5.4
-9 5 0 21.4 5.8
-9 5 0 25 7
9 -5 0 27.4 6.1
-5 -4 0 17 5.9
-5 -4 0 29 6.2
-4 9 0 11.7 6.8
9 -5 0 12.5 5
6 3 0 337.97 29.5
-9 6 0 323.87 29.4
6 3 0 310.57 28.8
3 -9 0 278.97 29.1
-6 -3 0 297.87 29.1
-6 -3 0 302.57 29.4
-3 9 0 287.37 29.7
9 -6 0 332.37 28.9
9 -6 0 315.07 28.7
-9 7 0 148.99 17.1
2 -9 0 158.38 15.9
7 2 0 168.78 17.4
2 -9 0 158.68 18.2
7 2 0 162.28 17.9
9 -7 0 177.28 17
-2 9 0 138.29 18.5
-7 -2 0 165.88 18.1
9 -7 0 159.48 16.8
-7 -2 0 172.48 17.8
1 -9 0 10.4 6.5
8 1 0 -3.2 3.9
-9 8 0 6.1 5.3
1 -9 0 2.9 3.3
8 1 0 -1.8 5
-8 -1 0 1.4 4.4
-1 9 0 2.8 6
9 -8 0 0.5 3.6
9 -8 0 8.1 4.9
-8 -1 0 6.3 5.7
9 0 0 250.27 31.1
9 0 0 329.27 30.2
-9 9 0 334.87 29.6
0 -9 0 260.47 30.1
0 -9 0 303.07 28.3
9 -9 0 333.07 29
-9 0 0 326.47 30.2
9 -9 0 347.27 29
-9 0 0 326.47 30.6
0 9 0 292.87 30.2
-10 1 0 441.06 39.3
9 -10 0 448.06 37.8
-10 1 0 385.26 39.2
1 9 0 394.26 39.3
10 -1 0 380.16 38.7
-1 -9 0 409.46 38.1
-1 -9 0 423.46 37.5
10 -1 0 435.16 38.7
-9 10 0 490.25 39.1
-1 -9 0 387.86 39.4
2 8 0 1018.9 88.99
2 8 0 956.6 90.19
-10 2 0 1003.3 90.49
-10 2 0 1084.09 90.59
8 -10 0 1089.19 89.09
10 -2 0 1062.99 90.19
-2 -8 0 1050.19 89.79
-2 -8 0 1053.59 89.19
-8 10 0 1142.09 89.99
-2 -8 0 1019.6 90.49
7 -10 0 1233.58 96.09
-10 3 0 1134.79 97.19
3 7 0 1061.09 95.79
-10 3 0 1146.99 97.09
-3 -7 0 1084.69 96.39
-3 -7 0 1103.29 97.09
-3 -7 0 1110.69 95.99
10 -3 0 1090.09 98.59
10 -3 0 1091.19 96.59
-7 10 0 1241.28 96.79
6 -10 0 523.35 44.3
-10 4 0 537.55 45.3
4 6 0 485.15 44.1
-10 4 0 518.85 45.3
-4 -6 0 494.25 44.3
-4 -6 0 468.15 45.5
10 -4 0 464.25 44.9
-6 10 0 498.95 44.8
-4 -6 0 468.95 44.6
10 -4 0 535.95 44.9
-10 5 0 433.86 39.7
5 5 0 438.26 39.1
5 -10 0 424.56 39
-10 5 0 418.46 39.5
10 -5 0 399.96 39.2
-5 -5 0 434.16 39.2
-5 -5 0 414.96 40.3
10 -5 0 470.85 39.5
-5 -5 0 427.06 39.6
-5 10 0 496.75 40.2
4 -10 0 546.75 45.8
-10 6 0 510.05 45.7
6 4 0 494.65 45.5
-10 6 0 511.85 45.9
10 -6 0 509.45 45.5
-6 -4 0 509.05 45.7
-4 10 0 502.85 46.2
-6 -4 0 496.55 46.1
10 -6 0 526.75 45.6
-10 7 0 1135.69 98.19
3 -10 0 1143.19 98.19
7 3 0 1115.99 98.89
7 3 0 1170.18 98.19
-7 -3 0 1208.78 98.59
-7 -3 0 1108.29 98.69
10 -7 0 1216.18 98.09
-3 10 0 1122.59 98.59
10 -7 0 1134.79 97.79
-10 8 0 1131.09 92.69
2 -10 0 1003.7 91.29
2 -10 0 1053.59 92.59
8 2 0 1084.49 92.99
8 2 0 1054.39 94.39
-8 -2 0 1110.69 93.49
-8 -2 0 1095.79 92.99
10 -8 0 1145.39 92.19
10 -8 0 1104.39 92.29
-2 10 0 1029.9 92.99
9 1 0 439.86 39.2
1 -10 0 373.96 37.1
1 -10 0 388.16 38.9
9 1 0 438.16 38.9
-10 9 0 417.06 38.4
-9 -1 0 411.26 39.3
-1 10 0 409.96 39.1
10 -9 0 460.55 38
10 -9 0 418.96 38
-9 -1 0 445.66 39.3
0 -10 0 1605.44 141.79
-10 10 0 1850.51 143.39
10 0 0 1702.73 143.29
10 0 0 1534.35 143.09
0 -10 0 1538.95 143.29
-10 0 0 1767.12 144.19
10 -10 0 1788.92 142.49
0 10 0 1564.44 143.39
10 -10 0 1813.82 142.39
-10 0 0 1741.83 143.79
10 -11 0 69.39 10.5
1 10 0 68.89 12.3
10 -11 0 68.79 10.4
-11 1 0 67.09 12.5
-11 1 0 89.39 13.7
-1 -10 0 88.59 14.1
-10 11 0 67.29 11.8
-1 -10 0 73.59 10.5
-1 -10 0 76.59 11.5
11 -1 0 78.19 12.4
11 -1 0 59.99 10.6
2 9 0 83.79 11.5
9 -11 0 99.09 12.1
2 9 0 103.29 15.4
-11 2 0 62.09 11.5
-11 2 0 79.19 13.6
11 -2 0 115.49 13.4
11 -2 0 97.39 14
-2 -9 0 113.09 16.1
-2 -9 0 83.49 11.7
-2 -9 0 89.49 12.7
-9 11 0 105.69 13.8
8 -11 0 17.5 6.2
3 8 0 27.7 5.9
-11 3 0 18 7.4
-11 3 0 28 7
-3 -8 0 26 6.9
-3 -8 0 29.7 6.7
11 -3 0 21.6 6.8
11 -3 0 15.8 7.2
-8 11 0 20.8 7.5
-3 -8 0 17.7 9.5
4 7 0 3.6 4.3
-11 4 0 7.7 5.1
7 -11 0 5.2 5.2
-11 4 0 1.5 5.8
-4 -7 0 0.5 6.6
-4 -7 0 0.4 4.6
11 -4 0 2.5 4.6
-4 -7 0 4.5 4
-7 11 0 8.1 6.6
6 -11 0 10.1 5.6
5 6 0 -0.1 3.6
-11 5 0 1.2 4.8
-11 5 0 11.7 6.2
-6 11 0 13.4 6.9
11 -5 0 3.9 4.2
11 -5 0 2.1 5.2
-5 -6 0 6 5.4
-5 -6 0 9.1 5.2
-5 -6 0 -8.8 5.7
6 5 0 8.6 5
-11 6 0 5.3 5.6
-11 6 0 9.2 5
5 -11 0 2.3 5.5
-6 -5 0 13 5.8
11 -6 0 4.9 4.5
11 -6 0 -0.5 4.2
-5 11 0 6.8 6.4
-6 -5 0 -3.8 3.7
-6 -5 0 -0.5 6.4
-11 7 0 5 5.8
7 4 0 5 4.6
4 -11 0 4.9 5.9
11 -7 0 11.6 5.3
-4 11 0 8 7
-7 -4 0 2 4.6
-7 -4 0 13.3 6.2
11 -7 0 -1 4.6
8 3 0 32.1 8.6
-11 8 0 23.6 7.3
3 -11 0 16.6 7.5
8 3 0 19.4 5.8
11 -8 0 20.3 6.5
-8 -3 0 13.7 6.3
-8 -3 0 33 8.5
11 -8 0 40.3 13.8
-3 11 0 26 8.4
-11 9 0 92.09 13.9
2 -11 0 107.69 14.7
9 2 0 106.09 14.2
9 2 0 75.29 12.4
2 -11 0 98.49 11.6
-9 -2 0 103.89 14.6
-2 11 0 102.09 14.7
11 -9 0 83.19 13
11 -9 0 99.59 12.7
-9 -2 0 110.09 15.4
1 -11 0 67.09 12.8
1 -11 0 63.59 9.5
10 1 0 46.3 9.9
10 1 0 71.99 12.4
-11 10 0 87.99 12.5
-10 -1 0 136.89 17
11 -10 0 83.09 11.2
-1 11 0 73.29 13
-10 -1 0 62.99 11.9
11 -10 0 72.09 11.1
-11 11 0 2.3 5.8
0 -11 0 0.3 7
11 0 0 7.8 6.7
0 -11 0 10.2 4.6
11 0 0 7.1 5.5
-11 0 0 1.6 5.4
11 -11 0 8.9 5.4
11 -11 0 1.6 4.8
0 11 0 6.7 6.7
-11 0 0 2.6 6.1
11 -12 0 138.09 18.6
11 -12 0 174.08 17.4
1 11 0 122.29 19.1
-12 1 0 182.98 19.5
-12 1 0 195.88 20.5
-1 -11 0 151.18 19.7
12 -1 0 139.59 17.9
-1 -11 0 137.39 17.2
-11 12 0 168.28 18.8
-1 -11 0 159.48 16.9
12 -1 0 158.98 19
2 10 0 334.77 34.5
-12 2 0 390.46 36.9
2 10 0 347.77 36.8
10 -12 0 439.16 35.3
-12 2 0 385.46 37.2
12 -2 0 417.66 36.4
-10 12 0 427.16 36.5
-2 -10 0 356.16 36.9
12 -2 0 392.16 36.3
-2 -10 0 365.36 34.8
-2 -10 0 345.87 35.4
3 9 0 121.79 15.2
-12 3 0 136.09 17.7
3 9 0 156.08 18
9 -12 0 167.28 16
12 -3 0 143.39 17.1
12 -3 0 113.09 16.1
-3 -9 0 153.78 18.5
-3 -9 0 126.69 15.5
-3 -9 0 117.89 15.9
-9 12 0 144.69 17.1
4 8 0 88.19 12.3
8 -12 0 104.19 13.1
-12 4 0 96.69 14.9
-12 4 0 95.19 13.7
12 -4 0 106.69 13.5
-4 -8 0 96.09 13.5
-4 -8 0 83.69 12.2
-4 -8 0 87.29 14.9
12 -4 0 110.69 13.7
-8 12 0 90.09 14
-12 5 0 9.1 5.6
7 -12 0 10.8 5.6
-12 5 0 3.5 6
-7 12 0 7.7 7
12 -5 0 4.1 5.6
-5 -7 0 -0.3 4
12 -5 0 2.5 4.5
-5 -7 0 1.1 6.8
-5 -7 0 2.8 5.3
-12 6 0 80.89 12.5
6 -12 0 104.59 13.1
6 6 0 85.69 12.3
-12 6 0 97.89 13.9
12 -6 0 83.49 12.9
-6 -6 0 107.29 16.1
-6 12 0 101.69 14.7
-6 -6 0 104.19 12.9
12 -6 0 89.89 12.9
-6 -6 0 93.19 13.3
7 5 0 -0.6 4
5 -12 0 2.3 5.9
-12 7 0 4 5.8
-7 -5 0 3.2 4.9
-7 -5 0 2.7 5.3
12 -7 0 0.4 3.9
-5 12 0 0.1 6.4
-7 -5 0 5.7 6.9
8 4 0 76.79 12.6
-12 8 0 72.89 12.4
4 -12 0 84.99 13.2
-8 -4 0 91.99 12.7
12 -8 0 89.39 14.1
-8 -4 0 96.99 14.2
-4 12 0 102.89 14.5
12 -8 0 81.99 11.7
3 -12 0 132.09 17.9
9 3 0 130.19 17
-12 9 0 130.79 17.1
9 3 0 156.18 16.9
3 -12 0 107.29 14.5
-3 12 0 121.99 17.5
12 -9 0 126.79 15.9
12 -9 0 153.58 16.4
-9 -3 0 145.59 17.1
-9 -3 0 176.88 18.3
2 -12 0 304.27 42.4
-12 10 0 400.16 36.8
2 -12 0 371.36 34.8
10 2 0 415.26 36.8
10 2 0 369.06 36.6
12 -10 0 372.96 35.7
12 -10 0 408.26 36
-10 -2 0 399.86 37.6
-10 -2 0 432.46 37.5
-2 12 0 370.86 37.5
-12 11 0 158.48 18.7
11 1 0 149.59 18.8
1 -12 0 158.08 17
1 -12 0 129.19 19.7
11 1 0 189.58 19.2
-1 12 0 149.69 19.9
12 -11 0 162.98 18
12 -11 0 185.38 18.2
-11 -1 0 158.78 19.8
-11 -1 0 179.08 19.7
0 -12 0 71.99 13.5
12 0 0 65.49 12.2
12 0 0 79.39 13
0 -12 0 72.29 10.7
-12 12 0 51.49 11.5
12 -12 0 60.99 12.2
-12 0 0 110.79 14.9
-12 0 0 74.59 12.7
12 -12 0 70.09 10.7
0 12 0 110.99 16.6
1 12 0 5.9 7.4
-13 1 0 0.1 6.8
12 -13 0 0.6 4.3
-13 1 0 5.4 5.2
-1 -12 0 6.6 5.4
-1 -12 0 3.2 7.6
13 -1 0 1.7 5.7
13 -1 0 0.6 4.6
-12 13 0 12.2 6.8
-1 -12 0 3.9 4.3
-13 2 0 7.1 7
2 11 0 12.6 7.8
-13 2 0 2.6 4.8
11 -13 0 10.8 5.7
13 -2 0 9 5.1
-2 -11 0 11.8 5.9
-2 -11 0 5.6 4.7
13 -2 0 9.4 6.2
-2 -11 0 4.1 7.8
-11 13 0 9.4 6.4
-13 3 0 39.6 9.2
10 -13 0 34 7.7
-13 3 0 23.1 8.7
3 10 0 19.9 7.5
3 10 0 30.1 9
13 -3 0 8.1 5.8
-10 13 0 15.7 7.9
-3 -10 0 28.5 6.8
-3 -10 0 22.6 7.5
13 -3 0 19.7 7.3
-3 -10 0 20.5 9.5
4 9 0 20.5 6.3
9 -13 0 38.2 7.8
-13 4 0 28.2 9
-13 4 0 19.7 6.8
-4 -9 0 33.2 8.1
13 -4 0 36.9 8.9
-9 13 0 27.8 8.9
-4 -9 0 39.8 7.8
-4 -9 0 16.2 9.1
13 -4 0 28.5 7.6
-13 5 0 57.19 10.7
-13 5 0 53.09 11.7
8 -13 0 55.09 10
5 8 0 76.49 10.8
-5 -8 0 37.4 8.9
13 -5 0 69.89 10.9
-5 -8 0 84.49 13.8
13 -5 0 49.8 10.6
-5 -8 0 51.19 10.3
-8 13 0 85.49 13.1
-13 6 0 20.9 7.4
-13 6 0 16 6.3
6 7 0 16.5 5.8
7 -13 0 22.7 7.1
-6 -7 0 7.8 5.9
13 -6 0 23.2 6.4
13 -6 0 16.5 7.2
-6 -7 0 8.6 5.6
-6 -7 0 21.8 8.8
-7 13 0 8.8 7.5
-13 7 0 26.4 7.5
7 6 0 12.9 5.4
-13 7 0 20.1 7.8
6 -13 0 17.2 7.2
-7 -6 0 18 9.1
-7 -6 0 10.2 6
13 -7 0 21.4 6.8
-6 13 0 20.4 8.8
13 -7 0 12.3 5.6
-7 -6 0 7.8 6.3
-13 8 0 40.1 10.2
8 5 0 49.1 9.2
5 -13 0 49.7 10.6
13 -8 0 68.59 10.7
13 -8 0 47.6 9.1
-5 13 0 63.29 12.3
-8 -5 0 65.49 12
-8 -5 0 65.79 11
4 -13 0 14.1 8.8
-13 9 0 26.3 8.3
9 4 0 33.5 8.3
13 -9 0 33.4 7.3
13 -9 0 29.9 7.8
-9 -4 0 31.2 9
-9 -4 0 29 7.7
-4 13 0 34.7 9.5
10 3 0 15.5 7.9
10 3 0 23.5 7.8
3 -13 0 27.8 6.2
3 -13 0 25 9.6
-13 10 0 20.5 8.1
13 -10 0 24.5 7.1
13 -10 0 22.6 6.8
-10 -3 0 14.8 7.2
-3 13 0 48 11
-10 -3 0 29.7 8.4
11 2 0 9.5 5.5
11 2 0 3 6.1
2 -13 0 4.9 7.9
-13 11 0 17.4 7
2 -13 0 5.2 4.5
13 -11 0 8.2 5.5
13 -11 0 19.1 6.6
-11 -2 0 4.6 5.7
-11 -2 0 14.7 7.4
-2 13 0 13.7 7.9
1 -13 0 3.8 4.1
1 -13 0 10.3 8
-13 12 0 13.3 6.7
12 1 0 -2.3 5.1
12 1 0 0.9 5.4
-1 13 0 6.5 7.2
13 -12 0 11 5.4
-12 -1 0 2.5 6.8
-12 -1 0 5.2 6.2
13 -12 0 1.7 4.8
13 0 0 31 8.5
0 -13 0 27.6 6.5
13 0 0 36.9 9.4
0 -13 0 26.3 10
0 -13 0 24.4 7.4
-13 13 0 21.1 9.2
-13 0 0 25.4 9.2
13 -13 0 18.7 6.9
-13 0 0 16.4 9
13 -13 0 28.8 7.4
0 13 0 22.9 9.3
-14 1 0 15.6 11.6
13 -14 0 39.3 8
1 13 0 30 10.1
-14 1 0 27.1 10.2
13 -14 0 18 7.3
-1 -13 0 25.8 8.3
-1 -13 0 21.2 6.7
-1 -13 0 18.8 9.9
14 -1 0 26.6 7.9
-13 14 0 32.1 9.6
14 -1 0 26.4 9.1
-14 2 0 125.59 19.5
2 12 0 124.09 18.6
12 -14 0 144.89 15.8
12 -14 0 152.78 18.5
-14 2 0 148.69 19.3
14 -2 0 118.59 17.4
-2 -12 0 118.29 15.3
-12 14 0 143.49 17.8
14 -2 0 126.39 16.9
-2 -12 0 123.19 16.6
-2 -12 0 131.89 19.4
-14 3 0 249.18 29
3 11 0 288.27 27.4
11 -14 0 264.27 32.1
-14 3 0 303.77 30.3
3 11 0 273.57 29.6
-11 14 0 286.47 29.3
14 -3 0 315.97 29.1
-3 -11 0 262.17 30.1
14 -3 0 281.07 29.1
-3 -11 0 291.87 27.8
-3 -11 0 266.87 28.2
-14 4 0 379.36 34.8
4 10 0 291.57 32
10 -14 0 355.26 32.5
-14 4 0 338.37 34.8
-10 14 0 375.96 34.3
-4 -10 0 309.77 33
14 -4 0 326.07 33.5
14 -4 0 373.56 33.9
-4 -10 0 351.56 32.8
-4 -10 0 349.57 35.2
-14 5 0 14.2 6.9
5 9 0 11.5 6
9 -14 0 13.2 6.2
-14 5 0 10.7 7.5
-5 -9 0 22 9.3
14 -5 0 8.8 5.3
-5 -9 0 10.1 5.7
-5 -9 0 8 6
-9 14 0 13.2 8.4
14 -5 0 12.8 6.8
-14 6 0 123.29 17.5
-14 6 0 112.29 17.3
8 -14 0 135.39 15.3
6 8 0 115.39 14.4
14 -6 0 110.09 15.2
-8 14 0 114.19 16.8
-6 -8 0 96.89 16.5
-6 -8 0 113.89 15.7
14 -6 0 116.49 15.3
-6 -8 0 106.99 14.6
7 7 0 9.3 5.2
7 -14 0 3 5.7
-14 7 0 0 6.3
-14 7 0 7.7 6.2
14 -7 0 4 4.9
-7 -7 0 10.9 6
-7 -7 0 0.1 7.9
-7 14 0 7.6 7.5
14 -7 0 5 5.8
-7 -7 0 -2.6 5.4
-14 8 0 119.19 16.4
6 -14 0 103.79 17.3
8 6 0 112.89 14.6
-8 -6 0 105.09 16.6
-8 -6 0 99.19 15.9
14 -8 0 114.89 14.9
-8 -6 0 103.49 15
14 -8 0 110.89 14.7
-6 14 0 139.99 18.3
9 5 0 11.8 6
5 -14 0 9.1 11.1
-14 9 0 18.6 7.6
14 -9 0 19.9 6.4
-9 -5 0 19.1 6.5
-5 14 0 -3.5 7
14 -9 0 18.8 6.8
-9 -5 0 25.7 8.2
-14 10 0 318.77 33.3
10 4 0 332.97 33.1
4 -14 0 338.67 33.5
4 -14 0 331.47 31.3
-10 -4 0 373.46 34.7
14 -10 0 336.57 32.6
-4 14 0 338.97 34.2
14 -10 0 360.66 32.7
-10 -4 0 335.57 33.8
-14 11 0 288.97 28.8
3 -14 0 254.77 29.1
3 -14 0 273.17 26.4
11 3 0 278.57 28.2
-11 -3 0 287.27 29.2
-3 14 0 246.68 29.1
-11 -3 0 295.27 29.8
14 -11 0 288.47 27.8
14 -11 0 287.67 27.6
-14 12 0 123.39 17.9
2 -14 0 123.59 14.9
12 2 0 145.79 18.3
2 -14 0 131.29 18.9
12 2 0 130.49 17.1
14 -12 0 139.19 16.4
14 -12 0 116.89 16.2
-12 -2 0 129.79 18.4
-12 -2 0 131.49 18.1
-2 14 0 154.68 20.8
13 1 0 30.4 8.6
-14 13 0 39.1 10
1 -14 0 34.1 7.6
1 -14 0 20.7 10.3
13 1 0 44 10.2
14 -13 0 30.4 7.8
-13 -1 0 37 16
-1 14 0 23.9 9.9
14 -13 0 35.7 8.3
-13 -1 0 17.6 8.5
14 0 0 98.29 15.4
0 -14 0 104.09 14.9
-14 14 0 97.49 15.9
0 -14 0 90.69 16.5
0 -14 0 95.99 13.5
14 0 0 103.89 16.4
14 -14 0 106.59 14.2
-14 0 0 76.39 15.4
-14 0 0 96.29 16.7
14 -14 0 103.79 14.3
0 14 0 91.39 16.7
-15 1 0 17.1 9.4
14 -15 0 23.1 7.3
1 14 0 9.3 14.8
14 -15 0 6.7 6.2
-15 1 0 9.2 7.9
15 -1 0 17.5 8.5
15 -1 0 16.2 7.7
-1 -14 0 24.7 8.5
-1 -14 0 24.5 9.9
-14 15 0 37.2 10.5
-1 -14 0 28 7.2
2 13 0 87.09 18
13 -15 0 96.59 13.6
-15 2 0 77.09 15.6
-15 2 0 91.09 16.5
13 -15 0 97.89 13.3
15 -2 0 98.89 15.6
-2 -13 0 92.69 13
-2 -13 0 88.99 14.4
15 -2 0 97.59 16.2
-2 -13 0 84.99 16
-13 15 0 80.39 15
12 -15 0 45.5 9.4
-15 3 0 61.79 13.7
3 12 0 24.1 10.2
15 -3 0 39 10.3
-12 15 0 57.99 12.5
15 -3 0 34.5 8.7
-3 -12 0 46.2 10.3
-3 -12 0 43 8.9
-3 -12 0 47.7 12.8
4 11 0 55.39 10.6
-15 4 0 70.09 13.4
11 -15 0 66.59 12.8
-15 4 0 56.49 12.4
-4 -11 0 48.9 10.1
15 -4 0 35.3 10.3
-4 -11 0 44.3 12.4
15 -4 0 52.29 11.1
-4 -11 0 59.99 11.4
-11 15 0 65.79 12.7
5 10 0 46.3 9.8
-15 5 0 51.19 11.3
-15 5 0 47.2 11.9
-5 -10 0 43.7 10.6
15 -5 0 66.59 11.4
-10 15 0 61.09 12.8
15 -5 0 46 10
-5 -10 0 45.4 12.5
-5 -10 0 56.29 10.4
6 9 0 12.5 5.9
-15 6 0 18.8 7.6
-15 6 0 20.1 8.7
-6 -9 0 16.3 7.5
15 -6 0 13.4 6.9
-9 15 0 2.3 7.9
-6 -9 0 3.1 8.6
-6 -9 0 6.5 5.4
15 -6 0 7.8 5.5
7 8 0 33 8.4
-15 7 0 44.4 11
-15 7 0 39.6 9.5
-8 15 0 21.7 9.9
15 -7 0 32 8.9
-7 -8 0 19.3 8.7
-7 -8 0 27.5 10.4
-7 -8 0 45.9 9.2
15 -7 0 55.29 10.7
7 -15 0 40.8 11
8 7 0 35.6 8
-15 8 0 30.7 10
-8 -7 0 34 8.9
-8 -7 0 42.6 10.3
-7 15 0 25.1 10.5
15 -8 0 25.2 7.4
15 -8 0 42.3 9.3
-8 -7 0 27.7 10.5
6 -15 0 8.4 7.2
-15 9 0 11.2 7.7
9 6 0 7.7 6
-6 15 0 8.7 8.4
-9 -6 0 8.3 8.8
15 -9 0 9.7 6.6
15 -9 0 12.6 6.8
-9 -6 0 33.6 7.8
-9 -6 0 1.9 6.2
5 -15 0 57.99 11.7
10 5 0 45.7 10.1
-15 10 0 44.9 10.8
-5 15 0 56.29 12.8
-10 -5 0 62.79 12.5
-10 -5 0 71.39 12.4
15 -10 0 44.1 8.9
15 -10 0 53.69 10.8
-15 11 0 55.19 11.4
4 -15 0 49.3 8.6
11 4 0 41.9 9.3
4 -15 0 45.6 11.2
15 -11 0 66.99 11.2
-11 -4 0 49.99 11.6
-11 -4 0 32.6 9.7
-4 15 0 36.1 11.3
15 -11 0 50.19 9.9
3 -15 0 39.1 11
12 3 0 42.3 9.7
3 -15 0 37 7.8
-15 12 0 43.9 11
15 -12 0 77.79 11.6
15 -12 0 40.9 9.8
-3 15 0 70.29 13.8
-12 -3 0 32.8 9.6
2 -15 0 75.19 11.2
-15 13 0 83.69 15.2
13 2 0 67.69 13.4
13 2 0 60.79 12.1
2 -15 0 85.39 15.6
15 -13 0 84.59 12.8
-13 -2 0 77.49 15.5
-2 15 0 80.89 15.7
15 -13 0 89.49 12.9
-13 -2 0 79.59 15
1 -15 0 18.7 7.6
1 -15 0 29.6 11.1
1 -15 0 31.8 7.5
-15 14 0 32 10.4
14 1 0 33.1 10.1
14 1 0 30.7 8.9
-14 -1 0 10.3 7.4
15 -14 0 21.6 7.3
15 -14 0 11.2 7
-14 -1 0 26.9 10
-1 15 0 20.8 10.6
15 0 0 155.88 20.7
15 0 0 168.08 20.3
-15 15 0 157.48 20.9
0 -15 0 149.79 19
0 -15 0 146.69 22.2
0 -15 0 158.08 18.4
-15 0 0 168.58 21.8
15 -15 0 165.78 19.2
0 15 0 153.48 21.8
-15 0 0 168.48 22.1
15 -15 0 158.38 18.7
-16 1 0 12.8 8.6
1 15 0 -2 8.1
-16 1 0 12.5 7.7
15 -16 0 6.6 6
15 -16 0 4.5 5.6
-1 -15 0 4.3 5.6
16 -1 0 11.4 7.3
-1 -15 0 1.3 6.9
16 -1 0 8.8 8.1
-1 -15 0 7.1 9.6
-16 2 0 84.09 17.2
14 -16 0 106.29 15.3
2 14 0 100.89 18
14 -16 0 136.79 15.9
-16 2 0 123.79 20.2
16 -2 0 107.19 17.4
-14 16 0 137.89 19.8
-2 -14 0 110.69 16.8
16 -2 0 134.29 17.6
-2 -14 0 123.69 15.7
-2 -14 0 101.39 18.1
-16 3 0 158.78 21.7
-16 3 0 101.59 18.4
13 -16 0 183.08 18.7
13 -16 0 158.48 18.1
16 -3 0 165.68 20.2
16 -3 0 131.49 20.2
-13 16 0 193.58 21.9
-3 -13 0 178.18 19.9
-3 -13 0 149.79 22
-3 -13 0 145.89 18.4
12 -16 0 364.66 31.1
-16 4 0 346.57 34.1
-16 4 0 315.37 34
4 12 0 278.57 30.7
-12 16 0 362.76 33.6
16 -4 0 288.67 32.2
-4 -12 0 305.77 32.1
-4 -12 0 343.67 34.6
-4 -12 0 280.47 31
16 -4 0 305.97 32.1
-16 5 0 52.89 11.8
5 11 0 57.79 10.7
-16 5 0 75.89 14.7
11 -16 0 64.79 10.9
-5 -11 0 67.99 14.3
16 -5 0 68.59 12.8
-5 -11 0 72.09 13
-5 -11 0 63.39 12.2
-11 16 0 74.89 14.2
16 -5 0 66.99 12.2
6 10 0 229.88 24.8
-16 6 0 237.38 27.9
10 -16 0 252.67 25.1
16 -6 0 244.98 26
-6 -10 0 213.68 25.1
-10 16 0 282.57 28
-6 -10 0 211.18 27.9
-6 -10 0 228.28 26
16 -6 0 281.07 26.8
-16 7 0 22.7 10.6
9 -16 0 20 7.9
7 9 0 28 7.8
-16 7 0 14.5 8.9
-7 -9 0 26.8 7.8
-9 16 0 24.9 10
16 -7 0 20.2 8.2
-7 -9 0 18.7 10.3
16 -7 0 12.2 7.6
-7 -9 0 19.2 8.3
8 8 0 254.57 26.7
8 -16 0 256.17 27.1
-16 8 0 256.67 28.5
-8 16 0 278.77 29.6
-8 -8 0 247.68 27.9
16 -8 0 271.57 27.6
16 -8 0 257.87 27.3
-8 -8 0 230.18 29.1
-8 -8 0 282.67 27.7
-16 9 0 9.1 8.2
9 7 0 26.7 7
7 -16 0 13.9 7.8
-7 16 0 20.4 9.8
16 -9 0 11.9 7.1
-9 -7 0 24.4 10.7
-9 -7 0 7.2 6.7
16 -9 0 17.4 7
-9 -7 0 11.6 8.4
-16 10 0 237.28 26.2
6 -16 0 241.38 25.6
10 6 0 217.18 25
16 -10 0 244.38 25.2
16 -10 0 236.88 25
-10 -6 0 255.87 34
-10 -6 0 236.58 25.8
-6 16 0 209.08 26.7
-10 -6 0 245.78 28
5 -16 0 59.19 12.3
5 -16 0 68.89 10.4
11 5 0 52.39 11.4
-16 11 0 70.89 13.7
-11 -5 0 65.19 13.3
-11 -5 0 55.09 12.9
16 -11 0 74.29 12
-5 16 0 68.99 14.1
16 -11 0 62.89 11.6
4 -16 0 290.07 31.7
4 -16 0 292.67 29.1
-16 12 0 298.47 32.1
12 4 0 287.67 31.3
16 -12 0 328.17 31.2
-4 16 0 324.47 33.5
-12 -4 0 343.67 33.3
-12 -4 0 323.37 33.2
16 -12 0 299.27 30.5
3 -16 0 140.69 21.6
-16 13 0 169.58 21.1
13 3 0 182.48 20.8
3 -16 0 159.28 18.3
-13 -3 0 146.39 20.9
-3 16 0 173.18 25.1
-13 -3 0 188.78 22.4
16 -13 0 177.88 19.9
16 -13 0 148.89 19.3
14 2 0 120.59 17.7
2 -16 0 131.79 19.6
-16 14 0 130.99 24.2
2 -16 0 133.39 15.6
16 -14 0 110.79 16.8
-2 16 0 187.28 23
-14 -2 0 143.09 19.9
-14 -2 0 118.09 18.6
16 -14 0 117.49 16.6
1 -16 0 9.1 10
1 -16 0 1.6 5.1
15 1 0 11.1 7.1
-16 15 0 20.8 10.4
15 1 0 9.2 8.2
1 -16 0 8.9 6.8
16 -15 0 9 6.7
-15 -1 0 10.5 9
-15 -1 0 -2.6 5.6
-1 16 0 27.2 9.5
16 -15 0 6.7 6.1
16 0 0 91.59 16.3
0 -16 0 80.79 16.7
0 -16 0 75.59 13.6
-16 16 0 76.59 15.4
0 -16 0 78.99 12.6
16 0 0 82.19 14.6
-16 0 0 94.19 16.9
16 -16 0 92.49 15.3
16 -16 0 87.99 13.7
-16 0 0 103.49 18.5
0 16 0 85.59 17.1
1 16 0 10.8 9.1
16 -17 0 3.8 6
16 -17 0 -2.2 4.8
-17 1 0 7.9 8.3
-17 1 0 -7.7 6.4
-16 17 0 -2.9 7.8
17 -1 0 12.3 9.1
-1 -16 0 1.3 9.8
-1 -16 0 -4.8 7.1
17 -1 0 4.9 7.5
-1 -16 0 -0.9 4.7
15 -17 0 55.69 10.9
15 -17 0 51.89 10.6
-17 2 0 78.09 16.3
2 15 0 55.89 13.9
-17 2 0 36 10.3
-2 -15 0 64.79 11.6
17 -2 0 43.8 12.4
17 -2 0 61.69 12
-15 17 0 52.29 13.4
-2 -15 0 58.59 14.2
-17 3 0 11.1 9.1
14 -17 0 6.4 5.3
-17 3 0 10.6 8
14 -17 0 15.7 7.3
-3 -14 0 19.8 11.4
17 -3 0 25.6 9.1
17 -3 0 13.1 7
-3 -14 0 7.3 6.2
13 -17 0 28 8.1
-17 4 0 23 10.7
-17 4 0 11.5 8.7
17 -4 0 11.9 7.7
-4 -13 0 23.1 10.9
-13 17 0 36.7 11.6
17 -4 0 15.3 8.9
-4 -13 0 15.6 7.4
-17 5 0 29.3 11.1
12 -17 0 34.8 8.5
5 12 0 29.4 8.5
-17 5 0 13.1 8.3
-5 -12 0 50.29 9.5
-5 -12 0 12 10.4
17 -5 0 17.5 8.9
17 -5 0 33 8.7
-12 17 0 26.3 10.7
11 -17 0 5 6.3
-17 6 0 9.3 7.7
-17 6 0 14 9
6 11 0 6.8 5.6
-11 17 0 5.9 8
-6 -11 0 14.6 10.1
17 -6 0 15.9 7.2
-6 -11 0 17.1 7.4
-6 -11 0 -0.1 7.4
17 -6 0 2.9 6.7
-17 7 0 28.7 10.6
-17 7 0 32.2 10.1
7 10 0 38.6 8.9
10 -17 0 30.7 8.8
-10 17 0 23.6 10.8
17 -7 0 24.7 9.3
17 -7 0 25 9.4
-7 -10 0 48.3 11.6
-7 -10 0 22.6 8.3
-7 -10 0 38 12.8
9 -17 0 83.49 12.9
-17 8 0 71.69 14.3
8 9 0 51.09 10.4
17 -8 0 68.29 12.6
-8 -9 0 53.29 14.1
-9 17 0 72.19 14.8
-8 -9 0 60.99 12.8
17 -8 0 53.29 12.1
-8 -9 0 63.79 13.4
9 8 0 71.19 12.4
-17 9 0 74.09 14.8
8 -17 0 53.39 12
-9 -8 0 88.39 16.1
-9 -8 0 65.19 12.3
-8 17 0 79.59 15.3
-9 -8 0 53.99 12.9
17 -9 0 72.59 13
17 -9 0 55.89 11.1
7 -17 0 36.5 10.1
-17 10 0 37.2 11.2
10 7 0 50.19 10.5
17 -10 0 26.7 8.3
-10 -7 0 27 11
-10 -7 0 33.3 11.6
-10 -7 0 35 10.7
-7 17 0 39.2 11.8
17 -10 0 24.4 8.5
6 -17 0 25.6 6.9
6 -17 0 19.4 8.8
11 6 0 0.6 5.9
-17 11 0 7.7 8.2
17 -11 0 9.3 6.9
-11 -6 0 1.6 8.5
-6 17 0 21.7 10.1
-11 -6 0 26.5 9.8
17 -11 0 10.6 6.1
-11 -6 0 20.9 8
-17 12 0 39.2 11.3
5 -17 0 28.9 6.8
5 -17 0 32 10.5
12 5 0 23.7 8.2
-12 -5 0 40.2 10.5
-5 17 0 50.69 20.5
17 -12 0 32.7 8.7
-12 -5 0 17.2 9
17 -12 0 18.2 7.4
4 -17 0 24.1 6.8
4 -17 0 34.5 11.1
-17 13 0 20.3 9.4
13 4 0 31.5 9.9
-13 -4 0 14.9 9.8
-4 17 0 34.7 11.9
-13 -4 0 22.4 9.9
17 -13 0 19.6 7.5
17 -13 0 24.1 8.4
14 3 0 13.2 7.8
-17 14 0 15.9 8.7
3 -17 0 6 9.9
3 -17 0 1.8 4.8
-14 -3 0 23.5 10.6
-3 17 0 17.4 10.6
17 -14 0 23.6 7.3
-14 -3 0 29 9.6
17 -14 0 17.2 7.4
-17 15 0 52.49 12.9
2 -17 0 55.59 11.3
2 -17 0 35.7 9
2 -17 0 88.09 15.3
15 2 0 47.9 11.3
-15 -2 0 52.09 13.9
-15 -2 0 69.29 12.8
17 -15 0 51.69 10.3
17 -15 0 64.59 11.4
-2 17 0 43.4 13.3
16 1 0 0.4 5.9
1 -17 0 -2.5 5.4
-17 16 0 3.6 8
1 -17 0 3 5.4
1 -17 0 5.9 9.5
-16 -1 0 8.2 8.9
-16 -1 0 -12.1 5.6
-1 17 0 0.4 9.2
17 -16 0 6.1 6.3
17 -16 0 8.6 6.5
17 0 0 4.5 7.4
0 -17 0 4.7 5.5
-17 17 0 -7.2 7
0 -17 0 10.8 10.5
0 -17 0 5.5 7.5
17 0 0 -4.6 5.4
17 -17 0 1.6 6
17 -17 0 0.6 5.5
-17 0 0 -12.8 4.7
-17 0 0 3.9 8.1
0 17 0 10.1 9.8
-18 1 0 51.39 13.4
1 17 0 48.8 13.8
-18 1 0 54.69 13.8
17 -18 0 54.59 12.1
17 -18 0 45.9 10.1
18 -1 0 54.39 13.1
-1 -17 0 54.89 10.9
-1 -17 0 56.89 15
18 -1 0 23.5 10.2
-17 18 0 53.49 14.1
-1 -17 0 42.3 10.7
16 -18 0 86.39 13.9
-18 2 0 70.49 17.1
2 16 0 115.29 19.6
16 -18 0 92.69 14.9
-18 2 0 85.09 15.5
-2 -16 0 110.69 15.3
-2 -16 0 106.69 18.1
-2 -16 0 95.39 15.3
-16 18 0 87.69 17.1
18 -2 0 63.49 14.5
18 -2 0 118.69 18
15 -18 0 55.49 10.4
-18 3 0 59.39 14.1
15 -18 0 54.19 10.1
-18 3 0 22.1 11.7
-15 18 0 66.49 14
-3 -15 0 43 11.1
18 -3 0 47.3 11.2
-3 -15 0 45.6 10
-3 -15 0 30.8 13.3
18 -3 0 38.1 11
-18 4 0 243.38 29.6
-18 4 0 233.38 30
14 -18 0 276.07 26.4
14 -18 0 257.27 26.2
-4 -14 0 246.58 27.8
18 -4 0 284.77 29.3
18 -4 0 242.88 27.8
-14 18 0 266.27 30.1
-4 -14 0 240.18 27
-4 -14 0 237.68 30.3
-18 5 0 80.59 17.6
5 13 0 109.09 15.6
-18 5 0 101.19 18.5
13 -18 0 131.19 16.2
18 -5 0 109.09 17.8
-5 -13 0 120.99 17.5
-13 18 0 118.79 19.3
-5 -13 0 129.49 16.7
18 -5 0 99.79 17.1
-5 -13 0 86.39 18
6 12 0 316.77 34.9
-18 6 0 403.16 38.9
12 -18 0 389.36 35.2
-18 6 0 343.87 37.6
18 -6 0 363.86 36.7
-6 -12 0 394.26 37
-6 -12 0 338.67 38.1
-6 -12 0 340.77 35.5
-12 18 0 397.36 43.5
18 -6 0 363.86 36.6
7 11 0 142.99 19.2
-18 7 0 190.18 23.1
-18 7 0 177.08 23.3
11 -18 0 154.68 19.4
18 -7 0 196.58 21.6
-7 -11 0 129.69 20.4
-7 -11 0 222.38 25
-7 -11 0 150.88 20.5
18 -7 0 164.18 20.8
-18 8 0 404.76 40.1
10 -18 0 387.36 37.2
-18 8 0 399.96 39.4
8 10 0 360.76 37.3
18 -8 0 419.96 38.7
-8 -10 0 332.47 38.2
18 -8 0 417.46 38.9
-8 -10 0 421.16 40.8
-8 -10 0 374.36 38.8
9 -18 0 68.79 12.5
9 9 0 57.99 12.3
-18 9 0 82.39 14.8
18 -9 0 46.5 10.4
-9 -9 0 73.69 14.2
18 -9 0 72.69 12.9
-9 -9 0 70.29 15.1
-9 -9 0 86.49 16.6
10 8 0 361.56 38.9
8 -18 0 439.96 39.5
-18 10 0 413.76 40.7
18 -10 0 429.46 39.5
-10 -8 0 415.56 42.1
-10 -8 0 416.96 41.3
18 -10 0 400.66 39.5
-8 18 0 303.27 54.49
-10 -8 0 402.56 40.1
7 -18 0 189.08 22.5
-18 11 0 168.78 22.8
11 7 0 166.48 21.2
18 -11 0 171.68 21.5
18 -11 0 186.48 21.8
-7 18 0 211.38 26
-11 -7 0 166.78 23
-11 -7 0 181.98 25.1
-11 -7 0 189.18 22.9
6 -18 0 346.97 33
-18 12 0 350.86 36.7
6 -18 0 312.17 34.7
12 6 0 347.37 35.1
18 -12 0 357.06 34.9
-12 -6 0 370.26 37.7
18 -12 0 360.16 34.7
-6 18 0 330.17 36.7
-12 -6 0 352.06 36.1
-12 -6 0 363.76 37.1
-18 13 0 108.69 17.9
5 -18 0 100.49 13.8
13 5 0 85.09 15.6
5 -18 0 157.48 19.7
-5 18 0 107.19 18.3
18 -13 0 116.59 17.1
-13 -5 0 77.69 15.6
-13 -5 0 114.79 19
18 -13 0 114.19 16.1
4 -18 0 257.87 27.8
-18 14 0 257.57 28.1
14 4 0 246.48 27
4 -18 0 224.08 24
18 -14 0 235.18 25.5
-14 -4 0 237.68 28.3
-14 -4 0 228.78 27.6
18 -14 0 235.08 25.8
-4 18 0 192.08 27.7
3 -18 0 46.7 10.5
-18 15 0 51.69 12.4
3 -18 0 39.6 12.5
3 -18 0 31.4 8
15 3 0 55.09 12.2
18 -15 0 41.1 10
18 -15 0 28.7 9.2
-15 -3 0 41.8 11.4
-15 -3 0 33.6 11.8
-3 18 0 56.79 13.9
16 2 0 94.39 16.7
2 -18 0 84.69 12.6
-18 16 0 81.59 16.3
2 -18 0 74.29 15.2
2 -18 0 68.69 13.3
-2 18 0 61.79 15.7
18 -16 0 87.29 13.8
-16 -2 0 88.59 17.6
18 -16 0 73.89 13.5
-16 -2 0 100.89 17.4
1 -18 0 54.99 10.4
17 1 0 27.8 9.5
-18 17 0 46.1 12.4
1 -18 0 28 12.4
1 -18 0 39.5 10.6
18 -17 0 41.7 10.2
18 -17 0 56.49 10.8
-1 18 0 27.9 11.7
-17 -1 0 35.6 11.1
-17 -1 0 25.2 12.1
0 -18 0 72.89 13.7
0 -18 0 38.4 13.8
18 0 0 53.79 12.1
0 -18 0 68.89 12.1
-18 18 0 74.99 14.9
18 -18 0 78.69 14.1
-18 0 0 89.89 18.1
0 18 0 49.2 14.6
18 -18 0 63.89 11.8
18 -19 0 -0.6 5.7
1 18 0 5.8 9.2
18 -19 0 -0.2 6.3
-1 -18 0 1.9 7.2
-18 19 0 -1.4 8.7
19 -1 0 5.8 8.6
-1 -18 0 1.5 9.2
-1 -18 0 -1.1 5.4
17 -19 0 3.9 6.3
2 17 0 8.1 9.8
17 -19 0 12.5 7.2
-19 2 0 37.7 16.4
-2 -17 0 4.7 5.9
-2 -17 0 -0.6 7.1
19 -2 0 16.5 9.2
-2 -17 0 5 10
19 -2 0 11.8 8.8
-17 19 0 -9.6 7.5
16 -19 0 10.5 7.1
-19 3 0 6.8 8
-19 3 0 17.1 10.4
16 -19 0 7.3 6.3
-3 -16 0 21.4 9.1
-16 19 0 12.4 10.2
-3 -16 0 -6.2 10
-3 -16 0 6 6.6
19 -3 0 14.6 8.2
19 -3 0 22.2 9.3
15 -19 0 111.29 15.2
-19 4 0 105.89 19.8
15 -19 0 93.29 14.7
-19 4 0 101.19 19.6
-4 -15 0 103.59 16.6
-4 -15 0 126.29 20.5
-15 19 0 95.49 18.9
-4 -15 0 99.39 15.7
19 -4 0 92.99 17.1
19 -4 0 90.69 17.1
14 -19 0 26.7 7.2
14 -19 0 24.8 8
-19 5 0 9 9.8
-19 5 0 21.1 9.4
19 -5 0 33.3 10.9
-5 -14 0 9.4 10.7
-14 19 0 14.6 10.7
-5 -14 0 5.5 6.6
-5 -14 0 13.2 8.7
19 -5 0 13.5 8.9
13 -19 0 15.5 6.7
-19 6 0 -2.1 7
6 13 0 -3.1 4.8
-19 6 0 0.8 9.2
19 -6 0 6.6 5.8
-6 -13 0 -1.8 6.8
19 -6 0 -7 7
-13 19 0 5 9.4
-6 -13 0 5.4 9.7
-6 -13 0 7.8 8
7 12 0 19.8 8.3
-19 7 0 34.8 11.9
-19 7 0 46.2 11.7
12 -19 0 39.4 9.6
-7 -12 0 45.2 12.8
19 -7 0 22.7 9.7
-7 -12 0 36.1 12.6
-12 19 0 58.09 13.9
19 -7 0 49.5 10.5
-7 -12 0 42.4 11.9
-19 8 0 12.9 9.6
8 11 0 -2.6 5.4
11 -19 0 13 7.5
-19 8 0 3.6 6.9
19 -8 0 2.5 7.4
19 -8 0 7.6 6.1
-8 -11 0 11.4 11
-11 19 0 6.9 8.5
-8 -11 0 -0.9 6.8
-8 -11 0 2.2 6.1
9 10 0 20.1 7.7
-19 9 0 10.5 9.9
10 -19 0 57.59 10.8
-9 -10 0 36 9.5
19 -9 0 34.8 8.9
-9 -10 0 45.9 13.6
-10 19 0 36.5 12.2
19 -9 0 45.5 11.4
-9 -10 0 22.1 10.1
9 -19 0 37.5 9.9
10 9 0 27.6 8
-19 10 0 37.3 11.7
19 -10 0 32.9 8.3
-10 -9 0 22.3 9.2
19 -10 0 23.4 9.3
-9 19 0 15.2 10.8
-10 -9 0 27.9 12.5
-10 -9 0 56.99 13
11 8 0 10.6 6.1
-19 11 0 4.4 7.6
8 -19 0 12.2 8
-11 -8 0 -5.3 8.7
19 -11 0 10.2 6.5
-11 -8 0 6.6 8.5
19 -11 0 1.5 7.2
-11 -8 0 -1.7 6
-8 19 0 -1.7 8.2
7 -19 0 45.1 11.6
7 -19 0 44.7 8.5
-19 12 0 34.5 11.6
12 7 0 38.3 9.8
-7 19 0 17.8 11
19 -12 0 41.4 10.9
-12 -7 0 26.2 12.2
-12 -7 0 36.5 11.3
19 -12 0 62.69 12.5
-12 -7 0 40.5 10.4
6 -19 0 4.1 5.5
13 6 0 -4.1 5.2
6 -19 0 11.7 8.6
-19 13 0 4.1 8
19 -13 0 -3.9 5.6
-13 -6 0 3.3 7
-13 -6 0 -4.8 8.4
-13 -6 0 -12.7 6.8
19 -13 0 -4.2 5.9
-6 19 0 6.9 9.4
5 -19 0 6 6
-19 14 0 25.2 10.6
14 5 0 14.7 8.4
5 -19 0 19.8 10.4
-14 -5 0 17.6 8.9
-14 -5 0 25.6 10.5
19 -14 0 27.6 9.2
-5 19 0 13.9 10.7
19 -14 0 6.8 6.5
15 4 0 117.69 18
-19 15 0 107.29 18.5
4 -19 0 101.29 14
4 -19 0 84.69 16.9
-15 -4 0 87.89 17.4
19 -15 0 108.09 16.4
-4 19 0 81.49 17.9
-15 -4 0 96.49 18.5
19 -15 0 89.79 15.2
-19 16 0 19.9 10.4
3 -19 0 7.5 5.9
3 -19 0 26.6 11.3
3 -19 0 -1.3 7.8
16 3 0 14 8.1
19 -16 0 5.7 5.9
-16 -3 0 9.5 9
-3 19 0 21 11.9
-16 -3 0 23.3 10.7
19 -16 0 26.2 8.5
2 -19 0 7.8 6
17 2 0 9.2 8
2 -19 0 6.5 9.5
-19 17 0 -2.4 7.8
2 -19 0 9 7.1
-2 19 0 7.9 9.3
19 -17 0 13.1 7.3
-17 -2 0 14.4 9.9
-17 -2 0 0.7 10.4
19 -17 0 2.5 5.6
-19 18 0 20.1 10.2
18 1 0 -2.7 6.7
1 -19 0 -0.8 9.2
1 -19 0 1.4 5.1
1 -19 0 4.8 7.5
-18 -1 0 -11.8 4.9
-1 19 0 7.2 9.8
19 -18 0 -0.4 5.4
19 -18 0 3 5.9
0 -19 0 17.2 11.4
-19 19 0 12 10.7
0 -19 0 19.6 7.3
19 0 0 15.1 7.6
0 -19 0 12.2 8
19 -19 0 11 7.1
-19 0 0 27.7 11
19 -19 0 32.9 8.8
0 19 0 22.6 12
19 -20 0 24.9 8.1
1 19 0 23.6 12.2
19 -20 0 12.8 7.7
-1 -19 0 22.8 9.4
20 -1 0 11.5 7.6
-1 -19 0 10.4 8.4
-19 20 0 3.5 9.8
-1 -19 0 11.9 10.5
2 18 0 72.79 17.6
18 -20 0 122.69 16.3
18 -20 0 120.09 15.6
-2 -18 0 82.99 16
-2 -18 0 72.09 20.5
-2 -18 0 116.89 20.4
-18 20 0 109.69 20
20 -2 0 108.09 19.1
17 -20 0 49.1 11.5
17 -20 0 122.49 14.4
-3 -17 0 80.99 17.6
-17 20 0 65.19 16.2
-3 -17 0 83.29 15
20 -3 0 80.89 17.5
-3 -17 0 117.19 24.5
20 -3 0 80.69 15.9
-20 4 0 145.29 25.6
16 -20 0 172.18 21
16 -20 0 194.08 21.1
20 -4 0 178.58 23.9
-4 -16 0 194.78 26.1
-4 -16 0 201.38 23.9
-16 20 0 182.98 25.7
20 -4 0 183.98 24.8
-4 -16 0 199.98 24.1
15 -20 0 13.3 7.7
-20 5 0 32.6 12.5
15 -20 0 41.5 8.8
-20 5 0 14.7 10.6
-5 -15 0 17.6 8.1
-15 20 0 22.2 12.5
20 -5 0 36.2 10.6
-5 -15 0 28.7 13.6
-5 -15 0 29.9 10.6
20 -5 0 43.7 11.8
14 -20 0 275.77 25.4
-20 6 0 259.07 30.2
-20 6 0 211.48 28.6
6 14 0 211.28 25.5
-6 -14 0 227.98 30.4
-6 -14 0 225.28 26.2
20 -6 0 248.78 27.3
-6 -14 0 205.18 27.1
20 -6 0 217.08 27.3
-14 20 0 275.37 30.5
-20 7 0 75.19 16.3
-20 7 0 113.69 19.7
7 13 0 89.09 14.3
13 -20 0 120.29 15
-7 -13 0 103.89 15.7
20 -7 0 78.59 15.4
-7 -13 0 84.99 15.7
-7 -13 0 85.99 17.4
20 -7 0 100.19 16.8
-13 20 0 70.69 16.6
-20 8 0 261.57 31.9
-20 8 0 282.27 33.3
12 -20 0 311.37 29.7
8 12 0 288.97 30.1
-8 -12 0 264.37 33.4
20 -8 0 287.27 31.1
20 -8 0 300.87 31.4
-8 -12 0 290.17 32.3
-12 20 0 300.87 33
-8 -12 0 304.67 31.5
11 -20 0 122.49 17.4
-20 9 0 185.18 22.5
9 11 0 86.99 15.6
-9 -11 0 98.89 17.8
20 -9 0 103.79 17.4
-9 -11 0 139.89 18.9
-11 20 0 123.69 20.7
20 -9 0 176.18 19.6
-9 -11 0 120.09 20.2
-20 10 0 300.57 34.6
10 -20 0 318.27 32.1
10 10 0 297.97 32.2
-10 -10 0 297.47 34.1
20 -10 0 326.07 33.2
-10 -10 0 331.57 34
20 -10 0 333.37 33.3
-10 20 0 322.77 36
-10 -10 0 346.77 36.4
11 9 0 100.19 18.5
9 -20 0 180.18 20.5
-20 11 0 154.18 21.4
-9 20 0 138.49 22.5
20 -11 0 182.58 20.2
-11 -9 0 108.39 19
-11 -9 0 188.28 23.5
-11 -9 0 104.09 19.6
20 -11 0 143.89 19.7
12 8 0 268.57 30
8 -20 0 265.47 30.3
-20 12 0 306.17 32.3
-12 -8 0 289.27 32.1
20 -12 0 297.27 30.7
-8 20 0 285.97 33.3
20 -12 0 311.47 30.7
-12 -8 0 289.47 31.7
-12 -8 0 249.38 33.4
7 -20 0 77.49 11.6
13 7 0 83.79 15.5
7 -20 0 84.89 15
20 -13 0 80.49 14.6
20 -13 0 82.89 14.6
-13 -7 0 58.79 15.5
-7 20 0 70.49 16.2
-13 -7 0 74.49 15.6
-13 -7 0 88.09 15.1
6 -20 0 194.68 22.8
6 -20 0 209.78 25.8
-20 14 0 253.67 28.3
14 6 0 208.28 25.4
-14 -6 0 228.68 29.1
-6 20 0 216.08 27.7
-14 -6 0 245.18 27.4
20 -14 0 256.27 26.1
20 -14 0 188.88 24.6
-14 -6 0 218.88 27
5 -20 0 15.6 6.9
15 5 0 19.2 9.1
5 -20 0 9.9 10
-20 15 0 23.7 10.7
20 -15 0 17.5 8.4
-5 20 0 9.6 10.8
-15 -5 0 17.2 9.2
20 -15 0 35.6 9.5
-15 -5 0 17.8 9.8
-20 16 0 155.58 23.6
16 4 0 188.48 23.2
4 -20 0 206.88 20.1
4 -20 0 157.18 23.7
-16 -4 0 132.99 21.8
-16 -4 0 193.58 25.5
20 -16 0 161.88 21.1
20 -16 0 161.58 22
-4 20 0 188.48 26
-20 17 0 94.89 18
17 3 0 63.79 14.9
3 -20 0 104.69 15.2
3 -20 0 85.49 16.6
3 -20 0 79.69 12.8
-17 -3 0 64.99 14
20 -17 0 80.59 13.9
-3 20 0 59.79 16
-17 -3 0 79.19 18.6
20 -17 0 99.39 15.9
2 -20 0 93.09 14.4
-20 18 0 93.39 18
18 2 0 92.59 17
2 -20 0 72.39 14.2
2 -20 0 93.39 18.7
20 -18 0 108.19 15.6
-2 20 0 70.99 16.2
20 -18 0 107.39 17.4
-18 -2 0 90.59 16.8
-20 19 0 38.8 12.2
1 -20 0 8.9 6.7
1 -20 0 5.1 7.7
19 1 0 -2.1 7
1 -20 0 17.9 11.8
20 -19 0 12.2 7
20 -19 0 35.1 9.6
-1 20 0 8.4 10
-20 20 0 47.6 14.9
0 -20 0 46 12.8
0 -20 0 76.19 14.4
20 0 0 50.79 11.8
0 -20 0 51.09 14.3
0 20 0 69.99 16.3
20 -20 0 80.29 13.8
20 -20 0 67.89 12.3
1 20 0 1.3 10.5
20 -21 0 8.3 6.8
20 -21 0 12 7.2
-1 -20 0 3.3 11.1
-1 -20 0 17.8 7.9
-1 -20 0 21.5 9.4
-20 21 0 30.5 12
21 -1 0 6.7 7.9
19 -21 0 -2.4 5.9
19 -21 0 4.9 6.7
-2 -19 0 3.6 5.6
-2 -19 0 8.6 7.6
-19 21 0 8.1 10.9
21 -2 0 -5.9 6
-2 -19 0 7 10.8
18 -21 0 16.1 7.3
18 -21 0 6.8 6.8
-18 21 0 18.8 10.9
21 -3 0 14.5 7.9
-3 -18 0 8.2 7.8
-3 -18 0 7.7 6.9
-3 -18 0 4.7 11.2
17 -21 0 0.3 5.3
-21 4 0 -5.8 12.1
17 -21 0 -4.4 4.9
-17 21 0 5.1 9.7
21 -4 0 0.1 6.2
-4 -17 0 2.4 6.4
-4 -17 0 5.6 7.5
-4 -17 0 6.7 10.3
21 -4 0 -3.6 7
16 -21 0 11.7 6.6
16 -21 0 19.7 7.6
-21 5 0 20.7 11.8
-5 -16 0 5.3 11.9
-5 -16 0 9.2 8.5
21 -5 0 26.3 10.4
21 -5 0 8.8 8.2
-16 21 0 16 10.8
-5 -16 0 1.1 7.1
15 -21 0 34 7.8
-21 6 0 4.3 10.3
-21 6 0 17.3 10.3
15 -21 0 27.7 8.1
21 -6 0 18.9 10.5
21 -6 0 25.9 12.6
-6 -15 0 7.1 8.4
-6 -15 0 27.4 12.7
-15 21 0 33.6 13.3
-6 -15 0 23.8 8.7
7 14 0 38.1 10.5
-21 7 0 59.69 15.2
-21 7 0 44 13.5
14 -21 0 37 9.9
-7 -14 0 19.9 13.3
21 -7 0 18.8 9.6
-7 -14 0 39.1 11.2
-7 -14 0 50.79 12.6
21 -7 0 41.3 12
-14 21 0 39.5 14.2
-21 8 0 -18 7.5
13 -21 0 6 6.8
8 13 0 6.2 6.1
-8 -13 0 -7 6.1
21 -8 0 5.4 7.9
-13 21 0 9.6 9.7
-8 -13 0 -10.1 7
21 -8 0 7.2 7.8
-8 -13 0 16.4 11.8
-21 9 0 39.7 13.5
12 -21 0 24.7 8.9
9 12 0 20.4 9.4
-9 -12 0 36.5 12.2
-12 21 0 41.5 14.2
-9 -12 0 17.4 12.9
21 -9 0 62.59 12.9
-9 -12 0 33.4 9.7
21 -9 0 37.8 10.8
10 11 0 -6.2 5.2
-21 10 0 19.5 10.7
11 -21 0 -7.8 6
-11 21 0 -2.4 9.2
21 -10 0 6.2 6.2
-10 -11 0 -7.7 6.1
-10 -11 0 -6.8 7.2
-10 -11 0 11.9 11.5
21 -10 0 -6.2 6.4
11 10 0 6.7 6.1
-21 11 0 -4.1 7.2
10 -21 0 -12.8 6
-11 -10 0 15.5 11.3
21 -11 0 3.2 5.7
21 -11 0 6.4 8
-10 21 0 -2.1 8.9
-11 -10 0 4.8 8.1
-11 -10 0 -1.3 6.9
9 -21 0 32 10.6
-21 12 0 20.7 10.7
12 9 0 40.4 11.5
-12 -9 0 28.2 10.4
-12 -9 0 52.59 12.1
21 -12 0 53.29 11.9
21 -12 0 36.4 11.1
-12 -9 0 24 13.3
-9 21 0 25.8 12.4
8 -21 0 2.6 7.7
8 -21 0 -0.6 5.1
-21 13 0 5.6 8.6
13 8 0 0 5.5
-13 -8 0 -2.7 9.1
21 -13 0 -1.6 7
-8 21 0 10.3 10.1
-13 -8 0 -2.2 6.5
21 -13 0 -2.3 5.8
-13 -8 0 -16.5 5.5
7 -21 0 13.2 6.9
-21 14 0 22.9 11.7
7 -21 0 44.9 12.1
14 7 0 38.4 11
-14 -7 0 35.4 14
21 -14 0 39.1 10.5
21 -14 0 47.6 11.2
-7 21 0 37.8 13
-14 -7 0 35 11.3
-14 -7 0 21.7 10.5
15 6 0 24.8 9.3
6 -21 0 3 6.1
-21 15 0 10.6 9.9
6 -21 0 18.4 10.1
-15 -6 0 29.7 21.7
-15 -6 0 29.5 11.5
-15 -6 0 21.4 11.2
21 -15 0 13.8 8.2
21 -15 0 30.9 9.6
-6 21 0 18 11.7
-21 16 0 9.8 9.7
5 -21 0 29.1 13.6
5 -21 0 20.2 6.8
16 5 0 19.6 9.7
5 -21 0 10.8 9.9
21 -16 0 16.9 8.7
-16 -5 0 2.2 8.1
21 -16 0 10 7.5
-5 21 0 -2 9.6
-16 -5 0 18.6 9.9
4 -21 0 0.8 5.1
17 4 0 -1 7.2
-21 17 0 9 9.3
4 -21 0 8.8 9.7
4 -21 0 10.5 7.4
21 -17 0 1.3 5.7
-4 21 0 13.3 12.2
-17 -4 0 13.3 8.2
21 -17 0 7.8 7.5
-17 -4 0 7.7 10.6
3 -21 0 8.9 6
3 -21 0 11 8.8
18 3 0 0.3 7.4
-21 18 0 7.4 9.6
3 -21 0 9.1 10.7
21 -18 0 6.9 6.6
21 -18 0 13.9 8.1
-3 21 0 -4.4 9.1
2 -21 0 22.5 9.5
-21 19 0 10.2 9.6
2 -21 0 15.3 10.4
19 2 0 8.4 8
2 -21 0 14.1 6.8
-2 21 0 13 10.5
21 -19 0 5.5 6.7
21 -19 0 12.2 7.4
20 1 0 10.2 8.8
-21 20 0 2.5 9.5
1 -21 0 20.8 9.6
1 -21 0 17.2 8.3
1 -21 0 14.9 11.6
21 -20 0 22.1 8.1
-1 21 0 12.3 11.1
-20 -1 0 28.6 11.7
21 -20 0 16.7 7.7
-21 21 0 5 10.7
21 0 0 10 8.3
0 -21 0 9.9 9
0 -21 0 32.4 12.6
0 -21 0 10.5 7.1
21 -21 0 5.4 6.2
21 -21 0 17.4 7.6
-21 0 0 13.1 8.7
0 21 0 25.2 13.6
-22 1 0 54.59 15.3
21 -22 0 34 9.6
1 21 0 45.6 14.7
-22 1 0 18.4 16.9
21 -22 0 47.1 10.6
22 -1 0 55.79 14.3
-1 -21 0 34.6 12.5
-1 -21 0 73.79 12.2
-21 22 0 68.89 17.6
-1 -21 0 60.09 16.6
20 -22 0 97.49 14.9
20 -22 0 93.59 16.5
-2 -20 0 74.99 18.7
22 -2 0 82.39 17.8
-2 -20 0 112.19 17.9
-20 22 0 80.79 19.3
-2 -20 0 92.49 15.2
19 -22 0 42.5 10.2
19 -22 0 27.5 8.1
-3 -19 0 57.19 15.7
-19 22 0 20.5 13.4
22 -3 0 38.1 12.7
-3 -19 0 -0.9 8.6
-3 -19 0 22.5 9.4
18 -22 0 147.49 18
18 -22 0 126.19 18.8
-4 -18 0 146.89 19.5
-4 -18 0 99.29 21.3
-4 -18 0 153.68 21.2
22 -4 0 138.29 21.6
-18 22 0 162.88 25.4
22 -4 0 165.48 24.9
17 -22 0 79.79 13
17 -22 0 82.59 13.9
-22 5 0 85.69 18.7
-5 -17 0 89.39 14.6
22 -5 0 55.29 14.1
-5 -17 0 55.99 16.6
22 -5 0 88.19 27.8
-17 22 0 125.79 20.7
-5 -17 0 56.39 14.8
-22 6 0 113.79 22.8
-22 6 0 140.59 24.2
16 -22 0 167.28 18.8
16 -22 0 157.08 18.8
-6 -16 0 194.78 26.7
-6 -16 0 143.39 20.6
-6 -16 0 152.18 21.9
22 -6 0 163.98 22.5
22 -6 0 116.99 20.3
-16 22 0 153.18 24.2
-22 7 0 36.2 13.6
15 -22 0 56.29 10.3
15 -22 0 42.5 9.5
7 15 0 37.1 10.2
-22 7 0 42.9 13.7
22 -7 0 55.19 12.2
22 -7 0 52.29 13.2
-7 -15 0 57.29 11.8
-7 -15 0 52.89 13.2
-7 -15 0 33.5 14.9
-15 22 0 61.29 16.6
8 14 0 251.77 28
-22 8 0 244.48 31.9
14 -22 0 236.58 26.9
22 -8 0 299.87 30.2
-14 22 0 251.17 32.2
-8 -14 0 243.38 29
-8 -14 0 285.17 31
-8 -14 0 253.67 33.2
22 -8 0 261.87 29.8
-22 9 0 177.28 25.9
13 -22 0 158.18 20.7
22 -9 0 177.68 22.8
-9 -13 0 232.88 28.2
-9 -13 0 166.58 23.4
22 -9 0 215.18 23.9
-9 -13 0 140.59 22.7
-13 22 0 134.39 24.7
-22 10 0 288.87 33.3
12 -22 0 352.76 29.8
10 12 0 221.48 29.1
-10 -12 0 232.38 30
-12 22 0 216.28 32.7
-10 -12 0 266.17 34.9
-10 -12 0 279.77 31.9
22 -10 0 315.47 30.9
-22 11 0 194.68 26.7
11 11 0 173.98 23.2
11 -22 0 232.28 23.7
-11 -11 0 219.18 28.7
22 -11 0 225.38 25
22 -11 0 191.98 26.6
-11 22 0 162.78 27
-11 -11 0 184.98 25
-11 -11 0 199.98 25.7
10 -22 0 283.27 29.7
-22 12 0 295.77 32.9
12 10 0 225.28 29.1
-12 -10 0 268.87 31.2
22 -12 0 296.27 30.3
-10 22 0 226.58 32.9
-12 -10 0 331.57 36.2
22 -12 0 286.07 30.6
-12 -10 0 252.97 31.4
9 -22 0 187.68 21.1
9 -22 0 109.19 17.4
-22 13 0 125.69 22.6
13 9 0 136.19 19.8
22 -13 0 192.08 21.6
-13 -9 0 152.38 21.5
-13 -9 0 148.39 23.7
-9 22 0 95.29 21.3
22 -13 0 161.28 20.9
14 8 0 199.48 26.7
8 -22 0 222.78 24.6
-22 14 0 224.38 29.4
8 -22 0 277.37 28.4
-14 -8 0 232.78 28.9
22 -14 0 281.97 27.7
22 -14 0 231.08 27.4
-14 -8 0 218.88 31.6
-14 -8 0 235.28 28.8
-8 22 0 256.87 30.9
7 -22 0 64.29 14.2
15 7 0 41.8 15.9
-22 15 0 61.29 14.6
7 -22 0 46.1 9.3
22 -15 0 35.7 10.3
22 -15 0 37.8 10.5
-15 -7 0 48.2 13.4
-15 -7 0 48.4 16
-15 -7 0 24.9 11.5
-7 22 0 36.8 14.7
6 -22 0 161.98 17.4
-22 16 0 156.18 22.4
16 6 0 100.19 18.3
6 -22 0 148.19 21.5
6 -22 0 140.69 21.6
-16 -6 0 122.29 22.4
-16 -6 0 139.19 21.4
22 -16 0 144.89 19.7
22 -16 0 146.79 20.4
-6 22 0 103.59 21.5
17 5 0 57.59 14.9
-22 17 0 91.89 18.4
5 -22 0 64.29 12
5 -22 0 87.69 16.9
5 -22 0 80.89 13.9
22 -17 0 88.19 15.8
-5 22 0 107.59 20.8
22 -17 0 74.79 13.9
4 -22 0 157.08 18.3
18 4 0 114.79 21.2
4 -22 0 159.58 20.2
4 -22 0 134.19 22.3
-22 18 0 180.68 23.5
22 -18 0 125.29 20.1
-4 22 0 174.58 24.3
22 -18 0 146.19 19.7
-18 -4 0 162.78 33.2
19 3 0 40.8 11.3
3 -22 0 20.1 12.3
-22 19 0 23.3 12.4
3 -22 0 23 7.7
3 -22 0 38.2 10.7
-19 -3 0 30.8 16.6
-3 22 0 40.6 14
22 -19 0 18.7 8.6
-19 -3 0 16 14.7
22 -19 0 37 9.9
-22 20 0 100.99 19.5
2 -22 0 83.19 18
20 2 0 65.59 16
2 -22 0 125.99 17.8
2 -22 0 104.39 19.8
-20 -2 0 117.19 21.4
-20 -2 0 93.59 23.3
22 -20 0 100.39 15.4
22 -20 0 77.39 15
-2 22 0 93.59 19.7
1 -22 0 50.99 12.3
21 1 0 47.7 12.8
1 -22 0 24.6 13.9
-22 21 0 30.1 13.8
1 -22 0 48.8 10.5
22 -21 0 37.5 11
-21 -1 0 43.9 13.3
-21 -1 0 50.19 14.9
22 -21 0 76.79 12.5
-22 22 0 50.79 19.7
0 -22 0 78.09 13.4
0 -22 0 87.49 18
0 -22 0 75.79 14.6
22 0 0 39.9 12
0 22 0 42.9 16.7
22 -22 0 47.9 10.7
22 -22 0 74.89 13.8
-22 0 0 68.59 16.5
-22 0 0 17 14.6
22 -23 0 23.7 8.8
22 -23 0 52.79 12.1
-23 1 0 17.4 13.4
-23 1 0 33.9 19.7
-1 -22 0 33.5 9.6
-1 -22 0 15.2 12.8
23 -1 0 18.8 10.4
-22 23 0 74.39 19.1
-1 -22 0 27.1 10.9
21 -23 0 3 6.6
21 -23 0 10.1 7.1
-23 2 0 9.7 10.4
-23 2 0 1.7 9.8
23 -2 0 2.1 7.7
-21 23 0 5.1 10.6
-2 -21 0 6.7 11.1
-2 -21 0 11.3 7.3
-2 -21 0 -10.2 6.9
-23 3 0 4.2 10
-23 3 0 25.1 11.9
20 -23 0 8.6 7.1
20 -23 0 14.9 7.3
-3 -20 0 15.3 10.1
-3 -20 0 9.3 7.2
23 -3 0 25.5 10.6
-3 -20 0 0.4 11.6
-20 23 0 -9.5 10.4
19 -23 0 7.9 6.8
-23 4 0 13 9.4
19 -23 0 8.2 7.3
-4 -19 0 1.9 9.1
23 -4 0 8.9 7.4
-19 23 0 11.3 11.3
-4 -19 0 -2.4 10.3
-4 -19 0 -7.1 5.8
18 -23 0 22.8 8.7
-23 5 0 9.6 11.8
18 -23 0 27.7 8
23 -5 0 26.1 11.1
-5 -18 0 21.7 12.9
-5 -18 0 16.1 10.4
-5 -18 0 20.4 8.9
-18 23 0 -1.3 10.2
23 -5 0 13.3 8.1
-23 6 0 1.2 8.6
17 -23 0 -5.4 4.8
17 -23 0 6.8 6.6
-23 6 0 -5.1 12.4
-17 23 0 1.6 9.4
-6 -17 0 9.8 7.9
23 -6 0 -6 7.6
-6 -17 0 7 11.6
23 -6 0 -1.3 6.3
-6 -17 0 -9.8 7.5
-23 7 0 8.7 11.5
16 -23 0 15.2 7.2
16 -23 0 13.4 7.1
-23 7 0 7.5 9.9
-7 -16 0 23.6 13.9
23 -7 0 31.1 10.4
-16 23 0 9.5 11.9
-7 -16 0 23.5 9.1
-7 -16 0 2.5 9.4
8 15 0 1.1 6.5
15 -23 0 16.6 7.3
-23 8 0 0.5 9.8
23 -8 0 1.3 7
-8 -15 0 1.6 7.6
23 -8 0 9.2 9.7
-15 23 0 20.6 12.4
-8 -15 0 9.7 9.3
-8 -15 0 18.1 13.1
-23 9 0 30 12.9
9 14 0 32.9 10.9
14 -23 0 28.1 9.1
-9 -14 0 37.4 12.5
-9 -14 0 21.6 18.4
23 -9 0 29.3 11
-14 23 0 37.2 13.7
-9 -14 0 32.4 10.4
23 -9 0 17.4 8.9
-23 10 0 1 10.3
10 13 0 -4.7 5.3
13 -23 0 -7.2 6.1
23 -10 0 11.8 8.3
-10 -13 0 2.7 6.6
23 -10 0 -3.1 8.1
-13 23 0 2.2 10.3
-10 -13 0 11.4 9.1
12 -23 0 6.4 7.2
-23 11 0 26 12.2
11 12 0 11.4 7.6
23 -11 0 3 6.7
-11 -12 0 17.8 14.3
23 -11 0 13.4 8.4
-11 -12 0 12.1 8.6
-11 -12 0 23.3 10.4
-12 23 0 30.3 13
12 11 0 3.8 6.6
-23 12 0 -0.9 9
11 -23 0 -2.7 6.6
23 -12 0 17.7 8.6
23 -12 0 12.7 7.3
-11 23 0 17.8 11.6
-12 -11 0 19.9 9
-12 -11 0 28.5 10.2
-12 -11 0 4.9 12
-23 13 0 12 10.2
13 10 0 -13.9 4.9
10 -23 0 4.7 5.3
10 -23 0 5.9 7.9
-13 -10 0 5.5 8
-10 23 0 -6.6 8.9
23 -13 0 -4.1 5.6
23 -13 0 0.4 7
-13 -10 0 -1.3 11.2
9 -23 0 34.7 7.4
14 9 0 17.4 10.8
-23 14 0 38.8 14.2
9 -23 0 2.4 8.6
-14 -9 0 26 12.9
23 -14 0 18.6 9.6
23 -14 0 41.5 11
-9 23 0 17.4 11.6
-14 -9 0 15.7 8.9
15 8 0 21.8 9.4
-23 15 0 4.7 9.7
8 -23 0 6.4 5.7
8 -23 0 12.1 9.3
-15 -8 0 2.9 6.9
-8 23 0 5.9 11
23 -15 0 11.1 8.9
-15 -8 0 8.2 11.9
23 -15 0 -6.4 6.4
16 7 0 21.2 9.9
7 -23 0 2.7 7.5
7 -23 0 15.7 6.6
-23 16 0 -3.8 8.2
7 -23 0 6.2 9.2
23 -16 0 11.8 13.4
-7 23 0 19.1 12
-16 -7 0 2.2 11.3
23 -16 0 19.8 9.6
-23 17 0 11.3 8.6
6 -23 0 4.5 5.4
6 -23 0 -5.9 6.4
17 6 0 -5.1 5.8
6 -23 0 -3.7 8.9
-6 23 0 -17.4 8.7
-17 -6 0 3.2 12.2
23 -17 0 -2 6.6
-23 18 0 3.1 10.4
5 -23 0 16.6 7.1
18 5 0 23.1 9.7
5 -23 0 9 10.2
5 -23 0 32.9 9.8
23 -18 0 8.6 12.9
23 -18 0 31.1 9.6
-5 23 0 -11.2 9.4
-18 -5 0 39.4 12.6
-18 -5 0 35.2 17.9
4 -23 0 15.6 8.9
19 4 0 21.8 9.7
-23 19 0 -1.1 8.9
4 -23 0 21.3 12.1
4 -23 0 9.9 6.2
-19 -4 0 23 10.1
-19 -4 0 2.6 7.1
23 -19 0 1.5 10.2
23 -19 0 0.2 7.2
-4 23 0 14.5 12.1
20 3 0 15.7 10.3
-23 20 0 -0.7 8.7
3 -23 0 3.9 8.2
3 -23 0 7.6 11.9
3 -23 0 13 11.1
-20 -3 0 -7.4 8.7
23 -20 0 8.1 7.6
23 -20 0 46.8 17.6
-20 -3 0 7.1 8.3
2 -23 0 -5.8 5
2 -23 0 -3 7.8
2 -23 0 9.3 11.1
21 2 0 3.5 7.7
23 -21 0 4.6 6.8
-21 -2 0 11.5 9.6
-21 -2 0 -6.5 8.4
23 -21 0 -3.4 9.6
-2 23 0 9.8 9.6
1 -23 0 40.2 15.1
22 1 0 11.7 8.8
1 -23 0 40.3 9.2
-23 22 0 28.7 13.5
1 -23 0 13.2 9.6
23 -22 0 19.2 8.7
-22 -1 0 37.7 15
-1 23 0 25.1 13.7
-22 -1 0 14.9 14.5
-23 23 0 34 14.8
0 -23 0 31.9 14.9
0 -23 0 35.6 9.7
23 0 0 19.7 10.5
0 -23 0 30.9 11.7
23 -23 0 25.1 8.9
23 -23 0 26.7 15.6
0 23 0 12 12.4
23 -24 0 30.6 12.2
23 -24 0 27.5 9.3
24 -1 0 18.7 11.1
-1 -23 0 57.29 11.6
-23 24 0 34.4 14.2
-1 -23 0 40.6 11.9
-1 -23 0 60.19 23.3
22 -24 0 57.89 13.4
22 -24 0 87.19 13.4
-2 -22 0 125.39 17
-2 -22 0 71.89 15.3
-2 -22 0 65.59 21.1
-22 24 0 34.7 16.8
24 -2 0 46 14.3
21 -24 0 19.7 8.2
21 -24 0 37 9
-3 -21 0 40.1 10.6
-3 -21 0 4.2 15.3
-3 -21 0 24.5 10.7
-21 24 0 17.6 13.2
24 -3 0 16.1 8.7
-24 4 0 17.2 13.5
20 -24 0 58.89 10.8
20 -24 0 40.1 11.4
-24 4 0 62.99 16.9
-4 -20 0 77.59 19.9
-4 -20 0 72.59 14.6
-20 24 0 49.9 26.1
24 -4 0 30.4 11.3
-4 -20 0 71.29 13.9
19 -24 0 11.1 6.8
-24 5 0 12.5 10.4
-24 5 0 -0.3 10.4
19 -24 0 18.5 7.6
-5 -19 0 7.7 13.3
24 -5 0 1.7 7.8
-5 -19 0 1.4 7.2
-19 24 0 18.2 12
-5 -19 0 11.3 8.3
-24 6 0 50.09 16.7
18 -24 0 59.59 11.2
-24 6 0 70.59 18.2
18 -24 0 73.89 12.8
-6 -18 0 80.99 20.1
24 -6 0 44.6 13.6
-18 24 0 49.7 16.1
24 -6 0 24.8 11.5
-6 -18 0 74.99 14.2
-6 -18 0 43.8 12.6
17 -24 0 31.2 8.4
-24 7 0 35.5 12.6
-24 7 0 41.4 13.9
17 -24 0 11.4 7.6
-17 24 0 15.9 14.4
-7 -17 0 32.3 11.4
24 -7 0 42.5 11.9
-7 -17 0 41.3 10.8
-7 -17 0 11.9 13.5
24 -7 0 20.6 9.4
-24 8 0 49.5 16
16 -24 0 69.39 11.8
16 -24 0 52.89 10.5
-16 24 0 54.09 15.7
24 -8 0 53.99 13.3
24 -8 0 47.1 13.6
-8 -16 0 36.8 15
-8 -16 0 47.8 12.2
9 15 0 2.1 6.6
15 -24 0 15.4 7.5
-24 9 0 25 13.2
-9 -15 0 6.3 12
24 -9 0 33.8 18.4
-15 24 0 14.6 11.7
-9 -15 0 22.4 9.6
10 14 0 68.09 14.3
14 -24 0 114.49 15.9
-10 -14 0 106.19 18
-14 24 0 112.39 21
-10 -14 0 80.29 19.7
24 -10 0 94.79 18.1
24 -10 0 90.69 15.8
-24 11 0 77.89 24.1
11 13 0 40.6 11.2
13 -24 0 70.79 12.6
24 -11 0 51.39 13
-11 -13 0 44.4 13.3
-11 -13 0 89.89 20.5
24 -11 0 50.19 12.6
-13 24 0 64.09 16.7
-24 12 0 118.79 24.2
12 -24 0 176.88 20
-12 -12 0 144.19 25.2
-12 -12 0 135.89 22.6
-12 24 0 128.29 23.9
24 -12 0 147.99 20.8
11 -24 0 40.9 11.5
-24 13 0 56.49 16.1
13 11 0 42.3 12.4
-11 24 0 85.89 17.4
24 -13 0 57.49 12.8
24 -13 0 56.79 12.8
-13 -11 0 80.29 18.6
-13 -11 0 60.69 13.4
-24 14 0 93.89 19
14 10 0 78.19 14.1
10 -24 0 91.69 13.1
10 -24 0 99.59 15.8
-14 -10 0 65.19 18.2
-10 24 0 70.19 18
-14 -10 0 82.49 23.6
24 -14 0 82.79 15.2
24 -14 0 63.89 14.2
9 -24 0 8.9 6.2
9 -24 0 46.2 12.3
-24 15 0 32 12.9
15 9 0 5.6 7.3
24 -15 0 9.9 8.2
24 -15 0 21.4 9
-9 24 0 19.5 11.9
-15 -9 0 29 14
-24 16 0 42.7 14.9
8 -24 0 38.3 10.7
8 -24 0 57.39 10.1
8 -24 0 50.59 13.1
16 8 0 32.8 10.4
-8 24 0 25.6 12.7
24 -16 0 61.89 13.9
24 -16 0 49.99 12.5
-16 -8 0 49 15.6
-16 -8 0 33.7 15.1
-24 17 0 26.4 14.7
17 7 0 27.4 9.3
7 -24 0 14.9 10.6
7 -24 0 29.7 8.6
7 -24 0 23.7 7.6
24 -17 0 27.3 10.1
24 -17 0 16.2 8.5
-17 -7 0 37 13.7
-7 24 0 29 12.8
-17 -7 0 -1.4 12
6 -24 0 79.89 13.7
6 -24 0 75.69 16.6
18 6 0 61.39 14.5
6 -24 0 67.09 11.2
-18 -6 0 56.69 15.9
-6 24 0 80.59 22.1
-18 -6 0 50.49 13.5
-18 -6 0 32.7 16.2
24 -18 0 50.79 13.2
24 -18 0 75.09 13.8
5 -24 0 5 10.4
5 -24 0 15.5 8.9
5 -24 0 6.4 5.9
19 5 0 -5.4 6.1
-24 19 0 6.8 13.8
-19 -5 0 11 11
-19 -5 0 9.5 9.6
-5 24 0 12.5 14.7
24 -19 0 8.1 7.7
24 -19 0 6 7.6
4 -24 0 56.99 13.5
20 4 0 71.99 16
4 -24 0 67.49 16.8
-24 20 0 92.59 19.3
24 -20 0 68.49 13.5
-20 -4 0 55.49 15.7
-4 24 0 56.09 16.6
-20 -4 0 85.79 20
24 -20 0 59.79 14.3
3 -24 0 18.8 10.7
3 -24 0 43 14.2
3 -24 0 15.9 7.6
21 3 0 16.5 9.3
-24 21 0 17.4 11.4
-21 -3 0 21.9 10.4
-3 24 0 5.4 12.1
24 -21 0 27.9 11.3
24 -21 0 36.2 10.5
2 -24 0 88.79 14
2 -24 0 58.09 17
-24 22 0 55.09 16.7
2 -24 0 89.99 16.4
22 2 0 49.5 13
24 -22 0 73.89 15.8
24 -22 0 88.29 14.9
-2 24 0 94.99 22.3
1 -24 0 39.3 12.1
23 1 0 38.6 12.3
-24 23 0 20.4 13.2
1 -24 0 20 13.8
1 -24 0 30 9.5
24 -23 0 23.4 9.2
24 -23 0 21.8 9.3
0 -24 0 21.2 10.5
24 0 0 40.4 12.5
0 -24 0 54.89 11.7
-24 24 0 3.1 14.8
24 -24 0 19.5 8.9
24 -24 0 49.6 10.9
24 -25 0 34.3 9.8
24 -25 0 30.9 9.8
-1 -24 0 23.9 10
-1 -24 0 -1.5 12.9
25 -1 0 1.2 8.1
23 -25 0 -11.5 5.7
23 -25 0 3.2 6.9
25 -2 0 6.4 9.2
-23 25 0 13.5 14.7
-2 -23 0 3.6 7.6
-2 -23 0 12.6 12.5
22 -25 0 24.1 8.2
22 -25 0 35.4 9.8
25 -3 0 5.3 8.9
-3 -22 0 21.5 9
-22 25 0 7.4 11.6
-3 -22 0 -7.9 11.4
21 -25 0 -0.3 6.5
21 -25 0 -0.1 6.2
-21 25 0 12.3 13.8
25 -4 0 -8.4 6.5
-4 -21 0 2 11.6
-4 -21 0 -0.7 6.8
20 -25 0 16.7 8.1
20 -25 0 2.7 6.6
25 -5 0 -3.3 6
-5 -20 0 38.9 10.9
-20 25 0 11.5 11.8
-5 -20 0 14.2 13.5
-25 6 0 2.9 12.6
19 -25 0 1.3 5.8
19 -25 0 12 7.4
-6 -19 0 -7.9 11.5
-6 -19 0 3.8 7.7
-19 25 0 -8.3 13.3
25 -6 0 0.2 8
18 -25 0 18.9 7.6
18 -25 0 3.8 6.5
-25 7 0 12.4 11.5
-18 25 0 7.9 16.3
-7 -18 0 13.6 8.6
25 -7 0 26.1 10.4
25 -7 0 14.1 9.3
-7 -18 0 18 14.7
17 -25 0 -3 5.7
-25 8 0 -4.2 10.7
17 -25 0 18.4 6.7
25 -8 0 -10.1 7.2
25 -8 0 -4.4 6.2
-17 25 0 1.7 11
-8 -17 0 -3.4 11.4
-8 -17 0 7.2 8
16 -25 0 11.7 6.9
16 -25 0 4 5.6
9 16 0 15.1 9.3
-25 9 0 8.3 9.7
-9 -16 0 9.7 13.6
-16 25 0 10.2 10.7
25 -9 0 3.8 7
-9 -16 0 -4 7
25 -9 0 9.3 8.9
10 15 0 -9.9 6
15 -25 0 8.6 6.6
-25 10 0 16.7 12.6
-10 -15 0 16.3 15.3
-10 -15 0 9.1 7.9
-15 25 0 9.3 10.8
-10 -15 0 2.4 11.9
25 -10 0 -5.8 5.5
25 -10 0 -7.6 6.9
-25 11 0 26.7 12.7
11 14 0 -3.7 6
14 -25 0 17.9 8.1
25 -11 0 -4.4 15.7
-11 -14 0 10.6 11.3
-14 25 0 -6 10
25 -11 0 2.9 7.1
-11 -14 0 -0.9 12.6
-11 -14 0 10.2 8.6
-25 12 0 12 11.1
12 13 0 5.5 8.6
13 -25 0 -5.1 6.1
-13 25 0 -10.9 9.5
-12 -13 0 -1.9 11.8
-12 -13 0 -6.8 5.5
25 -12 0 -5.2 8.1
25 -12 0 -5.5 6.4
13 12 0 7.6 7.7
-25 13 0 -0.4 11
12 -25 0 14.7 8.3
25 -13 0 17.1 8.9
25 -13 0 0.7 7.7
-13 -12 0 -4.8 11.9
-13 -12 0 10.5 10.5
-12 25 0 5.9 9.8
11 -25 0 1 7.7
11 -25 0 9.4 6.6
-25 14 0 -1.8 9.8
14 11 0 7.5 8.1
-14 -11 0 8.2 10.1
-11 25 0 6.7 11.4
25 -14 0 -0.2 6.6
25 -14 0 14.1 9.6
-14 -11 0 7.9 13
-25 15 0 -3.4 9.3
10 -25 0 -3.2 5.4
15 10 0 15.1 8.4
10 -25 0 8.8 8.7
-15 -10 0 -2.8 7.1
-15 -10 0 9 10.1
-10 25 0 4 10.7
-15 -10 0 12.5 13.2
25 -15 0 0.3 7.8
25 -15 0 5.9 7.5
9 -25 0 -7.5 6.2
9 -25 0 -2.9 8.2
9 -25 0 0.5 5.4
-25 16 0 0.3 9.1
16 9 0 23.5 8.5
-9 25 0 3.7 14.1
-16 -9 0 6.7 9.3
25 -16 0 9 7.7
-16 -9 0 30.4 13.8
-16 -9 0 11 11.9
25 -16 0 7.8 7.7
8 -25 0 3.2 9.2
8 -25 0 6.9 5.9
8 -25 0 -0.8 7.2
-25 17 0 8.8 9.9
17 8 0 -5.2 5.5
25 -17 0 2.3 6.7
-17 -8 0 17.9 9.8
-8 25 0 -11.4 13.4
-17 -8 0 -19 9.3
25 -17 0 -1.9 6.7
-17 -8 0 -7.6 11.1
7 -25 0 16.3 6.7
7 -25 0 9.2 8.7
7 -25 0 10.5 9.9
-25 18 0 23.6 12.7
18 7 0 -6.6 7.1
-18 -7 0 12.4 11.7
25 -18 0 8.3 7.1
25 -18 0 14 9
-18 -7 0 10.9 9.1
-18 -7 0 -11.5 11.1
-7 25 0 21.4 13.3
6 -25 0 -2.4 8.3
6 -25 0 10.3 10.9
-25 19 0 0 8.8
6 -25 0 5.6 6.3
19 6 0 16.8 8.2
-19 -6 0 12.6 13.1
-6 25 0 15 11.4
-19 -6 0 4.6 9.4
25 -19 0 -1.8 6.9
25 -19 0 5.9 7.9
-19 -6 0 -15.6 9.2
5 -25 0 2.9 11.2
-25 20 0 10.6 12.6
5 -25 0 17 9.7
20 5 0 7.2 7.6
5 -25 0 7.6 8.6
-20 -5 0 12.8 10.7
-20 -5 0 13.5 13
-5 25 0 4.2 12.5
25 -20 0 -10.1 6.4
25 -20 0 0.5 7.7
21 4 0 -6.5 8
4 -25 0 -0.8 8.4
4 -25 0 2.9 6.1
-25 21 0 -0.7 9.5
4 -25 0 -10.9 9.7
25 -21 0 -9.2 6.7
25 -21 0 -0.7 7.4
-4 25 0 -3.6 10.7
3 -25 0 12.7 9.5
3 -25 0 19.1 7.7
-25 22 0 5.5 11.3
3 -25 0 38 15
22 3 0 -6.2 8.2
25 -22 0 23.6 10.4
25 -22 0 11.5 7.9
2 -25 0 3.4 10.5
2 -25 0 4.6 7.3
2 -25 0 9.3 11.9
23 2 0 0.1 8.4
25 -23 0 9.8 8.4
25 -23 0 5.7 7.1
1 -25 0 12.5 8.5
24 1 0 32.6 12.6
1 -25 0 20.7 11.4
25 -24 0 16.4 9.1
25 -24 0 22.7 11.1
0 -25 0 23.6 14.4
25 0 0 -6.2 10.6
0 -25 0 10.7 8.8
25 -25 0 13.9 8.8
25 -25 0 18.7 9.2
25 -26 0 12.4 8.6
25 -26 0 16.2 9
26 -1 0 1.2 8.8
-1 -25 0 16.3 15.8
-1 -25 0 13.1 8.9
24 -26 0 43.8 10.4
24 -26 0 45.5 12.5
-2 -24 0 33.5 14.5
-2 -24 0 25.7 10.1
26 -2 0 74.69 19.9
23 -26 0 30.2 8.9
23 -26 0 19.5 9.5
-3 -23 0 19.4 13.2
26 -3 0 35.9 15.5
-3 -23 0 28.2 10.1
22 -26 0 44.1 12.6
22 -26 0 45.2 10
-4 -22 0 57.89 12.8
-4 -22 0 32.6 16.7
26 -4 0 58.29 15.4
-22 26 0 25.4 22.5
21 -26 0 25.6 9
21 -26 0 6.8 7.2
-5 -21 0 -3.5 6.7
-21 26 0 21 13.9
-5 -21 0 9.9 19.3
26 -5 0 5.5 8.6
-5 -21 0 12.5 14.9
20 -26 0 38.6 9.5
20 -26 0 46 10.7
-20 26 0 20.9 16.9
-6 -20 0 58.19 21.9
-6 -20 0 21.6 14.9
26 -6 0 42 15.2
-6 -20 0 17.9 9.4
19 -26 0 -0.9 5.6
19 -26 0 7.3 7.2
-7 -19 0 17.2 13.7
-19 26 0 26.6 13.1
-7 -19 0 9.1 11
-7 -19 0 13.8 7.8
26 -7 0 -5.8 7.5
18 -26 0 32.8 9.7
18 -26 0 65.89 11.7
-8 -18 0 50.19 18.6
-18 26 0 77.29 18.1
26 -8 0 25.1 11.4
26 -8 0 45.5 13.5
-8 -18 0 48.9 14.9
-8 -18 0 83.39 14.7
17 -26 0 4.3 6.4
17 -26 0 12.4 7
26 -9 0 22.8 10.2
-17 26 0 -0.4 12.4
26 -9 0 29.5 11.6
-9 -17 0 -0.1 6
-9 -17 0 5.7 9.8
-9 -17 0 25.9 15.9
16 -26 0 50.29 10.1
-26 10 0 47.1 19.5
10 16 0 37.6 11.3
16 -26 0 34.8 9.5
-10 -16 0 23.3 15
-10 -16 0 36.6 13.4
26 -10 0 47.2 11.9
-16 26 0 20.1 14.9
26 -10 0 31.3 10.6
-26 11 0 14.2 12.3
15 -26 0 32.5 8.4
11 15 0 16.8 8.1
-11 -15 0 -7.9 8.9
26 -11 0 15 9.1
-11 -15 0 17 15.4
-15 26 0 20.2 18.5
26 -11 0 1.2 8.9
14 -26 0 84.39 14.8
-26 12 0 82.69 19.9
12 14 0 101.09 16.1
-14 26 0 82.19 28.4
26 -12 0 115.79 19.1
-12 -14 0 82.79 22
-12 -14 0 62.89 16.9
26 -12 0 80.29 16.7
13 -26 0 56.59 12.1
-26 13 0 66.79 17.7
13 13 0 49.8 12.6
-13 -13 0 19.9 16.4
-13 -13 0 32.9 12.9
-13 -13 0 24.8 17.1
26 -13 0 63.19 16.8
-13 26 0 35.7 21.2
26 -13 0 36.6 11.1
12 -26 0 61.59 12.1
12 -26 0 87.59 14.8
14 12 0 71.39 15.1
-26 14 0 87.79 20.8
-12 26 0 81.39 20.9
-14 -12 0 83.39 19.1
26 -14 0 84.19 19.9
-14 -12 0 38.7 19.9
26 -14 0 95.19 17.4
-14 -12 0 95.79 23.5
-26 15 0 23 13.7
11 -26 0 2.8 6.1
11 -26 0 7 8.4
15 11 0 21.9 9.9
-15 -11 0 38.4 12.7
26 -15 0 8 7.8
-11 26 0 34.1 14.9
-15 -11 0 27 16.5
26 -15 0 18.2 8.8
-15 -11 0 35.1 13.7
-26 16 0 35.7 13
10 -26 0 27.4 11.3
10 -26 0 18.2 7.6
16 10 0 -3.9 7
10 -26 0 34 10.2
-16 -10 0 20 14.7
-10 26 0 48.6 15.8
-16 -10 0 15.6 10.5
-16 -10 0 37.8 14.4
26 -16 0 50.19 11.3
26 -16 0 21.8 10.7
-26 17 0 -1.1 11.2
17 9 0 7.3 8.7
9 -26 0 14 6.8
9 -26 0 23.8 10.3
9 -26 0 12.9 8.3
26 -17 0 7.8 8.2
-17 -9 0 25.5 15.8
-17 -9 0 31.6 12.9
-17 -9 0 -3.6 11.7
26 -17 0 17.9 9.4
-9 26 0 25.8 13.9
-26 18 0 35.4 14.7
18 8 0 26.5 10.6
8 -26 0 26.9 10.9
8 -26 0 37 9
8 -26 0 47.6 13.6
-18 -8 0 29.7 11.8
26 -18 0 16.5 9.6
26 -18 0 74.69 13.2
-18 -8 0 63.59 18.8
-8 26 0 35.4 15
7 -26 0 3.3 9.6
19 7 0 5.7 8.8
7 -26 0 20.9 14.4
7 -26 0 2.2 8.9
-26 19 0 3.5 10.6
-7 26 0 25.5 14.4
-19 -7 0 -12.4 10.1
26 -19 0 7.9 7.7
26 -19 0 9 8.5
-19 -7 0 31.4 16.4
20 6 0 38.9 12.5
-26 20 0 50.79 19.6
6 -26 0 29.8 9.7
6 -26 0 56.39 14.4
6 -26 0 34.3 11.5
26 -20 0 17.8 9.4
26 -20 0 44.1 11
-6 26 0 15.8 14.8
-20 -6 0 16.8 15.3
21 5 0 13.7 9.7
5 -26 0 20 12.2
5 -26 0 12.9 6.9
5 -26 0 29.7 10.3
26 -21 0 3.6 7.3
-21 -5 0 -7.3 11.9
26 -21 0 26.6 9.7
4 -26 0 52.39 13.2
22 4 0 30.1 11.4
4 -26 0 62.09 11.4
4 -26 0 39.3 15.3
26 -22 0 48 12.2
26 -22 0 37.4 11.7
23 3 0 15.5 10.3
3 -26 0 26.1 9
3 -26 0 23.4 11
3 -26 0 4.8 12.5
26 -23 0 15.1 8.6
26 -23 0 26.3 10.1
2 -26 0 60.39 15.4
2 -26 0 51.19 11.9
26 -24 0 50.49 13.8
26 -24 0 31.2 10.9
25 1 0 21.5 9.9
1 -26 0 0.1 13.6
1 -26 0 13.2 8.1
26 -25 0 20.5 9.4
26 -25 0 6.1 8
0 -26 0 20.7 9.6
0 -26 0 9.9 15
26 0 0 15 10.4
26 -26 0 11.1 9.2
26 -26 0 17.9 9.1
25 -27 0 2.1 7.9
25 -27 0 0.9 8
-2 -25 0 14.5 8
27 -2 0 -8.5 6.7
-2 -25 0 -9.4 11.7
24 -27 0 8.4 8.9
24 -27 0 24.3 8.7
-3 -24 0 3 12.5
-3 -24 0 9.8 7.1
-3 -24 0 -16.7 12.7
27 -3 0 15.1 11.3
23 -27 0 10.8 7.9
23 -27 0 11.1 7.7
-4 -23 0 3 14
-4 -23 0 -9 10.3
-4 -23 0 13.5 8.1
27 -4 0 -4.3 8.1
22 -27 0 15.5 7.6
22 -27 0 7.3 8.4
-5 -22 0 17.9 12.8
-5 -22 0 6.4 7.9
-5 -22 0 8.9 16.1
21 -27 0 -5 6.2
21 -27 0 6.9 7.3
27 -6 0 0.1 7.1
-6 -21 0 -5.1 9.7
-6 -21 0 26.9 14.8
20 -27 0 9.8 7.3
20 -27 0 15.8 9.5
-20 27 0 14.9 14.1
-7 -20 0 7.3 11.8
27 -7 0 5.3 8.1
-7 -20 0 17.6 16.5
19 -27 0 -4.1 5.8
19 -27 0 5.4 6.7
-8 -19 0 -16.1 10.3
-8 -19 0 -5.8 9.2
-19 27 0 -9.5 11.2
27 -8 0 6.5 8.6
18 -27 0 19.9 7.6
18 -27 0 14.4 7.4
27 -9 0 6.9 9.6
-9 -18 0 35.4 18.4
-18 27 0 -26 10.8
-9 -18 0 3.9 10.3
27 -9 0 17.7 9.9
17 -27 0 -6.6 5.1
17 -27 0 0.3 5.9
27 -10 0 -5 7.5
-10 -17 0 21.6 11.2
-17 27 0 -11.4 10.4
-10 -17 0 2.5 12.7
27 -10 0 10.7 7.5
16 -27 0 -4.2 6
16 -27 0 6.6 6.5
11 16 0 -4.3 5.8
-11 -16 0 -3.6 8.3
27 -11 0 7.3 8.9
-11 -16 0 -8.6 9.8
-16 27 0 1.6 11.1
-11 -16 0 5.2 13.8
27 -11 0 4.6 7.5
12 15 0 3.8 6.4
15 -27 0 3.9 6.9
-12 -15 0 -0.4 10.6
27 -12 0 0.8 7.5
-15 27 0 0.8 11.2
27 -12 0 11.8 8.9
-12 -15 0 6.1 14.4
-12 -15 0 6.2 9.1
14 -27 0 -4.2 7
13 14 0 -9.5 5.2
-13 -14 0 7.5 8.7
-13 -14 0 11.2 10.7
27 -13 0 -6.6 7.5
-14 27 0 -11.3 10.3
27 -13 0 -7 6.7
-13 -14 0 6 14.3
14 13 0 -2.5 6.9
13 -27 0 -5.4 7.4
13 -27 0 8.5 13.9
27 -14 0 0.7 8.2
-14 -13 0 -2.2 9.4
-14 -13 0 -9.6 6.6
27 -14 0 1.1 9.1
-13 27 0 -22 9.8
-14 -13 0 -0.4 13.3
12 -27 0 7.8 10.3
12 -27 0 -0.4 8.1
15 12 0 -4.4 6.4
-12 27 0 3.4 11.9
-15 -12 0 -4.1 13.1
27 -15 0 6.6 7.1
27 -15 0 9.1 8.8
-15 -12 0 16 9.3
-15 -12 0 5.2 15.5
11 -27 0 9.9 8.5
11 -27 0 -8.1 7.3
16 11 0 -7.1 5.2
11 -27 0 1.3 7.3
-16 -11 0 -4.7 12.7
-11 27 0 -2.4 12.3
27 -16 0 3.2 6.7
-16 -11 0 -7 7.2
10 -27 0 6.9 9
10 -27 0 1.3 7.9
17 10 0 9.4 8
10 -27 0 3 8
-17 -10 0 -9.6 11.3
-17 -10 0 0.4 10.1
27 -17 0 5.6 7.1
27 -17 0 4.6 8.6
-10 27 0 -7.1 11
18 9 0 -1.5 6.6
9 -27 0 5.5 9.5
9 -27 0 17.3 10.7
9 -27 0 13.9 13.8
-18 -9 0 -1.4 13.7
-9 27 0 1.3 12.2
27 -18 0 8.3 8.1
27 -18 0 19.8 9.7
8 -27 0 8.3 10.1
8 -27 0 5.1 8.1
8 -27 0 -0.3 10.8
19 8 0 -8 5.9
27 -19 0 -4.9 7.7
-19 -8 0 -20.3 11.8
27 -19 0 -0.7 6.1
20 7 0 5 7.8
7 -27 0 18.2 11
7 -27 0 8.7 10.1
7 -27 0 11 7.1
-20 -7 0 5.5 13.3
27 -20 0 21.7 10.1
27 -20 0 16.7 8.7
6 -27 0 -5.4 9.9
6 -27 0 -2 6.4
21 6 0 -2.5 7.3
6 -27 0 -0.5 9.2
27 -21 0 10.7 7.9
27 -21 0 -10.2 7.1
-21 -6 0 -6.8 11.9
5 -27 0 18.6 13.3
22 5 0 17.2 8.9
5 -27 0 8 10.4
5 -27 0 20.2 7.7
-22 -5 0 -10 15.2
27 -22 0 25 10.5
27 -22 0 20.3 10
4 -27 0 14.4 11.3
4 -27 0 -2 12.2
4 -27 0 0.4 6.6
27 -23 0 5.5 7.5
27 -23 0 -10.4 7.6
3 -27 0 14.6 8.6
24 3 0 15 10.4
3 -27 0 14.3 10.9
27 -24 0 34.7 12.5
27 -24 0 13.3 8.9
25 2 0 1.7 10.4
2 -27 0 6.5 8
27 -25 0 11.1 8.1
27 -25 0 5.9 8.3
23 -28 0 14.7 9.3
23 -28 0 10.1 7.3
-5 -23 0 41.4 14.2
-5 -23 0 -7.8 12.9
28 -5 0 27.6 11.3
22 -28 0 24.1 8.1
22 -28 0 23.3 17.7
-6 -22 0 4.8 12.4
-6 -22 0 30.5 18.3
28 -6 0 27.3 12.4
21 -28 0 3.4 7.5
21 -28 0 4.2 6.9
-7 -21 0 -15.9 11.3
-7 -21 0 -3.6 11
28 -7 0 3.8 8.4
-7 -21 0 5 11
20 -28 0 28.2 10.1
20 -28 0 24 8.4
-8 -20 0 14 12
28 -8 0 8.2 15.1
-8 -20 0 0.4 15.5
19 -28 0 -1.3 6.3
19 -28 0 -3.3 6.2
-9 -19 0 6 14
-9 -19 0 -2.6 11
28 -9 0 -11.4 6.4
-9 -19 0 -7.3 8.8
18 -28 0 12.4 7.5
18 -28 0 33.2 9.2
28 -10 0 12.6 9.4
-10 -18 0 34.5 17.6
-10 -18 0 30.6 11.2
-10 -18 0 22.6 12.7
17 -28 0 7.3 6.8
17 -28 0 13.7 7
28 -11 0 4.6 9.3
-11 -17 0 -13.4 13.8
-11 -17 0 6.6 13.2
28 -11 0 16.5 9.5
-11 -17 0 10.7 8.7
16 -28 0 18.5 8.1
16 -28 0 30.7 8.8
12 16 0 15.7 9.5
28 -12 0 11.5 10.2
-12 -16 0 13.3 10.9
28 -12 0 57.29 12.7
-12 -16 0 3.8 16.4
15 -28 0 13.3 7.9
13 15 0 11.4 8.1
28 -13 0 11.2 8.1
-13 -15 0 30.7 13
-15 28 0 5.2 17.1
28 -13 0 9.2 10.5
-13 -15 0 19.8 15.9
14 -28 0 29.5 9.5
14 14 0 16.9 9.6
14 -28 0 24.5 9
28 -14 0 11.6 8.7
28 -14 0 33.1 11.4
-14 -14 0 36 21.7
-14 -14 0 31 11.3
13 -28 0 2.8 8.5
13 -28 0 15.4 15.1
13 -28 0 18.5 8.4
15 13 0 14 9.4
-15 -13 0 18.7 10.9
28 -15 0 28.2 10.7
28 -15 0 13.1 10.6
-15 -13 0 40.2 17.4
12 -28 0 26.1 9.9
12 -28 0 18.2 9.9
16 12 0 12.6 9.1
12 -28 0 40.6 12
28 -16 0 23.6 11.3
-16 -12 0 13.8 15.9
-16 -12 0 10.1 17.1
28 -16 0 20.1 11.3
17 11 0 21.4 9.6
11 -28 0 8.1 8.6
11 -28 0 6.1 9.7
11 -28 0 12.5 9.6
-17 -11 0 27.1 16.8
28 -17 0 14.1 9.2
28 -17 0 3.9 10.1
18 10 0 2.3 8
10 -28 0 14 10.6
10 -28 0 18.6 10.2
10 -28 0 14.5 10.4
-18 -10 0 16 15
28 -18 0 23.9 10.1
9 -28 0 8.5 10.3
9 -28 0 2.7 6.8
9 -28 0 5.8 9.6
19 9 0 7.5 7.1
28 -19 0 -3.4 10.1
28 -19 0 -12 5.5
-19 -9 0 -16.4 13.7
20 8 0 -7 6.6
8 -28 0 12 11
8 -28 0 20.7 7.9
8 -28 0 5.2 11.6
28 -20 0 7.4 8.4
-20 -8 0 18.6 16.8
28 -20 0 17.6 10.3
7 -28 0 17.1 10.2
7 -28 0 11.4 12.6
21 7 0 -6.2 6.5
7 -28 0 -7.8 6.4
28 -21 0 8.5 7.9
28 -21 0 -0.4 9
6 -28 0 39 14
6 -28 0 31.1 11.9
22 6 0 4.2 14.1
6 -28 0 22.8 7.9
28 -22 0 17.3 10
28 -22 0 12.8 10.3
-22 -6 0 25.5 18.6
5 -28 0 9.8 10.4
5 -28 0 9.9 7.6
23 5 0 -5.9 7.6
5 -28 0 24.6 14.5
28 -23 0 19.2 8.9
-23 -5 0 -7.7 14.5
28 -23 0 23.2 10.3
21 -29 0 9.6 7.5
21 -29 0 8.2 7
-8 -21 0 4 16
-8 -21 0 -1.4 9.8
29 -8 0 1.9 7.8
20 -29 0 5.8 7
20 -29 0 10.6 7.9
-9 -20 0 -17.6 15
-9 -20 0 4.7 10.2
29 -9 0 2.1 8.8
19 -29 0 6.5 8.4
19 -29 0 4.1 6.6
-10 -19 0 -10.8 7.8
-10 -19 0 11.1 15.6
29 -10 0 11.1 8.7
18 -29 0 12.8 7.4
18 -29 0 2.4 6.9
-11 -18 0 12.7 10
-11 -18 0 -13.6 13.6
29 -11 0 9.2 11.4
17 -29 0 6.9 7.6
12 17 0 1.1 7
17 -29 0 2.7 6.9
-12 -17 0 3.8 13.6
29 -12 0 2.7 9.5
-12 -17 0 15.1 9.5
29 -12 0 13.9 15.4
13 16 0 17.7 9.6
16 -29 0 6.9 7.4
16 -29 0 -7.8 5.4
29 -13 0 12.7 8.1
-13 -16 0 0.2 14.2
29 -13 0 -3 8.6
-13 -16 0 0.8 9.5
15 -29 0 -12 6
14 15 0 2.3 7.4
15 -29 0 3.7 7.5
-14 -15 0 30.3 17.9
29 -14 0 10.4 9.3
29 -14 0 1.6 9
14 -29 0 -2 6.8
15 14 0 -7.8 7.3
14 -29 0 9.6 8
29 -15 0 -1.4 7.8
29 -15 0 -3 9.2
-15 -14 0 -3.5 14.4
16 13 0 8.5 8.1
13 -29 0 1.4 8
13 -29 0 2.4 7.3
-16 -13 0 -10.9 14.5
29 -16 0 5.4 9.3
29 -16 0 -4.4 7.3
12 -29 0 -5.5 6.3
12 -29 0 -4.8 10.9
12 -29 0 3.4 9.3
17 12 0 0.2 8.6
29 -17 0 2.7 9.5
29 -17 0 -10.4 6.4
-17 -12 0 -10.3 15.5
18 11 0 -1.1 7.2
11 -29 0 1.5 10
11 -29 0 -10.9 6.2
11 -29 0 -3.1 9
29 -18 0 0.8 9.2
29 -18 0 0.3 8.2
-18 -11 0 -2.6 18.8
10 -29 0 7.2 7.1
10 -29 0 11.1 10.5
19 10 0 4.6 8.3
10 -29 0 2.4 10.2
29 -19 0 8.9 10.4
29 -19 0 -7.8 9.2
9 -29 0 -2.9 6.1
9 -29 0 -9 8.6
9 -29 0 21.8 11.9
20 9 0 -10.1 6.5
-20 -9 0 32.8 19.8
29 -20 0 11.9 10
8 -29 0 4.8 10
21 8 0 -8.1 6.7
8 -29 0 6 7
8 -29 0 -2.3 10.8
-21 -8 0 -6.5 15.1
29 -21 0 7.2 8.2
29 -21 0 3 15.7
17 -30 0 11.1 8.3
17 -30 0 13.4 7.9
13 17 0 31.1 10.5
30 -13 0 20.8 11
14 16 0 21.2 11.3
16 -30 0 25.2 9.1
16 -30 0 38.7 10
16 -30 0 28.4 9.1
16 -30 0 28.8 11.1
30 -14 0 7 9.3
-14 -16 0 31.1 18.7
30 -14 0 37.5 13
15 -30 0 28.9 13.5
15 -30 0 8.8 7.8
15 15 0 8 8.2
15 -30 0 14 7.6
30 -15 0 2.5 9.6
30 -15 0 4.4 9
-15 -15 0 -1.5 15.1
16 14 0 24.8 11.1
14 -30 0 20.9 9.4
14 -30 0 31.7 9.4
14 -30 0 9.6 14.2
-16 -14 0 29.7 21.3
30 -16 0 24.9 12.4
30 -16 0 12.1 9.4
17 13 0 32.7 10.5
13 -30 0 5.5 7.8
30 -17 0 4.9 10.7
30 -17 0 6.7 10.6
0 0 -1 5587.94 460.85
0 0 1 5572.94 460.85
0 1 -1 310.67 25.2
-1 0 -1 254.47 24.9
0 -1 1 338.87 25.4
1 0 1 272.97 25
-1 1 -1 261.07 23.9
1 -1 1 291.17 24
-1 2 -1 338.87 27.7
-1 -1 -1 280.67 26.7
2 -1 -1 332.87 27.1
1 -2 1 336.47 27.7
1 1 1 281.87 26.8
-2 1 1 338.97 27
-1 3 -1 27.7 5.8
3 -2 -1 31.2 4.1
-2 -1 -1 20.5 4.2
2 1 1 37.3 4.8
1 -3 1 40.1 6.2
-3 2 1 39.5 4.7
2 1 1 27.3 4
-2 0 -1 1485.25 145.99
2 -2 -1 1892.41 145.89
0 2 -1 2004.5 146.69
2 0 1 1542.65 146.09
0 -2 1 1810.92 146.49
-2 2 1 1831.12 145.79
-2 1 -1 291.47 28.1
1 1 -1 368.86 28.2
-1 -1 1 318.97 28.2
2 0 -1 1716.83 141.99
-2 2 -1 1643.64 142.19
0 2 1 1824.32 141.19
0 2 1 1531.05 141.19
2 -2 1 1753.82 142.19
-2 0 1 1779.32 141.99
3 -1 -1 31 4.6
-1 -2 -1 35.3 4.9
-1 -2 -1 33.2 4.3
-2 3 -1 37 6
1 2 1 24.6 3.6
1 2 1 31.8 4.2
2 -3 1 35.3 5.9
-3 1 1 25.8 4.3
-2 -2 -1 110.29 12
4 -2 -1 140.99 12.5
-2 -2 -1 112.39 12.3
-2 4 -1 158.08 14.1
-4 2 1 124.39 12.5
2 2 1 117.79 12.2
2 2 1 121.99 11.8
2 -4 1 156.38 14.1
-3 -2 -1 40.4 6.2
-3 -2 -1 34.6 6.5
-2 5 -1 46.3 8.6
5 -3 -1 40.6 6.1
3 2 1 52.79 6.9
3 2 1 57.59 7.3
-5 3 1 44.2 6.4
-5 3 1 44.6 6.1
2 -5 1 58.09 8.8
-3 -1 -1 36 6.1
-3 -1 -1 40.6 6.1
4 -3 -1 45.4 5.9
-1 4 -1 51.79 7.7
-4 3 1 40.3 5
3 1 1 35.5 5.6
-4 3 1 39.3 5.5
1 -4 1 48.1 7.3
3 1 1 36.9 6
0 3 -1 869.81 76.09
3 -3 -1 983.3 75.09
0 -3 1 972.9 76.19
-3 3 1 902.41 75.09
3 0 1 774.62 75.49
2 -3 -1 25.6 3.4
3 -1 1 29 4.9
-2 3 1 34 3.4
-1 -2 1 39.4 5.7
-1 -2 1 30.9 4.7
2 1 -1 33.1 4.9
-3 2 -1 38.1 5.6
3 -2 1 34.3 5.4
-2 -1 1 26.6 4.6
0 -3 -1 725.43 67.39
0 -3 -1 840.32 67.59
3 0 -1 838.62 68.49
-3 3 -1 741.93 68.69
0 3 1 787.42 67.69
0 3 1 877.91 67.89
3 -3 1 839.02 68.79
0 3 1 823.92 67.49
-3 0 1 844.82 68.49
-3 4 -1 54.29 7.4
-1 -3 -1 40.3 5.5
-1 -3 -1 52.19 6.2
4 -1 -1 34.6 5.6
-1 -3 -1 37.6 5.8
1 3 1 47.5 5.3
1 3 1 39.1 5.9
-4 1 1 38.9 6.2
3 -4 1 45.9 7.3
-3 5 -1 58.19 8.8
-2 -3 -1 35.7 6.3
-2 -3 -1 44.9 6.3
-2 -3 -1 54.39 7.4
5 -2 -1 42.8 6.3
-5 2 1 45.2 6.6
2 3 1 39.6 6.4
2 3 1 48.6 6.2
-5 2 1 42.5 7.8
3 -5 1 57.69 8.8
-3 6 -1 0.4 5.5
-3 -3 -1 7.6 3.5
-3 -3 -1 4.7 4.3
6 -3 -1 11.9 4.1
3 3 1 1.6 3.2
-6 3 1 0.8 3.6
-6 3 1 6.8 4
3 3 1 4.5 4.2
3 -6 1 4.7 6
7 -4 -1 75.09 9.7
7 -4 -1 89.49 10.8
-4 -3 -1 87.79 10.7
-4 -3 -1 80.69 11.5
-3 7 -1 94.09 13
4 3 1 84.79 11.1
-7 4 1 86.79 10.8
-7 4 1 91.59 11
3 -7 1 106.39 13.5
4 3 1 80.99 10.3
6 -4 -1 160.88 15.1
-4 -2 -1 145.79 15.2
-4 -2 -1 135.49 15.8
-2 6 -1 161.68 17.3
2 -6 1 142.09 16.7
4 2 1 147.59 15.4
-6 4 1 156.78 14.9
-6 4 1 131.99 15.1
4 2 1 157.68 15
-4 -1 -1 43.8 6.9
-1 5 -1 79.69 10.1
-4 -1 -1 50.29 7.5
5 -4 -1 53.79 6.9
1 -5 1 53.49 8.7
4 1 1 41.2 6.6
-5 4 1 35.5 6.1
4 1 1 44.2 7.2
-5 4 1 43.6 5.9
0 4 -1 3898.91 305.87
4 -4 -1 4090.39 304.77
-4 0 -1 3387.76 305.27
-4 4 1 3745.23 304.57
-4 4 1 3772.52 304.27
4 0 1 3343.27 305.17
4 0 1 3524.85 305.17
3 -4 -1 45.3 4.8
1 3 -1 68.69 8.4
-4 1 -1 36.8 6.2
4 -1 1 34.1 5.5
-3 4 1 37.2 4.6
-1 -3 1 64.19 8.5
-1 -3 1 39.6 6.1
4 -1 1 37.6 6.1
2 2 -1 123.49 12.4
-4 2 -1 121.29 12.7
-2 -2 1 144.99 13.4
4 -2 1 103.89 12.5
-2 -2 1 125.09 12.5
3 1 -1 38.8 5.8
-4 3 -1 44 6.8
-1 4 1 46.6 4.8
-3 -1 1 25.2 4.9
-1 4 1 41.5 5.4
4 -3 1 37.5 6.2
4 0 -1 3812.32 312.87
0 -4 -1 3976 312.07
0 -4 -1 3603.44 311.87
0 -4 -1 3813.72 311.77
-4 4 -1 3684.43 313.07
0 4 1 4039.2 311.77
0 4 1 3843.02 312.17
4 -4 1 3234.08 312.77
0 4 1 3945.21 312.27
-4 0 1 3751.42 312.77
-1 -4 -1 48.1 6.2
-4 5 -1 49.4 8.3
-1 -4 -1 46.7 7.4
5 -1 -1 50.19 7.8
-1 -4 -1 47.8 7
1 4 1 49.8 6.3
-5 1 1 53.09 7.6
4 -5 1 44.2 8.2
1 4 1 55.09 8
-5 1 1 54.49 7.5
1 4 1 54.39 7
-2 -4 -1 140.79 15.2
-2 -4 -1 180.98 16.3
-4 6 -1 158.88 17.2
6 -2 -1 144.89 15.7
-2 -4 -1 148.59 14.9
2 4 1 153.78 15.5
2 4 1 150.98 14.5
-6 2 1 152.58 15.8
-6 2 1 140.69 15.3
4 -6 1 173.58 17.3
-3 -4 -1 96.79 12.2
-3 -4 -1 88.79 10.9
7 -3 -1 97.69 11.6
-3 -4 -1 94.49 11.5
-4 7 -1 106.09 14
-7 3 1 79.49 11
3 4 1 83.79 10.1
4 -7 1 91.09 13.3
3 4 1 97.29 11.5
-7 3 1 95.79 11.6
-4 8 -1 194.48 19.4
8 -4 -1 140.19 16.3
-4 -4 -1 171.08 17.6
-4 -4 -1 169.48 17
8 -4 -1 177.48 17.2
4 -8 1 181.58 19
4 4 1 157.28 16.4
-8 4 1 154.18 16.9
4 4 1 175.78 17.7
-8 4 1 174.88 17.2
-4 9 -1 41.1 9.7
-5 -4 -1 28.9 6.7
9 -5 -1 18.4 5.5
9 -5 -1 33.8 6.6
-5 -4 -1 28.5 6.6
5 4 1 27.2 5.8
4 -9 1 28.9 8.3
-9 5 1 25.2 6.7
-9 5 1 25.1 6.2
5 4 1 20.1 6.5
-5 -3 -1 431.06 39.9
-3 8 -1 485.25 41.1
8 -5 -1 421.16 38.5
8 -5 -1 435.46 39.3
-5 -3 -1 446.46 39.6
-8 5 1 471.75 39.5
5 3 1 444.46 39.2
3 -8 1 458.05 40.8
5 3 1 427.16 39.7
-8 5 1 436.46 39.2
-5 -2 -1 140.59 15.9
7 -5 -1 134.59 13.9
-2 7 -1 148.69 17.6
7 -5 -1 163.98 15
-5 -2 -1 149.39 15.6
-7 5 1 149.39 14.8
5 2 1 149.49 15.8
-7 5 1 131.09 14.7
2 -7 1 140.39 17.4
5 2 1 143.19 15
6 -5 -1 474.95 36.5
-1 6 -1 398.76 38
6 -5 -1 404.56 35.4
-5 -1 -1 393.26 37.3
-5 -1 -1 431.46 37.3
1 -6 1 409.96 38.1
5 1 1 389.36 37.1
-6 5 1 444.66 36.4
5 1 1 405.56 36.7
-5 0 -1 984.5 81.49
-5 0 -1 909.41 81.39
5 -5 -1 1082.99 80.59
0 5 -1 970.1 81.99
5 0 1 938.61 81.19
0 -5 1 981.7 82.09
-5 5 1 918.71 80.49
5 0 1 904.31 81.39
-5 5 1 950.8 80.29
1 4 -1 45.3 8.2
-5 1 -1 38.9 7.1
4 -5 -1 38.8 5.3
-4 5 1 35.7 5.1
5 -1 1 33 6.6
-4 5 1 39.3 5.2
-1 -4 1 54.29 8.3
-1 -4 1 47.5 7.1
5 -1 1 34 6.2
2 3 -1 43.2 6.5
-5 2 -1 39.2 6.8
2 3 -1 54.09 7.7
-2 -3 1 48.5 7.5
5 -2 1 34.9 6.5
-3 5 1 34.9 4.6
-2 -3 1 40.3 5.8
5 -2 1 20.6 5
-5 3 -1 33.9 6.7
3 2 -1 47.2 7.4
-3 -2 1 48.8 8
-2 5 1 41.3 5.3
-3 -2 1 32.8 6
5 -3 1 48.4 7.1
4 1 -1 60.29 9.1
1 -5 -1 41.4 5.4
1 -5 -1 39.3 5.9
-5 4 -1 51.79 7.7
5 -4 1 44.7 7.6
-4 -1 1 32.6 6.2
-1 5 1 49.2 5.9
-1 5 1 52.09 6.6
5 0 -1 1076.59 85.19
0 -5 -1 1051.29 83.59
-5 5 -1 862.01 84.89
0 -5 -1 974.9 83.89
0 -5 -1 1030.6 84.19
0 5 1 1011.1 83.49
-5 0 1 962.1 84.89
0 5 1 1016.2 85.89
0 5 1 1025.6 84.29
5 -5 1 1015.2 85.19
-5 6 -1 475.85 40
-1 -5 -1 419.06 38.4
6 -1 -1 468.95 39.4
-1 -5 -1 421.66 38.8
-1 -5 -1 438.76 38
-6 1 1 428.36 39.2
5 -6 1 521.55 40.1
1 5 1 425.66 38.9
-6 1 1 384.66 38.8
1 5 1 462.15 38.7
1 5 1 452.55 37.9
-5 7 -1 160.38 17.3
7 -2 -1 160.08 15.8
-2 -5 -1 134.29 14.4
-2 -5 -1 140.49 15
-2 -5 -1 133.19 16
-7 2 1 162.68 15.8
2 5 1 145.59 14.2
-7 2 1 151.08 15.7
2 5 1 126.79 15.1
5 -7 1 154.78 16.6
-3 -5 -1 464.35 41.7
-3 -5 -1 447.86 40.8
8 -3 -1 455.25 41.6
-3 -5 -1 460.45 41.3
-5 8 -1 490.05 42.5
-8 3 1 444.06 41.5
5 -8 1 510.35 42.5
3 5 1 449.66 40.5
3 5 1 459.15 41.4
-8 3 1 509.25 41.9
9 -4 -1 30.9 6.3
-4 -5 -1 13.5 7.2
-4 -5 -1 23.3 6.3
-4 -5 -1 31.4 6.7
-5 9 -1 30.9 8.4
9 -4 -1 26.7 6.6
4 5 1 27.4 5.9
4 5 1 29.1 7
-9 4 1 31.1 6.8
-9 4 1 25 6
5 -9 1 39.3 8.6
-5 -5 -1 258.77 26.4
10 -5 -1 251.77 26
-5 -5 -1 264.17 27.2
-5 10 -1 272.87 27.8
10 -5 -1 281.97 25.7
-5 -5 -1 283.27 26
-10 5 1 306.87 26.7
-10 5 1 268.07 26.3
5 -10 1 269.97 27.7
5 5 1 265.37 25.5
5 5 1 284.87 26.9
-5 11 -1 102.19 15.6
-6 -5 -1 90.69 13.1
11 -6 -1 89.59 11.8
-6 -5 -1 83.99 12.3
6 5 1 90.59 13.3
6 5 1 79.69 11.6
5 -11 1 86.69 21
-11 6 1 88.19 12.6
-11 6 1 108.09 13.2
-6 -4 -1 835.42 73.49
-6 -4 -1 856.11 73.09
-4 10 -1 845.22 74.19
10 -6 -1 823.32 72.79
10 -6 -1 870.71 72.19
-10 6 1 863.91 72.99
4 -10 1 837.32 73.99
6 4 1 816.22 72.59
-10 6 1 863.51 72.99
-6 -3 -1 28.7 7.4
-3 9 -1 17.9 8
9 -6 -1 29.2 6.3
-6 -3 -1 24.3 5.8
9 -6 -1 28.5 5.8
-9 6 1 17.8 5.9
6 3 1 32.1 7.3
3 -9 1 26.7 8.4
6 3 1 17.2 5
-9 6 1 29.1 5.9
-6 -2 -1 480.75 42.1
-6 -2 -1 479.55 42.4
-2 8 -1 466.05 43.1
8 -6 -1 479.35 41.3
8 -6 -1 449.86 40.5
2 -8 1 476.55 43
6 2 1 425.96 41.3
-8 6 1 479.15 41.3
6 2 1 478.65 42.2
-8 6 1 496.85 41.3
-6 -1 -1 74.09 10.5
-6 -1 -1 62.69 10.5
-1 7 -1 72.39 11.5
7 -6 -1 73.59 9.5
7 -6 -1 73.09 8.4
-7 6 1 74.59 9.6
-7 6 1 72.49 9.3
6 1 1 77.89 10.2
1 -7 1 87.99 12.4
6 1 1 73.89 10.7
6 -6 -1 887.31 74.49
-6 0 -1 912.41 76.49
0 6 -1 901.41 76.99
-6 0 -1 839.22 76.39
6 -6 -1 960.6 75.39
6 0 1 879.61 76.39
0 -6 1 909.11 76.09
-6 6 1 866.01 75.19
0 -6 1 892.11 76.99
6 0 1 884.61 76.09
-6 1 -1 390.66 35.7
5 -6 -1 438.46 34.3
1 5 -1 395.06 36.4
-6 1 -1 392.46 35.9
-5 6 1 378.86 34.1
-1 -5 1 419.86 36.6
6 -1 1 351.06 35.4
6 -1 1 393.66 35.5
-1 -5 1 426.86 35.5
4 -6 -1 132.39 11.8
2 4 -1 115.09 14.7
-6 2 -1 137.89 14.4
2 4 -1 126.19 13.8
-2 -4 1 131.19 13.8
6 -2 1 117.89 14
-4 6 1 127.09 12.2
6 -2 1 140.49 14
-2 -4 1 121.09 15.1
3 3 -1 2 3.5
-6 3 -1 4.8 4.8
-3 6 1 4.3 3.4
6 -3 1 5.2 4.6
6 -3 1 -0.6 3.2
-3 -3 1 8 5.4
-3 -3 1 6.4 3.6
-6 4 -1 128.89 14.9
2 -6 -1 123.79 12.1
2 -6 -1 130.09 12.1
4 2 -1 151.08 14.6
6 -4 1 128.99 14.7
-2 6 1 153.78 13.8
-4 -2 1 134.19 14.4
1 -6 -1 393.86 35.3
1 -6 -1 401.26 35.5
5 1 -1 445.96 37
-6 5 -1 443.26 37.3
-5 -1 1 408.56 36.7
-1 6 1 427.46 37
6 -5 1 380.36 36.8
6 0 -1 930.61 81.39
-6 6 -1 990.7 81.69
0 -6 -1 976.3 79.79
0 -6 -1 990.4 80.69
0 -6 -1 928.41 80.39
0 6 1 981.5 80.69
0 6 1 969 79.69
-6 0 1 912.41 81.29
-6 0 1 826.22 80.99
6 -6 1 1046.8 81.79
0 6 1 947.61 80.89
7 -1 -1 90.19 11.5
-1 -6 -1 63.89 9.1
-6 7 -1 83.09 11.8
-1 -6 -1 87.39 10
-1 -6 -1 74.89 11.1
-7 1 1 71.89 10.5
1 6 1 87.49 11
-7 1 1 75.29 10.7
1 6 1 73.99 10.2
6 -7 1 79.59 11.4
1 6 1 69.39 8.6
8 -2 -1 509.15 43.5
-2 -6 -1 475.95 42.6
-6 8 -1 512.25 44.1
-2 -6 -1 474.65 42
-2 -6 -1 446.16 43
6 -8 1 537.05 43.8
2 6 1 488.45 41.9
-8 2 1 464.35 43.2
2 6 1 481.45 42.8
-8 2 1 477.95 43.2
-3 -6 -1 33.7 6.2
-3 -6 -1 27.9 6.4
9 -3 -1 30.6 6.9
-3 -6 -1 23 7.7
9 -3 -1 21.5 6.2
-6 9 -1 28.3 8.2
6 -9 1 35 8.4
3 6 1 21.2 4.9
-9 3 1 28.8 7.4
3 6 1 21.1 6.3
-9 3 1 29.3 6.8
10 -4 -1 830.32 74.59
-6 10 -1 905.11 76.19
-4 -6 -1 891.51 74.69
-4 -6 -1 766.12 75.09
-4 -6 -1 841.72 74.99
10 -4 -1 874.01 75.49
4 6 1 882.11 74.29
6 -10 1 936.31 75.89
4 6 1 937.61 75.59
-10 4 1 851.81 75.29
-10 4 1 879.31 75.39
11 -5 -1 94.09 12.3
-5 -6 -1 114.49 15.8
-6 11 -1 85.89 14.6
-5 -6 -1 98.59 13.1
-5 -6 -1 86.29 12.4
11 -5 -1 89.29 12.7
5 6 1 102.09 11.9
-11 5 1 94.49 13.4
-11 5 1 90.69 13.1
5 6 1 101.49 14
12 -6 -1 197.58 20.7
-6 -6 -1 195.88 21.1
-6 -6 -1 209.38 20.7
-6 -6 -1 178.28 21.9
12 -6 -1 197.68 19.9
-6 12 -1 190.68 23
6 6 1 176.98 19.6
-12 6 1 200.18 21.1
6 -12 1 186.68 22.1
6 6 1 209.68 21.4
-12 6 1 187.88 20.7
-6 13 -1 63.29 12.7
-7 -6 -1 32.3 10
-7 -6 -1 39.5 8.6
13 -7 -1 50.39 8.9
13 -7 -1 50.09 9.1
-7 -6 -1 49.8 10.2
-13 7 1 58.19 10.5
7 6 1 41.2 8
-13 7 1 51.09 10.4
6 -13 1 38.5 10.3
7 6 1 37.9 9.9
-7 -5 -1 20.5 6.3
12 -7 -1 19.3 5.9
12 -7 -1 23.5 6.6
-7 -5 -1 17.4 7.2
-12 7 1 33.3 8
7 5 1 23.6 6.2
-12 7 1 16.7 5.9
7 5 1 11.9 6.9
-4 11 -1 27.5 10.1
-7 -4 -1 37.8 7.9
-7 -4 -1 61.49 10.4
11 -7 -1 35.2 7
11 -7 -1 29.8 7.2
4 -11 1 39.1 10.5
7 4 1 33.4 8.2
7 4 1 25.4 6.9
-11 7 1 44.3 8.2
-11 7 1 32.2 7.8
-7 -3 -1 365.56 36.2
10 -7 -1 414.56 35.3
-7 -3 -1 395.86 35.9
10 -7 -1 390.26 34.4
-3 10 -1 376.86 37
-10 7 1 403.86 35.3
-10 7 1 362.86 35.1
3 -10 1 411.96 37.7
7 3 1 376.16 35.2
7 3 1 381.56 36.1
-7 -2 -1 221.98 21.8
9 -7 -1 233.88 20.9
-7 -2 -1 213.58 22.4
-2 9 -1 188.88 22.9
9 -7 -1 210.98 19.9
7 2 1 205.18 21
-9 7 1 210.78 20.8
7 2 1 227.18 22.1
2 -9 1 181.08 22.9
-9 7 1 230.68 20.9
-1 8 -1 78.19 11.6
8 -7 -1 69.39 9.1
8 -7 -1 65.89 8
-7 -1 -1 59.59 10
-7 -1 -1 71.69 10.8
-8 7 1 61.99 8.7
-8 7 1 50.19 8
1 -8 1 60.99 11.3
7 1 1 61.79 10
7 1 1 53.09 8.6
7 -7 -1 497.95 41.8
7 -7 -1 537.25 42.6
-7 0 -1 514.75 44.2
-7 0 -1 476.65 43.8
0 7 -1 459.45 44.3
7 0 1 484.25 43.8
0 -7 1 459.55 44.3
-7 7 1 480.95 42.5
7 0 1 481.15 43.4
0 -7 1 513.45 43.4
6 -7 -1 72.29 8.5
6 -7 -1 62.29 7.3
-7 1 -1 80.59 11
1 6 -1 86.09 12.2
-7 1 -1 81.59 11.3
7 -1 1 61.49 9.3
-6 7 1 55.19 8.7
-1 -6 1 77.59 11.5
-1 -6 1 98.69 10.4
7 -1 1 77.29 10.6
2 5 -1 131.49 16.1
-7 2 -1 135.79 15.5
2 5 -1 129.79 14.4
5 -7 -1 131.79 12.5
-2 -5 1 140.09 14.5
-5 7 1 109.89 13.9
7 -2 1 144.69 15.1
-2 -5 1 123.29 16.2
7 -2 1 149.79 14.7
3 4 -1 88.89 11.2
-7 3 -1 91.89 12
-3 -4 1 80.69 12.3
7 -3 1 113.89 12.2
7 -3 1 116.69 11.9
-4 7 1 66.69 10
-3 -4 1 88.09 11.4
-7 4 -1 82.39 11.9
3 -7 -1 69.59 8
3 -7 -1 76.69 7.9
4 3 -1 98.49 11.1
-4 -3 1 101.49 12.8
7 -4 1 78.89 10.8
7 -4 1 84.29 11.4
-4 -3 1 82.79 11
2 -7 -1 119.49 12.8
5 2 -1 161.78 14.8
2 -7 -1 124.89 12.4
-7 5 -1 115.09 14.9
-2 7 1 129.79 14.4
-5 -2 1 160.38 14.9
7 -5 1 117.99 14.8
1 -7 -1 67.99 10.5
-7 6 -1 98.59 12.7
1 -7 -1 81.19 10.7
6 1 -1 86.39 11.5
1 -7 -1 76.59 8.3
-6 -1 1 85.59 11.2
-6 -1 1 80.99 11.3
7 -6 1 99.89 12.1
-1 7 1 88.09 11.2
0 -7 -1 512.65 44.3
0 -7 -1 541.45 43.8
-7 7 -1 546.55 45.9
7 0 -1 532.85 45.6
0 -7 -1 488.85 44.7
-7 0 1 516.05 45.5
0 7 1 505.85 45
-7 0 1 441.66 45.1
0 7 1 499.35 43.5
7 -7 1 549.35 45.7
-7 8 -1 68.39 10.9
-1 -7 -1 75.79 10.5
-1 -7 -1 65.19 8.3
-1 -7 -1 59.69 8.9
8 -1 -1 70.29 10.5
1 7 1 62.69 8
-8 1 1 59.59 9.3
1 7 1 68.29 10.6
7 -8 1 84.99 11.7
-8 1 1 63.09 10.1
-2 -7 -1 226.58 20.3
9 -2 -1 196.78 21.5
-2 -7 -1 199.58 21.6
-7 9 -1 233.08 22.7
-2 -7 -1 219.78 21.1
2 7 1 221.88 19.9
7 -9 1 227.18 22.3
-9 2 1 212.08 21.9
-9 2 1 202.28 21.7
2 7 1 194.38 21.5
10 -3 -1 396.26 36.7
-3 -7 -1 420.06 36.1
-3 -7 -1 391.06 37.5
-7 10 -1 463.15 38.7
10 -3 -1 393.66 38.3
-3 -7 -1 370.66 36.6
-10 3 1 370.96 37.1
7 -10 1 470.55 38.1
3 7 1 391.06 37
3 7 1 404.26 35.8
-10 3 1 396.66 37.4
-4 -7 -1 24.4 7.4
-4 -7 -1 56.79 8.6
-4 -7 -1 25.6 9.2
-7 11 -1 48 10.3
11 -4 -1 45.6 8.7
11 -4 -1 27.9 7.4
4 7 1 44.9 7.3
4 7 1 35.5 8.6
-11 4 1 40.8 8.8
-11 4 1 36.5 8.8
-5 -7 -1 15.3 8.1
-5 -7 -1 22.1 6.4
-7 12 -1 27.4 9.5
-5 -7 -1 38.9 8.4
12 -5 -1 15.7 6
12 -5 -1 21.1 6.6
-12 5 1 32.2 8.9
5 7 1 18.2 7.3
5 7 1 23.8 6
7 -12 1 25.4 8.5
-12 5 1 36.4 8.7
-6 -7 -1 56.69 10.2
13 -6 -1 31.1 8.6
-7 13 -1 53.19 11.5
13 -6 -1 41.2 9.9
-6 -7 -1 50.59 10.3
-6 -7 -1 31.8 10
-13 6 1 35 9
6 7 1 34.6 9.4
-13 6 1 48.5 10.2
6 7 1 58.49 9.7
7 -13 1 54.39 10.9
-7 14 -1 38.8 11.7
-7 -7 -1 34 8.2
-7 -7 -1 36.8 10.7
14 -7 -1 37 8.7
14 -7 -1 30.2 8.2
-7 -7 -1 34.1 9.1
7 -14 1 47.8 10.6
7 7 1 30.5 8.9
-14 7 1 43.7 9.5
-14 7 1 43.9 9.7
7 7 1 43.3 8
-8 -7 -1 33.3 10.8
15 -8 -1 64.49 11.2
-8 -7 -1 36.6 10
-7 15 -1 47.5 11.8
15 -8 -1 44.5 9.4
-8 -7 -1 40 10
8 7 1 27.2 7.5
-15 8 1 26.2 8.3
8 7 1 38.3 10.5
7 -15 1 47.9 11.3
-15 8 1 49.8 10.7
14 -8 -1 347.57 33.4
14 -8 -1 346.97 33.1
-8 -6 -1 349.67 34.1
-8 -6 -1 354.76 33.2
-6 14 -1 304.17 34.7
-8 -6 -1 328.07 34.1
-14 8 1 353.36 33.3
8 6 1 328.37 32.2
-14 8 1 305.07 32.7
8 6 1 380.36 34.1
6 -14 1 348.87 34.2
-8 -5 -1 106.69 15.2
13 -8 -1 109.79 13.5
13 -8 -1 86.39 12.3
-8 -5 -1 105.59 14
-5 13 -1 73.69 14.9
8 5 1 85.79 12.3
-13 8 1 108.99 15.1
5 -13 1 98.29 15.2
-13 8 1 80.19 13.4
8 5 1 87.89 14
12 -8 -1 121.89 14
12 -8 -1 138.09 14.9
-4 12 -1 132.99 18.5
-8 -4 -1 122.29 15.7
-8 -4 -1 114.09 16.2
-12 8 1 111.29 15.1
-12 8 1 115.99 14.8
8 4 1 130.99 16
4 -12 1 120.49 17.4
8 4 1 124.69 15.1
11 -8 -1 16.6 5.4
11 -8 -1 10.8 4.8
-3 11 -1 9.7 7.9
-8 -3 -1 10.6 6.5
-8 -3 -1 18.6 6.6
-11 8 1 12.3 5.3
8 3 1 1.3 5.6
-11 8 1 5.4 5.4
8 3 1 5.2 4.8
3 -11 1 -1.1 7
-2 10 -1 895.11 83.29
10 -8 -1 1066.99 81.99
-8 -2 -1 987.2 82.89
10 -8 -1 955.3 80.99
-8 -2 -1 928.81 82.99
-10 8 1 956.1 81.69
-10 8 1 921.61 81.69
8 2 1 940.11 82.79
-8 -1 -1 8.6 6.4
9 -8 -1 7.7 4.2
-8 -1 -1 18.7 5.2
-1 9 -1 21.7 8.1
9 -8 -1 8.2 4.5
1 -9 1 10.7 4.9
8 1 1 11.4 6.7
1 -9 1 25.1 8.7
8 1 1 10.1 5.1
-9 8 1 8.6 5
0 8 -1 990.6 85.89
8 -8 -1 1084.09 84.09
-8 0 -1 1059.89 85.69
-8 0 -1 930.91 85.49
8 -8 -1 1053.19 83.39
-8 8 1 959.9 83.99
0 -8 1 925.51 85.79
8 0 1 969 85.29
8 0 1 954.4 84.89
0 -8 1 988.8 84.69
1 7 -1 70.29 11.4
7 -8 -1 62.19 8.3
-8 1 -1 50.69 8.7
-8 1 -1 64.09 10.5
7 -8 -1 54.59 7.3
8 -1 1 67.49 10.4
-1 -7 1 91.99 10.4
-1 -7 1 78.19 11.7
-7 8 1 59.49 8.9
8 -1 1 63.29 10
-8 2 -1 432.46 39.8
6 -8 -1 413.46 37
6 -8 -1 442.86 37.5
-8 2 -1 467.25 39.8
2 6 -1 441.06 39
2 6 -1 440.56 40.2
8 -2 1 430.76 39.4
-2 -6 1 449.95 39.1
-6 8 1 423.56 38
-2 -6 1 409.96 40.1
8 -2 1 470.65 39.4
5 -8 -1 376.46 33.3
3 5 -1 411.86 35.6
-8 3 -1 379.26 36
5 -8 -1 379.46 33.6
8 -3 1 409.76 35.9
8 -3 1 438.96 35.9
-3 -5 1 393.66 36.7
-3 -5 1 414.76 35.6
-5 8 1 364.86 34.3
4 4 -1 137.09 15.5
-8 4 -1 155.08 16.4
4 -8 -1 128.59 12.8
-4 -4 1 147.39 15.6
8 -4 1 137.89 15.7
-4 -4 1 156.78 17.3
-4 8 1 131.59 14.6
8 -4 1 153.48 15.6
3 -8 -1 384.36 34.1
3 -8 -1 354.06 34.2
-8 5 -1 382.66 36.5
5 3 -1 451.05 36.4
-3 8 1 404.96 35.5
8 -5 1 394.56 36.2
-5 -3 1 386.56 36
8 -5 1 473.45 36.6
-8 6 -1 379.96 40
2 -8 -1 425.36 38.5
6 2 -1 460.05 40.1
2 -8 -1 460.55 37.7
2 -8 -1 443.76 39.1
-6 -2 1 423.56 39.9
8 -6 1 480.65 40.1
-6 -2 1 460.15 40.1
-2 8 1 469.85 39.5
7 1 -1 60.19 9.5
1 -8 -1 55.59 7.3
1 -8 -1 55.49 8.2
1 -8 -1 79.59 9.4
-8 7 -1 77.59 11.5
-7 -1 1 80.59 11.1
-1 8 1 73.59 10.3
8 -7 1 57.29 9.5
-7 -1 1 46.4 9.4
-8 8 -1 1117.39 89.39
0 -8 -1 1074.89 87.19
0 -8 -1 989.2 88.09
0 -8 -1 1026 87.79
8 0 -1 1075.39 89.09
0 8 1 1016.2 86.99
8 -8 1 1147.69 89.09
0 8 1 987 88.39
-8 0 1 923.81 88.69
-8 0 1 1036.3 89.09
-8 9 -1 16.3 7.3
-1 -8 -1 12.8 4
-1 -8 -1 17.3 5.4
9 -1 -1 14.2 6.9
-1 -8 -1 7.9 6.4
1 8 1 15.1 4
-9 1 1 17.4 5.9
8 -9 1 1.3 5.8
1 8 1 16.5 6.8
-9 1 1 5.4 5.8
-2 -8 -1 946.41 84.69
-2 -8 -1 929.61 84.09
10 -2 -1 1019.2 85.19
-8 10 -1 1059.39 85.59
-2 -8 -1 1034 83.69
2 8 1 885.81 84.49
-10 2 1 947.61 85.09
8 -10 1 1075.39 85.69
-10 2 1 1004.2 85.29
2 8 1 967 83.29
-3 -8 -1 6 7.1
-8 11 -1 0.6 6.8
11 -3 -1 7.6 5.8
-3 -8 -1 6.7 5.5
11 -3 -1 9.3 5.6
-3 -8 -1 4.8 4.4
-11 3 1 6.4 5.4
3 8 1 7.6 4.2
-11 3 1 12.9 6.4
8 -11 1 16.1 8.3
-4 -8 -1 124.59 15.2
12 -4 -1 128.69 15.6
-8 12 -1 157.68 18.4
-4 -8 -1 110.29 14.1
4 8 1 95.69 13.4
8 -12 1 141.69 17
-12 4 1 125.09 16
-12 4 1 126.39 15.9
13 -5 -1 84.99 13
-5 -8 -1 99.89 15.1
-8 13 -1 111.09 16.5
-5 -8 -1 93.99 13
13 -5 -1 88.09 13.1
-5 -8 -1 103.99 14.5
-13 5 1 103.89 14.3
5 8 1 88.69 12.4
8 -13 1 108.89 15.5
-13 5 1 86.79 14.3
14 -6 -1 357.76 33.3
-8 14 -1 350.96 35.2
-6 -8 -1 328.57 33.1
-6 -8 -1 328.67 34.1
-6 -8 -1 351.96 32.7
14 -6 -1 345.57 32.5
6 8 1 324.87 31.8
8 -14 1 335.77 33.7
-14 6 1 348.37 33.7
-14 6 1 332.77 33.4
15 -7 -1 51.79 10.7
-7 -8 -1 36.2 8.7
-8 15 -1 32.7 11.8
15 -7 -1 35.3 8.8
-7 -8 -1 54.99 12.7
-7 -8 -1 38.2 9.6
8 -15 1 47.3 11
-15 7 1 36.3 9.5
-15 7 1 32.2 9.5
7 8 1 32.9 7.9
-8 -8 -1 223.18 21.5
-8 -8 -1 177.08 21.4
-8 -8 -1 158.58 22.1
-8 16 -1 158.48 23.6
16 -8 -1 162.48 20.4
16 -8 -1 171.58 20.4
-16 8 1 186.68 21.8
8 8 1 166.58 19.6
-16 8 1 171.88 21.5
8 -16 1 215.78 23.2
-9 -8 -1 21.7 9.9
17 -9 -1 21.5 7.9
17 -9 -1 24 8.1
-9 -8 -1 23.3 8.2
-8 17 -1 23 11.7
8 -17 1 23.2 10
-17 9 1 19.4 8.9
-17 9 1 16.7 9.5
9 8 1 22.8 7.5
-9 -7 -1 14.3 9.2
16 -9 -1 17.8 6.4
-9 -7 -1 16.6 8.2
-7 16 -1 8.2 9.3
16 -9 -1 18.1 6.9
-9 -7 -1 9.1 6.7
-16 9 1 16.7 7.8
-16 9 1 8 6.6
7 -16 1 11.2 9.5
9 7 1 6.2 5.6
-9 -6 -1 72.39 12.4
-6 15 -1 76.89 14.9
15 -9 -1 69.49 11.7
-9 -6 -1 67.29 13.4
15 -9 -1 73.99 13.2
-9 -6 -1 82.49 14.3
9 6 1 55.79 11
-15 9 1 47.3 11.7
6 -15 1 74.19 14.2
-15 9 1 61.19 12
9 6 1 69.39 12.7
14 -9 -1 10.6 5.5
14 -9 -1 9.1 5.4
-9 -5 -1 5.7 6
-5 14 -1 15.3 9.3
-9 -5 -1 -1.2 6.8
-14 9 1 11.5 6.8
9 5 1 7 5.3
9 5 1 -5.4 5.7
-14 9 1 8.9 5.3
5 -14 1 15.9 8.7
-4 13 -1 51.89 12
-9 -4 -1 61.49 11.8
13 -9 -1 61.99 9.5
-9 -4 -1 39.1 10.4
13 -9 -1 60.09 10.2
9 4 1 44.3 10.6
-13 9 1 55.99 10.7
-13 9 1 43.5 8.8
9 4 1 60.39 10
4 -13 1 54.89 12.6
-3 12 -1 72.39 14
-9 -3 -1 92.99 14.1
12 -9 -1 92.39 11
-9 -3 -1 76.59 12.3
12 -9 -1 58.79 14.6
9 3 1 73.19 12.3
9 3 1 71.09 11.2
-12 9 1 70.89 11.5
-12 9 1 68.29 10.9
3 -12 1 109.59 15.6
11 -9 -1 6.9 5.1
-2 11 -1 15.4 8
11 -9 -1 12.6 4.7
-9 -2 -1 10 6.2
-9 -2 -1 6.9 6.7
2 -11 1 6.5 4.8
2 -11 1 8.6 7.7
-11 9 1 8.8 5.6
9 2 1 6.7 5.1
9 2 1 3.7 6.2
-9 -1 -1 399.06 37.2
-1 10 -1 349.37 37.3
-9 -1 -1 387.76 36.7
10 -9 -1 426.16 35.2
10 -9 -1 394.76 34.4
1 -10 1 375.06 35.6
1 -10 1 361.76 37.6
9 1 1 416.76 36.9
9 1 1 356.26 35.8
-10 9 1 405.16 35.3
9 -9 -1 289.87 25.8
-9 0 -1 289.97 28.9
9 -9 -1 323.47 26.6
0 9 -1 256.57 28.7
-9 0 -1 290.57 28.4
9 0 1 289.07 27.7
-9 9 1 266.37 26.5
0 -9 1 290.37 27.2
9 0 1 285.57 28.2
0 -9 1 284.47 30
1 8 -1 11.8 7.4
8 -9 -1 8.9 3.6
8 -9 -1 10 4.1
-9 1 -1 3.7 4.8
-9 1 -1 12.6 6.6
-8 9 1 14.3 5.1
-1 -8 1 27 15
9 -1 1 11.6 6.1
-1 -8 1 18.5 5.5
7 -9 -1 198.68 17.7
-9 2 -1 220.18 20.6
-9 2 -1 204.78 20.6
7 -9 -1 181.98 17.1
2 7 -1 172.38 20.6
-7 9 1 191.98 18.5
9 -2 1 173.68 19.6
-2 -7 1 190.38 21.4
9 -2 1 196.88 21.9
-2 -7 1 172.68 19
3 6 -1 12.4 7.2
3 6 -1 17.4 5.8
6 -9 -1 21.3 3.9
6 -9 -1 19.5 4
-9 3 -1 23.5 7.2
-3 -6 1 28.5 8.6
9 -3 1 20.6 6.2
-6 9 1 26.6 5.7
9 -3 1 22.3 6.7
-3 -6 1 23.7 5.7
5 -9 -1 26 4.1
-9 4 -1 18.3 6.7
4 5 -1 20.1 6
-4 -5 1 20.3 6.1
-4 -5 1 38.9 9.2
9 -4 1 19.1 5.7
9 -4 1 17 6.6
-5 9 1 24.6 5.9
4 -9 -1 17 4.2
-9 5 -1 32.7 7.5
5 4 -1 22.8 6.4
4 -9 -1 25 4.7
-5 -4 1 15.4 5.7
9 -5 1 17 5.9
-4 9 1 22.1 6.2
-5 -4 1 20.8 7.4
9 -5 1 20.3 6.6
3 -9 -1 29.7 4.1
-9 6 -1 18 6.8
3 -9 -1 22.1 4.9
3 -9 -1 18 4.9
6 3 -1 37.6 7.5
-6 -3 1 22 6.4
9 -6 1 33.2 7.1
-6 -3 1 19.5 5.8
-3 9 1 33.7 7.5
9 -6 1 28.7 6.2
2 -9 -1 177.08 18.7
7 2 -1 200.88 20.5
2 -9 -1 192.98 18
2 -9 -1 188.18 17.3
-9 7 -1 208.58 20.8
-7 -2 1 186.88 20
-7 -2 1 188.58 20.1
9 -7 1 192.68 20.1
-2 9 1 202.88 20
8 1 -1 11.4 5.9
1 -9 -1 12.8 4.5
1 -9 -1 14.9 6
-9 8 -1 8.1 6.5
1 -9 -1 8.2 3.3
-8 -1 1 6.9 5.4
-1 9 1 9.4 6.1
9 -8 1 15.5 6.3
-8 -1 1 14.4 5.5
-9 9 -1 321.07 29
0 -9 -1 281.27 26.8
0 -9 -1 286.77 27.7
9 0 -1 291.57 28.4
0 -9 -1 302.27 26.1
-9 0 1 278.67 28.5
-9 0 1 257.17 28.3
0 9 1 294.47 28.1
9 -9 1 311.17 28.9
-9 10 -1 429.66 37.8
-1 -9 -1 387.16 35.7
10 -1 -1 411.26 37.2
-1 -9 -1 380.36 36.7
-1 -9 -1 400.36 34.9
9 -10 1 333.67 42.7
1 9 1 390.56 34.7
-10 1 1 385.26 37.1
1 9 1 389.16 36.9
-10 1 1 421.76 37.4
-2 -9 -1 10.8 4.7
-9 11 -1 4.9 6.9
-2 -9 -1 10.6 5.3
-2 -9 -1 4.7 6.6
11 -2 -1 11.9 6.2
-11 2 1 11 6.7
-11 2 1 3 5.6
9 -11 1 17.5 7.5
2 9 1 -4.7 5.8
2 9 1 4.9 3.9
-3 -9 -1 80.59 11.9
-3 -9 -1 87.69 11.1
-3 -9 -1 79.49 15.4
12 -3 -1 81.89 12.8
12 -3 -1 60.59 11.6
-9 12 -1 80.99 14
9 -12 1 87.99 13.6
-12 3 1 67.59 11.6
-12 3 1 67.89 12.4
3 9 1 87.69 10.5
-4 -9 -1 40.4 11.2
-4 -9 -1 63.69 10.9
-4 -9 -1 57.49 9.4
13 -4 -1 51.79 10.7
13 -4 -1 50.19 10
-9 13 -1 66.59 13.2
-13 4 1 61.59 11.8
4 9 1 52.89 9.1
-13 4 1 62.09 11.4
9 -13 1 57.39 11.2
-5 -9 -1 3.2 5.2
-9 14 -1 32.2 10
14 -5 -1 12.9 6.5
14 -5 -1 22.2 7
-5 -9 -1 0.8 5.8
-5 -9 -1 7.1 7.8
5 9 1 13.6 5.1
-14 5 1 -0.5 6.4
9 -14 1 19.4 8.1
-14 5 1 5.8 6.3
-6 -9 -1 56.39 12.8
-6 -9 -1 72.39 12.7
15 -6 -1 59.59 11.3
15 -6 -1 66.69 11.7
-9 15 -1 73.19 14.7
-6 -9 -1 75.99 12.4
-15 6 1 54.89 11
-15 6 1 79.99 14.2
9 -15 1 65.39 13.2
6 9 1 81.59 11.8
-7 -9 -1 -8.7 7.4
-7 -9 -1 0.5 5.2
-7 -9 -1 14.7 7.6
16 -7 -1 25.7 7.7
-9 16 -1 14 9.6
16 -7 -1 15 6.8
-16 7 1 3.9 5.7
7 9 1 -0.8 4.6
-16 7 1 15.7 8.6
9 -16 1 15.7 8.3
-9 17 -1 6.7 9.7
17 -8 -1 25.2 8.7
-8 -9 -1 14.2 8.4
-8 -9 -1 30.1 11.2
-8 -9 -1 13 7.4
17 -8 -1 30.4 8.9
9 -17 1 9.4 9
-17 8 1 15.6 7.6
8 9 1 15.5 6.4
-9 -9 -1 7.5 8
18 -9 -1 7.7 6.6
-9 -9 -1 10.3 9.5
18 -9 -1 15.9 7.5
-9 18 -1 26.5 10.7
-9 -9 -1 -9.7 5.9
-18 9 1 11.6 8.8
-18 9 1 8.9 7.1
9 -18 1 16.1 9.4
9 9 1 3.6 5.1
-9 19 -1 26.8 11.8
19 -10 -1 27.4 9.7
-10 -9 -1 23.2 11.3
-10 -9 -1 5.4 6.9
-10 -9 -1 23.5 10.2
19 -10 -1 13 7.9
-19 10 1 10.7 9.5
-19 10 1 27.2 9.9
9 -19 1 24 10.8
10 9 1 33.8 9.1
-10 -8 -1 156.98 32.1
18 -10 -1 169.78 19.4
-10 -8 -1 156.48 22.2
18 -10 -1 186.18 20.6
-8 18 -1 160.28 24.2
-10 -8 -1 162.18 21.6
10 8 1 117.69 18.3
-18 10 1 171.68 20.6
-18 10 1 146.79 21.3
8 -18 1 158.88 21.9
-7 17 -1 33.2 11.8
-10 -7 -1 30.9 11.5
-10 -7 -1 53.19 11.3
17 -10 -1 46.4 10.6
17 -10 -1 43 9.7
-10 -7 -1 54.19 12.2
-17 10 1 58.69 12.4
10 7 1 41.5 9.6
-17 10 1 50.09 13.1
7 -17 1 42.7 12.9
16 -10 -1 266.87 26.6
-6 16 -1 249.97 33.9
-10 -6 -1 292.27 29.6
-10 -6 -1 278.87 29.4
-10 -6 -1 285.87 28.6
16 -10 -1 266.17 27.5
10 6 1 267.17 28.7
6 -16 1 287.77 29.7
-16 10 1 229.18 27.4
-16 10 1 247.68 27.6
10 6 1 250.17 26.9
-5 15 -1 75.69 15.5
15 -10 -1 85.39 13.1
-10 -5 -1 87.99 13.6
-10 -5 -1 101.29 16.4
15 -10 -1 95.39 18.6
5 -15 1 103.89 16.8
-15 10 1 84.89 14
10 5 1 91.19 14.8
10 5 1 83.99 13.4
14 -10 -1 360.86 33.7
-10 -4 -1 386.56 36.7
14 -10 -1 375.26 34.7
-10 -4 -1 339.47 35.5
-4 14 -1 341.87 37
10 4 1 339.17 34.6
10 4 1 385.36 36.1
-14 10 1 403.06 35.3
4 -14 1 353.56 37
-10 -3 -1 10.8 5.8
13 -10 -1 -2.9 4
-10 -3 -1 -3.8 5.8
13 -10 -1 3.4 4.9
-3 13 -1 -1.3 7.6
-13 10 1 -2.8 4.9
10 3 1 5.2 6.2
10 3 1 9.1 5.4
3 -13 1 5.4 8.4
-2 12 -1 512.65 50.99
-10 -2 -1 585.34 50.79
12 -10 -1 527.05 50.69
12 -10 -1 586.54 48.2
-10 -2 -1 564.84 50.99
10 2 1 615.74 50.79
2 -12 1 483.25 50.69
2 -12 1 535.95 49.2
-12 10 1 531.95 49.1
10 2 1 560.64 49.8
-10 -1 -1 189.88 19.2
-10 -1 -1 171.78 19.6
11 -10 -1 163.48 16
11 -10 -1 147.09 16.6
-1 11 -1 154.18 20
10 1 1 158.18 18.8
-11 10 1 145.39 16.9
10 1 1 155.68 17.8
1 -11 1 179.68 20.7
1 -11 1 105.59 16.6
10 -10 -1 1464.75 117.69
0 10 -1 1374.16 120.49
10 -10 -1 1505.65 118.39
-10 0 -1 1361.06 120.29
-10 0 -1 1447.16 120.29
0 -10 1 1374.16 118.89
10 0 1 1312.37 119.69
-10 10 1 1384.86 118.59
10 0 1 1474.45 119.59
0 -10 1 1317.57 120.19
-10 1 -1 400.36 35.2
9 -10 -1 389.96 32.6
9 -10 -1 375.26 31.8
-10 1 -1 355.16 35
1 9 -1 334.17 35.2
-1 -9 1 359.36 33.6
-1 -9 1 375.66 35.7
10 -1 1 318.47 33.9
-9 10 1 345.67 32.9
10 -1 1 365.36 34
-10 2 -1 859.21 77.19
-10 2 -1 976.4 77.69
2 8 -1 866.81 77.49
8 -10 -1 878.01 74.49
8 -10 -1 943.21 75.09
-2 -8 1 885.21 77.69
-2 -8 1 891.61 76.29
10 -2 1 795.52 76.49
-8 10 1 902.31 75.69
10 -2 1 855.11 76.49
3 7 -1 403.26 35.4
7 -10 -1 342.97 31.5
-10 3 -1 410.66 34.9
7 -10 -1 353.36 31.9
-10 3 -1 356.46 34.6
3 7 -1 345.37 33.7
-3 -7 1 374.06 33.7
10 -3 1 371.66 34.4
-3 -7 1 364.46 35.5
-7 10 1 357.06 32.9
4 6 -1 801.12 65.49
6 -10 -1 687.23 63.09
-10 4 -1 699.13 65.79
10 -4 1 796.32 66.09
-4 -6 1 778.52 66.59
-4 -6 1 759.22 65.29
10 -4 1 778.92 65.59
-6 10 1 730.13 64.39
-10 5 -1 242.38 25.5
5 -10 -1 223.28 22.4
5 5 -1 285.27 25.7
10 -5 1 278.07 25.5
-5 -5 1 263.97 24.8
-5 -5 1 249.88 26.3
-5 10 1 254.27 24.4
6 4 -1 684.63 68.89
-10 6 -1 724.33 66.49
4 -10 -1 703.23 64.09
4 -10 -1 714.93 63.99
-4 10 1 781.92 65.59
-6 -4 1 786.92 66.49
-6 -4 1 816.52 66.29
-6 -4 1 817.02 67.29
10 -6 1 819.52 67.59
7 3 -1 408.56 34.7
3 -10 -1 337.57 32.5
-10 7 -1 348.07 34.5
3 -10 -1 344.97 32.2
3 -10 -1 393.96 31.8
-7 -3 1 383.46 34.5
10 -7 1 319.57 35.6
-7 -3 1 378.66 34.7
-3 10 1 397.36 34.2
2 -10 -1 870.71 76.69
8 2 -1 956 78.29
2 -10 -1 876.91 76.09
2 -10 -1 870.51 76.19
-10 8 -1 1017.4 78.79
-2 10 1 873.61 77.49
10 -8 1 779.12 82.69
-8 -2 1 932.41 78.39
-8 -2 1 914.01 78.19
1 -10 -1 377.36 33.8
1 -10 -1 378.16 34.6
-10 9 -1 404.56 37
9 1 -1 385.56 36.6
1 -10 -1 375.26 35.5
-9 -1 1 387.36 36.6
-1 10 1 369.16 36
10 -9 1 409.66 36.9
-9 -1 1 424.66 37
0 -10 -1 1441.56 122.69
-10 10 -1 1586.84 124.59
0 -10 -1 1491.15 121.99
0 -10 -1 1436.46 123.19
-10 0 1 1405.46 124.19
10 -10 1 1533.55 123.79
-10 0 1 1354.06 124.19
0 10 1 1389.46 123.49
-1 -10 -1 170.38 19.5
-1 -10 -1 169.18 17.4
-1 -10 -1 160.88 16.4
11 -1 -1 158.28 18.8
-10 11 -1 183.28 20.1
-11 1 1 144.79 19
-11 1 1 171.38 19.5
1 10 1 147.99 19.2
1 10 1 144.29 16.1
10 -11 1 156.88 18.5
12 -2 -1 543.65 51.99
-2 -10 -1 583.24 50.19
-2 -10 -1 552.94 50.89
-10 12 -1 664.63 53.19
-2 -10 -1 559.64 51.99
-12 2 1 542.55 52.29
-12 2 1 541.65 52.19
2 10 1 575.84 52.09
10 -12 1 619.34 51.99
2 10 1 563.74 49.9
13 -3 -1 1.4 4.5
-3 -10 -1 -0.8 5
-3 -10 -1 -6.9 6.2
-10 13 -1 14.6 8.3
-3 -10 -1 -3.3 3.5
10 -13 1 -7.4 5.3
-13 3 1 5.1 4.9
3 10 1 1.7 4
-13 3 1 -4.3 6
14 -4 -1 356.26 35.8
-4 -10 -1 350.16 36.1
-4 -10 -1 367.16 35
-4 -10 -1 354.86 34.1
-10 14 -1 422.56 37.4
14 -4 -1 338.17 34.7
4 10 1 376.96 36.4
-14 4 1 385.06 36.6
-14 4 1 335.67 35.9
10 -14 1 398.06 36.1
15 -5 -1 88.19 14.1
-5 -10 -1 89.09 15.6
-5 -10 -1 88.79 13
15 -5 -1 92.89 14.1
-5 -10 -1 79.99 13.8
-10 15 -1 109.89 17.5
10 -15 1 91.69 15
5 10 1 92.49 12.4
-15 5 1 85.99 15.2
-15 5 1 107.29 17.2
16 -6 -1 252.17 26.8
-6 -10 -1 224.98 28.5
-6 -10 -1 274.47 27.7
-10 16 -1 299.27 30.5
-6 -10 -1 260.67 26.6
16 -6 -1 254.47 27.7
-16 6 1 233.28 27.9
-16 6 1 242.28 32.1
6 10 1 270.77 25.8
10 -16 1 256.17 28.1
-10 17 -1 46.1 13.4
-7 -10 -1 50.89 13.4
-7 -10 -1 40.5 11.2
17 -7 -1 43.3 10.4
-7 -10 -1 46.4 10.6
17 -7 -1 52.79 11
10 -17 1 59.09 12.5
7 10 1 43.9 9.2
-17 7 1 43.5 11.1
-17 7 1 64.69 14
18 -8 -1 168.18 19.4
-10 18 -1 156.38 22.8
-8 -10 -1 134.19 19
-8 -10 -1 153.08 19.9
18 -8 -1 148.49 19.6
-8 -10 -1 150.18 21.7
8 10 1 137.09 17.9
-18 8 1 164.98 20.7
-18 8 1 157.18 21.4
10 -18 1 149.59 21.2
19 -9 -1 15.7 7.7
-9 -10 -1 15 11.3
19 -9 -1 31.3 9.3
-9 -10 -1 16.7 9
-10 19 -1 17.3 11.5
9 10 1 17.9 6.6
10 -19 1 11.5 9.8
-19 9 1 8.9 8
-19 9 1 21.8 9.7
20 -10 -1 164.78 22
-10 -10 -1 178.48 23.1
-10 -10 -1 191.58 22.7
-10 -10 -1 185.28 25.9
-10 20 -1 161.38 25.5
20 -10 -1 190.28 21.8
-20 10 1 174.58 23.7
-20 10 1 161.08 22.7
10 10 1 167.38 20.6
10 -20 1 193.88 24.2
21 -11 -1 9.5 7.2
-11 -10 -1 -3.7 10.5
-11 -10 -1 13.2 9.2
-10 21 -1 1.8 10.1
21 -11 -1 7.2 6.7
-11 -10 -1 14 9.1
-21 11 1 13.9 9.6
10 -21 1 -0.2 8.9
11 10 1 3.7 5.8
20 -11 -1 60.69 11.2
-11 -9 -1 30.4 11.4
-11 -9 -1 48.4 13.4
20 -11 -1 58.89 11.1
-11 -9 -1 30.1 11.1
-9 20 -1 27.3 13.2
9 -20 1 41 12.4
11 9 1 36.2 9.3
-20 11 1 30.1 11
-11 -8 -1 8.5 9.8
-8 19 -1 8.5 10
19 -11 -1 3 5.9
19 -11 -1 8.9 7.1
-11 -8 -1 4.2 6.6
-11 -8 -1 15.7 9
8 -19 1 0.1 8.5
11 8 1 7.3 5.8
-19 11 1 18.1 8.6
-11 -7 -1 71.19 14.7
18 -11 -1 52.19 10.9
-11 -7 -1 35.8 11.8
18 -11 -1 47.1 10.1
-7 18 -1 36.3 13.4
-11 -7 -1 60.69 13.6
7 -18 1 64.79 14.4
11 7 1 57.49 11.2
-18 11 1 63.99 13
17 -11 -1 3.2 5.7
-11 -6 -1 -1.4 6.5
-11 -6 -1 -6.5 7.5
-11 -6 -1 -12.6 8.7
17 -11 -1 0.3 5.5
-6 17 -1 -1.8 8.1
11 6 1 4.8 7.2
6 -17 1 8.3 9.5
-17 11 1 -4.1 6.5
11 6 1 3.1 5.4
16 -11 -1 50.49 10.6
-11 -5 -1 36.9 18.6
-5 16 -1 21.3 19.3
-11 -5 -1 25.9 8.9
16 -11 -1 49.6 9.6
-16 11 1 47.4 10.8
11 5 1 34 8.3
5 -16 1 27.1 11.3
11 5 1 23.1 9.5
-11 -4 -1 -6.9 5.7
15 -11 -1 3.3 5
-4 15 -1 3.7 8.6
-11 -4 -1 1.8 6.3
15 -11 -1 -0.1 4.9
11 4 1 -2.1 4.6
4 -15 1 -0.3 4.7
-15 11 1 0.6 6
11 4 1 15.3 8
4 -15 1 5.7 8.5
-3 14 -1 239.18 28.2
14 -11 -1 264.77 24.3
14 -11 -1 255.37 25.2
-11 -3 -1 253.27 27
-11 -3 -1 243.68 27.2
3 -14 1 216.08 27.7
3 -14 1 232.68 25.1
-14 11 1 250.47 25.8
11 3 1 247.88 25.9
11 3 1 262.57 26.9
-2 13 -1 22.4 9.5
13 -11 -1 8.6 5.3
-11 -2 -1 15.4 8
-11 -2 -1 7.9 6.7
13 -11 -1 10.7 5.7
2 -13 1 -0.1 4.7
2 -13 1 18.2 8.6
11 2 1 10.7 7
11 2 1 4.7 5.1
-13 11 1 17.1 6.6
-11 -1 -1 235.58 25.5
-11 -1 -1 244.58 25.2
12 -11 -1 232.68 22.9
12 -11 -1 227.48 22
-1 12 -1 221.08 25.8
1 -12 1 219.98 23.4
1 -12 1 225.78 25.9
11 1 1 245.58 25
11 1 1 200.08 23.5
-12 11 1 242.78 23.4
-11 0 -1 4.6 6.2
11 -11 -1 3.4 4.1
0 11 -1 3.5 6.9
-11 0 -1 -2.8 4.5
11 -11 -1 6.5 4.1
0 -11 1 -1.6 4.2
0 -11 1 -1 7.4
-11 11 1 9.6 5.8
11 0 1 0.1 5.5
11 0 1 8.2 5.3
10 -11 -1 153.98 16
-11 1 -1 214.98 20.2
1 10 -1 131.49 19.2
-11 1 -1 161.08 19.5
10 -11 -1 157.58 15.3
-1 -10 1 143.49 17.1
11 -1 1 148.79 17.8
-10 11 1 148.19 16.9
11 -1 1 146.69 18.3
-1 -10 1 130.89 20
9 -11 -1 9.8 4.3
-11 2 -1 12.7 7.2
2 9 -1 10.8 7.8
9 -11 -1 10.9 4.1
-11 2 -1 8.7 6.5
-9 11 1 9.3 5.6
-2 -9 1 5.5 4.8
11 -2 1 10.1 5
-2 -9 1 14.3 8.5
11 -2 1 2.7 5.6
-11 3 -1 7.3 5.9
8 -11 -1 11.5 3.9
3 8 -1 12.2 5.4
3 8 -1 -1.6 6.2
8 -11 -1 8.9 3.6
-11 3 -1 12.2 6.8
11 -3 1 10.5 4.8
-8 11 1 12.3 5.6
-3 -8 1 10.7 5.3
-3 -8 1 7.6 7.8
11 -3 1 12.1 6.3
7 -11 -1 26.4 5.3
4 7 -1 40 8.4
-11 4 -1 34.6 9.4
-7 11 1 29 7.5
-4 -7 1 35.8 9.9
11 -4 1 50.29 9.7
11 -4 1 34.1 7.9
-4 -7 1 36.3 7.4
5 6 -1 89.49 13.2
6 -11 -1 66.29 9.7
-11 5 -1 90.99 13.5
-5 -6 1 118.99 16
11 -5 1 91.09 13.3
11 -5 1 88.79 13
-5 -6 1 89.99 12.6
-6 11 1 89.89 12.4
6 5 -1 99.39 13
-11 6 -1 72.99 13.2
5 -11 -1 91.39 10.4
11 -6 1 99.99 12.8
-6 -5 1 91.49 13
-6 -5 1 73.69 13.8
-5 11 1 107.49 13.5
-6 -5 1 91.09 13.1
11 -6 1 70.09 12.6
4 -11 -1 36.4 6.1
-11 7 -1 30.7 8.8
7 4 -1 40.5 8.5
4 -11 -1 42.1 7
11 -7 1 39.8 8.1
-7 -4 1 39.7 8.8
11 -7 1 35.2 8.7
-7 -4 1 27.4 7.8
-4 11 1 38.2 9.2
3 -11 -1 4.3 2.9
3 -11 -1 0.1 5
8 3 -1 7.5 5.7
3 -11 -1 14.5 4.4
-11 8 -1 3.3 6.1
11 -8 1 4.3 6
-8 -3 1 7 5.7
-8 -3 1 9.5 6.1
-3 11 1 -1.6 5.9
11 -8 1 10.4 4.8
2 -11 -1 7 4.2
2 -11 -1 0.8 5.4
-11 9 -1 9.9 7.2
2 -11 -1 10.7 3.6
9 2 -1 17.9 6.6
11 -9 1 16 6
-9 -2 1 13.5 6.4
-2 11 1 2.9 6.5
-9 -2 1 10.9 5.5
11 -9 1 11.6 5.5
1 -11 -1 164.98 18.2
-11 10 -1 159.18 19.2
1 -11 -1 141.39 16
10 1 -1 151.18 18.3
1 -11 -1 152.48 15.2
-10 -1 1 131.29 18
-10 -1 1 162.18 18.7
-1 11 1 150.48 18.5
11 -10 1 166.28 18.2
0 -11 -1 1.2 3.5
0 -11 -1 -6.2 3.8
11 0 -1 -3.7 3.7
0 -11 -1 7 6.4
-11 11 -1 4 6.3
0 11 1 -8.4 5.2
-11 0 1 3.7 5.7
-11 0 1 7.4 6
11 -11 1 4.9 5.9
-1 -11 -1 236.58 22.3
-11 12 -1 233.18 25.7
12 -1 -1 223.38 24.6
-1 -11 -1 252.97 23.5
-1 -11 -1 226.88 24.9
-12 1 1 219.88 25
1 11 1 197.28 24.7
-12 1 1 219.38 25.2
11 -12 1 275.57 25
-2 -11 -1 22.2 5.7
-11 13 -1 14.8 8.2
-2 -11 -1 12.3 6.4
-2 -11 -1 17.4 8.3
13 -2 -1 5.5 6
2 11 1 16.5 5.1
-13 2 1 1.7 5.2
2 11 1 16.1 8
11 -13 1 16.7 7.4
-13 2 1 13.1 7.8
14 -3 -1 236.88 26.4
-3 -11 -1 257.07 24.9
-3 -11 -1 245.88 27.3
-3 -11 -1 249.78 25.9
-11 14 -1 281.77 28.5
-14 3 1 277.37 27.9
-14 3 1 227.08 27
3 11 1 243.08 24.5
11 -14 1 271.27 27
-4 -11 -1 4.3 5
15 -4 -1 3.6 6.9
-4 -11 -1 3.1 6.2
-11 15 -1 -4.5 7.3
15 -4 -1 -7 3.6
-4 -11 -1 -5.7 7.5
-15 4 1 0.2 6.3
11 -15 1 11 7.3
-15 4 1 5.8 7.7
4 11 1 -0.6 4
16 -5 -1 45.8 10.4
-5 -11 -1 32.8 9.7
16 -5 -1 35.9 9.4
-11 16 -1 44.9 15.8
-5 -11 -1 46.6 12.1
-5 -11 -1 46.2 9.2
-16 5 1 49.99 18.8
11 -16 1 56.49 11.3
5 11 1 40.8 8.2
-16 5 1 28.2 9.3
-6 -11 -1 -4 5.9
17 -6 -1 3.9 5.6
-6 -11 -1 -2.4 4.9
17 -6 -1 -0.2 6.1
-11 17 -1 -4.6 8.5
-6 -11 -1 -7.3 7.8
-17 6 1 2.5 7
11 -17 1 5.8 7.8
-17 6 1 -2.8 5.4
6 11 1 -1.8 4.7
18 -7 -1 46.8 10.7
18 -7 -1 48.2 10.8
-11 18 -1 17.9 11.1
-7 -11 -1 42.3 10.4
-7 -11 -1 46.3 12.8
-7 -11 -1 48.2 16.8
7 11 1 42.3 10
-18 7 1 50.29 11.8
-18 7 1 42.9 12.1
11 -18 1 45.3 11.9
-8 -11 -1 0.5 6.4
-11 19 -1 28.9 11.5
19 -8 -1 3 6.3
-8 -11 -1 -3.7 6.8
-8 -11 -1 9.7 10.6
19 -8 -1 11.6 6.4
11 -19 1 8.4 8.4
-19 8 1 12.9 8.8
-19 8 1 6.9 8.5
8 11 1 7.1 5.8
20 -9 -1 40.6 10.3
-9 -11 -1 51.99 14
-11 20 -1 52.39 14.3
-9 -11 -1 41.3 9.9
20 -9 -1 21.3 9.4
-9 -11 -1 50.69 11.8
9 11 1 30.2 8.7
11 -20 1 46.6 12.2
-20 9 1 29.8 10.2
-20 9 1 57.09 13.3
-10 -11 -1 8.6 7.2
21 -10 -1 5 7.5
21 -10 -1 -12.4 5.4
-10 -11 -1 -2.4 7.2
-10 -11 -1 15.4 10.9
-11 21 -1 2.6 9.9
10 11 1 2 5.3
-21 10 1 8.5 7.4
11 -21 1 7.6 9.1
-21 10 1 6.1 9.3
-11 -11 -1 80.29 16.8
-11 -11 -1 84.79 17.5
-11 -11 -1 116.99 20.4
-11 22 -1 89.19 20.4
22 -11 -1 146.29 18.9
11 11 1 92.29 15.9
-12 -11 -1 4.9 12.9
-12 -11 -1 5.5 7.3
-12 -11 -1 0.8 9
23 -12 -1 2.9 7
-11 23 -1 -2.8 10.4
23 -12 -1 -3.4 6
11 -23 1 -7.4 8.4
-23 12 1 3.7 8.6
12 11 1 4.3 6.5
-10 22 -1 199.18 30.7
22 -12 -1 228.88 26.2
-12 -10 -1 185.18 28.6
-12 -10 -1 253.67 28.9
-12 -10 -1 210.28 26.6
22 -12 -1 233.98 25.2
-22 12 1 220.78 28.4
12 10 1 201.88 24.5
10 -22 1 238.08 28.5
-12 -9 -1 37.4 10.2
-12 -9 -1 12.7 10
-9 21 -1 43.2 13.8
-12 -9 -1 15.3 11.5
21 -12 -1 30.5 9.2
21 -12 -1 42.7 10.5
9 -21 1 7.5 10.1
12 9 1 21 7.7
-21 12 1 16.8 10.2
-12 -8 -1 194.38 25.8
-12 -8 -1 190.28 24.5
20 -12 -1 195.38 22.4
-12 -8 -1 174.38 22.7
20 -12 -1 196.28 21.4
-8 20 -1 155.78 25.3
8 -20 1 184.48 24.4
-20 12 1 157.88 23.1
12 8 1 152.48 20.9
19 -12 -1 26.8 8.2
19 -12 -1 23.1 8.1
-7 19 -1 0.7 9.2
-12 -7 -1 13.1 9.8
-12 -7 -1 15.9 8.4
-12 -7 -1 18.7 10.5
7 -19 1 10 10.4
-19 12 1 25.5 10.4
12 7 1 26.1 7.8
-12 -6 -1 122.39 19.5
18 -12 -1 138.09 18.7
-12 -6 -1 132.49 20.4
18 -12 -1 115.89 16.3
-6 18 -1 117.59 20.5
6 -18 1 160.68 21.1
12 6 1 95.39 15.7
12 6 1 131.49 19.9
-18 12 1 125.49 18.2
-5 17 -1 83.99 16.5
17 -12 -1 80.29 12.8
-12 -5 -1 96.19 15.9
-12 -5 -1 88.09 16
17 -12 -1 97.29 14.6
12 5 1 96.59 15.7
-17 12 1 81.29 15
5 -17 1 64.79 15.4
12 5 1 83.69 13.6
5 -17 1 77.69 12.9
16 -12 -1 244.28 23.8
-4 16 -1 197.78 26.3
-12 -4 -1 227.28 26.2
4 -16 1 223.08 27
12 4 1 251.87 25.4
-16 12 1 197.18 23.9
12 4 1 184.48 23.1
4 -16 1 192.48 22.8
15 -12 -1 -2.2 4.4
15 -12 -1 -2 4.8
-12 -3 -1 11.1 6.6
-3 15 -1 -1.7 9.5
3 -15 1 3.5 8.2
3 -15 1 6.9 5.8
12 3 1 -4.5 6.1
12 3 1 -2.5 5
-15 12 1 9.8 7.1
14 -12 -1 311.07 27.9
-2 14 -1 280.37 30.8
14 -12 -1 278.27 26.6
-12 -2 -1 255.37 29.3
-12 -2 -1 300.97 30.5
12 2 1 303.37 29.6
12 2 1 306.47 28.9
2 -14 1 235.78 30.6
2 -14 1 270.07 27.7
-14 12 1 258.87 28.2
-12 -1 -1 49.6 11.3
13 -12 -1 50.39 8
-12 -1 -1 40 10.8
13 -12 -1 39 8.2
-1 13 -1 45.2 12.4
12 1 1 31.9 8.8
-13 12 1 46.7 10.1
1 -13 1 41.3 11.5
12 1 1 40.8 10
1 -13 1 43 8.5
12 -12 -1 478.65 38.6
0 12 -1 383.96 40.9
12 -12 -1 424.96 37.5
-12 0 -1 400.06 40.9
-12 0 -1 445.46 41.1
12 0 1 441.46 40.5
0 -12 1 405.16 41.1
-12 12 1 439.46 39.3
0 -12 1 393.36 38.8
12 0 1 400.56 39.5
11 -12 -1 230.28 21.8
-12 1 -1 222.08 24.9
11 -12 -1 217.18 20.9
-12 1 -1 271.37 25.4
1 11 -1 232.88 25.4
12 -1 1 196.18 23.5
-11 12 1 224.38 22.8
-1 -11 1 201.18 22.7
-1 -11 1 231.48 25.8
12 -1 1 211.18 23.3
2 10 -1 511.45 51.09
-12 2 -1 548.55 50.99
10 -12 -1 564.34 48.3
10 -12 -1 546.85 47.6
-12 2 -1 576.04 51.19
-2 -10 1 552.04 49.5
12 -2 1 561.14 50.19
-2 -10 1 549.74 51.49
-10 12 1 554.84 49.3
12 -2 1 558.04 50.49
9 -12 -1 86.99 10.4
-12 3 -1 81.99 13.8
3 9 -1 80.09 14.6
-12 3 -1 77.29 12.6
9 -12 -1 86.29 9.8
-3 -9 1 81.49 14.4
12 -3 1 72.99 11.9
12 -3 1 82.89 13.3
-9 12 1 91.79 12.5
-3 -9 1 81.79 12.6
4 8 -1 113.69 14.4
8 -12 -1 109.79 11.8
8 -12 -1 111.39 11.9
-12 4 -1 115.59 15.9
12 -4 1 99.29 14.3
-4 -8 1 101.29 16.5
12 -4 1 126.89 15.5
-8 12 1 111.29 14.5
-4 -8 1 115.79 14.5
7 -12 -1 31.8 5.4
5 7 -1 27.9 7
-12 5 -1 19.6 8.2
12 -5 1 24.1 6.1
12 -5 1 27.6 7.5
-5 -7 1 12.4 8.9
-5 -7 1 7.7 6.3
-7 12 1 28.4 7.7
-5 -7 1 18.5 6.4
6 6 -1 186.18 19.5
-12 6 -1 186.58 20.6
6 -12 -1 159.28 16.7
-6 -6 1 152.78 19.1
12 -6 1 185.18 19.9
-6 -6 1 183.28 19.8
-6 -6 1 156.48 21.2
-6 12 1 183.28 19.2
12 -6 1 181.18 19.6
7 5 -1 18.1 6.3
5 -12 -1 17.5 5.3
-12 7 -1 25.4 8.3
-5 12 1 23.3 8.2
-7 -5 1 17.3 6
-7 -5 1 25.5 9.3
12 -7 1 13.5 6.2
12 -7 1 23.4 7.1
-7 -5 1 29.6 8
4 -12 -1 108.89 12.1
-12 8 -1 118.79 15.7
4 -12 -1 99.59 12.9
4 -12 -1 109.69 11.5
8 4 -1 129.69 15.1
-8 -4 1 120.59 15.2
-4 12 1 95.09 14.9
-8 -4 1 128.39 15.6
12 -8 1 110.49 14.4
12 -8 1 120.29 15.1
-12 9 -1 76.59 13.4
3 -12 -1 76.09 10.2
3 -12 -1 79.39 9.3
3 -12 -1 85.39 11.5
9 3 -1 97.79 14
12 -9 1 78.79 12.2
-9 -3 1 75.39 12.5
12 -9 1 87.19 13
-9 -3 1 86.49 13.3
-3 12 1 84.29 13.1
-12 10 -1 572.54 51.99
2 -12 -1 549.45 48.6
10 2 -1 577.84 51.59
2 -12 -1 550.64 50.29
2 -12 -1 549.65 49.3
-10 -2 1 550.14 51.79
12 -10 1 610.34 51.19
-10 -2 1 572.54 51.89
-2 12 1 547.25 51.09
12 -10 1 594.94 51.09
-12 11 -1 271.57 25.6
1 -12 -1 207.98 21.9
11 1 -1 201.98 24
1 -12 -1 205.08 23.6
1 -12 -1 219.88 21.2
-11 -1 1 241.18 24.6
12 -11 1 255.17 24.2
-1 12 1 213.48 24.3
-11 -1 1 241.88 25
0 -12 -1 444.66 38.6
12 0 -1 419.86 41.1
0 -12 -1 404.16 40.4
0 -12 -1 428.36 39.4
-12 12 -1 457.85 41.8
-12 0 1 420.26 41.7
12 -12 1 494.75 41.1
0 12 1 416.26 41
-12 0 1 425.96 41.6
-12 13 -1 34.5 10.5
-1 -12 -1 40.7 7.4
-1 -12 -1 50.99 13
-1 -12 -1 41.3 8.6
13 -1 -1 53.29 9.4
-13 1 1 30.6 8.7
1 12 1 37.2 10.1
-13 1 1 37.3 10.3
12 -13 1 45.3 10.3
-2 -12 -1 284.47 28.3
-2 -12 -1 287.27 30
-2 -12 -1 250.57 27
-12 14 -1 324.37 31.4
14 -2 -1 300.07 30
12 -14 1 331.67 29.7
-14 2 1 286.57 30.3
2 12 1 274.87 29.7
-14 2 1 299.97 30.6
2 12 1 264.27 26.9
-12 15 -1 5.1 8.3
15 -3 -1 -2.3 4.7
-3 -12 -1 2.5 5.5
-3 -12 -1 -0.4 4.6
-3 -12 -1 0.7 8
3 12 1 -9.8 3.6
-15 3 1 -5.6 5.7
12 -15 1 -0.1 6.1
-15 3 1 -8.4 6
-12 16 -1 220.38 36.7
16 -4 -1 170.98 23.3
-4 -12 -1 206.18 23.3
-4 -12 -1 207.08 25
-4 -12 -1 232.18 22.5
4 12 1 201.68 21.5
-16 4 1 217.48 25.5
12 -16 1 240.88 24.4
-16 4 1 189.38 24.4
17 -5 -1 78.79 14.4
17 -5 -1 124.39 17.4
-12 17 -1 82.59 16.4
-5 -12 -1 84.09 14.2
-5 -12 -1 98.69 14.1
-5 -12 -1 80.69 15.5
12 -17 1 113.99 16.6
-17 5 1 66.79 13
-17 5 1 77.79 15.5
5 12 1 87.19 13.3
18 -6 -1 113.09 19
-6 -12 -1 97.19 22.4
-6 -12 -1 140.89 17.5
-12 18 -1 120.79 20.6
18 -6 -1 158.18 18.9
-6 -12 -1 136.99 21
-18 6 1 114.09 19.6
6 12 1 128.09 16.3
12 -18 1 139.49 19.2
-18 6 1 125.69 20.5
-7 -12 -1 24.5 9.3
-7 -12 -1 15.3 10.1
-7 -12 -1 25.9 8.8
19 -7 -1 10.2 8.4
19 -7 -1 20 9.1
-12 19 -1 24.2 11.7
-19 7 1 12.2 9.5
12 -19 1 16 9.5
7 12 1 15.2 7
-19 7 1 6.4 7.9
-12 20 -1 227.18 26.9
20 -8 -1 195.18 23.8
-8 -12 -1 191.98 23.7
-8 -12 -1 197.68 26.1
-8 -12 -1 162.68 22.5
20 -8 -1 197.18 23.3
-20 8 1 174.78 24.1
8 12 1 155.68 21
12 -20 1 206.98 24.3
-20 8 1 216.18 25.8
21 -9 -1 30.9 9.5
-9 -12 -1 29.1 11.2
-12 21 -1 30.4 13
21 -9 -1 19.7 8.9
-9 -12 -1 31.7 9.1
-9 -12 -1 16.4 12.7
9 12 1 31 8.3
-21 9 1 23.6 11.1
-21 9 1 31.6 11.3
12 -21 1 28.8 10.9
22 -10 -1 204.68 27.4
-12 22 -1 227.68 30.1
-10 -12 -1 192.08 26.8
-10 -12 -1 229.78 26.2
22 -10 -1 281.87 26.4
-10 -12 -1 238.48 30.2
-22 10 1 214.88 27.6
-22 10 1 181.98 27.5
10 12 1 185.08 24
12 -22 1 259.77 27.7
-11 -12 -1 18.2 12
-12 23 -1 0.4 9.8
-11 -12 -1 8.7 8.2
-11 -12 -1 0.7 9.5
23 -11 -1 3.1 7.2
23 -11 -1 1.6 7.6
12 -23 1 -2.6 8.7
11 12 1 8.7 7.2
-23 11 1 18.1 10.8
-12 24 -1 96.19 20.2
-12 -12 -1 48.9 18
-12 -12 -1 97.69 16.8
24 -12 -1 98.99 17.6
-12 -12 -1 85.69 18.1
-24 12 1 113.09 20
12 12 1 82.59 16.6
12 -24 1 100.79 18
-12 25 -1 13.3 12.3
-13 -12 -1 -15.1 10.7
-13 -12 -1 12.2 7.7
25 -13 -1 1.9 6.1
12 -25 1 -6.1 8.7
13 12 1 -8.7 4.9
-25 13 1 -11.7 12.3
24 -13 -1 54.69 13.3
-13 -11 -1 51.29 17.2
-13 -11 -1 51.19 14.5
-11 24 -1 23.9 13.4
24 -13 -1 51.79 11.5
11 -24 1 70.59 16.3
-24 13 1 36.9 12.9
13 11 1 55.89 12.6
23 -13 -1 -8.4 9
-13 -10 -1 7.4 8.1
23 -13 -1 4 7
-10 23 -1 -15.3 8.9
-13 -10 -1 -4.1 6.6
10 -23 1 -4.6 8.3
13 10 1 -8.6 5
-23 13 1 9.8 9.3
22 -13 -1 143.89 16.8
-13 -9 -1 130.49 20.9
-13 -9 -1 88.69 17.4
-9 22 -1 76.59 18.4
22 -13 -1 92.39 16
-13 -9 -1 106.39 20.9
13 9 1 65.99 14.1
9 -22 1 117.69 18.7
-22 13 1 101.39 18.1
-8 21 -1 5.4 9.7
-13 -8 -1 2.1 7.9
-13 -8 -1 -8.9 9.3
21 -13 -1 -1 5.8
-13 -8 -1 -8.9 5
21 -13 -1 -10.3 5.8
8 -21 1 -13.3 8.2
-21 13 1 1 8.1
13 8 1 -10.3 4.6
-13 -7 -1 49.4 14
20 -13 -1 78.89 12.7
-13 -7 -1 43 13.5
-13 -7 -1 38.9 11.3
-7 20 -1 42.4 14.4
20 -13 -1 73.99 12.3
-20 13 1 78.79 14.9
7 -20 1 68.29 11.5
13 7 1 55.29 11.9
7 -20 1 60.69 14.7
-6 19 -1 0.6 8.8
19 -13 -1 0.9 5.8
-13 -6 -1 1.1 6.5
19 -13 -1 5.2 6.5
-13 -6 -1 0.1 7.1
13 6 1 -0.2 5.7
-19 13 1 -5.6 6.2
6 -19 1 -1.7 5.2
6 -19 1 1.7 9.2
18 -13 -1 32.6 9.1
-13 -5 -1 14.8 9.5
-5 18 -1 18.2 10.7
-13 -5 -1 12.1 8.2
18 -13 -1 24.4 7.4
5 -18 1 16.8 10.7
5 -18 1 14 6.5
13 5 1 11.1 6.7
13 5 1 12.6 7.8
-18 13 1 33.5 10.1
-13 -4 -1 2.6 7
-13 -4 -1 -1.9 7
-4 17 -1 5.8 8.9
17 -13 -1 1.9 5
17 -13 -1 0.2 6
4 -17 1 -2.8 4.6
4 -17 1 -2.4 8.7
-17 13 1 6.7 7.1
13 4 1 -4.9 5.3
13 4 1 -2.2 6.6
-13 -3 -1 150.08 20.4
-3 16 -1 141.69 21.5
16 -13 -1 138.09 17.1
-13 -3 -1 145.89 21.6
16 -13 -1 139.39 17.4
13 3 1 127.19 18.9
3 -16 1 142.89 20.8
3 -16 1 119.09 17
-16 13 1 126.59 18.3
13 3 1 134.79 19.4
15 -13 -1 2.7 5.1
15 -13 -1 7.2 5.3
-13 -2 -1 4 6.9
-13 -2 -1 3.7 8.3
-2 15 -1 -7.7 7.8
2 -15 1 0.6 4.5
-15 13 1 -1.6 6.5
13 2 1 -2.8 6.6
2 -15 1 3.1 9.2
13 2 1 8.3 6.1
-1 14 -1 104.69 19.2
14 -13 -1 94.69 13.6
14 -13 -1 80.59 11.9
-13 -1 -1 63.69 12.9
1 -14 1 86.79 13.2
-14 13 1 91.19 14.2
1 -14 1 87.89 16.1
13 1 1 100.99 15.4
13 1 1 87.09 13.9
0 13 -1 7.5 8.3
-13 0 -1 13.1 8.1
-13 0 -1 6.2 6.8
13 -13 -1 8.9 4.9
13 -13 -1 8.5 5.4
13 0 1 13.9 7.6
-13 13 1 15.2 6.9
13 0 1 10.8 5.9
0 -13 1 4.4 8.3
0 -13 1 1 5
12 -13 -1 44.7 7.1
12 -13 -1 34.9 7.7
-13 1 -1 33 10
-13 1 -1 56.19 11.4
1 12 -1 43.5 10.9
13 -1 1 25.3 8.9
-12 13 1 45 9.2
-1 -12 1 41 11.9
-1 -12 1 32.2 8.5
13 -1 1 27.5 8
2 11 -1 11.7 8
-13 2 -1 2.6 5.9
-13 2 -1 14.7 7.9
11 -13 -1 15 4.8
11 -13 -1 8.4 4.4
13 -2 1 10.3 7.3
-2 -11 1 6.5 5.3
-2 -11 1 4.2 8.3
13 -2 1 9 5.9
-11 13 1 16.1 6.6
-13 3 -1 -3.1 6.2
10 -13 -1 0.8 3.7
-13 3 -1 -1.5 5
10 -13 -1 -2.2 3.2
3 10 -1 5.4 7.3
-3 -10 1 -10 6.9
13 -3 1 1.5 5.1
-3 -10 1 14 6.5
13 -3 1 4.1 6.3
-10 13 1 1.7 5.2
9 -13 -1 58.19 8
-13 4 -1 39.9 9.2
4 9 -1 59.49 10.1
9 -13 -1 50.59 7.3
-13 4 -1 42.1 10.5
-9 13 1 53.49 10.2
13 -4 1 41.1 9.7
-4 -9 1 48.4 9.1
-4 -9 1 61.29 13.6
13 -4 1 41 8.8
8 -13 -1 73.49 9.9
5 8 -1 86.59 12.2
-13 5 -1 98.09 15.3
-5 -8 1 102.99 14.5
-5 -8 1 89.29 14.8
13 -5 1 71.69 11.8
-8 13 1 85.19 12.8
-5 -8 1 81.79 13.2
13 -5 1 87.59 13.8
7 -13 -1 44.1 7
-13 6 -1 34.5 9.9
6 7 -1 51.29 9.9
-6 -7 1 66.59 13.1
13 -6 1 37.3 8.9
-6 -7 1 34.9 7.8
-7 13 1 42.7 9.5
13 -6 1 51.69 10.2
-6 -7 1 35.5 9
7 6 -1 66.59 10.4
-13 7 -1 39.9 10.6
6 -13 -1 42 7.5
-7 -6 1 28.8 10.3
-6 13 1 49.1 10.4
-7 -6 1 47.9 10.1
-7 -6 1 40.9 9.4
13 -7 1 46.2 9.8
13 -7 1 51.39 10.1
5 -13 -1 64.79 9.7
8 5 -1 100.29 13.5
-13 8 -1 106.69 15.4
5 -13 -1 75.09 10.8
-8 -5 1 65.99 13.5
-8 -5 1 88.49 13.1
-8 -5 1 90.59 13.8
13 -8 1 98.19 13.5
13 -8 1 101.69 14
-5 13 1 71.49 12.8
4 -13 -1 53.39 7
4 -13 -1 36.6 7.2
4 -13 -1 46 8.5
9 4 -1 53.89 9.5
-13 9 -1 54.29 11.5
13 -9 1 41.2 9.8
13 -9 1 52.09 10.1
-9 -4 1 54.99 10.4
-4 13 1 86.69 12.9
-9 -4 1 52.19 10.6
10 3 -1 4 5.3
3 -13 -1 9 6.1
3 -13 -1 5.7 4.4
-13 10 -1 11.1 7
3 -13 -1 6 3.3
-10 -3 1 8.3 6.4
-3 13 1 10.5 7.6
13 -10 1 2.5 4.6
13 -10 1 2.7 5.8
-10 -3 1 9 6.4
2 -13 -1 -0.8 3.3
2 -13 -1 11.3 7
2 -13 -1 10.4 4.8
11 2 -1 12.1 6.3
-13 11 -1 2.9 7.3
13 -11 1 0.6 4.5
13 -11 1 17.5 7.1
-11 -2 1 11.4 6.7
-2 13 1 12.1 8
-11 -2 1 13.8 7.8
-13 12 -1 60.59 12.2
1 -13 -1 58.29 11.1
1 -13 -1 52.09 8.9
12 1 -1 34.4 9.6
1 -13 -1 49.4 7.7
13 -12 1 48.6 9.3
13 -12 1 47.6 10.3
-12 -1 1 35.8 10.1
-12 -1 1 46 11.2
-1 13 1 56.49 11.3
0 -13 -1 16.6 4.9
-13 13 -1 6.4 7.6
0 -13 -1 6.6 10.8
13 0 -1 6.2 5.8
0 -13 -1 15.3 5.9
0 13 1 -0.2 6.2
-13 0 1 11.7 7.3
13 -13 1 9.8 6.9
-13 0 1 7.1 6.4
-1 -13 -1 93.79 15
-13 14 -1 78.79 16
-1 -13 -1 83.19 12.1
-1 -13 -1 91.89 13.6
14 -1 -1 86.29 15.7
-14 1 1 94.99 17.8
13 -14 1 119.09 15.8
1 13 1 95.19 16.1
-14 1 1 95.19 17
-2 -13 -1 4.3 4.5
-2 -13 -1 11 8.6
-2 -13 -1 2.4 5.8
-13 15 -1 7.6 9.3
15 -2 -1 2.6 5.4
2 13 1 3.1 7.3
-15 2 1 7.8 7.7
13 -15 1 13.6 7.8
-15 2 1 -3.5 5.1
-3 -13 -1 127.79 16.7
16 -3 -1 133.39 19
-3 -13 -1 136.89 20.6
-13 16 -1 186.98 24.3
-3 -13 -1 143.19 18
-16 3 1 129.69 20.5
13 -16 1 175.18 19.5
3 13 1 135.99 16.3
-16 3 1 131.39 21.5
-13 17 -1 1 8.4
17 -4 -1 -4 5.2
-4 -13 -1 -2.3 6.1
-4 -13 -1 -4.5 5.2
-4 -13 -1 0.3 8.4
-17 4 1 -1 6.1
-17 4 1 12.4 8.5
4 13 1 -1.8 4.4
13 -17 1 3.4 7.5
-13 18 -1 8.6 9.9
18 -5 -1 36.2 10.2
-5 -13 -1 17 8.1
-5 -13 -1 37.3 8.8
-5 -13 -1 38 12.2
-18 5 1 3.6 7.5
-18 5 1 40.1 11.6
13 -18 1 21.6 9.8
5 13 1 11.8 6.3
-13 19 -1 7.8 9.8
19 -6 -1 4.2 7.2
-6 -13 -1 -0.3 6.5
-6 -13 -1 4.7 9.2
-6 -13 -1 0.6 5.3
6 13 1 -0.2 4.5
-19 6 1 2 7
-19 6 1 5.7 8.5
13 -19 1 10 8.6
-13 20 -1 82.29 16.9
-7 -13 -1 67.79 13.2
20 -7 -1 47.6 11.3
-7 -13 -1 60.89 13.2
-7 -13 -1 49.1 15.7
13 -20 1 79.59 14.3
-20 7 1 71.39 15.6
7 13 1 53.49 10.4
-8 -13 -1 -21.4 8.2
-8 -13 -1 2.5 6.7
-13 21 -1 4.5 10.4
-8 -13 -1 2.5 7.7
21 -8 -1 -7.9 4.5
8 13 1 -6.7 4.7
-21 8 1 0.8 8.5
13 -21 1 0.5 7.2
-9 -13 -1 84.19 16
-9 -13 -1 92.89 15.3
-9 -13 -1 61.19 17.8
-13 22 -1 98.79 20.1
22 -9 -1 73.29 19
-22 9 1 110.69 19.8
13 -22 1 98.29 16.9
-22 9 1 80.89 17.6
9 13 1 63.09 13
-13 23 -1 2.2 10.7
-10 -13 -1 -5 10.9
23 -10 -1 3.9 6.6
-10 -13 -1 0.2 6.5
-10 -13 -1 5.4 8.3
-23 10 1 5.5 8.3
13 -23 1 -8.7 7.5
10 13 1 2.5 6.4
-23 10 1 -10.4 7.9
-11 -13 -1 94.09 16.4
24 -11 -1 47.3 11.9
-11 -13 -1 79.49 15.9
-13 24 -1 53.39 17.2
-24 11 1 65.29 16.4
11 13 1 44.1 11.7
13 -24 1 67.29 14.8
-12 -13 -1 1.4 13.4
-13 25 -1 12.9 16.4
-12 -13 -1 11.6 8.2
25 -12 -1 -8.7 6.6
13 -25 1 18.7 10.2
-25 12 1 11.6 9.7
-13 -13 -1 30.6 17.3
-13 26 -1 72.49 18.5
-13 -13 -1 34.9 15
26 -13 -1 28.8 10.9
-26 13 1 23.3 14.9
13 -26 1 65.89 14.8
13 13 1 25.2 9.9
27 -14 -1 4.8 7.8
-14 -13 -1 6.4 13.9
-13 27 -1 -11.4 17.2
-14 -13 -1 -6.2 9.1
-14 -13 -1 16.5 9.5
13 -27 1 -2.1 9.4
14 13 1 -0.3 6.1
-14 -12 -1 37.5 14.6
-12 26 -1 41.7 16.1
-14 -12 -1 81.39 20
26 -14 -1 68.69 14.9
-26 14 1 69.69 17.3
14 12 1 59.09 12.9
12 -26 1 86.49 17.7
-11 25 -1 32.3 12.4
-14 -11 -1 0 11.6
-14 -11 -1 1.9 11.7
25 -14 -1 -0.6 6.7
14 11 1 3 6.3
11 -25 1 -6.9 9.2
-14 -10 -1 95.29 17.5
24 -14 -1 110.09 16
-14 -10 -1 95.29 22
24 -14 -1 90.29 15.9
-10 24 -1 83.29 19.8
10 -24 1 103.29 19.2
-24 14 1 79.79 17.6
10 -24 1 65.79 13.1
14 10 1 83.19 15.7
23 -14 -1 45.4 14.5
-14 -9 -1 11.4 9.2
-9 23 -1 28.5 13.3
-14 -9 -1 -5.9 10.5
23 -14 -1 14.3 7.9
-14 -9 -1 5.8 7.8
14 9 1 7.8 8.1
-23 14 1 14.6 10.4
9 -23 1 7.6 10.7
9 -23 1 17.1 7.5
22 -14 -1 200.08 20.9
-8 22 -1 142.19 24.7
-14 -8 -1 155.38 25
-14 -8 -1 135.19 24.6
22 -14 -1 176.28 22.5
-14 -8 -1 146.29 22.3
14 8 1 191.48 22
8 -22 1 194.28 24.5
-22 14 1 129.79 22.8
21 -14 -1 16.5 7.5
-14 -7 -1 6.9 10.8
-14 -7 -1 18.3 10.2
-14 -7 -1 24.5 10.9
21 -14 -1 16.2 8.4
-7 21 -1 15.6 11.8
-21 14 1 15.7 9.7
7 -21 1 5.8 10.6
7 -21 1 9.9 7.3
14 7 1 12.5 7.5
-6 20 -1 128.29 22.2
-14 -6 -1 112.09 19.9
20 -14 -1 114.59 16.4
20 -14 -1 130.29 19.1
-14 -6 -1 117.39 20.1
6 -20 1 120.79 16.7
14 6 1 121.39 18.2
-20 14 1 129.09 20.6
6 -20 1 117.59 21.1
19 -14 -1 26.5 7.9
-5 19 -1 25.6 12.5
-14 -5 -1 28.7 10.9
-14 -5 -1 14.1 9.8
19 -14 -1 22.9 7.2
14 5 1 17.6 8.1
5 -19 1 21.8 7.9
5 -19 1 9.3 10.9
-19 14 1 12.1 9.2
14 5 1 15.3 9.3
-14 -4 -1 113.09 19.2
18 -14 -1 133.19 16.6
-4 18 -1 132.99 22
18 -14 -1 118.99 17.5
-14 -4 -1 181.48 22.7
14 4 1 135.39 20.7
4 -18 1 137.19 21.1
4 -18 1 117.19 17
14 4 1 122.79 18.1
-18 14 1 158.58 21.2
-14 -3 -1 6.9 7.6
17 -14 -1 1.7 4.9
-14 -3 -1 5.4 9.3
-3 17 -1 3.7 8.8
14 3 1 -0.4 6.8
3 -17 1 3.7 5.2
-17 14 1 -6.1 6.6
14 3 1 -3.9 5.3
3 -17 1 0.2 9.7
-14 -2 -1 146.39 21.3
-14 -2 -1 151.58 22.1
16 -14 -1 171.88 18.1
16 -14 -1 164.68 19.2
-2 16 -1 152.98 22.8
2 -16 1 149.79 19.3
2 -16 1 178.18 24
14 2 1 175.38 21.8
14 2 1 163.48 20.4
-16 14 1 151.48 20.1
15 -14 -1 4.9 5.1
15 -14 -1 -3.4 4.4
-1 15 -1 9.5 8.7
-14 -1 -1 6.6 7.2
-14 -1 -1 6.3 8.1
-15 14 1 1.6 6.6
14 1 1 4.9 7.1
1 -15 1 -1.2 4.9
14 1 1 2.1 5.5
1 -15 1 8.4 9.7
14 -14 -1 209.08 20.4
-14 0 -1 232.58 24.9
-14 0 -1 230.28 25.5
14 -14 -1 217.78 21.5
0 14 -1 188.88 25.1
0 -14 1 155.88 21.3
-14 14 1 197.98 22.7
0 -14 1 192.68 25.7
14 0 1 179.88 22.4
14 0 1 228.68 24.3
-14 1 -1 91.69 22.1
13 -14 -1 106.29 14.1
13 -14 -1 90.39 11.7
1 13 -1 108.19 25.6
14 -1 1 113.49 15.2
-1 -13 1 94.89 13.8
14 -1 1 98.19 15.6
-13 14 1 65.99 13.4
-1 -13 1 84.09 17.2
12 -14 -1 274.77 26.2
12 -14 -1 271.77 25.3
2 12 -1 204.18 29
-14 2 -1 299.77 30.4
-14 2 -1 323.87 30.4
14 -2 1 302.67 28.4
14 -2 1 294.17 29.2
-2 -12 1 259.67 27.3
-2 -12 1 262.87 30.8
-12 14 1 254.17 27.7
-14 3 -1 248.88 27.1
-14 3 -1 244.98 27.4
3 11 -1 240.28 27.6
11 -14 -1 256.37 23.7
11 -14 -1 251.47 23
14 -3 1 259.47 26.1
-11 14 1 220.28 25
14 -3 1 268.47 26.8
-3 -11 1 231.68 28
-3 -11 1 236.18 25.3
10 -14 -1 342.37 30.8
-14 4 -1 383.76 35.3
-14 4 -1 358.06 35.3
10 -14 -1 356.66 31.3
4 10 -1 314.47 33
14 -4 1 374.36 34.1
-10 14 1 330.77 33.3
-4 -10 1 324.17 35.4
-4 -10 1 338.47 33.2
14 -4 1 340.27 34.2
9 -14 -1 7 4.2
9 -14 -1 6.3 3.8
-14 5 -1 2.3 7.3
5 9 -1 4.2 5.3
-9 14 1 18.7 7.9
-5 -9 1 12.4 8.7
-5 -9 1 5.9 6
14 -5 1 9 5.6
14 -5 1 2.8 6
-5 -9 1 8.2 5.5
-14 6 -1 343.27 33
6 8 -1 339.87 31.6
8 -14 -1 298.17 28.6
14 -6 1 336.97 31.7
-6 -8 1 292.57 31.1
-8 14 1 314.67 31.6
-6 -8 1 331.97 32.1
14 -6 1 302.77 31.6
-6 -8 1 341.47 33.6
7 -14 -1 29.4 6.4
-14 7 -1 47.9 10.4
7 7 -1 39.1 9.1
-7 14 1 20.4 8.5
-7 -7 1 32.4 9.1
-7 -7 1 42.2 12.1
14 -7 1 32.6 9
-7 -7 1 42.4 9.4
14 -7 1 27.8 7.8
-14 8 -1 343.77 32.6
6 -14 -1 295.47 28.8
8 6 -1 325.97 31.4
-8 -6 1 325.67 32.1
-6 14 1 323.47 31.8
-8 -6 1 313.07 33.1
14 -8 1 325.77 31.3
-8 -6 1 265.37 30.9
14 -8 1 340.27 31.7
5 -14 -1 10.8 3.9
9 5 -1 7.5 5.9
5 -14 -1 7.2 4.4
-14 9 -1 15.3 7.8
5 -14 -1 7.7 5.5
-9 -5 1 11.5 6.3
-9 -5 1 3 6.4
14 -9 1 1.5 5
-9 -5 1 11.1 8.3
-5 14 1 2.5 7.3
14 -9 1 22.5 7.1
4 -14 -1 345.67 31
4 -14 -1 312.67 31.6
-14 10 -1 326.17 34.3
4 -14 -1 335.77 30.2
10 4 -1 365.76 33.8
14 -10 1 358.86 33.5
14 -10 1 329.47 33.2
-10 -4 1 380.66 34.7
-4 14 1 326.97 33.7
-10 -4 1 334.17 33.8
3 -14 -1 236.48 21.2
11 3 -1 222.28 24.7
3 -14 -1 197.18 23.2
-14 11 -1 235.88 25.7
3 -14 -1 225.58 22
14 -11 1 220.98 24.1
14 -11 1 245.48 24.5
-11 -3 1 215.28 24.8
-3 14 1 229.58 25.2
-11 -3 1 221.78 25.4
12 2 -1 264.17 29.5
-14 12 -1 275.17 30.2
2 -14 -1 266.47 26
2 -14 -1 292.27 27.3
2 -14 -1 286.17 28.9
-12 -2 1 303.17 30.5
14 -12 1 291.87 28.8
-2 14 1 283.47 29.7
-12 -2 1 265.87 29.6
14 -12 1 329.07 29.6
1 -14 -1 84.39 12.4
1 -14 -1 75.29 11
13 1 -1 69.19 13.8
-14 13 -1 104.39 16.5
-13 -1 1 93.69 17.5
14 -13 1 108.59 14.7
-1 14 1 94.99 15.4
14 -13 1 111.39 15.6
0 -14 -1 214.58 22.5
0 -14 -1 197.48 21.2
-14 14 -1 195.08 27.8
0 -14 -1 175.58 24
14 0 -1 226.48 24.6
-14 0 1 229.78 25.6
14 -14 1 233.68 23.6
14 -14 1 219.28 24.2
-14 0 1 245.98 25.5
0 14 1 214.78 25.1
-1 -14 -1 6.2 6.3
-1 -14 -1 24.1 9.7
15 -1 -1 0.9 5.7
-14 15 -1 5 8.1
-1 -14 -1 4.9 4.5
-15 1 1 -5.1 6.8
14 -15 1 6.5 7.2
1 14 1 -3.9 6.8
-15 1 1 -1.2 5.6
-2 -14 -1 157.28 19.6
-14 16 -1 165.68 22.4
16 -2 -1 134.09 20.2
-2 -14 -1 168.78 18.1
-2 -14 -1 154.28 21.7
-16 2 1 153.38 21.3
2 14 1 158.08 23.5
-16 2 1 164.38 22.4
14 -16 1 189.98 21.1
17 -3 -1 4.5 7.4
-3 -14 -1 7.2 5.6
-3 -14 -1 -8.3 8.4
-3 -14 -1 -2.9 6.5
-14 17 -1 -2.9 8.7
14 -17 1 1.3 7.3
-17 3 1 6.4 7.9
-17 3 1 18.7 9.6
-4 -14 -1 128.69 17.1
-14 18 -1 191.88 23.1
-4 -14 -1 154.88 18.9
-4 -14 -1 130.19 20.2
18 -4 -1 140.49 19.6
14 -18 1 160.38 19.5
-18 4 1 106.09 19.5
4 14 1 112.09 15.9
-18 4 1 103.39 18.3
-5 -14 -1 6.3 10.6
19 -5 -1 29.6 10.4
-5 -14 -1 14.5 7.4
-5 -14 -1 23.1 9.3
-14 19 -1 38.3 13
-19 5 1 33.4 11
5 14 1 19 7.1
-19 5 1 7.5 8.8
14 -19 1 31.9 10
-14 20 -1 122.59 21.5
20 -6 -1 116.09 18.5
-6 -14 -1 125.69 19
-6 -14 -1 130.89 17.2
-6 -14 -1 97.19 19.6
-20 6 1 120.29 20.8
-20 6 1 78.69 17.3
6 14 1 126.39 17.5
14 -20 1 140.99 19.6
-14 21 -1 8.1 11
21 -7 -1 12.6 8.2
-7 -14 -1 14.9 8
-7 -14 -1 28.6 9.9
-7 -14 -1 14.2 11.3
14 -21 1 15.8 9.3
7 14 1 22.6 7.5
-21 7 1 38.1 12.3
-21 7 1 2.6 9.9
22 -8 -1 167.78 22.5
-8 -14 -1 150.08 21.5
-14 22 -1 208.98 26.6
-8 -14 -1 182.48 27.5
-8 -14 -1 160.18 22.6
-22 8 1 128.09 22.8
8 14 1 180.98 21.1
14 -22 1 220.58 24.4
-22 8 1 143.79 25.2
23 -9 -1 33.4 11.3
-9 -14 -1 -2.2 11.4
-9 -14 -1 13.2 8.7
-14 23 -1 20.4 13
-9 -14 -1 11.5 9.8
9 14 1 36.1 9.4
14 -23 1 24.4 11
-23 9 1 8.5 8.2
-23 9 1 21.3 12.8
-10 -14 -1 72.79 16.5
-14 24 -1 66.49 18.5
-10 -14 -1 95.49 23.3
24 -10 -1 105.19 18.8
-10 -14 -1 101.79 17.5
-24 10 1 106.29 25.8
10 14 1 88.39 16.4
14 -24 1 84.49 17
-24 10 1 108.39 22
25 -11 -1 0.2 7.6
-14 25 -1 6.7 14.8
-11 -14 -1 -10.6 10.9
-11 -14 -1 -2.8 6.7
14 -25 1 14.6 10.6
-25 11 1 25.9 12.2
11 14 1 -5.5 5.3
-12 -14 -1 83.89 20.3
-14 26 -1 85.79 20.9
26 -12 -1 66.49 15.4
12 14 1 57.09 12.2
14 -26 1 63.29 15.4
-26 12 1 61.79 17.5
-13 -14 -1 -9.9 9.2
-14 27 -1 -6 12.9
-13 -14 -1 -18.1 10.7
-13 -14 -1 5.8 10.1
27 -13 -1 -7.8 6.1
13 14 1 -5.9 5.9
14 -27 1 12.4 12.3
28 -14 -1 28.6 12
-14 -14 -1 35.3 14.4
-14 -14 -1 23.1 16.8
-14 -14 -1 8.4 9.5
14 -28 1 26.8 12.7
14 14 1 28.6 9.6
29 -15 -1 -9.4 6.7
-15 -14 -1 5.2 10.5
14 -29 1 15.9 13.2
15 14 1 2.2 6.7
14 -29 1 18.5 9.1
-15 -13 -1 -15.5 13.2
-15 -13 -1 9.7 9.2
28 -15 -1 -0.5 7.5
-15 -13 -1 17.7 19
13 -28 1 -3.5 7.8
15 13 1 5.6 7.8
13 -28 1 10 10.7
-15 -12 -1 -16.8 8.5
27 -15 -1 1.3 6.7
-15 -12 -1 0.7 7.7
-15 -12 -1 16 15
12 -27 1 10.4 8
15 12 1 -0.9 6.3
-27 15 1 -13.1 12
12 -27 1 -6 9
-15 -11 -1 20.6 14.7
-15 -11 -1 20.2 16.3
-11 26 -1 -10.7 11.7
-15 -11 -1 3.5 10.4
26 -15 -1 14.2 8.5
11 -26 1 26.8 12.2
-26 15 1 -3.9 10.3
15 11 1 6.8 7.5
11 -26 1 11.9 8
25 -15 -1 6.8 6.8
-15 -10 -1 5.1 12.4
-15 -10 -1 5.5 11.2
-10 25 -1 12.3 10.9
25 -15 -1 -0.7 6.6
10 -25 1 -5.6 9
15 10 1 5.7 6.9
10 -25 1 12.4 7.4
-15 -9 -1 0.4 14.6
24 -15 -1 19.4 7.9
-9 24 -1 18.4 13.4
-15 -9 -1 16.6 12.8
24 -15 -1 23.3 8.9
15 9 1 14.5 7.2
-24 15 1 15.1 11.4
9 -24 1 10 6.7
9 -24 1 26.8 11.8
23 -15 -1 6.4 6.6
23 -15 -1 -8.4 5.5
-15 -8 -1 -16 8.8
-8 23 -1 1.2 10
-15 -8 -1 0.5 5.8
15 8 1 3.8 8.1
8 -23 1 8 6.3
-23 15 1 9 9.3
8 -23 1 8.6 10.5
-15 -7 -1 19.6 15.6
22 -15 -1 36.6 9.5
-15 -7 -1 47.5 14.1
-7 22 -1 48.8 14.8
22 -15 -1 49.3 11.3
-15 -7 -1 59.19 13.7
7 -22 1 46.2 14.1
-22 15 1 49.8 13.9
-15 -6 -1 7.4 6.6
-15 -6 -1 19.1 11.6
21 -15 -1 15 7.1
21 -15 -1 11 6.7
-15 -6 -1 10.1 8.9
-6 21 -1 -6.8 8.8
15 6 1 -3.7 5.8
-21 15 1 6.4 9.2
6 -21 1 10.8 8
6 -21 1 12.2 11.5
20 -15 -1 28.6 7.7
-15 -5 -1 22.1 9.8
20 -15 -1 15.7 8.5
-15 -5 -1 -1.8 8.6
-5 20 -1 17.3 12.3
-20 15 1 17 9.8
5 -20 1 26.2 12.2
5 -20 1 10.6 7.1
15 5 1 12.9 7.8
19 -15 -1 47.6 10.4
19 -15 -1 73.39 13.4
-15 -4 -1 51.69 13.7
-4 19 -1 39.5 14
-15 -4 -1 61.59 13.4
4 -19 1 74.69 16.6
4 -19 1 58.09 11.5
-19 15 1 55.59 12.6
15 4 1 75.09 14.7
15 4 1 76.39 15.3
-15 -3 -1 15.4 10
18 -15 -1 31.3 7.9
18 -15 -1 24.1 8.2
-15 -3 -1 13.9 7.9
-3 18 -1 16.3 11
-18 15 1 23.9 9.5
3 -18 1 30.7 8.7
15 3 1 21.1 9.5
3 -18 1 7.5 11.3
15 3 1 22.9 8.2
17 -15 -1 22.6 8.1
-15 -2 -1 23.5 10.4
17 -15 -1 25 9.5
-2 17 -1 19.6 11.1
-15 -2 -1 24.8 8.7
2 -17 1 20.4 7.9
15 2 1 27.9 8.6
2 -17 1 24.1 12.1
-17 15 1 14.2 9.1
15 2 1 22.8 10
16 -15 -1 52.29 10
-15 -1 -1 24.7 10.2
-1 16 -1 28.5 11.8
16 -15 -1 51.19 8.9
-15 -1 -1 21.5 11.1
-16 15 1 40.2 10.7
15 1 1 24.3 9.1
1 -16 1 25.5 13.5
15 1 1 40.7 11.4
1 -16 1 55.99 10.3
15 -15 -1 38.2 8.5
0 15 -1 52.69 12.7
15 -15 -1 45.8 8.6
-15 0 -1 60.09 13.5
-15 0 -1 27.9 10.7
15 0 1 45.8 10.7
0 -15 1 39.7 9.7
-15 15 1 46.6 11.4
15 0 1 58.49 12.4
0 -15 1 44.4 13.7
14 -15 -1 4.8 4.8
-15 1 -1 -1.9 7.1
-15 1 -1 -3.5 6
1 14 -1 1.5 8.8
14 -15 -1 7.9 4.8
-14 15 1 5.8 7.4
-1 -14 1 1.5 5.2
15 -1 1 5.8 5.5
15 -1 1 6.4 7.2
-1 -14 1 21.5 11
13 -15 -1 10.7 4.9
2 13 -1 0.4 7.7
-15 2 -1 8.7 6.7
13 -15 -1 6.5 5.4
-15 2 -1 -1.8 7.4
15 -2 1 1.6 6.4
-2 -13 1 2.8 5.3
15 -2 1 5.1 6
-2 -13 1 17.5 10.1
-13 15 1 -0.1 6.5
-15 3 -1 0.8 5.3
12 -15 -1 -0.5 3.9
3 12 -1 -5.8 7.1
-15 3 -1 -12.5 6.2
12 -15 -1 2.8 4.2
15 -3 1 8 6
-3 -12 1 -6.3 7.5
-3 -12 1 -3.1 4.9
-12 15 1 -2.3 6.1
15 -3 1 10.6 6.9
11 -15 -1 6.7 4.3
-15 4 -1 -4.9 6.1
-15 4 -1 12.4 15.7
11 -15 -1 0.9 3.9
-4 -11 1 8.1 6.1
-11 15 1 8.8 7.3
15 -4 1 -3.3 5.5
15 -4 1 0.8 4.5
-4 -11 1 10.8 6.8
-4 -11 1 0.5 8.8
5 10 -1 62.39 12.2
10 -15 -1 73.99 10.3
-15 5 -1 109.19 18.5
10 -15 -1 75.19 10.1
-5 -10 1 76.19 13.2
15 -5 1 84.89 14
-5 -10 1 64.19 12.7
-5 -10 1 105.39 17.7
-10 15 1 89.89 14.1
15 -5 1 69.39 12.2
6 9 -1 55.69 10.3
-15 6 -1 82.89 14.2
9 -15 -1 66.49 9
-6 -9 1 73.69 15.7
-6 -9 1 76.49 12.5
-6 -9 1 51.29 11.9
15 -6 1 77.79 13.3
15 -6 1 49.8 11.2
-9 15 1 48.9 11.3
-15 7 -1 32.3 10.3
8 -15 -1 27.7 6.7
7 8 -1 29.1 7.7
15 -7 1 41.3 9.7
-7 -8 1 44 10.5
-7 -8 1 47.5 10.6
-8 15 1 49 11.1
15 -7 1 32.1 8.7
-7 -8 1 54.79 11.9
8 7 -1 31.3 8.8
-15 8 -1 51.59 11.8
7 -15 -1 34.8 7.3
-8 -7 1 26.9 9.3
15 -8 1 35.7 9.3
-7 15 1 38.1 10.3
-8 -7 1 60.49 12.3
-8 -7 1 34.6 9.6
15 -8 1 28.5 7.6
6 -15 -1 58.99 9.5
-15 9 -1 70.89 13.8
9 6 -1 50.59 10.3
6 -15 -1 63.49 9
-6 15 1 61.09 12.3
-9 -6 1 50.19 12
15 -9 1 61.19 11.8
-9 -6 1 70.59 12.3
15 -9 1 56.49 10.9
-9 -6 1 64.59 14.3
-15 10 -1 78.49 14.3
10 5 -1 70.29 12.3
5 -15 -1 94.59 12.5
5 -15 -1 76.09 10.8
5 -15 -1 75.49 10
-5 15 1 75.39 14.2
-10 -5 1 85.49 14.4
-10 -5 1 87.79 14.9
-10 -5 1 97.99 17.7
15 -10 1 91.59 13.4
15 -10 1 88.29 14.3
4 -15 -1 8 3.7
-15 11 -1 -4 6.4
4 -15 -1 -3.4 5.6
4 -15 -1 11.7 4.8
11 4 -1 14.4 6.2
15 -11 1 6.6 6
-11 -4 1 -8.3 4.8
15 -11 1 -1.9 5.5
-4 15 1 5.6 7.6
3 -15 -1 2.8 4.5
3 -15 -1 -7.1 5.3
-15 12 -1 3.6 8.7
12 3 -1 -3.7 4.7
3 -15 -1 1.9 3.4
15 -12 1 3 6.1
15 -12 1 -0.3 5.1
-12 -3 1 -2.4 6.1
-3 15 1 -4 6.7
-12 -3 1 -0.6 5.1
2 -15 -1 7.5 4
13 2 -1 8.6 7
2 -15 -1 5.7 5.2
15 -13 1 7 6.9
15 -13 1 5 5.4
-13 -2 1 5.8 7.3
-13 -2 1 -2.5 5
-2 15 1 0.6 7.1
14 1 -1 5.4 6.4
1 -15 -1 -3 7.8
-15 14 -1 -0.9 7.2
1 -15 -1 1.9 5.3
1 -15 -1 4.4 4.3
-14 -1 1 8.1 7.7
15 -14 1 2 5.6
-1 15 1 -1.2 7.3
-14 -1 1 4.7 6.1
15 -14 1 9.2 7.1
15 0 -1 55.09 11.7
0 -15 -1 50.89 11.5
-15 15 -1 13.8 10.4
0 -15 -1 39.8 7.7
0 -15 -1 35.1 9
15 -15 1 44.7 10.8
-15 0 1 29.7 10
0 15 1 35.3 11.5
15 -15 1 34.8 9.3
-15 0 1 41.5 11.3
-1 -15 -1 50.29 10.4
-1 -15 -1 20 11
16 -1 -1 33.3 9.8
-15 16 -1 25.1 11.4
-1 -15 -1 36.2 8.1
15 -16 1 66.09 12
15 -16 1 50.59 11.7
-16 1 1 36 11.6
1 15 1 57.79 13.1
-16 1 1 61.79 14.8
-15 17 -1 24.6 11.4
17 -2 -1 31.4 9.9
-2 -15 -1 24 8.7
-2 -15 -1 12.4 6.5
-2 -15 -1 37.8 12
-17 2 1 28 10.9
15 -17 1 31.8 9.6
2 15 1 8 8.7
-17 2 1 15.4 7.6
-3 -15 -1 41.8 10.2
-3 -15 -1 17.8 10.7
-3 -15 -1 11.3 6.7
18 -3 -1 5 7.9
-15 18 -1 30.2 11.6
-18 3 1 39.3 12.5
15 -18 1 37 10.5
-18 3 1 9.2 8.6
-15 19 -1 72.19 16.2
-4 -15 -1 55.49 13.3
-4 -15 -1 58.69 10.8
19 -4 -1 51.59 12.5
-4 -15 -1 37 13.3
15 -19 1 68.59 13.3
-19 4 1 61.89 14.6
-19 4 1 52.99 12.9
-5 -15 -1 5.5 8.4
-15 20 -1 9 10.5
20 -5 -1 9.9 8.3
-5 -15 -1 17.1 12
-5 -15 -1 18 7.5
-20 5 1 19.5 10.5
5 15 1 10 6.8
15 -20 1 15.8 8.8
-20 5 1 20.8 10.4
-6 -15 -1 27.8 15.3
-6 -15 -1 5.4 11.3
21 -6 -1 14.3 14.1
-6 -15 -1 12.8 9.1
-15 21 -1 0.2 10.9
6 15 1 1.9 5.6
15 -21 1 0.8 7.9
-21 6 1 5.3 8
-21 6 1 7.2 10
22 -7 -1 35.1 11.2
-7 -15 -1 34.3 10.6
-7 -15 -1 23.1 10.2
-15 22 -1 47.9 14.8
-7 -15 -1 30.7 13
15 -22 1 47.8 12.3
7 15 1 23.9 7.4
-22 7 1 19.3 11.2
-22 7 1 23.4 12.1
-15 23 -1 10.3 11.7
-8 -15 -1 11.2 7.8
-8 -15 -1 -1.4 9.8
23 -8 -1 4.5 7
-8 -15 -1 8.5 8.7
8 15 1 2.3 5.9
15 -23 1 17.1 8.8
-23 8 1 -8.8 6.7
-23 8 1 10.8 10.6
-9 -15 -1 25 10.5
24 -9 -1 13.1 8.3
-9 -15 -1 5 7.5
-15 24 -1 17 13.3
-9 -15 -1 16.2 13
9 15 1 20.3 7.6
15 -24 1 7.3 9
-24 9 1 19.5 11.7
-10 -15 -1 -2.6 6.1
-10 -15 -1 -3.4 8.9
25 -10 -1 4.6 7.6
-15 25 -1 -16.6 11
10 15 1 -2.3 5.9
15 -25 1 11.1 10.2
-25 10 1 -1.7 9.4
-15 26 -1 18.6 14.2
26 -11 -1 20.2 10.2
-11 -15 -1 12.1 8.7
-11 -15 -1 18.8 14.6
-11 -15 -1 7.9 14.2
-26 11 1 21.1 12.8
11 15 1 20.9 8.8
15 -26 1 21.9 10.8
27 -12 -1 -6.1 6.3
-15 27 -1 -0.9 17.4
-12 -15 -1 7.8 9.8
-12 -15 -1 -2.4 13.6
15 -27 1 5.9 9.8
12 15 1 -3.8 6.3
28 -13 -1 10.5 8.9
-13 -15 -1 16.6 13.2
-13 -15 -1 15.6 9.8
-13 -15 -1 4.8 14.4
15 -28 1 10.8 10.5
13 15 1 11.6 7.3
-14 -15 -1 8.4 7.6
-14 -15 -1 -10.6 17.6
29 -14 -1 7.1 9.1
15 -29 1 8.1 11.5
14 15 1 15.5 7.9
29 -16 -1 0.5 8.5
-16 -13 -1 32.6 17.5
13 -29 1 -5.6 6.5
16 13 1 -3.1 5.9
13 -29 1 -14 10.5
-16 -12 -1 8.4 14.5
28 -16 -1 21.2 9.4
-16 -12 -1 7 9.9
12 -28 1 8.4 7.8
12 -28 1 12.4 11
16 12 1 19.2 9.9
-16 -11 -1 0.1 14.1
27 -16 -1 1.6 6.9
-16 -11 -1 -7.2 8.8
-16 -11 -1 -17 8.3
11 -27 1 7.9 10.4
11 -27 1 -2.6 5.9
-27 16 1 -14.5 9
16 11 1 -4.1 5.4
-10 26 -1 15.7 13.5
26 -16 -1 47.1 11.3
-16 -10 -1 47.9 14.3
-16 -10 -1 30.1 12.5
-16 -10 -1 80.19 21.3
10 -26 1 10.8 8.2
10 -26 1 28.1 12.6
16 10 1 21.6 9.2
-26 16 1 65.99 16.9
-16 -9 -1 -3.4 8.8
-16 -9 -1 -1.4 9.7
-16 -9 -1 2.3 11.4
-9 25 -1 8.4 12.5
25 -16 -1 4.7 7.1
25 -16 -1 0.9 6.8
9 -25 1 10.1 10
9 -25 1 -0.9 6.1
16 9 1 7.9 7.6
-16 -8 -1 94.29 20.8
24 -16 -1 55.79 13.4
-16 -8 -1 32 16.9
24 -16 -1 94.59 13.7
-24 16 1 36.3 13.2
16 8 1 26.7 9.7
8 -24 1 57.79 11.3
8 -24 1 86.29 18.4
23 -16 -1 -2.5 5.3
-16 -7 -1 15.9 9.8
-7 23 -1 0.9 10.8
-16 -7 -1 9.5 12.7
23 -16 -1 12.1 7.4
7 -23 1 -14.2 9
16 7 1 24.1 8.9
-23 16 1 -8.7 7.9
7 -23 1 12 6.3
22 -16 -1 109.79 15.3
-16 -6 -1 88.69 17.2
-6 22 -1 98.69 19.5
22 -16 -1 109.89 18.5
-16 -6 -1 84.29 21.1
-16 -6 -1 114.69 19.9
16 6 1 52.09 19.8
6 -22 1 102.29 20.2
6 -22 1 117.69 15.8
-22 16 1 134.99 21.3
21 -16 -1 -1.2 6.2
21 -16 -1 13.6 7.4
-16 -5 -1 11.1 8.9
-5 21 -1 11.4 11.1
-16 -5 -1 -0.1 8.1
-21 16 1 -9.6 8
5 -21 1 17.1 12
16 5 1 33.1 10.2
-16 -4 -1 92.69 18.2
-16 -4 -1 163.98 22.2
-4 20 -1 118.29 21.6
20 -16 -1 117.29 15.5
20 -16 -1 126.29 17.5
4 -20 1 136.69 21.4
-20 16 1 131.09 20.2
4 -20 1 98.49 16.2
16 4 1 99.99 18.8
-16 -3 -1 5.3 8.5
-3 19 -1 -2.5 9.5
19 -16 -1 5.3 5.9
19 -16 -1 4.8 6.1
-16 -3 -1 6.9 7.1
16 3 1 3.7 5.6
3 -19 1 2.7 10.5
3 -19 1 -1.5 5.8
-19 16 1 16.4 9.2
16 3 1 -8.2 6.6
18 -16 -1 120.59 16.7
-16 -2 -1 110.79 19.7
-16 -2 -1 90.29 17.4
18 -16 -1 150.48 25.2
-2 18 -1 144.19 22.9
2 -18 1 106.89 16.3
16 2 1 136.79 19.2
-18 16 1 150.88 19.5
2 -18 1 111.89 20.1
16 2 1 97.59 16.9
-16 -1 -1 -1.8 9.3
17 -16 -1 20.2 7.1
17 -16 -1 24.2 7.6
-16 -1 -1 30.8 10.4
-1 17 -1 17.8 11.1
1 -17 1 22.6 11.9
16 1 1 14 7.7
1 -17 1 13.9 7.4
16 1 1 24.2 9.9
16 -16 -1 188.08 21.3
0 16 -1 189.58 27.4
-16 0 -1 226.98 25.6
-16 0 -1 190.78 25.6
16 -16 -1 177.18 19.9
-16 16 1 201.08 23.6
0 -16 1 174.68 26.2
16 0 1 187.68 24
16 0 1 209.78 23.2
0 -16 1 192.08 22.2
15 -16 -1 37.3 7.8
15 -16 -1 30.5 7.9
-16 1 -1 44.9 12.5
1 15 -1 29.2 12.7
-16 1 -1 53.99 13.3
-1 -15 1 65.49 14.9
-15 16 1 50.79 12.2
16 -1 1 23.1 8.8
16 -1 1 37.3 11.3
-1 -15 1 36.4 9.2
-16 2 -1 183.28 23
-16 2 -1 142.79 23.3
14 -16 -1 163.78 16.9
2 14 -1 137.69 22.5
14 -16 -1 167.38 18.3
-2 -14 1 147.79 19.5
-14 16 1 149.49 20.4
16 -2 1 165.08 21.5
-2 -14 1 193.08 23.7
16 -2 1 177.48 20.6
3 13 -1 147.79 20.9
13 -16 -1 153.58 18.2
-16 3 -1 157.08 20.1
-16 3 -1 135.89 20
13 -16 -1 129.89 15
-3 -13 1 145.39 18.6
16 -3 1 97.09 17.2
-3 -13 1 133.09 18.1
-13 16 1 138.59 19.6
-3 -13 1 179.88 23.9
16 -3 1 145.59 19.3
-16 4 -1 203.38 25.6
12 -16 -1 208.78 21
-16 4 -1 210.38 25.1
12 -16 -1 208.08 20.1
16 -4 1 201.38 23.7
-12 16 1 209.48 24.1
16 -4 1 226.38 24.5
-4 -12 1 204.98 23.9
-4 -12 1 217.68 23.3
-4 -12 1 176.98 26.1
-16 5 -1 45.7 12
11 -16 -1 49.99 7.8
5 11 -1 45.8 10.2
11 -16 -1 51.69 7.6
-5 -11 1 36.6 10.4
-5 -11 1 25.2 8.2
16 -5 1 29.3 9.7
-5 -11 1 40.5 12.6
-11 16 1 53.89 11.7
16 -5 1 32 10.2
6 10 -1 249.28 27.1
-16 6 -1 284.27 29.4
10 -16 -1 248.98 24.2
10 -16 -1 262.27 24.1
16 -6 1 257.97 27.5
-10 16 1 231.38 27.5
-6 -10 1 316.67 31.2
-6 -10 1 261.97 28.1
16 -6 1 256.17 27.6
-6 -10 1 236.28 27.1
-16 7 -1 23.4 9
9 -16 -1 11.1 5.1
7 9 -1 4.4 6.3
-9 16 1 20.8 9.6
-7 -9 1 8.2 6.6
-7 -9 1 20.4 10.7
16 -7 1 11.1 7
-7 -9 1 3.7 6.8
16 -7 1 14.2 6.8
-16 8 -1 180.78 22.3
8 8 -1 194.98 20.7
8 -16 -1 157.18 17.1
16 -8 1 161.08 20.1
-8 -8 1 159.38 22.5
16 -8 1 147.69 19.8
-8 16 1 178.78 21.5
-8 -8 1 167.38 20.9
-8 -8 1 163.18 20.4
9 7 -1 13.2 6.9
-16 9 -1 23.6 10
7 -16 -1 18.9 6
16 -9 1 8.1 7
16 -9 1 7 6.2
-9 -7 1 12.8 7.8
-9 -7 1 6.3 6.5
-7 16 1 8.5 8.2
-9 -7 1 16.7 10.2
6 -16 -1 246.28 23
6 -16 -1 240.28 24.3
-16 10 -1 252.17 28.3
6 -16 -1 247.58 23.4
10 6 -1 247.38 26.8
16 -10 1 232.38 26.3
16 -10 1 221.38 26.1
-10 -6 1 265.37 29
-10 -6 1 256.87 27.5
-6 16 1 269.37 27.7
-10 -6 1 239.68 39.5
5 -16 -1 45.1 7.9
5 -16 -1 41.8 6.8
-16 11 -1 28.6 10.2
11 5 -1 36.4 10
5 -16 -1 51.59 9.4
-11 -5 1 38.8 9.7
16 -11 1 38.9 10.2
16 -11 1 37.7 10
-11 -5 1 48.2 12.4
-11 -5 1 44.1 10.9
-5 16 1 34.1 10.4
4 -16 -1 186.18 20.6
-16 12 -1 224.98 25.1
4 -16 -1 195.38 22.3
12 4 -1 193.08 23.6
4 -16 -1 230.08 20.1
-4 16 1 214.08 24.7
16 -12 1 200.88 23.3
-12 -4 1 202.88 24.4
16 -12 1 201.08 23.2
-12 -4 1 210.68 24.6
13 3 -1 137.39 18.5
-16 13 -1 146.69 20.9
3 -16 -1 133.39 14.7
3 -16 -1 152.48 16.2
16 -13 1 128.69 18.5
-13 -3 1 142.29 20.1
16 -13 1 143.29 18
-3 16 1 136.99 20.4
-13 -3 1 99.69 18.5
14 2 -1 143.99 20
-16 14 -1 143.19 20.9
2 -16 -1 175.08 16.3
2 -16 -1 131.99 17.1
2 -16 -1 149.19 19.7
16 -14 1 140.19 19.7
-14 -2 1 162.48 21.2
-2 16 1 141.19 21
16 -14 1 144.79 20.4
-14 -2 1 137.39 20.7
1 -16 -1 45.6 9.9
-16 15 -1 40.4 11.7
15 1 -1 49.99 11.8
1 -16 -1 49.9 8.2
1 -16 -1 34.8 11.2
-15 -1 1 32.6 11.8
16 -15 1 54.99 11.5
16 -15 1 42.6 10.6
-15 -1 1 29.6 10.5
16 0 -1 237.48 28.4
0 -16 -1 153.88 22.4
0 -16 -1 156.98 18.8
-16 16 -1 183.28 24.2
0 -16 -1 178.68 20.4
-16 0 1 180.78 24.2
16 -16 1 179.78 21.9
-16 0 1 216.68 23.7
0 16 1 161.28 23.3
-1 -16 -1 26.5 7.1
-1 -16 -1 35.4 9.5
17 -1 -1 37.5 10.2
-16 17 -1 50.79 13.2
-1 -16 -1 11.2 10
1 16 1 49.99 12.4
-17 1 1 18 10.3
16 -17 1 5.4 6.8
-17 1 1 15.2 8.3
16 -17 1 20.8 9.2
-2 -16 -1 130.19 17.4
-2 -16 -1 110.19 16
18 -2 -1 110.99 19.2
-16 18 -1 137.29 21.1
-2 -16 -1 117.99 19.2
-18 2 1 123.99 20.6
16 -18 1 127.19 17.9
16 -18 1 129.09 18.4
-18 2 1 111.89 20.3
19 -3 -1 1 7.3
-16 19 -1 20.8 12.3
-3 -16 -1 14.4 10.4
-3 -16 -1 -1.9 5.1
-19 3 1 19.3 9
-19 3 1 7.5 9
16 -19 1 10.9 8.3
-16 20 -1 136.29 22.4
-4 -16 -1 114.49 16.8
-4 -16 -1 107.39 20.5
20 -4 -1 144.69 24.8
-4 -16 -1 129.59 18.7
-20 4 1 109.99 19.1
16 -20 1 159.38 19.8
-20 4 1 116.59 21.5
-16 21 -1 1.7 9.9
-5 -16 -1 11.8 11.6
-5 -16 -1 4.6 7.7
21 -5 -1 10 8.5
-5 -16 -1 18.9 7.9
-21 5 1 15.6 10.3
16 -21 1 16.7 9.1
-21 5 1 14.5 11.6
-6 -16 -1 90.19 15.1
22 -6 -1 85.59 16.2
-6 -16 -1 58.29 16.5
-6 -16 -1 91.09 16.9
-16 22 -1 114.59 20.9
-22 6 1 106.49 20.8
16 -22 1 141.69 18.9
-22 6 1 85.69 18.2
-16 23 -1 19.9 11.6
-7 -16 -1 4.8 7.8
23 -7 -1 7.5 8.3
-7 -16 -1 -7.1 10.2
-7 -16 -1 6.7 7
-23 7 1 -3.4 9.6
-23 7 1 12.4 10.7
16 -23 1 6.1 8.5
7 16 1 1 5.9
24 -8 -1 41.9 12.7
-8 -16 -1 70.59 13.8
-8 -16 -1 57.49 13.9
-8 -16 -1 70.69 16.7
-16 24 -1 43.8 16.3
16 -24 1 88.59 15.4
-24 8 1 30.6 12.8
-24 8 1 75.79 19.1
8 16 1 59.99 12.5
-9 -16 -1 1.9 6.6
-9 -16 -1 -4.9 11.1
-16 25 -1 -11.3 11
25 -9 -1 0.7 6.1
-9 -16 -1 21.7 9.4
16 -25 1 24.5 9.8
-25 9 1 -0.5 8.4
-25 9 1 19.9 11.9
9 16 1 0.8 5.7
-10 -16 -1 34.1 11.8
-16 26 -1 51.89 17.3
-10 -16 -1 58.19 18.3
26 -10 -1 39.5 11.4
-26 10 1 30.1 14.1
16 -26 1 55.79 13.5
10 16 1 7.5 11.8
27 -11 -1 -3.3 7.6
-16 27 -1 -0.7 16.5
-11 -16 -1 -1 9.9
-11 -16 -1 11.4 13.6
16 -27 1 8.8 8.2
11 16 1 -2.9 5.6
-12 -16 -1 35.6 14.3
28 -12 -1 24.9 11.1
-12 -16 -1 26.1 16
-12 -16 -1 16 15.6
12 16 1 16.2 9.3
16 -28 1 50.39 12.6
-13 -16 -1 -12.8 7.6
29 -13 -1 9 9.4
-13 -16 -1 -7 16.3
13 16 1 9.7 8.7
16 -29 1 -0.4 9.2
-17 -12 -1 8.9 15.2
29 -17 -1 4.7 8.4
17 12 1 -9.5 7
12 -29 1 7 7.6
28 -17 -1 4.6 7.3
-17 -11 -1 2.3 14.7
-17 -11 -1 12.1 10.4
11 -28 1 2.2 10.4
17 11 1 6.6 7.8
11 -28 1 11.7 7.5
-17 -10 -1 -10.7 10.7
27 -17 -1 5.5 7.3
-17 -10 -1 -3.1 7.4
-17 -10 -1 11.7 19
-27 17 1 -1.7 11.6
10 -27 1 -5.2 6.2
10 -27 1 -5.6 10.4
17 10 1 3.1 7.5
-17 -9 -1 35.6 13.2
-17 -9 -1 26.7 13.8
-9 26 -1 30.8 14.7
-17 -9 -1 40.2 18.1
26 -17 -1 19.9 9.2
9 -26 1 24.6 12.4
9 -26 1 5.3 8.2
-26 17 1 14.5 12.4
17 9 1 2.9 6.6
25 -17 -1 1.3 6.7
25 -17 -1 -0.3 7.2
-8 25 -1 -2.7 11
-17 -8 -1 -7.4 8.5
-17 -8 -1 -0.6 6.4
-17 -8 -1 -3.3 12.1
17 8 1 13.1 7.2
8 -25 1 0.2 5.9
8 -25 1 -0.3 10
24 -17 -1 48.6 10.2
24 -17 -1 31.9 10.4
-17 -7 -1 14.4 10.8
-7 24 -1 31.2 14.6
-17 -7 -1 10.4 13.7
-24 17 1 38.4 13.5
7 -24 1 57.59 15
7 -24 1 40.2 10.2
17 7 1 45.6 11.7
23 -17 -1 1.4 6.1
-17 -6 -1 -15.9 9.1
23 -17 -1 -2.7 5.7
-6 23 -1 -3.3 9.7
6 -23 1 8.5 6.9
6 -23 1 1.8 10.3
-23 17 1 11.1 9.6
17 6 1 4.2 7.7
22 -17 -1 70.49 14.7
-17 -5 -1 65.89 17.6
22 -17 -1 90.09 13.8
-5 22 -1 112.09 20.9
17 5 1 81.99 15.7
5 -22 1 100.79 14.9
-22 17 1 109.99 18.6
5 -22 1 86.69 18.8
-17 -4 -1 7.8 8.6
-4 21 -1 -18.4 8.4
-17 -4 -1 3.4 7.4
21 -17 -1 0.2 5.1
21 -17 -1 -2.5 5.5
4 -21 1 1.5 9.4
-21 17 1 -0.9 7.9
4 -21 1 0.3 5.5
17 4 1 -2.2 5.1
-17 -3 -1 77.49 17.5
20 -17 -1 94.99 12.8
20 -17 -1 81.99 13.5
-17 -3 -1 85.39 15.6
-3 20 -1 76.59 16.7
3 -20 1 90.49 18.4
17 3 1 48.3 12
3 -20 1 85.79 15.8
17 3 1 66.19 15.5
-20 17 1 70.19 15.6
-17 -2 -1 3 9.1
19 -17 -1 3.8 6.7
-17 -2 -1 11.6 9.2
19 -17 -1 15.6 6.9
-2 19 -1 -7 8.5
2 -19 1 -0.9 9.2
2 -19 1 -3.1 10.1
17 2 1 12.8 7.6
17 2 1 8.1 8.6
-19 17 1 9.1 9.1
18 -17 -1 39.6 13.1
-17 -1 -1 40.1 12.7
-1 18 -1 59.59 14.9
18 -17 -1 67.89 12
-17 -1 -1 60.59 14.9
1 -18 1 55.49 11.3
17 1 1 53.39 11.8
17 1 1 31.1 11
1 -18 1 48.1 14.5
-18 17 1 54.49 13
17 -17 -1 14.2 6.2
-17 0 -1 5.6 9.5
0 17 -1 11.7 10.8
17 -17 -1 14.5 5.8
-17 0 -1 12 8.4
0 -17 1 -0.7 10.7
17 0 1 8.5 7.3
0 -17 1 21.5 7.4
17 0 1 -5.5 7
-17 17 1 27.6 10.4
-17 1 -1 22.5 9.1
16 -17 -1 15.2 6.7
1 16 -1 19.2 11.8
16 -17 -1 31 6.9
-17 1 -1 10.8 9.2
-1 -16 1 7.7 10.8
-1 -16 1 23 8.7
17 -1 1 24.4 10.1
17 -1 1 38.4 9.7
-16 17 1 28.5 13.2
-17 2 -1 2.6 9.3
15 -17 -1 27.3 6.7
15 -17 -1 31.4 7.8
-17 2 -1 22 10.4
2 15 -1 16.2 10.6
-2 -15 1 25.1 8.6
-2 -15 1 28.3 9.2
17 -2 1 26.3 8.8
-15 17 1 20.5 9.7
17 -2 1 17.8 9
-2 -15 1 24.9 12.5
14 -17 -1 -5.5 4
-17 3 -1 -8.9 6.9
3 14 -1 -0.6 8.6
14 -17 -1 8.9 5.3
-17 3 -1 4.3 6.8
17 -3 1 10.5 8.4
-14 17 1 -3 7.4
17 -3 1 3.3 6.2
-3 -14 1 2.4 5.7
-3 -14 1 3.7 7.1
-3 -14 1 -12.5 9.1
-17 4 -1 7 8.3
-17 4 -1 4.7 6.7
13 -17 -1 -0.9 3.9
17 -4 1 -16 5.5
-4 -13 1 18.4 10.5
-4 -13 1 0.6 6.3
-13 17 1 2.7 7.8
-4 -13 1 -4.9 5.6
17 -4 1 1 5.2
12 -17 -1 93.69 12.2
-17 5 -1 103.89 17.2
12 -17 -1 76.19 10.7
17 -5 1 90.09 15.7
-5 -12 1 76.09 14.1
17 -5 1 76.49 14.4
-5 -12 1 75.69 12.9
-12 17 1 66.79 14.1
-5 -12 1 82.99 17
11 -17 -1 4.1 4.1
-17 6 -1 1.7 8.2
6 11 -1 4.1 5.7
11 -17 -1 2.6 4.1
-6 -11 1 -1.2 6.2
17 -6 1 -10.3 5.4
-6 -11 1 0.6 5.7
-11 17 1 -0.3 7.9
17 -6 1 1.4 5.2
-6 -11 1 4.9 8.9
-17 7 -1 45.6 12.5
10 -17 -1 46.5 7.9
7 10 -1 42 10.8
-7 -10 1 68.19 15
-7 -10 1 55.09 12.1
17 -7 1 40.2 10.6
-10 17 1 45.3 12
17 -7 1 47.9 11.6
-7 -10 1 27.6 14.1
8 9 -1 13 6.8
9 -17 -1 31.3 6.8
-17 8 -1 16.8 9.3
-8 -9 1 18.3 8.6
17 -8 1 13.5 7.9
-8 -9 1 28.5 10.7
-8 -9 1 21.5 11.6
17 -8 1 23.9 9
-9 17 1 29 10.4
9 8 -1 24.5 8.5
8 -17 -1 26.2 6.6
-17 9 -1 6.4 9.1
-9 -8 1 15.5 10.3
-8 17 1 26.6 10.4
-9 -8 1 21 8.6
17 -9 1 9.9 7.9
-9 -8 1 17.8 8.8
17 -9 1 14.5 7.3
10 7 -1 46.6 10.5
7 -17 -1 42.7 8.5
7 -17 -1 44.4 7.4
-17 10 -1 36.1 11.3
7 -17 -1 43.9 7.7
17 -10 1 56.59 11.4
-10 -7 1 36.2 9.9
-10 -7 1 38.2 12.8
-7 17 1 28.9 10.8
17 -10 1 49.8 10.6
-10 -7 1 62.39 12.6
6 -17 -1 -2.5 3.2
-17 11 -1 7.1 8.1
6 -17 -1 0.2 4.2
11 6 -1 12 7.4
6 -17 -1 0.7 5.6
-11 -6 1 0.3 6.3
-11 -6 1 2.9 9.1
-6 17 1 -7.3 7.5
17 -11 1 -4.4 5.2
-11 -6 1 -3.8 6.3
17 -11 1 4.1 6.6
5 -17 -1 85.99 13
-17 12 -1 84.69 15.8
12 5 -1 63.69 13
5 -17 -1 91.19 12
5 -17 -1 92.59 10.8
-5 17 1 78.19 16
-12 -5 1 108.29 15.9
17 -12 1 78.59 13.8
17 -12 1 102.09 16.7
-12 -5 1 61.59 14
-17 13 -1 -1.3 7.6
4 -17 -1 -0.1 3.6
4 -17 -1 2.5 4.9
13 4 -1 -4.8 4.9
17 -13 1 -0.5 5.5
-4 17 1 5.4 7.5
17 -13 1 -0.2 5.9
-13 -4 1 1.4 6.7
-13 -4 1 -3.3 6.4
-17 14 -1 7.6 8.2
14 3 -1 -10.9 4.8
3 -17 -1 4.1 5.5
3 -17 -1 5.8 4
3 -17 -1 8 7.6
17 -14 1 0.8 6.6
-3 17 1 10.2 11.1
-14 -3 1 3.2 8
-14 -3 1 3 6
17 -14 1 4.9 6.8
15 2 -1 25.3 9.7
2 -17 -1 17.7 7
2 -17 -1 31.8 10.2
2 -17 -1 23.4 6.2
-17 15 -1 17.7 10.3
17 -15 1 23.3 8.8
-15 -2 1 26.5 10.5
-15 -2 1 12.5 8.1
-2 17 1 17.5 9.7
17 -15 1 26.4 9.4
1 -17 -1 32.3 8.6
1 -17 -1 20.1 9.7
16 1 -1 15.5 8.5
1 -17 -1 21.7 6.4
-17 16 -1 4.6 9.8
17 -16 1 35.1 10
17 -16 1 9.8 7.2
-16 -1 1 44.7 12.9
-1 17 1 12.9 10.3
-16 -1 1 8.1 9.2
-17 17 -1 16.1 10.6
0 -17 -1 12.7 7.2
0 -17 -1 8.9 5.6
0 -17 -1 5.3 9.5
17 0 -1 11.7 8
-17 0 1 19.6 10.7
17 -17 1 28.5 9.5
17 -17 1 27.2 8.8
0 17 1 0.6 9.1
-17 0 1 23 8.8
-1 -17 -1 63.49 10.6
18 -1 -1 33.4 10.9
-1 -17 -1 89.69 15.4
-1 -17 -1 47.1 11.3
-17 18 -1 60.79 16.1
17 -18 1 69.69 12.9
17 -18 1 75.49 13.5
-18 1 1 78.29 16.6
-18 1 1 22.6 11
1 17 1 51.99 14.1
-17 19 -1 8.4 9.7
-2 -17 -1 0.3 9.2
19 -2 -1 10.3 7.4
-2 -17 -1 0.4 5.5
-19 2 1 3 9.2
17 -19 1 11.2 6.7
17 -19 1 -7.5 6.4
-3 -17 -1 74.49 13
20 -3 -1 72.99 14.9
-17 20 -1 97.99 18.4
-3 -17 -1 79.49 14.8
-3 -17 -1 97.99 17.1
17 -20 1 77.29 14.6
17 -20 1 104.19 15.8
-20 3 1 64.99 16.3
-4 -17 -1 6.6 5.9
-4 -17 -1 5.3 7.6
-17 21 -1 11.5 10.4
-4 -17 -1 -3.1 9.8
21 -4 -1 -7 5.6
17 -21 1 -3.9 5.3
-21 4 1 -6 6
-21 4 1 12.2 10.8
17 -21 1 3 6.6
-17 22 -1 90.19 19.4
-5 -17 -1 81.49 17.9
-5 -17 -1 51.79 12.4
22 -5 -1 53.19 13.4
-5 -17 -1 73.19 14.9
-22 5 1 70.59 17
-22 5 1 52.79 15.7
17 -22 1 94.19 15.9
23 -6 -1 -7.5 6.1
-6 -17 -1 -13.9 10.1
-6 -17 -1 7.5 8.4
-6 -17 -1 4.3 6.7
-17 23 -1 -8.2 10.8
17 -23 1 7.3 7.9
-23 6 1 -2.3 9.1
-17 24 -1 44.2 22.2
-7 -17 -1 40 10.6
24 -7 -1 32.9 11.1
-7 -17 -1 16.6 12.9
-7 -17 -1 49.99 12.9
-24 7 1 5.9 11.2
-24 7 1 33.4 13.1
17 -24 1 40.2 11.5
25 -8 -1 -6.7 5.3
-8 -17 -1 8.9 8.4
-17 25 -1 11.7 13.9
-8 -17 -1 -8 5.3
17 -25 1 -8.4 7.1
-25 8 1 1.4 9.7
-25 8 1 -3 7.9
8 17 1 11.1 7.9
26 -9 -1 36.4 11
-17 26 -1 28 15.3
-9 -17 -1 20.7 12.9
-9 -17 -1 18.6 9.5
17 -26 1 39.6 11.8
-26 9 1 22.3 21
9 17 1 33.4 10.8
-10 -17 -1 10.6 9.2
-10 -17 -1 1 11.7
27 -10 -1 -14.8 6.5
-10 -17 -1 -7.2 11.6
17 -27 1 9 9
10 17 1 4.6 6.9
28 -11 -1 24.5 11.2
-11 -17 -1 14.7 13.5
-11 -17 -1 22.5 15.9
-11 -17 -1 6.2 11.7
11 17 1 14.4 8.9
17 -28 1 2.4 10
-12 -17 -1 -7.9 7.6
-12 -17 -1 2.1 13.8
-12 -17 -1 19.2 15.8
29 -12 -1 -2.7 9.2
12 17 1 19.1 8.5
17 -29 1 -5.7 9.8
29 -18 -1 6.5 7.7
-18 -11 -1 0.5 16.4
18 11 1 -6.5 5.5
11 -29 1 9.2 7.7
-18 -10 -1 -1.1 16.1
28 -18 -1 18.4 10.2
18 10 1 8.1 8
10 -28 1 24.8 9.5
10 -28 1 2.2 18.1
-18 -9 -1 -2.7 8.6
-18 -9 -1 20 16.6
27 -18 -1 3.6 7.9
-27 18 1 5.6 12.2
9 -27 1 0.5 11.1
9 -27 1 12.5 8.1
18 9 1 3.7 6.5
26 -18 -1 32.7 10.9
-18 -8 -1 33.8 16.7
-18 -8 -1 33.1 14.6
-8 26 -1 32.1 18.6
-18 -8 -1 39.5 13.9
8 -26 1 22.2 9.5
8 -26 1 53.19 15.9
18 8 1 24.6 10.2
-26 18 1 75.49 17
25 -18 -1 11.6 7.5
-18 -7 -1 16.4 13.6
-18 -7 -1 2.3 10.2
25 -18 -1 31.7 10.2
-18 -7 -1 20.3 10.8
-7 25 -1 14 12.1
18 7 1 -3.4 6.8
7 -25 1 34.8 12.7
7 -25 1 17.6 8.5
-18 -6 -1 74.49 19.1
24 -18 -1 111.49 14.9
-18 -6 -1 108.89 22.7
24 -18 -1 93.19 17.8
-18 -6 -1 78.79 17.8
-6 24 -1 49.4 17.1
-24 18 1 76.79 16.8
18 6 1 63.69 15.6
6 -24 1 102.89 15
6 -24 1 88.89 19.4
23 -18 -1 24.8 7.7
23 -18 -1 9.2 7
5 -23 1 10.5 12
18 5 1 0.7 6.9
-23 18 1 26.1 12.1
5 -23 1 6.1 7.3
22 -18 -1 142.99 19.1
22 -18 -1 146.39 17.3
-4 22 -1 121.89 22.6
4 -22 1 122.49 22.9
18 4 1 124.19 20.9
4 -22 1 131.29 18.3
-22 18 1 138.29 22.7
21 -18 -1 1 6
-18 -3 -1 1.1 9.2
21 -18 -1 13.3 7.5
-3 21 -1 19.7 12.2
18 3 1 5.1 9.2
3 -21 1 6.4 11.3
3 -21 1 -5.6 5.7
18 3 1 13.1 7.2
-21 18 1 3.1 9.5
20 -18 -1 127.69 17.9
-18 -2 -1 125.09 21.2
20 -18 -1 132.69 15.5
-18 -2 -1 88.69 18.2
-2 20 -1 84.99 19.4
-20 18 1 89.19 18
2 -20 1 104.59 16.4
2 -20 1 110.99 21
18 2 1 104.79 18.5
18 2 1 112.89 19.3
19 -18 -1 14.5 6.6
-18 -1 -1 -6.2 8.3
-18 -1 -1 -12.9 6
-1 19 -1 -4.1 9
18 1 1 5.4 6.6
-19 18 1 11.3 8.8
1 -19 1 23.3 12.7
1 -19 1 8.9 6.5
-18 0 -1 32.3 12.4
-18 0 -1 61.59 14
18 -18 -1 59.19 10.9
0 18 -1 18.6 12.1
18 -18 -1 57.29 11.6
0 -18 1 35.9 13.8
18 0 1 57.09 13.8
-18 18 1 39.7 12.3
0 -18 1 64.09 11.4
18 0 1 39.4 10.7
17 -18 -1 62.99 11.3
-18 1 -1 49.3 13.8
17 -18 -1 62.19 9.7
-18 1 -1 46.4 13.6
1 17 -1 51.79 14.6
-1 -17 1 58.09 11.6
18 -1 1 61.69 13.1
18 -1 1 48.5 12.7
-17 18 1 81.79 15.3
-1 -17 1 57.49 15.8
-1 -17 1 37.1 11.7
16 -18 -1 114.89 13.8
16 -18 -1 128.59 15.6
-18 2 -1 106.39 20.2
2 16 -1 116.59 21.1
-18 2 -1 100.89 17.5
-2 -16 1 88.89 16
-2 -16 1 140.39 22.6
18 -2 1 107.99 17
-16 18 1 158.48 22.4
18 -2 1 115.79 18.5
-2 -16 1 86.09 16.5
3 15 -1 20.9 12.2
-18 3 -1 11.1 8.6
15 -18 -1 25.6 6.3
-18 3 -1 16.7 10.9
15 -18 -1 43 8.5
-15 18 1 17 13.2
-3 -15 1 31.1 10
-3 -15 1 11.2 12.1
-3 -15 1 24.1 8.8
18 -3 1 25.8 10.2
18 -3 1 14.1 8.1
14 -18 -1 105.89 15
-18 4 -1 123.19 18.6
-18 4 -1 128.39 21.2
14 -18 -1 126.09 14
18 -4 1 136.49 19.3
-4 -14 1 125.89 20.8
18 -4 1 89.29 15.7
-4 -14 1 118.29 18.4
-14 18 1 136.19 19.5
-4 -14 1 144.19 19.7
13 -18 -1 14.2 7.1
-18 5 -1 26.6 11.4
13 -18 -1 13.7 5.1
-5 -13 1 18.1 8.5
-13 18 1 28.1 10
18 -5 1 3.9 5.2
-5 -13 1 11.9 7.1
18 -5 1 17.9 8.9
-5 -13 1 4.9 10.4
12 -18 -1 120.59 13.5
-18 6 -1 126.39 20.1
6 12 -1 130.69 17.3
12 -18 -1 121.39 14.2
-6 -12 1 98.89 16.3
-6 -12 1 94.09 19.6
18 -6 1 114.29 18.3
18 -6 1 103.69 17.8
-6 -12 1 148.39 18.9
-12 18 1 143.29 19.9
11 -18 -1 52.69 8
7 11 -1 48.7 10.5
-18 7 -1 39.7 12.2
11 -18 -1 48.8 8.1
18 -7 1 29.6 10
-7 -11 1 45.4 11.9
18 -7 1 32 8.8
-7 -11 1 32.8 13.9
-7 -11 1 52.39 11.6
-11 18 1 50.09 12.7
10 -18 -1 132.49 15.6
8 10 -1 157.08 19.1
-18 8 -1 140.69 22
18 -8 1 158.08 20.1
-8 -10 1 140.09 22.2
-10 18 1 145.69 21.1
-8 -10 1 126.89 19.2
18 -8 1 158.78 19.6
-8 -10 1 153.08 19.7
-18 9 -1 0.6 8
9 -18 -1 14.5 5.7
9 9 -1 5 6.4
-9 18 1 2.5 8.9
18 -9 1 10 7.3
-9 -9 1 6.8 7.4
-9 -9 1 23 9.2
-9 -9 1 13.6 10.7
18 -9 1 14.6 8.1
-18 10 -1 156.68 22.2
8 -18 -1 134.99 16
10 8 -1 133.69 18.8
18 -10 1 142.49 19
-10 -8 1 156.38 19.8
18 -10 1 159.38 19.4
-10 -8 1 142.29 20.1
-10 -8 1 127.09 21.5
-8 18 1 147.39 21
7 -18 -1 40.9 9
7 -18 -1 49.9 8.1
11 7 -1 48.5 10.6
-18 11 -1 57.29 13.6
7 -18 -1 38 7.2
18 -11 1 49.3 11.5
-11 -7 1 58.19 12.9
-11 -7 1 46.3 12.2
-11 -7 1 56.29 14.9
-7 18 1 31.5 11.8
18 -11 1 62.29 11.8
6 -18 -1 118.99 16
6 -18 -1 146.69 14.7
6 -18 -1 128.99 13.6
12 6 -1 139.49 18.7
-18 12 -1 106.29 19.2
-12 -6 1 96.29 17.7
-6 18 1 100.19 18.8
-12 -6 1 143.59 18.8
-12 -6 1 123.09 21.1
18 -12 1 107.19 17.7
18 -12 1 135.39 18.7
5 -18 -1 10.8 5.8
-18 13 -1 29.1 10.9
13 5 -1 22.8 7.7
5 -18 -1 21.2 5.3
-5 18 1 19.3 15.9
-13 -5 1 21.9 9.1
-13 -5 1 19 9.3
18 -13 1 26.8 9.3
18 -13 1 15.6 8.6
4 -18 -1 130.79 16.2
14 4 -1 143.49 19.8
4 -18 -1 150.28 15.1
4 -18 -1 125.99 18.4
-18 14 -1 133.09 21.2
18 -14 1 121.09 19.3
18 -14 1 170.18 22.1
-14 -4 1 123.49 21.2
-4 18 1 130.69 21.3
-14 -4 1 123.19 19.9
3 -18 -1 24.6 5.9
3 -18 -1 38.4 10.3
-18 15 -1 18.4 10.8
3 -18 -1 26.2 7.5
15 3 -1 32.6 9.7
-15 -3 1 13.5 9.5
18 -15 1 39.7 10.2
-3 18 1 6.1 9.3
-15 -3 1 35 11.8
18 -15 1 28.1 10.1
16 2 -1 107.89 17.9
-18 16 -1 136.89 20.8
2 -18 -1 126.69 15.8
2 -18 -1 127.29 18.1
2 -18 -1 118.99 14.3
-16 -2 1 103.89 19.3
18 -16 1 94.99 16.8
-2 18 1 127.79 20.2
-16 -2 1 119.89 19.9
18 -16 1 104.89 17.5
1 -18 -1 58.29 13.7
1 -18 -1 54.39 11.3
17 1 -1 62.69 13.3
1 -18 -1 68.99 10.1
-18 17 -1 51.49 14.3
-17 -1 1 33.3 11.1
18 -17 1 37.2 11
-17 -1 1 84.89 16.6
-1 18 1 57.69 14.1
18 -17 1 52.49 12.2
18 0 -1 42 11.4
0 -18 -1 53.19 10.6
-18 18 -1 52.89 14.5
0 -18 -1 50.89 13.6
0 -18 -1 50.59 9.5
18 -18 1 61.99 13
18 -18 1 52.89 11.9
0 18 1 36.9 12.9
-18 0 1 49.4 13.7
-1 -18 -1 -5 8.3
-18 19 -1 7.6 9.4
-1 -18 -1 -8.7 4.2
-1 -18 -1 -4.1 8.4
19 -1 -1 5.9 7.9
18 -19 1 9.5 7.9
-19 1 1 -3.3 8.9
1 18 1 -6 7.6
18 -19 1 5.2 6.7
-2 -18 -1 73.89 17.3
20 -2 -1 88.29 16.6
-18 20 -1 111.59 21.6
-2 -18 -1 123.09 17.4
-2 -18 -1 112.39 15.5
18 -20 1 142.89 17.7
-20 2 1 81.29 18.5
18 -20 1 104.69 17.2
21 -3 -1 4.2 7.5
-3 -18 -1 6.4 10.8
-3 -18 -1 12.5 8.5
-3 -18 -1 -1.4 5.6
-18 21 -1 34.3 13.5
18 -21 1 11.8 7.6
18 -21 1 0.8 8.4
-21 3 1 13.9 11.2
-4 -18 -1 169.08 30.9
-18 22 -1 141.39 24.1
22 -4 -1 157.98 24.8
-4 -18 -1 145.59 20.6
-4 -18 -1 111.99 21
-22 4 1 156.88 26.8
18 -22 1 145.49 20.3
18 -22 1 161.38 21.3
-22 4 1 116.09 30.4
-18 23 -1 32.4 13.1
-5 -18 -1 21 12
23 -5 -1 6.1 7.7
-5 -18 -1 10.8 8.1
-5 -18 -1 1.5 8.6
-23 5 1 -7.1 8.4
18 -23 1 7.8 8.4
-23 5 1 5.6 11.6
18 -23 1 25.8 9.1
-6 -18 -1 98.09 18.2
-6 -18 -1 82.99 18.4
24 -6 -1 120.39 21.1
-6 -18 -1 89.59 16.6
-18 24 -1 57.89 25.6
-24 6 1 71.89 20.3
18 -24 1 102.09 16.5
-24 6 1 94.19 20.3
18 -24 1 106.19 16.4
25 -7 -1 20.3 9.6
-7 -18 -1 24 9.7
-7 -18 -1 2.3 15
-18 25 -1 49.99 16.3
-7 -18 -1 23.2 10.5
18 -25 1 24.1 10.2
18 -25 1 19.8 9.3
-25 7 1 -9.3 8.7
-25 7 1 34.7 14.2
-8 -18 -1 31.6 16.2
-18 26 -1 103.99 22.7
26 -8 -1 48.3 12.7
-8 -18 -1 46.8 12.3
18 -26 1 42.9 11.8
18 -26 1 62.29 14.1
-9 -18 -1 35.8 9
27 -9 -1 19.2 9.5
-9 -18 -1 13.5 13.9
18 -27 1 20.2 10.6
18 -27 1 18.5 9
-10 -18 -1 7.3 12.2
-10 -18 -1 46.6 17.4
28 -10 -1 12.9 11.4
18 -28 1 20.3 8.9
18 -28 1 13.2 10.6
-11 -18 -1 4.1 14.5
29 -11 -1 2.7 13.5
-11 -18 -1 4.1 12.1
-11 -18 -1 2.9 9.8
18 -29 1 -7.5 7.6
11 18 1 10.7 7.8
18 -29 1 4.5 9.7
29 -19 -1 -5.9 6.9
-19 -10 -1 31 16.2
10 -29 1 11 13.4
19 10 1 -5.8 5.9
10 -29 1 -1.9 7.2
28 -19 -1 -1.3 7.1
-19 -9 -1 10.2 15
19 9 1 0.1 8.6
9 -28 1 -13.5 12.4
9 -28 1 12.6 8.8
-19 -8 -1 -22.2 11.5
27 -19 -1 1 6.3
19 8 1 -2.4 6.2
8 -27 1 2.9 6.8
26 -19 -1 2.6 6.8
-19 -7 -1 24.9 17.3
-19 -7 -1 2.8 10.1
7 -26 1 2.5 16
19 7 1 4.5 7.8
-26 19 1 -6.4 8.6
7 -26 1 -3.6 5.7
-19 -6 -1 0 11.1
-6 25 -1 20.1 12.6
-19 -6 -1 1.4 13.4
25 -19 -1 6.8 7.1
25 -19 -1 -5.6 6.1
-19 -6 -1 -1.1 10.7
19 6 1 -0.6 7.2
6 -25 1 18.2 13
6 -25 1 1.6 6.5
-25 19 1 -3.3 9.1
-19 -5 -1 24.1 12.2
-5 24 -1 3.8 11.6
24 -19 -1 12.1 7
-19 -5 -1 31.8 13.4
24 -19 -1 19.1 13.6
5 -24 1 18 8.1
5 -24 1 -5.2 10
-24 19 1 31.1 11.6
19 5 1 -3.1 7.5
23 -19 -1 8.9 6.5
-4 23 -1 5.9 11.6
-19 -4 -1 21.3 11.6
23 -19 -1 17 7.6
-19 -4 -1 -18.8 7.2
19 4 1 11.6 8.3
-23 19 1 18.7 10.6
4 -23 1 2.6 11.4
4 -23 1 -6.9 5.5
22 -19 -1 15.6 8.3
22 -19 -1 35.7 8.2
-3 22 -1 43.9 16.6
-19 -3 -1 8.7 11.7
19 3 1 31.7 10.9
-22 19 1 27.3 12.6
3 -22 1 32.2 14.6
3 -22 1 18 8.3
21 -19 -1 22.1 8.3
-2 21 -1 11.4 11.3
21 -19 -1 27.7 7.9
2 -21 1 31.9 8.7
2 -21 1 20.7 13.2
-21 19 1 16.1 10.2
19 2 1 19.2 8.2
19 2 1 8.3 10.1
20 -19 -1 21.6 8.2
20 -19 -1 27.3 12.9
19 1 1 3.1 8
-20 19 1 24.4 10.8
1 -20 1 12.7 11.9
1 -20 1 0.3 7.6
19 1 1 34.3 11.7
1 -20 1 14.6 8.1
-19 0 -1 33.5 13.1
-19 0 -1 9.7 8.6
0 19 -1 55.09 14.4
19 -19 -1 20.2 8.3
19 -19 -1 8.9 9.4
19 0 1 18.4 10.2
0 -19 1 24.6 9.7
19 0 1 21.7 9.7
0 -19 1 24.5 8
-19 19 1 18.5 10.5
0 -19 1 0.9 11.2
-19 1 -1 -1.6 9.2
1 18 -1 -8.8 8
18 -19 -1 -2.7 4.4
18 -19 -1 2.9 6.1
-19 1 -1 -7 5.9
19 -1 1 6.6 11.2
-18 19 1 11.1 8.5
-1 -18 1 20.1 12.8
-1 -18 1 0.9 7.2
-1 -18 1 0.9 5.6
17 -19 -1 10.7 5.5
2 17 -1 7.2 10.7
-19 2 -1 -5.3 6.4
17 -19 -1 13.1 5.9
-17 19 1 1 8.1
-2 -17 1 7.1 7.3
-2 -17 1 11.1 7.4
-2 -17 1 -3.5 10.1
19 -2 1 -7 5.3
19 -2 1 10.3 8.9
-19 3 -1 -1.7 11.7
16 -19 -1 -0.6 4.8
-19 3 -1 4.9 7.7
16 -19 -1 4.1 4.6
19 -3 1 4.1 6.6
-3 -16 1 15.1 8.5
-16 19 1 10.9 9.1
19 -3 1 -0.5 7.1
-3 -16 1 11.8 7
-3 -16 1 12.7 11.7
15 -19 -1 50.19 9.6
-19 4 -1 39.4 11.7
-19 4 -1 57.49 14.3
15 -19 -1 48.1 8.2
19 -4 1 37.2 10.9
-15 19 1 54.69 13.7
-4 -15 1 56.79 15.7
-4 -15 1 61.49 12.9
19 -4 1 66.59 13.6
-4 -15 1 48.2 12.4
14 -19 -1 14.4 6.1
-19 5 -1 31.5 11
14 -19 -1 10.5 5.3
-5 -14 1 10.9 11.6
-5 -14 1 22.4 9.5
19 -5 1 23.2 9.2
19 -5 1 5.8 8.1
-5 -14 1 25.4 8.6
13 -19 -1 -3.2 4
-19 6 -1 -6.4 7.6
13 -19 -1 0.4 4.1
-6 -13 1 2.7 6.2
-6 -13 1 1.6 6.7
19 -6 1 -10 6
-13 19 1 -2.1 11.1
-6 -13 1 -19.4 8.2
19 -6 1 2.4 5.5
12 -19 -1 20.1 5.6
12 -19 -1 11.4 5.6
7 12 -1 15.5 7.3
-19 7 -1 16.8 9.9
19 -7 1 11.4 6.4
-12 19 1 -0.5 9
-7 -12 1 29 10
-7 -12 1 14.9 7.8
19 -7 1 12.6 8.4
-7 -12 1 14.7 11.2
11 -19 -1 8.1 4.9
8 11 -1 19.9 8.3
-19 8 -1 15.7 9.7
-8 -11 1 13.8 11.6
-11 19 1 12.3 9.7
19 -8 1 1 5
19 -8 1 3.9 7
-8 -11 1 14.6 8.8
-8 -11 1 17.8 8.6
-19 9 -1 34.7 11.6
9 10 -1 15 8.1
10 -19 -1 19.9 6.2
-9 -10 1 4.9 7
19 -9 1 9.7 8.4
19 -9 1 20.3 7.5
-9 -10 1 27.1 12.2
-9 -10 1 23 9.5
-10 19 1 14.7 10.2
9 -19 -1 26.8 6.8
-19 10 -1 25.5 11.5
10 9 -1 16.3 8.2
19 -10 1 20.5 8.7
-10 -9 1 17.7 12
19 -10 1 26.3 8.4
-10 -9 1 22.1 8.7
-10 -9 1 14 7.9
-9 19 1 33.6 11.6
8 -19 -1 1.8 5.4
8 -19 -1 5.1 4.1
11 8 -1 3.3 6.5
-19 11 -1 10.3 9.8
8 -19 -1 8.9 4.9
-11 -8 1 18.2 8.9
19 -11 1 4.1 5.9
-11 -8 1 10.5 9.9
19 -11 1 -1.2 6.5
-8 19 1 16 16.5
-11 -8 1 3.6 7.1
7 -19 -1 19.7 7.3
12 7 -1 10.3 8.4
-19 12 -1 15.2 9.5
7 -19 -1 22.9 5.4
7 -19 -1 13.3 5.7
19 -12 1 19 7.2
19 -12 1 17.8 8.8
-12 -7 1 31.2 10.5
-12 -7 1 14.3 8.6
-12 -7 1 1.8 9.6
-7 19 1 21.6 13.4
6 -19 -1 3.5 3.7
6 -19 -1 7 5.1
13 6 -1 -6 5.5
-19 13 -1 2.6 7.9
19 -13 1 -6.3 5.7
-13 -6 1 -1.5 6
-13 -6 1 -7.2 6.8
-6 19 1 3.7 8.8
19 -13 1 4.9 5.8
-13 -6 1 3.8 10.3
14 5 -1 19 8
5 -19 -1 22.1 5.8
5 -19 -1 17.8 8.9
5 -19 -1 28.9 7.2
-19 14 -1 15.4 10.1
-14 -5 1 23.2 10.1
19 -14 1 26.9 9.5
-14 -5 1 21.4 10.2
-5 19 1 7.8 9.9
19 -14 1 10 7.6
4 -19 -1 54.29 11.6
-19 15 -1 42.2 13.8
15 4 -1 45.8 11.2
4 -19 -1 69.29 10.5
4 -19 -1 52.39 8.5
-4 19 1 57.19 14.9
19 -15 1 68.39 14.1
-15 -4 1 51.99 13.7
19 -15 1 66.89 12.8
-15 -4 1 30.5 11.6
3 -19 -1 -11.6 7.1
3 -19 -1 6.9 6.2
16 3 -1 -3.6 5.7
3 -19 -1 -0.8 4.1
-19 16 -1 5.8 9.6
-16 -3 1 -5.2 6
-3 19 1 1.4 9.3
19 -16 1 3.4 6.3
19 -16 1 -1.2 7.1
-16 -3 1 -1.6 13.5
2 -19 -1 -0.5 4.6
-19 17 -1 23.6 10.2
17 2 -1 1.3 7.5
2 -19 -1 17.1 7.7
2 -19 -1 10 9
19 -17 1 17.6 7.6
-17 -2 1 10.4 8.1
-2 19 1 12.9 9.9
19 -17 1 -0.2 5.9
1 -19 -1 -4 4.2
-19 18 -1 3.6 9.1
18 1 -1 9.3 11.6
1 -19 -1 9.5 6.9
1 -19 -1 2.3 8.7
19 -18 1 12 7.9
-1 19 1 -13.7 8.2
19 -18 1 2.1 5.6
0 -19 -1 12.6 9.4
19 0 -1 19.1 9.2
0 -19 -1 16.5 8.6
0 -19 -1 15.3 6.2
-19 19 -1 11.1 11.2
19 -19 1 25.9 9.4
19 -19 1 17.5 8.1
0 19 1 18 11.2
-19 0 1 11.2 11.7
-19 20 -1 11.4 11.1
20 -1 -1 12.8 9
-1 -19 -1 32.5 12
-1 -19 -1 22.6 7.4
-1 -19 -1 9.7 8.3
19 -20 1 36.9 10.3
-20 1 1 26.6 11.7
19 -20 1 5.1 7.2
1 19 1 9.7 11.2
-2 -19 -1 6.6 10.1
-2 -19 -1 18 7.4
-19 21 -1 11.5 10.5
-2 -19 -1 12.7 9
21 -2 -1 8.9 8.7
-21 2 1 30.1 12.5
19 -21 1 18.2 8.1
19 -21 1 20.3 9.5
-19 22 -1 57.19 16.3
-3 -19 -1 37.7 11.3
22 -3 -1 37.2 12.1
-3 -19 -1 32.4 10.2
-3 -19 -1 36.8 13.7
19 -22 1 33.6 10.1
19 -22 1 48.9 11.8
-22 3 1 28.8 17.7
-4 -19 -1 5 9
23 -4 -1 14.1 8.8
-4 -19 -1 1.8 6.7
-4 -19 -1 8.4 11.1
-19 23 -1 11.9 15.6
19 -23 1 17.8 8.8
-23 4 1 15.7 10.9
19 -23 1 4.8 7.9
-23 4 1 13.9 10.3
-5 -19 -1 3 11.5
-19 24 -1 21.9 14.1
-5 -19 -1 9.5 7.5
-5 -19 -1 10 9.4
24 -5 -1 8.6 8
-24 5 1 49.1 15
-24 5 1 16.6 11.5
19 -24 1 8.5 6.8
19 -24 1 12.5 9.1
-19 25 -1 13.2 12.3
-6 -19 -1 13.9 9.9
25 -6 -1 15.3 8.4
-6 -19 -1 -3.7 10.2
-6 -19 -1 -2 6.7
19 -25 1 14.5 9.4
-25 6 1 9.3 13.1
19 -25 1 24 9.8
26 -7 -1 12.6 9.7
-19 26 -1 2.5 12.4
-7 -19 -1 6.4 12.3
-7 -19 -1 1.7 7.6
19 -26 1 1.2 7.1
19 -26 1 9.7 9.3
-8 -19 -1 9.8 14.2
-8 -19 -1 2.3 8
27 -8 -1 -3.5 7.1
-8 -19 -1 -5.1 12.7
19 -27 1 -8.6 8.1
19 -27 1 0 7.2
28 -9 -1 -2.6 7.6
-9 -19 -1 16.5 13.4
-9 -19 -1 -3.6 14.4
19 -28 1 -14.4 7.3
19 -28 1 10.7 10.7
-10 -19 -1 4.9 11.9
29 -10 -1 -3.8 8.1
-10 -19 -1 -1.8 15.4
-10 -19 -1 4.2 11
19 -29 1 2.6 8.9
19 -29 1 -4.7 6.7
29 -20 -1 6.7 7.8
9 -29 1 8.9 7.8
20 9 1 6.3 8.4
9 -29 1 4.3 12.9
-20 -8 -1 34.9 20.6
28 -20 -1 15.3 9.4
8 -28 1 28 9.3
20 8 1 9.3 7.6
8 -28 1 21.1 13.2
-20 -7 -1 -7.7 13.9
27 -20 -1 13.2 6.9
7 -27 1 -8.9 12.5
20 7 1 5.5 7.9
7 -27 1 12.8 8.3
26 -20 -1 55.39 12.9
-20 -6 -1 5.9 14.7
6 -26 1 52.29 18.5
6 -26 1 34.6 13
6 -26 1 44.9 10.8
20 6 1 33.6 12.3
-26 20 1 22.4 14.9
-20 -5 -1 9.2 19.7
25 -20 -1 5.1 6.3
-20 -5 -1 0.4 10
-5 25 -1 4.6 14.8
25 -20 -1 5.3 6.9
20 5 1 5.5 8.4
5 -25 1 30.5 8.7
-25 20 1 32.6 11.6
5 -25 1 16.8 8.5
24 -20 -1 58.99 11
-20 -4 -1 69.99 17.4
-4 24 -1 56.69 17.4
24 -20 -1 66.89 21.1
-20 -4 -1 62.89 16.8
-24 20 1 46.1 17.1
4 -24 1 62.49 12.7
4 -24 1 69.09 13.9
4 -24 1 86.59 23.4
20 4 1 58.49 14.3
-20 -3 -1 12.4 9.7
23 -20 -1 -0.3 6
-3 23 -1 6 11.3
23 -20 -1 10.3 7.5
-20 -3 -1 -23.7 9
20 3 1 5.3 8
3 -23 1 14.5 7
-23 20 1 11.8 11
3 -23 1 0.6 11.4
3 -23 1 4.4 8
-20 -2 -1 146.79 25.8
22 -20 -1 139.99 19.7
-20 -2 -1 99.29 21.2
22 -20 -1 125.69 15.6
-2 22 -1 90.19 21.5
2 -22 1 131.19 17.5
20 2 1 79.29 16.6
-22 20 1 108.39 20.5
2 -22 1 87.49 17
2 -22 1 112.09 21.8
21 -20 -1 7.1 6.3
-1 21 -1 10.4 11.2
-20 -1 -1 -4.2 9
-21 20 1 39.5 11.9
1 -21 1 11.8 8.5
20 1 1 16.4 9.6
20 1 1 9.5 6.5
1 -21 1 9.8 11.9
1 -21 1 2.9 6.8
20 -20 -1 69.99 13.3
0 20 -1 64.29 17.7
20 0 1 77.59 15.7
0 -20 1 67.59 13.1
0 -20 1 68.19 14
0 -20 1 46.3 16.1
20 0 1 71.59 16.8
-20 20 1 82.19 16.8
19 -20 -1 13.4 7.1
1 19 -1 1.7 11.1
19 -20 -1 19.1 6.7
20 -1 1 6.1 8.2
-1 -19 1 -0.7 11.9
-1 -19 1 16.2 9.4
20 -1 1 9.9 7.6
-19 20 1 13.4 10.5
-1 -19 1 17.4 8.5
-20 2 -1 83.79 18.2
18 -20 -1 90.39 12.3
2 18 -1 71.99 17.5
18 -20 -1 108.49 14.8
-18 20 1 95.79 18.6
20 -2 1 103.69 18.9
-2 -18 1 88.09 16.4
20 -2 1 99.19 16
-2 -18 1 97.49 19.7
-2 -18 1 95.59 15.3
17 -20 -1 66.49 11.7
17 -20 -1 78.59 10.8
20 -3 1 67.19 18.5
-3 -17 1 69.19 13.2
-17 20 1 72.79 15.8
-3 -17 1 81.39 16.3
20 -3 1 54.79 13.2
-3 -17 1 73.89 17.9
16 -20 -1 136.29 14.4
16 -20 -1 105.49 15.7
-4 -16 1 131.09 21.1
-16 20 1 106.99 20.3
-4 -16 1 181.08 19.6
20 -4 1 111.89 19.1
-4 -16 1 106.99 21.8
15 -20 -1 36 7.9
15 -20 -1 20.6 5.9
-5 -15 1 6.5 8.7
-5 -15 1 16.6 8.2
20 -5 1 19.4 8.8
-5 -15 1 7.3 12
-15 20 1 16.1 11.1
20 -5 1 6.1 7.7
-20 6 -1 142.29 25.3
14 -20 -1 104.69 13.1
14 -20 -1 111.99 14.6
-6 -14 1 138.79 19.1
20 -6 1 125.89 19.6
-6 -14 1 99.59 18
-14 20 1 147.39 21.3
20 -6 1 113.19 18.8
-6 -14 1 74.89 19.2
13 -20 -1 59.89 10
-20 7 -1 72.19 16
13 -20 -1 77.29 9.8
7 13 -1 49.4 11.7
-7 -13 1 58.09 12.5
20 -7 1 54.89 13.4
20 -7 1 53.69 11.5
-7 -13 1 64.89 16.4
-13 20 1 35.7 13.1
-7 -13 1 58.79 13.6
12 -20 -1 165.78 17.8
8 12 -1 143.59 21.6
12 -20 -1 156.58 18.5
-20 8 -1 183.48 24.6
20 -8 1 224.58 23.2
-8 -12 1 190.08 26.3
-8 -12 1 154.18 22.5
-12 20 1 156.78 23.9
20 -8 1 209.08 23.8
-8 -12 1 202.38 23.7
-20 9 -1 7.9 10.4
9 11 -1 28.7 10.2
11 -20 -1 47 7.6
-9 -11 1 57.19 15.6
-11 20 1 56.79 13.6
20 -9 1 36.6 11
-9 -11 1 36.2 10.7
-9 -11 1 33.5 11
20 -9 1 29.6 9.4
10 10 -1 191.48 22.7
10 -20 -1 171.58 18.7
-20 10 -1 216.08 26.2
-10 -10 1 180.28 23.7
20 -10 1 191.18 23.1
-10 -10 1 183.18 23
-10 20 1 164.38 24.2
20 -10 1 162.98 22.9
-10 -10 1 203.08 26.7
9 -20 -1 39.6 7.4
9 -20 -1 38.4 7.2
11 9 -1 22.5 9.3
9 -20 -1 34 7.9
-20 11 -1 33.4 12.5
-11 -9 1 28.6 10.6
20 -11 1 40 11
-9 20 1 29 11.9
-11 -9 1 36.5 11.6
-11 -9 1 54.09 15.1
20 -11 1 34.3 9.1
12 8 -1 205.78 22.5
8 -20 -1 192.98 17.7
8 -20 -1 170.78 18
8 -20 -1 160.08 18.7
-20 12 -1 141.89 23.8
20 -12 1 141.79 21.2
-12 -8 1 166.58 22.6
20 -12 1 168.28 22.1
-8 20 1 172.78 24
-12 -8 1 131.59 23.7
-12 -8 1 183.88 23.3
7 -20 -1 64.49 16.5
7 -20 -1 51.89 8.4
7 -20 -1 61.99 9.7
13 7 -1 57.89 13
-20 13 -1 77.99 15.6
-13 -7 1 59.99 15.4
-13 -7 1 45 12.1
-13 -7 1 59.29 14.1
20 -13 1 63.59 12.9
20 -13 1 54.59 12
-7 20 1 29.7 12.2
-20 14 -1 146.09 22
6 -20 -1 122.39 15.3
14 6 -1 95.99 18.5
6 -20 -1 131.59 22
6 -20 -1 133.69 14.3
-6 20 1 129.29 21.2
-14 -6 1 112.49 22.1
-14 -6 1 155.38 21
20 -14 1 126.69 18.4
20 -14 1 136.89 19
-14 -6 1 106.69 20.2
15 5 -1 -1.3 6.8
-20 15 -1 28.8 11.6
5 -20 -1 18 9
5 -20 -1 14.4 6.7
5 -20 -1 9.3 4.7
-15 -5 1 14.5 9.6
-5 20 1 18 10.6
20 -15 1 22 9.4
20 -15 1 21.5 8.7
4 -20 -1 120.59 17.9
-20 16 -1 105.09 19.7
16 4 -1 146.49 22.2
4 -20 -1 114.79 14.1
4 -20 -1 126.59 16
20 -16 1 129.69 18.9
20 -16 1 108.09 18.2
-16 -4 1 130.79 22.8
-4 20 1 142.59 22.4
3 -20 -1 93.99 15.3
3 -20 -1 70.79 11.2
3 -20 -1 83.19 13
17 3 -1 76.49 17.2
-20 17 -1 66.89 15.2
20 -17 1 70.59 14.4
20 -17 1 86.09 16.5
-3 20 1 85.89 17.2
-17 -3 1 104.39 18.2
2 -20 -1 106.59 13.8
-20 18 -1 94.69 18.3
2 -20 -1 110.69 17.9
2 -20 -1 105.79 15.4
18 2 -1 97.29 18
20 -18 1 111.89 17.6
-18 -2 1 115.89 21.9
-2 20 1 103.99 18.9
20 -18 1 78.29 16.1
1 -20 -1 9.3 5.6
-20 19 -1 20.5 11.9
1 -20 -1 16.7 8.2
1 -20 -1 12.9 9.8
19 1 -1 15.5 9.7
20 -19 1 14.2 8.2
20 -19 1 13.6 8.7
-1 20 1 5.4 10.5
0 -20 -1 63.39 14.2
-20 20 -1 38.8 15.6
0 -20 -1 74.09 12.3
0 -20 -1 81.39 15.7
20 0 -1 86.09 16.7
20 -20 1 93.29 15.5
0 20 1 75.09 17.1
20 -20 1 80.79 15.5
-1 -20 -1 -4.9 9.9
-1 -20 -1 20.3 8.9
-1 -20 -1 4.7 6.1
-20 21 -1 3.5 10.4
21 -1 -1 5.9 7.8
20 -21 1 16.9 8.6
20 -21 1 11.5 8.6
-21 1 1 10.2 13.9
22 -2 -1 80.89 18.2
-2 -20 -1 121.59 18.3
-20 22 -1 117.89 23.1
-2 -20 -1 105.99 15.9
-2 -20 -1 103.29 19.5
20 -22 1 168.48 19.7
-22 2 1 97.59 20.5
20 -22 1 95.49 16.7
23 -3 -1 10.4 8.3
-3 -20 -1 1.9 11.2
-20 23 -1 25.3 14.2
-3 -20 -1 0.5 6.2
-3 -20 -1 11.8 9.6
-23 3 1 5.6 10.3
-23 3 1 12.8 10.5
20 -23 1 11 8.8
20 -23 1 -3.4 6.4
-4 -20 -1 67.49 13.7
24 -4 -1 61.99 15.4
-20 24 -1 87.99 20.6
-4 -20 -1 80.39 18.9
-4 -20 -1 117.19 17.9
20 -24 1 80.99 15.7
-24 4 1 68.29 18.1
-24 4 1 45.3 17.4
20 -24 1 72.89 15.3
-5 -20 -1 12.3 8.5
-20 25 -1 8.3 13.4
-5 -20 -1 8.9 9.2
-5 -20 -1 7.1 12.1
25 -5 -1 14.8 9.9
20 -25 1 10.6 8
20 -25 1 7.2 8.4
-6 -20 -1 27.1 10
26 -6 -1 25 11.4
-6 -20 -1 25 11.6
-6 -20 -1 21.7 16.2
20 -26 1 41.6 11.4
20 -26 1 34.2 17.9
27 -7 -1 7.5 8.1
-7 -20 -1 19.1 9.9
-7 -20 -1 10.9 13.5
20 -27 1 13.2 9.3
20 -27 1 24.2 10.8
-8 -20 -1 26.9 15
-8 -20 -1 11.2 14.4
20 -28 1 32 11.5
20 -28 1 23.7 10.2
-9 -20 -1 -12.6 11
29 -9 -1 2.5 9.9
-9 -20 -1 4.2 14.1
-9 -20 -1 -5.5 10.5
20 -29 1 26.5 10.3
20 -29 1 -1.2 8.5
29 -21 -1 -3.8 6.2
8 -29 1 -3.3 6.3
-21 -7 -1 -0.1 15.9
28 -21 -1 16.9 8.3
21 7 1 12.1 10
7 -28 1 8.3 7.3
7 -28 1 0.7 13.3
27 -21 -1 -4.6 5.8
-21 -6 -1 1.2 15.6
6 -27 1 12.2 13.7
6 -27 1 13.3 7.1
21 6 1 0.3 8.2
26 -21 -1 5.8 6.6
-21 -5 -1 -1.7 12.1
21 5 1 -9.3 7.3
5 -26 1 -1 6.7
-26 21 1 -7.8 9.4
5 -26 1 41.4 16.3
25 -21 -1 -8.7 4.9
25 -21 -1 2.8 6.3
-25 21 1 -6 9.5
21 4 1 -5.5 6
4 -25 1 -10 6
4 -25 1 -6.3 10.5
-3 24 -1 32.3 16.6
24 -21 -1 43 13.3
24 -21 -1 31.5 8.5
-21 -3 -1 18.8 15.4
-21 -3 -1 5.4 12.1
21 3 1 19.2 10.4
3 -24 1 21.8 14.3
3 -24 1 12.8 8.1
3 -24 1 9 8.3
23 -21 -1 -6.2 5.4
23 -21 -1 6.9 9.1
-21 -2 -1 3.6 9.6
-21 -2 -1 -10.6 9.1
-2 23 -1 5.2 9.2
21 2 1 0.5 6.9
-23 21 1 11.5 10.1
2 -23 1 -1 5.8
2 -23 1 8.5 8.4
2 -23 1 -1.3 12.1
-1 22 -1 21.8 13.3
22 -21 -1 26.4 11.9
-21 -1 -1 15.4 13.1
22 -21 -1 18.8 8.2
-21 -1 -1 9.7 10.4
-22 21 1 47.8 13.7
21 1 1 23.5 8.9
1 -22 1 32.5 9.9
1 -22 1 38.2 10.4
21 1 1 16.5 11
21 -21 -1 -2.4 5
-21 0 -1 -7.3 9.4
21 -21 -1 7.2 9.6
-21 0 -1 5.8 9.5
0 21 -1 -5.1 9.2
0 -21 1 -2.7 13
0 -21 1 1 5.9
0 -21 1 5.9 7.6
-21 21 1 4.1 8.9
21 0 1 -14.8 7.3
21 0 1 -3.8 5
20 -21 -1 5.9 5.7
1 20 -1 12.6 17.7
20 -21 -1 8.2 6.6
-21 1 -1 -11.1 11
-21 1 -1 9.9 12.8
-1 -20 1 2 6.8
21 -1 1 0.7 8.4
-1 -20 1 14.5 9.8
21 -1 1 16.4 9.1
-20 21 1 5.7 10
-1 -20 1 20.6 12.4
2 19 -1 2.4 10.4
19 -21 -1 12.9 5.6
-21 2 -1 9.5 13.1
19 -21 -1 11 6.4
21 -2 1 1.5 8.7
-2 -19 1 14.5 8.4
21 -2 1 1.4 7.4
-19 21 1 6.4 10.7
-2 -19 1 27.3 14.4
-2 -19 1 2.2 8.6
18 -21 -1 8.9 5.1
18 -21 -1 12.4 6.5
21 -3 1 12.4 8.8
-3 -18 1 -7.8 10.7
-3 -18 1 6.3 7.7
-3 -18 1 1.5 6.2
21 -3 1 1.2 8.1
-18 21 1 24.1 11.7
17 -21 -1 -4.5 3.9
17 -21 -1 -1.1 4.6
-4 -17 1 -10.6 4.3
21 -4 1 -7.8 7.1
-4 -17 1 -1.2 6.5
-4 -17 1 -12.4 10.3
21 -4 1 0.6 6.4
-17 21 1 -17.4 7.7
16 -21 -1 6.7 4.9
16 -21 -1 11.7 6
-5 -16 1 10.2 7.5
21 -5 1 16.1 14.5
-16 21 1 12.4 10.4
21 -5 1 10.3 8.3
-5 -16 1 -0.4 11.2
-5 -16 1 15.6 9.3
15 -21 -1 5.8 5.3
15 -21 -1 8 4.8
-6 -15 1 19.5 8
21 -6 1 9.8 8.9
-6 -15 1 5.2 11.1
-6 -15 1 -2.2 7.1
-15 21 1 23.8 11.4
21 -6 1 5.2 8
14 -21 -1 9.7 5.8
14 -21 -1 29.4 6.1
21 -7 1 8.3 8.1
-7 -14 1 2.1 7.5
-7 -14 1 20.7 9.7
-7 -14 1 30.7 14.5
-14 21 1 23.3 12.3
21 -7 1 27 10.1
13 -21 -1 -3.5 3.8
13 -21 -1 -2.9 3.5
-21 8 -1 -5.7 7.9
8 13 -1 -3.1 6.2
-8 -13 1 3.3 6.3
-8 -13 1 -3.9 6.4
-8 -13 1 -3.5 10.6
21 -8 1 6.1 8.3
-13 21 1 -6.8 8.7
21 -8 1 7.7 9.9
12 -21 -1 31.1 6.9
-21 9 -1 30.7 12.8
9 12 -1 46.2 12.3
12 -21 -1 37.8 10.2
21 -9 1 21.8 8.9
-9 -12 1 36.3 11.1
21 -9 1 43.7 12.1
-12 21 1 28.2 11.2
-9 -12 1 12 12.5
-9 -12 1 41.7 11.5
-21 10 -1 11.9 10
10 11 -1 0.5 6.9
11 -21 -1 6.9 4.9
-10 -11 1 0.5 10.5
21 -10 1 -11 4.5
-10 -11 1 10.1 8.3
21 -10 1 -4.3 7
-11 21 1 -6.5 8.6
-10 -11 1 3.1 6.9
10 -21 -1 9.6 5.5
11 10 -1 -3.8 5
-21 11 -1 -11.4 8.2
10 -21 -1 1.2 4.6
-11 -10 1 -3.7 6.6
21 -11 1 10.1 7.5
-10 21 1 1.9 9.2
-11 -10 1 7.6 11.7
-11 -10 1 -1.3 7.8
21 -11 1 10.7 8.4
12 9 -1 11.4 7.9
-21 12 -1 29 12.4
9 -21 -1 23.2 7.4
9 -21 -1 35.3 7.4
9 -21 -1 33.8 6.6
-12 -9 1 25.4 9.6
21 -12 1 37.9 10.9
-9 21 1 29 12.1
-12 -9 1 7.2 11.7
21 -12 1 37.7 9.9
-12 -9 1 28.8 11.5
8 -21 -1 -14.4 6.8
8 -21 -1 3.5 3.8
13 8 -1 6.9 7.2
8 -21 -1 5.6 5.1
-21 13 -1 -8.9 6.9
-13 -8 1 0.5 8.5
-13 -8 1 -7.9 11.7
-13 -8 1 -3.2 6.8
-8 21 1 10.9 10
21 -13 1 6.5 7.3
21 -13 1 10.8 6.8
7 -21 -1 14.8 12.5
14 7 -1 36.2 10.2
-21 14 -1 13.5 10.2
7 -21 -1 17.2 6.7
7 -21 -1 15.6 5
21 -14 1 47.7 11.6
-7 21 1 18.2 11.5
-14 -7 1 15.3 9.2
21 -14 1 3.7 8
-14 -7 1 31.6 11.3
6 -21 -1 21.3 6.8
15 6 -1 6.3 10.7
6 -21 -1 21 5.8
6 -21 -1 12.7 7.7
-21 15 -1 1.4 9.5
-6 21 1 11.8 9.9
21 -15 1 0.9 6.1
21 -15 1 19.2 9
-15 -6 1 10 12.7
-15 -6 1 0.4 6.8
5 -21 -1 15.7 8.5
16 5 -1 16.3 9.2
5 -21 -1 12.8 6.6
5 -21 -1 11 4.9
-21 16 -1 -2.5 8.5
21 -16 1 5.9 7.8
-5 21 1 -12.9 8.1
-16 -5 1 15.8 10.7
-16 -5 1 14 7
21 -16 1 0.4 7.1
4 -21 -1 4.5 4.8
-21 17 -1 -3.2 8.3
17 4 -1 -0.7 6.7
4 -21 -1 0 5.8
4 -21 -1 -1.1 7.3
-17 -4 1 1.7 12.7
21 -17 1 6.3 7.7
-4 21 1 4.9 9.5
21 -17 1 2.9 6.4
3 -21 -1 4.6 5.5
3 -21 -1 7.1 7.2
3 -21 -1 1 8.1
18 3 -1 1.6 6.4
-21 18 -1 13.6 10
21 -18 1 14.5 8.5
21 -18 1 2.3 7.2
-3 21 1 15.5 10.3
2 -21 -1 -1.9 8.4
2 -21 -1 19.1 6.4
2 -21 -1 12.8 7.9
19 2 -1 14 9
-21 19 -1 -2.4 9.7
-19 -2 1 17 13.3
21 -19 1 16.8 9
-2 21 1 11.1 11.3
21 -19 1 24.4 10.7
1 -21 -1 5.2 5.6
-21 20 -1 -1.8 10.1
20 1 -1 5.1 8.3
1 -21 -1 -0.2 9.4
1 -21 -1 8.9 11.7
21 -20 1 10.5 8.2
-1 21 1 28.4 12.1
21 -20 1 18.5 8.6
0 -21 -1 -14.8 6
21 0 -1 1.7 7.8
-21 21 -1 -4.2 10.2
0 -21 -1 -4.7 9.2
0 -21 -1 2.6 5.6
-21 0 1 19.9 9.9
21 -21 1 8.4 7.9
21 -21 1 -2.2 6.6
0 21 1 -1.4 10.8
-21 22 -1 30.2 15
-1 -21 -1 28.5 10.1
22 -1 -1 41.5 11.8
-1 -21 -1 42.1 13.9
-1 -21 -1 7.7 6.8
-22 1 1 24.7 12.3
21 -22 1 37.1 10.8
-22 1 1 21.1 12.1
21 -22 1 44.8 11
-2 -21 -1 7.1 8.5
23 -2 -1 -1.3 7.1
-2 -21 -1 -11.2 5.2
-21 23 -1 -2.2 9.4
-2 -21 -1 -15.2 8.3
21 -23 1 10.6 8.1
21 -23 1 14.8 13.7
-23 2 1 -1.7 9.4
-23 2 1 -11.4 6.1
-3 -21 -1 28 14.2
-3 -21 -1 6.1 7.6
24 -3 -1 24.7 10.5
-21 24 -1 1.6 12.8
-3 -21 -1 21.3 10.8
21 -24 1 20.3 8.7
21 -24 1 4.3 10.2
-4 -21 -1 5.9 9.2
-21 25 -1 -3.5 11.2
25 -4 -1 -2.3 7.9
-4 -21 -1 1.5 6.9
-4 -21 -1 -11.4 11
21 -25 1 -6.7 6.5
21 -25 1 7 6.9
-5 -21 -1 28.6 9.3
26 -5 -1 4 9.1
-5 -21 -1 27.1 11
21 -26 1 6.9 7.9
21 -26 1 11.7 8.9
27 -6 -1 3.8 8.5
-6 -21 -1 -0.5 13.2
-6 -21 -1 10 7.9
21 -27 1 7.8 8.8
21 -27 1 -2.6 6.7
-7 -21 -1 14.9 8.3
-7 -21 -1 7.7 12.7
28 -7 -1 1.2 8.8
-7 -21 -1 11.4 16.1
21 -28 1 6 8.6
21 -28 1 3.9 7.9
-8 -21 -1 13.8 13.4
29 -8 -1 -7.4 7.4
21 -29 1 -10.6 6.7
21 -29 1 9.7 9.3
28 -22 -1 19.9 9.7
22 6 1 29.4 15.5
6 -28 1 23.4 14.3
6 -28 1 22.7 9.2
27 -22 -1 6 7.2
-22 -5 -1 24.2 18.5
5 -27 1 -3 7.3
22 5 1 3.3 8.5
5 -27 1 26.4 15.1
26 -22 -1 45.1 11.4
4 -26 1 28.9 9.5
22 4 1 17.6 9.1
4 -26 1 44.5 16.5
-26 22 1 55.29 19.3
25 -22 -1 10.8 7.1
-25 22 1 8.5 10.1
3 -25 1 7.2 7
3 -25 1 30.7 16.1
22 3 1 15.2 8.8
24 -22 -1 56.79 12.1
24 -22 -1 77.59 17.9
2 -24 1 81.49 13.8
22 2 1 47.5 14
-24 22 1 42.4 15.6
2 -24 1 27.9 16.8
-22 -1 -1 22.4 11.9
-22 -1 -1 20.5 13
-1 23 -1 19.8 13.1
23 -22 -1 17.1 7.6
1 -23 1 19.2 14.1
22 1 1 17.4 10.1
-23 22 1 8.9 10.4
1 -23 1 27 9.1
-22 0 -1 64.79 16.8
-22 0 -1 22 13.6
22 -22 -1 54.39 10.9
22 -22 -1 54.19 11.6
0 22 -1 26.8 15.9
0 -22 1 58.49 17.4
22 0 1 83.59 16.9
0 -22 1 82.79 13.4
-22 22 1 40 14.5
22 0 1 61.79 15.7
1 21 -1 37.3 15.5
-22 1 -1 28 13.3
21 -22 -1 32.4 7.2
-22 1 -1 25.7 14.7
21 -22 -1 35.9 9.8
-21 22 1 24.1 12
-1 -21 1 9.7 8.3
-1 -21 1 22.1 15.1
22 -1 1 33.4 11
-1 -21 1 34.5 12.9
22 -1 1 28.8 11.8
-22 2 -1 72.79 19.4
20 -22 -1 117.39 17.1
20 -22 -1 106.09 13.1
-22 2 -1 89.99 20.3
22 -2 1 114.69 19.1
-2 -20 1 105.79 18.7
-2 -20 1 104.79 17.8
-20 22 1 119.19 22
-2 -20 1 120.89 24.3
22 -2 1 117.89 19.7
19 -22 -1 32.7 8.8
19 -22 -1 20.8 6.1
-22 3 -1 50.29 17.8
-3 -19 1 10.1 7.9
-19 22 1 10.6 12
-3 -19 1 16.2 17.2
-3 -19 1 56.59 12.2
22 -3 1 30.3 11.9
22 -3 1 20.8 9.4
18 -22 -1 124.89 14.7
18 -22 -1 152.78 17.9
-4 -18 1 156.28 21.4
22 -4 1 88.99 17.7
-18 22 1 162.68 24.1
-4 -18 1 171.38 20.9
22 -4 1 161.28 23.7
17 -22 -1 73.09 10.4
17 -22 -1 77.59 12.9
-5 -17 1 65.79 14.2
22 -5 1 68.79 13.8
-17 22 1 83.69 17.5
22 -5 1 71.99 15.6
-5 -17 1 94.69 16.6
16 -22 -1 114.69 14.5
16 -22 -1 111.49 12
-16 22 1 121.79 20
-6 -16 1 81.89 16.1
22 -6 1 70.19 14.4
-6 -16 1 89.59 16.8
22 -6 1 89.69 17.4
15 -22 -1 37.6 6.7
15 -22 -1 26.6 7.5
-7 -15 1 28.7 11
-15 22 1 33.9 13.4
-7 -15 1 16.4 9.7
22 -7 1 17.8 7.9
14 -22 -1 137.69 15.8
14 -22 -1 129.59 17.1
-8 -14 1 152.68 21.6
22 -8 1 165.48 21.8
-14 22 1 164.78 25
-8 -14 1 174.48 22.6
22 -8 1 179.98 22.6
13 -22 -1 96.99 12.7
-22 9 -1 74.59 17.6
13 -22 -1 88.09 11.2
9 13 -1 94.39 16.3
-13 22 1 97.19 18.8
22 -9 1 76.49 15.6
22 -9 1 99.69 17.1
-9 -13 1 89.29 16.7
-9 -13 1 69.49 15.7
-22 10 -1 227.58 29.1
10 12 -1 194.88 25.5
12 -22 -1 230.08 21.3
-12 22 1 229.78 28.8
-10 -12 1 279.47 44.3
-10 -12 1 227.28 27.3
22 -10 1 182.78 26
-10 -12 1 202.68 26.6
22 -10 1 223.18 27.2
11 -22 -1 142.69 15.1
-22 11 -1 141.49 23.1
11 11 -1 111.29 18
11 -22 -1 131.99 14.7
22 -11 1 171.38 20.5
-11 22 1 140.49 23
-11 -11 1 96.09 19.3
22 -11 1 160.28 21.5
-11 -11 1 90.19 21.3
-11 -11 1 150.28 21.1
10 -22 -1 207.38 21
12 10 -1 169.98 24.3
10 -22 -1 214.68 20.7
10 -22 -1 199.88 20.6
-22 12 -1 198.48 27.5
-10 22 1 167.98 27.2
-12 -10 1 171.58 29.5
-12 -10 1 226.98 27
-12 -10 1 228.98 26.9
22 -12 1 205.78 25.6
22 -12 1 247.18 28.3
9 -22 -1 81.69 13.8
9 -22 -1 93.69 12.2
13 9 -1 107.59 17.4
-22 13 -1 112.29 19.7
9 -22 -1 80.99 11.5
-13 -9 1 57.19 15.1
22 -13 1 70.59 19.6
-9 22 1 50.89 16.4
-13 -9 1 89.49 19.1
22 -13 1 95.99 16.9
-13 -9 1 88.29 20.1
8 -22 -1 165.68 18.7
-22 14 -1 159.68 25.5
8 -22 -1 171.28 17.7
14 8 -1 118.59 24.9
-8 22 1 204.78 26.3
-14 -8 1 213.58 28.5
-14 -8 1 171.58 24.4
22 -14 1 188.58 23.5
15 7 -1 45.6 12
7 -22 -1 32 11.3
-22 15 -1 34.7 13.5
7 -22 -1 36.5 8.5
7 -22 -1 44.3 7.4
22 -15 1 18.9 12.8
-15 -7 1 32.2 11.8
-7 22 1 40 13.5
22 -15 1 40.9 11.2
-15 -7 1 40.7 15.9
-22 16 -1 111.79 20.1
6 -22 -1 103.89 14.2
16 6 -1 113.79 19.8
6 -22 -1 113.69 16.4
6 -22 -1 107.79 12.9
22 -16 1 75.79 24.8
-16 -6 1 103.49 21.8
-6 22 1 96.09 19.6
22 -16 1 81.59 16.2
17 5 -1 61.29 13.7
5 -22 -1 79.59 12.1
5 -22 -1 65.19 12.8
-22 17 -1 49.2 14.4
5 -22 -1 81.69 10.9
-17 -5 1 42.1 15.2
22 -17 1 63.29 13.9
-5 22 1 67.19 16.6
4 -22 -1 136.99 16.4
18 4 -1 113.89 21.4
4 -22 -1 160.08 20.2
-22 18 -1 139.59 23.3
4 -22 -1 141.19 18.5
22 -18 1 142.19 21.6
-4 22 1 204.68 25.6
-18 -4 1 160.48 28.2
3 -22 -1 20.5 9.1
19 3 -1 25.7 10.4
-22 19 -1 55.59 14.8
3 -22 -1 28.9 7.4
3 -22 -1 35.2 11.3
-3 22 1 31.1 13.3
22 -19 1 34.1 11
-19 -3 1 27.6 12.7
2 -22 -1 107.59 14.2
2 -22 -1 100.99 18.3
20 2 -1 113.29 19.5
-22 20 -1 140.59 32.9
22 -20 1 92.59 18.1
-20 -2 1 96.99 19.3
-2 22 1 91.79 20.2
22 -20 1 98.59 17
1 -22 -1 17.8 11.2
1 -22 -1 38 10.6
21 1 -1 18.1 10.8
1 -22 -1 17.7 7.3
-22 21 -1 -1.3 13.1
-21 -1 1 38.2 13.1
-21 -1 1 28.1 12.3
22 -21 1 19.9 9.9
22 -21 1 23.1 9.5
-1 22 1 20 13.5
-22 22 -1 81.39 18.2
0 -22 -1 76.49 12.4
0 -22 -1 55.79 13.2
22 0 -1 65.09 15.7
0 -22 -1 60.69 14.9
-22 0 1 73.69 18.1
-22 0 1 47.2 15.2
0 22 1 42.1 17.8
22 -22 1 97.69 15.7
22 -22 1 61.49 15.1
-1 -22 -1 21 10.1
23 -1 -1 5.1 8.6
-22 23 -1 9.2 12.1
-1 -22 -1 25.7 10
-1 -22 -1 11.1 11.1
22 -23 1 16.4 10.5
22 -23 1 7.1 8.3
-22 24 -1 51.19 16.9
24 -2 -1 56.89 14.8
-2 -22 -1 52.79 15.3
-2 -22 -1 56.09 13.8
-2 -22 -1 68.19 12.8
22 -24 1 67.19 13.9
22 -24 1 84.39 15.4
-3 -22 -1 6.2 7.4
-3 -22 -1 6.1 11.7
-3 -22 -1 13.1 9.6
25 -3 -1 16.3 10.8
22 -25 1 12.8 8.8
22 -25 1 4.6 8.7
-4 -22 -1 43.1 12.4
-4 -22 -1 51.89 11.9
26 -4 -1 30.6 12.5
22 -26 1 52.79 12.4
22 -26 1 35.4 11.3
-5 -22 -1 12 8.3
-5 -22 -1 9 13.5
27 -5 -1 14.7 13.7
22 -27 1 12.7 9.7
22 -27 1 25.5 10.4
-6 -22 -1 9.1 14.7
-6 -22 -1 21.7 8.7
28 -6 -1 24.6 10.9
22 -28 1 22.8 10.9
22 -28 1 9.9 9.1
-23 -5 -1 47.4 21.7
28 -23 -1 26 9.9
5 -28 1 -8.6 13.9
5 -28 1 9.7 7.1
23 5 1 12.8 10.7
5 -28 1 -2.4 11.4
27 -23 -1 -3 5.7
4 -27 1 12.5 14.4
4 -27 1 -18.8 10
23 4 1 -14.9 12.1
4 -27 1 -5.1 6.4
26 -23 -1 12.6 7.3
23 3 1 7.6 8.7
3 -26 1 20.1 15.3
3 -26 1 25.9 18.1
3 -26 1 20.6 8.8
25 -23 -1 -5.6 5
2 -25 1 -1.8 6
23 2 1 5.9 9
2 -25 1 3.8 12.5
-25 23 1 11.5 10.3
24 -23 -1 20.2 8.9
-24 23 1 23.4 12.9
1 -24 1 46.1 19.2
23 1 1 2.1 7.9
1 -24 1 26.6 9.1
1 -24 1 8.8 11.9
23 -23 -1 6.6 7.3
0 -23 1 4.3 7.3
23 0 1 12.6 9
0 -23 1 2.7 13.6
1 22 -1 26.6 13.1
22 -23 -1 27.1 9
-23 1 -1 33.9 22.5
-23 1 -1 10.9 11.9
-1 -22 1 20.1 8.4
23 -1 1 13.7 11.8
-1 -22 1 19.3 13.6
23 -1 1 0.1 7.5
-22 23 1 2.2 10.7
21 -23 -1 0.5 5.8
-23 2 -1 5.1 8.1
-23 2 -1 -15.1 9
-2 -21 1 -3.5 6.5
23 -2 1 -3.9 6.7
-2 -21 1 -5.3 10.6
-21 23 1 -2.3 11.2
23 -2 1 -2.5 9
-23 3 -1 21.3 12.1
20 -23 -1 7.5 6.9
-23 3 -1 13 10.2
23 -3 1 10.4 9.5
-3 -20 1 10.8 8.4
-20 23 1 -16.3 8.2
23 -3 1 11.5 9
-3 -20 1 10.8 13.9
-23 4 -1 9.4 16.7
19 -23 -1 2.9 6.1
23 -4 1 2.4 9.9
-19 23 1 28.8 12.8
-4 -19 1 17.5 13
-4 -19 1 -2.7 6.1
23 -4 1 2.3 8.1
18 -23 -1 7.4 6.8
23 -5 1 18.6 9.5
-18 23 1 38.7 13.1
-5 -18 1 12 13.4
-5 -18 1 17.9 9.6
23 -5 1 2.2 8.9
17 -23 -1 1.4 5.2
-17 23 1 -5.4 8.6
23 -6 1 -4 5.2
-6 -17 1 -8.6 5.7
-6 -17 1 1.9 12.6
23 -6 1 -0.3 8.1
16 -23 -1 6.9 5.9
16 -23 -1 6.6 4.5
-7 -16 1 14 12.9
-16 23 1 -7.2 9.1
-7 -16 1 12.1 8.1
23 -7 1 1 6.7
23 -7 1 0.2 8
15 -23 -1 5 5.1
-8 -15 1 16.7 8.6
-8 -15 1 1.8 11.3
-15 23 1 3.8 10
23 -8 1 6.8 9.1
23 -8 1 -10.4 4.6
9 14 -1 25.2 9.6
14 -23 -1 22.5 6.7
-23 9 -1 43.2 14.6
14 -23 -1 21.2 5.5
23 -9 1 26.8 11
-9 -14 1 31.2 11.1
-14 23 1 0 10.4
-9 -14 1 2.8 13.5
23 -9 1 11.9 7.8
13 -23 -1 -0.7 3.9
13 -23 -1 7.8 5
-23 10 -1 6.5 9.3
10 13 -1 -2.9 5.8
-13 23 1 -4.6 8.9
23 -10 1 25.3 18.9
23 -10 1 -2.9 6
-10 -13 1 -5.8 10.7
-10 -13 1 -1.3 6.8
12 -23 -1 8.1 4.8
-23 11 -1 11.4 10.5
12 -23 -1 1.2 4.2
11 12 -1 10 11.4
23 -11 1 6.9 8.4
-11 -12 1 4.8 7.1
-12 23 1 -15.2 8.4
23 -11 1 15 8.5
-11 -12 1 0.3 11.4
11 -23 -1 -6.4 3.9
-23 12 -1 -9.1 9.3
12 11 -1 0.9 7.8
11 -23 -1 5.4 5.1
11 -23 -1 9 4.9
23 -12 1 2.5 7.9
-12 -11 1 -18.4 8.9
-11 23 1 4.3 9.3
23 -12 1 5.4 7.1
-12 -11 1 2.5 6.9
10 -23 -1 1.8 4.8
13 10 -1 1.5 6.9
-23 13 -1 -2.7 8.5
10 -23 -1 4 5.5
10 -23 -1 -0.8 4.3
23 -13 1 0.3 7.5
-13 -10 1 8.5 7.7
-10 23 1 -0.9 8.6
23 -13 1 3.3 7.1
-13 -10 1 0.3 10.7
9 -23 -1 17.2 6.4
9 -23 -1 9.6 5
-23 14 -1 22.2 11.9
14 9 -1 35.9 10.4
23 -14 1 17.1 7.8
-9 23 1 12.3 11.1
-14 -9 1 -7.5 9.6
23 -14 1 29.3 10.5
8 -23 -1 2.9 4.3
-23 15 -1 11.7 9
15 8 -1 6.7 7.9
8 -23 -1 3.7 5.6
-8 23 1 24.4 11.5
-15 -8 1 -6.8 10.5
-15 -8 1 6.5 10
23 -15 1 6 7.4
23 -15 1 4 7.6
16 7 -1 9.8 8.2
7 -23 -1 1.3 4.3
7 -23 -1 2.7 7
7 -23 -1 6.9 6.1
-23 16 -1 10.1 10.8
23 -16 1 3.5 7.1
-16 -7 1 32.5 14.9
23 -16 1 -2.3 5.9
-7 23 1 6.6 10.6
6 -23 -1 -9.6 6.5
6 -23 -1 4.9 6.1
-23 17 -1 5.9 10.5
6 -23 -1 2.1 4.1
17 6 -1 -6.3 5.4
-17 -6 1 -4.2 9.2
23 -17 1 5.9 7.9
23 -17 1 0.9 6.1
-6 23 1 -5.4 9.2
-17 -6 1 -8.6 10.6
-17 -6 1 -14.6 9.5
5 -23 -1 6.6 7.2
5 -23 -1 20 5.7
5 -23 -1 15 8.7
18 5 -1 11 9.5
23 -18 1 21.5 10.1
23 -18 1 14.4 8.7
-18 -5 1 16 9.4
-5 23 1 16.3 12.4
-18 -5 1 4.4 11.1
-23 19 -1 5.3 10.3
19 4 -1 19.6 9.2
4 -23 -1 10.8 8.7
4 -23 -1 -6.9 6.4
4 -23 -1 4.1 4.8
-19 -4 1 5.4 8
-19 -4 1 -16.7 10.1
23 -19 1 -2.5 6.9
-4 23 1 3.7 10.1
23 -19 1 28.2 10.1
3 -23 -1 21.6 10.8
20 3 -1 17.4 10.3
3 -23 -1 -3.6 4.9
-23 20 -1 2.8 11.1
-20 -3 1 5.1 9.4
-3 23 1 -9 9.7
23 -20 1 8.6 8.3
-20 -3 1 21.6 12.7
23 -20 1 21.5 9.7
2 -23 -1 -9.8 7.4
21 2 -1 4.7 7.9
2 -23 -1 -12 8.1
-23 21 -1 -8.5 10.2
2 -23 -1 2 5.6
23 -21 1 8.2 8.1
-21 -2 1 11.2 10.5
23 -21 1 9.7 6.9
-21 -2 1 7.3 9
-23 22 -1 31.3 15.7
22 1 -1 13.4 10.5
1 -23 -1 25 7.8
1 -23 -1 17.1 11.2
1 -23 -1 21.8 9.7
-1 23 1 8.8 12.7
23 -22 1 44.6 11.3
23 -22 1 26.9 9.4
0 -23 -1 21.1 7.2
0 -23 -1 1.5 8.7
-23 23 -1 4.9 11.2
23 0 -1 5.1 8.3
0 -23 -1 20.6 11.3
23 -23 1 2.8 8.3
23 -23 1 10.2 7.6
24 -1 -1 1.7 8.6
-1 -23 -1 10.3 10.1
-1 -23 -1 28.2 8.7
-1 -23 -1 11.6 11.8
23 -24 1 16.8 10
23 -24 1 20.3 9.8
-2 -23 -1 4.6 10.5
25 -2 -1 4.6 9.3
-2 -23 -1 -11.6 8
-2 -23 -1 -2.8 6.7
23 -25 1 0 7.9
23 -25 1 -9.8 5.7
-3 -23 -1 3.7 12
26 -3 -1 -8.5 9.4
-3 -23 -1 16.9 10.2
-3 -23 -1 19.5 9.4
23 -26 1 34.1 10.2
23 -26 1 18.5 9.8
-4 -23 -1 11.2 8
27 -4 -1 -14.5 7.7
-4 -23 -1 -0.4 11.9
23 -27 1 1.1 8.2
23 -27 1 -0.2 7.5
28 -5 -1 7.4 8.6
-5 -23 -1 4 13.1
-5 -23 -1 8.3 8.4
23 -28 1 10.5 9.3
23 -28 1 8.2 9
27 -24 -1 6 7.4
3 -27 1 9.7 14.8
3 -27 1 12.6 7.3
3 -27 1 6.5 12.4
24 3 1 10.3 8.1
26 -24 -1 25 8.8
2 -26 1 26.7 9
24 2 1 34.8 19.6
2 -26 1 22.7 16
2 -26 1 29.8 13.8
25 -24 -1 9.7 8.2
1 -25 1 15.4 12.6
1 -25 1 30.3 10
24 1 1 16.7 10.2
-25 24 1 2.6 12
1 -25 1 28 14.3
24 -24 -1 22.9 9.4
0 -24 1 6.4 14.1
24 0 1 13.6 8.9
0 -24 1 40.9 11.2
-24 24 1 29.7 13.9
0 -24 1 18.7 12
23 -24 -1 19.9 8.6
-1 -23 1 20.1 12.6
-23 24 1 18.7 14.4
-1 -23 1 12.3 8.8
-1 -23 1 17 16.8
24 -1 1 27.4 9.5
22 -24 -1 56.29 12.4
-2 -22 1 98.29 28.9
-2 -22 1 77.19 20.1
24 -2 1 30.4 11.5
-2 -22 1 79.29 14.7
24 -2 1 82.19 16.8
21 -24 -1 23.2 9
-3 -21 1 37 16.9
24 -3 1 28.9 12.1
24 -3 1 22.8 10.2
-3 -21 1 39.3 10.8
-21 24 1 64.29 16.7
20 -24 -1 87.69 13.7
-24 4 -1 63.49 20.5
24 -4 1 50.29 13.8
-20 24 1 71.79 17.1
-4 -20 1 87.79 15.8
-4 -20 1 25.7 16.1
24 -4 1 75.69 17.1
-4 -20 1 58.69 19.8
19 -24 -1 29.4 8.2
-24 5 -1 5.8 10.8
-5 -19 1 -2.7 9.6
24 -5 1 6.3 7.7
-19 24 1 5.8 10.6
-5 -19 1 32.1 15.6
24 -5 1 15.3 10.5
-5 -19 1 8.8 8
18 -24 -1 94.99 13.9
-24 6 -1 77.69 17.9
24 -6 1 82.79 16.9
24 -6 1 82.09 16.8
-6 -18 1 82.19 20.3
-18 24 1 82.79 18.9
-6 -18 1 58.19 14
-6 -18 1 67.89 20.2
-24 7 -1 46.7 15.4
17 -24 -1 49.9 10.2
-7 -17 1 42.3 16.4
-17 24 1 21.9 14.5
-7 -17 1 22.9 10.6
24 -7 1 50.99 13.7
-7 -17 1 46.5 17.8
24 -7 1 23.9 11.9
16 -24 -1 54.59 10.3
-24 8 -1 60.89 16.1
24 -8 1 56.79 12.9
-16 24 1 42.4 15.1
-8 -16 1 51.49 18.1
24 -8 1 56.49 13.8
-8 -16 1 44.7 15.9
-8 -16 1 44.8 11.3
15 -24 -1 31.4 7.3
-24 9 -1 20.2 11.8
-9 -15 1 18.3 12.9
-15 24 1 30 13.2
24 -9 1 15.8 8.8
-9 -15 1 11.2 8.1
-9 -15 1 27.1 14.2
24 -9 1 28.9 11.5
-24 10 -1 83.59 20.6
14 -24 -1 91.99 13.2
10 14 -1 59.39 14.3
-10 -14 1 96.59 17.1
-10 -14 1 85.79 21
24 -10 1 83.09 16.4
-14 24 1 107.49 20.2
-10 -14 1 88.29 20.4
24 -10 1 99.59 18.4
11 13 -1 62.19 13.6
13 -24 -1 51.09 9.4
-24 11 -1 50.79 16.2
24 -11 1 56.29 13.4
-11 -13 1 62.09 17.7
-11 -13 1 63.19 26
-11 -13 1 47.9 15.1
24 -11 1 78.89 14.8
-13 24 1 43.7 15.1
12 12 -1 84.89 16.7
-24 12 -1 81.39 22.4
12 -24 -1 113.29 13.4
12 -24 -1 109.59 12.4
12 -24 -1 114.29 12.5
24 -12 1 75.79 15.1
24 -12 1 110.69 19.2
-12 24 1 99.89 20.1
-12 -12 1 102.69 21.8
11 -24 -1 57.89 9.4
-24 13 -1 78.69 18.4
11 -24 -1 61.39 9.2
11 -24 -1 54.49 8.6
13 11 -1 41.9 12.7
24 -13 1 50.79 13.9
-11 24 1 55.79 15.7
-13 -11 1 59.39 16.6
24 -13 1 67.99 25.1
10 -24 -1 105.39 11.9
-24 14 -1 39.7 17.1
10 -24 -1 95.09 11.5
14 10 -1 48.8 13.3
10 -24 -1 84.29 13.5
24 -14 1 102.09 21.5
-14 -10 1 51.59 17.2
-10 24 1 82.69 18.2
24 -14 1 82.19 15.1
-14 -10 1 89.99 18.4
9 -24 -1 16.4 5.3
15 9 -1 9.9 8.1
9 -24 -1 32.3 7.3
-24 15 -1 15.2 11.7
-15 -9 1 18.7 14.2
24 -15 1 35 10.7
-15 -9 1 12.4 12.6
-9 24 1 23.7 12.9
24 -15 1 46.7 12.3
-15 -9 1 37 12.2
8 -24 -1 58.09 9.1
8 -24 -1 76.19 10.8
8 -24 -1 65.89 15
-24 16 -1 48.7 15.5
16 8 -1 59.89 14
-16 -8 1 72.69 21.1
24 -16 1 62.39 14.7
-16 -8 1 81.19 17.3
24 -16 1 57.09 13.9
-16 -8 1 26.4 13.7
-8 24 1 59.69 16.2
7 -24 -1 31.5 8.5
7 -24 -1 36 6.7
7 -24 -1 32.9 9.5
-24 17 -1 28 12.5
17 7 -1 21.4 9.2
-17 -7 1 27.7 16
24 -17 1 41.4 10.5
-7 24 1 31.9 13.2
-17 -7 1 41.1 14.2
24 -17 1 36.3 10.9
-17 -7 1 27.7 12.4
18 6 -1 98.49 18.7
6 -24 -1 95.59 13.4
6 -24 -1 79.99 11.4
6 -24 -1 80.19 14.1
-24 18 -1 105.69 20.4
24 -18 1 90.69 16.2
24 -18 1 64.19 14.5
-18 -6 1 40.5 19
-18 -6 1 87.39 18.7
-18 -6 1 117.69 20.8
-6 24 1 40.7 15
5 -24 -1 19.7 8.3
5 -24 -1 23.5 6.3
-24 19 -1 -2.8 10.1
5 -24 -1 8.2 9.1
19 5 -1 -0.2 8.1
24 -19 1 19.9 9.4
24 -19 1 14.6 8.6
-19 -5 1 6 9.8
-19 -5 1 9.9 12.3
-19 -5 1 7.3 12.7
-5 24 1 19.2 11.5
4 -24 -1 75.49 11.6
-24 20 -1 67.09 17.9
4 -24 -1 74.09 13.7
20 4 -1 80.09 18.3
4 -24 -1 79.39 15.5
-20 -4 1 33.1 13
24 -20 1 65.59 14.3
24 -20 1 72.49 15
-20 -4 1 92.69 22.7
21 3 -1 18.8 9.4
-24 21 -1 34.6 14.9
3 -24 -1 18.2 6.9
3 -24 -1 31 11.6
24 -21 1 20.3 9
24 -21 1 34.8 10.3
-3 24 1 25.3 13.3
2 -24 -1 56.09 14.8
22 2 -1 68.99 15.1
2 -24 -1 84.39 14.3
-24 22 -1 39.4 18.7
2 -24 -1 68.09 12.1
24 -22 1 57.19 13.8
-2 24 1 87.89 19.7
24 -22 1 64.09 14.5
1 -24 -1 21.5 8
1 -24 -1 11 10.9
1 -24 -1 23.3 10.3
23 1 -1 22.6 11.3
-1 24 1 3.5 12.7
24 -23 1 26.5 10.4
24 -23 1 24.3 9.9
24 0 -1 18.3 10.2
0 -24 -1 20.9 10.9
0 -24 -1 35.7 10.1
0 -24 -1 14.5 12.2
24 -24 1 19.8 10.5
24 -24 1 53.39 12.8
-1 -24 -1 20.8 11.2
25 -1 -1 11.8 12.9
-1 -24 -1 25.9 9.1
-1 -24 -1 -4.6 11.4
24 -25 1 19.2 9.2
24 -25 1 11.5 8.7
-2 -24 -1 49.99 14.2
-2 -24 -1 40.2 17
26 -2 -1 34.2 13.1
-2 -24 -1 41.1 11.3
24 -26 1 64.09 13.8
24 -26 1 38.7 12.4
-3 -24 -1 13.3 12.9
-3 -24 -1 3.2 8.9
27 -3 -1 32.8 11.5
24 -27 1 10 9.4
24 -27 1 5.3 8.4
26 -25 -1 17.6 7.9
25 1 1 22.4 10.5
1 -26 1 11.3 11.9
1 -26 1 2.8 15
25 -25 -1 5.5 6.4
0 -25 1 -3.3 10.5
25 0 1 8.1 13.2
0 -25 1 3.5 11.4
0 -25 1 -1.1 12.4
24 -25 -1 9.5 6.9
-1 -24 1 8.8 11.3
-1 -24 1 -5.1 6.4
25 -1 1 6 10.9
-24 25 1 12.5 14
-1 -24 1 5.7 15.2
23 -25 -1 -7.4 5.4
-23 25 1 -20.5 9.8
-2 -23 1 -2.5 11.4
-2 -23 1 5 10.5
25 -2 1 0.5 8.5
-2 -23 1 5.8 6.8
22 -25 -1 13.8 7.6
-3 -22 1 14.7 7.7
25 -3 1 18.8 10.9
-3 -22 1 2.8 9.7
25 -3 1 10.6 11.3
-3 -22 1 27.5 15.7
-22 25 1 16.3 11.6
21 -25 -1 6.6 6.4
25 -4 1 3.8 8.2
-4 -21 1 9.7 14.4
25 -4 1 -0.8 8.8
-4 -21 1 -0.7 8.8
-4 -21 1 -0.1 5.5
20 -25 -1 9 6.5
-5 -20 1 4.1 7.5
25 -5 1 17.5 10.9
-5 -20 1 0.3 8.5
25 -5 1 11.2 8.6
-5 -20 1 14 14.1
-20 25 1 17.2 12.6
19 -25 -1 4.3 5.8
-6 -19 1 10.4 9.1
25 -6 1 -5.9 8.8
-6 -19 1 -9 11.2
-19 25 1 10.4 10
25 -6 1 -1.8 5.6
-6 -19 1 10.7 10.1
-25 7 -1 -0.4 11.8
18 -25 -1 27.2 7.6
-7 -18 1 27.6 15.1
-7 -18 1 -11.6 5.4
-18 25 1 34.2 14.6
-7 -18 1 20.5 11.2
25 -7 1 8.6 10
25 -7 1 -1.8 7.3
-25 8 -1 -9.4 9.2
17 -25 -1 5.6 5.7
25 -8 1 0.8 6.8
25 -8 1 13 9.7
-17 25 1 12.8 10.3
-8 -17 1 16 10.6
-8 -17 1 -14 10.3
-25 9 -1 9.8 10.7
16 -25 -1 0.7 4.7
-16 25 1 -7.5 9
25 -9 1 45.7 12.2
-9 -16 1 -8.3 11.7
-9 -16 1 -2.9 8.2
25 -9 1 -2.1 6.4
-25 10 -1 -16.9 9.3
15 -25 -1 2.9 4.9
-15 25 1 0.9 9.4
25 -10 1 7.3 8.5
-10 -15 1 -8.5 10.7
-10 -15 1 -6.2 8.5
25 -10 1 1.7 8
-25 11 -1 14.3 12.7
11 14 -1 0.3 7.6
14 -25 -1 4.9 4.8
25 -11 1 5 7.8
-11 -14 1 -1.2 11.6
-11 -14 1 24.2 11.8
25 -11 1 4.4 8.1
-14 25 1 14.4 10.9
13 -25 -1 5.8 5.1
12 13 -1 -14.6 4.9
-25 12 -1 -5.4 11
-12 -13 1 1.3 11.5
25 -12 1 -5.2 7.4
-12 -13 1 2.2 8.9
25 -12 1 -1.5 5.9
-13 25 1 -8.3 9.5
12 -25 -1 3.2 4.4
13 12 -1 10.2 9.1
-25 13 -1 1.2 10.9
-12 25 1 -14.6 8.2
25 -13 1 1.1 6.8
25 -13 1 2.2 8.3
-13 -12 1 -25.1 11.3
-13 -12 1 -3.7 8.9
-13 -12 1 -5.6 7.8
11 -25 -1 -0.9 4.5
-25 14 -1 6.4 9.9
14 11 -1 17.2 8.5
11 -25 -1 5.9 4.6
11 -25 -1 3.5 4.9
25 -14 1 1.2 8.2
-14 -11 1 4.2 9.8
-14 -11 1 -8.9 9.4
25 -14 1 -5.6 5.3
-14 -11 1 16 12.6
-11 25 1 -6.1 9.9
10 -25 -1 0.3 4.7
10 -25 -1 -5.6 5.9
15 10 -1 4 6.7
10 -25 -1 -1.2 3.8
-25 15 -1 22.1 11.1
-15 -10 1 -0.8 7.7
-10 25 1 -7.1 9
-15 -10 1 -9.3 7.6
-15 -10 1 13.8 13
25 -15 1 -8.8 4.7
25 -15 1 1.2 8
-25 16 -1 2.2 9.7
9 -25 -1 7.2 4.4
16 9 -1 9.5 7.7
9 -25 -1 13.4 6
-9 25 1 22.5 11.9
-16 -9 1 23 13.7
-16 -9 1 2.1 8.4
25 -16 1 14.1 9
-16 -9 1 1.3 9
25 -16 1 5.5 8.7
17 8 -1 5 7
-25 17 -1 13.2 10.2
8 -25 -1 1.1 8.5
8 -25 -1 8.3 6.5
8 -25 -1 2.3 4.1
-17 -8 1 -4.3 8.5
25 -17 1 1.7 6.3
-8 25 1 23.3 12.1
25 -17 1 6.5 9.6
-17 -8 1 -7.6 7.1
-17 -8 1 -2.4 10.4
7 -25 -1 8.7 7.3
18 7 -1 17.5 9.3
-25 18 -1 35.5 13.7
7 -25 -1 0.9 7.3
7 -25 -1 23.5 6.1
25 -18 1 10.4 7.9
-18 -7 1 2.3 8.6
25 -18 1 50.89 21.7
-7 25 1 -9.4 11.5
-18 -7 1 31.1 12.2
-18 -7 1 10.3 12.6
6 -25 -1 -1.1 4.7
19 6 -1 1.4 7.4
6 -25 -1 11 7.6
-25 19 -1 -2.6 10.6
6 -25 -1 -1.8 7.8
-19 -6 1 5.9 13.1
-19 -6 1 3.9 8.8
25 -19 1 2.8 7.1
20 5 -1 3.9 8.4
5 -25 -1 13.6 8.7
5 -25 -1 1.5 5.1
-25 20 -1 22 13.5
5 -25 -1 6.2 8.8
-20 -5 1 -2.6 12.3
25 -20 1 3.9 7.1
-5 25 1 29.2 12
4 -25 -1 -7.5 4.7
21 4 -1 -14 6.3
4 -25 -1 11.2 15.7
4 -25 -1 -10.3 8.3
25 -21 1 2.2 14.2
25 -21 1 1.7 7
-4 25 1 -11.2 10.7
3 -25 -1 15.8 11.3
3 -25 -1 1.4 9.1
22 3 -1 8.6 8.9
3 -25 -1 1 5.9
-3 25 1 8.9 12.4
25 -22 1 18.9 9.9
25 -22 1 4.7 10.1
2 -25 -1 2.1 5.6
23 2 -1 3.6 7.2
2 -25 -1 18.7 10.3
2 -25 -1 8.8 11.3
25 -23 1 -2 9.7
25 -23 1 5 7.8
1 -25 -1 25.4 13.2
24 1 -1 30.4 11.6
1 -25 -1 11.8 10.4
1 -25 -1 16.9 15.4
25 -24 1 1.4 7.4
0 -25 -1 -2.6 12
0 -25 -1 4.2 7.6
25 0 -1 9 11.4
0 -25 -1 18.4 11.3
25 -25 1 13.8 13.4
25 -25 1 1.7 9.2
-1 -25 -1 5.7 10.5
26 -1 -1 -2.1 8.4
-1 -25 -1 -6.3 10.6
-1 -25 -1 -4.7 6.5
25 -26 1 4.2 7.8
25 -26 -1 17.3 8.3
26 -1 1 8.3 8.9
-1 -25 1 15.9 15
-1 -25 1 4 11.1
24 -26 -1 61.19 12.6
-2 -24 1 16.3 18.3
-2 -24 1 57.09 15.7
26 -2 1 18.1 11.9
23 -26 -1 15.7 7.7
-23 26 1 30.5 13.3
-3 -23 1 14.1 16.3
-3 -23 1 21.9 12.1
26 -3 1 -9.6 12.6
22 -26 -1 34.3 9.5
-4 -22 1 17 15.1
-4 -22 1 45.3 14.4
26 -4 1 16.1 11.3
26 -4 1 39.6 13.2
-22 26 1 4.8 14
21 -26 -1 7.5 7.2
-21 26 1 -2.5 12.5
-5 -21 1 5.4 11.5
26 -5 1 36.2 13.6
-5 -21 1 -2.6 13.9
26 -5 1 10.3 11.3
20 -26 -1 32.5 8.5
-20 26 1 15 14.1
26 -6 1 22.6 11.3
-6 -20 1 21.6 12.3
-6 -20 1 26.9 14.8
26 -6 1 26.6 11.3
19 -26 -1 5.6 5.9
-7 -19 1 -8.5 9.7
26 -7 1 6.2 7.6
-7 -19 1 4.4 16.3
26 -7 1 11.3 10.4
18 -26 -1 56.59 10.2
26 -8 1 53.59 14.2
-8 -18 1 21.7 13.1
-18 26 1 70.19 18.6
-8 -18 1 41.4 18.7
26 -8 1 34.6 12.8
17 -26 -1 14.8 6.5
-17 26 1 4.9 12
-9 -17 1 25.7 12.4
26 -9 1 7.9 9.9
-9 -17 1 22.1 15.3
26 -9 1 19.7 9.5
-9 -17 1 29.7 17.9
16 -26 -1 28.6 7.6
-16 26 1 36.9 13.9
26 -10 1 51.29 13.5
26 -10 1 25.7 9
-10 -16 1 38.7 14.1
-10 -16 1 8.2 13.3
11 15 -1 54.29 13.1
15 -26 -1 19.1 6.5
-11 -15 1 29.5 15.7
-15 26 1 43.7 14.4
-11 -15 1 37.9 13.9
26 -11 1 9 9.7
-11 -15 1 14.4 13.9
26 -11 1 9.9 8.8
14 -26 -1 82.69 11.4
-26 12 -1 68.59 28.9
12 14 -1 63.99 14
-12 -14 1 57.19 15.9
-12 -14 1 86.59 21.1
26 -12 1 76.79 15.2
-14 26 1 61.79 16.9
26 -12 1 45.9 13.3
-12 -14 1 56.09 16.6
-26 13 -1 24.9 16.1
13 -26 -1 29.1 7.2
13 -26 -1 31.3 7.6
13 13 -1 56.19 14.4
-13 26 1 54.19 15.8
-13 -13 1 23.4 12.2
-13 -13 1 23.8 13.2
26 -13 1 69.29 14.3
26 -13 1 38.5 12.7
-13 -13 1 29.4 17.1
12 -26 -1 64.09 9.7
-26 14 -1 56.09 18
14 12 -1 59.39 13.4
26 -14 1 70.79 14.1
-14 -12 1 35.2 14.5
-14 -12 1 42.5 15.6
-14 -12 1 111.69 23.8
26 -14 1 78.89 15.7
-12 26 1 40.3 14.5
15 11 -1 13.1 8.6
11 -26 -1 12.6 5.6
-26 15 -1 14.3 13.7
-15 -11 1 4.6 11.6
-15 -11 1 39.9 14.1
-15 -11 1 24.3 16.8
-11 26 1 19.3 12.4
26 -15 1 19 9.5
26 -15 1 26.3 10.2
10 -26 -1 42.4 7.5
16 10 -1 20.3 9.8
10 -26 -1 26.6 8.5
-26 16 -1 13.8 15
26 -16 1 31.7 12.3
-16 -10 1 36 15.7
-10 26 1 14.3 13
26 -16 1 36.3 12.9
-16 -10 1 39.2 13.1
9 -26 -1 13.8 5.3
17 9 -1 11.9 8.7
9 -26 -1 26 7.5
26 -17 1 28.8 11.2
-17 -9 1 18.8 12.6
26 -17 1 17 10.3
-17 -9 1 15.7 15.3
8 -26 -1 63.99 13.2
8 -26 -1 70.49 10.5
8 -26 -1 53.79 8.4
18 8 -1 16.5 10.8
26 -18 1 44.4 12.6
-18 -8 1 22.3 16.5
-8 26 1 18.2 13.7
-18 -8 1 17.6 16
26 -18 1 38.8 12.8
7 -26 -1 -3.7 7.1
7 -26 -1 16 5.7
7 -26 -1 10.1 7.4
19 7 -1 14.8 9.3
-7 26 1 -17.7 10.7
26 -19 1 14.7 9.3
-19 -7 1 -2.3 11.6
26 -19 1 14.7 9
20 6 -1 44.6 12.1
6 -26 -1 26.4 10.5
6 -26 -1 40.5 9.9
6 -26 -1 25.3 7.1
26 -20 1 42.1 12.2
-20 -6 1 36.7 16.6
-6 26 1 35 15.2
26 -20 1 50.19 12.6
5 -26 -1 9.2 5.9
5 -26 -1 -9.3 7.8
5 -26 -1 19.5 11
21 5 -1 15.3 9.7
26 -21 1 17.9 9.9
26 -21 1 -8.5 6.1
-21 -5 1 9.5 14.6
-5 26 1 3.6 13.2
4 -26 -1 22.5 11.4
22 4 -1 13 10.3
4 -26 -1 41.2 16.2
4 -26 -1 38.8 8.7
26 -22 1 47.3 13.8
-22 -4 1 42.4 16.7
26 -22 1 34.4 12.3
3 -26 -1 34 12.3
3 -26 -1 9.2 10.1
23 3 -1 21.1 12.7
3 -26 -1 8.8 6.9
26 -23 1 26.9 10.1
26 -23 1 -1.8 9.3
2 -26 -1 46.3 15
24 2 -1 11.3 12.1
2 -26 -1 35.1 9.7
2 -26 -1 36.6 12.3
26 -24 1 54.69 14.4
26 -24 1 45.2 12.6
1 -26 -1 -1.3 9.9
1 -26 -1 -0.6 12.3
25 1 -1 -6.8 6.6
1 -26 -1 0.1 7
26 -25 1 19.6 11.2
26 -25 1 4.1 9.4
24 -27 -1 14.3 8.4
27 -3 1 15.3 11.1
-3 -24 1 7.8 14.2
-3 -24 1 0.2 9.9
23 -27 -1 2.1 6.4
-4 -23 1 5 16.1
27 -4 1 -11.3 7.4
-4 -23 1 -6.9 8.1
22 -27 -1 7.1 7.2
-5 -22 1 13.2 10
-22 27 1 15.1 14.3
27 -5 1 23.4 13.2
27 -5 1 -4.9 13.2
-5 -22 1 4.3 15.7
21 -27 -1 7 6.3
27 -6 1 1.1 10.2
-21 27 1 -2.2 11.1
-6 -21 1 -8.8 7
27 -6 1 1.4 8.9
-6 -21 1 0.5 13
20 -27 -1 11.8 6.9
-7 -20 1 -3.9 15.4
-7 -20 1 10.6 18.4
27 -7 1 33.5 12.8
-20 27 1 13 13.1
-7 -20 1 0.9 8.3
27 -7 1 25.3 10.8
19 -27 -1 6.6 6
27 -8 1 1.3 7.5
-8 -19 1 -1.6 8.5
27 -8 1 -13.9 8.2
-8 -19 1 6.8 16.7
-8 -19 1 -2.8 15.3
-19 27 1 7 12
18 -27 -1 5.5 6.3
-9 -18 1 18.7 15.2
-9 -18 1 1.4 8.1
-9 -18 1 -19.4 13.7
27 -9 1 5.8 7.8
27 -9 1 7.8 10
-18 27 1 -0.9 12.8
17 -27 -1 0.1 5.1
-10 -17 1 4.5 7.4
-17 27 1 -25.1 10.2
27 -10 1 -7.6 5.8
27 -10 1 5.6 9.7
-10 -17 1 -5.5 12.4
16 -27 -1 -0.4 5
-16 27 1 -25.2 9.2
27 -11 1 -8.4 5.9
-11 -16 1 -7 7.3
-11 -16 1 -5.8 12.7
27 -11 1 8.2 9.5
15 -27 -1 -0.7 5.2
12 15 -1 8.6 8
-12 -15 1 -18.3 10.7
27 -12 1 7.1 7.7
-12 -15 1 1.9 8.8
27 -12 1 -1.3 8.4
-15 27 1 3.1 16
14 -27 -1 8 5.4
13 14 -1 11.1 9
14 -27 -1 0.3 4.6
27 -13 1 10.5 8
27 -13 1 -13.6 7.6
-13 -14 1 -15.8 7.8
-14 27 1 31 16.7
-13 -14 1 6.7 14.2
14 13 -1 -3.5 7
13 -27 -1 -6 4.6
27 -14 1 -5.7 6.7
-13 27 1 13.8 14.1
27 -14 1 0.4 8.2
-14 -13 1 -4.8 14.2
-14 -13 1 4.1 8.3
15 12 -1 4.8 7.1
12 -27 -1 7.6 4.9
-15 -12 1 17.1 10.1
27 -15 1 10.1 8.9
-12 27 1 -6 11
-15 -12 1 0.1 13.8
27 -15 1 -0.1 6.2
16 11 -1 -13.8 4.5
11 -27 -1 7.1 4.6
-11 27 1 -1.2 10.9
-16 -11 1 10.6 16.5
27 -16 1 -6.8 8.6
27 -16 1 10.4 11.2
-16 -11 1 -3.3 9.1
17 10 -1 14.3 9.3
10 -27 -1 -7.2 5
27 -17 1 -6.7 7.3
27 -17 1 -0.6 7.8
-10 27 1 -9.3 9.4
-17 -10 1 -8.9 11.7
9 -27 -1 12.6 6.7
18 9 -1 7 9.4
-18 -9 1 -20.9 10.3
27 -18 1 5.8 9
-9 27 1 2.6 11.4
27 -18 1 18.9 9.5
8 -27 -1 -3.6 4.3
19 8 -1 -3.3 6.8
8 -27 -1 2.5 6.6
8 -27 -1 4 9.1
-19 -8 1 -5.5 11.8
-8 27 1 5 10.8
27 -19 1 -4.5 6.2
27 -19 1 -11.1 7.1
7 -27 -1 15.6 6
7 -27 -1 6.2 7.6
20 7 -1 4.8 7.1
7 -27 -1 -3.3 7.9
27 -20 1 16.9 10.5
-20 -7 1 16 14.4
27 -20 1 13.3 7.9
-7 27 1 26.3 16.7
21 6 -1 -17.5 6
6 -27 -1 3.3 5.5
6 -27 -1 0.7 8.3
6 -27 -1 1 8
-21 -6 1 -11.9 12.5
27 -21 1 -9.9 7.7
27 -21 1 -5.5 7.4
22 5 -1 23.2 11.3
5 -27 -1 1.6 5.5
5 -27 -1 5.2 9.7
5 -27 -1 5.7 11.2
27 -22 1 7.9 8.4
27 -22 1 16.8 10.3
23 4 -1 4 8.9
4 -27 -1 8.1 10.4
4 -27 -1 -11 13.7
4 -27 -1 -3.4 5.6
27 -23 1 0 7.3
27 -23 1 -7.7 7.9
-23 -4 1 -11.3 11.6
3 -27 -1 18.7 7.4
24 3 -1 2.8 9.7
3 -27 -1 0.3 9.4
3 -27 -1 6.9 11.4
27 -24 1 3.8 9
27 -24 1 4.4 7.9
23 -28 -1 24.6 9.1
28 -5 1 10.5 11.9
-5 -23 1 16.5 11.3
-5 -23 1 -1.9 15.5
22 -28 -1 22.3 8.2
28 -6 1 26.2 13.1
-6 -22 1 -5.8 8.6
-6 -22 1 25.3 15.7
28 -6 1 10.3 9.9
21 -28 -1 -0.6 6.3
-7 -21 1 16.6 11
28 -7 1 7.6 8.5
-7 -21 1 -9.8 14.5
28 -7 1 14.5 11.7
20 -28 -1 19.3 7.3
-20 28 1 31.8 16.2
-8 -20 1 19 16.9
28 -8 1 10.8 8.4
28 -8 1 21.1 10.9
-8 -20 1 8.8 10.2
19 -28 -1 -4.2 5
-19 28 1 12.2 13.9
-9 -19 1 11.8 9.7
28 -9 1 23.2 17.5
18 -28 -1 17.5 7.2
-18 28 1 65.69 16.5
28 -10 1 10.7 11
28 -10 1 6.4 8.1
-10 -18 1 30.2 10.4
17 -28 -1 14.2 6.2
28 -11 1 7.8 8.8
-17 28 1 13.5 12.5
28 -11 1 5.1 10.2
-11 -17 1 13.6 10.9
16 -28 -1 8.3 5.6
-12 -16 1 24.4 17
28 -12 1 -5.7 8.5
-16 28 1 -3 12.3
28 -12 1 13 10.5
-12 -16 1 13.9 10.4
15 -28 -1 3.5 5.3
15 -28 -1 12 5.9
13 15 -1 10.6 9.1
-13 -15 1 5.9 14.9
28 -13 1 12.7 9.1
-15 28 1 18.8 14.2
28 -13 1 14.3 10.6
-13 -15 1 -2 8.6
14 14 -1 6.8 9.3
14 -28 -1 19.7 6.8
14 -28 -1 23.4 6.3
28 -14 1 28 11.2
28 -14 1 12 11.4
-14 28 1 -7.8 11.7
-14 -14 1 15.8 16.5
15 13 -1 5.2 8.4
13 -28 -1 10.7 5.3
28 -15 1 12.1 9.9
28 -15 1 17.7 10.4
-15 -13 1 11.6 15
-13 28 1 -24 11.6
16 12 -1 -10 6.9
-12 28 1 10.2 13.4
28 -16 1 40.6 12.4
-16 -12 1 10.6 16.6
28 -16 1 24.3 10.4
17 11 -1 8.7 8.2
-17 -11 1 23.3 18.1
-11 28 1 8.8 13.7
28 -17 1 5.3 9.5
28 -17 1 12.7 9.2
18 10 -1 15.4 12.1
28 -18 1 12.4 10.2
-18 -10 1 51.79 18.6
28 -18 1 11.4 9.9
-10 28 1 10.1 15.3
19 9 -1 6.8 9
-19 -9 1 -17.6 12.2
28 -19 1 13.7 10.7
28 -19 1 2 8.8
20 8 -1 25.4 11.2
28 -20 1 10.3 9
28 -20 1 21.6 11.1
7 -28 -1 1.2 7.4
7 -28 -1 6 8.1
21 7 -1 4.9 13
-21 -7 1 7.2 14.2
28 -21 1 8 9.5
28 -21 1 -6.3 7.1
6 -28 -1 17.3 9.8
6 -28 -1 25.9 10.2
22 6 -1 32.2 11.5
28 -22 1 32.2 11.7
-22 -6 1 17 15.5
28 -22 1 46.6 13.1
5 -28 -1 16.5 10.9
5 -28 -1 -6.3 11.9
5 -28 -1 1.4 6.2
23 5 -1 23.4 11.7
28 -23 1 14.6 11.1
28 -23 1 11 9.6
-23 -5 1 0.5 17
21 -29 -1 4.4 6.8
29 -8 1 23.4 11.4
-8 -21 1 3.8 7.8
29 -8 1 3.1 12.2
20 -29 -1 -0.3 5.6
-9 -20 1 19.7 17
29 -9 1 5.8 10.6
-9 -20 1 -12 8
29 -9 1 -3.3 6.8
19 -29 -1 -3 5.7
-10 -19 1 1.9 16.8
29 -10 1 2.5 7.2
29 -10 1 17.6 11.1
18 -29 -1 3.2 5.3
29 -11 1 -6.9 6.5
-11 -18 1 -13.5 12.8
29 -11 1 10.3 11.3
17 -29 -1 -7.2 4.6
29 -12 1 3.2 7.8
-12 -17 1 -5.7 12.7
29 -12 1 -5.1 9.2
16 -29 -1 1.9 5.4
29 -13 1 13.3 8.9
-13 -16 1 -19.1 13.3
29 -13 1 3.3 10.1
15 -29 -1 8.4 6
14 15 -1 -3.3 7.8
-14 -15 1 22.7 18.8
29 -14 1 -2.3 10
29 -14 1 -5.3 9.6
15 14 -1 0.2 8.7
29 -15 1 1.5 8.3
-15 -14 1 11.8 17.8
29 -15 1 0.8 10.4
16 13 -1 -4.4 7.8
29 -16 1 6.3 9.4
29 -16 1 13.9 10.8
-16 -13 1 17 19
17 12 -1 -2.2 7.7
29 -17 1 -2.5 7.3
29 -17 1 16.6 10.6
18 11 -1 3 9
29 -18 1 8.1 8.3
29 -18 1 -0.2 8.5
19 10 -1 -14.4 8
-19 -10 1 15.4 16.6
29 -19 1 -11.2 9.1
20 9 -1 15.2 10.5
29 -20 1 -1.9 8.2
-20 -9 1 0.4 13.6
29 -20 1 -5.8 8.9
21 8 -1 6.4 10.1
29 -21 1 7.4 10.5
29 -21 1 4.5 10.3
0 0 -2 9999 815.02
0 0 2 9739.13 815.32
-1 0 -2 469.55 39.9
0 1 -2 453.55 40.2
0 -1 2 501.75 40.6
-1 1 2 458.45 39.3
1 0 2 457.05 40.2
-1 1 -2 437.26 42.3
-1 0 2 477.75 41.3
0 1 2 539.05 41.1
1 -1 2 473.25 42
-1 -1 -2 124.79 11.5
-1 2 -2 99.09 13.4
-2 1 2 120.59 12.4
1 1 2 134.79 12.3
1 -2 2 114.19 13.6
-2 -1 -2 51.29 7.3
-1 3 -2 60.09 9.1
1 -3 2 74.09 10
2 1 2 55.99 7.8
-3 2 2 52.89 7.5
0 2 -2 223.08 21.6
-2 0 -2 219.68 21.4
-2 2 2 226.18 21.4
2 0 2 219.38 21.1
0 -2 2 253.17 22
-2 1 -2 103.79 13.2
1 1 -2 123.39 13.1
-1 -1 2 131.09 13
2 -1 2 122.59 13.3
-2 2 -2 233.28 23
-2 0 2 239.48 22.3
-2 0 2 257.57 21.9
0 2 2 246.78 21
2 -2 2 230.08 23
-2 3 -2 72.89 9.5
1 2 2 48.3 6.6
-3 1 2 44.7 7
2 -3 2 65.79 9.9
-2 4 -2 -0.9 5.3
4 -2 -2 2.2 3.4
-2 -2 -2 -0.2 3.4
2 -4 2 -8.6 5.5
-4 2 2 2.3 3
2 2 2 3.6 3.6
5 -3 -2 24.6 5.1
-2 5 -2 18.8 7.6
-3 -2 -2 29.5 5.6
-5 3 2 28.8 5.1
3 2 2 24.2 4.7
3 2 2 18.7 5.4
2 -5 2 19.1 7.9
-1 4 -2 17.4 6.9
-3 -1 -2 15.6 5
4 -3 -2 19.6 4.5
1 -4 2 20.1 7.2
3 1 2 17 5
-4 3 2 22.5 4.3
0 3 -2 310.97 28.4
-3 0 -2 281.77 27.2
3 0 2 306.07 27.5
0 -3 2 325.97 28.8
-3 1 -2 62.09 8.4
1 2 -2 55.99 8.6
-1 -2 2 50.29 8.5
3 -1 2 61.19 8.7
-3 2 -2 53.89 8.5
-2 -1 2 45.2 7.1
-2 -1 2 52.69 8
3 -2 2 70.09 9.4
-3 3 -2 309.87 29.4
0 3 2 313.67 27.2
-3 0 2 314.27 28.7
3 -3 2 347.67 29.9
-3 4 -2 30.6 7.6
4 -1 -2 7.2 4.2
-4 1 2 9.3 4.2
1 3 2 21.4 4.2
3 -4 2 25.8 7.5
-2 -3 -2 33.9 5.6
5 -2 -2 25.9 5.6
-2 -3 -2 17.7 4.6
-3 5 -2 31.4 8.2
3 -5 2 37.2 9
2 3 2 28.2 4.7
-5 2 2 26.8 5.2
2 3 2 29.4 5.4
-3 -3 -2 13.2 4.6
-3 6 -2 25.1 7.9
6 -3 -2 16.7 4.7
3 -6 2 16.6 7.2
3 3 2 18 4.8
3 3 2 12.4 4.2
-6 3 2 14.1 5
-3 7 -2 67.99 11.2
-4 -3 -2 43.9 7.9
7 -4 -2 57.79 8.5
-7 4 2 55.39 8.3
3 -7 2 58.09 11.2
4 3 2 52.89 8.4
4 3 2 61.39 8.3
-2 6 -2 396.96 37.2
-4 -2 -2 375.06 35.5
6 -4 -2 420.56 35.4
2 -6 2 381.66 37.3
-6 4 2 404.56 35.2
4 2 2 418.46 35.8
4 2 2 404.36 35.4
5 -4 -2 5 3.6
-4 -1 -2 10.7 4.8
-1 5 -2 0.2 6.3
1 -5 2 8.2 7
-5 4 2 12.6 3.6
4 1 2 6.5 4.6
0 4 -2 439.66 38.7
4 -4 -2 446.56 36.7
-4 0 -2 387.26 37.4
4 0 2 426.66 37.7
0 -4 2 429.56 38.7
1 3 -2 8.3 6
-4 1 -2 19.1 5.9
-1 -3 2 19.7 6.6
-3 4 2 17.1 3.4
4 -1 2 30.1 6.3
-4 2 -2 4.8 5.2
-2 -2 2 1.9 4.8
-2 -2 2 1.5 3.5
4 -2 2 -4.8 4.4
-4 3 -2 12.5 6.5
-3 -1 2 20.6 5.9
4 -3 2 26.2 6.9
-3 -1 2 14.4 4.6
-4 4 -2 358.96 38
4 0 -2 463.95 37.8
-4 0 2 441.66 37.5
0 4 2 430.16 36
4 -4 2 433.86 38.5
0 4 2 415.36 35.9
-4 5 -2 10.6 6.6
5 -1 -2 6 4.5
1 4 2 4.4 2.8
-5 1 2 6.3 4.2
1 4 2 8.8 3.7
4 -5 2 7.5 6.5
6 -2 -2 410.36 35.8
-2 -4 -2 424.16 34.9
-6 2 2 381.36 35.6
2 4 2 405.66 35
4 -6 2 371.76 37
2 4 2 396.36 34.6
-3 -4 -2 50.19 7.7
7 -3 -2 49.5 8.3
-3 -4 -2 56.19 8.5
-4 7 -2 65.29 11
-7 3 2 48.7 7.8
3 4 2 58.09 7.7
4 -7 2 62.59 11.3
3 4 2 54.99 8.3
-4 -4 -2 253.97 23.4
-4 8 -2 217.28 25.3
8 -4 -2 257.77 24
4 4 2 239.08 23.6
-8 4 2 252.87 23.6
-8 4 2 249.28 22.9
4 4 2 267.67 22.9
4 -8 2 214.28 25.8
9 -5 -2 152.48 15.4
-4 9 -2 114.89 17.2
-5 -4 -2 142.29 15.1
-5 -4 -2 127.39 14.6
-9 5 2 124.49 14.7
5 4 2 150.58 15.4
-9 5 2 110.59 13.8
5 4 2 133.09 13.9
4 -9 2 109.09 17.3
-3 8 -2 17.8 8.1
-5 -3 -2 18.9 5.8
8 -5 -2 17.5 5.3
3 -8 2 21.1 10.4
-8 5 2 18.7 4.8
5 3 2 12.3 4.4
5 3 2 15.3 6
-8 5 2 12 4.8
7 -5 -2 123.89 13.5
-5 -2 -2 116.39 14
-2 7 -2 110.19 15.6
-7 5 2 122.69 13.3
2 -7 2 121.89 16.8
5 2 2 137.39 14.4
5 2 2 133.49 13.7
-1 6 -2 104.99 14.6
-5 -1 -2 77.29 11.4
6 -5 -2 87.89 10.4
5 1 2 103.59 12.1
1 -6 2 102.79 14.4
5 1 2 82.79 11.1
-6 5 2 88.79 10.2
5 -5 -2 377.56 31.9
-5 0 -2 373.26 33.2
0 5 -2 323.77 34.1
0 -5 2 370.16 34.7
5 0 2 367.96 33.2
-5 5 2 378.16 31.9
1 4 -2 10.8 6
-5 1 -2 6.6 5.3
4 -5 -2 1.3 2.7
-1 -4 2 -1.5 8.1
-4 5 2 6.5 2.6
-1 -4 2 17.9 6.6
5 -1 2 16.1 5.5
-5 2 -2 29.8 6.8
2 3 -2 32.8 7.5
-2 -3 2 18.2 7.2
5 -2 2 23 6.3
-2 -3 2 19.8 5.9
-3 5 2 28.9 3.6
-5 3 -2 23.3 6.7
-3 -2 2 15.5 5
-3 -2 2 46.7 8.2
5 -3 2 26.6 7.1
-5 4 -2 3.6 5.6
4 1 -2 1.5 4.2
-4 -1 2 2.7 4
5 -4 2 6.2 5.8
-5 5 -2 346.37 34.7
5 0 -2 393.16 34.1
5 -5 2 342.87 34.5
0 5 2 378.06 32.2
0 5 2 391.16 31.8
-5 0 2 390.96 33.8
0 5 2 364.16 32.4
-1 -5 -2 91.79 9.6
6 -1 -2 86.49 11.7
-1 -5 -2 85.99 9
-5 6 -2 89.89 13.2
1 5 2 94.89 9.3
5 -6 2 87.89 13.3
1 5 2 94.09 10.2
-6 1 2 79.19 11.4
-5 7 -2 105.29 15.4
-2 -5 -2 119.79 12.6
-2 -5 -2 100.59 11.7
7 -2 -2 116.09 13.6
-7 2 2 113.79 13.3
2 5 2 124.69 12.6
2 5 2 113.19 11.5
5 -7 2 119.19 15.6
8 -3 -2 26.6 5.9
-5 8 -2 25.2 8.9
-3 -5 -2 18.5 5.9
-3 -5 -2 26.6 5.5
-8 3 2 11.1 4.8
-8 3 2 17.4 5.4
3 5 2 19.3 5.6
5 -8 2 21.7 9.4
3 5 2 14.8 4.2
-4 -5 -2 131.59 14.6
9 -4 -2 104.19 15
-4 -5 -2 144.69 15.6
-5 9 -2 137.59 18.1
-4 -5 -2 126.89 14.1
-9 4 2 113.19 14.9
-9 4 2 134.39 14.2
5 -9 2 115.89 17.4
4 5 2 123.59 13.4
4 5 2 146.99 14.8
-5 -5 -2 42.6 7.9
-5 -5 -2 26.5 7.5
10 -5 -2 56.39 8.9
-5 10 -2 28.5 10.1
-5 -5 -2 35.4 8.7
-10 5 2 56.99 8.5
5 -10 2 24.2 9.7
-10 5 2 54.19 8.4
5 5 2 43.8 9.9
5 5 2 40.5 7.1
-5 11 -2 55.39 13.3
-6 -5 -2 66.09 10.6
-6 -5 -2 79.19 11.5
11 -6 -2 70.39 11.1
5 -11 2 70.39 13.9
-11 6 2 94.09 12
-11 6 2 66.79 10.9
6 5 2 79.39 12
6 5 2 72.79 10
10 -6 -2 732.13 59.29
-6 -4 -2 611.74 59.09
-6 -4 -2 682.33 59.29
-4 10 -2 612.44 60.79
6 4 2 740.53 58.99
4 -10 2 653.83 60.99
-10 6 2 693.83 58.79
6 4 2 697.73 59.99
-10 6 2 658.23 58.99
-6 -3 -2 122.59 14.8
-3 9 -2 113.19 16.7
9 -6 -2 135.79 14.3
-9 6 2 123.59 13.4
3 -9 2 132.59 17.8
6 3 2 153.38 15.2
6 3 2 119.89 13.7
-9 6 2 91.99 13.5
-2 8 -2 370.46 35
-6 -2 -2 341.47 33.2
8 -6 -2 408.36 32.7
2 -8 2 279.57 42.4
6 2 2 360.36 32.8
6 2 2 357.76 33.3
-8 6 2 364.06 32.5
-8 6 2 361.06 31.8
-6 -1 -2 53.99 8.9
7 -6 -2 56.29 7.4
-1 7 -2 32 9.8
-7 6 2 54.99 6.6
1 -7 2 56.99 11.7
6 1 2 58.69 9
-7 6 2 45.6 7.1
6 1 2 45.1 7.5
6 -6 -2 1071.69 85.29
-6 0 -2 969.8 86.39
0 6 -2 1039.5 87.39
0 -6 2 1000.7 87.29
6 0 2 990.7 86.29
-6 6 2 1015.1 85.19
6 0 2 1004.3 86.39
-6 1 -2 87.69 12.1
5 -6 -2 73.79 9
1 5 -2 102.99 13.3
6 -1 2 107.39 12.2
-1 -5 2 116.89 14.1
-1 -5 2 105.59 12.5
-5 6 2 65.99 8.9
-6 2 -2 357.56 34.4
2 4 -2 374.96 34.7
-2 -4 2 382.26 35
6 -2 2 385.56 34.3
-2 -4 2 384.46 34.4
-6 3 -2 10.9 6.1
-3 -3 2 28.9 7.7
6 -3 2 19.7 6.1
-3 -3 2 12.4 6.8
4 2 -2 392.56 35.8
-6 4 -2 378.16 36
-4 -2 2 396.86 36
-4 -2 2 404.16 35.6
6 -4 2 395.46 36.1
-6 5 -2 79.69 12.3
5 1 -2 95.19 11.8
6 -5 2 101.79 13.5
-5 -1 2 85.69 11.5
-1 6 2 75.79 9.6
-1 6 2 89.49 8.9
6 0 -2 1097.49 90.89
-6 6 -2 982 91.09
0 6 2 1089.79 88.59
-6 0 2 1043 90.59
0 6 2 1091.29 89.29
0 6 2 1063.59 89.59
6 -6 2 1071.89 91.29
-1 -6 -2 55.09 7.3
-1 -6 -2 49.1 6.4
-6 7 -2 44.5 10
7 -1 -2 50.59 8.4
1 6 2 50.49 6.4
1 6 2 57.09 7.8
-7 1 2 44.5 8.6
6 -7 2 60.69 11.2
8 -2 -2 412.26 35.7
-2 -6 -2 380.76 34.3
-2 -6 -2 363.46 33.8
-6 8 -2 379.36 36.5
2 6 2 399.36 33.6
2 6 2 406.26 34.7
-8 2 2 368.56 35.2
-6 9 -2 127.59 16.8
9 -3 -2 102.49 14.4
-3 -6 -2 111.59 14
-3 -6 -2 101.29 12.6
-3 -6 -2 111.29 13.2
-9 3 2 112.89 13.6
6 -9 2 120.19 16.9
3 6 2 134.39 12.4
3 6 2 122.09 13.8
-9 3 2 108.89 14.2
-4 -6 -2 642.94 57.69
-6 10 -2 706.23 60.39
10 -4 -2 693.53 60.69
-4 -6 -2 636.04 57.89
-4 -6 -2 666.03 58.29
4 6 2 673.23 58.39
-10 4 2 647.14 58.59
-10 4 2 676.93 58.29
4 6 2 667.13 57.29
6 -10 2 674.73 60.19
-6 11 -2 70.09 14.1
11 -5 -2 65.99 10.9
-5 -6 -2 73.59 12
-5 -6 -2 61.69 10
-5 -6 -2 68.49 11
-11 5 2 66.19 11.1
5 6 2 66.79 9.7
-11 5 2 77.29 11.8
5 6 2 87.09 11.9
6 -11 2 91.69 14.3
-6 -6 -2 512.55 49.8
12 -6 -2 581.44 50.19
-6 -6 -2 567.54 49.8
-6 12 -2 542.85 51.89
6 6 2 582.64 50.49
6 6 2 533.15 49
-12 6 2 533.55 49.9
-12 6 2 598.84 50.09
6 -12 2 561.84 51.79
13 -7 -2 19.1 6.3
-7 -6 -2 5 7
-7 -6 -2 3.9 6
-6 13 -2 5.9 8.6
-7 -6 -2 1.2 5
-13 7 2 18 6.1
6 -13 2 4.5 8.2
7 6 2 7 4.5
7 6 2 14.6 6.7
-13 7 2 7.8 6
-7 -5 -2 139.39 16.8
12 -7 -2 138.79 16.5
-7 -5 -2 113.89 16
-5 12 -2 110.89 18.1
-12 7 2 135.29 15.7
-12 7 2 161.18 16.3
5 -12 2 144.79 20.3
7 5 2 133.39 16.6
7 5 2 133.29 15.5
11 -7 -2 5 4.8
-4 11 -2 5.3 7.7
-7 -4 -2 0.9 4.9
-7 -4 -2 5.3 5.8
-11 7 2 -2.5 4.5
7 4 2 3.8 5.5
4 -11 2 11.8 8.6
-11 7 2 4.9 4.5
7 4 2 1.3 4.8
10 -7 -2 199.98 17.9
-7 -3 -2 149.79 17.9
-3 10 -2 119.99 20
-7 -3 -2 159.28 18.4
-10 7 2 180.08 17.5
7 3 2 156.78 18.3
-10 7 2 184.98 17.2
3 -10 2 136.29 20.4
7 3 2 154.78 17.5
-7 -2 -2 32.6 7.9
-2 9 -2 22.5 8.8
9 -7 -2 29.8 6.4
-9 7 2 19.9 5.5
7 2 2 12.4 5.4
2 -9 2 26 9.1
-9 7 2 35.9 6.6
7 2 2 26.6 7.8
-1 8 -2 210.58 23.7
8 -7 -2 227.48 20.8
-7 -1 -2 206.28 21.9
-8 7 2 227.18 20.1
1 -8 2 204.88 23.9
7 1 2 212.38 22.6
7 1 2 237.18 21.7
-8 7 2 205.78 20.3
7 -7 -2 7.9 3.8
0 7 -2 2.4 6.2
-7 0 -2 0.1 5.1
0 -7 2 -3.7 7.2
7 0 2 9.3 4.7
-7 7 2 9 3.5
-7 7 2 8 3.2
7 0 2 3.7 5.3
-7 1 -2 43 8.7
6 -7 -2 49.2 6.2
1 6 -2 56.59 10.8
-1 -6 2 29.4 9.4
-1 -6 2 41.1 8.1
7 -1 2 54.89 8.7
7 -1 2 42.9 7.4
2 5 -2 113.29 15.2
5 -7 -2 122.99 11
-7 2 -2 102.29 14
7 -2 2 121.49 14.3
-2 -5 2 115.39 13.9
-2 -5 2 115.19 15.7
-7 3 -2 52.19 9.4
7 -3 2 45.5 8.7
-3 -4 2 44.3 8
-3 -4 2 70.59 11.1
4 3 -2 34.5 7.2
-7 4 -2 42.3 8.6
-4 -3 2 39.8 7.4
-4 -3 2 78.09 11.3
7 -4 2 47.2 8.8
5 2 -2 130.89 14.3
-7 5 -2 105.29 14.7
-2 7 2 123.49 11.9
-5 -2 2 118.89 13.9
7 -5 2 110.09 14.8
-2 7 2 116.99 11.3
-7 6 -2 29.3 8.8
6 1 -2 49.5 8.8
-1 7 2 51.29 6.6
-1 7 2 50.49 9.2
7 -6 2 51.09 10.4
-6 -1 2 43.3 8.2
7 0 -2 6.6 4.8
-7 7 -2 4.5 6.2
0 7 2 6.9 4
0 7 2 12.5 2.7
0 7 2 14.4 4.9
7 -7 2 7.1 7.6
-7 0 2 12.5 4.9
-1 -7 -2 215.48 20.6
8 -1 -2 210.58 26.1
-7 8 -2 218.38 23.8
-1 -7 -2 169.88 20.8
7 -8 2 205.78 23
1 7 2 218.58 21.4
1 7 2 276.67 21.5
1 7 2 232.48 19.8
-8 1 2 224.68 22.3
-7 9 -2 42 9.8
-2 -7 -2 32.5 7.1
9 -2 -2 28.3 7.3
-2 -7 -2 26.7 5.5
-2 -7 -2 31.6 6.1
2 7 2 31.1 5.2
7 -9 2 30.2 9.1
-9 2 2 30.2 7.4
-9 2 2 26.2 7
2 7 2 38 7.3
-7 10 -2 154.78 20.9
-3 -7 -2 168.08 17.6
-3 -7 -2 182.48 18.6
10 -3 -2 175.38 19.4
-3 -7 -2 156.48 17
-10 3 2 189.28 19.2
-10 3 2 176.18 18.3
7 -10 2 159.38 20.3
3 7 2 160.28 18
3 7 2 170.38 16.6
-7 11 -2 6.4 7.9
-4 -7 -2 -4.3 5.7
-4 -7 -2 4.6 4.4
-4 -7 -2 6.8 5.2
11 -4 -2 5.5 5.4
-11 4 2 5.9 5.7
7 -11 2 8.7 7.2
4 7 2 5.5 5.3
4 7 2 5.2 3.9
-11 4 2 4.4 5.1
-5 -7 -2 119.59 17.2
-5 -7 -2 125.59 16.1
12 -5 -2 156.48 17.4
-5 -7 -2 137.69 15.7
-7 12 -2 129.59 19.7
5 7 2 152.88 16.9
-12 5 2 160.48 17
7 -12 2 141.69 19.5
5 7 2 107.09 14.7
-12 5 2 177.08 17.7
-6 -7 -2 3.9 6
-6 -7 -2 0.1 7
-7 13 -2 13.7 9.2
13 -6 -2 2.1 5
-6 -7 -2 2.5 5.3
-13 6 2 5.2 6
-13 6 2 10.9 5.7
6 7 2 8.4 6.1
6 7 2 2.2 7.8
7 -13 2 10 8.9
14 -7 -2 115.39 14.7
-7 14 -2 71.99 15.9
-7 -7 -2 111.99 16.1
-7 -7 -2 91.19 14
-7 -7 -2 111.79 14.7
7 -14 2 85.09 15.7
-14 7 2 82.99 13
7 7 2 73.69 13.4
-14 7 2 117.59 14.7
7 7 2 78.79 12.1
-8 -7 -2 38.3 10.9
-8 -7 -2 59.69 11.6
15 -8 -2 47.7 9.9
-7 15 -2 44.2 16.7
-8 -7 -2 37.7 9.8
-15 8 2 40.7 10.2
8 7 2 46.7 10.9
7 -15 2 26.3 11.2
8 7 2 51.09 9.2
-15 8 2 47.7 10.5
-8 -6 -2 290.07 30.4
-8 -6 -2 291.47 30.8
14 -8 -2 315.87 30
-6 14 -2 286.47 32.7
-8 -6 -2 301.27 30
8 6 2 296.37 30.4
8 6 2 312.37 29.1
-14 8 2 289.77 29.7
-14 8 2 322.67 30.1
6 -14 2 293.87 32.2
-8 -5 -2 126.39 16.9
13 -8 -2 128.39 16.2
-5 13 -2 142.69 21.3
-8 -5 -2 163.18 17.5
8 5 2 129.79 15.4
-13 8 2 137.49 16.1
5 -13 2 140.89 19.9
8 5 2 118.49 17.2
-13 8 2 110.79 15.8
-4 12 -2 435.26 43.4
-8 -4 -2 418.06 41.6
12 -8 -2 464.05 41.2
-8 -4 -2 483.45 42.1
-12 8 2 452.65 40.8
8 4 2 468.55 42
4 -12 2 412.36 43.2
-12 8 2 430.66 40.8
8 4 2 476.95 40.9
11 -8 -2 79.89 11.6
-3 11 -2 83.59 15.7
-8 -3 -2 77.09 11.9
-8 -3 -2 86.99 13.4
8 3 2 93.19 13.5
3 -11 2 108.19 16.9
8 3 2 73.79 11.4
-11 8 2 84.09 11.6
-11 8 2 91.79 11.6
10 -8 -2 840.02 65.99
-8 -2 -2 753.92 67.19
-2 10 -2 748.33 68.19
2 -10 2 757.02 68.29
-10 8 2 754.62 65.59
8 2 2 717.83 66.19
-10 8 2 766.82 65.39
8 2 2 756.72 66.89
9 -8 -2 4.8 4
-1 9 -2 1.5 7
-8 -1 -2 8.3 6.7
-9 8 2 7.6 3.9
-9 8 2 9.8 4.1
8 1 2 4 5.2
8 1 2 3.5 5.7
1 -9 2 8 8.4
8 -8 -2 657.13 52.49
0 8 -2 594.84 55.19
-8 0 -2 598.64 54.19
0 -8 2 637.54 54.29
8 0 2 598.44 54.09
-8 8 2 614.14 52.19
0 -8 2 607.24 55.29
8 0 2 484.35 57.49
-8 8 2 643.94 52.39
1 7 -2 224.28 22.7
7 -8 -2 231.88 18.9
-8 1 -2 199.38 21.5
-7 8 2 195.48 18.3
-7 8 2 190.78 18.6
8 -1 2 172.38 25.7
-1 -7 2 193.18 21.1
-1 -7 2 213.28 22.8
8 -1 2 205.68 21.3
-8 2 -2 342.57 32.6
2 6 -2 341.77 33.4
6 -8 -2 376.26 29.9
-6 8 2 325.97 29.7
-2 -6 2 354.06 32.3
8 -2 2 288.87 36.1
8 -2 2 375.96 32.6
-8 3 -2 21.9 6.8
8 -3 2 11 6.6
-3 -5 2 8.6 7
-3 -5 2 2.1 4.6
8 -3 2 10.8 4.7
-8 4 -2 218.18 24
4 4 -2 261.67 24.2
-4 8 2 230.68 20.7
8 -4 2 240.78 24.6
-4 -4 2 242.38 24.8
-4 -4 2 244.38 23.6
5 3 -2 10.6 5.9
-8 5 -2 21.6 7
-3 8 2 14.7 4.4
-3 8 2 19.9 3.8
-5 -3 2 11.2 5.1
8 -5 2 16.6 8.9
-5 -3 2 21.9 7.6
-8 6 -2 351.36 34.5
-2 8 2 391.46 32
-2 8 2 349.96 33.2
-6 -2 2 366.86 34
-8 7 -2 207.28 23.1
7 1 -2 220.38 22.8
8 -7 2 194.08 22.7
-1 8 2 240.18 20.3
-7 -1 2 215.18 22
-1 8 2 208.18 20.7
0 -8 -2 596.34 54.39
0 -8 -2 630.04 54.69
-8 8 -2 637.04 57.89
8 0 -2 637.64 57.29
0 8 2 613.44 55.89
0 8 2 749.92 55.99
-8 0 2 639.94 57.09
8 -8 2 637.74 57.79
0 8 2 683.43 54.49
-8 9 -2 12.3 7.8
9 -1 -2 -3.5 3.9
-1 -8 -2 5.1 3.4
-1 -8 -2 5.8 3.8
-1 -8 -2 9.7 5.1
1 8 2 9.7 5.2
8 -9 2 10.2 7.5
1 8 2 7.3 3.1
-9 1 2 2.6 5.3
1 8 2 -3.2 5
-9 1 2 3.5 4.7
-2 -8 -2 785.82 68.59
-2 -8 -2 774.52 68.29
-2 -8 -2 809.92 69.09
10 -2 -2 808.62 70.59
-8 10 -2 841.72 71.59
2 8 2 812.32 68.09
-10 2 2 757.82 69.89
-10 2 2 775.62 70.29
2 8 2 859.21 69.59
8 -10 2 822.52 71.19
-3 -8 -2 77.79 11.1
-3 -8 -2 76.49 10.3
-8 11 -2 72.89 13.4
11 -3 -2 70.19 12.1
-3 -8 -2 80.49 12.1
-11 3 2 73.29 11.8
-11 3 2 75.69 11.9
3 8 2 84.69 9.8
8 -11 2 69.19 13.2
12 -4 -2 463.65 43.1
-8 12 -2 433.76 44
-4 -8 -2 462.55 41.5
-4 -8 -2 465.55 42.5
-4 -8 -2 480.95 42
-12 4 2 473.75 42.7
4 8 2 450.25 40.9
4 8 2 488.95 42.7
-12 4 2 446.66 42.9
8 -12 2 472.15 44.2
-5 -8 -2 144.89 17.1
-8 13 -2 165.68 20.7
13 -5 -2 142.99 17.6
-5 -8 -2 146.79 16
5 8 2 161.58 17.6
-13 5 2 131.79 17.5
-13 5 2 137.49 17.6
5 8 2 116.69 15.2
8 -13 2 132.79 19.8
14 -6 -2 293.37 30
-8 14 -2 327.87 32.7
-6 -8 -2 310.57 29.5
-6 -8 -2 312.47 30.7
-6 -8 -2 293.57 28.8
-14 6 2 270.07 29.6
6 8 2 280.17 28
8 -14 2 336.97 32.1
-14 6 2 237.78 29.3
6 8 2 323.27 30
15 -7 -2 47.8 10.1
-7 -8 -2 44.8 9.3
-7 -8 -2 36.8 9.6
-7 -8 -2 46.4 11.1
-8 15 -2 30.1 16.3
-15 7 2 44.4 10.4
8 -15 2 33.4 11.5
7 8 2 61.49 10
7 8 2 40.7 10.7
-15 7 2 35 10.1
-8 -8 -2 223.68 26.9
-8 -8 -2 254.27 26.4
-8 16 -2 208.98 28.8
-8 -8 -2 225.78 25.2
16 -8 -2 234.98 25.9
-16 8 2 288.67 26.9
8 8 2 245.38 24.4
8 -16 2 255.27 28.1
8 8 2 241.88 26.4
-16 8 2 206.98 25.5
-8 17 -2 29.8 13
-9 -8 -2 24.9 11.3
17 -9 -2 51.39 11.3
-9 -8 -2 29.4 9.8
-9 -8 -2 46.5 11.6
-17 9 2 73.59 18.1
-17 9 2 48.5 11.2
9 8 2 49 9.2
9 8 2 44.2 11.4
8 -17 2 44.4 13.1
16 -9 -2 18.5 7
-7 16 -2 10.6 9.8
-9 -7 -2 7.8 7.4
-9 -7 -2 8.8 9.1
-9 -7 -2 26.7 7.6
-16 9 2 12.1 6.9
9 7 2 15.8 7.9
-16 9 2 23.8 7.8
9 7 2 10.6 5.7
7 -16 2 23.9 11.2
-9 -6 -2 6.4 7.3
-6 15 -2 -1.2 9.8
-9 -6 -2 5.7 7
15 -9 -2 8.9 5.7
-9 -6 -2 7.2 6.1
9 6 2 -0.3 4.8
-15 9 2 -0.5 4.4
9 6 2 1.9 6.2
6 -15 2 6 8.4
-15 9 2 6.3 6.1
14 -9 -2 27.5 7.2
-9 -5 -2 15.4 8.1
-9 -5 -2 19.6 8.1
-5 14 -2 23.8 10.3
-14 9 2 12.5 5.9
9 5 2 15.1 5.9
5 -14 2 15 10.3
9 5 2 11.9 7.6
-14 9 2 24.1 7.8
13 -9 -2 11.2 5.7
-9 -4 -2 40.5 9.7
-4 13 -2 19.3 9.9
-9 -4 -2 25.2 8.6
9 4 2 13.4 7.6
9 4 2 15.9 6.3
4 -13 2 17.9 10.6
-13 9 2 26 7.3
-13 9 2 16.3 6
-9 -3 -2 42.6 10.3
12 -9 -2 42 9.6
-9 -3 -2 44.7 10.4
-3 12 -2 43.5 11.7
-12 9 2 46.2 8.4
9 3 2 37.1 8
3 -12 2 45.9 12.8
-12 9 2 47.8 9.3
9 3 2 25 8.5
-9 -2 -2 103.49 15.3
-2 11 -2 109.19 16.7
11 -9 -2 116.59 13.5
-9 -2 -2 112.09 15.1
9 2 2 97.69 14.6
-11 9 2 107.29 13
9 2 2 114.09 14
2 -11 2 121.59 17.9
-11 9 2 92.99 12.6
-1 10 -2 91.19 16.8
10 -9 -2 125.49 14.6
-9 -1 -2 133.79 17.3
-10 9 2 147.09 14.3
9 1 2 141.39 16.7
1 -10 2 134.19 18.8
9 1 2 144.29 15.9
1 -10 2 131.09 16.7
-10 9 2 108.49 14.1
9 -9 -2 259.17 23
0 9 -2 242.58 26.5
-9 0 -2 265.37 25.6
0 -9 2 242.38 26.8
9 0 2 245.78 24.4
-9 9 2 239.88 22.7
9 0 2 225.28 24.9
-9 9 2 233.18 22.5
0 -9 2 250.77 25
8 -9 -2 7.1 3.7
1 8 -2 1.9 7
-9 1 -2 -1.1 5.7
-1 -8 2 2.2 5
9 -1 2 3.8 4.7
-8 9 2 3.9 3.6
9 -1 2 16.3 6.8
-1 -8 2 -2.2 6.9
-8 9 2 3.3 3.2
2 7 -2 26.5 9.2
-9 2 -2 19.3 7.8
7 -9 -2 32 4.6
9 -2 2 28 7.4
-7 9 2 18.3 5.8
-2 -7 2 18.5 8.5
9 -2 2 24.5 7.3
-2 -7 2 26.9 7.3
3 6 -2 107.49 15.7
-9 3 -2 121.99 14.9
-3 -6 2 97.69 13.8
9 -3 2 102.99 14.7
-3 -6 2 118.69 16.8
9 -3 2 109.09 14
-6 9 2 102.59 10.7
4 5 -2 123.59 14.5
-9 4 -2 106.69 14.6
-5 9 2 99.19 10.9
9 -4 2 99.89 13.8
-4 -5 2 107.99 15.9
-4 -5 2 106.09 14
9 -4 2 123.69 14.7
5 4 -2 130.19 15.5
-9 5 -2 137.09 16.5
9 -5 2 127.69 15.8
-5 -4 2 111.59 16.9
-5 -4 2 117.79 15
-4 9 2 120.59 14.8
-9 6 -2 115.99 15.5
6 3 -2 104.89 14.6
9 -6 2 106.29 14.9
-3 9 2 99.29 12.9
-6 -3 2 118.79 16.6
-6 -3 2 160.38 18
7 2 -2 23.2 7.1
-9 7 -2 24.5 8
9 -7 2 29.1 8.3
-7 -2 2 20.7 6.9
-2 9 2 33.8 6.8
8 1 -2 12.3 5.9
-9 8 -2 -6.7 6.2
-8 -1 2 1.1 5
9 -8 2 5.2 6.7
-1 9 2 2.3 4
-1 9 2 -1.2 5
0 -9 -2 253.57 23.6
0 -9 -2 247.48 23.9
0 -9 -2 231.78 25.7
9 0 -2 269.07 26.8
-9 9 -2 296.67 28
0 9 2 272.87 23.1
9 -9 2 305.77 27.9
0 9 2 265.47 25.5
-9 0 2 244.18 26.2
-9 0 2 235.18 25.8
0 9 2 296.67 25.2
-1 -9 -2 137.69 14.6
10 -1 -2 140.09 17.6
-1 -9 -2 141.49 14
-1 -9 -2 130.09 15.5
-9 10 -2 163.98 19.7
-10 1 2 112.19 17
1 9 2 134.59 13.6
9 -10 2 151.08 18.9
1 9 2 157.28 16.9
-10 1 2 112.39 16.5
1 9 2 152.78 16
-2 -9 -2 128.29 12.8
11 -2 -2 141.09 16.4
-2 -9 -2 106.69 14.6
-2 -9 -2 92.29 12.9
-9 11 -2 110.69 16.7
-11 2 2 115.49 16.5
2 9 2 114.49 12.2
-11 2 2 107.59 15
9 -11 2 138.69 17.6
-3 -9 -2 42.7 7.4
12 -3 -2 42 9.7
-9 12 -2 34 10.7
-3 -9 -2 31.1 8.6
-3 -9 -2 44.1 8.2
3 9 2 44.9 7
-12 3 2 35.3 9
-12 3 2 35.8 9.1
3 9 2 54.99 9.4
9 -12 2 45.8 11.4
13 -4 -2 18.6 7.4
-9 13 -2 36.5 10.9
-4 -9 -2 27.5 6.4
-4 -9 -2 15.1 7.7
-4 -9 -2 16.2 6.6
4 9 2 19.9 5.6
9 -13 2 11.4 8.7
-13 4 2 25.6 8.1
4 9 2 33 8.1
-13 4 2 11 6.6
-5 -9 -2 15.3 6.3
14 -5 -2 27.6 7.7
-9 14 -2 24.9 11
-5 -9 -2 21.3 7.7
-5 -9 -2 13.2 8
-14 5 2 8.6 7.4
5 9 2 17.8 7.4
-14 5 2 25.8 8.9
5 9 2 18.4 5.6
9 -14 2 19 9.5
-6 -9 -2 -0.9 7.7
-6 -9 -2 -1.8 4.7
-9 15 -2 8 11.7
-6 -9 -2 13.5 7.1
15 -6 -2 10.9 6.7
-15 6 2 18.1 8
6 9 2 -4.7 5.6
-15 6 2 -0.8 5
9 -15 2 -0.1 7.8
6 9 2 -1.5 4
-7 -9 -2 14.1 9.6
-7 -9 -2 19.9 8
-9 16 -2 13.7 11.2
-7 -9 -2 21 7.4
16 -7 -2 9.3 6.5
7 9 2 17 8.3
9 -16 2 12.5 9.9
-16 7 2 39.3 10.1
7 9 2 12 5.6
-16 7 2 15.1 10.5
-9 17 -2 47.4 13.6
17 -8 -2 30.1 9.1
-8 -9 -2 46.6 11.6
-8 -9 -2 29.9 9.2
-8 -9 -2 17.7 10.6
8 9 2 38.7 10.1
9 -17 2 26 11.4
8 9 2 40.3 8.2
-17 8 2 52.49 11.4
-17 8 2 25 8.6
-9 18 -2 3.9 10.1
18 -9 -2 5.8 6.1
-9 -9 -2 3.2 5.9
-9 -9 -2 13.4 10
9 9 2 5.4 5.1
-18 9 2 -0.5 7
-18 9 2 8.3 6.5
9 9 2 5.7 7.9
9 -18 2 2.8 8.7
19 -10 -2 18.2 8.8
-10 -9 -2 27 10.9
-9 19 -2 14.8 11.8
-10 -9 -2 6.6 10.2
-10 -9 -2 21 9.3
10 9 2 12.4 7.1
-19 10 2 25 9.1
9 -19 2 9.6 9.8
10 9 2 27.1 10.1
-19 10 2 5.4 8.6
-10 -8 -2 90.59 15.8
18 -10 -2 91.29 14.8
-10 -8 -2 80.69 15.4
-8 18 -2 45.9 15.5
-10 -8 -2 86.39 16.9
-18 10 2 83.09 14.4
10 8 2 101.39 16.6
8 -18 2 82.89 17.1
10 8 2 70.39 12
-10 -7 -2 50.09 13.6
17 -10 -2 41.4 9.8
-10 -7 -2 45.7 12.5
-10 -7 -2 44.7 10.6
-7 17 -2 27.2 12.7
10 7 2 47 9.6
10 7 2 61.19 12.7
7 -17 2 25.5 12.4
-17 10 2 56.19 11.8
-17 10 2 64.29 12.4
-10 -6 -2 170.18 24.1
16 -10 -2 211.28 23.3
-10 -6 -2 223.08 24.2
-6 16 -2 155.28 25.7
-10 -6 -2 214.98 25.1
-16 10 2 223.28 24.1
10 6 2 209.58 22.5
10 6 2 252.27 25
-16 10 2 221.88 23.3
6 -16 2 197.58 26
-10 -5 -2 124.09 17.9
-5 15 -2 107.99 18.9
-10 -5 -2 121.09 18.4
15 -10 -2 112.49 15.9
10 5 2 128.19 15.5
-15 10 2 109.09 15.7
-15 10 2 113.39 16.4
10 5 2 124.19 17.2
5 -15 2 118.89 20.2
-10 -4 -2 482.65 41
14 -10 -2 429.56 39.2
-10 -4 -2 409.66 40.6
-4 14 -2 416.36 42.6
10 4 2 412.06 40.2
4 -14 2 380.66 41.8
10 4 2 405.06 39
-14 10 2 404.16 38.8
-14 10 2 426.96 39.1
13 -10 -2 127.89 14.2
-3 13 -2 98.09 18.2
-10 -3 -2 88.29 13.9
-10 -3 -2 86.59 14.8
3 -13 2 104.19 18.6
10 3 2 97.39 15.1
-13 10 2 88.89 13.2
-13 10 2 91.89 13.4
10 3 2 108.89 14
-10 -2 -2 610.34 57.29
-10 -2 -2 641.34 57.49
12 -10 -2 696.93 55.79
-2 12 -2 596.34 58.29
-12 10 2 630.84 55.29
-12 10 2 606.94 55.29
10 2 2 640.64 56.39
2 -12 2 640.84 58.49
10 2 2 614.14 56.99
11 -10 -2 96.39 11.9
-10 -1 -2 80.79 13.9
-1 11 -2 75.99 15.1
1 -11 2 75.79 14.8
1 -11 2 99.69 14.2
10 1 2 74.99 12.7
10 1 2 71.49 11.9
-11 10 2 77.89 11.2
-11 10 2 72.49 10.8
10 -10 -2 1259.07 98.89
-10 0 -2 1154.48 100.99
0 10 -2 1135.19 101.59
0 -10 2 1177.68 100.49
0 -10 2 1222.78 101.99
10 0 2 1248.68 100.99
-10 10 2 1056.19 98.39
10 0 2 1161.38 100.19
-10 10 2 1112.89 98.59
-10 1 -2 149.59 17.5
9 -10 -2 122.69 13.7
1 9 -2 128.59 19
-1 -9 2 108.29 16
10 -1 2 122.49 16.2
10 -1 2 111.49 15.6
-1 -9 2 141.79 19.4
-9 10 2 135.79 13.7
2 8 -2 713.33 65.39
8 -10 -2 771.82 61.99
-10 2 -2 722.83 64.89
10 -2 2 712.13 64.49
10 -2 2 771.92 64.59
-2 -8 2 739.93 64.39
-2 -8 2 738.13 65.79
-8 10 2 683.13 61.99
3 7 -2 148.19 19.6
-10 3 -2 173.28 19.5
-7 10 2 138.99 15.2
-3 -7 2 130.19 19.9
10 -3 2 182.48 18.9
10 -3 2 193.48 18.5
-3 -7 2 155.28 18
4 6 -2 621.94 54.39
-10 4 -2 598.84 54.69
10 -4 2 608.94 54.29
-4 -6 2 629.64 54.19
-6 10 2 545.15 51.89
10 -4 2 624.44 54.39
-4 -6 2 650.73 55.59
-10 5 -2 59.29 10
5 5 -2 43.4 8.6
10 -5 2 58.99 10
10 -5 2 30.7 7.8
-5 -5 2 26.6 7.4
-5 10 2 41.2 6.9
-5 -5 2 48.1 11.1
-10 6 -2 587.74 55.19
6 4 -2 621.54 54.99
-6 -4 2 581.84 55.49
-4 10 2 614.44 52.89
10 -6 2 646.24 54.99
-6 -4 2 626.64 54.79
7 3 -2 159.88 19
-10 7 -2 175.48 19.8
-7 -3 2 163.78 18.5
10 -7 2 160.48 19.3
-3 10 2 157.18 17.2
-10 8 -2 715.73 64.79
8 2 -2 811.32 64.99
10 -8 2 677.33 64.29
-8 -2 2 703.83 64.19
-2 10 2 742.43 62.99
9 1 -2 117.79 16.8
1 -10 -2 131.59 13
-10 9 -2 140.59 18.5
-9 -1 2 120.49 16.1
-1 10 2 127.29 15.7
-9 -1 2 145.19 17.2
10 -9 2 117.69 17.6
0 -10 -2 1187.48 100.19
0 -10 -2 1090.69 99.99
-10 10 -2 1176.98 103.49
0 -10 -2 1215.88 100.59
10 0 -2 1265.87 103.29
-10 0 2 1217.78 102.89
0 10 2 1211.78 101.89
0 10 2 1269.87 99.89
-10 0 2 1113.29 102.69
-1 -10 -2 99.19 12.8
-1 -10 -2 95.19 11.3
-10 11 -2 78.79 14.9
11 -1 -2 84.99 13.7
-1 -10 -2 81.49 10.2
10 -11 2 60.09 13.4
1 10 2 91.39 13.2
-11 1 2 104.99 14.4
-11 1 2 68.89 12.2
1 10 2 86.29 10
12 -2 -2 628.44 61.19
-2 -10 -2 700.63 58.89
-2 -10 -2 687.93 59.99
-2 -10 -2 714.53 59.49
-10 12 -2 714.33 62.79
-12 2 2 633.84 61.29
2 10 2 707.93 60.49
2 10 2 662.83 58.49
10 -12 2 729.53 62.19
-12 2 2 656.03 61.09
13 -3 -2 118.19 17
-3 -10 -2 105.69 15.2
-10 13 -2 104.69 17.3
-3 -10 -2 112.49 13.3
-3 -10 -2 109.69 14.2
10 -13 2 127.49 18.1
-13 3 2 116.19 16.4
3 10 2 123.69 15.5
3 10 2 104.69 12.6
-13 3 2 107.49 16
14 -4 -2 453.25 41.1
-10 14 -2 461.55 43
-4 -10 -2 404.56 39.2
-4 -10 -2 391.06 38.5
4 10 2 420.96 38.1
4 10 2 453.05 40.5
10 -14 2 461.25 42.2
-14 4 2 426.26 41
-14 4 2 383.46 40.6
-5 -10 -2 138.19 18.5
-10 15 -2 140.79 21.4
15 -5 -2 90.89 16
-5 -10 -2 131.29 15.5
-5 -10 -2 114.69 16.3
5 10 2 132.39 17.5
10 -15 2 108.79 18.5
-15 5 2 133.09 18.1
5 10 2 119.19 14.6
-15 5 2 125.29 17.6
-6 -10 -2 233.48 26
-6 -10 -2 231.68 23.9
-10 16 -2 195.98 27.6
16 -6 -2 223.18 25
-6 -10 -2 229.28 24.9
-16 6 2 217.08 25.3
-16 6 2 231.38 25.8
6 10 2 228.48 22.9
10 -16 2 218.38 26.7
6 10 2 231.88 25.3
-7 -10 -2 39.3 9.1
-10 17 -2 39.8 14.3
-7 -10 -2 62.49 13.2
-7 -10 -2 38.1 10.5
17 -7 -2 64.09 12.3
7 10 2 35.8 8.4
-17 7 2 55.79 12.7
10 -17 2 55.89 13.6
-10 18 -2 69.89 16.7
18 -8 -2 78.89 14
-8 -10 -2 84.19 14.5
-8 -10 -2 72.89 14.1
-8 -10 -2 63.69 14.7
8 10 2 96.09 12.7
-18 8 2 87.69 16.7
-18 8 2 71.49 14.7
10 -18 2 65.49 15.2
-10 19 -2 25.1 12.4
19 -9 -2 14.9 7.8
-9 -10 -2 15.4 7.6
-9 -10 -2 15.2 10.8
-9 -10 -2 18.2 9.4
-19 9 2 17.5 9
-19 9 2 23.2 10.6
9 10 2 16 6.8
10 -19 2 3.2 9.7
-10 -10 -2 73.19 15.1
-10 20 -2 68.39 17.8
-10 -10 -2 53.29 11.8
20 -10 -2 84.09 16.2
-10 -10 -2 85.79 16.2
10 -20 2 97.99 18.3
10 10 2 79.89 12.8
-20 10 2 87.69 16.6
-20 10 2 80.79 16.5
-11 -10 -2 -7.1 9.6
-11 -10 -2 7.4 6.2
-10 21 -2 15 11.5
-11 -10 -2 1.3 8.2
21 -11 -2 0.2 5.8
-21 11 2 -1.6 6.4
-21 11 2 -1 7.2
10 -21 2 1.3 8.6
11 10 2 7.5 5.4
-11 -9 -2 14.7 9.5
-9 20 -2 18.2 10.9
-11 -9 -2 11.4 8.2
-11 -9 -2 1.4 9.6
20 -11 -2 16.1 8
-20 11 2 16.7 8.6
-20 11 2 7 6.9
9 -20 2 10.1 10.8
11 9 2 9 6.3
-11 -8 -2 -6.1 6.6
-11 -8 -2 -0.5 6.3
-8 19 -2 -5 9.1
-11 -8 -2 6.7 10.6
19 -11 -2 8.9 6.7
-19 11 2 21.1 9
8 -19 2 17.2 11.5
-19 11 2 5.1 6.5
11 8 2 14.3 6.8
11 8 2 -1.6 7
-7 18 -2 -3.4 8.5
18 -11 -2 -3.8 4.8
-11 -7 -2 -7.1 5.7
-11 -7 -2 0 9.2
-11 -7 -2 -2.2 7.2
-18 11 2 2.3 5.6
11 7 2 1.9 6.9
-18 11 2 -8.7 7.2
7 -18 2 5.8 9.8
11 7 2 -4.7 4.7
-6 17 -2 -13.7 7.7
-11 -6 -2 -0.4 7.7
17 -11 -2 -3 5
-11 -6 -2 -6.6 5.3
-17 11 2 5 5.7
6 -17 2 2 9
11 6 2 2.9 6.8
-17 11 2 -5.3 5.6
11 6 2 3.6 4.8
-11 -5 -2 43.1 12.9
16 -11 -2 47.4 9.6
-11 -5 -2 20.3 9.8
-5 16 -2 56.99 14.3
-16 11 2 41.3 10.2
11 5 2 48.5 11.1
5 -16 2 22.8 12.4
-16 11 2 53.59 10.6
11 5 2 35.9 9
15 -11 -2 3.8 4.9
-11 -4 -2 0.8 6.2
-11 -4 -2 -4.2 7
-4 15 -2 -8.5 7.1
-15 11 2 -3.1 5.6
11 4 2 4.6 5.5
11 4 2 -9.9 5.6
-15 11 2 1.5 5
4 -15 2 6.1 9.9
-11 -3 -2 80.09 14.6
-11 -3 -2 93.89 14.7
14 -11 -2 67.99 11.3
11 3 2 82.69 12.4
11 3 2 71.89 13.4
-14 11 2 78.79 12
3 -14 2 57.29 15
-14 11 2 97.59 13.4
-11 -2 -2 20.7 8.9
13 -11 -2 21.2 6.4
-2 13 -2 -3.9 8.1
-11 -2 -2 23.5 8.2
-13 11 2 8.8 5.5
2 -13 2 21.3 10.3
11 2 2 17.7 7.9
11 2 2 8.3 5.6
-13 11 2 13.8 6.2
2 -13 2 12.5 6.5
-11 -1 -2 134.29 17.6
-1 12 -2 139.39 19.9
12 -11 -2 132.89 14.8
-11 -1 -2 116.39 17.8
11 1 2 116.59 16.9
1 -12 2 134.39 16.8
11 1 2 121.99 16.1
-12 11 2 122.99 14.9
1 -12 2 123.39 19.7
-11 0 -2 33.8 10.5
11 -11 -2 51.79 8.2
0 11 -2 51.29 12.4
0 -11 2 50.39 13
11 0 2 54.09 10.3
0 -11 2 32.5 8.3
-11 11 2 39.5 8
11 0 2 53.09 10.6
10 -11 -2 84.79 10.5
1 10 -2 85.39 14.8
-11 1 -2 98.49 14.4
11 -1 2 91.59 13.5
-10 11 2 72.19 10.6
-1 -10 2 59.39 14.8
-1 -10 2 67.59 11.2
11 -1 2 68.29 12.2
-11 2 -2 108.59 15.6
2 9 -2 93.19 16.5
9 -11 -2 92.89 11
-2 -9 2 98.29 14.4
-2 -9 2 92.39 16.2
-9 11 2 95.09 11.7
11 -2 2 104.49 14.9
11 -2 2 106.59 14.8
8 -11 -2 66.09 8.1
3 8 -2 86.89 14.4
-11 3 -2 87.79 13.2
11 -3 2 55.19 10.8
-3 -8 2 66.99 10.8
-3 -8 2 89.19 15.1
-8 11 2 63.79 9.3
11 -3 2 43.2 9.6
-11 4 -2 1.7 6.7
11 -4 2 5.5 5.9
11 -4 2 1.8 5.3
-4 -7 2 2.5 7.9
-7 11 2 3.9 4.1
-4 -7 2 3.1 4.6
-11 5 -2 65.19 11.6
5 6 -2 67.79 11.4
-6 11 2 70.59 9.3
11 -5 2 51.99 10.4
-5 -6 2 52.79 12.3
-5 -6 2 52.29 9.9
11 -5 2 62.59 11.5
6 5 -2 62.39 11.4
-11 6 -2 72.49 12.9
-6 -5 2 49.5 10
11 -6 2 84.09 12.8
11 -6 2 89.79 15.9
-6 -5 2 52.29 12.3
-5 11 2 70.09 9.9
-11 7 -2 5 6.8
7 4 -2 7.6 5.9
-7 -4 2 2.2 4.4
11 -7 2 11.3 6.5
-4 11 2 6.3 5.4
-7 -4 2 0.2 7
8 3 -2 77.29 12.7
-11 8 -2 65.19 12.7
-8 -3 2 69.79 11.5
-3 11 2 84.69 12.2
11 -8 2 83.09 13.5
9 2 -2 114.79 15.6
-11 9 -2 101.49 15.8
-9 -2 2 94.09 14.4
-2 11 2 102.49 14.3
11 -9 2 112.89 16.2
-9 -2 2 120.59 15.2
1 -11 -2 83.89 10.2
-11 10 -2 63.39 13.6
10 1 -2 59.79 11.8
1 -11 -2 89.49 11.2
-1 11 2 72.69 12.1
-10 -1 2 105.89 13.9
11 -10 2 117.99 15.8
-10 -1 2 62.59 12.5
0 -11 -2 41 7.1
0 -11 -2 42.3 6.5
-11 11 -2 50.99 12.2
0 -11 -2 47.4 8.2
11 0 -2 57.09 11.1
-11 0 2 45.7 9.6
-11 0 2 59.59 11
0 11 2 40.5 9.4
11 -11 2 36.8 10.4
-1 -11 -2 137.49 13.7
12 -1 -2 113.39 17.2
-1 -11 -2 144.09 16.1
-11 12 -2 136.89 19.9
-1 -11 -2 124.49 14.5
1 11 2 133.69 17
11 -12 2 126.29 18.5
-12 1 2 121.69 17.8
1 11 2 134.09 13.4
-12 1 2 107.59 16.5
-2 -11 -2 15.9 7.4
-2 -11 -2 5.8 4.1
-11 13 -2 16.5 9.5
-2 -11 -2 11.9 5.6
13 -2 -2 14.8 7.7
11 -13 2 6.2 8.2
-13 2 2 1.6 5.5
2 11 2 15.2 4.4
-13 2 2 6.5 6.3
-3 -11 -2 80.39 11.9
-11 14 -2 100.89 27.2
14 -3 -2 79.99 14
-3 -11 -2 95.29 11.6
-3 -11 -2 75.89 13.2
-14 3 2 71.19 14.2
-14 3 2 74.19 13.9
3 11 2 74.39 10.6
11 -14 2 93.59 15.8
-4 -11 -2 1.7 5.7
15 -4 -2 6 6.7
-4 -11 -2 4.5 4.5
-4 -11 -2 11.2 8.2
-11 15 -2 16.6 9.8
4 11 2 2.8 4.4
-15 4 2 -13 5.3
-15 4 2 -5.1 4.9
11 -15 2 -3.2 8.1
16 -5 -2 40.9 10.9
-5 -11 -2 26.7 10
-11 16 -2 50.99 14.3
-5 -11 -2 40.2 9.4
-5 -11 -2 31.9 8.6
-16 5 2 52.99 12.3
5 11 2 50.59 8.2
-16 5 2 42.8 10.4
11 -16 2 68.19 13.7
-11 17 -2 -4.8 8.5
17 -6 -2 -3.3 5.3
-6 -11 -2 -2.6 5.2
-6 -11 -2 -2.5 6.2
-6 -11 -2 -6.8 7.6
-17 6 2 -0.6 6.3
-17 6 2 -3.6 6.4
6 11 2 -0.9 3.9
11 -17 2 -6.8 8.5
-7 -11 -2 7.6 7.1
18 -7 -2 -0.5 5.9
-7 -11 -2 -5.9 8.5
-7 -11 -2 2.1 4.8
-11 18 -2 -0.3 9.6
11 -18 2 1.4 8.7
-18 7 2 -1 5.7
-18 7 2 8.4 7.9
7 11 2 3.6 4.5
-8 -11 -2 9.9 6.5
19 -8 -2 12.4 7.7
-8 -11 -2 -2 8.4
-8 -11 -2 0.8 10.9
-11 19 -2 5.5 10.5
-19 8 2 0.4 6.7
8 11 2 15.7 6.6
11 -19 2 -4 8.5
-19 8 2 14.8 9.1
20 -9 -2 11.3 7.1
-9 -11 -2 12.3 12.2
-11 20 -2 2.8 9.5
-9 -11 -2 19.8 10.7
-9 -11 -2 9.3 8.4
9 11 2 13.8 6.7
-20 9 2 3.5 8.5
11 -20 2 18.6 11.2
-20 9 2 10.6 8.1
-11 21 -2 10.2 10.6
-10 -11 -2 3.8 5.9
-10 -11 -2 -2.6 9.9
-10 -11 -2 0.1 7.9
21 -10 -2 6.3 7.2
10 11 2 16.1 6.8
-21 10 2 -4.4 6.4
-21 10 2 -10.9 8.1
11 -21 2 0 9.6
-11 -11 -2 46.6 11.1
-11 -11 -2 66.19 14.4
22 -11 -2 52.09 12.1
-11 -11 -2 12 12
-11 22 -2 13.2 14.1
11 -22 2 33.3 14.1
-22 11 2 62.29 13.8
-22 11 2 41.1 12.9
11 11 2 36.4 9.6
-11 23 -2 -3.6 9
-12 -11 -2 2.1 7
-12 -11 -2 -4.2 11
23 -12 -2 4.6 6.7
-12 -11 -2 -11.5 7.4
-23 12 2 -6.9 8.1
-23 12 2 13.8 8.9
12 11 2 14 6.5
11 -23 2 -7.2 9.8
-12 -10 -2 106.19 16.5
-12 -10 -2 104.29 19.9
-10 22 -2 88.79 19.9
22 -12 -2 77.09 14.4
-12 -10 -2 80.69 16.6
12 10 2 78.69 14.5
-22 12 2 93.59 17
10 -22 2 84.49 18.8
-22 12 2 89.79 17.1
21 -12 -2 9.5 7.6
-12 -9 -2 14.1 11
-12 -9 -2 6.7 8.6
-12 -9 -2 8.5 8.2
-9 21 -2 10.2 11.3
-21 12 2 14.8 10.2
9 -21 2 2.5 9.8
-21 12 2 6 7
12 9 2 4.7 6
20 -12 -2 61.39 13
-12 -8 -2 76.39 15.3
-12 -8 -2 78.89 15
-12 -8 -2 96.59 18.7
-8 20 -2 55.49 15.6
12 8 2 77.09 14.5
-20 12 2 84.59 15.5
8 -20 2 63.89 15.9
12 8 2 78.59 12.7
-20 12 2 49.9 12.4
-12 -7 -2 8.6 7.8
19 -12 -2 23.2 7.8
-12 -7 -2 -6 8.6
-7 19 -2 1.6 9.8
-12 -7 -2 6.8 8.7
12 7 2 0.6 5.4
7 -19 2 26.8 13
12 7 2 32.4 10.2
-19 12 2 9 7.5
-19 12 2 -1.5 5.8
-12 -6 -2 40.9 11.3
-12 -6 -2 60.69 13.4
18 -12 -2 57.59 11.2
-6 18 -2 56.29 15.3
6 -18 2 35.1 12.8
12 6 2 60.19 12.2
12 6 2 64.79 13.3
-18 12 2 76.09 13.6
-18 12 2 33.6 11.5
17 -12 -2 62.19 12.5
-5 17 -2 70.59 16.8
-12 -5 -2 74.69 14.6
-12 -5 -2 65.39 13.3
-17 12 2 94.89 14.5
12 5 2 90.19 15.5
5 -17 2 97.99 17.9
-17 12 2 72.49 13.2
12 5 2 87.79 13.3
-4 16 -2 223.58 29.2
-12 -4 -2 246.28 28
16 -12 -2 275.37 25.8
12 4 2 217.38 26.7
12 4 2 226.88 25.5
4 -16 2 220.78 28.9
-16 12 2 240.18 25.3
-16 12 2 258.17 25.8
-3 15 -2 82.49 16.2
-12 -3 -2 72.69 14
15 -12 -2 80.39 11.7
12 3 2 62.19 12.8
3 -15 2 93.39 17.5
-15 12 2 55.49 11.1
12 3 2 61.69 11
3 -15 2 42.3 10.5
-12 -2 -2 366.16 36.7
-2 14 -2 335.87 38
-12 -2 -2 408.66 37.8
14 -12 -2 369.36 34.5
2 -14 2 385.96 38.6
2 -14 2 380.96 35.8
12 2 2 359.46 35.4
12 2 2 335.57 36.2
-14 12 2 355.66 34.5
-1 13 -2 24.2 12.2
13 -12 -2 35.1 9.1
-12 -1 -2 38.3 10.9
-12 -1 -2 43 9.9
12 1 2 50.09 10.3
-13 12 2 41.1 8.7
1 -13 2 38.6 12.4
12 1 2 51.09 10.5
1 -13 2 30.6 8.4
12 -12 -2 427.76 36.3
0 12 -2 391.76 40.2
-12 0 -2 405.06 39.7
12 0 2 390.26 38.5
-12 12 2 411.96 36.6
12 0 2 380.36 37.8
0 -12 2 393.36 40.2
0 -12 2 381.96 38
11 -12 -2 108.69 14
1 11 -2 131.99 18.7
-12 1 -2 130.69 18.4
-11 12 2 123.19 14.8
12 -1 2 110.99 16.8
12 -1 2 177.68 18.1
-1 -11 2 113.79 16.3
-1 -11 2 142.49 20.8
-12 2 -2 645.44 56.39
10 -12 -2 632.54 52.59
2 10 -2 611.24 56.89
12 -2 2 594.04 55.49
-10 12 2 570.14 53.09
12 -2 2 581.64 54.89
-2 -10 2 602.84 55.19
-2 -10 2 661.53 57.29
3 9 -2 38.4 10.8
9 -12 -2 45.4 6.3
-12 3 -2 28.5 9.8
-3 -9 2 39.8 9.2
-3 -9 2 29.3 11.2
12 -3 2 33.9 8.5
12 -3 2 46.7 10.1
-9 12 2 36.9 7.4
-12 4 -2 430.56 39.9
-4 -8 2 431.96 38.9
12 -4 2 411.86 38.8
-4 -8 2 401.16 40.4
12 -4 2 406.36 39
-8 12 2 392.56 36.6
5 7 -2 87.99 14.5
-12 5 -2 122.99 16.6
-5 -7 2 115.69 15.8
12 -5 2 151.98 16.8
-5 -7 2 142.99 19
-7 12 2 124.49 14.2
12 -5 2 132.29 16.5
6 6 -2 530.75 46.8
-12 6 -2 514.95 47.4
12 -6 2 493.75 46.6
-6 -6 2 504.95 46.4
-6 12 2 503.55 44.7
-6 -6 2 503.75 47.9
12 -6 2 490.75 46.3
-12 7 -2 121.29 17.6
7 5 -2 143.29 17
-7 -5 2 118.49 16.3
-5 12 2 121.39 15.3
-7 -5 2 141.09 19.1
12 -7 2 135.69 16.6
12 -7 2 125.49 17.2
-12 8 -2 409.96 41.2
8 4 -2 465.95 41.1
12 -8 2 401.36 40.5
-4 12 2 431.46 39.1
-8 -4 2 437.06 41.7
-8 -4 2 440.36 40.5
-12 9 -2 43.7 10.8
9 3 -2 24.3 8.1
-9 -3 2 46.6 9.8
12 -9 2 37.4 9.8
-3 12 2 36.1 8.7
-9 -3 2 37.7 8.8
-12 10 -2 679.63 58.19
10 2 -2 677.43 57.59
12 -10 2 581.84 56.99
-10 -2 2 629.64 57.19
-10 -2 2 659.73 57.29
-2 12 2 574.94 55.69
1 -12 -2 119.79 13
11 1 -2 108.89 16.8
-12 11 -2 164.78 19.7
1 -12 -2 120.89 13.9
-1 12 2 127.99 16.6
-11 -1 2 128.29 17
-11 -1 2 119.89 17
12 -11 2 121.89 17.9
12 0 -2 411.66 39.5
-12 12 -2 370.96 39.8
0 -12 -2 418.36 36.8
0 -12 -2 415.66 35.5
0 -12 -2 388.96 36
-12 0 2 408.16 39.2
-12 0 2 381.26 39.1
0 12 2 389.56 38.3
12 -12 2 465.85 40.3
-12 13 -2 25.5 11.2
13 -1 -2 22.8 8.6
-1 -12 -2 46.3 7.3
-1 -12 -2 28.2 8.6
-1 -12 -2 44.1 8
-13 1 2 38.7 10.8
12 -13 2 42.9 11.6
-13 1 2 39.8 10.1
1 12 2 46.7 7
14 -2 -2 360.96 38.6
-2 -12 -2 392.56 37.2
-2 -12 -2 411.96 35.5
-12 14 -2 408.86 41.6
-2 -12 -2 377.96 36.2
-14 2 2 370.86 39.2
12 -14 2 463.25 40.1
-14 2 2 406.26 38.8
2 12 2 367.76 35.1
-3 -12 -2 81.99 11.5
-3 -12 -2 63.49 15.6
15 -3 -2 62.59 13.7
-3 -12 -2 72.39 11.7
-12 15 -2 59.19 14.5
3 12 2 80.89 11
12 -15 2 91.39 15.5
-15 3 2 78.19 16
-15 3 2 69.59 13
-4 -12 -2 252.27 28
-4 -12 -2 263.57 27
-4 -12 -2 260.47 25.8
-12 16 -2 299.57 31.3
16 -4 -2 293.47 29.2
4 12 2 233.88 26.9
-16 4 2 221.98 28.7
12 -16 2 318.77 31
-16 4 2 236.98 28.5
17 -5 -2 57.59 13.1
-5 -12 -2 92.39 12.8
-5 -12 -2 90.49 14.3
-5 -12 -2 93.09 15.6
-12 17 -2 108.09 18.2
5 12 2 70.49 11.1
12 -17 2 79.99 16.1
-17 5 2 68.89 14.9
-17 5 2 79.49 14.9
-6 -12 -2 45.1 10.6
18 -6 -2 38.9 10.5
-6 -12 -2 50.79 10.3
-12 18 -2 52.49 14
-6 -12 -2 56.49 13
-18 6 2 57.19 13.5
-18 6 2 52.29 13.3
12 -18 2 55.59 13.9
6 12 2 57.29 9.5
-7 -12 -2 8.4 6.5
-12 19 -2 4.6 10.3
19 -7 -2 9.7 7
-7 -12 -2 7.8 7.6
-7 -12 -2 18 10.1
-19 7 2 20.1 8.6
12 -19 2 -3.1 8.3
-19 7 2 7.7 8.9
7 12 2 4.2 5.4
-8 -12 -2 68.49 13.4
-8 -12 -2 90.49 15.7
-12 20 -2 106.29 18.6
20 -8 -2 71.69 14.7
-8 -12 -2 66.49 15.1
-20 8 2 71.79 14.1
-20 8 2 100.99 17.4
8 12 2 77.09 12.9
12 -20 2 87.19 16.9
-9 -12 -2 -5.7 5.6
-9 -12 -2 -2.4 7.1
-12 21 -2 23.5 13.2
21 -9 -2 12.8 8.3
-9 -12 -2 6.7 10.3
12 -21 2 17.4 11.3
-21 9 2 -5.5 6.8
-21 9 2 12.1 9.2
9 12 2 8.9 5.9
-12 22 -2 80.39 18.8
22 -10 -2 86.19 18.3
-10 -12 -2 107.69 17.4
-10 -12 -2 93.79 16.2
-10 -12 -2 104.39 20
10 12 2 69.19 13.3
12 -22 2 115.79 20.3
-22 10 2 106.49 18.8
-22 10 2 100.09 19.3
23 -11 -2 3.9 7.1
-11 -12 -2 4.7 6.9
-11 -12 -2 8.5 11.9
-12 23 -2 -4.8 10.5
-11 -12 -2 -7.9 7.2
11 12 2 4.8 5.7
-23 11 2 3.4 9.3
12 -23 2 0.4 9.7
-23 11 2 -15.2 5.5
-12 -12 -2 61.29 14.8
-12 -12 -2 62.49 16
24 -12 -2 53.99 13.4
-12 -12 -2 44.8 17.1
-12 24 -2 84.19 18.3
-24 12 2 81.79 16.8
-24 12 2 84.59 18.7
12 12 2 66.19 12.5
12 -24 2 72.39 17.2
25 -13 -2 -4.9 6
-13 -12 -2 -5.7 6.4
-13 -12 -2 -12.7 10.6
-12 25 -2 -2.9 11.3
12 -25 2 -0.6 11.8
13 12 2 13 10.5
-13 -11 -2 39.3 12.2
-13 -11 -2 16.7 10.4
-11 24 -2 33 14.7
24 -13 -2 41.8 10.7
11 -24 2 42.6 15.3
13 11 2 24.5 8.6
-24 13 2 30.4 12.7
-13 -10 -2 1.7 7.2
23 -13 -2 6.8 13.6
-10 23 -2 2.9 10.6
-13 -10 -2 -11.2 8.1
-13 -10 -2 -17.3 9.2
-23 13 2 3.9 8.5
13 10 2 8.7 5.8
10 -23 2 -15.4 9
-13 -9 -2 26.6 11
-13 -9 -2 44.9 15.3
-9 22 -2 21.3 13.1
-13 -9 -2 20 10.2
22 -13 -2 36.4 10.9
-22 13 2 28.4 11
9 -22 2 40.7 14.6
13 9 2 18.2 8.5
-13 -8 -2 2.4 9.2
21 -13 -2 0.9 6.5
-13 -8 -2 -7.7 9.7
-13 -8 -2 4.3 7.3
-8 21 -2 -7.8 9.6
13 8 2 2.7 8.6
8 -21 2 7.3 12.4
13 8 2 -0.6 4.8
-21 13 2 4.9 8.4
-13 -7 -2 3.9 9.9
-7 20 -2 2 9.4
-13 -7 -2 2.2 8.5
20 -13 -2 3.3 6.1
-13 -7 -2 8.2 8
13 7 2 9.4 6.1
13 7 2 0.1 7.1
7 -20 2 21.6 12.1
-20 13 2 9.9 9.1
19 -13 -2 1 5.8
-6 19 -2 -1.3 9.4
-13 -6 -2 -11.1 7.3
-13 -6 -2 6 6.9
6 -19 2 3.9 9.9
-19 13 2 4.1 7
13 6 2 14.9 7.7
13 6 2 -12.8 5.3
-13 -5 -2 0.7 6.5
-13 -5 -2 6.4 8.8
18 -13 -2 2.1 5.5
-5 18 -2 -0.1 9
13 5 2 6.9 5.6
13 5 2 3.7 8.1
5 -18 2 1 5.8
-18 13 2 -6 5.7
5 -18 2 5.8 10.5
17 -13 -2 9.4 6.5
-13 -4 -2 2.4 7
-13 -4 -2 0.8 8
-4 17 -2 -2.5 8.9
4 -17 2 6.6 6.9
4 -17 2 -1.7 9.7
13 4 2 -4.3 4.5
13 4 2 9.9 8.5
-17 13 2 -6.6 6
-13 -3 -2 63.89 14
16 -13 -2 68.69 11.5
-3 16 -2 29.5 12.8
-13 -3 -2 48.8 11.9
13 3 2 60.39 12.8
-16 13 2 48.2 10.4
3 -16 2 47 10.3
3 -16 2 52.29 15.3
13 3 2 59.79 11.6
-13 -2 -2 1.8 7.7
-13 -2 -2 -7.5 5.6
15 -13 -2 -3.5 4.8
-2 15 -2 15.1 9.9
13 2 2 -7.2 6.6
2 -15 2 2.7 6.1
2 -15 2 10.8 9.6
13 2 2 -3.8 4.7
-15 13 2 8.9 7.1
-1 14 -2 122.79 19.8
14 -13 -2 82.49 12.9
-13 -1 -2 76.19 21.5
13 1 2 82.39 14
-14 13 2 91.99 13.5
1 -14 2 106.59 19.2
1 -14 2 100.99 14.8
13 1 2 93.59 16.2
0 13 -2 8.7 9.4
13 -13 -2 1.2 4.5
-13 0 -2 -3.8 6.8
0 -13 2 20.1 10.1
0 -13 2 10.4 6.3
13 0 2 0.2 6.8
13 0 2 5.8 6.6
-13 13 2 9.3 6.2
12 -13 -2 44.3 7.5
-13 1 -2 22.3 10.2
1 12 -2 38.2 14.2
-1 -12 2 34.4 9.1
13 -1 2 34.3 9.3
13 -1 2 18.7 6.6
-12 13 2 30.7 7.8
-1 -12 2 45.9 12.6
-13 2 -2 10.3 8.2
11 -13 -2 19.4 5.1
2 11 -2 8.8 8.8
-11 13 2 9.4 5.7
-2 -11 2 15.5 10.2
13 -2 2 5.2 7
13 -2 2 12.2 6.8
-2 -11 2 7.8 6.4
10 -13 -2 93.49 11.2
3 10 -2 93.89 16.4
-13 3 -2 107.69 16.5
13 -3 2 116.89 16
-3 -10 2 105.09 15.2
13 -3 2 86.09 13.8
-10 13 2 90.09 13.1
-3 -10 2 107.39 18.5
9 -13 -2 21.5 4.4
-13 4 -2 14 8.9
-4 -9 2 14.8 9.9
13 -4 2 17.3 7.5
13 -4 2 8.6 5.8
-9 13 2 17.4 6.3
-4 -9 2 19 7.3
-13 5 -2 134.69 18.2
5 8 -2 123.79 16.5
-5 -8 2 115.79 16.1
13 -5 2 111.99 16.6
-8 13 2 109.79 14.5
13 -5 2 119.99 16.1
-5 -8 2 141.69 20.4
-13 6 -2 4.6 6.8
6 7 -2 6.2 6.1
13 -6 2 11.8 6.6
13 -6 2 8.7 5.6
-7 13 2 12.2 6.3
-6 -7 2 2.9 6
-6 -7 2 15.2 9.2
-13 7 -2 9 7.8
7 6 -2 10.4 6.5
-7 -6 2 9.1 8.9
-6 13 2 15 6.7
-7 -6 2 12 5.9
13 -7 2 11.5 6.2
13 -7 2 12.5 7.3
8 5 -2 159.58 18.1
-13 8 -2 128.99 19.3
13 -8 2 133.69 17.7
-8 -5 2 145.69 20.9
-5 13 2 127.69 16.7
-8 -5 2 116.29 16.9
13 -8 2 126.79 16.9
-13 9 -2 28.7 9.7
9 4 -2 21.5 7.7
-4 13 2 23.3 8.1
-9 -4 2 33.9 9.1
13 -9 2 9.5 6.3
-9 -4 2 18.1 7.4
-9 -4 2 7.7 8.8
13 -9 2 32.9 9.1
10 3 -2 147.29 22.2
-13 10 -2 112.99 17.7
-3 13 2 99.59 15.1
-10 -3 2 103.59 15.6
-10 -3 2 100.99 15.6
13 -10 2 99.29 15.7
-13 11 -2 11.7 8.1
2 -13 -2 17.9 5.3
11 2 -2 15.4 7.4
2 -13 -2 17.5 4.7
-2 13 2 -1.2 6
-11 -2 2 12 7.3
-11 -2 2 14.5 6.7
13 -11 2 10.4 7.9
-13 12 -2 28.6 11.8
1 -13 -2 38.9 7.4
12 1 -2 42.7 10.4
1 -13 -2 38.7 6.7
-1 13 2 31.9 9.6
-12 -1 2 38 9.9
13 -12 2 29.5 9.7
-12 -1 2 31.7 10.6
0 -13 -2 9.1 6.4
13 0 -2 20.4 8.3
0 -13 -2 8.9 5
-13 13 -2 7.7 12.4
0 -13 -2 10 4.1
-13 0 2 13.4 7.8
13 -13 2 -1.1 6.5
-13 0 2 7.3 6.9
0 13 2 11.6 7.7
-1 -13 -2 93.49 13.3
14 -1 -2 95.99 16
-1 -13 -2 102.79 12.1
-1 -13 -2 104.19 15.2
-13 14 -2 94.09 17.2
-14 1 2 87.59 16
13 -14 2 150.38 17.8
1 13 2 99.49 16.2
-2 -13 -2 11.5 5.1
-2 -13 -2 5.8 5.8
-2 -13 -2 10.8 10.1
15 -2 -2 -0.1 6.3
-13 15 -2 -10.2 8.5
13 -15 2 -1.9 7.4
-15 2 2 -6.4 6.3
2 13 2 5.3 4.4
-15 2 2 5.9 7.4
-13 16 -2 76.89 15.6
16 -3 -2 62.29 12.3
-3 -13 -2 41 11.1
-3 -13 -2 37.7 8.3
-3 -13 -2 40.9 9.4
-16 3 2 64.29 13.5
13 -16 2 62.19 13.4
3 13 2 65.19 9.2
-16 3 2 51.79 13.3
-4 -13 -2 1.3 6.1
-13 17 -2 14.6 10.3
17 -4 -2 0 5.9
-4 -13 -2 8.1 9.3
-4 -13 -2 4.9 5
-17 4 2 -1.3 7.4
4 13 2 -3.1 4.4
13 -17 2 12.4 8.6
-17 4 2 -0.6 6.6
-5 -13 -2 1.7 8.8
-5 -13 -2 3.9 6.4
18 -5 -2 0.3 6.4
-13 18 -2 -1.1 9.7
-5 -13 -2 -1.7 4.5
13 -18 2 8.8 9.2
5 13 2 10.1 5.5
-18 5 2 18.7 9
-18 5 2 0.6 7.5
-6 -13 -2 15.3 7.4
-6 -13 -2 -3.6 5.5
-6 -13 -2 -4.2 9
-13 19 -2 13.9 10.7
19 -6 -2 -1.9 5.7
6 13 2 -4.8 3.9
13 -19 2 2.2 8.7
-19 6 2 -3.9 6.7
-19 6 2 -8.9 6.9
-7 -13 -2 12.1 8.1
-13 20 -2 23.3 11
20 -7 -2 35.3 9.6
-7 -13 -2 6.4 9.1
-7 -13 -2 4.3 6.4
-20 7 2 0.5 7.3
-20 7 2 3.9 8.6
7 13 2 2.4 5.3
13 -20 2 15.3 10.5
21 -8 -2 5.2 7
-8 -13 -2 -7.7 8.8
-13 21 -2 7.8 10.6
-8 -13 -2 -1 7.5
-8 -13 -2 12.8 8.6
-21 8 2 7.8 6.8
-21 8 2 -0.9 8.2
13 -21 2 1 8.9
8 13 2 12 5.9
-13 22 -2 44.3 14.8
-9 -13 -2 22.7 9.9
22 -9 -2 40.2 11.8
-9 -13 -2 25.4 12.8
-9 -13 -2 35.2 10.5
-22 9 2 53.09 14.1
13 -22 2 44.4 13.6
-22 9 2 27.4 12.9
9 13 2 45.8 9.5
-10 -13 -2 -7 9.9
-13 23 -2 10.9 12.2
-10 -13 -2 4.8 8.3
-10 -13 -2 5.7 7
23 -10 -2 21 9.4
13 -23 2 8.2 10.4
-23 10 2 5.6 9.5
10 13 2 4.4 5
-23 10 2 7.3 7.8
-11 -13 -2 24.3 10.8
24 -11 -2 40 11.2
-13 24 -2 41.7 15.5
-11 -13 -2 20.6 10.1
-11 -13 -2 34.2 15.7
13 -24 2 36 13.6
-24 11 2 30.2 13.7
11 13 2 35.1 9.2
-24 11 2 45.9 12.8
-12 -13 -2 16.6 9.6
25 -12 -2 2.6 7.3
-12 -13 -2 11.1 14.8
-13 25 -2 9.6 11
-12 -13 -2 -1.4 6.2
-25 12 2 -4 7.2
-13 -13 -2 0.7 8.4
26 -13 -2 -3.5 7
-13 -13 -2 6.2 12.8
13 13 2 14.8 7.3
13 -26 2 18.5 11.9
-26 13 2 24.3 13.4
-14 -13 -2 14.7 12.2
-14 -13 -2 11.1 13.9
27 -14 -2 -12.4 5.7
-14 -13 -2 -11.2 9.5
13 -27 2 -3 11.1
-27 14 2 4 11.2
14 13 2 4.4 7.6
-14 -12 -2 39.7 16.5
26 -14 -2 47.5 12.1
-14 -12 -2 27.1 16.3
-26 14 2 30.9 12.9
12 -26 2 39.2 15.3
-14 -11 -2 9.5 13
-11 25 -2 14.6 13
-14 -11 -2 9.6 8.4
25 -14 -2 -0.2 5.9
11 -25 2 -4.7 10.2
-25 14 2 5.9 11.8
14 11 2 -4.7 4.9
-14 -10 -2 42.8 13.2
-14 -10 -2 49.6 14.9
24 -14 -2 55.69 12.4
-10 24 -2 69.69 16.8
-14 -10 -2 4.1 12.7
10 -24 2 57.59 20.5
-24 14 2 86.19 16.9
23 -14 -2 6.2 6.6
-14 -9 -2 17.1 9.7
-14 -9 -2 -6.3 11.8
-9 23 -2 14.2 12.5
-14 -9 -2 7 7.5
-23 14 2 -1.9 8.2
9 -23 2 -17.9 8.7
14 9 2 -0.8 6.4
22 -14 -2 133.29 19.5
-14 -8 -2 91.39 18.5
-8 22 -2 101.09 20.2
-14 -8 -2 123.39 22.1
-14 -8 -2 99.29 19.2
14 8 2 80.59 15.3
-22 14 2 98.29 17.2
8 -22 2 105.49 20.5
-14 -7 -2 -4.6 6.5
-7 21 -2 -10.7 9.1
-14 -7 -2 2.1 10.3
-14 -7 -2 10.4 9.5
21 -14 -2 2.8 7.1
-21 14 2 11.6 9.1
14 7 2 10.9 7.1
7 -21 2 0.2 5.2
7 -21 2 -3.8 9.5
14 7 2 -1.2 7.2
-14 -6 -2 51.89 14.3
-14 -6 -2 61.29 14.3
20 -14 -2 77.89 13.9
-6 20 -2 63.39 16.4
6 -20 2 68.99 16.6
14 6 2 73.99 19.4
14 6 2 85.79 14.8
-20 14 2 85.29 15.3
6 -20 2 57.49 12.7
-14 -5 -2 9.7 7.3
-5 19 -2 21.3 11.9
-14 -5 -2 22.5 10.7
19 -14 -2 17.9 7
5 -19 2 14.1 7.4
5 -19 2 -7.8 9.7
-19 14 2 19.2 8.9
14 5 2 4.1 8.5
14 5 2 29.2 9.7
-14 -4 -2 91.69 16
18 -14 -2 86.59 13.6
-4 18 -2 54.09 15.5
-14 -4 -2 64.69 13.9
14 4 2 79.19 15.1
4 -18 2 83.29 14.8
4 -18 2 55.69 15.3
-18 14 2 72.09 13.6
14 4 2 84.29 14.1
-14 -3 -2 83.79 16
-14 -3 -2 54.89 12.7
17 -14 -2 81.09 12.6
-3 17 -2 79.49 16.9
14 3 2 43.6 10.6
-17 14 2 91.59 13.9
3 -17 2 65.59 15.9
14 3 2 75.09 14.5
3 -17 2 50.29 13.5
-2 16 -2 204.68 28.5
-14 -2 -2 254.97 28.5
16 -14 -2 219.68 23.8
-14 -2 -2 215.58 26.9
14 2 2 238.78 24.9
14 2 2 223.98 26.4
2 -16 2 225.28 26.2
2 -16 2 247.48 29.3
-16 14 2 209.18 24.4
-14 -1 -2 49.1 12.4
-14 -1 -2 37.1 12.3
15 -14 -2 67.79 10
-1 15 -2 35.8 12.4
1 -15 2 41.2 14
-15 14 2 30 9.8
14 1 2 42.4 10.1
1 -15 2 49.99 11.4
14 1 2 49.6 12.1
-14 0 -2 331.27 33.4
0 14 -2 282.47 33.3
14 -14 -2 297.47 29.2
0 -14 2 302.07 31.1
0 -14 2 327.07 34.3
14 0 2 280.17 31.8
-14 14 2 291.37 29.9
14 0 2 314.87 31.1
1 13 -2 67.19 15.6
13 -14 -2 98.39 12.6
-14 1 -2 148.89 19.2
14 -1 2 99.09 16
14 -1 2 105.29 16
-1 -13 2 80.19 14.2
-1 -13 2 106.59 17.9
-13 14 2 87.69 13.6
2 12 -2 316.97 36
-14 2 -2 285.77 39.9
12 -14 -2 384.26 31.6
14 -2 2 348.07 34.1
14 -2 2 335.07 34.6
-2 -12 2 371.76 34.5
-12 14 2 330.67 32.6
-2 -12 2 341.87 36.9
11 -14 -2 77.39 10.2
-14 3 -2 100.89 18.5
-3 -11 2 76.59 13.1
-11 14 2 102.59 13.3
14 -3 2 77.69 12.2
-3 -11 2 57.19 14.7
14 -3 2 67.69 13.4
10 -14 -2 360.56 33.8
-14 4 -2 412.26 39.5
-10 14 2 379.26 35.7
14 -4 2 398.86 38.2
14 -4 2 385.66 37.3
-4 -10 2 367.86 37.2
-4 -10 2 428.96 40.2
-14 5 -2 14.5 9.1
-5 -9 2 31.8 8.2
-5 -9 2 23 11
14 -5 2 9.7 6
14 -5 2 13.6 7.6
-9 14 2 6.6 6.3
-14 6 -2 287.17 29.9
6 8 -2 310.97 28.8
14 -6 2 277.47 28.1
14 -6 2 253.97 28.4
-6 -8 2 231.58 29.8
-6 -8 2 300.47 28.5
-8 14 2 245.98 26.8
-14 7 -2 108.79 15.3
7 7 -2 55.59 11.7
-7 -7 2 86.69 16.1
14 -7 2 57.19 11.3
-7 -7 2 47.9 10.5
-14 8 -2 270.27 30
8 6 -2 286.97 29.2
-8 -6 2 276.87 29.1
-8 -6 2 251.87 28.4
-6 14 2 276.07 27.9
14 -8 2 276.17 28.6
-8 -6 2 280.77 30.7
14 -8 2 303.97 29.4
-14 9 -2 26.1 9.5
9 5 -2 11.6 7.7
14 -9 2 7.6 6.8
-9 -5 2 7.5 7
14 -9 2 20.5 7.7
-9 -5 2 17.2 7.9
-9 -5 2 11.7 8.9
-5 14 2 12 7.4
-14 10 -2 370.36 39.8
10 4 -2 423.46 38.3
-10 -4 2 384.76 37.9
-10 -4 2 372.46 38.7
14 -10 2 353.86 37.5
14 -10 2 391.86 37.6
-10 -4 2 404.16 39.1
-4 14 2 383.46 36.6
11 3 -2 63.69 12.4
-11 -3 2 82.99 15.7
-11 -3 2 92.99 20.3
-3 14 2 92.99 14.2
14 -11 2 83.49 14.8
-14 12 -2 359.36 37.2
2 -14 -2 345.57 32
2 -14 -2 373.46 31.7
12 2 -2 365.26 36
-12 -2 2 388.76 36.5
14 -12 2 315.37 35.5
-2 14 2 363.26 35.1
1 -14 -2 115.79 11.5
-14 13 -2 107.79 18.5
1 -14 -2 89.59 13.7
1 -14 -2 103.69 12.4
13 1 -2 95.09 16
-13 -1 2 105.59 17
-1 14 2 103.19 16.3
-13 -1 2 124.79 17.2
14 -13 2 94.09 16.1
0 -14 -2 313.47 29.3
0 -14 -2 342.47 30.3
-14 14 -2 343.87 35.4
0 -14 -2 317.87 31.1
14 0 -2 341.77 34.3
-14 0 2 304.17 33.6
14 -14 2 339.87 33.8
0 14 2 338.27 33.4
-14 0 2 294.57 33.8
-1 -14 -2 45 9.2
15 -1 -2 40.9 11
-14 15 -2 48.5 13.6
-1 -14 -2 52.69 8.4
-1 -14 -2 49 10.9
-15 1 2 45.5 12.7
1 14 2 60.99 12.7
-15 1 2 43.2 11.7
14 -15 2 47.2 11.7
-2 -14 -2 210.28 23.2
-14 16 -2 272.87 29.6
-2 -14 -2 216.08 26.1
-2 -14 -2 211.98 22
16 -2 -2 234.38 26.7
-16 2 2 203.88 26.3
-16 2 2 217.68 26.9
14 -16 2 253.57 27.5
-3 -14 -2 67.99 11
-3 -14 -2 75.09 12.5
-14 17 -2 82.79 17.5
-3 -14 -2 59.29 13.2
17 -3 -2 78.39 15.4
14 -17 2 91.79 16.3
-17 3 2 85.69 15.7
-17 3 2 57.29 14.5
3 14 2 83.79 14
-4 -14 -2 85.59 15.2
-14 18 -2 100.89 19.3
-4 -14 -2 80.79 13.2
18 -4 -2 69.79 14.4
-4 -14 -2 75.59 12.5
-18 4 2 76.19 16
4 14 2 86.49 11.9
-18 4 2 69.69 13.9
14 -18 2 97.19 16.7
-5 -14 -2 2.2 6.6
19 -5 -2 10.1 7.2
-5 -14 -2 15.4 9.5
-5 -14 -2 16.3 6.7
-14 19 -2 27.2 13.2
5 14 2 25.7 7
14 -19 2 7.5 9.1
-19 5 2 8.1 8.3
-19 5 2 11.2 9.5
20 -6 -2 50.39 12.6
-6 -14 -2 59.49 13.8
-14 20 -2 90.79 19.4
-6 -14 -2 65.19 12.4
14 -20 2 78.29 16.1
-20 6 2 70.69 15.4
-20 6 2 54.39 15.2
6 14 2 58.19 11.1
-7 -14 -2 3.7 8.6
-7 -14 -2 0.3 6
-7 -14 -2 16.9 9
21 -7 -2 -2.1 11.3
-14 21 -2 4.2 10.2
7 14 2 9.3 5.9
-21 7 2 0.7 6.1
14 -21 2 3.1 9.6
-21 7 2 6.7 8.4
-14 22 -2 111.59 21.2
22 -8 -2 92.49 16.4
-8 -14 -2 98.99 17.3
-8 -14 -2 89.99 15.9
-8 -14 -2 117.19 20.3
-22 8 2 110.69 19.3
-22 8 2 76.69 17.6
14 -22 2 96.29 18.8
8 14 2 82.59 14.5
-9 -14 -2 -3.1 10.5
-9 -14 -2 -2.4 6
23 -9 -2 6.4 8.6
-14 23 -2 10.8 12.6
-9 -14 -2 20.2 10.3
-23 9 2 -14.2 8.1
14 -23 2 17.4 11.6
-23 9 2 4.1 8.2
-10 -14 -2 48.8 11.6
-14 24 -2 52.79 16.2
24 -10 -2 56.59 13.4
-10 -14 -2 49.4 16.9
-10 -14 -2 51.79 13.5
14 -24 2 63.79 15.5
-24 10 2 63.89 16.4
10 14 2 56.09 12.3
-11 -14 -2 2.1 6.5
-11 -14 -2 8.4 14
-11 -14 -2 -1.9 7.8
-14 25 -2 8.1 11.7
25 -11 -2 1.5 7.4
11 14 2 -1 5.3
-25 11 2 2.4 10.4
-25 11 2 -1.3 8.4
-12 -14 -2 45.3 12.5
-12 -14 -2 35.8 16.8
26 -12 -2 40.4 12.3
14 -26 2 49.2 15.2
-26 12 2 47.6 15.8
-26 12 2 42 14.3
12 14 2 52.49 14.4
27 -13 -2 -4.5 7.1
-13 -14 -2 -0.9 18.2
-13 -14 -2 -0.6 12.1
-27 13 2 -10.4 13
14 -27 2 -6.7 10.3
13 14 2 6.9 7.3
-14 -14 -2 -3.3 12.6
-14 -14 -2 2.9 13.3
-14 -14 -2 14.3 10.4
28 -14 -2 21.4 10.2
14 -28 2 30 15.6
14 14 2 7.7 6.9
-15 -14 -2 -6.6 15.2
29 -15 -2 -0.6 8.7
-15 -14 -2 13 16.7
-15 -14 -2 1 10.4
14 -29 2 0.8 11.7
15 14 2 10 7.7
-15 -13 -2 3.7 9.4
-15 -13 -2 1 15.3
28 -15 -2 0.4 8
-15 -13 -2 3.6 12.3
13 -28 2 2.5 10.9
15 13 2 -4.7 6.3
-15 -12 -2 -4.4 11.4
-15 -12 -2 -4.9 12.8
27 -15 -2 -0.3 6.5
-15 -12 -2 6.2 9.7
12 -27 2 1.8 13
-27 15 2 8.3 11.6
12 -27 2 13.5 7.6
15 12 2 -4.4 5.3
26 -15 -2 7.2 8.8
-15 -11 -2 8.9 13.6
-15 -11 -2 26.9 12.4
11 -26 2 1.9 7.2
11 -26 2 29.1 15.6
15 11 2 -2.9 4.8
-26 15 2 21.3 11.1
-10 25 -2 -10.8 9.8
-15 -10 -2 0.7 11.7
25 -15 -2 1.3 6
10 -25 2 -4.6 9.9
10 -25 2 9.5 6.9
15 10 2 -2.8 4.6
-25 15 2 -9.1 8.8
24 -15 -2 15.2 8.6
-15 -9 -2 24.8 13.3
-9 24 -2 29.9 12.9
-15 -9 -2 25.1 10.2
-24 15 2 14.7 9.9
9 -24 2 4.6 7.9
15 9 2 16.8 9
-15 -8 -2 -10 11.7
23 -15 -2 -3.4 6
-15 -8 -2 32.9 11.7
-15 -8 -2 -2.8 7.9
8 -23 2 7.5 7
8 -23 2 -3.5 9.9
-23 15 2 9.9 9.1
-15 -7 -2 18.5 14.1
-15 -7 -2 5.2 9.8
-7 22 -2 60.09 16.8
22 -15 -2 42.6 11.4
-15 -7 -2 23.7 10.5
15 7 2 21.9 11.1
-22 15 2 39.6 12.3
7 -22 2 18.9 13.6
15 7 2 39.2 10.8
7 -22 2 19 9.1
-15 -6 -2 5.6 7.2
21 -15 -2 -2.7 4.7
-6 21 -2 7.8 10.8
-15 -6 -2 19.8 10.3
15 6 2 17.5 7.6
6 -21 2 18.6 8
-21 15 2 0.4 8
15 6 2 13.2 9.4
6 -21 2 -3.2 10.4
-15 -5 -2 35.8 11.4
-15 -5 -2 -4.2 6.7
20 -15 -2 18.8 7.6
-5 20 -2 17.3 11.4
15 5 2 23.3 8.4
-20 15 2 6.2 8.5
5 -20 2 14.1 12.3
15 5 2 6 10.3
5 -20 2 21.5 9.1
-4 19 -2 20.6 10.5
-15 -4 -2 -6.5 8.5
19 -15 -2 7 5.7
-15 -4 -2 0.5 7.4
15 4 2 4.4 8.2
4 -19 2 -6.9 4.9
15 4 2 1.4 5.9
-19 15 2 0.5 7.2
4 -19 2 -0.4 10.6
-15 -3 -2 27.2 11.7
-15 -3 -2 24.3 10.5
-3 18 -2 22 12.3
18 -15 -2 35.3 8.7
15 3 2 26.7 10.4
3 -18 2 17.8 12.4
-18 15 2 23.6 9.4
3 -18 2 37.5 9.9
15 3 2 28.7 8.9
-15 -2 -2 14.8 9.7
-2 17 -2 6.3 11.1
17 -15 -2 6.9 5.4
-15 -2 -2 -1.1 6.3
-17 15 2 7 6.9
15 2 2 -0.2 7.3
2 -17 2 -12.7 9.5
2 -17 2 -9.9 5.3
15 2 2 3.7 6.1
-15 -1 -2 119.89 18
-15 -1 -2 78.29 16.5
16 -15 -2 82.29 12.8
-1 16 -2 84.39 16.8
1 -16 2 95.69 15.3
1 -16 2 74.09 17.9
15 1 2 105.79 17.6
-16 15 2 83.89 14.1
15 1 2 81.09 15.4
-15 0 -2 8 9
0 15 -2 -5 7.9
15 -15 -2 8.3 5.2
0 -15 2 13.6 10.6
15 0 2 1.3 5.8
15 0 2 4.5 7.2
-15 15 2 -7.2 5.3
1 14 -2 42.1 13
-15 1 -2 42.7 12.1
-1 -14 2 47 12.1
-1 -14 2 30.6 12.8
15 -1 2 61.99 12.5
-14 15 2 22.7 9.1
15 -1 2 35.9 10.9
2 13 -2 3.8 8.6
13 -15 -2 -0.1 4.1
-15 2 -2 7.2 8.2
-2 -13 2 13.1 11.1
15 -2 2 3.1 6.5
-13 15 2 -0.7 6.5
15 -2 2 2 7.1
-2 -13 2 2.8 6.3
3 12 -2 99.39 16.8
12 -15 -2 89.39 10.9
-15 3 -2 93.39 15.6
-3 -12 2 42.5 11
-12 15 2 69.79 12.4
-3 -12 2 81.19 16.7
15 -3 2 81.99 14.4
15 -3 2 70.79 13.5
11 -15 -2 -2.7 3.2
-15 4 -2 5.9 7.8
-4 -11 2 6 5.6
-11 15 2 4.2 6
15 -4 2 -3.9 5
-4 -11 2 4.6 9.6
15 -4 2 -7.3 6.4
10 -15 -2 115.89 12.2
-15 5 -2 112.49 18.6
15 -5 2 114.89 16.1
-5 -10 2 120.59 19.7
15 -5 2 118.79 17.6
-10 15 2 113.09 15.7
-5 -10 2 126.69 18.1
6 9 -2 10.1 6.8
-15 6 -2 6.9 8
15 -6 2 3.1 5.2
-9 15 2 1.2 6.7
-6 -9 2 4.2 6
15 -6 2 -0.4 6.5
-6 -9 2 -0.4 8.5
-15 7 -2 35.7 11
7 8 -2 43 10.4
-7 -8 2 69.19 12.8
15 -7 2 39.4 10.1
-8 15 2 17.7 8.7
15 -7 2 30.9 9.3
-7 -8 2 38.5 12.7
-15 8 -2 14.9 9.2
8 7 -2 48.6 9.9
15 -8 2 33.2 9.1
15 -8 2 40.3 10
-7 15 2 37.7 9.7
-8 -7 2 27.8 9.3
-8 -7 2 16.7 10.1
9 6 -2 11.1 6.9
-15 9 -2 6.1 8.1
15 -9 2 1 6.6
-9 -6 2 0 9.2
-6 15 2 -1.9 6.8
15 -9 2 -7.5 4.9
-9 -6 2 15.9 7.6
-9 -6 2 10.2 7.1
-15 10 -2 127.89 19.9
10 5 -2 133.79 17.9
-10 -5 2 116.09 19.3
-5 15 2 117.49 16.7
15 -10 2 97.89 16.5
15 -10 2 98.09 16.2
-10 -5 2 105.69 17.5
-10 -5 2 133.29 17.7
-15 11 -2 19.5 9.5
11 4 -2 -3.2 5.8
-4 15 2 -3.9 6.7
15 -11 2 8.6 6.7
-11 -4 2 2.9 5.9
15 -11 2 4.6 7.3
-11 -4 2 -1.7 6.7
3 -15 -2 72.19 9.8
3 -15 -2 65.79 9.4
-15 12 -2 62.99 14.3
12 3 -2 101.79 17.6
15 -12 2 79.99 14.4
-12 -3 2 73.59 14.5
15 -12 2 65.79 13.1
-3 15 2 64.79 12.9
-12 -3 2 95.99 15.1
-15 13 -2 23.4 9.9
13 2 -2 1.3 5.7
2 -15 -2 13.5 5.8
2 -15 -2 7.5 4.4
-2 15 2 -13.7 5.9
-13 -2 2 -1.1 6.7
15 -13 2 -3.2 7.2
-13 -2 2 12.9 6.9
1 -15 -2 51.49 9.1
-15 14 -2 38.3 13.2
1 -15 -2 33.4 6.2
1 -15 -2 43.7 7.5
14 1 -2 31.6 9.6
15 -14 2 19.1 10
-1 15 2 34.6 11
-14 -1 2 43.2 12
-14 -1 2 39.5 12
0 -15 -2 3.5 5.2
-15 15 -2 -21.2 7.1
15 0 -2 -9.3 5
0 -15 -2 1.3 6.4
0 -15 -2 -0.7 3.4
-15 0 2 2.4 6.4
0 15 2 -12.8 5.9
-15 0 2 6.8 7.9
15 -15 2 9.7 8.1
-15 16 -2 118.29 19.6
-1 -15 -2 84.49 11.9
-1 -15 -2 94.39 13.5
16 -1 -2 102.29 17.1
-16 1 2 73.89 15.8
-16 1 2 96.29 17.8
15 -16 2 104.69 17.2
-2 -15 -2 0.7 6.1
-2 -15 -2 12.6 8.7
-2 -15 -2 8.3 5
17 -2 -2 -6.2 5.3
-15 17 -2 8.2 10.8
15 -17 2 -4.4 7.5
-17 2 2 6.4 7.5
-17 2 2 -3.7 7.8
-3 -15 -2 24 8.1
-3 -15 -2 40.8 8.1
-3 -15 -2 13.4 9.1
18 -3 -2 22.4 9.7
-15 18 -2 17.3 12.1
-18 3 2 45.8 12.1
15 -18 2 40.6 12
-18 3 2 35.6 11.7
-4 -15 -2 1.6 5
-15 19 -2 10 10.5
-4 -15 -2 -0.9 6.2
-4 -15 -2 5.5 8.1
19 -4 -2 -9.8 5
4 15 2 1 4.7
-19 4 2 -2.6 8.2
15 -19 2 4.1 9.3
-19 4 2 -2.6 6.1
-5 -15 -2 16.7 7.2
-5 -15 -2 12.1 7.9
20 -5 -2 7.4 7.9
-15 20 -2 26.9 13.6
-5 -15 -2 9.9 9.7
-20 5 2 15.3 10.6
15 -20 2 12.1 10.9
-20 5 2 17.6 8.6
5 15 2 13 6
21 -6 -2 -3.8 6.3
-6 -15 -2 5.3 7.7
-6 -15 -2 -0.4 5.8
-15 21 -2 -6 9
-6 -15 -2 -13.6 8.6
15 -21 2 1.6 9.2
-21 6 2 3.4 7.6
6 15 2 0.4 4.5
-21 6 2 -3.2 8
-7 -15 -2 23.5 9.7
-7 -15 -2 47.7 13.1
-7 -15 -2 34.2 13.2
22 -7 -2 25 10.7
-15 22 -2 34.1 14.4
7 15 2 28.2 7.9
-22 7 2 17.3 9.5
-22 7 2 39.2 13
15 -22 2 50.09 13.4
23 -8 -2 -5.9 6.1
-8 -15 -2 -3.8 8
-8 -15 -2 4 10.1
-8 -15 -2 -3.5 5.8
-15 23 -2 0.3 19.8
8 15 2 6.9 5.9
15 -23 2 9.7 10
-23 8 2 5.6 9.2
-23 8 2 -1.5 7.7
24 -9 -2 11.2 9.1
-9 -15 -2 9.7 7.3
-9 -15 -2 21 9.8
-15 24 -2 56.89 16.5
-9 -15 -2 10.2 11.7
9 15 2 12.2 7.5
-24 9 2 10.8 9.8
15 -24 2 24 12.3
-24 9 2 23.7 16
-15 25 -2 12.4 12.9
25 -10 -2 4.5 7
-10 -15 -2 -8 10.6
-10 -15 -2 8.4 7.9
-10 -15 -2 7.1 8.8
-25 10 2 0.1 9.9
-25 10 2 8.5 9.9
10 15 2 14 7.4
26 -11 -2 7.7 8.6
-11 -15 -2 13.3 8.7
-11 -15 -2 15.3 13.8
-11 -15 -2 18.6 13.6
-26 11 2 -3.4 10.2
15 -26 2 7.4 10.5
-26 11 2 21.6 10.4
11 15 2 13.3 8.3
-12 -15 -2 -1.2 13.3
27 -12 -2 2.3 7.6
12 15 2 13.9 7.2
15 -27 2 -5.1 10.8
-13 -15 -2 -0.6 11.2
28 -13 -2 14.7 9.8
-13 -15 -2 2.9 14
15 -28 2 13.3 13.3
13 15 2 2.2 6.7
-14 -15 -2 -22.9 14.4
-14 -15 -2 -2.8 9
-14 -15 -2 -12.2 11.6
29 -14 -2 11.9 10
14 15 2 -9.1 5.9
15 -29 2 18.9 13.4
29 -16 -2 -9.6 7.8
-16 -13 -2 2.4 17.8
-16 -13 -2 7.5 10
13 -29 2 -8.6 11.5
16 13 2 1.3 6.9
-16 -12 -2 23.1 14.4
-16 -12 -2 5.2 9.6
28 -16 -2 10.1 9.1
-16 -12 -2 24.7 19.3
12 -28 2 33.5 16.3
16 12 2 13.6 8.6
-16 -11 -2 -5.4 10.5
27 -16 -2 -7.3 6.4
-16 -11 -2 -3.4 9.3
-16 -11 -2 10.4 14.4
16 11 2 -10.3 5
11 -27 2 -3.1 11.4
-27 16 2 -11.4 9.6
11 -27 2 7.9 6.9
-16 -10 -2 33.2 14.2
26 -16 -2 20.2 8.8
-16 -10 -2 3.6 14.6
-16 -10 -2 44.9 14.7
16 10 2 7.7 6.6
10 -26 2 2.5 12.1
10 -26 2 27.6 9.6
-26 16 2 31.3 13.3
25 -16 -2 0.6 6.8
-16 -9 -2 -2.6 12.1
-9 25 -2 -9.6 10.6
-25 16 2 5.8 10
9 -25 2 12.6 12.6
16 9 2 -0.2 5.9
9 -25 2 9 7.7
-16 -8 -2 44.5 15.9
24 -16 -2 43.4 12.9
-8 24 -2 81.39 18.5
16 8 2 67.69 13.9
-24 16 2 40.4 13.8
8 -24 2 54.69 11.6
8 -24 2 41.3 17.3
-16 -7 -2 6 8.8
23 -16 -2 12.4 7
-16 -7 -2 -3.2 10.8
-7 23 -2 -8.8 11.9
7 -23 2 -3.3 13.4
16 7 2 3.6 6.5
-23 16 2 7.4 9.3
7 -23 2 2.7 6.4
-16 -6 -2 120.99 19.5
-6 22 -2 82.59 18.7
22 -16 -2 91.89 15.9
-16 -6 -2 95.09 18.7
-16 -6 -2 87.49 19.2
16 6 2 95.49 17.8
6 -22 2 90.19 14.8
6 -22 2 87.19 18.9
16 6 2 62.09 19.9
-22 16 2 102.09 18.8
21 -16 -2 3.8 6.5
-5 21 -2 -9.7 8.8
-16 -5 -2 5 9.6
-16 -5 -2 13.4 9.5
5 -21 2 3.7 6.8
16 5 2 6.5 6.4
16 5 2 9.4 8.8
-21 16 2 7.3 9.2
5 -21 2 13.2 12.5
-16 -4 -2 94.69 16.9
-4 20 -2 83.69 18.9
-16 -4 -2 92.79 18.4
20 -16 -2 97.79 15.9
-20 16 2 104.69 17
16 4 2 87.29 15.2
16 4 2 107.49 18.7
4 -20 2 105.99 16.7
4 -20 2 129.99 23.4
-16 -3 -2 2.6 9
-3 19 -2 11.7 10
-16 -3 -2 7.7 7.7
19 -16 -2 -0.5 5.3
3 -19 2 3 10.9
-19 16 2 11.9 8.3
16 3 2 26.8 15.8
16 3 2 25.6 8.3
3 -19 2 7 6.8
18 -16 -2 122.29 15.7
-2 18 -2 80.19 18.2
-16 -2 -2 119.79 20.4
-16 -2 -2 94.99 16.5
16 2 2 122.89 18.9
16 2 2 104.89 16.7
2 -18 2 76.09 18.8
-18 16 2 92.79 23.6
2 -18 2 131.19 18.2
-16 -1 -2 64.09 13.1
-1 17 -2 47.2 13.9
-16 -1 -2 47.6 13.7
17 -16 -2 64.29 10.5
1 -17 2 40.5 10.9
1 -17 2 81.69 17.5
-17 16 2 35.8 11
16 1 2 49.9 12.3
16 1 2 72.29 14.9
-16 0 -2 230.58 27.5
16 -16 -2 221.38 22
0 16 -2 208.68 27.2
16 0 2 204.48 23.7
0 -16 2 179.28 27.1
0 -16 2 201.08 23.8
16 0 2 189.18 24.9
-16 16 2 174.48 23.1
15 -16 -2 86.79 12.8
-16 1 -2 82.49 16.9
1 15 -2 80.49 17.8
-1 -15 2 62.29 18
16 -1 2 76.29 14.6
-1 -15 2 118.39 16.1
16 -1 2 96.19 16
-15 16 2 83.59 14.3
14 -16 -2 228.28 22.1
-16 2 -2 192.48 26.5
2 14 -2 233.48 27.6
16 -2 2 216.08 25.7
-14 16 2 218.88 24.1
16 -2 2 198.08 24.3
-2 -14 2 231.68 28.9
-2 -14 2 199.68 24.6
13 -16 -2 51.19 8.3
3 13 -2 33.6 11.6
-16 3 -2 60.89 13.6
16 -3 2 31.8 9.2
-3 -13 2 70.69 13.5
16 -3 2 45.3 12.4
-13 16 2 53.39 11.2
-3 -13 2 36.7 13.4
-16 4 -2 238.68 28.6
12 -16 -2 246.48 22.8
-12 16 2 245.98 25.7
-4 -12 2 243.28 26.8
-4 -12 2 196.48 29.3
16 -4 2 282.97 27.8
16 -4 2 223.28 26.3
-16 5 -2 42.8 12.6
11 -16 -2 42.3 6.8
-5 -11 2 51.99 11.7
16 -5 2 26.8 9.4
16 -5 2 40.9 10.6
-11 16 2 36 9.9
-5 -11 2 50.89 13.8
-16 6 -2 193.58 25.7
16 -6 2 210.38 23.9
-10 16 2 209.08 23.7
-6 -10 2 238.08 27.4
-6 -10 2 204.08 24.1
16 -6 2 220.48 25
7 9 -2 1.1 5.9
-16 7 -2 15.1 8.9
-9 16 2 10.6 8
16 -7 2 17.1 8
-7 -9 2 11.7 10.4
16 -7 2 12.3 8.2
-7 -9 2 17.6 6.8
-16 8 -2 224.08 27.7
8 8 -2 259.57 27.1
-8 16 2 258.67 26.3
-8 -8 2 187.68 28.5
-8 -8 2 249.88 27
16 -8 2 249.88 26.8
-8 -8 2 242.38 26.7
16 -8 2 251.17 26.7
-16 9 -2 9.3 8.6
9 7 -2 19.8 9.3
-9 -7 2 21.9 11.2
16 -9 2 15 8.3
16 -9 2 13.1 8
-7 16 2 28.5 9.5
-9 -7 2 13.3 7.5
-9 -7 2 20.6 8.4
-16 10 -2 170.28 25.9
10 6 -2 229.98 25.3
-6 16 2 233.98 24.6
-10 -6 2 206.18 27.1
16 -10 2 216.18 25.1
-10 -6 2 250.07 25.5
16 -10 2 199.38 24.4
-10 -6 2 234.48 25.9
-16 11 -2 64.99 13.3
11 5 -2 39.4 10.5
-11 -5 2 26.3 12.4
16 -11 2 50.69 11.3
-11 -5 2 59.59 12.3
-11 -5 2 41.1 10.6
16 -11 2 37.4 10.2
-5 16 2 46.6 11.1
12 4 -2 242.98 27.3
-16 12 -2 238.08 28.4
-12 -4 2 242.98 27.4
-12 -4 2 253.37 27.4
-4 16 2 233.78 26.8
16 -12 2 243.18 26.5
16 -12 2 219.58 26.7
-16 13 -2 50.19 13
3 -16 -2 44.2 7.6
13 3 -2 22.6 9
3 -16 -2 55.49 7.7
-13 -3 2 50.49 12.4
16 -13 2 57.49 12.2
-3 16 2 31.1 10.8
-13 -3 2 65.49 12.6
16 -13 2 48.4 11.9
-16 14 -2 197.18 27.4
14 2 -2 218.28 25.8
2 -16 -2 209.08 21.9
2 -16 -2 231.48 21.2
16 -14 2 252.67 26.3
-14 -2 2 184.98 25.9
-2 16 2 209.08 25.6
-14 -2 2 232.98 26.5
16 -14 2 226.88 25.3
1 -16 -2 98.79 10.5
-16 15 -2 91.09 17.7
1 -16 -2 80.09 12.5
15 1 -2 69.19 13.9
1 -16 -2 73.99 11.5
16 -15 2 81.09 15.1
-1 16 2 93.69 15.6
-15 -1 2 93.79 17.2
-15 -1 2 77.89 15.6
-16 16 -2 228.68 27.7
0 -16 -2 199.38 20.7
16 0 -2 188.68 24.6
0 -16 -2 204.88 19.5
0 -16 -2 192.58 22.7
16 -16 2 231.48 25.3
-16 0 2 151.68 24.1
-16 0 2 163.68 24.7
0 16 2 197.98 34
-1 -16 -2 48.4 10
-1 -16 -2 59.89 9.1
-1 -16 -2 52.39 12.4
17 -1 -2 87.09 15.2
-16 17 -2 30.4 13.7
1 16 2 49.5 12.6
16 -17 2 77.89 15.1
-17 1 2 63.79 13.3
-17 1 2 32.1 12.8
-16 18 -2 114.09 20.7
-2 -16 -2 112.29 17.1
18 -2 -2 138.29 20.7
-2 -16 -2 102.09 14
-2 -16 -2 117.39 15.9
-18 2 2 115.19 20.6
-18 2 2 114.19 19.8
16 -18 2 145.79 20.7
-16 19 -2 21.7 11.2
-3 -16 -2 22 7.7
19 -3 -2 5.5 7.4
-3 -16 -2 -7 7.5
-3 -16 -2 -3.5 4.7
-19 3 2 11.1 8.9
-19 3 2 7.1 8
16 -19 2 5.4 9.3
20 -4 -2 112.29 20
-4 -16 -2 96.29 15.6
-4 -16 -2 95.09 14.8
-4 -16 -2 102.19 16.9
-16 20 -2 101.09 19.8
-20 4 2 93.39 18.6
-20 4 2 114.69 19.9
16 -20 2 118.59 19.5
-5 -16 -2 10.2 12.3
21 -5 -2 12.3 8.5
-16 21 -2 5.1 12.1
-5 -16 -2 5.5 6.1
-5 -16 -2 2.2 9.1
5 16 2 21.8 6.9
-21 5 2 7.6 8.3
-21 5 2 12.4 10.3
16 -21 2 1.4 9.3
-6 -16 -2 108.19 16.2
22 -6 -2 95.09 18.3
-6 -16 -2 95.49 17.8
-6 -16 -2 98.09 16.7
-16 22 -2 98.49 20.9
6 16 2 96.29 14.9
16 -22 2 116.79 19.4
-22 6 2 91.09 19.5
-22 6 2 116.69 20.6
-7 -16 -2 -3.5 10.3
-7 -16 -2 15.3 7.5
-7 -16 -2 13.1 8.9
23 -7 -2 9.9 8.4
16 -23 2 -0.7 9.2
-23 7 2 14.6 10.1
7 16 2 -0.7 5.1
-8 -16 -2 63.69 13.9
-8 -16 -2 52.09 16.2
-16 24 -2 72.59 19
24 -8 -2 62.49 14.9
-8 -16 -2 65.29 13.5
16 -24 2 47.8 15.6
-24 8 2 80.69 17.7
8 16 2 54.09 11.4
-24 8 2 66.29 19.5
25 -9 -2 -3.1 6.5
-9 -16 -2 10.9 9.9
-16 25 -2 19.4 13.5
-9 -16 -2 12.7 12.4
-9 -16 -2 9.4 8.1
9 16 2 -2 5.6
-25 9 2 2 8.6
-25 9 2 -5.5 10.1
26 -10 -2 34.2 10.4
-10 -16 -2 17.9 10.7
-10 -16 -2 34.3 11.2
16 -26 2 35.9 14.4
-26 10 2 34.5 13.8
10 16 2 19.6 8.5
-26 10 2 5.3 9.4
-11 -16 -2 25.7 8.3
27 -11 -2 9.6 9.1
-11 -16 -2 -5.7 12.4
11 16 2 -2.1 5.9
16 -27 2 -10.6 10.3
28 -12 -2 9.8 10.3
-12 -16 -2 11 12
-12 -16 -2 21.3 15.3
12 16 2 12.9 7.2
16 -28 2 15.2 14
-13 -16 -2 0.2 9.7
-13 -16 -2 -11.9 12
-13 -16 -2 -3.7 12.9
29 -13 -2 -8.9 7.4
13 16 2 -4.4 5
16 -29 2 -10.2 12.6
29 -17 -2 -4.9 6.6
12 -29 2 -6.9 11.6
17 12 2 -6.9 5.3
-17 -11 -2 3.3 9.4
-17 -11 -2 7.2 20.1
28 -17 -2 11.4 7.4
17 11 2 1.1 8.3
11 -28 2 -0.5 12.4
-17 -10 -2 2.2 14.4
-17 -10 -2 3.7 9.1
27 -17 -2 4 7
-17 -10 -2 7.6 12
-27 17 2 16.1 11.8
10 -27 2 -4.4 10.7
10 -27 2 9.9 7
17 10 2 9 6.8
-17 -9 -2 24.2 12.6
-17 -9 -2 -0.5 13.1
26 -17 -2 13.3 7.6
-17 -9 -2 23.5 11
9 -26 2 9.8 8.6
17 9 2 17.4 8.3
9 -26 2 6 13
-26 17 2 14.6 12
25 -17 -2 -7.3 6
-17 -8 -2 7.3 10.5
-17 -8 -2 -7.4 9.8
-8 25 -2 12.5 14.5
-17 -8 -2 2.8 11.8
-25 17 2 -8.6 9.1
8 -25 2 -7.5 6.2
17 8 2 0.6 6.3
8 -25 2 -6.6 10.7
24 -17 -2 24.9 16
-7 24 -2 26.2 14.8
-17 -7 -2 57.49 18.4
-24 17 2 30 12.6
17 7 2 47.8 11.7
7 -24 2 46 16.3
7 -24 2 28.1 9.7
-17 -6 -2 3 11.7
23 -17 -2 2.6 5.7
-6 23 -2 -11.7 9.5
-23 17 2 4.5 8.3
17 6 2 2.1 5.7
17 6 2 -4.8 8.7
6 -23 2 -0.7 5.8
6 -23 2 -3.2 12.7
-17 -5 -2 65.29 15.9
22 -17 -2 68.89 13.3
5 -22 2 64.49 13.2
17 5 2 78.69 16.3
5 -22 2 67.79 21.5
17 5 2 75.49 14.4
-22 17 2 74.19 15.9
-17 -4 -2 -7.1 7.6
-4 21 -2 -7.9 9.1
21 -17 -2 -5.6 4.9
-17 -4 -2 3.3 6.8
17 4 2 -1.5 7.1
4 -21 2 6.5 11.9
-21 17 2 -3.9 7.7
4 -21 2 -0.4 6.2
17 4 2 -1.4 6.8
-17 -3 -2 58.49 15.7
-3 20 -2 80.89 18.1
-17 -3 -2 63.39 16.2
20 -17 -2 63.59 11.9
17 3 2 60.09 15
3 -20 2 55.89 13.2
17 3 2 61.99 13.4
3 -20 2 64.49 18.2
-20 17 2 48.3 13.2
-2 19 -2 -0.3 8.8
19 -17 -2 -3.1 4.7
-17 -2 -2 -3.3 7.5
-17 -2 -2 -5.7 8.2
17 2 2 2.3 5.9
2 -19 2 -1.7 10.9
17 2 2 0.5 7.4
-19 17 2 -1.9 6.5
2 -19 2 -6.1 5.8
-17 -1 -2 90.19 18.8
-1 18 -2 78.99 17.6
18 -17 -2 72.19 12.1
-17 -1 -2 68.09 16.2
-18 17 2 95.09 23
1 -18 2 93.59 14.5
17 1 2 58.29 12.8
1 -18 2 92.79 19
17 1 2 76.89 16.3
17 -17 -2 45.3 9.3
0 17 -2 41.8 13.5
-17 0 -2 58.49 14.3
-17 17 2 35.2 10.9
0 -17 2 20.6 13.2
0 -17 2 29.3 10
17 0 2 56.49 11.6
17 0 2 52.89 12.9
16 -17 -2 48.3 9.4
1 16 -2 50.99 14.8
-17 1 -2 29.9 12.1
17 -1 2 64.69 14
17 -1 2 61.19 12.4
-16 17 2 45.3 12.2
-1 -16 2 53.59 12.1
-1 -16 2 76.49 17.1
15 -17 -2 11.6 5.3
-17 2 -2 4.8 9.6
2 15 -2 9.7 9.9
-15 17 2 3.3 7.5
-2 -15 2 13.2 7.5
17 -2 2 3 8
17 -2 2 12 6.6
-2 -15 2 10.8 11.3
14 -17 -2 72.19 10.3
-17 3 -2 70.99 15.4
3 14 -2 62.59 15.8
17 -3 2 56.19 13.3
-3 -14 2 48.5 16
17 -3 2 66.39 13.8
-3 -14 2 67.19 12.8
-14 17 2 88.39 14.3
-17 4 -2 28.3 10.9
13 -17 -2 0.1 3.7
-13 17 2 2 6.8
-4 -13 2 -13.7 8.5
-4 -13 2 2.8 6.4
17 -4 2 1.1 5.9
17 -4 2 14.2 8.9
12 -17 -2 68.69 9.5
-17 5 -2 63.19 15
-5 -12 2 56.99 15.8
-12 17 2 90.29 14.1
17 -5 2 48.1 11.3
17 -5 2 76.09 14.5
-5 -12 2 106.29 16.2
-17 6 -2 -5.1 7.5
11 -17 -2 2.2 3.2
17 -6 2 14.9 7.5
-6 -11 2 -22.7 7.6
-11 17 2 8.9 7.8
-6 -11 2 -7.5 5.1
17 -6 2 12.8 7.2
7 10 -2 29.8 10.4
-17 7 -2 67.29 14.3
17 -7 2 44.2 9.9
-7 -10 2 43.2 11.2
17 -7 2 51.69 12.4
-7 -10 2 36.2 11
-10 17 2 62.99 12.3
-7 -10 2 51.99 15.7
-17 8 -2 31.1 11.3
8 9 -2 30 10.9
-8 -9 2 33 9.4
-8 -9 2 41.1 14.2
17 -8 2 39.7 10.2
17 -8 2 35.2 10.7
-9 17 2 44.9 11.1
-17 9 -2 34.6 11.6
9 8 -2 33.2 10.7
-9 -8 2 68.19 16.1
-9 -8 2 28.5 9.4
17 -9 2 51.79 11.5
-9 -8 2 23.7 10.1
17 -9 2 22.7 9.2
-8 17 2 22.5 10.3
-17 10 -2 29.8 11.9
10 7 -2 67.09 14.1
-10 -7 2 57.39 13.3
-10 -7 2 60.59 15
17 -10 2 52.29 11.9
-7 17 2 67.89 13.2
-10 -7 2 56.59 12.8
17 -10 2 46.7 10.5
-17 11 -2 2.7 9
11 6 -2 -4.1 6
-6 17 2 -5.2 7.5
-11 -6 2 -8.8 8.1
-11 -6 2 -9.2 4.6
17 -11 2 -8.8 5.4
17 -11 2 -3 5.1
-11 -6 2 -7 6.6
12 5 -2 73.29 14.5
-17 12 -2 68.49 16.6
-12 -5 2 68.99 15.7
-12 -5 2 66.49 12.8
17 -12 2 76.59 13.6
17 -12 2 59.29 13.4
-12 -5 2 76.89 15.5
-5 17 2 81.89 14.7
-17 13 -2 1.2 8.7
13 4 -2 -7.3 5.6
-13 -4 2 1.5 7.8
-13 -4 2 8.9 7.2
17 -13 2 -2.9 7.2
-4 17 2 14.5 9.1
17 -13 2 -4 5.7
3 -17 -2 71.59 9.9
14 3 -2 68.49 13.6
3 -17 -2 63.09 9.2
-17 14 -2 72.99 16.6
-3 17 2 79.59 14.7
17 -14 2 88.69 13.7
17 -14 2 109.49 16.9
-14 -3 2 73.79 16.1
-14 -3 2 44.6 12.3
2 -17 -2 7.3 4.9
2 -17 -2 12.6 6.3
15 2 -2 0.6 6.8
-17 15 -2 8.1 9.5
17 -15 2 -2.8 5.4
-15 -2 2 2.7 8
17 -15 2 14.7 8.5
-2 17 2 6.5 8.8
-15 -2 2 11.6 7.7
16 1 -2 56.09 12.6
-17 16 -2 56.79 15.8
1 -17 -2 60.09 9.7
1 -17 -2 66.09 9
1 -17 -2 66.69 11.4
-16 -1 2 67.99 15.6
-16 -1 2 54.29 13.4
-1 17 2 64.49 14.6
17 -16 2 42.2 12
17 -16 2 65.39 14.1
0 -17 -2 39 8.6
0 -17 -2 56.39 8.1
17 0 -2 31.5 10.7
-17 17 -2 38.2 13.8
0 17 2 14.8 10
17 -17 2 48.1 12.1
-17 0 2 27.3 9.6
-17 0 2 22.2 11.4
-1 -17 -2 84.09 14
-1 -17 -2 65.89 10.6
18 -1 -2 87.99 15.6
-1 -17 -2 84.29 12.6
-17 18 -2 56.79 16.5
17 -18 2 87.89 15.6
-18 1 2 70.39 16.4
-18 1 2 75.09 16.6
-2 -17 -2 2.6 4.2
19 -2 -2 8.8 7.8
-2 -17 -2 -0.9 7.6
-17 19 -2 -1.5 9.5
-2 -17 -2 -8.6 5.9
-19 2 2 3.4 8.4
17 -19 2 4 7.8
-19 2 2 0 6.7
-3 -17 -2 56.79 12.4
-3 -17 -2 62.49 14.1
-3 -17 -2 88.69 12.9
-17 20 -2 92.19 18.9
20 -3 -2 76.59 16.3
17 -20 2 79.79 16.3
-20 3 2 82.49 17.3
-20 3 2 63.89 15.9
21 -4 -2 5.9 7.6
-4 -17 -2 0.5 4.9
-4 -17 -2 12.5 9.3
-17 21 -2 -8.6 9
-4 -17 -2 -3.2 8.1
-21 4 2 1.1 6.6
17 -21 2 -2.7 7.9
-21 4 2 -2.1 9.3
-5 -17 -2 40.2 10.4
-5 -17 -2 63.09 13.3
22 -5 -2 65.09 14.2
-5 -17 -2 49.8 13.6
-17 22 -2 60.69 17.2
-22 5 2 61.29 15.7
17 -22 2 80.79 15.9
-22 5 2 61.29 18.2
-17 23 -2 13.7 13.3
23 -6 -2 -1.5 6.5
-6 -17 -2 1.1 9.6
-6 -17 -2 -3 6.6
-6 -17 -2 -15 7.1
17 -23 2 0.1 8.6
-23 6 2 -0.8 7.5
6 17 2 3.6 5.7
-17 24 -2 23.7 14.4
24 -7 -2 39.6 11.4
-7 -17 -2 36 10.4
-7 -17 -2 25.4 11.3
-7 -17 -2 28.7 13.1
-24 7 2 19.4 12.8
-24 7 2 16.4 10.8
7 17 2 36.8 9.3
17 -24 2 34.2 13.5
25 -8 -2 9.5 9.8
-8 -17 -2 7.7 8.7
-8 -17 -2 -6.3 5.9
-8 -17 -2 6.3 12.3
-17 25 -2 1.1 12.5
-25 8 2 -10.9 9.2
8 17 2 2.9 6.5
-25 8 2 0.3 7.6
17 -25 2 -11.2 9.1
26 -9 -2 15 9.5
-9 -17 -2 8.7 7.9
-9 -17 -2 14.3 13.2
-9 -17 -2 21.4 10.9
17 -26 2 18.3 11.7
9 17 2 22.1 7.9
-26 9 2 30.2 16.8
27 -10 -2 -6.6 6.9
-10 -17 -2 -14.4 10.7
-10 -17 -2 4.6 7.8
17 -27 2 -16.3 8.1
10 17 2 -14.9 5.6
-11 -17 -2 28.1 16.6
28 -11 -2 6.2 9.2
11 17 2 13.1 8.1
17 -28 2 8.9 11.1
-12 -17 -2 16.4 14.3
-12 -17 -2 -11.5 12.4
-12 -17 -2 -15.9 12.5
29 -12 -2 2 10
12 17 2 7 7.7
17 -29 2 1.2 12.4
-18 -11 -2 -14.2 15
29 -18 -2 -2.3 7
18 11 2 16.8 7.9
11 -29 2 -10.2 13.1
-18 -10 -2 27.4 17
28 -18 -2 27.4 11.2
10 -28 2 8.8 13.1
18 10 2 21.3 9.6
-18 -9 -2 -0.3 10.1
-18 -9 -2 25.1 17.3
-18 -9 -2 8.6 14.6
27 -18 -2 15.4 8.3
18 9 2 18.4 8.4
9 -27 2 11.4 8
9 -27 2 18.7 14.9
-27 18 2 6.4 12.6
-18 -8 -2 74.59 17.3
-18 -8 -2 58.29 18.4
26 -18 -2 95.59 16.5
-18 -8 -2 81.89 19.1
8 -26 2 61.59 18.5
-26 18 2 70.79 17.5
8 -26 2 38.1 10.7
18 8 2 59.09 13.8
-18 -7 -2 15.7 10.6
-18 -7 -2 -2.6 12.6
25 -18 -2 9.3 8.1
-18 -7 -2 4.9 11.4
7 -25 2 37 17
18 7 2 19.8 8.3
-25 18 2 23.7 13
-18 -6 -2 71.49 18.5
-18 -6 -2 64.19 17.1
24 -18 -2 70.49 14
-6 24 -2 61.89 17.4
-18 -6 -2 49.3 16.9
6 -24 2 57.39 12.2
18 6 2 54.99 12.8
6 -24 2 65.49 17.9
-24 18 2 42.4 14.1
23 -18 -2 10.3 7.5
-5 23 -2 41.2 13.9
5 -23 2 20.5 13.2
18 5 2 28.4 9.1
-23 18 2 19.1 10.6
5 -23 2 24.3 8.9
18 5 2 0.5 8.6
22 -18 -2 97.29 16.4
-4 22 -2 106.79 23.9
4 -22 2 92.49 22.7
18 4 2 99.69 18.2
18 4 2 97.79 19
4 -22 2 103.29 17.8
-22 18 2 149.19 20.4
-3 21 -2 2 10.7
21 -18 -2 -3 5.2
3 -21 2 6.5 15
18 3 2 2.5 5.5
3 -21 2 13.7 7
-21 18 2 -11 7.2
18 3 2 9.1 9.3
20 -18 -2 105.09 15.9
-2 20 -2 92.19 19
-18 -2 -2 97.09 20
-18 -2 -2 130.29 20.7
2 -20 2 98.69 20.6
-20 18 2 110.29 18.8
18 2 2 114.59 19.8
18 2 2 106.39 18.6
2 -20 2 84.39 15.3
19 -18 -2 7.4 5.9
-18 -1 -2 3 8.5
-18 -1 -2 2.2 8.1
-1 19 -2 3.9 9.5
18 1 2 8.2 8.6
1 -19 2 3.1 11
-19 18 2 13.2 9
1 -19 2 -0.9 6.4
0 18 -2 78.09 19.5
-18 0 -2 78.49 17.2
18 -18 -2 87.89 13.4
18 0 2 107.99 21.9
18 0 2 64.49 14.2
-18 18 2 104.09 17
0 -18 2 107.09 20
0 -18 2 83.39 15.4
-18 1 -2 71.99 16.1
1 17 -2 59.29 22.8
17 -18 -2 68.39 11.5
-1 -17 2 93.59 19.3
-1 -17 2 66.99 12.9
18 -1 2 79.99 16
18 -1 2 48.4 12.8
-17 18 2 100.09 18.7
2 16 -2 81.99 19.3
-18 2 -2 102.69 19.7
16 -18 -2 92.69 13.4
-2 -16 2 86.89 15.3
-16 18 2 111.79 17.3
18 -2 2 141.79 19
18 -2 2 91.99 15.4
-2 -16 2 125.49 22.1
-18 3 -2 27.5 12
15 -18 -2 28.3 7.9
3 15 -2 20.6 10.1
-3 -15 2 39 11
18 -3 2 36.2 10.3
18 -3 2 33.9 11.3
-15 18 2 18.4 9
-3 -15 2 26.1 13.2
-18 4 -2 77.29 15.9
14 -18 -2 59.19 9.4
18 -4 2 49.99 11.1
-4 -14 2 74.09 14.5
-4 -14 2 55.19 15.4
-14 18 2 88.69 14.5
18 -4 2 70.39 14.7
13 -18 -2 5.3 4.1
-18 5 -2 5.3 8.6
-13 18 2 -3.4 7.1
18 -5 2 10.5 7.2
-5 -13 2 3.3 6.4
18 -5 2 6.9 8
-5 -13 2 13.2 11
-18 6 -2 42.7 13
12 -18 -2 55.79 7.9
-6 -12 2 51.79 13.4
-6 -12 2 51.09 11.2
18 -6 2 61.39 11.3
18 -6 2 65.99 13.3
-12 18 2 59.29 12.6
-6 -12 2 40.3 13.9
-18 7 -2 6.2 8.5
18 -7 2 -9.2 4.5
-7 -11 2 2.5 7.1
18 -7 2 8.8 7.5
-11 18 2 2.6 7.7
-7 -11 2 -1 5.4
-7 -11 2 -0.5 10
-18 8 -2 91.49 16.9
8 10 -2 44.3 12.1
-8 -10 2 67.09 13.2
18 -8 2 66.19 13.5
-10 18 2 91.59 14.6
-8 -10 2 81.09 15.2
-8 -10 2 62.79 15.8
18 -8 2 68.39 13.8
-18 9 -2 0.7 8.1
9 9 -2 5.4 7.2
18 -9 2 5 7.8
-9 -9 2 5.2 7.7
-9 -9 2 20.6 11.5
-9 18 2 5.1 8.7
18 -9 2 2.6 5.7
-9 -9 2 8.9 6.6
-18 10 -2 70.69 16.2
10 8 -2 65.89 14.5
-8 18 2 75.49 14.4
-10 -8 2 74.89 14.7
18 -10 2 61.29 12.9
-10 -8 2 73.39 15
-10 -8 2 77.39 17.3
18 -10 2 54.19 11.3
11 7 -2 5.8 8.1
-18 11 -2 -2.5 8
18 -11 2 -4.9 4.9
-7 18 2 5.8 8
18 -11 2 -1.5 6.4
-11 -7 2 -4.2 5.3
-11 -7 2 -3.9 8.8
-11 -7 2 4 7.3
12 6 -2 31.6 10.8
-18 12 -2 31.4 12.8
-12 -6 2 43.3 11.5
-6 18 2 52.89 12.4
18 -12 2 43.7 11.2
18 -12 2 49.9 11.1
-12 -6 2 50.79 11.7
-12 -6 2 52.39 14.3
13 5 -2 3.1 7.1
-18 13 -2 6.5 9.6
18 -13 2 -0.8 6
18 -13 2 0.5 7
-13 -5 2 1.4 9.6
-13 -5 2 -3.9 6.4
-5 18 2 11.6 8.9
-13 -5 2 9 7.2
4 -18 -2 62.29 8.7
14 4 -2 69.59 14.5
-18 14 -2 47.1 14.7
-14 -4 2 58.99 13
-14 -4 2 75.89 16.2
18 -14 2 77.59 15
-4 18 2 58.39 13.3
18 -14 2 51.09 12.4
-18 15 -2 52.99 13.7
15 3 -2 27.1 10
3 -18 -2 26.3 6
3 -18 -2 15.8 6.2
-15 -3 2 4.5 7.8
18 -15 2 30.1 9.8
-3 18 2 53.29 20
18 -15 2 32.8 10.9
-15 -3 2 11.3 9.5
-18 16 -2 85.09 18.6
2 -18 -2 83.09 12.3
16 2 -2 86.39 15.7
2 -18 -2 100.69 11.2
2 -18 -2 102.89 13.9
18 -16 2 101.29 17.5
-2 18 2 139.69 18.7
-16 -2 2 96.79 18.7
-16 -2 2 111.69 21.5
18 -16 2 115.29 16.9
-18 17 -2 79.79 17.1
1 -18 -2 56.39 13.1
1 -18 -2 82.29 11.5
1 -18 -2 77.79 10.1
17 1 -2 69.89 15.8
18 -17 2 74.39 14.9
-1 18 2 62.79 16
-17 -1 2 92.39 17.4
18 -17 2 79.09 15.4
18 0 -2 55.49 16.4
-18 18 -2 103.49 19.3
0 -18 -2 97.59 12
0 -18 -2 101.99 13.6
0 -18 -2 82.19 16.7
18 -18 2 93.69 17
18 -18 2 109.79 18.2
-18 0 2 90.09 18.6
0 18 2 83.29 17.8
-1 -18 -2 8.7 5.3
-1 -18 -2 14.2 7
-18 19 -2 16.1 11.3
19 -1 -2 15.9 8.8
-1 -18 -2 13.9 8.9
18 -19 2 5 7.3
18 -19 2 10.2 8.8
-19 1 2 -1.5 7.9
-18 20 -2 84.39 20.4
-2 -18 -2 112.69 15.8
-2 -18 -2 93.19 16.3
-2 -18 -2 104.19 14
20 -2 -2 106.69 18.6
18 -20 2 137.99 20.5
-20 2 2 117.79 21.1
-20 2 2 85.59 17.9
21 -3 -2 12.3 8.6
-3 -18 -2 -3.3 4.5
-3 -18 -2 4.2 9
-3 -18 -2 4.3 6.9
-18 21 -2 21.4 12.6
-21 3 2 2.8 9.6
18 -21 2 -10.2 7.4
-21 3 2 -5.7 6.2
-4 -18 -2 138.59 21.6
-4 -18 -2 157.18 20.9
22 -4 -2 105.59 21
-4 -18 -2 117.19 17.9
-22 4 2 110.19 21.2
-22 4 2 129.49 26.8
18 -22 2 104.99 19.9
23 -5 -2 54.49 13.6
-18 23 -2 39.1 14.9
-5 -18 -2 5.3 7.2
-5 -18 -2 14.2 9.1
-5 -18 -2 12.5 11
18 -23 2 17.3 11.1
-23 5 2 33.7 12.6
-23 5 2 31.6 13.1
24 -6 -2 58.69 14.4
-6 -18 -2 67.29 14.2
-18 24 -2 86.09 19.6
-6 -18 -2 54.39 12.3
-6 -18 -2 68.99 16.4
-24 6 2 45.8 15.1
18 -24 2 82.79 26.2
-24 6 2 62.79 15.1
25 -7 -2 25.1 11
-7 -18 -2 17.9 10.2
-18 25 -2 12.6 14.5
-7 -18 -2 3.8 10.7
-7 -18 -2 4.5 6.9
18 -25 2 16.1 11.6
-25 7 2 9.5 11.1
-25 7 2 45.7 16.3
26 -8 -2 63.09 16.2
-8 -18 -2 67.49 16.4
-8 -18 -2 74.69 15.5
-8 -18 -2 59.89 13.1
18 -26 2 63.39 16.2
8 18 2 31 9.5
-9 -18 -2 4.2 7
27 -9 -2 5.2 7.9
-9 -18 -2 19 11.2
9 18 2 -1.2 6
18 -27 2 28.3 11.9
-10 -18 -2 32.4 16.8
-10 -18 -2 36.3 11.5
28 -10 -2 39.6 12.5
18 -28 2 43.8 14.6
10 18 2 22.4 9.1
-11 -18 -2 1.8 12.4
29 -11 -2 -4.9 13.3
-11 -18 -2 -6.9 14.2
11 18 2 -2 6.8
18 -29 2 2 11.9
29 -19 -2 8.1 9.4
-19 -10 -2 15.5 17.1
10 -29 2 23.1 15.2
19 10 2 11.1 9.2
28 -19 -2 5.3 8.1
-19 -9 -2 35.1 18.5
9 -28 2 -4.1 13.5
19 9 2 13.7 8.2
27 -19 -2 5 7.1
-19 -8 -2 10 13.8
8 -27 2 -15.1 8.1
8 -27 2 -8.1 11.5
-27 19 2 -10.3 10.3
19 8 2 1.2 7.3
-19 -7 -2 9.6 17.3
-19 -7 -2 5.5 13.7
-19 -7 -2 14.3 11.5
26 -19 -2 26.5 9.6
-26 19 2 21.5 12.2
7 -26 2 34.1 17.9
7 -26 2 23.9 8.4
19 7 2 13 8.5
-19 -6 -2 11.6 12.6
-19 -6 -2 -1.3 8.1
-19 -6 -2 -1.7 12.6
25 -19 -2 6.1 6.4
6 -25 2 5.8 7.1
-25 19 2 5 15.3
19 6 2 12.5 8.2
6 -25 2 22.2 14.7
24 -19 -2 22.9 9
-5 24 -2 12 11.4
-19 -5 -2 18.4 11.4
-19 -5 -2 9.3 11.1
5 -24 2 36.8 17
19 5 2 26 11.1
-24 19 2 32.8 12.1
19 5 2 11.5 11.1
5 -24 2 17.5 8.5
-19 -4 -2 -3.7 10.4
-19 -4 -2 0.2 9.5
-4 23 -2 -2.8 11.4
23 -19 -2 13.8 7.1
-23 19 2 -1.9 8.1
19 4 2 -5.7 5.6
19 4 2 -4.7 8.2
4 -23 2 -2.8 6.1
4 -23 2 3.4 12.3
-3 22 -2 26.7 13.7
22 -19 -2 30.1 8.7
-19 -3 -2 34.5 14.8
-22 19 2 14.8 10.4
19 3 2 24.2 10.3
19 3 2 4 9.5
3 -22 2 16.9 9
3 -22 2 48 16.5
21 -19 -2 32.3 8.5
19 2 2 37.1 11.7
19 2 2 12.3 8.1
2 -21 2 23.3 14.4
-21 19 2 2.3 9.1
2 -21 2 9.5 8.1
20 -19 -2 32 8.3
-1 20 -2 22.9 13.2
19 1 2 19.1 8.7
1 -20 2 19.4 8.6
-20 19 2 11.1 10.3
19 1 2 16.2 10.4
19 -19 -2 0.1 5
0 19 -2 45.1 20.3
-19 0 -2 2.3 11.6
19 0 2 19.9 10.2
0 -19 2 3.6 11.9
19 0 2 10.2 7.3
-19 19 2 14 8.4
0 -19 2 -0.3 6.2
18 -19 -2 4.2 5.4
-19 1 -2 15.3 9.9
19 -1 2 3.1 8.1
-1 -18 2 6.3 12.2
19 -1 2 5.7 8.4
-18 19 2 7.5 8.9
-1 -18 2 10.8 7.2
17 -19 -2 -5.7 4.1
-19 2 -2 -7.4 8
-2 -17 2 1.7 10.3
-17 19 2 10.2 10
19 -2 2 -10.1 6.5
-2 -17 2 0.7 6
16 -19 -2 7.2 5
-19 3 -2 6.9 9.1
19 -3 2 7.7 7.9
-16 19 2 6.7 8
-3 -16 2 21.4 8.6
-3 -16 2 -12.2 9.5
19 -3 2 6.2 7.7
-19 4 -2 8 9.6
15 -19 -2 13.9 8.8
-4 -15 2 -11 9.5
19 -4 2 8.7 6.9
-4 -15 2 0.7 6.2
19 -4 2 -12.8 6.4
-15 19 2 5.5 8.2
-19 5 -2 27.8 11.3
14 -19 -2 19.5 5.5
-5 -14 2 42.7 13.7
19 -5 2 10.7 7.1
-14 19 2 29.6 10.8
-5 -14 2 25.5 9.8
19 -5 2 32.7 10.3
13 -19 -2 2 3.5
-19 6 -2 -4.5 8.3
-13 19 2 1.9 7.8
-6 -13 2 1.4 10.2
-6 -13 2 -9.3 5.4
19 -6 2 4.6 7.7
-6 -13 2 -0.1 6.2
19 -6 2 -2.9 5.7
-19 7 -2 45.9 12.9
19 -7 2 11.3 8.6
-12 19 2 17.1 9.5
19 -7 2 21.3 8.1
-7 -12 2 11.3 6.6
-7 -12 2 15 8.8
-7 -12 2 22.8 12.2
8 11 -2 5.3 7.5
-19 8 -2 9.5 9.1
19 -8 2 4 6.5
-8 -11 2 -7.3 6.2
19 -8 2 3.9 7.7
-8 -11 2 -5.6 8.8
-8 -11 2 -2 5.5
-11 19 2 11.9 8.9
9 10 -2 19.6 8.7
-19 9 -2 19.2 10.6
-9 -10 2 14.3 8.3
19 -9 2 12 7.5
-9 -10 2 20.5 9.4
-10 19 2 6.9 8.7
-9 -10 2 4 10.7
19 -9 2 15.8 10
-19 10 -2 11.5 10
10 9 -2 9.5 7.8
-10 -9 2 13.2 8
19 -10 2 19.7 8.3
-10 -9 2 13.6 11.2
19 -10 2 24.6 9.6
-10 -9 2 13.6 7.7
-9 19 2 11.4 9.4
-19 11 -2 11 9.3
11 8 -2 -7.7 5.7
19 -11 2 5.3 7.7
-11 -8 2 3.3 7.3
-8 19 2 11.3 8.4
19 -11 2 16.4 8.3
-11 -8 2 -15.8 7.8
-11 -8 2 2 6.1
-19 12 -2 16.8 11.1
12 7 -2 19.3 8.4
-12 -7 2 -4.1 8.6
19 -12 2 14.9 8.2
-12 -7 2 35.1 10.2
-7 19 2 9.7 8.6
-12 -7 2 23.2 9.3
19 -12 2 36.2 10.2
13 6 -2 -1.2 6.1
-19 13 -2 1.9 8.9
-6 19 2 -6.6 7.2
19 -13 2 5.5 7.8
-13 -6 2 0.9 6.8
-13 -6 2 -7.9 8.9
-13 -6 2 -3.6 6.6
19 -13 2 -4 5.2
-19 14 -2 7.8 9.9
14 5 -2 22.4 9.5
-14 -5 2 27.5 12.7
-14 -5 2 9.6 8.5
19 -14 2 20.3 9.2
19 -14 2 9.9 7
-14 -5 2 10.9 7.2
-19 15 -2 8.1 9.5
15 4 -2 -0.4 6.4
19 -15 2 7 6.6
19 -15 2 -2 7.6
-4 19 2 -1.5 7.7
-15 -4 2 -8.5 7
-15 -4 2 18.5 9.4
16 3 -2 6.1 8.2
-19 16 -2 -7 9
3 -19 -2 9 6
3 -19 -2 10.5 4.6
-16 -3 2 -8.9 6.4
19 -16 2 10 7.9
-3 19 2 5.5 9.3
19 -16 2 5.1 8.5
17 2 -2 4.4 7.3
2 -19 -2 -6.1 4.1
-19 17 -2 -1.2 9.6
2 -19 -2 5.1 6.3
19 -17 2 4.8 8.2
-2 19 2 7.2 8.2
19 -17 2 -4.5 5.1
-17 -2 2 4.4 9.1
1 -19 -2 1.7 4
18 1 -2 8 7.6
-19 18 -2 1.6 11.2
1 -19 -2 7.9 5.6
19 -18 2 3.1 8.5
19 -18 2 1.3 7
-1 19 2 6.6 9
-18 -1 2 4.4 7.9
19 0 -2 15.7 9.1
0 -19 -2 9 5.1
0 -19 -2 -2.7 7.2
-19 19 -2 7.1 9.3
0 -19 -2 13.2 6.7
19 -19 2 9.4 9.3
19 -19 2 0.9 6.4
0 19 2 23.5 11.1
-19 0 2 4.1 8.9
-19 20 -2 15.5 12.3
-1 -19 -2 10.1 7.1
-1 -19 -2 30.3 7.3
-1 -19 -2 22 9.9
20 -1 -2 25.2 9.9
19 -20 2 27.7 11.5
-20 1 2 16.2 10.5
19 -20 2 21.6 9.8
21 -2 -2 5.8 8.8
-2 -19 -2 25.4 10.3
-2 -19 -2 18.4 6.9
-2 -19 -2 14.2 8.2
-19 21 -2 20.4 15.6
-21 2 2 40.7 15.1
19 -21 2 14.4 10.6
19 -21 2 22.7 10.3
-21 2 2 -1.2 7.1
-3 -19 -2 20.5 7.3
-3 -19 -2 15.8 10.7
-19 22 -2 24.3 13.9
22 -3 -2 21.7 10.2
-22 3 2 17.1 11
-22 3 2 32.8 14
19 -22 2 42.4 12.3
-4 -19 -2 -1.1 5.8
-19 23 -2 8.6 12.6
-4 -19 -2 11.4 10.4
-4 -19 -2 0.7 8.1
23 -4 -2 13 9.6
-23 4 2 7.3 11.1
-23 4 2 -2.9 9
19 -23 2 -0.9 10
-5 -19 -2 11.3 11
24 -5 -2 9 8.7
-5 -19 -2 4.9 8.6
-19 24 -2 14.4 13.3
-5 -19 -2 11.9 9.1
-24 5 2 4.1 8.4
19 -24 2 2.7 13
-24 5 2 4.8 9.6
25 -6 -2 -10.5 6
-6 -19 -2 7.5 9.5
-6 -19 -2 -1 10.7
-6 -19 -2 1.1 6.5
-25 6 2 13.3 16.4
19 -25 2 -6.9 8.1
-7 -19 -2 21.3 14.6
-7 -19 -2 1.7 7.1
-7 -19 -2 -10.6 8.7
26 -7 -2 9.5 9.2
19 -26 2 16.3 11.5
-8 -19 -2 4.3 7.5
27 -8 -2 2.9 10
-8 -19 -2 9 10.4
-8 -19 -2 2.2 12
19 -27 2 -7.7 9.3
-9 -19 -2 20.3 15.8
28 -9 -2 17.2 11.4
-9 -19 -2 1 8
19 -28 2 7.6 11.1
-10 -19 -2 19.6 14.1
29 -10 -2 -7.1 7.7
-10 -19 -2 -5.2 16.1
19 -29 2 -2.7 10.3
28 -20 -2 22.5 10.6
-20 -8 -2 16.4 17.9
8 -28 2 35 16.1
20 8 2 19.6 10.4
27 -20 -2 11.5 9
-20 -7 -2 13.1 15.9
7 -27 2 -9.9 11.5
20 7 2 -8.8 5.8
-27 20 2 55.19 15
-20 -6 -2 8.7 15.2
26 -20 -2 44.4 11.6
20 6 2 56.89 13.2
6 -26 2 31.4 10
-26 20 2 47.5 15.3
6 -26 2 61.29 17.5
25 -20 -2 17.6 8.2
-20 -5 -2 21.8 14.3
-20 -5 -2 -16.3 8.5
5 -25 2 -2.1 12.5
20 5 2 -1.8 7.7
5 -25 2 12.5 8.2
-20 -4 -2 56.69 16.1
24 -20 -2 81.79 13.8
-20 -4 -2 64.09 17.2
4 -24 2 53.59 11.9
-24 20 2 67.49 16.5
20 4 2 78.99 17.8
20 4 2 54.89 14.9
4 -24 2 71.79 19
-3 23 -2 11.1 12.4
23 -20 -2 23.4 8.1
-20 -3 -2 -6.8 8.3
-20 -3 -2 3.8 11.2
3 -23 2 -7.1 11.6
20 3 2 3.3 9.2
3 -23 2 6.9 8.1
20 3 2 -1.7 6.6
-23 20 2 6.6 9.6
-20 -2 -2 103.29 21
22 -20 -2 89.39 14.9
-2 22 -2 59.59 17.6
20 2 2 117.49 20
-22 20 2 98.09 19.1
2 -22 2 86.79 21
2 -22 2 80.29 14.8
20 2 2 70.99 15.9
-1 21 -2 -6.9 11
-20 -1 -2 5.1 19.1
21 -20 -2 8.4 6.1
-21 20 2 1.9 9.2
20 1 2 8.2 7.4
20 1 2 0.3 8.9
1 -21 2 5.8 7.7
1 -21 2 5.8 13.3
20 -20 -2 70.09 12.3
-20 20 2 81.39 16.6
20 0 2 75.29 16.5
20 0 2 89.09 17.3
0 -20 2 52.79 18.7
0 -20 2 60.19 13.5
19 -20 -2 21.1 7.1
-1 -19 2 16.5 8.6
20 -1 2 6.8 7.9
-19 20 2 16.9 11.2
-1 -19 2 18.7 15
20 -1 2 27.5 11.6
18 -20 -2 109.39 14.3
20 -2 2 107.09 18.4
-2 -18 2 122.19 18.6
-2 -18 2 72.39 24.6
20 -2 2 86.49 16.5
-18 20 2 100.39 17.5
17 -20 -2 56.99 9.8
-20 3 -2 38.9 15.6
-3 -17 2 47 11.9
20 -3 2 60.59 14.4
20 -3 2 45.3 13.7
-17 20 2 66.59 14.8
-20 4 -2 90.19 17.5
16 -20 -2 104.19 12.6
-16 20 2 96.89 17.9
20 -4 2 87.49 15.8
20 -4 2 87.99 17.5
-4 -16 2 95.89 16
-4 -16 2 97.39 22
-4 -16 2 78.09 16.3
15 -20 -2 30.5 6.5
-20 5 -2 19.8 10.8
-5 -15 2 7.3 11.4
-5 -15 2 -0.3 7.3
-5 -15 2 10.2 7.7
20 -5 2 7.1 7.9
14 -20 -2 71.79 9.3
20 -6 2 48.9 13
-6 -14 2 88.59 18.1
-6 -14 2 30.8 11.4
-6 -14 2 72.39 13.2
-14 20 2 58.49 14.2
20 -6 2 45.7 20.1
-7 -13 2 6.5 11.6
20 -7 2 7.3 7.6
-13 20 2 15.3 9.9
-7 -13 2 11 7.7
-7 -13 2 -1.8 6.4
20 -7 2 20.2 9.1
-8 -12 2 94.59 19
-8 -12 2 63.39 14.1
20 -8 2 72.89 15.2
-8 -12 2 72.09 13.5
-12 20 2 75.59 15.4
20 -8 2 74.69 15.3
9 11 -2 7.8 7.3
-11 20 2 -0.9 8.6
-9 -11 2 10.6 12.1
-9 -11 2 7 7.6
20 -9 2 8.5 6.8
-9 -11 2 2.9 7.9
20 -9 2 5.2 7.9
10 10 -2 52.79 11.9
-10 -10 2 63.59 14.2
-10 -10 2 61.49 16.6
20 -10 2 77.39 15
-10 20 2 106.19 17.1
20 -10 2 64.09 12.9
-10 -10 2 69.19 15.1
11 9 -2 -5.9 6.2
-20 11 -2 -3.9 9.2
-11 -9 2 17.3 8.2
20 -11 2 4.1 6.8
-9 20 2 6.5 8.8
20 -11 2 26.2 9.9
-11 -9 2 15.6 11.2
12 8 -2 73.19 13.5
-20 12 -2 57.99 14.8
20 -12 2 58.99 13.4
20 -12 2 53.69 13.6
-12 -8 2 52.09 15.5
-8 20 2 86.39 19
-12 -8 2 67.99 13.9
13 7 -2 7.1 8.2
-20 13 -2 17 11.1
-13 -7 2 12.6 8.6
-7 20 2 -3.7 9.5
20 -13 2 6.2 8.3
-13 -7 2 22.4 13.5
20 -13 2 16 7.8
14 6 -2 58.49 13.7
-20 14 -2 63.99 15.7
20 -14 2 62.99 12.8
20 -14 2 51.09 13.3
-14 -6 2 62.29 14.5
-6 20 2 73.79 14.7
15 5 -2 17.9 15.4
-20 15 -2 8.4 9.8
20 -15 2 7.1 8.9
-5 20 2 23.3 10.6
-15 -5 2 28.6 13.2
-15 -5 2 22.3 10
20 -15 2 14.3 8.8
16 4 -2 99.59 18.6
-20 16 -2 70.99 17.6
-16 -4 2 102.99 21.6
-16 -4 2 100.69 18.3
-4 20 2 109.99 19
20 -16 2 91.49 16.5
20 -16 2 100.89 17.2
3 -20 -2 78.29 10.4
17 3 -2 64.99 15.1
-20 17 -2 75.39 18.1
3 -20 -2 64.29 10.1
20 -17 2 53.49 14.4
-17 -3 2 71.69 16.6
20 -17 2 77.49 15.1
-3 20 2 70.59 15.6
18 2 -2 111.79 19.8
-20 18 -2 81.19 18.9
2 -20 -2 100.79 12.9
2 -20 -2 78.69 13.6
2 -20 -2 92.39 11.3
-2 20 2 100.79 18.7
20 -18 2 79.79 16.4
20 -18 2 116.49 18.4
-18 -2 2 105.09 19.8
1 -20 -2 23.9 5.7
19 1 -2 22.6 8.8
1 -20 -2 10.8 6.6
-20 19 -2 3.3 10.8
-1 20 2 19.2 10.6
20 -19 2 30.6 11.4
-19 -1 2 30.6 12
20 -19 2 20.2 11.7
-20 20 -2 88.99 20.7
0 -20 -2 70.39 11.9
0 -20 -2 73.99 13.1
0 -20 -2 64.39 10.2
20 0 -2 84.19 16.6
0 20 2 41.4 14.2
20 -20 2 81.19 15.3
-20 0 2 78.39 22.7
-1 -20 -2 2.3 8.5
21 -1 -2 8.4 8.2
-1 -20 -2 0.5 4.6
-1 -20 -2 -0.8 7
-20 21 -2 -4.1 11.9
20 -21 2 3.8 7.6
-21 1 2 -1.5 6.9
-21 1 2 3.3 10.2
20 -21 2 14.4 10.3
22 -2 -2 113.09 20.6
-2 -20 -2 82.99 15
-2 -20 -2 74.29 12.4
-2 -20 -2 79.49 15.7
-20 22 -2 92.49 19.9
20 -22 2 97.09 17.6
20 -22 2 95.89 22
-22 2 2 92.69 19.9
-22 2 2 84.89 19.8
-3 -20 -2 6.4 5.9
-3 -20 -2 -6.1 9.1
-3 -20 -2 12.3 10.1
23 -3 -2 9.5 8.4
-20 23 -2 21.4 12.9
-23 3 2 -1.7 7.5
-23 3 2 4 9.7
20 -23 2 7.3 8.3
20 -23 2 11.1 17.4
-20 24 -2 101.29 24.9
24 -4 -2 74.29 16.6
-4 -20 -2 71.39 15.7
-4 -20 -2 49.6 13.1
-4 -20 -2 53.99 12.2
20 -24 2 104.79 17.3
-24 4 2 56.19 16.6
20 -24 2 59.89 15
-5 -20 -2 14.8 7.7
25 -5 -2 6.2 9.4
-5 -20 -2 1.4 10
-5 -20 -2 16.1 10.7
20 -25 2 30.5 11.5
20 -25 2 4.5 9.7
-6 -20 -2 63.49 15.5
-6 -20 -2 68.89 16.2
-6 -20 -2 48.1 12.3
26 -6 -2 51.59 13.2
20 -26 2 48.6 15.3
20 -26 2 40.6 11.7
-7 -20 -2 17.2 11.8
27 -7 -2 14.6 11.2
-7 -20 -2 0.2 7.5
-7 -20 -2 -7.2 11.4
20 -27 2 5.5 8.1
20 -27 2 17.9 11
-8 -20 -2 27.7 10.5
-8 -20 -2 19.9 16.6
28 -8 -2 40.9 13.9
20 -28 2 30.6 13.9
20 -28 2 17.6 10.6
-21 -7 -2 12.6 18.3
28 -21 -2 11.8 7.5
7 -28 2 -7.7 13.7
21 7 2 22.2 9.7
-21 -6 -2 11.4 18.1
27 -21 -2 -7.4 6.5
6 -27 2 1.9 14.3
21 6 2 15.5 8.8
-27 21 2 15.3 11.4
-21 -5 -2 47.7 19.7
26 -21 -2 10.3 7.8
-26 21 2 16.9 11.5
21 5 2 3.3 8.4
5 -26 2 8.3 13.8
25 -21 -2 -1.8 6.5
4 -25 2 -3.9 11.5
4 -25 2 -4.8 4.9
21 4 2 11.8 8.7
-21 -3 -2 -0.8 12
24 -21 -2 8.4 7.2
3 -24 2 14.3 6.8
-24 21 2 24.1 12.8
21 3 2 -7.2 6
3 -24 2 8 13.4
21 3 2 0.8 9.8
-21 -2 -2 -2.7 11.4
23 -21 -2 13.9 7.9
-2 23 -2 15.8 19.9
-23 21 2 4 10.1
21 2 2 -1.5 8.5
21 2 2 11.1 7.8
2 -23 2 16.8 8.2
2 -23 2 7.8 13.5
-21 -1 -2 -4.6 10.4
22 -21 -2 12.8 6.8
-1 22 -2 16.6 12.8
21 1 2 14.1 10.1
21 1 2 9 8.2
1 -22 2 16.1 14.3
-22 21 2 16.4 11.5
1 -22 2 12.7 8.1
-21 0 -2 16.5 11.3
21 -21 -2 1.9 5.8
0 21 -2 -8.6 10.1
21 0 2 0.2 9.6
-21 21 2 6.3 10.1
21 0 2 12.3 8.6
0 -21 2 2.5 13.8
0 -21 2 14.7 8.6
1 20 -2 7.5 11.2
20 -21 -2 -0.4 5.4
-21 1 -2 0.8 10.6
21 -1 2 10.8 9.7
-20 21 2 15.6 10.8
-1 -20 2 7.2 12.9
-1 -20 2 4.3 6.5
21 -1 2 6 6.8
19 -21 -2 9 5.9
21 -2 2 22.7 10.5
21 -2 2 44.1 12.1
-19 21 2 20.3 11.1
-2 -19 2 18.4 9.2
-2 -19 2 -7.1 10.5
18 -21 -2 -3.9 4.1
-3 -18 2 3.8 7.2
21 -3 2 2.4 6.6
21 -3 2 -2.4 7.4
-18 21 2 -4 9.2
-3 -18 2 -3 11.2
17 -21 -2 -2.4 3.8
-4 -17 2 7 8.5
-4 -17 2 -11.9 6.1
21 -4 2 4 7.1
-4 -17 2 9.1 12.5
-17 21 2 -7 9
21 -4 2 3.7 8.1
16 -21 -2 5.8 4.6
-16 21 2 -3.9 8.3
-5 -16 2 3.3 6.6
-5 -16 2 -4.1 11.5
21 -5 2 10.4 9.2
-5 -16 2 1.3 6.1
21 -5 2 17.4 7.7
15 -21 -2 -0.7 3.7
-15 21 2 -5.6 8.3
21 -6 2 23.5 8.7
21 -6 2 31 11.1
-6 -15 2 1.8 6.2
-6 -15 2 5.5 11.2
-6 -15 2 12.9 8.6
14 -21 -2 6.4 4.1
-7 -14 2 -4.7 11.4
-7 -14 2 28.8 9.2
-14 21 2 -3.4 8.4
21 -7 2 3.8 7.2
-7 -14 2 14.9 8.5
21 -7 2 -6.2 7.9
-8 -13 2 10.1 7.8
-13 21 2 10.6 11.8
-8 -13 2 -3.2 12.5
-8 -13 2 -5.2 5.8
21 -8 2 4.9 7.2
9 12 -2 -1.8 7.1
21 -9 2 24.7 9.7
21 -9 2 -2.8 5.7
-9 -12 2 -10.9 11
-12 21 2 4.3 10.1
-9 -12 2 21.9 9.8
-9 -12 2 2.7 7.7
10 11 -2 -1.6 6
21 -10 2 -1 5.2
-10 -11 2 -14.8 9.5
21 -10 2 1.2 7.3
-11 21 2 26 11.5
-10 -11 2 10.9 7.8
-10 -11 2 2.5 7.1
11 10 -2 22.9 8.5
-10 21 2 10.7 9.3
21 -11 2 -5.2 6.5
-11 -10 2 -5.3 10.1
21 -11 2 4.3 7.7
-11 -10 2 -4.3 6.6
12 9 -2 0.4 7.5
21 -12 2 10.2 8
-9 21 2 5.9 9.2
21 -12 2 21 10
-12 -9 2 7.6 11.7
-12 -9 2 1.3 7
13 8 -2 -1.7 12.4
-21 13 -2 3 10.1
-13 -8 2 0.8 7.4
-8 21 2 29 10.7
-13 -8 2 -6.9 9.7
21 -13 2 -4.7 5.4
21 -13 2 -0.6 7
14 7 -2 15.8 8.6
-21 14 -2 8.2 10.6
-7 21 2 -1.3 8.5
-14 -7 2 -2 10
21 -14 2 10.3 8.6
-14 -7 2 11 6.8
21 -14 2 10.1 13.6
15 6 -2 5.9 8.1
-21 15 -2 3.6 10.5
21 -15 2 -7.3 7
-15 -6 2 -2.1 10
21 -15 2 3.7 8.1
-15 -6 2 19.9 10.7
-6 21 2 -7.1 8.6
-21 16 -2 -1.3 8.9
16 5 -2 0.9 6.8
-5 21 2 23.6 11.3
21 -16 2 16.5 9.7
-16 -5 2 13.4 11.7
21 -16 2 8.9 8.8
4 -21 -2 -5.9 4.4
-21 17 -2 -17.7 8.7
17 4 -2 -10.5 5.8
-4 21 2 1.7 8.7
21 -17 2 -5.4 5.2
21 -17 2 0.5 6.9
18 3 -2 -3.6 7
-21 18 -2 -4.1 10.1
3 -21 -2 0.5 5.6
3 -21 -2 11.5 5
-3 21 2 3.5 9.9
-18 -3 2 19.9 12.1
21 -18 2 -6.2 6.3
21 -18 2 15.3 9.5
2 -21 -2 19.1 9
2 -21 -2 5.7 6.1
19 2 -2 8.9 8.9
-21 19 -2 8.3 18.8
-2 21 2 5 10.3
21 -19 2 7.2 8.2
21 -19 2 34.2 11.1
1 -21 -2 4.7 4.4
20 1 -2 5.6 9.5
1 -21 -2 20.7 6.6
1 -21 -2 1.7 9
-21 20 -2 10.5 11.2
21 -20 2 -2.8 7
-20 -1 2 -3.5 9.2
-1 21 2 4.5 11
21 -20 2 -2.9 7.9
21 0 -2 1.8 7.8
0 -21 -2 8.7 5.4
0 -21 -2 17 7.9
0 -21 -2 7.4 8.1
-21 21 -2 3.3 11.2
-21 0 2 16.1 11.5
21 -21 2 14.2 7.9
-21 0 2 22.8 11.4
-1 -21 -2 23.5 7.2
-1 -21 -2 26.1 8.5
22 -1 -2 10.5 9.4
-21 22 -2 -5.3 10.8
-1 -21 -2 20.6 10.2
-22 1 2 7.2 10.1
21 -22 2 22.6 12.6
21 -22 2 33.4 10.3
-22 1 2 26.1 13.4
23 -2 -2 32.8 12.9
-2 -21 -2 -2 8.7
-2 -21 -2 13.9 6.9
-21 23 -2 13.9 12.2
21 -23 2 9 8.4
21 -23 2 -5.3 8.1
-23 2 2 8.9 11.5
-23 2 2 13.2 10.9
-3 -21 -2 18.5 7.6
-3 -21 -2 9.8 9.2
24 -3 -2 3.3 9.9
-3 -21 -2 4.1 9.6
21 -24 2 9.5 11.1
21 -24 2 10.3 9.5
-4 -21 -2 7.7 9.7
25 -4 -2 2.7 8.9
-4 -21 -2 15.5 8.6
-4 -21 -2 5 10.5
21 -25 2 3.6 10.4
21 -25 2 -5.4 7.9
26 -5 -2 6.3 9.8
-5 -21 -2 6.9 11.3
-5 -21 -2 20.9 9.1
-5 -21 -2 2 10.2
21 -26 2 37.7 13.8
21 -26 2 8.4 8.5
-6 -21 -2 16.9 12.7
27 -6 -2 -7.3 10.8
-6 -21 -2 -9.2 10.1
-6 -21 -2 6.9 7.1
21 -27 2 -13.3 6.4
21 -27 2 0 9.5
-7 -21 -2 5.7 8.2
28 -7 -2 8.2 9.8
-7 -21 -2 7.3 10.5
21 -28 2 -12.4 8.2
21 -28 2 4.2 11.1
28 -22 -2 11 8.2
6 -28 2 11.5 18.4
22 6 2 18.8 16.4
6 -28 2 13 12.3
27 -22 -2 -0.2 6.1
-22 -5 -2 8.9 17.3
22 5 2 7.5 8
5 -27 2 10 14.7
26 -22 -2 38.2 11.1
4 -26 2 30.9 18.5
-26 22 2 45.1 14.6
22 4 2 30.2 11.6
22 3 2 -1.9 9.4
22 3 2 19.4 10.3
3 -25 2 -16 11
-25 22 2 3.4 12.7
24 -22 -2 60.29 12.4
-24 22 2 50.69 17.6
2 -24 2 40.5 17.8
22 2 2 68.99 15.8
22 2 2 60.09 15.8
-22 -1 -2 -3.2 14.9
23 -22 -2 10.1 6.8
22 1 2 -3.4 8.8
22 1 2 13.7 8.7
1 -23 2 -0.1 13.5
-23 22 2 -13.2 9.3
1 -23 2 11.2 8.7
-22 0 -2 54.69 16.6
22 -22 -2 45.3 10.3
0 22 -2 48.5 23.8
22 0 2 44.7 12.2
0 -22 2 65.79 14.7
0 -22 2 20.2 15.1
0 -22 2 49.1 11.4
-22 22 2 18.9 12.7
22 0 2 34.8 13
-22 1 -2 2.3 11.3
1 21 -2 7.9 13.1
21 -22 -2 9.9 6.4
-1 -21 2 -3 11.8
22 -1 2 15.2 11.9
-1 -21 2 15.4 17
-1 -21 2 -0.9 7.1
-21 22 2 19.7 10.3
22 -1 2 18.2 8.9
20 -22 -2 81.69 13.2
-22 2 -2 124.59 22.8
22 -2 2 72.29 16.4
-2 -20 2 57.29 19.1
-20 22 2 69.79 16.5
-2 -20 2 77.59 15.6
-2 -20 2 86.19 21.9
22 -2 2 103.09 18.5
19 -22 -2 23.7 6.9
-22 3 -2 28.7 12.8
-3 -19 2 13.7 9.2
-3 -19 2 14.4 15.1
22 -3 2 16.4 10.2
22 -3 2 26.1 9.6
-19 22 2 17.6 11.9
-3 -19 2 -7.2 12.3
-22 4 -2 75.69 19.1
18 -22 -2 95.89 13.8
22 -4 2 103.29 16.6
-18 22 2 111.59 19.8
22 -4 2 136.49 21.1
-4 -18 2 95.59 22.4
-4 -18 2 105.39 18
17 -22 -2 54.29 9.3
22 -5 2 93.99 16.9
-17 22 2 82.09 17.1
-5 -17 2 59.89 18.2
-5 -17 2 58.29 13.8
22 -5 2 35.3 11.6
16 -22 -2 99.19 16.2
-6 -16 2 67.19 18.7
-16 22 2 89.49 18
22 -6 2 80.19 17.3
22 -6 2 95.59 17.3
-6 -16 2 87.59 15.7
15 -22 -2 32.4 6.6
-7 -15 2 23.6 14.9
22 -7 2 42.9 12.7
-15 22 2 30.7 12.4
-7 -15 2 16.1 10.2
22 -7 2 41.1 10.9
-8 -14 2 107.19 19.6
22 -8 2 97.19 17.5
-14 22 2 118.09 19.7
-8 -14 2 105.09 22.2
22 -8 2 112.39 18.9
-9 -13 2 26.6 11.8
-13 22 2 4.5 10
22 -9 2 16.7 8.4
-9 -13 2 26.5 13.8
22 -9 2 51.79 13.6
10 12 -2 84.19 23.4
-12 22 2 86.19 17.3
-10 -12 2 121.39 22.3
22 -10 2 63.89 12.9
22 -10 2 104.09 18.8
-10 -12 2 113.69 19.2
11 11 -2 22.8 10.4
-11 -11 2 68.29 15
-11 -11 2 91.19 19.3
22 -11 2 59.59 14.4
22 -11 2 55.39 12.7
-11 22 2 29.9 12.8
12 10 -2 59.69 15.3
-10 22 2 104.09 18.5
22 -12 2 106.19 18.3
-12 -10 2 96.89 18.1
-12 -10 2 143.29 24.9
13 9 -2 19.6 10.4
-9 22 2 54.19 13.5
22 -13 2 58.19 13.1
-13 -9 2 12.2 11.5
-13 -9 2 29.1 14.7
-22 14 -2 56.89 17
14 8 -2 87.29 16.3
-8 22 2 118.39 18.9
-14 -8 2 95.59 22.1
22 -14 2 100.29 17
15 7 -2 10.8 9.1
-22 15 -2 35.1 13.3
-15 -7 2 50.79 16.3
22 -15 2 37.8 19
-7 22 2 33.5 12.3
22 -15 2 25.9 10.9
-22 16 -2 82.19 19.1
16 6 -2 116.09 19.1
-16 -6 2 60.59 17.7
22 -16 2 84.59 17.5
-6 22 2 133.79 20.6
17 5 -2 79.79 17.2
22 -17 2 58.39 13.7
-5 22 2 81.39 16.5
-17 -5 2 61.69 18
18 4 -2 81.59 17.3
-22 18 -2 104.59 26.2
-18 -4 2 123.69 22
-18 -4 2 77.09 19.4
-4 22 2 122.19 20.1
-18 -4 2 111.99 20.7
22 -18 2 105.79 19.3
-22 19 -2 40.3 15.3
19 3 -2 35.9 13
3 -22 -2 28.1 6.6
3 -22 -2 16.5 7.2
-19 -3 2 25.5 12.3
22 -19 2 7.1 9.8
-19 -3 2 25.5 12
22 -19 2 40.7 13.3
-3 22 2 16.3 9.7
2 -22 -2 91.29 12.5
-22 20 -2 54.19 16.9
20 2 -2 71.59 15.5
22 -20 2 84.69 17.6
-20 -2 2 103.79 20.9
-2 22 2 97.09 18
-20 -2 2 81.39 16.8
22 -20 2 74.99 17
21 1 -2 13.6 9.1
-22 21 -2 26.9 12.8
1 -22 -2 16.9 5.6
1 -22 -2 13.5 9.3
1 -22 -2 23.6 7.3
22 -21 2 -3.3 7.2
-21 -1 2 11.3 8.8
22 -21 2 23.6 11
-21 -1 2 20.9 11.6
-1 22 2 33.4 14
22 0 -2 33.2 10.4
-22 22 -2 70.09 16.9
0 -22 -2 80.79 12
0 -22 -2 44.3 8.9
0 -22 -2 56.79 12.5
-22 0 2 61.99 18.5
22 -22 2 46.3 13.3
22 -22 2 27.9 11.7
-1 -22 -2 22.6 10.7
-1 -22 -2 14.2 6.7
-1 -22 -2 5.2 8.1
23 -1 -2 7.1 7.3
22 -23 2 6.1 8.7
22 -23 2 22.4 9.8
-2 -22 -2 61.89 11.3
-2 -22 -2 69.19 15.3
24 -2 -2 28.6 12.2
22 -24 2 55.89 13.7
22 -24 2 50.49 14.3
-3 -22 -2 -4.9 6.8
-3 -22 -2 12.9 10.3
-3 -22 -2 -3 9.7
25 -3 -2 -2.5 8.7
22 -25 2 0.8 7.6
22 -25 2 11 10.8
-4 -22 -2 38.9 12.2
-4 -22 -2 36.6 13.8
26 -4 -2 15.4 12
-4 -22 -2 49.99 11.4
22 -26 2 52.49 15.8
22 -26 2 77.09 16.4
27 -5 -2 -1.7 9.2
-5 -22 -2 9.9 7.9
-5 -22 -2 15.4 10.8
-5 -22 -2 -2.8 11.7
22 -27 2 5.6 10.7
22 -27 2 -12.8 5.9
28 -6 -2 3.6 11
-6 -22 -2 22.8 13.6
-6 -22 -2 9.1 11
-6 -22 -2 23 9.1
22 -28 2 14.9 9.5
22 -28 2 2.3 11.3
27 -23 -2 -2.1 6.7
23 4 2 11.4 13.1
4 -27 2 -8.6 12.9
4 -27 2 -3.3 9.8
26 -23 -2 22.8 8.2
-26 23 2 22.1 14
3 -26 2 29.8 12.9
23 3 2 12.3 9.8
3 -26 2 32.5 20.1
25 -23 -2 3.5 6.3
2 -25 2 -2.5 11.9
23 2 2 -6.4 6.6
2 -25 2 -6 8.1
-25 23 2 -11.6 8.7
23 2 2 -17.6 8.6
24 -23 -2 13.9 7.8
1 -24 2 18.7 14.9
23 1 2 20 11.6
1 -24 2 10.6 9.9
23 1 2 7.1 9
23 -23 -2 -9.3 4.3
0 -23 2 3.7 8.7
0 -23 2 -11.3 12.3
23 0 2 -2 6.6
-23 23 2 10.1 9.5
23 0 2 -12.6 7.8
22 -23 -2 -1.2 4.8
-1 -22 2 13.3 10.8
-22 23 2 28.6 12.8
-1 -22 2 2.3 12.3
23 -1 2 8.8 9.5
23 -1 2 23.5 11.2
21 -23 -2 5.7 5.5
-23 2 -2 -14.7 10.9
-2 -21 2 -3.3 8.7
-2 -21 2 -13.6 7.9
23 -2 2 2.6 9.1
23 -2 2 8.1 7.7
-2 -21 2 -4.1 12.6
-21 23 2 14.9 11.3
20 -23 -2 11.8 6.2
-23 3 -2 -6.5 10.2
-3 -20 2 0.9 5.2
-3 -20 2 6.1 9.7
-20 23 2 15.1 12.2
23 -3 2 0.1 7.1
-3 -20 2 -12.5 10.7
23 -3 2 5.6 9.6
19 -23 -2 7.5 5.5
-23 4 -2 -2 10.5
-19 23 2 16 12.2
-4 -19 2 -7.6 7.5
23 -4 2 2.5 8.1
-4 -19 2 5.6 14
23 -4 2 -1.7 6.8
-4 -19 2 12 8
-23 5 -2 16.8 11.7
18 -23 -2 17.1 5.9
23 -5 2 8.9 9.9
-18 23 2 18.4 11.8
-5 -18 2 11.7 8.3
-5 -18 2 -7.7 11.9
-5 -18 2 4.4 10.3
23 -5 2 13.3 8
17 -23 -2 0.7 4.1
-23 6 -2 1.9 10
23 -6 2 0 7.2
23 -6 2 3.6 8.5
-6 -17 2 0.6 5.8
-17 23 2 13.6 11
-6 -17 2 -6.6 12.3
16 -23 -2 21.2 7.2
-16 23 2 26 11.8
-7 -16 2 -2 11.3
23 -7 2 -1.1 6.5
23 -7 2 8.4 9.3
-7 -16 2 12.5 7.9
-8 -15 2 11.4 12.4
-8 -15 2 4.8 10.8
23 -8 2 -5.6 7.6
23 -8 2 4.4 6.5
-15 23 2 6.5 10.6
-8 -15 2 1.4 6.3
23 -9 2 1.9 8.6
-9 -14 2 -6.7 9.4
-14 23 2 18.9 9.6
-9 -14 2 -8.1 5
23 -9 2 8.9 7.2
-9 -14 2 21 16.7
23 -10 2 -13.6 4.8
-13 23 2 1.9 9.2
23 -10 2 -8.9 6.5
-10 -13 2 1.4 11.6
-10 -13 2 19.3 13
11 12 -2 -4.1 6.7
-11 -12 2 14.5 12.8
23 -11 2 10.9 8
23 -11 2 -6.2 6.8
-12 23 2 -0.2 9.2
12 11 -2 5 7.8
23 -12 2 -4.7 6.1
23 -12 2 21.7 8.9
-12 -11 2 -6.1 11.4
-11 23 2 -16.5 8.8
13 10 -2 -3.3 6
23 -13 2 2.9 7.7
-10 23 2 -1.1 9.4
23 -13 2 0.4 6.1
-13 -10 2 8.5 12.1
-23 14 -2 -28.5 10.6
14 9 -2 -1.7 6.4
-9 23 2 7.2 10
23 -14 2 11.7 9.3
23 -14 2 2.9 5.9
-14 -9 2 -12.3 10.3
-23 15 -2 8.4 11.9
15 8 -2 -7.6 6.2
23 -15 2 2 7.9
-8 23 2 3.4 10.1
23 -15 2 3.3 6.2
-15 -8 2 -0.4 11.6
16 7 -2 8.8 8.4
-23 16 -2 -7.8 9.8
23 -16 2 9.1 8.1
23 -16 2 13 9.7
-7 23 2 2.5 10.2
-16 -7 2 -4.7 10.4
-16 -7 2 23.7 10.3
17 6 -2 1.5 8.6
-23 17 -2 6.3 9.3
23 -17 2 13.1 9.7
-17 -6 2 -14.5 9.8
-6 23 2 2.9 9.3
23 -17 2 2.3 8.1
-17 -6 2 8.5 7.9
18 5 -2 9.3 8.6
-23 18 -2 38.9 14.1
-18 -5 2 9.8 12.6
-18 -5 2 22.6 12.2
-18 -5 2 30.8 11.8
-5 23 2 13.6 11.3
23 -18 2 18.9 9.3
23 -18 2 19.2 10.1
-23 19 -2 14.8 12.1
19 4 -2 7.9 9.1
-19 -4 2 -20.1 8.9
23 -19 2 1.1 7.9
-4 23 2 -0.9 8.7
-19 -4 2 4.9 9.6
23 -19 2 4.7 8.1
-19 -4 2 15.9 10.8
3 -23 -2 10.8 5.2
20 3 -2 -14 6
3 -23 -2 0.2 6.1
-23 20 -2 4.2 12.4
-20 -3 2 -4.6 9.1
23 -20 2 21.2 10.7
23 -20 2 10.1 8.8
-3 23 2 -4.5 9.8
-20 -3 2 13.6 12.3
21 2 -2 3.9 8.8
-23 21 -2 -11.3 10.7
2 -23 -2 -0.2 6.1
23 -21 2 8.3 7.9
23 -21 2 14.4 10
-2 23 2 -13.1 9.7
1 -23 -2 11 5.5
1 -23 -2 9.8 7.3
22 1 -2 3 8.5
1 -23 -2 12.9 8.6
23 -22 2 20 9.3
23 -22 2 8.9 9.4
0 -23 -2 3.2 8.5
0 -23 -2 0.9 5.6
23 0 -2 -9.7 6.8
0 -23 -2 1.3 7.1
23 -23 2 -3.1 7.2
23 -23 2 0.5 7.7
-1 -23 -2 17.6 13.3
-1 -23 -2 -1.5 8.9
-1 -23 -2 25.7 7.4
23 -24 2 13.9 9.7
23 -24 2 -1.2 6.9
-2 -23 -2 9.9 7.1
25 -2 -2 2.5 7.9
-2 -23 -2 3.9 12.6
-2 -23 -2 -10.1 8.9
23 -25 2 -13 6.2
23 -25 2 -6.8 8
26 -3 -2 35.9 18.8
-3 -23 -2 28.5 13.2
-3 -23 -2 32.7 18.3
-3 -23 -2 33.1 11.8
23 -26 2 29.3 10.8
23 -26 2 19.6 11.1
27 -4 -2 3.9 9.1
-4 -23 -2 2.4 10.5
-4 -23 -2 -1.2 6.8
-4 -23 -2 -2.9 10.5
23 -27 2 -5.4 9.4
23 -27 2 -1.7 7.7
26 -24 -2 39 10
24 2 2 24.3 12.6
-26 24 2 11.9 15.9
2 -26 2 44.5 23.2
2 -26 2 16.8 9.9
25 -24 -2 9.9 7.3
1 -25 2 9 15.4
-25 24 2 19.4 11.7
24 1 2 5.6 8
1 -25 2 -7.6 10.3
24 -24 -2 15.2 8.1
0 -24 2 24.2 13.8
0 -24 2 3.2 9.8
-24 24 2 26.5 14.1
24 0 2 4.6 8.2
24 0 2 18.5 11.8
0 -24 2 19.1 16.2
23 -24 -2 1.9 5.6
-23 24 2 11.5 15.6
24 -1 2 6.2 11
-1 -23 2 10 17.2
-1 -23 2 12.1 10.7
24 -1 2 8.2 9.4
22 -24 -2 54.79 10.3
24 -2 2 40.6 12.2
-2 -22 2 76.19 18.5
24 -2 2 56.29 15.7
-22 24 2 76.29 18.9
-2 -22 2 28.8 17.3
21 -24 -2 12.8 6.5
-3 -21 2 -0.3 9.5
24 -3 2 22.6 10
24 -3 2 -2.7 9.7
-21 24 2 5.2 11.4
-3 -21 2 3.1 14.9
20 -24 -2 59.49 10.6
-20 24 2 84.19 17.3
-4 -20 2 65.79 16
-4 -20 2 51.59 19.3
24 -4 2 59.69 14.9
24 -4 2 50.19 15
-24 5 -2 -0.3 11.6
19 -24 -2 9.4 5.1
24 -5 2 -2 8.7
-19 24 2 27.1 11.9
-5 -19 2 8.7 10.1
24 -5 2 15.9 10.5
-5 -19 2 23.2 16.8
-24 6 -2 25.7 14.7
18 -24 -2 83.89 10.8
24 -6 2 59.49 14.6
-18 24 2 32 13.9
24 -6 2 73.69 16
-6 -18 2 61.99 15.2
-6 -18 2 25.9 16.9
-24 7 -2 17.9 13.7
17 -24 -2 35.9 7.4
24 -7 2 19.1 9.6
-17 24 2 32.7 13.3
24 -7 2 38.8 13
-7 -17 2 49.9 13.8
-7 -17 2 30.5 16.6
16 -24 -2 67.49 9.5
-24 8 -2 62.99 16.9
24 -8 2 67.29 15.1
-8 -16 2 53.89 17.9
24 -8 2 53.39 12.7
-16 24 2 51.29 15.8
-8 -16 2 56.19 15.2
-24 9 -2 23.9 15.5
-9 -15 2 33.7 11
-9 -15 2 22.6 14
24 -9 2 17.3 10.7
-15 24 2 15.2 11.2
24 -9 2 11.6 8.4
-14 24 2 67.39 15.5
-10 -14 2 31 17.7
-10 -14 2 34.4 12.1
24 -10 2 48.7 13.3
24 -10 2 28 11.3
11 13 -2 38.1 11.3
-24 11 -2 52.09 22.3
-13 24 2 21.4 11.4
-11 -13 2 34 17
24 -11 2 64.19 14.7
-11 -13 2 31.5 13.8
24 -11 2 42.3 13.4
-11 -13 2 50.69 13.6
12 12 -2 100.09 17.8
-24 12 -2 78.39 19.4
24 -12 2 62.49 15.5
-12 -12 2 75.29 16.9
-12 -12 2 75.19 22.9
-12 24 2 89.69 17.7
24 -12 2 80.49 14.5
-12 -12 2 69.79 21.1
-24 13 -2 37.5 12.5
13 11 -2 19.8 9.5
-13 -11 2 35.8 13
-11 24 2 15.1 11.1
24 -13 2 27.6 11.6
24 -13 2 48.7 12.9
-13 -11 2 41 16.8
-13 -11 2 13.1 12.6
-24 14 -2 82.79 18.4
14 10 -2 57.29 13.9
-10 24 2 40.4 13.8
-14 -10 2 58.79 14.7
-14 -10 2 50.69 17.5
24 -14 2 18.3 9.4
24 -14 2 59.49 14.2
-14 -10 2 39.4 13.6
-24 15 -2 18.3 12.2
15 9 -2 8.1 8.9
24 -15 2 20.7 9
-9 24 2 22.3 10.7
-15 -9 2 6.9 13.9
24 -15 2 9 8.9
-15 -9 2 0.5 9.6
-15 -9 2 7.6 9.3
16 8 -2 64.29 13.6
-24 16 -2 21.8 13.6
24 -16 2 45.3 13
-8 24 2 58.99 15.4
-16 -8 2 58.09 17.6
24 -16 2 41.3 11.6
-16 -8 2 28.3 12.3
-16 -8 2 60.29 15.9
17 7 -2 32.2 11.9
-24 17 -2 45.7 14.5
24 -17 2 47.8 12.4
-7 24 2 24.7 11.6
-17 -7 2 30.2 12.5
-17 -7 2 73.49 18.9
-17 -7 2 44 13.4
24 -17 2 23.4 11
-24 18 -2 46.9 15
18 6 -2 75.59 16.6
-18 -6 2 80.39 19.6
-18 -6 2 77.49 17.4
-18 -6 2 73.49 21.4
-6 24 2 38.4 14.5
24 -18 2 80.49 16.2
24 -18 2 87.09 17.8
-24 19 -2 25.9 14
19 5 -2 -3 7.9
24 -19 2 23.3 11.8
-19 -5 2 0.3 13
-19 -5 2 -5.9 8.4
-19 -5 2 18.3 16.8
-5 24 2 26 12.1
24 -19 2 18.8 11
20 4 -2 71.29 16.6
-20 -4 2 37.8 17.1
24 -20 2 103.59 21
24 -20 2 58.69 15.5
-4 24 2 68.19 17.1
21 3 -2 16.4 10.9
24 -21 2 14.8 9.8
24 -21 2 5 9.2
22 2 -2 68.99 16
2 -24 -2 36.3 8.7
2 -24 -2 50.19 14.8
24 -22 2 80.89 17.3
24 -22 2 45.1 13
-2 24 2 55.39 16.4
23 1 -2 -5 9
1 -24 -2 7.5 7.3
1 -24 -2 32.7 12
24 -23 2 14.2 10.6
24 -23 2 16.2 9.2
24 0 -2 12.2 10
0 -24 -2 11.4 10
0 -24 -2 28.2 9.5
0 -24 -2 44.2 8.5
24 -24 2 29.6 10.8
24 -24 2 42.5 12.7
25 -1 -2 -11.7 7.9
-1 -24 -2 13.1 10.9
-1 -24 -2 13.4 6.6
-1 -24 -2 11.3 15.7
24 -25 2 -2.8 7.8
24 -25 2 2.4 8.3
26 -2 -2 8.5 10.7
-2 -24 -2 33.2 9.6
-2 -24 -2 45.5 14.1
-2 -24 -2 49.1 15.9
24 -26 2 29.4 12.4
24 -26 2 60.19 14.8
26 -25 -2 6.9 7.6
1 -26 2 19.1 16.6
25 1 2 -4.6 9.7
1 -26 2 -0.9 8.4
25 -25 -2 4.8 7.5
-25 25 2 4.5 12.3
25 0 2 5.9 9.5
0 -25 2 2.4 7.7
25 0 2 18.2 10.8
24 -25 -2 9 7
-1 -24 2 8.8 9.2
25 -1 2 3.7 10
-24 25 2 3.2 11.6
-1 -24 2 -2.7 13.7
23 -25 -2 5.3 5.8
-2 -23 2 -10.2 13.1
25 -2 2 -7 8.8
-23 25 2 3.3 16.4
25 -2 2 -7.6 7.9
-2 -23 2 5.7 8.1
22 -25 -2 10.2 6.2
-22 25 2 -17.7 11.9
-3 -22 2 -2.4 15.8
-3 -22 2 -5.5 7.6
25 -3 2 4.9 7.2
25 -3 2 13.1 10.5
21 -25 -2 -3.7 4.6
-4 -21 2 -4 8.2
25 -4 2 25 11.3
-21 25 2 31.7 11.8
-4 -21 2 6.5 15.7
-4 -21 2 4.8 9.3
25 -4 2 -12.6 8.1
20 -25 -2 9 5.4
25 -5 2 -0.1 8.4
-5 -20 2 -13.7 8.2
-5 -20 2 9.1 15.7
-20 25 2 3.4 11.3
25 -5 2 13.7 10.8
-5 -20 2 19.4 12.4
19 -25 -2 9.3 5
-6 -19 2 10.7 11
25 -6 2 6.6 9.3
-19 25 2 -7.4 10.2
25 -6 2 3.2 9.2
-6 -19 2 10.7 12.6
-6 -19 2 -14 11.8
18 -25 -2 16.6 5.8
25 -7 2 2.7 9
-18 25 2 17.4 11.5
-7 -18 2 -7.3 8.8
-7 -18 2 3 14.3
-7 -18 2 5.7 10.5
25 -7 2 10.8 9.6
-17 25 2 -6.5 9.6
25 -8 2 3.4 9.9
-8 -17 2 -9.3 7.8
25 -8 2 1.7 6.3
-8 -17 2 2.9 8
-8 -17 2 -11.6 13.3
-25 9 -2 -4.1 17.4
25 -9 2 3.2 7.4
25 -9 2 5.1 10
-9 -16 2 2.1 7.4
-9 -16 2 12.5 9.9
-9 -16 2 -4.5 12.3
-16 25 2 19.9 11.3
-25 10 -2 -1.4 10.4
-10 -15 2 -3.9 7.1
25 -10 2 -3.5 6.3
25 -10 2 2.2 8.4
-15 25 2 15 10.8
-10 -15 2 1.5 7.9
-10 -15 2 -22 9.7
-25 11 -2 2.7 10.6
-14 25 2 -8.6 8.2
-11 -14 2 13.2 9.9
-11 -14 2 15 15
-11 -14 2 0.7 8.4
25 -11 2 6.6 9.1
25 -11 2 6.1 6.9
-25 12 -2 -7.4 10.4
12 13 -2 5.6 7.8
25 -12 2 -5.7 6.8
-12 -13 2 -6 9.7
25 -12 2 -0.5 8.2
-13 25 2 -4.4 9.8
-12 -13 2 10.3 13.6
-12 -13 2 -11.2 6.8
-25 13 -2 5.6 9.2
13 12 -2 3.2 7
25 -13 2 12.4 8.5
25 -13 2 3.4 8.6
-13 -12 2 -13.9 6.1
-13 -12 2 2.5 8.9
-13 -12 2 -2.4 12.4
-25 14 -2 -4.1 10.3
14 11 -2 2.2 7.8
25 -14 2 -8.3 5.4
-14 -11 2 -19.8 11.5
-14 -11 2 -5.7 6.6
-14 -11 2 -3.3 9.3
-11 25 2 13.7 10.9
25 -14 2 -2.3 8.3
15 10 -2 3.1 7.9
-25 15 -2 1.7 10.5
25 -15 2 -6.7 5.2
-15 -10 2 -3 11.2
-15 -10 2 -7.6 8.3
-10 25 2 -10.4 8.9
25 -15 2 -10.4 7.9
-15 -10 2 3.1 8.4
-25 16 -2 -5.2 10.2
16 9 -2 -11.8 6.3
25 -16 2 -0.8 7.1
-16 -9 2 -13.6 9.6
-16 -9 2 -4.4 10.3
-16 -9 2 8.5 9.6
-9 25 2 0.9 10.5
25 -16 2 1.2 7.5
17 8 -2 -11.3 6.8
-17 -8 2 -3.9 8
25 -17 2 -1.6 6.9
-17 -8 2 -0.4 11.5
25 -17 2 -1.4 7.9
-8 25 2 11.9 10.5
18 7 -2 17.6 10.1
25 -18 2 29 11.7
-7 25 2 36.4 13.1
-18 -7 2 32.3 15.1
19 6 -2 1.9 8.6
25 -19 2 16.9 9.7
25 -19 2 10 8.9
-19 -6 2 -8.9 11
-6 25 2 -7 9.7
20 5 -2 12.2 9.9
25 -20 2 24.2 11.2
-20 -5 2 -2.2 14.1
25 -20 2 17 8.8
25 -21 2 -6.4 7.5
-4 25 2 3.4 10.7
-21 -4 2 -17.2 10.7
25 -21 2 -0.4 6.3
22 3 -2 11.9 7.9
-3 25 2 11.4 12
25 -22 2 2.4 9.4
25 -22 2 18.3 10.1
-22 -3 2 2.8 13.2
23 2 -2 9.2 10
-2 25 2 2.3 12.1
25 -23 2 -3.4 8.5
25 -23 2 0.9 8.5
1 -25 -2 3.9 7.6
24 1 -2 -13 8.4
25 -24 2 4.5 8.3
25 -24 2 -5.2 8.1
0 -25 -2 7.4 8.9
0 -25 -2 -8.1 8
25 0 -2 -3.7 9.4
0 -25 -2 2.5 6
25 -25 2 2.8 7.2
25 -25 2 -2.3 8.5
-1 -25 -2 5 7.5
-1 -25 -2 24.8 11.2
26 -1 -2 14.6 11
-1 -25 -2 -10.5 13
25 -26 2 5.7 10.3
25 -26 2 7 8.8
25 -26 -2 7.5 6.9
26 -1 2 26 12.9
-1 -25 2 16.1 17.8
-1 -25 2 16.4 9.1
26 -1 2 3.8 8.3
24 -26 -2 34.8 8.9
-2 -24 2 20.4 11
26 -2 2 32.4 14.4
-24 26 2 59.49 16.3
26 -2 2 25.9 10.6
23 -26 -2 13.6 7.1
26 -3 2 5.1 14.3
-3 -23 2 32.7 19.9
-23 26 2 19.9 14.3
-3 -23 2 10.7 10.3
22 -26 -2 34.5 8.8
-4 -22 2 13.7 15.7
-4 -22 2 53.79 13.9
26 -4 2 31.3 13.4
-22 26 2 45.5 16.7
26 -4 2 49.7 14.2
21 -26 -2 5.6 5.8
26 -5 2 -0.7 7.3
-5 -21 2 5.4 14.7
26 -5 2 10.6 11.5
-5 -21 2 4.8 9
20 -26 -2 35.5 8.1
-6 -20 2 52.59 14.1
26 -6 2 53.79 15.3
-6 -20 2 31.8 18.2
-20 26 2 43.5 16.1
26 -6 2 52.19 13.5
19 -26 -2 13.9 5.4
-7 -19 2 -2.9 14.4
26 -7 2 -4.3 8.6
-19 26 2 34.1 14.5
26 -7 2 12.7 10.8
-7 -19 2 10.5 10.4
18 -26 -2 39.5 7.9
26 -8 2 46.3 14.5
-18 26 2 62.19 16.4
-8 -18 2 58.89 14.1
-8 -18 2 32.1 19.3
26 -8 2 75.79 16.6
-9 -17 2 8.1 14.6
-9 -17 2 14.2 10.1
26 -9 2 23 11.9
-17 26 2 19.1 11.9
26 -9 2 21 10.3
-10 -16 2 31.7 12.7
-10 -16 2 18.5 15
26 -10 2 24.3 11.8
-16 26 2 52.49 15.8
26 -10 2 41.5 12.7
-15 26 2 10.1 11.4
26 -11 2 31.8 11
-11 -15 2 14.9 14.7
26 -11 2 17.2 10.8
-11 -15 2 11.9 9.4
-12 -14 2 54.19 13.8
26 -12 2 44.2 14.1
-12 -14 2 50.19 17
-14 26 2 55.79 15.5
26 -12 2 28.5 11.4
13 13 -2 38.7 12.4
26 -13 2 5.4 8.1
26 -13 2 1 9.1
-13 -13 2 16.1 11.6
-13 26 2 15 11
-13 -13 2 7.9 14.4
14 12 -2 64.39 14.9
26 -14 2 26.2 10.9
-12 26 2 26.2 12
-14 -12 2 31.3 11.7
-14 -12 2 0.7 13.5
26 -14 2 62.49 15.1
15 11 -2 3.5 8.6
-15 -11 2 20.4 14.9
-15 -11 2 6.9 11
26 -15 2 33.9 10.7
26 -15 2 -0.3 9.2
-11 26 2 13.9 11.1
16 10 -2 32.3 12.7
26 -16 2 21.9 11.1
-16 -10 2 42.8 18.5
26 -16 2 34 12.5
-10 26 2 53.39 15.8
17 9 -2 17.6 10
26 -17 2 16.9 9.9
-17 -9 2 -11.3 11.7
26 -17 2 43.2 13
-9 26 2 22.8 11.9
18 8 -2 56.39 13
26 -18 2 39.1 11.9
-18 -8 2 54.89 19.3
-8 26 2 50.79 18.4
26 -18 2 40.7 13.3
19 7 -2 18.6 10.3
26 -19 2 2.6 9
26 -19 2 8.2 10.3
-19 -7 2 -9 13.7
-7 26 2 22.5 16.4
20 6 -2 32.6 13.2
26 -20 2 40.5 12.5
26 -20 2 45.4 13.2
-20 -6 2 81.49 21.3
-6 26 2 58.69 18.6
21 5 -2 8.9 9.5
-5 26 2 18.6 12.4
26 -21 2 8.4 9.7
-21 -5 2 -1.4 13.4
26 -21 2 8.1 9.3
22 4 -2 22.7 13.2
26 -22 2 53.49 14.5
26 -22 2 37.6 12.7
-4 26 2 27.7 14.3
23 3 -2 13.8 11
-23 -3 2 9.2 16.3
26 -23 2 23.8 11.3
26 -23 2 15.7 10.2
24 2 -2 47.8 14.2
26 -24 2 47.9 14.1
26 -24 2 50.59 14.5
25 1 -2 7.9 9.9
26 -25 2 3.8 9.2
26 -25 2 11.4 10.1
23 -27 -2 -2.8 5.3
-4 -23 2 -4.3 13.8
27 -4 2 -4 9.4
-4 -23 2 -5.9 10.8
27 -4 2 -15.5 7.8
-23 27 2 1.8 11.5
22 -27 -2 -2.4 5.2
27 -5 2 -4.5 7
-22 27 2 -28 11.8
-5 -22 2 11.1 9.7
-5 -22 2 12.9 16.7
21 -27 -2 5.2 5.6
-6 -21 2 16.5 17.5
-21 27 2 16.2 12.2
27 -6 2 -3 7.9
27 -6 2 1.3 9.5
-6 -21 2 -9 7.9
20 -27 -2 8.1 5.3
-7 -20 2 2.7 8.4
-7 -20 2 8.3 16.8
-20 27 2 9.4 15.2
27 -7 2 17.2 11.9
27 -7 2 22.8 15.8
19 -27 -2 6 4.3
27 -8 2 -2.1 7.6
-8 -19 2 -3 8.5
-8 -19 2 -11.1 14.2
27 -8 2 7.9 8.9
-18 27 2 18.3 13
27 -9 2 16 11.5
27 -9 2 10.6 8.6
-9 -18 2 -6.7 8.3
-9 -18 2 17.1 17.1
-17 27 2 -17 10.3
27 -10 2 11.9 9.2
-10 -17 2 2.6 8
27 -10 2 -9.1 8.3
-10 -17 2 29.3 17.4
-11 -16 2 5.6 8.7
27 -11 2 21.3 11.5
-16 27 2 -17.6 9.5
-11 -16 2 9.9 13.8
27 -11 2 5.5 8.2
27 -12 2 -4.3 6.5
27 -12 2 -14.8 8.1
-12 -15 2 -12.5 12.7
-12 -15 2 3.8 10.3
-15 27 2 -11.7 10
-13 -14 2 -2.4 13.3
27 -13 2 -17.7 8.6
27 -13 2 -2.3 6.4
-14 27 2 7.3 10
14 13 -2 -1.5 7.6
27 -14 2 -0.8 7.4
-14 -13 2 11.9 15.3
-13 27 2 -2.4 9.5
27 -14 2 11.2 9.6
27 -15 2 2.9 7.9
27 -15 2 -7.5 5.6
-15 -12 2 -8.3 12.5
-12 27 2 -0.3 10.7
16 11 -2 -14.1 6.5
27 -16 2 -1.7 6.7
27 -16 2 2.9 9.7
-16 -11 2 13 14.9
17 10 -2 -11.2 7.2
27 -17 2 -11.2 8.6
-10 27 2 14.8 17.8
-17 -10 2 -17.5 11.6
27 -17 2 8 8.5
18 9 -2 13.4 8.9
27 -18 2 14 9.9
27 -18 2 10.2 10.4
-18 -9 2 9.7 15.1
-9 27 2 9.5 11.7
19 8 -2 0.3 7.7
27 -19 2 -10.1 8.8
-8 27 2 2.5 10.2
-19 -8 2 3.6 13.1
27 -19 2 -1.5 7.9
20 7 -2 14.8 10.8
27 -20 2 7.5 8.7
27 -20 2 -5.4 8
-7 27 2 -0.9 11.4
27 -21 2 14.2 10.2
27 -21 2 -8.1 7.6
-6 27 2 -3.8 11.6
22 5 -2 -5.3 8.8
27 -22 2 5 9.6
-22 -5 2 4.6 16.8
27 -22 2 1.7 8.5
23 4 -2 13.9 11
27 -23 2 -9.8 6.9
27 -23 2 -2.1 7.8
-23 -4 2 -0.6 15.5
22 -28 -2 4 6.2
-22 28 2 15.4 15.7
-6 -22 2 19.1 19.7
28 -6 2 11.3 9.5
28 -6 2 9.4 10.9
21 -28 -2 -1.1 4.8
28 -7 2 2.2 8.2
-21 28 2 8.8 13.9
-7 -21 2 14 18.6
28 -7 2 -16.4 15.3
-8 -20 2 2.2 18.2
28 -8 2 22.4 13.3
28 -8 2 10.7 10.1
-20 28 2 6.9 12.8
-19 28 2 -8.7 11.3
28 -9 2 12 10.9
-9 -19 2 6 15.6
28 -9 2 -1.3 7.9
28 -10 2 16.2 12.9
28 -10 2 33.8 11.9
-18 28 2 -1.7 11.2
-10 -18 2 5.3 18.3
28 -11 2 4 10.7
-17 28 2 0 10.8
-11 -17 2 23.7 15.4
28 -12 2 17.9 11.8
-16 28 2 -1.8 12
28 -12 2 8.1 8.9
-12 -16 2 10.2 17
28 -13 2 -1.9 8.9
-13 -15 2 -19.1 12.6
-15 28 2 1.5 11.4
28 -13 2 1.9 7.7
28 -14 2 -9.1 7
-14 -14 2 15.1 17.7
28 -14 2 15.2 11.5
-14 28 2 14.2 11.9
15 13 -2 8.5 8.1
-15 -13 2 25.1 17.7
28 -15 2 9.4 11.4
28 -15 2 1.8 7.8
-13 28 2 1.3 11.8
16 12 -2 30.1 11.3
-12 28 2 14.7 11.5
28 -16 2 21.4 9.8
28 -16 2 1.9 10.7
-16 -12 2 10.1 16.1
17 11 -2 4.3 8.9
28 -17 2 1.5 9.2
-11 28 2 18.8 11
28 -17 2 17.1 10.8
18 10 -2 38.5 13.5
28 -18 2 28.4 13.5
-10 28 2 23.5 14.4
28 -18 2 43.2 14.6
19 9 -2 16 17.7
-19 -9 2 -17.4 12.8
28 -19 2 -1.5 10.7
28 -19 2 -1.9 9
-9 28 2 -9.8 11
20 8 -2 16.3 10.3
28 -20 2 19 10.9
28 -20 2 17.1 11.6
-20 -8 2 -0.6 14.9
21 7 -2 14.6 10.3
28 -21 2 10.2 11.2
-21 -7 2 22.6 16.6
28 -21 2 6.3 9.2
22 6 -2 12 10.9
28 -22 2 33.9 12.7
-22 -6 2 19.4 15.8
28 -22 2 5.2 10.1
-19 29 2 22.9 13.7
29 -10 2 8.4 9
29 -11 2 4.5 7.9
-18 29 2 22.4 14
29 -11 2 2.9 9.5
29 -12 2 15.2 11.4
-17 29 2 1 12.4
29 -12 2 10.3 8.7
29 -13 2 0.7 10
-16 29 2 -12.3 10.9
-13 -16 2 11.3 19.3
29 -13 2 -10.1 6.8
-14 -15 2 -1.1 17.3
29 -14 2 -3.8 6.7
-15 29 2 4 11.7
29 -14 2 6.4 10.3
15 14 -2 12.9 8.5
-15 -14 2 28.2 18.7
29 -15 2 20.1 11.7
29 -15 2 -9.1 7.4
-14 29 2 -0.3 11.6
16 13 -2 17.2 9.7
-16 -13 2 -11.4 16
-13 29 2 4 12.9
29 -16 2 2.4 8.2
29 -16 2 12.8 11.3
17 12 -2 -23.7 7.8
-12 29 2 -30.2 12.4
-17 -12 2 -12.4 13.9
29 -17 2 5.5 11.8
29 -17 2 10.8 8.8
18 11 -2 10.6 11.5
-18 -11 2 1.2 17
29 -18 2 2.4 7.2
29 -18 2 11 10.9
19 10 -2 9.3 10.8
29 -19 2 33 12.2
-19 -10 2 2.8 14.4
29 -19 2 -12 8.4
0 0 -3 1214.98 99.99
0 0 3 1180.48 100.79
0 1 -3 39.9 6.6
-1 0 -3 36.5 6
-1 1 3 36.2 6.1
1 0 3 49.1 7.6
-1 1 -3 17.2 5.6
1 -1 3 30.3 7.1
-1 0 3 35.3 6.3
-1 2 -3 11.2 5.4
1 1 3 4.3 4.7
1 -2 3 6 6
-1 3 -3 158.28 17.7
-2 -1 -3 173.18 16
1 -3 3 146.89 17.8
2 1 3 180.28 16.8
-3 2 3 155.18 16.4
-2 0 -3 267.07 23.5
0 2 -3 248.68 23.7
-2 2 3 244.88 22
0 -2 3 245.78 24.4
2 0 3 253.77 23.9
-2 1 -3 24.4 5.4
-1 2 3 7.9 3.5
-1 -1 3 5.8 5
2 -1 3 16.5 6.1
-2 2 -3 245.08 23.6
2 -2 3 242.68 24.1
-2 0 3 229.38 22.7
0 2 3 258.27 22.2
-2 3 -3 164.48 17.8
2 -3 3 175.78 18.7
1 2 3 149.39 16
-3 1 3 160.08 16
-3 1 3 181.78 16.9
-2 -2 -3 336.77 28.4
-2 4 -3 300.07 30.5
-4 2 3 302.37 29.4
2 2 3 346.27 29.5
2 -4 3 345.87 31.4
-3 -2 -3 50.09 7.9
-2 5 -3 67.59 11.1
-5 3 3 80.69 9.3
3 2 3 62.09 9
2 -5 3 47.8 11.4
-1 4 -3 -9.1 4.8
-3 -1 -3 -1.6 3.9
3 1 3 0.1 4.3
1 -4 3 -0.2 5.8
-4 3 3 6.8 3.4
-3 0 -3 11 4.9
0 3 -3 1.5 4.9
-3 3 3 2.8 3.3
0 -3 3 5.1 5.5
3 0 3 4.2 5.1
-3 1 -3 159.78 17
1 2 -3 157.38 16.7
3 -1 3 176.58 17.9
-1 -2 3 162.18 17.6
-3 2 -3 177.28 18.5
3 -2 3 162.48 18.7
-2 -1 3 185.58 18.2
-3 3 -3 0 5.2
0 3 3 0.9 3.4
-3 0 3 3.1 3.7
-3 0 3 -1.7 4.2
3 -3 3 -5.6 5.3
-3 4 -3 2.2 5.7
1 3 3 3.2 3.7
3 -4 3 -6.3 5.6
-4 1 3 9.6 4.1
-3 5 -3 78.09 12
3 -5 3 60.29 11.6
2 3 3 57.89 8.6
-5 2 3 70.69 9.5
-3 6 -3 27.8 8.7
-3 -3 -3 33.4 7.1
3 3 3 24.7 6.2
7 -4 -3 52.09 8.2
-4 -3 -3 26.3 6.3
-3 7 -3 22.9 9.1
4 3 3 50.89 7.9
-7 4 3 31 6.5
4 3 3 39.6 6.8
3 -7 3 39.4 10.4
6 -4 -3 505.35 41.8
-2 6 -3 437.46 43.1
-4 -2 -3 447.36 41.1
4 2 3 486.45 41.8
-6 4 3 473.65 41.4
-4 -1 -3 53.79 8.3
-1 5 -3 56.79 10.3
4 1 3 51.49 8.7
-5 4 3 56.59 7.7
1 -5 3 56.29 10.9
-4 0 -3 242.48 23.8
0 4 -3 259.37 25
0 -4 3 240.88 25.3
4 0 3 267.47 24.5
-4 4 3 252.87 22.9
1 3 -3 -2.9 4.9
-4 1 -3 19.8 6
4 -1 3 5.3 5.2
-3 4 3 3 2.7
-1 -3 3 -1.7 5.1
-4 2 -3 285.97 30.5
-2 -2 3 309.47 30.8
-2 -2 3 382.76 31.4
4 -2 3 364.26 31.3
-4 3 -3 10.4 5.8
-3 -1 3 -2.1 4.7
4 -3 3 0.1 5.7
-3 -1 3 0.3 4
-4 4 -3 225.28 24.9
-4 0 3 252.77 23.9
-4 0 3 276.97 24.4
4 -4 3 230.78 25.3
0 4 3 262.37 22.3
-4 5 -3 40.5 9.6
1 4 3 52.89 7.9
-5 1 3 70.09 9.5
4 -5 3 66.39 12.1
-4 6 -3 425.66 42.2
6 -2 -3 525.35 41.7
2 4 3 469.55 40.2
4 -6 3 377.66 45.2
-6 2 3 470.75 41
7 -3 -3 37.5 7.7
-4 7 -3 40.7 10.1
-3 -4 -3 41.7 6.7
-3 -4 -3 25.3 7.1
3 4 3 41.5 6.9
3 4 3 43.6 7.4
-7 3 3 35.2 6.8
4 -7 3 36.8 10.1
8 -4 -3 272.77 25.9
-4 -4 -3 253.17 24.7
-4 8 -3 235.78 27.8
4 4 3 292.17 25.2
4 4 3 288.87 25.6
4 -8 3 274.87 28.7
-8 4 3 252.67 25.4
-5 -4 -3 58.59 9.9
-4 9 -3 74.89 13.8
9 -5 -3 77.59 11.2
5 4 3 64.89 10.9
5 4 3 77.39 10
4 -9 3 69.19 14
-9 5 3 74.89 10.4
-5 -3 -3 22.4 6.6
-3 8 -3 28 9.6
8 -5 -3 38.2 6.9
5 3 3 24.1 6.3
-8 5 3 37 6.7
3 -8 3 11.4 9.3
5 3 3 15.6 6.5
-5 -2 -3 34.2 7.9
7 -5 -3 36.5 7.3
5 2 3 47.9 8.8
5 2 3 52.49 8.1
-7 5 3 51.69 7.8
2 -7 3 53.99 11.8
6 -5 -3 125.29 12.5
-5 -1 -3 81.99 12.4
-1 6 -3 91.99 14.4
5 1 3 101.89 13.3
1 -6 3 126.59 17.3
-6 5 3 103.09 11.6
0 5 -3 128.69 15.9
-5 0 -3 84.69 13
-5 5 3 107.99 11.1
0 -5 3 116.79 15.6
5 0 3 96.29 13.4
-5 1 -3 45.6 8.9
1 4 -3 63.49 10.5
-1 -4 3 54.29 10.4
5 -1 3 54.79 9.5
-4 5 3 49.9 7
-5 2 -3 73.19 10.4
-3 5 3 52.59 7.1
-2 -3 3 42 8.4
-2 -3 3 77.69 11.4
5 -2 3 53.99 9.7
-5 3 -3 63.89 11.3
5 -3 3 67.89 11.2
-3 -2 3 85.69 11.8
-3 -2 3 64.49 10.7
-5 4 -3 37.5 9.6
5 -4 3 57.59 10.5
-4 -1 3 78.69 10.7
-4 -1 3 51.89 8.8
-5 5 -3 89.19 13.8
-5 0 3 99.49 12.7
0 5 3 100.69 10.5
5 -5 3 115.39 17.3
6 -1 -3 139.79 15.3
-5 6 -3 114.29 15.8
1 5 3 103.19 12.1
5 -6 3 105.99 16
-6 1 3 124.49 14.2
-5 7 -3 21.6 9
7 -2 -3 27.7 7.2
2 5 3 29.1 6.5
-7 2 3 31.4 6.5
2 5 3 36 5.8
5 -7 3 46.9 10.6
-5 8 -3 15.2 8.5
8 -3 -3 30.7 8.1
-3 -5 -3 11.7 4.9
-3 -5 -3 24.7 5.6
3 5 3 28.9 6.4
5 -8 3 14.2 8.7
3 5 3 12.2 4.7
-8 3 3 34 6.2
-5 9 -3 72.39 12.9
9 -4 -3 52.59 11.7
-4 -5 -3 59.99 9.2
-4 -5 -3 68.39 10.1
-9 4 3 72.89 10.2
5 -9 3 73.89 13.8
4 5 3 61.79 10
4 5 3 73.59 9.5
-5 10 -3 15.8 9.3
-5 -5 -3 11.4 6.3
-5 -5 -3 12.2 5.7
10 -5 -3 27 6.3
5 -10 3 15.2 9.5
5 5 3 13.9 6.6
5 5 3 20 5.3
-10 5 3 34.5 6.7
11 -6 -3 94.49 13
-5 11 -3 63.29 14.5
-6 -5 -3 70.09 12.1
-6 -5 -3 93.09 13
5 -11 3 84.89 16
6 5 3 74.29 11
6 5 3 109.99 13.3
-11 6 3 82.59 12.1
-11 6 3 98.59 12
-4 10 -3 476.55 45.8
10 -6 -3 490.65 45
-6 -4 -3 459.65 43.1
4 -10 3 476.75 46.1
-10 6 3 497.45 42.3
6 4 3 474.55 42.9
-10 6 3 478.95 43.2
6 4 3 487.35 43.7
-6 -3 -3 93.59 13.5
9 -6 -3 109.09 13.4
-3 9 -3 125.89 17.6
6 3 3 101.59 14
3 -9 3 96.69 16.8
6 3 3 103.19 13.1
-9 6 3 112.09 13
-2 8 -3 486.55 45.8
8 -6 -3 506.55 43.4
-6 -2 -3 448.96 43.6
-8 6 3 519.85 43.2
2 -8 3 486.65 45.9
6 2 3 483.65 43.7
7 -6 -3 115.09 13.8
-6 -1 -3 123.89 15.4
-1 7 -3 123.79 17.2
6 1 3 110.89 14.6
-7 6 3 144.69 13.7
1 -7 3 114.79 17.6
6 1 3 150.08 16
0 6 -3 969.2 80.49
-6 0 -3 839.62 78.79
6 0 3 897.11 79.29
-6 6 3 940.01 77.89
0 -6 3 970.3 80.69
1 5 -3 97.49 14.4
-6 1 -3 104.49 13.5
-1 -5 3 77.99 20.7
6 -1 3 96.89 13.7
-5 6 3 99.79 10.4
-6 2 -3 448.16 39.6
2 4 -3 424.16 39.6
-4 6 3 392.86 37.5
-2 -4 3 424.66 40.2
6 -2 3 466.35 40.2
-2 -4 3 470.45 40.2
-6 3 -3 45.4 8.8
-3 6 3 38.8 5.3
6 -3 3 39.3 8.9
-3 -3 3 42.2 9.3
-3 -3 3 35 7.3
-6 4 -3 471.05 41.5
-4 -2 3 456.05 40.9
-4 -2 3 471.45 40.8
6 -4 3 360.36 46.7
-6 5 -3 126.39 16
-5 -1 3 124.09 15.7
6 -5 3 123.59 16.7
-5 -1 3 96.79 13.9
-6 6 -3 895.11 79.69
6 0 -3 891.51 80.89
0 6 3 911.31 76.79
6 -6 3 915.41 79.79
-6 0 3 950 78.89
7 -1 -3 144.19 16.1
-6 7 -3 126.19 17.6
1 6 3 137.49 13.6
-7 1 3 133.49 15.2
1 6 3 113.89 12.7
6 -7 3 126.69 17.9
8 -2 -3 507.45 44.1
-6 8 -3 435.06 44.8
-8 2 3 492.05 43.4
6 -8 3 472.75 45.3
2 6 3 466.95 41.7
2 6 3 512.75 42.4
-3 -6 -3 117.79 13
9 -3 -3 126.19 15.4
-3 -6 -3 113.09 12.2
-6 9 -3 96.69 17
3 6 3 118.29 12.4
3 6 3 126.19 13.8
-9 3 3 105.69 14.2
6 -9 3 105.79 16.9
10 -4 -3 533.75 44.3
-4 -6 -3 455.55 42.1
-4 -6 -3 521.15 42.7
-6 10 -3 495.35 46
4 6 3 447.36 43.8
4 6 3 472.15 42.1
-10 4 3 494.75 43.7
6 -10 3 419.96 45.2
-6 11 -3 89.39 15.9
11 -5 -3 91.89 13.4
-5 -6 -3 97.79 12.6
-5 -6 -3 101.79 13.1
5 6 3 103.79 11.8
-11 5 3 94.59 12.8
6 -11 3 64.09 14.7
-11 5 3 93.79 13.3
5 6 3 91.69 13
12 -6 -3 361.66 35.5
-6 12 -3 389.36 38.5
-6 -6 -3 355.36 35.1
-6 -6 -3 351.36 34.7
-12 6 3 366.16 34.6
6 6 3 362.86 35.6
-12 6 3 374.26 35.3
6 6 3 417.36 35.8
6 -12 3 392.96 38.6
-6 13 -3 20.4 13.2
13 -7 -3 34.5 8.3
-7 -6 -3 24 8.1
-7 -6 -3 44.9 11
-13 7 3 40.8 8.5
7 6 3 37.8 8
7 6 3 30.8 8.7
6 -13 3 31.2 10.9
-13 7 3 25.7 7.9
-7 -5 -3 21 7.7
-5 12 -3 38.1 11.2
12 -7 -3 28.8 7.6
-12 7 3 28.6 7.4
7 5 3 41.4 8.9
-12 7 3 28.8 7.6
5 -12 3 23.1 11
7 5 3 42.7 7.8
11 -7 -3 10 5.5
-7 -4 -3 14.9 6.6
-4 11 -3 6.8 8.7
7 4 3 15.4 5.9
-11 7 3 9.9 5.7
4 -11 3 15.1 9.7
7 4 3 12.8 7.1
-11 7 3 14.2 5.6
-7 -3 -3 33.2 8.1
10 -7 -3 37.4 7.3
-3 10 -3 17.4 9.3
-10 7 3 35 6.9
-10 7 3 42.2 6.8
3 -10 3 15.2 10
7 3 3 23.7 7.7
7 3 3 32 7
-2 9 -3 24.1 9.8
9 -7 -3 27.3 6.6
-7 -2 -3 25 7.6
2 -9 3 25.6 10.1
7 2 3 31.5 8
7 2 3 31.1 7.5
-9 7 3 39.9 6.7
-7 -1 -3 12.4 6.1
8 -7 -3 23 5.6
-1 8 -3 25.2 9.2
7 1 3 22.6 7.9
7 1 3 21.9 6.7
-8 7 3 11.7 4.8
1 -8 3 12 8.9
0 7 -3 86.39 14.3
7 -7 -3 89.39 10.8
-7 0 -3 96.29 13.6
0 -7 3 116.49 16.3
7 0 3 102.39 13.1
-7 7 3 95.09 10.3
7 0 3 59.29 12
1 6 -3 129.29 16.4
-7 1 -3 107.59 14.9
7 -1 3 106.29 15.5
-6 7 3 119.19 12.1
-1 -6 3 122.69 15.5
-1 -6 3 119.29 17
-7 2 -3 49.6 9.3
2 5 -3 32.1 9.2
-2 -5 3 22.2 7.5
-2 -5 3 33.2 9.9
7 -2 3 49.1 9.7
-7 3 -3 26.3 7.8
7 -3 3 24.6 8.1
-3 -4 3 29.1 7.1
-7 4 -3 28.6 8.7
7 -4 3 36.9 9.1
-4 -3 3 29.2 7.3
-4 -3 3 42.9 9.5
-7 5 -3 35.2 9.7
-5 -2 3 39.2 9.6
-5 -2 3 35.9 7.9
7 -5 3 42.8 10.1
6 1 -3 126.49 15.8
-7 6 -3 125.89 17.1
-1 7 3 122.59 11.9
-1 7 3 113.69 12.5
7 -6 3 130.19 17.2
-6 -1 3 118.29 15.1
7 0 -3 108.99 13.5
-7 7 -3 72.89 13.3
0 7 3 85.39 8.8
0 7 3 80.29 9.8
7 -7 3 119.29 16
-7 0 3 66.69 10.8
8 -1 -3 27.6 7.4
-7 8 -3 14.8 8.6
1 7 3 20.1 4.2
-8 1 3 24.7 6.4
1 7 3 24.5 5.9
7 -8 3 27.4 9.4
-7 9 -3 27.7 10.1
9 -2 -3 34.5 8.5
2 7 3 42 7.5
7 -9 3 32.8 10.7
2 7 3 39.4 5.9
-9 2 3 30.1 7.5
10 -3 -3 37.9 8.7
-7 10 -3 37.7 11.2
-3 -7 -3 34.7 6.7
-3 -7 -3 34.6 6.2
7 -10 3 32.2 10.8
-10 3 3 35.4 7.9
3 7 3 37.2 7.6
3 7 3 38.5 6.3
11 -4 -3 21.4 7.3
-4 -7 -3 10.9 6
-7 11 -3 -0.6 8.4
-4 -7 -3 15 5.5
4 7 3 13.5 4.4
-11 4 3 5.4 5.4
7 -11 3 7.4 9.1
4 7 3 16.4 6.4
-11 4 3 19.6 6.5
-5 -7 -3 26.2 7.2
12 -5 -3 22.2 7.8
-7 12 -3 22.9 10.3
-5 -7 -3 43.2 8.5
-12 5 3 34.3 7.8
5 7 3 32.5 8.2
7 -12 3 36.3 11.3
5 7 3 32.1 6.6
-12 5 3 28 7.9
-6 -7 -3 24.2 7.6
-7 13 -3 6.2 12.4
13 -6 -3 12.7 7.2
-6 -7 -3 41.3 9.3
6 7 3 39.7 9
6 7 3 29.8 7.6
-13 6 3 34.6 8.5
-13 6 3 43.4 8.8
-7 -7 -3 65.29 12.2
14 -7 -3 61.39 11.4
-7 -7 -3 51.99 10.7
-7 14 -3 62.19 14.4
7 7 3 61.09 12
7 7 3 55.19 9.4
-14 7 3 76.39 11.8
-14 7 3 64.09 11.8
7 -14 3 74.29 15.5
-8 -7 -3 11.3 7.6
-7 15 -3 8.4 10
15 -8 -3 11.2 7
-8 -7 -3 9.1 8.9
8 7 3 16.7 6.3
-15 8 3 11.6 7.1
-15 8 3 24.6 8
7 -15 3 24.4 12
8 7 3 22.9 8.2
14 -8 -3 253.77 27.7
-6 14 -3 254.37 30.6
-8 -6 -3 272.37 27.6
-8 -6 -3 285.07 28.4
-14 8 3 278.47 27.3
6 -14 3 286.17 31.4
8 6 3 256.87 26.5
8 6 3 299.67 28.5
-14 8 3 248.68 27.3
-8 -5 -3 23.4 8.4
13 -8 -3 27 7.9
-5 13 -3 25 19.3
5 -13 3 11.4 11.3
8 5 3 47.3 8.8
8 5 3 43 9.6
-13 8 3 51.39 9.2
-13 8 3 29.4 8.1
12 -8 -3 250.17 25.5
-8 -4 -3 244.88 26.4
-4 12 -3 254.37 29
8 4 3 259.17 26.3
8 4 3 265.47 25.4
4 -12 3 195.18 28.6
-12 8 3 264.77 25.4
-12 8 3 282.47 25
-8 -3 -3 125.99 15.7
-3 11 -3 117.09 17.8
11 -8 -3 103.49 13.9
-11 8 3 111.09 13
8 3 3 108.59 15.5
8 3 3 115.69 14.1
-11 8 3 106.89 13.6
3 -11 3 113.79 17.9
-2 10 -3 338.17 35.5
-8 -2 -3 331.77 33.4
10 -8 -3 376.96 32.3
-10 8 3 365.26 31.2
2 -10 3 312.37 35.5
8 2 3 365.16 33.9
8 2 3 361.56 33
-10 8 3 334.07 31.9
-8 -1 -3 10.4 6.7
-1 9 -3 10.8 8.1
9 -8 -3 8.9 4.6
8 1 3 18.6 6.6
1 -9 3 5.7 8.5
-9 8 3 13.4 4.9
8 1 3 7.9 6.2
0 8 -3 386.96 36.9
-8 0 -3 364.36 35.6
8 -8 -3 378.66 33.5
0 -8 3 360.86 37.1
8 0 3 360.96 35.1
8 0 3 401.46 35.7
-8 8 3 382.66 33.3
-8 1 -3 33.5 8.2
7 -8 -3 20.3 4.8
1 7 -3 27.2 9
-1 -7 3 35.3 8.6
-1 -7 3 49.2 11.2
8 -1 3 34.1 8.2
8 -1 3 22.6 6.6
-7 8 3 18.2 4.4
-8 2 -3 411.56 42.5
2 6 -3 477.05 43.7
-2 -6 3 500.65 44.4
-6 8 3 443.96 40.9
-2 -6 3 523.25 43.5
8 -2 3 471.05 43
-8 3 -3 26.9 8.1
8 -3 3 34.9 8.4
-3 -5 3 10.4 5.5
-3 -5 3 13.8 8.4
-8 4 -3 280.27 28.7
8 -4 3 292.67 28.9
-4 -4 3 251.37 28.8
-4 -4 3 342.57 30.7
-8 5 -3 31.8 8.2
-5 -3 3 18.5 8.3
8 -5 3 47.6 9.2
-5 -3 3 17 6.7
-8 6 -3 464.65 45
6 2 -3 475.65 44.7
-2 8 3 461.75 41.3
8 -6 3 509.05 45.5
-2 8 3 538.05 41.7
-6 -2 3 457.55 44.2
-6 -2 3 499.95 46.1
-8 7 -3 15.8 8.2
7 1 -3 28.9 7.6
-1 8 3 19.1 5.5
-7 -1 3 14.7 6.2
-1 8 3 28.7 5
8 -7 3 26.6 9.6
-8 8 -3 322.77 35.6
8 0 -3 385.56 35.4
0 8 3 380.16 32.7
-8 0 3 366.66 34.8
8 -8 3 378.16 36.4
-8 9 -3 14.1 8.1
9 -1 -3 2.1 5.4
1 8 3 6.2 4.6
8 -9 3 7.6 8
-9 1 3 17.7 6.3
1 8 3 12.8 3.4
10 -2 -3 339.47 33.9
-8 10 -3 378.36 35.8
-10 2 3 347.07 33.4
2 8 3 345.77 30.7
8 -10 3 302.67 34.9
2 8 3 373.76 32.3
-3 -8 -3 112.79 13.3
-3 -8 -3 102.39 12.4
-8 11 -3 147.59 20
11 -3 -3 100.59 15.1
-11 3 3 121.59 14.5
-11 3 3 114.49 15.1
3 8 3 105.79 12.1
3 8 3 147.99 21.5
8 -11 3 101.59 17.9
-4 -8 -3 288.57 26.7
-8 12 -3 289.17 31
-4 -8 -3 254.27 25.9
12 -4 -3 267.07 28.1
-12 4 3 275.87 27.5
4 8 3 280.37 25.5
-12 4 3 238.28 27.6
8 -12 3 289.17 30.7
4 8 3 303.97 27.5
-8 13 -3 21.3 18.8
-5 -8 -3 27.6 8.3
13 -5 -3 33 9.3
-5 -8 -3 24.5 7.2
8 -13 3 32.1 12
5 8 3 48 9.3
-13 5 3 25.1 8.1
5 8 3 41.3 7.4
-13 5 3 38.8 9
-8 14 -3 224.68 30.1
-6 -8 -3 259.77 26.9
14 -6 -3 269.77 28.4
6 8 3 304.57 28.2
-14 6 3 265.57 28.1
6 8 3 270.87 25.9
-14 6 3 277.37 27.7
8 -14 3 286.77 31.5
-8 15 -3 16.2 9.9
15 -7 -3 10.5 7.2
-7 -8 -3 20.9 8.9
-7 -8 -3 12.9 7.5
8 -15 3 2.7 10.2
-15 7 3 26 8.7
7 8 3 23.6 6.5
-15 7 3 26.6 9
7 8 3 21.4 8.2
16 -8 -3 279.17 28.2
-8 -8 -3 281.37 28.5
-8 16 -3 260.27 31
-8 -8 -3 239.78 27.5
8 -16 3 237.98 31.2
-16 8 3 240.98 30.9
8 8 3 274.37 27.9
-16 8 3 277.87 28.1
8 8 3 259.47 26
-9 -8 -3 7.7 8
-8 17 -3 13.1 12.2
-9 -8 -3 13.4 9.2
17 -9 -3 5.3 7
9 8 3 13 6.1
8 -17 3 0.5 9.6
-17 9 3 11.9 7.3
-17 9 3 0.1 6.8
9 8 3 0.4 6.8
16 -9 -3 69.39 12.2
-9 -7 -3 69.69 13.4
-7 16 -3 60.99 14.4
-9 -7 -3 50.59 13.3
-16 9 3 71.09 12.8
-16 9 3 77.09 13
9 7 3 97.89 12.4
9 7 3 60.19 12.3
7 -16 3 76.39 16.8
15 -9 -3 11.3 7
-9 -6 -3 15.2 8.3
-6 15 -3 -8.8 8.5
-9 -6 -3 17.8 8.6
9 6 3 11.1 7.3
-15 9 3 13.6 6.9
9 6 3 19.3 7.1
6 -15 3 6.2 9.7
-15 9 3 9 7.1
-9 -5 -3 18 8.4
-5 14 -3 23.2 10.7
14 -9 -3 25.2 8
-14 9 3 32.2 7.8
-14 9 3 26 7.7
9 5 3 25.3 7.3
9 5 3 21.5 8.3
5 -14 3 33.5 12.8
13 -9 -3 36.9 8.5
-9 -4 -3 39 9.5
-4 13 -3 32.4 20.4
-13 9 3 40.9 8.5
4 -13 3 44.5 12.5
-13 9 3 45.4 8.6
9 4 3 26.6 9
9 4 3 42.9 9.1
12 -9 -3 4.9 5.3
-9 -3 -3 7.9 6.9
-3 12 -3 6.8 9
9 3 3 1.1 4.5
3 -12 3 9.5 9.5
-12 9 3 4.5 5.3
9 3 3 7.3 6.5
-12 9 3 3.4 5
11 -9 -3 6 4.9
-2 11 -3 1.1 7.5
-9 -2 -3 8.7 6.9
-11 9 3 8.9 5
9 2 3 -1.4 5.8
-11 9 3 10.6 5
9 2 3 15 6.1
2 -11 3 4.9 8.9
-1 10 -3 144.69 19.8
-9 -1 -3 102.49 15.9
10 -9 -3 152.78 13.9
9 1 3 117.29 15.8
-10 9 3 101.39 12.9
1 -10 3 129.49 18.6
9 1 3 117.49 15.1
-10 9 3 97.09 12.2
9 -9 -3 86.29 10.3
-9 0 -3 58.59 11.8
0 9 -3 76.59 13.9
9 0 3 92.59 12.3
0 -9 3 101.79 15.7
-9 9 3 67.59 9.5
0 -9 3 63.59 11.3
9 0 3 85.09 13.3
8 -9 -3 10.5 4.1
-9 1 -3 13.6 7.1
1 8 -3 -1 6.8
9 -1 3 5.9 5.8
9 -1 3 16.9 6.7
-1 -8 3 16.3 9.3
-1 -8 3 10.4 5.7
-8 9 3 14.6 4.1
2 7 -3 44.8 10.2
-9 2 -3 30 8.8
-2 -7 3 31.3 8.9
9 -2 3 34.2 7.9
9 -2 3 24.2 8.5
-2 -7 3 34.9 10.7
-7 9 3 28.1 4.8
-9 3 -3 106.99 15.7
-3 -6 3 119.09 17
9 -3 3 110.59 15.1
-3 -6 3 89.09 14
-9 4 -3 60.69 11.4
-4 -5 3 55.39 10.8
-4 -5 3 83.99 13.8
9 -4 3 57.39 11.5
-9 5 -3 64.39 12.2
-5 -4 3 59.79 10.4
9 -5 3 62.89 11.6
-5 -4 3 63.39 12.6
-9 6 -3 112.39 16.3
6 3 -3 97.09 14.9
-6 -3 3 125.89 16.8
-3 9 3 111.39 10.7
-6 -3 3 125.99 17.4
9 -6 3 108.69 16.3
-3 9 3 104.09 11.4
7 2 -3 36.8 8.5
-9 7 -3 32.7 10
-7 -2 3 31.5 7.7
-2 9 3 43.3 6
-7 -2 3 33.6 10
-2 9 3 37.1 6.6
9 -7 3 31.6 9.7
-9 8 -3 10.4 8.8
8 1 -3 16.2 6.4
9 -8 3 9.4 7.8
-1 9 3 16.9 4.7
-1 9 3 12.5 5.2
-8 -1 3 9.1 5.8
9 0 -3 79.09 12.7
-9 9 -3 61.19 13.1
0 9 3 74.69 11.1
9 -9 3 79.69 15.2
-9 0 3 89.29 13.8
0 9 3 85.49 10.5
-9 10 -3 131.99 19.2
10 -1 -3 134.69 17.6
9 -10 3 127.19 18.8
1 9 3 140.69 12.9
-10 1 3 112.29 16.5
1 9 3 132.69 14.9
11 -2 -3 11.4 6.1
-2 -9 -3 8.8 4.3
-9 11 -3 3.6 8.5
2 9 3 14 4.1
9 -11 3 9.9 8.5
-11 2 3 3.5 5.6
-11 2 3 13.9 6.5
2 9 3 11.3 7
-3 -9 -3 12.3 5.9
-9 12 -3 7.9 8.8
12 -3 -3 10 6.1
-3 -9 -3 3.7 4.5
-12 3 3 12.6 6.8
3 9 3 10.6 6.1
3 9 3 14 4.3
9 -12 3 5.2 8.5
-12 3 3 2.5 5.8
13 -4 -3 44.5 10.4
-4 -9 -3 41.3 9
-4 -9 -3 36.3 7.8
-9 13 -3 29.7 19.7
-13 4 3 38.9 9.8
4 9 3 36.4 6.9
-13 4 3 34.4 9.5
4 9 3 54.89 10.3
9 -13 3 35.6 12.1
-5 -9 -3 16 6.8
14 -5 -3 20.3 7.9
-9 14 -3 22.2 11.5
-5 -9 -3 28.5 8.4
-14 5 3 13.2 7.4
5 9 3 19.9 5.4
-14 5 3 40.1 9.7
9 -14 3 16.9 10
5 9 3 30.2 8.2
15 -6 -3 23.1 8.4
-9 15 -3 15.8 10.5
-6 -9 -3 28.2 7.9
-6 -9 -3 29.6 11.4
-15 6 3 13.3 8.6
9 -15 3 18.1 10.5
6 9 3 20.5 8
-15 6 3 12.7 7.9
6 9 3 15.1 5.8
-7 -9 -3 84.59 14.1
16 -7 -3 51.49 11.9
-7 -9 -3 75.99 12.5
-9 16 -3 76.19 16.1
-16 7 3 50.29 11.6
9 -16 3 71.89 16.2
7 9 3 86.89 11.7
-16 7 3 76.19 13.9
7 9 3 81.99 13.5
-9 17 -3 3.1 9.5
-8 -9 -3 -5.3 8.2
-8 -9 -3 0.5 6.9
17 -8 -3 7 6.9
8 9 3 10.5 7.6
-17 8 3 10.2 7.8
8 9 3 9.3 5.4
9 -17 3 4.8 10.1
-17 8 3 15.6 7.5
-9 18 -3 10.8 10.9
-9 -9 -3 -2.5 8.3
18 -9 -3 13.2 7.9
-9 -9 -3 14.2 8
9 9 3 24.4 7.2
9 9 3 15.9 8.1
9 -18 3 10.5 11.5
-18 9 3 3.8 6.2
19 -10 -3 1.8 6.7
-10 -9 -3 11.1 9.9
-9 19 -3 -2.9 9.6
-10 -9 -3 5.7 10.1
-19 10 3 10.2 8.8
10 9 3 25.9 7.2
9 -19 3 8.6 12
-19 10 3 10.6 8.4
10 9 3 10.2 7.7
18 -10 -3 24.1 8.8
-10 -8 -3 5.1 9.3
-10 -8 -3 37.2 11.3
-8 18 -3 31.1 12.4
10 8 3 28 9.4
-18 10 3 26.4 10.4
-18 10 3 27.6 8.9
10 8 3 43.5 9.3
8 -18 3 43.4 13.9
17 -10 -3 33.3 9.1
-10 -7 -3 31.9 10.3
-7 17 -3 19.8 12.1
-10 -7 -3 33.9 11.5
7 -17 3 32.8 13.3
-17 10 3 26.2 9.2
10 7 3 25.5 7.4
10 7 3 31.1 10.3
16 -10 -3 258.67 27.6
-6 16 -3 292.37 32
-10 -6 -3 294.97 29.2
-10 -6 -3 294.07 29.7
10 6 3 273.97 28.8
10 6 3 248.38 26.9
6 -16 3 292.87 32.2
-16 10 3 253.17 27.6
-16 10 3 226.48 27.3
-5 15 -3 37.4 12.7
-10 -5 -3 43.2 11.3
15 -10 -3 57.49 10.7
5 -15 3 55.39 15
-15 10 3 41.8 10
10 5 3 53.99 9.6
10 5 3 32.8 10.3
-15 10 3 36 9.1
-10 -4 -3 270.67 28.1
14 -10 -3 269.97 26.2
-4 14 -3 207.48 28.7
-14 10 3 236.58 25.6
-14 10 3 258.87 25.9
4 -14 3 244.08 30.6
10 4 3 272.17 26.4
10 4 3 275.17 28
-10 -3 -3 76.99 13.9
-3 13 -3 86.89 16.8
13 -10 -3 74.89 12.2
-13 10 3 86.29 12.9
-13 10 3 86.09 12.3
10 3 3 84.29 14.1
3 -13 3 88.09 16.7
10 3 3 68.89 12.4
-2 12 -3 379.86 38.3
12 -10 -3 377.86 34.1
-10 -2 -3 377.96 36.5
10 2 3 415.86 36.8
2 -12 3 353.06 38.1
-12 10 3 369.26 33.5
-12 10 3 329.97 33.6
10 2 3 352.16 34.9
11 -10 -3 27.6 6.5
-10 -1 -3 24.4 9.1
-1 11 -3 29.2 10.8
10 1 3 19.2 6.9
1 -11 3 13.2 7.5
1 -11 3 30.9 11.7
10 1 3 21.4 9
-11 10 3 17.6 6
-11 10 3 34.6 6.4
0 10 -3 530.85 49.2
-10 0 -3 484.45 47.5
10 -10 -3 527.85 45.1
10 0 3 495.15 47.4
10 0 3 523.95 47.1
-10 10 3 504.75 44.9
-10 10 3 510.55 44.4
0 -10 3 535.15 48
0 -10 3 528.05 49.4
-10 1 -3 90.59 15.2
9 -10 -3 126.59 12.2
1 9 -3 113.59 17.4
10 -1 3 120.69 15.9
-9 10 3 99.09 11.6
-1 -9 3 130.99 18.6
10 -1 3 79.79 14.1
-1 -9 3 122.59 16.2
-10 2 -3 349.96 32.1
2 8 -3 293.17 32.2
8 -10 -3 329.27 27.8
-2 -8 3 312.17 32.8
-2 -8 3 347.77 31.5
10 -2 3 322.27 31.2
10 -2 3 296.87 30.7
-8 10 3 280.07 27.4
-10 3 -3 46.9 9.7
3 7 -3 29.2 9.3
-3 -7 3 48.1 11.4
-3 -7 3 15.5 6.9
10 -3 3 35.7 8
10 -3 3 31.6 9.1
-10 4 -3 452.45 43.3
10 -4 3 432.56 42.7
-4 -6 3 467.85 44
-4 -6 3 488.65 43
-10 5 -3 47.5 10.2
-5 -5 3 7.6 8.7
10 -5 3 36.4 9.1
6 4 -3 505.45 44.4
-10 6 -3 414.06 44
-4 10 3 499.05 40.3
-6 -4 3 457.55 43.7
-4 10 3 474.15 40.6
10 -6 3 445.46 44.2
-6 -4 3 498.55 44.8
-10 7 -3 29.9 10
7 3 -3 29.9 8.3
-7 -3 3 33.2 10.2
10 -7 3 25.2 9.5
-3 10 3 41.2 6.6
-3 10 3 36 5.5
-7 -3 3 24.6 7.7
-10 8 -3 328.77 34.1
8 2 -3 375.06 34
-2 10 3 335.57 30.8
10 -8 3 306.47 33.9
-8 -2 3 358.46 33.3
-2 10 3 342.97 30.3
-10 9 -3 136.39 19.1
9 1 -3 137.39 18.2
-1 10 3 106.39 12.8
-9 -1 3 118.39 15.3
10 -9 3 134.59 18.3
-1 10 3 98.09 13.5
10 0 -3 592.54 50.49
-10 10 -3 472.65 50.69
0 10 3 576.24 48.1
-10 0 3 508.75 49.4
10 -10 3 479.55 50.39
0 10 3 593.04 47.8
-10 11 -3 27.5 10.4
11 -1 -3 20.5 8.4
-11 1 3 9.3 6.4
1 10 3 26.4 7.1
10 -11 3 19.2 9.6
1 10 3 32.1 4.9
-11 1 3 24 7.9
12 -2 -3 428.96 38.4
-2 -10 -3 347.67 34.4
-2 -10 -3 403.46 34.1
-10 12 -3 392.56 40.1
2 10 3 425.86 36.1
2 10 3 406.96 34
-12 2 3 379.66 37.2
-12 2 3 340.77 36.7
10 -12 3 354.16 39
-3 -10 -3 82.89 10.8
13 -3 -3 73.19 12.7
-3 -10 -3 74.69 11
-10 13 -3 63.29 15.6
3 10 3 68.69 9.8
3 10 3 98.19 13.6
10 -13 3 74.79 16
-13 3 3 87.29 13.5
-13 3 3 73.39 13.4
-10 14 -3 250.77 30.6
-4 -10 -3 250.27 25.6
14 -4 -3 278.47 29.1
-4 -10 -3 278.37 26.7
-14 4 3 262.17 28
10 -14 3 238.38 30.4
4 10 3 275.27 25.2
-14 4 3 235.98 32.2
4 10 3 317.57 28
-10 15 -3 40 13.8
-5 -10 -3 49.1 9.6
-5 -10 -3 60.09 11.5
15 -5 -3 48.7 11
5 10 3 61.29 11.4
-15 5 3 56.89 11.4
-15 5 3 44.2 11
10 -15 3 42.8 14
5 10 3 80.39 15.6
-6 -10 -3 253.27 26.9
-10 16 -3 215.88 31
16 -6 -3 272.57 29.2
-6 -10 -3 300.77 28.6
10 -16 3 280.77 32.2
-16 6 3 212.08 28.3
6 10 3 293.37 26.2
-16 6 3 258.87 28.8
6 10 3 305.97 28.7
17 -7 -3 29.3 9.3
-7 -10 -3 25.7 9.6
-7 -10 -3 14.1 7.8
-10 17 -3 15.6 12
10 -17 3 -0.5 9.2
7 10 3 23.8 9.4
-17 7 3 20.7 8.8
7 10 3 32.5 7.4
-17 7 3 30.1 12
-8 -10 -3 27.2 9.6
18 -8 -3 45.7 10.7
-10 18 -3 24.8 12.3
-8 -10 -3 27 10.2
10 -18 3 31.8 12.3
8 10 3 35.2 10.5
8 10 3 50.99 8.9
-18 8 3 29.9 9.8
-18 8 3 44.1 11.4
-9 -10 -3 0.5 8.4
-9 -10 -3 7.8 8
-10 19 -3 -7 9
19 -9 -3 0.8 6.4
10 -19 3 0 10.3
-19 9 3 14.6 9.4
-19 9 3 4.6 6.4
9 10 3 3.7 5.4
9 10 3 1 7.1
20 -10 -3 70.69 15.6
-10 20 -3 124.79 25.8
-10 -10 -3 134.79 19.8
-10 -10 -3 79.29 15.9
10 10 3 105.19 15.4
-20 10 3 103.79 17
-20 10 3 94.59 16.9
10 -20 3 102.79 19.9
10 10 3 101.19 17.2
21 -11 -3 1.9 6.9
-11 -10 -3 14.7 9.3
-10 21 -3 6.4 14.6
-11 -10 -3 0.8 9.8
10 -21 3 -5 9.5
11 10 3 4.7 5.7
-21 11 3 12.1 8.3
11 10 3 2.3 8.3
-21 11 3 -4.5 7.5
-11 -9 -3 27.5 9.8
20 -11 -3 17.9 8.1
-11 -9 -3 0.5 10.6
-20 11 3 20.5 9.4
9 -20 3 13.2 12.6
-20 11 3 24.5 9.3
11 9 3 17 9.2
11 9 3 8.7 6.1
-8 19 -3 -8.2 8.8
-11 -8 -3 5.2 8.3
-11 -8 -3 2.1 8.7
19 -11 -3 4.8 6.8
-19 11 3 6.4 6.4
-19 11 3 6.2 7.6
8 -19 3 -6.8 10.7
11 8 3 -2 5.3
11 8 3 1.1 7.1
18 -11 -3 -2.8 5.4
-11 -7 -3 -7.6 7.4
-7 18 -3 -4.4 9.2
-11 -7 -3 0.3 7.6
-18 11 3 -4.6 4.9
7 -18 3 -5.7 8.7
-18 11 3 -1.3 6.7
11 7 3 -6 5.7
11 7 3 6.7 5.9
17 -11 -3 -4.8 4.6
-11 -6 -3 4.1 9.1
-6 17 -3 5.2 9.6
-17 11 3 2.1 5
11 6 3 -8.9 5.9
-17 11 3 8.7 6.7
6 -17 3 8.6 10.2
11 6 3 -2 4.5
-11 -5 -3 90.19 14.9
-5 16 -3 62.59 15
16 -11 -3 82.69 12.7
5 -16 3 96.49 18.8
11 5 3 82.19 14.7
-16 11 3 64.69 12
-16 11 3 70.29 12.7
11 5 3 57.49 11
-4 15 -3 -3.2 8.4
15 -11 -3 0.4 5.2
-11 -4 -3 -0.9 7.3
-15 11 3 5.2 5.1
-15 11 3 -0.9 5.3
11 4 3 -1.5 6.6
11 4 3 -6 3.6
4 -15 3 -3.4 9.3
14 -11 -3 40.7 8.5
-3 14 -3 23.2 11.2
-11 -3 -3 45.9 11.2
11 3 3 46.7 11.1
-14 11 3 36.5 8.5
3 -14 3 48 14.7
-14 11 3 40.8 8.4
11 3 3 40.2 8.6
-11 -2 -3 1.4 7.8
-2 13 -3 8.9 10.3
13 -11 -3 15.1 6.1
11 2 3 4.4 5.1
11 2 3 14.8 7.7
2 -13 3 24.3 10.9
-13 11 3 5.2 5.4
-13 11 3 8.5 5.3
-11 -1 -3 126.69 18.8
12 -11 -3 149.39 15.3
1 -12 3 126.69 18
11 1 3 131.59 18.6
11 1 3 102.69 15.7
-12 11 3 111.29 14.2
-12 11 3 123.39 14.4
1 -12 3 163.18 22
11 -11 -3 32.7 6.8
-11 0 -3 34.7 9.7
0 11 -3 38.2 12.2
-11 11 3 29.3 6.5
0 -11 3 6.8 9.8
-11 11 3 28.5 6.2
11 0 3 24.2 8.7
11 0 3 20.2 7
0 -11 3 27.8 8.2
-11 1 -3 21.5 9
1 10 -3 22.3 10.3
10 -11 -3 24.5 5.5
-10 11 3 24.4 5.6
11 -1 3 15.7 8
-10 11 3 25.3 5.5
-1 -10 3 28.2 8.4
-1 -10 3 11.1 10.5
11 -1 3 27.6 7.6
9 -11 -3 10.7 3.8
-11 2 -3 9 7.5
2 9 -3 4.7 7.9
-9 11 3 7.7 5.4
-2 -9 3 12.8 9.5
-2 -9 3 13.8 6.8
11 -2 3 13.5 7
11 -2 3 5.8 6.1
3 8 -3 104.19 16.6
-11 3 -3 120.29 16.7
11 -3 3 91.19 14.6
-8 11 3 88.79 10.1
-3 -8 3 100.49 15
11 -3 3 99.79 14.9
-3 -8 3 100.39 16.5
-11 4 -3 10 7.6
-4 -7 3 21.2 9.9
11 -4 3 6 5.8
-4 -7 3 22.2 6.9
11 -4 3 3.6 6.9
-11 5 -3 87.79 14.5
-5 -6 3 103.99 16.6
11 -5 3 103.29 14.9
-6 11 3 72.39 9.2
-5 -6 3 94.29 15.8
-11 6 -3 84.59 14.3
11 -6 3 81.29 14.6
-6 -5 3 91.29 15.6
-6 -5 3 83.29 12.5
7 4 -3 6.5 5.8
-11 7 -3 9.3 8.2
-7 -4 3 16.7 6.6
-7 -4 3 18.8 9.9
-4 11 3 10 5.4
11 -7 3 15.8 8.5
8 3 -3 96.49 15.2
-11 8 -3 105.29 17
-3 11 3 125.39 12.1
11 -8 3 108.99 16.4
-8 -3 3 109.99 16.3
-8 -3 3 112.49 17
-3 11 3 86.19 12.8
9 2 -3 3.2 6.1
-11 9 -3 -3.4 7.4
-2 11 3 11.1 4.7
-2 11 3 10.2 5.8
11 -9 3 0 6.8
-9 -2 3 11.7 6.7
10 1 -3 15.7 7.7
-11 10 -3 -2.9 8.3
11 -10 3 17.2 9.3
-10 -1 3 28.3 7.4
-1 11 3 25.1 7.1
-1 11 3 24.1 6.2
11 0 -3 23.7 8.4
-11 11 -3 12.6 10
11 -11 3 18.3 9.6
0 11 3 29.8 8.1
-11 0 3 15.4 7.6
-11 0 3 19.7 7.2
0 11 3 27.9 7
12 -1 -3 144.09 19.6
-11 12 -3 91.09 26
11 -12 3 143.19 21.2
1 11 3 154.28 17.1
1 11 3 155.88 14.2
-12 1 3 144.49 18.3
-12 1 3 135.29 20
-2 -11 -3 14.3 5.5
13 -2 -3 1.9 6.5
-11 13 -3 4.3 8.4
-2 -11 -3 10.1 4.7
2 11 3 12.8 6.9
-13 2 3 5.2 12.2
2 11 3 14.9 4.3
-13 2 3 13.8 7.7
11 -13 3 19.8 10.2
-11 14 -3 35.8 11.9
14 -3 -3 29.5 9.8
-3 -11 -3 34.7 7.4
-3 -11 -3 46.1 8.6
11 -14 3 49.99 13.8
3 11 3 54.59 10.1
-14 3 3 27 9.4
3 11 3 47.2 7.4
-14 3 3 26.4 9.4
-4 -11 -3 -4.6 6.3
15 -4 -3 7.8 6.5
-11 15 -3 0.7 8.1
-4 -11 -3 3.5 5.3
11 -15 3 -4.5 8.1
-15 4 3 1.1 6.5
-15 4 3 -3.9 4.3
4 11 3 4.2 6.7
4 11 3 -0.3 3.7
16 -5 -3 62.89 13.2
-11 16 -3 63.79 15.8
-5 -11 -3 71.79 11.3
-16 5 3 72.69 16.1
5 11 3 85.29 11
-16 5 3 58.99 12.8
5 11 3 86.79 14.1
11 -16 3 76.09 16.2
-6 -11 -3 5.7 6.7
-6 -11 -3 3.7 7.6
-11 17 -3 -7.6 8.8
17 -6 -3 -3.9 6.1
6 11 3 6 4.8
11 -17 3 7.5 10.1
6 11 3 6.4 6.8
-17 6 3 9.5 6.7
-17 6 3 -3.9 6.5
18 -7 -3 -6 4.9
-7 -11 -3 2.2 6.6
-11 18 -3 4.5 10.1
-7 -11 -3 5.2 8.2
7 11 3 1.2 4.9
-18 7 3 -0.7 7.1
11 -18 3 14.8 10.4
-18 7 3 -0.5 5.9
7 11 3 -1.3 6.1
-8 -11 -3 -8.9 7.8
-11 19 -3 -4.1 9.4
-8 -11 -3 -2.8 6.8
19 -8 -3 5.4 7.2
8 11 3 2.2 4.9
-19 8 3 17 8.1
-19 8 3 2.9 7.6
8 11 3 -8 6.1
11 -19 3 -5.9 8.8
-9 -11 -3 22.5 10.8
-9 -11 -3 20.9 9.2
20 -9 -3 22.1 9.6
-11 20 -3 31.9 15.5
11 -20 3 29.9 13.1
9 11 3 22.1 7.4
9 11 3 18.2 10.1
-20 9 3 43.2 12
-20 9 3 13.7 8.2
21 -10 -3 5.4 7.6
-10 -11 -3 -6.5 7.7
-10 -11 -3 -2.4 6.1
-10 -11 -3 8.1 10.4
-11 21 -3 8.1 12.4
-21 10 3 -7.4 7.1
11 -21 3 -6.6 9.4
-21 10 3 16.3 7.6
10 11 3 6.7 5.9
-11 -11 -3 42.6 11.3
22 -11 -3 41.9 12
-11 -11 -3 34.8 11.4
-11 22 -3 48.1 21
-11 -11 -3 60.69 15.7
11 -22 3 54.89 16.7
11 11 3 56.19 10.8
-22 11 3 55.59 13.7
-22 11 3 60.29 13
11 11 3 47 12.7
23 -12 -3 8.3 8
-12 -11 -3 20.9 13.4
-12 -11 -3 5.4 8.7
-11 23 -3 6.1 10.6
-23 12 3 0 6.7
11 -23 3 10.2 11.3
12 11 3 9.8 6.4
-23 12 3 7.4 8.6
-10 22 -3 73.99 29.7
-12 -10 -3 83.29 16.7
22 -12 -3 83.29 15.7
-12 -10 -3 95.49 19.7
12 10 3 113.39 19.1
-22 12 3 78.99 17
12 10 3 78.09 13.9
10 -22 3 125.39 23.3
-22 12 3 97.59 17.4
21 -12 -3 9.8 6.8
-12 -9 -3 -0.4 10.5
-12 -9 -3 -3.5 8.4
12 9 3 3.1 5.9
-21 12 3 -0.1 7.7
9 -21 3 0.9 16
-21 12 3 -9.1 5.3
12 9 3 3.9 7.9
-12 -8 -3 76.29 17.5
20 -12 -3 122.09 17.2
-12 -8 -3 86.29 16.7
12 8 3 76.89 17
-20 12 3 70.09 15.3
-20 12 3 94.59 16.7
12 8 3 88.99 14.7
8 -20 3 100.79 20
19 -12 -3 -1.5 5.3
-12 -7 -3 -2.3 8.3
-12 -7 -3 4 9.5
12 7 3 -1.6 4.6
12 7 3 -5.2 6
7 -19 3 13.8 11.9
-19 12 3 5.2 6.9
-19 12 3 -3.6 7.5
-12 -6 -3 28.6 10.5
-6 18 -3 20 11.7
18 -12 -3 21.2 8.2
12 6 3 49.1 10
-18 12 3 44.6 10.2
6 -18 3 34 12.7
-18 12 3 21.4 9.3
12 6 3 45.6 11.7
-12 -5 -3 70.09 14.7
-5 17 -3 46.7 14.1
17 -12 -3 79.09 12.7
-17 12 3 61.59 11.7
5 -17 3 58.29 16.9
12 5 3 71.29 14.5
12 5 3 76.69 13.3
-17 12 3 67.49 12.8
16 -12 -3 202.68 21.4
-12 -4 -3 153.28 23.8
-4 16 -3 193.68 25.8
4 -16 3 179.18 26.7
-16 12 3 167.58 20.7
-16 12 3 181.88 21.2
12 4 3 223.68 23.8
12 4 3 185.68 21.6
-3 15 -3 38.3 12.8
15 -12 -3 48.1 9.8
-12 -3 -3 69.19 15.8
12 3 3 67.89 13.5
12 3 3 51.09 10.5
3 -15 3 41.4 10.3
-15 12 3 45.2 10.2
-15 12 3 57.49 10.8
3 -15 3 43.9 14
14 -12 -3 243.68 25.2
-2 14 -3 262.07 30.4
-12 -2 -3 295.17 28.8
2 -14 3 238.98 27.7
12 2 3 222.48 26.2
-14 12 3 245.78 25
-14 12 3 246.88 25.1
2 -14 3 254.57 30.9
12 2 3 281.37 28.2
-12 -1 -3 17.2 9.7
13 -12 -3 10.9 5.8
-1 13 -3 17.8 10.5
12 1 3 33.5 10
-13 12 3 25.9 7
12 1 3 28 8
-13 12 3 17.9 6.8
1 -13 3 33.8 12.6
1 -13 3 21.2 11
0 12 -3 471.35 44.3
-12 0 -3 452.85 42.9
12 -12 -3 452.15 39.1
-12 12 3 393.36 38.7
0 -12 3 457.45 43.7
0 -12 3 455.95 44.4
-12 12 3 422.56 38.8
12 0 3 396.26 41
12 0 3 456.45 42.4
-12 1 -3 145.59 19.4
11 -12 -3 129.79 14.1
1 11 -3 129.19 22.7
-1 -11 3 109.59 19.5
-11 12 3 125.09 14.2
-1 -11 3 135.99 17.8
12 -1 3 141.79 18.3
12 -1 3 122.19 17.4
-12 2 -3 331.47 36
2 10 -3 412.46 37.8
10 -12 -3 377.36 32.1
12 -2 3 327.27 35
-2 -10 3 376.46 35.8
12 -2 3 369.86 35.9
-2 -10 3 381.26 38
-10 12 3 340.67 32
3 9 -3 12 8.4
-12 3 -3 3.9 7.6
12 -3 3 6.2 7.2
12 -3 3 12.3 6.8
-3 -9 3 7.4 6.3
-3 -9 3 19.2 9.8
-12 4 -3 254.17 27.8
-4 -8 3 257.07 26.9
12 -4 3 275.17 27.2
12 -4 3 267.37 27.5
-8 12 3 236.78 23.1
-4 -8 3 252.17 29.2
-12 5 -3 56.59 11.5
12 -5 3 39.2 9.7
-5 -7 3 21.9 8
12 -5 3 29 8.5
-7 12 3 33.7 6.2
-5 -7 3 41.5 11.4
-12 6 -3 394.56 36.4
-6 12 3 349.57 31.8
-6 -6 3 333.57 36.4
12 -6 3 357.76 35.6
7 5 -3 37.4 9.1
-12 7 -3 25.5 9.8
-7 -5 3 27.2 10.1
12 -7 3 36.6 9.8
-5 12 3 28.2 6.6
-7 -5 3 28.7 7.2
-12 8 -3 247.48 29
8 4 -3 296.07 29
-4 12 3 272.27 25.7
-8 -4 3 287.87 30
-8 -4 3 266.57 28.1
12 -8 3 250.67 28.8
-12 9 -3 15.5 9.8
9 3 -3 11.1 6.6
-9 -3 3 5.5 8.2
-9 -3 3 4.5 5
12 -9 3 11.3 8.2
-3 12 3 9.4 5.9
-12 10 -3 352.56 38.6
10 2 -3 368.76 37.9
-10 -2 3 417.26 38.1
12 -10 3 386.36 38.5
-2 12 3 396.46 35.5
11 1 -3 146.49 19.2
-12 11 -3 126.69 29.9
-1 12 3 126.89 16.7
-11 -1 3 164.88 18.3
12 -11 3 121.49 20.3
-12 12 -3 359.86 44
12 0 -3 478.75 43.9
-12 0 3 420.66 43
0 12 3 491.85 41.3
-12 0 3 454.35 42.9
0 12 3 467.95 41.9
12 -12 3 459.85 44.3
-12 13 -3 43.5 12.8
13 -1 -3 27.1 9.4
1 12 3 32.4 8.6
12 -13 3 28.9 11.4
-13 1 3 22.4 8.6
-13 1 3 38 9.2
-2 -12 -3 256.97 24.7
14 -2 -3 260.17 28.9
-12 14 -3 285.57 31.6
-2 -12 -3 230.68 24.1
2 12 3 291.57 27.4
-14 2 3 267.67 28.3
-14 2 3 246.28 28.7
12 -14 3 309.17 31.3
2 12 3 269.87 24.2
-3 -12 -3 50.59 8.9
-12 15 -3 50.99 14.6
-3 -12 -3 61.49 10.4
15 -3 -3 68.89 12.9
-15 3 3 55.79 12.1
3 12 3 71.79 12.6
12 -15 3 52.59 14.4
3 12 3 54.99 8.7
-4 -12 -3 188.08 20.7
16 -4 -3 170.58 23.7
-4 -12 -3 216.08 22.1
-12 16 -3 206.18 26.9
-16 4 3 179.78 23.9
12 -16 3 203.78 26.3
4 12 3 214.98 23.2
-16 4 3 190.38 24.1
4 12 3 212.18 20.1
-5 -12 -3 81.49 12.3
-5 -12 -3 83.09 16.1
17 -5 -3 78.89 14.1
-12 17 -3 64.49 16.7
5 12 3 81.69 10.8
12 -17 3 49.9 15.1
-17 5 3 82.69 15.4
-17 5 3 62.29 14
5 12 3 76.19 13.8
-6 -12 -3 34.1 10.1
18 -6 -3 20.6 9.9
-12 18 -3 26.2 12.8
-6 -12 -3 33.4 9.5
-18 6 3 42.9 12.1
-18 6 3 42.6 11
6 12 3 33.4 7.9
12 -18 3 35.9 13.5
6 12 3 54.89 11.6
-7 -12 -3 6 6.5
-7 -12 -3 15.3 7.9
19 -7 -3 7.5 6.9
-12 19 -3 20.8 11.5
-7 -12 -3 -3.5 8.2
12 -19 3 6.6 10.5
7 12 3 4.5 7.6
-19 7 3 13.1 7.7
7 12 3 -0.8 4
-19 7 3 7.6 8.2
-8 -12 -3 80.49 14
-12 20 -3 63.19 18.1
-8 -12 -3 91.39 14.8
-8 -12 -3 69.79 15.3
20 -8 -3 91.39 15.8
8 12 3 92.49 12.8
12 -20 3 86.69 18.4
-20 8 3 81.19 16.3
-9 -12 -3 -11.4 5.6
-12 21 -3 23 13.2
21 -9 -3 3.1 7.4
-9 -12 -3 -0.1 9.9
-9 -12 -3 -0.9 7.3
12 -21 3 11.6 11.4
-21 9 3 8.2 7.3
-21 9 3 11.8 9.4
9 12 3 -1.1 4.6
-10 -12 -3 74.09 15.2
-10 -12 -3 94.79 17.9
-12 22 -3 89.69 30.2
-10 -12 -3 82.29 15.8
22 -10 -3 71.99 17.7
-22 10 3 73.79 15.3
10 12 3 103.69 14.1
-22 10 3 97.29 18.8
12 -22 3 114.19 21
-12 23 -3 18.8 11.3
23 -11 -3 23.5 10
-11 -12 -3 -1.3 7.1
-11 -12 -3 -6.6 10
-11 -12 -3 23.9 10.3
12 -23 3 1.8 9.9
-23 11 3 -8.4 7.5
-23 11 3 -6.5 6.4
11 12 3 -5.6 5
-12 24 -3 86.69 21.6
24 -12 -3 70.59 15.7
-12 -12 -3 81.39 18.1
-12 -12 -3 75.39 15.8
-24 12 3 86.19 18.5
-24 12 3 92.49 18.7
12 12 3 84.49 13.3
12 -24 3 69.19 17.7
-13 -12 -3 12.8 9.6
-13 -12 -3 9.1 12.3
25 -13 -3 4.7 7.4
-25 13 3 4.9 7.6
-25 13 3 -1.2 10.3
13 12 3 0 5.7
12 -25 3 17.6 13.1
24 -13 -3 38.4 10.9
-11 24 -3 35.8 15.7
-13 -11 -3 34.8 12.4
-13 -11 -3 51.99 15.7
-24 13 3 29.2 10.7
11 -24 3 72.29 19
13 11 3 22.7 8.4
-24 13 3 66.99 15.1
-10 23 -3 1.4 11.3
23 -13 -3 9.5 9.6
-13 -10 -3 1.1 11.5
-13 -10 -3 -7.9 7.9
-23 13 3 6.9 8.4
13 10 3 5.7 9.7
10 -23 3 0.2 11.6
13 10 3 2.8 5.8
-23 13 3 -0.6 8.3
22 -13 -3 13.5 7.9
-13 -9 -3 10.8 9.3
-13 -9 -3 22.4 12.6
9 -22 3 10.3 12.8
13 9 3 8.1 8.6
-22 13 3 19.9 9.6
13 9 3 22.1 7.9
-22 13 3 19.3 10.3
21 -13 -3 6.2 6.8
-13 -8 -3 2.7 10.8
-13 -8 -3 8.2 8.7
-21 13 3 7.9 8.1
13 8 3 2.1 7.5
13 8 3 6.6 6
-21 13 3 18.9 9.4
-13 -7 -3 23.4 12.1
-13 -7 -3 16.3 9.9
20 -13 -3 5.9 6.6
13 7 3 21.1 8.3
-20 13 3 39.5 10.7
-20 13 3 24.1 9.2
7 -20 3 23.6 13.4
19 -13 -3 -0.8 5.6
-13 -6 -3 4.4 8.7
-19 13 3 15 7
13 6 3 -0.4 5.4
13 6 3 13.4 8.3
6 -19 3 13.2 10.3
-5 18 -3 15.8 11.1
18 -13 -3 3.4 5.8
-13 -5 -3 5.4 8.8
-18 13 3 2.5 6.4
13 5 3 -5 6.4
-18 13 3 7.2 5.9
13 5 3 1.7 5.2
5 -18 3 7.3 10.1
-13 -4 -3 -6.4 7.4
-4 17 -3 -1.8 8.7
17 -13 -3 -0.3 5.1
13 4 3 -4.8 4.6
-17 13 3 -4.7 5.6
-17 13 3 7.2 5.9
13 4 3 -2.3 7.1
4 -17 3 10.9 7.5
4 -17 3 -12.8 9.2
16 -13 -3 26.4 7.8
-3 16 -3 48.6 13.2
-13 -3 -3 53.59 12.6
-16 13 3 41.2 9.2
3 -16 3 24.3 13.4
3 -16 3 44.8 11.1
13 3 3 33.6 10.8
13 3 3 44.1 10.6
-16 13 3 42.1 10
-2 15 -3 11.9 8.7
15 -13 -3 7.2 5.2
-13 -2 -3 8.5 8.4
2 -15 3 17.2 11.1
-15 13 3 2 4.7
13 2 3 -7.7 4.7
2 -15 3 5 7.2
13 2 3 -1.4 6.8
-15 13 3 -3.6 5.2
14 -13 -3 67.09 10.8
-1 14 -3 52.59 14.1
-13 -1 -3 89.79 15.8
13 1 3 61.79 12.8
-14 13 3 70.09 10.9
1 -14 3 61.09 16.5
1 -14 3 56.79 12.2
13 1 3 65.19 13.6
13 -13 -3 9.5 5.3
0 13 -3 30.1 11.5
0 -13 3 15.1 8.4
0 -13 3 10.3 10.5
13 0 3 7.3 5.9
13 0 3 13.8 8.7
-13 13 3 16 6.1
-13 1 -3 21.9 10.9
1 12 -3 50.69 13.2
12 -13 -3 27.5 6.2
-1 -12 3 9.9 6.6
-1 -12 3 26.4 12.5
13 -1 3 38 10.4
-12 13 3 26.1 6.6
13 -1 3 22.9 8.4
2 11 -3 1.9 8
11 -13 -3 11.1 4.3
-13 2 -3 2.4 8.5
-2 -11 3 13 10.6
-11 13 3 17.8 5.5
13 -2 3 7.2 6.2
-2 -11 3 9.3 9.4
13 -2 3 11.8 7.8
3 10 -3 83.59 24.9
-13 3 -3 71.99 14.6
13 -3 3 81.09 14.2
-3 -10 3 71.69 16.1
-3 -10 3 40.3 16
13 -3 3 62.59 12.1
-10 13 3 78.39 10.3
-13 4 -3 37.8 11.2
-4 -9 3 31.4 10
-4 -9 3 23.7 11.7
13 -4 3 34.2 9.5
13 -4 3 41.5 10.9
-9 13 3 42.7 7.2
-13 5 -3 40.5 11.4
-8 13 3 36.8 6.9
13 -5 3 38.1 10.2
-5 -8 3 29.9 9.2
13 -5 3 26.7 9.2
-5 -8 3 17.6 10.8
-13 6 -3 15.3 9.7
-6 -7 3 37.2 11.7
-6 -7 3 31.7 9.6
13 -6 3 30.5 9.5
-7 13 3 38.6 7.4
13 -6 3 32.9 9.9
-13 7 -3 29 10.1
7 6 -3 36.9 10
13 -7 3 39.1 10.2
-7 -6 3 37.2 12
-6 13 3 28.1 7.3
13 -7 3 37.2 9.8
-7 -6 3 32.6 10.5
-13 8 -3 16 10.3
8 5 -3 22.5 8.4
-5 13 3 26.3 7.1
13 -8 3 32.9 10
-8 -5 3 20.9 10.7
9 4 -3 36.4 10.2
-9 -4 3 30.7 11.8
-9 -4 3 36 9.8
13 -9 3 38 10.6
-4 13 3 49.6 9.1
-13 10 -3 74.59 16.1
10 3 -3 78.29 14.3
-10 -3 3 62.39 14.4
13 -10 3 83.89 14.9
-3 13 3 83.09 12.2
-10 -3 3 63.19 12.3
-13 11 -3 3.9 8.7
11 2 -3 16.3 8.2
13 -11 3 7.4 8.4
-2 13 3 16.4 6.7
-11 -2 3 14.5 10
-11 -2 3 5.9 6.8
-13 12 -3 23.9 11.5
12 1 -3 11.7 7.2
13 -12 3 25.5 10.5
-12 -1 3 27.4 9
-12 -1 3 9.6 7.2
-1 13 3 37.5 9.2
13 0 -3 10.4 7.6
-13 13 -3 12.9 10.1
13 -13 3 18.3 9.3
0 13 3 3.2 7
-13 0 3 16.6 7.6
14 -1 -3 59.49 12.4
-13 14 -3 56.49 14.8
-14 1 3 100.39 15.1
-14 1 3 68.59 14.8
13 -14 3 38.2 12.3
-2 -13 -3 3.1 4.6
-13 15 -3 -3.6 9.8
15 -2 -3 -3.1 5.9
-2 -13 -3 11.4 5.7
-15 2 3 -0.8 6.6
13 -15 3 5.9 9
2 13 3 2.2 3.6
-15 2 3 6.9 7.5
16 -3 -3 34.5 10.5
-3 -13 -3 32 7.3
-13 16 -3 40.9 14.5
-3 -13 -3 45.5 9.1
-16 3 3 46 12.2
13 -16 3 29 11.6
3 13 3 41.4 7.1
-16 3 3 24.3 10.6
-4 -13 -3 6.7 7.5
-4 -13 -3 9.4 5.6
17 -4 -3 1.9 6.7
-13 17 -3 -0.7 9.7
-17 4 3 -1.3 7.3
-17 4 3 7.5 6.8
4 13 3 6.7 5.6
13 -17 3 -1.3 8.7
-5 -13 -3 1.8 6
18 -5 -3 2.4 6.6
-13 18 -3 10.2 9.4
-5 -13 -3 15 8.3
5 13 3 7.9 4.8
13 -18 3 -4.6 9
-18 5 3 9.3 7.7
-18 5 3 -6.5 6.7
-13 19 -3 13.7 11.6
19 -6 -3 -11 5.2
-6 -13 -3 4.4 5.7
-6 -13 -3 -0.5 6.1
-6 -13 -3 17.6 9.2
13 -19 3 -3.5 9.7
-19 6 3 21.8 9.9
-19 6 3 -5.6 5.9
6 13 3 -3.3 3.8
-7 -13 -3 11.2 8.3
20 -7 -3 20 9
-7 -13 -3 11.2 6.7
-13 20 -3 8.4 11.2
-7 -13 -3 10.5 7.8
-20 7 3 7.9 8.7
7 13 3 7.1 5.8
13 -20 3 25.8 12.6
-20 7 3 15 7.7
-8 -13 -3 -2 8.5
21 -8 -3 4.2 12.4
-8 -13 -3 10.4 6.8
-13 21 -3 5.7 11.7
8 13 3 2.8 5.1
-21 8 3 1 7
-21 8 3 -7.9 7.8
13 -21 3 -3.9 9.9
-9 -13 -3 25 8.7
-13 22 -3 8.2 21.6
-9 -13 -3 14.4 9.1
22 -9 -3 24.4 9.6
-9 -13 -3 -3.1 9.6
-22 9 3 0.5 7.5
-22 9 3 28.7 11.3
9 13 3 5.5 5.6
13 -22 3 29.6 12.8
-10 -13 -3 5.6 7.7
-10 -13 -3 -5 7.7
-13 23 -3 3.2 11.2
-10 -13 -3 6.2 11.3
23 -10 -3 -5.4 7.2
-23 10 3 5 7.8
10 13 3 -5.5 4.7
13 -23 3 27.3 12.8
-23 10 3 -2 8.3
-11 -13 -3 23.2 12.8
24 -11 -3 26.5 10.6
-13 24 -3 38.9 15.4
-11 -13 -3 49.1 12.8
-11 -13 -3 19.2 9.6
13 -24 3 15.1 13.6
-24 11 3 19.4 11.5
11 13 3 34.3 8.7
25 -12 -3 5.3 7.8
-12 -13 -3 -5.8 9
-12 -13 -3 -0.7 11.7
-25 12 3 1 7.9
13 -25 3 17.4 12.9
12 13 3 -5.5 5.3
-13 -13 -3 37.1 12.9
26 -13 -3 10.3 8.5
13 -26 3 11 13.1
13 13 3 2.4 6.8
-26 13 3 -1 8.9
-26 13 3 33.9 12.9
-14 -13 -3 1.5 12.3
27 -14 -3 -0.5 7.3
-27 14 3 -2.3 9.5
13 -27 3 0.3 12.3
14 13 3 13.8 7.8
26 -14 -3 57.99 12.9
-14 -12 -3 30.9 17
12 -26 3 38.1 17.3
-26 14 3 35.8 12.1
14 12 3 34.5 9.3
-26 14 3 23.8 12.4
25 -14 -3 -1.6 5.9
-14 -11 -3 -8.8 7.8
-14 -11 -3 -1.9 13.3
11 -25 3 10 12.6
14 11 3 0.5 6.4
-25 14 3 -9.8 8.6
-14 -10 -3 45.8 14.4
-10 24 -3 33.7 15.4
-14 -10 -3 78.29 20.6
24 -14 -3 47.3 12.8
14 10 3 60.89 20.4
-24 14 3 70.59 13.9
10 -24 3 49.6 16.8
-24 14 3 67.89 16.3
-9 23 -3 -0.2 10.4
-14 -9 -3 1.4 10.8
-14 -9 -3 1.1 9.3
23 -14 -3 7.9 6.8
9 -23 3 -4.1 11
-23 14 3 -9.2 5.3
-23 14 3 -13 6.7
14 9 3 2 8.7
14 9 3 2.4 5.4
-14 -8 -3 84.59 18.2
-8 22 -3 62.79 23.9
-14 -8 -3 61.19 14.8
22 -14 -3 71.09 13.8
14 8 3 71.59 15.9
8 -22 3 74.29 19.8
14 8 3 72.89 13.1
-22 14 3 71.69 15.5
-22 14 3 63.39 14.3
-14 -7 -3 -6.7 10.8
-14 -7 -3 4.4 9.5
21 -14 -3 -0.1 5.6
-21 14 3 8.4 8.2
14 7 3 2.2 8
7 -21 3 -18.5 8.9
-21 14 3 3.8 7.5
14 7 3 7.8 6.1
-14 -6 -3 38.5 12.9
-14 -6 -3 52.39 14
20 -14 -3 39.4 10.1
6 -20 3 27.4 10.6
14 6 3 75.89 14.6
6 -20 3 46.5 15.8
-20 14 3 47.9 11.2
-20 14 3 71.59 13.4
14 6 3 40.4 10.2
-14 -5 -3 -2.1 7.9
19 -14 -3 15.1 6.7
14 5 3 8.3 6.1
5 -19 3 13 7
-19 14 3 6.8 6.5
5 -19 3 0.7 10.3
14 5 3 24.8 10.2
18 -14 -3 36.4 9
-14 -4 -3 32.5 11.9
14 4 3 33.6 9.4
4 -18 3 25.8 13.2
4 -18 3 14.3 7.6
14 4 3 41.2 11.6
-18 14 3 18.5 8.2
-14 -3 -3 57.79 13.8
17 -14 -3 52.39 10.4
-3 17 -3 73.79 16.1
14 3 3 45.8 12.9
3 -17 3 46.7 15.4
-17 14 3 28.2 9.9
14 3 3 44.9 10.7
3 -17 3 77.09 13.6
16 -14 -3 239.38 25.2
-2 16 -3 257.37 30.4
-14 -2 -3 237.98 28.5
14 2 3 203.28 26.1
2 -16 3 256.27 28.1
2 -16 3 286.87 31.9
-16 14 3 246.98 25.8
14 2 3 251.97 28.5
-14 -1 -3 20.5 10.6
15 -14 -3 33.2 7.4
-1 15 -3 11.3 10.2
14 1 3 10.7 6.9
1 -15 3 10.9 8.9
14 1 3 14.3 9.3
-15 14 3 20.3 8
1 -15 3 15.5 12.8
0 14 -3 230.48 27
-14 0 -3 218.98 25.4
14 -14 -3 204.88 20.8
14 0 3 176.28 23.4
0 -14 3 167.18 26.2
-14 14 3 180.08 20.5
14 0 3 178.08 22.5
0 -14 3 215.98 23.8
13 -14 -3 58.39 9.2
1 13 -3 67.39 15.5
-14 1 -3 75.19 15.2
-1 -13 3 54.99 12.4
14 -1 3 48.3 11.1
-13 14 3 74.39 10.7
14 -1 3 56.79 13.9
-1 -13 3 78.49 16.7
2 12 -3 244.08 29.1
-14 2 -3 223.28 27.7
12 -14 -3 228.98 22.5
-2 -12 3 251.27 29.9
-2 -12 3 255.07 26.9
14 -2 3 261.67 26.2
14 -2 3 245.38 27.3
-12 14 3 224.38 23.3
-14 3 -3 23.9 10.7
3 11 -3 46.4 12.1
14 -3 3 25.7 9.9
-11 14 3 32.4 7.5
-3 -11 3 60.79 14
-3 -11 3 34.8 9.9
14 -3 3 26.5 8.9
-14 4 -3 214.68 27.9
-10 14 3 250.17 23.4
14 -4 3 219.18 25.8
-4 -10 3 226.38 29
14 -4 3 246.78 26.9
-4 -10 3 262.67 26.9
-14 5 -3 22.2 10.4
-5 -9 3 13.8 7.3
-5 -9 3 39.3 12.1
-9 14 3 30.2 6.8
14 -5 3 15.8 6.8
14 -5 3 24.3 9
-14 6 -3 252.57 29
14 -6 3 230.98 27.4
-8 14 3 249.58 24.2
-6 -8 3 248.18 27.2
14 -6 3 255.17 27
-6 -8 3 273.57 29.9
-14 7 -3 55.79 13.2
-7 -7 3 60.59 12.4
-7 14 3 96.69 11.8
-7 -7 3 42.7 13.7
14 -7 3 66.59 12.9
14 -7 3 68.99 12.8
-14 8 -3 227.28 29.1
8 6 -3 268.47 28.5
14 -8 3 263.27 28
-8 -6 3 259.57 28
14 -8 3 264.67 28.6
-8 -6 3 262.97 30
-6 14 3 268.77 25.7
9 5 -3 29.7 9.8
-14 9 -3 35 10.6
14 -9 3 23.7 9.7
-9 -5 3 21.7 7.8
-9 -5 3 45.8 12.6
-5 14 3 21.9 7.7
-14 10 -3 215.28 28.6
10 4 -3 265.37 28.7
-10 -4 3 227.88 29
-4 14 3 271.87 25.9
-10 -4 3 273.77 27.9
14 -10 3 264.37 28.8
-14 11 -3 19.6 10.7
11 3 -3 36.5 9.5
-11 -3 3 24 11.2
-3 14 3 46.3 9.7
-11 -3 3 30.2 9
14 -11 3 28.1 10.9
-11 -3 3 25 9
-14 12 -3 289.97 31.3
12 2 -3 280.47 30
-2 14 3 271.17 27.6
-12 -2 3 262.17 29.1
14 -12 3 263.47 30.1
-12 -2 3 255.17 28.7
13 1 -3 72.29 14.2
-14 13 -3 57.89 15.6
-13 -1 3 84.69 14.9
-1 14 3 63.89 12.5
14 -13 3 59.39 14.7
-13 -1 3 83.69 15.5
14 0 -3 181.08 24
-14 14 -3 253.87 27.7
0 14 3 183.08 22.2
-14 0 3 177.78 23.4
-14 0 3 182.78 23.2
14 -14 3 210.38 25.6
-14 15 -3 12.7 11.1
15 -1 -3 21.8 9.2
14 -15 3 27.1 11.8
-15 1 3 29 10.1
-15 1 3 3.1 6.9
16 -2 -3 237.98 29.1
-2 -14 -3 258.17 24.3
-2 -14 -3 247.18 24.8
-14 16 -3 240.28 31.4
14 -16 3 285.07 30.6
-16 2 3 261.47 29.3
-16 2 3 280.07 29.7
2 14 3 254.07 24
-3 -14 -3 57.69 10.5
17 -3 -3 60.69 14
-14 17 -3 74.69 17.7
-3 -14 -3 55.79 9.5
-17 3 3 81.49 14.3
3 14 3 69.19 9.4
14 -17 3 77.19 16.3
-17 3 3 44.6 13.3
-14 18 -3 24.9 12.7
-4 -14 -3 39 8.6
18 -4 -3 42.2 11.2
14 -18 3 43.5 13.5
-18 4 3 35 11.3
4 14 3 51.19 8.9
-18 4 3 23.7 11.4
-5 -14 -3 3.2 6.7
-14 19 -3 0.5 9.4
19 -5 -3 8.3 7.4
-5 -14 -3 15.5 8.3
-19 5 3 -6 5.8
5 14 3 -2.1 4.1
-19 5 3 13.3 9.3
14 -19 3 1.4 9.3
-6 -14 -3 49.6 12.2
20 -6 -3 48.3 13.7
-14 20 -3 51.29 16.2
-6 -14 -3 55.79 10.8
-6 -14 -3 55.19 11.6
-20 6 3 74.39 16.1
6 14 3 54.19 9.9
-20 6 3 55.09 14.7
14 -20 3 71.89 16.5
-7 -14 -3 9.7 6.1
21 -7 -3 -7.2 6
-7 -14 -3 7.5 7.4
-7 -14 -3 0.6 9
-14 21 -3 -12.4 9.4
14 -21 3 9.3 18.1
-21 7 3 27 11
-21 7 3 -10 6.7
7 14 3 -1.4 5.1
-8 -14 -3 67.09 19.9
22 -8 -3 82.49 16.5
-8 -14 -3 69.49 14.9
-8 -14 -3 92.49 17
14 -22 3 96.99 19.8
-22 8 3 63.39 15.1
8 14 3 71.39 12.1
-22 8 3 71.49 16.6
-9 -14 -3 10.1 7.3
-14 23 -3 0.2 11.8
-9 -14 -3 -10.5 9.4
23 -9 -3 7.3 7.7
-9 -14 -3 -4.2 7.5
9 14 3 4.7 5.7
-23 9 3 -8.1 7.3
-23 9 3 14.6 7.9
14 -23 3 4.2 10.9
24 -10 -3 63.09 14
-10 -14 -3 42.2 11.6
-10 -14 -3 64.69 13.5
-14 24 -3 43.4 16.1
-10 -14 -3 57.19 15.4
14 -24 3 56.79 18.2
10 14 3 36.4 10.4
-24 10 3 39.9 14.3
-24 10 3 58.19 14
25 -11 -3 -4.7 6.9
-11 -14 -3 -4.4 10.8
-11 -14 -3 -1.8 8.4
-25 11 3 -6.6 7.2
14 -25 3 5.7 10.3
-25 11 3 11.8 9.3
11 14 3 6.8 6.7
-12 -14 -3 53.89 16.1
-12 -14 -3 29.2 12
26 -12 -3 42.8 11.8
14 -26 3 21.5 16.5
12 14 3 29.9 10
-26 12 3 40.2 14.5
-26 12 3 24 10.6
27 -13 -3 12 9
-13 -14 -3 0.1 13.8
14 -27 3 -13.9 10.7
13 14 3 -8.3 4.9
-27 13 3 -9 12.8
-14 -14 -3 -2.4 18.4
28 -14 -3 44 12.2
-14 -14 -3 20 17.1
14 -28 3 16.9 15.3
14 14 3 9.1 7.4
-15 -13 -3 -13.2 10.7
28 -15 -3 -0.5 8.1
-15 -13 -3 0.7 13.4
15 13 3 10.6 7.3
13 -28 3 5.3 15.8
-15 -12 -3 -1.8 12.7
-15 -12 -3 7 14
27 -15 -3 7.6 7.4
15 12 3 7.5 6.9
-27 15 3 -11.9 10.3
12 -27 3 13.6 16.4
26 -15 -3 18.1 8.7
-15 -11 -3 7.9 14.4
11 -26 3 41.6 16.2
-26 15 3 16.7 13.4
15 11 3 19.8 9.3
-15 -10 -3 -6.9 12.3
25 -15 -3 -0.7 6.2
15 10 3 -0.8 6
-25 15 3 -3.1 9.2
10 -25 3 -8.1 11.6
-9 24 -3 14.3 13.3
-15 -9 -3 14.7 10.1
24 -15 -3 43 10.7
-15 -9 -3 38 15.4
15 9 3 14.5 10.8
9 -24 3 30.3 15.9
-24 15 3 30.7 11.7
9 -24 3 6.6 8.3
15 9 3 -2.9 5.3
-15 -8 -3 5 14
-15 -8 -3 12.3 9.2
23 -15 -3 -4.9 5.4
-8 23 -3 10.6 10.8
15 8 3 -2.1 9.9
15 8 3 3.6 7.7
8 -23 3 -7.1 6.8
-23 15 3 5.2 8.4
8 -23 3 -15.8 11.1
22 -15 -3 30.5 10
-7 22 -3 22.3 12.3
-15 -7 -3 27.8 11.1
-15 -7 -3 7.5 11.8
15 7 3 13.4 7.9
7 -22 3 21 8.9
7 -22 3 37 13.5
15 7 3 19.6 9.3
-22 15 3 41.5 11.3
-15 -6 -3 10.4 10.6
21 -15 -3 1.2 5.3
-15 -6 -3 -10.6 9.2
6 -21 3 -7 6.4
6 -21 3 -8 9.8
-21 15 3 1.8 7.8
15 6 3 -6.9 4.6
15 6 3 -2.3 8.5
20 -15 -3 11.1 7.4
-15 -5 -3 24 11
5 -20 3 14.3 8.2
-20 15 3 18.7 9.3
15 5 3 15.3 9.6
15 5 3 30.4 9.7
-15 -4 -3 -1.7 8.2
4 -19 3 12.4 12.2
4 -19 3 16 9
15 4 3 7.3 9.6
15 4 3 3.8 7.1
-15 -3 -3 19.8 9.5
18 -15 -3 0.1 4.7
15 3 3 11.2 9.5
15 3 3 16.8 7
-18 15 3 25.8 8.5
3 -18 3 6.1 11.9
3 -18 3 10.3 7.8
17 -15 -3 -3.6 4.7
-15 -2 -3 -7.3 7.3
-2 17 -3 -8.2 8.4
15 2 3 4.9 5.3
-17 15 3 0 5.6
2 -17 3 -5.3 11.2
2 -17 3 4.2 7.8
15 2 3 4.7 7.6
-15 -1 -3 120.09 19.8
-1 16 -3 107.59 20.3
16 -15 -3 104.59 14.5
1 -16 3 94.29 16.5
1 -16 3 120.89 21.8
-16 15 3 115.69 15.7
15 1 3 98.79 17.5
15 1 3 89.29 15.3
15 -15 -3 -1.9 4.6
-15 0 -3 -6.8 7.6
0 15 -3 3.9 9
-15 15 3 -2 5.9
15 0 3 9.4 8.3
15 0 3 5.7 6.6
0 -15 3 -7.4 6
0 -15 3 25.4 12.7
1 14 -3 26.2 12.9
-15 1 -3 27.4 10.8
14 -15 -3 28.1 6.2
-1 -14 3 13.3 8.1
15 -1 3 15.2 9.1
-1 -14 3 4.5 11.9
-14 15 3 22.9 7.9
15 -1 3 25.2 9.2
13 -15 -3 -2.9 3.7
-15 2 -3 -3.9 8.4
2 13 -3 2.6 8.7
15 -2 3 3.8 6.2
-2 -13 3 11.7 10.4
-2 -13 3 -0.9 6.6
15 -2 3 2.2 7.7
-13 15 3 -2.5 5.2
3 12 -3 50.29 14.1
12 -15 -3 56.99 7.9
-15 3 -3 67.19 13.7
15 -3 3 51.69 11.3
-3 -12 3 44.4 10.9
15 -3 3 55.89 13.1
-12 15 3 58.19 9.8
-3 -12 3 42.2 14
-15 4 -3 -4.9 8.5
-4 -11 3 -4 8.8
-4 -11 3 -13.3 4.8
15 -4 3 -15 5.6
-11 15 3 -8.5 5.1
15 -4 3 -4 5.2
-15 5 -3 45.1 12.3
-5 -10 3 33.4 9.9
15 -5 3 49.6 11.9
-5 -10 3 65.39 15.7
15 -5 3 23.8 8.5
-10 15 3 55.59 9.5
-15 6 -3 28.7 11.3
15 -6 3 30.6 9.9
15 -6 3 10.2 7.4
-6 -9 3 13.8 11.3
-6 -9 3 15.8 8.3
-9 15 3 12.6 6.6
-15 7 -3 9.4 9.1
-7 -8 3 18 11.7
-7 -8 3 12.4 7.8
-8 15 3 8.4 6.5
15 -7 3 6.9 7.4
15 -7 3 38.4 10.7
-15 8 -3 2.6 8.9
8 7 -3 34.7 10.5
-8 -7 3 10.4 10.5
15 -8 3 3.7 7.1
15 -8 3 17.5 9.1
-8 -7 3 30.5 8.5
-7 15 3 14.3 7
-15 9 -3 27.5 10.8
9 6 -3 15.8 8.1
15 -9 3 23.3 8.4
-9 -6 3 7.2 10
-9 -6 3 16.4 7.2
-6 15 3 6 6.5
15 -9 3 22.4 9.5
10 5 -3 47.8 11.9
-15 10 -3 37.7 12.3
15 -10 3 47 12.4
-5 15 3 49.3 9.8
-10 -5 3 36.8 8.8
-10 -5 3 56.49 14.5
15 -10 3 44.1 11.1
-15 11 -3 -10.7 8.1
11 4 -3 7.8 8.3
-11 -4 3 -8.7 8.7
-11 -4 3 -7.5 4.5
-4 15 3 -3.5 6.1
15 -11 3 -9 7
-11 -4 3 1.4 7.3
12 3 -3 52.09 11.7
-15 12 -3 48 13.5
-12 -3 3 59.49 12.7
15 -12 3 44.9 13.2
-3 15 3 42.9 10.5
-12 -3 3 60.49 14.4
-12 -3 3 55.39 11.6
13 2 -3 19.8 8.4
-15 13 -3 -7.7 8
-13 -2 3 8.5 6.8
15 -13 3 -3.1 7.5
-2 15 3 3.5 7
-13 -2 3 -4.5 6.4
-15 14 -3 22.3 11.7
14 1 -3 26.2 10
15 -14 3 11.2 10
-14 -1 3 1.4 6.8
-14 -1 3 20.8 9.2
-1 15 3 18.3 9.1
-15 15 -3 -1.4 10.3
15 0 -3 -5.3 7.1
15 -15 3 -12.9 7.1
-15 0 3 0 6.9
-15 0 3 0.9 7.3
0 15 3 11.1 8
-15 16 -3 88.49 19.2
16 -1 -3 130.49 19.5
15 -16 3 161.28 21.2
-16 1 3 123.79 19.9
-16 1 3 80.59 16.3
-2 -15 -3 -7.5 4.1
-15 17 -3 -1.3 9.5
-2 -15 -3 6.2 5.9
17 -2 -3 -3.4 7.1
15 -17 3 -9.7 7.7
-17 2 3 -5.8 7.1
-17 2 3 8.3 8.1
-3 -15 -3 8.2 5.3
-3 -15 -3 12.9 7.4
18 -3 -3 12.7 7.9
-15 18 -3 12.7 12.6
-18 3 3 21.3 9.9
3 15 3 8.5 5
15 -18 3 6.5 9.6
-18 3 3 51.79 13.6
-15 19 -3 10.8 11.8
19 -4 -3 3.7 7.3
-4 -15 -3 10.2 6.3
4 15 3 12.1 5.3
-19 4 3 14.5 8.6
-19 4 3 5.6 8.7
15 -19 3 5.1 9.6
-15 20 -3 28.2 14.2
-5 -15 -3 11.7 8.8
20 -5 -3 9.3 7.8
-5 -15 -3 17.2 7.7
-20 5 3 22.7 10.8
5 15 3 34.5 7.6
-20 5 3 7.2 7.5
15 -20 3 18.8 12
-6 -15 -3 -8.1 7.9
-15 21 -3 2.4 12.3
21 -6 -3 -1.6 5.6
-6 -15 -3 -3.5 6.5
-6 -15 -3 -1.8 5.1
-21 6 3 -6.2 5.9
-21 6 3 -1.6 8.2
15 -21 3 34.7 22.2
6 15 3 7.7 5.1
22 -7 -3 34.1 10.3
-7 -15 -3 12.7 7.4
-7 -15 -3 29.3 12
-7 -15 -3 41.8 12.9
-15 22 -3 12.7 14.1
-22 7 3 46.2 14
-22 7 3 17.9 9.9
15 -22 3 51.29 14.8
7 15 3 12.5 6.8
-8 -15 -3 3.9 7.5
-8 -15 -3 -11.7 9.3
-15 23 -3 -6.2 10.7
23 -8 -3 11.5 8.3
-8 -15 -3 7.3 6.7
15 -23 3 5.2 9.9
8 15 3 9.3 5.9
-23 8 3 0.2 8.6
-15 24 -3 38.6 15.8
-9 -15 -3 14.9 12.3
24 -9 -3 28.6 10
-9 -15 -3 27.5 9.4
-9 -15 -3 27.5 10.6
-24 9 3 10.1 9.2
9 15 3 20.7 7.8
15 -24 3 12.9 13.3
-10 -15 -3 11.8 8.6
25 -10 -3 6.9 8.3
-10 -15 -3 -0.4 9.6
-10 -15 -3 9.5 8
10 15 3 9.9 6.1
15 -25 3 4.3 11.7
-25 10 3 -0.2 8.3
-25 10 3 10.5 11.1
-11 -15 -3 17.3 12.5
-11 -15 -3 22.9 11.7
26 -11 -3 20.3 10.3
-26 11 3 21.6 13
11 15 3 7.3 5.8
15 -26 3 -11.4 9.9
-26 11 3 6.9 10.1
-12 -15 -3 18.5 11.1
27 -12 -3 0.9 6.9
12 15 3 3.8 5.6
15 -27 3 -15.9 12.6
-13 -15 -3 -4.1 12.8
28 -13 -3 11.2 9.5
13 15 3 4.7 5.9
15 -28 3 20.2 14.8
-16 -12 -3 -21.4 11.1
-16 -12 -3 -3.8 14.9
28 -16 -3 25.8 10.3
16 12 3 13.5 7.8
12 -28 3 8.8 10
12 -28 3 -4.1 13.1
-16 -11 -3 32 13.3
27 -16 -3 -5.9 6.2
-16 -11 -3 9.3 14.4
-27 16 3 9.7 11.4
11 -27 3 -3.9 8.1
16 11 3 -6.4 5.9
11 -27 3 4.4 12.5
-16 -10 -3 46.7 16.3
26 -16 -3 37.4 11.2
-16 -10 -3 45.2 17.2
16 10 3 33.2 10.4
-26 16 3 5.5 11.9
10 -26 3 34.4 16.5
10 -26 3 13.9 13
25 -16 -3 2.4 7.1
-16 -9 -3 1.2 13.7
-25 16 3 7 10.7
9 -25 3 1.5 12.9
16 9 3 10.5 7.7
-16 -8 -3 74.49 17.8
24 -16 -3 55.19 17.1
-8 24 -3 23.7 15.9
16 8 3 76.49 14.2
16 8 3 77.59 17.1
8 -24 3 42.5 17.8
-24 16 3 98.19 17.1
-16 -7 -3 -16.2 9.6
23 -16 -3 2.2 6.3
-16 -7 -3 4.1 9
-7 23 -3 -16.4 9.5
16 7 3 -4.4 7.9
7 -23 3 8.5 7.2
-23 16 3 0.3 8.6
16 7 3 19.5 8.1
7 -23 3 3.2 14.4
22 -16 -3 63.99 12
-6 22 -3 64.89 17.4
-16 -6 -3 80.29 15.7
16 6 3 41 13.4
6 -22 3 45.7 12.5
6 -22 3 56.69 17.3
16 6 3 62.49 12.9
-22 16 3 95.69 17.3
-16 -5 -3 8.5 10.5
21 -16 -3 8.4 6.6
16 5 3 3.5 8.4
5 -21 3 -13.5 10.1
16 5 3 4.3 6.2
-21 16 3 -7.1 6.7
5 -21 3 -7.2 5.6
-16 -4 -3 83.39 17.3
20 -16 -3 91.19 14.2
4 -20 3 92.79 21.3
4 -20 3 78.59 15.3
-20 16 3 100.69 16.3
16 4 3 89.49 15.7
16 4 3 82.79 16.6
19 -16 -3 11.2 6.6
-16 -3 -3 7.8 9.3
16 3 3 11.2 9.2
16 3 3 11.3 7
3 -19 3 10.9 8.6
3 -19 3 41 20.3
-16 -2 -3 120.59 20.4
18 -16 -3 110.09 14.9
16 2 3 110.39 16.9
2 -18 3 103.29 17.8
-18 16 3 118.59 17.1
2 -18 3 89.39 20.9
17 -16 -3 36 7.9
-16 -1 -3 35.3 12.9
1 -17 3 17.8 9.6
16 1 3 52.99 13.2
16 1 3 26.4 8.9
-17 16 3 39.7 10.1
1 -17 3 33.2 14.3
16 -16 -3 201.18 21.7
-16 0 -3 216.28 27.8
0 16 -3 199.88 28
-16 16 3 213.08 23.4
16 0 3 229.88 26.4
16 0 3 195.38 24.4
0 -16 3 178.88 28.2
0 -16 3 224.08 25.6
-16 1 -3 121.99 19.9
15 -16 -3 109.99 16.6
1 15 -3 93.39 19.3
16 -1 3 119.89 18.8
16 -1 3 92.79 15.8
-15 16 3 97.69 15.3
-1 -15 3 116.59 17.7
-1 -15 3 87.39 19.1
14 -16 -3 225.88 22.6
-16 2 -3 246.38 29.2
2 14 -3 233.88 29.3
16 -2 3 203.38 26.1
16 -2 3 241.58 27.6
-2 -14 3 265.37 27.4
-14 16 3 212.78 24.1
-2 -14 3 259.97 30.4
13 -16 -3 47.1 6.9
3 13 -3 29.5 11.6
-16 3 -3 36 12.1
16 -3 3 17.8 9.1
-3 -13 3 71.49 16.4
-13 16 3 31.7 8.8
16 -3 3 34.1 10.8
-3 -13 3 30.8 9.9
-16 4 -3 195.68 24.7
16 -4 3 183.38 22.4
-12 16 3 188.68 20.3
-4 -12 3 159.28 25.4
16 -4 3 180.68 23.5
-4 -12 3 170.68 22.4
-16 5 -3 70.89 14.9
-11 16 3 99.29 13
16 -5 3 56.79 11.6
-5 -11 3 80.89 16.6
16 -5 3 53.29 13.6
-5 -11 3 56.49 12.3
-16 6 -3 307.57 30.6
-6 -10 3 245.78 31.1
16 -6 3 230.38 27.8
16 -6 3 243.58 28.4
-10 16 3 226.98 25.3
-6 -10 3 272.07 28.3
-16 7 -3 69.39 15.2
16 -7 3 67.29 13.4
-7 -9 3 44.6 10.2
-9 16 3 74.79 11.4
-7 -9 3 72.49 15.8
16 -7 3 45 11.6
-16 8 -3 254.37 29.3
16 -8 3 228.88 26.7
16 -8 3 246.98 27.5
-8 16 3 221.68 24.7
-8 -8 3 256.77 30.3
-8 -8 3 236.38 27.3
9 7 -3 59.69 13.1
-16 9 -3 73.89 15.5
-9 -7 3 63.99 13.2
-9 -7 3 58.49 15.2
16 -9 3 45.2 10.8
-7 16 3 79.99 12
16 -9 3 78.39 14.8
-16 10 -3 242.38 29.4
10 6 -3 266.67 29.1
-6 16 3 274.67 26.2
16 -10 3 220.98 27.4
-10 -6 3 236.18 29.8
-10 -6 3 252.17 27.8
16 -10 3 239.88 28.6
11 5 -3 50.89 11.4
-16 11 -3 52.49 13.2
-11 -5 3 47.5 15
16 -11 3 73.59 14.2
-11 -5 3 60.79 11.7
16 -11 3 68.69 13.7
-5 16 3 74.49 12.3
-11 -5 3 40.7 11.5
12 4 -3 161.98 23.2
-16 12 -3 165.08 25.9
-12 -4 3 162.08 24.7
-12 -4 3 166.98 22.6
-12 -4 3 199.18 22.9
16 -12 3 191.18 24.1
-4 16 3 197.68 21.6
13 3 -3 46.6 12.8
-16 13 -3 50.69 14.1
16 -13 3 35.6 12.3
-3 16 3 40.8 10.7
-13 -3 3 37.3 11.6
-13 -3 3 71.49 14.1
-16 14 -3 208.78 29.6
14 2 -3 234.98 29
16 -14 3 250.97 30
-2 16 3 300.57 28
-14 -2 3 247.58 28.9
-14 -2 3 243.38 28.4
-16 15 -3 103.39 19.6
15 1 -3 96.99 16.9
-15 -1 3 73.99 16.1
-1 16 3 106.99 16.8
16 -15 3 96.29 17.8
-15 -1 3 114.39 17.7
-16 16 -3 274.07 31.1
16 0 -3 195.58 26.5
16 -16 3 249.88 28
-16 0 3 196.08 26.3
-16 0 3 201.38 26.4
17 -1 -3 42.9 11.9
-16 17 -3 31.7 16.4
16 -17 3 56.29 14.3
-17 1 3 56.69 13.3
-17 1 3 28.3 11.1
-16 18 -3 130.29 32.6
-2 -16 -3 114.89 14.2
-2 -16 -3 127.79 15.4
18 -2 -3 141.09 21.2
-18 2 3 142.49 23.4
-18 2 3 98.89 18.8
16 -18 3 133.39 21.3
19 -3 -3 21.3 9.5
-3 -16 -3 14.1 6.4
-16 19 -3 24.5 16.9
-3 -16 -3 10.4 8.2
16 -19 3 13.8 11.2
-19 3 3 16 9.9
-19 3 3 27.5 9.7
-4 -16 -3 108.19 14.2
-4 -16 -3 74.69 15.1
-16 20 -3 95.99 20
20 -4 -3 101.09 17.9
-20 4 3 69.39 15.3
-20 4 3 81.69 16.4
16 -20 3 85.09 20.2
4 16 3 99.09 12.2
-5 -16 -3 -9 7.2
-16 21 -3 0.2 13.9
-5 -16 -3 10.1 6.9
21 -5 -3 -12.4 6.3
-21 5 3 19.7 10.7
-21 5 3 5.6 8.3
5 16 3 -1.7 4.8
16 -21 3 2 10.5
-16 22 -3 59.79 17.7
-6 -16 -3 72.39 12.5
22 -6 -3 100.09 17.4
-6 -16 -3 52.89 11.5
-6 -16 -3 56.29 13.3
-22 6 3 73.89 17.2
-22 6 3 50.09 18.9
6 16 3 76.89 11.8
16 -22 3 94.39 20.2
-7 -16 -3 7.4 9.3
23 -7 -3 6.5 7.5
-16 23 -3 -6.4 11.9
-7 -16 -3 26.6 9.2
16 -23 3 3 10.9
7 16 3 1.2 5
-23 7 3 -15.5 8.1
-23 7 3 -1.2 6.2
-16 24 -3 27.1 17.2
-8 -16 -3 58.79 13.1
24 -8 -3 81.49 16.7
-8 -16 -3 60.79 14.6
-8 -16 -3 36.8 11.2
-24 8 3 66.19 17.2
8 16 3 69.99 11.6
-24 8 3 78.09 16.5
16 -24 3 94.89 21.4
25 -9 -3 -6.2 6.7
-9 -16 -3 13.7 8.1
-9 -16 -3 -7.2 10.3
-9 -16 -3 -11 7.7
16 -25 3 6.2 11.3
-25 9 3 10.8 8.1
9 16 3 7.7 6
-25 9 3 -5 8.1
-10 -16 -3 39.4 12.4
26 -10 -3 56.89 14.1
-10 -16 -3 39.2 14.8
10 16 3 37.5 9.6
-26 10 3 56.89 16.3
16 -26 3 57.59 16.9
-11 -16 -3 1.7 9.6
27 -11 -3 2.7 7.8
-11 -16 -3 -3.5 11.1
16 -27 3 -8.8 10.5
11 16 3 8.7 6.1
28 -12 -3 24.8 10.9
-12 -16 -3 27.3 15.4
16 -28 3 22.2 16.8
12 16 3 18 8.3
-17 -11 -3 3.5 14
-17 -11 -3 -0.8 12.7
28 -17 -3 -0.5 7.6
11 -28 3 11.9 10.2
11 -28 3 24.3 19.2
17 11 3 3.7 6.7
27 -17 -3 1.3 7
-17 -10 -3 5.7 12.9
-17 -10 -3 4.7 17.4
17 10 3 -3.8 5.5
10 -27 3 26.7 10.3
-27 17 3 12 11.3
10 -27 3 -15.2 12.6
-17 -9 -3 10.7 15.7
-17 -9 -3 10.8 11.9
26 -17 -3 10.7 8.1
9 -26 3 6.2 14.3
-26 17 3 8 11.7
17 9 3 29.2 9.8
9 -26 3 2.3 13.9
25 -17 -3 9.9 6.9
-17 -8 -3 18.1 13.5
-17 -8 -3 3.9 12.4
17 8 3 -5.7 9.4
8 -25 3 -12.7 10.7
-25 17 3 1.1 9.1
17 8 3 2.9 7.1
-17 -7 -3 12.5 13.8
24 -17 -3 12.5 8
-17 -7 -3 55.89 16.9
17 7 3 32.2 10.2
17 7 3 16.8 11.3
-24 17 3 37.4 12.9
7 -24 3 50.49 17.6
-6 23 -3 0.1 11.2
-17 -6 -3 0.9 10.6
23 -17 -3 2.3 5.9
17 6 3 13.5 9.4
6 -23 3 13.6 13.2
6 -23 3 14.8 7.3
17 6 3 -12.3 4.7
-23 17 3 5.2 8.8
22 -17 -3 57.39 11.9
-5 22 -3 65.49 17.4
5 -22 3 26.1 16.2
17 5 3 39 12.5
17 5 3 34 10.6
5 -22 3 17.3 9.1
-22 17 3 35 12.3
-17 -4 -3 20.4 10.2
21 -17 -3 -4.6 5
17 4 3 7.1 6.6
4 -21 3 -6.1 6
17 4 3 1.5 8.1
4 -21 3 -13.6 11.1
-21 17 3 -1.2 7.1
-17 -3 -3 21 11.2
20 -17 -3 25.3 8.4
17 3 3 22.9 11.1
17 3 3 9.1 11.9
3 -20 3 30.2 11
3 -20 3 18.3 14.5
-20 17 3 24.2 9.9
19 -17 -3 0.4 4.7
-17 -2 -3 -1.8 8.3
17 2 3 3.5 8.6
2 -19 3 -4.7 6
2 -19 3 -0.6 10.7
17 2 3 -1.7 6.1
18 -17 -3 42 8.9
-17 -1 -3 49.6 13.7
17 1 3 40.2 13.4
1 -18 3 65.89 13
-18 17 3 50.49 11.5
17 1 3 51.19 11.6
17 -17 -3 29.4 7.1
-17 0 -3 14.9 11.5
0 -17 3 26.4 9.4
0 -17 3 13.8 12.2
17 0 3 18.2 7.7
-17 17 3 17 8.6
1 16 -3 44 14.5
16 -17 -3 23.5 6.9
-17 1 -3 43.8 13.6
-1 -16 3 19.2 13.3
17 -1 3 59.19 12.9
-1 -16 3 47.6 11.3
17 -1 3 45.5 12.4
-16 17 3 34.2 9.6
-17 2 -3 11.6 9.4
2 15 -3 -7.1 8.3
15 -17 -3 -2.7 3.6
17 -2 3 11.4 8.4
-2 -15 3 11 11.5
-2 -15 3 -4.1 5.4
-15 17 3 0 6.6
17 -2 3 6.3 6.6
3 14 -3 35 12.5
-17 3 -3 32 12.5
14 -17 -3 37.4 6.9
-3 -14 3 38.1 13.5
-3 -14 3 60.99 12.6
17 -3 3 54.69 12.7
17 -3 3 39.5 9.3
-17 4 -3 13 10.1
17 -4 3 -3.6 6.9
-4 -13 3 0.4 6.8
-13 17 3 -0.6 6.3
-4 -13 3 -0.1 10.2
17 -4 3 9.1 7
-17 5 -3 73.89 14.9
17 -5 3 71.89 14.5
-5 -12 3 36.3 14.1
17 -5 3 87.79 14.6
-12 17 3 45.2 11.1
-5 -12 3 52.69 11.4
-17 6 -3 3.7 9.1
17 -6 3 -2.7 5.5
-11 17 3 -6.3 6.4
-6 -11 3 -4.4 9.7
-6 -11 3 0.9 6.1
17 -6 3 -5.3 7.3
-17 7 -3 21.7 11
-7 -10 3 17.2 12
17 -7 3 24.6 9.6
17 -7 3 25.5 9.3
-10 17 3 27.4 8.6
-7 -10 3 27.7 9.5
-17 8 -3 4 10.5
17 -8 3 -0.3 7.8
-8 -9 3 24.6 8.2
-9 17 3 1.4 6.8
-8 -9 3 6.1 10.9
17 -8 3 22.7 9.2
9 8 -3 8.6 8.8
-17 9 -3 6.9 9.2
17 -9 3 0.2 6.1
-9 -8 3 2.2 10.4
17 -9 3 14.3 9.6
-9 -8 3 9.1 7.4
-8 17 3 29.3 9
10 7 -3 20 8.9
-17 10 -3 9.2 10.7
-10 -7 3 36.4 11.1
-10 -7 3 29.4 9.1
17 -10 3 12.1 9.1
-7 17 3 44.7 10
-10 -7 3 34.2 12.9
17 -10 3 4 7.3
-17 11 -3 -17.2 6.5
11 6 -3 -8.4 6
-11 -6 3 -0.6 6.7
-11 -6 3 3.9 9
-11 -6 3 -0.9 5.3
17 -11 3 -1.7 7.9
17 -11 3 -3.3 5.9
-6 17 3 5.5 7.5
-17 12 -3 52.39 14.5
12 5 -3 61.29 13
17 -12 3 41.6 12.7
17 -12 3 38 11.5
-12 -5 3 70.59 15.9
-5 17 3 74.29 12.8
-12 -5 3 77.59 15.6
-12 -5 3 50.79 12.6
-17 13 -3 -10.5 8.2
13 4 -3 0.7 6.7
-13 -4 3 -5.2 6.8
-4 17 3 11.4 8.6
17 -13 3 -2.1 7.7
17 -13 3 -5.6 6.2
-13 -4 3 18.9 11.8
-13 -4 3 -7.7 5.5
-17 14 -3 34.7 12.6
14 3 -3 59.09 13.9
-14 -3 3 26.7 10.1
17 -14 3 42.8 12
-14 -3 3 53.19 11.4
-3 17 3 43.5 11.4
-17 15 -3 10.8 9.9
15 2 -3 1.3 8
17 -15 3 1.6 8.4
-15 -2 3 2.2 6.1
-2 17 3 -16.2 6.7
-15 -2 3 5.9 7.8
16 1 -3 56.09 13.3
17 -16 3 59.69 14.1
-16 -1 3 37.4 12.1
-16 -1 3 27.5 10.7
17 0 -3 21.5 12.7
17 -17 3 23 10.8
-17 0 3 13.3 9.9
-17 0 3 16.4 9.6
18 -1 -3 58.99 13.5
-18 1 3 59.99 14.4
17 -18 3 74.79 15.4
-18 1 3 60.39 14.7
-2 -17 -3 -2.2 5.5
19 -2 -3 12.9 8.7
-2 -17 -3 -1.6 4.8
-17 19 -3 15.2 16.8
-19 2 3 -7.1 5.9
17 -19 3 5.4 9.6
-19 2 3 8 9.5
-17 20 -3 23.2 14.3
20 -3 -3 30.7 11.1
-3 -17 -3 26.6 10.5
-3 -17 -3 33 7.7
-20 3 3 36.1 12
-20 3 3 10.3 8.2
-4 -17 -3 -8.4 5.8
-4 -17 -3 3.8 8.1
-17 21 -3 -15.1 15.1
21 -4 -3 -6.5 5.5
17 -21 3 6.6 10.8
-21 4 3 0.6 7.4
-21 4 3 18 9.5
-17 22 -3 56.49 16.2
22 -5 -3 19.7 9.7
-5 -17 -3 22.2 9.5
-5 -17 -3 34.8 9.1
-22 5 3 25.1 12.3
17 -22 3 38.2 14.7
-22 5 3 9.8 8.1
5 17 3 27.8 7.2
-6 -17 -3 3.4 7.5
-6 -17 -3 2.7 9
23 -6 -3 -3.5 6.9
-17 23 -3 -20.1 11.1
6 17 3 -11.2 4.1
-23 6 3 0.2 12.4
-23 6 3 15.5 9.3
17 -23 3 -12.5 9.4
-7 -17 -3 20.3 10.9
24 -7 -3 34.7 12.4
-17 24 -3 36.7 22.1
-7 -17 -3 29.7 11.1
-24 7 3 17.5 10.2
7 17 3 37 8.7
17 -24 3 50.99 17.6
-24 7 3 17.4 12.4
25 -8 -3 8.5 9.7
-8 -17 -3 4.5 8.8
-8 -17 -3 7.9 10.5
17 -25 3 4.6 11.9
8 17 3 4.5 4.9
-25 8 3 7 11.1
-25 8 3 -6 10.1
26 -9 -3 22.6 11.1
-9 -17 -3 12 12.1
-9 -17 -3 29.8 11.2
9 17 3 30.5 8.2
17 -26 3 42.1 16.2
-10 -17 -3 3.4 13.5
-10 -17 -3 2.3 10.3
27 -10 -3 8.8 9.2
10 17 3 -0.9 5.9
17 -27 3 0.2 11.3
-11 -17 -3 32.1 12.1
28 -11 -3 -13.1 7.2
11 17 3 6.5 6.8
17 -28 3 18.8 14.3
-18 -10 -3 37.6 17.3
28 -18 -3 27.9 10.5
18 10 3 32.7 11.7
10 -28 3 9.3 16.7
10 -28 3 21 10.9
27 -18 -3 2.4 6.7
-18 -9 -3 0 13.3
-18 -9 -3 1.1 11.9
9 -27 3 21.6 9.8
-27 18 3 4 10.7
9 -27 3 -19.2 11.7
18 9 3 3.8 7.5
-18 -8 -3 71.59 18.4
26 -18 -3 75.49 15.2
-18 -8 -3 51.19 21.5
8 -26 3 75.59 21.4
8 -26 3 49.1 17.3
-26 18 3 76.79 18.9
18 8 3 69.09 15
-18 -7 -3 -12.1 12.3
-18 -7 -3 -8 11.6
25 -18 -3 -0.4 6.6
7 -25 3 11 14.6
-25 18 3 23.6 13
18 7 3 41.9 13.1
18 7 3 3.2 6.8
24 -18 -3 68.89 13.2
-18 -6 -3 37.7 17.7
-18 -6 -3 73.99 17.5
6 -24 3 71.79 19.8
-24 18 3 75.89 17.3
18 6 3 77.69 14.3
18 6 3 46.9 14.2
-5 23 -3 10.8 11.4
-18 -5 -3 5.2 13
23 -18 -3 3.2 6.1
5 -23 3 -12 6.4
18 5 3 7.7 9
18 5 3 28.1 9.5
-23 18 3 -2.5 8.8
5 -23 3 45.9 17.9
22 -18 -3 92.29 15.3
-4 22 -3 97.59 21.2
18 4 3 79.79 15.6
4 -22 3 74.39 15.4
4 -22 3 99.99 22.1
-22 18 3 96.09 17.8
18 4 3 90.69 18.5
21 -18 -3 1.7 5.8
18 3 3 4 6.7
18 3 3 2.2 8.4
3 -21 3 -7.9 11.3
3 -21 3 -5.9 6.1
-21 18 3 2.7 8.4
20 -18 -3 85.89 13.6
-18 -2 -3 80.39 18.1
18 2 3 89.79 17.5
2 -20 3 106.79 24.6
18 2 3 93.99 16.7
-20 18 3 94.69 16.8
2 -20 3 104.89 17.3
19 -18 -3 2.7 4.9
-18 -1 -3 5.5 8.9
-19 18 3 14.6 9.2
1 -19 3 -10.6 5.6
18 1 3 10.6 7.2
1 -19 3 13.6 13.3
18 1 3 9.6 9
-18 0 -3 56.09 15.9
18 -18 -3 63.09 10.5
0 -18 3 61.49 13.6
18 0 3 54.99 16.8
18 0 3 72.99 15.3
0 -18 3 77.79 19.5
-18 18 3 63.69 13.6
17 -18 -3 55.29 9.4
-18 1 -3 89.09 18.5
-1 -17 3 39.6 11.9
-1 -17 3 45.1 22.1
18 -1 3 50.99 14.5
-17 18 3 65.89 12.8
18 -1 3 51.69 15.7
-18 2 -3 108.69 19.7
18 -2 3 90.49 20.8
-16 18 3 127.69 18.1
18 -2 3 94.29 16.5
-2 -16 3 137.19 29.8
-2 -16 3 144.59 18.9
15 -18 -3 4.4 4.4
-18 3 -3 -7.9 8.9
18 -3 3 1.1 6
18 -3 3 6.5 9.2
-3 -15 3 25.7 12.6
-15 18 3 7.1 7.3
-3 -15 3 5.6 7.3
-18 4 -3 26.9 11.8
-4 -14 3 16.5 8.1
18 -4 3 16.3 8.5
-4 -14 3 27.8 13.1
-14 18 3 36.5 9.4
18 -4 3 19.7 8.4
-18 5 -3 -5.4 7.5
18 -5 3 1.2 7.7
-5 -13 3 3.4 6.4
18 -5 3 -3.8 5.4
-13 18 3 2.1 7
-5 -13 3 5.6 11.4
-18 6 -3 31.1 11.6
18 -6 3 41.9 10.7
-12 18 3 27.3 10
-6 -12 3 60.59 11.7
-6 -12 3 40.9 13.3
18 -6 3 29.7 10.4
-18 7 -3 17.6 10.6
-7 -11 3 2.5 10.3
-7 -11 3 10.5 7.9
-11 18 3 1.5 6.7
18 -7 3 11.1 7.7
18 -7 3 -4.6 5.1
-18 8 -3 33.9 12.4
-8 -10 3 24.6 12.3
18 -8 3 24.8 9.1
18 -8 3 11.7 8.6
-10 18 3 32.5 9.6
-8 -10 3 19.9 8.9
-18 9 -3 -1.7 9
-9 -9 3 1.4 9.4
18 -9 3 0.5 8.2
-9 -9 3 -1.9 5.7
18 -9 3 1.3 6
-9 18 3 16.2 8.3
-18 10 -3 26.8 10.9
10 8 -3 9.2 8.5
-8 18 3 51.29 11
18 -10 3 22 10
-10 -8 3 14.6 8.4
18 -10 3 15.1 8
-10 -8 3 16.5 9.2
-10 -8 3 27.1 13.2
-18 11 -3 6.7 9.1
11 7 -3 6.4 6.8
-11 -7 3 0.2 6.9
18 -11 3 -3.7 7.4
-11 -7 3 2.4 5.8
-11 -7 3 -4.7 9.4
-7 18 3 -2.9 7.1
18 -11 3 5.1 6.9
-18 12 -3 32.9 11.1
12 6 -3 41.8 12
-12 -6 3 49.5 14.4
18 -12 3 24.8 9.6
18 -12 3 52.19 12.4
-12 -6 3 41.8 12
-12 -6 3 40.5 11.5
-6 18 3 21.1 9.1
-18 13 -3 -7 7.7
13 5 -3 -5.6 6
18 -13 3 -5.1 7.3
-13 -5 3 -7.4 4.6
18 -13 3 2.2 6.7
-13 -5 3 -1.2 7.3
-5 18 3 -11 6.4
-13 -5 3 -12.9 7.4
14 4 -3 35.7 11.9
18 -14 3 37.2 10.9
18 -14 3 22 10.3
-4 18 3 41.9 10.7
-14 -4 3 45.5 14.5
-14 -4 3 16.8 10.4
15 3 -3 2.4 6.1
18 -15 3 10.3 7.4
-15 -3 3 4.3 8
18 -15 3 10.9 9.5
-3 18 3 15.2 8.9
16 2 -3 81.39 19.1
18 -16 3 114.19 18.7
-16 -2 3 139.79 22
-2 18 3 107.19 20.3
17 1 -3 41.5 12.1
-17 -1 3 54.99 13.6
18 -17 3 68.59 15.5
-1 18 3 43 12.9
18 0 -3 73.49 16
-18 0 3 69.69 15.8
-18 0 3 53.29 13.7
18 -18 3 102.99 19.8
19 -1 -3 -0.5 7
-18 19 -3 7 12.5
-19 1 3 5.1 8.9
-19 1 3 7 8.5
-2 -18 -3 92.99 13.1
20 -2 -3 104.19 18.4
-2 -18 -3 82.19 11.7
-20 2 3 63.89 15.9
-20 2 3 83.79 17.1
18 -20 3 98.19 19.3
21 -3 -3 4.7 8.8
-3 -18 -3 -8.6 9.5
-18 21 -3 -7.4 11.7
-3 -18 -3 12.5 6.6
-21 3 3 -8.7 7.3
-21 3 3 -5.9 7.3
18 -21 3 4.6 11
-18 22 -3 109.29 21.8
-4 -18 -3 89.09 13.3
-4 -18 -3 93.49 15.3
22 -4 -3 52.59 15.5
18 -22 3 92.29 19.4
-18 23 -3 17.6 14.2
-5 -18 -3 14.3 8.3
23 -5 -3 18.1 9.8
-5 -18 -3 13.6 9.1
18 -23 3 10.4 11.2
-23 5 3 23.7 12
-23 5 3 13.6 12.6
24 -6 -3 74.89 15.8
-6 -18 -3 42.4 12.9
-6 -18 -3 81.39 19
-24 6 3 41.9 12.9
18 -24 3 126.09 23.5
-24 6 3 44.4 16.6
-7 -18 -3 19.7 10.4
25 -7 -3 -9.3 6.9
-7 -18 -3 2.3 9.9
7 18 3 6.5 6
-25 7 3 6.8 11.5
18 -25 3 3.4 12.3
-8 -18 -3 45.5 13.2
-8 -18 -3 43.3 14.1
26 -8 -3 62.59 15.8
18 -26 3 84.99 20
8 18 3 45.6 10.4
-9 -18 -3 -8.1 10.8
-9 -18 -3 1.8 11.1
27 -9 -3 3.1 8.5
9 18 3 10.2 7.2
18 -27 3 11.4 11.5
-10 -18 -3 36.8 12.7
-10 -18 -3 12.8 13.3
28 -10 -3 22.9 13.3
18 -28 3 28.7 15.6
10 18 3 11.2 7.3
-19 -9 -3 -5.9 14.7
28 -19 -3 16 8.7
9 -28 3 11.4 9.1
9 -28 3 -4 13.7
19 9 3 7.3 8.5
27 -19 -3 0.4 6.7
-19 -8 -3 -3.8 14.2
8 -27 3 -2.7 7.5
8 -27 3 1.7 15.2
-27 19 3 -3.1 9.6
19 8 3 -5.3 6.1
-19 -7 -3 20.7 14.9
-19 -7 -3 -11.3 11.2
26 -19 -3 17.8 8.8
7 -26 3 4.7 9
19 7 3 13.2 11.2
-26 19 3 2.6 12.7
19 7 3 15.1 8.9
7 -26 3 -4 15
-19 -6 -3 6.2 12.3
-19 -6 -3 -13.4 11.2
25 -19 -3 7.2 6.7
19 6 3 -9.3 5.2
19 6 3 -11.1 8.8
-25 19 3 2.6 11.1
6 -25 3 -4.1 12.9
-19 -5 -3 15.7 12.6
24 -19 -3 15.2 8.2
-24 19 3 13.5 10.5
19 5 3 -3.1 7.5
5 -24 3 13.1 15.6
19 5 3 40.1 12.6
-19 -4 -3 0.6 10.8
23 -19 -3 1 5.7
4 -23 3 -10.6 12
19 4 3 -0.3 9.1
-23 19 3 4.5 10.6
19 4 3 -11.9 5.1
22 -19 -3 30.3 9.1
-3 22 -3 29.3 14.7
19 3 3 24.6 10.6
3 -22 3 25.2 16.1
-22 19 3 7.4 9.8
19 3 3 19 11.8
3 -22 3 17.7 10.1
21 -19 -3 5.4 6.2
-2 21 -3 24.9 19
2 -21 3 2 12.9
-21 19 3 9 9.8
19 2 3 35.1 11.1
19 2 3 15.2 10.3
2 -21 3 17 8.8
20 -19 -3 28.3 7.7
19 1 3 1.5 6.8
-20 19 3 9 8.5
19 1 3 27.1 11
1 -20 3 -10.3 11.8
1 -20 3 10.4 8.6
19 -19 -3 -2.1 4.2
0 -19 3 -3.6 12.5
-19 19 3 2.8 7.4
19 0 3 17.8 8.2
0 -19 3 4 8.4
19 0 3 -0.9 7.5
18 -19 -3 -2.5 4.2
-19 1 -3 7 9.4
-1 -18 3 -10.1 10.1
19 -1 3 -4.6 7.9
-1 -18 3 8.9 8.3
19 -1 3 19.7 8.7
17 -19 -3 -4.4 3.6
-19 2 -3 14.8 10.5
-17 19 3 10.7 8.9
-2 -17 3 5.5 11.2
19 -2 3 7.2 8.2
19 -2 3 1.4 5.8
-2 -17 3 5.2 7.3
-19 3 -3 35.8 13.2
16 -19 -3 11.7 4.8
-16 19 3 7 8
19 -3 3 22.2 10.8
-3 -16 3 19.6 9.8
19 -3 3 5.1 8.1
-3 -16 3 18.5 12.7
15 -19 -3 -0.7 3.2
-19 4 -3 -11 8.2
-15 19 3 13.4 8
19 -4 3 10.2 8.7
19 -4 3 1.1 7.9
-4 -15 3 2.8 12.6
-4 -15 3 -5.6 6.4
-19 5 -3 9.1 10.2
19 -5 3 9.8 13.5
-14 19 3 8.8 7.7
-5 -14 3 -3.9 6
19 -5 3 8.6 12.6
-19 6 -3 -17.6 6.6
-13 19 3 15.3 7.9
-6 -13 3 3.8 6.7
19 -6 3 -4.4 6
19 -6 3 6.4 10.6
-6 -13 3 20.4 14.2
-19 7 -3 10.6 10.4
19 -7 3 10.7 8
-7 -12 3 3.6 10.8
-7 -12 3 -0.8 6.6
-12 19 3 7.2 8.1
19 -7 3 -1 7
-19 8 -3 -4 8.3
-11 19 3 9.8 7.8
19 -8 3 -2.1 7.7
-8 -11 3 -0.5 6.1
-8 -11 3 20.5 12.6
19 -8 3 0.8 5.9
-19 9 -3 5.9 10.5
19 -9 3 -0.5 6.9
-9 -10 3 2.7 10.7
19 -9 3 8.8 7.3
-10 19 3 6 7.6
-9 -10 3 22.3 8.1
-19 10 -3 13.5 10.8
10 9 -3 -2.8 6.7
19 -10 3 15.5 9.5
-9 19 3 8.5 8.6
-10 -9 3 2.2 6.8
-10 -9 3 30.5 14
-10 -9 3 20.3 10.8
19 -10 3 5.9 7.3
-19 11 -3 6.7 9.2
11 8 -3 -1.5 7.2
-11 -8 3 2.9 7.7
-8 19 3 1.3 7.5
-11 -8 3 4.5 6.9
-11 -8 3 7.5 11.8
19 -11 3 1.5 7.7
19 -11 3 9.1 7.3
12 7 -3 8.4 8.5
-12 -7 3 7.8 7.1
-12 -7 3 -23 8.2
-12 -7 3 2.1 7.5
-7 19 3 3.6 8.1
19 -12 3 2.3 6.4
19 -12 3 15 9.3
13 6 -3 0.2 7.3
19 -13 3 4.9 8.2
19 -13 3 10.4 7.6
-6 19 3 10.9 8.6
-13 -6 3 9.7 6.9
-13 -6 3 26.4 9.9
-13 -6 3 3.8 10.8
14 5 -3 1 14.4
-5 19 3 4.6 8.1
-14 -5 3 -4.3 7.4
19 -14 3 -8.3 5.5
19 -14 3 1.7 8.8
15 4 -3 3.6 7.6
19 -15 3 29.2 15.5
19 -15 3 -9.1 7.5
-15 -4 3 -4.5 7.2
-15 -4 3 3.4 13
16 3 -3 13.7 9.7
19 -16 3 12.8 10
-3 19 3 1.3 7.9
-16 -3 3 28.4 12
17 2 -3 2.1 7.6
-17 -2 3 -3.4 8.3
19 -17 3 -1 7.5
-2 19 3 10.8 9.2
18 1 -3 -6.9 6.9
19 -18 3 -6.4 9
-1 19 3 12 9.7
-18 -1 3 9 9.1
-19 19 -3 4.2 12.2
19 0 -3 1.5 7.7
19 -19 3 -2.1 9.4
-19 0 3 3.3 8.7
-19 0 3 18.4 12.1
-19 20 -3 18.7 13.1
20 -1 -3 6.8 8.8
-20 1 3 15 10.1
-20 1 3 -3.4 8.1
19 -20 3 22.7 12.5
-2 -19 -3 11.4 6
-2 -19 -3 19.4 7.2
-19 21 -3 9.2 12
21 -2 -3 20 11.7
19 -21 3 18.6 11.4
-21 2 3 12.6 10.2
-21 2 3 21.2 13.6
-19 22 -3 45.3 17.5
-3 -19 -3 27.2 7.7
22 -3 -3 2.2 8.8
-22 3 3 11.5 9.4
19 -22 3 24.4 13.2
-22 3 3 13.1 10.7
23 -4 -3 -0.7 7.5
-19 23 -3 -0.4 10.8
-4 -19 -3 8.9 8.8
-4 -19 -3 4.9 6.8
-23 4 3 6.9 11
-23 4 3 0.5 9.3
19 -23 3 -0.9 10.7
24 -5 -3 8.8 9.4
-5 -19 -3 24.3 9.1
-5 -19 -3 22.1 10.1
-24 5 3 24.8 13.9
19 -24 3 23.6 14.5
25 -6 -3 -4.5 8.2
-6 -19 -3 12.2 18.9
-6 -19 -3 14.3 9.9
19 -25 3 4.2 10.3
26 -7 -3 19.9 10.4
-7 -19 -3 18.7 10.5
-7 -19 -3 16.4 11.6
19 -26 3 5.9 12.2
-8 -19 -3 4.9 10.4
-8 -19 -3 1.9 11.7
27 -8 -3 16.3 10.3
19 -27 3 13.7 15.1
28 -9 -3 23.6 18.4
-9 -19 -3 13.2 12.4
-9 -19 -3 2.7 10.5
19 -28 3 9.1 15.1
28 -20 -3 33.7 10.6
8 -28 3 17.6 9.5
20 8 3 9.6 8.8
27 -20 -3 15.8 8.7
-20 -7 -3 1 18.3
7 -27 3 4.2 8.2
-27 20 3 12.5 13.6
20 7 3 20.7 8.6
-20 -6 -3 19 17
26 -20 -3 25.3 9.7
20 6 3 30 11.1
20 6 3 33.4 19.8
6 -26 3 66.19 20.5
-26 20 3 23.5 15.6
6 -26 3 29.1 11.4
25 -20 -3 24.5 14.8
-20 -5 -3 20.8 13.6
20 5 3 7.2 7.1
5 -25 3 15.9 10.5
-25 20 3 5.4 10.8
5 -25 3 38.5 18.7
20 5 3 -3.7 9.3
-20 -4 -3 49.6 17.4
24 -20 -3 64.09 12.9
4 -24 3 72.59 20.4
20 4 3 84.89 16.8
4 -24 3 61.19 20
-24 20 3 66.09 15.4
20 4 3 65.29 16.3
23 -20 -3 14 7.2
-20 -3 -3 7.1 12.1
-23 20 3 19.9 9.9
20 3 3 10.4 8
3 -23 3 11 15.4
20 3 3 29.4 12.1
-2 22 -3 79.29 20.8
22 -20 -3 74.69 13.1
-20 -2 -3 115.59 21.1
2 -22 3 77.79 21.2
20 2 3 57.99 14.5
20 2 3 82.09 17.5
-22 20 3 81.99 16.7
21 -20 -3 -0.8 5.1
-1 21 -3 19.5 13.6
-20 -1 -3 -3.1 10.5
1 -21 3 5.4 13.8
20 1 3 4.9 9
-21 20 3 5 10.1
20 1 3 -1.3 7
-20 0 -3 54.19 25.8
20 -20 -3 42.1 9
20 0 3 63.69 13.2
0 -20 3 67.69 19.7
0 -20 3 47 13.3
-20 20 3 91.69 16.6
20 0 3 42.9 13.4
19 -20 -3 12.9 5.6
20 -1 3 16 10.4
-1 -19 3 16.2 14.4
-1 -19 3 26.1 9.2
-19 20 3 -7.3 8.5
20 -1 3 36.3 10.3
18 -20 -3 87.19 12.2
-18 20 3 74.99 16.6
20 -2 3 82.89 16.3
20 -2 3 130.09 21.4
-2 -18 3 88.99 16.8
-2 -18 3 90.29 22
20 -3 3 26 10
-17 20 3 50.89 12.6
-3 -17 3 32.7 15.1
-3 -17 3 12.7 7.9
20 -3 3 31.5 12.2
16 -20 -3 81.19 10.2
20 -4 3 93.99 18.1
-16 20 3 78.39 15.1
-4 -16 3 52.89 13.9
20 -4 3 65.59 15.4
-4 -16 3 79.49 20.5
-20 5 -3 8.9 10.4
-5 -15 3 11.8 12.2
20 -5 3 26.2 11
-5 -15 3 13.8 9.2
-15 20 3 17.6 9.3
20 -5 3 8.1 7.2
-20 6 -3 54.09 14.8
-14 20 3 67.69 13.7
-6 -14 3 48.9 15.8
-6 -14 3 43.6 11.7
20 -6 3 37.4 12.4
20 -6 3 50.89 11.9
-20 7 -3 16.5 11.2
-7 -13 3 3.7 7.5
20 -7 3 8.4 8.7
-13 20 3 15.3 8.7
-7 -13 3 24.8 12.5
20 -7 3 6.2 6.9
-20 8 -3 78.69 17.7
-8 -12 3 66.39 17
20 -8 3 78.39 16.2
-12 20 3 85.89 14.9
20 -8 3 71.89 15.1
-8 -12 3 82.99 16.9
-20 9 -3 5.9 10.2
-11 20 3 31.4 10.2
-9 -11 3 16.8 9.7
20 -9 3 16.2 9.3
20 -9 3 15.2 9.6
-9 -11 3 7.9 12
-10 -10 3 88.39 17.7
20 -10 3 79.99 17.9
-10 20 3 125.59 18
-10 -10 3 118.19 22.3
11 9 -3 22.2 11.2
-9 20 3 18.3 10
20 -11 3 26.7 9.6
-11 -9 3 28.3 13.3
-11 -9 3 10 7.5
12 8 -3 70.29 15.6
-12 -8 3 64.69 17.3
-8 20 3 73.79 14.5
20 -12 3 93.89 17.1
-12 -8 3 77.29 15
13 7 -3 27.1 10.5
-13 -7 3 17.9 8.6
20 -13 3 24.5 9.9
-7 20 3 32.4 10.9
-13 -7 3 6 9
-13 -7 3 9.3 11.5
14 6 -3 87.59 17.1
-14 -6 3 50.89 15.7
20 -14 3 61.29 13.7
20 -14 3 50.59 20.5
-6 20 3 35.7 15.4
-14 -6 3 71.79 15.1
15 5 -3 20.9 11.1
-5 20 3 25.9 10.6
20 -15 3 26 13.2
20 -15 3 3.5 7.6
-15 -5 3 12.1 8.7
-15 -5 3 -3.4 10.4
16 4 -3 77.09 17
20 -16 3 71.79 16
-4 20 3 91.29 16.4
-16 -4 3 111.29 20.3
20 -16 3 83.69 17.8
-16 -4 3 61.79 17.8
17 3 -3 21.9 9.5
-3 20 3 30.8 12.8
-17 -3 3 23.6 14
20 -17 3 22.7 10
20 -17 3 11.2 11.2
-17 -3 3 36.2 12.7
18 2 -3 104.39 19.9
-2 20 3 96.69 17.6
20 -18 3 72.19 16.6
-18 -2 3 86.49 17.9
20 -18 3 109.39 19.3
-20 19 -3 7.9 10.8
19 1 -3 16.1 10.1
20 -19 3 15.7 9.9
-19 -1 3 12.9 11.4
20 -19 3 23.3 12.1
20 0 -3 57.79 14.8
-20 20 -3 80.19 19.9
20 -20 3 74.49 15.8
20 -20 3 67.99 17.6
-20 0 3 76.99 16.5
-20 0 3 65.49 17
-20 21 -3 34.6 13.7
21 -1 -3 4 8.9
-21 1 3 2.3 8
-21 1 3 10.1 9.5
20 -21 3 4.1 10.1
-20 22 -3 51.09 17.3
22 -2 -3 83.59 17.7
20 -22 3 72.79 17.8
-22 2 3 74.59 17.7
-22 2 3 67.69 16.6
23 -3 -3 -1 8.1
-3 -20 -3 15.6 7.6
20 -23 3 9.1 11
-23 3 3 3.5 11.1
-4 -20 -3 65.19 13.4
-4 -20 -3 48 10.6
24 -4 -3 24.2 12.2
20 -24 3 61.59 17.2
-5 -20 -3 6.8 8.6
-5 -20 -3 14.7 9.7
25 -5 -3 13.7 9.6
20 -25 3 3.9 10.9
-6 -20 -3 23.3 10.8
26 -6 -3 26.6 12.2
20 -26 3 53.49 17.9
-7 -20 -3 10 11.2
-7 -20 -3 6.1 10
20 -27 3 20.6 15.3
28 -8 -3 -2.4 9.7
-21 -6 -3 19.9 16.2
27 -21 -3 -6 6.9
6 -27 3 -2.5 8.5
-27 21 3 4.5 9.7
21 6 3 1.6 7.7
6 -27 3 -10.8 15
26 -21 -3 3.5 6.5
-21 -5 -3 28.6 15.9
21 5 3 0.2 9.5
5 -26 3 -4.2 14.3
-26 21 3 3.9 9.6
5 -26 3 11.1 9.9
21 5 3 21.6 12.9
25 -21 -3 4.1 6.5
4 -25 3 -2.9 7.1
-25 21 3 -13.7 9
21 4 3 -1.1 6.5
4 -25 3 -7.3 11.6
21 4 3 8.5 10.3
24 -21 -3 12.9 7.1
-21 -3 -3 45.6 17.4
-24 21 3 -24.3 8.4
21 3 3 -5.4 9.9
21 3 3 8.4 9.1
3 -24 3 0.9 8.4
3 -24 3 -0.3 14
23 -21 -3 -7.6 4.7
-21 -2 -3 10.2 13.3
2 -23 3 -6.1 14.1
21 2 3 -11.6 5.7
-23 21 3 -1.2 10.3
21 2 3 -4.4 8.4
22 -21 -3 6.8 6.3
-21 -1 -3 -5.5 10.7
21 1 3 4 9.5
21 1 3 8.3 8.8
1 -22 3 14.9 16.8
-22 21 3 3.2 10.1
-21 0 -3 1.1 11.6
21 -21 -3 5.6 5.7
0 21 -3 31 16.5
21 0 3 10.2 10.8
-21 21 3 28.5 11.6
0 -21 3 32.2 16.4
21 0 3 26 9.9
1 20 -3 0 11
-21 1 -3 5.1 11.5
20 -21 -3 7.8 4.7
-1 -20 3 7.7 14.5
21 -1 3 0.7 9.5
21 -1 3 -3.6 6
-20 21 3 22.1 11.3
19 -21 -3 11.6 5.3
-21 2 -3 17.6 14.2
21 -2 3 18.1 10.9
-2 -19 3 -25.2 10.7
-19 21 3 21.9 10.3
21 -2 3 31.5 10.9
18 -21 -3 4.4 4.4
21 -3 3 3.6 9.8
-18 21 3 -1.8 7.1
-3 -18 3 2.3 7.8
-3 -18 3 -24.9 10.2
21 -3 3 8.4 7.4
17 -21 -3 5.6 4
-21 4 -3 -1.4 9.8
-17 21 3 -6.6 9
-4 -17 3 4.2 12.1
-4 -17 3 -2.9 6.3
21 -4 3 -0.7 6.4
21 -4 3 9.6 9.6
-5 -16 3 29.1 8.9
-5 -16 3 -3.6 11.4
21 -5 3 -12.2 7.1
21 -5 3 -0.3 6.3
-6 -15 3 -24.4 9.1
-15 21 3 4.1 8.7
21 -6 3 -14.7 6
21 -6 3 -9.5 5.2
-6 -15 3 -0.4 6.3
21 -7 3 -3.9 8.2
-7 -14 3 5.4 12.7
21 -7 3 -4.4 5.7
-7 -14 3 7.3 7.1
-14 21 3 4.9 8.7
-8 -13 3 -2.9 10.4
21 -8 3 7.7 6
21 -8 3 -0.8 7.9
-13 21 3 8.8 9.2
-8 -13 3 8.3 7
21 -9 3 10.3 7.4
-9 -12 3 -5.6 11.5
-12 21 3 -1.5 8
21 -9 3 13.5 9.9
-9 -12 3 -1.2 6.4
21 -10 3 2.4 7.7
-10 -11 3 -1 11.4
-10 -11 3 -4.9 5.1
21 -10 3 -2.5 6.5
-11 21 3 4.7 8.6
11 10 -3 5.2 6.4
21 -11 3 10.3 7.8
-11 -10 3 -0.4 11.3
21 -11 3 13.3 8.9
-10 21 3 7.1 8.7
12 9 -3 16.2 8.9
-9 21 3 16.7 9.7
-12 -9 3 10.1 12
21 -12 3 5.5 7.7
21 -12 3 -1.4 8.6
13 8 -3 -2.2 6.1
-13 -8 3 23.9 12.8
21 -13 3 5.7 7.6
21 -13 3 -7.7 6.8
14 7 -3 -1.6 6.5
-14 -7 3 -0.2 8.5
21 -14 3 -1.9 7.6
-7 21 3 7.4 8.5
21 -14 3 1.9 6.8
-14 -7 3 -0.4 10.7
15 6 -3 5.9 7.9
21 -15 3 -17.7 7.2
-15 -6 3 -6.1 6.8
21 -15 3 -6.6 5.6
-15 -6 3 -9.5 10
-6 21 3 -5.7 7.7
16 5 -3 8.5 7.9
21 -16 3 0.1 7.3
21 -16 3 -5.9 8.3
-5 21 3 0.1 8.9
-16 -5 3 19.2 11.8
-16 -5 3 -0.4 10.6
17 4 -3 -2.1 7.6
21 -17 3 -4 7.6
-17 -4 3 -3.5 10.6
21 -17 3 -10.5 6.3
-4 21 3 5.1 8.9
-21 18 -3 21.3 11.4
18 3 -3 8.5 8.9
21 -18 3 6.1 8.9
-18 -3 3 -3.5 9.1
21 -18 3 4.5 9.3
-3 21 3 13 10.9
-18 -3 3 -11.3 9.4
19 2 -3 7.2 9.1
-21 19 -3 17.5 13.2
21 -19 3 13.8 10.5
-2 21 3 47.4 13.1
21 -19 3 6.4 8.5
-19 -2 3 8.9 10.6
-19 -2 3 9.3 12.6
-21 20 -3 -18.3 10.2
20 1 -3 -0.8 7
21 -20 3 1.9 7.9
21 -20 3 5.5 10
-20 -1 3 4.7 9.4
-20 -1 3 2.3 10
21 0 -3 -1.7 8.6
-21 21 -3 24.4 13.6
-21 0 3 26.2 11.4
21 -21 3 22.3 12
-21 0 3 30.7 13.8
21 -21 3 10.3 10
22 -1 -3 4.5 8.9
21 -22 3 -7.2 9.1
-22 1 3 14.9 11
21 -22 3 4.4 9
23 -2 -3 -3.3 7.6
21 -23 3 -9.3 6.9
21 -23 3 -1.8 10.4
-3 -21 -3 10.3 6.8
24 -3 -3 -2.5 8.6
21 -24 3 9.5 9.9
21 -24 3 11.7 12.5
25 -4 -3 -7 8.6
-4 -21 -3 5 7.5
-4 -21 -3 9.4 9
21 -25 3 -5.6 10.1
-5 -21 -3 9.5 9.7
-5 -21 -3 15.6 9.7
26 -5 -3 -1.3 9.2
21 -26 3 19.7 12.6
-6 -21 -3 8.3 18.1
-6 -21 -3 4.8 10
27 -6 -3 10.7 10.2
21 -27 3 1.3 11.7
-22 -5 -3 30.5 17.3
27 -22 -3 1.7 6.5
5 -27 3 10 9.4
-27 22 3 18 13.5
5 -27 3 11.7 16.1
22 5 3 -6.6 10.8
22 5 3 0.7 7.3
26 -22 -3 28.2 9.6
22 4 3 16 9.1
22 4 3 24.2 13.7
4 -26 3 47.3 12.6
-26 22 3 15.2 14.9
4 -26 3 37.8 19.6
25 -22 -3 0.8 6.8
3 -25 3 11.8 16.7
22 3 3 14.9 8.8
3 -25 3 -0.1 7.9
24 -22 -3 29.3 8.8
2 -24 3 9.7 8.6
22 2 3 53.69 13.8
2 -24 3 5.2 14.8
22 2 3 44.1 13.7
-24 22 3 41.1 12.5
23 -22 -3 14 7.1
22 1 3 8.5 10.8
1 -23 3 1.5 14.5
-23 22 3 0.9 9.9
1 -23 3 6.4 8.6
22 1 3 1.8 6.6
22 -22 -3 43.9 9.4
-22 0 -3 31.5 15.9
22 0 3 46.5 14
-22 22 3 27.1 13.4
0 -22 3 19.1 10.4
0 -22 3 17.7 16.9
22 0 3 20.4 9.6
-22 1 -3 19.2 14.7
21 -22 -3 3.6 5
22 -1 3 -2.3 7.7
-21 22 3 22.5 11.2
-1 -21 3 15.6 12.9
-1 -21 3 -3.5 14.4
22 -1 3 15.8 10.5
-22 2 -3 80.69 20.5
20 -22 -3 78.89 11.6
22 -2 3 94.39 18.2
-2 -20 3 74.09 20.5
-20 22 3 89.19 17.2
22 -2 3 63.79 14.2
19 -22 -3 21.7 6.3
-22 3 -3 13.3 13.4
22 -3 3 12.9 8.6
-19 22 3 28.5 11.6
22 -3 3 31 12.4
-3 -19 3 2.9 13.2
-22 4 -3 93.29 20.3
22 -4 3 80.69 16.5
22 -4 3 93.79 18.9
-18 22 3 78.89 16.8
-4 -18 3 42 18.8
-22 5 -3 63.19 18.1
-5 -17 3 22.1 15.5
22 -5 3 46.7 13
22 -5 3 62.89 15
-17 22 3 42.3 13.1
-22 6 -3 73.59 18.3
-6 -16 3 82.59 20.8
22 -6 3 61.19 15.3
-16 22 3 100.59 17
22 -6 3 63.49 15.4
-6 -16 3 54.69 14.4
-22 7 -3 4.8 14.3
-7 -15 3 2.9 12.5
22 -7 3 8.7 9.9
22 -7 3 6.4 8.5
-7 -15 3 11.9 9.3
-15 22 3 23.6 11.6
22 -8 3 68.39 14.2
22 -8 3 55.59 13.5
-8 -14 3 31.3 15.3
-8 -14 3 38.2 18.9
22 -9 3 10.6 7.9
22 -9 3 7 8.8
-9 -13 3 15 14.1
-10 -12 3 87.49 20.7
22 -10 3 82.19 17.3
22 -10 3 92.99 17.7
-11 22 3 10.7 14.8
-11 -11 3 12.6 13.7
22 -11 3 23.5 10.7
22 -11 3 31.7 10.4
12 10 -3 69.79 16.6
-12 -10 3 94.99 20.8
22 -12 3 103.59 18.7
22 -12 3 68.39 15.5
-10 22 3 87.39 17.4
13 9 -3 22.3 9.8
-9 22 3 -2.5 8.8
-13 -9 3 -0.2 10.6
22 -13 3 15.5 10.7
-13 -9 3 4.7 10
22 -13 3 -0.4 7
14 8 -3 92.59 17.7
-8 22 3 55.89 14.1
-14 -8 3 32.3 19.9
22 -14 3 76.69 16.7
-14 -8 3 81.69 18.9
22 -14 3 73.39 16.5
15 7 -3 1.3 8.9
-15 -7 3 29.4 10.7
-7 22 3 14.3 11
-15 -7 3 15.9 14
22 -15 3 28.8 10.3
-15 -7 3 13.7 10.2
22 -15 3 12.8 10.2
16 6 -3 65.49 14.5
22 -16 3 55.89 14.9
-16 -6 3 68.49 17.6
-6 22 3 62.29 15
22 -16 3 40.1 12.6
-16 -6 3 46.4 14.1
-16 -6 3 49.7 14.8
-22 17 -3 33.2 12.7
17 5 -3 26.3 11.4
22 -17 3 22.9 11.8
-17 -5 3 52.99 14.7
-5 22 3 40.9 12.9
22 -17 3 20.5 11.4
-17 -5 3 60.99 14.5
-17 -5 3 43 15.7
18 4 -3 63.19 16
-22 18 -3 66.39 17.8
-18 -4 3 72.29 17
-4 22 3 66.79 16
-18 -4 3 70.99 17.3
-18 -4 3 74.69 19.6
22 -18 3 89.29 17.6
22 -18 3 66.09 15.9
19 3 -3 21.2 10.7
-22 19 -3 18.2 13.5
22 -19 3 10.1 11.3
-19 -3 3 23.2 12.8
-19 -3 3 32 11.9
-3 22 3 34.6 13
-19 -3 3 17.3 12.9
22 -19 3 9.3 9.8
-22 20 -3 49.3 18
20 2 -3 80.59 17.7
22 -20 3 62.49 15
-20 -2 3 82.59 19.7
-2 22 3 88.29 18.8
22 -20 3 72.69 18.1
-20 -2 3 52.69 16.1
21 1 -3 17.8 9.9
-21 -1 3 5.1 11
22 -21 3 4 10.9
22 -21 3 5.8 8.1
22 0 -3 41.7 14.9
22 -22 3 55.49 16.9
22 -22 3 36.8 13
23 -1 -3 6.2 10.1
22 -23 3 19.3 10.5
22 -23 3 4.9 10.4
24 -2 -3 16.1 11.2
22 -24 3 32.7 11.9
22 -24 3 38.6 15.8
25 -3 -3 -3.8 8.4
22 -25 3 9.5 11.2
22 -25 3 29.5 13.5
-4 -22 -3 37.4 9.9
26 -4 -3 33.7 13.3
22 -26 3 60.69 16.7
22 -26 3 57.69 15
-5 -22 -3 7.9 9.4
-5 -22 -3 6.1 10.4
27 -5 -3 12.8 11.4
22 -27 3 2.4 11.9
22 -27 3 12.2 9.9
26 -23 -3 25.2 10.3
-26 23 3 -1.2 12.7
23 3 3 10.4 12.5
3 -26 3 2.3 9.6
23 3 3 17.9 12.5
3 -26 3 1.9 15.7
25 -23 -3 1.1 5.8
2 -25 3 -3 7.8
23 2 3 0.8 7.3
2 -25 3 -10.7 13.8
23 2 3 14.6 11
-25 23 3 -16.5 13.4
24 -23 -3 5.5 6.6
1 -24 3 -4.1 9.2
23 1 3 18.8 9.4
1 -24 3 0.9 15.1
23 1 3 -9.2 9.4
-24 23 3 16 11.6
23 -23 -3 5.4 6.1
23 0 3 14.8 11.3
0 -23 3 -5.3 8.6
23 0 3 14.2 7.3
-23 23 3 -3.7 9.6
0 -23 3 28.5 17.1
22 -23 -3 -10 4.8
-1 -22 3 3.5 15.3
-22 23 3 4.8 9.7
23 -1 3 -12.4 7.1
-1 -22 3 -5.9 6.4
23 -1 3 12.5 8.8
21 -23 -3 1.8 5.1
-2 -21 3 12.7 16.4
23 -2 3 -6.6 6.1
23 -2 3 -5.9 9.8
-21 23 3 1.1 9.7
-2 -21 3 2.8 7.7
-23 3 -3 14.8 12.9
20 -23 -3 2.8 4.7
23 -3 3 26.6 11.9
-3 -20 3 -25 11.5
-20 23 3 -6.3 10.2
-3 -20 3 3.2 8
23 -3 3 -0.5 7.8
19 -23 -3 -8.3 3.6
-23 4 -3 -9.4 11.3
-19 23 3 -11.7 9.3
23 -4 3 -5.6 6.2
-4 -19 3 -1.8 7.5
23 -4 3 -10.8 7.9
-4 -19 3 9.9 15.4
-23 5 -3 -2.5 10.9
23 -5 3 15 11.5
-5 -18 3 1.9 8.9
-18 23 3 6.5 10.3
-5 -18 3 31.2 17.1
-5 -18 3 1.2 15.3
23 -5 3 5 8
-23 6 -3 -13.1 9.2
-17 23 3 8.5 9.8
23 -6 3 6.1 8.4
-6 -17 3 -10.4 7.5
23 -6 3 1.3 10
-6 -17 3 -7.2 12.8
-23 7 -3 19.7 11.5
-7 -16 3 5.9 8.5
23 -7 3 7.2 7.9
23 -7 3 4.5 9
-16 23 3 4 10.1
-7 -16 3 15 13
-23 8 -3 -5.9 11.1
-15 23 3 -1.1 9.1
-8 -15 3 -2.2 11.7
-8 -15 3 -9.1 7
23 -8 3 -3.9 8.1
23 -8 3 -7 6.3
-23 9 -3 17.1 11
-9 -14 3 0.5 14.4
-14 23 3 9.1 9.3
23 -9 3 5.7 8.7
-9 -14 3 2 8.4
23 -9 3 2.9 7.3
-9 -14 3 14.9 13
-23 10 -3 14.9 11.7
23 -10 3 -11.5 7.1
23 -10 3 -1.4 6.2
-10 -13 3 -1.4 11.5
-13 23 3 11.6 9.1
-10 -13 3 11.1 13.6
-10 -13 3 -11.8 7.3
-23 11 -3 -7 10.6
-11 -12 3 -6.5 7.4
-12 23 3 19.6 10.2
-11 -12 3 12.5 10.4
-11 -12 3 -7.5 12.2
23 -11 3 -8.1 6.4
23 -11 3 18.7 9.5
-23 12 -3 16.8 16.3
-12 -11 3 -2.3 7.8
23 -12 3 -3.2 8
-12 -11 3 -20.1 11.3
-11 23 3 8 9.3
23 -12 3 0.4 6.7
13 10 -3 1.3 8
23 -13 3 -8.7 7.7
23 -13 3 -3 7
-13 -10 3 -4.7 6.3
-10 23 3 3.3 10
-13 -10 3 -2.9 12.1
14 9 -3 2.6 7.2
23 -14 3 13.9 9.4
-14 -9 3 -12.2 5.8
-14 -9 3 1.3 9.5
-9 23 3 9 9.5
-14 -9 3 -13.6 10.9
23 -14 3 0.5 7.8
-23 15 -3 3.8 9.8
15 8 -3 23.6 10.3
-15 -8 3 6.8 9.2
-15 -8 3 -1.5 7.3
23 -15 3 -6.1 7.7
-8 23 3 -8.6 9
-15 -8 3 17.8 13.9
23 -15 3 3.7 7.7
16 7 -3 -4.5 7.8
-23 16 -3 36.8 13.9
23 -16 3 -13.3 6.2
-16 -7 3 -7.2 8
-7 23 3 0.3 9.4
-16 -7 3 9.7 9.3
-16 -7 3 -1 11.6
23 -16 3 24 11.1
-23 17 -3 -4.7 10.3
17 6 -3 1.6 8
-17 -6 3 -1.7 8.8
-17 -6 3 6.2 7.9
23 -17 3 1.7 9.2
-17 -6 3 -11.9 9.7
-6 23 3 1.8 10.6
23 -17 3 -2.8 6
18 5 -3 16.3 10.4
-23 18 -3 8.4 14.1
23 -18 3 12.6 9.5
-18 -5 3 11.2 10.4
23 -18 3 2 9.2
-5 23 3 -2.1 7.7
-18 -5 3 14.6 10.9
-18 -5 3 12.8 13.2
19 4 -3 -7.4 7.2
-23 19 -3 22 17.4
-19 -4 3 7.2 12.7
-19 -4 3 -12.8 8.2
23 -19 3 -6.5 7.5
-19 -4 3 -13 8
23 -19 3 12.5 10.6
-4 23 3 -10.9 8.4
20 3 -3 9.9 10.4
23 -20 3 8.6 10.1
23 -20 3 8.9 11.1
-20 -3 3 24.5 15.3
-3 23 3 1 10.9
21 2 -3 -1.3 8.7
23 -21 3 11.5 9.7
23 -21 3 1.8 10.6
22 1 -3 13.2 10.6
23 -22 3 18.4 10.9
23 -22 3 9.9 11.2
23 0 -3 -7.4 7.5
23 -23 3 -1.3 8.1
23 -23 3 1.5 10
24 -1 -3 7.1 8.6
23 -24 3 13.6 11.2
23 -24 3 14.9 11.2
25 -2 -3 7.5 7.9
23 -25 3 -6.1 8.7
23 -25 3 -4.8 9.7
26 -3 -3 -6.4 8.5
23 -26 3 6.9 11.6
23 -26 3 20.3 12
25 -24 -3 -3 6.1
24 1 3 9 11
1 -25 3 14.8 10.2
1 -25 3 -1.1 14.8
-25 24 3 6 11
24 -24 -3 12.8 7.2
-24 24 3 21.4 16.8
24 0 3 12.5 9.3
0 -24 3 18 9.9
24 0 3 14.2 13.4
0 -24 3 56.09 21.1
23 -24 -3 13.6 6.6
-1 -23 3 28.4 10.6
-23 24 3 27.8 13.7
24 -1 3 29.7 15
-1 -23 3 -15.8 12
24 -1 3 10.9 9.6
22 -24 -3 32.8 7.7
-2 -22 3 29.1 10.1
24 -2 3 10 10.3
-22 24 3 21.8 13.2
-2 -22 3 57.69 22.4
24 -2 3 31.1 10
21 -24 -3 12.5 5.2
24 -3 3 -3.7 7.3
-3 -21 3 -8.9 7.1
-3 -21 3 4 15.4
24 -3 3 5.4 9.1
-21 24 3 -4.1 11.8
20 -24 -3 59.39 9.1
-20 24 3 66.39 15.7
-4 -20 3 61.09 15.5
24 -4 3 60.19 15.2
-4 -20 3 42.7 19.2
24 -4 3 56.29 15.4
-19 24 3 35.1 14.3
24 -5 3 14 9.9
-5 -19 3 17.3 10.4
-5 -19 3 3.7 15.4
24 -5 3 12.1 9.7
-24 6 -3 41.5 27.4
-6 -18 3 70.39 17.9
24 -6 3 87.99 18.2
24 -6 3 64.09 16.3
-6 -18 3 43.4 18.8
-6 -18 3 44 13
-18 24 3 80.89 17.5
-24 7 -3 40.3 16.5
24 -7 3 29.9 12.2
-7 -17 3 9.6 10
-7 -17 3 19 11.5
24 -7 3 19.8 10.8
-7 -17 3 6.5 14.6
-17 24 3 15.9 12.5
-24 8 -3 65.79 18
-16 24 3 80.89 17.5
-8 -16 3 78.49 16.4
-8 -16 3 50.49 14.8
24 -8 3 76.89 16.2
24 -8 3 52.99 13.7
-8 -16 3 27.7 16.3
-24 9 -3 38 13.6
-9 -15 3 13.3 10.8
-15 24 3 15.3 11.7
-9 -15 3 22.3 10.4
24 -9 3 24.2 9.8
-9 -15 3 25.2 15
24 -9 3 9.6 10.2
-24 10 -3 48.2 16
24 -10 3 51.79 14.4
-10 -14 3 45.3 17.1
24 -10 3 41.2 12.2
-10 -14 3 59.99 14.2
-10 -14 3 52.39 14.5
-14 24 3 71.39 15.5
-24 11 -3 41.8 17.4
24 -11 3 19.8 11.3
-13 24 3 46.5 14.5
-11 -13 3 35.8 12.9
-11 -13 3 46.3 18.1
-11 -13 3 45.5 13.8
24 -11 3 37.6 12.8
-24 12 -3 70.79 19.6
-12 -12 3 69.99 15.9
-12 24 3 83.29 16.5
-12 -12 3 78.59 21.9
24 -12 3 75.09 16.8
24 -12 3 64.59 15.3
-12 -12 3 70.49 16.2
13 11 -3 31.8 11
-24 13 -3 22.5 13.7
24 -13 3 54.59 12.7
-13 -11 3 19.6 11.2
-13 -11 3 55.69 18.2
-13 -11 3 10.4 10.7
24 -13 3 41.1 12.3
-11 24 3 40.4 13.2
14 10 -3 50.99 14.1
-24 14 -3 39.2 14.4
-14 -10 3 38.1 17.3
24 -14 3 46 14.4
24 -14 3 66.09 15.2
-14 -10 3 61.29 15
-10 24 3 42.8 13.5
-14 -10 3 60.39 15.5
-24 15 -3 45.8 14
15 9 -3 31.6 11.5
24 -15 3 8.4 7.8
-15 -9 3 26.3 11.3
-15 -9 3 26.7 15.5
-15 -9 3 32.2 13
24 -15 3 27.1 11.4
-9 24 3 57.39 13.9
16 8 -3 56.39 14.2
-24 16 -3 22.1 19.7
24 -16 3 60.49 14.4
24 -16 3 61.39 15.2
-16 -8 3 91.09 19.1
-16 -8 3 61.89 18.9
-8 24 3 65.99 15.6
-16 -8 3 30.3 15.5
17 7 -3 24.2 11.9
-17 -7 3 13.5 13.1
-7 24 3 21.7 11.5
24 -17 3 13.1 9.6
24 -17 3 26.9 11.5
-17 -7 3 21.3 15.2
18 6 -3 49.5 14.5
-6 24 3 45.8 14
-18 -6 3 41 16.9
24 -18 3 75.09 17.3
24 -18 3 53.89 14.7
19 5 -3 18.6 11.3
-19 -5 3 9.3 13.6
24 -19 3 7.2 9.1
-5 24 3 44.2 14.3
24 -19 3 39.4 13.4
20 4 -3 54.79 15.8
-20 -4 3 58.59 19.6
-4 24 3 62.39 16.4
24 -20 3 87.19 18.5
24 -20 3 68.99 16.4
21 3 -3 -16.6 6.5
-3 24 3 14.7 14
24 -21 3 6.4 10
-21 -3 3 23.9 14.3
24 -21 3 -3.7 9.2
22 2 -3 34.2 13.5
-22 -2 3 32.3 18
24 -22 3 54.79 15.3
24 -22 3 41.5 14
23 1 -3 1.4 8.9
24 -23 3 25.7 13.2
24 -23 3 11.8 10.2
24 0 -3 34 13.7
24 -24 3 21.9 11.4
24 -24 3 23.3 13.9
25 -1 -3 -10 8.4
24 -25 3 14.2 10.8
24 -25 3 8.4 11.5
24 -25 -3 19.4 7.3
-24 25 3 6.5 14.3
25 -1 3 -4.4 9.9
25 -1 3 -1.6 7.2
-1 -24 3 10.6 16.7
23 -25 -3 -2.4 4.8
25 -2 3 -7.6 9.4
-2 -23 3 5.9 12
-2 -23 3 0.3 17.6
25 -2 3 -14.2 8.6
-23 25 3 11.7 11.6
22 -25 -3 -0.9 4.3
-22 25 3 7.4 11.1
25 -3 3 11.4 14.3
25 -3 3 2.1 8
-3 -22 3 1.6 17.6
-3 -22 3 6.1 10
21 -25 -3 -3 4.2
25 -4 3 -2.6 8.6
-4 -21 3 -3.3 14.8
25 -4 3 -9.3 7.6
-21 25 3 0.2 10.3
-4 -21 3 -15.6 6.5
-5 -20 3 0.6 7.9
25 -5 3 -2 9.2
-20 25 3 -8.3 10.3
-5 -20 3 -2.2 14.5
25 -5 3 26 12.2
25 -6 3 4.6 8.7
-6 -19 3 -2.6 14.1
25 -6 3 10.9 10.7
-19 25 3 -2.8 10
-6 -19 3 2.7 8.2
25 -7 3 15 11.2
-7 -18 3 12.1 9
-7 -18 3 -4.4 13.7
25 -7 3 -5.6 7.1
-18 25 3 23.1 12.3
-8 -17 3 -1.7 9.2
-8 -17 3 -3.1 13.8
25 -8 3 3.2 6.9
25 -8 3 -12.4 7.7
-17 25 3 11.1 10.5
-9 -16 3 0.4 13.2
-16 25 3 3.5 9.2
25 -9 3 12.5 8
-9 -16 3 10.1 8.6
25 -9 3 5.8 9.1
25 -10 3 -0.9 6.5
-15 25 3 6.4 9.8
25 -10 3 5.3 9.9
-10 -15 3 -5.1 12.6
-10 -15 3 -2.7 8
-14 25 3 3.4 10.2
25 -11 3 12.2 10.7
-11 -14 3 2.9 8.6
-11 -14 3 9.8 13.5
25 -11 3 9.5 7.9
25 -12 3 5.4 9.5
-13 25 3 -18.1 8.8
25 -12 3 7.2 6.6
-12 -13 3 14.9 13.3
-12 -13 3 -4 7.3
-13 -12 3 -7.9 7.7
-12 25 3 -10.8 8.4
-13 -12 3 13.6 13.4
25 -13 3 9.9 9.7
25 -13 3 -0.2 9.5
14 11 -3 6.1 9.1
-11 25 3 -7.9 9.5
-14 -11 3 18.3 13.5
25 -14 3 1.9 7
-14 -11 3 6.6 11.3
25 -14 3 -13.6 7
15 10 -3 -5.9 6.8
25 -15 3 3 8.6
-15 -10 3 -0.7 12
25 -15 3 0.2 7.2
16 9 -3 -7.6 8.6
25 -16 3 8.4 9.6
-16 -9 3 24.1 15.7
-9 25 3 -25.3 8.4
25 -16 3 1.8 7.9
17 8 -3 3 9.6
-8 25 3 -6.4 8.8
25 -17 3 -8.1 5.8
-17 -8 3 20.5 14.7
25 -17 3 -1.4 8.8
18 7 -3 -0.6 8.4
-18 -7 3 0.2 14.9
25 -18 3 17.1 11.3
25 -18 3 8.9 8.9
-7 25 3 -17.6 9.1
19 6 -3 -19.8 6.7
25 -19 3 -6.3 7.6
-6 25 3 6.8 10.8
-19 -6 3 11.6 14.8
25 -19 3 -1.8 8.9
20 5 -3 6.3 9.9
25 -20 3 3 8.7
-20 -5 3 21.6 14.3
25 -20 3 39.8 12.3
-5 25 3 19.7 12.7
21 4 -3 9.4 9.5
-4 25 3 -9.9 10.8
25 -21 3 -6.5 7.9
-21 -4 3 -27.4 11.1
25 -21 3 -10.1 8.8
22 3 -3 -6.6 11.8
25 -22 3 -0.2 9.2
-3 25 3 -2.8 11.4
-22 -3 3 19.6 19.1
25 -22 3 -1 8.5
23 2 -3 2.9 11.8
25 -23 3 -6.1 9.7
25 -23 3 5.9 9.8
-23 -2 3 6.2 14.5
24 1 -3 -13.5 9.1
25 -24 3 -14.4 9.7
25 -24 3 10.4 11
23 -26 -3 13.6 6
26 -3 3 2.7 10.5
26 -3 3 -1.9 6
-23 26 3 20.1 15.2
22 -26 -3 24.4 6.6
-22 26 3 9.1 14.7
-4 -22 3 44.9 20.5
26 -4 3 44.5 13.2
26 -4 3 32 11.8
-5 -21 3 -0.3 16.9
-21 26 3 6.4 12
26 -5 3 -19.4 9.2
-6 -20 3 23.6 18.8
26 -6 3 59.79 17.4
26 -6 3 39.2 14.4
-20 26 3 69.39 16.8
-7 -19 3 -9.3 17.3
26 -7 3 20.4 11.9
-19 26 3 5.5 11
26 -7 3 8.2 9.1
-8 -18 3 31.1 19
-18 26 3 81.19 18.1
26 -8 3 66.49 16.8
26 -8 3 49.8 13
26 -9 3 5.9 8.5
-17 26 3 24 12.3
-9 -17 3 21.6 17.8
26 -9 3 33.3 14.7
26 -10 3 60.49 16.7
-10 -16 3 25.5 15.1
-16 26 3 27.5 13.3
26 -10 3 18.8 11.9
26 -11 3 8.2 7.6
-15 26 3 14 11.6
-11 -15 3 23.7 15.9
26 -11 3 6.6 10.7
26 -12 3 62.49 17.1
-12 -14 3 20.1 16.9
26 -12 3 28 11.2
-14 26 3 36.7 13.7
-13 -13 3 13.7 13.5
26 -13 3 18.1 10
-13 26 3 1.7 9.8
26 -13 3 11.4 11
26 -14 3 60.09 15.9
-14 -12 3 53.09 19.6
26 -14 3 31.7 11.4
-12 26 3 31.4 13.6
15 11 -3 16.9 10.8
-11 26 3 8.3 10.6
26 -15 3 27.4 11.5
26 -15 3 34.9 12.4
-15 -11 3 13.9 15
16 10 -3 30.6 12.2
-10 26 3 17.8 11.7
-16 -10 3 14.7 15.5
26 -16 3 39.1 10.9
26 -16 3 36.4 14.1
17 9 -3 11 10.1
-17 -9 3 25 16
26 -17 3 26.8 11.7
26 -17 3 21.6 12.9
-9 26 3 57.89 13.9
18 8 -3 53.89 16.6
-18 -8 3 72.09 20.8
26 -18 3 39.7 13.4
26 -18 3 60.19 16.7
-8 26 3 65.89 15.4
19 7 -3 6.8 9.6
-7 26 3 6.8 10.8
-19 -7 3 30.5 17.7
26 -19 3 -1.2 8.8
26 -19 3 26 12.7
20 6 -3 51.09 15.3
26 -20 3 25 13.6
26 -20 3 26.8 13
-6 26 3 15.8 15.4
21 5 -3 11.4 10.9
-5 26 3 2.5 11.5
26 -21 3 10.6 8.9
26 -21 3 -7.6 11
22 4 -3 37.6 15.4
-22 -4 3 15 16.9
26 -22 3 20.2 12.8
26 -22 3 11.2 9.7
-4 26 3 33.6 16.3
23 3 -3 14.7 10.3
26 -23 3 38.6 14.3
26 -23 3 16.4 11
-23 -3 3 15 14.3
-22 27 3 14.7 15
27 -5 3 -4.3 9.8
27 -5 3 18.9 10.6
27 -6 3 8.1 10.7
27 -6 3 -1.1 9.1
27 -7 3 10.7 10.1
-20 27 3 7.5 14.3
27 -7 3 28 16.5
-8 -19 3 17.9 19.3
27 -8 3 14.2 10.1
-19 27 3 8.8 11.5
-9 -18 3 -9.8 16.3
27 -9 3 1.6 11.4
27 -9 3 7.7 10.4
-18 27 3 22.3 13.5
27 -10 3 5.5 10.7
-10 -17 3 3.8 13.5
27 -10 3 -13.8 9.9
-17 27 3 -24.4 8.6
-16 27 3 18.2 11.6
27 -11 3 -6.1 10.1
-11 -16 3 -9.5 10.4
27 -11 3 -11.9 6.1
27 -12 3 -10.8 6.4
-15 27 3 21.2 12.5
27 -12 3 -10.4 8.6
-12 -15 3 20.9 14.8
-13 -14 3 10.4 14.6
27 -13 3 3.5 11.3
27 -13 3 -6.8 7.6
-14 27 3 2.8 9
-14 -13 3 1.2 12.9
27 -14 3 -5.6 9.8
27 -14 3 -0.2 7.8
-13 27 3 3.4 9.9
27 -15 3 8.4 10.8
27 -15 3 2.7 6.5
-15 -12 3 3.1 14.7
-12 27 3 4.3 11
16 11 -3 -0.1 9
-11 27 3 13.9 11.6
27 -16 3 -10.1 9.1
27 -16 3 -6.1 5.6
-16 -11 3 -4.9 16.7
17 10 -3 4.4 9.7
27 -17 3 7.4 9.2
27 -17 3 -20 7.4
-10 27 3 -9.8 10
18 9 -3 -4.8 10.1
27 -18 3 12.1 10
-18 -9 3 45.1 28.8
27 -18 3 8.1 10.8
19 8 -3 13.1 17.6
-8 27 3 -7.2 11.3
27 -19 3 -16 7
27 -19 3 -4.4 9.8
-19 -8 3 -3.1 13.5
20 7 -3 20.2 11.5
-7 27 3 -13.9 10.5
27 -20 3 18.6 11.6
27 -20 3 20.8 11.9
-20 -7 3 -6.4 14.8
21 6 -3 17.4 9.3
-21 -6 3 11.3 16.8
27 -21 3 8.5 9.9
27 -21 3 4.5 11
-6 27 3 30.2 14.1
22 5 -3 14.9 9.6
27 -22 3 1.5 11.3
-22 -5 3 9.5 14.9
28 -8 3 21.2 11.6
28 -9 3 8.4 9
-9 -19 3 12.7 18.3
28 -9 3 -7.4 10
28 -10 3 15.1 11.5
-10 -18 3 19.7 17
28 -10 3 3.7 14.3
-17 28 3 11 13.4
-11 -17 3 -4.9 15.2
28 -11 3 -11.2 6.7
-12 -16 3 30.8 18.9
28 -12 3 16.1 12.5
-16 28 3 -11 11.6
28 -12 3 -3.5 10.8
28 -13 3 22 11.4
-13 -15 3 27.5 16.4
28 -13 3 -1.1 7
-15 28 3 -5.2 11.1
-14 28 3 2.8 15.4
28 -14 3 12.7 12.3
-14 -14 3 27.3 17
28 -14 3 3.1 8.1
28 -15 3 18.8 10.1
-15 -13 3 6.1 15.6
28 -15 3 -8.8 10.2
28 -16 3 21.7 10.8
-16 -12 3 32.9 19
28 -16 3 40.4 15.6
17 11 -3 22 13
28 -17 3 6 10.8
-11 28 3 20.3 13.4
28 -17 3 0.2 8.6
-17 -11 3 12.7 17.5
18 10 -3 12.4 11.4
-10 28 3 23.7 13.5
-18 -10 3 7.8 16.2
28 -18 3 15.7 12.5
28 -18 3 39.3 13.6
19 9 -3 -1.1 9.2
-19 -9 3 12.2 16.5
-9 28 3 8.6 13.1
28 -19 3 21.8 12.1
28 -19 3 -5.1 9.3
20 8 -3 23.3 11.9
28 -20 3 12.6 10.2
0 0 4 3400.36 283.07
0 1 -4 599.64 52.09
0 -1 4 618.34 53.49
-1 1 -4 355.56 33.7
1 -1 4 415.56 35.5
-1 2 -4 306.57 31.5
1 -2 4 391.16 33.1
1 1 4 351.36 31.9
-1 3 -4 92.89 13.2
1 -3 4 111.39 15.1
-3 2 4 96.79 12.6
-2 0 -4 1342.17 112.59
0 2 -4 1298.17 112.89
2 0 4 1370.06 113.59
0 -2 4 1368.16 113.99
-2 2 4 1323.47 112.29
-2 1 -4 580.04 50.79
2 -1 4 592.94 52.19
-2 2 -4 1368.16 112.79
0 2 4 1377.76 112.19
2 -2 4 1335.97 113.59
-2 0 4 1253.77 112.49
-3 1 4 100.49 12.8
-3 1 4 85.19 11.7
-2 4 -4 406.46 40.8
-4 2 4 448.06 39.3
2 -4 4 453.95 42.2
2 2 4 449.16 39.9
-4 2 4 482.35 40.5
-2 5 -4 51.09 10.4
2 -5 4 49.7 11.9
-5 3 4 69.49 9.3
3 2 4 59.79 9.7
-3 -1 -4 49.99 7.7
-1 4 -4 64.99 10.2
3 1 4 44 8.8
1 -4 4 49.99 11.2
-3 3 4 78.39 10.4
-3 3 4 61.29 8.3
-3 1 -4 92.39 12.8
3 -1 4 111.49 14.1
-1 -2 4 96.19 13.8
-1 3 4 127.99 14
-2 -1 4 156.38 16.4
-3 3 -4 82.49 12.1
-3 0 4 88.49 12.7
-3 0 4 77.69 11.3
3 -3 4 80.99 14
1 3 4 36 7.6
-4 1 4 58.19 8.7
-3 5 -4 53.59 10.9
2 3 4 53.09 8.9
-5 2 4 49.6 8.6
3 -5 4 43.5 11.4
-3 6 -4 309.07 31.9
3 3 4 285.47 29.9
-6 3 4 365.06 30.4
3 -6 4 332.77 33
-3 7 -4 5.8 7.5
-4 -3 -4 3.4 4.4
-7 4 4 11.3 4.7
3 -7 4 10.5 8.2
4 3 4 7.9 5.5
-2 6 -4 456.35 44.2
-4 -2 -4 462.25 41.6
2 -6 4 495.75 45.4
-6 4 4 524.55 42.6
4 2 4 450.35 42.9
-1 5 -4 -2 5.7
-4 -1 -4 2.7 4.6
1 -5 4 -6.1 6.8
-5 4 4 1.8 3.5
4 1 4 7.2 6
0 4 -4 255.57 23.8
-4 0 -4 220.08 22.3
0 -4 4 220.38 24.5
4 0 4 200.58 23.2
-4 4 4 237.98 21.8
1 3 -4 35.3 8.8
4 -1 4 99.79 12.8
-3 4 4 71.99 9.3
-1 -3 4 45.1 10.5
-4 2 -4 450.95 39.2
4 -2 4 433.56 40.7
-2 -2 4 403.06 39.2
-4 3 -4 63.69 10
-3 -1 4 27.5 8.5
4 -3 4 74.59 13.1
-3 -1 4 42.9 8.8
-4 4 -4 226.48 23.9
4 -4 4 247.98 24.6
-4 0 4 215.28 22.6
-4 0 4 230.38 22.9
0 4 4 217.08 21
-4 5 -4 4.9 6.4
4 -5 4 -1.2 7.1
1 4 4 3.4 4.7
-5 1 4 -2.9 3.8
-5 1 4 2.6 5.3
-4 6 -4 486.25 45.5
-6 2 4 464.25 43.9
2 4 4 464.75 43.1
4 -6 4 568.14 47.1
-4 7 -4 -4.9 7
4 -7 4 0.4 8
-7 3 4 2.6 4.3
3 4 4 -2.3 4.9
-4 -4 -4 123.39 17.5
-4 8 -4 136.39 19.6
-4 -4 -4 144.89 14.3
4 4 4 139.79 16.2
4 -8 4 146.59 21
-8 4 4 140.69 16.1
4 4 4 150.58 15.7
-4 9 -4 15.9 9.5
-5 -4 -4 22.9 6.3
9 -5 -4 36.4 8.1
5 4 4 27.7 7.9
4 -9 4 41.4 12.1
-9 5 4 37 7
5 4 4 17.8 7.1
-5 -3 -4 5.1 5
-3 8 -4 0.1 6.8
3 -8 4 0.9 7.8
-8 5 4 17.1 5.3
5 3 4 9.1 6.2
-5 -2 -4 35.5 7.7
-2 7 -4 33.1 10.2
2 -7 4 52.29 11.6
-7 5 4 42.7 7.2
-5 -1 -4 100.09 14.1
-1 6 -4 117.49 16.8
1 -6 4 125.19 18.1
-6 5 4 133.09 13.7
0 5 -4 127.09 17.7
-5 0 -4 111.49 15.3
0 -5 4 143.49 18.9
-5 5 4 145.09 14.3
-5 1 -4 -0.4 5.4
1 4 -4 -6.8 5.2
-1 -4 4 -5.5 6.4
-4 5 4 -0.6 3.5
5 -1 4 -3.3 9.7
-3 5 4 62.89 8.4
-2 -3 4 48.2 10.7
5 -2 4 47.6 10.7
-5 3 -4 45 10.2
5 -3 4 56.29 11
-3 -2 4 59.09 11
-3 -2 4 42 8.8
-5 4 -4 10.5 6.4
5 -4 4 -0.1 6.1
-4 -1 4 -0.6 5.4
-1 5 4 -3 3.6
-4 -1 4 3.8 5.5
-5 5 -4 151.08 18.5
-5 0 4 126.99 16.2
-5 0 4 140.59 16.8
5 -5 4 153.88 18.8
0 5 4 131.49 14.2
1 5 4 115.49 14.2
5 -6 4 160.68 19.2
-6 1 4 140.89 16.2
-5 7 -4 20.6 9.6
5 -7 4 26.9 10.8
-7 2 4 42.9 8
2 5 4 36 7.4
-5 8 -4 -3.7 7.1
3 5 4 3.7 4.8
3 5 4 2.9 4.3
-8 3 4 4.2 4.8
5 -8 4 3.5 7.9
-4 -5 -4 32.1 5.8
9 -4 -4 39.4 8.7
-5 9 -4 16.3 9.3
5 -9 4 18.4 10.6
-9 4 4 30.5 7.1
4 5 4 33.2 6.7
-5 10 -4 41.9 11.7
-5 -5 -4 40.5 7.7
10 -5 -4 71.89 10.5
-5 -5 -4 46.3 7.9
5 5 4 52.49 9.7
5 5 4 42.7 9
-10 5 4 51.09 9.4
5 -10 4 34.8 11.9
11 -6 -4 4.1 5.8
-6 -5 -4 3.9 5.8
-5 11 -4 -7.1 7.1
-6 -5 -4 -4.3 4.8
-11 6 4 0.2 4.7
5 -11 4 -3.9 9.3
6 5 4 -2.5 5.7
6 5 4 -0.6 4.4
-6 -4 -4 201.18 22.1
-4 10 -4 212.28 25.9
10 -6 -4 225.98 23.2
6 4 4 234.78 23.5
6 4 4 216.98 22.6
4 -10 4 222.18 27.1
-10 6 4 242.28 22.8
-3 9 -4 9.2 9.4
-6 -3 -4 24.4 6.9
9 -6 -4 17.3 8.4
6 3 4 27.9 7.6
3 -9 4 27.5 10.5
6 3 4 24.8 6.5
-9 6 4 26.4 6.8
-2 8 -4 201.28 23.1
-6 -2 -4 171.28 19.7
2 -8 4 204.98 23.7
6 2 4 195.08 20.7
-8 6 4 186.48 19.1
-6 -1 -4 33.8 7.8
-1 7 -4 23.5 9.2
6 1 4 18.1 7.4
-7 6 4 27.3 5.8
1 -7 4 14.7 9.4
0 6 -4 598.64 52.89
-6 0 -4 551.24 51.39
6 0 4 598.44 52.09
0 -6 4 566.04 53.19
-6 6 4 583.54 50.19
-6 1 -4 183.78 18.6
1 5 -4 120.59 18.9
6 -1 4 163.38 18.9
-1 -5 4 148.89 19.6
-5 6 4 168.38 15.9
-6 2 -4 475.65 45.4
6 -2 4 538.75 46.7
-4 6 4 483.65 43.6
-2 -4 4 511.35 46.6
-2 -4 4 524.65 46.6
-6 3 -4 365.76 31.5
-3 -3 4 280.77 31.2
-3 6 4 336.37 28.6
-3 -3 4 288.97 30.9
6 -3 4 316.27 31.6
-6 4 -4 430.06 43.9
-4 -2 4 515.55 44.1
6 -4 4 494.15 45
-6 5 -4 156.48 19.3
-5 -1 4 131.99 17.5
-1 6 4 145.49 14.1
-5 -1 4 122.09 17
6 -5 4 200.68 20.1
-6 6 -4 538.05 52.79
6 -6 4 614.84 53.69
-6 0 4 592.94 51.79
-6 0 4 582.54 51.89
0 6 4 566.84 49.6
-6 7 -4 11.3 8.6
6 -7 4 17 9.9
-7 1 4 28 6.9
-6 8 -4 172.08 22.7
-8 2 4 201.68 20.2
2 6 4 190.48 18.8
6 -8 4 168.28 22.8
2 6 4 179.78 18.2
-6 9 -4 14.3 8.7
9 -3 -4 24 8
6 -9 4 22.2 10
3 6 4 24.9 7
-9 3 4 25.5 7.1
3 6 4 20 5.7
10 -4 -4 237.58 24.5
-6 10 -4 220.18 26.6
4 6 4 200.28 22.8
6 -10 4 230.68 27.3
4 6 4 229.68 22.2
-10 4 4 244.08 23.7
-5 -6 -4 -6 4.2
-5 -6 -4 -0.4 5.4
-6 11 -4 -9.2 7.6
11 -5 -4 10.4 6.1
-11 5 4 1.9 4.8
5 6 4 4.8 4
6 -11 4 8.4 9.7
5 6 4 0.8 5.4
-6 12 -4 235.18 26.7
-6 -6 -4 199.58 21.2
12 -6 -4 205.28 23.1
-6 -6 -4 242.28 21.8
-12 6 4 192.48 21.3
-12 6 4 207.98 22.5
6 -12 4 204.48 27.1
6 6 4 218.98 23.2
6 6 4 200.58 21.2
-7 -6 -4 8.6 6.3
-6 13 -4 -9 8.1
13 -7 -4 12.1 7
-7 -6 -4 0.1 6.3
6 -13 4 -7.8 8.3
7 6 4 2.9 4.9
-13 7 4 2.4 5.3
7 6 4 13.6 7.2
-13 7 4 -2.3 4.4
-7 -5 -4 103.39 14.4
-5 12 -4 90.69 17.7
12 -7 -4 93.99 14.6
-7 -5 -4 101.99 14.2
7 5 4 99.29 15
5 -12 4 126.79 20.4
-12 7 4 108.09 14.4
-12 7 4 115.89 13.2
7 5 4 93.59 13.3
-4 11 -4 14.2 9
11 -7 -4 9.2 6.1
-7 -4 -4 0.7 5.9
7 4 4 10.6 6.9
-11 7 4 22.9 6.9
4 -11 4 -3.6 8.3
7 4 4 4.8 4.7
10 -7 -4 101.19 12.9
-7 -3 -4 64.59 11.3
-3 10 -4 76.79 15.1
7 3 4 76.09 12.1
7 3 4 77.19 12.7
-10 7 4 79.39 11.2
3 -10 4 69.99 15.5
-7 -2 -4 6.2 6.1
-2 9 -4 -10.1 6.3
9 -7 -4 0.8 4.5
7 2 4 -4.3 5.5
2 -9 4 4.7 8.8
-9 7 4 1.6 3.9
7 2 4 -9.2 3.7
-7 -1 -4 104.49 14.9
-1 8 -4 119.89 17.6
-8 7 4 120.59 13.3
1 -8 4 111.89 17.5
7 1 4 113.59 15.7
-7 0 -4 8.5 6.5
0 7 -4 5.7 7
0 -7 4 5 8.2
-7 7 4 -3.5 2.9
7 0 4 -1.6 5.5
-7 1 -4 26.7 8.3
1 6 -4 26.1 9.6
-1 -6 4 17.6 9.5
7 -1 4 25.3 8.3
-6 7 4 25.5 5.1
-7 2 -4 20.3 8.9
2 5 -4 35.1 9.3
-2 -5 4 18.3 7.3
-2 -5 4 45.7 10.7
7 -2 4 47.2 9.8
-5 7 4 38.6 5.7
-7 3 -4 -1.9 6.2
-3 -4 4 1.7 7.3
7 -3 4 14.6 7
-3 -4 4 -2.3 4.7
-4 7 4 -3.3 2.6
-7 4 -4 4.6 6.5
-4 -3 4 4 5.3
-4 -3 4 3.9 7.2
7 -4 4 12.5 7.1
-3 7 4 3.8 3.1
-7 5 -4 35.9 9.6
-5 -2 4 39.3 8.5
7 -5 4 44.8 10.8
-5 -2 4 18.5 9
-6 -1 4 16.1 8.7
-1 7 4 26.1 5.1
7 -6 4 25.9 9.5
-6 -1 4 28.1 7.7
-7 7 -4 3.9 7.9
-7 0 4 2.7 5
0 7 4 7.6 4.4
-7 0 4 -4.2 7.7
7 -7 4 4.5 8.1
-7 8 -4 166.68 19.1
7 -8 4 139.69 18.8
1 7 4 119.99 12.8
-8 1 4 84.49 15
1 7 4 122.49 13.5
-7 9 -4 -1.6 8.2
9 -2 -4 -8.9 4.3
2 7 4 1.2 3.6
7 -9 4 5.4 8
2 7 4 -0.6 4.4
-9 2 4 2.1 4.4
10 -3 -4 64.49 12
-7 10 -4 73.29 14.4
7 -10 4 88.29 15.3
3 7 4 70.59 13.4
3 7 4 65.99 9.7
-10 3 4 77.39 11.7
11 -4 -4 -2.3 5.6
-7 11 -4 19.8 10
7 -11 4 0.4 9.1
4 7 4 6.2 5.8
-11 4 4 11.5 7
4 7 4 8.1 4.6
12 -5 -4 82.19 13.9
-7 12 -4 75.29 16
-5 -7 -4 81.69 12.4
-5 -7 -4 113.99 12.5
5 7 4 110.09 13.5
5 7 4 102.69 14.7
-12 5 4 113.59 14.5
7 -12 4 109.59 17.9
-6 -7 -4 1.5 6
-7 13 -4 -9 8.3
13 -6 -4 5.4 6.2
-6 -7 -4 8.8 6
-13 6 4 -0.3 5.6
6 7 4 -3.2 5.6
-13 6 4 -1 5
6 7 4 1.3 4
7 -13 4 7.8 10.4
-7 -7 -4 14.5 7.3
14 -7 -4 16.7 7.1
-7 14 -4 24.9 11.2
-7 -7 -4 15.9 7.8
7 7 4 15.3 6.1
7 -14 4 29.7 11.6
7 7 4 20.4 7.9
-14 7 4 27.7 7.5
-14 7 4 16 7.4
-8 -7 -4 2.9 7
-8 -7 -4 -3.4 6.2
15 -8 -4 -5.6 5.3
-7 15 -4 16.8 11
-15 8 4 13.5 6.9
8 7 4 6.1 5
-15 8 4 3.7 7
7 -15 4 4.8 10.6
8 7 4 8.9 6.9
14 -8 -4 92.69 13.7
-6 14 -4 56.79 15.1
-8 -6 -4 100.19 14.6
-8 -6 -4 82.49 13.4
-14 8 4 97.69 13.1
8 6 4 79.69 13.8
6 -14 4 98.49 19
8 6 4 69.79 12.2
-14 8 4 74.39 13.3
-8 -5 -4 2.8 6.9
-5 13 -4 3.3 9.3
13 -8 -4 7 6.2
-13 8 4 5.6 5.6
-13 8 4 -2.5 4.9
8 5 4 4.9 5
5 -13 4 19.3 11
8 5 4 19.5 7.9
-8 -4 -4 170.48 20.9
12 -8 -4 173.38 20.7
-4 12 -4 175.68 24.2
8 4 4 195.28 21.8
4 -12 4 207.08 25.9
-12 8 4 203.28 19.3
8 4 4 170.68 20.1
-12 8 4 195.38 20.1
-3 11 -4 -10.3 6.5
-8 -3 -4 1.9 6.8
11 -8 -4 -0.2 4.9
8 3 4 2.6 5
3 -11 4 4.5 9.8
-11 8 4 -1.7 3.8
8 3 4 3 6.7
10 -8 -4 208.08 19.5
-8 -2 -4 183.38 20.3
-2 10 -4 140.89 22.2
-10 8 4 178.68 18.5
8 2 4 174.98 21
2 -10 4 174.48 23.8
8 2 4 172.38 19.9
-1 9 -4 -3.8 6.9
-8 -1 -4 -3.2 6.2
1 -9 4 -2.9 8.1
-9 8 4 3.1 3.8
8 1 4 -8.9 5
8 1 4 -4.4 4.7
0 8 -4 215.78 25.7
-8 0 -4 221.08 23.9
0 -8 4 245.08 27.1
-8 8 4 215.28 21.4
8 0 4 240.78 24.4
1 7 -4 127.39 18
-8 1 -4 137.89 16.9
-1 -7 4 117.19 16.8
-1 -7 4 135.09 19.4
-7 8 4 129.69 13.1
8 -1 4 100.79 16.3
-8 2 -4 156.98 22.1
2 6 -4 201.58 22.9
-6 8 4 223.28 19.2
8 -2 4 211.68 23
-2 -6 4 215.68 23.2
-2 -6 4 224.88 24.6
-8 3 -4 9.4 7.5
8 -3 4 3.6 6.8
-3 -5 4 10.5 8.1
-5 8 4 15.8 3.5
-3 -5 4 1.9 5.3
-8 4 -4 115.19 18.1
-4 -4 4 138.09 17.4
8 -4 4 137.79 18.8
-4 -4 4 153.28 19.7
-4 8 4 141.69 13.1
-8 5 -4 9 7.6
-5 -3 4 7.9 7.1
-5 -3 4 14.3 6.8
8 -5 4 23.3 8.5
-8 6 -4 161.38 22
-6 -2 4 192.28 21.4
-6 -2 4 191.78 20.9
8 -6 4 190.98 22.9
-8 7 -4 97.69 16.6
-7 -1 4 107.89 15.1
-7 -1 4 132.79 16.4
-1 8 4 103.39 11.8
8 -7 4 138.39 18.6
-8 8 -4 247.28 27.1
0 8 4 231.98 21.3
0 8 4 240.28 22.1
8 -8 4 218.38 26.7
-8 0 4 236.08 24.7
-8 9 -4 12 8.6
9 -1 -4 -0.7 5.5
1 8 4 -0.4 3.1
8 -9 4 -12.6 7
-9 1 4 2.6 4.7
1 8 4 -1.5 4.3
-8 10 -4 185.08 23.9
10 -2 -4 192.48 22.2
2 8 4 178.48 18
8 -10 4 197.68 24.3
2 8 4 206.68 19.8
-10 2 4 178.68 21
-8 11 -4 4.4 9.5
11 -3 -4 -2.4 5.5
8 -11 4 -9 8.3
3 8 4 9.4 4.4
-11 3 4 6.1 5.5
3 8 4 -3.1 4.9
-8 12 -4 164.38 24.9
12 -4 -4 206.98 22.6
-12 4 4 202.38 21.9
4 8 4 186.78 19
8 -12 4 162.48 25.1
4 8 4 200.18 20.9
-5 -8 -4 -1.7 4.4
13 -5 -4 4.3 6.6
-8 13 -4 14.9 9.4
-5 -8 -4 9.9 5.8
-13 5 4 11.9 6.1
8 -13 4 7 9.7
5 8 4 10.4 7.1
5 8 4 4.3 4.9
-13 5 4 22.9 7.8
-6 -8 -4 93.09 13.3
14 -6 -4 72.09 13.6
-6 -8 -4 80.59 11.9
-8 14 -4 79.79 17.1
6 8 4 102.49 15.2
8 -14 4 117.09 20.6
-14 6 4 107.39 14.1
6 8 4 91.49 11.8
-14 6 4 90.39 14.5
-7 -8 -4 -7 5.5
-8 15 -4 -2.2 10.1
15 -7 -4 1.2 6.3
-7 -8 -4 7.8 7.6
8 -15 4 3 10
-15 7 4 7.5 6.8
7 8 4 11.4 7.7
7 8 4 5.8 4.7
-15 7 4 -0.6 5.9
-8 16 -4 224.08 32
16 -8 -4 261.37 28.9
-8 -8 -4 286.37 28.4
-8 -8 -4 287.57 27.9
8 8 4 249.58 26.6
8 -16 4 288.57 33.3
8 8 4 299.27 29.4
-16 8 4 245.28 28.6
-16 8 4 271.57 28.2
-8 17 -4 21.5 12.6
-9 -8 -4 19.4 8.7
-9 -8 -4 30.3 10
17 -9 -4 6.9 7.2
-17 9 4 17.3 8.7
-17 9 4 8.5 7.6
9 8 4 17.9 9.2
8 -17 4 35.1 13.2
9 8 4 16.4 6.6
16 -9 -4 86.99 14.7
-9 -7 -4 73.09 13.9
-7 16 -4 111.19 19.4
-9 -7 -4 128.79 16.7
-16 9 4 91.09 14.9
9 7 4 100.89 16.3
7 -16 4 85.19 18.4
9 7 4 101.49 14.2
15 -9 -4 2 5.8
-6 15 -4 -3.5 10
-9 -6 -4 7.2 7.7
-9 -6 -4 9.6 7.2
9 6 4 7 5.8
6 -15 4 0.2 10.1
9 6 4 19 8.5
-15 9 4 0.5 6.1
-15 9 4 9.5 6.1
14 -9 -4 10.9 6.4
-5 14 -4 9.6 9.8
-9 -5 -4 11.6 7.5
5 -14 4 4.3 10.6
-14 9 4 18.3 6.8
9 5 4 33.8 8.8
9 5 4 15.9 6.6
-14 9 4 7.8 5.8
-4 13 -4 7 9.7
-9 -4 -4 10.5 7.7
13 -9 -4 17.8 6.8
9 4 4 19.3 6.8
-13 9 4 12.6 5.6
9 4 4 20.1 8.2
-13 9 4 16.4 6.8
4 -13 4 16.5 11.2
-9 -3 -4 18.8 8.6
-3 12 -4 14.5 9.8
12 -9 -4 21 7.2
-12 9 4 32.6 7.3
9 3 4 10.4 7.3
-12 9 4 25.9 6.1
3 -12 4 25.7 12.1
9 3 4 32.5 7.7
-9 -2 -4 35.9 9.3
-2 11 -4 16.2 12.3
11 -9 -4 30.2 9.3
-11 9 4 28.2 5.9
9 2 4 33.3 9.8
-11 9 4 24.8 6.5
9 2 4 32.5 8.8
2 -11 4 27.4 10.8
-9 -1 -4 70.09 12.2
-1 10 -4 44.8 12.6
10 -9 -4 71.99 10.3
1 -10 4 56.59 14.8
-10 9 4 75.69 10.2
9 1 4 65.79 12.5
9 1 4 64.19 11.1
-9 0 -4 57.79 11.4
0 9 -4 70.69 13.8
9 0 4 45.8 9.4
-9 9 4 71.49 9
0 -9 4 41.7 10.6
0 -9 4 69.49 14
9 0 4 52.79 11.4
1 8 -4 -4 7.8
-9 1 -4 -6.6 6.2
9 -1 4 6.4 6.4
-1 -8 4 -5.1 8
-8 9 4 -4.3 2.8
-1 -8 4 -0.2 5.8
2 7 -4 -1.6 6.7
-9 2 -4 4.7 7.3
9 -2 4 2.6 6.5
-7 9 4 5 3.2
-2 -7 4 2.6 7.9
-2 -7 4 -1.6 5.3
-9 3 -4 34.1 9.5
-3 -6 4 21.1 6.9
-3 -6 4 25.5 10.6
9 -3 4 40.6 10.2
-9 4 -4 28.6 9.4
-4 -5 4 35 8.8
9 -4 4 38.6 10.3
-4 -5 4 32.7 10.7
-9 5 -4 30.4 10.1
9 -5 4 42.7 10.7
-5 -4 4 42.3 9.2
-5 -4 4 24.7 10
-9 6 -4 22.9 9
9 -6 4 30.9 10.1
-6 -3 4 10.3 6.6
-6 -3 4 8.3 8.4
-9 7 -4 -7.8 6.6
-2 9 4 -2 5.7
-7 -2 4 -0.9 5
-2 9 4 -3.1 3
9 -7 4 -5.1 6.9
-9 8 -4 -1.6 8
-8 -1 4 -10.4 6.1
9 -8 4 -1 7.1
-8 -1 4 -4.2 5.2
9 0 -4 58.79 11.2
-9 9 -4 47.7 12.9
9 -9 4 59.79 14.1
-9 0 4 84.09 13.6
0 9 4 58.59 9
-9 10 -4 61.69 13.8
10 -1 -4 49 10.9
9 -10 4 61.39 14.5
1 9 4 52.49 9.2
1 9 4 63.09 7.8
-10 1 4 60.09 11.6
-9 11 -4 18 12.6
11 -2 -4 29.6 8.8
-11 2 4 21.3 8.2
9 -11 4 33.7 11.7
2 9 4 32.5 5.6
12 -3 -4 17.5 8.2
-9 12 -4 34.5 11.3
3 9 4 25.6 7.2
9 -12 4 13.4 9.5
-12 3 4 21.9 8.2
3 9 4 17.3 4.9
13 -4 -4 27.8 8.2
-9 13 -4 -3.9 9.1
4 9 4 20.4 5.2
9 -13 4 -0.8 8.4
4 9 4 18.4 7.4
-13 4 4 28 8
14 -5 -4 17.1 8.7
-9 14 -4 -0.1 10.1
-5 -9 -4 3.1 4.8
-5 -9 -4 16.9 5.9
9 -14 4 11.3 10.1
5 9 4 16.4 7.9
-14 5 4 4.6 6.5
-14 5 4 9.3 6.9
15 -6 -4 11.7 7.6
-9 15 -4 -11.9 8.7
-6 -9 -4 23.5 7.7
-6 -9 -4 7.1 6.3
6 9 4 26 6.6
6 9 4 17.5 8
9 -15 4 22.6 11.7
-15 6 4 13.6 6.9
-15 6 4 18.9 7.7
-7 -9 -4 114.29 14.4
-9 16 -4 81.69 18.7
-7 -9 -4 88.49 17.6
16 -7 -4 88.29 15.9
7 9 4 87.89 13.1
9 -16 4 121.79 20.3
-16 7 4 91.29 15.9
-16 7 4 93.69 15.3
7 9 4 121.59 16.5
-8 -9 -4 20 8.1
17 -8 -4 3.2 6.6
-9 17 -4 0 9.6
-8 -9 -4 4.7 8.3
8 9 4 10.8 8.5
-17 8 4 17.9 8.5
8 9 4 17.1 6.2
-17 8 4 17.8 8.8
9 -17 4 28.2 13.4
-9 -9 -4 38.5 9.7
-9 -9 -4 11.7 8.8
18 -9 -4 27.1 9.7
9 9 4 10.8 8.7
-18 9 4 25.6 9.2
9 -18 4 10.6 12.9
9 9 4 22.8 7.5
-10 -9 -4 2.5 8.6
-10 -9 -4 -5.9 7.5
19 -10 -4 14.6 8.5
10 9 4 11.7 5.6
9 -19 4 6.2 12
10 9 4 -6.1 6.4
-19 10 4 1.7 7.8
-19 10 4 10.5 8
-10 -8 -4 146.39 19.5
-10 -8 -4 174.48 20.5
18 -10 -4 159.98 19.7
-8 18 -4 110.79 28.7
8 -18 4 107.49 22.2
-18 10 4 124.89 18.9
-18 10 4 137.89 19
10 8 4 138.29 17.5
10 8 4 143.59 19.8
-7 17 -4 -1.3 10.1
-10 -7 -4 13.9 9.7
-10 -7 -4 -6.2 6.5
17 -10 -4 7 6.8
-17 10 4 8.6 7.6
-17 10 4 8.7 7.2
10 7 4 -0.8 7
10 7 4 21.1 7.3
7 -17 4 17.4 11.3
-10 -6 -4 260.67 28.5
-10 -6 -4 250.67 28.1
-6 16 -4 240.98 31.6
16 -10 -4 258.77 27.8
6 -16 4 282.47 33.3
-16 10 4 238.38 27.3
-16 10 4 283.57 27.6
10 6 4 255.77 26.8
10 6 4 288.97 29.1
15 -10 -4 -10.6 5.1
-10 -5 -4 1 7.4
-5 15 -4 -8.4 9.3
5 -15 4 3.6 10
-15 10 4 -5.1 5.7
10 5 4 0 5.4
10 5 4 16.6 7.8
-15 10 4 3.3 6.4
-10 -4 -4 69.49 13.7
-4 14 -4 79.39 17.2
14 -10 -4 79.59 13.3
-14 10 4 109.29 13.1
-14 10 4 98.69 14
10 4 4 87.59 15.2
4 -14 4 144.49 22
10 4 4 76.29 13.4
-10 -3 -4 13.5 8.8
13 -10 -4 15.5 7.2
-3 13 -4 2.5 9.5
-13 10 4 25.2 6.5
-13 10 4 30.6 7.6
3 -13 4 44.3 12.9
10 3 4 24.7 7.6
10 3 4 13.1 8.1
-2 12 -4 169.08 22.6
12 -10 -4 141.09 18
-10 -2 -4 162.88 20
-12 10 4 167.58 16.3
10 2 4 164.58 20.1
10 2 4 139.49 18.7
2 -12 4 156.38 23.2
-12 10 4 154.38 17.3
-1 11 -4 -11.2 7.6
-10 -1 -4 -1.3 6.5
11 -10 -4 -3.9 3.5
10 1 4 10.8 7.1
-11 10 4 -5.3 3.8
1 -11 4 1.6 9.1
10 1 4 0.8 6.6
-10 0 -4 200.68 23.6
0 10 -4 242.68 25.9
-10 10 4 195.88 19.8
0 -10 4 231.88 24.5
10 0 4 186.18 23.5
0 -10 4 185.88 25.8
10 0 4 194.78 22.5
-10 1 -4 70.69 12.8
1 9 -4 83.99 15.3
-1 -9 4 78.59 15.5
10 -1 4 75.29 13
-1 -9 4 52.39 11.8
-9 10 4 61.79 8.9
10 -1 4 65.59 11.5
2 8 -4 177.48 21.6
-10 2 -4 186.18 21.5
-2 -8 4 115.29 21.1
-2 -8 4 197.08 23.4
10 -2 4 187.98 21.4
10 -2 4 206.88 21
-8 10 4 161.38 16.4
-10 3 -4 69.39 13.6
-3 -7 4 71.09 11.8
10 -3 4 92.99 14.5
-3 -7 4 79.29 14.9
-10 4 -4 201.58 25.2
10 -4 4 254.47 25.7
-4 -6 4 206.08 26.1
-4 -6 4 234.88 25
-10 5 -4 62.79 12.1
10 -5 4 64.89 11.8
-5 -5 4 39.6 11.8
-5 -5 4 38.8 9.7
-10 6 -4 172.88 23.5
10 -6 4 210.48 24.4
-6 -4 4 215.08 24.6
-6 -4 4 207.98 22.8
-10 7 -4 58.89 13.6
-7 -3 4 83.99 13.8
-7 -3 4 65.89 13.5
10 -7 4 61.19 13.2
-10 8 -4 182.58 23.6
-2 10 4 197.08 18.3
10 -8 4 188.98 24
-2 10 4 200.78 18.7
-8 -2 4 178.88 21.7
-8 -2 4 188.48 23.4
-10 9 -4 44.4 13
9 1 -4 64.69 11.9
10 -9 4 60.19 13.7
-1 10 4 67.99 9.2
-9 -1 4 44.8 9.6
-9 -1 4 66.99 12.6
10 0 -4 234.28 25.1
-10 10 -4 150.18 34.3
10 -10 4 200.58 26.4
-10 0 4 197.18 24.3
0 10 4 231.98 21.1
11 -1 -4 0.8 6.2
-10 11 -4 -19.7 7
10 -11 4 -18.2 6.9
1 10 4 1.8 5.5
1 10 4 -3.1 2.5
12 -2 -4 219.28 21.9
-10 12 -4 131.19 22.7
2 10 4 187.68 18.6
10 -12 4 175.68 23.9
-12 2 4 140.29 19.7
2 10 4 156.28 16.1
13 -3 -4 12.6 8
-10 13 -4 18.6 11.2
-13 3 4 22.1 8.4
-13 3 4 13.5 7.4
3 10 4 17.7 5
3 10 4 32.7 8.1
10 -13 4 28.8 12.6
-10 14 -4 82.69 18.2
14 -4 -4 94.99 15.9
10 -14 4 66.19 16.6
-14 4 4 101.69 15.6
4 10 4 119.59 12.1
4 10 4 104.99 15
-14 4 4 82.39 15
-5 -10 -4 2.4 5.5
-10 15 -4 2.6 9.8
-5 -10 -4 -6.3 4.5
15 -5 -4 2.6 6.9
10 -15 4 -18.7 8
5 10 4 -10.3 6.4
5 10 4 -0.3 6.4
-15 5 4 10.8 7.1
-15 5 4 -2.1 6.7
-10 16 -4 281.27 33.2
16 -6 -4 253.47 29.8
-6 -10 -4 281.77 27.2
-6 -10 -4 244.38 26.4
10 -16 4 277.97 33.1
-16 6 4 266.87 29.5
-16 6 4 256.97 29.2
6 10 4 291.67 26.6
6 10 4 311.47 29.6
-7 -10 -4 12.7 7.1
17 -7 -4 22.1 9.4
-10 17 -4 7.3 10.7
7 10 4 17.4 6.2
10 -17 4 13.1 11
-17 7 4 3.1 6.4
7 10 4 10.4 7.8
-8 -10 -4 145.29 18.4
-8 -10 -4 112.39 17.1
18 -8 -4 114.69 19.3
-18 8 4 142.69 19.5
8 10 4 134.79 16.2
10 -18 4 112.99 22.4
-18 8 4 137.19 20.1
8 10 4 160.98 19.7
-9 -10 -4 3.6 7.2
19 -9 -4 10.9 8.6
-9 -10 -4 -6.6 8.3
-19 9 4 0.6 7.5
-19 9 4 6.8 7.2
9 10 4 0.3 4.6
9 10 4 1.5 7.5
10 -19 4 -4.4 9.5
-10 -10 -4 165.88 21.5
-10 -10 -4 172.18 22.1
20 -10 -4 133.79 21.6
10 -20 4 130.59 23.8
10 10 4 191.28 27
-20 10 4 164.88 24.8
10 10 4 170.08 19.5
-20 10 4 167.88 23.3
-11 -10 -4 2.3 9.3
-11 -10 -4 5.5 9.3
21 -11 -4 -0.2 6.8
-21 11 4 -8 5.1
-21 11 4 8 8.6
10 -21 4 -19.1 8.7
11 10 4 0.2 4.9
11 10 4 13 9.4
-11 -9 -4 52.19 15.5
20 -11 -4 56.29 13.3
-11 -9 -4 61.09 14.9
9 -20 4 93.89 20
-20 11 4 86.59 16.1
-20 11 4 66.49 13.5
11 9 4 88.79 13.9
19 -11 -4 -1.6 5.7
-11 -8 -4 3.3 8.8
-19 11 4 -11.3 6.8
8 -19 4 -3.8 9.6
11 8 4 8.4 6.1
11 8 4 2.4 7
-19 11 4 2.7 6.2
-11 -7 -4 32.1 11.2
18 -11 -4 44.5 10.5
-7 18 -4 35 14
-11 -7 -4 53.89 12.5
-18 11 4 53.59 10.7
7 -18 4 8.4 13.2
11 7 4 35.7 8.6
11 7 4 46.1 12.3
-18 11 4 38.6 11.2
-11 -6 -4 -6.2 7.9
-6 17 -4 14.5 10.5
17 -11 -4 1.6 5.9
-11 -6 -4 2 7.3
6 -17 4 19.8 13.2
11 6 4 17.7 6.6
11 6 4 8.9 7.9
-17 11 4 8.1 7.1
-5 16 -4 188.68 24.2
16 -11 -4 145.09 18.4
-11 -5 -4 159.38 20.6
11 5 4 125.29 20.3
-16 11 4 161.68 18.2
-16 11 4 114.29 17.7
5 -16 4 133.19 23.1
11 5 4 119.99 17.8
-11 -4 -4 12.5 9.2
15 -11 -4 19 7.5
-4 15 -4 9.7 10.4
-15 11 4 24.6 7.7
4 -15 4 33 14
11 4 4 27.5 7.8
11 4 4 40.8 10.2
-15 11 4 22.6 7.8
-11 -3 -4 12.3 7.8
-3 14 -4 -11.6 8.4
14 -11 -4 3.9 5.4
11 3 4 13.2 8.1
-14 11 4 -7.6 4
11 3 4 -0.1 4.6
3 -14 4 -0.5 9.8
-14 11 4 7.7 5.7
-2 13 -4 3.3 9.5
13 -11 -4 18.7 6.2
-11 -2 -4 6.6 8.1
-13 11 4 9.8 5.3
11 2 4 17.5 8.7
11 2 4 10.3 6.7
2 -13 4 11.5 10.8
-13 11 4 7.3 5.3
-1 12 -4 66.09 14
-11 -1 -4 51.79 12.3
12 -11 -4 59.89 9.5
-12 11 4 62.39 8.8
1 -12 4 52.89 10.8
-12 11 4 62.69 9.4
11 1 4 47.6 12.1
1 -12 4 52.69 15.4
11 1 4 56.29 10.7
11 -11 -4 6.4 5.3
-11 0 -4 7.9 7.8
0 11 -4 2.2 8.9
0 -11 4 15.7 7.3
-11 11 4 4.1 4.3
11 0 4 11.3 7.8
-11 11 4 10.4 4.2
0 -11 4 12.2 10.4
11 0 4 8.1 6.5
1 10 -4 -10.6 8.2
-11 1 -4 -4.4 6.9
11 -1 4 -4.9 6.3
11 -1 4 -5.5 4.5
-1 -10 4 -13.9 7.4
-10 11 4 1.9 3.5
-1 -10 4 2.5 6.9
-11 2 -4 27.4 9.7
2 9 -4 26.7 9.9
-2 -9 4 34 10.2
-9 11 4 27.4 5.3
11 -2 4 36.1 10
11 -2 4 26.6 8.9
-2 -9 4 41.9 12.5
-11 3 -4 13.3 7.7
11 -3 4 3.6 7.2
11 -3 4 18.2 7.2
-3 -8 4 7.9 5.8
-3 -8 4 3.6 8.7
-11 4 -4 1.9 8.1
-4 -7 4 11.5 6.8
11 -4 4 12.8 8.3
-4 -7 4 12.5 9.4
-11 5 -4 -2.3 7.1
11 -5 4 2.5 7
-5 -6 4 1.2 9.4
-5 -6 4 -0.7 5.3
-11 6 -4 2.3 8.3
-6 -5 4 3.5 8.8
11 -6 4 18.1 7.7
-6 -5 4 0.9 6.9
-11 7 -4 -2.9 7.8
-4 11 4 3.7 6.6
-7 -4 4 3.9 8.7
11 -7 4 15.5 8.9
-7 -4 4 -4.2 5.3
-4 11 4 5.3 3.2
-11 8 -4 6 9.2
-3 11 4 9.5 4.1
-8 -3 4 10.1 9.5
-8 -3 4 10.1 6.3
-3 11 4 -2.6 4.3
11 -8 4 8.9 8.5
9 2 -4 22.5 8.6
-11 9 -4 13 18.7
-2 11 4 33.2 7
11 -9 4 10.1 9.4
-2 11 4 26.7 6
-9 -2 4 45.2 10.1
-9 -2 4 17.5 9.7
-11 10 -4 -17.5 7.2
10 1 -4 8.5 6.7
-10 -1 4 -5.7 7
-1 11 4 -1.8 4.2
11 -10 4 16 9.6
-10 -1 4 -7.1 5.3
-11 11 -4 -1.9 8.6
11 0 -4 18.1 8
0 11 4 18.3 6.2
11 -11 4 -1.7 8.4
-11 0 4 1.9 5.5
12 -1 -4 85.39 14.5
-11 12 -4 76.39 16.8
1 11 4 78.89 11.6
11 -12 4 64.89 14.8
-12 1 4 69.39 14.2
-11 13 -4 -1.8 8.4
13 -2 -4 18.5 8.1
2 11 4 14.5 4
-13 2 4 11 7.3
2 11 4 14.1 6.7
-13 2 4 8.6 6.9
11 -13 4 13.6 10.3
-11 14 -4 22.6 11.6
14 -3 -4 7.9 7.7
3 11 4 5.5 3.8
-14 3 4 8.8 7
11 -14 4 11.7 10.8
3 11 4 6.5 6.1
-14 3 4 3.5 6.6
-11 15 -4 7.7 10.9
15 -4 -4 7.8 7.8
4 11 4 18.3 8.1
11 -15 4 13.3 11.4
4 11 4 25.8 6
-15 4 4 18.2 9
-15 4 4 17.5 8.4
16 -5 -4 165.38 22.7
-5 -11 -4 137.49 17.3
-11 16 -4 212.58 26.5
-5 -11 -4 178.48 18.3
11 -16 4 224.68 26.6
5 11 4 194.08 21.1
-16 5 4 152.78 21.4
-16 5 4 109.79 26.6
5 11 4 180.68 18.2
-6 -11 -4 1.1 5.6
-11 17 -4 -0.7 9.4
-6 -11 -4 -1.2 6.2
17 -6 -4 4.2 6.5
11 -17 4 15.7 11.9
6 11 4 7.8 4.8
-17 6 4 3.1 7
-17 6 4 8.8 8
6 11 4 14.2 8.2
18 -7 -4 34.1 10.6
-7 -11 -4 45.5 9.3
-18 7 4 37.7 11.1
-18 7 4 66.29 13.3
7 11 4 28.5 10.1
7 11 4 51.89 9
11 -18 4 39.8 14
-8 -11 -4 -3.5 6.9
19 -8 -4 -7.8 6.4
-8 -11 -4 5.1 8
8 11 4 -1 4.2
8 11 4 -6.6 6.9
-19 8 4 6.1 6.8
11 -19 4 -2.9 10.1
-19 8 4 3.8 7.9
20 -9 -4 73.09 14.7
-9 -11 -4 85.19 13.9
-9 -11 -4 39.2 12.5
11 -20 4 67.39 15.7
-20 9 4 71.19 14.6
9 11 4 78.29 12.1
-20 9 4 77.89 15.6
9 11 4 76.69 15.2
-10 -11 -4 1 10.7
21 -10 -4 -3.3 5.9
-10 -11 -4 -9.4 8.9
11 -21 4 -6.6 10.7
10 11 4 -1.7 7
-21 10 4 -7.4 5.6
-21 10 4 -19 7.1
10 11 4 2.2 5.3
-11 -11 -4 50.39 13.9
22 -11 -4 37.7 11.7
-11 22 -4 21.7 20.9
-11 -11 -4 49.6 12.5
-22 11 4 31.2 11.3
11 -22 4 19.4 14.1
11 11 4 52.49 12.9
-22 11 4 30.6 11.7
11 11 4 41.4 9.9
-11 23 -4 8.2 10.9
-12 -11 -4 6.7 11.2
-12 -11 -4 2.4 9.4
23 -12 -4 3.8 7.3
11 -23 4 11.9 12.3
12 11 4 12.5 9.1
12 11 4 1.4 5.3
-23 12 4 -1.3 7.7
-23 12 4 -6.3 6.5
22 -12 -4 99.29 18.2
-12 -10 -4 65.19 14.7
-12 -10 -4 75.49 16.2
-10 22 -4 76.39 23.4
12 10 4 111.19 16.4
10 -22 4 68.29 17.7
12 10 4 93.19 17
-22 12 4 37.6 11.8
-22 12 4 83.99 16.9
-12 -9 -4 19.2 11.4
-12 -9 -4 5.6 9.2
21 -12 -4 2.4 6.9
9 -21 4 19.8 12.3
12 9 4 16.2 6.8
12 9 4 8.6 9.3
-21 12 4 28.7 11.3
-21 12 4 15 8.4
-12 -8 -4 165.68 22.7
20 -12 -4 149.29 21.4
-12 -8 -4 208.48 23.9
-20 12 4 189.38 22.9
-20 12 4 149.69 23.4
8 -20 4 124.79 24
12 8 4 147.29 19.8
12 8 4 162.98 22.9
-12 -7 -4 5.9 9.9
19 -12 -4 6.1 6.9
-12 -7 -4 16.8 9.5
12 7 4 3.3 8.1
12 7 4 8.9 6.1
-19 12 4 12.3 7.1
7 -19 4 2.2 11.9
18 -12 -4 134.19 18
-6 18 -4 107.09 21.5
-12 -6 -4 122.99 19.3
-12 -6 -4 142.49 20.1
12 6 4 113.79 16.7
12 6 4 165.88 20.4
-18 12 4 125.19 17.5
-18 12 4 121.49 18.1
-5 17 -4 -0.4 9.7
17 -12 -4 4.8 6.5
-12 -5 -4 7 9.1
-17 12 4 -3.5 4.6
12 5 4 -1.9 4.6
5 -17 4 -15.2 8.9
12 5 4 -9.6 5.6
-17 12 4 -13.5 5.1
16 -12 -4 201.78 23.9
-4 16 -4 205.68 28.6
12 4 4 255.67 26.8
12 4 4 206.88 24.5
-16 12 4 216.58 23.8
4 -16 4 260.07 30.7
-16 12 4 227.68 23.7
-3 15 -4 -1.4 10
-12 -3 -4 5.7 9.1
15 -12 -4 8.7 6.3
12 3 4 9.1 7.7
12 3 4 -4.2 4.6
-15 12 4 3.4 6
-15 12 4 1 5.1
3 -15 4 2.3 12.1
-12 -2 -4 78.19 14.8
14 -12 -4 93.99 12.6
-2 14 -4 79.99 17.3
12 2 4 85.49 15.5
-14 12 4 77.49 11.7
12 2 4 70.09 12.5
-14 12 4 79.99 12.6
2 -14 4 71.69 13.4
2 -14 4 103.19 18.6
-1 13 -4 15.2 10.3
-12 -1 -4 0.3 7.9
1 -13 4 -16 8.7
12 1 4 3.7 6
12 1 4 8.7 7.7
-13 12 4 10.5 4.9
-13 12 4 -2.4 4.2
1 -13 4 -2.9 5.6
12 -12 -4 77.69 10.6
0 12 -4 57.09 14.7
-12 0 -4 78.29 15.1
-12 12 4 73.59 9.6
0 -12 4 80.69 17
12 0 4 65.19 13.6
12 0 4 103.89 15.4
0 -12 4 51.99 11.8
-12 12 4 70.59 10
1 11 -4 74.29 14.8
11 -12 -4 46.9 8.3
-12 1 -4 75.49 13.7
-1 -11 4 56.49 12.2
-1 -11 4 38.7 13.9
-11 12 4 66.79 8.2
12 -1 4 60.09 12.9
-11 12 4 61.89 8.8
12 -1 4 44 10
2 10 -4 128.79 20.6
-12 2 -4 134.39 19.8
-10 12 4 117.89 13.8
12 -2 4 131.99 19.4
-2 -10 4 203.68 23.1
-2 -10 4 172.88 20
12 -2 4 160.58 18.8
-12 3 -4 19.8 8.9
-3 -9 4 21 10.8
12 -3 4 15.5 7.9
12 -3 4 36.9 10.1
-3 -9 4 13.1 7.7
-12 4 -4 183.88 23.5
-4 -8 4 200.08 22.8
12 -4 4 171.08 22.4
-4 -8 4 199.78 25.1
12 -4 4 195.38 23.4
-12 5 -4 114.89 17.4
-5 -7 4 75.99 13.1
12 -5 4 113.59 17
-5 -7 4 95.29 17.3
-12 6 -4 236.68 25.7
12 -6 4 202.08 24.9
-6 -6 4 203.28 23.7
-6 -6 4 202.88 25.7
-12 7 -4 110.69 20.8
-5 12 4 117.79 10.9
-7 -5 4 90.79 15
-7 -5 4 102.39 17.7
12 -7 4 88.79 16.5
-12 8 -4 196.28 28.7
12 -8 4 191.48 24.2
-8 -4 4 188.98 24.3
-4 12 4 202.28 18
-8 -4 4 178.48 22.3
-4 12 4 185.28 18.8
9 3 -4 12.8 7.9
-12 9 -4 18.3 10.8
-3 12 4 26.7 5.8
-9 -3 4 18 10
-3 12 4 26.2 6.4
-9 -3 4 21.8 8.4
12 -9 4 15.9 9.7
10 2 -4 179.38 21.5
-12 10 -4 147.59 22.5
-2 12 4 163.88 17.6
-10 -2 4 165.88 20
12 -10 4 147.19 22.4
-10 -2 4 178.48 22.4
-2 12 4 154.98 16.7
-12 11 -4 66.49 14.9
11 1 -4 73.59 13.7
-11 -1 4 49.1 11.5
12 -11 4 63.09 14.4
-1 12 4 66.99 10.2
-12 12 -4 92.79 17.2
12 0 -4 53.19 13.2
0 12 4 84.59 11.4
12 -12 4 65.59 14.8
-12 0 4 55.29 11.6
13 -1 -4 4 7.3
-12 13 -4 6.4 10.7
12 -13 4 -5.5 8.7
-13 1 4 16.2 9.5
1 12 4 9.1 6
-13 1 4 8.3 6.6
-12 14 -4 84.29 18
14 -2 -4 104.59 17.2
2 12 4 100.49 11.2
2 12 4 127.09 14.8
12 -14 4 113.39 18.6
-14 2 4 89.09 15.8
15 -3 -4 4.1 7.5
-12 15 -4 3.7 10.5
3 12 4 5.2 3.8
12 -15 4 -3 9.6
-15 3 4 2.2 7.4
-15 3 4 -9 6.1
3 12 4 1.4 6.4
16 -4 -4 205.98 27.1
-12 16 -4 235.78 30.1
-16 4 4 213.88 25.9
12 -16 4 297.67 31.4
4 12 4 231.18 22.2
-16 4 4 193.18 26.5
4 12 4 260.47 25.9
17 -5 -4 -3 6.3
-12 17 -4 10.7 10.5
-5 -12 -4 2 5.4
-5 -12 -4 12.1 5.4
5 12 4 5.9 4.3
5 12 4 0 7.1
12 -17 4 0.5 10.1
-17 5 4 -3.8 6.2
-17 5 4 1.6 7.1
-6 -12 -4 120.09 15.8
-6 -12 -4 136.09 16.8
18 -6 -4 123.59 19.6
6 12 4 159.88 19.3
6 12 4 140.59 15.5
12 -18 4 96.49 23.1
-18 6 4 156.18 20.6
-18 6 4 151.88 20.8
19 -7 -4 21.1 8.9
-7 -12 -4 5.7 6.8
7 12 4 6.9 5.2
7 12 4 9.3 8.1
-19 7 4 2.2 7.1
12 -19 4 2.3 10
-19 7 4 2.7 8.3
-8 -12 -4 201.58 21.6
20 -8 -4 159.08 23.5
-8 -12 -4 139.49 20
-20 8 4 199.38 24.1
8 12 4 154.38 18.6
-20 8 4 182.78 23.2
8 12 4 164.68 22
12 -20 4 146.19 25.6
21 -9 -4 -2.5 10.1
-9 -12 -4 36.1 11.5
-9 -12 -4 16.4 9
-21 9 4 4.2 7.6
12 -21 4 0.5 11.1
-21 9 4 25.7 10.3
9 12 4 -9.8 7.4
9 12 4 8.1 6
-12 22 -4 33 21.7
22 -10 -4 86.19 16.4
-10 -12 -4 60.79 14.8
10 12 4 114.99 18.8
-22 10 4 73.89 17.9
10 12 4 102.49 14.6
-22 10 4 101.79 18.2
12 -22 4 88.99 19.5
23 -11 -4 20.1 9.7
-12 23 -4 12.4 12.5
-11 -12 -4 -3.8 8
-11 -12 -4 4.3 10.6
11 12 4 3.7 6.3
-23 11 4 1.7 8.7
11 12 4 2.3 8.3
-23 11 4 7.8 6.9
12 -23 4 -13.1 10.2
-12 -12 -4 75.79 17.9
-12 -12 -4 56.39 14.8
24 -12 -4 89.99 16
12 -24 4 64.39 19.4
12 12 4 96.39 18.3
12 12 4 74.99 13.1
-24 12 4 33.7 15.2
-13 -12 -4 -11.4 11.6
25 -13 -4 -0.5 7.4
-13 -12 -4 -1.8 9.4
13 12 4 -0.5 6.6
12 -25 4 -12.1 11
-25 13 4 14.3 9.5
-13 -11 -4 25.7 13.6
-13 -11 -4 32.3 12.2
24 -13 -4 12.6 8.5
13 11 4 20.8 11
11 -24 4 20.6 15.3
13 11 4 6.6 6.5
-24 13 4 12.5 10.9
-24 13 4 4.1 8.5
-10 23 -4 9.1 12.3
23 -13 -4 0.5 6.6
-13 -10 -4 -8.1 10.6
-13 -10 -4 6.8 10.1
13 10 4 10.8 6.7
10 -23 4 0.4 11.2
-23 13 4 2 9.4
13 10 4 9.1 8.6
-23 13 4 -1.7 6.7
-13 -9 -4 2.4 11.2
22 -13 -4 30.4 9.6
-13 -9 -4 3.9 9.2
-9 22 -4 8 11.7
9 -22 4 -5.9 11.9
13 9 4 3.9 6.4
13 9 4 27.3 11.3
-22 13 4 19.7 10.8
-22 13 4 23.2 10.4
21 -13 -4 12.1 8.2
-13 -8 -4 12.9 10
-13 -8 -4 17.1 12.3
13 8 4 1.2 9.2
8 -21 4 19.4 13.7
13 8 4 7.9 6.5
-21 13 4 9.7 7.8
-21 13 4 1.7 8.2
-13 -7 -4 49.99 14.1
20 -13 -4 20 9.1
-13 -7 -4 42.2 11.7
13 7 4 42.2 11.8
-20 13 4 50.89 11.9
13 7 4 29.8 9.7
-20 13 4 45.4 12.6
7 -20 4 28.1 14.5
-13 -6 -4 12.9 10.1
-13 -6 -4 18 11.2
19 -13 -4 11.1 6.9
-19 13 4 6.7 8.3
6 -19 4 27.8 12.9
13 6 4 13.5 15.6
-19 13 4 3.4 7
13 6 4 11.4 7
-5 18 -4 9.2 10.6
-13 -5 -4 35.1 11.7
18 -13 -4 4.8 6.9
5 -18 4 20.5 16.9
13 5 4 5.3 8.1
13 5 4 22.6 8.3
-18 13 4 32.1 9.4
17 -13 -4 15.6 7
-4 17 -4 0.3 9.6
-13 -4 -4 7.1 9.1
-17 13 4 18 7.9
13 4 4 16.7 8
-17 13 4 13 6.3
13 4 4 17.8 9.4
4 -17 4 15.3 13.4
-13 -3 -4 37.6 10.9
-3 16 -4 26.7 12.1
16 -13 -4 7.2 6.4
13 3 4 25.2 8.7
3 -16 4 16.2 9.4
-16 13 4 20.7 7.8
13 3 4 31.8 10.5
-16 13 4 23.1 7.1
3 -16 4 2 11.3
-2 15 -4 60.29 15.4
15 -13 -4 42.7 9.4
-13 -2 -4 62.09 14.4
-15 13 4 64.99 10.4
2 -15 4 29 10.2
-15 13 4 78.09 11.1
13 2 4 64.69 13.5
13 2 4 64.09 13.1
2 -15 4 100.79 18.7
14 -13 -4 21.8 6.6
-13 -1 -4 15.6 9.7
-1 14 -4 33 12.1
13 1 4 34.4 11.1
13 1 4 16.1 7.7
-14 13 4 22.4 6.4
1 -14 4 32.1 13.1
1 -14 4 28.3 9.9
-14 13 4 12 6.1
-13 0 -4 23.7 10.6
13 -13 -4 25.5 6.4
0 13 -4 22 11.7
-13 13 4 16 5.5
13 0 4 19.3 9.3
13 0 4 16.7 8.2
-13 13 4 19.1 5.7
0 -13 4 -7.4 9.2
0 -13 4 28.8 9.1
1 12 -4 -7.3 8.6
12 -13 -4 -0.2 4.1
-13 1 -4 -10.5 8.3
13 -1 4 3.8 7.1
-1 -12 4 -8 4.8
-12 13 4 6.1 4.3
-1 -12 4 -12.8 8.3
-12 13 4 9.4 4.5
13 -1 4 -3.9 5.3
-13 2 -4 -6.6 8.7
2 11 -4 5.5 8.3
-2 -11 4 4.2 10.3
13 -2 4 7.7 7.7
-2 -11 4 10.1 6.9
13 -2 4 3.4 6
-11 13 4 8.2 4.1
-13 3 -4 9.8 10.4
13 -3 4 21.3 8.2
-3 -10 4 9.3 10.2
-3 -10 4 21.5 8.6
13 -3 4 5.7 7.7
-10 13 4 18.7 6.7
-13 4 -4 1.6 9.9
13 -4 4 6.7 7.7
-4 -9 4 21.4 8.1
13 -4 4 9.2 7.6
-4 -9 4 17 11.1
-13 5 -4 8 8.9
13 -5 4 13.7 7.6
-5 -8 4 6 9.3
13 -5 4 12 8.2
-5 -8 4 3.2 6.8
-13 6 -4 7.3 8.1
13 -6 4 -4.4 6.8
-6 -7 4 -0.6 5.4
-6 -7 4 -2.5 9.3
-13 7 -4 6.5 9.3
-7 -6 4 7 6.6
-6 13 4 5.3 4.7
-7 -6 4 13.1 9.6
13 -7 4 1.9 7.8
-13 8 -4 3.9 9.9
-8 -5 4 11.4 8.1
-5 13 4 3.6 5.1
-8 -5 4 0.9 8.3
13 -8 4 12.2 9.1
-13 9 -4 8.7 9.4
-9 -4 4 13.9 8
-4 13 4 10.9 6
13 -9 4 16 9.5
-9 -4 4 2.5 8.9
-4 13 4 17.9 5.3
-13 10 -4 4.3 10.6
10 3 -4 10.1 7.5
-10 -3 4 11.6 6.9
-3 13 4 25.4 6.1
13 -10 4 14.9 9.6
-10 -3 4 16.8 10.1
-3 13 4 14.7 6.4
-13 11 -4 22.9 10.7
11 2 -4 21.9 8.9
13 -11 4 10.9 9.6
-2 13 4 16.2 6.8
-11 -2 4 -2.8 5.1
-11 -2 4 12.7 9.3
-2 13 4 0.8 5
12 1 -4 -3.1 6
-13 12 -4 2.1 9.6
13 -12 4 10.9 9.5
-12 -1 4 -0.6 5.8
-1 13 4 1.5 5.4
-13 13 -4 10.8 10
13 0 -4 11.3 8.4
0 13 4 17.5 7.2
-13 0 4 39.1 9.9
13 -13 4 22.9 10.9
-13 0 4 34 10.1
-13 14 -4 3.5 10.8
14 -1 -4 20 9.9
-14 1 4 27.3 9.1
13 -14 4 28.9 12.2
-14 1 4 26.3 9.5
1 13 4 40.2 9.1
-13 15 -4 14.8 12.2
15 -2 -4 62.09 13.5
-15 2 4 74.29 14.1
-15 2 4 59.69 12.7
2 13 4 51.89 10.7
13 -15 4 64.69 16.3
16 -3 -4 13.3 9.3
-13 16 -4 29.5 12
-16 3 4 10 8
3 13 4 22.8 5.2
3 13 4 12.6 8
-16 3 4 0.9 7.5
13 -16 4 49.7 14
17 -4 -4 7.8 7.7
-13 17 -4 21 17.6
13 -17 4 24.9 13.1
4 13 4 26.2 9.1
-17 4 4 14.2 8.7
-17 4 4 5.9 8.3
4 13 4 25.8 5.5
18 -5 -4 9.7 8.7
-5 -13 -4 27.8 6.5
-5 -13 -4 23.1 6.6
-18 5 4 14.2 8.9
5 13 4 21 6
5 13 4 18.9 8.7
-18 5 4 18.4 9.2
-6 -13 -4 24.3 6.8
19 -6 -4 19.8 9.6
-6 -13 -4 12.1 7.3
6 13 4 6.8 8.2
-19 6 4 9.9 9.6
-19 6 4 5.8 7.7
13 -19 4 13.4 11.7
6 13 4 11.1 5.6
-7 -13 -4 26.5 13.6
-7 -13 -4 47.1 10
20 -7 -4 30.8 20.1
-20 7 4 46.6 12.8
-20 7 4 30.3 11.8
7 13 4 50.99 9.5
13 -20 4 60.59 17.3
7 13 4 46.5 11.2
21 -8 -4 11.1 8.9
-8 -13 -4 0.5 8.3
-8 -13 -4 18.8 8.6
-21 8 4 22.1 8.4
8 13 4 9.7 11.1
8 13 4 17.9 6.8
13 -21 4 16.4 12.2
-21 8 4 -1.6 8.2
-9 -13 -4 8.4 8.8
-13 22 -4 12.6 14.9
-9 -13 -4 16.1 10.4
22 -9 -4 18.9 9.7
13 -22 4 18.3 13.3
9 13 4 9.9 6.5
9 13 4 13.2 9.3
-22 9 4 37.2 14.1
-22 9 4 -0.6 7.3
-13 23 -4 -2.2 10.3
-10 -13 -4 -20.4 11.9
-10 -13 -4 -1.9 9.6
23 -10 -4 10.3 8.7
-23 10 4 4.5 7.5
10 13 4 3.4 5.4
-23 10 4 11.2 9.3
13 -23 4 -2.5 11.7
-11 -13 -4 21.1 11
-11 -13 -4 17.7 12
24 -11 -4 -4.5 7.5
13 -24 4 18.5 14.7
11 13 4 22.4 7.8
-24 11 4 9.6 7.6
-24 11 4 8.5 10.3
25 -12 -4 5.8 8.7
-12 -13 -4 -1 9.6
-12 -13 -4 4.2 11.1
13 -25 4 8 13.6
-25 12 4 6.9 9.6
12 13 4 6.3 5.5
-13 -13 -4 36 13.2
-13 -13 -4 11.8 13.1
26 -13 -4 29.3 10.3
13 13 4 25.1 8.6
-26 13 4 26.4 12.8
-26 13 4 7.8 9.5
13 -26 4 15.4 15.5
27 -14 -4 -4 6.8
-14 -13 -4 19.9 12
13 -27 4 -1.4 14.8
14 13 4 3.3 6.3
-27 14 4 13.7 14.3
26 -14 -4 33.3 11.5
-14 -12 -4 73.79 18.7
-14 -12 -4 54.29 14.2
-26 14 4 64.59 17.1
-26 14 4 74.29 16.5
12 -26 4 56.49 19.1
14 12 4 49.9 11.7
25 -14 -4 4.6 7.5
-14 -11 -4 -1.6 12.8
-14 -11 -4 -3.1 9.9
14 11 4 0.8 10
-25 14 4 4.3 10.7
11 -25 4 4.7 13.5
-25 14 4 2.3 8.1
14 11 4 3.5 5.9
-14 -10 -4 37.3 13.2
-14 -10 -4 22.5 13.7
24 -14 -4 27.8 10.6
-24 14 4 37.3 11.5
14 10 4 49.5 14.5
14 10 4 46.7 13.8
-24 14 4 45.9 14.6
10 -24 4 15.9 14.4
-9 23 -4 25.3 14.7
-14 -9 -4 5.7 12.2
-14 -9 -4 -3.5 9.4
14 9 4 -0.2 8.5
-23 14 4 9.7 9.1
-23 14 4 6.6 6.9
9 -23 4 9.8 13.5
14 9 4 8.5 6.1
-14 -8 -4 84.99 16.9
-14 -8 -4 82.49 17.2
-8 22 -4 82.09 20.2
22 -14 -4 78.69 14.6
14 8 4 76.49 15.9
-22 14 4 71.49 16
-22 14 4 70.59 15.9
8 -22 4 93.89 22.2
14 8 4 49.4 12.2
21 -14 -4 -0.6 5.8
-14 -7 -4 18.8 12.2
-14 -7 -4 -5 9.6
14 7 4 4.8 7.9
14 7 4 4.8 5.6
-21 14 4 10 7.1
-21 14 4 2.4 8.6
7 -21 4 -4.6 11.4
20 -14 -4 135.39 18.3
-14 -6 -4 135.19 21.2
-14 -6 -4 166.18 23.2
6 -20 4 122.09 26
14 6 4 113.39 18.2
14 6 4 129.39 21
-20 14 4 153.78 19.9
-20 14 4 105.29 17.5
-14 -5 -4 1.6 8.8
19 -14 -4 11.9 6.2
14 5 4 -3 7.1
-19 14 4 1.6 7.3
5 -19 4 10.6 8.9
5 -19 4 1.3 11.7
-19 14 4 -1 5.7
14 5 4 5.8 6
-4 18 -4 82.79 19.3
-14 -4 -4 78.99 15.5
18 -14 -4 72.69 12.7
14 4 4 87.59 13.9
-18 14 4 69.29 12.7
4 -18 4 40.6 16
4 -18 4 61.09 13.5
-18 14 4 121.99 15.9
17 -14 -4 16.3 6.8
-3 17 -4 0.4 9.7
-14 -3 -4 19.3 10.3
14 3 4 14.8 9.7
-17 14 4 25.6 8.1
-17 14 4 23.9 8.2
14 3 4 14.1 8
3 -17 4 11.5 10.4
16 -14 -4 129.79 16.7
-2 16 -4 136.19 22.7
-14 -2 -4 132.49 21.4
-16 14 4 129.39 16.5
-16 14 4 160.18 17.3
2 -16 4 90.19 17
2 -16 4 149.49 24
14 2 4 163.78 21.5
14 2 4 159.98 19.6
-14 -1 -4 -6.5 8.3
15 -14 -4 -0.1 5.1
-1 15 -4 14 11.1
14 1 4 4.9 8.1
14 1 4 1 6.5
1 -15 4 6.4 7.9
-15 14 4 4 4.9
1 -15 4 -9.2 10
-15 14 4 -3.6 5
0 14 -4 37.1 13.9
-14 0 -4 65.89 14.9
14 -14 -4 52.49 8.7
14 0 4 46.9 11.7
0 -14 4 44 12.5
0 -14 4 53.29 14.7
14 0 4 43.7 12.6
-14 14 4 40.3 8.3
13 -14 -4 17.2 5.7
-14 1 -4 41.7 12.6
1 13 -4 21.1 11.6
-1 -13 4 27.7 10.6
14 -1 4 14.4 7.2
14 -1 4 30.6 10.5
-13 14 4 10.6 5.7
-1 -13 4 19.9 13.3
2 12 -4 80.89 16.8
-14 2 -4 86.99 16.3
14 -2 4 94.19 16.1
-2 -12 4 87.09 18.3
-2 -12 4 83.39 15.8
-12 14 4 76.69 10.5
14 -2 4 78.99 14.1
-14 3 -4 10.2 9.2
-3 -11 4 15.2 11.5
-11 14 4 3.8 4.2
14 -3 4 7.7 8.2
14 -3 4 13.2 7
-3 -11 4 -2.7 6.2
-14 4 -4 87.39 16.7
-10 14 4 84.39 10.5
14 -4 4 106.39 16.8
14 -4 4 91.49 15.4
-4 -10 4 68.69 16.1
-4 -10 4 93.99 15.3
-14 5 -4 16.7 9
-9 14 4 16.3 4.9
14 -5 4 1.3 8
-5 -9 4 22.6 11.5
14 -5 4 8 7.4
-5 -9 4 2.7 6.7
-14 6 -4 69.89 14.7
14 -6 4 85.69 15.4
-6 -8 4 87.59 15
14 -6 4 96.39 15.5
-8 14 4 77.09 10.3
-6 -8 4 78.19 16.3
-14 7 -4 23.5 10
14 -7 4 18.8 7.8
-7 -7 4 29 8.2
14 -7 4 14.6 9.1
-7 14 4 23.2 6
-7 -7 4 44.9 13.4
-14 8 -4 70.39 16
14 -8 4 110.19 17.8
-8 -6 4 96.09 13.9
-8 -6 4 57.29 15.8
-6 14 4 76.09 11.3
-14 9 -4 14.3 10
-5 14 4 16 6.3
-9 -5 4 28.6 8.4
14 -9 4 6.4 9.3
-9 -5 4 2.9 9.9
10 4 -4 91.89 15.4
-14 10 -4 88.49 18.1
-10 -4 4 70.99 13.5
-10 -4 4 81.59 16.4
-4 14 4 98.89 13.1
14 -10 4 110.89 17.7
-14 11 -4 8.7 10.6
11 3 -4 19.7 9.1
14 -11 4 -3 8.1
-11 -3 4 13.8 7.3
-11 -3 4 47.3 12.7
-3 14 4 11 6.9
-14 12 -4 72.49 16.7
12 2 -4 84.79 15.2
-2 14 4 92.09 13.2
-12 -2 4 93.19 17.8
14 -12 4 111.99 18.9
-12 -2 4 53.29 12.2
13 1 -4 13.8 8.9
-14 13 -4 13.5 11.6
14 -13 4 43.5 12.3
-13 -1 4 29.9 9.7
-13 -1 4 19.5 8.4
-14 14 -4 56.59 15.8
14 0 -4 50.99 13.5
0 14 4 57.09 10.7
-14 0 4 47.6 12.2
14 -14 4 54.99 14.6
-14 0 4 57.59 12.5
-14 15 -4 -4.3 10.5
15 -1 -4 -4 5.8
1 14 4 11.4 7.2
14 -15 4 -0.5 9.5
-15 1 4 0.9 7.1
-15 1 4 2.8 7.9
16 -2 -4 144.69 21.9
-14 16 -4 112.49 22.1
-16 2 4 143.09 20.9
-16 2 4 152.58 21.3
14 -16 4 134.69 23.4
2 14 4 181.58 19.4
17 -3 -4 19.3 9.3
-17 3 4 12.2 8.7
3 14 4 12.3 4.7
-17 3 4 10.8 8.4
14 -17 4 -3.5 10.3
3 14 4 19.2 8.4
18 -4 -4 112.09 19.3
4 14 4 130.79 13.2
4 14 4 121.09 17.4
14 -18 4 81.69 20.4
-18 4 4 95.69 17.5
-18 4 4 100.89 18.9
19 -5 -4 13.7 17.3
-5 -14 -4 -6.3 4.8
-19 5 4 7.2 7.5
5 14 4 -4.1 6.6
5 14 4 -2.1 3.7
-19 5 4 0.4 7.9
14 -19 4 1 10.8
-6 -14 -4 132.39 16.7
20 -6 -4 105.39 19.5
-6 -14 -4 126.99 15.5
14 -20 4 145.79 25.6
-20 6 4 152.68 22.9
6 14 4 125.69 15.1
-20 6 4 130.59 22.8
-7 -14 -4 -0.5 6.4
-7 -14 -4 4.4 11.1
21 -7 -4 4.1 8.5
7 14 4 8.8 5.2
-21 7 4 -4.6 7.9
-21 7 4 1 6.9
14 -21 4 -4.2 12
22 -8 -4 81.89 16.1
-14 22 -4 61.99 17.8
-8 -14 -4 90.29 14.6
-8 -14 -4 83.39 13.6
-22 8 4 107.89 19.3
14 -22 4 66.69 19.2
8 14 4 76.79 12
-22 8 4 59.39 14.7
-9 -14 -4 13.8 10.5
23 -9 -4 1.8 7.5
-9 -14 -4 11.1 9.1
-14 23 -4 -12 10.4
-23 9 4 -6.3 10.1
9 14 4 14.3 6.7
-23 9 4 -14 6
14 -23 4 -7 11.4
24 -10 -4 66.29 15.9
-10 -14 -4 46.8 14
-10 -14 -4 53.59 13.5
10 14 4 24.9 8
14 -24 4 62.19 20.9
-24 10 4 19 10.8
25 -11 -4 2.5 7.5
-11 -14 -4 -6.3 10.6
-11 -14 -4 4.3 10.1
-25 11 4 -9 7.5
-25 11 4 -2.1 10.7
14 -25 4 -4.4 13.8
11 14 4 12.9 6.7
-12 -14 -4 43.4 16.2
-12 -14 -4 50.49 15.1
26 -12 -4 54.49 14.4
12 14 4 63.49 12.7
-26 12 4 40.4 18.2
-26 12 4 57.19 17.4
14 -26 4 74.59 20.8
-13 -14 -4 -0.5 13.8
-13 -14 -4 18.7 11.9
27 -13 -4 4.9 9.5
14 -27 4 -6 17.5
13 14 4 7.2 6.6
-15 -12 -4 4.6 15.4
27 -15 -4 -3.1 8
-27 15 4 2.5 12.6
-27 15 4 -4.8 10.3
15 12 4 14.3 8
12 -27 4 -6.4 16.9
-15 -11 -4 8 16.7
26 -15 -4 8.9 7
-26 15 4 10.4 10.2
-26 15 4 14.4 12.2
11 -26 4 2.9 16.2
15 11 4 22.5 9.9
25 -15 -4 -0.3 6.9
-15 -10 -4 20.5 10.7
-25 15 4 7.6 11
-25 15 4 -14.6 8.4
15 10 4 0.7 6.9
10 -25 4 -19 11.4
15 10 4 -5.8 8.3
-15 -9 -4 17.9 11.5
-15 -9 -4 3.2 12.4
24 -15 -4 14.7 8.6
9 -24 4 13.7 15.9
15 9 4 12.3 10.2
15 9 4 4.3 6.6
-24 15 4 0.1 7.5
-24 15 4 17.6 11.6
23 -15 -4 1.2 6.9
-15 -8 -4 2.4 9.8
-15 -8 -4 -8.6 10.3
15 8 4 7.3 6.8
-23 15 4 -1.2 5.9
8 -23 4 2.1 13.5
-23 15 4 -1.4 8.9
8 -23 4 37.7 23
15 8 4 5.3 8.5
-15 -7 -4 18.2 11.1
-7 22 -4 9.2 12.5
-15 -7 -4 4.7 12.5
22 -15 -4 20.1 8.3
7 -22 4 27.8 14.8
15 7 4 16.8 10.6
-22 15 4 20.4 10.6
-22 15 4 37.5 11
-15 -6 -4 -3.9 9.8
-15 -6 -4 15.2 12.4
21 -15 -4 2.2 5.4
15 6 4 4.2 6.2
-21 15 4 8.5 7.8
6 -21 4 -6.9 11
-21 15 4 -6 7.4
15 6 4 12 8.9
-15 -5 -4 41.3 13
20 -15 -4 38.9 9.4
-20 15 4 31.5 9.7
15 5 4 31.3 9.5
5 -20 4 12.7 9.1
15 5 4 37.4 11.5
-20 15 4 36 11.2
5 -20 4 26.5 14.9
19 -15 -4 6.8 6.3
-15 -4 -4 19.7 10.3
4 -19 4 15.4 13.7
15 4 4 2.9 6
-19 15 4 6 7.7
4 -19 4 5.4 8.5
-19 15 4 3 9.7
15 4 4 -7.8 7.4
18 -15 -4 -3.1 5.1
-15 -3 -4 16 10.5
15 3 4 -0.1 5.7
-18 15 4 18.5 7.9
3 -18 4 -3.5 12.1
15 3 4 -1.6 7.8
-18 15 4 11 7.2
3 -18 4 1.7 7.3
-15 -2 -4 15.7 10.7
17 -15 -4 12.9 6.2
-2 17 -4 16.4 10.8
2 -17 4 -3.2 10.1
15 2 4 14.7 8.4
-17 15 4 14.3 7.2
2 -17 4 14.9 8.3
-1 16 -4 41 14.3
16 -15 -4 34.4 7.9
-15 -1 -4 50.09 13.8
-16 15 4 28.4 8.3
15 1 4 19.4 9.9
1 -16 4 41.5 12.3
15 1 4 38.8 10.3
1 -16 4 35 18.8
0 15 -4 25 12.5
-15 0 -4 30.1 11.9
15 -15 -4 21.8 7.8
15 0 4 56.89 12.5
0 -15 4 32.1 13.9
15 0 4 20.8 7.9
0 -15 4 28.4 9.8
-15 15 4 30.1 7.9
1 14 -4 3.4 9.6
-15 1 -4 4.5 9.8
14 -15 -4 1.5 4.1
-14 15 4 8 5.5
15 -1 4 13.5 9.4
15 -1 4 5.6 5.8
-1 -14 4 10.7 12.6
-1 -14 4 -7.5 6.5
2 13 -4 33.6 13.7
13 -15 -4 59.59 7.8
-15 2 -4 44.4 13
-2 -13 4 35.2 10.3
-2 -13 4 49.7 15.1
-13 15 4 42.9 8.3
15 -2 4 52.49 12.7
15 -2 4 33.9 9.8
-15 3 -4 1.1 9.1
-3 -12 4 -3.4 7.2
-12 15 4 8.4 5.3
15 -3 4 -9.3 6.7
15 -3 4 -9.7 5.8
-3 -12 4 -14.5 10.1
-15 4 -4 12.5 9.9
-11 15 4 17.3 5.9
15 -4 4 19.8 8.6
15 -4 4 41 11.2
-4 -11 4 15.1 9
-4 -11 4 24.3 13.6
-15 5 -4 3.4 9.1
15 -5 4 6 7.5
-5 -10 4 -4.1 5.6
-5 -10 4 -9.9 8.9
-10 15 4 -3.6 4.6
15 -5 4 -9.7 5.3
-15 6 -4 3 8.3
15 -6 4 3.2 6.7
-6 -9 4 -1.4 10.4
-6 -9 4 8.8 7.6
-9 15 4 5.1 5.4
15 -6 4 12.2 9.8
-15 7 -4 2.4 8.9
15 -7 4 0.5 8
-7 -8 4 18.5 11.5
-8 15 4 -2.8 4.7
15 -7 4 4.9 7.2
-7 -8 4 -1.9 5
-15 8 -4 6.2 9.4
15 -8 4 18.7 10
-8 -7 4 -10.2 8.9
-8 -7 4 7.7 7.3
-7 15 4 -2.7 5.5
15 -8 4 -1.5 6.5
-15 9 -4 -0.7 8.5
-9 -6 4 14.7 7.3
-9 -6 4 6.8 11.1
15 -9 4 8.1 8.8
-6 15 4 3.6 6.1
10 5 -4 12.3 7.9
-15 10 -4 21.3 11.5
15 -10 4 8.8 9.7
-5 15 4 -3.7 5.5
-10 -5 4 -13.9 8.6
-10 -5 4 5.2 6.1
-15 11 -4 14.3 11.9
11 4 -4 20.8 9
-4 15 4 19.1 7.3
-11 -4 4 41 10
-11 -4 4 10.8 9.6
15 -11 4 32 11.1
12 3 -4 -11.6 6.2
-15 12 -4 -16.4 9
-12 -3 4 14.6 10.7
-12 -3 4 17.2 7.8
15 -12 4 4.8 9.5
-3 15 4 -9.3 5.9
13 2 -4 28 10.3
-15 13 -4 53.49 15
-2 15 4 59.79 11
-13 -2 4 63.79 13.4
15 -13 4 50.19 14.3
-13 -2 4 63.59 13.8
-13 -2 4 35.5 12.3
-15 14 -4 -10.4 8.7
14 1 -4 5.3 8.9
15 -14 4 -0.1 9.2
-14 -1 4 3.8 7.9
-14 -1 4 13.3 8.6
15 0 -4 28.8 11.6
-15 15 -4 16.1 11.6
-15 0 4 19 9.9
-15 0 4 25.3 10.5
15 -15 4 38.4 12.3
-15 16 -4 26.5 14.4
16 -1 -4 51.89 12.7
15 -16 4 38.2 13.7
-16 1 4 30 11.2
-16 1 4 34.4 11.2
17 -2 -4 12.4 7.3
-17 2 4 23 9.7
-17 2 4 9.5 9
18 -3 -4 9.8 9.9
-18 3 4 6.2 8.3
15 -18 4 10.8 10
3 15 4 8.6 4.4
-18 3 4 33.7 11.5
19 -4 -4 4.9 9
4 15 4 0.8 4.1
15 -19 4 14 11.3
-19 4 4 3.4 8.9
-19 4 4 21 9.7
20 -5 -4 31.8 11.4
5 15 4 42.5 8.2
15 -20 4 49.2 15.4
-20 5 4 48.7 12.1
-20 5 4 45.9 13.1
-6 -15 -4 1 5.8
-6 -15 -4 10.6 7.1
21 -6 -4 3.5 8.1
15 -21 4 2.9 11
6 15 4 9.2 5.3
-21 6 4 5.6 7.5
-21 6 4 4.6 8.4
-15 22 -4 11.5 12.9
22 -7 -4 3.1 9.1
-7 -15 -4 11.2 7.6
-22 7 4 14.6 10.7
15 -22 4 36.8 15.1
7 15 4 16.3 6.2
-22 7 4 19.9 12.4
23 -8 -4 -3.8 7.7
-15 23 -4 -8.9 14.9
-8 -15 -4 -5 7.1
-8 -15 -4 -6.8 7.7
8 15 4 -0.2 4.4
15 -23 4 -14.6 9.7
-23 8 4 1.2 8.7
-23 8 4 -3.2 9.3
-9 -15 -4 10.8 10.2
-9 -15 -4 -1.9 8.4
24 -9 -4 12.1 9.9
15 -24 4 -20 8.7
-24 9 4 1.9 7.3
9 15 4 8.1 5.7
-10 -15 -4 12.3 10.4
25 -10 -4 5 8.7
-10 -15 -4 17.3 12.9
15 -25 4 -4.3 12.2
-25 10 4 12.6 9.6
-25 10 4 -4.4 7.1
26 -11 -4 5.1 9.5
-11 -15 -4 22.8 12.2
-11 -15 -4 31.5 13.4
-26 11 4 5.7 12.2
15 -26 4 22.3 16.3
11 15 4 12.2 7.1
27 -12 -4 13.5 9.8
-12 -15 -4 7.1 12.1
-12 -15 -4 -9.4 12.6
12 15 4 -23 8.4
15 -27 4 10.3 14.3
27 -16 -4 -3.7 6.7
-16 -11 -4 3.6 14.3
16 11 4 3.8 7.7
-27 16 4 5.8 10.9
11 -27 4 -11.8 15.3
26 -16 -4 11.2 8.4
-16 -10 -4 31.6 16.9
10 -26 4 23.5 11.7
16 10 4 54.79 11.2
10 -26 4 50.09 21
16 10 4 26.9 13.2
-26 16 4 48.7 14.3
-16 -9 -4 9.7 13.6
25 -16 -4 -11.4 6.2
16 9 4 19.4 11
9 -25 4 -6.7 13.9
-25 16 4 -0.5 8.5
16 9 4 4.9 7.1
9 -25 4 2.1 8.6
-16 -8 -4 19.8 13.5
24 -16 -4 64.39 12.6
-16 -8 -4 17.7 13.1
8 -24 4 54.69 14.5
16 8 4 45.2 12.8
-24 16 4 58.49 14
8 -24 4 18.8 16.4
16 8 4 33 11.1
-16 -7 -4 12.1 11.1
23 -16 -4 24.9 8.3
16 7 4 -3.9 8.5
7 -23 4 1.6 8.4
16 7 4 3.7 6.7
7 -23 4 -19 10.4
-23 16 4 14.9 9.6
22 -16 -4 63.39 12.8
-6 22 -4 29.5 15.4
-16 -6 -4 91.29 18.7
-16 -6 -4 58.09 17.2
16 6 4 75.59 15.9
6 -22 4 86.69 19.9
-22 16 4 60.89 14.1
6 -22 4 35 15.8
16 6 4 82.39 14.7
-5 21 -4 0.7 10.5
21 -16 -4 9.4 6.9
-16 -5 -4 12.4 10.9
16 5 4 16.4 9.2
-21 16 4 21.1 10.5
5 -21 4 14.7 16
16 5 4 -0.7 5.5
-4 20 -4 95.29 23.8
20 -16 -4 82.29 14
-16 -4 -4 101.49 18.8
-20 16 4 100.49 16.4
16 4 4 81.29 17.2
4 -20 4 118.69 24.6
-16 -3 -4 -4.9 8.8
-3 19 -4 4 12.9
19 -16 -4 9.8 6.5
3 -19 4 4 8
16 3 4 -0.9 5.6
-19 16 4 -0.1 7.2
16 3 4 10.3 9.5
3 -19 4 20.4 14.9
18 -16 -4 85.19 12.4
-16 -2 -4 57.69 14.7
16 2 4 67.09 14.2
-18 16 4 91.39 14
2 -18 4 63.09 13.9
2 -18 4 69.19 19.2
16 2 4 69.19 15.6
-1 17 -4 11 10
-16 -1 -4 0.7 9.1
17 -16 -4 5.2 5.3
16 1 4 5.7 8.6
-17 16 4 2.2 6.5
16 1 4 4.1 6.9
1 -17 4 0.7 7.6
1 -17 4 -13.1 9.7
0 16 -4 85.49 18.4
-16 0 -4 86.29 18.2
16 -16 -4 99.39 12.8
16 0 4 102.69 17.9
0 -16 4 66.99 18.7
0 -16 4 78.19 14.6
-16 16 4 131.69 15.1
15 -16 -4 24.7 6.2
1 15 -4 32.2 12.9
-16 1 -4 40.2 13.2
-15 16 4 24.8 8
-1 -15 4 33.6 18.2
16 -1 4 26.5 11.4
-1 -15 4 16.2 9.3
16 -1 4 28.5 10.7
2 14 -4 178.28 24.3
-16 2 -4 152.68 23.3
14 -16 -4 124.69 14.7
16 -2 4 125.09 19.7
16 -2 4 164.78 21.5
-2 -14 4 113.79 21.8
-14 16 4 141.79 16.8
-2 -14 4 118.49 20
-16 3 -4 12.5 11.4
16 -3 4 18.4 9.8
16 -3 4 11.6 7.6
-13 16 4 34.8 8
-3 -13 4 46.4 10.8
-3 -13 4 10.6 12
-16 4 -4 222.78 28.6
-4 -12 4 213.38 29.9
-12 16 4 219.48 22.4
16 -4 4 204.18 26.6
16 -4 4 235.98 27.5
-4 -12 4 240.48 27.2
-16 5 -4 180.88 23.9
-5 -11 4 131.49 22.6
-5 -11 4 109.09 19
-11 16 4 147.09 16.3
16 -5 4 156.08 21.4
16 -5 4 134.49 21
-16 6 -4 280.37 31.1
16 -6 4 251.87 29.5
-10 16 4 253.17 24.6
-6 -10 4 237.78 28.6
16 -6 4 206.18 27.8
-6 -10 4 296.17 32.3
-16 7 -4 158.88 21.8
16 -7 4 110.79 19.6
16 -7 4 112.69 19.8
-7 -9 4 119.79 21
-7 -9 4 136.59 19.2
-9 16 4 133.09 15.6
-16 8 -4 266.67 30.5
16 -8 4 240.58 29.5
-8 -8 4 261.77 28.6
-8 -8 4 315.47 32.4
-8 16 4 229.08 24.7
16 -8 4 235.78 29.2
-16 9 -4 104.29 19.2
-9 -7 4 138.09 17.9
-7 16 4 121.29 14.5
16 -9 4 71.29 15.5
16 -9 4 104.39 18.6
-9 -7 4 95.09 19.3
-16 10 -4 267.27 32.6
16 -10 4 283.97 30.8
-10 -6 4 275.57 30.1
16 -10 4 282.77 31.9
-10 -6 4 286.97 32.8
-6 16 4 254.57 26.9
11 5 -4 153.38 21.9
-16 11 -4 120.09 21.4
-11 -5 4 94.99 17.3
-11 -5 4 172.58 22.9
16 -11 4 122.89 20.8
-5 16 4 139.69 17.1
12 4 -4 229.98 27.4
-16 12 -4 174.28 27.5
-12 -4 4 220.38 28.1
-12 -4 4 232.78 26.5
16 -12 4 194.58 27.1
-4 16 4 227.38 23.7
-16 13 -4 5.5 10.5
13 3 -4 22.1 10.3
-13 -3 4 12.9 9.3
16 -13 4 19.8 11.2
-3 16 4 12.7 8
-13 -3 4 4.4 9.9
-13 -3 4 23.9 10.1
14 2 -4 161.38 24
-16 14 -4 148.69 24.4
16 -14 4 131.19 22.8
-14 -2 4 148.69 21.1
-14 -2 4 153.08 21.3
-14 -2 4 146.59 23.3
-2 16 4 133.59 18.6
-16 15 -4 24.9 13
15 1 -4 32.9 11.1
16 -15 4 28.6 12.2
-15 -1 4 13 8.1
-15 -1 4 28.3 10.3
-16 0 4 52.99 13
17 -1 -4 -2.7 7
-17 1 4 5.5 7.9
-17 1 4 13.7 9.3
16 -17 4 0.7 9.4
18 -2 -4 96.99 16.8
-18 2 4 89.59 18
16 -18 4 89.89 19.7
-18 2 4 89.99 17
19 -3 -4 1.3 8.6
-19 3 4 20 10
16 -19 4 9.6 11.2
-19 3 4 25.6 11
20 -4 -4 80.79 17.3
4 16 4 92.39 13
16 -20 4 125.69 23.2
-20 4 4 86.69 17.7
-20 4 4 105.99 17.7
21 -5 -4 3 7.9
-21 5 4 5 10.2
-21 5 4 -6.2 7.3
5 16 4 -3.3 4.2
16 -21 4 2.9 11.3
22 -6 -4 97.09 17.5
-6 -16 -4 58.99 12
-16 22 -4 62.19 18.1
-6 -16 -4 68.29 11
16 -22 4 68.39 19.5
-22 6 4 79.99 17.8
6 16 4 73.39 11.2
-22 6 4 91.19 18.7
23 -7 -4 -7.2 7
-7 -16 -4 8.4 7.4
7 16 4 1 5.1
16 -23 4 -6.8 10.8
-23 7 4 12 9.3
24 -8 -4 18.1 11.2
-8 -16 -4 27.9 9.9
-8 -16 -4 52.29 11.9
16 -24 4 34.6 15
-24 8 4 23.2 15.2
8 16 4 36.6 8.7
-24 8 4 17.3 11.4
-9 -16 -4 -19.1 7.9
-9 -16 -4 9.9 13.9
25 -9 -4 3.3 8.6
16 -25 4 -8.4 14.1
9 16 4 8.8 6.1
-25 9 4 26.8 13.4
-10 -16 -4 30.6 12.7
26 -10 -4 31.6 11.3
-10 -16 -4 37.2 12.6
16 -26 4 14.1 18.4
10 16 4 27.8 8.3
27 -11 -4 -6.3 8.1
-11 -16 -4 -11.4 10.5
-11 -16 -4 2.2 13
11 16 4 -5.8 5.5
16 -27 4 16.3 18.7
27 -17 -4 8.2 8
-17 -10 -4 -9.2 12.2
-17 -10 -4 -5.6 12.6
17 10 4 -8.3 5.6
-27 17 4 -9.3 9.4
10 -27 4 14.3 17.4
-17 -9 -4 17.5 15.4
26 -17 -4 7.5 7.8
-17 -9 -4 23.8 18.8
9 -26 4 20.5 12.2
17 9 4 17.8 11.6
9 -26 4 -12.8 13.4
17 9 4 6.3 7.8
25 -17 -4 -1.1 5.8
-17 -8 -4 13.7 12.8
-25 17 4 13.8 9.4
17 8 4 0 9.9
17 8 4 3.6 6.6
8 -25 4 3.9 8.8
8 -25 4 21 16.2
24 -17 -4 11.9 8
-17 -7 -4 -0.7 12.3
-24 17 4 14.5 10.3
7 -24 4 20.3 16.3
7 -24 4 10.7 8.8
17 7 4 5.1 8.9
17 7 4 5.1 6.9
23 -17 -4 -9.5 5.1
-17 -6 -4 8 12.3
17 6 4 -3.9 5.6
17 6 4 -1.4 8.8
6 -23 4 1.3 13.9
6 -23 4 -4.9 7.2
-23 17 4 5.7 8.9
-17 -5 -4 5.9 10.7
-5 22 -4 16.5 13.2
22 -17 -4 -0.9 6.1
17 5 4 1 9.8
-22 17 4 17.8 10.4
5 -22 4 2 13.8
17 5 4 2.7 7.7
-4 21 -4 0.7 11.4
-17 -4 -4 9.2 10.3
21 -17 -4 -0.4 5.3
4 -21 4 11.1 13.1
17 4 4 4.1 6
-21 17 4 -3.8 7.7
17 4 4 4.1 8.1
-17 -3 -4 25.6 12.1
20 -17 -4 11.7 6.8
-3 20 -4 -5 9.5
17 3 4 19 9.4
17 3 4 16.3 10.7
3 -20 4 25 14.8
-20 17 4 17.9 9.3
-17 -2 -4 -1.5 10.4
19 -17 -4 18.5 6.5
17 2 4 -7.3 7.8
-19 17 4 12.1 7.8
2 -19 4 12.3 13.9
17 2 4 9.7 7.2
18 -17 -4 3 5.2
-17 -1 -4 3.9 10.2
17 1 4 9.2 9.1
-18 17 4 7.2 7.7
17 1 4 17.2 9.7
1 -18 4 6.6 7.2
1 -18 4 32.2 16
-17 0 -4 -3.7 8.5
17 -17 -4 -1 4.2
0 -17 4 13.3 7.5
0 -17 4 18.7 12.7
17 0 4 -8.7 4.9
17 0 4 2.8 8.6
-17 17 4 -7.7 5.9
-17 1 -4 -0.7 9.7
1 16 -4 1.4 8.7
16 -17 -4 8.8 7.3
-1 -16 4 4.5 8.1
17 -1 4 9.2 6.8
17 -1 4 12.6 8.9
-1 -16 4 3.1 11.8
-16 17 4 -5.4 5.9
-17 2 -4 15.2 11.4
15 -17 -4 13.1 5.2
2 15 -4 14.2 11.3
-2 -15 4 8.9 11.2
17 -2 4 11 7.3
-15 17 4 33.7 8.6
-2 -15 4 23.3 10.1
17 -2 4 26.3 11.6
-17 3 -4 33.1 12.4
-3 -14 4 26.9 10.3
-14 17 4 20.9 7.5
-3 -14 4 2.9 18.9
17 -3 4 16.7 8.9
-17 4 -4 3 10.3
-13 17 4 12.1 7.1
-4 -13 4 31.1 18.3
-4 -13 4 26.3 9.6
17 -4 4 11.4 7.6
17 -4 4 19.3 10.8
-17 5 -4 -6.3 7.9
-5 -12 4 -2.5 5.7
17 -5 4 -8.2 5.8
-12 17 4 5.8 5.9
17 -5 4 -8.8 6.8
-5 -12 4 4.7 11.5
-17 6 -4 -1.8 9.6
17 -6 4 -0.5 6.4
-6 -11 4 6.2 5.9
-11 17 4 6.5 6.5
17 -6 4 -0.3 8.1
-6 -11 4 6.3 10.4
-17 7 -4 15.6 10.8
-7 -10 4 18.1 11.9
-7 -10 4 27.7 10.2
17 -7 4 14 9.7
-10 17 4 9.8 7.1
17 -7 4 24.5 10.5
-17 8 -4 14 10.5
17 -8 4 8.2 7.4
-9 17 4 22.6 7.5
17 -8 4 5.8 8.7
-8 -9 4 6.4 11.3
-8 -9 4 6.7 7.9
-17 9 -4 16.2 11.5
17 -9 4 8.1 9
-9 -8 4 10.2 11.9
-8 17 4 9.6 7.1
-9 -8 4 4.3 5.8
17 -9 4 19.6 9.6
-17 10 -4 9.1 10.2
-10 -7 4 21.3 11.4
17 -10 4 10.3 9.6
17 -10 4 10.1 8.7
-10 -7 4 16.4 11.6
-7 17 4 11 7.1
-17 11 -4 11.7 10.5
11 6 -4 0.8 7
17 -11 4 6.1 9.6
-6 17 4 5.3 7.3
-11 -6 4 21 12.3
17 -11 4 12.6 8
12 5 -4 1.5 6.9
-17 12 -4 -4 9.7
17 -12 4 3.8 8.8
-5 17 4 26.9 8.4
-12 -5 4 -4.3 6
-12 -5 4 0.5 9.2
13 4 -4 39.6 12.6
-17 13 -4 15.9 11.6
-13 -4 4 19.3 11.8
-13 -4 4 2.8 10.1
-4 17 4 8.2 8
-13 -4 4 11.4 8
17 -13 4 18.2 11.1
-17 14 -4 8.9 11.2
-14 -3 4 22.3 9.4
-14 -3 4 15.5 11.2
-14 -3 4 19.1 8.9
-3 17 4 5.6 8
17 -14 4 24.4 21.6
-17 15 -4 12.5 10.6
15 2 -4 3.1 8.2
17 -15 4 16.7 14.1
-2 17 4 4.2 7.9
-15 -2 4 16.4 11.3
-15 -2 4 -0.2 7.2
-15 -2 4 17.9 9.2
16 1 -4 4.4 8.3
-16 -1 4 13.7 8.6
-16 -1 4 -6.2 6.1
17 -16 4 4.7 9.8
17 0 -4 6.2 8
-17 0 4 9.8 8.8
-17 0 4 0.8 7.7
17 -17 4 8 10.1
18 -1 -4 2.3 8.4
17 -18 4 21.9 12.3
-18 1 4 3.8 7.9
-18 1 4 14.5 9.4
19 -2 -4 2 8.5
-19 2 4 -7 8.1
17 -19 4 -3.7 9.7
-19 2 4 7.3 10
20 -3 -4 4 8.9
-20 3 4 16.6 11.1
17 -20 4 17.4 11.9
-20 3 4 15.6 10.7
-17 21 -4 -3.1 10.7
21 -4 -4 3.5 7.8
17 -21 4 10.4 11.7
-21 4 4 13.9 9.5
-21 4 4 -1.9 8.8
22 -5 -4 17.3 11.6
-17 22 -4 8.4 13.5
5 17 4 10.3 5
-22 5 4 1.5 7.9
17 -22 4 13.3 13.8
-6 -17 -4 -3.3 5.9
23 -6 -4 2.4 7.9
-23 6 4 -3.5 8.9
-23 6 4 -14.1 5.7
17 -23 4 13.2 13.8
6 17 4 -1.4 4.4
-7 -17 -4 3.7 7.3
24 -7 -4 29 11
-24 7 4 4.1 14.1
7 17 4 9.8 5.9
17 -24 4 34.7 15.2
-24 7 4 6.1 12.4
25 -8 -4 2.2 7.5
-8 -17 -4 4.3 8.4
-8 -17 -4 7.4 8.7
8 17 4 -7.8 4.9
-25 8 4 -2.3 9.3
17 -25 4 -1.5 12.6
-9 -17 -4 40.5 13.7
-9 -17 -4 25.6 10.8
26 -9 -4 18 9.1
9 17 4 1 5.9
17 -26 4 22.6 17.2
-10 -17 -4 -4 10.1
27 -10 -4 6.5 9.5
-10 -17 -4 -1.7 11.4
10 17 4 -1.4 5.8
17 -27 4 -4.8 13.1
-18 -9 -4 32 14.8
27 -18 -4 -8 5.8
-18 -9 -4 5.5 15.4
9 -27 4 12.2 18.8
18 9 4 13.2 8.1
18 9 4 -11.5 11.1
-27 18 4 4.1 12.2
-18 -8 -4 29.2 17.2
26 -18 -4 34.1 10.7
-18 -8 -4 21 15.7
18 8 4 55.49 13.4
8 -26 4 31.3 18.5
8 -26 4 40.5 22.7
25 -18 -4 -2.2 6.6
-18 -7 -4 -1.1 11.5
-18 -7 -4 23.8 15.3
7 -25 4 5.2 9
7 -25 4 13.9 16.3
-25 18 4 -2.2 8.6
18 7 4 -5.3 6.3
18 7 4 4 9.6
-18 -6 -4 25.9 24.7
-18 -6 -4 22.1 14.8
24 -18 -4 19.7 8
-24 18 4 27.7 12.2
6 -24 4 10.5 15.4
6 -24 4 0.4 8.6
18 6 4 17.2 8.8
18 6 4 22.4 11.5
23 -18 -4 4.9 5.9
5 -23 4 7.9 15.5
5 -23 4 14.3 9.7
-23 18 4 11.3 9.7
18 5 4 10.4 9.7
18 5 4 13.9 8.9
22 -18 -4 51.09 10.7
4 -22 4 36.6 11.5
-22 18 4 56.39 15
18 4 4 48.8 12.9
18 4 4 61.49 14.6
4 -22 4 17.7 16
21 -18 -4 15.1 6.6
-3 21 -4 4.9 13.3
-21 18 4 2 8.6
3 -21 4 4.2 14.2
18 3 4 15.7 8.8
3 -21 4 11.5 12.1
18 3 4 10.6 11.7
20 -18 -4 77.29 12
-18 -2 -4 48.7 16.2
-2 20 -4 69.59 19
18 2 4 65.49 15.3
-20 18 4 98.39 16.2
2 -20 4 54.19 20.7
18 2 4 76.29 16.3
-1 19 -4 17.3 12.2
19 -18 -4 4.3 5.1
-18 -1 -4 29.2 11.3
18 1 4 10.2 7.1
-19 18 4 12.8 8.6
1 -19 4 18.2 15.3
18 1 4 8.6 9.7
18 -18 -4 44.1 8.9
-18 0 -4 48 13.4
0 18 -4 33 18.6
-18 18 4 97.39 13.9
0 -18 4 43.9 16.6
18 0 4 40.3 11.6
18 0 4 48 14.7
-18 1 -4 3.3 11
17 -18 -4 12.1 5.4
-17 18 4 14.1 8
18 -1 4 17.2 9.5
18 -1 4 25.2 11.1
-1 -17 4 10.4 9.7
-1 -17 4 22.6 14.3
-18 2 -4 73.69 17.2
16 -18 -4 83.49 10.9
-16 18 4 96.19 14.4
-2 -16 4 83.69 16.1
-2 -16 4 61.89 17.9
18 -2 4 75.39 15.7
18 -2 4 83.99 16.6
-18 3 -4 19.4 10.9
18 -3 4 10.1 9.6
-3 -15 4 16 12.6
-3 -15 4 14.7 8.9
18 -3 4 2.1 6.7
-15 18 4 6.7 7.4
-18 4 -4 63.09 16.5
18 -4 4 56.19 16.1
-4 -14 4 94.99 19
-14 18 4 102.39 14.2
18 -4 4 78.39 16.6
-4 -14 4 74.89 14.1
-18 5 -4 16.3 11.3
18 -5 4 -0.4 8.4
-5 -13 4 18.1 12.1
-13 18 4 -2.9 6.4
-5 -13 4 18.6 8.7
18 -5 4 22.2 10.7
-18 6 -4 133.69 22.5
-12 18 4 121.59 16.3
-6 -12 4 106.49 17.7
-6 -12 4 114.69 23.5
18 -6 4 154.38 21.3
-18 7 -4 46.4 14.5
-7 -11 4 32 11.4
18 -7 4 35.4 15.1
-11 18 4 57.69 10.3
-18 8 -4 104.19 20.2
-8 -10 4 135.79 21.6
18 -8 4 132.69 27
-10 18 4 161.18 17.5
-18 9 -4 19.5 11.4
-9 18 4 41.5 9.7
18 -9 4 41.2 16.9
-9 -9 4 28.7 10.8
-9 -9 4 22.1 15.7
-18 10 -4 141.49 23.7
-8 18 4 148.19 19
-10 -8 4 204.18 29.8
-18 11 -4 57.09 15.9
-7 18 4 47.8 11.1
18 -11 4 48.2 16.2
-11 -7 4 68.19 18.3
12 6 -4 149.59 22.2
-18 12 -4 107.09 21
18 -12 4 126.99 24.2
-12 -6 4 185.88 32
-12 -6 4 116.59 19.7
18 -12 4 92.69 19.4
-6 18 4 110.29 16.8
-18 13 -4 11.2 11.3
13 5 -4 9.4 8.8
-13 -5 4 5.5 16.2
-5 18 4 19.2 9.3
-13 -5 4 16.5 9.8
18 -13 4 0.4 7
18 -13 4 -1.1 8.9
14 4 -4 77.79 16.2
-18 14 -4 99.09 19
18 -14 4 70.69 17.5
-14 -4 4 83.59 16.5
-4 18 4 100.39 16
15 3 -4 20.7 8.9
-15 -3 4 12.2 14.6
-3 18 4 33.2 10.9
18 -15 4 -0.5 9.3
-15 -3 4 7.1 9
16 2 -4 103.09 17.5
18 -16 4 109.59 20
-16 -2 4 82.99 15.7
-16 -2 4 70.49 16.3
-16 -2 4 77.39 18.9
17 1 -4 16.3 10.4
-17 -1 4 19.3 9.8
18 -17 4 -1 9.7
-17 -1 4 18.6 9.8
18 0 -4 42.7 13.3
18 -18 4 41.9 14.7
-18 0 4 65.49 15.5
-18 0 4 87.99 21.5
19 -1 -4 6.5 8.8
-19 1 4 -5 7.8
-19 1 4 -5 8.3
18 -19 4 0 10.7
-18 20 -4 31.9 18.8
20 -2 -4 77.39 17.7
18 -20 4 79.09 18
-20 2 4 88.89 18.2
-20 2 4 58.99 14.8
-18 21 -4 8.6 11.9
21 -3 -4 1 9
18 -21 4 14 12.7
-21 3 4 0.3 8.7
22 -4 -4 48.7 14.9
-22 4 4 52.29 15.1
18 -22 4 84.19 21.3
-22 4 4 53.49 15.4
23 -5 -4 7.6 9.6
-23 5 4 13.9 10.8
-23 5 4 28.4 12.4
18 -23 4 -5.2 11.4
24 -6 -4 39.7 12.5
6 18 4 18.5 6.4
18 -24 4 28.4 15.1
-24 6 4 50.59 15.6
25 -7 -4 0 9.6
-7 -18 -4 9.9 7.2
7 18 4 8.3 5.2
18 -25 4 3.8 11.5
-8 -18 -4 47.3 10.9
26 -8 -4 17.6 11.2
-8 -18 -4 41.6 12.3
8 18 4 47.8 9
18 -26 4 22.6 14.6
27 -9 -4 8.2 11
-9 -18 -4 20.6 13.2
-9 -18 -4 10.2 10.4
18 -27 4 -7 10.8
9 18 4 -4.5 4.9
27 -19 -4 0.9 7.7
-19 -8 -4 0.5 14.3
-19 -8 -4 4.4 17.2
19 8 4 20.6 12.4
-27 19 4 7.1 11.1
19 8 4 2.7 8.2
-19 -7 -4 25.7 17.8
-19 -7 -4 31.7 16.1
26 -19 -4 20.2 8.9
19 7 4 0.9 7.9
19 7 4 13.1 10.8
-19 -6 -4 -17.9 11.3
-19 -6 -4 13.4 14.7
25 -19 -4 -0.5 7.9
19 6 4 0 9.9
6 -25 4 -8.1 7.4
19 6 4 11 8
-25 19 4 13.7 12
24 -19 -4 1 6.2
-19 -5 -4 7.4 11.9
-19 -5 -4 -3.7 11.5
19 5 4 5.7 10.4
19 5 4 -0.2 6.5
5 -24 4 7.4 16.4
-24 19 4 -14.2 9.2
5 -24 4 -2.5 6.9
-19 -4 -4 1.9 11.8
23 -19 -4 -5.2 5.6
19 4 4 3.4 6.5
-23 19 4 12.2 8.8
4 -23 4 9.4 8.7
19 4 4 8.1 10.5
4 -23 4 13.4 16.1
22 -19 -4 8 6.4
3 -22 4 21.6 9.2
-22 19 4 10.7 9.2
19 3 4 12.2 9.1
19 3 4 -1.6 8.2
3 -22 4 -8.2 12.9
21 -19 -4 -5.7 4.6
-2 21 -4 -0.8 11.3
-19 -2 -4 10.4 13
2 -21 4 9.6 13.5
19 2 4 -4.7 5.3
-21 19 4 8.1 9
2 -21 4 -5.9 7.4
19 2 4 2.5 9.4
-1 20 -4 -0.6 12
20 -19 -4 30.2 7.8
19 1 4 39.7 13.3
-20 19 4 24.2 10.3
1 -20 4 6.7 13.2
19 1 4 30.3 9.9
19 -19 -4 1.8 4.6
0 19 -4 8.9 11
19 0 4 -6.9 8
-19 19 4 -5.1 8.2
0 -19 4 -4.6 12.5
19 0 4 0.3 6
1 18 -4 29.1 13.7
18 -19 -4 8.9 4.9
-1 -18 4 -10.8 11.3
19 -1 4 13.8 10.1
-18 19 4 10.2 8.4
19 -1 4 -1.4 7.9
17 -19 -4 4.8 4.3
-19 2 -4 6.5 11.1
2 17 -4 13.4 16.8
-2 -17 4 20.9 13.8
-17 19 4 -0.3 7.1
19 -2 4 -2.7 6.2
19 -2 4 -3.6 8.2
-19 3 -4 13.1 9.9
-3 -16 4 3 13.3
19 -3 4 9.7 9.7
19 -3 4 38.9 12.2
-16 19 4 32.1 9.7
-19 4 -4 22.2 11
-4 -15 4 25.8 14.8
-15 19 4 21.7 8.4
19 -4 4 4.6 8.7
-19 5 -4 25.7 12.4
-5 -14 4 -2.5 5.6
-5 -14 4 -9.6 11.1
19 -5 4 2.6 9.1
19 -5 4 -3.1 6.6
-14 19 4 5.5 7.4
-19 6 -4 14.9 10.5
19 -6 4 3.1 9.1
19 -6 4 21.6 9.9
-6 -13 4 16.7 8.6
-13 19 4 8.3 7.4
-6 -13 4 11.2 11.6
-19 7 -4 10 10.4
-12 19 4 3.7 7.2
19 -7 4 20.1 10.2
-7 -12 4 2.7 6.3
19 -7 4 0.9 6.7
-7 -12 4 -2.5 10.8
-19 8 -4 4.8 9.3
-11 19 4 24.8 8.5
19 -8 4 -0.1 7.6
19 -8 4 3.5 6.6
-8 -11 4 -2 11.3
-8 -11 4 1.3 6.1
-19 9 -4 -6.1 7.2
19 -9 4 -2.4 6.7
-10 19 4 -8.9 6.7
-9 -10 4 14.5 8.9
19 -9 4 27.5 10.6
-9 -10 4 6.8 13.4
-19 10 -4 12.1 9.4
-10 -9 4 9.6 12.7
-10 -9 4 10.8 8.1
-9 19 4 -1.1 7.9
19 -10 4 10.3 8.2
19 -10 4 7.5 9.4
-19 11 -4 7.6 9.9
-8 19 4 -1.7 7
19 -11 4 -3.8 8.3
-11 -8 4 -3.8 10.9
19 -11 4 -0.4 7.1
-19 12 -4 9.7 11.5
12 7 -4 20.1 9.3
-12 -7 4 -3.6 11.3
-12 -7 4 5.6 7.8
19 -12 4 6.7 10.1
19 -12 4 15.2 9
-7 19 4 7.6 8.3
13 6 -4 6.9 9.2
-13 -6 4 31.9 14
19 -13 4 6.8 7.8
-13 -6 4 1.4 8.5
19 -13 4 8.6 9.9
-6 19 4 25.8 9.4
14 5 -4 -1.8 8
-14 -5 4 11.6 10.3
19 -14 4 9.8 10.6
-14 -5 4 16 10.3
-5 19 4 4.6 8.6
19 -14 4 14.1 9.6
15 4 -4 -8.7 6.2
-4 19 4 5.5 8.6
19 -15 4 0.5 7
19 -15 4 12 11.2
-15 -4 4 4.4 8.5
-15 -4 4 4.4 11.5
16 3 -4 13.3 10.8
-16 -3 4 15.2 9.4
-16 -3 4 34.5 14.4
19 -16 4 2.1 10.3
17 2 -4 9.7 9.3
-17 -2 4 -4.5 7.6
19 -17 4 2.6 9
-17 -2 4 -0.6 8.8
-17 -2 4 -4.5 10.6
18 1 -4 17.3 11
-18 -1 4 3.5 7.6
-18 -1 4 13.4 10.3
19 -18 4 10 10.3
19 0 -4 -12.5 6.9
-19 0 4 0.1 8.9
19 -19 4 11 10.9
20 -1 -4 15.5 10.7
-19 20 -4 17.9 13.7
-20 1 4 20.6 10.4
-20 1 4 12.3 12.1
19 -20 4 23.3 13
21 -2 -4 -7 8.2
-19 21 -4 -1 12.4
-21 2 4 -2.3 7.3
-21 2 4 11.8 10.6
19 -21 4 -2.4 9.3
22 -3 -4 11.3 10.2
-22 3 4 -4.1 8.9
19 -22 4 35.7 15.7
-22 3 4 9.1 11.9
23 -4 -4 -3.1 9.1
19 -23 4 16.7 12.6
-23 4 4 5.5 10.2
24 -5 -4 6.7 9.1
19 -24 4 -2.8 12.3
25 -6 -4 -5.2 7.9
19 -25 4 1.1 12
26 -7 -4 19.1 11.1
19 -26 4 10.1 14.2
27 -8 -4 -2.7 9.6
-8 -19 -4 6.9 8.9
19 -27 4 -0.3 15.1
26 -20 -4 14.2 8.7
-20 -6 -4 70.89 21.6
6 -26 4 39.8 21.5
20 6 4 26.4 11.2
20 6 4 18.1 11.9
25 -20 -4 -7 5.5
-20 -5 -4 7.2 13.8
-20 -5 -4 -4.8 12.8
-25 20 4 7 10.6
20 5 4 -4.3 6.1
5 -25 4 36.1 21.1
-20 -4 -4 35.6 15.4
24 -20 -4 26.6 9
4 -24 4 23.7 19.1
-24 20 4 21.6 11.8
4 -24 4 16.4 10.4
20 4 4 19.3 12.4
20 4 4 31.6 9.9
-20 -3 -4 4.6 12.5
23 -20 -4 9.8 6.6
3 -23 4 11.1 9.3
-23 20 4 -5.4 9.7
3 -23 4 -7.4 14.8
20 3 4 23.8 10.4
20 3 4 15.7 7.3
-20 -2 -4 51.49 16.2
22 -20 -4 34.5 8.6
2 -22 4 61.39 21.6
-22 20 4 44.9 14
20 2 4 29.4 13.4
2 -22 4 27.1 11.5
20 2 4 47.6 12.7
21 -20 -4 6.2 5.3
-20 -1 -4 9.7 11.8
-21 20 4 22.6 10.7
1 -21 4 1.7 13.6
20 1 4 2.7 6.6
1 -21 4 2.3 8.7
20 1 4 0.8 8.5
20 -20 -4 52.49 8.8
0 20 -4 28 14.5
-20 0 -4 13.9 16.3
0 -20 4 39.8 10.9
0 -20 4 37 17.7
-20 20 4 36.9 12.1
20 0 4 44.3 13.4
20 0 4 59.59 14.1
-20 1 -4 22.8 15.2
19 -20 -4 15.8 5.9
1 19 -4 14.6 14
-1 -19 4 3 10.5
-1 -19 4 9.6 14.4
20 -1 4 19.7 9.5
20 -1 4 15.3 12.2
-20 2 -4 42.3 23.6
-2 -18 4 93.19 23.3
-18 20 4 79.69 15.3
-2 -18 4 67.59 21.6
20 -2 4 80.89 16.4
20 -2 4 65.09 16
20 -3 4 23.3 8.6
20 -3 4 19.3 10.8
-3 -17 4 24.9 14.9
-17 20 4 10.9 9.3
-3 -17 4 -1.9 9.3
-4 -16 4 67.99 20.1
-16 20 4 123.09 17.5
20 -4 4 104.59 18.9
20 -4 4 125.39 21.2
-5 -15 4 35.2 15.6
20 -5 4 24.3 11.6
-15 20 4 29.1 9.9
20 -5 4 25 10
-14 20 4 129.79 18.5
20 -6 4 156.78 20.8
-6 -14 4 88.89 21.9
20 -6 4 133.99 22.9
20 -7 4 58.29 16.1
20 -7 4 69.09 14.4
-13 20 4 32.6 10.7
-7 -13 4 67.19 18.1
-12 20 4 184.48 21.8
20 -8 4 171.78 24.1
20 -8 4 167.88 24.8
-8 -12 4 179.58 28.4
20 -9 4 57.49 14.5
-9 -11 4 80.39 18.8
20 -9 4 59.39 14.4
20 -10 4 154.58 24.5
-10 -10 4 157.28 26.8
20 -10 4 139.89 23.2
-10 20 4 183.28 21.2
-9 20 4 85.19 14.8
-11 -9 4 87.89 16.1
-11 -9 4 95.19 20.4
20 -11 4 49.8 13.9
20 -11 4 60.49 15.4
-8 20 4 162.68 20.7
20 -12 4 129.29 23
-12 -8 4 156.78 22.5
20 -12 4 134.29 21.9
-12 -8 4 154.58 26.6
13 7 -4 25.3 10.4
20 -13 4 70.39 15.1
-13 -7 4 20.1 13.4
-13 -7 4 20.2 10.7
20 -13 4 17.9 12.6
-7 20 4 41.2 11.7
14 6 -4 92.79 18.9
-20 14 -4 122.79 29.5
20 -14 4 110.79 19.9
-14 -6 4 153.18 26
-6 20 4 124.69 18.8
-14 -6 4 117.59 20.4
20 -14 4 137.49 22.5
15 5 -4 13.7 9.9
-15 -5 4 52.19 13.7
-5 20 4 22.9 14.4
20 -15 4 28.5 12.1
20 -15 4 41.6 13.4
-15 -5 4 22.5 12.8
-20 16 -4 106.39 28.7
16 4 -4 105.69 18.5
20 -16 4 53.99 15.7
-4 20 4 76.89 16.2
-16 -4 4 86.99 19.3
20 -16 4 103.49 20.1
-16 -4 4 139.19 28
17 3 -4 8.2 8.6
-17 -3 4 10.9 8.4
20 -17 4 0.3 8.1
20 -17 4 31.3 14.3
-3 20 4 14.2 9.4
-17 -3 4 14 13.2
18 2 -4 68.69 17.5
-20 18 -4 99.49 21.5
-18 -2 4 73.39 19
-18 -2 4 84.59 19.2
20 -18 4 77.69 18.4
-18 -2 4 112.59 19.4
-20 19 -4 8.4 11.6
19 1 -4 13 9.6
-19 -1 4 18 10.1
20 -19 4 24.3 12.2
-19 -1 4 14.2 10.7
20 0 -4 32.9 12.4
-20 20 -4 17.6 13.4
-20 0 4 37.5 12.7
-20 0 4 61.19 15.9
20 -20 4 45 14.2
21 -1 -4 -8.1 7.1
20 -21 4 1.6 11.1
-21 1 4 5.6 14.2
-21 1 4 -0.6 11.4
22 -2 -4 25.6 12.9
20 -22 4 30.1 14.9
-22 2 4 44.7 14.7
23 -3 -4 2.7 10.1
20 -23 4 14.6 12.3
24 -4 -4 29 12.1
20 -24 4 46.4 17.5
25 -5 -4 -4 9.1
20 -25 4 -10.6 14.4
26 -6 -4 37.5 18.2
20 -26 4 42.6 18.4
26 -21 -4 3.4 6.8
-21 -5 -4 17.3 16.3
21 5 4 -2.4 8.4
21 5 4 5.7 11.5
-26 21 4 -3.4 13.2
25 -21 -4 -6.3 5.3
-25 21 4 1.5 10.1
21 4 4 9.5 8.6
21 4 4 -13.3 8.2
24 -21 -4 -2.7 6.3
-21 -3 -4 -1 15.1
3 -24 4 15.2 14.4
-24 21 4 0.7 9
21 3 4 20.5 18.3
21 3 4 -6.3 5.9
3 -24 4 11.6 18.4
-21 -2 -4 -0.4 12.8
23 -21 -4 -13.5 4.7
21 2 4 19.3 8.6
-23 21 4 -17.8 8
2 -23 4 8.9 10.3
2 -23 4 -12.6 12.9
21 2 4 -2.3 8.5
22 -21 -4 -4.6 5.1
-21 -1 -4 8.9 12.5
1 -22 4 -1.6 13.5
21 1 4 16.4 11.2
1 -22 4 7 8.7
21 1 4 -0.3 6.9
-22 21 4 24.9 10.8
-21 0 -4 -2.8 11.7
21 -21 -4 -8.5 3.8
21 0 4 -6.1 8.4
-21 21 4 13.3 10.8
0 -21 4 4.1 14.5
0 -21 4 -6.9 6.9
20 -21 -4 6.1 4.8
-21 1 -4 0.3 11.9
21 -1 4 23.2 12.3
-1 -20 4 22 9.5
-20 21 4 1.7 9.4
21 -1 4 2.5 7.1
-1 -20 4 18.6 15.8
-21 2 -4 2.1 10.4
19 -21 -4 -3.1 4
21 -2 4 6.7 8.5
-2 -19 4 -9.5 11.8
-19 21 4 1.7 9.1
21 -2 4 -5.3 8
-2 -19 4 3.9 8.6
-21 3 -4 -9.5 9.9
-3 -18 4 5.9 7.9
21 -3 4 5.3 9.5
-3 -18 4 20.5 15.3
21 -3 4 -6.4 6.1
-21 4 -4 -8.3 10.7
-4 -17 4 -9.4 7.1
21 -4 4 -8.4 7.3
-17 21 4 13.7 9.2
-4 -17 4 -13.8 11.9
21 -4 4 23.5 8.5
21 -5 4 4.7 7.1
-16 21 4 13.1 9.7
-5 -16 4 -8.5 12.3
21 -5 4 19.8 10.7
-5 -16 4 14.1 9.8
-15 21 4 -9.2 7.5
21 -6 4 -7.6 7.4
21 -6 4 19.7 10
-6 -15 4 -15.7 10.7
-6 -15 4 5.6 17
21 -7 4 -1.5 6.2
-7 -14 4 -13.3 10.3
-14 21 4 -1.6 8.2
21 -7 4 3.4 9.6
-21 8 -4 14.1 18.2
21 -8 4 4.6 7
-13 21 4 4.3 8.4
-8 -13 4 7.6 12.2
21 -8 4 2.2 8.7
-21 9 -4 5.8 19.8
-9 -12 4 7.1 12.5
21 -9 4 7.2 10.1
21 -9 4 9.5 8.6
-12 21 4 10 8.6
21 -10 4 -13.2 5
21 -10 4 -2.9 9
-10 -11 4 0.5 11
-10 -11 4 13 12.3
-11 21 4 13.6 8.6
-11 -10 4 -15.7 10.1
-11 -10 4 -0.3 7.8
-10 21 4 -4.6 7.3
21 -11 4 -7.5 8
21 -11 4 0.6 8.6
-11 -10 4 2.9 8.9
-21 12 -4 15.6 19.9
21 -12 4 5 8.1
-12 -9 4 11.2 11.3
-12 -9 4 18 14.8
-9 21 4 13.2 8.8
21 -12 4 -2.4 9.1
-12 -9 4 5.6 7.9
-21 13 -4 -5.2 11.4
-8 21 4 13.2 9.5
-13 -8 4 15.2 9
21 -13 4 17.8 11.3
-13 -8 4 -2.1 10
-13 -8 4 4.6 13
21 -13 4 -8.3 6
-21 14 -4 5.5 12.2
14 7 -4 -7 8.4
-7 21 4 -8.2 8.5
21 -14 4 4.8 8.4
-14 -7 4 -2.8 8.1
-14 -7 4 5.4 12.2
21 -14 4 -0.9 9.7
-21 15 -4 10.1 11.3
15 6 -4 5 8.5
-15 -6 4 0.5 11.3
21 -15 4 -10.3 7.6
-6 21 4 5.8 10.7
21 -15 4 23.5 10.1
-15 -6 4 17 9.9
16 5 -4 5.4 8.6
-21 16 -4 5.9 12.2
-16 -5 4 15.4 10.7
-16 -5 4 4.7 11.8
-16 -5 4 0.8 8.1
21 -16 4 8.5 10.3
-5 21 4 6 9.1
21 -16 4 3.7 8.2
-21 17 -4 13.3 13.4
17 4 -4 8.9 9
-17 -4 4 36 14.7
21 -17 4 0.9 10.9
-17 -4 4 9.7 8.2
21 -17 4 -1.4 6.6
-17 -4 4 4.8 8.5
-4 21 4 3.1 8.7
-21 18 -4 -4.8 10.4
18 3 -4 19.6 10.6
-18 -3 4 17.6 13
-18 -3 4 10.9 8.4
-3 21 4 -1.1 9.2
21 -18 4 -6 9.1
21 -18 4 7.9 9.3
-18 -3 4 16.9 11.3
19 2 -4 -7.4 6.7
-21 19 -4 3.7 14.7
-19 -2 4 -7.3 9.9
21 -19 4 -18.2 6.4
-19 -2 4 -19.1 8
21 -19 4 -1.1 9.8
20 1 -4 7.9 10.8
21 -20 4 4.5 8.5
21 -20 4 -8.1 9
-20 -1 4 -16.3 8.4
21 0 -4 6.9 10.4
21 -21 4 6.2 10.4
-21 0 4 -11.6 10.3
22 -1 -4 4.9 8.4
21 -22 4 7.4 12.7
23 -2 -4 -18.5 6.4
21 -23 4 -18 10
24 -3 -4 0 9.1
21 -24 4 -7.4 12.3
21 -25 4 -1.7 13
26 -5 -4 13 11.1
21 -26 4 12.4 15
25 -22 -4 4.3 6.6
22 3 4 23.8 10.5
-25 22 4 13.9 11.1
3 -25 4 21.6 19.6
22 3 4 1.2 10.6
24 -22 -4 17.4 7.8
22 2 4 36.7 15.9
2 -24 4 21 18.1
-24 22 4 42.1 15.8
22 2 4 38.8 11.1
23 -22 -4 16.1 6.9
-23 22 4 32.1 12.2
22 1 4 18.6 13.7
1 -23 4 13.2 17.7
22 1 4 15.6 9.1
22 -22 -4 28.4 7.8
-22 0 -4 15.5 18
22 0 4 36.1 11.6
22 0 4 34.3 11.9
0 -22 4 16.9 17.3
0 -22 4 46.1 12
-22 22 4 46.7 13.2
21 -22 -4 16.8 5.6
-22 1 -4 16.4 14.4
-1 -21 4 2.1 8.1
-1 -21 4 11.9 18
22 -1 4 0.1 8.2
22 -1 4 1.1 9.8
-21 22 4 -1.8 10.2
-22 2 -4 59.39 18
20 -22 -4 44.3 7.8
-20 22 4 37.3 13.3
22 -2 4 49 16
-2 -20 4 48.5 13.6
-2 -20 4 31.7 18
22 -2 4 31.6 12.3
-22 3 -4 25.7 14.5
22 -3 4 -1 6.2
-3 -19 4 4.7 8.7
-3 -19 4 6.8 13.9
-19 22 4 34.6 11.2
22 -3 4 13.8 9.9
-22 4 -4 29.9 14.7
-4 -18 4 19.6 15.9
22 -4 4 53.39 14.6
-4 -18 4 49.5 14.1
22 -4 4 24.1 9.8
-18 22 4 48.1 13.1
-22 5 -4 18.5 13.2
22 -5 4 6.7 10.5
-5 -17 4 7.3 8.5
22 -5 4 11.5 8.6
-5 -17 4 14.7 15.2
-22 6 -4 49.6 16.6
22 -6 4 58.19 15.1
-6 -16 4 89.69 17.5
-16 22 4 83.39 15.6
22 -6 4 80.79 17
-6 -16 4 44.2 17.4
-22 7 -4 44.4 14.8
22 -7 4 11.7 8.6
22 -7 4 0.9 8.3
-7 -15 4 22.6 10.5
-7 -15 4 13.5 13.7
-15 22 4 19 10.2
-22 8 -4 71.69 19.9
-14 22 4 68.19 14.8
-8 -14 4 52.19 13.6
-8 -14 4 90.89 20.9
22 -8 4 104.49 19.3
22 -8 4 98.79 17.8
-22 9 -4 33.4 13.9
22 -9 4 25.2 11.6
-13 22 4 25.7 9.5
-9 -13 4 20.5 14.1
-9 -13 4 12.2 8.7
22 -9 4 17.3 11.1
-22 10 -4 115.09 21.6
-10 -12 4 100.69 22.3
-10 -12 4 98.19 19.8
-10 -12 4 82.89 17.7
-12 22 4 91.69 16.4
22 -10 4 83.99 18.8
22 -10 4 86.09 17.3
-22 11 -4 42.6 14
22 -11 4 59.19 15
22 -11 4 27.6 10.8
-11 -11 4 27.7 12.5
-11 22 4 43.1 11.9
-11 -11 4 52.99 14.2
-11 -11 4 54.19 17
-22 12 -4 96.59 19.9
22 -12 4 74.79 17.1
-12 -10 4 94.39 21.2
-12 -10 4 76.49 16.7
22 -12 4 131.69 21.8
-10 22 4 59.99 14.6
-12 -10 4 67.39 16.2
-22 13 -4 0.8 11.8
-13 -9 4 16.1 14
22 -13 4 2.5 8
-13 -9 4 1.2 9
22 -13 4 17.7 10.9
-13 -9 4 24.5 11
14 8 -4 72.99 16.6
-22 14 -4 85.09 19.1
-14 -8 4 46.7 18.8
-8 22 4 87.59 16.8
22 -14 4 73.09 16.7
-14 -8 4 64.09 16.2
22 -14 4 64.49 15.8
-14 -8 4 98.89 19.3
15 7 -4 25.4 11.8
-22 15 -4 17.2 13.8
-15 -7 4 39.4 12.9
22 -15 4 26.9 11.2
-7 22 4 12.8 9.6
22 -15 4 16.6 11.3
-15 -7 4 24.7 11.5
-15 -7 4 22.3 15.2
-22 16 -4 46.9 16.9
16 6 -4 68.49 16.6
22 -16 4 63.39 17.7
-6 22 4 74.19 15.2
-16 -6 4 61.59 15.4
-16 -6 4 98.19 19.2
-16 -6 4 41.2 16
22 -16 4 82.59 16.6
17 5 -4 -7.3 6.9
-22 17 -4 -17.6 9.8
-17 -5 4 -3.8 8.7
-5 22 4 16.8 11.2
-17 -5 4 10.2 9.5
-17 -5 4 18.9 14.4
22 -17 4 5.5 10.4
22 -17 4 6 9.2
18 4 -4 45.5 14.7
-18 -4 4 35.3 14.5
22 -18 4 46.7 13.6
-4 22 4 35.8 12.8
22 -18 4 35 13.5
-18 -4 4 19.5 14
19 3 -4 14.2 10.6
-19 -3 4 32.9 15
22 -19 4 2.6 9.9
22 -19 4 20.7 11.5
-19 -3 4 17.2 13.9
20 2 -4 78.69 18
22 -20 4 56.09 16.6
-20 -2 4 46.1 16.8
22 -20 4 43.3 14.1
21 1 -4 3.1 8.1
22 -21 4 -1.7 9.5
22 -21 4 -15.1 9.6
-21 -1 4 8.2 12.9
22 0 -4 31.9 14.1
22 -22 4 23.9 14
22 -22 4 35.9 13
23 -1 -4 37.1 12.5
22 -23 4 20.1 13.5
22 -23 4 15.4 11.9
22 -24 4 14.1 13.2
22 -24 4 21.8 11.5
25 -3 -4 19.5 14
22 -25 4 8.7 13.7
22 -25 4 -9.2 8.7
25 -23 -4 -4 5.9
23 2 4 5.6 12
24 -23 -4 4.5 6.5
23 1 4 5.9 8.9
-24 23 4 15.4 12.4
23 1 4 28.2 12.5
23 -23 -4 8 5.8
-23 23 4 31.4 14.3
23 0 4 -12.4 9
0 -23 4 13.1 16
23 0 4 -10.2 6.7
22 -23 -4 19.1 6.1
23 -1 4 6.5 13.3
23 -1 4 8.7 7.8
-22 23 4 22.4 11.6
-1 -22 4 -2.7 15.7
21 -23 -4 3.9 4.4
-21 23 4 13.8 11.3
23 -2 4 2 9.5
23 -2 4 5.4 7.8
-2 -21 4 7.9 15.6
-3 -20 4 3.2 15.1
-3 -20 4 5.8 8.6
-20 23 4 29.3 11.6
23 -3 4 22.5 10.2
23 -3 4 22.1 13.2
-23 4 -4 -2.6 13.8
-4 -19 4 35.4 17.9
-19 23 4 4.5 10
23 -4 4 9 8.3
23 -4 4 -5.2 8.3
-4 -19 4 -1 6.9
-23 5 -4 0.1 12
23 -5 4 18.5 8.8
23 -5 4 14.7 11.9
-18 23 4 -7 9.2
-5 -18 4 3.1 15.6
-5 -18 4 9 10.3
-23 6 -4 -9 10.7
-17 23 4 1.5 9
-6 -17 4 19.9 15.7
23 -6 4 -11.4 7.3
23 -6 4 2.6 5.7
-6 -17 4 4.3 9
-23 7 -4 10.9 13.1
-16 23 4 23.4 11.1
23 -7 4 8.7 7.6
23 -7 4 -9.6 7.7
-7 -16 4 1.8 13.1
-7 -16 4 -3.7 7.8
-23 8 -4 -1 12.1
-8 -15 4 -8.5 6.7
-8 -15 4 -21.8 11.5
23 -8 4 11.1 8.2
23 -8 4 11.7 9.2
-23 9 -4 -1.2 11.8
23 -9 4 2 7.6
-9 -14 4 -4.5 7
-9 -14 4 8.2 10.3
-9 -14 4 -1.6 12
23 -9 4 -7.8 8.2
-23 10 -4 -6.4 10.7
-10 -13 4 -7.9 11.3
23 -10 4 -4.1 7
-10 -13 4 1.3 8.6
23 -10 4 -3.9 8.8
-10 -13 4 13.2 10.1
-23 11 -4 -0.4 10.8
-11 -12 4 -5.5 8.6
23 -11 4 8.3 11.1
-11 -12 4 5.1 14.1
-11 -12 4 15 9.6
23 -11 4 5.5 8.2
-23 12 -4 -0.6 10.5
-12 -11 4 -5.8 13.5
23 -12 4 -2.6 6.6
-12 -11 4 4.1 9.6
-11 23 4 2 9.6
-12 -11 4 8.5 8.4
23 -12 4 -14.1 6.9
-23 13 -4 -9.3 10.6
-13 -10 4 0.4 13.1
23 -13 4 18.6 10.9
23 -13 4 -0.5 7.5
-13 -10 4 4.3 9.2
-10 23 4 8.2 9.3
-13 -10 4 -11.9 9
-23 14 -4 18.9 13
-9 23 4 9.8 8.8
-14 -9 4 -17.1 12.7
23 -14 4 18.4 10.4
-14 -9 4 21.3 10.2
-14 -9 4 -2.1 8.1
-23 15 -4 11.8 14.2
15 8 -4 -12 6.2
23 -15 4 12.1 9.6
23 -15 4 2.4 9.3
-15 -8 4 -25.9 11
-8 23 4 8.1 9.6
-15 -8 4 -2 8.7
-15 -8 4 -3.6 10.5
16 7 -4 20.1 11.3
-16 -7 4 -5.1 11.8
23 -16 4 10.1 9.8
23 -16 4 2.9 10.7
-7 23 4 2.4 9.7
-16 -7 4 17 15.4
17 6 -4 -9.8 9.4
23 -17 4 -0.9 7
23 -17 4 -17.8 7.7
-17 -6 4 -14 10.6
18 5 -4 -3.3 8.6
-5 23 4 24.3 11.3
23 -18 4 3.5 10.8
23 -18 4 32.7 10.9
-18 -5 4 8.4 14.7
19 4 -4 7.6 9.4
23 -19 4 5 11.5
-19 -4 4 -1.8 12.4
-4 23 4 0.1 9.2
23 -19 4 14.5 10.6
20 3 -4 37.3 14.7
23 -20 4 25.8 11.8
-20 -3 4 12 14.4
23 -20 4 12.4 11.3
21 2 -4 2.1 8.8
23 -21 4 15.5 11.2
-21 -2 4 8.5 14.2
23 -21 4 5.8 9.8
22 1 -4 9.4 9.8
-22 -1 4 26.6 15.6
23 -22 4 18.3 11.4
23 -22 4 -1.7 11
23 0 -4 13.9 15.9
23 -23 4 -7.6 9.4
23 -23 4 8.7 12.7
24 -1 -4 20.3 12.6
23 -24 4 11.1 13.8
23 -24 4 36.8 13.8
25 -2 -4 2.7 10.8
23 -25 4 24.5 15
23 -25 4 3.1 12.6
24 -24 -4 28.8 8.1
-24 24 4 -0.1 11.6
24 0 4 35.6 13.3
0 -24 4 34.9 23.2
24 0 4 47.3 15.1
23 -24 -4 12.5 5.9
24 -1 4 -10.7 7.5
-23 24 4 38.3 13.2
24 -1 4 3.6 10.3
22 -24 -4 35.6 7.1
-2 -22 4 32.4 20.8
-22 24 4 11.4 13.9
24 -2 4 39.1 15
24 -2 4 24.9 11.4
24 -3 4 9.3 9
-3 -21 4 24.4 18.7
-21 24 4 -8.1 10.3
-4 -20 4 19.1 17.6
24 -4 4 43.6 13
-20 24 4 16.7 13.6
24 -4 4 25.7 13
-5 -19 4 -26.4 11.8
24 -5 4 7.4 8.8
-19 24 4 5.4 10.8
24 -5 4 10.5 12
24 -6 4 61.39 13.4
24 -6 4 38.3 13.5
-18 24 4 42.1 13.1
-6 -18 4 17.7 17.2
24 -7 4 6.8 10.3
24 -7 4 16.2 9.5
-17 24 4 4.8 10.4
-7 -17 4 22.3 15.8
24 -8 4 40.3 14.5
24 -8 4 64.79 15.1
-16 24 4 37.4 13.5
-8 -16 4 27.4 17.7
24 -9 4 20 11.3
24 -9 4 0.2 9.4
-15 24 4 3.1 9.5
-9 -15 4 -9.7 13.6
24 -10 4 43.5 13.3
-10 -14 4 44.8 16.7
24 -10 4 18.4 11.5
-14 24 4 31.8 12.5
-13 24 4 8.4 10.5
24 -11 4 13.2 10.2
-11 -13 4 27.4 16.2
24 -11 4 -5.5 6.6
24 -12 4 42.9 13.8
24 -12 4 79.59 18.2
-12 24 4 85.99 16.8
-12 -12 4 38.9 18.6
24 -13 4 -3.4 9.3
-11 24 4 4 10.3
24 -13 4 10.8 9.6
-13 -11 4 16.9 15.1
-14 -10 4 51.29 18.9
24 -14 4 17.4 11.8
-10 24 4 43.6 13.8
24 -14 4 31.5 11.7
24 -15 4 15.6 11.2
24 -15 4 41.3 11.8
-15 -9 4 -1.4 12.6
-9 24 4 -4.6 10.1
16 8 -4 20.8 11.5
24 -16 4 38.5 14.4
-16 -8 4 44.1 17.6
24 -16 4 72.59 18.2
-8 24 4 47.7 13.9
17 7 -4 18.8 10.9
24 -17 4 12.3 9.7
-7 24 4 21.9 10.6
24 -17 4 -0.2 10.2
-17 -7 4 26.3 15.2
18 6 -4 4.9 10.9
-6 24 4 26.3 12.4
24 -18 4 34.8 13.2
-18 -6 4 2.3 14
24 -18 4 8.7 10.3
19 5 -4 -5.8 8
24 -19 4 -3 10.3
-19 -5 4 -0.8 13.4
-5 24 4 -13 8.2
24 -19 4 7.9 11
20 4 -4 67.89 16.3
24 -20 4 27.3 14.2
24 -20 4 5.7 10.2
-4 24 4 12.5 12.9
-20 -4 4 39.1 16.9
21 3 -4 -23.9 9.8
24 -21 4 0.1 11.5
24 -21 4 7.5 10.8
-21 -3 4 -24.6 12.3
22 2 -4 32.5 16
24 -22 4 24.2 14.4
24 -22 4 7.3 10.1
23 1 -4 31.9 13.2
24 -23 4 30.8 13.2
24 -23 4 16.9 13.1
-23 -1 4 13.9 14.9
24 0 -4 17.1 12.8
24 -24 4 21.3 12.9
24 -24 4 22.7 16.8
-2 -23 4 -0.9 15.2
-23 25 4 0.2 12.9
25 -2 4 10.6 10.3
25 -2 4 6.1 8.6
-22 25 4 -17.5 10.8
25 -3 4 13.4 11.2
-3 -22 4 4 19.5
25 -3 4 5.7 8.6
25 -4 4 -5.4 9.5
25 -4 4 8.6 12
-21 25 4 10.7 10.8
-20 25 4 3.3 11.1
25 -5 4 -5.1 15.6
25 -5 4 -0.4 8.4
25 -6 4 -2 9.1
25 -6 4 -5.5 7.7
-6 -19 4 11.1 18.3
-19 25 4 -16 9.5
25 -7 4 5.1 8.4
25 -7 4 -4.8 9.3
-7 -18 4 22.4 16.9
-18 25 4 -22.7 10.4
25 -8 4 1.9 10.3
-8 -17 4 -9 12.9
25 -8 4 0.3 8.4
-17 25 4 -3.5 10.4
25 -9 4 2.6 7.8
25 -9 4 11.1 10.7
-16 25 4 -5.5 8.8
-9 -16 4 17.1 17.3
-15 25 4 8.4 9.8
-10 -15 4 11.3 13.7
25 -10 4 -5.4 8.3
25 -10 4 4.4 7.1
25 -11 4 -6 8.1
25 -11 4 -15.7 5.3
-11 -14 4 -21.5 10.8
-14 25 4 28.1 11.4
-13 25 4 13.3 10.3
-12 -13 4 11.8 16.1
25 -12 4 8.5 10.3
25 -12 4 27 11.9
25 -13 4 -21.9 7.8
-13 -12 4 13.6 15
-12 25 4 18.7 11.4
25 -13 4 4.3 8.4
-14 -11 4 -13.9 14.3
25 -14 4 -13.3 9.1
25 -14 4 1 7.2
-11 25 4 2.4 10.2
25 -15 4 -3.1 7.7
-10 25 4 -8.3 8.9
25 -15 4 -15.4 8.5
-15 -10 4 1.7 13
-9 25 4 14.6 11.2
25 -16 4 -2.9 6.6
-16 -9 4 15.6 15.7
25 -16 4 13.2 11.4
17 8 -4 -7.5 9.2
25 -17 4 0.6 10
25 -17 4 1.5 7.5
-17 -8 4 -11.5 12.4
-8 25 4 22.8 12.3
18 7 -4 3.2 10.4
25 -18 4 1.4 9.5
-18 -7 4 5.2 12.1
25 -18 4 14.3 11.3
-7 25 4 22.4 11.8
19 6 -4 0.9 11.3
25 -19 4 -3.3 8.5
-6 25 4 -15.1 9
-19 -6 4 -6.4 13.9
25 -19 4 7.6 11.1
20 5 -4 7.8 12.3
-5 25 4 8.9 12
25 -20 4 23.1 12
25 -20 4 4.2 10
21 4 -4 10.3 10
-21 -4 4 11.5 14.8
25 -21 4 -17.9 8.4
25 -21 4 5.4 10.4
22 3 -4 13.1 11.1
25 -22 4 -16 14.2
-22 -3 4 0.4 13.2
25 -22 4 -5.1 10
23 2 -4 3.9 9.4
25 -23 4 -11.2 9.9
25 -23 4 2.9 12.4
-23 -2 4 -24.6 11.8
-5 -21 4 17.4 19.1
26 -5 4 20.5 10.7
-21 26 4 0.7 11
26 -5 4 19 12.1
-20 26 4 56.49 14.9
-6 -20 4 5.8 19.4
26 -6 4 16.7 10.3
26 -6 4 12.6 13.2
26 -7 4 13.9 11.2
-19 26 4 38.9 15.3
-7 -19 4 30.7 23.2
26 -7 4 9.5 10
-18 26 4 60.49 15.9
26 -8 4 25.8 13.7
26 -8 4 23.9 17.3
-17 26 4 14.2 12.3
26 -9 4 20 15.2
-16 26 4 29.7 13.1
26 -10 4 45.4 18.9
26 -10 4 26 13.8
-11 -15 4 37.6 17.8
-15 26 4 15.8 12
26 -11 4 -0.7 10.5
26 -11 4 7.1 10.4
26 -12 4 35.1 14.8
-14 26 4 37.6 13.9
-12 -14 4 62.39 24.2
26 -12 4 62.89 14.4
-13 -13 4 5 17.6
26 -13 4 1.2 10.2
26 -13 4 14.8 10.6
-13 26 4 5.5 11.4
26 -14 4 98.59 20.9
26 -14 4 65.49 15.8
-14 -12 4 25 19.6
-12 26 4 40.2 14.3
26 -15 4 23.4 11.7
-11 26 4 24.7 12.8
26 -15 4 5.4 11.7
26 -16 4 33.3 14.2
-10 26 4 59.99 14.7
26 -16 4 13.8 10.2
26 -17 4 24.7 14
-9 26 4 15.9 11.3
26 -17 4 -8.3 13.2
18 8 -4 -0.3 12.2
26 -18 4 48.8 16.7
26 -18 4 65.29 20.1
-18 -8 4 30.4 20.9
-8 26 4 30.9 14
19 7 -4 15.8 12.2
-19 -7 4 16.6 17
-7 26 4 41 13.9
26 -19 4 22.5 17.3
26 -19 4 50.79 16
20 6 -4 9.8 10.7
26 -20 4 31.9 15.5
-20 -6 4 38.4 20.8
26 -20 4 27.6 13.4
21 5 -4 5.3 11.1
-21 -5 4 2.8 16.2
-5 26 4 10.9 13.6
26 -21 4 22.6 14
26 -21 4 17.2 13
-8 -19 4 10.9 17.5
27 -8 4 -2.8 11.4
27 -8 4 1.8 8.6
-19 27 4 5 11
-9 -18 4 -15.3 14.3
27 -9 4 0.9 7.9
-18 27 4 20.5 12.7
27 -9 4 -13.3 9.1
27 -10 4 -7.6 9.8
27 -10 4 9.7 8.3
-17 27 4 4.3 10.6
-10 -17 4 -11.4 14.8
-16 27 4 17.3 12.8
27 -11 4 3.9 12.2
-11 -16 4 -14.5 13.1
27 -11 4 -1.7 8.3
-12 -15 4 -17.3 12.6
-15 27 4 18.8 11.3
27 -12 4 0 7.8
27 -12 4 6 12.4
-14 27 4 17.5 10.9
27 -13 4 8.5 9.3
-13 -14 4 -12 13.9
27 -14 4 6.8 10.5
-13 27 4 8.4 11.5
-14 -13 4 -10.5 13.8
-15 -12 4 -2.5 15.4
-12 27 4 1.2 11.8
27 -15 4 12.3 9.5
-16 -11 4 -23.5 12.3
27 -16 4 6.7 9.3
-11 27 4 26.3 12.8
27 -17 4 -17.3 5.8
-10 27 4 0 11.3
-17 -10 4 2.8 15.7
18 9 -4 -12.1 8.9
-9 27 4 3.7 11.3
27 -18 4 0.3 8.5
-18 -9 4 13.9 15.6
19 8 -4 -1.9 8.7
-19 -8 4 -8.1 16.2
27 -19 4 -7.9 8.9
0 0 5 23.2 7.9
1 0 5 7.9 7
0 -1 5 39.1 9.3
-1 1 -5 -0.5 55.99
0 -1 -5 41.2 54.99
1 0 -5 2.9 50.89
1 -1 5 -87.09 66.49
0 1 5 32.9 61.79
-1 0 5 62.19 66.79
1 1 5 99.99 14.5
-3 2 5 244.58 22.9
2 1 5 276.27 25
-3 2 5 202.98 23.4
1 -3 5 206.28 25
2 0 5 668.73 63.59
-2 2 5 772.12 62.09
0 -2 5 695.33 63.49
2 -1 5 291.57 30.9
-2 2 -5 729.33 63.99
-2 0 5 717.03 64.69
2 -2 5 785.82 66.09
0 2 5 735.63 64.19
-2 3 -5 266.77 26.1
-3 1 5 193.08 25.6
1 2 5 291.87 26.1
2 -3 5 304.17 28.3
-2 4 -5 529.75 48
2 -4 5 513.45 49.4
-4 2 5 498.75 46.8
2 2 5 560.74 47.7
-4 2 5 551.04 48.1
-2 5 -5 24.2 8.7
-5 3 5 32 7.6
2 -5 5 35.6 10.8
-5 3 5 31.2 7.4
3 2 5 50.79 11.5
-1 4 -5 21.5 8
1 -4 5 42 10
-4 3 5 49.9 8.4
-3 3 5 18.4 6.1
-3 3 5 19.7 6
3 0 5 32.8 9.8
-3 1 -5 213.48 20.7
3 -1 5 224.88 23.5
-1 -2 5 189.58 23
-1 3 5 200.78 20.3
-3 0 5 5.1 5.5
-3 0 5 5.9 6.3
1 3 5 29.7 7.8
-4 1 5 30 7.2
-3 5 -5 29 9.3
-5 2 5 35.9 8.2
3 -5 5 42.8 11.6
2 3 5 36.3 8.7
-5 2 5 30.2 8.2
-3 6 -5 170.68 19.4
3 -6 5 159.88 20.7
-6 3 5 161.48 16.6
-6 3 5 128.99 16.6
3 3 5 111.39 17.9
-3 7 -5 -2.1 7.7
-7 4 5 6.1 5.2
3 -7 5 -7.2 8.2
4 3 5 -6 5.6
-2 6 -5 306.97 30
2 -6 5 266.47 30.6
-6 4 5 312.17 27.9
4 2 5 254.67 28.3
-4 -1 -5 79.79 9.7
-1 5 -5 33.7 9.8
1 -5 5 37.7 11.9
4 1 5 47.1 10.5
-5 4 5 49.3 7.9
-5 4 5 52.79 8.7
0 4 -5 288.57 26.5
-4 0 -5 271.67 24.9
0 -4 5 218.58 27.5
4 0 5 240.48 26.6
-4 4 5 255.97 23.9
-4 4 5 278.67 25.6
-3 4 5 37.8 7.3
-1 -3 5 15.1 9.2
-4 2 -5 524.05 46.8
-2 4 5 525.35 45.4
4 -2 5 560.74 48.7
-2 -2 5 479.35 47.7
-4 3 -5 101.49 14.1
4 -3 5 71.59 13.8
-4 4 -5 281.97 27
-4 0 5 245.28 26.6
4 -4 5 258.47 28.6
-4 0 5 244.48 26.7
0 4 5 272.57 25.1
-4 5 -5 52.69 10.6
-5 1 5 24 8.5
1 4 5 30.8 7.3
-5 1 5 37.6 8.8
4 -5 5 18.5 10
-4 6 -5 344.37 32.6
4 -6 5 316.37 34
-6 2 5 310.77 30.9
-6 2 5 329.27 30.4
2 4 5 292.27 29.9
-4 7 -5 -6.9 6.9
3 4 5 -0.1 8.1
4 -7 5 -4.4 8.2
-7 3 5 -1.6 4.8
-4 8 -5 189.78 24.2
4 4 5 205.28 21.4
-8 4 5 202.78 21.3
4 -8 5 188.08 25.3
-4 9 -5 -2.4 8.3
4 -9 5 20.4 11.1
5 4 5 4.7 6.5
-9 5 5 10.1 5.5
-3 8 -5 78.69 14.9
3 -8 5 91.99 16
5 3 5 74.89 12.3
-8 5 5 71.49 11.2
-5 -2 -5 -5.5 4.6
-2 7 -5 3.7 8.3
2 -7 5 10.5 9.1
5 2 5 8.3 7.1
-7 5 5 8 5.1
-5 -1 -5 66.89 9.8
-1 6 -5 53.79 11.8
5 1 5 71.89 11.8
-6 5 5 65.39 10
1 -6 5 76.89 14.4
-5 0 -5 25.4 6.9
0 5 -5 5.3 7.9
5 0 5 18.5 8.7
-5 5 5 25.9 6
0 -5 5 25.8 10.4
-5 1 -5 37.7 8.3
-4 5 5 26.3 7.1
-1 -4 5 51.49 11.8
5 -1 5 37.9 10
-2 -3 5 25.2 9.9
-3 5 5 41 6.5
5 -2 5 51.89 10.6
-3 5 5 34.4 7.2
-2 -3 5 41.8 10.5
-5 3 -5 45.9 9.8
5 -3 5 38.3 10.9
-3 -2 5 33.6 8.8
-3 -2 5 22.4 9.2
-5 4 -5 41 10
5 -4 5 81.89 13.4
-4 -1 5 44.4 9.8
-1 5 5 38.2 7.7
-4 -1 5 47 10.4
-5 5 -5 23.1 9.2
-5 0 5 16.8 7.2
0 5 5 11.4 6.1
5 -5 5 28.5 10.5
-5 0 5 22.9 11.3
1 5 5 65.19 10.2
-6 1 5 60.99 11.2
5 -6 5 86.29 14.8
-6 1 5 52.09 12
-5 7 -5 -4.5 7.7
5 -7 5 17.6 9.7
-7 2 5 12.6 6.5
-7 2 5 5.5 7.3
2 5 5 5.2 5.8
-5 8 -5 132.99 17.2
-8 3 5 81.89 13.5
5 -8 5 74.39 15.6
-5 9 -5 -3.7 8.2
-9 4 5 16.1 6.5
4 5 5 5.6 5.5
5 -9 5 5.7 9.9
4 5 5 2.2 6
-5 10 -5 32.2 14.4
-10 5 5 70.29 11.1
5 5 5 80.89 12.1
5 -10 5 55.49 14.3
5 5 5 45.7 9.3
-6 -5 -5 3.3 4.9
-5 11 -5 13.8 10.5
-6 -5 -5 8.7 5
6 5 5 26 8.7
5 -11 5 11.5 11.2
6 5 5 9.5 6.2
-11 6 5 16.9 7.2
-6 -4 -5 234.78 21.6
-6 -4 -5 218.88 21.6
-4 10 -5 211.98 29.4
4 -10 5 239.78 28.3
6 4 5 198.78 24.2
-10 6 5 241.48 23.7
6 4 5 226.88 23.5
-6 -3 -5 18.9 6.1
-3 9 -5 2.3 8.8
6 3 5 13.7 7.7
3 -9 5 6.4 9.8
-9 6 5 10.5 5.7
-2 8 -5 213.38 26.7
-6 -2 -5 241.68 23.1
2 -8 5 237.98 27.7
-8 6 5 261.47 23.7
6 2 5 201.58 24.9
-1 7 -5 22.2 9.2
-7 6 5 5.9 5.1
1 -7 5 20 10.2
6 1 5 30.3 8.9
-6 0 -5 312.67 33.5
0 6 -5 372.86 35.5
-6 6 5 369.46 32.9
0 -6 5 414.06 37.4
6 0 5 339.47 34.9
-6 1 -5 109.59 14.4
1 5 -5 61.59 12
-1 -5 5 63.99 14
6 -1 5 86.29 14.1
-5 6 5 88.79 11
-6 2 -5 297.17 29.7
-2 -4 5 308.07 31.3
6 -2 5 319.37 31.3
-2 -4 5 264.47 31
-4 6 5 312.57 28
-6 3 -5 173.48 19.1
-3 -3 5 115.89 18.4
-3 -3 5 133.89 18.3
-3 6 5 142.99 15.6
6 -3 5 167.38 20.5
-6 4 -5 328.07 31.1
-4 -2 5 301.27 30.8
-4 -2 5 296.77 30.6
6 -4 5 305.47 31.7
-2 6 5 290.37 27
-6 5 -5 81.49 13.4
-5 -1 5 72.39 12.7
-1 6 5 74.39 10.4
6 -5 5 81.29 14.7
-5 -1 5 60.79 11.6
-6 6 -5 364.06 36.8
-6 0 5 391.06 35.9
-6 0 5 374.96 36
0 6 5 351.16 33.4
6 -6 5 379.36 38.1
-6 7 -5 29.5 10.2
-7 1 5 30.2 7.8
-7 1 5 9 7.8
1 6 5 19.1 6.5
6 -7 5 19.2 10.3
-6 8 -5 286.37 28.1
2 6 5 232.28 23.5
6 -8 5 219.58 28
-8 2 5 236.18 24.8
-8 2 5 212.58 25.5
-6 9 -5 16.6 10.1
-9 3 5 6.4 5.5
6 -9 5 18.2 11
3 6 5 17.6 7
3 6 5 10.3 5.5
4 6 5 218.08 22.9
4 6 5 201.58 21.8
6 -10 5 206.48 27.9
-10 4 5 230.98 23.3
-6 11 -5 15.4 10.9
5 6 5 3.1 6.4
5 6 5 18 6.7
-11 5 5 0.5 5.8
6 -11 5 3.8 9.7
-6 12 -5 109.09 20.1
6 6 5 144.99 18.3
6 6 5 167.18 17
-12 6 5 131.09 17.4
6 -12 5 127.79 21.3
-7 -6 -5 23 7.2
-7 -6 -5 15.8 6.5
13 -7 -5 26.7 8.4
-6 13 -5 21 11.3
6 -13 5 4.7 11.2
7 6 5 28.8 7.8
-13 7 5 15.1 7.2
7 6 5 29.8 9.6
-7 -5 -5 16.3 6.3
-7 -5 -5 20.5 6.5
-5 12 -5 12 9.7
7 5 5 15 7.8
7 5 5 11.4 6.3
5 -12 5 -4 9.6
-12 7 5 10.2 6.2
-4 11 -5 -14.7 7.9
-7 -4 -5 3.5 6.1
-11 7 5 11.5 5.8
4 -11 5 7.4 10.5
7 4 5 10.9 6
7 4 5 26 9.1
-7 -3 -5 16.3 7.2
-3 10 -5 9.9 10.9
7 3 5 28.5 8
7 3 5 24.2 8.4
-10 7 5 42.7 7.7
3 -10 5 14.9 11.3
-2 9 -5 28.8 10.8
-7 -2 -5 6 6.7
2 -9 5 3.6 9.6
-9 7 5 15.7 5.8
7 2 5 -4.4 6.2
-7 -1 -5 28.9 8.5
-1 8 -5 34.6 10.6
7 1 5 30.7 9.3
-8 7 5 16.9 6
1 -8 5 17.6 10.7
-7 0 -5 35.2 9.7
0 7 -5 22.5 10.9
0 -7 5 35.6 12
7 0 5 47.6 11.1
-7 7 5 49.4 8.2
-7 1 -5 9.7 8
1 6 -5 33.3 9.5
-6 7 5 34.6 6.2
7 -1 5 32.5 9.5
-1 -6 5 31.1 10.9
-7 2 -5 -1.3 7
-2 -5 5 10 9.6
-5 7 5 20.2 4.9
7 -2 5 8.1 7.7
-7 3 -5 15.9 8.1
-4 7 5 7.6 4.2
-3 -4 5 10.3 6.7
7 -3 5 7.6 7.9
-3 -4 5 -6.5 7.2
-7 4 -5 14.8 8
-3 7 5 -0.7 3.4
-4 -3 5 4.1 5.9
-4 -3 5 0.2 8
7 -4 5 11.7 8.4
-7 5 -5 21.5 9.9
7 -5 5 21.4 10
-5 -2 5 17.9 7.5
-2 7 5 10.8 4.6
-5 -2 5 3.9 8.2
-1 7 5 18 5.6
-6 -1 5 33 9.7
-6 -1 5 30.2 8.4
-7 7 -5 26.7 11
7 -7 5 28.4 11.5
0 7 5 40 7.6
-7 0 5 32.3 8.3
-7 0 5 45.2 10.8
-7 8 -5 49.6 11.5
1 7 5 28.8 7.3
7 -8 5 45.6 12.8
-8 1 5 23.2 7.9
-8 1 5 22.5 9.2
-7 9 -5 4.5 9.5
-9 2 5 5.8 5.6
7 -9 5 6.5 9.8
2 7 5 7.4 5.9
2 7 5 15 5.2
-7 10 -5 17.2 12.7
3 7 5 30.4 6.9
3 7 5 44.4 9.1
-10 3 5 20.4 8.2
7 -10 5 33.6 12.2
-7 11 -5 15.8 10.5
4 7 5 16.2 7.2
4 7 5 12.3 7
-11 4 5 11.4 6.3
7 -11 5 5.4 10.6
12 -5 -5 18.9 8.6
-7 12 -5 28.5 11
-12 5 5 2.6 6.8
7 -12 5 9.8 10.7
5 7 5 22.5 7.9
5 7 5 9.3 5.9
-7 13 -5 39.2 11.5
13 -6 -5 3.8 7
6 7 5 13.3 7.7
6 7 5 23.9 6.7
7 -13 5 1.5 10.7
-7 -7 -5 10.3 5.6
-7 14 -5 -11.2 8.2
14 -7 -5 8.4 7.3
-7 -7 -5 8.8 5.5
7 7 5 -3 4.2
-14 7 5 5.1 5.4
7 7 5 14.7 7.8
7 -14 5 10.1 10.4
-14 7 5 16.2 6.3
-8 -7 -5 -5.7 5.4
-8 -7 -5 -0.5 5.9
15 -8 -5 -7.4 5.2
-7 15 -5 -4 9.3
8 7 5 5.1 5.5
-15 8 5 4.5 6.2
7 -15 5 -8.7 9.7
-15 8 5 0.5 5.7
8 7 5 16.2 8
14 -8 -5 63.09 12.3
-8 -6 -5 97.89 12.8
-6 14 -5 74.29 16.3
-8 -6 -5 64.19 11.1
6 -14 5 56.29 15.3
8 6 5 79.29 13.1
-14 8 5 94.69 12.6
-14 8 5 60.69 12.5
8 6 5 89.69 15.2
-8 -5 -5 4.2 6
13 -8 -5 4.6 6.3
-5 13 -5 5.1 9.2
-8 -5 -5 5.1 6.7
8 5 5 9.2 6.6
8 5 5 7.1 7
-13 8 5 -2.4 4.7
5 -13 5 -6.7 9.5
-4 12 -5 104.19 17.5
-8 -4 -5 85.39 13.2
-12 8 5 99.29 13.8
8 4 5 82.69 15.1
4 -12 5 136.79 22
8 4 5 113.79 14.7
-8 -3 -5 21.5 7.3
-3 11 -5 9.7 9.9
3 -11 5 17.4 11.2
8 3 5 18.6 7.5
8 3 5 10.3 7.9
-11 8 5 12.6 6.1
-8 -2 -5 91.39 14.8
2 -10 5 142.79 22.3
8 2 5 116.59 16.4
-10 8 5 129.89 14.8
8 2 5 126.89 17.4
-1 9 -5 -9.3 7.2
-8 -1 -5 3.9 6.7
-9 8 5 -0.2 4.2
1 -9 5 2.3 9.4
8 1 5 6.4 7.2
0 8 -5 171.98 21.9
-8 0 -5 162.98 19.9
0 -8 5 161.78 23.1
-8 8 5 149.29 16.9
8 0 5 176.98 20.8
-8 1 -5 47.4 10
1 7 -5 18 9.1
-1 -7 5 27.9 10.8
-1 -7 5 32 7.9
8 -1 5 19.4 9.1
-7 8 5 25.7 5.9
-8 2 -5 218.38 25.6
-2 -6 5 229.38 27.4
-2 -6 5 245.08 26.7
-6 8 5 241.68 22.2
8 -2 5 241.98 26.6
-8 3 -5 100.09 14.9
-3 -5 5 99.99 16.3
-3 -5 5 76.49 13.6
8 -3 5 94.09 15.8
-5 8 5 96.09 10.8
-8 4 -5 178.38 22.7
-4 8 5 215.78 18.9
8 -4 5 195.18 24.2
-4 -4 5 174.18 23.7
-8 5 -5 68.39 13.4
-5 -3 5 55.49 14.9
-3 8 5 87.29 9.7
-5 -3 5 82.39 15
8 -5 5 83.69 15.2
-8 6 -5 224.08 26.8
-6 -2 5 246.68 26.3
-2 8 5 215.58 21.3
8 -6 5 270.67 28
-8 7 -5 26.4 10.3
8 -7 5 33.3 11.5
-1 8 5 23 5.9
-7 -1 5 15 12.4
-7 -1 5 9 8.7
-8 8 -5 164.68 22.5
0 8 5 160.28 17.1
-8 0 5 192.18 30.7
8 -8 5 147.89 23.2
-8 0 5 171.98 20.8
-8 9 -5 0.6 8.5
1 8 5 3 4.1
1 8 5 5.3 5.1
-9 1 5 2.2 7.3
8 -9 5 4.9 8.6
-8 10 -5 111.89 18.9
-10 2 5 103.59 20.1
2 8 5 122.99 20.6
2 8 5 122.69 13.4
8 -10 5 107.29 19.1
-8 11 -5 18.1 11.3
-11 3 5 9.2 6.6
3 8 5 6.5 6.3
3 8 5 18.7 5.6
8 -11 5 -2.5 10
-8 12 -5 96.09 19.4
12 -4 -5 148.89 18.3
8 -12 5 114.89 21
-12 4 5 113.29 16.4
4 8 5 116.39 16
13 -5 -5 1.9 6.4
-8 13 -5 -3.1 8.9
-13 5 5 -1.4 5.7
8 -13 5 8.1 10.5
5 8 5 -5.1 3.9
5 8 5 0.4 6.4
-8 14 -5 51.29 14.8
14 -6 -5 90.89 15
8 -14 5 62.19 17
-14 6 5 89.19 14.2
6 8 5 97.99 14.9
-14 6 5 69.79 12.1
6 8 5 69.59 11.6
-7 -8 -5 2.7 5.2
-7 -8 -5 0.8 5.2
15 -7 -5 8.2 6.9
-8 15 -5 4.5 10.3
7 8 5 5.9 5.2
-15 7 5 1.9 5.7
8 -15 5 -5.4 10.2
-15 7 5 0.9 6.4
7 8 5 -10.1 5.6
-8 -8 -5 145.29 18.8
-8 16 -5 167.18 27
-8 -8 -5 178.68 19.5
16 -8 -5 228.58 23.9
8 8 5 214.08 23
-16 8 5 173.78 21.7
8 8 5 154.68 19.2
8 -16 5 135.99 34.2
-16 8 5 188.98 21.3
17 -9 -5 -3 6
-9 -8 -5 -5.8 6.1
-8 17 -5 -5.2 7.8
9 8 5 8.3 8.3
-17 9 5 4.2 6.3
8 -17 5 -3.8 11.1
-17 9 5 20.5 8.6
9 8 5 8.8 5.5
-9 -7 -5 54.49 11.2
16 -9 -5 47.8 11.5
-7 16 -5 66.49 16.3
9 7 5 71.79 12.3
7 -16 5 44.8 20
-16 9 5 64.99 12.2
-16 9 5 79.39 13.9
9 7 5 66.79 13.7
-9 -6 -5 34.4 9.5
-6 15 -5 31 13.7
15 -9 -5 24.8 8.7
9 6 5 37.4 10.6
6 -15 5 23 13.1
9 6 5 36.9 9.3
-15 9 5 29 9.1
-9 -5 -5 9 7.8
14 -9 -5 12.1 7.1
-5 14 -5 6.5 9.9
-9 -5 -5 4.5 7.7
9 5 5 6.5 6
5 -14 5 -4.1 10.5
-14 9 5 2.9 5.5
9 5 5 18.6 8.5
-14 9 5 3.5 5.5
-4 13 -5 19.3 11.2
13 -9 -5 16.4 7
-9 -4 -5 14.4 7.8
-13 9 5 15.6 6.6
9 4 5 28.7 9.6
9 4 5 15.4 7.4
-13 9 5 37.5 7.3
4 -13 5 3.2 10.1
-3 12 -5 6.1 9.2
-9 -3 -5 22.8 8.8
3 -12 5 10.3 10.4
9 3 5 10.2 7.7
-12 9 5 11.7 6
9 3 5 5.3 6.6
-2 11 -5 -8.8 7.4
-9 -2 -5 3.4 6.7
-11 9 5 4 4.7
9 2 5 -5.2 4.8
9 2 5 -7 6.2
2 -11 5 4.1 9.5
-9 -1 -5 38.6 10.2
-1 10 -5 35.5 13.9
9 1 5 54.29 12.1
9 1 5 41.2 10.2
-10 9 5 46.7 8.4
1 -10 5 53.79 14.1
0 9 -5 14.1 9.4
-9 0 -5 5.6 7.6
9 0 5 9.6 8.1
0 -9 5 5.9 9.2
0 -9 5 10.5 7.3
-9 9 5 2.6 4.4
-9 1 -5 -9.6 6.5
1 8 -5 -2.2 7.5
-8 9 5 4.4 4.1
-1 -8 5 -9.3 8.2
9 -1 5 -1.6 6.6
-1 -8 5 5.9 7.9
-9 2 -5 -1.3 7.4
-2 -7 5 16.2 7.3
9 -2 5 4.7 8.6
-2 -7 5 19.9 10
-7 9 5 16.2 4.8
-9 3 -5 12.2 8.9
9 -3 5 17.8 9.2
-3 -6 5 8.6 6.5
-6 9 5 13.8 4.4
-3 -6 5 14.1 10.1
-9 4 -5 2.5 8.4
9 -4 5 3.9 8.5
-5 9 5 16.8 4.2
-4 -5 5 -4.7 5.1
-4 -5 5 1 8.6
-9 5 -5 6.3 8.8
-5 -4 5 10.9 6.6
-4 9 5 13.1 3.9
-5 -4 5 4.1 8.9
9 -5 5 10.8 9.4
-9 6 -5 35.5 10.7
-3 9 5 22.4 4.6
-6 -3 5 11.7 9.8
-6 -3 5 15.1 7.9
9 -6 5 16.1 9.6
-9 7 -5 -6.3 7.3
-7 -2 5 6.4 6.1
-7 -2 5 -0.4 7.8
-2 9 5 11.7 4.7
9 -7 5 -10.3 7.5
-9 8 -5 -1.6 8.1
9 -8 5 -16.1 7.5
-8 -1 5 2.1 7.7
-8 -1 5 6.6 5.8
-1 9 5 0.2 3.3
-1 9 5 -3.1 4.1
-9 9 -5 8.6 11.3
9 -9 5 5.3 9.6
-9 0 5 3.5 5.3
0 9 5 -2 3.2
-9 0 5 -1.1 7.6
0 9 5 7.9 5.3
-9 10 -5 57.49 13.1
1 9 5 64.09 9.9
-10 1 5 43 11.7
9 -10 5 57.49 14.4
-10 1 5 27.8 8.8
1 9 5 59.19 8.1
-9 11 -5 -10.7 8.4
2 9 5 3.8 5.6
-11 2 5 -1 4.7
2 9 5 5.3 4
9 -11 5 -6.3 8.9
-9 12 -5 3.4 8.5
12 -3 -5 3.3 7.1
3 9 5 13.9 5
3 9 5 2.1 6.1
9 -12 5 32 12.4
-12 3 5 -1.6 6.1
-9 13 -5 13.6 10.3
13 -4 -5 16.9 8.8
9 -13 5 5.5 10.6
4 9 5 28.4 7.6
-13 4 5 16.1 7.7
4 9 5 30.4 8.6
-9 14 -5 -5.5 9
14 -5 -5 5.5 7
9 -14 5 10 12.2
5 9 5 2.7 4.7
-14 5 5 0.3 5.9
-14 5 5 8.2 6.9
5 9 5 5.4 6.7
-9 15 -5 22.8 12.6
15 -6 -5 26.1 9.2
6 9 5 33.5 7.1
9 -15 5 33.1 14.7
-15 6 5 39 9.5
-15 6 5 41.1 10.8
6 9 5 37.4 9.9
-9 16 -5 89.09 18.4
16 -7 -5 118.49 17.3
9 -16 5 114.29 27.6
-16 7 5 77.19 14.6
7 9 5 93.89 12.9
-16 7 5 111.89 16.9
7 9 5 87.29 15.2
-8 -9 -5 8 6.6
-8 -9 -5 7.8 6
17 -8 -5 -4.7 5.7
-9 17 -5 22.1 11.3
8 9 5 17.4 8.7
-17 8 5 -9.3 5.8
8 9 5 1.4 4.6
9 -17 5 -4.7 11
-17 8 5 10.8 8.2
18 -9 -5 22.6 8.6
-9 -9 -5 20.9 8.4
9 9 5 20.5 7.6
-18 9 5 16.9 9.1
9 -18 5 18.4 14.7
9 9 5 25.5 10.1
-18 9 5 33.4 10.2
19 -10 -5 -9.4 5.3
-10 -9 -5 2.6 8
-9 19 -5 18.4 16.7
-10 -9 -5 12 8.1
9 -19 5 -5.6 11.3
-19 10 5 7.9 7.1
-19 10 5 3.6 8
10 9 5 4.8 4.9
10 9 5 -7.5 8.4
-10 -8 -5 59.09 12.8
18 -10 -5 94.59 15.7
-10 -8 -5 95.39 14.9
10 8 5 108.79 18.2
10 8 5 101.99 14.3
-18 10 5 92.59 15.1
-18 10 5 120.79 22.1
8 -18 5 84.09 20.4
17 -10 -5 15.5 7.6
-7 17 -5 18.4 11.4
-10 -7 -5 1.3 7.1
-10 -7 -5 3.9 7.9
10 7 5 3.7 5.1
7 -17 5 -1.8 9.9
-17 10 5 -4.2 5.7
-17 10 5 14.5 7.9
10 7 5 6.1 8
-10 -6 -5 215.98 24.7
-6 16 -5 219.08 29.4
-10 -6 -5 184.48 24.1
16 -10 -5 228.18 25.4
-16 10 5 226.68 25.3
-16 10 5 257.17 24.8
10 6 5 235.48 26.7
10 6 5 213.38 24.3
6 -16 5 243.48 32.4
15 -10 -5 4.1 6.9
-10 -5 -5 0.1 7.4
-5 15 -5 -7 9.1
-10 -5 -5 -7.8 6.5
5 -15 5 11.7 11.3
-15 10 5 6.4 6.2
10 5 5 -1.7 5.4
-15 10 5 -3 5.3
10 5 5 -5.7 6.7
-4 14 -5 80.39 17.2
14 -10 -5 61.59 11.5
-10 -4 -5 62.99 12.5
10 4 5 55.99 12.2
10 4 5 79.49 14.2
-14 10 5 69.29 10.8
4 -14 5 85.19 19
-14 10 5 63.59 11.8
-3 13 -5 1.9 9.7
-10 -3 -5 28 9
10 3 5 7.1 6.7
-13 10 5 11 6.3
3 -13 5 31.8 12.9
10 3 5 7.2 7.8
-13 10 5 17.4 5.8
-2 12 -5 71.69 15.8
-10 -2 -5 91.89 14.6
10 2 5 73.49 13.9
10 2 5 93.29 16.1
2 -12 5 105.09 18.7
-12 10 5 94.09 12.3
-1 11 -5 4.4 8.8
-10 -1 -5 8.1 7.9
10 1 5 3.3 7.4
1 -11 5 1.9 9.8
-11 10 5 10.1 5.4
10 1 5 11.7 6.7
-10 0 -5 104.69 17
0 10 -5 101.89 19
10 0 5 126.69 18.5
10 0 5 93.79 17.2
-10 10 5 141.39 14.1
0 -10 5 159.38 21.6
0 -10 5 125.69 19.9
-10 1 -5 71.19 13.1
1 9 -5 35.8 11.8
-1 -9 5 52.39 13.8
-9 10 5 51.49 8.1
10 -1 5 50.09 11.6
-1 -9 5 57.09 11.9
-10 2 -5 110.09 17.1
-2 -8 5 96.79 17.4
-8 10 5 106.29 11.4
-2 -8 5 82.89 15.7
10 -2 5 101.89 16.4
-10 3 -5 28.6 10.2
-3 -7 5 47.7 12.7
10 -3 5 19.8 9.7
-3 -7 5 40.8 9.6
-7 10 5 31.2 5.5
-10 4 -5 212.78 25.4
-4 -6 5 209.68 26.5
-6 10 5 224.48 19.9
10 -4 5 223.58 25.8
-4 -6 5 207.18 24.8
-10 5 -5 81.69 14.5
10 -5 5 61.29 13.6
-5 -5 5 51.19 11.1
-5 -5 5 51.79 13.6
-10 6 -5 194.18 26.4
10 -6 5 221.68 26.7
-6 -4 5 242.98 27.2
-6 -4 5 239.68 25.8
-10 7 -5 49.4 12.6
10 -7 5 40.9 11.6
-7 -3 5 44 12.5
-7 -3 5 18.5 7.8
-2 10 5 111.19 12.7
10 -8 5 129.59 20.9
-8 -2 5 102.29 17
-8 -2 5 150.78 19.5
-10 9 -5 55.39 13.7
10 -9 5 67.89 15.4
-9 -1 5 34.6 9.5
-1 10 5 59.49 8.5
-9 -1 5 54.89 12.9
-10 10 -5 138.79 21.6
0 10 5 137.09 14.9
-10 0 5 130.69 17.7
10 -10 5 157.08 23.5
0 10 5 106.49 12.6
-10 0 5 147.69 19.7
-10 11 -5 -5.7 9.4
1 10 5 -2.4 5.3
-11 1 5 1.3 5.4
1 10 5 8.5 3.6
10 -11 5 9.2 10.4
12 -2 -5 83.99 15.6
-10 12 -5 124.39 20.5
2 10 5 90.89 11.2
2 10 5 113.99 14.2
-12 2 5 88.59 15.3
10 -12 5 116.99 20.4
13 -3 -5 2.8 7.3
-10 13 -5 10 10.8
10 -13 5 19.6 12.1
3 10 5 24.9 7.9
-13 3 5 11.7 8.3
3 10 5 19.8 5
-10 14 -5 57.99 15.1
14 -4 -5 80.79 14.2
4 10 5 69.59 12.5
10 -14 5 40.3 14.9
4 10 5 75.69 10
-14 4 5 68.19 13.4
15 -5 -5 0.5 7.3
-10 15 -5 -20.4 8.1
-15 5 5 -5.5 6
5 10 5 3.1 7
10 -15 5 -9 9.4
-15 5 5 1.7 6.4
5 10 5 2 3.8
16 -6 -5 242.78 27.7
-10 16 -5 197.58 29.9
-16 6 5 199.78 26.4
6 10 5 262.27 26.9
6 10 5 239.48 23.5
10 -16 5 277.87 33.3
-10 17 -5 10.1 8.7
17 -7 -5 -1.5 7.5
-17 7 5 2.8 7.7
7 10 5 15.8 5.8
7 10 5 3.5 7
10 -17 5 3.8 11.3
-17 7 5 12.3 7.7
-8 -10 -5 93.49 12.9
-8 -10 -5 100.79 13.3
18 -8 -5 80.89 15.9
10 -18 5 73.99 19.6
-18 8 5 105.29 16.9
-18 8 5 110.09 17.5
8 10 5 98.49 13.7
8 10 5 97.29 17.3
-9 -10 -5 -5.9 5.7
19 -9 -5 -1 5.9
-10 19 -5 28.2 16.4
-19 9 5 7.4 9
9 10 5 6.7 8.1
10 -19 5 4.1 11.1
-19 9 5 4.4 6.9
9 10 5 -9 4.9
-10 -10 -5 119.29 17.3
-10 20 -5 106.69 21.8
-10 -10 -5 115.49 16.7
20 -10 -5 120.79 18.9
-20 10 5 79.59 16.8
10 -20 5 123.89 25.4
-20 10 5 147.89 21.3
10 10 5 105.79 15.5
10 10 5 112.29 19.1
-10 21 -5 -1.9 10.4
-11 -10 -5 -8 7.7
21 -11 -5 -1.5 13.2
-11 -10 -5 -12.5 7.8
-21 11 5 3.7 6.1
10 -21 5 14.4 13
-21 11 5 19.4 9.8
11 10 5 4.6 8.5
11 10 5 -0.1 5.5
-11 -9 -5 75.39 13
20 -11 -5 47.9 12.5
-9 20 -5 83.59 17.7
11 9 5 49.4 13.2
-20 11 5 79.49 16
11 9 5 52.79 11.4
-20 11 5 67.29 12.9
9 -20 5 71.89 20.3
19 -11 -5 -5.3 6.2
-11 -8 -5 6.7 8
-11 -8 -5 -4.9 7.8
11 8 5 -3.1 10.6
8 -19 5 4.2 11.8
-19 11 5 -6.5 6.5
-19 11 5 1.7 5.6
11 8 5 -3.6 4.5
-11 -7 -5 51.89 12.2
-11 -7 -5 55.69 12.2
18 -11 -5 56.29 11.8
7 -18 5 29.1 14.7
11 7 5 47.4 12.5
11 7 5 58.29 12
-18 11 5 56.79 12.3
-18 11 5 49.7 11.8
-11 -6 -5 -3.5 7.6
17 -11 -5 -9.8 5
-6 17 -5 13 10.5
-11 -6 -5 -13.8 7.9
11 6 5 -0.9 5.4
-17 11 5 -1.8 6.5
6 -17 5 -7.3 9.4
11 6 5 0.4 8.4
-17 11 5 4.3 6.5
16 -11 -5 95.59 14.8
-11 -5 -5 55.09 14.2
-11 -5 -5 75.39 14.9
-5 16 -5 102.89 20.1
-16 11 5 142.29 15.8
5 -16 5 82.99 19.4
11 5 5 119.19 16.9
11 5 5 80.69 16.2
-16 11 5 117.69 15.4
-11 -4 -5 13.3 8.5
-4 15 -5 9.2 10.7
15 -11 -5 3.6 6.1
-15 11 5 12.4 6.3
-15 11 5 -1.9 5.4
11 4 5 14.1 9
11 4 5 5.8 6.6
4 -15 5 3.4 12.6
14 -11 -5 12.7 6.4
-11 -3 -5 -3 7.6
-3 14 -5 -13.3 8
11 3 5 27 9.7
11 3 5 5.3 5.9
-14 11 5 13 6.1
-14 11 5 13.1 5.6
3 -14 5 -11.5 10.5
-11 -2 -5 10 8.7
-2 13 -5 -0.7 9.4
11 2 5 -6.2 5.5
-13 11 5 7 4.6
11 2 5 -6.3 6.4
-13 11 5 13.6 5.4
2 -13 5 0.4 10.5
-11 -1 -5 43.5 11.2
-1 12 -5 41.9 13
-12 11 5 49.2 8.9
11 1 5 42.9 11
11 1 5 48.9 11.8
-12 11 5 72.19 8.5
1 -12 5 82.59 17.6
1 -12 5 47.7 11.2
0 11 -5 -1.4 9.1
-11 0 -5 -10.2 6.9
0 -11 5 5.6 6.4
-11 11 5 -4.6 3.6
0 -11 5 14.8 10
11 0 5 -11.4 5.9
11 0 5 -5.9 4.8
1 10 -5 -0.3 8.2
-11 1 -5 17.6 10.1
11 -1 5 -2.8 6.4
-1 -10 5 -2.8 9.9
-10 11 5 2.2 4
-1 -10 5 7.2 6.7
11 -1 5 9 7.2
2 9 -5 -28.6 11.2
-11 2 -5 -3.4 7.7
11 -2 5 -7.2 6.3
-2 -9 5 -2.7 9
-9 11 5 -2.1 3.1
-2 -9 5 2.1 6
11 -2 5 -9.5 4.9
-11 3 -5 3 9.2
-3 -8 5 8.6 9.9
-3 -8 5 20.8 7.3
11 -3 5 30.9 9.7
-11 4 -5 9.3 9.5
11 -4 5 6 8.7
-4 -7 5 13.7 10.8
-4 -7 5 -3.4 5.6
-11 5 -5 8.1 9.7
-5 -6 5 19.9 8.1
-5 -6 5 0.2 8.7
11 -5 5 4.6 9.4
-11 6 -5 1.5 9.5
11 -6 5 12.4 9.6
-6 -5 5 18.8 9
-6 -5 5 14.2 10.2
-11 7 -5 13.8 11.5
11 -7 5 20.3 10.5
-7 -4 5 22.4 10.4
-7 -4 5 3.8 6.5
-11 8 -5 14.4 10.2
11 -8 5 9.7 10.2
-8 -3 5 20.3 9.1
-3 11 5 10.8 4.4
-8 -3 5 0.2 8.9
-11 9 -5 -9 8.2
-9 -2 5 -7.3 7.3
-9 -2 5 7.1 7.1
-2 11 5 -1.8 4
11 -9 5 -7.4 7.4
-11 10 -5 1.3 9.3
-10 -1 5 3.7 5.5
11 -10 5 11.6 10.6
-10 -1 5 5.2 8.4
-1 11 5 1.2 4.7
-11 11 -5 1 9.5
11 -11 5 2 9.3
-11 0 5 3.1 6
-11 0 5 0.8 8.7
-11 12 -5 60.99 14.9
-12 1 5 49.2 11.1
11 -12 5 83.29 16.8
1 11 5 69.59 11.1
-11 13 -5 0.9 10
13 -2 -5 -2.7 6.9
2 11 5 3.7 3.5
-13 2 5 4.9 6.2
11 -13 5 -3.5 9
2 11 5 2.2 5.8
-11 14 -5 4.2 9.9
14 -3 -5 17 8.7
11 -14 5 0.5 10.1
3 11 5 0 3.4
-14 3 5 -5.5 5.9
3 11 5 2.7 6.4
15 -4 -5 19.3 9.1
-11 15 -5 4.4 10.3
4 11 5 1.3 6.5
-15 4 5 -2.8 7
-15 4 5 19.7 8.8
4 11 5 7.5 4.4
11 -15 5 4.7 11.7
-11 16 -5 81.79 18.4
16 -5 -5 78.69 16.2
5 11 5 113.99 16.3
-16 5 5 93.99 16
11 -16 5 113.99 20.7
-16 5 5 86.29 16.2
5 11 5 117.39 12.9
17 -6 -5 0.2 7
-11 17 -5 13.8 11
6 11 5 5.5 7.4
-17 6 5 4.7 6.6
6 11 5 -1.2 4.2
-17 6 5 9.4 8.4
11 -17 5 -4.6 10
18 -7 -5 49.2 12.4
-18 7 5 66.09 14
7 11 5 63.69 12.8
-18 7 5 31 11.1
7 11 5 37.9 8.5
11 -18 5 79.79 18.2
19 -8 -5 0.4 6.7
-19 8 5 -2 6.5
8 11 5 0.1 7.4
-19 8 5 11 8.9
8 11 5 0.6 4.9
11 -19 5 3.2 11.6
-11 20 -5 74.39 18.9
-9 -11 -5 61.69 14.6
-9 -11 -5 61.39 10.5
9 11 5 54.39 10.6
-20 9 5 48 13.3
11 -20 5 66.19 19.9
9 11 5 64.89 16.7
-20 9 5 71.99 15.9
-11 21 -5 2.5 11.7
-10 -11 -5 -1.7 7.3
21 -10 -5 -5.6 6.2
-10 -11 -5 -8.7 7
10 11 5 6 5.5
-21 10 5 -14.1 4.7
-21 10 5 -9.3 7.5
11 -21 5 0.1 11.6
10 11 5 -2.8 7.3
22 -11 -5 36.8 11
-11 -11 -5 31.5 10.9
-11 -11 -5 34.2 11.1
-22 11 5 52.49 14.7
11 11 5 21.6 8
11 11 5 48.4 13.8
11 -22 5 18.7 14.1
-22 11 5 17.6 9.8
-12 -11 -5 -1.8 8.6
23 -12 -5 19.5 9.8
-23 12 5 -7.3 7.8
11 -23 5 -6.8 12.8
-23 12 5 -2.6 8.4
12 11 5 6.5 6.4
12 11 5 1.4 8.8
22 -12 -5 41.9 12.1
-12 -10 -5 51.89 14.2
12 10 5 68.39 15.9
10 -22 5 95.49 22.9
-22 12 5 71.09 16.3
12 10 5 50.79 11.4
-22 12 5 52.29 14
-9 21 -5 20.3 14.6
-12 -9 -5 6.5 9.5
21 -12 -5 9.4 7.3
12 9 5 26.3 8.1
-21 12 5 10 10
9 -21 5 8.5 13.7
12 9 5 10.6 9.1
-21 12 5 12.5 9.1
-12 -8 -5 130.49 27.6
20 -12 -5 140.89 20.4
-8 20 -5 145.09 24.5
-12 -8 -5 137.09 21.3
-20 12 5 181.68 23
-20 12 5 108.29 20.3
12 8 5 196.18 23.6
8 -20 5 149.09 25.9
12 8 5 135.79 18.7
-12 -7 -5 -0.5 8.7
-12 -7 -5 5.5 9.9
19 -12 -5 0.3 6.7
-19 12 5 10 7
7 -19 5 -9.1 11
12 7 5 4.3 5.6
12 7 5 12 8.8
18 -12 -5 103.79 16.2
-12 -6 -5 105.89 19.3
-12 -6 -5 71.99 15.4
6 -18 5 75.69 18.4
-18 12 5 94.79 15.6
-18 12 5 125.19 16.4
12 6 5 102.09 15.7
17 -12 -5 -1.7 5.8
-12 -5 -5 10.4 9.3
-5 17 -5 13.5 10.3
12 5 5 11.9 7.5
-17 12 5 -3 6.5
5 -17 5 0.1 10.6
-17 12 5 7.7 7.1
12 5 5 4.6 7.9
16 -12 -5 144.89 18.3
-4 16 -5 125.19 22.7
-12 -4 -5 160.68 20.4
4 -16 5 103.89 22.1
12 4 5 154.28 21.2
12 4 5 116.89 18.4
-16 12 5 159.68 17.7
-16 12 5 142.59 17.9
-12 -3 -5 -6.8 7.3
15 -12 -5 5.3 5.7
-3 15 -5 -4.1 9.6
-15 12 5 -7.8 4.7
12 3 5 10.2 6.4
12 3 5 4.6 7.9
-15 12 5 3.5 5.8
-2 14 -5 52.09 13.8
-12 -2 -5 42.6 11.9
2 -14 5 60.79 17.2
12 2 5 56.39 12.6
12 2 5 55.99 12.5
2 -14 5 56.09 11.8
-14 12 5 59.19 10
-14 12 5 70.49 10
-12 -1 -5 5.7 8.8
-1 13 -5 -7.8 7.9
1 -13 5 1.2 10.9
-13 12 5 -3 3.8
1 -13 5 4.9 6.9
-13 12 5 3.9 4.3
12 1 5 -1 5.1
12 1 5 5.2 7.2
0 12 -5 88.19 19
-12 0 -5 96.79 16.6
-12 12 5 100.09 10.9
12 0 5 118.99 17.8
-12 12 5 99.19 12.1
12 0 5 107.19 17.7
0 -12 5 76.49 16.3
0 -12 5 84.69 18.9
-12 1 -5 72.79 14.7
1 11 -5 78.39 15
-11 12 5 62.29 8.6
-1 -11 5 42.1 12
12 -1 5 58.19 12.2
-1 -11 5 46.4 14.7
12 -1 5 47.6 12.6
-12 2 -5 92.39 16.3
2 10 -5 72.79 16.1
-2 -10 5 104.69 16.8
-2 -10 5 108.89 19.2
12 -2 5 103.39 15.5
-10 12 5 96.59 10.7
12 -2 5 84.99 16
-12 3 -5 8.8 9
-3 -9 5 6 10.6
12 -3 5 -5.4 6.6
-3 -9 5 9.4 6.3
12 -3 5 7.5 6.8
-12 4 -5 90.09 25.7
12 -4 5 95.19 17.2
-4 -8 5 120.19 19.3
-4 -8 5 97.09 17.1
-12 5 -5 14.7 11.7
12 -5 5 13 9.1
-5 -7 5 23 8.1
-5 -7 5 40.3 12.3
-12 6 -5 127.99 21.1
-6 -6 5 134.49 21
-6 -6 5 134.99 19.2
12 -6 5 128.49 20.4
-12 7 -5 27.3 11.1
-7 -5 5 23.7 11.4
12 -7 5 25.2 11.1
-7 -5 5 15.5 8.4
-12 8 -5 86.09 17.6
-8 -4 5 114.19 17.7
12 -8 5 109.49 19.1
-4 12 5 112.19 11.5
-8 -4 5 108.09 18.7
-12 9 -5 4.2 9.5
-3 12 5 5.9 4.1
12 -9 5 10.7 10.1
-9 -3 5 19.7 8.3
-9 -3 5 7.2 9.9
-12 10 -5 92.39 17.5
-10 -2 5 105.59 18.5
12 -10 5 114.99 20.1
-10 -2 5 82.09 14.4
-2 12 5 102.39 12.1
-12 11 -5 64.39 14.7
-11 -1 5 66.29 12.1
-1 12 5 69.39 10.3
-11 -1 5 45.8 13.8
12 -11 5 56.29 15.9
-12 12 -5 73.89 16.3
0 12 5 103.09 12.7
-12 0 5 85.69 16
12 -12 5 77.59 16.8
-12 0 5 59.29 13.5
13 -1 -5 -1.5 7
-12 13 -5 3.3 9.5
1 12 5 2.4 5.8
12 -13 5 -11.5 8.4
-13 1 5 -2.4 5.9
14 -2 -5 57.89 12.9
-12 14 -5 48.2 14.7
2 12 5 64.79 10.6
-14 2 5 30 10.6
12 -14 5 62.19 16.6
15 -3 -5 -3.6 7.4
-12 15 -5 1.4 11
-15 3 5 -6.5 6.3
-15 3 5 1.4 6.7
3 12 5 3.2 6.2
3 12 5 0.2 3.7
-12 16 -5 112.29 21
16 -4 -5 128.19 20.4
12 -16 5 136.39 24.2
-16 4 5 101.59 18.9
4 12 5 139.39 14.6
-16 4 5 147.09 19.5
4 12 5 140.89 17.9
17 -5 -5 5.6 7.8
-17 5 5 -2.7 7.1
5 12 5 -6.7 5.7
-17 5 5 12.9 7.3
5 12 5 6.2 4.8
12 -17 5 2.7 10.5
18 -6 -5 115.59 19.6
6 12 5 122.39 17.9
-18 6 5 115.49 19.3
-18 6 5 135.49 19.2
12 -18 5 116.99 21.3
6 12 5 113.39 14.2
-12 19 -5 -20.4 16
-19 7 5 0.4 6.2
7 12 5 3.1 4.7
-19 7 5 12.1 9.8
12 -19 5 6.6 12.6
7 12 5 -7.5 6.3
-12 20 -5 120.49 22.8
20 -8 -5 168.48 22.4
12 -20 5 106.39 23.2
8 12 5 154.08 17
-20 8 5 166.88 23.5
-20 8 5 112.49 20.1
-9 -12 -5 10.5 6.8
-9 -12 -5 2.5 8.6
21 -9 -5 6.4 8.3
-12 21 -5 3.8 11.7
-21 9 5 3.5 6.4
9 12 5 5.4 9.4
12 -21 5 -2.1 11.4
9 12 5 1.5 5.3
-21 9 5 13.1 11
-10 -12 -5 48.2 11.2
22 -10 -5 77.19 15.5
-22 10 5 54.79 13.5
-22 10 5 53.49 14.2
10 12 5 64.89 11.4
12 -22 5 58.19 18.2
10 12 5 70.19 15.6
-11 -12 -5 2.2 8.7
23 -11 -5 8.4 8
-11 -12 -5 4.5 9.2
-23 11 5 12.5 10.3
-23 11 5 17.5 13
11 12 5 -0.5 7.1
11 12 5 -10.9 4.6
12 -23 5 24.8 16.4
24 -12 -5 29.6 10.7
-12 -12 -5 41.1 13.3
-24 12 5 36.5 13.6
12 -24 5 36.6 20.1
12 12 5 57.59 14.6
-24 12 5 58.59 14.2
12 12 5 49 10.5
-13 -12 -5 5.7 11.6
-13 -12 -5 7.2 11.5
25 -13 -5 8.8 8.4
12 -25 5 -1.4 14.5
13 12 5 5.8 9.4
13 12 5 5.6 7.5
-25 13 5 8.3 10.2
-13 -11 -5 -7.1 10.8
24 -13 -5 -3.9 6.7
-13 -11 -5 23.3 13.4
13 11 5 -7.5 5.4
13 11 5 3.8 9.2
-24 13 5 8.7 8
-24 13 5 11.3 9.6
11 -24 5 8 13.8
23 -13 -5 -3.3 6.6
-13 -10 -5 -2.8 10.3
-13 -10 -5 1.8 10.6
13 10 5 2.1 5.7
13 10 5 5.4 8.4
-23 13 5 -2.3 6.8
10 -23 5 -18.9 12.5
-23 13 5 3.1 7.1
-13 -9 -5 -1.2 9.9
-13 -9 -5 5.2 10.5
13 9 5 20.1 10.7
9 -22 5 8.2 14.2
13 9 5 -6.3 5.2
-22 13 5 12.7 6.6
-22 13 5 11.2 9.4
21 -13 -5 6 6.9
-13 -8 -5 19.7 10.9
-8 21 -5 -6.2 10.2
-13 -8 -5 14.9 11.3
8 -21 5 -0.5 12.4
13 8 5 14.6 9.4
-21 13 5 0.3 6.2
13 8 5 5.2 6.1
-21 13 5 -11.5 6.6
-7 20 -5 32.5 13.6
20 -13 -5 36.5 9.8
-13 -7 -5 17.7 12.6
-13 -7 -5 67.59 13.9
13 7 5 20.6 8.9
13 7 5 53.49 13.8
7 -20 5 43.3 17.9
-20 13 5 40.1 11.3
-20 13 5 47.8 12.4
19 -13 -5 9.1 7.1
-13 -6 -5 7.5 10
-13 -6 -5 -0.2 8.7
-6 19 -5 -11.7 10.4
13 6 5 9.4 9.3
-19 13 5 5.2 6.7
-19 13 5 10.4 8.1
6 -19 5 -18.2 10.4
13 6 5 8.1 6.6
-13 -5 -5 27 10.5
18 -13 -5 3.2 6.8
-18 13 5 20.1 7.9
-18 13 5 20.1 8.9
13 5 5 23.2 8
5 -18 5 20.6 14.7
13 5 5 11.7 10.3
-13 -4 -5 -0.8 8.6
17 -13 -5 6.9 6.3
-17 13 5 19.1 8
-17 13 5 4.1 6.2
13 4 5 17.1 8.6
4 -17 5 -4.7 10.8
16 -13 -5 10 6.2
-13 -3 -5 4 8.8
-3 16 -5 10 10
-16 13 5 14.5 7.3
13 3 5 4.3 6.4
-16 13 5 20.8 7.5
3 -16 5 26.5 13.5
13 3 5 25.3 10.4
3 -16 5 5.6 7
15 -13 -5 8.1 5.9
-2 15 -5 28.2 12.2
-13 -2 -5 14.2 9.6
2 -15 5 14.1 9.8
13 2 5 9.9 9.1
13 2 5 24.4 8.3
2 -15 5 20.5 13.1
-15 13 5 29.6 7.3
-15 13 5 15.5 6.9
-1 14 -5 18.8 11
-13 -1 -5 21.6 9.8
-14 13 5 36.5 7.3
13 1 5 13.6 7.7
13 1 5 11.5 8.8
1 -14 5 -1.1 14.9
-14 13 5 21.7 6.6
1 -14 5 39.8 12.3
-13 0 -5 -11.4 6.9
0 13 -5 15.5 11.3
13 0 5 6.2 7.8
13 0 5 14.8 7.7
0 -13 5 2.9 11.3
-13 13 5 3.6 3.9
0 -13 5 7.8 7.6
-13 13 5 9.2 4.5
1 12 -5 -11.9 7.8
-12 13 5 1.1 3.5
13 -1 5 0.5 7.4
-1 -12 5 -7.8 8.9
-12 13 5 5.7 3.8
-1 -12 5 -10.1 4.8
13 -1 5 4.5 6.4
2 11 -5 -10.8 7.1
-13 2 -5 2.5 8.9
-2 -11 5 1.4 9.9
-11 13 5 -0.1 3.2
13 -2 5 -1.1 7.3
-2 -11 5 -1.2 5.5
13 -2 5 -7.2 5.3
-13 3 -5 17.8 10.4
-3 -10 5 27.9 13.9
13 -3 5 15 9.2
-3 -10 5 1.9 6.4
13 -3 5 6.7 7.5
-13 4 -5 14.1 10.4
13 -4 5 26.3 11.1
13 -4 5 8.8 7.9
-4 -9 5 17.2 8.7
-4 -9 5 10.8 11.1
-13 5 -5 1 8.6
-5 -8 5 7.8 6.9
13 -5 5 -7.1 7.9
-5 -8 5 0.9 9.9
-13 6 -5 6.9 10.5
13 -6 5 9.8 9.1
-6 -7 5 20.4 11.3
-6 -7 5 19.8 9.4
-13 7 -5 4.4 10.4
13 -7 5 35 11.8
-7 -6 5 13.2 8.4
-7 -6 5 14.5 10.6
-13 8 -5 16.3 10.8
13 -8 5 -6.8 8.4
-8 -5 5 3.4 10.2
-8 -5 5 3.1 6.4
-13 9 -5 6.1 10.2
13 -9 5 12.3 10.1
-4 13 5 24 6
-4 13 5 19.6 5.1
-9 -4 5 9.4 6.9
-9 -4 5 23.5 11.8
-13 10 -5 22.4 11.3
-10 -3 5 21.1 8.3
-10 -3 5 21 11.7
-3 13 5 11.3 5.1
13 -10 5 13 11
-13 11 -5 -1.5 9.1
-11 -2 5 -6.6 5.1
-11 -2 5 -0.2 8.4
13 -11 5 -5.8 9.4
-2 13 5 3 4.7
-13 12 -5 0 9.4
-1 13 5 -7.7 4.4
13 -12 5 -2.7 9
-12 -1 5 -5.4 5.3
-12 -1 5 5.2 9.3
13 0 -5 -5.8 6.3
-13 13 -5 -6.7 8.7
13 -13 5 3.6 8.5
0 13 5 5.1 5.4
-13 0 5 7.6 10.1
-13 0 5 13.2 7.3
-13 14 -5 -3.8 9.8
14 -1 -5 8.8 8
-14 1 5 16.6 9.3
13 -14 5 -5.7 13.5
1 13 5 13.3 6.8
-13 15 -5 34.5 14.4
15 -2 -5 42.6 11.8
-15 2 5 33.4 10.1
-15 2 5 34.2 11.8
2 13 5 20.6 8.2
13 -15 5 12 12.2
-13 16 -5 27.6 12
16 -3 -5 22.6 10.5
3 13 5 19.9 5.2
-16 3 5 28.1 9.9
3 13 5 20.4 8.7
-16 3 5 34.9 10.8
13 -16 5 6.6 11.4
17 -4 -5 11.4 8.4
-17 4 5 6.4 7.6
-17 4 5 9.5 7.4
13 -17 5 20.8 13.1
4 13 5 1 6.8
4 13 5 8.7 4.7
18 -5 -5 6 9.9
13 -18 5 17.4 12.4
5 13 5 15.7 8.4
-18 5 5 16.6 9.2
5 13 5 17.4 5.5
-18 5 5 19.4 9
19 -6 -5 11.3 10
-13 19 -5 15.1 12.9
-19 6 5 2.7 8.6
-19 6 5 9.2 8.9
13 -19 5 5.7 13.3
6 13 5 8.4 4.9
6 13 5 15.1 8.6
20 -7 -5 55.59 13.4
-13 20 -5 15.8 14.5
7 13 5 41.2 16
13 -20 5 53.89 16.5
7 13 5 50.49 8.9
-20 7 5 58.19 14.7
-20 7 5 21.4 10.7
21 -8 -5 -10.2 6.4
-13 21 -5 21.3 13
13 -21 5 -21.9 8.9
-21 8 5 3.8 9.1
8 13 5 15.2 6.1
-21 8 5 0 7
8 13 5 5.1 8.1
22 -9 -5 -2.2 7.9
-9 -13 -5 2.3 6.4
13 -22 5 15.5 13.7
9 13 5 28.6 11.4
-22 9 5 2.3 8.7
9 13 5 15 6.4
-10 -13 -5 7.9 7.9
-23 10 5 15.8 10
13 -23 5 26.7 16
10 13 5 0.8 7.7
-23 10 5 -7.3 8
10 13 5 3 5.3
-11 -13 -5 -1 9.3
24 -11 -5 11.8 9.3
-11 -13 -5 8 9.5
11 13 5 11.2 10.1
11 13 5 9.5 6.2
13 -24 5 6.5 15.1
-24 11 5 6.5 10.1
-12 -13 -5 14.5 17.1
-12 -13 -5 1.1 9.9
25 -12 -5 4.5 7.8
-25 12 5 0.7 7.7
-25 12 5 0.3 8.2
12 13 5 2.4 9.7
13 -25 5 -15.4 12.9
12 13 5 7.7 6.7
26 -13 -5 30.8 12
-13 -13 -5 23.1 13.5
-13 -13 -5 17.6 12.8
13 13 5 10.4 12.6
13 13 5 43.1 10.4
-26 13 5 26.5 15.5
-14 -12 -5 74.89 19.8
26 -14 -5 53.89 14.3
-14 -12 -5 78.99 17.8
-26 14 5 43.1 16
14 12 5 63.89 21.5
14 12 5 64.79 13
-26 14 5 44.4 16.2
25 -14 -5 -7.6 6.1
-14 -11 -5 -4.1 10.6
-14 -11 -5 -11.6 11.6
11 -25 5 21.9 18.4
14 11 5 3.1 9.6
14 11 5 10.5 6.6
-25 14 5 1 8.1
24 -14 -5 6.9 8.2
-14 -10 -5 29.5 13.3
-14 -10 -5 35.3 15.1
10 -24 5 60.29 21.3
14 10 5 24.5 8.4
-24 14 5 31.1 13.6
-24 14 5 13.3 9.2
14 10 5 25.4 11.1
-14 -9 -5 -0.1 10.2
-14 -9 -5 21.5 11.6
23 -14 -5 13.7 7.5
-23 14 5 14 9.8
14 9 5 -9.5 7.8
14 9 5 -4.7 5.9
-23 14 5 7.5 7.7
9 -23 5 1.5 15.8
-14 -8 -5 57.09 15.2
-14 -8 -5 82.69 16.8
22 -14 -5 71.19 13.2
8 -22 5 29 17
-22 14 5 61.79 12.8
14 8 5 93.79 20.2
14 8 5 55.99 14.4
-22 14 5 61.89 16.3
-14 -7 -5 -9.2 9.3
-7 21 -5 8.4 11.1
-14 -7 -5 -9.6 8.9
21 -14 -5 3.1 6.2
-21 14 5 13.2 9.3
7 -21 5 -8.5 11.4
14 7 5 11 7.2
-21 14 5 13.2 7.9
14 7 5 4.9 9.3
-14 -6 -5 127.59 20
-14 -6 -5 101.39 18.5
20 -14 -5 120.19 17.3
-6 20 -5 86.29 21.2
14 6 5 108.29 19.3
6 -20 5 97.39 22.6
-20 14 5 95.29 16.3
-20 14 5 97.69 16.9
14 6 5 101.19 16.3
19 -14 -5 -1.5 5.7
-14 -5 -5 -3.3 9.7
-5 19 -5 -8.1 10.8
5 -19 5 19.1 13.8
14 5 5 17.9 7.9
5 -19 5 -2.7 12.3
-19 14 5 2.4 6.5
-19 14 5 -4.6 7.2
14 5 5 7.6 8.6
18 -14 -5 72.79 12.6
-14 -4 -5 67.39 15.1
14 4 5 82.19 14.5
14 4 5 78.69 16.8
-18 14 5 98.19 14.8
4 -18 5 62.59 18.7
-14 -3 -5 3.9 9.3
17 -14 -5 4.9 5.7
-17 14 5 2.3 6
14 3 5 -0.2 7.6
-17 14 5 7.1 6.2
3 -17 5 0.5 13
14 3 5 9.5 8.2
-14 -2 -5 130.29 20
16 -14 -5 102.89 14.6
-2 16 -5 89.29 19.9
-16 14 5 128.69 14.9
14 2 5 82.99 15.2
2 -16 5 83.49 20.1
2 -16 5 125.99 22.6
-16 14 5 86.09 14
-14 -1 -5 -13.2 8
-1 15 -5 -8.2 9.1
-15 14 5 6.1 5.6
1 -15 5 17.3 7.8
14 1 5 -1.5 7.7
-15 14 5 5 4.8
14 1 5 -5.7 5
1 -15 5 -2.4 11.5
-14 0 -5 49.2 12.8
0 14 -5 25.2 13.2
-14 14 5 36.4 7.5
14 0 5 54.79 13.4
14 0 5 53.59 13.1
0 -14 5 49.6 12.4
0 -14 5 28.5 16
-14 14 5 27.3 7.1
1 13 -5 30.7 13.3
-14 1 -5 16.1 10
-13 14 5 26.7 5.8
14 -1 5 5.1 8
-1 -13 5 4.6 12.9
14 -1 5 14.4 9.2
-13 14 5 15.7 5.3
-1 -13 5 16.9 10.4
2 12 -5 49.8 14
-14 2 -5 44.9 13.4
14 -2 5 48.7 12.1
14 -2 5 54.29 13.8
-2 -12 5 62.79 14.1
-2 -12 5 70.79 16.6
-14 3 -5 7.8 10.3
14 -3 5 3.4 5.9
-3 -11 5 18.1 9.3
14 -3 5 -4.5 7.4
-3 -11 5 11.2 11.9
-14 4 -5 56.49 14.5
14 -4 5 38.8 11.4
-4 -10 5 50.89 12.6
14 -4 5 66.69 14.1
-4 -10 5 58.99 14.9
-14 5 -5 -3 8.7
14 -5 5 -3.8 8.1
-5 -9 5 3.3 9.5
-5 -9 5 4.2 6.5
14 -5 5 0 7
-14 6 -5 59.59 14.5
14 -6 5 70.39 15.6
-6 -8 5 56.59 13.2
-6 -8 5 67.89 15.7
-14 7 -5 -3.5 9.3
-7 -7 5 -4.5 8.9
-7 -7 5 3.8 6.8
14 -7 5 4.3 9.2
-14 8 -5 58.19 15.9
-6 14 5 89.69 10.5
-8 -6 5 77.59 16.9
14 -8 5 79.89 17
-8 -6 5 77.29 16.1
-14 9 -5 2.5 10.1
-5 14 5 7.7 5.5
14 -9 5 10.3 10.4
-9 -5 5 13.6 11.1
-9 -5 5 7.8 7.4
-5 14 5 8 4.3
-14 10 -5 66.79 15.8
-10 -4 5 52.19 11.7
-4 14 5 83.39 11.1
-4 14 5 62.09 9.4
-10 -4 5 65.79 15.8
14 -10 5 58.89 15.7
-14 11 -5 -9.9 8.7
-11 -3 5 13 8
14 -11 5 15.9 9.8
-3 14 5 18.5 5.7
-11 -3 5 -7.5 9.2
-14 12 -5 47.8 15.3
-2 14 5 73.49 10.7
-12 -2 5 42.1 11.3
14 -12 5 48.2 15.4
-12 -2 5 54.89 14.3
-14 13 -5 5.9 10.7
13 1 -5 18.4 9.9
-1 14 5 15.2 6.9
-13 -1 5 13.7 10.9
14 -13 5 40 20.8
-13 -1 5 12.9 9.2
14 0 -5 18.8 9.8
-14 14 -5 21.9 11.8
0 14 5 46.9 9.4
14 -14 5 63.49 16.9
-14 0 5 39.6 11.3
-14 0 5 44 12.6
15 -1 -5 11.3 7.7
-14 15 -5 13.3 10.3
14 -15 5 5.3 11.5
1 14 5 -12.1 5.1
-15 1 5 -2.4 6.9
-15 1 5 -3 7.1
16 -2 -5 93.09 25.7
-14 16 -5 76.09 23.8
-16 2 5 125.19 19
2 14 5 111.99 15.6
14 -16 5 90.39 19
-16 2 5 80.49 15.7
17 -3 -5 4.1 8.3
3 14 5 -2.5 6.1
-17 3 5 -8.8 6.8
14 -17 5 18.4 12.7
-17 3 5 26.3 9.4
3 14 5 7.6 4.1
18 -4 -5 96.19 17.4
-14 18 -5 80.49 27.4
-18 4 5 60.89 14.2
4 14 5 71.49 9.9
14 -18 5 92.19 20.1
4 14 5 79.69 14.7
-18 4 5 81.29 16.4
-14 19 -5 5.3 11.6
19 -5 -5 2.6 8.6
5 14 5 3.1 4.3
14 -19 5 4.9 12.3
-19 5 5 7.8 9.4
5 14 5 1.8 6.8
-14 20 -5 91.99 22
20 -6 -5 86.99 18.6
6 14 5 104.09 12.8
6 14 5 134.99 17.8
14 -20 5 70.19 19
-20 6 5 115.79 20.5
-20 6 5 87.29 17.5
-14 21 -5 27.8 14.9
21 -7 -5 7.3 8
-21 7 5 -3.3 9.1
7 14 5 6.1 5.6
7 14 5 16.9 10.3
14 -21 5 -13.3 10.8
22 -8 -5 45.1 13.5
14 -22 5 19.9 15.6
8 14 5 67.49 14.5
-22 8 5 60.39 15.6
8 14 5 58.59 10.6
-22 8 5 29.7 10.9
23 -9 -5 -5.6 7
9 14 5 5.1 9.3
9 14 5 8.2 5.3
-23 9 5 -3.6 9.5
-23 9 5 23.2 10.3
14 -23 5 -10.5 12.6
-10 -14 -5 37.3 9.6
24 -10 -5 16.4 9.4
-24 10 5 31.6 13
10 14 5 39.7 13
10 14 5 20.9 7.8
14 -24 5 20.7 15.5
-11 -14 -5 -9.7 8.4
25 -11 -5 5.1 9.4
-11 -14 -5 -3.8 9.7
-25 11 5 6.2 10.7
14 -25 5 -15.4 13
11 14 5 4.3 5.8
-12 -14 -5 49.5 14.1
26 -12 -5 70.39 16.3
-12 -14 -5 83.29 22.5
12 14 5 49.9 11.2
-26 12 5 84.79 22.6
-15 -11 -5 39.8 15.8
26 -15 -5 16.8 10.2
-15 -11 -5 20 14.1
-26 15 5 32.3 12.3
-26 15 5 19.2 14
15 11 5 8.1 6.9
-15 -10 -5 -1.2 13.3
-15 -10 -5 12.1 12.2
25 -15 -5 2.4 7.5
-25 15 5 -7.7 8.4
10 -25 5 1.7 14.5
-25 15 5 -2.7 8.7
15 10 5 -3.8 5.6
15 10 5 -5.2 8.7
-15 -9 -5 0.2 11.2
-15 -9 -5 -14.6 11.7
24 -15 -5 11.7 7.5
15 9 5 -0.7 9.2
9 -24 5 -15.9 13.3
-24 15 5 21.1 10.7
-24 15 5 0 7.5
15 9 5 8.3 7.2
-15 -8 -5 3.8 11.2
23 -15 -5 7.9 13.7
-15 -8 -5 -3.2 10.6
8 -23 5 14.3 11.5
8 -23 5 4.1 13.7
-23 15 5 -2.5 6.8
15 8 5 0.9 7
-23 15 5 -4.9 8.6
15 8 5 6.4 9.3
22 -15 -5 1 6.5
-15 -7 -5 9.7 11.2
-15 -7 -5 8.6 11.5
7 -22 5 20.7 15.1
7 -22 5 9.8 9.9
-22 15 5 3.3 8
15 7 5 26 9.3
15 7 5 11.6 9.5
-22 15 5 18.9 9.5
21 -15 -5 -6.5 5.7
-15 -6 -5 -6.3 9.7
-15 -6 -5 -8.9 9.6
-6 21 -5 -9.5 11.1
15 6 5 10 9.3
15 6 5 -1.3 5.8
-21 15 5 4.8 7.3
6 -21 5 -4.7 7.4
-21 15 5 -5.1 7.6
6 -21 5 8.7 13.8
-5 20 -5 21.9 13.5
-15 -5 -5 4.6 10.9
-15 -5 -5 18.7 11.9
20 -15 -5 20.3 7.7
5 -20 5 11.2 10.1
-20 15 5 20.7 10.9
15 5 5 5.8 10
-20 15 5 33.4 10.1
5 -20 5 5.3 14
15 5 5 -0.4 9.2
-4 19 -5 8 11.4
-15 -4 -5 11.7 10.9
19 -15 -5 6.2 6.2
15 4 5 17.1 8.7
-19 15 5 11.5 7.7
4 -19 5 7.8 12.7
-19 15 5 0.2 7.1
15 4 5 -2.9 8.4
4 -19 5 10.1 13.4
18 -15 -5 5.4 5.8
-3 18 -5 -4.2 14.1
-15 -3 -5 2 10
-18 15 5 5.1 6.4
3 -18 5 12.4 9.4
15 3 5 -4.9 5.9
-18 15 5 0.9 6.6
3 -18 5 14.3 13.9
15 3 5 13.6 9.8
-15 -2 -5 15.2 11.6
17 -15 -5 19.1 7.1
-17 15 5 34.4 8.8
2 -17 5 22.7 13.4
-17 15 5 33.4 9.2
15 2 5 35.1 11.8
15 2 5 39.6 11.4
16 -15 -5 24.3 6.9
-1 16 -5 28.6 14.5
-15 -1 -5 28 12.1
-16 15 5 15.4 6.5
-16 15 5 10.8 6.8
15 1 5 20 9.4
15 1 5 22.8 11.2
1 -16 5 -4.2 10.9
-15 0 -5 23.3 11.4
0 15 -5 29.5 14.2
15 0 5 17.4 10.7
0 -15 5 32.7 15
15 0 5 10.2 8.3
0 -15 5 17.7 10.8
-15 15 5 20.3 6.7
-15 15 5 27.5 7
-15 1 -5 5 9.4
1 14 -5 13 11.7
-14 15 5 1.9 4.7
-1 -14 5 -7.7 5.2
15 -1 5 3.6 6.9
-15 2 -5 31 12
2 13 -5 35.2 13
15 -2 5 15.6 9.1
-13 15 5 14.9 5.4
-2 -13 5 14.2 14
-2 -13 5 13.4 8.2
15 -2 5 12.8 10.3
-15 3 -5 3.2 10.1
-3 -12 5 -6.8 17.5
-3 -12 5 -7.1 5.1
15 -3 5 1.9 7.6
15 -3 5 1.7 8
-15 4 -5 -0.1 9.3
15 -4 5 17.4 10.2
15 -4 5 2.5 6.7
-4 -11 5 -2.5 10.8
-4 -11 5 6.8 7.2
-15 5 -5 -12 8.4
-5 -10 5 -8.6 9
15 -5 5 7.8 7.7
15 -5 5 -7.4 7.2
-15 6 -5 23.5 12.2
15 -6 5 20.8 9.2
-6 -9 5 57.49 15.5
15 -6 5 31.7 11.8
-15 7 -5 -3.9 9.2
-7 -8 5 6.2 11.2
15 -7 5 -2.9 8.2
15 -7 5 0.6 6.2
-15 8 -5 -9 8.7
-7 15 5 6.1 5
-8 -7 5 6.4 11
-8 -7 5 14.6 7.1
15 -8 5 7.3 9.2
-15 9 -5 10.8 11.3
15 -9 5 25.7 11.3
-9 -6 5 55.19 13.8
-6 15 5 34.1 7.6
-9 -6 5 15.1 12.2
-15 10 -5 -18.1 8.7
-10 -5 5 -7.4 5.1
-5 15 5 -5.5 5.2
15 -10 5 9.1 9.1
-10 -5 5 -1.4 11.1
-15 11 -5 20.7 11.9
-11 -4 5 -13.4 8.5
15 -11 5 12 11.3
-11 -4 5 -2.8 5.9
-4 15 5 11.8 6.4
-15 12 -5 22.1 11.9
-12 -3 5 -5.2 6.3
-12 -3 5 -1.4 8.3
-3 15 5 -3.5 5
-15 13 -5 -1.3 10.5
15 -13 5 5.3 10.1
-2 15 5 25.7 7.6
-13 -2 5 17.6 12.5
-13 -2 5 23.6 11.1
-15 14 -5 -5.7 9.4
14 1 -5 -7.4 7.2
15 -14 5 -3.6 9.7
-14 -1 5 -4.4 6.6
-14 -1 5 3 9.6
-1 15 5 9.2 6.6
-15 15 -5 21.3 12.5
15 0 -5 25 11.3
0 15 5 33.6 8.9
-15 0 5 23.2 9.4
15 -15 5 17.4 12
-15 0 5 8.6 8.3
-15 0 5 12.7 11.2
16 -1 -5 18.9 9.9
-16 1 5 27.6 10.1
-16 1 5 8.3 9.7
1 15 5 21.7 8.2
15 -16 5 6.8 11.6
17 -2 -5 25.1 10.3
-17 2 5 17.6 9.4
-17 2 5 24.9 10.5
15 -17 5 47.9 15.6
2 15 5 19.4 9
18 -3 -5 7.6 8.8
-15 18 -5 18.5 22.7
-18 3 5 -13.7 6.2
3 15 5 0.4 7
-18 3 5 -3.1 6.8
15 -18 5 -3.2 10.9
19 -4 -5 6.8 9.4
-15 19 -5 12.9 12.7
4 15 5 14.5 8.1
4 15 5 11.8 4.5
15 -19 5 2.5 11.2
-19 4 5 -4.1 7.4
-19 4 5 8.6 9.5
20 -5 -5 15.1 10.4
-15 20 -5 30.7 14.4
15 -20 5 30.2 12.9
-20 5 5 13.2 11.4
5 15 5 22.9 9.9
-20 5 5 10.7 10.7
5 15 5 11.3 6.7
-15 21 -5 -1.2 11.6
21 -6 -5 10.6 9.3
-21 6 5 -6.4 6
-21 6 5 5.1 9.7
6 15 5 -3.6 4
6 15 5 -4 7.9
22 -7 -5 3 9
15 -22 5 -4.2 11.6
7 15 5 6.6 5
7 15 5 11.8 9.8
-22 7 5 1.6 9.3
-22 7 5 4.8 8.7
23 -8 -5 5.5 8
8 15 5 1.9 4.6
-23 8 5 8.9 8.1
15 -23 5 -8.7 11.3
24 -9 -5 -10 6.9
9 15 5 9.2 6
15 -24 5 18.4 14
-24 9 5 6.8 9.4
-24 9 5 16.7 12.2
25 -10 -5 -8.9 6.9
10 15 5 -10.9 4.7
-25 10 5 7 11.9
15 -25 5 -3.8 14.1
-11 -15 -5 -0.7 9
26 -11 -5 3 9.2
11 15 5 24.6 7.9
-16 -10 -5 30.9 14.3
26 -16 -5 26.6 10.6
16 10 5 23.6 9.8
-26 16 5 42.3 15.4
16 10 5 37.9 16.3
-26 16 5 52.69 14.8
-16 -9 -5 4.7 11.7
25 -16 -5 -0.2 7.1
16 9 5 1.9 7
-25 16 5 -5.3 10
9 -25 5 5.1 15.4
16 9 5 -3.8 9.7
-16 -8 -5 24 12.7
24 -16 -5 7.8 8.2
-16 -8 -5 33 15.7
-24 16 5 41.9 14.7
8 -24 5 44.4 19.9
-24 16 5 20.6 10.4
16 8 5 33.3 14.1
16 8 5 54.39 12.6
-16 -7 -5 -15.5 10.3
23 -16 -5 -4.2 5.6
-16 -7 -5 15.1 12.3
16 7 5 3.3 6.6
-23 16 5 4.1 9.1
7 -23 5 9.4 14.4
16 7 5 13.5 11.2
-23 16 5 2.9 7.2
-16 -6 -5 74.09 15.9
-16 -6 -5 30.1 14.6
22 -16 -5 20.3 8.7
16 6 5 31.2 10.1
6 -22 5 16.6 16.2
6 -22 5 6.3 8.9
-22 16 5 21.6 9
16 6 5 47.5 13.6
-22 16 5 39.8 11.5
21 -16 -5 12.5 7.2
-5 21 -5 -0.3 14
-16 -5 -5 -2.6 10.4
-16 -5 -5 -2.5 10.3
16 5 5 4 7.1
5 -21 5 -0.2 8.3
5 -21 5 -24.4 10.7
-21 16 5 7.9 7.2
16 5 5 1.1 9
-21 16 5 10.8 8.7
20 -16 -5 79.29 12.5
-4 20 -5 27.8 14.1
-16 -4 -5 74.29 16.7
-20 16 5 60.29 12.1
16 4 5 58.49 14.9
16 4 5 59.99 13.3
4 -20 5 54.79 13.7
4 -20 5 64.19 19.1
19 -16 -5 15.7 7.2
-16 -3 -5 27 12.1
-3 19 -5 20.1 12.7
16 3 5 16.2 9.7
3 -19 5 -24.5 11.2
16 3 5 10.8 7.2
-19 16 5 16.7 8.5
3 -19 5 7.5 9.1
-19 16 5 -1.6 6.3
-16 -2 -5 78.69 16.2
-2 18 -5 53.69 21
18 -16 -5 72.99 11.9
16 2 5 68.99 13.9
16 2 5 94.39 18
-18 16 5 73.19 13.1
2 -18 5 79.39 20.1
17 -16 -5 8.1 6.1
-16 -1 -5 7.9 10.6
-17 16 5 3.4 6.5
16 1 5 -4.1 5.9
1 -17 5 4.1 12.4
16 1 5 8.9 9.5
-16 0 -5 128.99 21.5
16 0 5 110.79 25.7
0 -16 5 101.79 21.9
16 0 5 80.69 18.4
-16 16 5 90.39 13.7
1 15 -5 3.1 10.3
-16 1 -5 18 11.3
-15 16 5 8 6.1
16 -1 5 26.2 13.9
16 -1 5 13.9 10.4
-1 -15 5 6.7 13
-16 2 -5 103.49 18.8
-2 -14 5 101.69 21.2
16 -2 5 108.09 19
-14 16 5 110.19 13.4
16 -2 5 106.49 19.3
-16 3 -5 15.4 12
-3 -13 5 31.4 13.2
-3 -13 5 37 12.7
-13 16 5 17.4 6.1
16 -3 5 23.7 11.1
16 -3 5 35 11.5
-16 4 -5 129.49 21.5
-12 16 5 110.29 13.5
-4 -12 5 141.09 23.5
-4 -12 5 80.99 17.1
16 -4 5 136.49 23.4
16 -4 5 151.38 19.4
-16 5 -5 103.39 19
16 -5 5 102.39 17.4
-5 -11 5 93.39 26.7
-16 6 -5 226.08 28.6
16 -6 5 213.78 26.6
-16 7 -5 96.59 19
-7 -9 5 93.49 19.5
16 -7 5 95.89 19.5
-16 8 -5 180.08 26
-8 16 5 158.48 17.6
16 -8 5 142.39 26.9
-8 -8 5 210.98 27.4
-16 9 -5 82.69 17.9
-9 -7 5 66.19 18.1
16 -9 5 84.29 23.8
-7 16 5 106.99 13
-16 10 -5 187.88 29.7
-10 -6 5 202.38 28.4
-6 16 5 210.58 21.6
16 -10 5 221.38 30.7
-16 11 -5 96.59 19.1
-11 -5 5 117.49 21.1
-5 16 5 73.19 12.4
-11 -5 5 70.89 13.9
16 -11 5 83.09 18
-16 12 -5 140.59 23.3
-4 16 5 106.99 16.1
16 -12 5 125.39 22.4
-12 -4 5 147.59 23.1
-12 -4 5 108.59 19.2
-16 13 -5 9.6 12.2
-13 -3 5 18.1 11.4
-13 -3 5 15.2 9.3
16 -13 5 13 10.5
-16 14 -5 84.29 19.5
14 2 -5 77.79 16.7
-14 -2 5 86.19 15.4
-14 -2 5 75.19 19.5
-14 -2 5 142.29 18.4
16 -14 5 113.39 20.8
15 1 -5 34.3 10.7
-15 -1 5 1.3 11.9
-15 -1 5 9.7 8.5
-15 -1 5 13.1 8.5
16 -15 5 3.8 11.3
16 0 -5 81.99 17
16 -16 5 113.09 21.2
-16 0 5 107.99 25.1
-16 0 5 73.79 17
-16 0 5 96.09 17
17 -1 -5 -5.7 7.1
-17 1 5 -3.3 7.2
-17 1 5 1 8
16 -17 5 1.4 10.4
-16 18 -5 66.99 18.3
18 -2 -5 83.39 17.5
-18 2 5 115.19 26.1
-18 2 5 100.79 18.2
16 -18 5 82.39 19.5
19 -3 -5 24.1 11.3
-16 19 -5 2.4 13.1
-19 3 5 6.1 8.9
16 -19 5 2.8 11.7
-19 3 5 -1.4 7.8
-16 20 -5 32.6 16.8
20 -4 -5 76.79 16.8
4 16 5 77.59 9.2
16 -20 5 36 15.6
-20 4 5 91.59 17.7
-20 4 5 71.89 16.2
21 -5 -5 30.2 12.6
-21 5 5 6.4 10.6
-21 5 5 8 9.9
16 -21 5 -0.1 12.5
22 -6 -5 24.5 12.4
-22 6 5 29.8 11.8
6 16 5 26.8 6.5
16 -22 5 27.2 14.5
23 -7 -5 1.2 8.3
-23 7 5 13.6 11
7 16 5 -0.7 5
16 -23 5 11.5 14.7
24 -8 -5 47.1 13.8
-24 8 5 49.2 14.9
16 -24 5 34.8 16.6
8 16 5 36.4 8.2
25 -9 -5 -15.4 6.7
16 -25 5 -11.2 12.8
-25 9 5 -8.5 14.6
9 16 5 5.8 5.3
26 -10 -5 46 14.5
10 16 5 48.5 10.3
-17 -9 -5 1.6 14.4
26 -17 -5 24.3 10.2
17 9 5 15.3 10.6
9 -26 5 47.8 24.9
17 9 5 29.7 9.6
-17 -8 -5 3.1 13.5
25 -17 -5 -10.2 5.6
17 8 5 6.9 7.6
17 8 5 1.7 17.6
-25 17 5 -8.1 9.3
-17 -7 -5 -3.6 12.5
24 -17 -5 -3.2 8.2
17 7 5 -0.9 6.7
17 7 5 -4.8 8.7
-24 17 5 12.5 9.4
7 -24 5 0.2 14
23 -17 -5 -4.3 6.2
-17 -6 -5 21.9 11.6
6 -23 5 1.6 13.7
-23 17 5 -3.9 7.2
17 6 5 0.7 6.8
17 6 5 7.6 9.9
-17 -5 -5 0.5 9.9
22 -17 -5 0.2 5.9
17 5 5 -8.3 8.2
5 -22 5 -0.4 14
17 5 5 -9.9 4.5
5 -22 5 -0.5 8
-22 17 5 -2.5 7.6
21 -17 -5 -4 5.4
-17 -4 -5 23.9 11.7
4 -21 5 -11.5 11.7
-21 17 5 10.9 8.6
4 -21 5 2.5 9.5
17 4 5 -15.8 7.7
17 4 5 14.5 8
20 -17 -5 4.6 5.8
-17 -3 -5 1.6 9.4
-3 20 -5 -1 11.4
17 3 5 19.8 10.7
3 -20 5 1.3 9.4
17 3 5 4.3 7.1
3 -20 5 29.4 18
-2 19 -5 7.2 12.9
19 -17 -5 9.2 5.7
-17 -2 -5 -1.5 9.9
2 -19 5 10.1 8.5
2 -19 5 -14.6 11.5
17 2 5 2.7 9
-19 17 5 -0.3 6.8
17 2 5 7.3 7.7
-1 18 -5 2.5 11.6
18 -17 -5 7.5 5.8
-17 -1 -5 16.4 11.6
1 -18 5 -4.4 7.5
17 1 5 -5.7 7.5
17 1 5 12.6 8.7
-18 17 5 5.5 7.1
1 -18 5 5.6 12.8
-17 0 -5 4 10.2
0 17 -5 21.7 17.1
17 0 5 1.1 7.9
0 -17 5 2.4 12.2
17 0 5 19.6 11
0 -17 5 -4.5 10.4
-17 17 5 9.6 7
-17 1 -5 -13.9 8.6
-1 -16 5 -8.7 11.5
17 -1 5 -4.2 5.8
-16 17 5 -5.2 5.9
-1 -16 5 -1.1 7.6
17 -1 5 10.5 9.2
-17 2 -5 16.8 11.5
17 -2 5 23.6 8.8
-2 -15 5 43.5 16.7
-15 17 5 31.6 8.1
17 -2 5 32.7 12.7
-17 3 -5 1.6 9.1
17 -3 5 14 9.8
-14 17 5 -1 5.4
-3 -14 5 4 12.7
17 -3 5 8.2 7.8
-17 4 -5 17.5 11.3
17 -4 5 3.6 8.5
-13 17 5 8.8 5.8
17 -4 5 12 8.8
-4 -13 5 24.2 13.4
-17 5 -5 -11.4 9.6
17 -5 5 -7.2 6.1
-5 -12 5 10.6 12.9
-12 17 5 21.6 6.3
17 -5 5 0.9 8.4
-17 6 -5 -8.8 10.7
17 -6 5 6.1 7
-6 -11 5 -6.8 10.3
17 -6 5 -8 7.6
-11 17 5 2.2 5.2
-17 7 -5 5.5 10.1
17 -7 5 3.1 8.8
-7 -10 5 -0.9 10.9
-10 17 5 4.7 5.9
17 -7 5 11.2 8.8
-17 8 -5 15.1 12.3
-9 17 5 -1.3 5.8
-8 -9 5 -0.1 12
17 -8 5 -3.6 6.2
17 -8 5 -9.1 8.3
-17 9 -5 -8.4 8.9
-9 -8 5 14.6 14.4
17 -9 5 13 8.1
-8 17 5 -4.1 5.7
17 -9 5 -6.8 8.5
-17 10 -5 -8.7 9.9
-10 -7 5 7.4 15.8
17 -10 5 -12.6 8.2
17 -10 5 -2.3 7.3
-7 17 5 0.7 5.8
-17 11 -5 2 10.2
17 -11 5 7.7 10
-6 17 5 9.2 6.6
-17 12 -5 6.5 9.2
-12 -5 5 -1.1 15.6
-5 17 5 -2.3 6.4
-12 -5 5 12.1 7.6
17 -12 5 10.4 9.6
-17 13 -5 34.8 16.4
17 -13 5 17.3 11.7
-13 -4 5 15.8 16.5
-13 -4 5 6.6 8.3
-4 17 5 27.9 8.9
-14 -3 5 9.9 7.9
-14 -3 5 2.1 7.4
-14 -3 5 -11 10.5
17 -14 5 -0.5 9.8
15 2 -5 30 11.9
-15 -2 5 27.6 14.2
-15 -2 5 40.6 12.7
-15 -2 5 20.9 9.4
17 -15 5 24.4 13.5
16 1 -5 7.7 8.3
-17 16 -5 22.2 20.4
-16 -1 5 11.8 9.7
-16 -1 5 6.7 8.6
17 -16 5 -3.3 10.5
-16 -1 5 -2.6 11
-17 17 -5 -1.4 10.4
17 0 -5 7.7 8.4
17 -17 5 16.3 12.4
-17 0 5 3.6 8.1
-17 0 5 -1.2 7.3
-17 0 5 3.8 10.2
-17 18 -5 11 12.5
18 -1 -5 -0.1 9.2
17 -18 5 9.5 11.7
-18 1 5 25.2 11.2
-18 1 5 -4.1 8.1
19 -2 -5 7.9 8.8
-17 19 -5 8.5 13.3
-19 2 5 21 10.4
17 -19 5 15.9 12.2
-19 2 5 -3.6 6.9
-17 20 -5 1.2 14.5
20 -3 -5 9.3 10.1
17 -20 5 -5.2 9.5
-20 3 5 -13 7.8
-20 3 5 18.7 9.8
21 -4 -5 -3.8 7.1
-21 4 5 7.5 9.4
17 -21 5 2.8 12.5
22 -5 -5 -8.9 7.2
-22 5 5 18.6 11
-22 5 5 -1.1 10.3
17 -22 5 9.3 14.4
23 -6 -5 9.3 9.9
-23 6 5 8.4 9.8
6 17 5 10.5 5
17 -23 5 26.9 16
24 -7 -5 -7.8 7.6
17 -24 5 19.4 16.6
-24 7 5 -0.3 9.4
7 17 5 -0.4 4.6
25 -8 -5 -17.8 7.5
17 -25 5 5.9 16.1
8 17 5 -8.4 4.5
26 -9 -5 32.2 12
9 17 5 9.2 6.6
-18 -7 -5 6.9 13.6
25 -18 -5 0 6.2
18 7 5 7.2 7.6
18 7 5 18.4 14.2
-25 18 5 17.7 11
-18 -6 -5 23.9 14.8
24 -18 -5 27.4 9.3
18 6 5 32.4 13.6
18 6 5 46.5 12.3
-24 18 5 26.5 11.1
6 -24 5 14.1 18.6
23 -18 -5 7.9 7.2
-18 -5 -5 1.3 12.2
5 -23 5 -4.8 12.4
18 5 5 9 7.5
18 5 5 -2.4 8.1
-23 18 5 -1.8 8.6
22 -18 -5 20.8 8.6
-22 18 5 42.9 12.8
18 4 5 51.79 15.1
18 4 5 47.6 12.7
4 -22 5 14.6 16
21 -18 -5 -2.3 5.3
18 3 5 30 13
18 3 5 21.4 8.7
3 -21 5 11.8 9.1
3 -21 5 28.1 17.7
-21 18 5 17.9 9.7
-18 -2 -5 20.5 12.7
-2 20 -5 15.6 15.3
20 -18 -5 62.39 10.2
18 2 5 58.09 13.9
2 -20 5 35.1 16.4
18 2 5 68.99 16
2 -20 5 50.09 14.2
19 -18 -5 6.4 5.4
-18 -1 -5 23.5 11.4
-1 19 -5 9.4 11.9
-19 18 5 12.5 8.6
18 1 5 29 11.5
1 -19 5 13.1 13.9
1 -19 5 7 8.4
18 1 5 -4.8 8.7
0 18 -5 15.8 13.6
-18 0 -5 57.79 14.4
18 0 5 43 11.6
0 -18 5 28.2 11
-18 18 5 26.2 9.1
0 -18 5 33.5 15.5
18 0 5 27.8 11.2
-18 1 -5 28 12.2
1 17 -5 -3.6 12.1
18 -1 5 1 8.8
-1 -17 5 14.5 9.7
18 -1 5 2.3 6.5
-17 18 5 8 7.5
-1 -17 5 12.9 12.9
-18 2 -5 109.39 19.3
-2 -16 5 51.59 14.5
18 -2 5 89.99 17.1
18 -2 5 69.39 18.3
-2 -16 5 125.79 24.5
-16 18 5 105.99 14.9
-18 3 -5 17.7 11.4
-3 -15 5 -6.1 12.9
-15 18 5 6.4 6.5
-3 -15 5 -10.1 10.6
18 -3 5 5.3 10.2
18 -3 5 -0.2 7.3
-18 4 -5 101.29 19.7
18 -4 5 79.59 16.2
-4 -14 5 94.59 21.7
-4 -14 5 96.89 21.5
18 -4 5 101.99 19
-14 18 5 74.09 12.4
-18 5 -5 20.8 12
18 -5 5 5.2 8.6
-13 18 5 11.8 6.6
18 -5 5 15.9 10.6
-5 -13 5 28.5 13.8
-18 6 -5 105.49 20.6
-12 18 5 95.89 13.6
-6 -12 5 84.09 20.3
18 -6 5 118.59 19.4
18 -6 5 110.59 20.7
-18 7 -5 71.09 17.8
-11 18 5 75.09 11.4
18 -7 5 69.69 15.7
18 -7 5 82.19 16
-7 -11 5 62.79 17.7
-18 8 -5 101.49 19.6
18 -8 5 75.29 16.1
18 -8 5 88.79 18
-10 18 5 100.39 13.4
-8 -10 5 92.99 19.7
-18 9 -5 67.59 15.4
-9 18 5 17.8 7.2
-9 -9 5 13.8 13.1
18 -9 5 17.1 9.7
18 -9 5 51.79 13
-18 10 -5 79.39 19.1
-10 -8 5 90.99 20.5
18 -10 5 107.09 18.7
18 -10 5 68.09 17.5
-8 18 5 92.59 13.2
-18 11 -5 38.1 18.1
18 -11 5 65.89 15.6
18 -11 5 45.1 12.5
-7 18 5 61.69 11
-11 -7 5 74.09 17.8
-6 18 5 104.19 14.9
-12 -6 5 101.39 21.6
18 -12 5 68.79 17.4
-13 -5 5 34.2 14.5
-5 18 5 4.9 8.1
-13 -5 5 8.3 9.7
18 -13 5 21.8 11
-14 -4 5 94.29 20.2
-14 -4 5 105.29 18.2
18 -14 5 70.39 18.4
-4 18 5 95.89 15.1
15 3 -5 3.8 8.8
-15 -3 5 12.8 8.7
18 -15 5 -6.6 9.8
-15 -3 5 3.2 11.1
-15 -3 5 -9.7 6.8
-18 16 -5 141.99 24.1
16 2 -5 130.69 22.2
-16 -2 5 102.69 19.9
-16 -2 5 80.89 21
18 -16 5 94.49 20.5
-16 -2 5 94.59 18.3
17 1 -5 15.2 9.8
-18 17 -5 1 12.4
-17 -1 5 9.5 9.3
18 -17 5 22.7 12.1
-17 -1 5 10.4 8.4
-17 -1 5 23.3 13.7
-18 18 -5 38.7 14.7
18 0 -5 25.2 11.7
-18 0 5 7 11.7
-18 0 5 40.5 13.5
18 -18 5 71.79 17.5
-18 0 5 26.1 12.3
19 -1 -5 3 9.7
-18 19 -5 -1.4 12.2
18 -19 5 1.2 11
-19 1 5 4 7.4
20 -2 -5 45 14.5
-20 2 5 47.1 14.2
18 -20 5 30.4 15.4
-20 2 5 60.99 15.6
21 -3 -5 15.7 10.5
-21 3 5 11.6 13.5
-21 3 5 26.8 11.3
18 -21 5 11.7 13.5
22 -4 -5 46.7 13.1
-22 4 5 35.8 15
18 -22 5 39.4 17.5
23 -5 -5 2.3 8.8
-23 5 5 9.5 11.1
18 -23 5 46.4 16.4
24 -6 -5 29.7 12.9
18 -24 5 -5.1 13.3
25 -7 -5 -12.6 7.7
18 -25 5 14.1 15.1
7 18 5 3.5 4.9
-19 -6 -5 -10.7 13.4
25 -19 -5 -8.6 5.9
-19 -6 -5 -21 13
-25 19 5 -14.1 9.6
19 6 5 0 7.7
6 -25 5 5.1 16.3
19 6 5 -13.9 9
-19 -5 -5 22.7 14.7
24 -19 -5 3 6.6
-19 -5 -5 11.1 14.4
19 5 5 6 7.5
-24 19 5 4.3 10
23 -19 -5 -9.4 5.4
-19 -4 -5 -3.3 13.5
19 4 5 -11.3 9.1
-23 19 5 -7.4 9.5
19 4 5 -2.3 6.3
4 -23 5 19.6 17
22 -19 -5 10.1 7
-19 -3 -5 38.8 25.6
19 3 5 5.8 6.7
3 -22 5 -6.5 13.3
-22 19 5 0 9.4
19 3 5 1.7 9.8
-19 -2 -5 -1 11.7
21 -19 -5 -9.4 4.5
-21 19 5 6.8 8.6
19 2 5 -17.1 8.7
19 2 5 5.1 8.2
2 -21 5 -22.6 11.5
2 -21 5 -5.2 11.7
20 -19 -5 15.5 6.3
1 -20 5 18 10.8
1 -20 5 34 17.7
19 1 5 1.7 8.1
19 1 5 13.7 11.1
0 19 -5 -0.7 13.1
19 -19 -5 -6.4 4
19 0 5 7.7 10.1
19 0 5 -8 6
-19 19 5 -10.1 7.2
0 -19 5 7.3 8.8
0 -19 5 9.8 14.2
1 18 -5 11.3 12.8
-18 19 5 6.1 7.8
-1 -18 5 1.5 9.2
19 -1 5 14.8 11.2
19 -1 5 15.3 10.2
-1 -18 5 -15 11.5
-2 -17 5 -2.3 7.6
-2 -17 5 -12.6 11.6
19 -2 5 18.6 11.1
-17 19 5 14.2 8.2
19 -2 5 -0.1 5.9
19 -3 5 16.5 9.8
-3 -16 5 3.7 12.9
-3 -16 5 7.6 8.8
19 -3 5 18.4 12
-16 19 5 0.7 7.8
-15 19 5 20.4 7.9
19 -4 5 4.9 7.3
19 -4 5 9.5 10.3
-4 -15 5 -10.6 12.4
-4 -15 5 5.7 8.4
19 -5 5 0.1 7.4
-5 -14 5 -7.8 11.4
-14 19 5 19.9 7.5
19 -5 5 -4.1 7.8
-5 -14 5 -3.3 7.9
-6 -13 5 0.5 7.4
19 -6 5 26.6 11.8
19 -6 5 -4.9 7.5
-6 -13 5 -1.4 12.6
-13 19 5 13.4 7.3
-7 -12 5 1 10.2
-7 -12 5 0 8.5
19 -7 5 0.3 7.2
19 -7 5 9.1 9.5
-12 19 5 3.8 6.4
19 -8 5 0 8.4
-11 19 5 -10 5.6
19 -8 5 4.2 7.6
-8 -11 5 0 12
-8 -11 5 13.3 9.3
19 -9 5 -1.9 6.6
19 -9 5 24 11
-9 -10 5 -0.8 11.3
-10 19 5 -8.8 5.7
-10 -9 5 2.8 11.8
-9 19 5 -4.6 6.3
19 -10 5 -7.4 8.8
19 -10 5 2.6 7.6
-11 -8 5 -5.8 10.9
19 -11 5 4.2 7.6
-8 19 5 -11.4 6.3
19 -11 5 -3.8 8.2
-7 19 5 1.5 7.2
19 -12 5 7.6 8.4
-12 -7 5 -13.1 10
19 -12 5 -0.6 9
-19 13 -5 40.2 20.4
19 -13 5 6.4 10.6
-6 19 5 0.6 7.7
-13 -6 5 -12.3 10.9
19 -13 5 7.2 9.4
-19 14 -5 -21.4 11.6
-14 -5 5 7.2 9.1
19 -14 5 3.1 10.9
-14 -5 5 20 12
-14 -5 5 8.2 8.3
-5 19 5 2 8
-19 15 -5 -3.9 10.2
-15 -4 5 11.2 9.4
-15 -4 5 13.1 11.2
-15 -4 5 13 12.3
19 -15 5 16.1 11.9
16 3 -5 34.6 13.1
-19 16 -5 11.8 13.6
19 -16 5 27.7 12.7
-16 -3 5 9.8 11.9
-16 -3 5 5.8 9.6
-19 17 -5 30.9 13.5
17 2 -5 -0.1 8
-17 -2 5 5.9 12.6
-17 -2 5 5.2 9.6
-17 -2 5 -3.4 7.3
19 -17 5 8 12.3
18 1 -5 21.7 11.1
-19 18 -5 14.4 13.2
-18 -1 5 -14.9 5.7
-18 -1 5 12.4 9.7
-18 -1 5 5.1 12.4
19 -18 5 2.7 11.1
-19 19 -5 -4 12
19 0 -5 23.3 12.2
19 -19 5 14.7 12.1
-19 0 5 4 7.4
-19 0 5 -5.6 10.1
-19 0 5 -3.9 7.2
20 -1 -5 12.1 10.9
-20 1 5 20.1 12.1
19 -20 5 12.5 11.6
21 -2 -5 0.2 8.5
-21 2 5 7 10.9
19 -21 5 -4.9 10.3
22 -3 -5 9 8.9
19 -22 5 13.2 13.1
-22 3 5 2.2 10.9
23 -4 -5 10.9 9.8
19 -23 5 -6.6 12.6
24 -5 -5 -2.6 9.7
19 -24 5 30.5 16.3
25 -6 -5 -11.6 11.3
25 -20 -5 -2.8 6.3
20 5 5 15.6 8.7
24 -20 -5 24.5 9.2
-20 -4 -5 -3.4 14.6
20 4 5 34.3 12.4
-24 20 5 51.79 16.6
20 4 5 43.4 12
-20 -3 -5 -3.8 12.9
23 -20 -5 3.1 6.7
20 3 5 13.6 8.3
3 -23 5 4.3 16.2
-23 20 5 15.7 12.6
-20 -2 -5 51.39 17.1
22 -20 -5 30.3 8.5
20 2 5 34.3 12.7
20 2 5 29 13.8
2 -22 5 25.6 17.5
-22 20 5 34.2 13.3
21 -20 -5 1.9 5.4
-20 -1 -5 13.4 12.8
-21 20 5 9.9 9.8
20 1 5 20.9 11.3
20 1 5 16 9
1 -21 5 21.8 15.9
-20 0 -5 26.5 13.6
20 -20 -5 52.29 8.6
20 0 5 5.3 10.3
0 -20 5 29 19.5
-20 20 5 37.1 14.4
20 0 5 45.1 13.1
-20 1 -5 22.4 15
-19 20 5 4.8 8.3
-1 -19 5 0.9 8.4
20 -1 5 -8.1 9.2
20 -1 5 15 8.7
-1 -19 5 18.9 18.1
-2 -18 5 30.3 17
-2 -18 5 54.99 13.5
-18 20 5 54.19 12
20 -2 5 50.49 12.8
20 -2 5 38.3 14.6
-20 3 -5 -3.9 12.9
20 -3 5 12.2 8.4
20 -3 5 9.8 10.9
-3 -17 5 21.8 11.1
-3 -17 5 9.5 14.3
-17 20 5 20.8 8.4
-20 4 -5 44.4 19
-4 -16 5 47 17.8
-4 -16 5 64.69 15.6
-16 20 5 76.79 12.9
20 -4 5 83.69 17.5
20 -4 5 58.19 13.8
-20 5 -5 7.6 14
-15 20 5 20.7 9
-5 -15 5 40 15.9
20 -5 5 26 10.6
-5 -15 5 8.1 10
20 -5 5 31.7 13.2
-20 6 -5 93.79 25
-14 20 5 111.49 15.7
20 -6 5 138.89 22.1
-6 -14 5 69.09 20.4
-6 -14 5 65.39 15.9
20 -6 5 116.79 19.1
-20 7 -5 17 16.8
-13 20 5 55.49 10.8
-7 -13 5 42.6 12.8
20 -7 5 14.1 11.2
20 -7 5 29.8 13.5
-7 -13 5 56.49 16.9
-20 8 -5 143.89 29.4
-8 -12 5 140.79 26.6
20 -8 5 121.19 21.6
-8 -12 5 128.69 21.7
-12 20 5 129.69 17.2
20 -8 5 114.49 21
-20 9 -5 74.49 24.7
-9 -11 5 104.09 22.2
20 -9 5 43.8 13.4
20 -9 5 30.6 13.9
-11 20 5 84.09 12.8
-9 -11 5 77.39 16.7
-10 -10 5 110.39 25
20 -10 5 101.89 19.5
-10 -10 5 98.79 20
20 -10 5 122.29 20.1
-10 20 5 109.79 16.2
-20 11 -5 91.79 27.3
20 -11 5 40.9 14.3
-9 20 5 59.49 12
-11 -9 5 59.69 18.8
-11 -9 5 69.99 21.2
20 -11 5 51.79 15
-20 12 -5 138.69 25
-12 -8 5 115.49 24.2
20 -12 5 112.09 20.9
20 -12 5 124.09 22.3
-8 20 5 149.59 18.9
-20 13 -5 60.79 17.1
-13 -7 5 45.8 16.5
-7 20 5 20.3 10.1
20 -13 5 13.1 10.2
20 -13 5 33.7 13.9
-13 -7 5 26.2 13.2
-13 -7 5 42.4 13.4
-20 14 -5 92.69 19.9
-14 -6 5 90.09 19.1
20 -14 5 96.09 20.6
20 -14 5 95.49 18.8
-14 -6 5 77.69 16.1
-6 20 5 108.69 16.7
-14 -6 5 140.09 25.1
-20 15 -5 16.1 13.7
-15 -5 5 38.5 13.4
-15 -5 5 30.3 15.2
-15 -5 5 20.2 11.7
20 -15 5 31.8 14.2
-5 20 5 13.3 8.9
20 -15 5 18 10.8
-20 16 -5 68.59 19.1
16 4 -5 73.09 17.5
20 -16 5 49.99 15.7
-16 -4 5 87.49 17.7
-16 -4 5 51.19 17.3
-16 -4 5 80.99 17.3
17 3 -5 3.9 9.1
-20 17 -5 -6.6 11.1
-17 -3 5 11.9 9.4
20 -17 5 8.5 11.8
-17 -3 5 -11.6 9.9
-17 -3 5 -2.2 8.7
18 2 -5 77.39 18.4
-18 -2 5 51.19 17.8
20 -18 5 71.69 19.2
-18 -2 5 58.69 16.2
19 1 -5 19.1 10.7
20 -19 5 11 11.2
-19 -1 5 -7.1 9.1
-19 -1 5 4 13.4
20 0 -5 20.8 12.8
-20 0 5 22.9 14.2
-20 0 5 18.8 12.9
20 -20 5 26.3 15
21 -1 -5 12.1 9.8
20 -21 5 -12.8 10.6
22 -2 -5 26.7 12.2
20 -22 5 33.7 16.6
23 -3 -5 15.9 11.5
20 -23 5 23.8 16
24 -4 -5 17.3 13.6
20 -24 5 44.4 19
25 -5 -5 -9.1 8.5
-21 -3 -5 28.2 19.5
24 -21 -5 7.4 7.1
21 3 5 -11.6 6.5
21 3 5 27.9 12.2
3 -24 5 19 18.3
-24 21 5 15.5 12.3
-21 -2 -5 8.5 13.2
23 -21 -5 3.1 6.1
21 2 5 -10.4 8.6
21 2 5 -3.9 7.5
-23 21 5 9.5 10
-21 -1 -5 23.7 14.4
22 -21 -5 5.9 6
21 1 5 26.4 10.3
1 -22 5 2.1 15.7
21 1 5 17.9 19.6
-22 21 5 19.7 11.7
-21 0 -5 13.7 13.3
21 -21 -5 -3.7 4.9
-21 21 5 23 10.5
0 -21 5 9.7 14.4
21 0 5 -11.6 8.3
21 0 5 -5.9 6.8
-21 1 -5 -6.1 12.2
-1 -20 5 18.7 17.2
-20 21 5 10.7 9
21 -1 5 22.1 11.2
21 -1 5 7.1 8.3
-21 2 -5 2.3 11.9
21 -2 5 -9.9 8.8
-2 -19 5 -17.2 11.3
-19 21 5 1.2 9
21 -2 5 9.1 7.6
-21 3 -5 27.5 13.9
21 -3 5 6.4 7.8
21 -3 5 1.8 10.1
-18 21 5 27.1 10.4
-3 -18 5 1.5 14.4
-21 4 -5 16.2 12.3
-4 -17 5 -3.7 7.9
21 -4 5 -15.9 6.6
-4 -17 5 11.8 16
-17 21 5 -11.3 7
21 -4 5 7.9 7.1
-21 5 -5 2.6 12.2
21 -5 5 11.7 8.7
-5 -16 5 32.6 17.8
21 -5 5 -8.8 8.9
-16 21 5 7.3 8.6
-5 -16 5 4.5 7.8
-21 6 -5 5.3 13
21 -6 5 -6.2 7.2
-6 -15 5 -5.9 11.4
-15 21 5 0.2 7.8
21 -6 5 15 10.7
-21 7 -5 22.5 13.2
-14 21 5 -2.4 7.4
-7 -14 5 10.4 14.3
21 -7 5 12.8 9.1
21 -7 5 -0.2 9.3
-7 -14 5 -0.5 7.3
-21 8 -5 8.5 13.1
-13 21 5 -2.4 7.3
-8 -13 5 14.1 9.4
-8 -13 5 -6 12.3
21 -8 5 -16.8 6.9
21 -8 5 -4.7 8.4
-21 9 -5 12.6 13.2
21 -9 5 11.9 9.7
-9 -12 5 10.7 13.5
21 -9 5 26.4 12.5
-9 -12 5 9.8 9.2
-12 21 5 10.6 8.4
-21 10 -5 2.1 11.9
-11 21 5 -12.5 7
21 -10 5 2.1 7.3
-10 -11 5 4.2 8.5
-10 -11 5 8.4 13
21 -10 5 -7.8 8.1
-21 11 -5 -9.1 10.2
21 -11 5 -6.8 9.3
-10 21 5 -12.5 7
-11 -10 5 37.5 15.2
-11 -10 5 -7.9 7.6
21 -11 5 3.9 8.7
-21 12 -5 8.6 13.8
21 -12 5 4.3 8.3
-9 21 5 -12.8 7.8
-12 -9 5 12.5 9.8
21 -12 5 12.1 11.5
-12 -9 5 9.7 13.2
-21 13 -5 -5.2 12.1
-13 -8 5 5.4 9.1
-13 -8 5 4.4 8
21 -13 5 1.7 9.2
-8 21 5 -10.7 7.4
-13 -8 5 6.6 13.2
21 -13 5 9.9 9.9
-21 14 -5 7.1 13.8
-14 -7 5 9.4 9.7
-7 21 5 8.1 8.7
-14 -7 5 5 14.8
21 -14 5 -14.5 8.4
-14 -7 5 5.4 9.3
21 -14 5 14.3 10.8
-21 15 -5 -19.8 9.6
21 -15 5 -5 9
-15 -6 5 3.7 10.5
-15 -6 5 -19.2 11.2
-15 -6 5 -9.5 9.3
21 -15 5 -7.6 8.6
-21 16 -5 -5 12.6
-5 21 5 3.3 8.2
-16 -5 5 14.9 11.3
21 -16 5 12.6 11.6
21 -16 5 -5.6 7
-16 -5 5 16 14
17 4 -5 -3.8 7.6
21 -17 5 -5.6 8.6
-17 -4 5 -13.4 9.9
21 -17 5 1.5 8.8
-17 -4 5 1.4 9.9
18 3 -5 16 10.1
21 -18 5 -1.1 7.7
-18 -3 5 -7.9 11.1
21 -18 5 18 13
-18 -3 5 1.3 9.7
19 2 -5 2.4 9.6
21 -19 5 -6.3 10.1
-19 -2 5 37.6 15
20 1 -5 31.5 12.6
21 -20 5 -0.8 11.9
-20 -1 5 6.9 13.3
21 0 -5 -17.6 6.9
-21 0 5 -16.3 10.5
21 -21 5 -18.4 10.5
22 -1 -5 20 11.8
21 -22 5 5.6 12.8
-22 1 5 23.6 13.5
21 -23 5 -8.8 9.8
24 -3 -5 19 11.6
23 -22 -5 -1.2 5.4
22 1 5 3.2 11.2
-23 22 5 20.3 11.3
1 -23 5 22.8 24.4
22 1 5 4.4 8.1
22 -22 -5 34.4 8.5
-22 22 5 47.6 15.7
22 0 5 21.4 13.4
22 0 5 57.39 14
-22 1 -5 -9.3 18.6
22 -1 5 11.4 7.6
-21 22 5 -5.7 9.9
-1 -21 5 -27.5 13.8
-22 2 -5 4.5 13.7
-20 22 5 40.4 13.1
22 -2 5 11.1 11.2
-2 -20 5 1.4 15.3
22 -2 5 19.3 10.6
-22 3 -5 -0.4 12.5
22 -3 5 13.9 11.8
-3 -19 5 15.7 16.7
-22 4 -5 19.1 14.1
-18 22 5 35.8 11.7
22 -4 5 31 13.9
22 -4 5 16.1 9.4
-4 -18 5 30.8 17.9
-22 5 -5 -1.6 12.4
-5 -17 5 6.3 14.6
-17 22 5 -4.7 8.6
22 -5 5 -4.9 6.1
22 -5 5 19.4 11.4
-22 6 -5 20 15.5
-16 22 5 38 12.5
22 -6 5 22.5 8.7
-6 -16 5 66.49 19.9
22 -6 5 54.19 16.4
-22 7 -5 32.7 14.4
22 -7 5 8.5 8.2
22 -7 5 21.4 11.8
-15 22 5 10.1 9.7
-7 -15 5 16 15.4
-22 8 -5 36.5 17.2
22 -8 5 61.89 16.1
-8 -14 5 71.89 21.6
22 -8 5 28.4 11.5
-14 22 5 58.89 12.4
-22 9 -5 5.8 12.5
22 -9 5 15.5 9.3
22 -9 5 2.3 9.6
-9 -13 5 16.1 13.5
-13 22 5 3.2 8.2
-22 10 -5 37.8 16.8
22 -10 5 69.49 18
22 -10 5 35.4 11.8
-12 22 5 75.29 13
-10 -12 5 46.3 17.2
-22 11 -5 10.6 13.1
-11 22 5 29.9 10.2
22 -11 5 34.8 12.7
22 -11 5 37.7 14.5
-11 -11 5 26.5 18.5
-22 12 -5 26.7 15.3
-10 22 5 74.49 13.6
22 -12 5 54.69 16.2
22 -12 5 59.69 16.1
-12 -10 5 58.89 18.9
-22 13 -5 27.1 15.4
22 -13 5 3.4 8.5
22 -13 5 7.5 9.1
-9 22 5 5.9 9.1
-13 -9 5 29.3 16.6
-13 -9 5 20.5 14.9
-22 14 -5 12.9 19.1
-14 -8 5 69.19 19.6
22 -14 5 28.4 11.3
-8 22 5 33.4 12.2
22 -14 5 52.39 15.7
-7 22 5 14.2 10.3
22 -15 5 -5.4 6.9
22 -15 5 5.7 9.5
-15 -7 5 20.8 15.2
-16 -6 5 16.3 15.3
22 -16 5 23 12.4
22 -16 5 19.7 13.3
-6 22 5 32.7 11.2
22 -17 5 10.2 10.9
-17 -5 5 31.9 15
-5 22 5 12.8 10.5
22 -17 5 14.4 11.2
18 4 -5 80.59 17.4
22 -18 5 59.69 15.8
22 -18 5 21.2 15.2
-18 -4 5 21.2 15.9
19 3 -5 19.5 10.6
22 -19 5 -3.8 9.4
22 -19 5 11.7 13.1
-19 -3 5 12.1 13.5
20 2 -5 46.2 13.7
-20 -2 5 6 13.4
22 -20 5 32.7 12.7
22 -20 5 29.4 16
21 1 -5 -2.9 8.9
22 -21 5 -4.3 8.4
22 -21 5 11 12.6
-21 -1 5 -7 12.8
22 0 -5 12.7 15.2
22 -22 5 22.4 16.3
-22 0 5 33.7 15.4
23 -1 -5 9.5 11.4
-23 1 5 -6.2 15.4
23 -1 5 3.7 11
-1 -22 5 10 18.9
-22 23 5 15.9 12.4
23 -1 5 -1.9 7.7
-21 23 5 -1.5 9.9
23 -2 5 -10.2 6.7
23 -2 5 0.4 11.2
-2 -21 5 25.5 20.3
23 -3 5 1.3 9
-20 23 5 16.2 10.9
-19 23 5 5.8 9.2
-4 -19 5 -0.2 14.8
23 -4 5 5 13.5
23 -4 5 -7 5.9
-5 -18 5 12.6 15.6
23 -5 5 16.8 9.9
23 -5 5 8.8 11.2
23 -6 5 4.8 7.1
-6 -17 5 2 15.3
23 -6 5 -10.8 9.3
-17 23 5 8.9 10
-16 23 5 -4 8.1
-7 -16 5 21.6 18.6
23 -7 5 6.6 7.7
23 -7 5 6.4 10.4
-15 23 5 10.3 9.2
23 -8 5 15.9 11.6
23 -8 5 4.1 8.3
-8 -15 5 -6.7 12.4
-14 23 5 28.2 11
23 -9 5 7.2 10.5
23 -9 5 13.3 9.1
-9 -14 5 -4.4 14
23 -10 5 -4.2 8.3
-13 23 5 -11.2 8.6
23 -10 5 8 9.4
-10 -13 5 2.1 12.6
23 -11 5 13.8 11.1
-12 23 5 -16.4 7.7
23 -11 5 19.7 10.6
-11 -12 5 -12 11.2
-11 23 5 4.9 9.3
23 -12 5 -10.8 7.1
-12 -11 5 -27.3 12.6
23 -12 5 8.7 10.3
23 -13 5 3.5 8.6
23 -13 5 -1.8 9.7
-13 -10 5 8.2 14.4
23 -14 5 19.9 12.1
-9 23 5 -0.7 10
-14 -9 5 1.2 14.2
23 -14 5 -9.4 8.5
23 -15 5 -12.2 7.3
-8 23 5 7.1 9.8
23 -15 5 4.7 9.9
-15 -8 5 2.5 13.1
-7 23 5 10 10.4
23 -16 5 9.2 12.6
-16 -7 5 4 14.2
23 -16 5 -1.1 7
-6 23 5 -6.4 8.5
23 -17 5 -6.3 8.3
-17 -6 5 9.7 13.4
23 -17 5 5.7 11.4
18 5 -5 6 9.7
-18 -5 5 19.8 14.2
23 -18 5 -8.2 9
23 -18 5 1.6 9.4
19 4 -5 -8.2 7.5
-19 -4 5 -13.4 13.5
23 -19 5 -13.4 10.4
23 -19 5 0.9 9.6
20 3 -5 2.6 10.9
-20 -3 5 31.6 16.7
23 -20 5 1.9 10.3
23 -20 5 16.8 14.9
21 2 -5 6.3 9.9
-21 -2 5 0.3 14.5
23 -21 5 -4 14.3
22 1 -5 9.5 10.8
-22 -1 5 23 22.1
23 -22 5 11 13.2
-21 24 5 9.5 11
24 -3 5 31.2 11.6
24 -3 5 21.2 13.7
-3 -21 5 -4.3 15.9
-20 24 5 5.9 11.7
24 -4 5 21.2 13
-4 -20 5 2.6 18.2
-19 24 5 11.7 11.2
-5 -19 5 -18 12.8
24 -5 5 6.2 11.4
24 -5 5 -2.5 7.7
-18 24 5 -10.7 9.8
24 -6 5 30.5 18.5
24 -6 5 26.8 11.8
-17 24 5 -2.4 9.9
24 -7 5 -17.5 11.7
24 -7 5 18.3 10.7
-8 -16 5 28.4 18.9
-16 24 5 30.8 13.8
24 -8 5 25.7 13.3
24 -8 5 39.8 12.6
24 -9 5 20.8 10.9
-9 -15 5 0.7 14.5
24 -9 5 9.7 9.5
24 -10 5 4.7 9.1
24 -10 5 35.5 13.2
-10 -14 5 26.6 16.8
24 -11 5 -4.1 7.1
-11 -13 5 16.6 15.5
24 -11 5 -8.3 8.1
-12 24 5 35.6 13.2
24 -12 5 28 13.7
-12 -12 5 71.49 21.8
24 -12 5 36.5 14.3
-13 -11 5 -9.8 14
24 -13 5 -3.4 8.2
-11 24 5 -6.4 9.2
24 -13 5 8.2 10.3
-14 -10 5 24.4 15.6
24 -14 5 30.5 13.2
-10 24 5 21.4 11
24 -14 5 14.1 12.2
24 -15 5 13 10.1
-15 -9 5 -17.4 13.3
24 -15 5 -11.6 8
-9 24 5 23.6 10.9
24 -16 5 40.9 14.5
-16 -8 5 0.9 15.6
24 -16 5 19.9 12.4
-8 24 5 51.09 13.1
-17 -7 5 12.9 16.6
-7 24 5 13.9 11.7
24 -17 5 23.5 13
24 -17 5 15.9 11.1
24 -18 5 23.8 15.4
-18 -6 5 11.7 16.9
-6 24 5 13.1 11.5
24 -18 5 21.7 14.9
19 5 -5 33.2 13.8
24 -19 5 8.3 12.8
20 4 -5 27.6 13.5
-20 -4 5 22.6 18.1
24 -20 5 19.1 12.5
21 3 -5 11.9 10.9
24 -21 5 -14.6 12.4
24 -21 5 11.7 12.5
-21 -3 5 22.1 15.9
25 -5 5 -8.1 9.1
25 -6 5 13.1 12.5
-6 -19 5 -2.4 17.6
-19 25 5 -8.9 11.6
25 -6 5 -10.5 8
-7 -18 5 11.9 17.6
25 -7 5 -3.1 10.9
-18 25 5 12.1 11.1
25 -7 5 0.3 9.5
25 -8 5 1.9 8.6
-17 25 5 11.3 9.9
25 -8 5 -1.8 10
-8 -17 5 -7.6 14.9
25 -9 5 3.6 10.3
-9 -16 5 17 17.2
-16 25 5 -10.3 9
25 -9 5 -7.7 6.4
-15 25 5 -4.6 9.3
25 -10 5 8.8 12.7
-10 -15 5 70.09 23.4
25 -10 5 -12 10.5
25 -11 5 22.4 12.6
-14 25 5 -1.5 10
-11 -14 5 17.3 23
25 -12 5 -4.1 7.4
-13 25 5 1.6 9.9
25 -13 5 8.1 11.1
-12 25 5 -8.4 9.4
25 -14 5 10 9
-11 25 5 -19.6 9.7
25 -15 5 14.5 10.9
-10 25 5 2.2 10.4
-16 -9 5 -11.9 15.1
25 -16 5 5 9.9
-9 25 5 6.8 10.4
-17 -8 5 1.3 18.2
-8 25 5 0.4 10.9
25 -17 5 -3.3 9.3
25 -18 5 2.7 10.6
-7 25 5 10.7 10.6
25 -18 5 -17.5 9.9
-18 -7 5 0.4 16.5
25 -19 5 -13.7 10.4
25 -19 5 -10.8 9
-19 -6 5 13.3 14.8
20 5 -5 4.6 11.1
25 -20 5 -4.3 10.3
26 -9 5 19.5 11.9
26 -9 5 3.1 10.4
-17 26 5 -4.4 10.9
-9 -17 5 17.8 19.1
-16 26 5 28 14
-10 -16 5 24.4 17.3
26 -10 5 32 13.9
26 -10 5 88.19 18.2
-11 -15 5 33.7 20.2
-15 26 5 4.1 11.7
26 -11 5 9 11.6
26 -11 5 24.6 13.1
-12 -14 5 19.6 18.4
26 -12 5 76.89 19.9
-14 26 5 36.6 13.8
26 -12 5 59.39 16.4
-13 26 5 20.4 11.7
-13 -13 5 -0.7 14.6
26 -13 5 21.4 13.5
26 -13 5 24.9 11.9
26 -14 5 70.79 19.2
-12 26 5 55.49 15.3
-14 -12 5 60.79 22.2
26 -14 5 35.6 14
-15 -11 5 16.9 17.8
-11 26 5 2.4 11.5
26 -15 5 22.9 15.8
26 -15 5 26.6 12.8
-10 26 5 36.6 14.3
26 -16 5 89.19 22
-16 -10 5 28.3 18.3
26 -16 5 65.09 16.5
26 -17 5 34.3 16.4
26 -17 5 11.4 12
-9 26 5 30.3 13.5
-17 -9 5 24.4 18
0 0 6 472.15 44.2
-1 1 6 32.9 10.7
0 -1 6 41.2 10.4
1 0 6 71.29 11.9
1 -1 6 44.9 10.8
-1 0 6 21.8 9.3
1 1 6 40 9.6
-2 1 6 13.4 9.2
1 -2 6 25.1 10.2
-3 2 6 -1.2 5.4
2 1 6 3.3 6.6
-3 2 6 13.7 7.2
1 -3 6 3.9 8.2
-2 2 6 96.39 14.1
0 -2 6 94.49 15.8
2 0 6 93.49 14.9
2 -1 6 31.6 9.9
-1 -1 6 15.7 9.5
-1 2 6 38.2 9.2
-2 2 -6 95.09 12.1
-2 0 6 96.49 14.8
2 -2 6 99.29 16.1
-2 3 -6 -0.1 5.8
-3 1 6 7.7 7.1
1 2 6 6.8 7.1
2 -3 6 0 8.3
-3 1 6 -0.5 7.5
-2 4 -6 112.39 15.6
-4 2 6 114.09 16.3
2 2 6 106.39 15.8
2 -4 6 143.09 19.8
-4 2 6 122.29 16.2
-2 5 -6 8.5 8
2 -5 6 21.1 10.7
3 2 6 26.5 8.6
-5 3 6 2.5 7
-5 3 6 5.6 6.1
-1 4 -6 37.3 8.9
-4 3 6 52.89 9
-4 3 6 23.7 7.7
3 1 6 29.5 9.1
1 -4 6 31 11.2
-3 3 6 4.3 6.6
-3 3 6 4.1 6
3 0 6 27.6 8.8
0 -3 6 16.7 9.9
-3 1 -6 -3.5 4
3 -1 6 -0.2 7.9
-1 -2 6 -14.6 6.9
-2 3 6 11.5 7
-3 2 -6 8 5.8
-1 3 6 -7.6 5.7
3 -2 6 5.5 8.3
-2 -1 6 7.5 7.4
-3 3 -6 9.1 6.5
-3 0 6 2.9 6.7
-3 0 6 13.8 8.8
3 -3 6 12.9 8.7
0 3 6 2.6 6.8
-3 4 -6 48.4 10.2
-4 1 6 45.7 10.2
-4 1 6 37.7 9.8
3 -4 6 35.4 12
-3 5 -6 0.1 7.7
2 3 6 7.9 7.1
-5 2 6 5.3 6.8
3 -5 6 3 9.1
-3 6 -6 30.7 10.8
3 3 6 30.4 9.6
-6 3 6 70.49 10.7
3 -6 6 56.49 14
-6 3 6 49.4 10.1
-3 7 -6 49.2 13.1
3 -7 6 52.99 13.9
-7 4 6 58.89 10.5
-7 4 6 42.3 10.2
4 3 6 70.09 12.1
-2 6 -6 242.48 26.6
4 2 6 220.68 26.2
-6 4 6 238.68 24.4
2 -6 6 279.47 29.5
-6 4 6 247.98 25.4
-1 5 -6 0.6 7.4
-5 4 6 12.1 6.7
1 -5 6 -13.1 8.3
4 1 6 24.1 8.1
-5 4 6 5 5.8
4 0 6 120.19 19.3
-4 4 6 174.88 18.2
0 -4 6 148.89 21.6
-4 4 6 152.88 16.9
-4 1 -6 35.7 7.1
-1 -3 6 21.1 10.7
-3 4 6 34.4 8.5
4 -1 6 57.49 11.6
-3 4 6 28.6 8
-4 2 -6 133.19 15.1
4 -2 6 139.49 19.5
-2 -2 6 102.79 17.5
-2 4 6 112.99 15.2
-2 -2 6 126.79 17.6
-4 3 -6 53.69 9.8
-1 4 6 32.8 8.8
4 -3 6 35.2 11.3
-3 -1 6 58.99 12
-4 4 -6 180.58 19.5
0 4 6 163.78 18.2
-4 0 6 125.09 19.2
-4 0 6 152.08 19.4
4 -4 6 158.48 22
-4 5 -6 3.1 7.8
-5 1 6 -10.1 7.1
4 -5 6 15.6 9.7
-5 1 6 1.5 6.3
1 4 6 8.5 8.3
-4 6 -6 263.37 28.3
2 4 6 240.58 26.5
-6 2 6 270.07 27.1
4 -6 6 256.97 30
-6 2 6 268.97 27.7
-4 7 -6 40.2 11.9
-7 3 6 56.99 11.7
3 4 6 56.09 11
4 -7 6 66.79 15.3
-4 8 -6 260.87 27.5
4 -8 6 211.28 28.9
4 4 6 228.98 24.9
-8 4 6 217.38 26.8
-8 4 6 223.28 24.3
-4 9 -6 69.89 24.4
-9 5 6 24.1 8.1
5 4 6 17.7 8.8
4 -9 6 34.8 13.7
-3 8 -6 -0.7 8.6
3 -8 6 5.9 10.9
-8 5 6 -3.7 4.6
5 3 6 1.4 6.8
-2 7 -6 11 8.4
-7 5 6 14.9 6.6
2 -7 6 8.1 9.5
5 2 6 8.4 8
-7 5 6 -0.7 6
-1 6 -6 33.9 10.8
1 -6 6 44.3 13.2
-6 5 6 47.7 9.4
5 1 6 51.89 11.7
-5 0 -6 20.6 6.4
-5 5 6 30.6 7
0 -5 6 22.8 10.7
5 0 6 11.3 9.3
-5 5 6 14.8 6.1
-5 1 -6 0.5 5.8
-4 5 6 7.3 5.6
-1 -4 6 -18.2 7.6
-4 5 6 20.2 6.2
5 -1 6 35.5 9.5
-5 2 -6 26.9 7.5
5 -2 6 19.3 8.9
-3 5 6 6.5 5.9
-2 -3 6 16.2 8.5
-3 5 6 21 7
-2 -3 6 24.3 10.6
-5 3 -6 7.4 7
-3 -2 6 2 8.7
-3 -2 6 9.3 7.7
-2 5 6 18.7 6.8
5 -3 6 10.2 8.9
-5 4 -6 25.3 8.3
-4 -1 6 24.7 9.4
-4 -1 6 3 6.5
5 -4 6 22.4 10.6
-1 5 6 10.7 6.5
-5 5 -6 13 8.7
-5 0 6 0.2 8.3
0 5 6 27.5 7.5
5 -5 6 30 11.3
-5 0 6 20.3 8.7
-5 6 -6 69.19 13.8
5 -6 6 64.99 14.8
1 5 6 62.69 11.8
-6 1 6 66.59 12.5
-5 7 -6 20.4 10.2
2 5 6 2.7 6.4
5 -7 6 -4.7 9.7
-7 2 6 22 8.9
-7 2 6 9.3 11.1
-5 8 -6 27.4 10.7
-8 3 6 33.4 8.9
-8 3 6 11.9 7.1
3 5 6 -7.9 5.6
5 -8 6 12.5 10.5
5 -9 6 26.5 13.3
-9 4 6 52.49 10.6
4 5 6 30.5 9.2
-9 4 6 30.1 9.1
-5 10 -6 17.7 11.2
5 5 6 13.4 6.9
-10 5 6 27.6 8.7
5 -10 6 15.9 11.7
5 5 6 11.5 7.6
-5 11 -6 5.9 10.1
5 -11 6 2.6 12
6 5 6 10.3 6.6
-11 6 6 21.3 8.5
6 5 6 8.7 7.9
-4 10 -6 191.08 24.6
-10 6 6 179.78 20.2
6 4 6 169.48 21.3
4 -10 6 168.08 25.7
6 4 6 168.28 20.7
-3 9 -6 58.39 17.3
6 3 6 60.29 12.3
3 -9 6 60.69 15.8
-9 6 6 38.8 9.2
-2 8 -6 110.79 18.3
2 -8 6 158.58 22.9
6 2 6 122.29 18.1
-8 6 6 124.19 16
-6 -1 -6 42.6 8
-1 7 -6 44.3 11.6
6 1 6 46.3 11.8
-7 6 6 36.9 8.2
1 -7 6 39.9 13.1
-7 6 6 39.1 7.9
-6 0 -6 242.28 24.4
0 6 -6 264.77 27.3
6 0 6 257.67 28
0 -6 6 240.68 28.8
-6 6 6 243.28 24.9
-6 6 6 247.98 23.5
-6 1 -6 67.49 10.9
6 -1 6 62.79 13.4
-5 6 6 81.69 10.2
-5 6 6 53.19 10
-1 -5 6 58.29 13.9
-6 2 -6 251.97 26.5
6 -2 6 284.47 29.2
-2 -4 6 256.37 28.9
-4 6 6 246.38 24.4
-2 -4 6 250.47 29.6
-4 6 6 284.07 25.9
-6 3 -6 52.39 10.9
6 -3 6 64.89 13.1
-3 -3 6 61.39 13.5
-3 -3 6 67.79 14.3
-3 6 6 52.39 8.8
-3 6 6 48.1 9.2
-6 4 -6 258.07 27.3
-4 -2 6 265.47 28.4
6 -4 6 241.98 28.7
-4 -2 6 264.27 28.1
-2 6 6 244.78 24.5
-6 5 -6 66.09 12.8
-5 -1 6 52.79 11.2
-5 -1 6 45.6 12.1
-1 6 6 55.69 9.1
6 -5 6 64.79 13.8
-6 6 -6 263.77 28.6
-6 0 6 286.47 28
-6 0 6 276.87 28
6 -6 6 229.98 30
0 6 6 229.68 25.2
-6 7 -6 7.8 10.3
-7 1 6 62.79 11.5
1 6 6 60.39 10.5
6 -7 6 29.7 13.2
-7 1 6 34.8 10.9
-6 8 -6 150.08 21.1
2 6 6 129.29 16.8
6 -8 6 124.69 21.4
-8 2 6 110.49 18.3
-8 2 6 184.88 19.5
-6 9 -6 58.59 17.3
3 6 6 47.9 10.2
-9 3 6 47.1 10.4
6 -9 6 69.39 16.3
-9 3 6 43.1 11.1
-6 10 -6 181.58 25.1
-10 4 6 176.88 21.8
6 -10 6 178.08 26.5
4 6 6 178.68 21.2
-10 4 6 213.08 22
4 6 6 171.68 20.4
-6 11 -6 18.6 11.8
5 6 6 22.6 7.5
6 -11 6 7.2 11.7
-11 5 6 17.9 8.1
5 6 6 22.3 9.1
-6 12 -6 206.18 28.2
6 6 6 208.98 23.1
6 -12 6 205.08 29
-12 6 6 228.88 24.2
6 6 6 206.18 24.5
-6 13 -6 1.6 9.7
7 6 6 2.2 5.7
7 6 6 9.5 7.9
-13 7 6 12.4 7
-5 12 -6 17.4 11.8
7 5 6 48 9.8
7 5 6 55.39 12.2
5 -12 6 19 13.9
-4 11 -6 28.6 11.7
4 -11 6 12.9 12.3
7 4 6 12.8 8.2
-11 7 6 3.5 6.3
7 4 6 10.9 7.1
-3 10 -6 16.4 10.6
7 3 6 11.3 6.8
-10 7 6 16 6.7
3 -10 6 5.3 11.1
7 3 6 12.8 8
-2 9 -6 5.8 15.6
-7 -2 -6 -2.1 5.4
-9 7 6 -1.2 5.1
2 -9 6 16.9 9.8
7 2 6 1.9 6.8
-1 8 -6 10.9 9.6
-7 -1 -6 22.6 8
7 1 6 49.99 10.8
1 -8 6 34 13.2
-8 7 6 38.6 7.7
0 7 -6 1.2 7.6
-7 0 -6 -15.7 5.5
0 -7 6 14.9 10
-7 7 6 -1.7 4.2
7 0 6 -6.6 6.8
-7 1 -6 21.1 8.9
-1 -6 6 12.5 10.5
7 -1 6 58.79 12.8
-6 7 6 52.49 8.3
-1 -6 6 30.5 10.9
-7 2 -6 12.4 8.4
-2 -5 6 11.9 9
7 -2 6 9.8 8.5
-2 -5 6 4.8 9.4
-5 7 6 11.8 5.4
-7 3 -6 72.49 12.7
-3 -4 6 54.69 13.9
7 -3 6 54.19 13.1
-3 -4 6 54.19 11.9
-4 7 6 56.39 9.7
-7 4 -6 53.99 12.1
-4 -3 6 50.69 11.6
-4 -3 6 51.09 12.8
-3 7 6 62.89 9.2
7 -4 6 59.79 14
-3 7 6 48.7 8.7
-7 5 -6 8.4 8.8
-5 -2 6 1 8.3
-2 7 6 9.3 5.8
7 -5 6 19.9 10.1
-5 -2 6 8.4 7.2
-7 6 -6 56.69 12.4
-1 7 6 39.5 8.2
-6 -1 6 42 10.5
7 -6 6 56.79 13
-6 -1 6 44.7 11.6
-7 7 -6 -4.6 8.7
-7 0 6 -2.7 7.8
7 -7 6 1.4 9.3
0 7 6 -0.3 5.2
-7 0 6 10 7.4
-7 8 -6 41 12.2
-8 1 6 34.8 10.7
-8 1 6 34.7 9
7 -8 6 50.69 14.2
-7 9 -6 -6.8 8.6
-9 2 6 1.1 6.3
2 7 6 -0.8 6.1
-9 2 6 2.4 8.1
7 -9 6 -2.5 9.8
-7 10 -6 24.5 12
7 -10 6 22.6 12.6
3 7 6 17.5 7.5
-10 3 6 12.4 6.7
-10 3 6 2.8 8.3
3 7 6 -0.8 5.2
-7 11 -6 1.5 10.7
-11 4 6 6 6
4 7 6 6.9 5.7
7 -11 6 2.5 11
4 7 6 -6.3 6.4
-7 12 -6 37.8 13.6
5 7 6 36.9 10.3
-12 5 6 53.19 11.1
7 -12 6 88.19 18.7
5 7 6 38.2 9.4
-7 13 -6 -13.7 7.9
-13 6 6 -0.3 6.3
6 7 6 16.3 6.7
6 7 6 -0.5 6.8
-7 14 -6 8.2 10.7
-14 7 6 16.2 8.1
7 7 6 19.7 7.5
7 -14 6 50.39 15.1
7 7 6 18.2 8.7
-7 15 -6 -3.5 9.5
8 7 6 0.4 4.7
8 7 6 -0.5 7.1
-15 8 6 9.9 7.1
-15 8 6 2.5 6.3
7 -15 6 9.3 12
-6 14 -6 59.29 15.5
8 6 6 65.09 13.8
6 -14 6 96.69 18.6
8 6 6 90.99 14
-14 8 6 77.49 13.4
-5 13 -6 6.1 10.2
8 5 6 3.5 6.2
-13 8 6 19.9 8.7
8 5 6 19.1 9.6
-4 12 -6 119.99 22.5
-8 -4 -6 182.48 17.2
-8 -4 -6 158.58 17.1
-12 8 6 147.09 19.1
8 4 6 157.98 21.2
4 -12 6 129.09 23.7
8 4 6 190.68 20.4
-8 -3 -6 4.7 6.4
-3 11 -6 9.5 10.8
8 3 6 23 8.2
3 -11 6 18.6 12.5
-11 8 6 23.8 7.7
8 3 6 39.1 10.8
-2 10 -6 135.89 20.9
-8 -2 -6 123.99 15.9
8 2 6 123.19 18.8
-10 8 6 107.29 15.3
8 2 6 147.39 17.9
2 -10 6 127.09 21.3
-8 -1 -6 4.9 7
-9 8 6 6.6 5.1
1 -9 6 3.8 10.3
8 1 6 3.9 7.6
-8 0 -6 106.49 15.4
0 8 -6 115.89 18.3
-8 8 6 127.29 14.3
0 -8 6 123.39 19.6
8 0 6 98.39 16.9
-8 1 -6 36 9.9
-1 -7 6 37.7 10.8
-7 8 6 29.2 6.7
8 -1 6 39.7 11.3
-1 -7 6 34.7 13
-8 2 -6 154.68 19.2
-6 8 6 129.89 15
-2 -6 6 108.69 18.8
-2 -6 6 136.89 21.2
8 -2 6 157.48 20.7
-8 3 -6 31.4 9.4
-3 -5 6 33.4 8.2
-3 -5 6 5.5 9.5
8 -3 6 13.1 9.5
-5 8 6 -3.1 3.9
-8 4 -6 204.48 24.6
8 -4 6 231.98 26.8
-4 -4 6 211.88 26.1
-4 8 6 206.68 20.6
-4 -4 6 186.38 24.6
-8 5 -6 16.8 9.6
-5 -3 6 27.9 10.7
-5 -3 6 21 8.1
-3 8 6 10.1 5.2
8 -5 6 9.5 9.6
-8 6 -6 118.29 18.9
8 -6 6 126.59 21.1
-6 -2 6 149.59 19.5
-2 8 6 133.39 14.8
-6 -2 6 137.59 20
-8 7 -6 36.3 11.6
-7 -1 6 41.7 12
8 -7 6 23.1 11.7
-7 -1 6 21.6 9
-1 8 6 43 7.9
-8 0 6 91.69 15.2
8 -8 6 97.49 18.9
0 8 6 113.39 13.9
-8 0 6 131.59 18.6
-8 9 -6 -1.1 8.4
8 -9 6 1.8 8.6
-9 1 6 3 7.8
-9 1 6 6.7 7.2
1 8 6 16 7.2
-8 10 -6 94.69 18.8
-10 2 6 109.99 17.6
-10 2 6 141.79 19.4
2 8 6 116.69 21.3
8 -10 6 180.68 23.1
2 8 6 116.39 15.9
-8 11 -6 23 12.4
3 8 6 26.5 7.1
-11 3 6 32.5 10.7
3 8 6 24.2 8.6
8 -11 6 22.8 12.5
-11 3 6 17.4 8
-8 12 -6 114.99 23.1
-12 4 6 164.28 20
4 8 6 155.58 17.5
8 -12 6 141.29 24.4
4 8 6 165.08 19.8
-8 13 -6 15.1 11.1
5 8 6 -0.4 7
-13 5 6 17.6 8.2
5 8 6 13.9 6.5
8 -13 6 34.2 23.5
-8 14 -6 61.89 16.7
6 8 6 80.69 14.4
-14 6 6 66.39 13.1
8 -14 6 65.79 19.5
6 8 6 78.09 12.1
-8 15 -6 -5.7 9.9
-15 7 6 -2.9 6
8 -15 6 3 11.7
7 8 6 1.9 7
7 8 6 1.4 5.2
-15 7 6 -0.4 6
8 -16 6 155.38 26.4
-16 8 6 104.09 17.8
-16 8 6 131.89 18.4
8 8 6 139.89 17.3
8 8 6 149.19 20
9 8 6 6.4 6.3
8 -17 6 10.3 13.1
9 8 6 20.3 10.3
-17 9 6 7.4 7.3
-17 9 6 2.2 7
-7 16 -6 34.7 16.3
7 -16 6 32.7 15.2
-16 9 6 25.4 9.3
9 7 6 27.4 8.6
9 7 6 70.59 13.9
-16 9 6 46.4 10.7
-6 15 -6 12.7 12.4
-9 -6 -6 1.9 5.4
9 6 6 1.2 6.3
-15 9 6 19.6 7.1
6 -15 6 -0.1 10.9
9 6 6 14.6 8.8
-15 9 6 2.3 6
-9 -5 -6 5 5.7
-9 -5 -6 -0.6 5.6
-5 14 -6 -1.2 9.9
-14 9 6 8.4 6.2
9 5 6 5.4 7.7
5 -14 6 2 10.6
9 5 6 6.5 6.7
-9 -4 -6 3.3 6.1
-9 -4 -6 3.9 6.7
-4 13 -6 3.6 10.8
-13 9 6 4.7 5.7
9 4 6 5.8 7.9
9 4 6 3.4 7
4 -13 6 -1.6 18.4
-3 12 -6 2.2 10.7
-9 -3 -6 3.8 6.3
9 3 6 0.6 5.7
3 -12 6 -6.4 10.3
9 3 6 12.4 8.5
-12 9 6 9.2 5.9
-9 -2 -6 -2.3 6.6
-2 11 -6 6.1 9.8
-11 9 6 3.6 5.4
9 2 6 12.4 8.6
9 2 6 5.1 6.5
2 -11 6 21 12.5
-1 10 -6 5.4 10.4
-9 -1 -6 9.3 8
9 1 6 13.8 9.1
9 1 6 14.9 7.4
1 -10 6 30.3 13.6
-10 9 6 22.1 6.8
-9 0 -6 1.6 7.3
0 9 -6 4.6 11.7
0 -9 6 16.7 10.5
-9 9 6 11.8 5.3
9 0 6 0.9 7.5
0 -9 6 2.1 7.6
-9 1 -6 2 7.7
-8 9 6 9.1 4.9
-1 -8 6 33.1 12.5
9 -1 6 8.7 9.1
-1 -8 6 -2.3 6.7
-9 2 -6 8 8.1
-2 -7 6 6 10
9 -2 6 -3.3 7
-7 9 6 3.1 4
-2 -7 6 -5.8 6.8
-9 3 -6 49.3 12.9
-3 -6 6 39.1 11.1
-3 -6 6 64.19 14.4
-6 9 6 53.29 8.2
9 -3 6 59.39 13.5
-9 4 -6 20 11.1
-4 -5 6 14.2 11.1
-5 9 6 37.9 6.5
-4 -5 6 21 10.2
9 -4 6 36.8 11.8
-9 5 -6 24.5 11.4
9 -5 6 43.1 12.2
-5 -4 6 30.2 10.1
-4 9 6 30.3 6.2
-5 -4 6 32.6 11.5
-9 6 -6 56.99 13.5
-6 -3 6 55.29 13.8
9 -6 6 50.99 13.9
-3 9 6 45.3 7.6
-6 -3 6 48.4 11.6
-9 7 -6 14.2 12.7
-7 -2 6 -5.4 8
-2 9 6 3.4 4.9
-7 -2 6 -3.1 6.3
9 -7 6 -0.9 8.2
-9 8 -6 13 9.7
-1 9 6 5.5 5.3
9 -8 6 8.9 10.5
-8 -1 6 4.2 6.8
-8 -1 6 2 8.8
-9 9 -6 7.4 9.7
-9 0 6 2.4 9.4
0 9 6 19.4 6.4
-9 0 6 4.9 6.2
9 -9 6 -7.3 8.8
0 9 6 0.3 4.2
-9 10 -6 23.6 12.1
1 9 6 17.7 5.7
1 9 6 18.6 7.4
-10 1 6 12 10
-10 1 6 22.5 9.1
9 -10 6 22 11
-9 11 -6 11.4 11.6
2 9 6 22 7.8
2 9 6 20.1 6.2
9 -11 6 21 12.9
-11 2 6 17.3 10.4
-11 2 6 9.7 7.1
-9 12 -6 43.9 13.3
-12 3 6 14 9.6
3 9 6 5 6.5
9 -12 6 11 10.8
3 9 6 -2.9 5
-12 3 6 5.6 6.1
-9 13 -6 15.8 11.2
4 9 6 7.4 5.4
9 -13 6 1.8 12.9
-13 4 6 12.8 7.6
4 9 6 5.8 7.5
-9 14 -6 12.9 10.7
5 9 6 10.9 5.9
-14 5 6 17.8 8.5
9 -14 6 12.9 12
5 9 6 12.9 8.7
-9 15 -6 -6.8 9.4
6 9 6 17.9 8.9
6 9 6 7.9 5.9
9 -15 6 -11.3 11.2
-15 6 6 7.5 7.4
7 9 6 48.1 12.2
9 -16 6 37.1 15.4
7 9 6 33.6 8.5
-16 7 6 49.4 11.3
9 -17 6 -6.2 10.3
-17 8 6 1.6 6.3
8 9 6 18 9
8 9 6 -0.7 4.6
-17 8 6 5 7.3
18 -9 -6 15.5 8.9
-9 18 -6 13.7 12.7
-18 9 6 12.4 8.4
-18 9 6 12 8.5
9 9 6 6.7 6
9 -18 6 8.8 13.4
9 9 6 17.6 11.7
-9 19 -6 -8.2 10.5
19 -10 -6 4.4 6.2
9 -19 6 11.7 13.7
10 9 6 4.7 5.5
-19 10 6 0.8 6.5
10 9 6 4 7.4
-19 10 6 6.8 8.7
18 -10 -6 68.89 13.7
-8 18 -6 34.2 17.3
-18 10 6 80.99 16.9
-18 10 6 66.39 14.1
10 8 6 65.59 16.7
10 8 6 72.89 12.4
8 -18 6 69.09 19.6
-10 -7 -6 -8.4 5.7
-10 -7 -6 6.8 5.9
10 7 6 -3.6 7.6
-17 10 6 3.2 6.6
-17 10 6 0.7 6.9
7 -17 6 -14.4 10.4
10 7 6 3.5 6.5
-10 -6 -6 120.89 15.8
-10 -6 -6 111.29 15.5
-16 10 6 132.59 18.3
10 6 6 121.49 16.9
-16 10 6 125.69 16.9
6 -16 6 116.49 23.2
10 6 6 118.69 19.7
-5 15 -6 -3.3 9.2
-10 -5 -6 9.4 6.8
10 5 6 9.5 6.8
10 5 6 0.5 8.1
5 -15 6 2 11.4
-15 10 6 9.2 5.8
-15 10 6 16.6 7.1
-4 14 -6 58.19 16.4
-10 -4 -6 70.79 12.3
-14 10 6 72.69 12.3
10 4 6 80.09 13.9
-14 10 6 104.59 12.8
10 4 6 77.89 15.3
4 -14 6 64.49 17.9
-3 13 -6 31.8 12.7
-10 -3 -6 48.2 10.1
10 3 6 33.1 9.9
-13 10 6 50.39 9.3
3 -13 6 -1.3 12.1
10 3 6 48 12.2
-10 -2 -6 96.19 14.6
-2 12 -6 92.59 17.9
2 -12 6 85.79 18.4
-12 10 6 106.99 13.6
10 2 6 87.49 16.4
10 2 6 85.69 14.6
-1 11 -6 18.6 11.9
-10 -1 -6 12.2 8.7
1 -11 6 17 12.2
10 1 6 -2.3 7.7
10 1 6 15.6 8.7
-10 0 -6 104.69 16.5
0 10 -6 88.69 17.6
-10 10 6 124.59 13.9
10 0 6 113.79 19.2
0 -10 6 100.39 17.1
10 0 6 104.19 16.1
0 -10 6 130.19 21
-10 1 -6 8.3 8.4
-1 -9 6 22.2 11.3
-9 10 6 13.2 5.6
10 -1 6 19.5 9.8
-1 -9 6 29.3 9.7
-10 2 -6 131.09 18.2
10 -2 6 108.49 18.6
-2 -8 6 100.59 19
-2 -8 6 107.69 18.1
-8 10 6 110.69 13
-10 3 -6 38.4 11.1
10 -3 6 15.8 9.3
-3 -7 6 34.6 10.8
-3 -7 6 46.7 13.7
-10 4 -6 208.48 23.9
-4 -6 6 170.88 24.4
-6 10 6 171.68 17.7
10 -4 6 208.68 25.5
-4 -6 6 177.28 23.5
-10 5 -6 42.6 12.2
-5 -5 6 14 10.8
10 -5 6 21.5 10.3
-5 -5 6 36.7 9
-5 10 6 5.2 4
-10 6 -6 173.18 27.6
-4 10 6 172.78 17.2
-6 -4 6 210.28 23.6
10 -6 6 157.48 24
-6 -4 6 201.58 24.9
-10 7 -6 18.5 10.6
-7 -3 6 19.1 8.1
10 -7 6 15.1 10
-3 10 6 12.9 4.8
-3 10 6 5.9 3.9
-7 -3 6 -2.2 9.6
-10 8 -6 137.39 20.5
-8 -2 6 85.69 16.1
-8 -2 6 133.99 20.5
-2 10 6 118.89 12.5
10 -8 6 114.79 20.5
-2 10 6 116.19 13.5
-10 9 -6 30.3 12
-9 -1 6 21.4 10.8
10 -9 6 30.1 13.1
-1 10 6 9.1 5.6
-9 -1 6 35.1 9
-10 10 -6 99.99 19.7
0 10 6 110.99 12.7
-10 0 6 109.89 18.9
10 -10 6 146.19 22.1
-10 0 6 92.89 17
-10 11 -6 3.1 9.3
1 10 6 -1.8 5.6
-11 1 6 10.1 9.5
-11 1 6 6.7 7.3
10 -11 6 0.8 10.1
1 10 6 5.2 4.3
-10 12 -6 75.59 17
-12 2 6 78.29 14.7
2 10 6 106.39 14.5
2 10 6 96.59 11.8
-12 2 6 119.89 18.4
-10 13 -6 38.3 14.4
-13 3 6 23.3 9.5
10 -13 6 25.6 13.1
3 10 6 39.2 9.5
3 10 6 43.6 10.5
-10 14 -6 94.89 18.2
4 10 6 103.29 12.4
-14 4 6 79.39 15.4
4 10 6 96.09 15.6
10 -14 6 74.49 18.7
-10 15 -6 20.9 11.7
5 10 6 9.5 7.5
5 10 6 15.6 5.3
-15 5 6 6.2 7.8
10 -15 6 5 11.1
6 10 6 106.19 14.1
-16 6 6 119.39 19.4
6 10 6 105.19 17.6
-16 6 6 120.49 18.6
10 -16 6 139.49 24.8
10 -17 6 -3.3 10.5
7 10 6 -4.3 6.4
7 10 6 3.5 4.9
-17 7 6 -1.2 7.5
-17 7 6 0.2 5.8
-10 18 -6 33.9 15.2
18 -8 -6 67.89 14.6
8 10 6 56.29 10.8
10 -18 6 87.29 19.8
-18 8 6 81.79 14.9
-18 8 6 73.49 14.8
8 10 6 79.39 16.2
19 -9 -6 -1.7 12.8
-10 19 -6 -18.2 9.5
9 10 6 -10.4 6.2
-19 9 6 0.8 6.7
-19 9 6 -7.9 7
10 -19 6 -10.1 10.3
9 10 6 -1.2 4.2
20 -10 -6 27.3 8.9
-10 20 -6 19.9 15.5
-20 10 6 31 11.2
10 10 6 30.7 11.6
10 -20 6 23.2 14.8
-20 10 6 76.79 17.2
10 10 6 46.5 9.9
21 -11 -6 -7.7 5.7
10 -21 6 1.9 11.8
11 10 6 -5.8 7.3
11 10 6 -3.3 5.4
-21 11 6 12.7 8.9
-21 11 6 7.2 6.8
-11 -9 -6 6.1 7
-9 20 -6 -15.9 10.8
20 -11 -6 22.1 13.8
-20 11 6 8.1 9.6
11 9 6 17.2 7.4
11 9 6 14.9 10.1
9 -20 6 13.1 15.5
-20 11 6 10.1 6.5
19 -11 -6 2 7.2
-11 -8 -6 -1.2 6.9
-8 19 -6 -8.6 10.5
-19 11 6 -1.2 6.9
11 8 6 -13.3 6.2
-19 11 6 4.7 8
11 8 6 6.1 5.5
8 -19 6 -8.5 10.6
-7 18 -6 6.7 11.7
-11 -7 -6 28.4 8.8
7 -18 6 54.19 17.4
-18 11 6 36.3 11.1
11 7 6 20.4 7.9
-18 11 6 20.2 8.5
11 7 6 22.8 11
-11 -6 -6 0.9 8.6
-11 -6 -6 3.7 7.7
11 6 6 6.3 11
11 6 6 8.2 6.4
-17 11 6 7.7 7.6
-17 11 6 10.1 7.4
6 -17 6 2 11.3
-11 -5 -6 35.7 10.3
-11 -5 -6 30 10.2
11 5 6 8.8 7.8
-16 11 6 40.5 9.2
-16 11 6 35.7 9.2
11 5 6 61.89 14.8
5 -16 6 49.1 16.3
-4 15 -6 18.1 12.1
-11 -4 -6 4.5 7.9
-11 -4 -6 -10 7.6
11 4 6 9.8 6.8
4 -15 6 22.7 13.6
-15 11 6 12.5 6.7
-15 11 6 8.6 7.2
11 4 6 -3.3 7.8
-3 14 -6 -0.6 10
-11 -3 -6 7.8 8.3
3 -14 6 -13.9 10.4
-14 11 6 -0.4 5
11 3 6 -10.6 5.3
-14 11 6 2.3 5.7
11 3 6 2.4 7.4
-2 13 -6 0.5 9.2
-11 -2 -6 -13.9 7.1
2 -13 6 -11.5 9.9
-13 11 6 3.1 4.8
11 2 6 -1.6 7.9
11 2 6 -0.6 6.2
-1 12 -6 -4.5 10.1
-11 -1 -6 8.3 8.6
11 1 6 13.5 7.7
11 1 6 20.5 10.2
-12 11 6 11.1 5.4
0 11 -6 20.9 11.1
-11 0 -6 12.2 9.7
-11 11 6 12.3 5.2
11 0 6 12.2 9.2
11 0 6 1.7 6.7
0 -11 6 1.4 10.2
-11 1 -6 -6.5 8.2
-1 -10 6 0.4 10.7
11 -1 6 13.3 9.3
-10 11 6 15 4.7
11 -1 6 2.5 6.9
-11 2 -6 3 8.6
-2 -9 6 12.2 8.4
-2 -9 6 11.5 10.3
-9 11 6 12.5 4.4
11 -2 6 0.2 8.5
-11 3 -6 38.4 11.9
-8 11 6 29.5 6
-3 -8 6 51.09 15.2
-3 -8 6 24.9 11.1
11 -3 6 18.2 10.3
-11 4 -6 12.5 10.2
-7 11 6 20.4 4.8
-4 -7 6 16.1 8.7
-4 -7 6 18.3 11
11 -4 6 -7.2 8.5
11 -5 6 24.1 11.1
-5 -6 6 35.6 10.7
-5 -6 6 23.5 12.6
-11 6 -6 8.3 9.4
11 -6 6 28.6 11.2
-6 -5 6 16.8 8.6
-6 -5 6 -5.2 8.8
-11 7 -6 12.5 11.1
11 -7 6 22.4 10.9
-7 -4 6 9.5 8.3
-7 -4 6 17.9 11.9
-11 8 -6 26.7 12.6
-8 -3 6 17.2 11.3
-3 11 6 28.5 6
11 -8 6 7.6 10.9
-8 -3 6 16.4 8.4
-11 9 -6 2.7 10.5
-9 -2 6 2.6 10.3
11 -9 6 10.5 10.8
-9 -2 6 10.7 6.8
-2 11 6 9.9 5.4
-11 10 -6 22.2 12
-10 -1 6 -2.3 6.4
11 -10 6 21.4 12.6
-10 -1 6 13.4 10.9
-1 11 6 5.3 5.4
-11 11 -6 10.2 11.4
0 11 6 4.7 5.5
11 -11 6 -2.7 10.2
-11 0 6 7 9.4
-11 0 6 -9.4 5
-11 12 -6 25.1 12.1
-12 1 6 1.6 7.3
-12 1 6 19.4 11
1 11 6 17 7.4
11 -12 6 14.2 15.4
-11 13 -6 12 11.5
-13 2 6 13.6 10.1
-13 2 6 10.4 7.3
2 11 6 1 3
11 -13 6 -3 10.6
2 11 6 -4.2 5.5
-11 14 -6 11.7 12
3 11 6 -1.4 3.3
3 11 6 -0.8 6.3
11 -14 6 20.4 13.5
-14 3 6 8.9 7.5
-11 15 -6 11.7 10.4
4 11 6 6.1 7
-15 4 6 5.6 7
11 -15 6 15.7 12.8
4 11 6 9.6 4.9
-16 5 6 40.8 10.9
5 11 6 24.3 9.4
11 -16 6 47.5 15.5
5 11 6 33.9 7.4
-16 5 6 15 8.6
-11 17 -6 -0.9 11.9
6 11 6 0 7.3
-17 6 6 16.4 8.7
-17 6 6 10 7.6
11 -17 6 -5 12.5
6 11 6 1.2 4.8
18 -7 -6 17.9 9.6
-11 18 -6 9.7 12.6
7 11 6 50.29 12.8
-18 7 6 30.7 10.2
-18 7 6 44.3 12.9
11 -18 6 39.6 16.2
7 11 6 17.9 6.6
-11 19 -6 3.5 12.3
19 -8 -6 0.8 7.1
-19 8 6 -6.4 6.3
-19 8 6 -4 7.4
11 -19 6 0.1 11.9
8 11 6 4.5 5.1
-11 20 -6 -6.7 11.2
20 -9 -6 25.8 9.1
9 11 6 19.1 9.9
-20 9 6 24.2 11.8
11 -20 6 2.3 11
-20 9 6 10.2 8.5
9 11 6 13.1 6.2
21 -10 -6 -2.8 5.9
-21 10 6 2.6 8.1
10 11 6 4.3 4.9
10 11 6 -6.3 7.5
11 -21 6 -6.5 11.3
-21 10 6 -1.2 7.1
22 -11 -6 2.8 7.9
11 -22 6 3.3 12.3
11 11 6 21.5 11.4
-22 11 6 10.7 9.5
11 11 6 6.6 5.4
23 -12 -6 -4.8 7.1
-23 12 6 -0.1 10.8
11 -23 6 -6 17.6
12 11 6 -2.5 8.8
12 11 6 -5.1 5.4
-23 12 6 -2 6.5
-12 -10 -6 10 9
-12 -10 -6 20.4 8.7
22 -12 -6 15.5 9.6
12 10 6 28.5 11.2
10 -22 6 25.1 15.7
12 10 6 7.6 6.8
-22 12 6 26.8 11.7
-22 12 6 22.1 9.9
21 -12 -6 -9.9 6
-12 -9 -6 3.1 8
12 9 6 -2 4.1
9 -21 6 7.2 15.5
-21 12 6 -7.5 7.1
-21 12 6 -7.4 7.6
12 9 6 -9.2 7.7
-12 -8 -6 40.4 10.9
20 -12 -6 50.79 11.7
-8 20 -6 27.7 16.1
-12 -8 -6 44.8 12.6
-20 12 6 52.29 13.1
8 -20 6 47.6 19.2
12 8 6 59.79 15.2
12 8 6 49.1 11.3
-20 12 6 53.99 11.3
-12 -7 -6 7.5 8
-7 19 -6 -11 9.6
19 -12 -6 9.1 7.1
-12 -7 -6 1.1 8.3
-19 12 6 10.4 6.4
-19 12 6 2.8 8.7
12 7 6 5.9 8.1
7 -19 6 -7.5 11.8
12 7 6 10.9 7.3
-12 -6 -6 67.39 13.5
-6 18 -6 59.19 17.8
-12 -6 -6 75.99 13.9
6 -18 6 75.69 20.2
-18 12 6 66.89 12.7
12 6 6 87.99 14.9
-18 12 6 90.09 15.1
12 6 6 59.49 14.9
-5 17 -6 21.3 17.8
-12 -5 -6 5.8 8.4
-12 -5 -6 -3.2 7.6
-17 12 6 13.5 7.4
12 5 6 13.2 7.4
12 5 6 4.7 8.3
5 -17 6 -0.1 11.6
-17 12 6 4.3 7.3
-12 -4 -6 109.49 17.2
12 4 6 139.89 18.2
-16 12 6 113.89 15.9
4 -16 6 122.09 23.3
12 4 6 115.29 22.9
-12 -3 -6 28.6 10.3
-3 15 -6 24.3 12
12 3 6 12.7 8
-15 12 6 9.9 7
12 3 6 9.5 16
3 -15 6 13.2 13.4
-15 12 6 10.2 6.4
3 -15 6 11.9 13.8
-12 -2 -6 71.39 14.3
-2 14 -6 43.7 15.1
-14 12 6 57.89 11.1
2 -14 6 70.59 19.8
12 2 6 58.29 13.7
-14 12 6 78.29 10.8
12 2 6 88.89 16.2
-1 13 -6 5.2 11.4
-12 -1 -6 30.2 10.9
-13 12 6 14.4 5.1
1 -13 6 6.7 11.9
12 1 6 15 9.5
12 1 6 4.4 6.8
-13 12 6 2.3 5
-12 0 -6 42.7 12
0 12 -6 51.29 14.2
0 -12 6 67.79 19
12 0 6 55.19 12.3
12 0 6 71.99 15.2
-12 12 6 52.99 9.3
1 11 -6 6.6 10.6
-12 1 -6 6.7 9.4
12 -1 6 15.1 10
-11 12 6 16.2 5.3
12 -1 6 12.3 9
-1 -11 6 -1.5 12.7
-12 2 -6 102.39 18.7
-10 12 6 88.09 11.2
12 -2 6 99.09 17.1
-2 -10 6 98.59 19.5
12 -2 6 88.19 16.8
12 -3 6 1.2 7.6
-3 -9 6 5.7 8.9
-3 -9 6 14.7 12.5
-9 12 6 3.2 3.4
-12 4 -6 158.18 23.2
12 -4 6 145.09 22.1
-4 -8 6 135.29 23.8
-4 -8 6 185.68 23.1
-12 5 -6 49 13.5
12 -5 6 35.2 12.7
-5 -7 6 81.79 15
-5 -7 6 37.8 14.1
-12 6 -6 203.78 27.6
12 -6 6 194.28 26.8
-6 -6 6 233.28 26.9
-6 -6 6 213.68 28.2
-12 7 -6 87.29 16.6
12 -7 6 76.89 16.5
-7 -5 6 67.79 16.6
-7 -5 6 33.6 12.2
-12 8 -6 167.58 23.6
12 -8 6 155.98 24.3
-8 -4 6 120.89 22.8
-8 -4 6 169.18 21.8
-12 9 -6 19.2 11.2
-9 -3 6 19 12
12 -9 6 33.1 12.8
-3 12 6 10 5
-9 -3 6 1.3 6.1
-12 10 -6 119.19 20.9
-10 -2 6 160.38 22.2
-10 -2 6 77.09 15.9
-2 12 6 111.09 13.9
12 -10 6 130.09 23.9
-12 11 -6 5.1 11.1
-1 12 6 15.9 7.7
12 -11 6 27.3 15
-11 -1 6 51.49 14.5
-11 -1 6 10.2 7.3
-12 12 -6 44.3 15
-12 0 6 40.4 11.1
-12 0 6 49.9 13.5
0 12 6 67.19 10.5
12 -12 6 48.1 15.1
-12 13 -6 18.4 11.3
1 12 6 20.8 7.6
-13 1 6 3.2 10.3
12 -13 6 12.8 12.3
-13 1 6 -2.6 6.5
-12 14 -6 89.99 18.5
-14 2 6 60.39 15.7
-14 2 6 101.49 17.8
2 12 6 75.79 9.6
12 -14 6 60.69 17.6
2 12 6 93.59 14.5
-12 15 -6 30.4 14.8
-15 3 6 13.4 8.6
3 12 6 30 8.9
12 -15 6 33.8 14.1
3 12 6 11.8 4.7
4 12 6 116.89 17.1
12 -16 6 124.09 23.1
-16 4 6 122.99 19.1
-16 4 6 95.49 17.1
5 12 6 4.8 7.8
12 -17 6 8.1 11.8
5 12 6 7.9 4.6
-17 5 6 16 8.1
-17 5 6 11.8 8.7
-12 18 -6 97.89 20.7
18 -6 -6 108.09 18.3
6 12 6 77.59 11.5
6 12 6 114.79 17.2
12 -18 6 48.8 17.5
-18 6 6 95.29 17.7
-18 6 6 52.49 14.3
-12 19 -6 13.1 12.8
19 -7 -6 15.5 9.5
-19 7 6 -6.3 5.8
-19 7 6 9.3 9.2
12 -19 6 -16.2 10.8
7 12 6 7 5
7 12 6 -5 8.9
20 -8 -6 63.99 13.5
-12 20 -6 13.7 15.2
-20 8 6 51.39 15
12 -20 6 47 17.2
8 12 6 30.1 10.8
-20 8 6 33.3 11.8
8 12 6 42.1 8.6
21 -9 -6 2.2 7.1
9 12 6 4 8.5
12 -21 6 5.7 13.8
-21 9 6 19 10.4
9 12 6 0.8 4.7
-21 9 6 -16.8 6.1
22 -10 -6 6.5 7.9
-22 10 6 24.6 11.6
10 12 6 -5.2 7.8
-22 10 6 32.6 10.7
10 12 6 14.4 6.5
12 -22 6 11.7 14.6
23 -11 -6 -7.2 7.2
-23 11 6 9.2 11
11 12 6 11.4 10
12 -23 6 14.6 17.6
-23 11 6 -8 6.7
24 -12 -6 22.4 10.7
-24 12 6 11.6 8
12 12 6 11.4 10.5
12 12 6 17.2 7.6
12 -24 6 2.8 17.4
-13 -11 -6 -11 7.9
24 -13 -6 2.1 7.7
13 11 6 -3.6 5.8
11 -24 6 -0.1 14
-24 13 6 7.8 8.5
13 11 6 -6.3 9.3
-24 13 6 9.2 11
-13 -10 -6 -6.7 9.8
-13 -10 -6 10.9 9.6
23 -13 -6 16.3 7.5
-23 13 6 -2.1 10
13 10 6 6.2 7.8
13 10 6 20.9 10.8
-13 -9 -6 -1.4 9.1
22 -13 -6 6.4 7
-13 -9 -6 3.5 9.1
9 -22 6 -1 14.4
-22 13 6 -1.6 5.7
-22 13 6 -2.9 9.4
13 9 6 -12.5 10.5
13 9 6 5.5 10.2
-13 -8 -6 -7.6 8.1
-13 -8 -6 4.7 9.5
21 -13 -6 22.1 8.8
13 8 6 10.7 10.1
8 -21 6 -11.7 12.4
-21 13 6 5.7 7.3
-21 13 6 9.7 9.3
13 8 6 16.8 7.4
-13 -7 -6 5.2 9.4
-13 -7 -6 1.2 9.2
20 -13 -6 26 9.2
-7 20 -6 7.4 13
13 7 6 22.2 11.2
13 7 6 10 7.5
-20 13 6 10.7 7.3
7 -20 6 7.6 14.6
-20 13 6 2.7 8.5
-13 -6 -6 -14.3 8
-13 -6 -6 -5.8 7.8
-6 19 -6 2.2 11.6
13 6 6 -0.2 6.7
13 6 6 -0.1 8.4
-19 13 6 3.2 6.6
6 -19 6 11.6 14.1
-5 18 -6 10 12.9
-13 -5 -6 -2 9.7
-13 -5 -6 21.2 10.2
-18 13 6 19.9 8.3
13 5 6 -2.5 6.1
-18 13 6 14.3 8.1
5 -18 6 19.6 14.4
13 5 6 11.2 9.5
-13 -4 -6 20.6 12.1
-4 17 -6 12.2 14
13 4 6 12 9.8
-17 13 6 -5.5 5.3
-17 13 6 11.4 7.3
4 -17 6 14.3 10.6
4 -17 6 -13.4 11.2
-13 -3 -6 13.4 12.4
3 -16 6 7.2 13.5
13 3 6 0.1 5.9
-16 13 6 5.9 6.7
3 -16 6 -0.7 8
-16 13 6 4.1 5.9
13 3 6 32.8 11.9
-2 15 -6 5.5 10.9
13 2 6 24.8 9.3
2 -15 6 30 14.9
-15 13 6 9.9 5.9
13 2 6 4.3 9.1
-15 13 6 9.8 6
-1 14 -6 6.7 12.2
1 -14 6 22.5 14.2
-14 13 6 9.1 5.5
13 1 6 17 15
13 1 6 10.1 7.6
-14 13 6 0.9 5.2
0 13 -6 1.9 10.5
-13 0 -6 -22 12.3
13 0 6 -1.6 5.6
0 -13 6 8.8 10.8
-13 13 6 6.9 4.2
13 0 6 12.5 15.8
-13 13 6 2.6 4.6
-13 1 -6 9.6 9.9
1 12 -6 7.7 11
13 -1 6 -5.9 8.2
-1 -12 6 -4.2 10.3
-12 13 6 6.4 4.7
13 -1 6 26.1 9.2
-13 2 -6 9.2 9.6
13 -2 6 -2.4 8.5
-11 13 6 5.3 3.6
-2 -11 6 13.8 13.9
13 -2 6 -0.1 6.5
-13 3 -6 35.2 12.1
-3 -10 6 18.9 15.1
13 -3 6 42.9 12.4
13 -3 6 5.2 8.5
-13 4 -6 18.3 11.3
13 -4 6 -10.4 7.5
-4 -9 6 14.4 11
-13 5 -6 14.8 11.4
-5 -8 6 -6.5 9.8
-5 -8 6 12.7 7.4
13 -5 6 26.4 11.6
-13 6 -6 0.3 10.4
-6 -7 6 -0.6 7.2
-6 -7 6 -7.3 9.7
13 -6 6 -9.9 8.6
-13 7 -6 -3.5 10.6
-7 -6 6 6.1 11.3
-7 -6 6 -6.4 6.4
13 -7 6 -16 7.6
-13 8 -6 -8.9 10.3
-8 -5 6 21.1 12.8
-8 -5 6 8.6 8.6
13 -8 6 7.6 11.3
-13 9 -6 4.9 11.2
-9 -4 6 9.7 8.6
-9 -4 6 6.5 11.2
-4 13 6 4.2 4.7
-13 10 -6 29.6 11.8
-10 -3 6 35.1 13.9
-3 13 6 37 7.2
-10 -3 6 15.3 9
13 -10 6 74.29 17
-13 11 -6 21.9 13
13 -11 6 -4.5 9
-11 -2 6 -3.1 5.9
-11 -2 6 2 9.5
-13 12 -6 7.2 11.7
-12 -1 6 5.9 11
-12 -1 6 -5.1 6
-1 13 6 11.5 6.2
13 -12 6 10.4 10.5
-13 13 -6 -1.3 10
13 -13 6 -3.9 9.5
0 13 6 -4.6 5.3
-13 0 6 0.6 7.1
-13 0 6 -16.3 7.4
-13 14 -6 29.2 13
-14 1 6 4.9 7.1
-14 1 6 -5.3 9.7
13 -14 6 12.7 12.6
1 13 6 13.4 7.5
-15 2 6 -11.9 6.4
-15 2 6 31.5 13.4
2 13 6 10.9 7.4
13 -15 6 3.5 11.8
13 -16 6 8.7 13.2
-16 3 6 10.6 8.8
3 13 6 5.4 3.6
-16 3 6 24.3 9
3 13 6 -0.7 6.7
-13 17 -6 -0.2 16.6
4 13 6 -8 6
4 13 6 7.7 4.2
13 -17 6 10.9 13.3
-17 4 6 7.6 9.1
-17 4 6 2.4 7.2
-13 18 -6 11.9 11.8
18 -5 -6 11.1 10.6
5 13 6 11.2 8.8
5 13 6 11.5 4.9
13 -18 6 18 14.7
-18 5 6 18.4 9.3
-18 5 6 9.7 9.8
-13 19 -6 6.7 11.1
19 -6 -6 -0.4 7.9
6 13 6 6.6 4.6
-19 6 6 12.2 9.6
-19 6 6 12.1 10.7
6 13 6 4.5 8.6
13 -19 6 -10.4 11.1
20 -7 -6 21.6 10.3
-20 7 6 7 8.7
7 13 6 12.7 9.3
-20 7 6 23.4 11
7 13 6 11.5 5.2
13 -20 6 7 11.7
21 -8 -6 -12.6 5.7
-21 8 6 -0.6 9.4
-21 8 6 -5.5 7.2
8 13 6 -10.5 7.5
8 13 6 10.5 4.9
13 -21 6 5.1 12.6
22 -9 -6 6.6 8.4
-22 9 6 -7.8 7.1
-22 9 6 17.2 9.3
9 13 6 9.8 9.8
9 13 6 -3.3 4.6
13 -22 6 9.3 13.3
23 -10 -6 18.1 9.7
-23 10 6 16.2 8.6
10 13 6 -3.8 9.1
13 -23 6 9.7 18.1
-23 10 6 -10.5 9.8
10 13 6 -13.2 4.6
24 -11 -6 17.1 10.1
11 13 6 -3.6 8.7
13 -24 6 -2.7 15.6
11 13 6 10 6.2
-24 11 6 6 11.1
-14 -10 -6 17.5 15.6
24 -14 -6 -1 7.7
-14 -10 -6 7.9 10.9
14 10 6 4 7.6
-24 14 6 33.9 11.3
14 10 6 9.8 9.8
10 -24 6 -8.6 14.1
-24 14 6 20.3 10.8
23 -14 -6 14 8.3
-14 -9 -6 -16.6 16.6
-14 -9 -6 -4.4 9.5
14 9 6 -9 8.3
-23 14 6 17.8 10.8
14 9 6 13.5 6.4
-23 14 6 5.1 8.2
-14 -8 -6 32.5 11.7
22 -14 -6 54.69 12.7
14 8 6 35.2 9.7
-22 14 6 56.69 15.3
8 -22 6 45.2 18.9
-22 14 6 38.4 11
14 8 6 10.2 10.7
21 -14 -6 -4.3 6.5
-14 -7 -6 -10.5 9.3
-21 14 6 1.5 6.7
14 7 6 -14.1 8.4
-21 14 6 12.2 8.3
14 7 6 15.7 7.9
7 -21 6 -5.5 12.5
-14 -6 -6 45.1 13.4
-14 -6 -6 67.99 15.3
20 -14 -6 57.39 11.6
-6 20 -6 36.9 23.5
-20 14 6 31.5 10.7
14 6 6 42.1 13.6
6 -20 6 49.1 20.3
14 6 6 36.4 10.5
-20 14 6 65.09 13.9
-14 -5 -6 8.4 10.2
-5 19 -6 2 11.8
-14 -5 -6 -8.8 8.9
5 -19 6 7.8 9.9
-19 14 6 20.9 8.3
-19 14 6 -3 7.8
14 5 6 -9.2 8.7
14 5 6 6.5 7.4
5 -19 6 23.8 14.8
-4 18 -6 83.59 18.9
-14 -4 -6 53.59 14.5
-18 14 6 67.79 12.9
4 -18 6 26.7 16.8
4 -18 6 56.19 16
-18 14 6 54.99 11.5
14 4 6 84.39 17.4
-14 -3 -6 29.5 11.8
14 3 6 52.09 16.6
-17 14 6 39.8 9.7
14 3 6 40.7 13
-17 14 6 29.2 9
3 -17 6 12 9.7
3 -17 6 13.3 15.2
-14 -2 -6 97.59 17.6
2 -16 6 112.09 23.5
-16 14 6 135.59 15.1
14 2 6 114.19 20.1
-16 14 6 108.69 15.2
2 -16 6 66.59 16.1
14 2 6 85.39 17.3
-1 15 -6 15.7 14.6
-14 -1 -6 10.7 10.5
-15 14 6 6.6 6.1
14 1 6 -2.5 8.3
14 1 6 5.8 7.9
1 -15 6 22.5 14.7
1 -15 6 4.2 8.8
-15 14 6 10.7 6
0 14 -6 67.09 17.4
-14 0 -6 75.29 14.6
0 -14 6 41.1 17.2
-14 14 6 74.39 10.5
14 0 6 88.99 16.4
14 0 6 61.49 14.1
-14 14 6 68.19 10.8
-14 1 -6 -13.6 8.2
1 13 -6 3.3 10.4
14 -1 6 10.6 10.3
-1 -13 6 1.5 12.2
14 -1 6 11.4 8.3
-13 14 6 15.1 5.2
-14 2 -6 70.99 15.4
14 -2 6 40 11.7
-2 -12 6 37.1 15.7
14 -2 6 91.59 17.9
-12 14 6 67.29 8.8
-14 3 -6 0.6 10
-3 -11 6 -0.6 11.3
14 -3 6 -0.1 7
14 -3 6 -6 9.1
-14 4 -6 81.59 17
14 -4 6 56.29 21.3
14 -4 6 93.59 19.5
-4 -10 6 102.99 21.2
-14 5 -6 18.6 11.5
14 -5 6 20.6 13.8
-14 6 -6 64.89 16.2
14 -6 6 88.99 24.1
-6 -8 6 91.49 19.9
-6 -8 6 108.19 19
-14 7 -6 37.1 13.1
-7 -7 6 37.1 11.6
-7 -7 6 38 13.3
14 -7 6 39.5 13.4
-14 8 -6 74.49 16.7
14 -8 6 80.49 17.2
-8 -6 6 87.79 18.8
-8 -6 6 47 12.7
-14 9 -6 20.3 12.4
-9 -5 6 6.4 11.2
-9 -5 6 -3.4 7.7
14 -9 6 31.2 12.6
-14 10 -6 103.59 19.5
-10 -4 6 73.99 18.4
14 -10 6 61.29 17.1
-4 14 6 93.99 11.4
-10 -4 6 69.99 15.4
-14 11 -6 -1.2 9.7
14 -11 6 -11.1 9.5
-11 -3 6 -7.6 9.9
-3 14 6 12.9 5.6
-11 -3 6 7.7 6.9
-14 12 -6 66.99 16.5
-12 -2 6 53.29 15.9
-2 14 6 77.69 11.6
-12 -2 6 60.09 14.2
14 -12 6 73.09 16.8
-14 13 -6 10.1 11.9
14 -13 6 25.9 11.7
-13 -1 6 5.8 8.4
-1 14 6 -1.4 5.8
-13 -1 6 20.3 11.7
0 14 6 78.09 13
-14 0 6 47.6 13.6
-14 0 6 81.99 17.5
14 -14 6 78.09 19.8
-15 1 6 13.7 12.7
14 -15 6 2.9 11.6
1 14 6 20.8 7.9
-15 1 6 20.9 10.7
-14 16 -6 63.79 25.6
14 -16 6 85.29 20.8
-16 2 6 98.69 19.1
2 14 6 130.69 17.1
-16 2 6 114.89 21
-16 2 6 119.39 20.5
-14 17 -6 6.8 13.1
-17 3 6 18.3 10.3
3 14 6 25.8 5.1
14 -17 6 6.4 11.5
-17 3 6 18.9 9.5
3 14 6 32.9 10.2
18 -4 -6 64.09 15.1
-14 18 -6 57.89 17.4
4 14 6 65.09 13.7
14 -18 6 72.69 19.8
-18 4 6 76.89 15.9
4 14 6 60.29 8.8
-18 4 6 71.69 20.3
-14 19 -6 -2.2 13.9
19 -5 -6 -4.4 7.9
14 -19 6 26 15
-19 5 6 9.7 8
-19 5 6 15.4 9.8
5 14 6 20.6 9.9
20 -6 -6 65.19 14.9
-20 6 6 65.19 16.6
14 -20 6 23 16.3
-20 6 6 52.49 12.9
6 14 6 53.29 12.8
6 14 6 45.8 8.2
21 -7 -6 -1.2 7.4
14 -21 6 6 13.1
-21 7 6 10.7 8.9
7 14 6 -0.5 4.2
-21 7 6 0.2 8.3
7 14 6 2.3 9.3
22 -8 -6 30.7 10.9
-22 8 6 30.7 13.4
14 -22 6 43.8 17.9
8 14 6 37 13.6
-22 8 6 14.6 11.3
8 14 6 44.2 8.8
23 -9 -6 -11.3 6.5
14 -23 6 -2.2 14.9
-23 9 6 -24.1 8.3
9 14 6 -0.7 4.6
9 14 6 8.6 9.8
24 -10 -6 10.9 9.3
10 14 6 23 7.5
10 14 6 31 12.3
-24 10 6 -2.1 9.9
14 -24 6 7.8 16.2
-15 -9 -6 19.9 12.4
-15 -9 -6 9.2 12.2
24 -15 -6 2 7.4
9 -24 6 12.2 17
15 9 6 3.7 6.9
-24 15 6 -3.4 10.4
15 9 6 1.6 10.1
-15 -8 -6 23.6 12.5
-15 -8 -6 5.7 12.5
23 -15 -6 10.7 6.6
15 8 6 5.5 6.3
15 8 6 13.1 10.8
-23 15 6 -2.6 8.2
-23 15 6 -6.1 8.7
-15 -7 -6 21.6 12.8
-15 -7 -6 6.3 11.1
22 -15 -6 3.7 6.5
7 -22 6 32.4 17.1
-22 15 6 7.8 9.4
-22 15 6 5.6 6.9
15 7 6 0.9 10.5
15 7 6 6.6 7.9
-15 -6 -6 -14.2 9.6
21 -15 -6 -3 6.2
-15 -6 -6 -4 10.8
6 -21 6 23.7 17.7
-21 15 6 10.8 7.4
-21 15 6 -5.8 7.8
15 6 6 3.8 9.1
15 6 6 6.7 6.4
-15 -5 -6 29.7 11.3
-15 -5 -6 3.4 9.9
5 -20 6 -3.7 13.1
15 5 6 8.9 8.4
-20 15 6 0.9 6.5
15 5 6 9.1 10.1
-20 15 6 14.8 10.3
-4 19 -6 -11.9 10.5
-15 -4 -6 -7.8 10
15 4 6 0.5 7.7
4 -19 6 -12 11.8
-19 15 6 9.7 6.6
4 -19 6 1.1 10.1
15 4 6 10.5 7
-19 15 6 0.3 6.7
-3 18 -6 12.2 13.1
-15 -3 -6 -21.3 8.9
-18 15 6 17.7 8
15 3 6 5.1 6.8
-18 15 6 4.3 6.5
15 3 6 0.6 8.7
3 -18 6 4.2 14
3 -18 6 -1.2 8
-15 -2 -6 -8.9 9
-2 17 -6 4.2 13.5
15 2 6 -5.5 8.1
-17 15 6 2.9 5.4
-17 15 6 -7.5 5.4
15 2 6 -1.8 5.7
2 -17 6 9.5 9.1
2 -17 6 -7.4 13.3
-15 -1 -6 15.8 12
1 -16 6 4 12.7
-16 15 6 2.1 6.5
15 1 6 4.3 8.6
-16 15 6 9.2 5.7
1 -16 6 5.7 9.4
15 1 6 10.4 10.4
-15 0 -6 17.2 11.6
15 0 6 0.4 9.5
0 -15 6 -0.3 12.5
15 0 6 0.5 8
0 -15 6 -4.6 7.5
-15 15 6 1.7 5.2
-15 15 6 12.9 5.4
-15 1 -6 -5.7 9
-14 15 6 16.5 5.2
-1 -14 6 7.2 9.3
15 -1 6 -9.7 7.1
15 -1 6 -2.4 7.6
-1 -14 6 -5.9 11.1
-15 2 -6 1.2 10.2
-2 -13 6 19.8 14.2
15 -2 6 5.5 8
15 -2 6 29.9 11
-15 3 -6 8.8 10.7
-3 -12 6 10.4 13.4
15 -3 6 13.4 8.2
15 -3 6 8.2 9.8
-15 4 -6 10.3 11.9
15 -4 6 7 9.6
15 -4 6 9.2 8.6
-4 -11 6 4.5 11.4
-15 5 -6 12.9 11.3
-5 -10 6 1.8 12.5
15 -5 6 9.2 9.1
15 -5 6 5.3 8
-15 6 -6 5.6 10.6
15 -6 6 -7.4 8.9
-6 -9 6 5.8 11.3
15 -6 6 7.7 8.1
-15 7 -6 8.3 10.4
15 -7 6 3 8.2
-7 -8 6 9.1 11.8
-15 8 -6 -17.4 8.3
15 -8 6 -0.3 9.8
-8 -7 6 2.8 7.7
-15 9 -6 22.9 12.5
15 -9 6 13.7 11.1
-9 -6 6 7.2 8.1
-6 15 6 6.6 5.1
-6 15 6 10.1 4.5
-15 10 -6 14.8 12.6
-10 -5 6 5.7 9.4
15 -10 6 1.8 10.5
-10 -5 6 28.2 19.2
-5 15 6 7.8 4.8
-15 11 -6 -14 9
-11 -4 6 5.9 7.3
15 -11 6 13 11.3
-11 -4 6 13.7 14.2
-4 15 6 14.4 5.6
-15 12 -6 40.9 12.8
-12 -3 6 14.6 13.5
15 -12 6 6.8 12.2
-12 -3 6 4.1 7.7
-3 15 6 24 7.1
-15 13 -6 4.5 12.7
15 -13 6 20.2 12.7
-2 15 6 11.3 6.4
-13 -2 6 7.9 8.2
-13 -2 6 -0.5 11.6
-1 15 6 5.3 6
-14 -1 6 26.6 10.6
15 -14 6 -5.7 10.9
-14 -1 6 16 17.1
15 -15 6 -2.5 12
-15 0 6 12.4 8.7
0 15 6 5.7 6.7
-15 16 -6 3.5 12.7
1 15 6 17.1 8.1
-16 1 6 -5.5 13.5
-16 1 6 -6.7 9.4
-16 1 6 4.2 8.5
15 -16 6 11.9 13.2
-15 17 -6 4.8 12.2
-17 2 6 -0.8 8.3
2 15 6 0.3 7.8
15 -17 6 -18.4 8.7
-17 2 6 -11.6 9.4
-17 2 6 -11 5.9
18 -3 -6 4.8 9.3
-15 18 -6 3.5 12.7
15 -18 6 16.9 15.3
-18 3 6 8.3 9
-18 3 6 8.1 8.8
3 15 6 1.4 8.4
-15 19 -6 0.5 13.4
19 -4 -6 -5.6 8.3
-19 4 6 -7.7 6
4 15 6 2.1 3.2
15 -19 6 -4.1 10.3
-19 4 6 2.9 8.1
4 15 6 -9.5 6.5
20 -5 -6 2.4 9.2
15 -20 6 10.6 13
5 15 6 11.7 5
-20 5 6 19.3 11.3
-20 5 6 0.7 8.8
21 -6 -6 14.9 8.2
6 15 6 -8.1 6.8
-21 6 6 10 8.5
-21 6 6 15.2 11.8
15 -21 6 4.3 12.5
22 -7 -6 22.9 11.5
7 15 6 2.6 9.2
7 15 6 11.5 5.2
15 -22 6 10.2 13.8
23 -8 -6 0.3 8.9
8 15 6 1.4 8.3
-23 8 6 9.4 10.6
8 15 6 -1.6 3.9
24 -9 -6 -10.2 8.1
9 15 6 9.8 5.4
-24 9 6 20.1 12.4
15 -24 6 8.6 18.1
9 15 6 -0.6 10.7
24 -16 -6 21.4 9.7
-16 -8 -6 7.1 12.3
-16 -8 -6 12.7 14
16 8 6 14.8 8.7
-24 16 6 15.9 9.7
-24 16 6 18.4 14.4
8 -24 6 8.2 19.5
-16 -7 -6 16 12.4
23 -16 -6 -9.5 7.5
-16 -7 -6 -3.9 11.7
16 7 6 7.1 10.9
7 -23 6 27.7 19.6
16 7 6 -0.5 5.9
-23 16 6 7.4 10.5
-23 16 6 10 8.4
-16 -6 -6 48.7 15.2
-16 -6 -6 36.8 14.5
22 -16 -6 38.6 10.6
-22 16 6 48.4 14.6
-22 16 6 29.7 10.3
16 6 6 23 11.3
16 6 6 21.7 9.1
6 -22 6 41.9 18.9
-16 -5 -6 4.5 10.8
-16 -5 -6 19.9 12.8
16 5 6 -4.2 7.8
-21 16 6 20.7 8.8
5 -21 6 5.9 16.5
16 5 6 6.4 8.2
-21 16 6 3 9
-16 -4 -6 45 13.7
16 4 6 21 12.3
4 -20 6 14.6 15.3
16 4 6 62.09 13.5
-20 16 6 35.7 10.1
-16 -3 -6 11.3 12.4
-3 19 -6 29.1 17.4
16 3 6 7 8.1
16 3 6 8.7 10.4
3 -19 6 14.7 13.9
-19 16 6 49.6 10.8
-19 16 6 27.7 11.2
-16 -2 -6 61.09 15.4
-2 18 -6 64.19 18.9
16 2 6 46.3 14
2 -18 6 43.3 16.5
2 -18 6 50.69 14.4
-18 16 6 55.59 10.3
-18 16 6 61.49 11.5
16 2 6 32.3 10.6
-1 17 -6 45.8 16
-16 -1 -6 38 13
16 1 6 -2.2 9.7
1 -17 6 -9.4 8.7
16 1 6 14.6 8.4
1 -17 6 8.2 14.9
-17 16 6 12.8 6.7
-17 16 6 19.6 7
-16 0 -6 67.79 16.3
16 0 6 39.8 14.8
-16 16 6 64.59 10.5
-16 16 6 67.79 10.3
0 -16 6 36.7 17.5
16 0 6 76.69 14.8
0 -16 6 61.69 15.4
-16 1 -6 30 12.9
-15 16 6 16.2 5.8
-1 -15 6 5.1 7.8
-1 -15 6 -4.7 12.2
16 -1 6 30.1 10.1
16 -1 6 12.4 10.3
-16 2 -6 83.09 17.6
16 -2 6 114.39 19.5
-2 -14 6 85.69 20.2
16 -2 6 83.09 17
-2 -14 6 77.89 16.4
-16 3 -6 14.4 12.2
-3 -13 6 -3.8 7.3
-3 -13 6 10.3 13
16 -3 6 11.3 8.6
16 -3 6 14.9 9.5
-16 4 -6 139.19 22.7
16 -4 6 93.09 18.8
16 -4 6 100.39 18
-4 -12 6 107.79 21.2
-16 5 -6 36.3 14.1
16 -5 6 21.4 12
-5 -11 6 32.1 15.4
16 -5 6 27.7 10.4
-16 6 -6 115.59 21.1
16 -6 6 110.99 20.1
16 -6 6 118.69 19.7
-6 -10 6 111.79 21.7
-16 7 -6 40.6 13.9
16 -7 6 24.4 12.1
-7 -9 6 30.3 14
16 -7 6 48.4 13.7
-16 8 -6 131.79 21.8
16 -8 6 136.09 22.9
-8 -8 6 104.89 21.7
-16 9 -6 48.9 14.9
-9 -7 6 38.9 15.7
-9 -7 6 49.99 17.4
16 -9 6 61.19 15.6
-7 16 6 39.9 7.8
-16 10 -6 106.09 19.7
16 -10 6 123.79 21.4
-10 -6 6 92.39 19.5
-10 -6 6 99.89 20.9
-16 11 -6 38.8 15.5
-11 -5 6 13.9 13.6
-11 -5 6 34.8 15.7
16 -11 6 56.79 14.8
-12 -4 6 118.99 23.6
-4 16 6 140.99 15.8
16 -12 6 88.09 21.4
-13 -3 6 14.7 13.6
-3 16 6 11.5 6.4
-13 -3 6 19.5 11.2
16 -13 6 2.3 10.3
-2 16 6 115.69 15.5
-14 -2 6 103.39 18.2
-14 -2 6 92.69 20.7
16 -14 6 86.59 19.3
-16 15 -6 -13.8 22
16 -15 6 15.8 13.5
-1 16 6 20 8.2
-15 -1 6 16.8 11.9
-15 -1 6 -2.5 8.6
-16 16 -6 64.89 20.3
0 16 6 84.29 14
-16 0 6 74.69 16.3
-16 0 6 68.89 18.6
-16 0 6 68.29 16
16 -16 6 71.59 19.5
-16 17 -6 -3.9 12
16 -17 6 5.8 12.9
-17 1 6 8.7 8.8
-17 1 6 8.7 9.9
-17 1 6 -4.6 10.9
1 16 6 8.9 7.7
-16 18 -6 43.7 16.6
16 -18 6 57.39 19.4
-18 2 6 102.59 19.2
2 16 6 69.89 13.9
-18 2 6 42.7 14.3
-18 2 6 83.79 17.3
-16 19 -6 22.2 23.5
19 -3 -6 32.1 12.1
3 16 6 19.3 9.6
-19 3 6 3.8 8.9
16 -19 6 12.1 13.5
-19 3 6 16.8 11.1
20 -4 -6 26.5 13.2
16 -20 6 49.1 19.3
-20 4 6 45.1 13.2
21 -5 -6 -9.2 8.8
5 16 6 11.5 4.6
-21 5 6 11.6 11.5
5 16 6 8.8 9.7
16 -21 6 23.2 16.1
22 -6 -6 17.8 10.7
6 16 6 30.2 12.5
16 -22 6 10 13.8
-22 6 6 21.5 14.5
6 16 6 32.8 8.3
23 -7 -6 15.1 10.9
-23 7 6 23.2 11
24 -8 -6 0.1 8.7
8 16 6 10.3 5.2
16 -24 6 -20.7 13.1
24 -17 -6 17 8.7
17 7 6 -1.2 6.4
-24 17 6 12.8 9.3
23 -17 -6 8.5 7.7
-17 -6 -6 -1.2 13.1
-17 -6 -6 21.2 13.4
17 6 6 5.5 7.7
6 -23 6 -3.8 15.6
-23 17 6 5.5 8.2
17 6 6 6.8 12.1
-23 17 6 -2.2 10.2
-17 -5 -6 -2.7 12.2
-17 -5 -6 3.8 13.7
-22 17 6 9.7 7.8
-22 17 6 2.9 9.2
17 5 6 -8.7 5.8
17 5 6 2.7 10.1
-17 -4 -6 -5.3 11.4
-17 -4 -6 0.7 12
-21 17 6 0 7.8
4 -21 6 1.4 15.1
17 4 6 -4.2 6.3
17 4 6 -0.5 9.4
-21 17 6 4.1 6.8
-17 -3 -6 2.4 11.5
-20 17 6 11.1 8.3
17 3 6 -0.3 7.6
-20 17 6 8.5 6.9
3 -20 6 3.8 15.1
17 3 6 -3.3 10.1
-17 -2 -6 -9.6 10
-2 19 -6 -14.2 15.2
-19 17 6 -15.4 5.9
17 2 6 1.4 8
2 -19 6 -17.9 12.3
17 2 6 -6.3 8.9
-17 -1 -6 -4.7 10.4
-1 18 -6 19.7 15.7
17 1 6 17.9 10.5
1 -18 6 18.3 16
17 1 6 15.5 8.8
-18 17 6 6.7 6.7
-17 0 -6 3.9 10.9
0 17 -6 -11 11.1
17 0 6 5.1 9.9
-17 17 6 -3.2 5.3
17 0 6 -1.2 7
0 -17 6 -12.8 7.5
0 -17 6 -13.2 12.6
-17 1 -6 31.2 13.4
-1 -16 6 8.2 13.9
17 -1 6 25.4 9.2
-16 17 6 24.2 7.2
-1 -16 6 7.3 7.6
17 -1 6 19.4 10.6
-17 2 -6 2.8 9.9
-2 -15 6 3.1 7.8
17 -2 6 -13.7 8.9
-15 17 6 -1.1 5.1
17 -2 6 -5.1 7.5
-2 -15 6 3.4 14.4
-17 3 -6 7.3 11.5
-14 17 6 20 6.6
17 -3 6 20.3 11
-3 -14 6 -2 11.6
-3 -14 6 17.8 10.7
17 -3 6 36.4 12.3
-17 4 -6 3.2 11.4
17 -4 6 10.3 9.7
-4 -13 6 -7.2 7.4
17 -4 6 9.1 8.1
-4 -13 6 12.4 14.1
-17 5 -6 -11.4 10
-5 -12 6 11.8 9.4
17 -5 6 1.2 9.5
17 -5 6 16.5 9.2
-5 -12 6 8.8 13.6
-17 6 -6 -1.8 10.6
17 -6 6 -6.4 8.7
-6 -11 6 -19 10.2
17 -6 6 -8.3 5.8
-17 7 -6 -0.9 10
17 -7 6 -7.9 8.6
17 -7 6 17.1 10.1
-7 -10 6 0.6 10.7
-17 8 -6 20.9 12.2
-8 -9 6 18.3 12.3
17 -8 6 20.1 9.7
17 -8 6 8.9 11
-17 9 -6 27.6 12.7
17 -9 6 7.4 9.1
-9 -8 6 34.7 14.5
-9 -8 6 11.3 8.3
17 -9 6 21.1 11.7
-17 10 -6 -1.1 13.5
-10 -7 6 5 7.5
-7 17 6 -3.2 5.7
-10 -7 6 6.9 12.7
17 -10 6 1.2 9.8
-11 -6 6 -2.1 7.9
-11 -6 6 4.3 12.7
17 -11 6 12.4 10.2
-12 -5 6 -1.8 6.6
17 -12 6 -4.8 10
-12 -5 6 -3.1 11.9
-17 13 -6 -0.7 14.7
-13 -4 6 -5.9 11.1
17 -13 6 13.6 11.4
-13 -4 6 8.1 8.6
-17 14 -6 20.1 17.8
-14 -3 6 34.9 11.6
17 -14 6 28.8 15.3
-14 -3 6 4.8 12.8
-17 15 -6 -18.1 10
17 -15 6 7.2 12.3
-15 -2 6 -8.9 10.3
-15 -2 6 8.7 9.6
-15 -2 6 -3 7.4
-17 16 -6 7.7 12.2
-16 -1 6 25.9 13.2
17 -16 6 -10.4 10
-16 -1 6 21.1 11.3
-16 -1 6 -3.7 7.8
-17 17 -6 -13.3 13.8
17 -17 6 1.3 11.1
-17 0 6 2.3 11.8
-17 0 6 -11.6 7.3
-17 0 6 -12.1 8.1
-17 18 -6 -6.2 12.2
-18 1 6 -4.2 11.2
-18 1 6 5 9.7
17 -18 6 17.9 12.9
19 -2 -6 9.5 10.2
-19 2 6 2.7 9.9
17 -19 6 -0.2 11.9
-19 2 6 -11.4 9.8
-19 2 6 2.8 7.9
20 -3 -6 4.1 9.3
-20 3 6 -8.7 8.7
17 -20 6 20.4 15.3
21 -4 -6 15.3 10.4
-21 4 6 20.8 11.7
17 -21 6 -8.4 11.1
22 -5 -6 -13 6.5
17 -22 6 10.1 15
-22 5 6 3 12
23 -6 -6 2.2 8.2
17 -23 6 7 15
6 17 6 -9.7 4.9
24 -7 -6 8.3 9.5
7 17 6 2.6 4.7
18 5 6 -2 13.1
5 -23 6 8.6 17.2
-23 18 6 -5.4 9.8
18 5 6 6.7 7.9
-18 -4 -6 33.6 18
18 4 6 20.6 10.1
4 -22 6 12.6 18.7
-22 18 6 26.3 11.5
18 4 6 23.6 15.3
-18 -3 -6 12.8 13.1
18 3 6 -1.6 6.8
3 -21 6 11.6 17.1
18 3 6 -2.9 8.9
-21 18 6 17.1 10.4
-18 -2 -6 47.8 14.4
18 2 6 22.7 10.4
-20 18 6 59.39 12.4
2 -20 6 40.8 22.1
18 2 6 56.09 15.9
-18 -1 -6 34.5 12.6
-19 18 6 23.1 9.6
1 -19 6 25.6 16.5
18 1 6 5.2 10.6
18 1 6 4.6 7.2
0 18 -6 42.8 19.2
-18 0 -6 81.89 16.8
18 0 6 60.59 15.5
18 0 6 62.79 14.1
0 -18 6 28.9 18.2
-18 18 6 39.5 10.9
-18 1 -6 14.8 11.3
-1 -17 6 7.9 14.3
18 -1 6 -4.9 8.6
-17 18 6 4.6 7.3
18 -1 6 5.5 6.8
-18 2 -6 45.5 14.7
18 -2 6 50.09 12.1
-2 -16 6 40.6 18.1
18 -2 6 83.19 17.7
-16 18 6 70.69 11.2
-2 -16 6 59.39 17.1
-18 3 -6 22 11.2
18 -3 6 10.4 10.2
-3 -15 6 2.8 8.4
-3 -15 6 12.5 15.1
-15 18 6 17.7 6.8
18 -3 6 20.4 9.8
-18 4 -6 81.39 17.1
-4 -14 6 45.2 14.6
-4 -14 6 70.99 19.9
18 -4 6 35.3 13.2
18 -4 6 63.99 14.4
-18 5 -6 21.3 11.5
18 -5 6 10.5 10.2
18 -5 6 3.3 7.5
-5 -13 6 9.6 13.5
-5 -13 6 20.4 10.1
-18 6 -6 41.1 16.5
-6 -12 6 41.6 13.5
18 -6 6 113.29 18.3
18 -6 6 53.69 15.9
-6 -12 6 65.69 20.1
18 -7 6 38 13.6
18 -7 6 21.1 10.5
-7 -11 6 19.4 11
-7 -11 6 71.39 17.6
-8 -10 6 69.29 19.1
18 -8 6 113.89 21.4
-8 -10 6 63.09 16.5
18 -8 6 67.69 15.2
-9 -9 6 10.4 9.4
18 -9 6 -6.8 8.2
-9 18 6 5.5 6.1
18 -9 6 18.1 10
-9 -9 6 -4.1 11
18 -10 6 87.89 18
-8 18 6 92.59 12.4
-10 -8 6 65.49 19.2
-10 -8 6 56.39 14.9
18 -10 6 72.79 17.5
-11 -7 6 33.5 16
-11 -7 6 16.6 9.4
18 -11 6 33.2 13.6
-7 18 6 31.6 8.5
-12 -6 6 42.5 17.7
18 -12 6 75.99 18.1
-12 -6 6 45 13.7
-18 13 -6 4.5 13.6
-13 -5 6 19.1 14.1
18 -13 6 4.5 11.9
-13 -5 6 3.4 9
-18 14 -6 48.6 17.9
-14 -4 6 81.09 19.7
18 -14 6 67.99 17.9
-14 -4 6 56.49 15
-18 15 -6 -1.4 12
-15 -3 6 -11.3 6.9
-15 -3 6 -2.2 9.1
18 -15 6 5.4 11
-15 -3 6 38.9 16
-18 16 -6 55.19 18.5
-16 -2 6 60.99 17.6
-16 -2 6 65.59 16.4
18 -16 6 64.69 18.3
-16 -2 6 31.9 13.4
-18 17 -6 46.8 17.4
-17 -1 6 3 11.4
18 -17 6 10.6 11.7
-17 -1 6 7.1 10.5
-17 -1 6 31.9 14.2
-18 0 6 50.49 15
18 -18 6 19.9 13.7
-18 0 6 86.09 20.1
-19 1 6 4.6 12.7
18 -19 6 14 12.8
-19 1 6 29.3 12.5
20 -2 -6 42.4 14
-20 2 6 47.3 17
18 -20 6 39.3 17.7
-20 2 6 38.7 13.3
21 -3 -6 15.4 12.4
18 -21 6 12.1 14.1
-21 3 6 -1.6 11.1
22 -4 -6 42.8 13.7
23 -5 -6 24.6 11.7
18 -23 6 5.3 14
-19 -4 -6 -13.1 13.7
4 -23 6 -1.3 17
-23 19 6 9.7 10.3
19 4 6 4.6 7.3
19 4 6 11.2 10.9
-22 19 6 4.8 8.7
19 3 6 -2.5 7.7
19 3 6 24.1 18.5
3 -22 6 -5.7 16
19 2 6 -12.5 4.9
19 2 6 -17.5 7.9
-21 19 6 -20.6 6.9
-20 19 6 6 10.4
1 -20 6 17 17.3
19 1 6 18.1 9.4
19 1 6 5.8 10.9
-19 19 6 -2.4 7.6
19 0 6 2 8.1
0 -19 6 -3.1 14.4
19 0 6 -7.1 8.3
-1 -18 6 17.7 17.9
19 -1 6 10.4 11.7
-18 19 6 11.1 7.9
19 -1 6 -9.7 6.5
19 -2 6 -2.7 6.9
-2 -17 6 1.7 13.1
19 -2 6 12.1 9.8
-17 19 6 15.8 7.7
19 -3 6 8.7 10.2
-3 -16 6 20.9 16.1
19 -3 6 19.8 9.7
-16 19 6 21.9 8.3
19 -4 6 0 9
19 -4 6 -0.7 5.9
-4 -15 6 18.6 16.1
-15 19 6 -8.6 5.9
19 -5 6 11.1 9.7
19 -5 6 -1.3 8.4
-5 -14 6 6.2 15.3
-14 19 6 -3.5 5.9
-6 -13 6 15.8 9.8
19 -6 6 7.5 8.4
-6 -13 6 -13.4 11.8
-13 19 6 6.7 5.9
19 -6 6 2.3 9.9
19 -7 6 16.2 8.8
19 -7 6 18.8 11.3
-7 -12 6 11.7 7.2
-7 -12 6 8.1 12.8
-19 8 -6 0.3 12.8
-8 -11 6 0.1 11.4
19 -8 6 4.1 9.4
19 -8 6 10 8.3
-8 -11 6 -6.7 7.2
-11 19 6 -3.5 5.3
-19 9 -6 25.4 19.4
-10 19 6 17.5 6.5
19 -9 6 1 9.4
-9 -10 6 28.2 14.6
19 -9 6 22 9.5
-9 -10 6 10.7 9.2
-19 10 -6 21.5 24.2
-10 -9 6 -11.4 10.1
-10 -9 6 -9.3 6.6
19 -10 6 -18.4 8.4
19 -10 6 13.4 9.3
-9 19 6 2.9 6
-19 11 -6 3.5 13.2
19 -11 6 -2.6 6.7
-11 -8 6 1.9 11.8
19 -11 6 1.5 10.1
-8 19 6 9.7 6.2
-11 -8 6 -5.3 7.3
-19 12 -6 23.8 13.6
19 -12 6 -3.1 10.3
-12 -7 6 -6.8 7.6
-7 19 6 13.1 7.6
-12 -7 6 2.1 13
19 -12 6 8.2 9.6
-19 13 -6 10.2 13.2
19 -13 6 9.7 13
-13 -6 6 -7.1 12.3
-13 -6 6 15.2 10.4
-19 14 -6 6.4 15
-14 -5 6 -0.9 12.6
-14 -5 6 26.2 11.4
19 -14 6 5.2 10.8
-19 15 -6 0.4 13.6
19 -15 6 7.8 11
-15 -4 6 3.6 13.2
-15 -4 6 -8.6 8.4
-19 16 -6 20.3 15.1
-16 -3 6 21.6 14.3
19 -16 6 13.9 13.7
-16 -3 6 35.8 13.7
-17 -2 6 -8.8 11.3
19 -17 6 -4.9 11.5
-17 -2 6 -6.5 9.8
-18 -1 6 30.6 12.5
-18 -1 6 48.8 16.8
19 -18 6 22.1 14.9
19 -19 6 -1 11.2
-19 0 6 0.3 9.8
-19 0 6 -13 10
20 -1 -6 4.6 10.8
19 -20 6 18.8 14.8
-20 1 6 19.4 14.3
21 -2 -6 3 9.3
-21 2 6 -5.3 11.8
22 -3 -6 8.3 11.1
-22 3 6 -6.5 11.6
19 -22 6 4.5 15
23 -4 -6 -3.2 21.6
19 -23 6 -5.2 12
-20 -2 -6 9 15.1
2 -22 6 -0.8 16.2
20 2 6 11.7 12.2
20 2 6 35 11
-22 20 6 6.3 9.8
-20 -1 -6 2.4 13.6
20 1 6 36.3 18.9
-21 20 6 24.2 10.4
20 1 6 1.6 9
1 -21 6 2.2 15.9
-20 0 -6 49.3 16.5
20 0 6 32.8 10.7
20 0 6 37.9 17
-20 20 6 10.9 9.8
-20 1 -6 19.8 14.8
20 -1 6 0.9 9.4
-1 -19 6 -2 17.2
20 -1 6 12.2 9.6
-19 20 6 15.8 10.1
-20 2 -6 31.4 16.5
20 -2 6 51.49 12.9
20 -2 6 32.2 12.7
-18 20 6 34.2 10.8
-2 -18 6 50.49 20.4
-20 3 -6 9 13.6
-17 20 6 10.3 8.1
-3 -17 6 -3.9 15.8
20 -3 6 4.7 8.8
20 -3 6 1.6 9.4
-20 4 -6 41.5 16.2
20 -4 6 33.1 14.1
-16 20 6 27.3 9.9
20 -4 6 47.1 12
-4 -16 6 85.69 21.5
-20 5 -6 8.1 13.6
-15 20 6 33.7 8.3
20 -5 6 4.1 10.8
20 -5 6 15.1 9.1
-5 -15 6 -7.5 13.6
-20 6 -6 55.79 16.5
20 -6 6 45 13.3
20 -6 6 41.7 14.4
-14 20 6 47.7 9.7
-6 -14 6 29.8 16.7
-20 7 -6 14 13.3
-13 20 6 -3.1 5.7
20 -7 6 -0.7 10.2
-7 -13 6 30.6 17.1
20 -7 6 31.2 12.3
-20 8 -6 56.69 16.4
20 -8 6 54.89 15
-12 20 6 34.3 9.5
20 -8 6 64.19 16.9
-8 -12 6 26.9 16.1
-20 9 -6 30.6 14.2
-11 20 6 1 6.5
-9 -11 6 27.5 15
20 -9 6 5 7.6
20 -9 6 4.4 11.1
-20 10 -6 22.5 13.9
-10 -10 6 35.5 15.2
-10 20 6 24.6 8.6
20 -10 6 18.9 12.7
20 -10 6 36.2 12.2
-20 11 -6 5.5 13.3
20 -11 6 8 10.5
-9 20 6 -4.3 7
20 -11 6 22.2 12.5
-11 -9 6 -20 11.1
-20 12 -6 64.49 18.8
20 -12 6 49.8 15.6
-8 20 6 57.09 11.2
-12 -8 6 39.1 17.1
20 -12 6 45 13.7
-20 13 -6 7.7 12.5
20 -13 6 9.5 12.1
-13 -7 6 0.9 12.9
20 -13 6 14.5 11.2
-7 20 6 22.5 8.7
-20 14 -6 31.8 15.7
20 -14 6 46.5 14.2
-14 -6 6 18.8 14.8
20 -14 6 18.6 12.6
-20 15 -6 11.3 24.9
-15 -5 6 13.1 11.3
-15 -5 6 8.3 13.1
20 -15 6 21.6 13.4
-16 -4 6 63.39 18.1
-16 -4 6 20 16.5
20 -16 6 37.2 16.4
-17 -3 6 8.5 13.4
20 -17 6 20.9 14.9
-18 -2 6 32.1 17.1
20 -18 6 49.99 16.7
20 -19 6 -9.4 12.3
-19 -1 6 1.1 13.4
-20 0 6 47.6 16.4
21 -1 -6 3.8 10.3
-21 1 6 -21.9 11.5
20 -21 6 23.2 18.2
22 -2 -6 23 18
-22 2 6 2.2 12.4
20 -22 6 13.5 14.9
-21 0 -6 -9.4 13.6
0 -21 6 18 17
-21 21 6 8.8 10.1
21 0 6 -2 9.8
21 0 6 -0.8 7.6
-21 1 -6 -0.5 14.6
21 -1 6 -0.7 13.2
21 -1 6 0.8 8.4
-20 21 6 25.8 12.1
-1 -20 6 1.4 19.2
-21 2 -6 7.3 14.1
21 -2 6 -8.1 6.9
-19 21 6 -8 8.7
-21 3 -6 -5.5 14.2
21 -3 6 0.4 7.6
-18 21 6 0.6 9.9
21 -3 6 5.6 10
-21 4 -6 -0.6 13.3
21 -4 6 -3.8 7.3
21 -4 6 -11.1 9.5
-4 -17 6 3 16.4
-17 21 6 3.6 8.1
-21 5 -6 -0.2 13.9
-5 -16 6 5.2 15.2
21 -5 6 15.9 9.1
-16 21 6 24.6 8.6
21 -5 6 -0.7 12
-21 6 -6 -17.4 12
21 -6 6 9.8 10.8
-15 21 6 -4.8 7.6
21 -6 6 -13.3 6.2
-6 -15 6 13.1 15.8
-21 7 -6 6.6 13.2
-14 21 6 -14.9 6.2
-7 -14 6 6.7 14.7
21 -7 6 -7.8 6.4
21 -7 6 -14.4 8.3
-21 8 -6 -12.7 11.2
-8 -13 6 12.1 13.3
-13 21 6 -2.8 7.2
21 -8 6 6.8 8.2
21 -8 6 -1 9.4
-21 9 -6 0.9 13.6
-9 -12 6 -12.3 12.3
21 -9 6 5.2 10.2
21 -9 6 5.2 9.7
-12 21 6 -13.4 6.4
-21 10 -6 0.7 13.2
21 -10 6 18.3 12
-11 21 6 1.7 7.2
21 -10 6 4.7 8.4
-10 -11 6 1.1 12.5
-21 11 -6 3.4 11.9
-10 21 6 6.4 7.2
-11 -10 6 -1.9 11.1
21 -11 6 -2.2 7
21 -11 6 -14.8 9.2
-21 12 -6 -23.3 10.3
-9 21 6 -0.6 7.8
21 -12 6 -1.6 10.1
-12 -9 6 -3.3 12
21 -12 6 -4.9 8
21 -13 6 22.5 12.7
-8 21 6 3.6 8.1
21 -13 6 -1.4 9
-13 -8 6 9.8 13.5
21 -14 6 5.2 11.7
-14 -7 6 -30.2 10.9
-7 21 6 18.4 8.6
21 -14 6 -7.3 8.9
21 -15 6 -2.4 9.4
-15 -6 6 0 12.3
21 -15 6 -11 10.1
-16 -5 6 25.9 16.7
21 -16 6 11.9 11.2
21 -16 6 -8.8 11.5
21 -17 6 7.3 12.5
-17 -4 6 -0.3 12.7
21 -18 6 16.3 15.8
-18 -3 6 51.89 16.9
-19 -2 6 -6.6 12.7
21 -20 6 10.3 14.6
-20 -1 6 17.4 15.7
21 -21 6 -12 13.5
-21 0 6 -16.6 11.5
22 -2 6 43.8 15
22 -2 6 -5.1 9
-2 -20 6 23.8 19
22 -3 6 -17.3 8.3
-19 22 6 -5.3 9.4
-3 -19 6 -9.3 14
22 -3 6 -8.4 6.6
-22 4 -6 -7.8 16.4
22 -4 6 9.8 9.6
22 -4 6 24.7 13.9
-18 22 6 35.3 11
-4 -18 6 2.6 17.1
-22 5 -6 10.1 16.4
22 -5 6 9.6 9.5
-17 22 6 -6.4 7.6
-22 6 -6 13.3 18.9
-16 22 6 25.1 10.1
22 -6 6 40.3 13.2
22 -6 6 24 16
-22 7 -6 -2.3 17.7
22 -7 6 5.8 11.2
22 -7 6 13.3 9.7
-15 22 6 18.5 8.6
-7 -15 6 24.2 17.1
-22 8 -6 48.7 27.7
-14 22 6 48.8 10.7
22 -8 6 24.3 14.2
-8 -14 6 -3.7 14.2
22 -8 6 31.3 13.1
-13 22 6 5.5 7.2
-9 -13 6 6.9 14.3
22 -9 6 -2.9 7.8
22 -9 6 14.3 10.4
22 -10 6 20.9 12
22 -10 6 14 10.7
-12 22 6 21.9 9.2
-10 -12 6 -2.3 14.4
22 -11 6 15.2 10.9
-11 22 6 1.1 8
-11 -11 6 -0.9 13.1
22 -11 6 -15.4 7.2
22 -12 6 25.9 9.9
22 -12 6 47.8 15.3
-10 22 6 32.3 10.4
-12 -10 6 2.1 13.4
-9 22 6 2.4 8.1
22 -13 6 4.8 10.8
22 -13 6 -1.7 9.1
-13 -9 6 25.9 17
22 -14 6 33.8 13.5
-14 -8 6 65.59 19.5
-8 22 6 29.2 11.4
22 -14 6 62.09 16.5
22 -15 6 0 8.8
22 -15 6 3.8 10.9
-15 -7 6 -7.9 12.3
22 -16 6 47 19.8
22 -16 6 15.2 14.6
-16 -6 6 23.8 17.8
22 -17 6 -9.4 10.8
-17 -5 6 11.8 14.8
22 -18 6 66.29 22.2
22 -18 6 12.7 11.4
-18 -4 6 -5 13.8
22 -19 6 2.9 10.7
-19 -3 6 22.4 15
22 -19 6 0.4 9.4
22 -20 6 10.9 14.8
-20 -2 6 18.2 21
23 -4 6 9.4 11.9
-19 23 6 17.1 11.8
-4 -19 6 22.3 16.9
-5 -18 6 -7.4 14.8
-18 23 6 12.4 9.9
23 -5 6 12.9 10
23 -5 6 24.7 13.2
-6 -17 6 -29.6 12.6
-17 23 6 1.1 8.7
23 -6 6 18.4 13.3
-16 23 6 0.4 8.3
-7 -16 6 18.9 17.6
23 -7 6 -4.8 10.2
23 -8 6 -3.8 13.4
-15 23 6 14.9 8.5
23 -8 6 9.2 12.5
-8 -15 6 -22.5 14.1
23 -9 6 14.6 16.4
-14 23 6 8 8.2
23 -9 6 -16.5 11.1
23 -10 6 -2.4 9.1
-13 23 6 6.6 8.9
-12 23 6 2.4 7.7
23 -11 6 7 12.1
23 -12 6 -10.9 14.6
-11 23 6 15.3 8.9
-10 23 6 -9.3 8.1
23 -13 6 -1.1 13.6
23 -14 6 19.9 17.6
-14 -9 6 -25.8 14.2
-9 23 6 3.6 11.5
23 -14 6 -14.4 9.1
23 -15 6 6.2 9.8
23 -15 6 -2.2 11.1
-8 23 6 14.3 9.4
23 -16 6 4.9 9.8
23 -17 6 -18 8.5
23 -17 6 -11.3 9.4
23 -18 6 -11.4 10.8
23 -18 6 -16.6 8.5
23 -19 6 -11.1 7.6
23 -19 6 -5.6 13.4
-19 -4 6 2.2 15.1
24 -7 6 16 10.3
24 -8 6 -0.6 11.1
-8 -16 6 19.4 19.7
-16 24 6 45.7 11.1
24 -9 6 -10.7 7.2
-15 24 6 15.8 9.5
24 -9 6 -8.4 9.8
-9 -15 6 23.7 19.1
24 -10 6 11.1 10.4
24 -10 6 6 10.9
-14 24 6 16 9.2
-10 -14 6 15.6 17.8
-11 -13 6 -3.3 14.4
24 -11 6 1.2 9.2
-13 24 6 2.1 9
24 -11 6 -3.4 9.6
24 -12 6 -3.4 9.8
-12 24 6 3.9 10.2
24 -12 6 20.4 11.7
-12 -12 6 26.4 17.1
-13 -11 6 -3.7 13.9
24 -13 6 -17.7 7.3
24 -13 6 -17 9.8
-14 -10 6 15.3 17
24 -14 6 17 13.7
-10 24 6 -18.3 8.7
24 -14 6 13.8 11.7
-9 24 6 1.9 9.9
-15 -9 6 -17.8 14.1
24 -15 6 10.7 10
24 -15 6 4.8 10.6
24 -16 6 5.7 13
-16 -8 6 25.6 18.1
24 -16 6 26.7 12.2
-8 24 6 10.2 10.6
24 -17 6 -8.4 9.2
0 0 7 162.08 21.6
1 0 7 8.4 8.8
0 -1 7 29.3 10.3
-1 1 7 -2.2 7.6
0 1 7 15.4 9.1
-1 0 7 10.1 9.2
1 -1 7 20.8 10.9
-2 1 7 1.8 8.3
-2 1 7 -8.9 5.2
1 -2 7 -5.9 8.3
1 1 7 0.7 7.5
2 1 7 7.2 8.2
1 -3 7 1.6 10.3
-3 2 7 11.4 8.5
-3 2 7 5 6.2
-2 2 7 0.3 7.9
0 -2 7 -9.6 8.5
2 0 7 -12.3 6.6
-2 2 7 -2.3 6.6
2 -1 7 8.5 8.6
-1 -1 7 -10.1 7.8
-1 2 7 -0.5 7.2
-2 0 7 -10 5.2
-2 0 7 -9.1 7.6
0 2 7 18.9 9.1
2 -2 7 5.2 8.7
1 2 7 10.6 7.8
2 -3 7 14.4 10.5
-3 1 7 21.6 7.8
-3 1 7 10.6 9
2 2 7 89.79 14.6
-4 2 7 77.49 14.6
2 -4 7 84.19 17.6
-5 3 7 12.5 8.3
2 -5 7 5.7 10.3
3 2 7 19.6 8.8
-5 3 7 11.5 7.3
3 1 7 19.1 9.2
-4 3 7 26.1 9
1 -4 7 12.1 10.7
-3 3 7 -3.5 6.1
0 -3 7 7.5 9.9
3 0 7 0.7 7
-3 3 7 22 8.7
-1 -2 7 3.7 9.1
3 -1 7 -3.2 7.7
-2 3 7 8.4 7.9
-2 3 7 9.8 6.5
-2 -1 7 5.6 8.8
-2 -1 7 6.8 7.1
-1 3 7 12 8.1
3 -2 7 10.4 9.5
0 3 7 14.7 8.3
-3 0 7 2.8 7.3
-3 0 7 -4.9 8
3 -3 7 3 9.3
-3 4 -7 5.4 7.4
3 -4 7 24.8 11
1 3 7 28.5 8.7
-4 1 7 8.7 7.6
-3 5 -7 4.4 8.6
2 3 7 23.1 9.5
-5 2 7 6.3 7.5
3 -5 7 34.8 11.9
-5 2 7 25.2 9.5
-3 6 -7 -2 9.1
-6 3 7 17.4 7.9
3 -6 7 13.7 10.8
3 3 7 8.6 8.2
-6 3 7 30.2 8.9
-3 7 -7 67.09 14.3
3 -7 7 71.09 17.1
4 3 7 59.99 12.9
-7 4 7 60.29 12.5
-7 4 7 67.29 12
-2 6 -7 207.28 23.1
4 2 7 171.68 23.8
-6 4 7 221.78 23.1
2 -6 7 181.98 26.3
1 -5 7 98.29 18.8
4 1 7 113.89 17.5
-5 4 7 97.69 15.1
-5 4 7 100.69 16.9
0 -4 7 243.48 28.2
4 0 7 237.28 27
-4 4 7 205.48 24.8
-3 4 7 19.4 8.2
4 -1 7 15.9 9.2
-1 -3 7 29.4 11.9
-2 4 7 71.49 13
-2 4 7 105.29 14.9
-2 -2 7 94.99 16.3
-2 -2 7 78.89 16
4 -2 7 100.69 16.9
-4 3 -7 28.9 7.8
-3 -1 7 29.1 11.3
-1 4 7 15.5 8.6
4 -3 7 34.5 11.8
-3 -1 7 23.2 11.7
-4 4 -7 240.48 25.1
0 4 7 208.58 25.3
-4 0 7 277.07 28
-4 0 7 232.08 27
4 -4 7 241.78 29.5
-4 5 -7 107.99 15.9
-5 1 7 106.79 17
4 -5 7 87.49 18.2
-5 1 7 82.49 15.6
1 4 7 118.69 16.5
-4 6 -7 165.98 23.2
-6 2 7 208.08 23.2
4 -6 7 179.98 26.6
2 4 7 180.18 22.3
-6 2 7 187.88 23.2
-4 7 -7 73.09 14.9
-7 3 7 74.49 13.6
3 4 7 69.49 13.4
-7 3 7 43.8 11.6
4 -7 7 86.09 16.8
-4 8 -7 223.28 29.1
-8 4 7 258.67 26.7
-8 4 7 237.48 26.2
4 4 7 255.47 27.1
4 -8 7 219.38 31.7
-4 9 -7 24.4 12.6
-9 5 7 50.09 11.4
-9 5 7 53.39 11.7
5 4 7 42.7 11.1
4 -9 7 22.1 12.6
-3 8 -7 -7.4 9.1
-8 5 7 25.5 8.4
3 -8 7 1.2 11.1
-8 5 7 6 6.3
5 3 7 -6.1 7.5
-2 7 -7 -7.9 7.8
5 2 7 16.5 8.9
-7 5 7 -0.2 6.7
2 -7 7 5 10.7
-6 5 7 23.2 8.6
1 -6 7 14.6 11.8
5 1 7 18.1 9.3
-6 5 7 27.5 7.9
-5 5 7 22.9 7.8
0 -5 7 2.6 10.4
5 0 7 2.2 8.2
-1 -4 7 114.49 19.6
-4 5 7 150.68 16.8
5 -1 7 97.49 18.1
-4 5 7 115.09 16.6
-1 -4 7 110.29 20.2
-5 2 -7 8.6 6.1
-2 -3 7 3.9 7.8
-3 5 7 28.9 8.4
-3 5 7 48.6 9.6
-2 -3 7 23.9 11.6
5 -2 7 14.9 9.8
-5 3 -7 21 8
5 -3 7 18.8 10.4
-3 -2 7 16.7 11.5
-2 5 7 8.7 6.3
-3 -2 7 6.3 8.1
-5 4 -7 136.99 16.7
-4 -1 7 86.99 16.1
5 -4 7 123.79 19.1
-1 5 7 88.99 14.2
-4 -1 7 64.59 14.2
-5 5 -7 18.8 9.1
5 -5 7 11.3 11.2
-5 0 7 -4.3 8.2
0 5 7 19.6 7.4
-5 6 -7 34.1 11
1 5 7 18 8.9
-6 1 7 19.3 9
-6 1 7 28.7 10.5
5 -6 7 14.4 12.1
-5 7 -7 7.8 10.2
-7 2 7 15.8 9.9
-7 2 7 -0.1 6.9
2 5 7 13.8 7.7
5 -7 7 16.4 12.3
-5 8 -7 -10.6 9.6
3 5 7 8.9 7.3
-8 3 7 11 7.5
5 -8 7 12.9 11.9
-8 3 7 6.9 7.9
-5 9 -7 16.2 12.3
-9 4 7 30.3 10.8
4 5 7 38.6 10.4
-9 4 7 26.8 9.8
5 -9 7 18.8 12.9
-5 10 -7 -18.4 9.2
-10 5 7 8.1 6.4
-10 5 7 25.3 9.5
5 5 7 4.4 7.6
-5 11 -7 12.1 11.7
-11 6 7 21.8 8.3
5 -11 7 22.8 12.8
6 5 7 18.5 7.9
6 5 7 22.2 9.4
-11 6 7 17.7 9.6
-4 10 -7 160.38 25.1
-10 6 7 204.78 22
-10 6 7 190.68 21.6
6 4 7 167.48 22.8
-3 9 -7 60.79 14.7
3 -9 7 90.49 19.3
6 3 7 66.89 13.6
-9 6 7 60.49 11.6
-2 8 -7 167.08 23.3
-8 6 7 151.48 19.1
6 2 7 163.68 21.8
-8 6 7 161.18 19.6
2 -8 7 161.18 25.3
1 -7 7 67.39 15.9
-7 6 7 62.49 10.6
6 1 7 65.99 13.4
-7 6 7 32.8 9.3
6 0 7 194.88 22.8
-6 6 7 162.78 19.2
0 -6 7 153.98 23.9
-6 6 7 153.18 18.5
-6 1 -7 28.8 7.3
-1 -5 7 36.6 11
-5 6 7 18.9 7.9
-1 -5 7 38.9 13.8
-5 6 7 16.8 7.2
6 -1 7 37.4 11.9
-6 2 -7 205.48 21.2
-2 -4 7 170.18 24.3
-2 -4 7 175.98 25.5
-4 6 7 194.98 21.7
6 -2 7 213.38 26
-4 6 7 218.48 21.6
-6 3 -7 -3.6 6.9
6 -3 7 10.5 9.5
-3 -3 7 2.4 10.5
-3 -3 7 3.3 8.9
-3 6 7 12 6.1
-3 6 7 3.2 6.8
-6 4 -7 202.28 22.2
-4 -2 7 189.28 24.9
-2 6 7 187.38 20.1
-2 6 7 185.58 20
-4 -2 7 169.78 23
6 -4 7 126.79 23.4
-6 5 -7 33.7 10.5
-5 -1 7 29.8 10.6
-5 -1 7 11.2 10.7
6 -5 7 12.5 10.8
-6 6 -7 186.18 22.8
-6 0 7 143.29 22.6
6 -6 7 182.28 26
-6 0 7 179.98 22.6
0 6 7 168.88 20.1
-6 7 -7 47.6 12.8
1 6 7 58.09 11.2
6 -7 7 78.69 17.4
-7 1 7 98.19 15.9
-7 1 7 47.2 11.9
-8 2 7 154.98 21
2 6 7 144.49 18.7
-8 2 7 162.78 20
6 -8 7 119.19 23.4
-6 9 -7 72.79 16
-9 3 7 55.49 14.1
6 -9 7 94.69 18.8
3 6 7 85.39 14
-9 3 7 78.99 14.5
-6 10 -7 112.39 21.2
-10 4 7 139.59 19.3
4 6 7 142.49 19.6
-10 4 7 195.68 21.4
-6 11 -7 15.9 11.2
5 6 7 29.2 9.8
6 -11 7 24.4 13.1
5 6 7 44.2 9.8
-11 5 7 18.3 9
-11 5 7 29.5 10.8
-6 12 -7 156.78 24.4
6 -12 7 146.59 27.7
6 6 7 165.78 21.5
-12 6 7 164.58 20.4
6 6 7 129.99 19
-12 6 7 168.08 21
-6 13 -7 13.2 11.1
7 6 7 10.1 7.3
-13 7 7 3.2 6.7
7 6 7 2.7 7.7
6 -13 7 16 12.5
-5 12 -7 12.1 12.2
7 5 7 3 8.6
-12 7 7 14.5 7.6
7 5 7 11.6 7.1
5 -12 7 10.9 12.2
-4 11 -7 -12.9 8.3
7 4 7 8.8 6.9
-11 7 7 4.6 6.5
7 4 7 25.1 9.9
-11 7 7 -7.6 6.7
4 -11 7 20.9 13.7
-3 10 -7 9.9 11.1
-10 7 7 1 6
7 3 7 10 8.1
-2 9 -7 4 10.1
2 -9 7 -1.6 10.7
7 2 7 -13 6.5
-9 7 7 12.4 6.4
-9 7 7 10.8 7.3
-1 8 -7 -3.6 8.4
-8 7 7 11.3 6
7 1 7 4.7 8.9
1 -8 7 -8.7 8.9
-8 7 7 27.7 7.6
0 -7 7 -0.8 10.6
-7 7 7 10.1 6.5
7 0 7 8.5 8.2
-7 7 7 15.1 6.1
-7 1 -7 48.6 9.6
-1 -6 7 48.1 12.5
7 -1 7 65.49 14.4
-6 7 7 41.6 9.2
-6 7 7 68.99 10.2
-1 -6 7 60.89 16.2
-7 2 -7 11.4 7.7
-2 -5 7 -12.4 9.1
-2 -5 7 12.2 9.9
-5 7 7 11.6 6.2
-5 7 7 23.6 7.1
7 -2 7 14.1 10.1
-7 3 -7 72.19 13
-3 -4 7 52.59 13.2
7 -3 7 103.99 17.8
-3 -4 7 58.49 15.5
-4 7 7 70.79 11.3
-4 7 7 90.19 12.2
-7 4 -7 81.49 14.2
-4 -3 7 62.09 15.4
-3 7 7 54.49 10.6
-4 -3 7 58.19 13.7
-3 7 7 72.89 11.2
7 -4 7 89.59 16.1
-7 5 -7 9.3 9.7
-5 -2 7 -1.3 6.5
-2 7 7 2.3 6
-2 7 7 3.6 5.5
7 -5 7 11 11.1
-5 -2 7 -13.8 8.5
-7 6 -7 82.39 14.4
-6 -1 7 53.09 12.7
7 -6 7 44.2 14
-6 -1 7 42.7 12.9
-7 7 -7 24.7 10.7
7 -7 7 5.6 10
0 7 7 14.8 7
-7 0 7 7.9 9.5
-7 0 7 5.4 7.5
-7 8 -7 5.3 12.3
7 -8 7 45.8 12.9
-8 1 7 12.1 7.6
-8 1 7 -1.8 9.2
1 7 7 0.1 6.3
-7 9 -7 -3.9 9.5
-9 2 7 8.9 7
2 7 7 14.7 7.6
-9 2 7 13.5 10.3
7 -9 7 12.6 10.7
-7 10 -7 2.3 10.1
3 7 7 9.5 7.2
3 7 7 -1.2 5.2
-10 3 7 30.1 10.6
-10 3 7 -1.9 5.9
7 -10 7 -4.4 14.5
-7 11 -7 1 9.6
-11 4 7 -6.1 5.7
4 7 7 8 6.4
4 7 7 5.1 7.6
7 -11 7 7.6 11.8
-11 4 7 16.6 9.3
-7 12 -7 15.8 12
7 -12 7 11.3 12.9
-12 5 7 9.4 7.7
-12 5 7 27 10.8
5 7 7 17.4 8.6
5 7 7 9.5 7.1
-7 13 -7 0.1 10.4
7 -13 7 15.9 13.1
-13 6 7 2.8 7.7
-13 6 7 -4.5 8.6
6 7 7 -5.7 7.4
6 7 7 10.5 6.7
-7 14 -7 67.99 17.4
-14 7 7 68.79 14.2
7 7 7 77.09 13.1
7 -14 7 81.09 20
7 -15 7 -5 11.5
-15 8 7 -2 5.3
8 7 7 13.4 9
8 7 7 -8.5 4.3
-6 14 -7 98.79 20.2
8 6 7 130.69 17.6
6 -14 7 86.49 21.8
8 6 7 125.59 19.2
-14 8 7 136.69 18.1
-5 13 -7 9.9 11.7
5 -13 7 -11.9 10.5
-13 8 7 -3.7 6.7
8 5 7 5.3 6.4
8 5 7 5.1 8.1
-4 12 -7 97.29 18.6
-12 8 7 94.59 15.1
8 4 7 99.99 15.4
4 -12 7 51.19 17
8 4 7 92.39 17.2
-3 11 -7 27.7 12.8
8 3 7 39.8 9.8
8 3 7 23 10.3
-11 8 7 38.6 10.4
3 -11 7 21.1 13.7
-2 10 -7 88.79 16.6
-10 8 7 65.39 11.2
-10 8 7 80.09 12.5
8 2 7 62.89 14.3
-1 9 -7 37.5 12.1
-9 8 7 20.3 7.4
1 -9 7 30 13.4
8 1 7 29.3 10.6
-9 8 7 34.3 8.2
-8 0 -7 61.49 10.2
0 -8 7 87.59 18
8 0 7 83.89 15.7
-8 8 7 61.29 9.6
-8 8 7 40.4 9.2
0 -8 7 44.4 11.9
-8 1 -7 0.6 6.7
-7 8 7 3.2 5.1
-1 -7 7 -9.9 9.9
8 -1 7 5.6 8.8
-7 8 7 -3.6 5
-1 -7 7 13.4 8.3
-8 2 -7 159.18 19.8
-6 8 7 169.68 18.1
8 -2 7 166.08 23.2
-2 -6 7 143.09 23.8
-6 8 7 170.48 17.5
-2 -6 7 135.99 23.1
-8 3 -7 11 8.7
-5 8 7 11.9 6.2
-5 8 7 7.1 5.9
-3 -5 7 14.6 11.9
8 -3 7 30.8 10.8
-3 -5 7 13.4 9.4
-8 4 -7 216.48 26.3
-4 8 7 236.08 23.2
8 -4 7 214.38 29.2
-4 -4 7 225.48 27.6
-4 8 7 227.68 22.9
-4 -4 7 225.58 28.9
-8 5 -7 -0.6 9.3
-5 -3 7 3.1 10.6
8 -5 7 10.4 10.6
-5 -3 7 7 8.7
-3 8 7 2.4 5.7
-3 8 7 10 6.1
-8 6 -7 173.78 22
-6 -2 7 124.59 20.2
-2 8 7 142.59 17
-2 8 7 156.68 17.4
-6 -2 7 141.19 22.2
8 -6 7 139.49 23.2
-8 7 -7 6.4 15
-7 -1 7 12.7 9.7
-7 -1 7 7.5 7.4
8 -7 7 -2.9 9.7
-8 8 -7 54.09 14.2
8 -8 7 65.09 16.2
-8 0 7 67.19 14.7
0 8 7 58.39 11
-8 0 7 93.59 15.4
-8 9 -7 27.7 12.3
-9 1 7 20.8 10.6
-9 1 7 42.4 10.3
8 -9 7 39.6 18.9
1 8 7 19.5 7.9
-8 10 -7 54.69 15
2 8 7 94.99 13.6
-10 2 7 60.49 13.7
8 -10 7 46.7 14.8
2 8 7 53.69 10.8
-10 2 7 55.79 12
-8 11 -7 15.7 11.6
8 -11 7 38.9 14.1
-11 3 7 46.8 11.4
3 8 7 36.9 8.4
3 8 7 44.1 10.6
-11 3 7 54.79 13.3
-8 12 -7 85.09 17.9
-12 4 7 81.39 15.1
8 -12 7 100.89 20.2
4 8 7 82.29 13.3
4 8 7 105.59 16.1
-12 4 7 101.59 16.7
-8 13 -7 19.1 12.6
8 -13 7 10.3 11.7
5 8 7 17.6 7
5 8 7 2 6.7
-13 5 7 7.3 7.4
-13 5 7 -10.6 8.8
-8 14 -7 72.89 18.5
8 -14 7 175.28 27.5
6 8 7 109.29 15.6
-14 6 7 87.29 16.4
-14 6 7 157.48 20.9
6 8 7 107.89 17.8
7 8 7 -7.2 6.5
7 8 7 2.3 5.9
8 -15 7 4 12.3
-15 7 7 -2.1 6.7
-8 16 -7 42.6 20.8
8 8 7 61.29 15.3
-16 8 7 67.99 15.7
-16 8 7 81.79 15.1
8 8 7 37.2 10.3
8 -16 7 122.49 24.1
-8 17 -7 -3.7 10.4
-17 9 7 14.2 8.5
9 8 7 5.2 8.2
8 -17 7 4 13.6
-17 9 7 -6.8 5.5
9 8 7 -5.9 5.8
-7 16 -7 10.2 16.6
9 7 7 18.2 7.9
7 -16 7 12.6 13.8
-16 9 7 34.4 10.7
-16 9 7 15.7 9
-15 9 7 23.6 9
6 -15 7 8.3 13.7
9 6 7 11.3 9.2
9 6 7 11.1 7.9
-5 14 -7 26.9 12.9
5 -14 7 20.1 13.9
9 5 7 7.1 9.1
-14 9 7 15.5 8.1
9 5 7 19 8.9
-4 13 -7 1.7 10.8
-13 9 7 0.7 5.8
9 4 7 2.8 6.7
9 4 7 10.8 9
4 -13 7 1 12
-3 12 -7 -12.4 8.8
-12 9 7 -6.4 6.3
9 3 7 7.4 9.5
3 -12 7 7.7 11.1
9 3 7 -8 5.7
-2 11 -7 7.4 10.5
9 2 7 -1.1 8.1
-11 9 7 2.2 5.6
2 -11 7 11.4 12.3
9 2 7 -0.7 7.5
-1 10 -7 7.7 9.4
-9 -1 -7 -13.8 5.2
-10 9 7 5.8 4.9
9 1 7 13.4 9.4
1 -10 7 5.8 8.8
1 -10 7 -21 9.3
-9 0 -7 -0.7 6.6
9 0 7 -4.2 7.3
0 -9 7 4.6 7.6
-9 9 7 -1.2 4.5
-9 9 7 22.2 6
0 -9 7 -7.8 10
-9 1 -7 20.5 9.2
-1 -8 7 20.2 9.6
9 -1 7 13.3 9.8
-8 9 7 29.4 7
-1 -8 7 9.6 11.8
-9 2 -7 4.8 7.8
-7 9 7 11.2 5.3
-2 -7 7 -0.7 7.6
9 -2 7 20 10.5
-2 -7 7 16 12
-9 3 -7 85.59 14.5
-3 -6 7 89.29 17.2
-6 9 7 68.99 11.1
9 -3 7 81.29 16.2
-3 -6 7 69.69 17
-9 4 -7 22.7 10.5
-4 -5 7 38.1 14.5
-4 -5 7 29.8 9.6
-5 9 7 29.7 7.2
9 -4 7 50.19 13.6
-9 5 -7 27.1 11.7
-5 -4 7 28.1 13.4
-4 9 7 28.6 7.2
-4 9 7 21.1 6.8
-5 -4 7 29 10.3
9 -5 7 27.4 12.9
-9 6 -7 80.89 16.1
-6 -3 7 92.29 17
-6 -3 7 87.39 16.5
-3 9 7 59.89 10.3
-3 9 7 62.59 10.7
9 -6 7 92.19 18
-9 7 -7 8 10.7
-7 -2 7 11.1 8
-7 -2 7 4.8 10.6
-2 9 7 -2.3 5.9
9 -7 7 21.7 12.2
-9 8 -7 47.7 14.2
-8 -1 7 53.49 14.1
-8 -1 7 37.5 10.8
9 -8 7 50.29 16
-9 9 -7 13.8 10.8
-9 0 7 1.1 9.9
-9 0 7 4 6.1
9 -9 7 -6.7 10.6
0 9 7 6 6
-9 10 -7 -14.5 9
-10 1 7 -3.6 8
-10 1 7 10.6 8.3
1 9 7 -7.5 4
1 9 7 -2.8 5.6
9 -10 7 -6.4 8.2
-9 11 -7 -0.5 10.7
2 9 7 3.7 5
-11 2 7 6.7 6.7
2 9 7 6.9 6.6
-11 2 7 -14.9 7.8
9 -11 7 -2.3 10.6
-9 12 -7 9.7 10.3
9 -12 7 -19.6 8.9
-12 3 7 8.7 9.4
3 9 7 -1.6 4.9
3 9 7 20 8.1
-12 3 7 -13.5 5.4
-9 13 -7 -14.6 9.6
4 9 7 2.2 5.1
4 9 7 17.5 8.8
-13 4 7 -0.3 7.8
9 -13 7 2.6 12.5
-13 4 7 -0.3 9.8
-9 14 -7 6.3 10.3
5 9 7 9.3 6.2
-14 5 7 22.2 11.8
9 -14 7 32.7 15
5 9 7 6.2 8.3
-14 5 7 3.2 9
6 9 7 9 6
-15 6 7 6.1 6.6
9 -15 7 -3.2 12.4
6 9 7 1.6 8
-9 16 -7 -5.1 15.4
7 9 7 23 10.3
9 -16 7 29.7 15.5
7 9 7 6.7 6.4
-16 7 7 20.9 8.9
-16 7 7 23 9.7
-9 17 -7 -13.6 10.8
9 -17 7 -7.3 12.8
-17 8 7 7.4 7.4
8 9 7 -2 5.5
-17 8 7 4.3 8
-9 18 -7 -18.1 10.4
9 9 7 6.3 9.6
-18 9 7 12.6 8.5
9 9 7 6.7 5.3
9 -18 7 17.9 14.1
-18 9 7 -4.6 7
-19 10 7 -14.1 6.1
10 9 7 11.6 8.8
10 9 7 5.6 5.9
9 -19 7 -22.7 14.4
-19 10 7 10.5 9.5
-8 18 -7 16.5 14.4
-18 10 7 23.4 9.6
10 8 7 37.2 10
-18 10 7 22.2 9.1
10 8 7 11.5 9.9
8 -18 7 41.5 18.6
-7 17 -7 4.2 12.1
10 7 7 8 7.2
10 7 7 9 8.5
-17 10 7 -5 6.8
7 -17 7 8.8 15
-6 16 -7 42.9 18.7
6 -16 7 59.19 18.7
10 6 7 78.39 15.7
10 6 7 64.59 13
-16 10 7 70.09 12.7
-16 10 7 74.59 13.7
10 5 7 3.6 7.1
-15 10 7 2.5 6.8
-15 10 7 2.4 5.8
10 5 7 13.2 11.8
5 -15 7 19.3 15.3
-4 14 -7 67.69 17.6
10 4 7 89.99 16
-14 10 7 65.69 12.7
4 -14 7 70.39 18.9
10 4 7 92.69 21.3
-3 13 -7 32 13.8
-13 10 7 16.4 8.8
10 3 7 17.4 8.4
3 -13 7 17.7 14.4
10 3 7 3.9 9
-2 12 -7 65.19 16.8
-10 -2 -7 76.19 11.5
10 2 7 74.69 15.5
-12 10 7 67.29 11.7
2 -12 7 80.29 21
10 2 7 65.79 13.3
-1 11 -7 28.4 12.3
-10 -1 -7 9.8 7.6
1 -11 7 3.9 12.8
1 -11 7 18.1 14.2
10 1 7 11 8.1
-11 10 7 8.4 6.3
10 1 7 18.4 9.6
-10 0 -7 45.7 10.9
0 -10 7 35.5 12.6
-10 10 7 68.29 10.4
0 -10 7 38.2 16
10 0 7 44.5 12.5
-10 1 -7 4.9 7.8
10 -1 7 9.8 9.4
-1 -9 7 1.8 8.2
-9 10 7 2.6 4.6
-10 2 -7 60.79 13.2
-2 -8 7 75.19 18.3
10 -2 7 81.09 16.1
-8 10 7 63.69 9.9
-2 -8 7 59.29 14.3
-10 3 -7 20.5 9.8
10 -3 7 0.3 8.8
-3 -7 7 5.9 9.5
-3 -7 7 19.6 11.8
-7 10 7 5.5 4.3
-10 4 -7 198.68 23.5
10 -4 7 147.49 24.9
-6 10 7 155.58 17.1
-4 -6 7 167.88 23.3
-4 -6 7 174.58 24.9
-10 5 -7 10.2 10.1
-5 -5 7 -3.4 10.9
-5 -5 7 19.7 9.7
10 -5 7 0.8 10.3
-5 10 7 1.9 3.7
-10 6 -7 155.08 27.1
10 -6 7 188.48 25.3
-6 -4 7 124.29 21.2
-6 -4 7 151.08 24
-4 10 7 149.59 16.1
-4 10 7 143.39 15.6
-10 7 -7 13.3 11
-3 10 7 3.4 5.2
-7 -3 7 5.7 7.7
-3 10 7 -8.4 3.6
-7 -3 7 -7.2 9.2
10 -7 7 3 11.5
-10 8 -7 58.39 14.6
10 -8 7 36.1 20.2
-2 10 7 54.19 8.3
-8 -2 7 38.5 11.4
-2 10 7 64.89 9.9
-8 -2 7 47.9 14.6
-10 9 -7 -4.6 8.7
-1 10 7 -3.1 5.2
10 -9 7 -13 9.2
-9 -1 7 17.9 10.8
-9 -1 7 5.4 7.2
-10 10 -7 44.9 14.7
0 10 7 66.09 9.5
0 10 7 54.59 10.8
-10 0 7 38.7 11.7
10 -10 7 54.19 15.3
-10 0 7 53.19 14.2
-10 11 -7 36.1 13.1
10 -11 7 1.8 11.2
-11 1 7 12.7 8.1
-11 1 7 10.5 10.5
1 10 7 17 7.5
-10 12 -7 109.39 19.9
2 10 7 95.49 12.8
2 10 7 92.59 14.8
10 -12 7 60.49 18.4
-12 2 7 64.79 14.6
-12 2 7 92.09 17.2
-10 13 -7 9.7 12.5
10 -13 7 57.09 16.7
-13 3 7 5.3 10.7
-13 3 7 13.4 8.9
3 10 7 42.9 8.2
3 10 7 35.7 10.8
-10 14 -7 61.29 16.3
4 10 7 73.39 11.9
10 -14 7 88.59 20.5
-14 4 7 98.59 17.1
4 10 7 90.99 15.9
-14 4 7 82.29 16.6
-15 5 7 -3.3 6.4
5 10 7 10.2 8.1
5 10 7 23 6.8
-15 5 7 -3.4 10.3
10 -15 7 4.6 11.7
-16 6 7 62.29 13.3
6 10 7 92.29 16.2
-16 6 7 77.09 15.1
10 -16 7 101.59 22.9
6 10 7 53.19 10.3
-10 17 -7 -6.9 12.1
-17 7 7 7.3 6.7
7 10 7 5.2 8.6
7 10 7 1.7 4.6
10 -17 7 1.4 12.7
-17 7 7 1.2 8.3
-10 18 -7 4 13
-18 8 7 39.4 11
10 -18 7 39.4 16.3
-18 8 7 41.8 14
8 10 7 17.3 6.9
8 10 7 44.2 13
-19 9 7 -11.1 6.7
10 -19 7 3.6 13.6
9 10 7 3.5 9
-19 9 7 -4.1 7.4
9 10 7 8.6 6.7
10 10 7 8.3 5.8
10 -20 7 -2.5 14.4
-20 10 7 15.3 10.2
-20 10 7 17 12.2
10 10 7 5.8 9.1
-21 11 7 -2.9 10.7
10 -21 7 15.6 16.1
11 10 7 5.8 10.2
11 10 7 10 5.2
-21 11 7 0.9 7.8
-20 11 7 -5 9.4
11 9 7 -3.8 9
9 -20 7 -9 17
-20 11 7 4.4 7.7
11 9 7 -8 4.1
-19 11 7 1.7 6.1
8 -19 7 -17.1 12.5
11 8 7 1.9 9.4
-19 11 7 4.6 9.2
11 8 7 10.2 6.3
-7 18 -7 2.1 12.1
11 7 7 8.4 7.7
7 -18 7 36 17.4
-18 11 7 11.8 8.4
11 7 7 10.6 9.1
-18 11 7 11.7 9.5
-6 17 -7 6.5 12.6
-17 11 7 2.1 6.9
-17 11 7 -1.1 6.9
6 -17 7 -11.2 11.2
11 6 7 -13 7.3
11 6 7 -3.6 5.3
-5 16 -7 4.7 13.6
11 5 7 16.7 10.5
5 -16 7 5.8 13.9
11 5 7 -2.8 6.3
-16 11 7 28.3 9.6
-16 11 7 25.6 8.7
11 4 7 -11.8 5.2
-15 11 7 1.5 6.1
-15 11 7 -8 4.3
4 -15 7 13.9 13.4
11 4 7 -5 7.7
-11 -3 -7 11.3 7.1
-11 -3 -7 9.6 7.9
-3 14 -7 10.4 10.5
3 -14 7 7.6 13.3
11 3 7 22.1 8.3
-14 11 7 -4.8 5.4
11 3 7 15.6 9.4
3 -14 7 4.7 8
-2 13 -7 37.8 13.7
-11 -2 -7 4.8 7.5
2 -13 7 9.9 11.9
11 2 7 15.7 14.1
11 2 7 0.2 5.8
-13 11 7 5.5 6.1
-11 -1 -7 9.4 8.3
-1 12 -7 8 11
11 1 7 3.5 6.8
1 -12 7 17 11.7
-12 11 7 4.9 5
-11 0 -7 9.5 8.6
11 0 7 6.5 7.7
-11 11 7 3.4 5
0 -11 7 -9.1 9.1
11 0 7 18.8 12.6
0 -11 7 13.9 12.5
-11 1 -7 2.1 8.5
-1 -10 7 34.5 13.3
-10 11 7 19.2 6
11 -1 7 20.3 10.4
-1 -10 7 7.8 9.9
-11 2 -7 -3.1 8.8
11 -2 7 7.2 9.3
-9 11 7 4.3 4.7
-2 -9 7 9.6 9.1
-2 -9 7 -20 8.6
-11 3 -7 20.9 10.5
-3 -8 7 18.8 11.2
-8 11 7 44.8 7.7
11 -3 7 51.09 14
-11 4 -7 19.4 12.4
-4 -7 7 9.4 8.3
11 -4 7 9 12.3
-4 -7 7 3.4 10.9
-7 11 7 5.6 4.3
-11 5 -7 11.9 13.7
-6 11 7 36.5 6.3
-5 -6 7 24.5 10.7
-5 -6 7 29.8 14.9
-11 6 -7 13.5 11.9
11 -6 7 17.8 17.3
-6 -5 7 27.3 13
-6 -5 7 8.7 9.6
-11 7 -7 7.1 10.2
-7 -4 7 3.1 7.7
11 -7 7 18.8 11.4
-4 11 7 1.9 3.6
-7 -4 7 22.6 12.9
-11 8 -7 10.8 11.5
-3 11 7 42.4 7.9
-8 -3 7 26.4 12.9
11 -8 7 39.1 13.4
-3 11 7 35 6.1
-8 -3 7 49.3 12
-11 9 -7 6.6 9.9
11 -9 7 -5.6 11.4
-2 11 7 -4.3 3.4
-9 -2 7 -7.7 9.8
-2 11 7 5.3 6
-9 -2 7 2.5 6.3
-11 10 -7 34 13
-1 11 7 24 7.6
-10 -1 7 12.3 8.5
-1 11 7 15.7 5.1
-10 -1 7 27.5 12.9
11 -10 7 10.5 11.1
-11 11 -7 -5.9 9.8
11 -11 7 8.3 12.5
0 11 7 5.5 6.2
-11 0 7 4.4 6.4
-11 0 7 12.5 10.8
-11 12 -7 21.7 11.3
1 11 7 -8.1 6.1
11 -12 7 18.2 11.6
-12 1 7 4.4 10.8
1 11 7 -5.3 3.5
-12 1 7 15.5 8.3
-11 13 -7 3.4 10.2
-13 2 7 -5.1 9.9
2 11 7 8.1 8
2 11 7 1.5 4.6
11 -13 7 -8.2 10.1
-13 2 7 4.3 7.5
3 11 7 4.5 7.9
11 -14 7 5.4 12.7
-14 3 7 22.7 12.4
3 11 7 7.5 4.8
-14 3 7 3.9 7.5
11 -15 7 -12.1 10.6
-15 4 7 -0.6 9.6
4 11 7 4.1 4.2
4 11 7 -5 6.4
-15 4 7 -0.3 6.7
-11 16 -7 19 14.9
-16 5 7 3.5 7.4
5 11 7 9.1 9
11 -16 7 -5.4 12.3
-16 5 7 14.1 11.3
5 11 7 12.2 5
-11 17 -7 9 12.2
-17 6 7 3.1 8.4
6 11 7 -3.1 4
11 -17 7 9.3 12.8
6 11 7 1.4 7.9
-17 6 7 -3.6 7
-11 18 -7 11.1 12.3
11 -18 7 13.1 13.8
7 11 7 0.8 10.2
-18 7 7 14.5 9.8
7 11 7 7.5 5.5
-19 8 7 10.8 10.6
8 11 7 -5.9 8.5
8 11 7 -0.5 5
-19 8 7 39.6 14.9
11 -19 7 -1.2 12.7
-20 9 7 15.3 9.1
9 11 7 8.9 5.6
-20 9 7 -13.2 7.5
11 -20 7 -7.1 15.4
9 11 7 -10.2 8.9
10 11 7 -6.3 4.9
-21 10 7 -9.2 6.3
-21 10 7 19.9 12.1
11 -21 7 -11.5 12.8
10 11 7 17.9 10.7
11 11 7 9 11.5
11 11 7 1.4 5.9
11 -22 7 -6.8 13.2
-22 11 7 5 9.2
-22 11 7 -9.8 8.5
-22 12 7 5.1 7.7
-22 12 7 14.7 10.4
12 10 7 11.8 14.1
12 10 7 24.4 13.1
10 -22 7 -2.3 13.3
9 -21 7 18.1 17.2
12 9 7 -10.5 7.2
12 9 7 26.1 13
-21 12 7 15.5 11.2
-21 12 7 2.2 7.2
12 8 7 18.7 11.9
12 8 7 24.7 9.1
-20 12 7 38.8 13.5
8 -20 7 21.3 18.7
-20 12 7 11 8.1
7 -19 7 -9.4 13.4
12 7 7 -14.4 7.8
12 7 7 -4.8 6.6
-19 12 7 7 6.9
-19 12 7 -4.3 7.4
-6 18 -7 5.6 13.4
6 -18 7 31.9 19
-18 12 7 41.3 11.4
-18 12 7 6.9 7.4
12 6 7 18.9 11.1
12 6 7 5.1 7.9
-5 17 -7 20.9 14
-17 12 7 7 7.6
5 -17 7 22.6 15.4
-17 12 7 7.8 7.3
12 5 7 9 10
12 5 7 16.6 8.3
-12 -4 -7 24.2 9.1
12 4 7 43.7 13.1
4 -16 7 22.6 16
-16 12 7 58.29 10.5
12 4 7 35.8 10.5
4 -16 7 32.2 20
-16 12 7 48.3 9.8
-12 -3 -7 34.7 9.8
-15 12 7 33.8 9.1
12 3 7 29.8 10.5
12 3 7 50.89 14.4
3 -15 7 47.7 17.6
-15 12 7 24.4 8.6
3 -15 7 54.69 13.6
-2 14 -7 102.99 20.4
-12 -2 -7 69.69 13.3
12 2 7 101.09 17.9
2 -14 7 77.09 19.8
12 2 7 86.09 17.6
2 -14 7 69.19 16.5
-14 12 7 85.69 11.9
-14 12 7 71.29 12.8
-1 13 -7 30.7 15.1
-12 -1 -7 15.2 9.6
12 1 7 27.7 12.2
1 -13 7 6.5 11.9
12 1 7 28.9 10.1
1 -13 7 -1.3 12.7
-13 12 7 27.1 7.5
-12 0 -7 69.79 14.6
12 0 7 72.09 16.5
0 -12 7 99.49 21
-12 12 7 91.59 12.2
12 0 7 109.69 23.9
-12 1 -7 11.1 8.9
12 -1 7 -5.1 8
-11 12 7 2.7 4.3
-1 -11 7 15.1 12
-1 -11 7 13.8 11.6
-12 2 -7 88.49 15.7
-2 -10 7 47.5 19.4
-10 12 7 70.49 10.4
-2 -10 7 103.19 21.3
12 -2 7 97.19 17.6
-3 -9 7 6.1 11.5
-3 -9 7 15.1 13.7
12 -3 7 11.3 9.4
-12 4 -7 111.79 18.3
-4 -8 7 58.69 14.4
12 -4 7 90.09 17.2
-4 -8 7 83.69 19.8
-8 12 7 76.09 9.6
-12 5 -7 23.2 11.6
-5 -7 7 32.8 12
12 -5 7 17.4 11.4
-7 12 7 13.5 4.4
-12 6 -7 117.79 21
-6 -6 7 118.49 23.7
12 -6 7 150.08 23.5
-6 -6 7 180.28 22.6
-12 7 -7 27.3 12.3
-7 -5 7 10.2 8.9
-7 -5 7 -7 10.2
12 -7 7 32.4 12.3
-12 8 -7 56.69 15.9
-8 -4 7 77.09 14.8
12 -8 7 66.89 16.4
-8 -4 7 73.49 17.9
-12 9 -7 1.2 10.3
12 -9 7 -0.6 9.2
-9 -3 7 3.1 6.9
-3 12 7 -1.8 4.9
-9 -3 7 18.5 12
-12 10 -7 80.89 17.1
-10 -2 7 94.09 19.3
-10 -2 7 56.19 13.5
12 -10 7 68.39 16.9
-12 11 -7 0.2 10
-11 -1 7 2.6 10.6
12 -11 7 7.8 11.2
-11 -1 7 -1.1 6.2
-1 12 7 7.6 6.2
-12 12 -7 90.99 20.1
0 12 7 96.59 14.3
12 -12 7 73.89 18.1
-12 0 7 52.19 13.4
-12 0 7 110.19 19.5
-12 13 -7 29 12.2
-13 1 7 19.8 9.1
-13 1 7 5.4 10.9
12 -13 7 27.5 13.8
1 12 7 21.3 9
-14 2 7 58.29 16.7
2 12 7 85.99 15.2
-14 2 7 80.89 15.8
2 12 7 84.99 10.3
12 -14 7 84.59 20
-12 15 -7 15 16.8
3 12 7 22.6 6.5
-15 3 7 35 13.1
12 -15 7 37 14.9
3 12 7 30.2 9.6
-15 3 7 17.5 9.5
-12 16 -7 53.99 15.9
4 12 7 36.1 7.8
-16 4 7 53.99 16
-16 4 7 45.1 18.4
4 12 7 75.89 14.1
12 -16 7 58.99 18.4
-12 17 -7 -4.4 12.1
-17 5 7 -5.9 8.6
5 12 7 9 8.6
-17 5 7 11.7 9
-17 5 7 3.6 12.1
12 -17 7 33.6 16.9
5 12 7 16.4 5.8
-12 18 -7 18.8 13.5
6 12 7 22 6.6
12 -18 7 8.3 14.7
-18 6 7 33.1 10.8
-18 6 7 26.1 10
12 -19 7 1.1 12.2
7 12 7 -2 7.8
7 12 7 -6.8 3.9
-19 7 7 2.7 7
-19 7 7 -3.6 7.8
-20 8 7 33.6 12.4
8 12 7 23.9 7.8
-20 8 7 30.4 10.4
8 12 7 19.6 11.4
12 -20 7 -2.7 13.4
12 -21 7 10.1 17.5
9 12 7 5.8 5.4
-21 9 7 -0.1 8
-21 9 7 -3.2 10.4
12 -22 7 9.4 15
-22 10 7 22.3 11.8
10 12 7 13.8 11.1
-22 10 7 8.8 9.8
10 12 7 38.8 8.9
9 -22 7 -4.1 17.5
13 9 7 0.7 5.7
-22 13 7 -3.5 9
13 9 7 15.3 11.5
13 8 7 22.6 8.2
8 -21 7 -17.5 10.9
-21 13 7 6.5 7.7
-21 13 7 11.6 9.8
13 8 7 14.5 11
-20 13 7 9 7.4
13 7 7 -0.3 10.6
-20 13 7 -1.5 8.5
13 7 7 -5.1 5.2
6 -19 7 -3 13.8
-19 13 7 -2.8 8
13 6 7 -1.6 6.2
13 6 7 5.4 10.3
-19 13 7 1.9 6.8
-13 -5 -7 10.7 8.4
-5 18 -7 -16.4 12
-18 13 7 7.5 7.4
5 -18 7 -5.7 12.1
13 5 7 6.8 8.2
13 5 7 0.1 8.9
-18 13 7 11.4 8.3
-13 -4 -7 -0.4 8.4
-4 17 -7 0.5 12.3
-13 -4 -7 7.8 9.3
13 4 7 2 6.8
-17 13 7 -14.3 4.7
4 -17 7 -2.9 13.7
13 4 7 8.4 9.4
-17 13 7 18 7.7
-13 -3 -7 -5.2 7.7
-13 -3 -7 6.2 9.2
-3 16 -7 -4.3 16
-16 13 7 15.9 6.4
3 -16 7 -17.6 10.3
-16 13 7 12.6 6.6
13 3 7 4.1 8.4
13 3 7 0.2 7.3
-13 -2 -7 2.2 9.2
-15 13 7 12.7 5.9
13 2 7 -7.8 8.3
2 -15 7 -4.3 7.9
13 2 7 -8.8 6
-15 13 7 -5.9 5.3
2 -15 7 -7.2 13.1
-13 -1 -7 7.3 10
-1 14 -7 31.2 15.8
-14 13 7 -0.9 5
13 1 7 8.3 10.1
1 -14 7 -7.8 7.3
1 -14 7 19 15
13 1 7 16.1 8.6
-14 13 7 12.4 5.7
-13 0 -7 -15.1 9.7
13 0 7 3.6 7.6
0 -13 7 4.4 12
0 -13 7 -6.5 5.5
13 0 7 9.1 9.9
-13 13 7 2.6 5.1
-12 13 7 13.6 5.7
-1 -12 7 -13.3 10.9
13 -1 7 25.5 10
13 -1 7 25 12.2
-1 -12 7 19.7 12
-13 2 -7 -3.2 11.9
-2 -11 7 19.2 13.2
-11 13 7 11.1 4.5
13 -2 7 -1.2 7.5
-2 -11 7 -5.4 8
13 -2 7 -6 8.3
-13 3 -7 18 10.9
-10 13 7 15.8 5.4
13 -3 7 19.5 9.3
-3 -10 7 2.9 8.5
-3 -10 7 -5 11.9
13 -3 7 18 10.4
-13 4 -7 2.2 9.3
13 -4 7 9.6 10.7
-4 -9 7 -15.7 8.8
-9 13 7 7.9 3.7
-4 -9 7 1.7 8.9
-13 5 -7 13.3 11.2
-5 -8 7 0 11.8
-5 -8 7 9.7 9.5
13 -5 7 9.1 10.6
-13 6 -7 -3 10.3
-6 -7 7 20.6 12.7
13 -6 7 -4.5 9.7
-13 7 -7 -6.9 10.2
-7 -6 7 11.1 11.9
-7 -6 7 3 11.9
13 -7 7 -2.4 9.3
-13 8 -7 9.7 11.6
-8 -5 7 -0.5 8
13 -8 7 8.9 11.2
-13 9 -7 14.7 12.1
-9 -4 7 -1.1 16.5
13 -9 7 12.7 11.7
-9 -4 7 7.2 8.1
-4 13 7 16.9 6.1
-13 10 -7 26.9 13
13 -10 7 31.3 14.6
-10 -3 7 37.4 12.1
-3 13 7 22.5 7.5
-10 -3 7 13.6 14.2
-13 11 -7 6.6 12.1
-2 13 7 10.7 6.6
-11 -2 7 2.2 12.2
-11 -2 7 -4.5 6.9
13 -11 7 18.4 12
-13 12 -7 49 14.4
-12 -1 7 29.7 13.5
-1 13 7 28.9 8.7
13 -12 7 19.2 14.2
-12 -1 7 24.5 14.7
-13 0 7 20.6 17.7
13 -13 7 -0.3 11.1
0 13 7 -0.1 6.1
-13 0 7 -13.9 9.7
13 -14 7 6.4 13
-14 1 7 3.1 11.7
-14 1 7 9 11.2
1 13 7 17.8 8
2 13 7 12.4 7.7
13 -15 7 3.6 12.3
-15 2 7 5 8.7
-15 2 7 -5.5 9.6
2 13 7 -0.2 3
-13 16 -7 17.4 13.5
3 13 7 1.8 8.1
3 13 7 1.1 3.3
13 -16 7 -7.5 11.6
-16 3 7 17.2 10.1
-13 17 -7 -12.9 10.6
-17 4 7 0 8
-17 4 7 2.1 6.3
4 13 7 10.7 7.8
13 -17 7 -6.2 11.1
-13 18 -7 3.3 12.3
-18 5 7 6.1 7.9
-18 5 7 -6.6 7.4
-18 5 7 -10.5 10.6
5 13 7 5.1 4.3
5 13 7 0.5 7.1
13 -18 7 -1.4 11.9
13 -19 7 -6.7 10.8
6 13 7 -4.1 3.9
-19 6 7 0.6 8.6
6 13 7 0.7 7.4
-19 6 7 14 7.8
7 13 7 -2.6 4.5
7 13 7 9.8 8.8
-20 7 7 3.7 9.9
-20 7 7 5.2 9.4
8 13 7 -5.9 4.6
-21 8 7 -4.2 9.9
13 -21 7 -7.2 12.6
8 13 7 24.8 10.1
-21 8 7 4.5 9.6
9 13 7 7.3 8.9
9 13 7 4.6 6
13 -22 7 1.1 14.3
14 8 7 46.1 13.2
14 8 7 20.9 8.5
8 -22 7 6.2 15.4
-22 14 7 33.5 14.3
-22 14 7 4 9
-21 14 7 3 8.9
-21 14 7 10.6 7.9
14 7 7 -9.1 8.2
14 7 7 -4.7 5.8
7 -21 7 3.2 13.5
-14 -6 -7 2.4 9.3
-20 14 7 9.9 9.1
14 6 7 8.8 11.3
14 6 7 13.1 9
-20 14 7 8.1 8
-14 -5 -7 13.4 10.2
-14 -5 -7 9 9.3
5 -19 7 -12.3 11.7
-19 14 7 -2.6 6.8
14 5 7 10.3 8.1
14 5 7 5.8 9.4
-19 14 7 16 10.1
-4 18 -7 5.3 13.3
-14 -4 -7 12.5 11.4
-14 -4 -7 40.5 12
-18 14 7 44 10.5
-18 14 7 31.6 9.6
14 4 7 60.59 14.2
14 4 7 50.59 13.2
4 -18 7 32.4 17.7
-3 17 -7 19 14.8
-14 -3 -7 14.6 12
-14 -3 -7 38.7 11.8
14 3 7 15.5 8.7
-17 14 7 21.6 7.7
-17 14 7 38.8 9.5
14 3 7 35.2 12.9
3 -17 7 24.7 16.2
-2 16 -7 64.59 19.5
14 2 7 35.4 14.1
2 -16 7 76.89 23.6
-16 14 7 82.39 12.9
-16 14 7 68.49 11.4
14 2 7 47.1 11.8
14 1 7 29.8 12.2
-15 14 7 36 8.6
-15 14 7 39.2 8.2
14 1 7 31.4 10.7
1 -15 7 22.8 15.9
-14 0 -7 83.09 17.9
14 0 7 58.09 14.9
0 -14 7 72.19 21.6
14 0 7 98.49 19.5
0 -14 7 73.69 18.1
-14 14 7 109.99 13.1
-14 1 -7 -3.8 10.1
14 -1 7 13.3 7.9
-13 14 7 6.6 4.9
-1 -13 7 -1.3 13
14 -1 7 10.3 10.1
-1 -13 7 2.4 8.7
-14 2 -7 89.09 16.9
14 -2 7 63.59 16.7
-2 -12 7 90.09 18.8
14 -2 7 91.99 17.4
-2 -12 7 70.49 19.8
-12 14 7 59.89 9.3
-14 3 -7 9.7 10.9
-3 -11 7 15.7 14.6
14 -3 7 18.5 11
-11 14 7 4.4 3.8
-3 -11 7 1.5 7.9
14 -3 7 4.6 8.8
-14 4 -7 81.59 16.8
-4 -10 7 47.2 14
14 -4 7 72.89 15.7
-4 -10 7 71.09 18.7
14 -4 7 120.69 19.6
-14 5 -7 37.9 12.9
-5 -9 7 10 9.7
14 -5 7 11.1 10
-5 -9 7 25.5 14
-14 6 -7 121.89 21.4
-6 -8 7 72.09 20.6
-6 -8 7 188.18 23.3
14 -6 7 129.39 21.7
-14 7 -7 80.39 17.4
-7 -7 7 59.39 15
14 -7 7 84.99 17.5
-7 -7 7 86.69 19.2
-14 8 -7 113.49 21.9
-8 -6 7 131.89 21.6
14 -8 7 131.39 22.9
-8 -6 7 89.59 20.6
-14 9 -7 14.5 12.2
-9 -5 7 20.2 12.7
14 -9 7 5.1 11.4
-9 -5 7 6.3 8.2
-14 10 -7 92.39 20.1
14 -10 7 67.79 18.1
-10 -4 7 84.49 19.7
-10 -4 7 115.69 20.8
-4 14 7 115.19 13.4
-14 11 -7 24.5 13
-3 14 7 6.8 5.8
-11 -3 7 5.9 12.8
-11 -3 7 0 6.3
14 -11 7 14.6 11.1
-12 -2 7 67.99 17.8
14 -12 7 106.79 21.8
-12 -2 7 63.29 19.9
-2 14 7 104.89 14.3
-13 -1 7 0.6 12.6
-13 -1 7 2.2 7.3
-1 14 7 2.4 6.9
14 -13 7 -0.5 11.7
-14 14 -7 62.99 21.8
14 -14 7 86.09 19.7
0 14 7 94.69 14.8
-14 0 7 66.69 15.9
-14 0 7 113.19 22.4
-14 15 -7 24.1 14.7
-15 1 7 19.1 10.4
1 14 7 38.6 10.7
-15 1 7 26.1 15.1
14 -15 7 20.2 15.4
-14 16 -7 38.6 16.8
-16 2 7 57.79 15.9
14 -16 7 31.1 16.7
2 14 7 71.29 14.3
-16 2 7 96.69 19.4
-14 17 -7 38.6 15.8
3 14 7 26.9 9.9
-17 3 7 25.4 11.5
-17 3 7 44.6 13.7
14 -17 7 18.5 14.2
-17 3 7 37.2 15.5
4 14 7 22.9 10.3
-18 4 7 16.2 10.8
4 14 7 46 6.5
-18 4 7 53.19 16.7
-18 4 7 22.9 11.4
14 -18 7 29.1 18.3
5 14 7 3.4 7.7
14 -19 7 18.4 16.5
-19 5 7 23.9 13.1
-19 5 7 3.3 10.4
-19 5 7 8.8 8
6 14 7 9.1 5.1
-20 6 7 17.7 12.4
6 14 7 26.5 11.6
14 -21 7 6.6 14.8
7 14 7 3.8 10.1
7 14 7 5.5 4.7
-22 8 7 22.4 14.3
8 14 7 34.3 8.1
14 -22 7 18.3 18.8
8 14 7 16 11.5
-15 -6 -7 -2.8 12.3
-15 -6 -7 0.4 9.6
-21 15 7 -4.8 7.1
-21 15 7 5.6 9.8
15 6 7 12.2 8.1
6 -21 7 -2.2 14.9
15 6 7 11.7 9.9
-15 -5 -7 -2.3 9.6
-15 -5 -7 -6.1 13
-20 15 7 3.1 6
15 5 7 -2.1 9.4
-20 15 7 2 9
15 5 7 -13.5 6.2
-15 -4 -7 -22.2 8.1
4 -19 7 -13.9 13.5
15 4 7 7.8 9.8
15 4 7 -13.5 6.2
-19 15 7 2.8 9
-19 15 7 7.6 6.9
-15 -3 -7 3.8 10.2
-3 18 -7 -3 12.8
-15 -3 -7 4.2 13
15 3 7 -2.8 7.7
-18 15 7 16.1 8.1
3 -18 7 -15.9 12
-18 15 7 22 7.5
15 3 7 19.3 11.8
-2 17 -7 1.4 13.7
-15 -2 -7 -1.3 10.9
-17 15 7 2.4 6.4
2 -17 7 -4.2 16.4
15 2 7 1.1 7.7
15 2 7 -19.2 8.3
-17 15 7 -1.5 5.6
-15 -1 -7 4.3 10.7
-1 16 -7 -0.8 14
-16 15 7 4.3 6.2
1 -16 7 6 14.4
15 1 7 7 8.4
15 1 7 15.6 9.8
-15 0 -7 1.9 11.3
0 -15 7 9.9 14.4
15 0 7 -0.9 8
-15 15 7 -5.9 4.8
15 0 7 0.5 9.4
-15 1 -7 34.7 13.2
15 -1 7 16.7 11.5
15 -1 7 64.59 14
-1 -14 7 20.5 17.2
-14 15 7 31.3 7.2
-15 2 -7 -7.6 10.2
15 -2 7 15.8 8.7
-2 -13 7 -5.2 11.3
-2 -13 7 -3.8 7.2
-13 15 7 14 4.4
15 -2 7 2.6 9.7
-15 3 -7 24 12.3
15 -3 7 35 12.8
-3 -12 7 12.9 12.9
15 -3 7 10.6 10.1
-3 -12 7 0.6 8.4
-15 4 -7 -1.6 10.9
-4 -11 7 -4.7 7.4
-4 -11 7 6.4 12.4
15 -4 7 11.7 8.8
15 -4 7 -15.9 8.4
-15 5 -7 10.4 11.6
15 -5 7 3.2 8.5
-5 -10 7 21.5 10.8
15 -5 7 -3.9 8.6
-5 -10 7 -10.9 11.5
-15 6 -7 3 10.3
-6 -9 7 -3.4 11.3
15 -6 7 4.1 9.7
-6 -9 7 15.9 10.2
-15 7 -7 -8.1 10.1
-7 -8 7 24.4 14.3
15 -7 7 3.9 11.1
-7 -8 7 -17.9 6
-15 8 -7 4.7 10.4
-8 -7 7 26.1 13.4
15 -8 7 1.8 10
-8 -7 7 6.9 7.9
-15 9 -7 13.7 12.5
-9 -6 7 0.3 6.8
15 -9 7 14.5 11.5
-9 -6 7 -8.1 11.1
-15 10 -7 39.5 13.4
-10 -5 7 16 10.7
-10 -5 7 -10.7 11.3
15 -10 7 6.9 11.8
-11 -4 7 14.8 12.5
15 -11 7 2.3 10.9
-11 -4 7 -2.5 6.3
15 -12 7 26.7 13.8
-12 -3 7 12.1 13.1
-3 15 7 25.4 7.5
-12 -3 7 31.1 13.8
-15 13 -7 4.4 14.5
-13 -2 7 -2 11.5
-2 15 7 0.8 5.4
-13 -2 7 -0.9 7.3
15 -13 7 7.6 12.9
-15 14 -7 43 17.5
-14 -1 7 33.3 15.7
-14 -1 7 26.8 11.8
15 -14 7 33.3 16
-1 15 7 45.7 10.1
-15 15 -7 -3.7 12.7
15 -15 7 18.6 15.1
-15 0 7 12.5 9.1
0 15 7 -2.4 6
-15 0 7 -2.7 12.3
-15 16 -7 16.4 14.7
-16 1 7 -9.7 11.5
-16 1 7 0.5 8.9
15 -16 7 22.7 14.9
1 15 7 31.2 9
-15 17 -7 -0.6 12.8
-17 2 7 23.8 11.4
-17 2 7 -17.6 10.4
15 -17 7 3 13.1
2 15 7 3 7.2
-17 2 7 5.1 9.8
15 -18 7 22.7 13.1
-18 3 7 -2 12.2
-18 3 7 22.5 13.8
15 -19 7 -24.4 9.5
5 15 7 -4 3.2
15 -20 7 -1 15
-20 5 7 9.2 13.2
5 15 7 7.5 9
-20 5 7 -5.5 9.6
6 15 7 5.7 5.4
-21 6 7 -8.3 10.4
6 15 7 10.6 9.2
15 -21 7 -6.2 11.9
-16 -5 -7 6.7 12.8
-16 -5 -7 4.8 11.6
5 -21 7 28.7 18
16 5 7 0.2 10.9
-21 16 7 10.1 9.1
16 5 7 10.7 9.2
-21 16 7 -8.2 5.9
-16 -4 -7 7.7 11.9
-16 -4 -7 6 11.9
4 -20 7 4.9 16.8
16 4 7 8.8 10.5
16 4 7 21.9 12.9
-20 16 7 6.3 7.8
-16 -3 -7 5.8 11.3
-16 -3 -7 9.1 12.7
16 3 7 5.3 9.9
-19 16 7 19.4 8.8
-19 16 7 7.6 7.2
16 3 7 -5.8 6.7
-16 -2 -7 43.5 15.5
16 2 7 71.29 14.7
-18 16 7 55.39 11.4
2 -18 7 58.59 21.9
-18 16 7 55.39 10.9
16 2 7 55.19 16.3
-1 17 -7 17.5 15.6
-16 -1 -7 35.1 14.1
-17 16 7 27.5 8.4
16 1 7 37.3 10.7
1 -17 7 10.7 15.7
-17 16 7 33 8.4
16 1 7 22.2 12.8
-16 0 -7 87.79 18.9
0 -16 7 93.69 24
-16 16 7 88.39 13.2
-16 16 7 98.19 13.5
16 0 7 107.49 18.9
16 0 7 87.19 20
-16 1 -7 -0.9 11.6
16 -1 7 4.6 10
16 -1 7 2.4 9.1
-15 16 7 15.4 5.4
-1 -15 7 20.4 17.3
-16 2 -7 87.29 17.9
16 -2 7 51.29 13.6
16 -2 7 64.69 16.7
-2 -14 7 42.5 19
-16 3 -7 15.6 11.6
16 -3 7 3 7.5
-3 -13 7 -5.1 11.1
16 -3 7 1.3 9.3
-16 4 -7 60.19 15.7
16 -4 7 29.9 11.9
-4 -12 7 51.69 18.5
16 -4 7 40.7 14.1
-16 5 -7 1.5 11.9
16 -5 7 21 11.3
-5 -11 7 38.3 17.4
16 -5 7 -5.4 7.7
-5 -11 7 5.7 9.6
-6 -10 7 43.1 17.9
-6 -10 7 38.2 13.7
16 -6 7 55.89 16.3
16 -6 7 36 12.8
-16 7 -7 43.4 14.3
16 -7 7 48.2 13.7
-7 -9 7 26.8 10.5
16 -7 7 2.6 9.5
-7 -9 7 19.6 13.4
-16 8 -7 111.59 18.6
-8 -8 7 51.39 15.6
-8 -8 7 83.79 20.1
16 -8 7 69.39 17.4
-16 9 -7 32.6 12.7
-9 -7 7 24.8 11.6
16 -9 7 13.4 11.7
-9 -7 7 27.4 14.7
-10 -6 7 77.19 15.8
-10 -6 7 79.69 20.5
16 -10 7 91.59 19.7
-11 -5 7 16.5 10.3
-11 -5 7 -0.8 11.4
16 -11 7 -3.3 10.7
-5 16 7 5.6 6.1
-16 12 -7 67.39 22.8
-4 16 7 53.59 9.5
-12 -4 7 20.3 15.5
-12 -4 7 36.3 13.2
16 -12 7 50.49 16.6
-16 13 -7 -8.9 11.5
-13 -3 7 6.7 12.8
-13 -3 7 -13.4 6.9
-3 16 7 6.7 6
16 -13 7 -1.3 10.4
-16 14 -7 83.29 20.2
-14 -2 7 52.49 15.7
-2 16 7 91.59 13.6
-14 -2 7 86.59 20.3
16 -14 7 58.69 19
-16 15 -7 -13.3 12
16 -15 7 23.1 15.9
-15 -1 7 13 11.7
-1 16 7 21.1 8.3
-15 -1 7 26.3 15.5
-16 16 -7 58.79 20.3
0 16 7 96.69 16.4
-16 0 7 128.79 23.3
16 -16 7 91.99 22.9
-17 1 7 46.8 16.2
-17 1 7 20 14.2
16 -17 7 11.7 15.4
1 16 7 27.3 10
-18 2 7 53.89 16.3
2 16 7 56.29 13.8
16 -18 7 40.9 20
-18 2 7 60.19 18.5
-19 3 7 46.4 16
-19 3 7 13.5 11.7
-20 4 7 31.1 12.9
4 16 7 11.9 8.8
16 -20 7 12.3 16.9
-20 4 7 44.9 16.7
-21 5 7 5.6 11.8
5 16 7 6.5 9.2
-21 5 7 2.3 13
16 -21 7 -25.6 11.1
-17 -4 -7 0.5 13
-17 -4 -7 -1.2 12.8
4 -21 7 3.2 15.2
17 4 7 -3.4 7.3
-21 17 7 -2.8 7.4
-21 17 7 -3.4 6.6
-17 -3 -7 11.9 13.1
-17 -3 -7 17 13.2
-20 17 7 -6.5 7.8
3 -20 7 -11.5 14.7
-20 17 7 1.6 7.2
17 3 7 2.6 10.3
17 3 7 -10.1 8.1
-17 -2 -7 10.8 13.8
2 -19 7 13.2 18
-19 17 7 6.7 6.3
17 2 7 2.4 9.9
17 2 7 13.5 9.4
-19 17 7 0.5 7.7
-17 -1 -7 8.6 13.2
-18 17 7 9.4 7
17 1 7 15.3 11
1 -18 7 -10 16
17 1 7 12.1 10.3
-18 17 7 11.2 6.8
-17 0 -7 -13.1 12.1
17 0 7 12.5 11.7
-17 17 7 0.9 6.8
17 0 7 6 7.4
0 -17 7 -21.7 14.1
-17 1 -7 28.9 14
17 -1 7 37 14.8
-1 -16 7 23.9 18.5
17 -1 7 16.9 9.6
-17 2 -7 34 13.7
17 -2 7 0.4 6.9
17 -2 7 -2.5 9.2
-2 -15 7 -8.7 11.9
-17 3 -7 14.2 12.4
-3 -14 7 4.1 14
17 -3 7 36.4 12.8
17 -3 7 13.9 10.5
-17 4 -7 3.5 11.2
-4 -13 7 -5.3 12.1
17 -4 7 3.5 7.2
17 -4 7 4.9 9.5
-17 5 -7 54.19 13.4
17 -5 7 21.8 12.3
-5 -12 7 11 15.1
17 -5 7 7.1 8.7
-17 6 -7 9.6 11.1
17 -6 7 -19.1 7.8
-6 -11 7 -6.5 11.4
17 -6 7 0.6 7.5
-17 7 -7 -0.3 10.7
-7 -10 7 -2.2 12.3
17 -7 7 -1.5 8
17 -7 7 -0.6 9.7
-8 -9 7 -10.3 11.5
17 -8 7 -2 8.1
17 -8 7 -3.7 9.5
17 -9 7 7.2 10.8
-9 -8 7 -11.1 10.3
-10 -7 7 8 12.4
17 -10 7 8 10.9
-17 11 -7 -16.9 16.1
-11 -6 7 -11.2 11.8
17 -11 7 -13.1 8.7
-17 12 -7 6.3 13.1
-12 -5 7 -4.1 12.2
17 -12 7 22.3 14.9
-17 13 -7 -13.5 12.5
-13 -4 7 5.3 13.1
17 -13 7 -10.5 10.4
-4 17 7 -9.2 5
-17 14 -7 29.2 16.2
17 -14 7 6.3 12.4
-3 17 7 54.19 9.9
-14 -3 7 38.6 16.9
-17 15 -7 -11.9 11.8
-2 17 7 4.7 6.5
17 -15 7 -0.3 11.9
-15 -2 7 -5.6 12.7
-17 16 -7 47.1 23.9
-1 17 7 31.6 10.5
-16 -1 7 26.9 12.5
-16 -1 7 26.9 16.5
17 -16 7 26.9 16.9
17 -17 7 1 13.3
0 17 7 -0.8 7.1
-17 0 7 -23.4 10.9
-18 1 7 11.1 13.4
-18 1 7 14.3 15.2
1 17 7 12.6 8.3
-19 2 7 3.4 11.3
17 -19 7 24 18.1
-19 2 7 22.5 14.6
3 17 7 5.5 8.2
-20 3 7 -8.1 12.3
17 -20 7 18.4 15.6
-21 4 7 5.1 14.4
17 -21 7 -3.1 15.5
4 17 7 -18.4 7.2
-18 -2 -7 35.4 14.7
-20 18 7 37.8 11.4
18 2 7 26.5 10
2 -20 7 31.7 20.7
-18 -1 -7 33 13.6
-19 18 7 21.9 8.2
18 1 7 -13.5 11.1
18 1 7 27.3 9
1 -19 7 25.1 19.6
-18 0 -7 36.3 14.3
18 0 7 36 13.7
18 0 7 53.19 15.6
-18 18 7 52.79 12.2
-18 1 -7 15 12.3
18 -1 7 9 9.1
18 -1 7 10.2 11.8
-17 18 7 19.3 7.5
-18 2 -7 48.9 16.1
18 -2 7 80.89 17.6
18 -2 7 46.9 13.7
-2 -16 7 70.69 22.8
-18 3 -7 17.1 13
18 -3 7 1.3 7.8
18 -3 7 17.4 11.3
-3 -15 7 -10.3 13.2
-4 -14 7 33.5 18.2
18 -4 7 28.6 12.7
18 -4 7 38.4 12.8
18 -5 7 9.2 10.1
-5 -13 7 1.7 13.9
18 -5 7 6.2 8.5
18 -6 7 10.4 10.2
-6 -12 7 20.2 16.3
18 -6 7 28.1 12.9
18 -7 7 13.1 10.5
18 -7 7 3.6 8.2
-7 -11 7 49.9 17.9
18 -8 7 12.3 9.9
-8 -10 7 24.3 15.9
18 -8 7 22 12.9
-18 9 -7 11.1 22.5
-9 -9 7 -7.5 11.8
18 -9 7 10.2 11
18 -9 7 9.9 8.9
-18 10 -7 24.1 14.9
-10 -8 7 22.1 15.8
18 -10 7 25 11.5
18 -10 7 26.2 13.6
-18 11 -7 -3.3 11.2
-11 -7 7 -0.6 11.8
18 -11 7 7.9 12.6
-18 12 -7 -4.3 13.3
-12 -6 7 23.5 14.7
18 -12 7 14.9 13.1
-18 13 -7 17 14.2
-13 -5 7 5.6 15.2
18 -13 7 -7.8 9.2
-18 14 -7 13.6 16.6
-14 -4 7 46.1 17.7
18 -14 7 45.9 17.8
-18 15 -7 -13.2 19.1
-15 -3 7 -17.5 12.1
18 -15 7 -3.2 11.8
18 -16 7 50.09 18.4
-16 -2 7 53.99 14.7
-16 -2 7 93.89 21.8
-17 -1 7 16.1 15.9
-17 -1 7 15.2 13.1
-18 0 7 46 17.2
18 -19 7 6.2 15.1
-19 1 7 10.9 15.1
18 -20 7 25.9 15.8
-20 2 7 27.8 14.9
19 0 7 11.9 11.4
19 0 7 9.5 8.9
-19 19 7 12.1 9.1
0 -19 7 9.7 17.3
19 -1 7 0.4 7.4
-1 -18 7 -9.7 17.1
-18 19 7 18.3 8.1
19 -2 7 -0.7 10.8
-2 -17 7 -22.1 16.8
19 -2 7 2.1 9.1
19 -3 7 11.3 11.6
19 -3 7 10.1 9.1
-3 -16 7 32 23.3
19 -4 7 2.6 9.5
-4 -15 7 12.3 17.8
19 -4 7 11.9 8.4
-19 5 -7 53.59 21.6
-5 -14 7 0.7 14.7
19 -5 7 -4 10.8
19 -5 7 8.7 10.3
19 -6 7 1.1 8.6
-6 -13 7 -25.8 11.5
19 -6 7 6.1 9.2
-19 7 -7 -7.9 14.3
-7 -12 7 -18.3 11.1
19 -7 7 -1.2 11.1
19 -7 7 1.5 7.1
-19 8 -7 6.1 13
19 -8 7 -4 7.7
-8 -11 7 14.4 14.4
19 -8 7 -3.9 9.9
-19 9 -7 7.1 13.9
19 -9 7 14.2 12.4
19 -9 7 18.2 10.8
-9 -10 7 9.9 14.2
-19 10 -7 -13.6 13.4
19 -10 7 23.7 11.4
-10 -9 7 -6.3 12.2
19 -10 7 3.8 12.1
-19 11 -7 -9.5 12.3
19 -11 7 8.7 12.7
-11 -8 7 5.7 12.3
19 -11 7 9 9.3
-19 12 -7 -13.4 11.2
-12 -7 7 -11.8 12.2
19 -12 7 -11 9.3
-19 13 -7 14 13.2
-13 -6 7 16.2 13.8
19 -13 7 -0.4 10.9
19 -14 7 14.4 13.3
-14 -5 7 30.4 15.8
-15 -4 7 -8.8 11.2
19 -15 7 -8 10.1
-16 -3 7 32.1 17.1
19 -17 7 18.8 14
-17 -2 7 -4.3 13.7
-18 -1 7 2.9 14.1
19 -18 7 -13.1 12.7
19 -19 7 0.5 11.5
-19 0 7 8.9 13.9
-20 2 -7 33.5 17.2
-2 -18 7 39 20.1
20 -2 7 15.6 13.5
20 -2 7 53.79 12.6
-18 20 7 20 9.4
-20 3 -7 22.1 15.1
20 -3 7 -7 8.2
20 -3 7 15.4 14.3
-17 20 7 7.8 8.2
-3 -17 7 -27 11.6
-20 4 -7 48.4 17
-4 -16 7 21.2 20
20 -4 7 31.1 11.9
-20 5 -7 14 14.2
20 -5 7 -7.9 7.2
-20 6 -7 -5.5 13.2
20 -6 7 -0.2 10.6
20 -6 7 22.8 11.2
-20 7 -7 7.2 14.5
20 -7 7 10.7 10.8
20 -7 7 3 10.6
-7 -13 7 6.2 16.5
-20 8 -7 11.4 14.7
20 -8 7 19.1 11.1
-8 -12 7 11.4 15.2
20 -8 7 -1.6 9.5
-20 9 -7 21.8 14.3
20 -9 7 6.5 8.7
20 -9 7 6.5 11.2
-9 -11 7 -11.7 13.1
-20 10 -7 17.2 15.4
-10 -10 7 18.8 15.5
20 -10 7 14.7 10.3
20 -10 7 10.9 10.3
-20 11 -7 -6.3 15.4
-11 -9 7 -6.1 10.7
20 -11 7 -4.7 11.5
20 -11 7 2.4 9.1
20 -12 7 13.6 10.8
20 -12 7 12.4 15.1
-12 -8 7 -6.6 13
20 -13 7 -1.6 9.6
-13 -7 7 2.9 13.4
-14 -6 7 37 17.8
-15 -5 7 19.7 15.7
20 -15 7 17.7 17.1
-16 -4 7 38.7 17.2
20 -16 7 -9.2 11.5
20 -17 7 -7.2 12.1
-17 -3 7 42.5 16.2
-18 -2 7 26.8 17.8
20 -18 7 41.7 17.7
-21 4 -7 23.2 15
-4 -17 7 -23.3 13.3
21 -4 7 -15.1 9.2
21 -4 7 7.5 15.9
-21 5 -7 3.7 14
21 -5 7 -11.6 15.3
21 -5 7 3.3 10.3
-5 -16 7 12.8 16.1
-21 6 -7 -8.1 12.4
21 -6 7 13.5 11.8
-6 -15 7 -11.2 16.2
21 -6 7 -11.7 9.3
-21 7 -7 7 14.3
21 -7 7 3.2 11
21 -7 7 1.8 9.2
-7 -14 7 4.3 16.1
-21 8 -7 10.8 14.7
21 -8 7 -1.5 10.8
21 -8 7 8.3 12.4
21 -9 7 3.3 11.9
21 -9 7 -8.4 10.1
21 -10 7 -0.9 11.5
21 -11 7 -1.9 11.8
-11 -10 7 -12.2 14.5
-10 21 7 -8.6 6.2
21 -11 7 16.5 11.5
21 -12 7 -9.5 10
21 -12 7 -19.6 9.3
-12 -9 7 -2.2 14.3
21 -13 7 20.2 13.2
21 -13 7 15.3 10.8
-13 -8 7 -1.9 12.8
21 -14 7 -4.9 12.4
21 -14 7 11.9 11.1
-14 -7 7 -6.1 12.6
21 -15 7 -8.7 11.8
21 -15 7 13.4 12.4
-15 -6 7 -5.6 13.8
21 -16 7 0.3 11.7
-17 -4 7 13.7 22.3
21 -17 7 26.1 17.6
22 -8 7 23.5 14.2
-8 -14 7 5.2 18.1
22 -8 7 33.4 11.5
-9 -13 7 -10.9 13.8
22 -9 7 27 15.3
22 -9 7 5.2 10.7
22 -10 7 19.1 14.1
22 -10 7 -1.7 10.3
22 -11 7 13.9 14.7
-11 22 7 -1.7 6.7
-11 -11 7 -1.5 14.9
22 -11 7 -10.5 7.6
22 -12 7 18.5 14.8
22 -12 7 38.8 12.1
-12 -10 7 23.8 13.7
22 -13 7 8.6 13.5
22 -13 7 6.2 8.7
-13 -9 7 -11.9 12
-14 -8 7 16.3 16.3
22 -14 7 11.3 12.7
22 -14 7 4.4 10
0 0 8 191.68 24.9
1 0 8 25.8 10.8
-1 1 8 11.7 10.2
0 -1 8 7.3 10.7
1 -1 8 41.4 12.9
-1 0 8 -1 9.8
0 1 8 41.9 11.1
-1 0 8 8.8 7.5
1 -2 8 -2.6 9
-2 1 8 -10.7 8.3
1 1 8 1.8 8.6
-2 1 8 8.4 8.5
2 1 8 8.5 8.6
1 -3 8 11.7 10.9
-3 2 8 -0.9 9
-3 2 8 -5 5.7
-2 2 8 36.8 11.6
-2 2 8 33.4 11.3
0 -2 8 24.1 12.1
2 0 8 33.2 11.5
-1 2 8 8.6 9.1
2 -1 8 6 9
-1 -1 8 -7.8 7.5
-1 -1 8 -8.7 8.6
2 -2 8 15.8 11.3
-2 0 8 13.7 9.2
-2 0 8 21.6 11
0 2 8 25.8 11
2 -3 8 14.9 10.6
1 2 8 5.2 8.2
-3 1 8 4.1 9
-3 1 8 16 8.6
2 -4 8 87.39 18.3
-4 2 8 108.89 17.4
-4 2 8 82.79 16.2
2 2 8 74.29 15.7
2 -5 8 30.6 13.8
-5 3 8 25.8 8.1
-5 3 8 20.1 10.8
3 2 8 7.7 8.9
-4 3 8 49.7 11.2
1 -4 8 22.5 13.5
-4 3 8 39.2 11.6
3 1 8 44.7 12.2
0 -3 8 5.6 10.4
-3 3 8 15 8.7
3 0 8 0.2 7.9
-3 3 8 24.2 10.2
-1 -2 8 -1.3 10.3
-2 3 8 0.9 7.8
-1 -2 8 7.8 8.3
-2 3 8 13 8.7
3 -1 8 3.9 9
-2 -1 8 20.2 10.5
-1 3 8 10.1 9
-2 -1 8 -10.2 6.2
3 -2 8 6.5 9.9
3 -3 8 21.6 12.1
0 3 8 15.7 9.3
-3 0 8 19.4 10.9
-3 0 8 11.5 8.3
1 3 8 51.79 12.7
3 -4 8 32.2 13.6
-4 1 8 38.8 13.2
-4 1 8 42.5 12.1
-5 2 8 15.9 8.8
3 -5 8 23.6 12.4
-5 2 8 9.9 10.3
2 3 8 8.2 8.3
-6 3 8 5.2 7.5
3 -6 8 16.6 12.2
-6 3 8 3.6 9.1
3 3 8 21.5 10.5
3 -7 8 60.79 28
-7 4 8 56.19 13.7
-7 4 8 50.29 12.3
4 3 8 64.09 13.4
4 2 8 155.88 23.4
-6 4 8 170.58 22.6
-6 4 8 144.99 21.2
2 -6 8 208.18 27.2
1 -5 8 32.1 14
-5 4 8 17.9 9.1
4 1 8 14.5 9.9
-5 4 8 16.5 10.4
-4 4 8 262.47 26.3
4 0 8 217.58 26.6
0 -4 8 191.08 29.1
-4 4 8 175.28 24.1
-3 4 8 36 11
-3 4 8 35.7 11.5
-1 -3 8 23.7 11
4 -1 8 49.9 12.9
-1 -3 8 30.4 13.5
-2 4 8 92.89 14.8
-2 -2 8 105.09 18.5
-2 4 8 75.59 14.5
-2 -2 8 69.69 17.2
4 -2 8 82.29 17.1
-3 -1 8 59.49 13.7
4 -3 8 62.49 15.5
-1 4 8 44 11.6
-3 -1 8 22.4 12.7
0 4 8 217.98 25.3
4 -4 8 232.18 29.6
-4 0 8 221.38 27.6
-4 0 8 227.38 28.8
1 4 8 38.2 11
-5 1 8 46 13.1
-5 1 8 41.6 11.8
4 -5 8 33.7 14.4
-4 6 -8 186.48 21.6
2 4 8 163.58 22.3
-6 2 8 208.68 24.3
4 -6 8 118.49 25.8
-6 2 8 142.29 21.5
-4 7 -8 78.29 15.1
4 -7 8 55.09 20
3 4 8 78.39 14.7
-7 3 8 51.59 14.3
-4 8 -8 112.49 18.9
4 4 8 108.59 17.3
-8 4 8 122.89 18.4
4 -8 8 140.99 24.1
-8 4 8 73.49 15.2
-4 9 -8 -4.1 9.3
-9 5 8 16.3 7.6
5 4 8 7.6 8.2
-9 5 8 -4.8 8
4 -9 8 27.7 13.6
-3 8 -8 2.7 9.4
3 -8 8 -1.6 11.5
5 3 8 10.1 9.1
-8 5 8 -6.5 7.5
-8 5 8 -0.5 7
-7 5 8 -5.5 5.8
2 -7 8 -2 15.2
5 2 8 15.1 9.9
-7 5 8 4.4 9
-6 5 8 32.2 10.7
5 1 8 22.7 10.6
1 -6 8 26.7 14.1
-6 5 8 17.8 8.6
0 -5 8 9.2 13.3
0 -5 8 4.1 8.3
-5 5 8 10.6 7.7
5 0 8 -0.3 9.4
-5 5 8 17.8 9.4
-4 5 8 47.4 11.2
-1 -4 8 22 11.2
5 -1 8 21.8 11.5
-4 5 8 37.5 9.7
-1 -4 8 20.3 14
5 -2 8 25.8 12
-2 -3 8 8.8 11.1
-2 -3 8 1.7 8.7
-3 5 8 1.2 8.3
-2 5 8 7.6 8.5
5 -3 8 32.7 12
-3 -2 8 3.5 10
-3 -2 8 -8.2 10.3
-2 5 8 3.6 6.9
-4 -1 8 25.1 11
5 -4 8 21.2 11.5
-4 -1 8 7.9 11.2
-1 5 8 18.4 8.3
-5 5 -8 19.5 9.1
-5 0 8 -8.3 7.1
5 -5 8 40.7 13.6
-5 0 8 11.7 10.6
-5 6 -8 35.3 11.4
1 5 8 11.8 9
-6 1 8 21.9 9.6
-6 1 8 32.3 11.5
5 -6 8 34.7 20.9
-5 7 -8 8.5 9.3
5 -7 8 23.7 14.8
-7 2 8 -7.1 8.8
2 5 8 5.5 8.1
-7 2 8 -4.3 6.1
-5 8 -8 1.6 12.4
3 5 8 7 8
5 -8 8 23.1 13.2
-8 3 8 2 9.4
-8 3 8 -2.5 6.3
-5 9 -8 7.5 10.1
-9 4 8 -1.5 9
5 -9 8 22.3 13.3
4 5 8 16.3 9.3
-9 4 8 19.4 8.8
-5 10 -8 12.2 11
-10 5 8 10 7.3
5 5 8 2 7.5
5 -10 8 5 12.1
-10 5 8 11.3 9.9
-5 11 -8 -7.9 10
6 5 8 5.6 7
5 -11 8 -4.4 12
-11 6 8 16.4 8
-11 6 8 13.4 9.5
6 5 8 13.1 8.9
-4 10 -8 88.39 18.7
-10 6 8 73.39 14.2
-10 6 8 54.69 12.7
6 4 8 64.59 14.4
4 -10 8 79.09 19
-3 9 -8 30.8 13.2
-9 6 8 21.8 9.3
-9 6 8 1.3 7.8
6 3 8 36 10.9
3 -9 8 8.7 12.3
2 -8 8 36.4 15.8
6 2 8 57.69 13.6
-8 6 8 56.09 11.7
-8 6 8 42.1 10.7
6 1 8 28.7 11
-7 6 8 47.9 10.9
1 -7 8 9.2 16.6
-7 6 8 31.3 8.9
0 -6 8 100.09 20.6
-6 6 8 78.49 14
6 0 8 107.39 19
0 -6 8 81.49 15.7
-6 6 8 135.09 17
6 -1 8 22 11.4
-5 6 8 35.2 10.1
-1 -5 8 21.1 10.3
-5 6 8 4.9 7
-1 -5 8 7.5 10.9
-2 -4 8 148.99 24.5
-4 6 8 103.19 20.7
6 -2 8 149.39 23.5
-4 6 8 180.48 20.4
-2 -4 8 193.38 23.7
6 -3 8 15.2 10.9
-3 6 8 19.1 8.1
-3 -3 8 4.8 10.7
-3 -3 8 13.3 9.7
-6 4 -8 168.28 20
-2 6 8 173.78 21
-4 -2 8 219.08 26.7
-2 6 8 165.18 23.2
6 -4 8 142.89 25.1
-4 -2 8 162.28 23.4
-6 5 -8 2.5 9.1
-5 -1 8 17.4 11.7
-5 -1 8 33.5 11.4
-1 6 8 27.9 9.2
6 -5 8 36.1 13.1
-6 6 -8 97.09 16.6
-6 0 8 95.19 17.4
-6 0 8 109.29 19.7
0 6 8 124.09 17.1
-6 7 -8 17.4 11
1 6 8 27.4 9.6
-7 1 8 37.8 12.5
-7 1 8 27.9 10.5
6 -7 8 26 14.2
-8 2 8 68.59 12.2
2 6 8 59.49 12
6 -8 8 49.3 17.2
-8 2 8 28.5 12.4
-6 9 -8 21 12.2
-9 3 8 19.3 9.6
-9 3 8 30.2 11.9
6 -9 8 34.2 14.5
3 6 8 23.7 9.4
-6 10 -8 84.89 17.6
4 6 8 72.39 14.4
6 -10 8 55.89 18.1
-10 4 8 73.09 13.8
-10 4 8 90.69 16.4
-6 11 -8 1.3 11.4
5 6 8 6.8 7.2
5 6 8 0.4 7.8
6 -11 8 17.3 14.8
-11 5 8 -6.2 5.1
-11 5 8 8.7 9.6
-6 12 -8 70.89 18.3
6 6 8 83.49 16.6
-12 6 8 95.49 17.2
-12 6 8 129.89 16.9
6 -12 8 98.39 21.5
6 6 8 83.09 14.9
-6 13 -8 -2.2 10.3
7 6 8 -5.3 6.8
-13 7 8 -2 8.5
-13 7 8 7.9 7.1
6 -13 8 -8.6 10.5
7 6 8 -2.1 6.7
-5 12 -8 -0.7 11.5
-12 7 8 28.8 9.5
5 -12 8 14.3 13
7 5 8 41.7 10.6
-12 7 8 36.5 10.6
7 5 8 41.8 12.2
-4 11 -8 1 10.8
7 4 8 4.1 8.1
4 -11 8 19.6 13.6
-11 7 8 4.1 7
7 4 8 -2.6 6.8
-3 10 -8 16.9 10.9
-10 7 8 6.4 7.7
-10 7 8 15.8 7
3 -10 8 -7 9.3
7 3 8 4 8.2
2 -9 8 2.3 11.8
-9 7 8 1.2 5.2
7 2 8 -4 8.3
7 1 8 9.5 9.4
-8 7 8 -2 7.2
-8 7 8 8.2 6.4
1 -8 8 3.3 8.1
1 -8 8 0.2 12.2
0 -7 8 -0.5 8.1
-7 7 8 2.7 5.4
-7 7 8 3.3 7.2
7 0 8 12.3 10.1
0 -7 8 -4.6 11.2
-1 -6 8 37.8 11.3
7 -1 8 32 12.6
-6 7 8 15 12
-1 -6 8 24.5 16.1
-6 7 8 40.3 12.2
-5 7 8 15.6 7.6
-5 7 8 17.8 9.5
-2 -5 8 2.2 7.7
-2 -5 8 -12.7 10.7
7 -2 8 -1.9 8.7
-4 7 8 77.69 12.2
7 -3 8 49.2 15.5
-3 -4 8 29 12.5
-4 7 8 55.29 10.9
-3 -4 8 40.2 16
-7 4 -8 62.59 11.6
7 -4 8 52.39 15.1
-3 7 8 43.8 10
-4 -3 8 63.69 16.2
-4 -3 8 40.2 11.4
-7 5 -8 3.7 8.6
-5 -2 8 -7.3 10.1
-2 7 8 5.7 6.4
-5 -2 8 0.9 7.5
-2 7 8 16 8
-7 6 -8 31.1 11.7
-1 7 8 28.3 9.5
-1 7 8 43.1 9.3
-6 -1 8 30.9 10.4
-6 -1 8 43.1 14.1
7 -6 8 12.7 12.4
-7 7 -8 9.4 9.9
-7 0 8 -12.9 6.6
0 7 8 -6 6.5
-7 0 8 20 11.1
7 -7 8 -2.6 9.2
-7 8 -8 -10.6 9.2
7 -8 8 -10.9 9.5
-8 1 8 -8.5 5.2
-8 1 8 6 9.8
1 7 8 8.5 7.9
-7 9 -8 -3.6 9.7
7 -9 8 7.7 11.9
2 7 8 -5.9 6.5
-9 2 8 -12.3 7.7
-9 2 8 0.7 6.4
-7 10 -8 13.8 11.7
-10 3 8 5.9 10
3 7 8 -1.1 6.6
7 -10 8 -5.7 11.1
-10 3 8 13.8 8.4
-7 11 -8 0.8 11.4
7 -11 8 -18.3 10
4 7 8 8.4 6.8
-11 4 8 -1 6.4
4 7 8 4.8 7.9
-11 4 8 -3.9 9.2
-7 12 -8 7 12
5 7 8 37.9 11.9
5 7 8 34.1 8.7
-12 5 8 36.4 11.7
7 -12 8 17 13.3
-12 5 8 9.1 7.7
-7 13 -8 5.1 10.6
-13 6 8 7.4 6.9
6 7 8 -4.3 8.3
-13 6 8 -8.1 9.5
6 7 8 3.5 6.2
7 -13 8 -8.7 12.5
7 7 8 87.59 14.7
7 -14 8 61.49 21.4
-14 7 8 95.79 16.2
7 7 8 56.89 16.9
-14 7 8 53.09 13
-15 8 8 -1.4 5.8
8 7 8 -4.6 5.5
7 -15 8 -18 13.4
8 7 8 -0.1 8.2
-15 8 8 18.1 9.5
8 6 8 79.29 13.9
-14 8 8 67.69 12.9
6 -14 8 26.6 16.4
-14 8 8 54.99 12.9
8 6 8 51.59 15.4
-5 13 -8 1.4 10.8
-13 8 8 -1.7 6.5
8 5 8 -3.1 5.5
5 -13 8 -27.2 9.8
-13 8 8 2.3 8.7
-4 12 -8 62.29 16.7
8 4 8 68.09 13
4 -12 8 32.9 16
8 4 8 64.69 18.2
-12 8 8 68.99 12.8
-12 8 8 43.7 11.1
-3 11 -8 24.1 12.3
8 3 8 7.8 7.5
3 -11 8 40.1 14.2
-11 8 8 -5.2 6.8
-11 8 8 -0.9 6.2
8 3 8 4.7 9
2 -10 8 26.9 13.9
8 2 8 17.3 9.8
-10 8 8 51.29 10
-10 8 8 18.3 7.9
8 1 8 -14.1 6.3
1 -9 8 24.4 13.4
-9 8 8 13.2 7.8
-9 8 8 8.3 5.9
1 -9 8 5.4 7.5
0 -8 8 3.1 8.2
8 0 8 10.1 10.1
0 -8 8 11.5 13.1
-8 8 8 11.7 7.7
-7 8 8 5.7 6
-1 -7 8 3.7 10.9
-7 8 8 4.1 6.5
-1 -7 8 14.4 12.7
8 -1 8 12.7 9.3
-6 8 8 50.69 9.9
-2 -6 8 57.39 14.3
-6 8 8 50.89 10.5
8 -2 8 53.29 14.5
-8 3 -8 12.2 7.4
-3 -5 8 3.1 8.2
-3 -5 8 -18.6 9.9
-5 8 8 5.3 5.8
-5 8 8 -12.3 6.6
-8 4 -8 136.69 18
-4 8 8 114.59 15.5
-4 -4 8 133.19 23
-4 -4 8 89.69 18.2
-8 5 -8 -7.4 7.9
-3 8 8 -1 5.3
8 -5 8 -8.2 9
-5 -3 8 7.3 9
-3 8 8 8.4 6.7
-5 -3 8 17.2 12.5
-8 6 -8 56.89 13
-2 8 8 55.89 10.5
8 -6 8 28.6 12.8
-6 -2 8 25.9 10.9
-6 -2 8 85.49 16.8
-2 8 8 57.39 10.4
-7 -1 8 16.4 10.1
-1 8 8 3 6.5
-1 8 8 -5.8 5.6
-7 -1 8 -12.5 8.6
8 -7 8 -7.9 9.2
-8 8 -8 23.2 11.5
0 8 8 21.5 8.2
-8 0 8 17.7 9
-8 0 8 10.3 10.6
8 -8 8 23.3 12.9
-8 9 -8 5 10.4
-9 1 8 16.9 11.2
-9 1 8 8.9 7.5
1 8 8 4.9 6.8
8 -9 8 -0.5 10.5
-8 10 -8 44.5 14.1
-10 2 8 19.9 11.4
-10 2 8 10 8.2
8 -10 8 26.3 13.7
2 8 8 41.1 10
2 8 8 31.3 8.1
-8 11 -8 10.9 11.5
-11 3 8 10.4 11.7
3 8 8 5.1 8
-11 3 8 -1.7 5.8
8 -11 8 -10.6 9.6
3 8 8 12.7 6.3
-8 12 -8 69.49 17.4
4 8 8 70.19 14.2
8 -12 8 86.39 19.7
-12 4 8 43.1 12.7
4 8 8 59.69 11.9
-12 4 8 78.29 16.2
-8 13 -8 11 10.6
5 8 8 4.7 7.7
-13 5 8 19.6 11.2
-13 5 8 -13.2 6.2
5 8 8 0 6.1
-14 6 8 73.09 15.6
-14 6 8 45.5 13.1
8 -14 8 51.39 17.5
6 8 8 68.69 15.6
6 8 8 56.79 10.8
8 -15 8 0.6 13.7
7 8 8 1.9 5.3
-15 7 8 -5.3 6.3
-15 7 8 19.6 9.5
-8 16 -8 57.69 17.5
-16 8 8 32.8 13.4
-16 8 8 53.99 11.4
8 -16 8 51.49 21
8 8 8 39.6 10.6
8 8 8 73.29 16.3
-8 17 -8 -8.4 12.1
-17 9 8 23 7.5
-17 9 8 2.2 9.4
-17 9 8 8.3 9.2
9 8 8 -6.3 9.4
9 8 8 -9.7 5.8
-7 16 -8 -6.3 12.6
-16 9 8 5.5 9
9 7 8 17.1 8.5
9 7 8 -0.5 10.4
-16 9 8 44 12.6
7 -16 8 40.7 19
-16 9 8 22.1 8.1
-6 15 -8 4.8 16.6
-15 9 8 -0.3 5.8
6 -15 8 -6.7 13.8
9 6 8 16.8 10.1
9 6 8 -6.2 5.6
-15 9 8 -9.7 8
5 -14 8 3.3 13.2
9 5 8 -1.5 8.7
-14 9 8 22 7.9
9 5 8 6 8.5
-14 9 8 19.1 9.3
-4 13 -8 16.3 12.8
9 4 8 -1 5.7
4 -13 8 -4.6 12.8
-13 9 8 7 7.8
-13 9 8 -0.3 7.4
9 4 8 13 9.6
-3 12 -8 13.6 12.9
9 3 8 -0.3 9.3
-12 9 8 3.5 7.2
9 3 8 1.9 7.7
3 -12 8 -6.3 11.8
-12 9 8 10.2 6.4
9 2 8 32.2 12.7
-11 9 8 23.9 8.4
-11 9 8 12.7 6.7
9 2 8 12.7 7.8
2 -11 8 12.2 10.7
2 -11 8 9 12.9
1 -10 8 2.3 8.5
9 1 8 0.4 9.3
-10 9 8 1 4.7
1 -10 8 22.1 13.6
0 -9 8 17.1 13.3
0 -9 8 7.2 8.2
-9 9 8 -2.4 5.9
-9 9 8 13 9.3
-1 -8 8 9.5 7.7
-1 -8 8 1.7 11.7
-8 9 8 10.9 6
-8 9 8 6.3 6.4
9 -1 8 -23.5 9.6
-9 2 -8 -8.2 6
-2 -7 8 -6.2 8.1
-7 9 8 6.5 5.9
9 -2 8 5.5 10.7
-2 -7 8 15.4 12.1
-7 9 8 -1.5 4.5
-9 3 -8 43 10.7
-3 -6 8 12.4 13.7
9 -3 8 28 13.7
-3 -6 8 44.5 14.8
-6 9 8 35.1 8.4
-6 9 8 31 7.9
-9 4 -8 6.1 8.9
-5 9 8 15.9 6.6
-5 9 8 7.6 6.5
9 -4 8 20.3 11.4
-9 5 -8 21.3 10.1
9 -5 8 11.9 11.2
-5 -4 8 4.4 12.1
-5 -4 8 22.5 11.6
-4 9 8 11.5 7.3
-4 9 8 5.4 5.9
-9 6 -8 16.9 10.4
-3 9 8 21.9 8.1
9 -6 8 47.8 15.5
-6 -3 8 0.3 11.6
-6 -3 8 40.9 11.6
-3 9 8 36.1 7.9
-9 7 -8 6.6 13.2
-7 -2 8 0 8
-7 -2 8 3.7 10.1
9 -7 8 -6.2 10
-2 9 8 -2.4 4.7
-9 8 -8 7.3 10
-8 -1 8 9.4 7
9 -8 8 8 9.1
-1 9 8 4.7 7.1
-1 9 8 8.8 5.6
-8 -1 8 45.1 12.4
-9 9 -8 1.3 9.9
-9 0 8 -17.9 8.7
9 -9 8 -13.4 10
-9 0 8 2 6.6
0 9 8 8.2 6.9
-9 10 -8 1.6 10.4
-10 1 8 31.5 12.9
1 9 8 -0.5 6.6
-10 1 8 1.3 7.6
1 9 8 4.2 5.1
9 -10 8 -10.3 10.6
-9 11 -8 19.6 12.4
-11 2 8 8 11.5
-11 2 8 -3 6.6
9 -11 8 12.7 12.2
2 9 8 -1.1 5.3
2 9 8 18.7 9
-9 12 -8 -0.9 10.7
-12 3 8 -0.4 6.9
3 9 8 6.8 7.9
3 9 8 2 5.8
9 -12 8 28.1 13.9
-12 3 8 10.5 11.9
-9 13 -8 29.1 12.4
4 9 8 1.1 7.3
-13 4 8 7.5 10.2
4 9 8 7.1 6.3
-13 4 8 12.6 8.5
9 -13 8 2.3 12.6
-14 5 8 8.1 8.9
5 9 8 13.8 7.3
5 9 8 12.4 8.9
-14 5 8 13.5 11.5
9 -14 8 9.7 12.5
6 9 8 -3.7 5.3
6 9 8 -3.2 8.3
9 -15 8 -6.7 11.3
-15 6 8 -7.3 9.1
-15 6 8 -3.6 7.4
-9 16 -8 -2 14.4
7 9 8 46.5 13.7
-16 7 8 8.8 9
-16 7 8 15.6 10.6
7 9 8 26.8 9.1
9 -16 8 50.49 19.8
-9 17 -8 5.3 12.9
9 -17 8 16.6 17.9
-17 8 8 5.2 11.1
8 9 8 7.8 7
8 9 8 0.9 8.2
-17 8 8 5.1 8.2
-18 9 8 26.5 12.9
9 9 8 22 11.3
-18 9 8 19 10.9
9 9 8 14 8.5
-18 9 8 6.7 10.6
9 -18 8 3.1 15
10 9 8 5.1 6.7
9 -19 8 5.6 15.5
10 9 8 9.1 9.2
-19 10 8 1.3 7.9
-19 10 8 15.6 10.5
8 -18 8 30.1 20.4
10 8 8 36.3 11
10 8 8 50.29 16.2
-18 10 8 53.39 13.5
-18 10 8 79.49 15.4
-7 17 -8 -12.2 13
10 7 8 9.3 7.2
7 -17 8 -11.1 15.7
-17 10 8 3.4 9
-17 10 8 7.3 6.5
10 7 8 -11.8 8.8
-6 16 -8 40.9 17
10 6 8 19.1 9.4
6 -16 8 17 14.8
10 6 8 41.8 14.2
-16 10 8 39.2 8.8
-15 10 8 -1.6 8.4
10 5 8 5.6 9.8
10 5 8 4.1 8.2
-15 10 8 6.4 6.6
5 -15 8 -11.3 13
10 4 8 60.79 21.8
4 -14 8 27.1 17
10 4 8 43.1 12.9
-14 10 8 54.29 11.1
-14 10 8 54.49 11.7
-3 13 -8 -14 10.8
10 3 8 -18.1 7.8
-13 10 8 12.2 7.2
3 -13 8 -11.5 11.1
-13 10 8 11.8 8.2
10 3 8 20.4 12.2
2 -12 8 26.1 16.5
-12 10 8 35.1 9.1
10 2 8 8 8.8
10 2 8 56.19 13.3
-12 10 8 37.8 9.5
1 -11 8 -8.5 11
-11 10 8 6 7.1
1 -11 8 -3.9 8.8
-11 10 8 -2.6 7.1
10 1 8 16.5 9
10 1 8 7.4 7.6
-10 10 8 18.8 6.8
0 -10 8 11.8 8.9
10 0 8 33.6 10.9
0 -10 8 19.1 14.2
-1 -9 8 0.5 7.2
-9 10 8 11.1 5.6
10 -1 8 -8.3 7.8
-1 -9 8 5.6 12
-10 2 -8 31.6 9.4
-8 10 8 26 7.3
-2 -8 8 13.3 13.4
-2 -8 8 58.79 16.6
10 -2 8 53.59 14.4
-10 3 -8 -11 7.8
-7 10 8 8.3 5.4
-3 -7 8 8.2 8.8
10 -3 8 -0.9 9
-3 -7 8 -1 11.4
-7 10 8 3 5.8
-10 4 -8 93.09 15.6
10 -4 8 82.79 18
-4 -6 8 82.19 20
-4 -6 8 94.39 17.7
-6 10 8 77.59 11.3
-6 10 8 79.09 11.8
-10 5 -8 0.9 9.2
10 -5 8 12 11
-5 -5 8 -3.3 11.5
-5 10 8 8.1 5.6
-5 10 8 4.7 4.9
-5 -5 8 13.9 8.9
-4 10 8 64.99 10.1
-6 -4 8 49.8 14.3
-4 10 8 63.49 10.8
10 -6 8 81.89 18.5
-10 7 -8 -17.9 8.4
-7 -3 8 0.3 11.7
-3 10 8 7.8 6.3
10 -7 8 28.4 11.8
-7 -3 8 7.3 13.4
-10 8 -8 36 12.3
-2 10 8 35.5 8.5
-2 10 8 32.4 7.1
10 -8 8 29.6 13.8
-8 -2 8 33.1 13.8
-10 9 -8 12.3 11
-9 -1 8 5.4 11.6
-1 10 8 13.8 6.9
10 -9 8 8.7 10.4
-9 -1 8 -9.7 9.8
-1 10 8 -1.5 4.1
-10 10 -8 34.3 12.9
-10 0 8 31.2 16.6
0 10 8 24 7.2
10 -10 8 6.1 11.4
-10 0 8 53.89 14.6
0 10 8 7.4 7.7
-10 11 -8 -2.3 10.8
1 10 8 4.4 5.5
-11 1 8 22.8 12.4
10 -11 8 0.3 10.8
1 10 8 14.4 8
-10 12 -8 45.2 13.8
-12 2 8 26.4 14.2
2 10 8 25.6 7.6
-12 2 8 57.49 18.3
10 -12 8 22.4 14.6
2 10 8 30.8 10.1
3 10 8 -4.8 6.9
-13 3 8 8.9 11.4
10 -13 8 4.4 12.6
3 10 8 12.5 6.4
10 -14 8 12.1 15.3
4 10 8 49.8 13.1
4 10 8 81.39 11.6
-14 4 8 40.1 16.5
-14 4 8 70.89 17
-10 15 -8 5.7 13.2
-15 5 8 10 8.9
10 -15 8 0.6 12.9
-15 5 8 -22.2 9.7
5 10 8 0.7 9.1
5 10 8 0.3 5.2
-10 16 -8 14.4 13.7
10 -16 8 17.4 15.3
-16 6 8 13.1 11.6
-16 6 8 52.39 12.3
6 10 8 31.3 8.7
-10 17 -8 23.1 15.9
7 10 8 -9.8 8.7
-17 7 8 -8.4 7.6
-17 7 8 -6.9 9.5
7 10 8 -2.6 5.2
-17 7 8 -7 6.8
8 10 8 58.99 11.4
10 -18 8 48.4 20.9
8 10 8 44.1 14.1
-18 8 8 39.9 15.6
-18 8 8 52.19 14.3
-18 8 8 19.2 8.1
-19 9 8 -17 9.2
9 10 8 -1.7 6
10 -19 8 10.1 16.7
-19 9 8 -0.4 9
9 10 8 -12.3 9.1
-19 11 8 15.5 10.5
11 8 8 -1.2 6.5
-19 11 8 8.3 10.3
8 -19 8 -19.1 14.9
11 8 8 -0.6 10.3
-18 11 8 -1.3 8.1
7 -18 8 37 19.3
11 7 8 9.1 11.1
11 7 8 18.9 9
-18 11 8 33.6 12.8
-6 17 -8 -2.9 13.8
11 6 8 19.6 10.8
11 6 8 9.1 7.3
-17 11 8 8.8 8
-5 16 -8 -5.1 13
5 -16 8 16.1 15.9
11 5 8 -1 6.9
11 5 8 -2.5 9.4
-16 11 8 -5 5.8
-16 11 8 7.9 8.7
11 4 8 17 9.7
11 4 8 5.3 7.8
4 -15 8 11.3 15.6
-15 11 8 2 5.9
-14 11 8 14.6 6.8
-14 11 8 -2.3 7.1
3 -14 8 -13.1 12.9
11 3 8 23.4 9.4
11 3 8 0.8 9.1
11 2 8 9.5 9.9
-13 11 8 9.7 6.4
-13 11 8 22.3 7.8
2 -13 8 -1 10.9
11 2 8 6.6 7.6
11 1 8 -5.4 6.6
11 1 8 -7 7.7
1 -12 8 5.2 12.6
-12 11 8 23.8 7
0 -11 8 0 11.4
11 0 8 6 7.3
-11 11 8 5.5 5.3
11 0 8 13.6 9.4
-11 1 -8 2.4 8
-1 -10 8 4.5 14.4
-10 11 8 2.8 4.9
11 -1 8 0.8 8.5
-1 -10 8 -2.5 8.9
-11 2 -8 8.6 8.9
11 -2 8 14.5 10.1
-9 11 8 18.7 6.2
-2 -9 8 19 11.3
-2 -9 8 10.7 14.1
-11 3 -8 3.5 8.9
-3 -8 8 2.7 8
11 -3 8 10.5 9.9
-3 -8 8 18.8 14.8
-8 11 8 10.2 5.2
-11 4 -8 -2.1 9.4
11 -4 8 -4.8 9.8
-7 11 8 5.4 4.2
-4 -7 8 -0.4 11.6
-4 -7 8 2.9 8.4
-5 -6 8 -12 10.4
-5 -6 8 -0.8 7.5
11 -5 8 -12.3 8.2
-6 11 8 8.4 4.6
-11 6 -8 -9.8 9.6
-6 -5 8 2.3 7.6
11 -6 8 10.7 11.6
-6 -5 8 4.5 12.5
-5 11 8 9.9 4.5
-11 7 -8 -8.1 10
-4 11 8 0 3.6
-7 -4 8 4.2 13
11 -7 8 -6.7 9.9
-4 11 8 -0.6 5.1
-7 -4 8 20.9 9.7
-11 8 -8 -3.6 10.3
-8 -3 8 -14 6.1
-3 11 8 0.2 6.2
-8 -3 8 3.9 14.2
11 -8 8 -18.9 7.4
-3 11 8 8.4 4.2
-11 9 -8 18.4 12.4
-9 -2 8 9.7 6.6
-2 11 8 18.2 7.2
-2 11 8 9.8 4.4
11 -9 8 5.8 10.6
-11 10 -8 10.5 11.1
-10 -1 8 10.5 9
11 -10 8 0.6 11.7
-1 11 8 12.6 7
-1 11 8 6.7 4.5
-11 11 -8 -11.8 9.3
11 -11 8 12.2 12.6
-11 0 8 10.1 12.2
0 11 8 7.4 5
-11 0 8 6.8 8.2
0 11 8 15.9 7.9
-11 12 -8 17.8 10.8
11 -12 8 -12.3 10.8
-12 1 8 -5.2 5.9
1 11 8 1.4 7
1 11 8 -6.8 4.1
-12 1 8 12 12.7
2 11 8 -1.5 7.6
-13 2 8 8.7 12.7
-13 2 8 6 7.6
11 -13 8 -1.3 11.1
2 11 8 19.9 6.2
-11 14 -8 -2.3 13.4
11 -14 8 0.1 14
3 11 8 8.3 5.2
3 11 8 -9.1 6.8
-14 3 8 19.4 13.4
-14 3 8 4.8 8.4
-11 15 -8 3.2 12.6
-15 4 8 -15.7 11.8
-15 4 8 8.3 8.7
4 11 8 2.2 7.3
4 11 8 -1.1 5
11 -15 8 4.4 13.4
-11 16 -8 7.6 12.8
-16 5 8 11.7 8.8
5 11 8 12.4 5.6
5 11 8 -0.2 8.5
11 -16 8 -9.1 13.1
-11 17 -8 -2.8 14.9
6 11 8 5.6 5.3
-17 6 8 1.3 7.5
-17 6 8 -0.6 9
6 11 8 2.8 8.8
7 11 8 16.6 7.2
-18 7 8 23.2 12.4
7 11 8 22.9 11.1
11 -18 8 29.4 19.2
-18 7 8 -14.7 12.9
-18 7 8 17.4 9.7
-19 8 8 22 12.9
8 11 8 4.6 5.5
-19 8 8 14.6 7.6
11 -19 8 -11.9 14.6
8 11 8 1.6 9.4
-19 8 8 -2.2 9.2
-19 12 8 -14 8.8
7 -19 8 -21.9 13.4
-19 12 8 -2.6 7.5
12 7 8 -5.2 9.9
12 7 8 -6.8 5.7
-18 12 8 55.19 13.4
-18 12 8 51.39 12.4
6 -18 8 38.9 18.3
12 6 8 37 14.6
12 6 8 33.2 11
-5 17 -8 -12.5 12.5
12 5 8 -2.1 7.7
-17 12 8 1.4 7.9
12 5 8 -7 8.9
-17 12 8 0.4 6.4
-4 16 -8 24.3 16.3
12 4 8 66.99 16.6
-16 12 8 56.19 11.6
-16 12 8 27.6 10
12 4 8 32.6 10.3
4 -16 8 30.8 19.6
-15 12 8 -6.4 6.4
12 3 8 20.2 12
3 -15 8 12.4 16.8
12 3 8 18.3 10.3
-15 12 8 6.2 7.1
12 2 8 47.8 11.5
2 -14 8 40.8 17.6
-14 12 8 36.2 8.2
12 2 8 45.7 13.4
-13 12 8 13.6 7
12 1 8 -1.6 8.7
12 1 8 5.9 7.4
1 -13 8 2.5 13.7
-13 12 8 9.3 6.9
-12 0 -8 10.8 8.9
12 0 8 23.7 11.5
0 -12 8 40.1 17
12 0 8 39.6 11.9
-12 12 8 24.8 7
-12 1 -8 -4.1 8.3
-11 12 8 -5.2 4.3
12 -1 8 2.6 7
-1 -11 8 -15.6 11.3
12 -1 8 5.6 9.2
-12 2 -8 40.6 11.8
-10 12 8 30 6.9
12 -2 8 28.4 11.3
-2 -10 8 16.1 14.5
-12 3 -8 12.6 10.6
-9 12 8 6.2 4.4
-3 -9 8 -26.4 10.1
-3 -9 8 11.7 9.1
12 -3 8 -3.9 9.7
12 -4 8 53.09 14.6
-4 -8 8 44.9 12.3
-8 12 8 41.9 7.6
-4 -8 8 51.79 16.6
-12 5 -8 26.6 11.8
-7 12 8 28.8 6.2
-5 -7 8 20.2 10.8
-5 -7 8 32.3 15.5
12 -5 8 33.6 13.8
-12 6 -8 66.19 16.2
-6 -6 8 67.09 19.4
-6 12 8 90.89 10.4
12 -6 8 90.29 18.7
-6 -6 8 66.79 16.2
-12 7 -8 31 12.7
-5 12 8 21.6 4.8
-7 -5 8 5.4 12.9
12 -7 8 43.1 14
-7 -5 8 24.3 10.9
-12 8 -8 62.19 15.7
-4 12 8 61.79 7.4
-8 -4 8 33.2 11.8
-4 12 8 50.09 9.7
12 -8 8 50.89 16
-8 -4 8 53.19 16.2
-12 9 -8 3.4 10.1
-3 12 8 -2.1 3.1
-9 -3 8 7.6 11
12 -9 8 2.3 10.6
-9 -3 8 11.9 8.9
-3 12 8 -10.4 5
-12 10 -8 12.2 13
-10 -2 8 18.8 12.8
-2 12 8 39.1 9.1
12 -10 8 21.5 13
-10 -2 8 35 12.4
-12 11 -8 -4 10.9
-11 -1 8 4.8 9
-1 12 8 -4.4 6.1
-11 -1 8 -0.9 11.5
12 -11 8 -6.3 11.1
-12 12 -8 16.3 14.4
-12 0 8 19.7 13.6
-12 0 8 15.4 9.5
0 12 8 34 10.5
12 -12 8 -3.3 12.4
1 12 8 16.3 5
-13 1 8 12.5 8.9
12 -13 8 6.9 12.8
1 12 8 3.6 7.6
-13 1 8 1.3 12.7
2 12 8 49.7 11.9
12 -14 8 46.1 18.6
-14 2 8 69.99 18.5
-14 2 8 22.7 11.1
-12 15 -8 19.5 14.6
-15 3 8 16.3 13.2
-15 3 8 20.2 10
3 12 8 3.4 7.8
12 -15 8 23 16.7
3 12 8 2.8 4.1
-12 16 -8 20.5 15.6
4 12 8 37.8 12.1
-16 4 8 14.6 9.6
4 12 8 38.4 7.5
12 -16 8 19.8 16.9
-16 4 8 18.2 13.8
-17 5 8 -9.3 9.9
-17 5 8 4.7 6.7
5 12 8 -4.5 4.1
-17 5 8 16 10.2
5 12 8 6.1 11.3
-18 6 8 31.8 13.3
6 12 8 34.7 12.8
12 -18 8 37.7 19.1
6 12 8 12.9 6.2
-18 6 8 20.2 13.7
-18 6 8 37.7 15.6
7 12 8 4.2 9
7 12 8 10 5.9
12 -19 8 18 16.9
-19 7 8 2.4 10.7
-19 7 8 -7.4 11.1
-19 13 8 9.4 7
6 -19 8 1.5 15.2
13 6 8 5.2 9.8
-19 13 8 22.3 10.2
13 6 8 -7.9 7.1
13 5 8 -4.8 11.3
13 5 8 7.5 7
5 -18 8 6.6 17.7
-18 13 8 9 7.4
-4 17 -8 -5.8 12.3
13 4 8 6.1 9.9
-17 13 8 15 7.7
-17 13 8 -7 6.1
13 4 8 8.9 8.8
-3 16 -8 1.7 14.6
3 -16 8 -11.5 13.1
13 3 8 5.5 10
-16 13 8 2.7 6.7
-16 13 8 4 6.5
13 3 8 -3.6 7.7
-15 13 8 -9.6 5.9
13 2 8 -6.5 8.6
-15 13 8 1 5.8
13 2 8 6.4 8.6
2 -15 8 -0.3 13.8
-13 -1 -8 11.6 8.3
-14 13 8 -1 5.6
13 1 8 -3.2 7.2
13 1 8 1.9 8.8
1 -14 8 -2.7 13.2
-13 0 -8 0.3 8.9
13 0 8 10.4 10.3
13 0 8 -4.7 6.6
0 -13 8 2.4 13.5
-13 13 8 18.8 6.8
-13 1 -8 12.7 10
13 -1 8 9.7 9.7
-12 13 8 1.5 5.2
13 -1 8 5.2 9
-1 -12 8 19.5 14.7
-13 2 -8 6.4 11.1
-2 -11 8 9.1 13.8
-11 13 8 8.4 4.7
13 -2 8 9.3 10.5
13 -2 8 6.4 8
-3 -10 8 12 13.9
-10 13 8 3.2 3.9
13 -3 8 5.2 10.2
-13 4 -8 -18.5 9.4
13 -4 8 -4.5 8.9
-9 13 8 -1.5 3.4
-4 -9 8 13.5 13.5
-13 5 -8 10.1 11.2
-8 13 8 -1.4 3.1
13 -5 8 17.8 11.8
-5 -8 8 0.7 12.8
-13 6 -8 9.1 11.7
13 -6 8 13.3 11.5
-6 -7 8 4.5 9.9
-6 -7 8 -0.1 12.1
-13 7 -8 1.8 10.5
-7 -6 8 8 13.6
-7 -6 8 -3.1 7.9
13 -7 8 -7.5 10
-13 8 -8 15.3 12.2
13 -8 8 -9 8.5
-8 -5 8 15.6 13.1
-8 -5 8 -3.7 6.7
-13 9 -8 3.6 11
-9 -4 8 -7.6 10.6
13 -9 8 9.9 11.7
-9 -4 8 4.4 9.2
-13 10 -8 -10.8 9.9
-10 -3 8 -8.2 10.9
-10 -3 8 3.5 8.2
-3 13 8 13.2 6.7
13 -10 8 10.3 12.8
-13 11 -8 39.2 13.7
-2 13 8 7.2 7
13 -11 8 5.2 12.4
-11 -2 8 3.7 9.3
-11 -2 8 2.7 12.6
13 -12 8 15.6 12.4
-12 -1 8 -10.3 7.7
-12 -1 8 5.9 12.5
-1 13 8 5.3 7
-13 13 -8 -7.2 14.3
-13 0 8 27.5 14.4
0 13 8 14.2 8.4
-13 0 8 -9.3 6.1
13 -13 8 -13.3 10.4
-13 14 -8 -9.3 11.9
1 13 8 -1.2 6.9
-14 1 8 2.1 8.4
13 -14 8 13.9 14.8
-14 1 8 -2.5 13.4
-13 15 -8 -7.2 13
-15 2 8 20.3 13.6
13 -15 8 -20.8 12.6
2 13 8 2.4 3.4
2 13 8 -17.2 6.6
-15 2 8 1.8 8.8
-13 16 -8 11 13
3 13 8 2.9 4.4
-16 3 8 12.5 12.8
3 13 8 18.3 10.5
13 -16 8 30.5 19.5
13 -17 8 -14.1 13
-17 4 8 -5.7 11.6
-17 4 8 13.1 10.7
-18 5 8 -3.7 11.2
13 -18 8 14.4 15.8
5 13 8 21.3 12.2
-18 5 8 6.4 10.8
5 13 8 15.8 5.4
-19 6 8 -8.4 11.4
6 13 8 -5.2 4.4
13 -19 8 -3.2 14.9
6 13 8 -14.1 9
-18 14 8 19.6 9.7
-18 14 8 50.39 12.9
4 -18 8 21.1 16.1
14 4 8 40.7 14.1
14 4 8 34.5 11.7
-3 17 -8 13.9 20.4
3 -17 8 15.3 18.4
-17 14 8 9.2 9.7
-17 14 8 1.8 6.8
14 3 8 19 8.8
14 3 8 42.6 13.3
-14 -2 -8 45.7 10.9
-16 14 8 25.8 9
-16 14 8 64.49 10.9
14 2 8 35.7 11.2
14 2 8 45.5 15.7
-14 -1 -8 12.6 10.1
1 -15 8 13.6 18.1
-15 14 8 21 7.7
14 1 8 29.8 12.4
14 1 8 27.7 12.2
-14 0 -8 42.8 13.2
14 0 8 26.1 12.6
-14 14 8 45.4 9.3
0 -14 8 76.49 20.6
14 0 8 56.39 13
-14 1 -8 16.1 15.3
14 -1 8 4.5 7.4
-1 -13 8 -1.5 14.5
14 -1 8 0 10
-13 14 8 1 4.6
14 -2 8 41.6 13.1
-12 14 8 33.6 7.3
-2 -12 8 27.4 18.1
14 -2 8 38.4 14.5
-14 3 -8 8.9 11.2
-11 14 8 2.6 3.8
14 -3 8 4.7 10.8
14 -3 8 -2 7.8
-3 -11 8 19.1 14.4
-14 4 -8 56.59 15.9
14 -4 8 77.09 18.3
-4 -10 8 65.89 19.8
14 -4 8 64.99 14.9
-14 5 -8 23.7 13.1
-5 -9 8 3.7 13
14 -5 8 18.6 11.9
-14 6 -8 73.49 17.5
14 -6 8 73.39 19.3
-6 -8 8 71.19 19.5
-14 7 -8 70.89 17.1
14 -7 8 102.29 21.1
-7 -7 8 70.29 18.7
-14 8 -8 46 14.6
-8 -6 8 33 16.9
14 -8 8 61.19 17.4
-14 9 -8 11.8 13.5
-5 14 8 8.9 6.1
-9 -5 8 8.3 12.2
14 -9 8 23.9 12.8
-14 10 -8 56.39 16.4
-4 14 8 66.19 12.2
14 -10 8 76.59 18.2
-10 -4 8 34.8 16.4
-11 -3 8 -8.4 11.4
-3 14 8 -2.7 5.9
14 -11 8 -23.8 8.3
14 -12 8 32.8 14.9
-12 -2 8 28 15.4
-2 14 8 53.39 10.9
-14 13 -8 -2.1 15.2
-1 14 8 7.1 7.7
-13 -1 8 -10.7 12.1
14 -13 8 2.9 13.4
-14 14 -8 27 15.5
14 -14 8 74.29 20.5
-14 0 8 52.29 19.6
0 14 8 49.3 12.1
-14 15 -8 17.7 14.2
-15 1 8 34.2 15.8
1 14 8 13.3 8.3
14 -15 8 0.5 13.9
-14 16 -8 24.6 17.6
2 14 8 32.9 10.6
-17 3 8 -1.1 13.1
3 14 8 10.6 9.4
-17 3 8 16.5 12.5
14 -17 8 -5.9 14.3
-18 4 8 41 14.9
4 14 8 30.6 5.5
4 14 8 56.79 13.5
14 -18 8 24.5 18.7
-18 4 8 33.5 15.7
-18 15 8 18.6 10.2
15 3 8 2.2 8.4
3 -18 8 -10.6 14.9
-18 15 8 -2.4 6.7
15 3 8 -5.6 9.7
-15 -2 -8 -19.1 9.5
-15 -2 -8 10.2 12
-17 15 8 -15.2 6.4
-17 15 8 -1.3 6.6
15 2 8 10.1 10.6
15 2 8 9 9.8
2 -17 8 -16 12.6
-15 -1 -8 -6.9 11.2
-16 15 8 5.6 6.6
-16 15 8 -4.8 6.2
15 1 8 15.2 10.1
15 1 8 -7.7 9.3
0 -15 8 -2.5 13.7
15 0 8 -13.2 9.3
-15 15 8 6 6.2
15 0 8 0.5 9.4
-15 1 -8 7 14.5
15 -1 8 10.1 10.2
-14 15 8 3.6 5.1
-1 -14 8 16.8 16.8
15 -1 8 15.6 9.5
-15 2 -8 -2.3 11.4
15 -2 8 21.8 11.6
15 -2 8 4.1 6.9
-13 15 8 1.1 4.2
-2 -13 8 -5.7 14.6
-15 3 -8 3.7 11.8
15 -3 8 13.6 11
-3 -12 8 9.2 14.6
15 -3 8 -4 8.3
-15 4 -8 5.7 12.4
15 -4 8 -2.9 10.2
15 -4 8 6.2 8.7
-4 -11 8 9.7 15.7
-15 5 -8 0.2 11.3
15 -5 8 6.8 9.9
15 -5 8 -2 9.7
-5 -10 8 0.9 13
-15 6 -8 -28.9 9.7
-6 -9 8 4.2 13.8
15 -6 8 -18.9 8.9
-15 7 -8 2 11.1
15 -7 8 -3.6 9.2
-15 8 -8 -8.7 10.9
15 -8 8 -11.7 10.9
-8 -7 8 -24.9 10.6
-15 9 -8 15.8 11.2
-9 -6 8 10.6 12.8
15 -9 8 -2.4 10.3
15 -10 8 15.2 13
-10 -5 8 -14.5 11.6
-4 15 8 9 6.3
-11 -4 8 23 14.5
15 -11 8 13.8 13.1
-15 12 -8 25.7 26.8
15 -12 8 1.6 12
-12 -3 8 -17 11.9
-3 15 8 9.2 7.5
-15 13 -8 6.1 12.5
-2 15 8 18.2 7.7
-13 -2 8 15.8 14.3
15 -13 8 -4.8 11.5
-15 14 -8 2 14.5
-1 15 8 16.1 8.5
-14 -1 8 5.2 13.6
15 -14 8 3.7 13.6
-15 15 -8 -7.7 12.6
-15 0 8 -8.2 13
0 15 8 11.2 8.1
1 15 8 -9.3 6.8
-16 1 8 -23.1 12.4
15 -16 8 11.9 15.1
-17 2 8 28 15.1
-17 2 8 -5 9.7
15 -17 8 -6.9 13.6
2 15 8 -12 8
-18 3 8 7.8 10.6
15 -18 8 22 16.9
-18 3 8 6.1 14
-17 16 8 16.7 7
1 -17 8 18.3 19.5
-17 16 8 27.7 8.9
16 1 8 8.5 10.8
16 1 8 19.2 10.3
-16 0 -8 40.3 14.9
16 0 8 65.19 15.1
-16 16 8 30.6 7.8
-16 16 8 51.19 10.7
16 0 8 36.9 15.1
0 -16 8 6.3 16.1
-16 1 -8 -17.3 11.5
-15 16 8 -2.2 4.8
16 -1 8 5.6 10.4
16 -1 8 -4.5 8.6
-16 2 -8 35.9 14.9
16 -2 8 28.3 14.8
16 -2 8 34.4 12.2
-2 -14 8 28.3 18.7
-16 3 -8 -12 11.9
-3 -13 8 -15.5 13.6
16 -3 8 26 12.3
16 -3 8 13 8.7
-16 4 -8 32.5 14.5
16 -4 8 46.8 14.3
-4 -12 8 32.6 16.4
16 -4 8 38.9 12.4
-16 5 -8 5.4 12.1
-5 -11 8 -8.3 13.2
16 -5 8 6.2 9.9
16 -5 8 21.1 13.1
-16 6 -8 23.2 13.5
16 -6 8 36.8 13.3
16 -6 8 47.6 15.9
-6 -10 8 21.3 17.6
-16 7 -8 30.5 13.6
16 -7 8 30.1 14.1
-7 -9 8 38.9 16.9
-16 8 -8 47.5 18
16 -8 8 41 15.5
-8 -8 8 63.99 19.3
16 -9 8 27.3 13.3
-9 -7 8 8.3 13.8
-10 -6 8 30 16
16 -10 8 19.6 14.5
-5 16 8 -0.1 5.6
16 -11 8 -5.9 10.4
-11 -5 8 11.1 13
-16 12 -8 53.79 18.5
-12 -4 8 50.59 17.3
16 -12 8 39.9 15.2
-4 16 8 40.2 9
-16 13 -8 -12.5 12.6
16 -13 8 -18.5 11.7
-13 -3 8 10.5 13.2
-3 16 8 -8.5 5.6
-16 14 -8 14.9 16.1
-14 -2 8 53.49 19.1
-2 16 8 51.79 13.1
16 -15 8 -20.1 12.2
-15 -1 8 -0.3 13.8
-1 16 8 -0.1 7.1
0 16 8 54.39 12.6
16 -16 8 33.7 18.5
-16 0 8 41.4 18.9
16 -17 8 15.2 16.6
-17 1 8 21.8 17
-17 1 8 14.2 12.8
-17 1 -8 -2.3 12.9
17 -1 8 -6.6 7.7
-1 -16 8 -20.7 13.2
-17 2 -8 5.8 13
17 -2 8 12.8 9.2
17 -2 8 1.7 10.5
-2 -15 8 13.5 16.8
-17 3 -8 16.5 13.6
17 -3 8 23.5 10
17 -3 8 25.2 12.7
-17 4 -8 -2.6 13
17 -4 8 -5 8.2
17 -4 8 -17.6 8.8
-4 -13 8 -7.3 15.4
-17 5 -8 2.4 12.3
-5 -12 8 -13.2 12.3
17 -5 8 -5.9 8.5
17 -5 8 -10 8.3
-17 6 -8 26.1 15.6
17 -6 8 33.5 11.6
17 -6 8 -0.7 9.8
-6 -11 8 3.5 16.3
17 -7 8 5.5 11.9
-7 -10 8 -2.4 14
17 -7 8 -1.7 9
17 -8 8 -28.2 9.5
17 -8 8 3.7 8.8
-8 -9 8 19 15.4
17 -9 8 0 10.4
-9 -8 8 -13.3 12.2
-17 10 -8 -10.1 13.9
-10 -7 8 -6.6 14.3
17 -10 8 -15.5 9.3
-17 11 -8 12.5 13.7
17 -11 8 -20.3 10.8
-11 -6 8 13 12
-17 12 -8 -13.2 13.2
-12 -5 8 -4.7 12.5
-5 17 8 5.4 7
-17 13 -8 3.4 15.7
-13 -4 8 -9 11.7
-4 17 8 0 5.8
-17 14 -8 11.3 19.8
-14 -3 8 -9.5 13.8
-3 17 8 -7.1 6.6
17 -14 8 -0.1 14
-15 -2 8 -5.3 13
17 -15 8 22.6 14.8
17 -16 8 26.2 18.9
-16 -1 8 -1.7 14.5
-1 17 8 9.7 9.1
-18 3 -8 3.2 12.6
18 -3 8 13.4 9.5
-3 -15 8 -14.3 15.9
18 -3 8 -19 9.2
-18 4 -8 67.49 20.4
-4 -14 8 42.5 19.2
18 -4 8 37.1 14.9
18 -4 8 56.49 15.4
18 -5 8 23.2 11.3
18 -6 8 30.1 11.5
-7 -11 8 20.9 18.5
18 -7 8 6 9.5
18 -8 8 58.59 16.4
-8 -10 8 33.2 17.7
-18 9 -8 8.4 15.8
-9 -9 8 14.4 14.9
18 -9 8 -1.2 10.4
-18 10 -8 56.69 18.1
-10 -8 8 43.7 20.2
-18 11 -8 30.2 17.8
18 -11 8 24.1 16.3
-11 -7 8 15 16.2
-18 12 -8 25 16.6
-12 -6 8 39.8 17.5
18 -12 8 44.8 16.6
-13 -5 8 11.7 14.1
18 -13 8 12.9 13.1
18 -14 8 34.5 19.3
-14 -4 8 63.59 19.1
18 -15 8 -6.3 13.6
-3 18 8 6.4 8
-15 -3 8 14 15.5
-19 6 -8 -5 18.7
19 -6 8 17.5 12
-6 -13 8 -7.1 16
19 -6 8 -13.1 8.7
-19 7 -8 -8.5 14.7
19 -7 8 -4.6 11.4
-7 -12 8 22.9 17.2
19 -7 8 3.9 10.4
-19 8 -8 -9.9 15.8
19 -8 8 11.6 11.1
19 -8 8 -0.2 8.1
-8 -11 8 16.6 19
-19 9 -8 -2 15.8
19 -9 8 -25.2 10.7
19 -9 8 -4.7 10.8
-19 10 -8 18.4 16.9
19 -10 8 6.3 13
19 -10 8 7.6 10.5
-19 11 -8 -0.7 15.8
19 -11 8 -14.4 9
19 -11 8 -5 12.5
19 -12 8 8.7 14.2
19 -13 8 13 13.9
-13 -6 8 -10.4 12.4
0 0 9 -5.2 8.2
0 0 9 27.2 13.3
0 -1 9 -4.5 10.5
0 -1 9 -10.7 6.6
-1 1 9 17.6 11.6
1 0 9 4.4 10.4
-1 1 9 21 9.4
1 -1 9 8.1 10.7
-1 0 9 7.4 11.6
0 1 9 -6.4 8.6
-1 0 9 2 8.5
-2 1 9 6.8 8.3
1 -2 9 -13.6 9.6
-2 1 9 15.9 12.4
1 1 9 15.5 10.7
-3 2 9 15.4 11.2
2 1 9 4.1 10
-3 2 9 20.4 10.8
0 -2 9 15.2 10.3
-2 2 9 49 14
2 0 9 54.39 14.5
0 -2 9 66.39 17.4
-2 2 9 39.1 11.7
-1 2 9 -1.7 7.8
-1 -1 9 12.3 12.1
-1 2 9 9.3 10
2 -1 9 4.5 9.6
-1 -1 9 15.1 10.8
0 2 9 45.2 13.1
-2 0 9 23.1 14.5
-2 0 9 82.09 15.6
2 -2 9 53.09 15.2
-3 1 9 16.9 11.2
1 2 9 30.5 11.9
-3 1 9 21.2 12.3
-4 2 9 80.59 17
2 2 9 87.39 18.3
-4 2 9 108.09 19.6
2 -4 9 105.79 21.5
-5 3 9 16.1 8.8
2 -5 9 27.2 13.4
-5 3 9 5.8 10.5
3 2 9 -3.2 9.1
-4 3 9 16.4 8.4
1 -4 9 6.1 13.4
-4 3 9 35.8 12.8
3 1 9 21.5 11.3
-3 3 9 41.6 10.8
0 -3 9 -7.8 10.3
3 0 9 6.6 10.8
-3 3 9 20.9 11
-1 -2 9 -3.7 9.1
3 -1 9 34.5 12
-2 3 9 11.4 8.2
-2 3 9 21 10.6
-1 -2 9 6.3 11.7
-2 -1 9 3.2 7.7
-2 -1 9 28 13.6
-1 3 9 5.3 8.8
-1 3 9 13.1 9.8
3 -2 9 9.3 14.6
3 -3 9 1.1 13.3
-3 0 9 8.2 9.3
-3 0 9 6.9 13.1
0 3 9 16.8 10.2
3 -4 9 21.4 12.9
-4 1 9 27.7 10.6
-4 1 9 11.2 11.7
1 3 9 42.9 12.2
-5 2 9 -4 8.8
3 -5 9 10.8 12.7
-5 2 9 25.3 12.8
2 3 9 0.2 9.6
-6 3 9 15.6 8.4
3 -6 9 -0.4 11.1
-6 3 9 -3.2 9.7
3 3 9 23.1 10.3
3 -7 9 26.1 14.9
4 3 9 16.9 10
-7 4 9 8.8 10
-7 4 9 15.2 7.8
4 2 9 84.29 18.1
-6 4 9 90.09 17
2 -6 9 77.79 18.9
-6 4 9 81.29 15
-5 4 9 19.5 10.7
1 -5 9 13.6 10.6
4 1 9 33.5 13.1
-5 4 9 12.3 8.8
1 -5 9 30.3 15.4
-4 4 9 101.29 18.8
4 0 9 184.88 24.6
0 -4 9 148.99 25.6
0 -4 9 168.78 22.9
-4 4 9 143.49 22.4
-3 4 9 32.2 10.5
4 -1 9 21.9 14.3
-3 4 9 10.1 10.5
-1 -3 9 20.1 11.8
-2 4 9 97.09 16.5
-2 4 9 117.89 18.9
-2 -2 9 116.99 22.4
-1 4 9 24.6 10
-3 -1 9 18 13.5
-3 -1 9 35.2 12.4
-1 4 9 9.7 9
4 -3 9 18.1 11.9
4 -4 9 186.28 26.3
-4 0 9 169.28 26.8
0 4 9 145.19 21.7
-4 0 9 135.29 22.1
1 4 9 43.7 12.4
-5 1 9 35.3 10.7
4 -5 9 23.9 13.6
-5 1 9 41.5 15.2
2 4 9 81.99 15.5
-6 2 9 92.09 18.7
-6 2 9 58.89 14.5
4 -6 9 69.69 19.1
-7 3 9 -4.6 8.9
3 4 9 14.7 9.4
4 -7 9 19 12.9
-7 3 9 -0.7 7.4
4 -8 9 66.69 19.5
-8 4 9 61.09 12.4
4 4 9 84.59 16.1
-8 4 9 78.79 16.1
5 4 9 12.8 9.4
4 -9 9 11.6 14.4
-9 5 9 10.6 10.4
-9 5 9 3.6 6.1
3 -8 9 4.6 11.7
-8 5 9 -10.9 9
5 3 9 5.6 9.8
-8 5 9 0.9 6.6
-7 5 9 -2.5 6.5
-7 5 9 4.4 9.4
5 2 9 3.8 9.3
2 -7 9 -9.8 10.4
1 -6 9 9.8 12.8
-6 5 9 19.1 9.7
1 -6 9 1.8 8.3
-6 5 9 7 7.7
5 1 9 12 11.4
-5 5 9 6.1 7
0 -5 9 -6.5 7.9
-5 5 9 4.7 9.7
0 -5 9 7.4 11.7
-4 5 9 18 9.2
-4 5 9 40.6 12.1
-1 -4 9 34.2 11.5
-1 -4 9 7.5 13.3
-3 5 9 10.8 8.1
-3 5 9 10.7 9
5 -2 9 -5.5 8.9
-2 -3 9 -13.2 7.1
-3 -2 9 18 12.3
-3 -2 9 12.1 11
5 -3 9 6.6 11
-2 5 9 -0.1 8.7
-2 5 9 1.4 6.8
-1 5 9 30.8 11.3
5 -4 9 48.1 16.7
-4 -1 9 28 13.8
-1 5 9 23.8 9.6
-4 -1 9 57.39 21.7
5 -5 9 -11.4 9.8
0 5 9 -7.9 7.7
-5 0 9 -11.8 9.9
0 5 9 1.5 6.5
-5 0 9 -4.3 6.7
1 5 9 -9.8 7.2
5 -6 9 14.7 11.6
-6 1 9 4 10.8
-6 1 9 8.5 8.4
5 -7 9 2.9 12.4
-7 2 9 -5.5 6.3
-7 2 9 -5.2 9.1
2 5 9 -14.4 7.5
3 5 9 10.1 9.5
-8 3 9 -11.1 10.7
5 -8 9 -11.4 10
-8 3 9 13.2 7.9
4 5 9 2.8 8.8
-9 4 9 18 10.8
-9 4 9 17.8 7.8
5 -9 9 8.3 12.6
-5 10 -9 10.2 12.2
5 -10 9 35.1 16.5
-10 5 9 17.8 8.2
-10 5 9 11.5 10.5
5 5 9 7.8 8.5
-5 11 -9 1.3 12.4
6 5 9 0 10.1
-11 6 9 2.4 9.8
6 5 9 -1.6 6.9
5 -11 9 -17.6 11.8
-11 6 9 -0.2 6.4
-10 6 9 54.09 11.7
-10 6 9 41.2 13.2
6 4 9 62.79 18.6
4 -10 9 43.7 18
6 3 9 13.2 12.2
3 -9 9 -7 12.2
-9 6 9 -11.2 5
-9 6 9 13.9 10.3
2 -8 9 52.79 17.5
-8 6 9 47.2 12.7
-8 6 9 58.39 11.6
-7 6 9 0.8 9.3
-7 6 9 13.2 7
6 1 9 -4.7 9.9
1 -7 9 8.5 11.8
1 -7 9 26 13.7
0 -6 9 64.49 18
6 0 9 56.79 15.3
-6 6 9 35.9 10.8
0 -6 9 46.6 14.5
-6 6 9 36 12.6
-5 6 9 1.9 9.4
-1 -5 9 25.2 11.1
-5 6 9 3.4 7.6
6 -1 9 0 10
-1 -5 9 13.3 13.9
-4 6 9 61.19 13
6 -2 9 91.89 18.5
-2 -4 9 94.69 20.6
-2 -4 9 63.29 15.5
-4 6 9 67.19 14
-3 6 9 8.7 8.7
-3 -3 9 -6.4 7.3
-3 -3 9 -14.8 12.1
6 -3 9 -1.3 11.3
-3 6 9 6.9 7.7
-2 6 9 66.19 13.9
-4 -2 9 89.89 16
-2 6 9 77.69 13.7
6 -4 9 62.29 17.1
-1 6 9 -0.5 8.1
-5 -1 9 1.2 11.3
6 -5 9 4.2 11.8
-5 -1 9 6.3 7.9
-1 6 9 10.7 8.2
0 6 9 48.6 11.1
-6 0 9 66.99 16.4
-6 0 9 37.1 20.7
0 6 9 47.5 12
6 -6 9 48.6 17.1
-7 1 9 31 15.2
1 6 9 21.4 9.6
6 -7 9 -2.6 10.9
-7 1 9 23.3 12.6
-6 8 -9 48.1 13
-8 2 9 23.8 10.6
6 -8 9 64.79 18.7
2 6 9 58.79 13.2
-8 2 9 32.4 14.2
-6 9 -9 13 12.8
3 6 9 0.1 7.9
-9 3 9 2.3 7.8
-9 3 9 -3.1 10.1
6 -9 9 -23.5 10.8
-6 10 -9 48.7 15.4
6 -10 9 66.89 20.1
-10 4 9 64.09 13.9
4 6 9 33 11.6
-10 4 9 22.3 10.3
-6 11 -9 2.2 13.2
6 -11 9 7.7 14.8
5 6 9 10 7.6
-11 5 9 0.5 10.3
5 6 9 3.1 9.6
-11 5 9 -7.3 5.2
-6 12 -9 8.3 13.1
6 -12 9 10.6 14.3
6 6 9 13.6 10.1
6 6 9 -4.3 6.5
-12 6 9 29.7 9
-12 6 9 41.8 12.7
-6 13 -9 -3.4 13.2
7 6 9 -5.8 5.9
6 -13 9 0.5 14.2
-13 7 9 20.7 8.6
-13 7 9 -2.2 10.2
7 6 9 -1.8 9.5
-5 12 -9 25.4 15.1
7 5 9 10.6 8.8
7 5 9 -6.2 9.2
5 -12 9 18.8 14.2
-12 7 9 0.7 9.4
7 4 9 6.1 9.2
-11 7 9 -4.6 5.8
7 4 9 -0.7 8.2
-11 7 9 -8.9 8.5
4 -11 9 0.6 14.2
-10 7 9 14 7.8
3 -10 9 27.2 15.2
7 3 9 17.7 10
-10 7 9 -7.7 9.3
2 -9 9 4 11.7
7 2 9 -16.1 7.4
-9 7 9 10.1 7.4
-9 7 9 13.9 9.5
1 -8 9 1.2 11.7
-8 7 9 3.7 9
7 1 9 -9.4 9.1
-8 7 9 6.1 6.7
-7 7 9 -2.5 8
0 -7 9 6.9 14.3
0 -7 9 4.1 12.7
7 0 9 3.4 10.2
-7 7 9 -9.5 5.7
-1 -6 9 13.7 9.4
-6 7 9 4.1 8.5
7 -1 9 4.5 10.2
-6 7 9 3.3 6.4
-1 -6 9 21.4 14.9
-5 7 9 6.9 7.1
7 -2 9 -18.6 8.5
-2 -5 9 8.4 13.8
-2 -5 9 -9.4 9.2
-5 7 9 -4.9 7.8
7 -3 9 20.5 13.2
-4 7 9 6 7
-4 7 9 2.5 8
-3 -4 9 20.9 13.7
-3 -4 9 -8.4 8.3
-3 7 9 5.2 6.7
-4 -3 9 21.1 10.2
-4 -3 9 19.1 13.7
7 -4 9 15.4 12.6
-3 7 9 10.2 8.2
7 -5 9 7 11.1
-2 7 9 -14 6.6
-5 -2 9 16.5 9.4
-1 7 9 -7.1 7.1
-6 -1 9 1.2 7.6
-6 -1 9 3.9 13.4
7 -6 9 34.1 14.4
-1 7 9 -8.5 6.2
-7 7 -9 0.5 9.4
-7 0 9 10.8 12.2
7 -7 9 5.6 11.8
-7 0 9 5.8 7.7
0 7 9 -8.6 7
0 7 9 -7.1 6.2
-8 1 9 2.8 10.9
-8 1 9 0 7.2
7 -8 9 3.4 10.5
-7 9 -9 14.4 12.8
7 -9 9 -4.9 11.7
2 7 9 6.2 7.3
-9 2 9 1.1 9.6
-9 2 9 -12 10.5
-7 10 -9 -2.4 12.8
-10 3 9 16.2 10.7
-10 3 9 16.6 10.3
7 -10 9 -6.1 11.3
3 7 9 2.6 8.2
-7 11 -9 -2.3 12.1
-11 4 9 -18.9 9.1
7 -11 9 -14.8 11.8
-11 4 9 -12.2 8.2
4 7 9 -6.4 8.2
4 7 9 -13.9 5.8
-7 12 -9 1.6 12.5
-12 5 9 7.4 11.2
-12 5 9 3.1 11.8
5 7 9 7 7.4
7 -12 9 -3.3 15.7
7 -13 9 -7.4 12.4
-13 6 9 12.8 11.3
-13 6 9 -6.7 9.4
6 7 9 4.2 6.4
6 7 9 6.4 8.6
-14 7 9 24.1 14.9
-14 7 9 12.4 13.4
7 7 9 13.4 9.5
7 7 9 41.3 13.1
-7 15 -9 -16.7 13.8
-15 8 9 -13.7 7.8
8 7 9 -5.7 9
8 7 9 7.3 9.1
7 -15 9 -24.7 13.2
-15 8 9 -2.5 10.8
-14 8 9 45.9 13.7
-14 8 9 63.99 13.7
8 6 9 21.2 11.9
8 6 9 18.2 14.5
-5 13 -9 16.1 15.1
5 -13 9 2.8 12.8
8 5 9 8.6 10.4
8 5 9 -2.5 6.9
-13 8 9 -13.8 9.2
-13 8 9 11 8.3
-12 8 9 16 8.2
8 4 9 26.2 10
-12 8 9 22.9 11
4 -12 9 28.8 17.3
8 4 9 26.5 11.4
3 -11 9 -8.8 11.6
8 3 9 5.7 6.5
-11 8 9 10.4 7.4
8 3 9 17.4 10
-11 8 9 -4.7 8.1
-10 8 9 23.8 10.4
2 -10 9 17 13.9
-10 8 9 23.6 8.6
8 2 9 17.1 11.6
-9 8 9 -0.5 6.2
8 1 9 9 9.5
1 -9 9 2.5 12
-9 8 9 -5.6 8.2
-8 8 9 20.2 7.2
0 -8 9 18.9 14.5
-8 8 9 23.2 9.5
8 0 9 14.7 11.4
-1 -7 9 -13.1 12.1
8 -1 9 12.9 9.8
-7 8 9 10.1 8.3
-7 8 9 3.2 5.7
-2 -6 9 48.6 17.2
8 -2 9 44 14.4
-6 8 9 41.5 9.6
-2 -6 9 11 11.6
-6 8 9 65.09 11.9
-3 -5 9 17.8 15.2
-5 8 9 17.1 8.1
8 -3 9 9.4 10.7
-3 -5 9 8.2 9.6
-5 8 9 4.4 6.5
8 -4 9 56.39 16.2
-4 8 9 65.99 11.1
-4 8 9 60.29 11.8
-4 -4 9 59.19 17.8
-4 -4 9 47.8 13.6
-8 5 -9 -4 7.4
-3 8 9 9.1 5.9
-5 -3 9 14.6 14.3
-5 -3 9 -13.3 6.9
-3 8 9 25.3 8.6
8 -5 9 12.4 13.2
-8 6 -9 49 12.3
-6 -2 9 55.79 17.9
8 -6 9 15.7 13.8
-2 8 9 27.5 8.6
-6 -2 9 53.09 12.8
-2 8 9 41.2 10.4
-8 7 -9 -15.1 9
-7 -1 9 -8.7 6.7
-1 8 9 6.2 7.3
-1 8 9 0.9 5.9
8 -7 9 6.2 12.7
0 8 9 1.5 8.2
-8 0 9 22.7 10.2
8 -8 9 34.6 13.8
-8 9 -9 1 12
1 8 9 23.5 8.6
-9 1 9 4.7 7.2
8 -9 9 34.3 15.3
-9 1 9 -7.6 10.8
-8 10 -9 0.4 12.4
2 8 9 23.8 9.9
8 -10 9 14.2 13.9
-10 2 9 19.6 12.2
-10 2 9 27.9 10.1
2 8 9 41 8.9
-8 11 -9 -11 10.5
-11 3 9 -12.4 9.3
3 8 9 3.6 6
3 8 9 11.3 8.5
-11 3 9 5.6 8
8 -11 9 18.1 13.9
-8 12 -9 37.9 13.7
-12 4 9 8 11.1
-12 4 9 23.7 9.9
4 8 9 29.3 9
8 -12 9 12.8 14.3
4 8 9 14 9.8
-13 5 9 3.3 7.7
8 -13 9 -8.5 11.8
5 8 9 -6.5 6.2
-13 5 9 21 11.9
-14 6 9 8.9 12.4
6 8 9 20.2 8.6
-14 6 9 36 12.8
6 8 9 54.09 15.1
-8 15 -9 -19.1 14.4
7 8 9 4.7 7.4
-15 7 9 -6.9 11.4
-15 7 9 -12.1 6.7
7 8 9 2.9 9.7
8 -15 9 11.3 17.8
-6 15 -9 -7.2 14.3
6 -15 9 -7.1 16
9 6 9 30.2 12.5
-15 9 9 -3.6 7.4
9 6 9 -1 7.5
-15 9 9 8.3 11.1
9 5 9 0 9.8
9 5 9 12.7 8.5
-14 9 9 4 10.1
-14 9 9 8.2 7.7
-13 9 9 12.6 10.7
-13 9 9 9.1 7.7
9 4 9 6.5 7.1
4 -13 9 -4.1 13.7
9 4 9 0.5 9.4
-12 9 9 12.1 9.8
3 -12 9 19.1 14.3
-12 9 9 -3.6 6.7
9 3 9 0.3 8.6
9 3 9 2.5 7.8
2 -11 9 -3.5 13.8
9 2 9 0.4 6.8
9 2 9 -13.3 8.9
-11 9 9 -8.8 8.5
-11 9 9 -8.9 5.8
9 1 9 3.7 8.9
-10 9 9 1.5 5.5
1 -10 9 -8.1 10.4
-10 9 9 6.1 7.9
9 0 9 -3.1 8.6
0 -9 9 -9.4 11.4
-9 9 9 -7.1 7.6
-9 9 9 -12.2 5.3
-8 9 9 -0.2 6
-1 -8 9 15.7 15.9
-8 9 9 2.6 8
9 -1 9 2.1 10.5
-7 9 9 1.2 5.2
9 -2 9 -17.6 8.5
-2 -7 9 -22.2 9.2
-7 9 9 -7.8 7.5
-3 -6 9 -12.5 11.4
9 -3 9 -10.2 8.8
-6 9 9 -2.5 5.7
-6 9 9 2.6 7
-4 -5 9 18.4 12.8
9 -4 9 -7.9 9.1
-4 -5 9 13.9 10
-5 9 9 0.8 6.6
-9 5 -9 -1 7.9
9 -5 9 4.3 12.2
-5 -4 9 -2.2 7.9
-4 9 9 1.9 6.8
-4 9 9 6.6 8.3
-5 -4 9 -4.9 13
-9 6 -9 0.9 9.5
-3 9 9 7.3 6.5
-6 -3 9 -18.7 7.1
-3 9 9 5.5 7.2
-6 -3 9 -3.8 13.1
9 -6 9 14.8 13.2
-9 7 -9 7.3 12.3
9 -7 9 10.3 11.3
-7 -2 9 -20.7 11.4
-7 -2 9 6.1 6.9
-2 9 9 13.5 7.9
-2 9 9 -7 4.9
-9 8 -9 7.1 12.8
-8 -1 9 22.5 13.8
-1 9 9 2.8 5.4
9 -8 9 -10 12.4
-1 9 9 11.8 7.6
-8 -1 9 -6.2 7.2
-9 9 -9 11.7 12.9
9 -9 9 2.6 11
-9 0 9 10.8 13.3
0 9 9 1.8 6.7
0 9 9 -8.5 6.2
-9 0 9 8.1 8
-9 10 -9 17.7 13.6
9 -10 9 -10.3 11.5
1 9 9 12 6.3
-10 1 9 -2.7 6.9
1 9 9 12.5 7.8
-10 1 9 10.8 15.5
-9 11 -9 12.5 12.5
-11 2 9 8.4 7.5
9 -11 9 8.4 12.1
2 9 9 4 6.1
2 9 9 3.4 7.7
-9 12 -9 6.6 12.5
3 9 9 9.8 6.8
9 -12 9 -9.4 12.2
-12 3 9 -1.2 7.1
3 9 9 -3.4 8.2
9 -13 9 -8.9 15.5
-13 4 9 16.5 9.2
4 9 9 1.1 6.4
4 9 9 -10.1 7.3
-14 5 9 3.9 6.8
5 9 9 -16.2 8.2
5 9 9 5.2 7.4
-9 15 -9 -24.8 13.7
6 9 9 -3.7 6.1
-15 6 9 -4.8 7.8
6 9 9 -2 8.8
9 -15 9 -8.3 12.5
-5 15 -9 11.2 17.2
-15 10 9 -11.3 9.1
5 -15 9 -11.9 13.3
10 5 9 -3.6 6.9
10 5 9 4.2 9.7
-15 10 9 3.1 6.3
-14 10 9 32.7 9.7
10 4 9 14.5 9
10 4 9 49.4 14.7
-14 10 9 18.9 11.1
3 -13 9 -9.2 12.7
-13 10 9 4.6 7.3
-13 10 9 6.8 9.3
10 3 9 -4.9 9.3
10 3 9 12.9 8.1
-12 10 9 18.2 10.4
-12 10 9 23.7 8.5
2 -12 9 28 17.6
10 2 9 17.4 10.9
10 2 9 8.7 9.4
1 -11 9 17.7 13.3
10 1 9 0 7.9
-11 10 9 17.7 8.1
-11 10 9 -8.5 8
10 1 9 33.5 12.4
0 -10 9 35.5 16.9
-10 10 9 22.2 9.1
-10 10 9 19.2 7.4
10 0 9 17.2 11
10 -1 9 5.1 9.5
-9 10 9 -2.3 7
-9 10 9 -3.1 5
-8 10 9 13.3 7.9
-8 10 9 11.4 9
10 -2 9 9.3 10.7
-2 -8 9 29.3 15.6
-3 -7 9 -9.1 13.6
10 -3 9 30.5 12.6
-7 10 9 7.9 6.1
-7 10 9 20.8 7.7
-4 -6 9 55.09 17.2
-6 10 9 48.5 9.2
-6 10 9 58.99 10.4
10 -4 9 49.1 15.7
-10 5 -9 14.2 10.4
10 -5 9 13.3 11.8
-5 10 9 12.7 5.9
-5 10 9 8.3 7.4
-5 -5 9 15.6 13.8
-10 6 -9 58.59 15
-6 -4 9 52.89 18.2
-4 10 9 52.09 11
10 -6 9 38.8 15.8
-4 10 9 43.7 8.9
-3 10 9 6.2 6
-7 -3 9 34.6 14.4
10 -7 9 16.3 12.4
-3 10 9 -3.8 6.5
-10 8 -9 11.2 13.3
-8 -2 9 4 14
-2 10 9 23.8 7.4
-8 -2 9 13.3 10.9
-2 10 9 24.2 9
10 -8 9 43.7 17.4
-10 9 -9 -4.9 12.4
-1 10 9 -5.2 6.8
-9 -1 9 -12.5 6.9
-1 10 9 -6.5 4.4
-9 -1 9 -5.7 11.3
10 -9 9 8.7 13.2
-10 10 -9 13.6 13.6
-10 0 9 -3.5 11.7
0 10 9 18.5 7.2
-10 0 9 18.4 10.6
10 -10 9 -16.5 11.4
0 10 9 16.8 8.8
0 10 9 19.6 6.6
-10 11 -9 -1.1 13.1
1 10 9 2.2 8.6
1 10 9 3.5 5.7
-11 1 9 -12.6 11.2
10 -11 9 9.7 13.5
1 10 9 3.5 6.1
-11 1 9 -15.5 7
-10 12 -9 7.9 13.4
-12 2 9 14.6 10.3
-12 2 9 15.8 12.2
2 10 9 13.5 6.7
10 -12 9 22.2 15.2
2 10 9 42.6 11.5
-13 3 9 0.4 12
3 10 9 -1.9 7.5
3 10 9 -10.3 6
-13 3 9 -8.2 8
-10 14 -9 18.4 21.2
-14 4 9 -6.4 11.6
4 10 9 9.7 6.9
-14 4 9 31.5 14.4
10 -14 9 77.79 24.6
-10 15 -9 1.2 14.5
10 -15 9 0.4 14
5 10 9 5.1 9.8
-15 5 9 -7.1 11.5
5 10 9 -3.3 5.9
-14 11 9 21.5 8.6
3 -14 9 5.2 15.4
-14 11 9 8.3 9.1
11 3 9 -0.8 10.2
11 3 9 4.2 7.5
-13 11 9 -4.3 5.6
11 2 9 20.4 8.8
-13 11 9 4.5 7.9
11 1 9 18.3 10.6
11 1 9 -2.1 7.1
-12 11 9 -9.1 4.7
-12 11 9 10.6 8.5
1 -12 9 -15.3 10.9
11 0 9 -16.5 7.4
11 0 9 14.3 9.1
-11 11 9 -8.1 7.3
-11 11 9 -3 5.6
0 -11 9 -6.4 13.5
-10 11 9 1.8 6.8
11 -1 9 2.6 10.2
-1 -10 9 10.3 14.1
11 -2 9 -6.3 9.8
-9 11 9 -5.1 4.8
-8 11 9 3.1 5
11 -3 9 12 10.1
-3 -8 9 2.5 14.5
-11 4 -9 2.6 8.5
-7 11 9 -6.9 4
11 -4 9 6.8 10.1
-4 -7 9 -9.2 10.8
-11 5 -9 9.3 10.4
-6 11 9 6.5 5.4
-5 -6 9 -7.6 13.7
11 -5 9 -8.7 8.9
-11 6 -9 8.1 14.6
-5 11 9 -1.8 4.5
-6 -5 9 1.1 13
-5 11 9 19.4 7.4
11 -6 9 -9.6 10.7
-11 7 -9 6 14.4
-7 -4 9 -10.9 13.4
-4 11 9 -0.9 4.5
11 -7 9 -13.1 9.5
-4 11 9 8.9 7.1
-11 8 -9 -16.6 10.7
-8 -3 9 -2.7 12.9
11 -8 9 -17.3 10.6
-3 11 9 10.3 7.6
-3 11 9 2.4 4.6
-11 9 -9 6.9 13
-2 11 9 1.1 6.2
11 -9 9 13.2 12.6
-2 11 9 -0.7 4.4
-2 11 9 2.1 4.5
-9 -2 9 13.5 14.2
-11 10 -9 14.8 13.4
-1 11 9 5.8 5.1
-1 11 9 -0.7 7.5
-1 11 9 3.3 5.4
-10 -1 9 9.1 12.5
11 -10 9 20.7 13.9
-11 11 -9 0.4 12.5
0 11 9 3.2 5.9
-11 0 9 8.7 12.2
11 -11 9 -2.8 13.9
0 11 9 -4.6 4.2
0 11 9 2.9 8.4
1 11 9 3 5.1
1 11 9 9.5 8.5
-12 1 9 -9.7 12.2
1 11 9 1.5 5.4
11 -12 9 17.6 14.3
-13 2 9 5.9 12.6
2 11 9 20.2 10.1
2 11 9 -7.4 4.9
-11 14 -9 -3.3 14.4
-14 3 9 -26.5 11.4
3 11 9 11.8 12.2
11 -14 9 -2.8 14.2
3 11 9 6.2 6
12 2 9 -4.9 7.9
-14 12 9 -0.3 8.2
-14 12 9 2.1 6.3
12 2 9 5.8 10.8
2 -14 9 7 15.9
12 1 9 7.9 9.5
-13 12 9 3.6 8.3
12 1 9 10.8 9.2
-13 12 9 2.1 5.8
12 0 9 19.6 10.2
12 0 9 24.1 12.6
0 -12 9 29 17.4
-12 12 9 18 7.1
-11 12 9 7.6 5.5
12 -1 9 9.6 9.4
12 -1 9 -15 8.5
-1 -11 9 -22.7 11.1
12 -2 9 27 12.2
-2 -10 9 37.4 17.8
-10 12 9 8.1 5.8
-3 -9 9 -11.7 13.6
-9 12 9 2.5 5.2
12 -3 9 -10.5 8.5
-12 4 -9 17 10.6
-4 -8 9 21.7 13.6
12 -4 9 33.8 13
-8 12 9 20.8 6.2
-12 5 -9 4.6 11.4
-5 -7 9 25.6 17
12 -5 9 2.3 10.6
-7 12 9 4.1 4.8
-6 12 9 31.8 6.8
-6 -6 9 35.5 17.2
12 -6 9 30.3 14.8
-12 7 -9 7.7 12.4
12 -7 9 14.2 13
-5 12 9 19.3 7.7
-7 -5 9 -6.6 12.9
-5 12 9 8.2 4.5
-12 8 -9 13.7 13
-4 12 9 20.1 5
12 -8 9 22.5 14.6
-4 12 9 4.8 7.4
-8 -4 9 49.6 16.4
-12 9 -9 1.9 12.8
-3 12 9 1.3 3.7
-3 12 9 2.5 7.2
12 -9 9 11.5 12.5
-9 -3 9 -6.9 12.2
-12 10 -9 1.6 13.3
-10 -2 9 29.2 14.6
-2 12 9 19.8 5.1
-2 12 9 30.3 9.5
12 -10 9 -2.1 13
-12 11 -9 12.5 13.1
-1 12 9 3.2 3.8
-1 12 9 9.3 8.4
-11 -1 9 -3.9 11.7
12 -11 9 -8.9 11.5
-12 0 9 8.7 13.3
0 12 9 24.9 10.9
0 12 9 9 4.9
1 12 9 18.7 10.2
12 -13 9 25.3 17.8
1 12 9 8.1 5.1
-13 1 9 13.2 12.8
-12 14 -9 -0.7 15.6
2 12 9 21.8 6.6
2 12 9 14.8 6.4
-14 2 9 15.5 14.3
2 12 9 23.5 10.3
12 -14 9 10.9 16.1
0 -13 9 -27.1 13.9
13 0 9 -9 6.9
13 0 9 -16 7.8
13 -1 9 13 9.6
-12 13 9 14.6 6
13 -1 9 -8.7 9
13 -2 9 5.8 9.5
-2 -11 9 17.3 16.4
-11 13 9 3.5 4.6
13 -2 9 12.9 11.4
-13 3 -9 -3.2 8.9
-10 13 9 -0.4 4.5
13 -3 9 5.9 8.6
13 -3 9 -4 9.8
-3 -10 9 -3 14.8
-13 4 -9 16.3 11.7
-9 13 9 1.9 4.2
-4 -9 9 11 15.3
13 -4 9 -5.3 11.4
-8 13 9 1 3.5
-5 -8 9 -1.2 14.4
13 -5 9 -7.9 9.9
-13 6 -9 -11.8 10.7
13 -6 9 7.8 11
-7 13 9 1.4 3.2
-6 -7 9 -19.1 13.9
-13 7 -9 -6.4 11.9
13 -7 9 1.2 11.5
-7 -6 9 3.9 12.7
-13 8 -9 9.8 13
-8 -5 9 28.1 17.6
13 -8 9 24.9 12.4
-5 13 9 0.9 6
-13 9 -9 -13.5 11.8
13 -9 9 -7.8 11.9
-4 13 9 15.7 8.4
-9 -4 9 -1 13.3
-13 10 -9 -11.6 11.5
-3 13 9 4.9 8
13 -10 9 -3.7 12.2
-10 -3 9 -8.2 13.3
-11 -2 9 -17.4 12.6
-2 13 9 5.1 7.6
-1 13 9 6 8.5
13 -12 9 -16.1 14.2
-12 -1 9 3.3 12.7
-13 13 -9 -8.6 13.4
13 -13 9 -21.3 11.2
0 13 9 9.3 9
-13 0 9 18.4 14.2
14 -2 9 3.2 8.7
14 -2 9 10.4 10.6
-12 14 9 8.2 5.7
-14 3 -9 2.2 11
-11 14 9 2.4 4.7
14 -3 9 -5.6 9.6
-3 -11 9 15.5 18.3
14 -3 9 -4.9 8.8
14 -4 9 21.5 10.5
14 -4 9 43.8 14.3
-4 -10 9 1.7 15.7
-10 14 9 22.3 5.5
-14 5 -9 -7.3 13.1
-5 -9 9 47.3 17.6
14 -5 9 -14.9 9.9
-14 6 -9 32.6 15.7
14 -6 9 54.69 17.6
-6 -8 9 36.5 17.3
-14 7 -9 25 15.1
-7 -7 9 13.5 16.2
14 -7 9 8.9 13.7
-14 8 -9 22.2 14.2
-8 -6 9 35.7 19.1
14 -8 9 46.3 15.2
-14 9 -9 0.9 12.1
-5 14 9 18 6.8
-9 -5 9 16 14.9
-10 -4 9 4.9 15.5
-4 14 9 42.1 11.3
14 -11 9 1.4 14.8
-3 14 9 8.5 7.7
-11 -3 9 -8.6 12.7
14 -12 9 24 15.8
-12 -2 9 28.4 16.6
-15 5 -9 31.7 14.7
15 -5 9 10.6 10
-15 6 -9 -0.2 13.6
-6 -9 9 13.2 16.4
-15 7 -9 -1.7 13
-7 -8 9 -16.6 13.5
-15 8 -9 1.6 12.7
-8 -7 9 2 16.3
-15 9 -9 25.7 17.7
-9 -6 9 -18 13.2
15 -9 9 5 13.7
-10 -5 9 26.7 15.7
15 -10 9 -1.9 10.1
0 0 10 112.49 21
0 0 10 92.39 17.1
-1 1 10 39.5 10.9
1 0 10 16.2 9.6
1 0 10 14.6 12.3
0 -1 10 -7.3 11.9
0 -1 10 9.4 9.1
0 1 10 18.9 10.1
1 -1 10 -2.6 11.9
-1 0 10 -10.4 7.7
1 -1 10 31.3 11.8
0 1 10 22.7 16
-1 0 10 9.5 12.3
1 -2 10 28.2 14.6
1 1 10 16.1 8.9
1 -2 10 17 10.2
1 1 10 25.1 12.5
-3 2 10 -2.2 7.2
-3 2 10 1.8 11.5
2 1 10 15.8 9.7
1 -3 10 0.1 12.3
0 -2 10 76.39 18.9
-2 2 10 56.39 17.8
-2 2 10 49 15.2
2 0 10 37.1 14.8
0 -2 10 62.79 18.9
2 -1 10 39.1 14.9
-1 2 10 28.3 12.2
-1 2 10 9.2 16.2
-1 -1 10 7.7 9.1
-1 -1 10 13.7 14.8
-2 0 10 60.59 17.5
2 -2 10 41.6 14.6
-2 0 10 27.5 12.6
-3 1 10 16.3 8.1
2 -3 10 3.1 12.7
-4 2 10 35.2 10.9
2 -4 10 46.7 18.5
2 2 10 60.69 14.7
-4 2 10 27.6 15.1
-5 3 10 -4 6.6
3 2 10 -0.8 9.9
2 -5 10 6.3 13.5
-5 3 10 22.3 12
-4 3 10 -15.8 13.4
1 -4 10 0.1 13.4
3 1 10 16.3 12.2
-4 3 10 21 13.1
-3 3 10 14.9 11.7
0 -3 10 -13.3 12.8
3 0 10 -3.7 10.3
-3 3 10 13.5 10
-2 3 10 -1 8.4
3 -1 10 4.2 10.8
-1 -2 10 5.3 10.2
-1 -2 10 0.4 11.5
-2 3 10 2.4 9.5
-2 -1 10 -1.2 10.3
3 -2 10 -26.5 11.2
-1 3 10 -16.9 9
-2 -1 10 -1.8 12.9
-1 3 10 7.4 8.1
-3 0 10 3.7 11.2
0 3 10 2.3 10.6
3 -3 10 -6.3 11.7
0 3 10 13.8 10.1
-3 0 10 2.6 8.5
1 3 10 20.3 9.6
3 -4 10 12 13
-4 1 10 7 8.5
2 3 10 -1.4 12.4
-5 2 10 14.3 9.6
-5 2 10 -13.5 12.7
3 -5 10 -3.7 13.6
3 -6 10 5.4 13.4
-6 3 10 8.7 8.7
3 3 10 -2.6 9.6
-6 3 10 11.6 12.6
-7 4 10 5.1 7.4
-7 4 10 0.2 10.9
3 -7 10 -8.8 16
4 3 10 -18.6 9.3
4 2 10 44.3 14.2
2 -6 10 82.29 19.9
-6 4 10 18.8 13.6
-5 4 10 5.1 11
4 1 10 1.2 9.2
1 -5 10 3.7 13.7
-5 4 10 3.4 7.7
-4 4 10 68.59 15.7
0 -4 10 25.1 15.9
-4 4 10 46.5 11.2
4 0 10 25.4 14.3
4 -1 10 24.9 13.1
-1 -3 10 4.3 13.9
-3 4 10 0.2 9.9
-3 4 10 22.3 9.4
-2 4 10 37.9 13.1
-2 -2 10 40.2 16.6
-2 4 10 18.3 9.7
4 -2 10 39 15.7
4 -3 10 13.5 13.1
-1 4 10 -0.8 8.6
-1 4 10 7.7 10.5
-3 -1 10 7.6 15.2
-3 -1 10 8.1 9.7
-4 0 10 34 12.7
0 4 10 77.99 15.7
4 -4 10 73.09 18
0 4 10 19.3 11.6
-4 0 10 52.69 16.1
4 -5 10 -2.3 12.5
1 4 10 -1.5 7.9
1 4 10 3.1 9.4
-5 1 10 -15.5 12.4
-5 1 10 12.3 8
4 -6 10 39 16.7
-6 2 10 13.2 10.4
-7 3 10 -3.8 8.1
3 4 10 -15.5 8.3
4 -7 10 -12.2 14
-7 3 10 -12.3 10.8
-8 4 10 33.7 14.8
-8 4 10 25.7 11.4
4 -8 10 31.6 19.2
4 4 10 27.1 12.1
-9 5 10 4.6 7
-9 5 10 8.9 12
5 4 10 12.6 10.1
4 -9 10 -4.1 14.8
-8 5 10 -19.7 9.6
5 3 10 8.6 10.8
-8 5 10 1.2 12
3 -8 10 26.6 16.1
-7 5 10 11.2 11.3
2 -7 10 -23.6 11.4
-7 5 10 -4.3 6.2
5 2 10 4.2 9.1
1 -6 10 21.4 16.5
-6 5 10 16.2 12.4
5 1 10 12.5 11.6
-6 5 10 12.2 8.3
-5 5 10 8.3 8.2
5 0 10 9.6 11.5
-5 5 10 -8.9 10.4
0 -5 10 -3.6 15
-1 -4 10 6.5 14.6
5 -1 10 17.8 12.7
-4 5 10 -13.2 6.8
5 -2 10 16.5 12.6
-3 5 10 -8.8 7.3
-3 5 10 -1 10.2
-2 -3 10 -9.6 13
-3 -2 10 -19.1 11
-2 5 10 -3.1 7.2
-2 5 10 2.6 9.5
5 -3 10 24.8 14.8
-1 5 10 -11.9 8.5
5 -4 10 0.6 12.1
-4 -1 10 -1.6 13.5
-1 5 10 10 8.9
0 5 10 7.6 8.7
-5 0 10 -19.7 10
0 5 10 4.8 9.7
5 -5 10 20.8 16.5
-5 0 10 -3.1 11.1
-6 1 10 -1.4 8.3
-6 1 10 21.7 13.6
1 5 10 11.9 10.8
1 5 10 4.9 8.7
5 -6 10 -8.4 11.4
5 -7 10 -1.5 12.7
-7 2 10 4 7.6
3 5 10 -11.9 9
5 -8 10 -11.3 13.9
-8 3 10 -5.6 7.7
5 -9 10 -9.3 13.7
-9 4 10 12.8 12.1
-9 4 10 -0.4 7.1
4 5 10 -1.9 8.1
6 2 10 25.8 12.6
2 -8 10 20.2 16.5
-8 6 10 26.5 9.5
-8 6 10 23.1 12
1 -7 10 -7 12.4
6 1 10 -8.5 8.5
-7 6 10 3.7 10
-7 6 10 8.1 8.6
0 -6 10 1.3 13.7
6 0 10 35.1 13.9
-6 6 10 33.9 12.2
-6 6 10 11.1 8.4
-5 6 10 12.6 9.9
-5 6 10 4.9 7.6
-1 -5 10 12.2 15.7
6 -1 10 23.7 13.4
6 -2 10 -1.7 13.7
-4 6 10 28 10.1
-4 6 10 43.2 12.5
-2 -4 10 35.4 17.4
-3 6 10 9.9 8.4
-3 -3 10 20.6 14.9
6 -3 10 20.9 12.7
-3 6 10 15.5 10.5
-4 -2 10 29.3 17.7
-2 6 10 27.2 9.4
6 -4 10 3.3 13.8
-2 6 10 50.19 12.6
-5 -1 10 22.3 14.9
-1 6 10 -8.4 9.7
6 -5 10 7.3 13.8
-1 6 10 7.6 8
0 6 10 45.4 12.8
0 6 10 10.4 8.4
6 -6 10 7.9 13.9
-6 0 10 16.7 14.5
1 6 10 -0.3 7.4
1 6 10 -4.7 8.7
-7 1 10 21.1 13.9
6 -7 10 -4.4 13.4
6 -8 10 0.5 13
-8 2 10 11.9 14.6
-8 2 10 20.2 12.8
7 1 10 21.3 10.7
1 -8 10 -1.2 12.1
-8 7 10 -10.6 9.5
-8 7 10 0.8 6
7 0 10 -10.4 9.9
0 -7 10 -2.9 13.1
-7 7 10 9.3 10.1
-7 7 10 10.3 7.9
7 -1 10 14.3 12
-6 7 10 17.8 10.4
-6 7 10 10.8 6.8
-1 -6 10 -11.1 13.6
-2 -5 10 -10.2 11.6
-5 7 10 -8.5 6.4
-5 7 10 4.9 8.9
7 -2 10 9.9 11.5
-3 -4 10 0.9 14.5
-4 7 10 -9.6 6.7
-4 7 10 -4.1 9.1
7 -3 10 8.7 14.3
-3 7 10 -9 6.5
-3 7 10 1.1 8.4
-4 -3 10 -8.1 13.4
7 -4 10 -7.4 11.8
-2 7 10 -6.5 6.2
7 -5 10 15.2 13.5
-2 7 10 32.5 10.4
-5 -2 10 5.7 13.3
-1 7 10 13.5 9.3
7 -6 10 -17.5 12
-6 -1 10 6.1 13.1
-1 7 10 -5.7 6.1
7 -7 10 2.4 12.8
0 7 10 2.7 9.2
0 7 10 -2.9 7
-7 0 10 -2.2 12.5
1 7 10 -2.8 7.3
7 -8 10 11.9 14.6
-8 1 10 9.1 13.6
1 7 10 11.8 10.3
-7 8 10 -0.5 6
8 -1 10 12.3 11.2
-1 -7 10 19.2 14
-7 8 10 0.7 8.7
-6 8 10 13.1 9.7
-2 -6 10 20.1 16.7
-6 8 10 19.9 8.8
8 -2 10 16.8 13.3
8 -3 10 4.7 13.2
-5 8 10 -6.6 8.6
-3 -5 10 -4.5 13
-5 8 10 2.5 6.6
-4 8 10 8.7 7.4
-4 8 10 35.9 10.8
8 -4 10 45.4 16.5
-4 -4 10 38 16.4
-3 8 10 -1.4 6.9
8 -5 10 -1.3 12.1
-3 8 10 4.7 8.9
-5 -3 10 -32.1 11.7
-2 8 10 13 8.5
8 -6 10 46.3 19.6
-6 -2 10 38.2 17.9
-2 8 10 27.1 10.5
8 -7 10 25.7 14.6
-7 -1 10 -10.5 13
-1 8 10 -4 8.3
-1 8 10 -2.9 6.6
9 -4 10 2 12.6
-5 9 10 23.7 9.3
-5 9 10 12 6.9
-4 -5 10 -3.8 15.9
-4 9 10 7.6 8.5
-4 9 10 -0.8 6.4
9 -5 10 7.6 14.6
-5 -4 10 5.9 14.2
loop_
_smtbx_masks_void_nr
_smtbx_masks_void_average_x
_smtbx_masks_void_average_y
_smtbx_masks_void_average_z
_smtbx_masks_void_volume
_smtbx_masks_void_count_electrons
_smtbx_masks_void_content
1 -0.340 -0.555 -0.712 2379.5 451.3 ?
