#------------------------------------------------------------------------------
#$Date: 2022-11-10 00:56:58 +0200 (Thu, 10 Nov 2022) $
#$Revision: 279158 $
#$URL: file:///home/coder/svn-repositories/cod/cif/7/13/09/7130973.cif $
#------------------------------------------------------------------------------
#
# This file is available in the Crystallography Open Database (COD),
# http://www.crystallography.net/
#
# All data on this site have been placed in the public domain by the
# contributors.
#
data_7130973
loop_
_publ_author_name
'Feng, Xuan'
'Li, Wenying'
'Yang, Lei'
'Song, Ting'
'Xia, Zhaoming'
'Lai, Qiuxue'
'Zhou, Xuemei'
'Hai, Xiao'
'Liu, Chong'
_publ_section_title
;
 Ce-Hydroxamate Metal-Organic Frameworks for Photocatalytic H2 Generation
;
_journal_name_full               'Chemical Communications'
_journal_paper_doi               10.1039/D2CC05189C
_journal_year                    2022
_chemical_formula_moiety         'C14 H20 Ce N5 O9'
_chemical_formula_sum            'C14 H20 Ce N5 O9'
_chemical_formula_weight         542.47
_space_group_crystal_system      monoclinic
_space_group_IT_number           15
_space_group_name_Hall           '-C 2yc'
_space_group_name_H-M_alt        'C 1 2/c 1'
_atom_sites_solution_hydrogens   geom
_atom_sites_solution_primary     dual
_audit_creation_date             2022-03-18
_audit_creation_method
;
Olex2 1.3
(compiled 2020.11.12 svn.r5f609507 for OlexSys, GUI svn.r6272)
;
_audit_update_record
;
2022-03-18 deposited with the CCDC.	2022-11-09 downloaded from the CCDC.
;
_cell_angle_alpha                90
_cell_angle_beta                 124.703(2)
_cell_angle_gamma                90
_cell_formula_units_Z            4
_cell_length_a                   13.9892(7)
_cell_length_b                   20.1086(9)
_cell_length_c                   8.5463(4)
_cell_measurement_reflns_used    5738
_cell_measurement_temperature    304(2)
_cell_measurement_theta_max      27.43
_cell_measurement_theta_min      3.52
_cell_volume                     1976.45(17)
_computing_cell_refinement       'SAINT V8.40B (?, 2016)'
_computing_data_reduction        'SAINT V8.40B (?, 2016)'
_computing_molecular_graphics    'Olex2 1.3 (Dolomanov et al., 2009)'
_computing_publication_material  'Olex2 1.3 (Dolomanov et al., 2009)'
_computing_structure_refinement  'SHELXL 2018/3 (Sheldrick, 2015)'
_computing_structure_solution    'SHELXT 2018/2 (Sheldrick, 2018)'
_diffrn_ambient_temperature      304.0
_diffrn_measured_fraction_theta_full 1.000
_diffrn_measured_fraction_theta_max 1.000
_diffrn_measurement_device_type  'Bruker APEX-II CCD'
_diffrn_measurement_method       '\f and \w scans'
_diffrn_radiation_type           MoK\a
_diffrn_radiation_wavelength     0.71073
_diffrn_reflns_av_R_equivalents  0.0708
_diffrn_reflns_av_unetI/netI     0.0412
_diffrn_reflns_Laue_measured_fraction_full 1.000
_diffrn_reflns_Laue_measured_fraction_max 1.000
_diffrn_reflns_limit_h_max       18
_diffrn_reflns_limit_h_min       -18
_diffrn_reflns_limit_k_max       26
_diffrn_reflns_limit_k_min       -26
_diffrn_reflns_limit_l_max       11
_diffrn_reflns_limit_l_min       -10
_diffrn_reflns_number            15794
_diffrn_reflns_point_group_measured_fraction_full 1.000
_diffrn_reflns_point_group_measured_fraction_max 1.000
_diffrn_reflns_theta_full        25.242
_diffrn_reflns_theta_max         27.495
_diffrn_reflns_theta_min         2.026
_diffrn_source_current           1.4
_diffrn_source_power             0.07
_diffrn_source_voltage           50.0
_diffrn_standards_number         0
_exptl_absorpt_coefficient_mu    2.361
_exptl_absorpt_correction_T_max  0.7456
_exptl_absorpt_correction_T_min  0.6536
_exptl_absorpt_correction_type   multi-scan
_exptl_absorpt_process_details
;
SADABS-2016/2 (Bruker,2016/2) was used for absorption correction.
wR2(int) was 0.0728 before and 0.0622 after correction.
The Ratio of minimum to maximum transmission is 0.8766.
The \l/2 correction factor is Not present.
;
_exptl_crystal_colour            yellow
_exptl_crystal_colour_primary    yellow
_exptl_crystal_density_diffrn    1.823
_exptl_crystal_description       block
_exptl_crystal_F_000             1076
_exptl_crystal_size_max          0.1
_exptl_crystal_size_mid          0.07
_exptl_crystal_size_min          0.06
_refine_diff_density_max         1.406
_refine_diff_density_min         -1.014
_refine_diff_density_rms         0.155
_refine_ls_extinction_method     none
_refine_ls_goodness_of_fit_ref   1.107
_refine_ls_hydrogen_treatment    constr
_refine_ls_matrix_type           full
_refine_ls_number_parameters     153
_refine_ls_number_reflns         2267
_refine_ls_number_restraints     27
_refine_ls_restrained_S_all      1.167
_refine_ls_R_factor_all          0.0518
_refine_ls_R_factor_gt           0.0418
_refine_ls_shift/su_max          0.001
_refine_ls_shift/su_mean         0.000
_refine_ls_structure_factor_coef Fsqd
_refine_ls_weighting_details
'w=1/[\s^2^(Fo^2^)+(0.0650P)^2^+6.2932P] where P=(Fo^2^+2Fc^2^)/3'
_refine_ls_weighting_scheme      calc
_refine_ls_wR_factor_gt          0.1088
_refine_ls_wR_factor_ref         0.1137
_reflns_Friedel_coverage         0.000
_reflns_number_gt                1966
_reflns_number_total             2267
_reflns_threshold_expression     'I > 2\s(I)'
_cod_data_source_file            d2cc05189c2.cif
_cod_data_source_block           SUM-6
_cod_original_cell_volume        1976.44(17)
_cod_database_code               7130973
_shelx_shelxl_version_number     2018/3
_shelx_space_group_comment
;
The symmetry employed for this shelxl refinement is uniquely defined
by the following loop, which should always be used as a source of
symmetry information in preference to the above space-group names.
They are only intended as comments.
;
_shelx_estimated_absorpt_t_max   0.871
_shelx_estimated_absorpt_t_min   0.798
_olex2_refinement_description
;
1. Fixed Uiso
 At 1.2 times of:
  All C(H) groups, All N(H) groups
 At 1.5 times of:
  All C(H,H,H) groups
2. Uiso/Uaniso restraints and constraints
Ce1 \\sim O3: within 3A with sigma of 0.01 and sigma for terminal atoms of
0.015 within 3A
N3 \\sim C6 \\sim C7: within 3A with sigma of 0.01 and sigma for terminal atoms
of 0.015 within 3A
3. Rigid body (RIGU) restrains
 N3, C7
 with sigma for 1-2 distances of 0.004 and sigma for 1-3 distances of 0.004
4. Others
 Sof(O6)=1-FVAR(1)
 Sof(O5)=FVAR(1)
 Sof(C5B)=Sof(H5B)=1-FVAR(2)
 Sof(C5A)=Sof(H5A)=FVAR(2)
5.a Aromatic/amide H refined with riding coordinates:
 N1(H1), C1(H1A), C2(H2), C5A(H5A), C5B(H5B)
5.b Idealised Me refined with riding coordinates:
 C6(H6A,H6B,H6C), C7(H7A,H7B,H7C)
;
_smtbx_masks_void_probe_radius   1.2
_smtbx_masks_void_truncation_radius 1.2
_shelx_res_file
;
TITL mo_LC_FX_027805_0m_a.res in C2/c
    mo_lc_fx_027805_0m_a.res
    created by SHELXL-2018/3 at 13:39:40 on 18-Mar-2022
CELL 0.71073 13.9892 20.1086 8.5463 90 124.703 90
ZERR 4 0.0007 0.0009 0.0004 0 0.002 0
LATT 7
SYMM -X,+Y,0.5-Z
SFAC C H Ce N O
UNIT 56 80 4 20 36
SIMU 0.01 0.015 3 Ce1 O3
SIMU 0.01 0.015 3 N3 C6 C7
RIGU N3 C7

L.S. 16
PLAN  20 0 0
SIZE 0.06 0.07 0.1
TEMP 30.85
CONF
FREE C5A C6
FREE H5A C6
HTAB
BOND $H
MORE -1
fmap 2
ACTA
REM <olex2.extras>
REM <HklSrc "%.\\mo_LC_FX_027805_0m_a.hkl">
REM </olex2.extras>

WGHT    0.065000    6.293200
FVAR       0.31319   0.42253   0.47456
CE1   3    0.500000    0.513429    0.250000    10.50000    0.04647    0.01693 =
         0.02031    0.00000    0.01960    0.00000
O1    5    0.700929    0.559186    0.392786    11.00000    0.07309    0.11215 =
         0.08484   -0.01597    0.05526   -0.03110
O2    5    0.570578    0.549579    0.575665    11.00000    0.06697    0.02289 =
         0.03085   -0.01095    0.03058   -0.01648
N1    4    0.622259    0.609013    0.655483    11.00000    0.07226    0.03095 =
         0.03018   -0.01244    0.03060   -0.02409
AFIX  43
H1    2    0.637445    0.636732    0.595778    11.00000   -1.20000
AFIX   0
O4    5    0.628072    0.583020    0.915445    11.00000    0.09247    0.03800 =
         0.03194   -0.01353    0.03465   -0.02911
O3    5    0.500000    0.644194    0.250000    10.50000    0.15870    0.03952 =
         0.05523    0.00000    0.03892    0.00000
C3    1    0.648407    0.623036    0.825986    11.00000    0.07162    0.03184 =
         0.03365   -0.01007    0.03036   -0.01798
C4    1    0.702092    0.689261    0.911467    11.00000    0.07823    0.03351 =
         0.03393   -0.01417    0.03256   -0.02386
C1    1    0.818377    0.784609    0.957591    11.00000    0.09117    0.04678 =
         0.05158   -0.02247    0.04985   -0.03389
AFIX  43
H1A   2    0.865084    0.807642    0.930734    11.00000   -1.20000
AFIX   0
C2    1    0.769084    0.724736    0.868919    11.00000    0.10222    0.04171 =
         0.04928   -0.02693    0.05398   -0.03500
AFIX  43
H2    2    0.781069    0.708143    0.779803    11.00000   -1.20000
AFIX   0
N2    4    0.500000    0.699794    0.250000    10.50000    0.21174    0.02997 =
         0.06461    0.00000    0.08685    0.00000
N3    4    0.857620    0.587153    0.402786    11.00000    0.07963    0.12084 =
         0.14065   -0.00399    0.07592   -0.02058
C6    1    0.860738    0.525916    0.303604    11.00000    0.14086    0.19152 =
         0.18511   -0.00193    0.04539   -0.00164
PART 2
AFIX 133
H6A   2    0.929078    0.526954    0.302838    11.00000   -1.50000
H6B   2    0.792815    0.524925    0.175054    11.00000   -1.50000
H6C   2    0.862303    0.486925    0.369847    11.00000   -1.50000
AFIX   0
PART 0
C7    1    0.937229    0.625908    0.395386    11.00000    0.11636    0.20189 =
         0.18800    0.03026    0.07616   -0.03624
AFIX 133
H7A   2    1.012686    0.605621    0.471050    11.00000   -1.50000
H7B   2    0.940476    0.669482    0.444101    11.00000   -1.50000
H7C   2    0.913511    0.629390    0.265896    11.00000   -1.50000
AFIX   0
PART 1
O5    5    0.482581    0.735740    0.120877    21.00000    0.20083    0.07748 =
         0.08677    0.04513    0.08527    0.01956
PART 2
O6    5    0.394048    0.718309    0.095512   -21.00000    0.19005    0.09991 =
         0.07116    0.04140    0.06581    0.07035
PART 1
C5A   1    0.760066    0.550761    0.338161    31.00000    0.05253    0.06726 =
         0.03666   -0.00065    0.02404   -0.01268
AFIX  43
H5A   2    0.739523    0.518005    0.247344    31.00000   -1.20000
AFIX   0
PART 2
C5B   1    0.776394    0.603448    0.417491   -31.00000    0.08721    0.09403 =
         0.09140   -0.00289    0.05900   -0.01878
AFIX  43
H5B   2    0.770098    0.647172    0.446056   -31.00000   -1.20000
AFIX   0
HKLF 4




REM  mo_LC_FX_027805_0m_a.res in C2/c
REM wR2 = 0.1137, GooF = S = 1.107, Restrained GooF = 1.167 for all data
REM R1 = 0.0418 for 1966 Fo > 4sig(Fo) and 0.0518 for all 2267 data
REM 153 parameters refined using 27 restraints

END

WGHT      0.0649      6.3273

REM Instructions for potential hydrogen bonds
HTAB N1 O3
EQIV $2 -x+1, y, -z+1/2
HTAB N1 O5_$2
HTAB N1 O6_$2
EQIV $3 x, -y+1, z-1/2
HTAB C6 O1_$3
EQIV $5 x, y, z-1
HTAB C6 O4_$5
EQIV $6 x+1/2, -y+3/2, z+1/2
HTAB C7 O5_$6
HTAB C5A O2_$3
HTAB C5B O6_$2

REM Highest difference peak  1.406,  deepest hole -1.014,  1-sigma level  0.155
Q1    1   0.9090  0.6214  0.5999  11.00000  0.05    1.41
Q2    1   0.9278  0.5707  0.3278  11.00000  0.05    1.18
Q3    1   0.6005  0.5179  0.2862  11.00000  0.05    1.12
Q4    1   0.5639  0.6472  0.2976  11.00000  0.05    0.88
Q5    1   0.9780  0.6268  0.6038  11.00000  0.05    0.44
Q6    1   0.9679  0.4485  0.2827  11.00000  0.05    0.39
Q7    1   1.0737  0.5893  0.6953  11.00000  0.05    0.38
Q8    1   0.6573  0.5405  0.2464  11.00000  0.05    0.38
Q9    1   0.6873  0.6550  0.8794  11.00000  0.05    0.36
Q10   1   1.0111  0.5419  0.4210  11.00000  0.05    0.35
Q11   1   1.0113  0.5825  0.3668  11.00000  0.05    0.35
Q12   1   0.7700  0.5928  0.8226  11.00000  0.05    0.34
Q13   1   0.9389  0.5557  0.1404  11.00000  0.05    0.33
Q14   1   1.1127  0.6526  0.5761  11.00000  0.05    0.32
Q15   1   0.8939  0.6934  1.0345  11.00000  0.05    0.32
Q16   1   0.4323  0.7474  0.2155  11.00000  0.05    0.32
Q17   1   0.6776  0.5065  0.3177  11.00000  0.05    0.31
Q18   1   0.7494  0.6736  1.0033  11.00000  0.05    0.30
Q19   1   0.7743  0.6906  0.5107  11.00000  0.05    0.30
Q20   1   0.9613  0.5572  0.4573  11.00000  0.05    0.30
;
_shelx_res_checksum              7449
_shelx_hkl_file
;
   2   0   0 2026.60   71.19
  -2   0   0 2099.99   73.99
  -2   0   0 1997.60   68.49
  -4   0   0  948.61   40.50
  -4   0   0 1007.80   45.50
  -4   0   0  953.90   40.50
  -4   0   0  965.50   33.90
  -6   0   0 1675.63   74.09
  -6   0   0 1550.44   64.89
  -6   0   0 1637.24   65.99
  -6   0   0 1600.64   57.09
  -8   0   0 1014.80   42.70
  -8   0   0 1036.60   50.39
  -8   0   0 1079.29   52.69
  -8   0   0 1010.40   61.49
 -10   0   0  356.06   38.00
 -10   0   0  397.16   24.80
 -10   0   0  391.26   30.60
 -10   0   0  369.06   29.90
 -12   0   0  120.39   15.80
 -12   0   0  124.59   16.50
 -12   0   0  141.79   32.20
 -12   0   0  179.58   19.90
 -14   0   0  156.88   23.10
   1  -1   0 6643.64  243.08
  -1   1   0 8656.33  238.58
  -3  -1   0 1927.71   70.29
  -3  -1   0 1846.42   62.69
   3  -1   0 1895.21   64.49
  -3  -1   0 1821.62   69.69
   3   1   0 1903.01   70.09
  -3   1   0 1883.91   64.19
  -3   1   0 1870.71   70.99
  -5  -1   0 2175.38   86.69
  -5  -1   0 2167.88   76.49
  -5  -1   0 2214.28   89.09
  -5  -1   0 2243.78   86.59
  -5   1   0 2313.57   90.69
  -5   1   0 2269.17   80.39
  -5   1   0 2196.28   79.79
  -5   1   0 2324.57   72.69
  -7  -1   0 1039.50   43.60
  -7  -1   0 1034.30   52.29
  -7  -1   0 1047.30   57.79
  -7  -1   0 1092.89   53.89
  -7   1   0 1077.79   47.70
  -7   1   0 1030.90   40.10
  -7   1   0  992.00   56.99
  -7   1   0 1175.68   48.10
  -9  -1   0  701.83   34.00
  -9  -1   0  561.94   45.40
  -9  -1   0  621.84   41.70
  -9  -1   0  714.23   42.40
  -9   1   0  570.24   47.10
  -9   1   0  597.14   34.80
  -9   1   0  662.03   30.70
  -9   1   0  657.63   35.10
 -11  -1   0  312.17   32.60
 -11  -1   0  343.87   25.50
 -11  -1   0  327.67   39.90
 -11  -1   0  276.67   31.50
 -11   1   0  315.47   20.10
 -11   1   0  315.37   56.39
 -11   1   0  282.97   19.00
 -13  -1   0   89.49   25.80
 -13  -1   0   92.09   33.10
 -13  -1   0  112.29   19.80
 -13  -1   0   81.09   16.10
 -13   1   0   94.59   16.00
   0  -2   0 4023.60  158.88
   0   2   0 5458.75  158.28
   2  -2   0 3838.82  126.59
  -2  -2   0 3902.91  126.69
  -2  -2   0 3993.80  134.49
   2   2   0 4010.30  128.89
  -2   2   0 3793.02  126.89
   2   2   0 3886.81  125.99
   2   2   0 4056.89  134.59
   4  -2   0 1075.39   39.80
  -4  -2   0 1023.20   48.30
  -4  -2   0  992.80   46.00
  -4  -2   0  970.00   39.20
   4   2   0 1009.70   46.10
  -4   2   0 1052.09   39.70
  -4   2   0  975.50   47.00
  -6  -2   0 1166.48   46.20
  -6  -2   0 1091.59   56.19
  -6  -2   0 1132.09   55.69
  -6  -2   0 1122.39   56.59
  -6   2   0 1114.49   45.40
  -6   2   0 1128.39   57.99
  -6   2   0 1211.58   46.40
  -6   2   0 1090.29   39.10
  -8  -2   0  862.81   40.60
  -8  -2   0  937.21   52.89
  -8  -2   0  796.22   49.40
  -8   2   0  842.02   54.49
  -8   2   0  872.91   40.50
  -8   2   0  891.01   39.20
  -8   2   0  856.31   34.70
 -10  -2   0  301.67   36.60
 -10  -2   0  328.37   24.60
 -10  -2   0  273.77   33.20
 -10  -2   0  346.47   36.30
 -10   2   0  322.97   20.40
 -10   2   0  330.77   36.90
 -12  -2   0  192.48   30.20
 -12  -2   0  170.58   44.10
 -12  -2   0  141.49   27.30
 -12  -2   0  159.48   22.50
 -12   2   0  191.88   19.10
 -12   2   0  110.99   32.40
 -14  -2   0  124.79   22.20
 -14   2   0  143.99   20.30
  -1  -3   0 2155.38   72.19
   1  -3   0 2068.69   68.79
  -1  -3   0 2124.99   80.09
   1  -3   0 2204.38   69.49
  -1   3   0 2067.59   69.69
  -1   3   0 2152.88   76.49
   1   3   0 2053.39   79.49
  -1   3   0 2025.00   69.19
  -3  -3   0 4558.44  156.18
  -3  -3   0 4489.15  146.89
  -3  -3   0 4385.46  143.99
   3  -3   0 4534.55  144.19
  -3   3   0 4175.18  136.39
  -3   3   0 4164.98  136.59
   3   3   0 4412.16  142.59
  -3   3   0 4303.07  143.99
   3   3   0 4437.66  146.89
   3   3   0 4337.37  154.28
  -5  -3   0 1444.26   62.59
  -5  -3   0 1387.36   54.99
  -5  -3   0 1458.05   67.69
   5  -3   0 1401.56   53.09
  -5   3   0 1435.06   46.10
  -5   3   0 1448.16   53.59
   5   3   0 1351.66   61.59
  -5   3   0 1368.16   45.80
  -5   3   0 1435.16   64.69
  -7  -3   0  464.35   34.90
  -7  -3   0  500.35   38.00
  -7  -3   0  499.95   37.30
  -7  -3   0  453.65   27.00
  -7   3   0  448.26   19.60
  -7   3   0  467.05   23.80
  -7   3   0  443.46   24.00
  -7   3   0  493.05   37.10
  -9  -3   0  449.95   40.90
  -9  -3   0  445.56   40.50
  -9  -3   0  507.85   42.70
  -9  -3   0  511.85   31.40
  -9   3   0  548.35   25.10
  -9   3   0  549.05   44.90
 -11  -3   0  313.17   38.30
 -11  -3   0  277.67   26.00
 -11  -3   0  335.67   38.40
 -11  -3   0  273.47   37.90
 -11   3   0  305.67   20.60
 -13  -3   0   79.39   28.40
 -13  -3   0   97.89   29.80
 -13  -3   0  188.48   25.80
 -13   3   0  174.58   20.40
   0  -4   0 1774.62   59.89
   0  -4   0 1640.94   58.79
   0  -4   0 1665.03   68.39
   0   4   0 1732.83   59.99
   0   4   0 1610.74   67.79
   0   4   0 1609.34   58.69
   2  -4   0 2073.29   66.49
  -2  -4   0 1964.20   72.39
   2  -4   0 1967.30   65.99
   2  -4   0 2109.29   76.89
  -2   4   0 2072.29   67.99
  -2   4   0 2083.39   68.69
   2   4   0 1906.11   71.79
   2   4   0 1991.60   70.59
  -2   4   0 2104.99   77.19
   2   4   0 2050.59   83.39
  -4  -4   0 5331.07  191.68
  -4  -4   0 5411.56  176.68
  -4  -4   0 5142.99  179.18
   4  -4   0 5459.35  175.58
  -4   4   0 5285.07  177.08
   4   4   0 5334.57  190.18
   4   4   0 5466.35  180.48
  -4   4   0 5440.66  167.58
  -4   4   0 5316.27  167.08
   4   4   0 4983.90  173.08
  -6  -4   0  974.40   58.79
  -6  -4   0 1083.29   47.30
  -6  -4   0 1042.40   53.49
   6  -4   0 1091.69   43.90
  -6   4   0 1086.29   44.30
  -6   4   0 1065.49   37.40
   6   4   0 1053.39   53.89
  -6   4   0 1071.69   56.39
  -8  -4   0  423.06   38.90
  -8  -4   0  374.56   38.20
  -8  -4   0  497.95   54.69
  -8  -4   0  443.36   29.10
  -8   4   0  448.66   22.50
  -8   4   0  434.56   20.30
  -8   4   0  433.96   38.40
  -8   4   0  422.16   21.30
 -10  -4   0  385.76   40.10
 -10  -4   0  414.86   44.90
 -10  -4   0  432.26   31.10
 -10  -4   0  378.36   43.40
 -10   4   0  465.05   23.80
 -10   4   0  497.45   57.79
 -12  -4   0  273.57   27.80
 -12  -4   0  141.99   35.00
 -12  -4   0  245.88   42.70
 -14  -4   0   49.50   35.50
 -14  -4   0   55.59   20.00
 -14   4   0   48.20   15.80
   1  -5   0 4229.58  140.69
   1  -5   0 4484.55  142.09
  -1  -5   0 4105.69  142.99
  -1  -5   0 4358.86  157.78
  -1  -5   0 4441.26  144.79
  -1   5   0 4125.69  152.68
   1   5   0 4422.46  157.98
  -1   5   0 4160.58  141.29
   1   5   0 4551.84  144.99
  -1   5   0 4437.06  142.79
  -3  -5   0 3495.25  123.09
  -3  -5   0 3670.43  139.09
   3  -5   0 3617.24  126.59
  -3   5   0 3580.44  116.09
   3   5   0 3553.44  137.59
  -3   5   0 3630.14  127.59
   3   5   0 3478.45  121.99
   3   5   0 3494.35  121.79
  -5  -5   0 2532.95   95.79
  -5  -5   0 2790.02  114.79
  -5  -5   0 2468.45   98.79
   5  -5   0 2639.74   94.39
  -5   5   0 2589.14   85.59
   5   5   0 2675.93  111.69
   5   5   0 2598.54   99.99
  -5   5   0 2546.55   95.29
  -5   5   0 2559.34   86.29
  -5   5   0 2650.73  104.09
  -7  -5   0  481.95   36.40
   7  -5   0  595.94   28.40
  -7  -5   0  629.74   46.70
  -7  -5   0  553.04   33.20
  -7   5   0  543.45   40.60
  -7   5   0  528.45   28.20
   7   5   0  561.44   38.80
  -7   5   0  551.64   23.50
  -9  -5   0  431.66   31.00
  -9  -5   0  370.26   36.00
  -9  -5   0  431.16   44.50
  -9  -5   0  370.66   42.70
  -9   5   0  410.86   38.90
  -9   5   0  423.66   21.50
 -11  -5   0  364.76   30.40
 -11  -5   0  240.58   36.60
 -11  -5   0  258.47   42.70
 -11   5   0  307.87   20.60
 -13  -5   0   96.69   30.60
 -13  -5   0  104.39   23.30
 -13  -5   0  134.59   39.30
 -13   5   0  118.99   16.00
   0  -6   0   43.90    7.90
   0  -6   0   35.20    7.90
   0  -6   0   28.60   10.30
   0   6   0   46.30    8.00
   0   6   0   45.00   12.50
   0   6   0   45.80    8.80
   2  -6   0 3274.27  110.49
   2  -6   0 3314.67  124.59
  -2  -6   0 3174.88  114.99
  -2  -6   0 3422.66  133.29
   2  -6   0 3271.17  109.69
  -2  -6   0 3354.26  116.99
   2   6   0 3296.87  116.39
  -2   6   0 3650.43  127.19
  -2   6   0 3350.76  112.99
  -2   6   0 3204.48  111.39
   2   6   0 3272.47  111.29
   2   6   0 3394.96  134.29
   4  -6   0 3377.26  122.59
  -4  -6   0 3333.77  120.09
  -4  -6   0 3349.56  138.09
   4   6   0 3161.38  118.49
  -4   6   0 3358.16  111.89
   4   6   0 3282.97  135.99
  -4   6   0 3385.16  110.89
   4   6   0 3266.27  117.79
  -4   6   0 3617.74  126.39
  -6  -6   0 1054.49   50.69
  -6  -6   0 1036.80   53.49
   6  -6   0 1132.09   48.70
  -6  -6   0  945.11   63.69
  -6   6   0 1057.79   40.20
  -6   6   0 1104.79   49.99
  -6   6   0 1060.49   57.49
   6   6   0 1092.39   54.39
   6   6   0 1040.80   64.39
  -6   6   0 1096.79   41.60
  -8  -6   0  427.26   44.90
  -8  -6   0  408.26   41.00
  -8  -6   0  402.36   30.50
   8  -6   0  409.96   22.60
  -8   6   0  412.76   20.90
  -8   6   0  424.16   37.60
  -8   6   0  430.66   23.60
 -10  -6   0  470.95   50.89
 -10  -6   0  279.27   35.80
 -10  -6   0  424.06   33.40
 -10   6   0  439.36   44.20
 -10   6   0  397.16   22.50
 -12  -6   0  157.78   42.90
 -12  -6   0   76.29   39.90
 -12  -6   0  147.89   24.70
 -12   6   0  136.59   33.30
 -14  -6   0   14.40   45.40
 -14  -6   0   32.90   23.10
 -14   6   0   52.39   15.30
   1  -7   0  599.84   39.90
   1  -7   0  535.75   27.30
  -1  -7   0  584.24   30.00
  -1  -7   0  609.04   31.10
   1  -7   0  645.74   29.80
  -1  -7   0  565.94   41.50
   1   7   0  621.04   31.60
  -1   7   0  577.04   29.80
  -1   7   0  561.94   28.60
   1   7   0  547.05   29.60
  -1   7   0  591.54   39.60
   1   7   0  600.14   42.20
   3  -7   0 2872.61   94.79
  -3  -7   0 2805.42  105.09
   3  -7   0 2894.11   94.99
  -3  -7   0 2844.52  103.59
  -3  -7   0 2825.72  123.09
   3  -7   0 3105.79  114.29
  -3   7   0 2958.60  113.99
  -3   7   0 2901.51   98.59
   3   7   0 2683.63  103.59
   3   7   0 2760.12   99.99
  -3   7   0 2777.42   99.19
   3   7   0 2752.42  121.19
  -5  -7   0 1034.80   49.60
  -5  -7   0  966.90   63.99
   5  -7   0  983.20   49.70
  -5   7   0 1018.90   40.20
   5   7   0 1040.40   64.79
   5   7   0 1015.10   49.10
  -5   7   0 1030.90   41.60
   5   7   0  927.91   45.80
  -5   7   0 1073.79   52.89
  -7  -7   0  894.31   66.19
  -7  -7   0  947.21   50.29
  -7  -7   0  917.01   52.79
   7  -7   0  970.80   45.90
  -7   7   0  969.40   38.80
  -7   7   0 1002.00   47.90
   7   7   0  958.90   66.29
   7   7   0 1012.80   54.39
  -9  -7   0  506.75   52.99
  -9  -7   0  510.55   36.80
  -9  -7   0  435.66   39.00
  -9  -7   0  418.86   51.09
  -9   7   0  485.75   43.40
  -9   7   0  499.55   25.00
 -11  -7   0  178.98   41.70
 -11  -7   0   92.19   20.20
 -11  -7   0   45.00   19.70
 -11   7   0   78.09   28.20
 -11   7   0  121.29   13.50
 -13  -7   0   75.19   25.00
 -13  -7   0   61.99   29.40
 -13  -7   0  117.89   46.80
 -13   7   0  118.79   16.60
   0  -8   0  745.93   36.20
   0  -8   0  753.22   50.19
   0  -8   0  760.82   37.40
   0   8   0  783.72   38.00
   0   8   0  723.83   36.30
   0   8   0  824.42   51.79
   2  -8   0 2717.73   98.59
  -2  -8   0 2815.92  104.59
   2  -8   0 2931.01  100.49
  -2  -8   0 2759.02  124.79
  -2   8   0 2918.01  103.09
   2   8   0 2828.92  105.99
  -2   8   0 2828.82  101.39
  -2   8   0 2909.91  118.89
   2   8   0 3056.89  126.69
  -4  -8   0  761.32   41.70
   4  -8   0  755.12   46.00
   4  -8   0  788.82   27.70
   4  -8   0  780.92   27.80
  -4  -8   0  826.42   41.30
  -4  -8   0  835.32   58.89
   4   8   0  785.82   55.99
  -4   8   0  855.21   49.20
  -4   8   0  810.02   35.20
   4   8   0  702.03   39.60
  -4   8   0  738.03   35.70
   4   8   0  805.82   39.00
   6  -8   0  753.92   43.70
  -6  -8   0  780.42   61.49
  -6  -8   0  753.12   43.50
  -6   8   0  791.82   34.10
  -6   8   0  755.62   47.40
  -6   8   0  778.42   45.60
  -6   8   0  756.12   35.40
   6   8   0  780.72   58.99
   6   8   0  721.13   42.70
  -8  -8   0  926.31   70.89
  -8  -8   0  826.22   58.99
   8  -8   0  787.32   41.00
  -8  -8   0  793.12   48.00
  -8   8   0  788.32   35.50
  -8   8   0  807.72   42.50
  -8   8   0  732.93   53.69
   8   8   0  845.32   51.99
 -10  -8   0  154.08   28.00
 -10  -8   0  117.79   23.70
 -10  -8   0  163.18   39.90
 -10   8   0  142.79   30.70
 -10   8   0  182.58   15.30
 -12  -8   0  101.99   23.00
 -12  -8   0   75.09   43.00
 -12   8   0  149.29   36.10
 -14  -8   0   34.20   55.49
 -14  -8   0   33.40   23.90
 -14   8   0   -8.00   13.70
  -1  -9   0 1543.15   84.89
   1  -9   0 1603.04   83.19
   1  -9   0 1636.84   65.09
  -1  -9   0 1475.65   66.29
   1  -9   0 1701.53   66.59
  -1  -9   0 1706.73   69.99
   1   9   0 1608.84   68.79
  -1   9   0 1761.22   67.89
  -1   9   0 1566.54   82.39
   1   9   0 1774.32   88.49
   1   9   0 1725.53   68.79
  -1   9   0 1704.53   68.19
   3  -9   0  726.43   32.70
   3  -9   0  822.02   50.89
   3  -9   0  775.52   34.10
  -3  -9   0  734.13   41.50
  -3  -9   0  784.32   40.60
  -3  -9   0  732.73   56.69
  -3   9   0  785.02   51.09
   3   9   0  712.33   41.00
   3   9   0  784.62   57.39
   3   9   0  811.02   36.20
  -3   9   0  776.22   38.10
  -3   9   0  806.82   37.30
  -5  -9   0  368.16   27.90
  -5  -9   0  351.56   49.30
   5  -9   0  457.55   40.50
  -5  -9   0  376.06   29.40
   5   9   0  331.47   40.40
  -5   9   0  369.46   22.40
   5   9   0  368.86   27.60
   5   9   0  367.26   27.00
  -5   9   0  402.46   24.60
  -5   9   0  393.76   34.40
  -7  -9   0 1149.19   61.59
   7  -9   0 1282.07   61.39
  -7  -9   0 1299.57   85.99
   7   9   0 1176.38   80.19
  -7   9   0 1224.18   50.49
  -7   9   0 1238.18   52.69
  -7   9   0 1315.47   70.59
  -7   9   0 1312.97   63.99
   7   9   0 1156.18   62.09
  -9  -9   0  279.37   49.30
  -9  -9   0  256.57   28.60
  -9  -9   0  175.28   39.30
  -9   9   0  252.77   23.00
  -9   9   0  322.97   43.10
  -9   9   0  271.77   19.30
 -11  -9   0   76.59   44.70
 -11  -9   0  111.39   44.40
 -11  -9   0  121.99   25.00
 -11   9   0  147.29   16.40
 -11   9   0  153.48   35.10
 -13  -9   0    7.90   53.19
 -13  -9   0   19.40   19.80
 -13   9   0   39.60   13.40
   0 -10   0 1485.85   63.99
   0 -10   0 1493.65   62.59
   0 -10   0 1569.84   84.69
   0  10   0 1378.96   63.79
   0  10   0 1499.65   83.09
   0  10   0 1461.15   63.29
  -2 -10   0  375.26   40.70
   2 -10   0  305.17   21.00
  -2 -10   0  395.46   27.90
  -2 -10   0  341.07   25.20
   2 -10   0  335.77   22.70
  -2  10   0  365.26   25.80
   2  10   0  396.36   28.40
  -2  10   0  344.27   36.30
  -2  10   0  423.56   25.90
   2  10   0  283.97   36.60
  -4 -10   0  181.18   19.90
  -4 -10   0  200.18   21.00
   4 -10   0  203.48   29.90
  -4 -10   0  221.38   38.20
   4 -10   0  210.98   13.00
   4 -10   0  203.68   13.50
   4  10   0  229.28   22.20
  -4  10   0  223.88   19.10
   4  10   0  190.18   17.10
  -4  10   0  211.18   31.50
   4  10   0  154.98   34.50
   6 -10   0 1002.90   56.69
  -6 -10   0  800.02   70.39
  -6 -10   0  897.41   49.99
  -6 -10   0  885.11   51.29
  -6  10   0  915.91   44.50
  -6  10   0  936.71   56.89
  -6  10   0  928.11   44.20
   6  10   0  870.41   48.50
   6  10   0  932.51   71.29
  -6  10   0  889.01   53.99
   8 -10   0  525.75   37.10
  -8 -10   0  316.27   52.69
  -8 -10   0  485.35   38.10
   8  10   0  407.76   52.89
  -8  10   0  427.86   37.00
   8  10   0  522.05   39.50
  -8  10   0  535.95   44.50
 -10 -10   0  192.98   30.60
 -10  10   0  218.88   37.30
 -10  10   0  163.08   17.40
 -12 -10   0   67.49   21.60
 -12 -10   0   13.80   48.20
 -12 -10   0   54.59   20.70
 -12  10   0   29.20   12.10
   1 -11   0  241.78   19.70
  -1 -11   0  240.58   22.60
   1 -11   0  234.88   35.80
  -1 -11   0  216.38   20.40
  -1 -11   0  281.77   43.20
   1 -11   0  246.38   20.90
  -1  11   0  254.17   22.50
  -1  11   0  222.68   38.80
   1  11   0  228.78   22.70
  -1  11   0  221.08   20.30
   1  11   0  216.88   20.60
   1  11   0  255.97   41.20
   3 -11   0  431.66   25.20
  -3 -11   0  368.96   29.60
  -3 -11   0  460.25   48.40
  -3 -11   0  408.06   29.30
   3 -11   0  432.56   41.20
   3 -11   0  441.66   24.40
   3  11   0  369.66   30.60
   3  11   0  409.16   24.30
  -3  11   0  370.76   27.50
  -3  11   0  413.76   27.30
   3  11   0  512.25   49.60
  -3  11   0  398.96   40.20
   5 -11   0  473.75   42.20
  -5 -11   0  545.65   57.09
  -5 -11   0  541.95   53.09
  -5 -11   0  517.45   37.20
   5  11   0  514.25   54.39
  -5  11   0  503.15   44.70
  -5  11   0  519.15   32.20
  -5  11   0  508.15   30.00
   5  11   0  472.75   35.30
  -7 -11   0  307.57   30.80
   7 -11   0  328.07   34.50
  -7 -11   0  213.18   46.70
  -7 -11   0  303.67   29.30
  -7  11   0  351.36   23.90
   7  11   0  286.37   50.09
  -7  11   0  277.77   31.50
   7  11   0  291.87   27.90
  -7  11   0  334.97   36.50
  -7  11   0  362.26   26.20
  -9 -11   0  312.37   32.60
  -9 -11   0  274.77   52.39
  -9 -11   0  261.17   32.40
  -9  11   0  321.07   23.60
  -9  11   0  280.47   40.50
  -9  11   0  270.27   32.40
 -11 -11   0   26.50   46.30
 -11 -11   0   69.79   23.40
 -11 -11   0   48.60   20.10
 -11  11   0   75.39   26.40
 -11  11   0   60.79   14.10
 -13 -11   0  -13.30   63.79
 -13 -11   0   -0.30   21.60
 -13 -11   0  -18.80   25.10
 -13  11   0    5.10   14.20
   0 -12   0   19.40    8.30
   0 -12   0   26.50   19.70
   0 -12   0   41.50   12.60
   0  12   0   23.90   10.80
   0  12   0   26.80   19.90
   0  12   0   12.50    8.20
   2 -12   0  485.25   29.90
   2 -12   0  562.04   32.60
  -2 -12   0  554.54   37.60
   2 -12   0  483.05   47.20
  -2 -12   0  512.35   34.70
  -2 -12   0  465.35   50.59
   2  12   0  664.23   58.19
   2  12   0  550.54   37.40
  -2  12   0  522.95   34.50
  -2  12   0  552.44   33.80
  -2  12   0  520.95   50.09
   4 -12   0  294.67   38.10
  -4 -12   0  278.37   28.40
  -4 -12   0  269.37   46.10
   4 -12   0  297.27   19.60
   4 -12   0  287.77   18.50
  -4  12   0  322.97   26.20
   4  12   0  288.17   27.80
   4  12   0  290.77   21.60
  -4  12   0  339.07   39.90
  -4  12   0  341.27   25.00
   4  12   0  255.27   45.90
   6 -12   0  418.06   42.60
  -6 -12   0  338.57   30.60
  -6 -12   0  359.36   33.00
  -6 -12   0  313.37   51.89
   6  12   0  420.66   51.99
  -6  12   0  382.06   42.40
  -6  12   0  394.46   29.40
  -6  12   0  406.46   27.20
   6  12   0  361.06   29.20
  -8 -12   0  289.47   31.40
  -8 -12   0  268.27   31.30
  -8 -12   0  215.48   49.80
   8 -12   0  273.37   33.70
   8  12   0  224.48   26.90
  -8  12   0  315.27   36.10
   8  12   0  224.18   48.40
  -8  12   0  245.38   35.10
  -8  12   0  298.57   23.70
 -10 -12   0   43.30   18.90
  10 -12   0   52.09   17.60
 -10 -12   0   64.59   20.30
 -10 -12   0   38.60   42.00
 -10 -12   0   69.99   42.20
 -10  12   0   57.89   18.40
 -10  12   0   46.50   25.80
 -10  12   0   62.89   13.20
 -12 -12   0   66.39   58.39
 -12 -12   0   45.00   25.10
 -12 -12   0   53.09   21.60
 -12  12   0   15.10   13.50
   1 -13   0  197.28   21.00
   1 -13   0  255.07   42.40
  -1 -13   0  192.48   20.70
  -1 -13   0  220.88   22.60
  -1 -13   0  211.48   40.80
   1 -13   0  242.08   21.40
   1  13   0  189.18   26.70
   1  13   0  220.98   40.80
  -1  13   0  201.78   39.00
  -1  13   0  223.58   24.00
  -1  13   0  183.98   20.40
   3 -13   0  543.15   31.70
  -3 -13   0  531.15   56.69
  -3 -13   0  501.35   38.30
   3 -13   0  515.95   30.20
   3 -13   0  527.95   63.69
  -3 -13   0  493.55   35.80
   3  13   0  584.24   58.79
  -3  13   0  469.95   34.40
   3  13   0  534.55   44.40
  -3  13   0  480.15   50.49
  -3  13   0  559.34   35.10
   3  13   0  581.04   30.20
   5 -13   0  261.27   14.90
   5 -13   0  267.37   15.60
  -5 -13   0  266.67   28.30
  -5 -13   0  256.57   59.29
   5 -13   0  320.37   40.90
  -5 -13   0  272.17   28.60
   5  13   0  273.97   28.60
  -5  13   0  219.28   24.20
  -5  13   0  208.08   60.79
   5  13   0  241.88   45.90
  -5  13   0  239.28   22.80
   5  13   0  248.18   22.30
  -7 -13   0  194.38   47.00
  -7 -13   0  198.88   29.60
  -7 -13   0  273.57   36.90
   7 -13   0  235.98   36.60
  -7  13   0  221.98   24.30
   7  13   0  227.38   46.50
  -7  13   0  264.87   37.40
   7  13   0  234.28   24.80
  -7  13   0  245.68   22.70
  -7  13   0  219.18   36.40
  -9 -13   0   49.99   18.80
  -9 -13   0   67.99   22.30
  -9  13   0   60.99   14.00
  -9  13   0   25.00   23.30
  -9  13   0   56.09   24.60
 -11 -13   0   -6.20   51.19
 -11 -13   0   30.80   23.00
 -11 -13   0   33.20   20.40
 -11  13   0   49.90   29.20
 -11  13   0   52.99   15.30
   0 -14   0  367.26   30.00
   0 -14   0  396.56   55.69
   0 -14   0  429.46   31.00
   0  14   0  396.46   31.40
   0  14   0  324.07   34.60
  -2 -14   0  266.87   26.70
  -2 -14   0  166.38   41.40
  -2 -14   0  239.38   24.90
   2 -14   0  218.88   21.10
   2 -14   0  285.87   47.90
   2 -14   0  246.08   23.00
   2  14   0  298.47   49.70
  -2  14   0  233.78   23.40
  -2  14   0  280.97   48.50
   2  14   0  262.97   27.80
  -2  14   0  201.28   24.70
  -4 -14   0  214.88   30.80
   4 -14   0  229.98   20.00
  -4 -14   0  246.98   49.60
   4 -14   0  214.28   17.60
  -4 -14   0  224.88   25.60
   4 -14   0  217.38   38.50
  -4  14   0  225.28   41.70
   4  14   0  185.08   28.30
   4  14   0  234.58   48.70
  -4  14   0  228.98   25.70
  -4  14   0  209.58   22.20
   4  14   0  194.88   18.40
  -6 -14   0  196.68   47.40
   6 -14   0  252.07   40.80
  -6 -14   0  227.88   32.60
  -6 -14   0  203.48   30.10
  -6  14   0  243.58   29.10
  -6  14   0  268.07   43.00
   6  14   0  193.28   44.00
  -6  14   0  227.08   25.20
   6  14   0  208.48   22.40
  -6  14   0  246.98   23.60
  -8 -14   0   45.40   17.90
  -8 -14   0   38.00   16.20
  -8 -14   0    6.10   34.10
   8 -14   0   53.89   24.70
  -8  14   0   40.10   19.00
  -8  14   0   35.10   11.90
   8  14   0   56.79   15.70
   8  14   0   38.10   36.90
  -8  14   0   61.59   26.50
 -10 -14   0   11.20   46.30
  10 -14   0   61.89   24.50
 -10 -14   0   15.80   23.00
 -10 -14   0   35.20   77.49
 -10 -14   0   24.80   21.40
 -10  14   0   46.10   15.60
 -10  14   0   27.60   24.50
 -10  14   0    1.30   23.10
 -12 -14   0   -4.30   22.60
 -12 -14   0   21.20   75.29
 -12  14   0   -3.80   15.00
   1 -15   0  195.88   41.80
   1 -15   0  177.48   21.20
  -1 -15   0  218.88   29.00
  -1 -15   0  222.78   30.60
  -1 -15   0  153.18   40.00
   1 -15   0  206.58   22.90
  -1  15   0  168.08   38.20
   1  15   0  252.17   47.70
   1  15   0  163.98   26.80
  -1  15   0  156.48   23.70
  -1  15   0  149.29   25.40
  -3 -15   0   14.00   28.80
   3 -15   0   52.89   13.10
  -3 -15   0   36.90   15.30
   3 -15   0   61.89   13.00
  -3 -15   0   32.80   13.20
  -3  15   0   43.30   15.50
   3  15   0   49.20   10.40
   3  15   0   41.30   17.30
  -3  15   0   32.70   25.10
  -3  15   0   47.30   14.80
   3  15   0   67.49   33.30
   5 -15   0  265.87   18.80
  -5 -15   0  288.27   55.69
  -5 -15   0  328.97   34.00
  -5 -15   0  298.77   30.20
   5 -15   0  329.17   50.19
   5 -15   0  254.27   17.90
   5  15   0  289.07   23.80
   5  15   0  235.68   50.49
  -5  15   0  302.27   33.50
  -5  15   0  278.47   26.80
   5  15   0  297.87   33.30
  -5  15   0  231.58   44.10
   7 -15   0   48.20   25.60
  -7 -15   0   36.30   18.10
  -7 -15   0   51.79   38.00
  -7 -15   0   41.70   19.80
  -7  15   0   43.70   14.00
  -7  15   0   59.09   20.20
   7  15   0   43.00   13.50
  -7  15   0   16.20   25.90
   7  15   0   57.09   39.30
  -9 -15   0   23.90   30.80
  -9 -15   0   26.90   18.90
  -9 -15   0   -3.20   45.30
  -9  15   0   18.90   11.70
  -9  15   0   -3.50   19.90
  -9  15   0   10.40   28.30
   9  15   0   37.60   43.60
 -11 -15   0   29.50   25.90
 -11 -15   0   30.30   65.19
 -11  15   0   24.80   15.00
   0 -16   0   53.19   16.20
   0 -16   0   36.60   13.30
   0 -16   0   20.00   28.60
   0  16   0   53.39   17.30
   0  16   0   61.49   16.60
   0  16   0   92.99   34.20
  -2 -16   0   50.69   17.40
   2 -16   0  125.59   36.30
  -2 -16   0  108.59   38.00
   2 -16   0   69.99   16.30
   2 -16   0   68.59   16.30
  -2 -16   0  115.89   23.40
  -2  16   0   72.09   19.00
  -2  16   0   49.50   28.10
  -2  16   0   93.79   20.90
   2  16   0   58.49   19.20
   2  16   0   55.79   31.70
  -4 -16   0   99.49   23.20
  -4 -16   0   81.59   21.50
   4 -16   0   69.49   31.00
  -4 -16   0   97.79   41.30
   4 -16   0   97.99   16.30
   4 -16   0   91.19   14.40
  -4  16   0   92.39   19.40
  -4  16   0  105.79   35.30
  -4  16   0  114.29   22.60
   4  16   0   81.69   36.20
   4  16   0   67.49   23.20
   4  16   0   78.29   13.90
   6 -16   0   26.70   29.30
  -6 -16   0   -2.90   37.60
  -6 -16   0   39.90   16.30
  -6 -16   0   25.30   16.50
  -6  16   0   13.80   28.70
  -6  16   0   40.50   16.20
  -6  16   0   45.40   16.80
   6  16   0   39.40   36.30
  -6  16   0   28.10   14.20
   6  16   0   45.80   12.50
  -8 -16   0   -1.50   31.00
   8 -16   0   20.40   29.10
  -8 -16   0   -0.50   16.80
  -8  16   0   -5.00   17.10
  -8  16   0   -2.80   29.40
  -8  16   0   13.70   12.20
   8  16   0    8.70   11.10
   8  16   0   34.40   42.30
 -10 -16   0   20.30   19.50
  10 -16   0   36.70   29.80
 -10 -16   0   34.50   42.60
 -10  16   0  -34.40   30.40
 -10  16   0   -5.70   15.50
 -10  16   0    5.50   25.60
   1 -17   0   37.80   13.90
   1 -17   0   28.60   12.70
  -1 -17   0   63.49   17.70
  -1 -17   0   24.40   13.90
  -1 -17   0   21.30   32.80
  -1  17   0   27.10   12.60
  -1  17   0   38.00   16.80
   1  17   0   29.50   30.70
   1  17   0   31.40   15.80
  -1  17   0   17.50   28.60
  -3 -17   0  -16.20   10.60
   3 -17   0   14.30    9.80
   3 -17   0    7.10   10.00
   3 -17   0    6.20   28.20
  -3 -17   0   27.30   35.50
  -3 -17   0    5.60   12.70
  -3  17   0   -1.10    8.10
  -3  17   0  -16.90   25.00
   3  17   0   -7.60   13.40
   3  17   0   36.30   33.90
   3  17   0    2.40    5.90
  -3  17   0    0.00   13.30
  -5 -17   0   37.80   39.10
   5 -17   0   14.00    8.30
   5 -17   0   10.10   29.20
   5 -17   0   14.80   12.10
  -5 -17   0   -3.90   14.10
  -5  17   0   24.50   30.10
   5  17   0    5.10    7.10
   5  17   0   -4.90   34.20
  -5  17   0   13.80   10.70
  -5  17   0    6.90   13.40
  -7 -17   0   13.50   17.10
   7 -17   0   39.40   32.40
  -7 -17   0   -9.70   43.40
  -7 -17   0   11.90   29.00
  -7  17   0  -16.60   17.10
  -7  17   0   53.09   35.50
   7  17   0  -12.60   42.00
  -7  17   0  -10.00   10.50
   7  17   0  -10.70    8.50
  -9 -17   0  -28.10   97.19
   9 -17   0  -10.30   48.90
  -9 -17   0  -25.30   23.60
  -9 -17   0    8.00   18.70
  -9  17   0    9.30   34.80
   9  17   0  -73.49   55.39
  -9  17   0   10.60   15.40
  11 -17   0   29.00   37.10
 -11 -17   0   15.10   27.90
 -11  17   0   -6.50   17.80
   0 -18   0   26.00   14.00
   0 -18   0  -17.60   33.20
   0 -18   0   17.40   13.00
   0  18   0   42.80   17.80
   0  18   0   56.39   36.20
   2 -18   0   -1.50   10.10
  -2 -18   0   -4.70   11.00
   2 -18   0    8.40   31.40
  -2 -18   0  -21.70   35.80
   2 -18   0    6.50    9.20
  -2 -18   0    8.00   13.50
  -2  18   0   -2.00    9.30
  -2  18   0  -21.30   29.40
  -2  18   0   -0.90   13.60
   2  18   0   24.70   33.80
   4 -18   0   10.50    9.50
   4 -18   0    5.80   31.30
  -4 -18   0   24.20   16.10
  -4 -18   0   27.40   41.50
   4 -18   0    8.90   10.30
  -4  18   0   -1.40   11.30
   4  18   0   19.40   18.00
  -4  18   0   18.40   34.60
   4  18   0    8.70    6.60
  -4  18   0  -15.00   13.00
   4  18   0  -40.30   35.10
  -6 -18   0   37.80   47.30
  -6 -18   0   10.10   16.70
  -6 -18   0    5.60   17.00
   6 -18   0    8.60   34.00
  -6  18   0  -29.30   35.90
  -6  18   0   32.00   16.90
   6  18   0   11.20    9.90
   6  18   0  -16.10   40.60
  -6  18   0   11.30   12.30
  -6  18   0   -2.60   15.70
  -8 -18   0   10.70   24.50
  -8 -18   0  -62.09   52.49
   8 -18   0   20.70   38.30
  -8 -18   0    8.60   19.90
   8  18   0   48.40   54.69
  -8  18   0    0.80   38.40
  -8  18   0    6.20   14.10
  -8  18   0   11.00   21.30
 -10 -18   0   41.10   26.40
  10 -18   0  -17.60   36.90
 -10  18   0   -0.30   41.20
 -10  18   0  -53.59   47.40
 -10  18   0   26.60   31.10
  -1 -19   0    1.20   11.20
   1 -19   0    7.30   35.20
   1 -19   0   14.30   13.30
  -1 -19   0  -19.40   34.60
   1 -19   0   13.90   11.00
  -1 -19   0   18.80   14.70
  -1  19   0   -0.30   19.60
  -1  19   0   -5.50   15.80
   1  19   0   20.10   36.60
  -1  19   0   20.40   37.50
  -3 -19   0   16.40   14.90
   3 -19   0    9.60   10.30
   3 -19   0    5.00   11.00
  -3 -19   0   50.59   45.80
   3 -19   0  -33.30   32.40
   3  19   0    7.80   39.70
   3  19   0  -11.40    6.20
  -3  19   0  -24.30   34.00
  -3  19   0    4.10   15.80
  -5 -19   0    7.80   15.00
  -5 -19   0   27.70   49.99
   5 -19   0    4.60    9.80
   5 -19   0   21.10   37.40
   5 -19   0    0.80    9.60
  -5  19   0   -4.30   15.70
   5  19   0   44.80   44.90
  -5  19   0  -23.80   38.80
   5  19   0   14.00    9.20
  -7 -19   0   14.50   19.60
  -7 -19   0   12.60   24.60
   7 -19   0  -36.60   38.10
   7  19   0   23.40   58.59
  -7  19   0   18.30   20.00
   7  19   0   -2.60    9.50
  -7  19   0   -4.60   14.40
  -7  19   0   11.40   43.20
   9 -19   0  -53.79   42.40
  -9 -19   0   28.90   23.20
  -9  19   0   34.00   29.40
  -9  19   0  -17.20   45.70
  -9  19   0  -16.90   17.50
   0 -20   0   11.00   41.20
   0 -20   0    6.20   13.00
   0 -20   0   34.10   15.60
   0  20   0   -3.10   14.50
   0  20   0   12.80   37.50
   2 -20   0    4.40   12.50
  -2 -20   0   22.50   16.20
  -2 -20   0   24.60   48.90
   2 -20   0   90.49   44.80
   2 -20   0    6.90   11.60
  -2  20   0   13.20   16.80
  -2  20   0   19.50   14.80
   2  20   0    6.10   39.70
  -2  20   0   17.40   39.60
   2  20   0    8.70    6.90
  -4 -20   0   11.40   16.50
   4 -20   0   -1.70   11.10
   4 -20   0   -8.90   40.80
  -4 -20   0  -26.90   14.90
  -4 -20   0   15.60   48.90
  -4  20   0   14.40   40.70
   4  20   0   15.30   42.00
   4  20   0    7.70    7.30
  -4  20   0   22.30   18.30
  -4  20   0  -10.30   12.30
  -6 -20   0   51.49   21.60
   6 -20   0   21.40   47.20
   6 -20   0   11.50    7.50
   6 -20   0   10.00   10.60
  -6 -20   0   -7.20   56.29
   6  20   0    8.50   55.19
  -6  20   0  -20.00   42.50
  -6  20   0   14.60   15.30
   6  20   0    5.30    9.20
  -6  20   0   43.30   19.30
   8 -20   0    1.50   47.70
  -8 -20   0   26.20   25.30
  -8  20   0   64.69   54.79
  -8  20   0   12.80   29.00
  -8  20   0   32.20   19.80
  -1 -21   0  -26.70   13.20
   1 -21   0   15.40   47.00
  -1 -21   0  -18.60   47.60
   1 -21   0    4.80   14.90
   1 -21   0   13.80   14.10
   1  21   0   29.90   46.00
  -1  21   0    4.80   20.00
  -1  21   0    6.80   41.40
  -3 -21   0  -14.40   14.00
   3 -21   0   12.00   43.90
  -3 -21   0    8.70   18.00
   3 -21   0   -4.10   13.40
   3 -21   0  -20.20   11.70
  -3 -21   0  -16.20   51.69
   3  21   0   20.00   47.50
  -3  21   0    9.00   15.00
   3  21   0    6.60    7.50
  -3  21   0  -10.00   44.20
   5 -21   0   11.70   44.90
  -5 -21   0   23.90   20.60
  -5 -21   0  -39.90   61.49
   5 -21   0   -0.70   11.50
   5 -21   0    5.10   12.60
   5  21   0   43.10   57.29
  -5  21   0   -6.10   16.00
  -5  21   0  -26.00   46.70
  -5  21   0   16.20   15.90
  -7 -21   0   22.40   72.39
  -7 -21   0  105.29   32.10
   7 -21   0   77.49   53.69
  -7  21   0   72.19   26.10
  -7  21   0   42.70   22.10
   7  21   0   86.99   68.39
  -7  21   0   68.19   54.39
   0 -22   0   16.20   17.10
   0 -22   0    1.00   53.19
   0  22   0  -31.70   23.60
   0  22   0   45.60   51.89
  -2 -22   0   17.80   19.60
   2 -22   0   32.30   18.70
  -2 -22   0  172.58   67.09
   2 -22   0   34.30   63.99
   2 -22   0   38.20   19.00
  -2 -22   0   25.30   21.50
  -2  22   0   94.99   30.00
   2  22   0   71.69   55.19
   2  22   0   56.49   11.10
  -2  22   0   83.59   51.69
  -4 -22   0  -12.80   65.89
  -4 -22   0    1.60   19.90
   4 -22   0   30.00   15.40
   4 -22   0   25.00   16.70
  -4  22   0   12.50   20.40
   4  22   0   18.80   55.59
  -4  22   0   44.00   49.40
   4  22   0   30.70    9.60
  -4  22   0   34.90   18.20
   6 -22   0   69.09   11.80
   6 -22   0   65.09   57.89
  -6 -22   0   65.99   30.90
   6 -22   0   81.99   12.00
  -6  22   0   78.19   26.20
   6  22   0   44.90   73.29
  -6  22   0   45.10   59.89
  -6  22   0  110.19   26.50
  -8 -22   0  -40.10   24.80
   8 -22   0    1.10   62.49
  -8  22   0    6.40   22.20
  -8  22   0  -58.69   97.69
  -8  22   0   25.10   30.70
  -1 -23   0   73.79   26.10
  -1 -23   0   62.89   23.50
   1 -23   0   54.99   21.60
  -1 -23   0  116.19   68.69
   1 -23   0  131.99   65.19
   1 -23   0   68.19   29.90
   1  23   0    0.30   58.09
  -1  23   0  121.49   61.29
   3 -23   0   45.10   60.39
   3 -23   0   96.19   24.40
  -3 -23   0  108.49   69.99
   3 -23   0   57.49   21.40
  -3 -23   0  123.89   30.70
   3  23   0   97.09   12.90
   3  23   0   72.49   65.19
  -3  23   0   87.49   55.49
  -5 -23   0  174.88   95.29
   5 -23   0   48.70   65.49
  -5 -23   0  128.49   34.50
   5 -23   0  118.59   20.00
  -5  23   0  200.58   69.79
  -5  23   0   83.29   28.90
   5  23   0  -36.10   69.79
  -5  23   0  113.79   28.90
  -7 -23   0   42.90   26.40
  -7  23   0    5.30   24.80
  -7  23   0   40.60   29.30
   0 -24   0  123.89   30.20
   0 -24   0   94.09   26.60
   0 -24   0  137.59   74.29
   0  24   0   65.89   64.89
   2 -24   0   45.50   70.99
  -2 -24   0   18.40   72.99
  -2 -24   0   71.09   28.40
   2 -24   0   41.20   21.80
   2  24   0   45.90    9.40
   2  24   0   41.60   64.19
  -2  24   0   54.49   69.09
   4 -24   0  141.89   27.80
  -4 -24   0  170.28   42.30
  -4 -24   0  194.18   94.29
   4 -24   0  119.09   24.90
   4  24   0   90.69   77.19
  -4  24   0   95.09   72.69
  -4  24   0  141.89   28.10
  -1 -25   0   48.10   99.59
   1 -25   0  -27.90   79.09
  -1 -25   0   68.39   26.50
   1 -25   0   41.10   22.60
   1 -25   0   73.69   27.80
  -1  25   0   34.60   75.49
   1  25   0  -50.89   71.19
   1  25   0   72.69   10.70
   3 -25   0   44.70   77.19
  -3 -25   0  151.58   93.89
   3 -25   0  132.89   29.60
   3  25   0  167.48   86.09
  -3  25   0  124.09   30.70
   0 -26   0   44.20   26.40
   0 -26   0  274.07  105.09
   0  26   0   75.79   12.50
   0  26   0   61.89   11.20
 -14   0   1    8.30   24.90
 -14   0   1  -14.10   11.60
 -12   0   1   -6.30    8.00
 -12   0   1   -5.60   17.30
 -12   0   1   -3.10   19.40
 -12   0   1   10.80   17.60
 -10   0   1  -15.10   13.90
 -10   0   1   12.50   11.90
 -10   0   1    9.60   13.50
 -10   0   1   -9.10    6.10
  -8   0   1    8.50   11.00
  -8   0   1   -0.60    9.10
  -8   0   1   -7.40    4.20
  -8   0   1    7.40    8.00
   6   0  -1   10.80    8.60
  -6   0   1   -0.40    7.20
  -6   0   1    3.00    3.70
  -6   0   1    1.10    4.70
   6   0  -1    4.00    2.20
  -4   0   1    0.40    5.30
   4   0  -1    1.10    2.80
  -4   0   1   -2.60    2.20
   4   0  -1   -1.50    4.80
  -2   0   1    4.70    2.20
   2   0  -1    3.00    3.90
   2   0  -1    1.50    2.00
  -2   0   1    1.20    3.20
   0   0   1    0.20    1.10
   0   0  -1    0.00    1.80
   0   0  -1    2.10    1.40
   0   0   1    2.60    2.40
   2   0   1    1.90    2.90
  -2   0  -1    3.20    4.00
  -2   0  -1   -3.50    2.40
   2   0   1    1.90    3.70
   4   0   1    1.70    4.80
  -4   0  -1    0.70    3.70
  -4   0  -1    7.30    5.70
  -6   0  -1   -4.60    6.50
   6   0   1    0.20    6.50
  -6   0  -1    5.00    6.00
  -6   0  -1   -2.80    5.40
  -8   0  -1  -12.80    9.20
  -8   0  -1    2.00    6.20
  -8   0  -1   -2.50    5.90
  -8   0  -1   -1.80    4.60
 -10   0  -1    9.10    7.30
 -10   0  -1  -12.90   19.50
 -12   0  -1   10.80   10.20
 -15   1   1  -16.00   14.20
 -13  -1   1   29.40   23.00
 -13  -1   1   -6.30   24.20
 -13  -1   1   15.40   19.70
 -13  -1   1   -7.90    9.70
 -13   1   1  -15.30    9.20
 -13   1   1  -36.20   17.70
 -13   1   1   12.10   21.20
 -13   1   1    3.10   18.30
 -11  -1   1   -3.20   12.80
 -11  -1   1   21.40   16.90
 -11  -1   1   11.00   18.70
 -11  -1   1    7.10    7.60
 -11   1   1   -4.90   14.40
 -11   1   1    4.10   13.40
 -11   1   1   20.50   16.30
 -11   1   1   -4.00    6.80
  -9  -1   1   15.30   13.00
  -9  -1   1    1.20   12.20
  -9  -1   1   21.70    9.20
  -9  -1   1   18.30   14.80
  -9   1   1    5.60    8.80
  -9   1   1    6.90   11.90
  -9   1   1   10.40   12.70
  -9   1   1    7.70    6.00
   7  -1  -1   18.70   12.70
  -7  -1   1   19.00    9.90
  -7  -1   1   30.60    7.40
  -7  -1   1   22.50   11.70
  -7  -1   1   23.10   12.30
  -7   1   1   49.60    8.30
  -7   1   1   44.80   12.20
  -7   1   1   39.50   12.20
  -5  -1   1  905.91   37.40
   5  -1  -1  876.81   32.40
   5  -1  -1  938.71   45.50
  -5  -1   1  985.00   48.20
   5   1  -1  947.81   35.90
  -5   1   1  865.21   35.60
   5   1  -1  965.10   48.00
  -5   1   1  895.01   44.40
   3  -1  -1 3584.74  122.49
  -3  -1   1 3966.70  134.49
  -3  -1   1 3915.41  124.79
   3   1  -1 3841.32  127.19
  -3   1   1 3797.42  123.49
  -3   1   1 3797.02  131.49
   1  -1  -1    2.60    1.60
  -1  -1   1    7.00    4.00
  -1  -1   1    0.80    1.50
   1  -1  -1    5.80    3.70
   1   1  -1    0.90    1.60
  -1   1   1    2.00    1.60
  -1   1   1    3.20    3.40
   1   1  -1    2.30    3.10
  -1  -1  -1  187.48    9.30
  -1  -1  -1  202.28   13.80
   1  -1   1  198.08   13.20
   1  -1   1  171.58   10.00
  -1   1  -1  184.78   10.40
  -1   1  -1  175.58   12.60
   1   1   1  186.48   13.50
   1   1   1  191.88   13.40
  -3  -1  -1   20.30    7.60
  -3  -1  -1   18.40    5.90
   3  -1   1    3.50    5.00
   3   1   1   19.00    6.90
  -3   1  -1    2.10    4.40
   3   1   1   15.50    6.00
  -5  -1  -1   84.99   17.00
  -5  -1  -1  103.09   13.40
   5  -1   1   74.49   15.90
  -5   1  -1   97.29   17.50
   5   1   1   86.29   17.30
  -7  -1  -1   11.30   10.30
  -7  -1  -1  -12.60    9.80
  -7  -1  -1   17.60    9.90
  -7  -1  -1    3.90    5.60
   7   1   1   -1.10    7.70
  -7   1  -1   12.80    4.30
  -7   1  -1    0.00    8.60
  -9  -1  -1   16.60    7.60
  -9  -1  -1   -4.60    9.90
  -9  -1  -1   12.40   13.70
  -9   1  -1    3.50   13.00
  -9   1  -1  -12.20    4.90
 -11  -1  -1   46.50   20.10
 -11  -1  -1    4.90    9.50
 -11   1  -1    2.90    7.60
 -13  -1  -1   -3.60   13.30
 -13   1  -1  -11.10   11.30
 -14  -2   1   35.60   31.00
 -14  -2   1   10.80   24.70
 -14  -2   1   28.30   14.20
 -14   2   1  -13.30   13.30
 -14   2   1    4.10   12.20
 -12  -2   1   54.99   20.20
 -12  -2   1   48.80   26.00
 -12  -2   1   32.70   22.30
 -12  -2   1   27.80   11.50
 -12   2   1   55.49   20.20
 -12   2   1   50.89   12.10
 -12   2   1   17.60   16.20
 -10  -2   1   17.70   12.50
 -10  -2   1   11.50    7.80
 -10  -2   1   -0.50   16.50
 -10  -2   1   16.80   15.60
 -10   2   1  -21.30    9.30
 -10   2   1   10.00    6.90
 -10   2   1   12.50   13.40
 -10   2   1   28.50   13.80
  -8  -2   1    8.50    5.90
  -8  -2   1    3.40   13.30
   8  -2  -1   29.50   11.90
  -8  -2   1    5.00    6.80
  -8  -2   1   12.70   12.30
  -8   2   1    8.50    9.00
  -8   2   1    2.70    4.70
  -8   2   1   11.20   10.40
  -6  -2   1  290.07   18.60
  -6  -2   1  308.67   24.00
  -6  -2   1  275.37   26.70
   6  -2  -1  296.87   24.00
  -6  -2   1  320.17   27.80
  -6   2   1  308.47   16.80
   6   2  -1  293.17   16.50
  -6   2   1  277.97   23.30
   4  -2  -1 2064.29   71.79
   4  -2  -1 2112.89   82.69
  -4  -2   1 2362.46   88.99
  -4  -2   1 2282.57   77.09
  -4   2   1 2087.99   82.29
  -4   2   1 2132.69   73.89
   4   2  -1 2185.48   76.09
  -2  -2   1   43.10    6.30
  -2  -2   1   35.90    8.60
   2  -2  -1   25.60    5.00
   2  -2  -1   33.60    8.00
   2   2  -1   33.00    5.90
  -2   2   1   30.40    4.90
  -2   2   1   35.20    8.20
   2   2  -1   22.70    7.10
   0  -2   1  202.18    9.30
   0  -2  -1  183.78   15.10
   0  -2   1  220.88   14.00
   0  -2   1  208.78   11.10
   0  -2  -1  174.98   10.60
   0   2  -1  206.58   11.10
   0   2  -1  207.98    9.80
   0   2   1  180.48   10.50
   0   2   1  208.08   15.80
   0   2  -1  209.48   13.80
   2  -2   1 1302.47   42.40
   2  -2   1 1294.57   52.69
  -2  -2  -1 1320.87   54.59
   2  -2   1 1230.78   45.60
   2   2   1 1297.67   52.79
  -2   2  -1 1252.47   52.09
   2   2   1 1264.87   54.29
  -4  -2  -1  313.67   23.40
  -4  -2  -1  245.78   21.80
   4  -2   1  250.07   21.90
   4   2   1  315.17   22.90
   4   2   1  274.47   23.20
  -4   2  -1  281.07   23.20
  -6  -2  -1    5.90    9.00
  -6  -2  -1   13.10    6.00
  -6  -2  -1   16.80    9.20
   6   2   1   19.20    9.40
  -6   2  -1    4.00    8.00
  -8  -2  -1    2.40   11.70
  -8  -2  -1    5.60   11.40
  -8  -2  -1   25.70    8.40
  -8  -2  -1   11.80   11.70
  -8   2  -1   11.30    4.50
  -8   2  -1   18.10   11.80
 -10  -2  -1   28.10   18.30
 -10  -2  -1   17.30   15.10
 -10  -2  -1   18.90   10.10
 -10  -2  -1   41.70   16.70
 -10   2  -1   12.20    6.30
 -12  -2  -1   17.20   38.70
 -12  -2  -1    3.80   11.70
 -15  -3   1  -26.30   36.00
 -15  -3   1   32.30   18.90
 -15   3   1   21.80   14.50
 -13  -3   1   -4.80   29.90
 -13  -3   1    4.60   11.40
 -13  -3   1  -39.90   27.40
 -13  -3   1  -14.70   26.10
 -13   3   1  -12.20   15.10
 -13   3   1   -4.00   16.00
 -13   3   1   -7.20   20.20
 -11  -3   1   41.70   19.10
 -11  -3   1   58.09   14.20
 -11  -3   1   49.30   22.70
 -11  -3   1   73.69   26.30
 -11   3   1   51.59   17.50
 -11   3   1   45.40   11.80
 -11   3   1   17.00   14.50
 -11   3   1   41.50   17.40
  -9  -3   1   -3.40    6.40
  -9  -3   1    4.30    9.10
   9  -3  -1   13.90   12.00
  -9  -3   1   31.80   17.20
  -9  -3   1   -3.20   13.60
  -9   3   1    7.20    5.50
  -9   3   1   -8.50   10.80
  -9   3   1   -1.30    8.30
  -7  -3   1   42.30   15.00
  -7  -3   1   16.90    8.70
   7  -3  -1   28.90   11.50
  -7  -3   1   26.20   14.30
  -7  -3   1   44.30    9.80
  -7   3   1   36.20   11.50
  -7   3   1   29.00    6.70
   7   3  -1   43.50    7.80
  -5  -3   1 1486.85   57.69
   5  -3  -1 1437.16   48.20
   5  -3  -1 1508.35   63.69
  -5  -3   1 1578.64   71.49
  -5  -3   1 1494.65   60.89
  -5  -3   1 1452.15   69.39
   5  -3  -1 1433.56   48.30
  -5   3   1 1576.74   64.49
  -5   3   1 1430.26   53.39
   5   3  -1 1422.66   56.09
  -3  -3   1  608.94   26.90
  -3  -3   1  570.64   40.00
   3  -3  -1  436.06   34.50
  -3  -3   1  590.14   34.50
  -3   3   1  559.84   24.10
   3   3  -1  560.54   26.20
  -3   3   1  598.24   32.00
   1  -3  -1  248.78   19.20
  -1  -3   1  229.48   17.80
  -1  -3   1  242.88   13.40
  -1  -3   1  249.68   18.60
   1  -3  -1  247.58   13.60
  -1   3   1  241.68   13.40
  -1   3   1  261.07   19.50
   1   3  -1  256.47   13.90
   1  -3   1 3963.80  134.39
  -1  -3  -1 4115.49  143.89
   1  -3   1 4107.09  139.29
   1  -3   1 4074.49  135.09
  -1  -3  -1 4095.29  132.79
  -1   3  -1 4018.60  127.79
  -1   3  -1 3964.20  127.79
   1   3   1 4184.78  144.39
  -1   3  -1 3973.60  134.39
   1   3   1 4106.09  132.09
   3  -3   1 1137.19   52.19
  -3  -3  -1 1196.18   56.19
  -3  -3  -1 1180.28   52.59
   3   3   1 1261.07   53.59
   3   3   1 1217.68   56.39
  -3   3  -1 1049.09   51.29
  -5  -3  -1  174.98   19.90
  -5  -3  -1  213.28   22.80
  -5  -3  -1  166.28   14.50
   5   3   1  201.48   20.90
  -5   3  -1  163.38   19.90
   5   3   1  205.88   21.60
  -7  -3  -1    0.10   10.90
  -7  -3  -1  -11.80   10.80
  -7  -3  -1   -0.20    9.00
  -7  -3  -1   -2.30    5.50
   7   3   1    1.10    7.50
  -7   3  -1    8.70    8.90
  -9  -3  -1   32.70   17.30
  -9  -3  -1   47.60   20.10
  -9  -3  -1   69.39   21.00
  -9  -3  -1   69.59   13.80
  -9   3  -1   65.79    7.40
  -9   3  -1   95.89   24.30
 -11  -3  -1   15.00   19.30
 -11  -3  -1   71.09   25.50
 -11  -3  -1   48.00   14.30
 -11  -3  -1   24.50   20.80
 -11   3  -1   40.10    8.80
 -13  -3  -1   -3.50   13.80
 -13   3  -1   -0.30   10.40
 -14  -4   1  -48.50   21.20
 -14  -4   1  -23.00   36.10
 -14  -4   1   -3.80   13.50
 -14   4   1   18.30   12.10
 -12  -4   1   21.10   17.80
 -12  -4   1   79.69   16.00
 -12  -4   1   51.19   29.50
 -12   4   1   26.70   16.90
 -12   4   1   25.20   14.90
 -12   4   1   35.70   10.70
 -10  -4   1    9.70    8.50
 -10  -4   1    2.60   11.40
 -10  -4   1   29.20   20.40
 -10  -4   1    8.30   19.30
 -10   4   1   14.00   13.60
 -10   4   1    3.00    5.90
 -10   4   1   -4.80    9.90
  -8  -4   1   -0.60    6.10
  -8  -4   1    4.90   15.30
   8  -4  -1    3.90   11.00
  -8  -4   1   14.50    9.30
  -8  -4   1   15.50   24.80
  -8   4   1    3.80   10.00
  -8   4   1   12.50    5.40
  -8   4   1   -0.60    7.20
  -6  -4   1 1251.87   57.39
  -6  -4   1 1333.57   54.89
  -6  -4   1 1389.36   70.79
   6  -4  -1 1278.97   59.39
  -6  -4   1 1299.17   67.69
   6   4  -1 1268.27   51.99
  -6   4   1 1220.18   48.60
  -4  -4   1  475.35   24.10
  -4  -4   1  512.55   35.40
   4  -4  -1  456.65   29.30
  -4  -4   1  461.05   33.80
   4  -4  -1  434.96   20.50
  -4  -4   1  468.35   25.30
   4   4  -1  472.15   25.20
  -4   4   1  508.55   30.70
  -4   4   1  439.86   21.60
  -2  -4   1  154.48   17.50
  -2  -4   1  177.08    8.00
  -2  -4   1  174.88   13.00
   2  -4  -1  200.88   18.60
   2  -4  -1  174.38   11.70
  -2   4   1  166.48   11.70
  -2   4   1  202.48   18.90
   2   4  -1  214.18   19.80
   2   4  -1  194.88   13.80
   0  -4   1  525.95   22.40
   0  -4  -1  554.94   33.50
   0  -4  -1  500.45   24.40
   0   4   1  554.44   33.50
   0   4  -1  569.54   23.80
   0   4  -1  571.14   30.50
   0   4  -1  516.55   21.70
   0   4   1  507.55   24.40
   2  -4   1  257.97   16.90
  -2  -4  -1  285.47   17.90
  -2  -4  -1  277.87   16.80
  -2  -4  -1  250.17   24.20
  -2   4  -1  278.77   11.40
   2   4   1  269.07   19.10
  -2   4  -1  277.27   17.10
   2   4   1  276.17   24.50
  -2   4  -1  269.67   11.40
  -2   4  -1  276.57   19.00
  -4  -4  -1  662.83   42.40
  -4  -4  -1  643.04   32.10
  -4  -4  -1  659.43   38.10
   4   4   1  656.63   41.90
   4   4   1  655.43   38.10
  -4   4  -1  664.73   38.40
  -6  -4  -1   10.80    7.20
  -6  -4  -1    0.80   11.20
  -6  -4  -1    8.50    8.60
   6   4   1   18.90   12.20
   6   4   1   -1.30    7.10
  -6   4  -1   17.40   11.60
  -8  -4  -1  100.19   24.40
  -8  -4  -1  110.19   17.00
  -8  -4  -1  131.89   24.90
  -8  -4  -1  130.59   26.10
   8   4   1  170.28   28.80
  -8   4  -1  137.29   27.70
 -10  -4  -1   42.90   22.00
 -10  -4  -1  125.39   28.30
 -10  -4  -1   62.09   24.30
 -10  -4  -1  119.59   20.50
 -10   4  -1  118.19   10.30
 -12  -4  -1   -1.00   13.10
 -12  -4  -1   -1.80   35.50
 -12  -4  -1   15.50   25.90
 -12   4  -1   -3.90    8.30
 -15  -5   1    0.60   19.20
 -15  -5   1  -35.90   46.50
 -15   5   1    1.60   14.80
 -13  -5   1   16.20   33.80
 -13  -5   1   10.80   13.80
 -13  -5   1   12.70   34.50
 -13   5   1  -17.30   19.00
 -13   5   1   12.60    9.90
 -11  -5   1   52.19   15.60
 -11  -5   1   51.29   20.00
 -11  -5   1   65.29   28.30
 -11   5   1   56.29   13.40
   9  -5  -1   90.79   18.50
  -9  -5   1   89.49   25.40
  -9  -5   1   84.69   19.30
  -9  -5   1  105.69   27.60
  -9  -5   1  112.39   18.20
  -9   5   1  107.69   12.10
  -9   5   1   98.79   19.00
  -9   5   1   98.89   23.00
  -7  -5   1  241.18   36.00
   7  -5  -1  220.38   23.20
  -7  -5   1  229.48   21.70
  -7  -5   1  292.07   22.20
  -7  -5   1  225.38   29.00
  -7   5   1  236.98   16.20
  -7   5   1  244.38   24.70
   7   5  -1  259.07   19.20
   5  -5  -1 1303.47   45.30
  -5  -5   1 1411.66   71.69
   5  -5  -1 1296.07   60.49
  -5  -5   1 1318.07   54.49
  -5  -5   1 1301.67   55.19
   5  -5  -1 1287.77   44.80
  -5  -5   1 1292.97   68.79
  -5   5   1 1257.57   49.30
   5   5  -1 1286.37   54.29
  -5   5   1 1299.77   61.39
  -3  -5   1  230.48   24.10
   3  -5  -1  217.98   13.80
  -3  -5   1  202.18   15.90
   3  -5  -1  249.88   15.40
  -3  -5   1  225.88   12.50
   3   5  -1  259.97   25.40
  -3   5   1  238.08   14.90
   3   5  -1  258.27   17.70
  -3   5   1  270.87   23.30
  -1  -5   1  913.61   37.40
   1  -5  -1  963.70   39.40
  -1  -5   1  890.01   36.90
   1  -5  -1  927.71   37.70
   1  -5  -1  904.11   48.30
   1   5  -1  919.11   47.40
   1   5  -1  882.91   37.70
   1   5  -1  863.51   29.00
  -1   5   1  885.21   37.50
  -1   5   1  875.81   47.80
   1  -5   1  148.39    8.70
   1  -5   1  134.99    8.30
  -1  -5  -1  130.99   12.00
  -1  -5  -1  133.79   21.90
   1  -5   1  101.59   13.50
  -1  -5  -1  150.98   13.40
  -1   5  -1  108.99   13.90
  -1   5  -1  126.09    9.40
  -1   5  -1  158.88   10.70
   1   5   1  143.49   21.90
  -1   5  -1  142.69   11.30
   1   5   1  141.19   12.00
  -3  -5  -1   62.19   16.10
  -3  -5  -1   91.49   12.50
  -3  -5  -1   51.99   10.30
   3  -5   1   81.19   11.20
  -3   5  -1   76.49   10.80
   3   5   1   93.69   20.50
  -3   5  -1   76.09   13.20
  -3   5  -1   66.29    5.00
  -3   5  -1   61.69    5.20
   3   5   1   99.09   15.10
  -5  -5  -1  238.08   28.70
  -5  -5  -1  210.38   18.40
   5   5   1  215.38   26.50
   5   5   1  223.68   22.60
  -5   5  -1  191.78   26.30
  -7  -5  -1   81.69   15.10
  -7  -5  -1  113.59   23.10
  -7  -5  -1   88.69   22.80
   7   5   1   63.09   17.50
   7   5   1   79.19   20.70
  -7   5  -1   52.99   17.30
  -9  -5  -1  128.29   29.10
  -9  -5  -1  220.28   35.20
  -9  -5  -1  187.38   24.40
  -9  -5  -1  171.48   32.00
  -9   5  -1  144.39    9.60
  -9   5  -1  125.09   28.10
 -11  -5  -1   57.79   25.90
 -11  -5  -1   27.10   29.00
 -11  -5  -1   40.90   15.50
 -11  -5  -1   -2.00   23.40
 -11   5  -1   42.00    8.70
 -11   5  -1   43.80   25.20
 -13  -5  -1    0.90   17.10
 -13   5  -1   15.50   10.40
 -14  -6   1    7.60   22.80
 -14   6   1   27.90   13.80
 -12  -6   1   25.70   33.00
 -12  -6   1   23.70   13.40
 -12  -6   1   10.10   16.10
 -12   6   1   22.80   13.00
 -12   6   1   16.00   14.90
 -12   6   1   25.40    9.90
 -10  -6   1  114.19   22.30
 -10  -6   1   91.29   17.90
 -10  -6   1   51.09   31.40
  10  -6  -1   90.79   19.00
 -10  -6   1  147.69   34.00
 -10   6   1   78.49   21.60
 -10   6   1   88.49   19.50
 -10   6   1   90.49   14.90
   8  -6  -1  328.67   29.00
  -8  -6   1  334.57   40.10
  -8  -6   1  287.77   26.80
  -8  -6   1  264.17   39.30
  -8  -6   1  289.07   24.50
  -8   6   1  268.67   28.10
  -8   6   1  231.38   17.50
   8   6  -1  314.17   22.20
  -6  -6   1 1118.69   67.29
   6  -6  -1 1159.58   56.29
  -6  -6   1 1108.99   50.69
  -6  -6   1 1032.40   49.10
  -6  -6   1  986.00   63.09
  -6   6   1  900.71   73.89
  -6   6   1 1034.90   43.00
   6   6  -1 1022.80   47.80
   4  -6  -1  625.84   39.00
   4  -6  -1  581.34   27.00
  -4  -6   1  619.74   32.50
  -4  -6   1  589.14   27.40
   4  -6  -1  561.34   25.80
  -4  -6   1  637.44   45.30
   4   6  -1  662.63   45.00
  -4   6   1  581.64   28.00
  -4   6   1  540.85   37.70
   4   6  -1  594.64   32.20
   2  -6  -1 1508.25   69.99
  -2  -6   1 1445.46   71.09
   2  -6  -1 1439.56   55.39
   2  -6  -1 1485.75   57.09
  -2  -6   1 1442.96   57.59
  -2   6   1 1443.56   56.29
   2   6  -1 1470.95   58.79
   2   6  -1 1359.46   69.39
  -2   6   1 1508.65   70.39
   0  -6  -1 2663.13   95.19
   0  -6  -1 2837.92   97.39
   0  -6   1 2536.05   91.59
   0  -6  -1 2679.03  112.59
   0  -6   1 2896.71   93.19
   0   6   1 2585.34  110.69
   0   6  -1 2552.14   92.59
   0   6  -1 2681.03   88.89
   0   6  -1 2568.54  105.29
   0   6   1 2579.14   94.79
   0   6  -1 2855.71   94.59
   2  -6   1  117.59   17.40
  -2  -6  -1   93.99   13.90
  -2  -6  -1  121.29   24.00
  -2  -6  -1  106.39   11.50
  -2   6  -1  104.89   16.20
  -2   6  -1  109.89    9.20
   2   6   1   80.39   19.10
  -2   6  -1   96.49   11.40
  -2   6  -1  105.49    8.80
  -4  -6  -1    3.20    4.90
  -4  -6  -1   15.10    8.30
  -4  -6  -1   -0.30   10.50
   4  -6   1   10.10    6.00
  -4   6  -1    2.50    2.40
  -4   6  -1   16.60    7.50
  -4   6  -1   10.60    6.30
  -4   6  -1   11.90    3.80
   4   6   1    9.80   11.80
   4   6   1    5.90    6.50
  -6  -6  -1  246.18   37.60
  -6  -6  -1  320.07   24.90
  -6   6  -1  309.87   30.00
  -6   6  -1  247.58   11.30
  -6   6  -1  257.47   11.20
   6   6   1  247.18   26.20
  -8  -6  -1  398.46   31.00
  -8  -6  -1  419.06   38.30
  -8  -6  -1  317.27   41.50
  -8   6  -1  390.26   16.50
  -8   6  -1  363.26   38.90
  -8   6  -1  384.16   17.00
   8   6   1  449.86   39.50
 -10  -6  -1   63.79   31.60
 -10  -6  -1   42.20   26.50
 -10  -6  -1   84.89   19.00
 -10   6  -1   67.59    8.70
 -10   6  -1   46.80   21.80
 -12  -6  -1   54.49   18.70
 -12  -6  -1   83.89   39.30
 -12   6  -1   49.60   10.30
 -15  -7   1    5.20   20.90
 -15  -7   1   48.40   56.19
 -15   7   1   38.00   17.10
 -13  -7   1   61.79   19.00
 -13  -7   1   59.59   42.50
 -13   7   1   27.10   24.10
 -13   7   1   16.20   11.70
 -11  -7   1    7.70   29.40
 -11  -7   1   27.20   14.50
 -11  -7   1   44.40   15.60
 -11   7   1   55.69   23.40
 -11   7   1   34.80    9.80
 -11   7   1    0.30   16.00
  -9  -7   1  205.78   37.90
  -9  -7   1  254.07   41.20
  -9  -7   1  246.38   26.80
   9  -7  -1  246.28   28.20
  -9  -7   1  216.88   24.10
  -9   7   1  251.67   29.90
  -9   7   1  272.27   31.60
  -9   7   1  262.47   19.00
  -7  -7   1  698.93   40.70
   7  -7  -1  744.63   45.70
  -7  -7   1  846.82   60.29
  -7  -7   1  725.83   56.29
  -7  -7   1  730.73   41.60
  -7   7   1  702.33   33.90
   7   7  -1  724.83   38.70
  -7   7   1  690.93   46.30
   5  -7  -1  718.53   30.60
   5  -7  -1  726.93   31.50
  -5  -7   1  823.92   37.20
  -5  -7   1  801.32   56.09
  -5  -7   1  782.12   41.00
   5  -7  -1  781.52   47.30
   5   7  -1  778.42   40.40
   5   7  -1  922.21   58.39
  -5   7   1  781.22   48.00
  -5   7   1  750.42   35.00
   3  -7  -1  352.56   21.20
   3  -7  -1  409.46   23.40
  -3  -7   1  433.36   26.20
  -3  -7   1  438.76   37.70
   3   7  -1  423.66   18.30
   3   7  -1  412.66   26.00
  -3   7   1  395.56   23.00
  -3   7   1  444.26   34.80
   3   7  -1  439.06   37.00
  -1  -7   1 1640.04   63.09
  -1  -7   1 1748.72   64.29
   1  -7  -1 1482.35   62.49
  -1  -7   1 1697.13   79.59
   1  -7  -1 1598.24   64.59
   1   7  -1 1715.03   65.49
  -1   7   1 1633.84   64.19
  -1   7   1 1553.64   78.39
   1   7  -1 1649.63   77.99
  -1  -7  -1 1227.08   53.69
  -1  -7  -1 1272.17   55.19
   1  -7   1 1249.57   62.59
   1  -7   1 1223.38   47.80
   1  -7   1 1320.87   48.70
  -1  -7  -1 1282.07   70.09
  -1   7  -1 1223.98   62.19
  -1   7  -1 1295.07   50.59
  -1   7  -1 1225.58   49.99
  -1   7  -1 1324.67   51.59
   1   7   1 1368.66   54.59
   1   7   1 1450.95   72.59
  -3  -7  -1  135.19   26.50
  -3  -7  -1  137.19   15.60
   3  -7   1  132.09   18.90
  -3  -7  -1  141.39   14.80
  -3   7  -1   98.89   16.60
  -3   7  -1  115.39   10.40
  -3   7  -1  105.99   16.10
  -3   7  -1   96.79    9.20
   3   7   1  142.99   15.30
   3   7   1  185.48   29.70
  -5  -7  -1  222.08   19.90
  -5  -7  -1  249.78   21.80
   5  -7   1  221.48   17.60
  -5  -7  -1  178.98   31.00
   5   7   1  252.37   32.20
  -5   7  -1  213.48   17.40
   5   7   1  210.18   22.50
  -5   7  -1  213.58   12.40
  -5   7  -1  239.28   24.80
  -5   7  -1  217.88   18.50
  -7  -7  -1  433.96   32.00
  -7  -7  -1  602.34   37.20
  -7  -7  -1  444.66   48.00
  -7   7  -1  506.55   42.90
  -7   7  -1  484.75   21.20
   7   7   1  582.84   42.30
   7   7   1  580.84   50.29
  -9  -7  -1  241.88   26.50
  -9  -7  -1  178.68   36.90
  -9   7  -1  238.38   38.20
  -9   7  -1  182.08   12.30
   9   7   1  188.38   32.00
 -11  -7  -1   70.59   37.50
 -11  -7  -1   18.20   17.90
 -11  -7  -1   68.49   19.90
 -11   7  -1   67.99   29.40
 -11   7  -1   76.69   10.60
 -13  -7  -1  -26.80   44.50
 -13  -7  -1   44.90   24.60
 -13  -7  -1    1.80   20.70
 -13   7  -1  -11.70   10.00
 -14  -8   1   32.00   50.39
 -14  -8   1   96.99   32.80
 -14  -8   1   10.30   20.00
 -14   8   1    2.40   12.70
 -12  -8   1   20.30   38.80
 -12  -8   1   66.09   42.30
 -12  -8   1   51.79   19.80
 -12  -8   1   65.49   19.40
 -12   8   1   73.49   14.40
 -12   8   1   52.29   22.90
 -12   8   1   44.10   16.70
 -10  -8   1  111.99   21.80
 -10  -8   1  148.39   40.00
 -10  -8   1  110.59   35.10
  10  -8  -1   95.49   20.70
 -10  -8   1  138.19   23.60
 -10   8   1   99.09   24.50
 -10   8   1  120.29   14.30
 -10   8   1   93.19   22.00
   8  -8  -1  586.14   42.00
  -8  -8   1  635.74   40.10
  -8  -8   1  586.74   38.90
  -8  -8   1  555.14   56.59
  -8  -8   1  665.83   58.49
  -8   8   1  566.74   43.80
  -8   8   1  561.84   31.90
   8   8  -1  589.94   35.90
   6  -8  -1  431.26   36.00
   6  -8  -1  435.06   17.00
   6  -8  -1  439.96   17.20
  -6  -8   1  419.76   30.50
  -6  -8   1  508.25   48.10
  -6  -8   1  402.36   27.00
   6   8  -1  407.46   29.00
  -6   8   1  430.76   24.90
  -6   8   1  448.36   37.40
   4  -8  -1  622.14   31.40
  -4  -8   1  647.64   36.50
   4  -8  -1  645.84   30.10
   4  -8  -1  670.13   45.50
  -4  -8   1  695.33   52.39
  -4   8   1  685.53   46.70
   4   8  -1  757.12   53.29
   4   8  -1  660.33   29.40
  -4   8   1  663.93   33.00
   4   8  -1  617.64   36.20
   2  -8  -1 1582.04   63.79
  -2  -8   1 1609.14   64.79
   2  -8  -1 1514.45   78.39
  -2  -8   1 1631.24   64.49
  -2  -8   1 1613.24   82.89
   2  -8  -1 1557.94   61.99
   2   8  -1 1569.34   50.79
  -2   8   1 1591.04   80.09
   2   8  -1 1509.55   64.89
  -2   8   1 1556.14   63.19
   2   8  -1 1548.65   80.29
   0  -8   1 2135.69   81.19
   0  -8  -1 2231.38  103.69
   0  -8  -1 2210.98   84.69
   0  -8  -1 2312.37   87.29
   0  -8   1 2272.67   82.19
   0  -8   1 2160.28   98.89
   0   8  -1 2167.48   98.69
   0   8  -1 2267.77   84.49
   0   8  -1 2225.88   82.89
   0   8   1 2260.77  117.39
   0   8   1 2262.37   85.49
   2  -8   1   96.39    8.30
  -2  -8  -1  110.29   26.10
   2  -8   1  103.19    8.20
  -2  -8  -1   98.29   14.90
   2  -8   1   88.99   18.90
  -2  -8  -1   83.99   14.80
  -2   8  -1  104.99   11.50
  -2   8  -1   86.09   10.20
  -2   8  -1   73.89   16.90
   2   8   1  116.79   24.20
  -2   8  -1   96.39   11.70
  -4  -8  -1  804.52   41.60
  -4  -8  -1  764.12   43.10
  -4  -8  -1  774.92   58.69
   4  -8   1  813.12   44.30
  -4   8  -1  790.52   34.80
  -4   8  -1  747.63   33.40
   4   8   1  829.72   44.50
   4   8   1  782.12   57.59
  -4   8  -1  802.12   45.10
  -4   8  -1  833.02   44.80
  -6  -8  -1  408.36   44.70
   6  -8   1  324.77   21.50
  -6  -8  -1  364.76   27.90
  -6  -8  -1  399.36   30.80
   6   8   1  383.56   42.80
  -6   8  -1  343.17   19.50
  -6   8  -1  352.06   18.60
   6   8   1  383.76   32.40
  -6   8  -1  428.26   62.59
  -8  -8  -1  231.18   42.10
  -8  -8  -1  259.07   28.30
  -8   8  -1  277.77   34.00
  -8   8  -1  260.37   16.90
  -8   8  -1  260.47   15.50
   8   8   1  254.57   41.50
   8   8   1  289.37   32.80
 -10  -8  -1  124.99   22.90
 -10  -8  -1  175.18   42.90
 -10  -8  -1  205.08   29.70
 -10   8  -1  135.99   12.70
 -12  -8  -1   69.99   46.30
 -12  -8  -1   17.90   19.90
 -12   8  -1   44.60   10.30
 -13  -9   1  -16.00   50.89
 -13  -9   1   51.19   20.70
 -13   9   1   72.59   16.20
 -11  -9   1  157.68   46.80
 -11  -9   1  181.68   28.30
  11  -9  -1  142.99   24.50
 -11  -9   1  136.59   25.70
 -11   9   1  117.29   28.50
 -11   9   1  156.98   18.10
 -11   9   1  147.79   26.20
  -9  -9   1  212.78   25.20
  -9  -9   1  195.58   42.40
   9  -9  -1  208.08   30.60
  -9  -9   1  168.88   40.10
  -9  -9   1  205.58   28.60
  -9   9   1  127.59   25.60
  -9   9   1  194.38   32.60
  -9   9   1  223.98   19.00
   7  -9  -1  604.84   43.60
  -7  -9   1  529.35   36.80
  -7  -9   1  475.85   32.60
  -7  -9   1  537.25   55.19
   7   9  -1  555.24   35.60
  -7   9   1  532.55   43.80
  -7   9   1  516.85   33.40
  -5  -9   1 1023.90   70.69
   5  -9  -1 1004.70   42.50
   5  -9  -1 1000.10   41.10
  -5  -9   1 1029.60   52.19
   5  -9  -1 1042.50   61.39
   5   9  -1  987.60   51.19
  -5   9   1 1041.80   62.49
   5   9  -1 1056.69   69.59
  -3  -9   1 1421.86   63.59
  -3  -9   1 1443.66   82.99
   3  -9  -1 1538.55   61.29
   3  -9  -1 1463.45   77.89
  -3  -9   1 1384.76   62.29
   3  -9  -1 1442.76   58.79
  -3   9   1 1437.76   78.29
   3   9  -1 1571.94   84.09
   3   9  -1 1522.15   65.59
  -3   9   1 1506.35   67.09
   3   9  -1 1446.66   51.09
   1  -9  -1 2590.64  122.89
  -1  -9   1 3013.40  105.89
   1  -9  -1 2799.12  104.39
  -1  -9   1 2887.81  125.69
   1  -9  -1 2881.81  113.79
  -1  -9   1 2913.81  104.19
  -1   9   1 2800.72  105.39
   1   9  -1 2696.63  122.99
   1   9  -1 3005.80  107.29
  -1   9   1 2744.63  125.59
   1  -9   1  637.04   47.30
   1  -9   1  678.13   32.10
   1  -9   1  626.34   31.00
  -1  -9  -1  726.53   38.90
  -1  -9  -1  650.63   52.09
  -1  -9  -1  689.33   36.90
   1   9   1  712.13   37.10
  -1   9  -1  631.24   33.30
  -1   9  -1  715.83   48.30
   1   9   1  671.53   52.09
  -1   9  -1  678.03   31.90
  -1   9  -1  627.14   34.30
  -3  -9  -1  646.24   37.20
  -3  -9  -1  651.83   39.00
  -3  -9  -1  598.64   53.09
   3  -9   1  671.53   44.00
  -3   9  -1  626.44   31.30
  -3   9  -1  634.64   32.40
   3   9   1  655.23   37.50
   3   9   1  600.84   52.39
  -3   9  -1  662.13   45.00
  -3   9  -1  648.34   36.90
  -5  -9  -1  499.95   33.30
  -5  -9  -1  483.65   34.40
   5  -9   1  481.85   34.00
  -5   9  -1  476.65   25.00
  -5   9  -1  480.05   26.20
  -5   9  -1  509.55   37.30
  -5   9  -1  482.45   33.90
   5   9   1  485.85   34.70
   5   9   1  515.85   49.99
   7  -9   1  423.06   22.30
   7  -9   1  406.86   22.30
  -7  -9  -1  494.85   54.29
  -7  -9  -1  415.56   34.10
   7   9   1  371.86   35.30
   7   9   1  512.65   52.99
  -7   9  -1  375.86   22.80
  -7   9  -1  406.86   37.70
  -7   9  -1  403.76   21.90
  -9  -9  -1  309.47   32.00
  -9  -9  -1  255.67   29.90
  -9   9  -1  252.47   38.80
   9   9   1  375.06   38.40
  -9   9  -1  286.27   18.10
 -11  -9  -1   68.59   25.00
 -11  -9  -1   77.09   45.70
 -11  -9  -1   27.30   20.60
 -11   9  -1   58.39   10.60
 -11   9  -1   -0.50   23.90
 -13  -9  -1   -0.10   58.39
 -13  -9  -1   47.20   24.20
 -13  -9  -1   17.40   41.70
 -14 -10   1  -19.30   23.90
 -14 -10   1   76.79   62.89
 -14  10   1    7.20   15.70
 -12 -10   1   81.69   26.40
 -12 -10   1   92.69   23.10
 -12 -10   1   23.30   47.40
 -12 -10   1  127.39   48.50
  12 -10  -1   67.29   20.50
 -12  10   1   58.29   20.60
 -12  10   1   62.79   26.70
 -12  10   1   92.39   16.80
 -10 -10   1  266.77   53.29
 -10 -10   1  404.06   36.90
  10 -10  -1  396.26   40.10
 -10 -10   1  421.16   37.20
 -10 -10   1  419.26   61.79
 -10  10   1  385.06   27.00
 -10  10   1  378.76   42.50
 -10  10   1  360.56   41.80
  -8 -10   1  197.88   40.50
  -8 -10   1  273.07   48.80
  -8 -10   1  235.88   26.40
   8 -10  -1  179.08   30.60
  -8  10   1  196.28   18.50
   8  10  -1  241.38   24.80
  -8  10   1  204.18   32.70
   6 -10  -1  433.36   21.20
  -6 -10   1  468.95   52.89
  -6 -10   1  417.76   33.00
   6 -10  -1  491.65   42.40
   6 -10  -1  466.95   21.20
   6  10  -1  454.65   50.49
  -6  10   1  452.05   42.50
   6  10  -1  458.25   33.50
  -6  10   1  425.06   27.50
  -4 -10   1 1515.05   66.59
   4 -10  -1 1449.46   60.59
  -4 -10   1 1465.95   88.99
   4 -10  -1 1512.15   59.49
  -4 -10   1 1457.75   67.29
  -4  10   1 1526.25   63.49
   4  10  -1 1505.55   55.39
   4  10  -1 1404.76   85.99
  -4  10   1 1576.44   83.89
   4  10  -1 1382.96   67.09
   2 -10  -1 3071.79  110.99
  -2 -10   1 3068.59  111.89
  -2 -10   1 2813.92  132.89
  -2 -10   1 2970.80  110.39
   2 -10  -1 2909.51  131.39
   2 -10  -1 2907.01  107.99
  -2  10   1 2926.21  111.49
   2  10  -1 3012.10  113.29
   2  10  -1 2918.71  133.49
  -2  10   1 2823.32  131.49
   2  10  -1 2925.11   94.49
  -2  10   1 2976.30  110.59
   0 -10   1  895.71   61.79
   0 -10  -1  978.30   49.90
   0 -10   1 1029.60   46.10
   0 -10  -1 1075.79   69.39
   0 -10  -1 1034.10   49.00
   0 -10   1  951.50   46.10
   0  10   1  990.00   67.19
   0  10   1 1078.59   50.09
   0  10  -1 1028.60   49.20
   0  10  -1 1021.10   47.60
   0  10  -1  960.50   62.69
   2 -10   1  931.01   39.90
  -2 -10  -1  966.70   50.69
   2 -10   1 1041.80   61.39
   2 -10   1  954.00   40.60
  -2 -10  -1  885.21   66.29
  -2 -10  -1  974.40   49.50
  -2  10  -1 1004.30   46.00
   2  10   1  937.71   66.99
  -2  10  -1  953.40   59.39
  -2  10  -1 1065.89   47.20
  -4 -10  -1  782.52   64.79
  -4 -10  -1  797.62   45.40
  -4 -10  -1  847.72   47.80
   4 -10   1  894.11   53.29
   4  10   1  826.62   45.50
  -4  10  -1  791.12   39.30
  -4  10  -1  805.92   38.70
  -4  10  -1  805.32   46.60
  -4  10  -1  789.02   51.19
   4  10   1  931.21   68.19
  -6 -10  -1  705.73   44.60
   6 -10   1  694.13   41.50
  -6 -10  -1  709.83   47.40
  -6 -10  -1  612.54   63.39
   6  10   1  657.93   44.70
  -6  10  -1  647.54   46.40
  -6  10  -1  622.54   32.20
  -6  10  -1  696.53   34.60
   6  10   1  702.03   62.79
  -6  10  -1  672.03   41.80
  -8 -10  -1  321.17   51.59
  -8 -10  -1  330.77   31.10
  -8 -10  -1  325.07   33.30
  -8  10  -1  332.07   44.20
   8  10   1  316.47   34.30
  -8  10  -1  294.87   20.10
   8  10   1  328.57   50.39
  -8  10  -1  309.47   22.30
 -10 -10  -1   86.09   22.30
 -10 -10  -1   77.29   45.20
 -10 -10  -1   70.59   20.50
 -10 -10  -1   71.59   38.70
 -10  10  -1  124.89   32.90
 -10  10  -1   74.09   12.90
 -12 -10  -1   72.59   72.69
 -12 -10  -1   41.90   37.40
 -12 -10  -1   86.39   26.70
 -12  10  -1   70.19   15.10
 -13 -11   1  104.19   63.19
 -13 -11   1  112.99   26.90
 -13  11   1   82.09   19.60
  11 -11  -1  180.18   29.70
 -11 -11   1   96.09   35.30
 -11 -11   1   91.29   47.30
 -11 -11   1  210.58   52.89
 -11  11   1  113.19   34.70
 -11  11   1  140.09   28.50
 -11  11   1  141.69   20.20
   9 -11  -1  478.05   44.60
  -9 -11   1  531.65   66.19
  -9 -11   1  562.84   67.09
  -9 -11   1  533.55   40.20
  -9  11   1  499.25   32.20
  -9  11   1  469.65   48.80
  -7 -11   1  189.88   43.60
   7 -11  -1  170.88   30.70
  -7 -11   1  226.08   26.60
   7  11  -1  231.08   52.29
   7  11  -1  216.38   25.30
  -7  11   1  192.58   19.00
  -7  11   1  198.38   34.50
   5 -11  -1  688.23   32.30
  -5 -11   1  678.03   41.20
  -5 -11   1  690.03   62.59
   5 -11  -1  664.93   33.70
   5 -11  -1  741.33   54.19
  -5 -11   1  643.84   41.30
   5  11  -1  537.35   55.89
  -5  11   1  676.33   37.40
   5  11  -1  692.13   42.30
  -5  11   1  669.53   53.89
   5  11  -1  624.14   32.00
   3 -11  -1 2385.26   91.99
  -3 -11   1 2375.06   94.59
   3 -11  -1 2313.17   89.39
  -3 -11   1 2264.87   94.79
   3 -11  -1 2388.86  115.29
  -3 -11   1 2295.27  119.89
  -3  11   1 2235.78   91.59
   3  11  -1 2504.45   98.49
   3  11  -1 2302.27   78.39
   3  11  -1 2501.65  121.29
  -3  11   1 2292.77  115.69
   1 -11  -1  840.62   45.10
  -1 -11   1  801.12   43.10
  -1 -11   1  832.32   61.39
  -1 -11   1  846.02   43.40
   1 -11  -1  883.61   73.69
   1 -11  -1  772.42   42.50
  -1  11   1  860.71   44.70
   1  11  -1  905.81   46.80
  -1  11   1  787.62   61.19
  -1  11   1  878.61   46.40
   1  11  -1  849.02   62.19
   1 -11   1 1394.66   58.59
  -1 -11  -1 1425.86   64.99
  -1 -11  -1 1523.05   89.89
   1 -11   1 1521.35   60.19
  -1 -11  -1 1505.15   67.69
  -1  11  -1 1381.86   61.59
   1  11   1 1361.26   63.89
  -1  11  -1 1475.95   81.89
  -1  11  -1 1442.36   63.99
   1  11   1 1203.18   82.59
  -3 -11  -1  984.70   52.69
  -3 -11  -1 1059.19   77.09
  -3 -11  -1 1037.10   55.19
   3 -11   1 1053.49   64.39
   3 -11   1 1007.50   38.80
   3 -11   1 1071.39   39.80
   3  11   1 1048.20   74.29
   3  11   1  994.50   50.39
  -3  11  -1 1013.70   63.99
  -3  11  -1 1008.10   47.50
  -3  11  -1 1009.20   49.00
  -3  11  -1 1024.70   51.29
  -5 -11  -1  892.61   72.79
   5 -11   1  766.42   50.29
  -5 -11  -1  739.43   45.60
  -5 -11  -1  747.33   48.20
   5  11   1  760.52   66.29
  -5  11  -1  753.82   39.50
  -5  11  -1  736.63   48.00
  -5  11  -1  814.62   52.29
   5  11   1  738.53   45.50
  -7 -11  -1  546.95   39.80
  -7 -11  -1  585.34   43.10
  -7 -11  -1  647.84   65.79
   7 -11   1  493.95   34.60
   7  11   1  489.25   40.70
   7  11   1  578.14   61.99
  -7  11  -1  559.54   37.20
  -7  11  -1  535.85   31.60
  -7  11  -1  527.35   44.50
  -9 -11  -1  105.79   22.90
  -9 -11  -1   70.29   38.60
  -9 -11  -1  173.88   29.90
   9  11   1   78.29   37.10
   9  11   1  122.09   25.10
  -9  11  -1  145.19   25.80
  -9  11  -1  118.19   31.50
 -11 -11  -1   92.59   25.30
 -11 -11  -1   88.79   27.20
 -11 -11  -1   83.29   53.79
 -11  11  -1   82.89   15.30
 -14 -12   1   96.49   31.30
 -14  12   1   33.40   19.00
 -12 -12   1  146.39   30.10
 -12 -12   1   -1.20   53.69
  12 -12  -1  160.68   28.90
 -12  12   1  158.18   39.50
 -12  12   1  109.89   27.70
 -12  12   1  130.69   21.60
  10 -12  -1  134.29   29.00
 -10 -12   1  169.38   48.90
 -10  12   1  193.28   21.10
 -10  12   1  176.28   30.50
 -10  12   1  150.28   33.30
  -8 -12   1  696.63   48.40
  -8 -12   1  808.52   76.79
   8 -12  -1  717.83   56.69
  -8  12   1  719.93   41.30
   8  12  -1  724.93   46.90
  -8  12   1  774.42   62.39
  -6 -12   1  280.47   29.00
  -6 -12   1  309.47   53.19
   6 -12  -1  258.87   17.70
  -6 -12   1  225.68   25.60
   6 -12  -1  266.07   40.20
   6 -12  -1  280.67   17.30
   6  12  -1  277.47   33.10
   6  12  -1  280.87   49.99
  -6  12   1  226.98   22.00
  -6  12   1  302.57   44.70
   4 -12  -1 1246.78   55.69
  -4 -12   1 1344.47   64.49
  -4 -12   1 1328.07   88.79
  -4 -12   1 1281.87   64.59
   4 -12  -1 1300.07   58.59
   4  12  -1 1470.15   90.79
   4  12  -1 1303.17   65.89
  -4  12   1 1356.46   83.79
  -4  12   1 1311.07   60.69
   4  12  -1 1257.27   49.40
   2 -12  -1  920.61   47.10
  -2 -12   1  932.01   69.69
   2 -12  -1  832.22   64.29
  -2 -12   1  823.02   45.10
  -2 -12   1  814.82   45.70
   2 -12  -1  858.81   44.20
   2  12  -1  771.92   46.60
  -2  12   1  902.11   47.20
  -2  12   1  841.82   47.10
   2  12  -1  758.82   62.39
  -2  12   1  897.71   66.49
   0 -12  -1  763.82   44.50
   0 -12  -1  682.43   41.40
   0 -12   1  819.02   41.10
   0 -12   1  763.32   41.00
   0 -12   1  696.63   58.89
   0 -12  -1  733.13   61.19
   0  12  -1  809.12   45.00
   0  12   1  794.22   44.20
   0  12  -1  812.22   61.79
   0  12   1  792.02   64.79
   2 -12   1 1346.97   57.19
   2 -12   1 1549.64   85.59
  -2 -12  -1 1441.56   67.39
  -2 -12  -1 1384.36   90.29
  -2 -12  -1 1430.56   69.29
   2 -12   1 1369.36   56.59
  -2  12  -1 1400.46   82.59
  -2  12  -1 1437.96   62.79
   2  12   1 1358.16   90.79
  -2  12  -1 1412.96   61.09
  -2  12  -1 1401.06   64.19
   4 -12   1 1028.50   64.99
  -4 -12  -1  995.90   81.29
  -4 -12  -1  965.70   55.79
  -4 -12  -1  993.60   54.49
  -4  12  -1  893.71   62.19
   4  12   1  945.51   50.69
   4  12   1  788.82   72.59
  -4  12  -1 1038.80   49.80
  -4  12  -1  962.90   47.10
  -4  12  -1  988.90   53.49
  -6 -12  -1  900.41   52.99
  -6 -12  -1  867.61   78.49
  -6 -12  -1  789.62   52.19
   6 -12   1  782.02   53.69
   6  12   1  917.51   53.59
  -6  12  -1  846.72   55.39
   6  12   1  935.31   78.79
  -6  12  -1  845.42   42.50
  -6  12  -1  844.42   43.90
  -6  12  -1  825.82   54.79
  -8 -12  -1  233.28   28.80
  -8 -12  -1  291.67   33.30
   8 -12   1  243.58   24.50
   8  12   1  202.18   31.20
  -8  12  -1  178.88   32.40
   8  12   1  194.78   45.80
  -8  12  -1  217.28   20.00
  -8  12  -1  178.88   23.10
 -10 -12  -1   70.99   23.60
 -10 -12  -1  116.79   25.90
 -10  12  -1   78.99   30.50
 -12 -12  -1  133.99   33.50
 -12 -12  -1    1.70   67.39
 -12 -12  -1   19.70   30.80
 -12  12  -1   60.49   16.90
 -13 -13   1  116.69   30.90
 -13 -13   1  128.39   73.39
 -13  13   1   99.69   23.20
  11 -13  -1  174.38   33.60
 -11 -13   1  166.18   30.70
 -11 -13   1   25.60   52.29
 -11 -13   1  217.78   58.69
 -11  13   1  192.68   23.30
 -11  13   1  102.39   33.40
 -11  13   1  198.78   35.60
   9 -13  -1  180.18   35.50
  -9 -13   1  278.47   32.90
  -9 -13   1  249.68   53.09
  -9 -13   1  273.07   55.49
  -9 -13   1  363.06   64.19
  -9  13   1  215.88   38.90
  -9  13   1  271.67   26.00
   7 -13  -1  751.22   86.09
   7 -13  -1  705.03   26.40
  -7 -13   1  693.03   71.79
  -7 -13   1  735.83   49.50
  -7 -13   1  684.23   47.30
   7  13  -1  691.73   47.90
  -7  13   1  672.33   61.49
   7  13  -1  633.04   66.79
  -7  13   1  647.94   40.60
  -5 -13   1  307.47   31.00
  -5 -13   1  455.15   65.19
   5 -13  -1  337.17   22.80
   5 -13  -1  299.97   45.80
  -5 -13   1  374.26   32.10
   5  13  -1  375.76   33.60
   5  13  -1  352.36   21.50
   5  13  -1  396.46   58.49
  -5  13   1  370.66   46.70
  -5  13   1  348.17   27.80
   3 -13  -1 1103.49   52.39
   3 -13  -1 1255.07   57.19
   3 -13  -1 1191.28   79.69
  -3 -13   1 1080.59   57.39
  -3 -13   1 1071.49   80.59
  -3  13   1 1094.69   77.79
   3  13  -1 1034.20   40.10
   3  13  -1 1122.39   79.89
  -3  13   1 1056.79   55.29
  -1 -13   1  977.70   50.89
  -1 -13   1  969.60   74.59
   1 -13  -1 1044.90   52.49
   1 -13  -1  978.30   53.19
   1 -13  -1  984.00   73.19
  -1 -13   1  996.10   51.69
   1  13  -1 1045.50   55.39
  -1  13   1  971.20   52.29
   1  13  -1  858.61   69.69
  -1  13   1 1017.00   75.69
   1 -13   1 1008.50   72.19
  -1 -13  -1  916.71   75.49
  -1 -13  -1 1152.78   59.19
   1 -13   1 1064.79   49.60
   1 -13   1 1094.19   50.79
   1  13   1 1078.49   80.69
  -1  13  -1 1035.50   52.79
  -1  13  -1 1006.50   54.19
   1  13   1 1034.70   55.09
  -1  13  -1 1027.50   72.09
  -3 -13  -1 1768.72   85.19
  -3 -13  -1 1893.31  113.79
  -3 -13  -1 1904.21   84.99
   3 -13   1 1825.42   68.69
   3 -13   1 1806.72   67.89
   3 -13   1 1832.72   99.49
  -3  13  -1 1805.72   79.49
   3  13   1 1898.41   78.99
   3  13   1 1969.30  114.19
  -3  13  -1 1836.82   77.79
  -3  13  -1 1714.83   78.09
  -3  13  -1 1942.91  101.59
  -5 -13  -1  734.23   49.50
   5 -13   1  831.82   59.59
  -5 -13  -1  771.92   51.59
  -5 -13  -1  807.52   76.39
  -5  13  -1  826.62   43.60
  -5  13  -1  798.32   59.19
   5  13   1  775.92   73.59
   5  13   1  814.42   48.30
  -5  13  -1  863.11   45.90
  -5  13  -1  821.12   51.19
   7 -13   1  286.17   35.40
  -7 -13  -1  287.27   30.80
  -7 -13  -1  286.57   33.50
  -7 -13  -1  315.77   58.69
  -7  13  -1  281.17   35.40
  -7  13  -1  281.87   25.40
  -7  13  -1  342.57   37.00
  -7  13  -1  253.47   23.30
   7  13   1  326.47   59.79
   7  13   1  265.17   30.60
  -9 -13  -1   73.09   45.10
  -9 -13  -1  175.08   31.60
  -9 -13  -1  102.49   25.60
  -9  13  -1  176.18   20.30
   9  13   1  172.08   50.99
   9  13   1  147.59   30.70
  -9  13  -1   85.29   27.90
 -11 -13  -1  196.98   72.69
 -11 -13  -1  151.08   32.50
 -11 -13  -1  154.98   33.70
 -11  13  -1  116.99   19.10
  12 -14  -1  116.49   33.40
 -12 -14   1  148.79   31.40
 -12 -14   1  189.28   36.80
 -12 -14   1   98.19   65.39
 -12  14   1  163.68   37.30
 -12  14   1  164.48   27.40
 -10 -14   1  186.18   67.79
 -10 -14   1  279.57   39.10
 -10 -14   1  292.37   41.70
  10 -14  -1  201.78   39.40
 -10 -14   1  224.68   61.19
 -10  14   1  245.98   26.50
 -10  14   1  232.28   39.30
 -10  14   1  234.78   44.20
  -8 -14   1  330.67   62.49
   8 -14  -1  417.06   49.60
  -8 -14   1  434.26   39.60
  -8 -14   1  356.26   42.50
  -8  14   1  352.06   52.49
  -8  14   1  394.46   31.60
   8  14  -1  312.97   34.10
   6 -14  -1 1218.48   80.29
   6 -14  -1 1024.30   46.70
  -6 -14   1 1136.39   99.79
   6 -14  -1 1070.89   45.80
  -6 -14   1 1033.10   61.49
  -6 -14   1 1046.80   60.39
   6  14  -1 1111.69   63.49
  -6  14   1 1139.29   80.19
   6  14  -1  940.91   84.19
  -6  14   1  990.20   54.29
   4 -14  -1  480.35   53.09
  -4 -14   1  421.66   34.90
  -4 -14   1  557.14   59.39
   4 -14  -1  488.45   32.20
   4 -14  -1  436.96   28.80
  -4 -14   1  432.96   36.10
   4  14  -1  419.76   21.30
  -4  14   1  389.26   31.20
  -4  14   1  401.26   58.09
   4  14  -1  489.35   55.69
   4  14  -1  354.66   35.00
   2 -14  -1 1111.99   54.29
   2 -14  -1  983.40   77.39
  -2 -14   1  963.60   79.19
   2 -14  -1 1048.10   55.39
  -2 -14   1  960.50   54.19
  -2  14   1  972.50   76.99
   2  14  -1 1065.09   80.29
  -2  14   1 1038.60   55.19
   2  14  -1 1095.89   58.99
   0 -14  -1 1604.54   74.49
   0 -14   1 1493.55   97.09
   0 -14  -1 1645.24  103.29
   0 -14   1 1727.53   73.49
   0 -14  -1 1575.94   76.19
   0 -14   1 1592.54   70.89
   0  14   1 1691.23   76.69
   0  14  -1 1511.75   96.39
   0  14   1 1568.94  102.99
  -2 -14  -1 1894.01   89.99
  -2 -14  -1 1870.51  118.19
   2 -14   1 1973.40   78.69
   2 -14   1 1919.61   76.89
   2 -14   1 1951.40  109.09
  -2 -14  -1 1985.50   88.59
  -2  14  -1 1996.70   86.79
  -2  14  -1 2096.09   80.99
  -2  14  -1 1931.71  108.29
  -2  14  -1 1965.40   84.39
   2  14   1 1856.31  115.59
  -4 -14  -1  716.63   49.90
  -4 -14  -1  757.92   49.70
   4 -14   1  707.53   27.90
  -4 -14  -1  732.03   72.09
  -4  14  -1  714.03   42.00
  -4  14  -1  807.92   63.69
   4  14   1  734.63   43.80
  -4  14  -1  743.93   45.90
  -4  14  -1  766.62   44.90
   4  14   1  662.73   70.69
  -6 -14  -1  530.25   69.09
  -6 -14  -1  441.56   40.80
  -6 -14  -1  562.64   45.00
   6 -14   1  570.24   51.09
   6  14   1  635.34   70.09
  -6  14  -1  560.84   35.90
  -6  14  -1  527.45   44.60
  -6  14  -1  434.16   48.60
  -6  14  -1  600.04   38.40
   6  14   1  537.45   40.40
  -8 -14  -1  315.17   37.10
  -8 -14  -1  206.58   55.89
   8 -14   1  249.58   32.60
  -8 -14  -1  235.18   36.80
   8  14   1  284.07   32.70
  -8  14  -1  268.47   27.90
  -8  14  -1  216.18   36.10
   8  14   1  188.68   54.49
  -8  14  -1  230.68   24.30
 -10 -14  -1  181.68   33.90
 -10 -14  -1  197.08   37.40
 -10  14  -1   64.69   33.90
 -10  14  -1  157.28   22.60
 -13 -15   1  113.49   34.40
 -13  15   1   95.29   23.40
 -11 -15   1  176.28   35.30
 -11 -15   1  160.58   62.99
 -11 -15   1  224.28   39.20
  11 -15  -1  114.69   36.70
 -11  15   1   46.20   36.20
 -11  15   1  106.29   37.00
 -11  15   1  176.68   26.80
  -9 -15   1  394.66   42.40
  -9 -15   1  429.06   42.60
   9 -15  -1  454.45   54.29
  -9 -15   1  333.97   68.29
  -9  15   1  435.96   34.20
  -9  15   1  268.17   49.10
   7 -15  -1  547.75   25.20
  -7 -15   1  584.74   45.60
  -7 -15   1  549.05   65.99
   7 -15  -1  580.64   71.79
   7 -15  -1  537.65   25.70
  -7 -15   1  675.83   78.69
  -7  15   1  517.05   59.99
   7  15  -1  554.44   46.00
   7  15  -1  567.34   71.49
  -7  15   1  537.75   38.20
  -5 -15   1  781.12   51.29
  -5 -15   1  829.22   51.59
   5 -15  -1  772.72   40.70
   5 -15  -1  839.22   70.39
  -5 -15   1  849.22   82.89
   5 -15  -1  834.92   43.60
   5  15  -1  741.53   51.59
  -5  15   1  741.83   46.80
  -5  15   1  781.92   69.19
   5  15  -1  756.52   75.89
  -3 -15   1  873.41   50.39
   3 -15  -1  815.32   47.20
   3 -15  -1  733.83   68.39
   3 -15  -1  829.92   44.80
  -3 -15   1  786.32   76.09
  -3 -15   1  740.13   49.00
  -3  15   1  786.52   47.70
   3  15  -1  797.62   72.69
   3  15  -1  760.12   30.30
   3  15  -1  727.93   49.70
  -3  15   1  752.22   71.29
   1 -15  -1 1244.68   62.49
  -1 -15   1 1237.18   68.39
  -1 -15   1 1055.69   85.19
   1 -15  -1 1136.19   86.79
  -1 -15   1 1192.08   61.79
   1 -15  -1 1369.36   66.69
  -1  15   1 1217.48   63.79
  -1  15   1 1442.26   95.39
   1  15  -1 1166.08   65.19
   1  15  -1 1133.59  102.69
  -1 -15  -1 2303.37  102.69
   1 -15   1 2390.86   93.49
   1 -15   1 2436.66   94.59
  -1 -15  -1 2364.56  100.69
   1 -15   1 2121.69  123.19
  -1 -15  -1 2189.98  131.49
   1  15   1 2242.88  131.49
  -1  15  -1 2245.78  124.09
  -1  15  -1 2262.17   97.39
  -1  15  -1 2341.77  100.69
  -3 -15  -1 1067.09   61.39
   3 -15   1 1113.69   49.80
  -3 -15  -1 1185.48   95.49
   3 -15   1 1149.98   48.60
   3 -15   1 1219.18   82.69
  -3 -15  -1 1052.99   63.79
  -3  15  -1 1150.78   58.49
  -3  15  -1 1092.79   80.49
  -3  15  -1 1105.09   56.39
   3  15   1  957.20   86.19
   3  15   1 1131.69   55.89
  -5 -15  -1  857.71   85.99
  -5 -15  -1  793.12   55.69
  -5 -15  -1  875.11   55.59
   5 -15   1  779.02   65.69
  -5  15  -1  815.42   54.59
  -5  15  -1  791.82   54.59
   5  15   1  841.12   49.99
  -5  15  -1  906.61   49.00
  -5  15  -1  970.60   71.79
   5  15   1  787.62   82.89
   7 -15   1  287.97   41.10
  -7 -15  -1  260.97   32.00
  -7 -15  -1  260.77   32.40
  -7  15  -1  256.57   38.90
   7  15   1  264.97   30.40
  -7  15  -1  282.87   27.20
   7  15   1  294.17   64.09
  -7  15  -1  292.97   39.90
  -7  15  -1  267.47   32.60
  -9 -15  -1  219.28   37.50
  -9 -15  -1  126.59   31.10
   9 -15   1  208.38   28.60
   9 -15   1  135.79   41.20
  -9  15  -1  185.88   37.80
  -9  15  -1  192.58   25.70
 -11 -15  -1  104.09   33.20
 -11  15  -1  107.69   22.60
 -12 -16   1   77.09   82.89
  12 -16  -1  126.89   41.50
 -12 -16   1  147.49   35.60
 -12  16   1   74.49   41.50
 -12  16   1  142.79   30.00
 -10 -16   1  221.38   37.70
 -10 -16   1  251.27   39.70
 -10 -16   1  245.98   69.09
  10 -16  -1  178.98   43.70
 -10 -16   1  157.38   63.49
 -10  16   1  249.58   29.50
 -10  16   1  264.47   45.70
 -10  16   1  188.18   46.10
  -8 -16   1  546.55   47.30
  -8 -16   1  519.15   45.00
   8 -16  -1  578.34   63.89
  -8 -16   1  524.25   83.59
  -8  16   1  436.16   37.20
   8  16  -1  574.04   46.40
  -8  16   1  553.64   68.99
   8  16  -1  387.46   70.09
  -6 -16   1  620.24   78.79
   6 -16  -1  732.23   70.29
   6 -16  -1  647.54   35.20
   6 -16  -1  672.33   38.30
   6  16  -1  624.64   75.89
  -6  16   1  630.14   69.39
  -6  16   1  775.32   47.30
   6  16  -1  622.44   50.49
  -4 -16   1  722.43   48.30
  -4 -16   1  730.73   79.29
   4 -16  -1  778.52   44.90
   4 -16  -1  763.82   70.99
  -4 -16   1  814.52   51.49
   4 -16  -1  705.13   41.50
   4  16  -1  703.03   30.10
   4  16  -1  630.44   71.69
   4  16  -1  667.13   50.39
  -4  16   1  715.73   46.90
  -4  16   1  784.52   73.89
   2 -16  -1  771.82   46.30
   2 -16  -1  629.84   67.89
   2 -16  -1  779.82   48.80
  -2 -16   1  801.82   49.80
  -2 -16   1  815.22   76.79
  -2 -16   1  682.63   46.10
   2  16  -1  803.02   52.09
  -2  16   1  749.82   47.90
   2  16  -1  795.62   30.10
  -2  16   1  716.23   73.99
   2  16  -1  836.72   76.19
   0 -16  -1 1895.21   89.09
   0 -16   1 1817.92   82.89
   0 -16  -1 1910.61  120.39
   0 -16   1 1956.50  118.29
   0 -16  -1 1969.80   87.39
   0 -16   1 1864.01   88.89
   0  16  -1 1937.61   89.79
   0  16   1 1742.73  118.89
   0  16  -1 1601.54  109.49
   0  16   1 1937.31   88.49
   2 -16   1 2173.08   87.89
  -2 -16  -1 2145.29  133.09
  -2 -16  -1 2210.18  101.19
  -2 -16  -1 2126.09   97.39
   2 -16   1 2273.37   87.39
   2  16   1 2087.09  129.79
  -2  16  -1 2014.10  120.69
  -2  16  -1 2224.68   97.59
  -2  16  -1 2120.69   86.89
  -2  16  -1 2065.99   93.29
  -4 -16  -1  954.30   91.19
  -4 -16  -1  848.92   58.09
   4 -16   1  799.72   35.40
   4 -16   1  786.32   71.69
   4 -16   1  836.02   35.00
  -4 -16  -1  791.82   53.29
  -4  16  -1  853.81   49.50
   4  16   1  845.42   82.59
  -4  16  -1  846.52   50.89
  -4  16  -1  861.01   51.89
   4  16   1  867.91   48.70
  -4  16  -1  685.73   80.99
  -6 -16  -1  451.35   43.70
  -6 -16  -1  369.26   39.30
   6 -16   1  415.96   53.29
  -6 -16  -1  373.86   69.69
  -6  16  -1  316.97   51.89
  -6  16  -1  436.86   34.10
   6  16   1  403.06   35.50
  -6  16  -1  438.76   40.50
   6  16   1  472.85   74.49
  -6  16  -1  426.26   36.50
  -8 -16  -1  240.38   38.70
  -8 -16  -1  239.08   36.90
   8 -16   1  251.17   39.00
  -8 -16  -1  273.37   63.49
   8  16   1  243.98   34.60
   8  16   1  276.57   66.59
  -8  16  -1  209.38   38.20
  -8  16  -1  266.47   32.40
  -8  16  -1  297.87   29.60
 -10 -16  -1  171.58   36.40
 -10  16  -1  108.39   23.50
 -11 -17   1  170.08   37.20
  11 -17  -1  221.68   48.40
 -11 -17   1  195.58   78.09
 -11  17   1  137.19   47.40
  -9 -17   1  233.88  113.99
   9 -17  -1  283.47   51.79
  -9 -17   1  322.77   44.80
  -9 -17   1  307.57   45.20
  -9  17   1  319.57   61.49
  -9  17   1  271.87   43.00
  -9  17   1  358.86   33.80
  -7 -17   1  477.65   82.19
   7 -17  -1  593.24   29.00
  -7 -17   1  635.94   49.80
   7 -17  -1  647.84   70.29
  -7 -17   1  581.74   50.39
   7 -17  -1  583.44   29.60
   7  17  -1  639.74   52.09
   7  17  -1  527.65   80.99
  -7  17   1  563.04   42.80
  -7  17   1  598.64   85.39
   5 -17  -1  653.03   38.20
   5 -17  -1  626.44   39.60
  -5  17   1  746.43   74.19
  -5  17   1  621.84   45.20
   5  17  -1  539.85   49.30
   5  17  -1  683.93   76.79
   3 -17  -1  965.00   54.89
  -3 -17   1  885.01   55.99
   3 -17  -1 1006.20   86.49
   3 -17  -1  997.60   52.79
  -3 -17   1  993.60   58.59
  -3 -17   1  887.01   86.69
   3  17  -1  905.21   82.69
   3  17  -1  920.91   34.00
  -3  17   1  945.81   56.79
  -3  17   1  854.71   81.39
   3  17  -1  954.50   60.09
  -1 -17   1  935.61   86.19
   1 -17  -1  872.81   55.69
   1 -17  -1  957.80   85.39
   1 -17  -1  913.91   54.39
  -1 -17   1  953.80   55.29
  -1 -17   1  923.51   53.89
   1  17  -1  987.50   85.29
  -1  17   1  910.61   55.99
  -1  17   1 1006.20   89.39
   1  17  -1  885.31   57.19
   1 -17   1 1533.05   71.89
  -1 -17  -1 1869.71  119.89
  -1 -17  -1 1491.85   79.99
  -1 -17  -1 1427.26   76.39
   1 -17   1 1515.05  106.79
  -1  17  -1 1596.94   80.29
  -1  17  -1 1574.94  106.89
  -1  17  -1 1511.65   64.29
   1  17   1 1609.44  112.89
   3 -17   1 1304.57   56.99
   3 -17   1 1332.27   58.29
   3 -17   1 1256.97   94.19
  -3 -17  -1 1331.37  106.89
  -3  17  -1 1292.07   69.59
   3  17   1 1101.39   99.59
   3  17   1 1325.27   63.09
  -3  17  -1 1250.47   62.69
  -3  17  -1 1298.77   67.49
  -5 -17  -1  595.54   48.30
  -5 -17  -1  627.84   89.19
   5 -17   1  463.15   60.39
  -5 -17  -1  477.45   46.80
   5  17   1  491.35   78.39
  -5  17  -1  470.15   64.19
  -5  17  -1  527.05   41.50
  -5  17  -1  469.15   41.70
  -5  17  -1  614.54   41.20
   5  17   1  532.05   38.40
   7 -17   1  313.97   50.29
  -7 -17  -1  331.77   46.90
  -7 -17  -1  385.76   49.10
  -7 -17  -1  359.86   72.09
  -7  17  -1  248.48   36.10
   7  17   1  292.67   32.70
  -7  17  -1  361.96   54.59
  -7  17  -1  350.66   32.80
   7  17   1  412.26   79.09
  -7  17  -1  414.66   44.10
   9 -17   1  118.29   32.80
  -9 -17  -1  152.98   36.00
  -9  17  -1  213.08   29.70
  -9  17  -1  219.38   43.10
   9  17   1  156.98   29.20
 -10 -18   1  153.88   76.29
 -10 -18   1  244.28   43.30
  10 -18  -1  268.97   54.59
 -10  18   1  104.09   57.59
 -10  18   1  151.08   40.40
 -10  18   1  283.07   32.90
  -8 -18   1  191.28   72.39
  -8 -18   1  404.86   44.00
  -8 -18   1  224.78   40.20
   8 -18  -1  344.27   57.29
   8  18  -1  219.58   63.89
  -8  18   1  314.17   59.99
   6 -18  -1  652.63   72.89
   6 -18  -1  569.34   36.30
   6 -18  -1  605.54   35.10
  -6 -18   1  579.24   89.29
  -6 -18   1  588.04   50.59
   6  18  -1  528.95   82.29
  -6  18   1  653.33   46.70
  -6  18   1  497.55   73.99
   4 -18  -1  582.34   41.60
   4 -18  -1  577.44   74.39
   4 -18  -1  690.63   42.20
  -4 -18   1  691.63   57.19
  -4 -18   1  756.52   85.49
  -4 -18   1  687.73   50.59
   4  18  -1  683.33   52.79
  -4  18   1  615.74   76.09
   4  18  -1  640.44   78.59
  -4  18   1  661.13   46.40
   2 -18  -1 1006.50   57.99
  -2 -18   1  847.72   86.19
   2 -18  -1  831.92   52.19
  -2 -18   1  868.71   55.09
   2 -18  -1  906.01   86.59
  -2 -18   1  942.51   56.29
  -2  18   1  988.70   58.99
   2  18  -1  895.11   87.69
   2  18  -1  872.31   32.80
   2  18  -1  979.60   62.29
  -2  18   1  792.82   85.59
   0 -18  -1  830.62   86.39
   0 -18  -1  695.53   51.09
   0 -18   1  656.03   45.90
   0 -18   1  802.32   95.49
   0 -18  -1  760.42   51.29
   0 -18   1  818.92   47.90
   0  18  -1  622.24   75.79
   0  18   1  777.62   53.29
   0  18   1  772.12   83.19
   0  18  -1  675.73   50.49
  -2 -18  -1 1161.08  104.69
  -2 -18  -1 1252.37   89.79
   2 -18   1 1280.07   60.49
  -2 -18  -1 1157.78   77.39
   2 -18   1 1205.78   60.29
  -2  18  -1 1241.58   67.69
  -2  18  -1 1161.48   57.09
  -2  18  -1 1229.68   70.39
  -2  18  -1 1187.78   94.99
   2  18   1 1286.67  105.99
   4 -18   1  651.83   31.90
   4 -18   1  609.54   71.79
  -4 -18  -1  751.82   92.39
  -4 -18  -1  665.83   52.09
   4 -18   1  612.94   32.30
  -4  18  -1  642.24   45.30
  -4  18  -1  566.34   83.49
   4  18   1  685.43   42.20
   4  18   1  425.46   73.19
  -4  18  -1  701.93   49.50
  -4  18  -1  639.04   45.50
  -6 -18  -1  361.86   42.90
   6 -18   1  357.76   57.79
  -6 -18  -1  412.86   52.59
  -6  18  -1  322.37   33.90
  -6  18  -1  356.76   39.30
   6  18   1  254.37   68.09
   6  18   1  319.27   32.40
  -6  18  -1  361.86   39.90
  -6  18  -1  248.28   55.39
  -8 -18  -1  228.68   43.10
   8 -18   1  165.28   42.70
  -8  18  -1  215.48   31.50
   8  18   1  211.48   33.50
  -8  18  -1  199.48   39.70
  11 -19  -1  207.48   60.99
 -11 -19   1  339.17   52.09
 -11  19   1  280.67   40.10
 -11  19   1  149.88   62.59
  -9 -19   1  253.07   40.80
  -9 -19   1  217.58   73.79
   9 -19  -1  210.78   55.59
  -9  19   1  294.07   39.20
  -9  19   1  225.68   47.40
  -9  19   1  218.88   63.29
  -7 -19   1  273.67   42.80
  -7 -19   1  321.77   79.19
  -7 -19   1  249.78   38.60
   7 -19  -1  202.98   52.79
   7 -19  -1  283.47   21.10
   7 -19  -1  296.27   28.20
   7  19  -1  224.48   62.69
  -7  19   1  277.37   33.30
   7  19  -1  311.07   51.09
   5 -19  -1  620.14   39.40
   5 -19  -1  605.04   40.90
  -5 -19   1  519.45   83.19
  -5 -19   1  521.45   48.80
   5  19  -1  654.83   92.49
  -5  19   1  494.45   74.89
  -5  19   1  551.44   45.50
  -3 -19   1  706.13   95.09
  -3 -19   1  705.63   57.19
   3 -19  -1  746.43   49.50
   3 -19  -1  787.62   89.19
  -3 -19   1  749.42   53.09
   3 -19  -1  703.13   47.10
   3  19  -1  613.94   80.09
  -3  19   1  799.42   86.99
  -3  19   1  804.32   54.29
   1 -19  -1  711.63   49.20
  -1 -19   1  650.53   47.80
   1 -19  -1  700.33   85.09
   1 -19  -1  664.63   50.39
  -1 -19   1  847.92   90.69
  -1 -19   1  732.23   48.50
  -1  19   1  744.73   51.79
   1  19  -1  708.63   52.69
  -1  19   1  621.74   87.09
   1  19  -1  780.02   80.69
  -1 -19  -1  788.72   59.59
   1 -19   1  767.02   47.90
   1 -19   1  745.53   48.80
   1 -19   1  738.03   83.49
  -1 -19  -1  815.42   57.19
  -1 -19  -1  835.72   88.19
  -1  19  -1  720.13   78.29
  -1  19  -1  782.62   56.19
   1  19   1  813.62   90.19
  -1  19  -1  842.12   41.20
  -3 -19  -1  427.16   77.09
  -3 -19  -1  474.65   45.30
   3 -19   1  557.74   72.59
   3 -19   1  561.54   34.40
   3 -19   1  502.75   34.30
  -3  19  -1  539.15   62.99
   3  19   1  502.95   35.50
   3  19   1  593.24   88.39
  -3  19  -1  562.44   73.19
  -3  19  -1  569.14   46.10
  -3  19  -1  493.35   37.30
  -5 -19  -1  380.46   43.40
  -5 -19  -1  462.25   85.89
   5 -19   1  366.26   60.09
  -5 -19  -1  359.56   46.70
   5  19   1  431.96   83.19
  -5  19  -1  484.65   70.49
  -5  19  -1  454.25   44.70
   5  19   1  431.16   35.00
  -5  19  -1  358.96   38.10
  -5  19  -1  355.06   58.59
  -7 -19  -1  267.57   77.39
   7 -19   1  314.17   57.89
  -7 -19  -1  161.48   36.20
   7  19   1  187.68   30.10
   7  19   1  204.68   72.79
  -7  19  -1  216.68   48.80
  -7  19  -1  291.67   42.50
  -7  19  -1  222.28   52.99
  -7  19  -1  323.87   40.60
  -9 -19  -1  140.69   40.40
   9 -19   1  192.08   45.90
  -9  19  -1  212.18   33.40
  -9  19  -1  241.18   53.79
 -10 -20   1  285.07   45.70
  10 -20  -1  286.87  103.09
 -10 -20   1  150.78  127.59
 -10  20   1  286.67   41.60
  -8 -20   1  287.67   42.70
  -8 -20   1  154.08   86.09
   8 -20  -1  209.18   58.79
  -8  20   1  204.38   33.60
  -8  20   1  196.58   59.89
  -6 -20   1  284.87   45.00
   6 -20  -1  264.47   60.49
   6 -20  -1  350.96   29.30
  -6 -20   1  351.46   47.10
   6 -20  -1  326.37   28.20
  -6 -20   1  404.46   84.29
   6  20  -1  302.27   45.90
  -6  20   1  336.17   66.59
   6  20  -1  367.46   76.19
  -6  20   1  311.47   36.00
  -4 -20   1  599.94   50.49
  -4 -20   1  535.35  102.89
   4 -20  -1  650.63   82.79
   4 -20  -1  594.24   43.90
   4 -20  -1  555.64   42.10
  -4  20   1  640.24   48.50
   4  20  -1  589.34   88.29
  -4  20   1  468.95   76.09
   4  20  -1  627.14   62.59
  -2 -20   1  860.31   56.39
  -2 -20   1  706.93   91.89
   2 -20  -1  887.91   56.49
  -2 -20   1  775.32   54.89
   2 -20  -1  811.62   52.89
   2 -20  -1  744.53   93.29
   2  20  -1  876.11   92.09
  -2  20   1  963.40   95.29
  -2  20   1  791.72   55.89
   0 -20   1  727.23   49.60
   0 -20   1  703.33   84.99
   0 -20  -1  778.32   92.59
   0 -20   1  720.73   49.90
   0 -20  -1  807.62   56.69
   0  20   1  693.13   85.59
   0  20  -1  721.43   57.49
   0  20  -1  726.83   34.90
   0  20  -1  660.53  103.49
  -2 -20  -1  341.17   68.49
  -2 -20  -1  485.55   86.09
   2 -20   1  433.66   34.80
   2 -20   1  383.16   33.50
   2 -20   1  317.07   66.99
  -2 -20  -1  424.66   43.50
  -2  20  -1  482.45   45.10
  -2  20  -1  349.87   65.19
  -2  20  -1  381.56   30.00
   2  20   1  306.27   72.69
   2  20   1  376.96   30.30
   4 -20   1  572.34   81.69
  -4 -20  -1  523.75   48.80
  -4 -20  -1  466.75   88.49
  -4 -20  -1  572.24   52.19
   4 -20   1  560.74   32.10
   4  20   1  478.25   86.99
  -4  20  -1  570.54   51.59
  -4  20  -1  538.85   45.30
  -4  20  -1  469.15   74.89
   4  20   1  596.04   40.00
  -6 -20  -1  371.76   51.69
   6 -20   1  479.45   73.29
  -6 -20  -1  335.47   85.99
   6  20   1  278.17   31.80
  -6  20  -1  244.78   59.29
   6  20   1  298.87   77.09
  -6  20  -1  330.37   38.50
  -6  20  -1  428.66   47.20
  -6  20  -1  314.77   42.50
  -8 -20  -1  185.68   43.00
   8 -20   1  202.38   57.19
   8  20   1  193.98   32.80
  -8  20  -1  216.68   34.60
  -8  20  -1  198.88   42.50
   9 -21  -1  270.17   74.49
  -9 -21   1  295.47   49.50
  -9  21   1  255.37   48.60
  -9  21   1  162.38   69.79
  -9  21   1  299.67   43.50
   7 -21  -1  265.97   69.59
  -7 -21   1  321.77   49.30
  -7 -21   1  168.48  123.29
   7 -21  -1  291.27   24.60
   7  21  -1  306.37   77.59
  -7  21   1  335.07   39.10
  -5 -21   1  489.35   49.00
   5 -21  -1  470.75   38.30
   5 -21  -1  398.46   35.70
  -5 -21   1  463.85   89.29
   5 -21  -1  492.15   79.29
  -5 -21   1  440.76   49.99
   5  21  -1  706.03  103.89
   5  21  -1  474.55   53.59
  -5  21   1  528.15   87.79
  -5  21   1  537.15   46.90
  -3 -21   1  818.12  103.69
  -3 -21   1  618.64   60.79
   3 -21  -1  754.32   52.39
   3 -21  -1  690.33   50.09
  -3 -21   1  687.33   54.29
   3 -21  -1  765.32   94.79
   3  21  -1  890.01  100.89
  -3  21   1  724.93   54.29
  -1 -21   1  916.61   68.19
   1 -21  -1 1052.89   65.19
  -1 -21   1  825.92   58.19
   1 -21  -1 1044.90  105.59
  -1 -21   1  909.11  106.19
  -1  21   1  851.91  100.59
   1  21  -1 1021.70   71.59
   1  21  -1 1112.09  106.89
  -1  21   1  955.60   64.09
   1 -21   1  452.85   39.40
  -1 -21  -1  471.75   46.00
  -1 -21  -1  462.05   47.70
  -1 -21  -1  676.73  101.29
   1 -21   1  523.75   41.80
   1 -21   1  447.06   76.09
  -1  21  -1  488.25   82.99
  -1  21  -1  437.56   29.20
   1  21   1  377.26   77.19
   3 -21   1  521.55   84.29
  -3 -21  -1  427.16   86.29
   3 -21   1  488.25   35.40
  -3 -21  -1  449.95   47.40
  -3 -21  -1  404.66   46.70
   3  21   1  412.16   85.49
  -3  21  -1  455.05   36.60
  -3  21  -1  567.04   82.59
   3  21   1  474.65   34.80
   5 -21   1  438.16   76.79
  -5 -21  -1  337.07   48.80
   5  21   1  362.06   93.89
  -5  21  -1  419.16   42.20
  -5  21  -1  264.97   63.79
  -5  21  -1  342.27   40.70
   5  21   1  403.26   34.80
   7 -21   1  387.66   73.49
  -7 -21  -1  348.87   57.39
  -7  21  -1  364.16   96.79
  -7  21  -1  303.97   43.10
  -7  21  -1  270.07   43.40
   7  21   1  278.67   34.10
   8 -22  -1  297.57   76.29
  -8 -22   1  290.37  103.99
  -8 -22   1  366.86   52.79
  -8  22   1  261.37   79.39
  -8  22   1  249.28   46.30
  -8  22   1  367.56   43.90
   6 -22  -1  339.47   31.20
  -6 -22   1  263.27   89.99
   6 -22  -1  264.37   30.70
   6 -22  -1  189.68   69.39
  -6 -22   1  204.28   38.70
  -6  22   1  281.67   73.09
   6  22  -1  298.87   80.29
  -6  22   1  317.17   39.00
  -4 -22   1  515.75   51.99
  -4 -22   1  518.25   95.09
   4 -22  -1  515.95   43.10
  -4 -22   1  509.75   48.90
   4 -22  -1  512.45   88.79
   4 -22  -1  560.44   45.40
   4  22  -1  507.25   91.39
  -4  22   1  550.64   50.59
  -4  22   1  439.96   83.99
   2 -22  -1  850.81  103.79
  -2 -22   1  800.82   56.59
  -2 -22   1  748.93   56.39
  -2 -22   1  836.62  112.09
   2 -22  -1  762.42   56.99
  -2  22   1  835.92   60.69
   2  22  -1  645.74   98.49
  -2  22   1  544.65   89.89
   2  22  -1  732.03   65.39
   0 -22  -1  647.94   52.79
   0 -22   1  570.14   53.89
   0 -22  -1  658.93   96.89
   0 -22   1  616.04   48.40
   0 -22   1  579.04   92.99
   0  22  -1  409.16   80.59
   0  22   1  565.14   96.19
   0  22  -1  639.74   29.50
   0  22  -1  611.14   60.79
  -2 -22  -1  451.55   87.99
  -2 -22  -1  434.16   51.09
  -2 -22  -1  481.55   48.90
   2 -22   1  380.66   36.60
   2 -22   1  459.05   77.49
   2 -22   1  365.56   35.20
  -2  22  -1  343.57   49.50
  -2  22  -1  431.36   31.20
   2  22   1  338.07   83.49
  -2  22  -1  323.47   68.49
   2  22   1  395.86   31.90
  -4 -22  -1  332.37   48.70
   4 -22   1  368.06   28.40
  -4 -22  -1  399.46   88.39
   4 -22   1  325.17   28.10
   4 -22   1  323.37   77.39
   4  22   1  308.57   84.29
  -4  22  -1  394.76   37.70
  -4  22  -1  414.36   49.80
  -4  22  -1  441.96   83.69
   4  22   1  390.66   32.60
   6 -22   1  326.77   77.49
  -6 -22  -1  316.97   48.80
  -6  22  -1  232.78   69.39
  -6  22  -1  433.66   43.80
  -6  22  -1  356.36   49.20
  -6  22  -1  307.17   41.60
   6  22   1  314.67   33.90
  -7 -23   1  440.76   58.59
   7 -23  -1  396.76   30.30
   7 -23  -1  418.76   44.30
   7 -23  -1  234.78   79.09
  -7 -23   1  388.66  109.29
  -7  23   1  359.16   49.20
   7  23  -1  340.17   94.39
   5 -23  -1  165.48   69.89
  -5 -23   1  228.98   84.99
   5 -23  -1  318.57   35.20
  -5 -23   1  386.96   53.79
   5 -23  -1  346.07   37.80
  -5  23   1  311.67   44.80
   5  23  -1  145.89   75.69
  -5  23   1  328.67   79.19
   3 -23  -1  576.14  100.19
  -3 -23   1  483.75   48.30
   3 -23  -1  487.05   45.50
  -3 -23   1  514.15   55.59
  -3  23   1  462.45   88.39
  -3  23   1  554.74   51.69
   3  23  -1  350.06   83.79
   1 -23  -1  660.33   51.99
   1 -23  -1  470.85   48.60
   1 -23  -1  626.14  106.19
  -1 -23   1  595.84   50.09
  -1 -23   1  462.35   47.50
  -1 -23   1  461.35   92.29
   1  23  -1  506.35   92.49
  -1  23   1  587.74   95.89
   1 -23   1  533.95  109.89
   1 -23   1  364.26   40.10
  -1 -23  -1  431.66   91.39
  -1 -23  -1  386.26   44.60
  -1  23  -1  430.16   26.80
   1  23   1  371.46   89.79
  -1  23  -1  298.37   79.19
  -3 -23  -1  216.38   88.49
   3 -23   1  298.97   32.00
   3 -23   1  261.47   32.30
  -3 -23  -1  181.98   37.20
   3 -23   1  262.37   78.89
  -3  23  -1  265.17   31.10
   3  23   1  259.17   81.89
   3  23   1  240.48   29.10
  -3  23  -1  277.87   77.59
  -5 -23  -1  315.87   95.19
  -5 -23  -1  274.67   46.70
   5 -23   1  242.58   75.59
   5  23   1  147.49   86.59
   5  23   1  291.97   30.30
  -5  23  -1  161.78   71.69
  -5  23  -1  223.98   34.50
   6 -24  -1  368.26   37.00
  -6 -24   1  308.57   51.69
   6 -24  -1  340.07   36.30
  -6  24   1  245.18   42.40
   6  24  -1  246.98  103.29
   4 -24  -1  272.27   86.29
  -4 -24   1  214.98   88.29
  -4 -24   1  207.58   37.90
   4 -24  -1  241.98   36.20
  -4  24   1  332.07   85.99
   4  24  -1  273.27   85.99
  -4  24   1  299.77   46.40
  -2 -24   1  439.66   46.00
   2 -24  -1  302.37   42.50
   2 -24  -1  400.46   94.79
   2 -24  -1  272.07   43.10
  -2 -24   1  320.07   90.79
   2  24  -1  242.38   78.99
  -2  24   1  240.58   80.99
   0 -24  -1  406.66   52.89
   0 -24   1  414.46   44.10
   0 -24   1  317.97   92.09
   0 -24   1  391.36   45.70
   0 -24  -1  326.37  104.49
   0  24  -1  387.46   89.59
   0  24   1  217.68   86.69
   2 -24   1  252.37   35.10
   2 -24   1  219.38   79.89
  -2 -24  -1  306.17  100.89
  -2 -24  -1  194.38   38.90
   2 -24   1  229.78   32.90
  -2  24  -1  237.88   25.20
   2  24   1  216.98   25.60
  -2  24  -1  236.18   80.19
   2  24   1  189.08   77.09
   4 -24   1  164.48  109.79
   4 -24   1  168.38   25.00
   4 -24   1  171.68   22.00
  -4 -24  -1  269.47  120.59
  -4 -24  -1  143.59   36.70
   4  24   1   59.39   78.39
   4  24   1  147.99   23.00
  -4  24  -1  200.18   30.30
  -5 -25   1  270.77   49.30
   5 -25  -1  296.07   47.30
  -5  25   1  311.17   48.20
  -3 -25   1  127.09   32.50
   3 -25  -1  231.28   92.99
  -3 -25   1  116.49   98.29
   3 -25  -1  256.97   41.10
   3 -25  -1  140.29   30.80
   3  25  -1  388.56   97.39
  -3  25   1   97.69   83.99
  -1 -25   1  229.88   91.79
   1 -25  -1  232.88   97.29
   1 -25  -1  365.76   49.50
  -1 -25   1  284.87   43.60
  -1  25   1  304.37   95.79
   1  25  -1  299.17   90.29
   1 -25   1  216.08   87.89
  -1 -25  -1  166.08   36.70
   1 -25   1  200.18   39.70
   1 -25   1  229.68   34.40
  -1 -25  -1  223.18   99.49
   1  25   1  230.68   26.40
   1  25   1  213.58   88.19
  -1  25  -1   91.89  138.59
   3 -25   1  245.58   31.70
   3 -25   1  147.19   29.70
  -3 -25  -1  169.28   44.30
   3  25   1   -5.10   81.39
   3  25   1  143.59   22.00
  -3  25  -1  179.28   26.10
 -16   0   2   57.99   21.00
 -16   0   2   58.29   40.70
 -14   0   2   91.69   18.80
 -14   0   2   93.09   29.70
 -14   0   2   86.99   31.50
 -12   0   2  602.34   55.19
 -12   0   2  654.93   53.29
 -12   0   2  708.83   41.20
 -10   0   2  512.55   46.10
 -10   0   2  610.44   34.50
 -10   0   2  560.34   43.40
  -8   0   2 2197.58   99.09
   8   0  -2 2175.68   77.09
   8   0  -2 1978.60   97.19
  -8   0   2 2269.07   83.49
   6   0  -2 2200.78  124.99
   6   0  -2 2775.62   94.49
  -6   0   2 2759.22   96.39
  -6   0   2 2890.51  112.79
   4   0  -2 2590.54  102.49
  -4   0   2 2547.84   89.99
  -4   0   2 2601.84  102.69
   4   0  -2 2513.45   89.29
   2   0  -2 5425.86  188.78
  -2   0   2 5402.86  177.48
  -2   0   2 5504.55  189.18
   2   0  -2 5662.43  178.28
   0   0  -2 2428.36   85.19
   0   0   2 2581.14   93.69
   0   0  -2 2494.95   92.99
   0   0   2 2542.05   82.59
  -2   0  -2 3967.80  136.49
  -2   0  -2 3957.00  127.79
   2   0   2 4036.80  143.09
   2   0   2 4013.20  137.39
  -4   0  -2 3277.07  111.49
  -4   0  -2 3192.98  126.29
   4   0   2 3134.59  126.19
   4   0   2 3323.27  111.89
   6   0   2 1031.00   61.09
  -6   0  -2 1027.80   36.50
  -6   0  -2  950.90   59.49
  -8   0  -2  653.83   91.99
   8   0   2  623.54   50.89
  -8   0  -2  641.44   30.90
 -10   0  -2  214.68   19.90
 -10   0  -2  163.68   43.60
 -12   0  -2   76.19   15.90
 -15  -1   2  137.39   24.20
 -15  -1   2   98.99   40.00
 -15   1   2   98.39   38.00
 -15   1   2  109.39   22.10
 -13  -1   2  111.39   30.70
 -13  -1   2  136.79   36.10
 -13  -1   2  125.89   20.60
 -13   1   2   93.99   29.40
 -13   1   2  163.78   22.80
 -13   1   2   81.79   30.70
 -11  -1   2  476.75   48.40
 -11  -1   2  544.85   34.70
 -11  -1   2  536.45   45.00
 -11   1   2  477.65   43.20
 -11   1   2  564.04   47.80
 -11   1   2  534.45   33.20
   9  -1  -2 1420.16   75.29
  -9  -1   2 1370.66   59.29
  -9  -1   2 1401.86   76.39
   9  -1  -2 1240.18   45.10
  -9  -1   2 1368.76   69.59
   9   1  -2 1357.76   75.99
   9   1  -2 1355.76   51.39
  -9   1   2 1427.26   62.09
  -7  -1   2 2996.40  107.39
   7  -1  -2 3073.49  123.59
  -7  -1   2 2946.71  123.69
   7  -1  -2 2933.91  102.19
   7   1  -2 3032.20  125.09
   7   1  -2 2933.61  104.49
  -7   1   2 2973.70  121.89
  -7   1   2 3027.80  106.39
  -5  -1   2 1974.40   85.79
  -5  -1   2 1945.41   71.99
   5  -1  -2 1898.21   70.09
  -5   1   2 1966.20   71.59
  -5   1   2 1909.91   83.69
   5   1  -2 1982.70   86.09
   5   1  -2 1850.91   70.99
   3  -1  -2 2651.93  101.59
   3  -1  -2 2545.45   89.79
  -3  -1   2 2628.54  102.19
  -3  -1   2 2629.34   90.59
  -3   1   2 2629.04  101.49
   3   1  -2 2597.74   90.39
   3   1  -2 2592.84  102.29
  -3   1   2 2560.14   89.89
  -1  -1   2 9689.33  317.67
  -1  -1   2 9702.43  306.27
   1  -1  -2 9792.22  307.77
   1   1  -2 9657.23  317.77
   1   1  -2 9836.32  307.17
  -1   1   2 9999.00  319.77
  -1   1   2 9640.74  307.17
  -1  -1  -2  390.66   18.50
  -1  -1  -2  384.56   25.20
   1  -1   2  438.76   25.30
   1  -1   2  372.06   22.70
  -1   1  -2  402.46   23.50
   1   1   2  405.56   25.80
  -1   1  -2  368.46   16.60
   1   1   2  437.26   26.00
   1   1   2  387.56   16.00
   3  -1   2 3914.01  126.39
   3  -1   2 3826.22  140.59
  -3  -1  -2 3738.83  133.29
  -3  -1  -2 3640.64  125.29
   3   1   2 3716.63  140.09
   3   1   2 3886.81  134.79
  -3   1  -2 3795.22  125.89
  -3   1  -2 3795.62  139.99
  -5  -1  -2 1824.02   85.89
   5  -1   2 1824.72   86.69
  -5  -1  -2 1938.11   74.39
   5   1   2 1844.82   73.39
   5   1   2 1941.61   88.19
  -5   1  -2 1881.21   86.79
   7  -1   2  788.52   55.59
  -7  -1  -2  782.22   54.49
  -7  -1  -2  839.32   37.60
  -7  -1  -2  822.22   36.90
  -7   1  -2  808.82   55.99
   7   1   2  738.23   53.59
  -9  -1  -2  300.17   22.50
  -9   1  -2  302.57   19.30
 -11  -1  -2  144.09   20.20
 -11   1  -2  184.18   18.40
 -16  -2   2    5.20   43.90
 -16  -2   2   43.30   19.70
 -16   2   2   48.80   21.70
 -16   2   2   87.49   47.00
 -14  -2   2   95.49   29.70
 -14  -2   2   81.09   36.70
 -14  -2   2  107.39   21.40
 -14  -2   2   96.89   38.00
 -14   2   2   90.29   18.30
 -14   2   2   65.99   27.20
 -14   2   2   94.69   29.50
 -14   2   2   74.49   33.30
 -12  -2   2  450.25   42.40
 -12  -2   2  444.56   33.40
 -12  -2   2  469.05   51.69
 -12   2   2  506.35   33.10
 -12   2   2  500.25   47.90
 -12   2   2  435.26   43.90
 -10  -2   2  791.02   52.09
  10  -2  -2  876.41   56.99
 -10  -2   2  787.32   58.99
 -10  -2   2  849.81   44.30
 -10   2   2  835.92   55.79
  10   2  -2  852.01   36.90
 -10   2   2  751.32   54.49
 -10   2   2  798.72   41.30
   8  -2  -2 1043.10   59.89
  -8  -2   2  997.20   53.99
   8  -2  -2 1058.79   42.50
  -8  -2   2  970.70   47.10
  -8  -2   2 1070.99   63.29
  -8   2   2  987.60   45.30
  -8   2   2 1072.49   59.89
   8   2  -2 1027.90   44.20
  -6  -2   2 2871.11  103.99
   6  -2  -2 3092.79  118.59
   6  -2  -2 2955.90  100.19
  -6  -2   2 2983.00  121.39
  -6   2   2 2937.51  102.59
   6   2  -2 2680.43  102.09
  -6   2   2 2849.71  116.39
  -4  -2   2  593.64   29.40
   4  -2  -2  599.84   28.20
   4  -2  -2  635.74   38.30
  -4  -2   2  593.24   38.90
  -4   2   2  637.04   29.00
  -4   2   2  568.74   36.80
   4   2  -2  584.44   29.30
   4   2  -2  671.83   40.90
   2  -2  -2 1004.40   48.70
  -2  -2   2  992.90   48.10
  -2  -2   2  988.30   38.30
   2  -2  -2  919.31   38.10
  -2   2   2  882.21   47.10
  -2   2   2  950.90   38.40
   2   2  -2  948.31   38.30
   2   2  -2  910.71   47.40
   0  -2   2 3785.32  119.19
   0  -2   2 3886.41  131.69
   0  -2  -2 3637.24  123.69
   0  -2  -2 3701.23  135.29
   0  -2   2 3936.81  127.99
   0   2   2 3564.14  135.19
   0   2  -2 3832.32  131.99
   0   2   2 3588.34  122.69
  -2  -2  -2 2227.88   75.89
  -2  -2  -2 2238.68   87.49
   2  -2   2 2103.29   85.39
   2  -2   2 2183.68   76.99
  -2   2  -2 2202.58   77.39
  -2   2  -2 2108.69   84.89
  -2   2  -2 2152.08   69.19
   2   2   2 2215.88   86.99
   2   2   2 2082.79   86.69
   4  -2   2 2387.26   99.29
  -4  -2  -2 2359.46   81.99
  -4  -2  -2 2297.47   93.09
  -4   2  -2 2390.16   98.79
   4   2   2 2304.77   93.59
   4   2   2 2341.17   99.39
  -6  -2  -2  882.31   48.20
  -6  -2  -2  899.51   57.29
   6  -2   2  975.30   58.89
  -6   2  -2  945.31   57.39
   6   2   2  982.00   48.40
   6   2   2  900.91   56.79
  -8  -2  -2  469.85   31.50
  -8  -2  -2  416.66   41.70
  -8  -2  -2  477.05   29.00
   8   2   2  522.05   46.30
  -8   2  -2  528.15   46.30
 -10  -2  -2  192.08   22.50
 -10  -2  -2  173.38   34.20
 -10   2  -2  209.58   16.70
 -12  -2  -2  103.09   21.20
 -12  -2  -2  100.99   20.20
 -12   2  -2   80.29   15.00
 -15  -3   2   56.19   42.00
 -15  -3   2   61.19   43.20
 -15  -3   2   87.49   22.20
 -15   3   2   78.49   19.60
 -15   3   2   95.79   32.50
 -13  -3   2  158.38   40.60
 -13  -3   2  184.98   34.80
 -13  -3   2  186.88   26.70
 -13   3   2  199.48   33.60
 -13   3   2  141.69   33.90
 -13   3   2  217.98   23.20
 -11  -3   2  656.33   41.00
 -11  -3   2  665.63   57.89
 -11  -3   2  647.34   57.29
 -11  -3   2  708.73   50.79
  11  -3  -2  707.33   53.59
 -11   3   2  646.54   50.69
 -11   3   2  669.23   38.00
 -11   3   2  756.92   54.69
  -9  -3   2 1030.00   50.19
  -9  -3   2 1084.29   67.69
  -9  -3   2  965.40   65.59
  -9  -3   2 1051.79   57.39
   9  -3  -2  968.30   85.19
   9   3  -2 1027.50   44.90
  -9   3   2 1020.30   60.59
   7  -3  -2 1157.08   45.10
   7  -3  -2 1266.07   63.99
  -7  -3   2 1252.97   68.49
  -7  -3   2 1231.08   57.89
  -7   3   2 1104.99   48.70
  -7   3   2 1096.49   60.89
   7   3  -2 1135.69   50.29
  -5  -3   2 1695.93   65.99
   5  -3  -2 1644.04   62.39
  -5  -3   2 1720.63   80.99
  -5   3   2 1691.63   63.99
   5   3  -2 1705.63   80.99
   5   3  -2 1652.53   65.39
  -5   3   2 1708.53   77.09
  -3  -3   2 1593.44   61.09
   3  -3  -2 1614.94   71.99
   3  -3  -2 1607.64   60.29
  -3  -3   2 1690.23   74.69
   3   3  -2 1529.25   60.99
   3   3  -2 1655.63   73.99
  -3   3   2 1605.54   60.59
  -3   3   2 1698.63   73.19
   1  -3  -2  946.81   40.00
  -1  -3   2 1053.49   49.30
  -1  -3   2 1056.49   38.80
   1  -3  -2 1006.60   51.89
  -1   3   2  974.10   40.10
   1   3  -2  922.21   47.70
  -1   3   2  988.40   50.99
   1   3  -2 1009.30   39.40
   1  -3   2 1766.02   69.79
  -1  -3  -2 1790.52   77.59
  -1  -3  -2 1785.22   65.29
   1  -3   2 1787.02   68.99
   1   3   2 1779.22   77.69
  -1   3  -2 1759.72   60.09
  -1   3  -2 1761.72   69.69
  -1   3  -2 1800.92   68.99
   1   3   2 1848.12   63.79
  -3  -3  -2 1856.01   80.79
   3  -3   2 1887.41   61.69
   3  -3   2 1883.21   79.29
   3  -3   2 1890.71   61.69
  -3  -3  -2 1729.43   66.89
   3   3   2 1765.52   80.29
   3   3   2 1793.62   78.99
  -3   3  -2 1884.01   78.79
  -5  -3  -2 1402.26   75.99
  -5  -3  -2 1538.75   59.39
   5  -3   2 1491.05   74.59
   5   3   2 1472.05   74.89
  -5   3  -2 1531.55   74.99
   5   3   2 1646.44   73.09
  -7  -3  -2  623.14   37.20
  -7  -3  -2  643.24   33.00
  -7  -3  -2  595.14   46.90
  -7  -3  -2  573.54   41.20
   7   3   2  647.34   49.40
  -7   3  -2  620.74   48.50
  -9  -3  -2  280.97   30.60
  -9  -3  -2  339.87   25.20
  -9  -3  -2  267.77   24.70
  -9  -3  -2  309.97   31.20
   9   3   2  268.17   42.20
  -9   3  -2  257.47   14.40
 -11  -3  -2  143.29   22.90
 -11  -3  -2  140.69   22.80
 -11   3  -2  135.89   14.50
 -16  -4   2   35.60   52.29
 -16  -4   2    7.20   21.60
 -16   4   2   77.19   22.20
 -14  -4   2  118.99   23.20
 -14  -4   2  117.79   43.20
 -14  -4   2   72.49   28.90
 -14   4   2  103.29   31.80
 -14   4   2  107.99   28.20
 -14   4   2  119.09   19.30
 -14   4   2   65.39   25.00
 -12  -4   2  333.07   37.20
 -12  -4   2  305.27   28.70
 -12  -4   2  240.28   43.90
  12  -4  -2  231.98   34.60
 -12   4   2  283.97   38.30
 -12   4   2  309.77   25.10
 -10  -4   2  705.13   58.39
 -10  -4   2  659.83   39.90
 -10  -4   2  701.03   57.09
  10  -4  -2  655.63   49.50
 -10   4   2  677.73   50.29
 -10   4   2  683.53   36.70
  10   4  -2  613.74   32.80
  -8  -4   2 1288.27   74.99
  -8  -4   2 1182.18   55.89
   8  -4  -2 1258.07   66.99
  -8  -4   2 1199.98   59.39
  -8  -4   2 1172.58   71.99
   8  -4  -2 1188.78   43.40
   8   4  -2 1239.58   53.79
  -8   4   2 1252.67   52.49
  -8   4   2 1213.98   66.79
   6  -4  -2 1338.57   66.99
   6  -4  -2 1303.57   50.89
  -6  -4   2 1314.47   71.59
   6   4  -2 1288.77   56.09
  -6   4   2 1370.26   54.19
  -6   4   2 1334.27   67.49
   4  -4  -2 4056.79  136.59
  -4  -4   2 4079.29  155.78
  -4  -4   2 4027.00  139.29
   4  -4  -2 4138.19  152.58
   4   4  -2 4010.00  139.59
  -4   4   2 4029.20  137.39
  -4   4   2 4062.69  152.48
   4   4  -2 4122.99  156.88
  -2  -4   2 2764.92   94.19
   2  -4  -2 2630.54  107.79
   2  -4  -2 2605.24   94.19
   2   4  -2 2767.32   95.09
   2   4  -2 2709.53  108.19
  -2   4   2 2593.24  108.19
  -2   4   2 2756.02   94.89
   0  -4  -2 2357.16   97.19
   0  -4   2 2286.07   78.49
   0  -4   2 2322.67   89.99
   0  -4   2 2345.07   82.49
   0  -4   2 2193.88   76.19
   0  -4  -2 2271.47   82.49
   0   4   2 2327.07   82.29
   0   4   2 2302.67   96.89
   0   4  -2 2314.47   79.29
   2  -4   2 1727.53   66.09
   2  -4   2 1677.93   65.59
   2  -4   2 1715.53   71.89
  -2  -4  -2 1780.42   66.39
  -2  -4  -2 1860.81   81.39
  -2   4  -2 1721.73   57.79
   2   4   2 1803.62   81.19
  -2   4  -2 1690.83   71.29
   4  -4   2 1316.67   64.99
  -4  -4  -2 1382.96   69.09
  -4  -4  -2 1279.17   53.49
   4   4   2 1307.37   65.69
   4   4   2 1313.97   67.99
  -4   4  -2 1304.07   64.49
  -6  -4  -2  694.43   35.50
  -6  -4  -2  633.94   46.40
   6   4   2  684.23   48.10
   6   4   2  691.33   46.80
  -6   4  -2  734.13   49.00
  -8  -4  -2  500.65   43.40
  -8  -4  -2  542.15   43.60
  -8  -4  -2  450.45   30.30
  -8  -4  -2  502.95   32.80
  -8   4  -2  514.15   47.30
   8   4   2  529.25   46.10
 -10  -4  -2  212.58   25.00
 -10  -4  -2  156.48   27.40
 -10  -4  -2  163.28   29.10
 -10  -4  -2  217.78   25.10
 -10   4  -2  163.98   34.90
 -12  -4  -2   72.79   21.80
 -12  -4  -2   66.89   22.30
 -12   4  -2  113.09   13.70
 -15  -5   2   -1.30   46.90
 -15  -5   2   43.80   29.10
 -15  -5   2   72.79   20.90
 -15   5   2   97.29   18.90
 -15   5   2    6.80   29.50
 -13  -5   2  161.08   25.20
 -13  -5   2  194.18   46.20
 -13  -5   2  184.38   32.20
 -13   5   2  168.58   22.80
 -13   5   2  181.88   56.49
 -11  -5   2  555.84   44.40
 -11  -5   2  549.05   38.80
  11  -5  -2  581.94   48.10
 -11  -5   2  518.25   55.89
 -11  -5   2  506.45   54.89
 -11   5   2  536.65   47.20
 -11   5   2  521.55   33.10
 -11   5   2  584.64   49.00
  -9  -5   2  522.65   38.70
   9  -5  -2  647.14   47.50
  -9  -5   2  616.54   54.49
  -9  -5   2  649.04   38.60
  -9  -5   2  565.44   52.79
   9   5  -2  609.94   34.30
  -9   5   2  629.34   33.90
  -9   5   2  591.94   46.20
   7  -5  -2  952.80   56.69
  -7  -5   2  924.21   62.49
  -7  -5   2  995.10   64.79
   7  -5  -2 1018.10   39.60
   7  -5  -2 1000.80   40.40
  -7  -5   2  966.00   48.10
  -7  -5   2  996.40   48.20
  -7   5   2 1006.10   44.40
   7   5  -2  922.81   46.50
  -7   5   2 1022.60   58.49
  -5  -5   2 2851.51  120.39
  -5  -5   2 2684.93  119.19
   5  -5  -2 2689.73   96.29
  -5  -5   2 2672.63  107.59
  -5   5   2 2704.23   98.09
  -5   5   2 2798.12  115.09
   5   5  -2 2859.41  102.39
  -3  -5   2 4534.15  169.88
   3  -5  -2 4521.25  152.38
  -3  -5   2 4619.04  171.58
  -3  -5   2 4493.95  153.58
   3  -5  -2 4682.03  169.98
  -3   5   2 4407.36  152.48
  -3   5   2 4552.44  169.98
   3   5  -2 4524.45  154.48
  -1  -5   2 2002.80   84.79
  -1  -5   2 2004.50   68.79
   1  -5  -2 1804.12   72.99
  -1  -5   2 2166.58   72.09
   1  -5  -2 1923.21   88.29
   1   5  -2 2062.39   73.19
  -1   5   2 1937.01   73.69
  -1  -5  -2 2120.09   94.49
   1  -5   2 2281.17   81.09
   1  -5   2 2156.38   83.89
  -1  -5  -2 2009.60   77.89
   1  -5   2 2121.19   83.69
  -1   5  -2 2075.09   72.89
  -1   5  -2 2073.49   79.49
   1   5   2 2037.90   76.79
   1   5   2 2085.59   94.49
  -3  -5  -2 2900.51  122.59
   3  -5   2 2944.11  100.59
  -3  -5  -2 2761.42  103.59
   3  -5   2 2965.70  113.09
   3  -5   2 2866.41   99.79
   3   5   2 3056.99  123.89
  -3   5  -2 2948.91   93.19
  -3   5  -2 2814.92   92.89
   3   5   2 2880.61  113.79
  -3   5  -2 2855.61  111.79
  -5  -5  -2  503.65   29.50
  -5  -5  -2  537.35   43.60
  -5  -5  -2  525.65   32.20
   5   5   2  474.45   38.50
   5   5   2  502.55   42.70
  -5   5  -2  503.75   38.40
  -7  -5  -2  547.25   33.90
  -7  -5  -2  591.04   36.90
  -7  -5  -2  615.34   48.90
   7   5   2  613.64   47.80
  -7   5  -2  574.14   47.20
   7   5   2  546.45   45.70
  -9  -5  -2  331.97   42.30
  -9  -5  -2  289.77   47.40
  -9  -5  -2  353.96   30.30
  -9  -5  -2  313.87   28.00
  -9   5  -2  338.27   47.30
   9   5   2  333.07   47.60
 -11  -5  -2   98.99   22.80
 -11  -5  -2   24.70   29.30
 -11  -5  -2   72.29   20.10
 -16  -6   2   39.00   61.69
 -16  -6   2   33.20   23.60
 -16   6   2   23.50   18.90
 -14  -6   2   81.49   44.40
 -14   6   2  130.19   21.70
 -14   6   2   95.79   31.20
 -14   6   2   86.39   30.10
 -12  -6   2  110.59   24.40
 -12  -6   2  108.59   19.80
  12  -6  -2  139.59   29.40
 -12  -6   2   85.49   36.20
 -12   6   2  165.28   22.00
 -12   6   2  131.29   30.10
 -10  -6   2  490.45   35.80
 -10  -6   2  577.04   56.39
  10  -6  -2  537.75   45.00
 -10  -6   2  380.86   49.00
 -10  -6   2  486.95   38.60
  10   6  -2  479.65   31.00
 -10   6   2  589.94   32.80
 -10   6   2  508.85   46.70
   8  -6  -2  974.50   36.20
  -8  -6   2 1027.10   70.29
  -8  -6   2 1058.19   51.89
  -8  -6   2  931.91   50.09
   8  -6  -2 1079.09   61.49
  -8  -6   2  973.40   67.39
   8   6  -2  937.21   47.90
  -8   6   2  927.01   60.39
  -8   6   2  989.70   49.60
   6  -6  -2 1966.50   72.19
  -6  -6   2 1925.71   75.09
  -6  -6   2 1947.41   79.79
  -6  -6   2 2016.50   98.89
   6  -6  -2 1949.80   91.09
  -6  -6   2 2089.49  101.69
   6  -6  -2 1866.61   72.99
  -6   6   2 1940.11   75.29
   6   6  -2 1960.80   79.99
  -6   6   2 2127.69   94.59
  -4  -6   2 1406.46   60.79
   4  -6  -2 1504.65   74.39
  -4  -6   2 1409.66   76.29
   4  -6  -2 1490.25   57.69
  -4  -6   2 1431.26   75.39
  -4   6   2 1457.55   58.79
   4   6  -2 1432.56   60.99
  -4   6   2 1488.05   74.29
  -2  -6   2 2843.62  116.69
  -2  -6   2 2765.52   90.39
  -2  -6   2 2920.71  100.99
  -2  -6   2 2956.60  118.69
   2  -6  -2 2909.31  119.49
   2  -6  -2 2773.62  100.99
   2   6  -2 2944.91  102.49
  -2   6   2 2753.32  101.49
  -2   6   2 2622.94  117.19
   0  -6   2 3494.35  116.89
   0  -6  -2 3388.16  138.59
   0  -6   2 3446.86  130.09
   0  -6   2 3367.46  113.69
   0  -6   2 3531.95  131.59
   0  -6   2 3330.57  113.59
   0  -6  -2 3485.55  120.89
   0   6   2 3300.27  138.39
   0   6   2 3510.35  120.49
   0   6  -2 3404.16  116.99
   0   6  -2 3379.06  116.29
   2  -6   2 2253.37   93.79
   2  -6   2 2220.68   87.69
  -2  -6  -2 2311.87  104.59
  -2  -6  -2 2288.47   85.89
   2  -6   2 2288.37   88.69
   2   6   2 2146.09  102.89
  -2   6  -2 2218.68   77.49
  -2   6  -2 2259.67   88.09
   2   6   2 2168.98   90.49
  -2   6  -2 2319.87   77.69
   4  -6   2 1081.49   40.70
  -4  -6  -2 1122.09   50.59
  -4  -6  -2  976.80   64.39
   4  -6   2 1160.38   41.40
  -4  -6  -2 1055.89   51.79
  -4   6  -2 1088.29   38.40
   4   6   2 1082.89   66.19
  -4   6  -2 1118.59   38.40
   4   6   2 1054.99   57.99
  -4   6  -2 1125.09   58.59
  -6  -6  -2  649.83   39.20
  -6  -6  -2  676.93   53.39
  -6  -6  -2  629.24   36.60
   6   6   2  646.14   51.89
  -6   6  -2  686.13   49.20
   6   6   2  623.14   47.00
  -8  -6  -2  362.86   30.90
  -8  -6  -2  367.36   29.30
  -8  -6  -2  426.96   44.40
  -8   6  -2  357.36   47.30
   8   6   2  366.16   39.30
   8   6   2  306.27   41.90
 -10  -6  -2   85.39   36.60
 -10  -6  -2  117.59   39.20
 -10  -6  -2  115.99   23.40
 -10  -6  -2  122.99   22.20
 -10   6  -2  117.59   33.20
 -12  -6  -2  159.98   31.90
 -12  -6  -2   56.69   41.40
 -12  -6  -2   89.39   25.90
 -15  -7   2   48.70   53.99
 -15  -7   2   48.60   29.50
 -15  -7   2   71.89   22.00
 -15   7   2   91.59   20.00
 -13  -7   2  166.28   29.40
 -13  -7   2  128.29   45.10
  13  -7  -2  177.58   33.80
 -13  -7   2  109.89   42.30
 -13  -7   2  177.08   28.90
 -13   7   2  123.59   32.70
 -13   7   2  192.78   22.40
  11  -7  -2   96.09   26.80
 -11  -7   2  184.48   42.30
 -11  -7   2  143.09   23.80
 -11  -7   2  147.39   25.00
 -11  -7   2  124.39   39.50
  11   7  -2  177.38   19.90
 -11   7   2  168.88   33.40
 -11   7   2  172.98   19.50
  -9  -7   2  385.06   31.20
  -9  -7   2  407.56   32.00
   9  -7  -2  422.16   40.70
  -9  -7   2  443.16   48.40
  -9  -7   2  359.16   50.99
  -9   7   2  450.25   27.90
   9   7  -2  363.16   28.40
  -9   7   2  438.26   42.00
   7  -7  -2 1190.38   66.69
  -7  -7   2 1262.97   76.19
  -7  -7   2  987.10   72.09
  -7  -7   2 1158.18   52.49
   7  -7  -2 1132.79   45.30
  -7  -7   2 1191.88   56.69
   7  -7  -2 1158.78   46.40
   7   7  -2 1076.49   54.39
  -7   7   2 1121.59   66.59
  -7   7   2 1166.68   50.99
  -5  -7   2 1923.61   97.49
   5  -7  -2 1970.00   73.69
   5  -7  -2 1932.61   75.39
  -5  -7   2 2023.00   80.29
  -5  -7   2 1990.90  100.19
  -5  -7   2 1939.41   69.89
  -5   7   2 1996.70   94.19
   5   7  -2 1902.21   79.79
   3  -7  -2 1515.35   77.49
  -3  -7   2 1393.26   75.79
  -3  -7   2 1530.25   62.19
  -3  -7   2 1497.35   78.49
   3  -7  -2 1493.95   59.89
   3   7  -2 1413.06   61.49
  -3   7   2 1415.66   60.39
  -3   7   2 1493.25   77.49
  -1  -7   2 1461.05   58.99
  -1  -7   2 1573.74   59.99
   1  -7  -2 1527.55   79.49
   1  -7  -2 1523.15   62.59
  -1  -7   2 1596.94   76.09
  -1   7   2 1527.05   63.19
  -1   7   2 1418.56   78.09
   1   7  -2 1609.84   62.29
   1  -7   2 6221.48  216.58
  -1  -7  -2 5961.70  229.98
   1  -7   2 6244.28  198.58
   1  -7   2 6210.48  195.28
  -1  -7  -2 6248.57  208.38
   1  -7   2 6280.17  217.68
   1   7   2 5841.52  229.48
   1   7   2 6325.67  207.38
  -1   7  -2 6284.67  202.68
  -1   7  -2 6189.38  205.58
   3  -7   2  588.04   33.60
  -3  -7  -2  568.24   33.20
   3  -7   2  570.24   33.80
  -3  -7  -2  490.95   44.80
  -3  -7  -2  516.45   33.70
  -3   7  -2  644.44   37.70
  -3   7  -2  537.35   25.30
   3   7   2  612.94   38.40
   3   7   2  581.94   47.20
  -3   7  -2  527.65   24.90
  -5  -7  -2  553.24   50.29
  -5  -7  -2  586.94   35.30
  -5  -7  -2  599.84   38.00
   5   7   2  629.44   43.70
  -5   7  -2  560.54   23.40
  -5   7  -2  563.04   42.50
   5   7   2  553.24   49.30
  -5   7  -2  591.84   26.70
  -7  -7  -2  288.27   25.90
  -7  -7  -2  276.27   27.30
  -7  -7  -2  183.08   34.70
   7   7   2  246.28   30.40
   7   7   2  224.88   38.30
  -7   7  -2  323.37   36.40
  -9  -7  -2  143.89   23.60
  -9  -7  -2  239.08   31.10
  -9  -7  -2  102.29   30.50
   9   7   2  172.68   32.80
  -9   7  -2  206.38   42.10
 -11  -7  -2  181.98   29.10
 -11  -7  -2  111.99   41.80
 -11  -7  -2  137.89   28.50
 -14  -8   2   63.29   50.69
 -14  -8   2   71.59   23.40
 -14   8   2  151.08   21.80
 -14   8   2   84.49   32.90
 -12  -8   2   48.90   39.50
 -12  -8   2   80.49   22.10
 -12  -8   2   68.59   19.50
  12  -8  -2   91.29   26.90
 -12   8   2   91.49   25.10
 -12   8   2   86.69   15.70
 -12   8   2   62.69   28.00
  10  -8  -2  203.08   33.70
 -10  -8   2  231.78   26.00
 -10  -8   2   90.29   32.30
 -10  -8   2  236.18   26.40
 -10  -8   2  154.98   40.90
 -10   8   2  226.78   37.50
 -10   8   2  213.58   20.50
  10   8  -2  197.08   22.70
   8  -8  -2  802.62   31.40
  -8  -8   2  734.33   41.70
  -8  -8   2  726.53   45.10
  -8  -8   2  715.33   64.39
   8  -8  -2  784.22   37.80
  -8  -8   2  768.12   64.19
   8  -8  -2  836.92   55.99
  -8   8   2  778.02   57.59
   8   8  -2  725.23   43.60
  -8   8   2  809.62   40.50
   6  -8  -2  907.41   58.59
  -6  -8   2  859.21   64.39
   6  -8  -2  952.60   41.70
  -6  -8   2  804.92   45.40
  -6  -8   2  847.52   62.39
  -6  -8   2  845.92   38.90
   6  -8  -2  877.31   39.30
  -6   8   2  899.91   43.10
  -6   8   2  940.51   60.19
   6   8  -2  851.71   46.80
  -4  -8   2 2200.58  106.89
   4  -8  -2 2202.28  101.89
  -4  -8   2 2077.39  103.39
  -4  -8   2 2047.20   83.79
   4  -8  -2 1992.40   79.39
   4  -8  -2 2084.49   82.39
   4   8  -2 2066.19   84.89
  -4   8   2 2187.68  102.49
  -4   8   2 2150.88   82.29
  -2  -8   2 1128.59   48.90
  -2  -8   2 1118.99   65.49
   2  -8  -2 1028.90   48.30
  -2  -8   2 1073.09   47.80
   2  -8  -2 1050.19   50.29
   2  -8  -2  983.80   74.19
   2   8  -2 1180.18   50.99
  -2   8   2 1030.20   64.79
  -2   8   2 1036.90   48.80
   0  -8   2 3478.85  117.69
   0  -8  -2 3399.76  124.39
   0  -8  -2 3369.46  146.49
   0  -8  -2 3486.15  126.89
   0  -8   2 3461.75  138.49
   0  -8   2 3487.55  117.79
   0   8   2 3402.66  147.29
   0   8  -2 3382.46  121.09
   0   8   2 3410.96  123.99
   0   8  -2 3475.65  116.89
  -2  -8  -2 1129.49   72.59
   2  -8   2 1292.67   62.59
   2  -8   2 1159.38   59.89
  -2  -8  -2 1187.88   57.29
  -2  -8  -2 1207.68   55.59
  -2   8  -2 1213.58   49.40
  -2   8  -2 1210.88   55.09
   2   8   2 1128.99   72.89
  -2   8  -2 1257.27   49.10
  -4  -8  -2  220.28   20.90
   4  -8   2  224.38   21.00
  -4  -8  -2  162.28   23.00
   4  -8   2  250.07   21.30
  -4  -8  -2  166.88   36.10
  -4   8  -2  232.08   14.90
   4   8   2  186.08   26.80
  -4   8  -2  219.48   14.80
   4   8   2  182.38   34.40
  -4   8  -2  201.98   22.90
  -6  -8  -2  519.05   35.80
  -6  -8  -2  519.25   37.70
  -6  -8  -2  552.24   54.69
  -6   8  -2  518.45   43.30
   6   8   2  558.44   53.79
  -6   8  -2  575.44   24.30
   6   8   2  538.35   43.00
  -6   8  -2  545.75   24.30
  -8  -8  -2  160.58   24.90
  -8  -8  -2  205.08   28.80
   8   8   2  126.09   31.30
   8   8   2  128.79   32.90
  -8   8  -2  184.48   11.50
  -8   8  -2  133.89   28.10
 -10  -8  -2  157.48   28.90
 -10  -8  -2  114.19   43.30
 -10  -8  -2  118.49   26.30
 -10   8  -2  174.98   12.00
  10   8   2  119.29   30.70
 -10   8  -2  127.39   35.90
 -12  -8  -2   71.59   25.60
 -12  -8  -2   45.80   26.70
 -12  -8  -2   25.90   50.39
 -15  -9   2   40.10   63.79
 -15  -9   2   82.89   25.30
 -15  -9   2   10.10   30.20
 -15   9   2   71.69   20.00
 -15   9   2   38.70   25.80
  13  -9  -2  117.59   31.60
 -13  -9   2   10.80   66.59
 -13  -9   2   93.69   24.30
 -13  -9   2   58.79   48.80
 -13  -9   2  112.49   27.40
 -13   9   2  151.78   35.60
 -13   9   2  149.39   22.60
 -13   9   2   91.39   32.10
 -11  -9   2   54.29   18.50
 -11  -9   2   16.00   31.50
 -11  -9   2   51.59   35.50
 -11  -9   2   52.99   16.60
  11  -9  -2   33.20   24.30
 -11   9   2   33.70   26.20
  11   9  -2   31.50   14.20
 -11   9   2   45.60   12.90
   9  -9  -2  475.55   45.30
  -9  -9   2  415.56   35.10
  -9  -9   2  441.76   33.00
  -9  -9   2  437.96   54.99
  -9  -9   2  475.55   58.29
  -9   9   2  456.35   30.00
  -9   9   2  468.05   47.00
   9   9  -2  485.25   34.80
   7  -9  -2  517.75   27.60
   7  -9  -2  526.85   26.50
  -7  -9   2  469.75   28.70
  -7  -9   2  495.05   35.60
  -7  -9   2  464.25   50.79
  -7  -9   2  499.55   52.89
   7  -9  -2  541.85   45.90
   7   9  -2  472.35   34.90
  -7   9   2  509.75   31.20
  -7   9   2  496.25   45.60
   5  -9  -2 1289.37   60.49
  -5  -9   2 1293.67   80.79
   5  -9  -2 1006.70   70.59
  -5  -9   2 1277.37   59.59
   5  -9  -2 1217.48   52.89
  -5  -9   2 1277.87   79.19
  -5   9   2 1298.07   75.89
   5   9  -2 1268.07   60.59
  -5   9   2 1306.57   56.69
   3  -9  -2 1764.62   71.29
   3  -9  -2 1703.33   91.49
  -3  -9   2 1744.43   72.89
   3  -9  -2 1779.12   73.79
  -3   9   2 1700.93   91.99
  -3   9   2 1829.62   73.19
   3   9  -2 1691.73   73.79
  -1  -9   2 1768.22   71.09
   1  -9  -2 1845.82   77.79
   1  -9  -2 1838.62   75.09
   1  -9  -2 1842.02   96.79
  -1  -9   2 1860.81   72.09
   1   9  -2 1731.73   73.79
  -1   9   2 1950.01   98.59
  -1   9   2 1932.41   76.59
   1   9  -2 1752.52   90.09
  -1  -9  -2 1565.64   89.89
   1  -9   2 1529.85   58.09
  -1  -9  -2 1715.83   72.59
   1  -9   2 1552.74   57.99
  -1  -9  -2 1592.84   69.09
   1  -9   2 1578.54   79.89
  -1   9  -2 1624.14   64.39
  -1   9  -2 1516.55   63.89
   1   9   2 1689.93   92.49
   1   9   2 1642.44   68.59
  -3  -9  -2  526.75   33.70
   3  -9   2  471.55   35.30
  -3  -9  -2  470.05   48.10
  -3  -9  -2  430.76   33.20
   3  -9   2  547.75   37.80
  -3   9  -2  465.05   32.60
   3   9   2  391.56   45.50
  -3   9  -2  500.35   26.70
  -3   9  -2  483.05   26.00
   3   9   2  462.45   34.50
  -5  -9  -2  233.28   24.00
   5  -9   2  283.17   22.00
   5  -9   2  208.68   20.20
  -5  -9  -2  195.28   27.10
  -5  -9  -2  198.48   37.70
  -5   9  -2  267.67   17.00
  -5   9  -2  251.57   17.00
   5   9   2  189.18   29.10
   5   9   2  273.77   43.60
  -5   9  -2  195.28   35.10
  -7  -9  -2  241.48   26.40
  -7  -9  -2  152.48   46.30
  -7  -9  -2  229.28   27.50
   7   9   2  216.98   33.90
  -7   9  -2  249.78   16.60
   7   9   2  186.78   39.50
  -7   9  -2  234.68   15.40
  -7   9  -2  203.88   33.30
  -9  -9  -2   47.30   34.30
  -9  -9  -2  159.88   26.90
  -9  -9  -2  143.69   26.90
  -9   9  -2  167.98   14.90
   9   9   2  129.99   29.50
  -9   9  -2  152.18   13.20
  -9   9  -2  179.88   40.00
 -11  -9  -2   91.09   26.20
 -11  -9  -2   59.89   24.40
 -11  -9  -2   72.39   50.69
 -11   9  -2  101.89   11.90
 -14 -10   2   45.40   35.40
 -14 -10   2  155.18   61.39
  14 -10  -2   31.70   29.70
 -14 -10   2   49.80   22.60
 -14  10   2   54.69   17.20
 -14  10   2   63.09   34.40
 -12 -10   2   83.39   22.70
 -12 -10   2  111.49   47.50
 -12 -10   2   78.79   22.40
  12 -10  -2  177.28   33.90
 -12 -10   2   63.99   45.90
 -12  10   2   51.49   29.60
 -12  10   2  107.49   35.20
 -12  10   2  137.99   21.30
 -10 -10   2   83.79   37.80
 -10 -10   2   56.89   32.30
  10 -10  -2  107.89   30.10
 -10 -10   2   95.09   19.50
 -10 -10   2   73.29   18.00
 -10  10   2   87.09   17.00
  10  10  -2   69.99   20.80
 -10  10   2  107.89   30.50
  -8 -10   2  308.77   52.29
  -8 -10   2  201.88   42.00
  -8 -10   2  231.28   21.50
   8 -10  -2  268.37   17.00
   8 -10  -2  274.07   16.10
   8 -10  -2  317.87   44.20
  -8 -10   2  253.17   27.60
  -8  10   2  320.77   45.10
   8  10  -2  258.17   27.00
  -8  10   2  293.67   23.70
  -6 -10   2  490.25   52.49
   6 -10  -2  535.95   30.90
   6 -10  -2  490.55   28.00
   6 -10  -2  501.05   46.70
  -6 -10   2  479.45   52.19
  -6 -10   2  447.26   33.90
  -6  10   2  516.05   31.80
   6  10  -2  486.05   35.00
  -6  10   2  522.95   48.70
   4 -10  -2 1595.74   88.99
   4 -10  -2 1527.75   65.49
   4 -10  -2 1624.74   68.69
  -4 -10   2 1635.54   94.09
  -4 -10   2 1540.85   69.69
  -4  10   2 1620.84   68.89
  -4  10   2 1735.43   92.59
   4  10  -2 1415.06   69.89
  -2 -10   2 1590.04   67.19
  -2 -10   2 1531.95   65.99
   2 -10  -2 1460.55   86.49
  -2 -10   2 1682.73   89.79
   2 -10  -2 1631.84   70.59
   2 -10  -2 1599.44   67.79
   2  10  -2 1475.95   85.09
  -2  10   2 1623.14   69.19
  -2  10   2 1545.15  104.19
   2  10  -2 1548.45   69.09
   0 -10   2  941.41   75.19
   0 -10  -2  904.91   49.50
   0 -10  -2  877.31   65.59
   0 -10   2  957.00   42.90
   0 -10  -2  945.11   48.40
   0 -10   2  965.40   42.90
   0  10  -2  930.11   46.50
   0  10  -2  973.10   39.90
   0  10  -2 1008.40   62.39
   0  10   2  948.11   48.00
   0  10   2  941.21   68.29
  -2 -10  -2  857.61   67.39
  -2 -10  -2  888.51   49.20
   2 -10   2  862.81   30.50
   2 -10   2  905.91   56.79
   2 -10   2  827.12   30.20
  -2 -10  -2  905.71   47.80
  -2  10  -2  972.70   46.00
   2  10   2  769.62   62.99
  -2  10  -2  899.51   42.80
   4 -10   2  189.28   26.50
  -4 -10  -2  156.98   24.90
  -4 -10  -2  163.38   27.30
   4 -10   2  220.68   25.60
  -4 -10  -2  118.79   35.10
   4  10   2  167.38   24.80
  -4  10  -2  162.28   15.50
  -4  10  -2  173.28   21.60
  -4  10  -2  178.58   16.70
   4  10   2  195.98   40.10
  -6 -10  -2  202.28   43.60
   6 -10   2  208.48   23.80
   6 -10   2  257.27   17.40
  -6 -10  -2  190.18   28.90
  -6 -10  -2  222.48   25.70
   6  10   2  172.78   41.20
   6  10   2  213.48   33.40
  -6  10  -2  222.28   17.10
  -6  10  -2  305.67   33.00
  -6  10  -2  215.48   17.80
  -8 -10  -2  169.08   28.80
  -8 -10  -2  200.38   30.20
   8  10   2   98.29   37.00
  -8  10  -2  213.68   36.20
  -8  10  -2  184.98   15.70
  -8  10  -2  180.08   16.50
   8  10   2  183.48   46.10
 -10 -10  -2  170.98   30.80
 -10 -10  -2  131.09   48.80
 -10 -10  -2  120.79   27.80
  10  10   2  100.99   30.00
 -10  10  -2  118.99   14.30
 -15 -11   2    6.60   23.70
 -15  11   2   55.89   20.50
  13 -11  -2   42.90   32.20
 -13 -11   2   57.19   23.80
 -13 -11   2   72.89   49.20
 -13 -11   2   23.50   19.20
 -13  11   2  120.39   54.69
 -13  11   2   64.49   35.10
 -13  11   2   73.89   18.80
 -11 -11   2  135.89   45.30
 -11 -11   2  175.08   28.70
  11 -11  -2  155.78   34.70
 -11 -11   2   34.40   44.00
 -11  11   2  123.29   35.20
 -11  11   2  162.08   23.10
  11  11  -2  153.28   25.80
  -9 -11   2   72.19   34.60
  -9 -11   2   84.79   21.00
   9 -11  -2   91.99   28.90
  -9 -11   2   96.19   18.00
  -9 -11   2   66.39   33.40
   9  11  -2   77.09   17.50
  -9  11   2   97.19   30.00
  -9  11   2   78.09   16.10
  -7 -11   2  313.27   52.19
  -7 -11   2  340.07   55.59
   7 -11  -2  302.67   20.50
   7 -11  -2  327.07   22.30
  -7 -11   2  338.17   30.90
   7 -11  -2  325.57   42.00
  -7  11   2  298.17   25.20
  -7  11   2  285.87   45.30
   7  11  -2  275.77   33.40
   5 -11  -2  297.87   24.20
  -5 -11   2  299.37   26.60
  -5 -11   2  288.17   45.70
   5 -11  -2  380.36   41.10
   5 -11  -2  280.37   21.80
  -5  11   2  286.07   44.50
  -5  11   2  315.87   25.40
   5  11  -2  314.77   29.10
   3 -11  -2 1336.67   59.79
  -3 -11   2 1251.07   59.89
  -3 -11   2 1287.97   82.99
   3 -11  -2 1269.47   61.19
   3 -11  -2 1376.96   83.09
  -3 -11   2 1264.07   60.89
  -3  11   2 1255.37   60.19
  -3  11   2 1321.57   82.59
   3  11  -2 1397.86   64.69
  -1 -11   2  920.11   44.90
  -1 -11   2  894.21   45.00
  -1 -11   2  837.02   63.69
   1 -11  -2  966.10   51.09
   1 -11  -2  983.60   69.89
   1 -11  -2  941.41   48.40
   1  11  -2  897.01   34.20
  -1  11   2  949.60   69.89
  -1  11   2 1014.40   50.39
   1  11  -2  879.11   63.59
   1  11  -2  868.11   47.50
  -1 -11  -2  639.64   38.70
  -1 -11  -2  529.45   37.60
   1 -11   2  550.44   48.50
  -1 -11  -2  675.73   59.29
   1 -11   2  556.94   28.80
   1 -11   2  571.54   29.30
   1  11   2  570.34   56.69
  -1  11  -2  574.84   34.70
   1  11   2  596.04   37.10
  -1  11  -2  653.33   50.29
  -1  11  -2  610.34   31.90
  -3 -11  -2  159.38   27.30
   3 -11   2  191.68   31.40
  -3 -11  -2  171.58   25.90
  -3  11  -2  187.78   20.50
   3  11   2  197.08   22.90
   3  11   2  140.19   34.70
  -3  11  -2  180.98   17.30
  -3  11  -2  135.79   16.50
   5 -11   2  410.16   33.60
   5 -11   2  418.26   34.30
  -5 -11  -2  462.75   63.69
  -5 -11  -2  376.76   34.30
  -5 -11  -2  429.26   35.00
  -5  11  -2  370.46   25.60
  -5  11  -2  412.66   35.70
   5  11   2  368.16   35.50
   5  11   2  373.56   56.79
  -7 -11  -2   79.49   23.70
  -7 -11  -2   95.99   21.80
  -7  11  -2  143.09   15.90
   7  11   2   90.39   33.90
  -7  11  -2  125.29   27.40
   7  11   2   54.79   20.60
  -7  11  -2  106.09   14.80
  -9 -11  -2   60.39   21.50
  -9 -11  -2  114.99   25.60
   9  11   2   78.29   24.60
  -9  11  -2  111.19   15.50
  -9  11  -2   94.39   14.30
  -9  11  -2   54.99   28.00
 -11 -11  -2   78.49   28.20
 -11 -11  -2   71.49   28.20
 -11  11  -2   32.40   13.20
  14 -12  -2   38.80   33.10
 -14 -12   2    7.00   20.70
 -14  12   2   24.80   34.80
 -14  12   2   19.80   16.80
 -12 -12   2   34.90   46.40
 -12 -12   2   58.99   47.50
 -12 -12   2   83.19   23.90
  12 -12  -2   98.99   34.70
 -12  12   2   94.39   19.60
 -12  12   2   81.19   41.10
 -12  12   2   68.09   24.60
 -10 -12   2  140.09   43.40
  10 -12  -2  133.89   32.50
 -10 -12   2  165.98   51.49
 -10 -12   2  146.49   37.80
  10  12  -2  211.38   30.30
 -10  12   2  172.18   39.10
 -10  12   2  189.98   22.20
   8 -12  -2    1.00    6.40
   8 -12  -2   -6.00   19.60
   8 -12  -2   26.00    6.80
  -8 -12   2   18.50   14.40
  -8 -12   2   36.60   29.30
   8  12  -2   29.80   13.60
  -8  12   2   24.50   10.60
  -8  12   2   17.30   24.60
  -6 -12   2  259.77   27.30
  -6 -12   2  289.17   52.19
   6 -12  -2  288.77   21.90
   6 -12  -2  322.37   24.60
   6  12  -2  235.78   26.80
  -6  12   2  293.27   25.70
  -6  12   2  252.67   44.30
  -4 -12   2  787.12   47.10
   4 -12  -2  876.81   45.00
   4 -12  -2  861.81   47.20
  -4 -12   2  808.72   47.20
   4 -12  -2 1033.40   71.99
  -4 -12   2  814.82   69.09
   4  12  -2  815.72   55.19
  -4  12   2  985.30   70.89
  -4  12   2  853.41   47.20
   4  12  -2  779.52   66.99
   2 -12  -2  852.21   45.90
   2 -12  -2  826.22   66.59
  -2 -12   2  803.72   44.30
  -2 -12   2  871.21   67.19
   2 -12  -2  825.52   47.30
  -2 -12   2  823.62   45.10
   2  12  -2  859.61   65.49
   2  12  -2  812.12   47.60
  -2  12   2  904.71   69.89
  -2  12   2  854.31   47.60
   0 -12   2  431.36   27.50
   0 -12   2  420.16   26.90
   0 -12  -2  401.86   48.60
   0 -12  -2  406.86   30.90
   0 -12  -2  461.25   34.10
   0  12  -2  435.46   23.00
   0  12   2  423.86   31.40
   0  12  -2  409.76   44.10
   0  12   2  409.16   48.80
   0  12  -2  428.46   31.10
  -2 -12  -2  194.78   42.20
  -2 -12  -2  214.88   28.60
   2 -12   2  193.58   13.60
  -2 -12  -2  236.88   26.50
   2 -12   2  242.88   37.40
   2 -12   2  230.08   14.00
  -2  12  -2  190.18   20.50
  -2  12  -2  232.58   36.80
  -2  12  -2  219.48   20.40
  -2  12  -2  224.28   20.60
   2  12   2  181.88   39.70
  -4 -12  -2  194.38   43.80
  -4 -12  -2  235.08   31.50
   4 -12   2  206.08   32.80
  -4 -12  -2  175.68   28.50
  -4  12  -2  221.78   19.90
  -4  12  -2  173.98   19.10
   4  12   2  196.18   24.30
  -4  12  -2  240.88   25.10
   4  12   2  155.68   39.40
  -6 -12  -2   96.69   22.60
  -6 -12  -2   72.49   20.90
   6 -12   2   77.29   24.50
   6 -12   2   43.40   17.10
  -6 -12  -2   67.89   33.50
  -6  12  -2  110.09   24.40
  -6  12  -2   73.79   13.50
   6  12   2   85.49   22.20
  -6  12  -2  113.19   16.70
   6  12   2   64.19   34.10
  -8 -12  -2  105.29   46.90
  -8 -12  -2   56.79   21.40
  -8 -12  -2   83.89   23.50
   8  12   2   43.00   39.00
  -8  12  -2   82.19   15.50
   8  12   2  101.89   22.70
  -8  12  -2  118.19   15.80
  -8  12  -2  107.39   29.50
 -10 -12  -2   73.39   26.70
 -10 -12  -2   86.69   29.80
  10  12   2   46.50   25.20
 -13 -13   2  -25.60   59.19
  13 -13  -2   25.60   34.70
 -13 -13   2   28.50   22.40
 -13  13   2   64.39   17.80
 -13  13   2    1.50   37.10
 -11 -13   2   71.49   52.19
 -11 -13   2   95.09   24.90
  11 -13  -2    5.90   29.70
 -11  13   2   43.90   36.10
  11  13  -2   35.40   20.50
 -11  13   2   76.79   18.20
  -9 -13   2  118.69   44.00
  -9 -13   2   66.19   37.60
   9 -13  -2  207.48   40.20
  -9 -13   2  156.88   27.20
   9  13  -2  105.39   22.40
  -9  13   2  160.58   41.90
  -9  13   2  186.28   21.70
  -7 -13   2   -4.60    9.80
  -7 -13   2   34.70   34.80
   7 -13  -2   18.20   22.40
   7 -13  -2    7.10    8.10
   7 -13  -2    7.30    6.60
  -7  13   2   14.00    8.90
   7  13  -2    2.50   11.10
  -7  13   2   47.20   27.70
   5 -13  -2  358.86   26.80
  -5 -13   2  379.56   58.69
   5 -13  -2  356.76   52.39
   5 -13  -2  314.87   27.30
  -5 -13   2  320.27   29.40
  -5 -13   2  369.26   32.50
   5  13  -2  367.66   57.79
   5  13  -2  342.87   31.80
  -5  13   2  369.86   29.30
  -5  13   2  393.16   55.49
  -3 -13   2 1178.48   59.19
   3 -13  -2 1191.38   57.99
  -3 -13   2 1268.47   87.19
   3 -13  -2 1114.49   59.69
  -3 -13   2 1139.49   59.19
   3 -13  -2 1085.99   79.99
  -3  13   2 1243.28   85.39
   3  13  -2 1145.59   62.89
   3  13  -2 1166.88   83.29
  -3  13   2 1298.97   62.29
  -1 -13   2  582.64   36.40
   1 -13  -2  662.33   42.30
   1 -13  -2  595.84   59.89
  -1 -13   2  462.45   53.29
  -1 -13   2  636.04   37.50
   1  13  -2  621.54   40.70
   1  13  -2  594.94   24.30
   1  13  -2  590.64   54.79
  -1  13   2  598.24   59.19
  -1  13   2  662.03   41.40
   1 -13   2  100.09   15.20
  -1 -13  -2   67.89   17.70
  -1 -13  -2  115.09   34.90
   1 -13   2   99.69   27.60
   1 -13   2   94.99   14.50
  -1 -13  -2   57.49   15.80
   1  13   2   69.79   17.10
  -1  13  -2   72.69   26.30
  -1  13  -2   97.99   14.40
   1  13   2   98.09   31.80
  -1  13  -2   68.09   15.50
  -3 -13  -2   84.99   19.10
  -3 -13  -2   30.50   13.70
   3 -13   2   24.80   22.10
  -3 -13  -2   57.89   29.10
   3  13   2   80.29   17.40
   3  13   2   52.19   30.20
  -3  13  -2   73.79   15.70
  -3  13  -2   63.99   22.50
  -3  13  -2   75.29   15.20
  -3  13  -2   63.49   14.80
   5 -13   2  117.69   25.90
   5 -13   2  190.38   31.70
  -5 -13  -2  188.38   30.10
  -5 -13  -2  140.69   26.60
  -5 -13  -2  153.08   44.90
  -5  13  -2  179.78   19.60
  -5  13  -2  163.48   27.70
   5  13   2  155.28   43.80
   5  13   2  108.49   22.60
  -5  13  -2  175.48   20.80
   7 -13   2  120.59   19.50
  -7 -13  -2   23.60   40.00
   7 -13   2  124.59   17.90
  -7 -13  -2  129.39   28.80
  -7 -13  -2  111.69   24.50
   7  13   2   93.49   24.20
  -7  13  -2  150.38   20.50
  -7  13  -2  143.69   32.00
  -7  13  -2  102.09   17.00
   7  13   2   97.99   42.70
  -9 -13  -2   82.19   26.70
   9  13   2   35.40   19.60
  -9  13  -2   52.79   14.00
  -9  13  -2   22.90   14.60
  -9  13  -2    8.10   27.00
 -14 -14   2   23.40   25.30
 -14  14   2   16.30   20.60
 -12 -14   2   13.60   21.90
  12 -14  -2   33.20   54.79
 -12 -14   2   34.10   59.09
 -12  14   2    3.70   14.60
 -12  14   2    3.00   25.20
 -10 -14   2   86.29   22.60
  10 -14  -2   55.69   32.60
 -10 -14   2   51.19   42.00
 -10 -14   2   73.19   49.60
 -10  14   2   68.49   36.80
 -10  14   2   84.59   19.50
  10  14  -2   93.59   23.80
  -8 -14   2  120.99   25.00
  -8 -14   2   56.79   19.00
   8 -14  -2   86.99   33.40
   8 -14  -2  116.29   14.60
  -8 -14   2  113.19   43.70
   8 -14  -2  123.89   14.60
  -8 -14   2   96.09   41.80
  -8  14   2  109.39   38.30
   8  14  -2  107.49   23.70
  -8  14   2   86.39   18.60
   6 -14  -2    5.30    7.40
  -6 -14   2    7.90   10.30
  -6 -14   2    8.30   10.10
   6 -14  -2    2.80    8.00
  -6 -14   2   -0.80   27.70
   6  14  -2   14.70   14.30
  -6  14   2   10.00   23.60
  -6  14   2   -0.70    7.80
   4 -14  -2  533.45   36.00
  -4 -14   2  489.25   36.60
   4 -14  -2  533.45   37.80
   4 -14  -2  601.54   61.09
  -4 -14   2  625.04   64.09
  -4 -14   2  571.04   40.20
   4  14  -2  483.25   58.49
  -4  14   2  639.74   63.19
   4  14  -2  567.54   42.60
  -4  14   2  535.65   38.40
   2 -14  -2  692.33   42.20
  -2 -14   2  678.63   42.10
   2 -14  -2  742.83   67.99
  -2 -14   2  645.04   40.50
   2 -14  -2  668.23   45.00
  -2  14   2  653.43   42.60
   2  14  -2  586.54   42.80
  -2  14   2  700.33   65.79
   2  14  -2  720.73   64.29
   0 -14   2   67.39   27.90
   0 -14   2  127.59   18.10
   0 -14  -2  122.29   23.50
   0 -14  -2  100.29   34.10
   0 -14  -2  139.29   24.30
   0 -14   2  105.69   17.50
   0  14  -2   56.49   26.80
   0  14   2  107.79   21.80
   0  14   2  144.19   39.40
   0  14  -2  132.49   11.80
   2 -14   2  107.09   12.10
  -2 -14  -2  163.18   26.50
   2 -14   2  115.19   30.90
  -2 -14  -2   81.29   19.60
   2 -14   2  104.79   12.50
  -2 -14  -2  160.08   41.90
   2  14   2  129.99   38.00
  -2  14  -2  137.29   19.60
  -2  14  -2  164.68   24.60
  -2  14  -2   70.89   26.70
   4 -14   2  181.58   34.80
  -4 -14  -2  208.48   33.90
  -4 -14  -2  229.38   51.59
  -4 -14  -2  210.38   29.80
  -4  14  -2  183.58   24.90
   4  14   2  156.28   25.60
   4  14   2  150.88   43.80
  -4  14  -2  229.28   22.70
  -4  14  -2  202.98   28.70
   6 -14   2  128.69   28.20
   6 -14   2  101.49   28.40
  -6 -14  -2   99.69   24.70
  -6 -14  -2  139.59   28.50
   6  14   2   69.09   41.90
   6  14   2  116.59   25.80
  -6  14  -2  188.78   25.00
  -6  14  -2  141.99   20.70
  -6  14  -2  160.88   30.60
  -8 -14  -2  -11.00   18.30
  -8  14  -2   39.10   26.80
  -8  14  -2   21.80   14.20
  -8  14  -2   46.70   14.90
   8  14   2   13.00   16.00
 -10 -14  -2   29.50   24.90
 -10  14  -2   31.70   15.20
  10  14   2   16.80   21.10
  13 -15  -2   16.00   42.60
 -13 -15   2    5.10   24.40
 -13 -15   2  -55.79   71.19
 -13  15   2    1.90   45.70
 -13  15   2  -13.80   18.90
  11 -15  -2   21.00   35.90
 -11 -15   2   40.30   52.89
 -11 -15   2   28.80   20.10
 -11 -15   2   33.80   53.49
 -11 -15   2    4.70   18.50
 -11  15   2   29.50   15.80
  11  15  -2   31.40   21.50
 -11  15   2   33.00   39.70
  -9 -15   2   23.40   41.30
  -9 -15   2   -1.70   15.40
  -9 -15   2   -4.10   39.70
  -9 -15   2   16.50   17.20
   9 -15  -2   10.80   30.20
  -9  15   2   65.29   40.60
  -9  15   2   42.50   14.80
   9  15  -2   30.60   18.90
   7 -15  -2  152.38   18.60
   7 -15  -2  154.48   18.50
  -7 -15   2  140.99   26.90
   7 -15  -2  136.69   38.80
  -7 -15   2  140.89   46.80
  -7  15   2  175.38   44.80
   7  15  -2  174.18   28.70
  -7  15   2  144.89   24.80
   5 -15  -2   18.80   10.00
  -5 -15   2   -8.70   28.60
  -5 -15   2    9.10   12.70
  -5 -15   2   11.40   11.10
   5 -15  -2   24.70   11.20
   5 -15  -2   50.89   28.50
  -5  15   2   15.80   11.40
   5  15  -2    9.90   28.10
   5  15  -2   10.60   12.60
  -5  15   2   18.60   27.20
  -3 -15   2  279.97   27.10
   3 -15  -2  286.77   29.80
  -3 -15   2  359.36   61.09
  -3 -15   2  276.57   28.60
   3 -15  -2  406.66   62.69
   3 -15  -2  308.67   27.60
   3  15  -2  287.57   30.50
   3  15  -2  210.48   45.80
  -3  15   2  424.56   62.49
  -3  15   2  383.36   32.60
  -1 -15   2  276.07   25.30
   1 -15  -2  264.17   29.80
  -1 -15   2  271.17   52.29
   1 -15  -2  255.57   25.80
  -1 -15   2  302.47   26.20
   1 -15  -2  357.86   58.49
   1  15  -2  223.78   44.80
  -1  15   2  265.87   27.40
  -1  15   2  362.56   58.69
   1  15  -2  277.47   30.40
  -1 -15  -2  107.99   21.30
   1 -15   2   49.40   26.70
  -1 -15  -2  125.39   41.50
   1 -15   2   96.49   16.60
  -1 -15  -2  115.69   24.20
   1 -15   2  134.79   19.10
   1  15   2  112.59   23.10
  -1  15  -2  114.49   15.70
  -1  15  -2  127.89   22.90
  -1  15  -2   87.99   28.80
   1  15   2  124.79   41.40
  -3 -15  -2  108.29   38.00
   3 -15   2  104.19   31.10
  -3 -15  -2  111.99   24.50
  -3 -15  -2   68.69   18.80
   3  15   2   59.39   37.90
   3  15   2   93.09   19.80
  -3  15  -2  118.09   32.70
  -3  15  -2   88.69   18.40
  -3  15  -2  115.99   20.10
   5 -15   2  166.28   35.30
  -5 -15  -2   94.39   42.50
  -5 -15  -2   96.69   24.50
  -5 -15  -2  106.59   24.70
  -5  15  -2  171.18   26.80
   5  15   2  141.09   48.40
  -5  15  -2  152.08   24.50
  -5  15  -2  144.19   22.50
   5  15   2  122.99   24.00
   7 -15   2   45.30   23.50
  -7 -15  -2   36.50   17.90
  -7 -15  -2  -31.00   47.70
   7 -15   2   55.19   22.90
   7  15   2    5.00   14.50
   7  15   2   28.70   44.30
  -7  15  -2   75.79   17.80
  -7  15  -2   41.80   21.30
  -7  15  -2   18.40   12.80
  -9 -15  -2   40.40   24.40
   9  15   2   -7.20   21.70
  -9  15  -2   26.00   18.10
  -9  15  -2   26.60   29.90
  -9  15  -2   30.20   15.20
  12 -16  -2   -1.60   67.39
 -12 -16   2  -10.60   20.20
 -12 -16   2   26.30   70.29
 -12  16   2   45.00   47.70
 -12  16   2  -31.80   15.50
 -10 -16   2   -1.40   17.80
  10 -16  -2   39.20   38.80
 -10 -16   2   26.80   19.40
 -10 -16   2   37.00   50.49
  10  16  -2   14.50   21.30
 -10  16   2   49.40   42.00
 -10  16   2   53.49   17.70
  -8 -16   2    0.40   41.10
  -8 -16   2   17.20   14.20
  -8 -16   2   15.60   41.30
   8 -16  -2   11.60   32.90
   8  16  -2   40.80   20.30
  -8  16   2  -21.20   35.30
  -8  16   2   37.80   14.80
  -6 -16   2  173.08   29.30
  -6 -16   2  137.99   48.40
   6 -16  -2   91.39   37.80
   6 -16  -2  147.39   21.00
   6 -16  -2  129.79   21.60
   6  16  -2   98.69   40.10
  -6  16   2  119.99   39.80
   6  16  -2  147.19   28.00
  -6  16   2  142.19   23.50
  -4 -16   2   35.00   32.60
  -4 -16   2   56.19   18.70
   4 -16  -2   57.39   16.00
  -4 -16   2   66.89   17.80
   4 -16  -2   47.40   14.10
   4 -16  -2   20.50   30.30
  -4  16   2   11.90   27.50
  -4  16   2   51.49   16.40
   4  16  -2   51.89   18.00
   4  16  -2   34.00   30.40
  -2 -16   2   78.99   36.70
  -2 -16   2  138.09   23.20
   2 -16  -2  127.09   24.80
   2 -16  -2  117.09   23.30
   2 -16  -2  183.48   46.20
  -2 -16   2  189.88   27.10
  -2  16   2  118.19   22.40
   2  16  -2  122.79   24.90
  -2  16   2   83.69   36.60
   0 -16  -2   87.39   20.60
   0 -16   2  104.39   19.10
   0 -16   2   71.69   30.90
   0 -16  -2   67.89   18.10
   0 -16   2   82.99   16.30
   0 -16  -2   99.59   39.40
   0  16   2  130.29   40.90
   0  16  -2  123.49   23.80
   0  16  -2   86.39   10.20
   0  16   2  138.99   25.90
   0  16  -2   65.89   31.00
   2 -16   2   14.10   25.20
  -2 -16  -2    2.60   34.30
  -2 -16  -2    5.50   14.00
   2 -16   2   14.60    7.60
  -2 -16  -2   -6.90   10.10
  -2  16  -2    7.70    7.90
  -2  16  -2   -9.30   24.00
   2  16   2   35.20   32.10
  -2  16  -2    6.00   11.40
   4 -16   2  134.89   38.40
  -4 -16  -2  130.49   28.30
  -4 -16  -2  148.29   27.60
  -4 -16  -2  193.98   56.39
   4  16   2   91.99   21.20
   4  16   2  148.39   49.30
  -4  16  -2  135.99   30.90
  -4  16  -2  140.79   24.90
  -4  16  -2  183.38   25.80
  -6 -16  -2  -15.60   16.50
   6 -16   2   18.70   27.60
   6 -16   2   -8.30   25.60
  -6 -16  -2   12.10   23.20
  -6 -16  -2   14.80   44.30
  -6  16  -2   -1.50   13.80
  -6  16  -2    7.90   12.60
   6  16   2    9.60   45.50
  -6  16  -2   32.80   18.50
   6  16   2   16.20   13.90
  -8 -16  -2   17.70   23.80
  -8  16  -2   21.90   15.40
  -8  16  -2   29.50   17.40
  -8  16  -2   17.10   25.40
   8  16   2   46.50   21.50
  11 -17  -2  -10.40   44.10
 -11 -17   2    4.00   66.69
 -11 -17   2    8.50   19.60
  11  17  -2    8.00   27.90
 -11  17   2   20.10   15.80
 -11  17   2   42.50   51.79
  -9 -17   2   55.49   55.49
   9 -17  -2   17.30    6.20
  -9 -17   2   16.00   16.10
   9 -17  -2  -22.90   35.70
  -9 -17   2    3.70   15.90
  -9 -17   2   23.90   50.79
  -9  17   2   49.80   40.90
   7 -17  -2  102.19   41.40
  -7 -17   2   65.49   20.90
   7 -17  -2   73.29   16.20
  -7 -17   2   33.70   45.60
   7 -17  -2   60.99   14.10
  -7  17   2   45.60   15.20
  -7  17   2   94.29   42.10
   7  17  -2    8.60   18.10
   5 -17  -2   11.00   10.60
  -5 -17   2    3.30   12.90
   5 -17  -2   15.80   12.00
   5 -17  -2   59.79   33.90
  -5 -17   2   56.99   40.30
  -5 -17   2    6.70   12.10
  -5  17   2   64.49   35.30
  -5  17   2   23.40   12.70
   5  17  -2   61.59   37.20
   5  17  -2   36.90   25.80
  -3 -17   2  120.99   23.60
  -3 -17   2  145.69   25.40
  -3 -17   2  197.98   50.49
   3 -17  -2   80.49   41.00
   3 -17  -2  109.79   22.10
   3 -17  -2  155.48   25.00
  -3  17   2   91.29   40.90
   3  17  -2  104.89   24.20
   3  17  -2  143.29   44.50
  -3  17   2  175.38   27.60
   1 -17  -2   10.90   13.80
  -1 -17   2   -3.30    8.80
  -1 -17   2  -23.70    8.90
   1 -17  -2   -0.80    9.90
  -1 -17   2    0.90   28.30
   1 -17  -2  -29.40   30.90
   1  17  -2    9.80   26.50
  -1  17   2   -0.10    9.40
   1  17  -2   -2.80   12.40
  -1  17   2    9.30   31.40
  -1 -17  -2   22.00   35.20
   1 -17   2   14.20   10.00
   1 -17   2    0.60   45.80
  -1 -17  -2   15.40   14.40
   1 -17   2    8.30    9.40
   1  17   2  -22.10   31.10
  -1  17  -2  -20.70   11.20
  -1  17  -2    9.20    7.10
  -1  17  -2   52.19   29.00
  -3 -17  -2   45.70   41.40
  -3 -17  -2   24.70   15.40
  -3 -17  -2   71.49   22.80
   3 -17   2   33.30    7.70
   3 -17   2   32.80    7.00
  -3  17  -2   79.99   36.20
  -3  17  -2   64.99   18.90
   3  17   2   25.10   13.50
   3  17   2    6.30   35.70
  -3  17  -2   42.40   13.80
  -5 -17  -2   -0.30   18.30
  -5 -17  -2   20.70   16.70
   5 -17   2  -14.00   28.10
  -5  17  -2  -19.60   13.00
   5  17   2    8.10   43.80
  -5  17  -2   -9.10   13.80
   5  17   2   -2.00   10.60
  -5  17  -2    0.30   10.90
  -7 -17  -2   46.50   23.70
   7 -17   2   -7.80   28.50
  -7  17  -2    1.80   14.60
  -7  17  -2  -25.90   15.70
  -7  17  -2  -20.70   20.30
   7  17   2  -27.30   13.70
  -9 -17  -2  -22.40   27.60
   9  17   2   10.70   20.60
  -9  17  -2   -8.50   17.20
 -12 -18   2  -10.60   26.90
  12 -18  -2    8.80   54.89
 -12  18   2    1.10   18.60
 -12  18   2    7.90   59.09
  10 -18  -2   23.20   42.30
 -10 -18   2   -5.40   64.09
 -10 -18   2  -35.30   18.10
 -10 -18   2   76.29   62.69
  10  18  -2   10.60   25.30
 -10  18   2  -31.50   48.60
 -10  18   2  -26.60   14.80
   8 -18  -2   26.40   40.30
  -8 -18   2   27.20   17.00
   8 -18  -2   38.00   12.50
   8 -18  -2   35.30   11.70
  -8 -18   2   53.39   24.80
  -8 -18   2   55.19   53.59
  -8  18   2   22.10   44.80
  -8  18   2   31.40   17.10
  -6 -18   2   16.00   14.90
   6 -18  -2   -8.80   10.80
  -6 -18   2  -47.70   41.50
   6 -18  -2    4.00   11.30
   6 -18  -2  -29.90   34.80
  -6  18   2   16.40   21.70
  -6  18   2  -15.90   33.90
   4 -18  -2   -8.50   11.40
   4 -18  -2  -41.50   33.40
  -4 -18   2   -3.40   12.90
  -4 -18   2   14.70   12.70
  -4 -18   2   33.40   38.50
   4 -18  -2   -2.40   11.60
   4  18  -2    0.80   36.50
  -4  18   2   49.40   41.00
  -2 -18   2  104.89   22.00
   2 -18  -2  131.69   23.70
  -2 -18   2   97.59   20.70
   2 -18  -2   45.90   38.40
  -2 -18   2  126.79   45.80
   2 -18  -2   94.79   22.00
  -2  18   2   77.49   39.60
   2  18  -2   24.10   34.00
   2  18  -2   78.69   21.60
   0 -18  -2    3.50   37.40
   0 -18  -2   -7.00   10.80
   0 -18   2   28.00   33.40
   0 -18   2   -9.10    9.20
   0 -18   2   15.00   10.50
   0  18  -2  -17.80   12.90
   0  18  -2  -13.60   29.10
   0  18   2   -3.50   34.40
   0  18  -2    4.20    5.20
   0  18   2    1.70   12.60
  -2 -18  -2   23.10   42.20
   2 -18   2   27.70   10.50
  -2 -18  -2   21.90   15.90
   2 -18   2   38.50   11.20
   2 -18   2   -1.50   29.50
  -2  18  -2   12.50   14.40
  -2  18  -2   21.40   10.30
   2  18   2   38.70   43.60
  -2  18  -2   42.50   33.00
  -4 -18  -2   40.60   52.09
   4 -18   2  -16.10   33.10
  -4 -18  -2    8.30   15.60
  -4 -18  -2  -10.00   16.30
   4  18   2   21.70   13.10
  -4  18  -2   55.29   17.90
   4  18   2    5.30   46.30
  -4  18  -2  -25.80   11.50
  -6 -18  -2  -17.60   56.29
   6 -18   2   43.30   36.60
  -6 -18  -2    4.70   21.30
  -6  18  -2   37.20   18.50
  -6  18  -2  -23.00   13.40
   6  18   2  -38.60   52.19
  -6  18  -2    9.70   19.60
   6  18   2    3.10   12.80
  -8 -18  -2   45.10   28.50
  -8  18  -2   -7.80   16.50
  -8  18  -2   10.60   28.30
   8  18   2    9.10   20.20
  -8  18  -2    8.40   22.00
  11 -19  -2  -28.70   53.89
 -11 -19   2   33.60   41.20
 -11 -19   2  -95.09   77.99
 -11  19   2  -17.20   19.60
 -11  19   2    5.60   59.59
  -9 -19   2    6.50   18.30
   9 -19  -2   54.29   51.69
  -9 -19   2   10.60   58.89
   9 -19  -2    4.40    6.50
   9 -19  -2    5.00    8.20
  -9  19   2   -1.20   16.20
  -9  19   2   -8.90   50.09
   9  19  -2    8.30   24.60
  -7 -19   2   51.09   55.49
  -7 -19   2   21.90   18.40
  -7 -19   2   13.40   18.60
   7 -19  -2  -19.60   40.30
   7 -19  -2    1.20   11.80
  -7  19   2   -0.70   39.70
   7  19  -2  -19.80   19.50
  -7  19   2    2.90   13.30
   5 -19  -2   20.20   13.90
   5 -19  -2   -0.10   38.70
   5 -19  -2   12.00   13.10
  -5 -19   2   33.10   48.10
  -5 -19   2   -0.50   15.00
  -5  19   2   27.80   42.20
  -5  19   2   32.30   16.50
   5  19  -2   -8.00   40.20
   3 -19  -2   63.59   18.70
   3 -19  -2   97.09   48.40
   3 -19  -2   35.40   18.30
  -3 -19   2   40.70   44.80
  -3 -19   2   84.59   22.20
  -3 -19   2   77.99   20.00
   3  19  -2   66.49   43.20
  -3  19   2   33.30   14.90
  -3  19   2    9.20   38.60
   3  19  -2   58.19   20.80
   1 -19  -2  122.39   51.49
  -1 -19   2   50.49   46.40
  -1 -19   2   47.70   16.70
  -1 -19   2   59.19   17.40
   1 -19  -2   58.09   19.40
   1 -19  -2   94.49   25.40
  -1  19   2   35.80   40.80
   1  19  -2   78.09   41.80
   1  19  -2   62.09   23.60
  -1  19   2   91.79   24.30
   1 -19   2   32.30   19.10
   1 -19   2    9.90   11.30
  -1 -19  -2   -2.80   41.90
  -1 -19  -2   28.80   18.20
  -1  19  -2   -4.40   17.20
  -1  19  -2    8.10    8.80
   1  19   2   -7.60   39.90
  -1  19  -2    4.80   34.30
  -3 -19  -2   40.30   19.30
   3 -19   2  -15.60   41.10
   3 -19   2    5.90    7.50
  -3 -19  -2   13.50   48.00
   3 -19   2   19.60    8.30
  -3 -19  -2  -18.50   15.80
  -3  19  -2   19.40   11.50
  -3  19  -2   -4.10   16.00
   3  19   2   59.49   49.00
   3  19   2    6.90   11.40
  -3  19  -2   24.60   39.40
   5 -19   2    1.70   39.50
  -5 -19  -2   17.60   20.00
  -5 -19  -2   45.10   58.69
  -5  19  -2  -17.20   18.40
  -5  19  -2   -3.20   16.70
   5  19   2   29.50   55.09
   5  19   2  -14.60   12.50
   7 -19   2   -9.30   39.90
  -7 -19  -2   29.70   22.10
  -7  19  -2   33.50   22.50
   7  19   2   27.40   19.00
  -7  19  -2    8.90   24.40
 -10 -20   2   72.89   79.29
  10 -20  -2   -9.30   56.89
 -10  20   2   24.10   20.80
 -10  20   2   30.80   63.59
   8 -20  -2  -15.00   12.30
  -8 -20   2    5.90   19.90
  -8 -20   2   25.30   59.29
   8 -20  -2    1.70   11.90
   8 -20  -2  -41.30   47.40
  -8 -20   2   43.40   68.49
  -8  20   2   -6.50   50.79
   8  20  -2   26.90   27.60
  -8  20   2  -12.80   15.40
   6 -20  -2   10.10   14.00
   6 -20  -2   13.30   15.30
   6 -20  -2  -51.39   42.80
  -6 -20   2    0.90   16.60
  -6 -20   2   40.50   55.29
  -6 -20   2  -27.10   16.70
  -6  20   2   -9.40   42.60
   6  20  -2  -20.80   21.30
  -6  20   2   -0.10   15.40
  -4 -20   2   27.50   17.20
   4 -20  -2   25.50   16.10
   4 -20  -2  -11.30   45.50
  -4 -20   2   53.39   49.90
   4 -20  -2   -8.70   12.30
  -4  20   2  -59.39   40.20
  -4  20   2   -4.90   13.60
   4  20  -2   -5.80   42.50
  -2 -20   2   33.70   15.50
  -2 -20   2  101.59   21.90
  -2 -20   2   39.20   46.00
   2 -20  -2   21.50   46.10
   2 -20  -2   20.40   15.30
   2  20  -2   64.99   22.20
   2  20  -2   20.00   41.10
  -2  20   2   68.49   21.40
  -2  20   2   55.69   47.70
   0 -20  -2   -9.90   15.00
   0 -20  -2    5.00   60.29
   0 -20   2  -20.90   10.90
   0 -20   2   -9.00   13.50
   0 -20   2    7.50   39.90
   0  20  -2   17.20   17.90
   0  20  -2  -29.90   39.30
   0  20   2   68.29   47.60
  -2 -20  -2   37.00   51.89
   2 -20   2   -6.10    9.90
  -2 -20  -2   -1.90   17.00
   2 -20   2   37.90   41.50
   2 -20   2    0.90   11.20
  -2 -20  -2   28.90   19.20
  -2  20  -2   -7.20   37.00
  -2  20  -2  -19.00   15.60
   2  20   2    0.40   48.00
   2  20   2    3.90   11.40
  -2  20  -2   20.60   11.20
  -4 -20  -2   22.00   23.20
   4 -20   2   21.30   45.90
   4  20   2   -6.10   12.90
  -4  20  -2    5.80   15.10
   4  20   2   47.70   57.09
  -4  20  -2   28.60   19.50
  -6 -20  -2   11.50   24.30
  -6  20  -2  -19.60   22.00
  -6  20  -2   18.20   22.60
   6  20   2    5.00   18.30
  -9 -21   2  -67.09   77.49
   9 -21  -2  -80.09   60.39
   9 -21  -2   19.70    9.10
  -9 -21   2   62.89   78.69
  -9  21   2   27.20   21.20
  -9  21   2  -16.30   62.69
  -7 -21   2   30.60   67.89
  -7 -21   2    0.80   17.80
   7 -21  -2    5.90   14.10
   7 -21  -2  -12.40   14.80
  -7  21   2   -7.70   18.80
  -7  21   2   37.20   52.79
   5 -21  -2   12.60   15.30
  -5 -21   2   59.09   59.49
  -5 -21   2    5.70   19.30
   5 -21  -2    7.20   15.90
   5 -21  -2  -18.70   49.10
  -5 -21   2   -0.80   15.40
  -5  21   2  -17.20   14.20
   5  21  -2   25.50   22.40
  -5  21   2   25.20   50.59
  -3 -21   2   41.70   19.40
   3 -21  -2  111.79   25.30
  -3 -21   2   66.69   58.99
   3 -21  -2    7.90   49.70
   3  21  -2   71.59   26.40
  -3  21   2   23.80   52.89
  -3  21   2   22.00   18.50
   3  21  -2   63.39   49.50
   1 -21  -2  111.09   55.39
  -1 -21   2   57.99   52.99
  -1  21   2   84.79   55.29
   1  21  -2   12.60   21.90
   1  21  -2   82.29   64.19
  -1 -21  -2   11.50   20.40
   1 -21   2   11.40   50.49
  -1 -21  -2   27.90   57.29
   1 -21   2   37.90   15.50
  -1 -21  -2   14.60   19.30
   1 -21   2   42.40   16.60
  -1  21  -2   24.00   26.00
  -1  21  -2   30.20    9.90
  -1  21  -2   -7.80   45.90
   1  21   2   48.20   55.49
  -3 -21  -2  -51.99   62.49
  -3 -21  -2   21.50   22.10
   3 -21   2    3.50    9.60
   3 -21   2    9.60   47.20
   3  21   2  -35.50   57.59
   3  21   2   -6.40   12.20
  -3  21  -2  -46.10   48.20
  -3  21  -2    2.00   13.50
  -5 -21  -2    5.90   22.30
   5 -21   2   25.10   53.49
   5  21   2   42.40  118.89
   5  21   2    8.50   19.10
  -5  21  -2   36.30   23.10
  -8 -22   2  102.29   79.79
   8 -22  -2   58.39   68.49
   8 -22  -2   16.80   15.80
  -8  22   2    6.70   20.70
  -8  22   2  -25.00   61.39
  -6 -22   2   45.80   23.40
  -6 -22   2  -25.00   71.19
   6 -22  -2   22.40   18.30
   6 -22  -2   47.60   59.19
   6 -22  -2   54.09   21.30
  -6  22   2   49.30   60.89
  -6  22   2   40.10   19.40
  -4 -22   2   40.80   20.40
   4 -22  -2    6.50   57.99
  -4 -22   2  112.59   66.79
   4 -22  -2   44.70   21.10
  -4 -22   2   19.10   20.40
   4  22  -2   94.49   59.69
  -4  22   2   47.20   21.50
  -4  22   2   21.50   58.59
  -2 -22   2  114.29   61.29
   2 -22  -2   92.19   23.40
   2 -22  -2   99.49   65.09
  -2 -22   2   79.59   24.30
   2 -22  -2   68.59   23.40
   2  22  -2   22.70   52.29
   2  22  -2   96.39   31.40
  -2  22   2   67.19   25.00
  -2  22   2   65.19   58.79
   0 -22   2  112.49   23.30
   0 -22  -2   47.90   62.79
   0 -22   2  102.69   24.20
   0 -22   2   -4.60   56.29
   0 -22  -2  122.29   30.10
   0 -22  -2   57.19   24.00
   0  22  -2  -34.70   49.99
   0  22  -2   84.39   29.50
   0  22   2  123.19   66.29
   2 -22   2   57.19   57.49
   2 -22   2   45.30   16.60
  -2 -22  -2   51.79   26.20
  -2 -22  -2   32.80   68.09
   2  22   2   37.60   16.40
  -2  22  -2   81.99   52.99
  -2  22  -2   24.10   24.70
   2  22   2   85.79   69.89
  -2  22  -2   72.49   14.90
   4 -22   2  121.89   61.69
  -4 -22  -2   74.29   81.79
   4  22   2   23.60   17.70
   4  22   2  -80.89   65.99
  -4  22  -2    1.80   18.00
  -4  22  -2    5.70   26.40
  -7 -23   2   -8.90   87.19
   7 -23  -2   65.99   21.10
   7 -23  -2   81.99   23.20
  -7  23   2   -4.40   68.89
  -7  23   2  102.89   30.10
   5 -23  -2   25.00   66.89
  -5 -23   2   68.99   27.50
   5 -23  -2   79.29   25.00
  -5 -23   2   23.50   71.79
   5  23  -2    9.70   66.59
  -5  23   2   25.30   23.90
  -3 -23   2   79.09   71.49
  -3 -23   2   16.60   22.10
   3 -23  -2   74.99   25.60
   3 -23  -2   83.99   70.49
   3 -23  -2   41.60   22.50
  -3 -23   2   26.30   20.20
  -3  23   2  -15.60   64.09
   3  23  -2  -27.60   57.69
  -3  23   2   60.89   23.40
  -1 -23   2   69.29   70.39
   1 -23  -2  105.19   29.10
  -1 -23   2   73.79   23.10
   1  23  -2  135.69   67.39
  -1  23   2   24.90   64.69
   1 -23   2  179.98   68.09
   1 -23   2  185.18   27.80
  -1 -23  -2  134.29   33.80
  -1 -23  -2  166.78   80.69
   1 -23   2  134.69   24.60
  -1  23  -2   29.30   57.59
   1  23   2  102.29   71.29
  -3 -23  -2  -16.60  135.39
   3 -23   2   43.30   14.30
   3 -23   2  136.29   72.69
   3  23   2   17.20   75.09
   3  23   2   13.50   19.80
  -3  23  -2   53.89   17.40
   6 -24  -2  108.39   26.80
   6 -24  -2   -6.10   75.59
  -6 -24   2  -22.10   89.19
   4 -24  -2   71.19   77.79
   4 -24  -2   73.59   27.30
  -4 -24   2   85.19   28.40
  -4 -24   2  101.79   88.49
   4 -24  -2   35.20   27.00
  -4  24   2   82.69   28.90
  -4  24   2   52.39   73.89
  -2 -24   2   17.60   21.60
   2 -24  -2   64.29   74.39
  -2 -24   2   67.49   26.70
   2 -24  -2   82.69   26.30
  -2 -24   2   47.90   76.99
  -2  24   2  -40.30   67.49
   2  24  -2  -32.50   67.29
  -2  24   2   32.80   24.40
   0 -24  -2  162.18   84.69
   0 -24  -2  106.49   33.10
   0 -24   2   90.49   24.30
   0 -24   2  111.59   81.39
   0  24   2   71.69   74.59
   0  24  -2  164.38   73.29
  -2 -24  -2  148.29   42.40
   2 -24   2  102.79   22.00
   2 -24   2  174.48   83.39
   2 -24   2  106.69   22.60
  -2  24  -2  101.49   17.00
   2  24   2  -51.59   75.49
   2  24   2  134.59   25.00
  -2  24  -2  -14.30  111.59
  -5 -25   2   30.20   97.59
   5 -25  -2  123.89   34.50
   5 -25  -2  138.69   32.90
  -5 -25   2  181.68   46.30
  -5  25   2  171.58   37.60
   3 -25  -2  117.29   32.60
  -3 -25   2   20.80   23.60
   3 -25  -2  135.39   91.99
  -3 -25   2  -54.49   86.89
  -3  25   2   72.89   82.79
   3  25  -2  176.48   85.49
  -3  25   2   86.19   30.50
  -1 -25   2   49.80   24.20
  -1 -25   2  102.39   32.80
   1 -25  -2  118.99   93.79
  -1 -25   2   93.69   87.19
   1 -25  -2  103.59   30.30
   1  25  -2   29.00   76.59
  -1  25   2  194.98   92.29
  -1 -25  -2  162.38   98.79
  -1 -25  -2   44.90   33.30
   1 -25   2  119.89   28.60
   1  25   2   99.59   23.00
   1  25   2   90.49   88.29
 -16   0   3   59.99   46.30
 -14   0   3   13.80   12.10
 -14   0   3    5.80   32.00
  12   0  -3   20.20   30.70
 -12   0   3   -3.10   12.60
 -12   0   3   23.70   24.20
 -12   0   3    0.70    8.50
  10   0  -3   -1.90   18.10
  10   0  -3   11.30    6.70
 -10   0   3   -5.50    5.90
 -10   0   3   11.40   17.60
  -8   0   3   12.10   14.10
   8   0  -3    7.60    5.60
  -8   0   3    4.30    6.20
   6   0  -3    7.70   10.40
  -6   0   3   -5.50   10.20
  -6   0   3    3.80    4.90
   6   0  -3   13.10    6.30
  -4   0   3    6.00   10.60
  -4   0   3   13.80    5.90
   4   0  -3   14.90   11.20
   4   0  -3    1.60    4.00
   2   0  -3   -1.20    2.90
  -2   0   3   -7.60    6.40
   2   0  -3    2.80    8.60
  -2   0   3    2.10    3.50
   0   0  -3    3.50    7.00
   0   0   3   -0.80    2.40
   0   0   3    2.50    7.20
   0   0  -3   -2.30    2.80
  -2   0  -3    1.40    3.20
   2   0   3   -1.20    7.40
  -2   0  -3    7.50    8.40
   2   0   3   -6.30    4.60
  -4   0  -3   -3.80    3.80
   4   0   3   -5.90    7.90
   4   0   3    3.00    7.80
  -4   0  -3    1.60   10.10
  -6   0  -3    3.50    4.90
   6   0   3   19.10   12.80
  -8   0  -3   -4.00    7.40
   8   0   3   -5.90   12.80
 -10   0  -3  -15.10   10.60
 -10   0  -3    8.70   11.30
 -17  -1   3    0.00   54.49
 -17  -1   3    3.00   20.00
 -17   1   3    3.70   19.10
 -17   1   3   -9.20   49.90
 -15  -1   3    4.60   14.90
 -15  -1   3   16.80   22.20
 -15  -1   3   57.99   38.80
 -15   1   3    8.70   13.70
 -15   1   3   36.40   37.20
 -15   1   3    7.40   21.00
 -13  -1   3    2.10   11.20
 -13  -1   3    3.70   14.30
 -13  -1   3   -5.80   27.90
 -13   1   3    0.90   10.40
 -13   1   3   15.60   28.10
 -13   1   3   31.80   17.20
  11  -1  -3    6.60    5.50
 -11  -1   3  -14.60   19.60
 -11  -1   3   12.90    9.00
  11  -1  -3    8.70   20.60
 -11   1   3    8.80   20.10
  11   1  -3   -2.90   21.90
 -11   1   3   13.50    9.00
  11   1  -3   -2.00    6.40
  -9  -1   3   12.00   15.10
   9  -1  -3  -10.60   15.10
  -9  -1   3    1.60    5.80
   9  -1  -3   13.90    6.20
  -9   1   3   12.90   14.90
  -9   1   3    3.80    5.80
   9   1  -3    7.90    6.50
   9   1  -3   11.00   16.40
  -7  -1   3  136.79   27.10
  -7  -1   3  118.39   14.20
   7  -1  -3   78.59   19.80
   7  -1  -3   65.49   11.50
  -7   1   3   89.69   14.50
  -7   1   3   84.39   21.00
   7   1  -3  118.59   14.00
   7   1  -3   97.29   22.60
   5  -1  -3    1.00    9.50
  -5  -1   3    1.40    4.20
  -5  -1   3    6.70   10.90
   5  -1  -3   -1.30    4.30
  -5   1   3   -0.60    9.30
   5   1  -3   -7.00    9.20
   5   1  -3    0.90    4.00
  -5   1   3    3.60    4.20
   3  -1  -3  509.25   36.90
  -3  -1   3  493.85   26.50
   3  -1  -3  484.35   26.80
  -3  -1   3  563.44   38.60
  -3   1   3  519.15   26.90
   3   1  -3  503.15   37.30
   3   1  -3  547.15   27.70
  -1  -1   3  400.46   20.10
   1  -1  -3  384.16   30.70
  -1  -1   3  386.96   29.60
   1  -1  -3  429.56   22.50
  -1   1   3  350.76   29.80
  -1   1   3  378.16   20.50
   1   1  -3  366.86   20.90
   1   1  -3  459.75   32.00
   1  -1   3  100.49   16.30
   1  -1   3  132.79   16.90
  -1  -1  -3  148.19   22.30
  -1  -1  -3   96.59   10.10
  -1   1  -3  115.59    9.80
   1   1   3  133.39   20.10
   1   1   3   97.69   16.20
  -1   1  -3  131.69   16.90
  -3  -1  -3    4.80    4.70
   3  -1   3    0.70    6.50
   3  -1   3    0.90    6.90
  -3  -1  -3    1.60    8.90
   3   1   3    1.20    5.70
  -3   1  -3   -3.90    7.00
   3   1   3   -5.80    8.30
  -3   1  -3    2.60    3.10
  -5  -1  -3   18.60    6.70
   5  -1   3    1.30    9.30
  -5  -1  -3    5.10   10.00
   5   1   3    3.70   10.00
  -5   1  -3    2.90    4.00
   5   1   3   17.90   10.20
  -7  -1  -3    3.90    7.00
  -7   1  -3    8.40    5.70
  -9  -1  -3   -9.70    9.20
  -9  -1  -3   12.60   10.10
  -9   1  -3    1.20    8.30
  -9   1  -3   -5.50    7.80
   9   1   3    3.40   16.90
 -11  -1  -3   -3.60   13.80
 -11  -1  -3  -39.80   15.20
 -11   1  -3   21.70   12.40
 -11   1  -3  -22.10   12.40
 -16  -2   3    6.40   16.30
 -16  -2   3   -9.00   71.79
 -16   2   3  -11.20   41.90
 -16   2   3   27.20   16.40
 -14  -2   3   18.40   12.50
 -14  -2   3    9.60   33.20
 -14   2   3  -29.80   30.40
 -14   2   3  -12.40   11.20
 -14   2   3   19.40   33.70
  12  -2  -3   46.20   27.30
 -12  -2   3   51.69   27.80
 -12  -2   3   59.99   15.20
 -12  -2   3   42.60   32.10
 -12  -2   3   44.30   17.40
 -12   2   3   18.40   24.80
  12   2  -3   58.29   10.70
 -12   2   3   69.09   15.90
  10  -2  -3   80.49   12.20
 -10  -2   3   59.49   24.90
  10  -2  -3   93.19   25.60
 -10  -2   3   89.69   16.60
  10   2  -3   92.59   14.90
 -10   2   3  114.39   28.10
  10   2  -3   99.99   28.90
 -10   2   3  118.79   19.30
  -8  -2   3   19.30    8.80
  -8  -2   3   19.60   15.70
   8  -2  -3   28.00    8.10
   8   2  -3    8.60   16.00
  -8   2   3   18.00   14.10
  -8   2   3   21.00    8.10
   8   2  -3   31.70    9.10
   6  -2  -3    1.80    4.10
  -6  -2   3   15.40    6.90
  -6  -2   3   23.80   13.50
   6  -2  -3   18.00   12.80
   6   2  -3    6.50    6.20
   6   2  -3    6.90   13.60
  -6   2   3    8.50   11.60
  -4  -2   3    9.60    9.80
   4  -2  -3   14.70   10.40
   4  -2  -3    4.20    4.60
  -4  -2   3    6.50    4.60
   4   2  -3   15.70    5.90
  -4   2   3   12.40    9.90
   4   2  -3    4.60   11.20
  -4   2   3    8.90    5.00
   2  -2  -3  738.03   34.80
  -2  -2   3  772.22   45.90
   2  -2  -3  768.12   46.60
  -2  -2   3  758.42   33.50
   2   2  -3  782.82   46.40
  -2   2   3  777.52   47.10
   2   2  -3  739.63   34.30
  -2   2   3  740.03   34.40
   0  -2   3  522.05   21.30
   0  -2  -3  530.15   26.90
   0  -2  -3  439.26   34.60
   0  -2   3  584.24   32.20
   0  -2   3  551.54   34.70
   0   2   3  536.85   25.20
   0   2  -3  574.44   25.50
   0   2  -3  529.05   34.80
   0   2   3  472.05   35.80
   2  -2   3  328.97   23.20
  -2  -2  -3  303.77   19.00
   2  -2   3  276.77   25.00
  -2  -2  -3  327.37   28.40
   2   2   3  313.57   26.90
  -2   2  -3  282.67   22.70
  -2   2  -3  279.07   15.50
   2   2   3  340.67   29.20
   4  -2   3   11.30    9.30
  -4  -2  -3   10.90   10.90
  -4  -2  -3   23.90    7.50
   4  -2   3   19.70    5.90
   4   2   3   13.60    9.80
  -6  -2  -3   11.20    6.40
   6  -2   3    3.50    9.90
  -6  -2  -3   21.60   13.20
  -6   2  -3    5.40   11.60
   6   2   3   18.60   12.10
   6   2   3   10.80   11.30
  -8  -2  -3   25.70   11.10
  -8  -2  -3   12.90   10.80
  -8  -2  -3   26.30    8.50
  -8   2  -3   33.50    7.50
   8   2   3   35.20   19.00
  -8   2  -3   23.90   17.40
 -10  -2  -3   21.20   14.20
 -10  -2  -3    3.00   13.20
 -10   2  -3    4.50    9.20
 -10   2  -3  -21.10    8.60
 -17  -3   3  -12.60   22.20
 -17  -3   3   28.20   59.19
 -17   3   3  -16.30   47.30
 -17   3   3   16.00   20.30
 -15  -3   3   34.70   42.50
 -15  -3   3   -9.20   19.70
 -15   3   3   19.00   14.70
 -15   3   3  -15.30   22.20
 -13  -3   3   56.19   33.50
 -13  -3   3    3.40   15.30
  13  -3  -3   25.10   28.10
 -13  -3   3   41.80   15.10
 -13   3   3   35.30   28.50
 -13   3   3   16.30   25.70
 -13   3   3   20.50   11.50
 -11  -3   3    8.10   20.00
 -11  -3   3   15.90   10.10
 -11  -3   3   10.30   11.10
  11  -3  -3   31.90   25.10
 -11  -3   3  -10.90   21.60
 -11   3   3  -15.90   19.10
  11   3  -3   13.20    8.80
 -11   3   3   11.50    9.30
   9  -3  -3   91.49   11.30
  -9  -3   3  105.69   26.90
  -9  -3   3   91.19   17.10
   9  -3  -3   60.79   21.40
  -9   3   3   90.89   15.40
  -9   3   3   87.39   24.10
   9   3  -3   91.79   15.70
  -7  -3   3   78.69   13.80
   7  -3  -3   40.20   18.10
   7  -3  -3   69.09   11.60
  -7  -3   3   77.99   22.20
   7   3  -3   70.69   21.60
   7   3  -3  104.09   15.80
  -7   3   3   70.39   18.90
  -7   3   3   74.39   12.70
   5  -3  -3   15.80   11.70
   5  -3  -3    8.90    5.60
  -5  -3   3    4.20    5.40
  -5  -3   3   -8.50   10.00
   5   3  -3    6.70    5.70
  -5   3   3   12.40    5.60
  -5   3   3   -7.90    9.60
   5   3  -3   -6.80   10.10
  -3  -3   3    2.80    3.90
   3  -3  -3    5.70    9.50
   3  -3  -3    9.30    4.50
  -3  -3   3   -2.80    8.60
  -3   3   3    4.30    4.60
   3   3  -3    0.50    3.80
   3   3  -3    6.10    9.60
  -1  -3   3 3395.56  110.39
   1  -3  -3 3290.87  131.09
  -1  -3   3 3347.77  127.89
   1   3  -3 3175.18  126.99
  -1   3   3 3095.49  130.09
  -1   3   3 3324.07  113.89
   1   3  -3 3326.77  112.89
  -1  -3  -3  569.14   29.10
   1  -3   3  544.15   33.70
  -1  -3  -3  561.44   40.50
   1  -3   3  570.54   35.20
   1   3   3  527.55   25.60
  -1   3  -3  583.14   25.50
  -1   3  -3  567.74   34.80
   1   3   3  610.24   42.10
  -3  -3  -3   73.29   18.00
  -3  -3  -3   80.49   12.20
   3  -3   3   79.39   17.00
   3  -3   3   74.39   11.60
   3   3   3   36.40   15.50
   3   3   3   65.99   17.20
  -5  -3  -3    7.20    6.20
   5  -3   3    5.70   10.30
  -5  -3  -3  -14.60   12.30
  -5   3  -3    4.50    3.10
  -5   3  -3    9.90   11.30
   5   3   3    0.00    8.40
   5   3   3  -10.20   11.10
  -7  -3  -3  116.49   17.60
  -7  -3  -3  112.19   21.80
   7   3   3   50.29   27.20
  -7   3  -3   53.89   21.00
  -7   3  -3  102.89    8.20
   7   3   3  115.39   20.90
  -9  -3  -3   15.40   12.50
  -9  -3  -3    6.00   11.90
   9   3   3   20.60   19.30
  -9   3  -3  -35.60   19.20
  -9   3  -3    9.10    6.30
 -11  -3  -3  -19.30   29.20
 -11  -3  -3  -10.60   16.50
 -11   3  -3    3.20    9.30
 -16  -4   3   25.40   20.20
 -16  -4   3   13.00   53.39
 -16   4   3  -21.20   41.40
 -16   4   3   33.60   17.60
 -14  -4   3   27.40   13.80
  14  -4  -3   -6.80   30.20
 -14  -4   3   27.10   40.50
 -14  -4   3   -6.00   31.10
 -14   4   3    2.80   11.40
 -14   4   3  -17.70   17.30
 -14   4   3    6.10   33.50
  12  -4  -3  175.18   36.60
 -12  -4   3  162.38   24.30
 -12  -4   3  128.19   34.50
 -12  -4   3  211.38   31.80
 -12  -4   3  129.59   36.60
 -12   4   3  190.88   22.50
  12   4  -3  234.58   20.80
 -12   4   3  249.78   42.20
 -10  -4   3   -5.10   19.80
 -10  -4   3   34.60   12.20
 -10  -4   3   48.60   23.20
  10  -4  -3   16.00   19.80
  10  -4  -3   17.30    6.70
 -10  -4   3   38.70   13.10
 -10   4   3   23.40   10.10
  10   4  -3   -1.30    8.30
 -10   4   3   34.30   20.80
   8  -4  -3  127.89   27.40
  -8  -4   3  163.08   18.60
   8  -4  -3  156.38   14.60
  -8  -4   3  166.98   32.40
   8   4  -3  141.49   17.00
  -8   4   3  123.79   27.10
  -8   4   3  157.98   16.50
   8   4  -3  132.29   31.30
   6  -4  -3    5.80    5.90
  -6  -4   3   34.70   15.70
   6  -4  -3    7.20   11.90
  -6  -4   3    8.40    6.30
   6   4  -3   11.30   13.80
  -6   4   3   17.60    7.00
  -6   4   3   -3.80   10.60
   6   4  -3    6.00    6.60
   4  -4  -3  125.49   13.00
  -4  -4   3  118.89   13.50
   4  -4  -3  108.69   22.50
  -4  -4   3  112.59   22.40
  -4   4   3  185.28   29.50
   4   4  -3  114.59   23.30
   4   4  -3  164.68   15.40
  -4   4   3  117.19   12.80
   2  -4  -3 1020.10   57.99
  -2  -4   3  991.80   41.40
  -2  -4   3  990.90   55.09
   2  -4  -3  919.71   42.90
  -2   4   3  931.91   42.70
   2   4  -3  897.41   54.29
   2   4  -3  982.60   42.70
  -2   4   3  967.60   57.59
   0  -4   3  440.46   19.00
   0  -4   3  436.16   20.10
   0  -4  -3  450.75   37.20
   0  -4  -3  490.25   26.90
   0  -4   3  495.95   33.70
   0  -4   3  546.25   29.80
   0   4   3  500.45   26.00
   0   4  -3  496.35   24.10
   0   4   3  375.66   35.70
   0   4  -3  419.06   32.00
  -2  -4  -3  787.32   51.99
   2  -4   3  850.91   46.70
  -2  -4  -3  807.92   38.80
   2  -4   3  819.02   41.00
   2   4   3  785.52   47.40
  -2   4  -3  828.52   32.80
   2   4   3  855.41   53.79
   4  -4   3    0.00    7.80
  -4  -4  -3   21.70   14.40
  -4  -4  -3   -0.10    5.70
   4   4   3  -10.30    6.70
   4   4   3    4.60   13.60
  -4   4  -3    1.60    2.80
  -6  -4  -3   43.10   18.50
  -6  -4  -3   52.99   12.00
   6  -4   3   26.60   16.00
  -6   4  -3   49.99   19.80
   6   4   3   40.50   19.60
   6   4   3   65.69   19.30
  -8  -4  -3   45.80   23.90
  -8  -4  -3   47.10   14.80
  -8  -4  -3   32.80   13.40
  -8   4  -3   39.50   22.90
   8   4   3   68.39   22.30
 -10  -4  -3   -8.10   13.90
 -15  -5   3   21.90   18.50
 -15  -5   3  -14.60   46.20
 -15  -5   3    1.80   21.80
 -15   5   3   19.00   37.90
 -15   5   3    5.20   13.20
 -13  -5   3   63.19   17.40
  13  -5  -3   67.79   30.80
 -13  -5   3   57.69   19.10
 -13  -5   3   71.79   36.80
  13   5  -3   56.69   12.90
 -13   5   3   69.99   33.50
 -13   5   3   93.19   19.10
 -11  -5   3   56.79   28.70
 -11  -5   3   52.69   28.30
 -11  -5   3   65.29   16.80
 -11  -5   3   50.89   14.50
  11  -5  -3   67.09   26.80
 -11   5   3   47.20   23.50
 -11   5   3   66.39   14.40
  11   5  -3   68.69   14.80
   9  -5  -3   68.19   11.20
   9  -5  -3   71.49   23.10
  -9  -5   3   53.19   23.90
  -9  -5   3  105.59   18.00
  -9  -5   3   67.19   14.30
  -9  -5   3  130.09   32.40
   9   5  -3   76.49   15.10
  -9   5   3   70.49   23.80
  -9   5   3   82.69   14.80
  -7  -5   3  797.12   58.99
  -7  -5   3  706.73   40.00
   7  -5  -3  687.63   35.50
  -7   5   3  743.63   53.29
  -7   5   3  694.53   37.40
   7   5  -3  719.63   40.20
  -5  -5   3  150.98   15.70
   5  -5  -3  119.69   24.40
  -5  -5   3  102.89   24.80
   5  -5  -3  162.38   15.30
   5   5  -3  121.79   14.60
  -5   5   3  157.98   15.30
  -5   5   3  152.28   26.80
   5   5  -3  184.58   32.40
   3  -5  -3  394.46   25.40
   3  -5  -3  475.45   39.10
  -3  -5   3  472.95   38.70
  -3  -5   3  548.25   28.10
   3   5  -3  440.56   37.90
   3   5  -3  471.75   27.50
  -3   5   3  400.96   37.90
  -3   5   3  389.36   28.70
   1  -5  -3  992.90   47.40
  -1  -5   3 1149.78   47.30
  -1  -5   3 1116.09   59.59
   1  -5  -3 1073.39   63.19
  -1  -5   3 1174.48   44.20
   1   5  -3 1131.09   46.80
  -1   5   3 1108.79   48.20
   1   5  -3 1072.99   59.29
  -1   5   3  997.30   62.49
   1  -5   3  160.88   19.70
  -1  -5  -3  196.28   30.80
  -1  -5  -3  166.38   15.70
   1   5   3  168.08   14.70
   1   5   3  146.29   27.00
  -1   5  -3  155.98   12.40
  -3  -5  -3  259.57   21.00
   3  -5   3  259.17   19.20
   3  -5   3  230.48   24.30
   3  -5   3  250.97   18.70
  -3   5  -3  306.87   27.50
  -3   5  -3  244.88   14.00
   3   5   3  270.07   26.80
   3   5   3  261.37   31.40
   5  -5   3   41.00   16.20
  -5  -5  -3   81.39   24.60
  -5  -5  -3   85.29   15.50
   5   5   3   39.40   16.30
  -5   5  -3   62.19    5.90
  -5   5  -3   84.39   22.00
   5   5   3   58.09   20.00
  -7  -5  -3   53.19   23.20
  -7  -5  -3   84.59   17.30
  -7  -5  -3   97.99   18.90
   7   5   3  119.69   29.00
   7   5   3   57.79   20.40
  -7   5  -3   79.89   24.40
  -9  -5  -3   19.80   15.00
  -9  -5  -3   31.10   26.20
  -9  -5  -3  -15.40   23.40
   9   5   3   22.30   19.50
  -9   5  -3  -12.30   21.20
 -11  -5  -3   21.30   22.20
 -11  -5  -3   25.10   20.30
 -16  -6   3   63.79   60.99
 -16  -6   3    8.50   21.70
 -16   6   3   32.70   19.00
 -16   6   3   79.69   45.10
 -14  -6   3  107.19   44.60
 -14  -6   3   96.69   42.90
 -14  -6   3   89.59   30.50
  14  -6  -3   65.99   35.90
 -14  -6   3  163.38   33.70
 -14   6   3   65.29   26.70
 -14   6   3   75.29   18.10
 -14   6   3   79.79   37.50
  12  -6  -3   93.29   32.80
 -12  -6   3  169.98   42.60
 -12  -6   3  104.49   35.10
 -12  -6   3  151.98   25.70
 -12  -6   3  180.68   26.20
  12   6  -3  131.49   19.20
 -12   6   3  110.69   19.10
 -12   6   3  118.89   32.60
  10  -6  -3   29.30    7.80
 -10  -6   3    7.50    9.60
 -10  -6   3   56.39   24.90
 -10  -6   3   37.00   12.10
  10  -6  -3   24.90    7.00
 -10  -6   3    9.80   21.80
  10  -6  -3    6.60   19.80
 -10   6   3   18.90   10.30
 -10   6   3   15.70   20.40
  10   6  -3   24.40   11.80
  -8  -6   3  186.68   36.30
  -8  -6   3  217.48   22.50
   8  -6  -3  233.38   37.00
   8  -6  -3  220.18   17.80
  -8  -6   3  216.28   20.00
  -8  -6   3  231.88   41.60
  -8   6   3  203.98   35.40
  -8   6   3  214.18   19.80
   8   6  -3  210.38   22.30
   6  -6  -3  420.76   26.00
  -6  -6   3  441.56   29.00
  -6  -6   3  447.76   52.59
   6  -6  -3  364.76   37.40
  -6   6   3  435.96   40.90
  -6   6   3  390.16   26.40
   6   6  -3  393.16   28.60
  -4  -6   3  325.57   34.80
   4  -6  -3  280.87   21.00
   4  -6  -3  267.87   32.90
  -4  -6   3  327.27   22.80
   4   6  -3  355.16   24.80
  -4   6   3  249.78   36.30
  -4   6   3  312.97   22.60
   2  -6  -3 1038.30   64.79
  -2  -6   3 1093.09   44.10
  -2  -6   3 1086.79   62.69
  -2  -6   3 1226.78   48.50
   2  -6  -3 1103.59   50.09
   2   6  -3 1115.19   49.40
  -2   6   3 1074.59   49.90
  -2   6   3 1073.49   65.79
   0  -6   3  866.61   39.60
   0  -6   3  725.33   29.60
   0  -6   3  698.33   44.90
   0  -6   3  644.44   44.10
   0  -6  -3  745.43   38.10
   0  -6  -3  691.43   52.09
   0  -6   3  720.53   29.00
   0   6   3  752.12   53.59
   0   6   3  796.22   38.20
   0   6  -3  726.83   34.50
   2  -6   3  359.46   28.20
  -2  -6  -3  372.46   38.40
   2  -6   3  371.66   29.00
  -2  -6  -3  390.76   26.00
   2  -6   3  395.06   28.80
  -2   6  -3  359.16   28.60
  -2   6  -3  368.16   20.40
   2   6   3  375.26   39.60
   2   6   3  386.76   31.30
  -4  -6  -3  627.54   50.99
   4  -6   3  502.35   39.30
  -4  -6  -3  527.35   32.50
   4   6   3  526.95   46.90
  -4   6  -3  395.46   41.40
   4   6   3  492.45   39.40
  -4   6  -3  463.15   21.90
  -6  -6  -3   60.49   16.60
  -6  -6  -3   24.00   22.60
  -6  -6  -3   73.59   16.80
   6   6   3   65.19   19.20
  -6   6  -3   33.00   18.40
   6   6   3   39.40   22.80
  -6   6  -3   54.49    6.00
  -8  -6  -3    8.30   25.60
  -8  -6  -3   52.19   16.90
  -8  -6  -3   28.70   21.70
   8   6   3   17.90   19.90
   8   6   3   33.20   23.80
 -10  -6  -3   -1.90   33.10
 -10  -6  -3   14.00   18.30
 -10  -6  -3   25.50   20.00
  10   6   3   18.40   22.90
 -15  -7   3   -8.70   50.49
 -15  -7   3   78.29   30.80
 -15  -7   3   45.70   20.60
  15  -7  -3   44.00   38.50
 -15   7   3    3.20   14.90
 -15   7   3   76.59   44.80
 -13  -7   3   39.80   40.00
 -13  -7   3  -15.00   55.39
 -13  -7   3   93.79   20.80
  13  -7  -3   72.59   32.10
 -13  -7   3  105.99   25.10
 -13   7   3  133.99   38.80
  13   7  -3  106.49   18.00
 -13   7   3   73.99   18.10
 -11  -7   3  264.17   49.90
 -11  -7   3  285.37   51.49
 -11  -7   3  209.48   30.10
  11  -7  -3  208.28   39.20
 -11  -7   3  303.67   29.20
  11   7  -3  218.68   24.50
 -11   7   3  216.38   23.20
 -11   7   3  188.58   39.70
  -9  -7   3  193.18   20.60
   9  -7  -3  185.78   17.40
   9  -7  -3  170.78   15.50
   9  -7  -3  163.18   32.10
  -9  -7   3  197.48   39.90
  -9  -7   3  216.68   23.20
  -9   7   3  191.18   36.80
   9   7  -3  209.28   23.70
  -9   7   3  204.18   20.40
  -7  -7   3  157.98   33.60
   7  -7  -3  158.98   15.60
  -7  -7   3  170.68   23.70
  -7  -7   3  206.18   38.60
  -7  -7   3  158.08   15.00
  -7   7   3  170.38   32.10
  -7   7   3  146.19   16.80
   7   7  -3  185.28   20.20
  -5  -7   3  943.11   64.59
   5  -7  -3  919.31   61.29
  -5  -7   3  903.01   45.80
   5  -7  -3  818.82   42.30
  -5  -7   3  916.61   63.39
  -5   7   3  881.21   61.39
   5   7  -3  922.21   47.40
  -5   7   3  921.91   45.20
   3  -7  -3  782.42   56.59
  -3  -7   3  767.72   54.89
  -3  -7   3  801.22   55.29
   3  -7  -3  786.12   40.40
  -3   7   3  763.52   40.30
  -3   7   3  911.91   60.79
   3   7  -3  828.02   41.90
   1  -7  -3 1241.18   74.79
  -1  -7   3 1269.37   51.29
  -1  -7   3 1344.77   52.89
  -1  -7   3 1210.98   67.89
  -1  -7   3 1193.18   67.99
  -1  -7   3 1347.07   51.99
   1  -7  -3 1285.57   57.09
   1   7  -3 1306.17   55.39
  -1   7   3 1346.07   57.59
  -1   7   3 1255.77   75.39
   1  -7   3  783.22   48.50
  -1  -7  -3  768.92   41.00
   1  -7   3  769.62   47.40
  -1  -7  -3  762.22   57.39
  -1   7  -3  812.52   36.60
   1   7   3  751.72   41.50
   1   7   3  817.12   58.89
   3  -7   3 1082.89   51.49
  -3  -7  -3 1082.59   52.39
  -3  -7  -3 1026.30   70.09
   3  -7   3 1027.50   57.49
   3  -7   3 1022.20   56.69
  -3   7  -3 1112.59   58.29
   3   7   3 1161.88   62.09
  -3   7  -3 1040.30   42.90
   3   7   3 1029.60   70.39
  -5  -7  -3  227.38   23.30
  -5  -7  -3  148.19   33.20
  -5  -7  -3  220.88   25.10
  -5   7  -3  195.08   13.20
   5   7   3  262.17   36.30
  -5   7  -3  228.28   33.10
   5   7   3  156.18   32.60
  -7  -7  -3   67.39   18.40
  -7  -7  -3   92.59   20.40
  -7   7  -3   64.19   22.40
   7   7   3   87.29   42.30
  -7   7  -3   73.89    8.50
   7   7   3   54.49   19.30
  -9  -7  -3   47.00   20.20
  -9  -7  -3   27.90   18.30
  -9   7  -3   42.50   27.60
   9   7   3   57.69   22.00
 -11  -7  -3   23.60   22.90
 -11  -7  -3   11.90   43.30
 -11  -7  -3   62.09   25.80
 -16  -8   3  -25.90   34.00
 -16  -8   3   34.50   23.20
 -16  -8   3  -22.20   63.09
 -16   8   3   33.70   45.80
 -14  -8   3   71.29   47.10
  14  -8  -3   85.99   38.10
 -14  -8   3   60.69   22.50
 -14  -8   3   46.10   19.10
 -14   8   3   68.39   17.80
 -14   8   3   58.59   41.20
 -14   8   3   75.89   24.00
  12  -8  -3  192.48   38.80
 -12  -8   3  200.68   45.10
 -12  -8   3  174.98   28.00
 -12  -8   3  174.28   44.70
 -12  -8   3  224.38   27.90
  12   8  -3  200.38   26.40
 -12   8   3  235.08   24.00
 -12   8   3  212.38   42.10
 -10  -8   3  132.09   35.40
 -10  -8   3  194.88   21.40
  10  -8  -3  103.59   11.70
  10  -8  -3  164.48   34.70
 -10  -8   3  161.78   25.90
  10  -8  -3  125.89   13.00
 -10  -8   3   52.59   30.40
 -10   8   3  133.59   20.10
 -10   8   3   99.59   28.40
  10   8  -3  120.19   21.10
  -8  -8   3  303.27   22.70
  -8  -8   3  306.97   27.20
  -8  -8   3  376.76   46.90
   8  -8  -3  261.87   41.10
   8  -8  -3  291.77   21.20
  -8  -8   3  359.16   53.89
   8   8  -3  307.47   28.20
  -8   8   3  275.57   23.90
  -8   8   3  271.27   41.90
   6  -8  -3  773.62   39.60
  -6  -8   3  748.53   60.99
  -6  -8   3  766.92   33.20
  -6  -8   3  761.02   60.59
   6  -8  -3  841.22   59.59
  -6  -8   3  778.52   43.60
  -6   8   3  758.32   41.30
  -6   8   3  676.53   55.19
   6   8  -3  759.52   44.20
   4  -8  -3  971.70   48.00
  -4  -8   3 1081.29   50.59
   4  -8  -3 1019.20   78.99
  -4  -8   3 1123.79   69.49
  -4  -8   3  966.20   78.59
   4   8  -3 1028.50   51.19
  -4   8   3  962.40   67.29
  -4   8   3  977.40   49.00
  -2  -8   3  841.72   57.29
   2  -8  -3  780.62   59.49
  -2  -8   3  849.52   41.20
  -2  -8   3  878.91   34.90
   2  -8  -3  849.72   43.60
  -2  -8   3  848.62   57.59
  -2   8   3  788.32   60.19
   2   8  -3  917.21   44.30
  -2   8   3  840.72   43.70
   0  -8  -3 1454.35   84.99
   0  -8   3 1437.66   54.09
   0  -8   3 1515.15   61.19
   0  -8   3 1320.27   72.89
   0  -8   3 1448.16   53.69
   0  -8   3 1439.96   75.59
   0  -8  -3 1492.35   64.69
   0   8  -3 1471.05   60.59
   0   8   3 1414.96   62.69
   0   8   3 1428.46   85.39
   2  -8   3 1056.79   58.39
  -2  -8  -3 1150.48   54.79
   2  -8   3 1107.69   56.49
  -2  -8  -3 1226.18   77.69
   2  -8   3 1089.19   59.49
   2   8   3 1077.79   59.69
  -2   8  -3 1067.09   46.90
  -2   8  -3 1121.89   56.09
   2   8   3 1149.98   75.59
   4  -8   3  261.97   21.20
  -4  -8  -3  290.77   25.90
  -4  -8  -3  248.08   40.90
   4  -8   3  312.67   21.80
  -4  -8  -3  218.48   25.90
   4   8   3  245.88   29.00
  -4   8  -3  275.97   29.20
  -4   8  -3  243.38   17.20
   4   8   3  284.07   42.80
  -6  -8  -3  256.37   27.60
  -6  -8  -3  218.48   28.50
   6   8   3  275.67   44.60
  -6   8  -3  236.98   35.60
   6   8   3  232.38   36.20
  -6   8  -3  188.28   14.50
  -8  -8  -3   57.09   34.80
  -8  -8  -3   77.09   20.60
  -8  -8  -3   92.59   20.50
   8   8   3   40.10   21.20
   8   8   3   56.59   32.60
  -8   8  -3   60.89   26.80
 -10  -8  -3   58.79   23.70
 -10  -8  -3  100.49   45.40
  10   8   3   48.10   27.40
  15  -9  -3   16.70   38.70
 -15  -9   3   78.59   61.39
 -15  -9   3   32.90   22.60
 -15   9   3   49.90   19.30
 -15   9   3  -66.79   42.30
  13  -9  -3   58.19   33.30
 -13  -9   3   65.59   43.70
 -13  -9   3  101.09   24.80
 -13  -9   3  122.79   25.60
 -13  -9   3  139.49   50.19
  13   9  -3  129.79   27.80
 -13   9   3  117.39   21.50
 -13   9   3   58.29   36.80
 -11  -9   3  359.06   33.50
 -11  -9   3  447.16   65.79
 -11  -9   3  394.16   33.80
 -11  -9   3  460.55   59.39
  11  -9  -3  379.26   49.60
 -11   9   3  367.46   53.89
 -11   9   3  365.16   30.50
  11   9  -3  431.36   35.80
   9  -9  -3  173.68   37.40
  -9  -9   3  208.38   23.60
   9  -9  -3  168.78   17.10
  -9  -9   3  178.28   42.10
  -9  -9   3  136.79   39.80
  -9  -9   3  186.28   19.60
   9  -9  -3  186.38   16.70
  -9   9   3  160.58   20.10
   9   9  -3  248.38   34.90
  -9   9   3  174.68   35.90
  -7  -9   3  358.36   51.89
  -7  -9   3  245.08   17.50
  -7  -9   3  288.57   46.80
  -7  -9   3  254.37   25.60
   7  -9  -3  223.68   22.50
   7  -9  -3  235.18   20.10
   7  -9  -3  246.08   41.80
  -7   9   3  313.07   39.90
  -7   9   3  230.78   22.40
   7   9  -3  299.97   28.00
  -5  -9   3 1203.08   78.09
  -5  -9   3 1066.69   37.00
   5  -9  -3 1131.89   51.99
  -5  -9   3 1166.08   75.79
  -5  -9   3 1104.49   54.39
   5  -9  -3 1072.49   72.19
   5   9  -3 1052.69   54.79
  -5   9   3 1024.60   71.89
  -5   9   3  943.01   51.09
  -3  -9   3 1957.10   77.79
  -3  -9   3 1805.82   98.79
   3  -9  -3 1925.11   78.89
   3  -9  -3 1816.72  100.19
  -3  -9   3 1864.61   97.89
   3   9  -3 1804.82   78.59
  -3   9   3 1777.72   99.79
  -3   9   3 2010.70   80.39
   1  -9  -3  467.95   30.80
  -1  -9   3  475.75   26.40
  -1  -9   3  445.16   41.20
   1  -9  -3  476.05   48.40
  -1  -9   3  456.35   26.30
  -1  -9   3  397.66   41.70
   1   9  -3  481.45   29.90
  -1   9   3  438.46   45.60
  -1   9   3  436.86   30.20
   1  -9   3  854.71   53.79
  -1  -9  -3  702.03   42.00
   1  -9   3  800.12   52.09
  -1  -9  -3  779.72   62.09
  -1   9  -3  792.82   41.70
   1   9   3  776.02   42.00
  -1   9  -3  742.73   38.50
   1   9   3  805.42   62.79
   3  -9   3  928.01   51.99
  -3  -9  -3  805.72   50.29
  -3  -9  -3  885.81   49.10
   3  -9   3  909.01   50.89
  -3  -9  -3  900.81   70.59
  -3   9  -3  862.81   40.60
   3   9   3  871.91   54.79
   3   9   3  873.11   70.09
  -3   9  -3  882.51   51.59
  -5  -9  -3  246.88   27.80
  -5  -9  -3  289.57   47.80
  -5  -9  -3  200.68   24.00
   5   9   3  187.98   30.60
   5   9   3  216.28   40.00
  -5   9  -3  197.38   16.20
  -5   9  -3  223.58   33.60
  -7  -9  -3  134.59   25.70
  -7  -9  -3   55.59   19.80
   7   9   3  113.99   38.00
  -7   9  -3  120.79   12.80
  -7   9  -3   91.09   25.60
   7   9   3   97.49   25.90
  -9  -9  -3   68.49   23.70
  -9   9  -3   85.09   11.30
   9   9   3   52.59   24.20
 -14 -10   3   59.19   21.50
 -14 -10   3   30.00   54.99
  14 -10  -3  168.58   61.39
 -14 -10   3   56.29   25.40
 -14  10   3   53.89   19.50
 -14  10   3   37.10   62.49
 -12 -10   3  112.49   47.50
 -12 -10   3  166.28   28.20
 -12 -10   3  245.08   29.70
  12 -10  -3  143.69   40.30
 -12  10   3  215.08   47.50
  12  10  -3  251.67   30.80
 -12  10   3  196.18   24.30
 -10 -10   3  373.86   29.90
 -10 -10   3  321.87   57.49
 -10 -10   3  420.96   62.49
  10 -10  -3  367.86   21.30
 -10 -10   3  378.36   35.30
  10 -10  -3  381.26   48.00
  10 -10  -3  376.76   22.20
 -10  10   3  305.87   58.49
  10  10  -3  373.26   34.30
 -10  10   3  368.76   30.20
  -8 -10   3  357.26   23.80
  -8 -10   3  404.66   52.19
  -8 -10   3  398.26   33.60
   8 -10  -3  413.36   48.90
  -8 -10   3  374.36   57.39
   8 -10  -3  379.06   24.90
   8 -10  -3  364.96   26.70
  -8  10   3  356.96   28.50
   8  10  -3  378.16   33.60
  -8  10   3  283.67   46.40
   6 -10  -3  704.43   42.30
  -6 -10   3  676.03   43.70
   6 -10  -3  695.63   58.99
  -6 -10   3  727.13   28.90
  -6 -10   3  792.02   65.99
   6 -10  -3  767.02   40.60
  -6 -10   3  927.61   71.29
   6  10  -3  707.53   46.20
  -6  10   3  812.92   64.09
  -6  10   3  792.52   43.60
  -4 -10   3 1229.98   83.19
   4 -10  -3 1472.15   87.49
  -4 -10   3 1531.85   66.19
   4 -10  -3 1500.55   65.09
   4 -10  -3 1329.97   65.39
  -4 -10   3 1460.95   89.69
   4  10  -3 1359.36   66.29
  -4  10   3 1389.16   65.19
   2 -10  -3 1308.47   59.49
   2 -10  -3 1120.09   77.69
  -2 -10   3 1139.19   73.49
  -2 -10   3 1302.17   55.69
  -2 -10   3 1147.19   53.59
  -2 -10   3 1135.59   74.59
   2 -10  -3 1273.57   61.69
  -2  10   3 1191.38   58.39
  -2  10   3 1055.99   77.49
   2  10  -3 1276.17   58.99
   0 -10   3  676.13   31.60
   0 -10  -3  633.14   40.00
   0 -10   3  676.53   51.19
   0 -10  -3  555.94   55.19
   0 -10   3  624.34   50.89
   0 -10   3  660.93   31.60
   0 -10  -3  776.72   45.40
   0  10   3  642.34   59.09
   0  10  -3  670.83   37.90
   0  10   3  718.53   40.80
  -2 -10  -3  595.04   42.20
   2 -10   3  600.94   46.20
   2 -10   3  685.43   48.60
  -2 -10  -3  500.85   55.69
  -2  10  -3  576.54   37.80
  -2  10  -3  668.23   35.10
   4 -10   3  464.55   34.90
  -4 -10  -3  451.25   35.20
  -4 -10  -3  533.95   59.59
  -4 -10  -3  439.66   37.60
   4 -10   3  410.36   32.90
  -4  10  -3  395.66   35.90
   4  10   3  466.15   39.30
   4  10   3  464.45   54.89
  -4  10  -3  454.85   27.20
  -6 -10  -3  221.78   27.10
  -6 -10  -3  244.18   30.10
   6  10   3  250.17   39.10
  -6  10  -3  222.98   18.60
   6  10   3  258.17   49.70
  -6  10  -3  240.68   35.90
  -8 -10  -3  156.18   28.50
  -8  10  -3  209.08   42.00
   8  10   3  202.18   37.70
  -8  10  -3  168.58   17.20
 -10 -10  -3  103.89   60.49
 -10 -10  -3   78.49   28.00
  10  10   3   24.00   25.90
  15 -11  -3   42.90   43.10
 -15 -11   3   26.00   70.79
 -15 -11   3   37.00   24.00
 -15 -11   3   33.70   38.40
 -15  11   3  -75.79   47.20
 -15  11   3   35.30   21.60
 -13 -11   3  101.59   52.09
 -13 -11   3   99.29   24.30
  13 -11  -3   89.29   39.70
 -13 -11   3  132.79   28.50
 -13 -11   3  103.39   56.59
  13  11  -3  116.99   25.50
 -13  11   3  108.49   21.60
 -13  11   3   61.49   43.30
 -11 -11   3  267.47   58.19
 -11 -11   3  402.86   33.20
 -11 -11   3  317.17   60.89
  11 -11  -3  483.65   56.69
 -11  11   3  378.26   54.89
 -11  11   3  420.96   34.40
  11  11  -3  433.16   38.00
  -9 -11   3  606.44   65.79
   9 -11  -3  507.35   56.09
   9 -11  -3  528.15   30.20
  -9 -11   3  516.65   32.10
  -9 -11   3  531.35   41.70
  -9 -11   3  420.96   67.19
  -9  11   3  619.64   38.80
  -9  11   3  557.14   58.59
   9  11  -3  482.75   41.40
   7 -11  -3  354.36   51.39
   7 -11  -3  330.57   25.70
  -7 -11   3  427.56   34.20
  -7 -11   3  353.36   19.50
   7 -11  -3  405.26   29.90
  -7 -11   3  367.46   57.29
  -7 -11   3  408.66   52.39
  -7  11   3  349.87   29.20
  -7  11   3  397.26   49.90
   7  11  -3  415.46   35.90
  -5 -11   3 1287.97   63.29
  -5 -11   3 1251.97   85.29
   5 -11  -3 1253.17   83.89
  -5 -11   3 1239.28   87.59
   5 -11  -3 1232.68   58.99
   5 -11  -3 1306.37   63.19
  -5  11   3 1213.88   61.19
  -5  11   3 1242.38   84.29
   3 -11  -3 1721.13  102.09
  -3 -11   3 1792.52  100.49
   3 -11  -3 1891.11   81.69
  -3 -11   3 1770.82   75.09
  -3 -11   3 1644.84   74.29
   3 -11  -3 1712.13   76.59
  -3 -11   3 1787.02  101.79
  -3  11   3 1722.93   77.59
   3  11  -3 1738.73   78.89
  -3  11   3 1810.12  104.99
   1 -11  -3 1027.70   57.49
  -1 -11   3  907.61   43.60
   1 -11  -3  962.40   53.59
  -1 -11   3  863.41   64.19
   1 -11  -3  893.21   70.19
  -1 -11   3  851.91   43.50
   1  11  -3  950.90   49.20
  -1  11   3  894.51   49.40
  -1  11   3  863.61   70.69
   1 -11   3  665.13   27.40
   1 -11   3  680.33   51.99
   1 -11   3  621.04   52.29
  -1 -11  -3  718.33   43.40
  -1 -11  -3  606.84   43.30
   1 -11   3  670.73   29.40
  -1 -11  -3  717.03   64.99
  -1  11  -3  746.73   39.00
   1  11   3  688.83   41.30
   1  11   3  648.74   64.79
  -1  11  -3  654.83   38.20
   3 -11   3  664.53   48.10
   3 -11   3  598.84   46.00
  -3 -11  -3  588.74   43.30
  -3 -11  -3  479.45   59.99
  -3 -11  -3  617.74   41.60
  -3  11  -3  552.14   39.90
  -3  11  -3  573.74   33.90
   3  11   3  557.94   43.10
   3  11   3  550.74   61.89
  -5 -11  -3  555.94   40.80
   5 -11   3  494.95   32.50
  -5 -11  -3  519.85   42.30
  -5 -11  -3  503.95   62.09
   5 -11   3  430.96   31.30
  -5  11  -3  456.05   41.90
   5  11   3  362.36   56.99
  -5  11  -3  472.75   29.60
   5  11   3  485.65   42.80
  -7 -11  -3  234.48   53.99
  -7 -11  -3  260.87   56.49
  -7 -11  -3  206.18   31.70
   7  11   3  208.28   36.50
  -7  11  -3  217.68   20.70
   7  11   3  251.17   50.09
  -7  11  -3  196.48   36.00
  -9 -11  -3  102.19   34.00
  -9 -11  -3  181.18   34.40
   9  11   3  100.69   28.10
  -9  11  -3  180.48   19.50
 -14 -12   3   46.60   24.20
 -14 -12   3   73.19   27.20
 -14 -12   3   99.39   63.89
  14 -12  -3  110.49   55.09
 -14  12   3  111.19   49.00
  12 -12  -3  100.79   37.80
 -12 -12   3  176.78   26.80
 -12 -12   3   91.69   51.59
 -12 -12   3   70.49   22.60
  12  12  -3  179.58   30.40
 -12  12   3  127.99   23.10
 -12  12   3  172.28   51.99
 -10 -12   3  833.42   96.59
  10 -12  -3  711.23   34.00
 -10 -12   3  685.63   81.49
 -10 -12   3  681.33   40.40
  10 -12  -3  704.23   66.69
  10 -12  -3  675.93   32.30
 -10  12   3  645.24   42.90
  10  12  -3  639.14   48.30
 -10  12   3  433.86   74.79
   8 -12  -3  478.55   32.50
   8 -12  -3  464.55   30.10
  -8 -12   3  473.25   71.69
   8 -12  -3  486.45   71.59
  -8 -12   3  480.55   38.30
  -8 -12   3  511.95   70.89
   8  12  -3  485.45   41.20
  -8  12   3  500.15   66.89
  -8  12   3  518.55   36.30
   6 -12  -3  733.63   64.19
   6 -12  -3  690.03   43.20
  -6 -12   3  715.53   45.50
  -6 -12   3  620.64   64.69
   6 -12  -3  744.73   41.70
  -6 -12   3  751.82   71.69
   6  12  -3  705.23   47.30
  -6  12   3  707.33   44.00
  -6  12   3  719.03   64.09
   4 -12  -3 1293.87   88.59
   4 -12  -3 1353.66   67.49
   4 -12  -3 1362.36   64.39
  -4 -12   3 1337.27   89.09
  -4 -12   3 1373.26   65.59
  -4 -12   3 1261.27   63.09
  -4 -12   3 1289.97   89.99
  -4  12   3 1337.67   90.59
   4  12  -3 1397.26   69.69
  -4  12   3 1359.96   65.99
  -2 -12   3 1008.50   49.00
   2 -12  -3  937.31   52.69
  -2 -12   3  901.41   67.79
   2 -12  -3  852.61   73.09
  -2 -12   3  995.00   49.20
   2 -12  -3  970.50   55.59
  -2 -12   3  966.60   72.49
  -2  12   3  972.60   53.19
  -2  12   3  923.81   76.19
   2  12  -3  963.10   53.09
   0 -12   3 1231.38   77.89
   0 -12   3 1181.88   79.39
   0 -12   3 1314.17   53.39
   0 -12  -3 1178.98   86.19
   0 -12  -3 1185.18   65.29
   0 -12  -3 1286.77   64.29
   0 -12   3 1243.38   52.59
   0  12   3 1192.98   87.29
   0  12   3 1243.18   62.89
   0  12  -3 1306.07   61.59
  -2 -12  -3  656.33   44.50
  -2 -12  -3  684.83   48.00
   2 -12   3  701.73   55.39
   2 -12   3  655.33   53.39
  -2 -12  -3  696.33   67.79
   2  12   3  658.93   67.79
  -2  12  -3  717.43   40.80
  -2  12  -3  707.13   41.90
  -4 -12  -3  339.87   55.39
  -4 -12  -3  358.06   35.70
   4 -12   3  377.06   38.80
   4 -12   3  349.96   37.60
  -4 -12  -3  376.06   34.70
  -4  12  -3  353.26   34.20
  -4  12  -3  328.57   26.20
   4  12   3  341.47   56.79
   4  12   3  383.96   37.00
  -6 -12  -3  409.66   38.90
  -6 -12  -3  477.95   70.69
   6  12   3  436.46   65.09
  -6  12  -3  447.76   44.40
   6  12   3  362.56   43.40
  -6  12  -3  387.16   28.80
  -8 -12  -3  118.59   28.70
  -8 -12  -3  138.49   31.10
  -8  12  -3  211.58   22.00
   8  12   3  156.38   34.90
  -8  12  -3  302.37   48.90
 -15 -13   3  114.39   50.19
  15 -13  -3   82.79   54.39
 -15  13   3   74.69   23.90
 -15  13   3  -13.90   55.99
 -13 -13   3   66.99   24.20
  13 -13  -3  108.19   47.20
 -13 -13   3   99.39   60.89
 -13  13   3   53.59   47.60
  13  13  -3   62.69   25.40
 -13  13   3   54.19   26.60
 -11 -13   3  250.87   61.69
 -11 -13   3  137.69   61.79
 -11 -13   3  198.58   33.80
  11 -13  -3  241.68   49.90
  11  13  -3  322.97   36.00
 -11  13   3  267.37   57.09
 -11  13   3  254.77   28.10
  -9 -13   3  951.30   92.59
   9 -13  -3  938.81   46.00
   9 -13  -3 1036.50   49.40
   9 -13  -3  972.60   78.09
  -9 -13   3  915.71   60.79
  -9 -13   3 1007.60   90.79
  -9  13   3  972.60   82.79
  -9  13   3 1024.20   56.49
   9  13  -3  981.10   61.99
  -7 -13   3  678.33   70.99
  -7 -13   3  701.43   75.89
  -7 -13   3  692.43   46.20
   7 -13  -3  594.14   61.09
   7 -13  -3  636.54   40.90
   7 -13  -3  666.93   38.60
  -7  13   3  576.64   64.79
  -7  13   3  583.54   41.40
   7  13  -3  590.54   45.50
   5 -13  -3  934.31   52.49
  -5 -13   3  863.01   72.69
  -5 -13   3  886.01   51.59
  -5 -13   3  862.11   50.89
  -5 -13   3  820.12   77.99
  -5  13   3  891.51   51.19
   5  13  -3  934.41   56.19
  -5  13   3  825.42   73.19
  -3 -13   3  573.54   62.29
   3 -13  -3  699.03   42.50
   3 -13  -3  713.13   65.89
  -3 -13   3  695.73   41.60
   3 -13  -3  718.93   46.00
  -3 -13   3  620.84   60.59
  -3 -13   3  599.24   38.30
   3  13  -3  650.23   44.30
  -3  13   3  534.55   61.79
  -3  13   3  656.33   42.90
   1 -13  -3 1069.89   85.59
   1 -13  -3 1244.78   66.09
  -1 -13   3 1171.88   81.49
  -1 -13   3 1226.08   56.29
  -1 -13   3 1238.78   56.39
   1 -13  -3 1201.18   62.59
  -1  13   3 1177.28   88.89
  -1  13   3 1251.67   63.29
   1  13  -3 1190.98   66.49
   1 -13   3  776.22   61.39
   1 -13   3  664.13   59.89
  -1 -13  -3  647.74   47.40
  -1 -13  -3  669.23   70.89
   1 -13   3  745.13   33.00
  -1 -13  -3  791.32   49.00
   1 -13   3  770.62   33.60
   1  13   3  829.62   48.30
  -1  13  -3  774.02   40.80
   1  13   3  798.92   87.69
  -1  13  -3  756.32   45.00
  -3 -13  -3  171.48   29.70
  -3 -13  -3  242.48   28.50
   3 -13   3  163.58   33.10
  -3 -13  -3  175.38   45.80
   3 -13   3  276.77   40.40
   3  13   3  136.79   41.80
  -3  13  -3  191.08   27.00
   3  13   3  203.28   30.60
  -3  13  -3  187.28   25.40
   5 -13   3  602.04   45.50
  -5 -13  -3  496.35   44.70
   5 -13   3  596.94   55.19
   5  13   3  668.23   76.99
  -5  13  -3  587.74   37.30
  -5  13  -3  614.74   49.20
   5  13   3  606.24   50.09
  -7 -13  -3  347.47   46.60
  -7 -13  -3  218.58   35.40
  -7  13  -3  253.27   26.60
  -7  13  -3  238.38   40.30
   7  13   3  244.58   41.60
  -9 -13  -3   88.19   33.20
  -9 -13  -3  218.38   40.10
   9  13   3  140.09   34.60
  -9  13  -3  135.49   20.60
 -14 -14   3   82.59   30.00
 -14 -14   3   74.49   78.99
  14 -14  -3   28.80   49.40
 -14  14   3   69.49   23.30
 -14  14   3  115.99   58.89
 -12 -14   3   14.40   55.69
 -12 -14   3  105.29   26.90
 -12 -14   3   22.00   55.29
  12 -14  -3   49.10   39.90
 -12  14   3   66.39   28.50
 -12  14   3   77.89   52.39
  12  14  -3   47.10   23.70
 -10 -14   3  412.86   40.90
  10 -14  -3  304.37   51.19
 -10 -14   3  307.17   66.59
  10 -14  -3  380.16   23.20
 -10 -14   3  284.87   65.39
  10 -14  -3  363.66   24.00
  10  14  -3  283.17   38.80
 -10  14   3  327.77   67.49
 -10  14   3  390.06   33.80
  -8 -14   3  995.00   63.09
  -8 -14   3 1183.18   98.19
  -8 -14   3 1000.10   95.39
   8 -14  -3 1008.40   51.49
   8 -14  -3 1005.20   53.89
  -8  14   3 1159.78   90.19
  -8  14   3 1092.69   59.79
   8  14  -3 1005.20   64.69
   6 -14  -3  919.61   78.29
  -6 -14   3  891.31   81.99
   6 -14  -3  885.91   52.19
   6 -14  -3  801.02   49.99
  -6 -14   3  836.12   78.49
  -6 -14   3  850.81   52.79
  -6 -14   3  923.81   54.99
  -6  14   3  729.63   74.79
  -6  14   3  917.11   53.29
   6  14  -3  863.01   57.09
   4 -14  -3  922.61   50.89
  -4 -14   3  920.61   79.09
  -4 -14   3  760.12   47.80
   4 -14  -3  788.72   74.29
  -4 -14   3  822.32   75.39
   4 -14  -3  834.82   52.19
  -4 -14   3  833.72   49.99
  -4  14   3  738.33   72.89
   4  14  -3  815.72   52.69
  -4  14   3  850.91   51.49
  -2 -14   3  885.91   75.89
   2 -14  -3  857.01   54.39
   2 -14  -3  856.11   76.59
   2 -14  -3  858.51   51.89
  -2 -14   3  942.31   74.19
  -2 -14   3  929.91   49.20
  -2 -14   3  911.61   49.30
   2  14  -3  900.31   53.89
  -2  14   3  944.61   54.59
  -2  14   3  965.50   82.99
   0 -14   3  747.03   38.70
   0 -14  -3  710.23   48.00
   0 -14  -3  832.22   78.79
   0 -14   3  808.02   67.39
   0 -14   3  724.53   64.59
   0 -14  -3  814.62   52.09
   0 -14   3  692.93   37.90
   0  14   3  761.72   48.30
   0  14   3  751.22   74.09
   0  14  -3  717.93   47.20
  -2 -14  -3  579.24   78.29
  -2 -14  -3  433.16   39.00
  -2 -14  -3  338.67   33.20
   2 -14   3  422.36   49.99
   2 -14   3  444.46   48.80
   2  14   3  441.76   69.99
  -2  14  -3  375.66   31.90
  -2  14  -3  441.86   32.10
  -4 -14  -3  490.65   51.19
   4 -14   3  548.95   50.59
  -4 -14  -3  482.35   42.70
  -4 -14  -3  527.35   75.29
   4 -14   3  523.05   51.19
  -4  14  -3  544.55   37.90
   4  14   3  551.74   71.49
   4  14   3  582.74   46.70
  -4  14  -3  568.94   43.60
   6 -14   3  338.17   33.40
  -6 -14  -3  391.56   68.79
  -6 -14  -3  330.37   40.40
  -6 -14  -3  323.77   43.80
   6 -14   3  326.97   32.30
   6  14   3  360.66   41.10
  -6  14  -3  294.27   30.40
   6  14   3  391.06   66.29
  -6  14  -3  276.97   41.80
  -8 -14  -3  244.08   40.80
  -8 -14  -3  218.48   38.30
  -8  14  -3  260.37   29.20
  -8  14  -3  227.78   45.20
   8  14   3  232.08   41.50
 -13 -15   3  117.19   70.89
  13 -15  -3  121.99   51.89
 -13 -15   3   59.99   25.20
 -13  15   3   80.19   23.50
 -13  15   3  127.09   59.99
 -11 -15   3  145.19   29.10
 -11 -15   3  130.49   57.39
  11 -15  -3  108.99   46.60
 -11  15   3  214.48   53.99
   9 -15  -3  505.85   65.29
  -9 -15   3  558.94   84.39
   9 -15  -3  474.25   31.60
  -9 -15   3  478.85   80.89
  -9 -15   3  545.25   45.60
   9 -15  -3  539.85   35.80
  -9  15   3  528.85   41.30
  -9  15   3  566.14   77.29
   9  15  -3  567.24   48.40
   7 -15  -3 1833.22  115.09
  -7 -15   3 1541.15  114.59
   7 -15  -3 1616.94   77.69
  -7 -15   3 1786.32  125.29
   7 -15  -3 1633.64   78.59
  -7 -15   3 1651.33   85.39
  -7 -15   3 1769.92   87.59
   7  15  -3 1661.53   87.59
  -7  15   3 1677.33  115.89
  -7  15   3 1589.44   80.19
  -5 -15   3  620.44   73.49
   5 -15  -3  549.95   39.50
   5 -15  -3  706.83   46.00
  -5 -15   3  557.54   42.00
  -5 -15   3  527.35   68.19
   5 -15  -3  533.15   65.69
  -5 -15   3  655.33   44.80
  -5  15   3  537.15   41.10
   5  15  -3  567.04   46.40
  -3 -15   3 1061.59   59.39
  -3 -15   3 1204.28   91.49
   3 -15  -3 1257.87   67.79
  -3 -15   3 1256.97   62.99
  -3 -15   3 1186.98   89.19
   3 -15  -3 1130.29   62.39
   3 -15  -3 1198.58   94.29
  -3  15   3 1183.98   94.39
  -3  15   3 1232.38   66.49
   3  15  -3 1126.89   65.59
  -1 -15   3  982.60   79.89
  -1 -15   3  968.40   78.89
   1 -15  -3  933.81   59.69
   1 -15  -3 1064.79   89.79
  -1 -15   3  956.20   50.39
  -1 -15   3 1032.80   51.09
   1 -15  -3  969.30   57.09
  -1  15   3  993.70   86.79
  -1  15   3  994.30   58.39
   1  15  -3  989.70   57.89
  -1 -15  -3  784.42   55.19
   1 -15   3  827.52   71.79
  -1 -15  -3  844.92   81.99
   1 -15   3  828.22   69.29
  -1 -15  -3  769.42   51.69
   1 -15   3  748.43   36.80
   1 -15   3  797.42   36.90
  -1  15  -3  770.12   49.40
   1  15   3  676.13   77.69
  -1  15  -3  810.42   41.60
   1  15   3  792.42   50.79
  -3 -15  -3  678.93   76.99
  -3 -15  -3  672.93   49.50
   3 -15   3  647.64   59.69
   3 -15   3  615.24   60.39
  -3 -15  -3  602.04   50.29
   3  15   3  552.34   45.40
  -3  15  -3  643.74   43.40
   3  15   3  666.93   90.59
  -3  15  -3  639.74   43.50
  -5 -15  -3  460.45   80.59
   5 -15   3  369.76   46.40
   5 -15   3  521.85   78.29
  -5 -15  -3  519.95   49.10
  -5 -15  -3  532.35   49.20
   5  15   3  501.35   79.49
  -5  15  -3  442.46   42.60
   5  15   3  382.26   48.20
  -7 -15  -3  226.98   41.30
  -7 -15  -3  282.57   43.80
   7  15   3  344.17   48.10
  -7  15  -3  228.08   46.00
 -12 -16   3  117.69   71.89
  12 -16  -3   67.09   47.40
 -12 -16   3  132.49   33.20
 -12 -16   3  163.08  120.49
 -12  16   3  177.48   64.39
 -12  16   3  149.99   29.50
  10 -16  -3  298.77   21.60
 -10 -16   3  217.88   38.80
 -10 -16   3  204.98   35.70
 -10 -16   3  214.38   69.19
 -10 -16   3  174.58   59.59
  10 -16  -3  284.17   57.39
 -10  16   3  246.78   70.69
 -10  16   3  264.17   31.10
  -8 -16   3  632.34   89.89
   8 -16  -3  774.22   46.20
  -8 -16   3  695.63   52.49
  -8 -16   3  807.12   89.79
   8  16  -3  566.44   57.19
  -8  16   3  787.92   51.59
  -8  16   3  679.23   79.49
  -6 -16   3 1652.63  119.59
   6 -16  -3 1583.94  109.99
   6 -16  -3 1336.47   71.99
  -6 -16   3 1386.06  109.19
  -6 -16   3 1439.46   76.09
   6 -16  -3 1413.36   69.59
  -6 -16   3 1474.55   78.19
  -6  16   3 1477.25   76.59
  -6  16   3 1329.57  105.09
   4 -16  -3 1136.99   92.39
  -4 -16   3 1006.70   58.69
  -4 -16   3 1032.60   91.39
  -4 -16   3 1064.19   90.39
   4 -16  -3 1035.30   58.99
  -4 -16   3 1064.49   60.59
   4 -16  -3 1038.00   62.19
  -4  16   3 1009.30   61.49
   4  16  -3 1089.09   65.39
  -4  16   3  994.50   90.59
  -2 -16   3  903.81   50.69
   2 -16  -3  891.71   57.99
   2 -16  -3  776.42   82.69
  -2 -16   3  849.72   80.09
   2 -16  -3  983.70   56.69
  -2 -16   3  851.71   49.99
  -2  16   3  889.51   84.79
   2  16  -3  896.81   57.39
  -2  16   3  824.12   53.79
   0 -16   3  929.51   77.89
   0 -16   3  970.00   49.10
   0 -16   3 1052.89   83.29
   0 -16  -3 1040.00   93.59
   0 -16   3  964.60   48.60
   0 -16  -3 1090.59   66.19
   0  16  -3  985.20   59.69
   0  16   3  963.50   58.79
   0  16   3  863.01   96.59
   2 -16   3  924.91   76.19
  -2 -16  -3  848.42   59.89
  -2 -16  -3  994.20   60.49
   2 -16   3  760.32   70.39
  -2 -16  -3  712.23   86.69
  -2  16  -3  836.92   47.70
   2  16   3 1005.20   97.19
  -2  16  -3  840.32   53.29
  -4 -16  -3  558.04   51.59
   4 -16   3  545.45   60.59
   4 -16   3  518.65   59.39
   4  16   3  682.43   51.09
   4  16   3  581.54   83.69
  -4  16  -3  611.14   46.60
  -4  16  -3  681.33   45.60
  -6 -16  -3  363.66   44.80
  -6 -16  -3  415.56   48.60
   6 -16   3  282.57   39.10
  -6  16  -3  324.97   46.00
  -6  16  -3  305.37   35.10
   6  16   3  352.96   41.50
  -8 -16  -3  149.79   36.60
  -8  16  -3  140.99   27.90
   8  16   3  189.78   36.90
  13 -17  -3   84.39   60.99
 -13 -17   3   67.39   30.20
  13  17  -3  141.99   39.50
 -13  17   3   78.79   28.00
 -13  17   3   98.39   79.39
 -11 -17   3  323.27   81.09
 -11 -17   3  135.49   71.39
  11 -17  -3  193.28   56.39
 -11 -17   3  144.59   30.20
 -11  17   3  168.98   28.90
 -11  17   3  136.59   61.19
  11  17  -3  215.78   37.80
   9 -17  -3  448.26   74.79
   9 -17  -3  417.76   30.40
   9 -17  -3  420.36   33.10
  -9 -17   3  374.26   77.09
  -9 -17   3  389.76   77.09
  -9 -17   3  443.66   43.00
  -9  17   3  394.56   38.00
  -9  17   3  354.26   66.39
  -7 -17   3  821.92   55.89
  -7 -17   3  801.92   89.29
   7 -17  -3  691.73   47.50
   7 -17  -3  723.43   45.80
  -7 -17   3  524.75  100.59
   7 -17  -3  774.52   83.39
  -7  17   3  716.23   81.39
  -7  17   3  730.23   51.09
  -5 -17   3 1372.06   76.19
  -5 -17   3 1506.85   78.69
   5 -17  -3 1546.85   75.29
  -5 -17   3 1454.75  116.29
   5 -17  -3 1431.76  112.39
  -5 -17   3 1507.65  112.49
   5 -17  -3 1496.25   78.39
  -5  17   3 1514.45  116.49
  -3 -17   3  576.34   43.00
   3 -17  -3  665.23   46.40
   3 -17  -3  623.54   49.50
  -3 -17   3  677.93   45.20
  -3 -17   3  562.54   71.99
   3 -17  -3  618.24   76.99
  -3  17   3  611.94   76.29
   3  17  -3  627.84   50.19
  -1 -17   3  834.52   81.59
  -1 -17   3  880.01   48.60
   1 -17  -3  725.03   86.49
   1 -17  -3  756.42   51.99
  -1 -17   3  844.82   51.09
  -1  17   3  833.22   79.79
  -1  17   3  739.73   82.59
   1  17  -3  816.92   56.29
  -1 -17  -3 1064.79   99.19
   1 -17   3  922.71   79.99
   1 -17   3  986.00   45.20
  -1 -17  -3  954.20   63.99
   1 -17   3 1079.59   86.99
   1  17   3  848.52   90.29
  -1  17  -3  909.11   58.89
  -3 -17  -3  485.65   46.40
   3 -17   3  541.45   64.19
  -3 -17  -3  595.04   89.69
   3 -17   3  542.25   62.19
  -3 -17  -3  465.25   50.69
  -3  17  -3  513.45   38.80
  -3  17  -3  504.45   42.70
   3  17   3  440.46   77.19
   3  17   3  466.25   42.50
  -5 -17  -3  432.96   48.30
  -5 -17  -3  370.56   45.40
   5 -17   3  406.96   56.59
  -5 -17  -3  457.15   83.59
  -5  17  -3  481.15   45.50
   5  17   3  340.87   75.39
  -5  17  -3  399.46   39.70
   5  17   3  351.96   41.00
  -7 -17  -3  265.47   45.00
   7 -17   3  158.78   27.00
  -7  17  -3  294.57   47.60
  -7  17  -3  224.28   31.90
   7  17   3  196.88   36.70
 -12 -18   3  237.58   92.69
  12 -18  -3  119.89   61.29
 -12  18   3  188.68   33.70
  12  18  -3  140.19   41.80
 -12  18   3  202.48   77.09
 -10 -18   3  216.78   38.40
  10 -18  -3  132.79   54.39
 -10 -18   3  292.27   80.89
  10 -18  -3  292.17   23.30
  10  18  -3  238.58   38.10
 -10  18   3  202.88   76.69
 -10  18   3  323.27   35.90
  -8 -18   3  375.46   78.19
   8 -18  -3  413.46   35.30
  -8 -18   3  374.86   43.20
  -8 -18   3  376.66   80.29
   8 -18  -3  346.37   32.70
  -8 -18   3  346.97   40.60
  -8  18   3  492.55   80.39
  -8  18   3  435.46   40.80
   8  18  -3  405.36   48.20
   6 -18  -3  818.92   51.39
  -6 -18   3  730.93   53.99
   6 -18  -3  728.33   51.29
  -6 -18   3  711.23   88.19
  -6 -18   3  967.20  101.89
  -6  18   3  836.82   88.49
  -6  18   3  825.52   57.49
   4 -18  -3  977.80   58.09
  -4 -18   3  976.90   98.99
  -4 -18   3  832.22   56.19
  -4 -18   3  876.11   56.69
   4 -18  -3  981.10   97.09
   4 -18  -3  926.61   60.79
  -4 -18   3  985.60   90.29
   4  18  -3  956.60   64.39
  -4  18   3  933.01   60.29
  -4  18   3  792.92   87.59
  -2 -18   3  474.55   37.20
  -2 -18   3  334.77   64.59
   2 -18  -3  465.05   43.60
  -2 -18   3  468.85   36.50
   2 -18  -3  461.95   41.30
   2 -18  -3  476.95   76.39
  -2  18   3  329.17   64.79
  -2  18   3  488.15   41.20
   2  18  -3  474.15   45.50
   0 -18  -3  681.23   54.19
   0 -18   3  744.13   79.39
   0 -18  -3  847.82   95.89
   0 -18   3  752.82   43.30
   0 -18   3  813.22   92.09
   0 -18   3  715.43   42.70
   0  18   3  737.13   53.49
   0  18   3  759.32   86.19
   0  18  -3  660.93   52.39
  -2 -18  -3  397.86   78.89
  -2 -18  -3  484.95   46.40
   2 -18   3  446.36   21.20
   2 -18   3  383.16   62.49
  -2 -18  -3  533.25   47.00
   2 -18   3  423.46   64.69
  -2  18  -3  482.85   42.50
  -2  18  -3  473.75   34.40
   2  18   3  460.45   83.19
   2  18   3  549.54   43.40
  -4 -18  -3  438.96   87.29
  -4 -18  -3  432.86   56.49
  -4 -18  -3  385.06   45.90
   4 -18   3  343.67   55.39
  -4  18  -3  417.86   40.30
  -4  18  -3  316.47   39.90
   4  18   3  358.16   50.59
   4  18   3  336.77   75.99
   6 -18   3  221.78   44.20
  -6 -18  -3  255.57   44.70
  -6  18  -3  328.57   46.00
  -6  18  -3  337.37   41.20
   6  18   3  206.28   35.70
  11 -19  -3  254.47   67.29
 -11 -19   3  187.88  101.59
 -11 -19   3  239.68   87.79
 -11  19   3  195.28   33.60
 -11  19   3  172.98   72.89
  -9 -19   3  108.19   69.59
   9 -19  -3  198.28   58.79
  -9 -19   3  219.28   74.69
   9 -19  -3  270.37   29.00
  -9 -19   3  263.27   43.30
  -9  19   3  160.28   62.59
   9  19  -3  313.87   47.70
  -9  19   3  235.18   36.00
  -7 -19   3  571.94   51.89
   7 -19  -3  473.65   41.90
  -7 -19   3  541.05   89.29
  -7 -19   3  457.75   47.20
  -7 -19   3  550.74   91.09
   7 -19  -3  596.54   42.80
   7 -19  -3  423.16   75.79
  -7  19   3  539.35   81.99
  -7  19   3  461.55   44.90
   7  19  -3  510.55   51.29
  -5 -19   3  454.85   44.30
   5 -19  -3  561.94   46.00
  -5 -19   3  497.55   85.69
  -5 -19   3  501.45   81.09
   5 -19  -3  729.13   89.59
   5 -19  -3  559.94   42.10
  -5  19   3  534.55   80.89
  -5  19   3  515.25   45.20
  -3 -19   3  861.11   54.79
  -3 -19   3 1064.09  102.39
   3 -19  -3  812.92   59.89
   3 -19  -3  939.71  100.79
  -3 -19   3  800.32   54.19
  -3  19   3  642.54   91.39
   3  19  -3  884.11   62.69
  -3  19   3  888.21   59.09
  -1 -19   3  424.86   35.00
   1 -19  -3  449.86   54.19
  -1 -19   3  478.15   76.89
   1 -19  -3  436.46   44.90
  -1 -19   3  459.85   36.20
   1 -19  -3  412.26   77.09
   1  19  -3  457.75   45.00
  -1  19   3  387.86   40.90
  -1  19   3  446.26  119.09
   1 -19   3  374.66   66.59
   1 -19   3  411.96   28.60
  -1 -19  -3  426.76   47.50
  -1 -19  -3  407.56   81.29
   1 -19   3  385.36   28.00
   1 -19   3  340.57   67.09
  -1  19  -3  441.56   42.80
   1  19   3  293.17   73.09
  -3 -19  -3  473.95   48.50
   3 -19   3  513.05   71.59
  -3 -19  -3  447.66   52.89
  -3  19  -3  441.86   42.50
   3  19   3  550.24  139.79
  -3  19  -3  544.55   48.90
   3  19   3  459.65   43.50
  -5 -19  -3  313.87   50.79
   5 -19   3  280.17   58.49
  -5  19  -3  387.26   47.70
   5  19   3  254.37   41.00
  -5  19  -3  304.37   41.20
 -10 -20   3  229.38   46.20
 -10 -20   3  263.57   93.39
 -10 -20   3  151.08   90.69
  10 -20  -3   66.19   60.69
  10 -20  -3  225.68   24.10
 -10  20   3  202.88   36.70
 -10  20   3  401.36  135.19
  -8 -20   3  304.97   82.39
   8 -20  -3  176.28   64.39
   8 -20  -3  366.06   35.70
  -8 -20   3  174.58   76.79
  -8 -20   3  259.07   42.30
   8 -20  -3  256.37   32.80
  -8  20   3  362.86   40.80
  -8  20   3  151.98   65.19
  -6 -20   3  461.45   45.10
   6 -20  -3  405.26   41.70
  -6 -20   3  465.15  123.99
  -6 -20   3  395.66   84.09
  -6 -20   3  437.66   46.10
   6 -20  -3  521.05   83.69
   6 -20  -3  525.55   42.20
   6  20  -3  415.16   49.00
  -6  20   3  453.55   45.90
   4 -20  -3  602.04   48.60
  -4 -20   3  566.14   45.90
  -4 -20   3  483.35   81.39
   4 -20  -3  732.23  102.69
  -4 -20   3  323.57   74.79
   4  20  -3  629.64   53.59
  -4  20   3  576.24   50.29
  -4  20   3  498.75   82.79
  -2 -20   3  988.60   58.49
   2 -20  -3  901.21  111.79
   2 -20  -3  931.01   65.19
   2 -20  -3  976.50   74.59
  -2 -20   3  895.91   57.49
  -2  20   3 1072.79   68.79
   2  20  -3  788.82   94.89
  -2  20   3 1043.60  108.59
   0 -20  -3  403.66   46.40
   0 -20   3  390.66   32.80
   0 -20  -3  490.55   87.49
   0 -20   3  376.36   33.00
   0 -20  -3  372.96   43.50
   0 -20   3  325.27   67.39
   0  20   3  474.85   84.29
   0  20  -3  382.86   46.10
  -2 -20  -3  507.15   96.59
  -2 -20  -3  475.35   48.50
   2 -20   3  453.05   23.60
   2 -20   3  441.66   23.10
   2 -20   3  407.46   74.39
   2  20   3  438.16   88.79
  -2  20  -3  388.76   45.60
   2  20   3  432.86   41.40
  -4 -20  -3  473.35   55.09
   4 -20   3  440.46   72.39
  -4  20  -3  396.56   40.50
  -4  20  -3  447.26   48.50
   4  20   3  345.87   42.40
   4  20   3  362.06  141.89
   9 -21  -3  155.28   68.79
  -9 -21   3  224.08   48.40
  -9 -21   3  180.78   84.89
   9 -21  -3  279.77   31.90
   9 -21  -3  351.96   34.30
  -9  21   3  116.59   70.79
  -9  21   3  292.07   44.80
  -7 -21   3  189.68   73.69
   7 -21  -3  261.17   34.00
   7 -21  -3  306.77   38.50
  -7 -21   3  247.98   82.89
  -7 -21   3  264.17   41.40
   7 -21  -3  180.28   73.39
  -7  21   3  186.88   69.89
  -7  21   3  268.17   42.10
   5 -21  -3  442.36   87.79
   5 -21  -3  575.24   51.09
  -5 -21   3  475.25   48.60
  -5 -21   3  475.85   96.99
  -5 -21   3  530.45   93.19
  -5 -21   3  569.34   50.29
  -5  21   3  618.44   52.29
   5  21  -3  397.36   72.99
  -5  21   3  365.26   80.89
   3 -21  -3  656.73   53.89
   3 -21  -3  727.83   55.79
  -3 -21   3  641.54   51.59
  -3 -21   3  793.92  109.99
   3 -21  -3  710.23  105.39
  -3  21   3  796.32   60.09
   3  21  -3  776.02   62.19
  -3  21   3  722.83  102.49
  -1 -21   3  783.62   50.39
   1 -21  -3  652.03   59.39
   1 -21  -3  796.92  110.49
  -1 -21   3  750.12  102.59
  -1 -21   3  775.22   50.49
   1 -21  -3  659.33   56.49
  -1  21   3  669.13  101.39
  -1  21   3  720.43   58.09
   1  21  -3  656.73   59.39
   1 -21   3  436.56   32.40
  -1 -21  -3  356.66   87.99
  -1 -21  -3  411.46   51.29
   1 -21   3  418.46   78.09
   1 -21   3  459.45   33.30
  -1  21  -3  407.36   48.00
   1  21   3  372.96   89.09
  -3 -21  -3  478.45   50.29
   3 -21   3  417.76   75.49
  -3 -21  -3  527.15  106.09
   3  21   3  392.66   94.69
  -3  21  -3  293.37   46.90
  -3  21  -3  459.35   44.20
   5 -21   3  247.48   68.39
  -5 -21  -3  266.87   50.09
   5  21   3  301.87   43.70
  -5  21  -3  318.67   42.80
  -5  21  -3  316.47   42.40
  -8 -22   3  245.88   48.40
   8 -22  -3  203.68   78.59
   8 -22  -3  224.98   32.20
  -8 -22   3  295.67   88.89
  -8 -22   3  285.37   98.09
   8 -22  -3  264.97   35.10
  -8  22   3  263.77   41.70
  -8  22   3  297.77   84.99
   6 -22  -3  297.07   41.40
   6 -22  -3  318.37   82.09
  -6 -22   3  580.04  106.89
  -6 -22   3  223.28   81.89
  -6 -22   3  309.87   44.70
  -6  22   3  284.17   41.70
  -6  22   3  203.48   78.69
  -4 -22   3  582.34  145.99
   4 -22  -3  435.26   49.20
  -4 -22   3  459.55   94.59
   4 -22  -3  529.75   49.60
  -4 -22   3  483.55   47.30
   4 -22  -3  651.73   99.99
  -4 -22   3  548.35   49.40
  -4  22   3  583.34   53.19
  -4  22   3  315.67   79.89
  -2 -22   3  614.94   48.50
  -2 -22   3  475.55   89.49
   2 -22  -3  701.23  107.69
   2 -22  -3  535.25   50.49
  -2  22   3  608.54   55.59
  -2  22   3  663.13  158.68
   0 -22  -3  533.45   56.89
   0 -22   3  586.84   43.00
   0 -22  -3  658.93  111.19
   0 -22   3  556.04   42.30
   0  22   3  640.24  110.69
   0  22  -3  507.55   59.69
   2 -22   3  361.46   22.60
  -2 -22  -3  307.97   47.50
   2 -22   3  324.87   77.19
  -2 -22  -3  341.47  106.49
   2 -22   3  358.76   21.90
   2  22   3  295.37   87.79
  -2  22  -3  349.87   50.19
   2  22   3  394.86   42.40
  -4 -22  -3  285.07   53.69
   4 -22   3  271.57   76.99
  -4  22  -3  342.97   39.40
   4  22   3  201.88   36.00
  -4  22  -3  280.97   48.70
  -7 -23   3  117.69   39.00
  -7 -23   3   49.80   80.09
   7 -23  -3  187.38   33.20
   7 -23  -3  137.99   82.99
  -7 -23   3  127.09   91.19
  -7  23   3  197.38   82.29
  -7  23   3  210.58   41.70
  -5 -23   3  302.67   96.39
   5 -23  -3  268.07   42.70
  -5 -23   3  291.37   42.30
   5 -23  -3  230.98   37.80
  -5 -23   3  351.36   89.59
   5 -23  -3  218.28   86.39
  -5  23   3  173.68   78.89
  -5  23   3  317.27   47.00
  -3 -23   3  476.65   46.50
  -3 -23   3  339.87   92.09
   3 -23  -3  451.75   49.99
  -3 -23   3  349.57   91.69
   3 -23  -3  603.84  108.49
  -3 -23   3  435.06   47.00
  -3  23   3  441.16   50.29
  -3  23   3  416.56   97.59
  -1 -23   3  458.85   44.10
  -1 -23   3  471.35   95.29
   1 -23  -3  490.55   56.39
   1 -23  -3  452.05  104.69
  -1  23   3  420.76   97.09
   1 -23   3  292.57   82.39
   1 -23   3  419.86   34.70
   1  23   3  375.66   94.49
  -3 -23  -3  257.77   50.99
   6 -24  -3  207.48   37.50
  -6 -24   3  168.08   40.10
  -6 -24   3  255.07   95.39
   6 -24  -3   86.59   84.29
  -6 -24   3  336.67  108.49
   6 -24  -3  134.49   30.70
  -6  24   3  164.88   38.50
   4 -24  -3  198.08   90.59
   4 -24  -3  193.18   41.00
  -4 -24   3  308.77   98.79
  -4 -24   3  264.37   40.60
  -4  24   3  150.18   87.99
   2 -24  -3  250.37   42.90
  -2 -24   3  391.16   47.10
   2 -24  -3  376.66  104.39
  -2 -24   3  375.96   43.80
  -2 -24   3  273.07   97.09
  -2  24   3  457.65  103.99
   0 -24   3  305.47   36.90
   0 -24  -3  313.07  104.29
   0 -24  -3  311.27   58.19
   0 -24   3  285.87   37.00
   0 -24   3  240.68   90.69
   0  24   3  242.38   94.89
   3 -25  -3  170.58   40.70
   3 -25  -3  102.29  101.39
  -3 -25   3  109.09  133.49
  -3 -25   3  192.48   36.60
  -3  25   3  265.57   44.20
  -3  25   3   89.79   96.99
 -16   0   4   72.09   21.70
 -16   0   4  101.89   45.30
 -16   0   4   35.70   48.90
 -14   0   4  179.38   47.40
  14   0  -4  156.98   55.89
 -14   0   4  159.18   25.70
  14   0  -4  144.09   14.00
  12   0  -4  478.85   31.40
  12   0  -4  547.05   60.69
 -12   0   4  467.25   36.00
 -12   0   4  467.95   56.99
 -10   0   4  350.06   29.40
 -10   0   4  381.86   45.50
  10   0  -4  398.36   28.30
  10   0  -4  414.56   46.10
   8   0  -4 1754.52   98.49
   8   0  -4 1985.00   79.39
  -8   0   4 1918.21   80.29
  -8   0   4 1875.81  100.49
  -6   0   4 4136.49  143.99
   6   0  -4 3953.00  142.79
   6   0  -4 3884.91  164.38
   4   0  -4 5227.08  181.38
  -4   0   4 5306.37  202.78
  -4   0   4 5445.36  188.08
   4   0  -4 5255.47  202.28
  -2   0   4 4370.96  165.98
   2   0  -4 4182.18  164.98
   2   0  -4 4156.58  145.79
  -2   0   4 4198.98  143.79
   0   0  -4  196.38   15.60
   0   0   4  170.58   12.00
   0   0  -4  196.38   28.80
   0   0   4  190.78   27.80
  -2   0  -4 2337.47   85.29
  -2   0  -4 2318.87   99.79
   2   0   4 2311.87  102.39
   4   0   4  929.61   48.70
   4   0   4  847.92   57.89
  -4   0  -4  833.92   38.60
  -4   0  -4  774.82   46.10
   6   0   4  473.05   45.50
  -6   0  -4  458.05   27.40
  -8   0  -4  205.78   21.10
   8   0   4  199.48   40.80
 -10   0  -4  114.59   21.20
 -17  -1   4   29.90   58.89
 -17  -1   4   92.79   24.60
 -17   1   4   83.49   24.50
 -15  -1   4   93.89   69.49
 -15  -1   4  208.08   41.50
 -15  -1   4  137.09   48.00
 -15   1   4   87.19   30.00
 -15   1   4  118.19   48.10
 -15   1   4  183.68   29.30
  13  -1  -4  589.84   32.80
  13  -1  -4  636.04   66.99
 -13  -1   4  590.04   42.80
 -13  -1   4  543.05   65.19
  13   1  -4  628.84   35.70
 -13   1   4  595.94   42.10
  13   1  -4  608.64   68.89
 -13   1   4  675.93   67.39
 -11  -1   4  195.28   23.30
  11  -1  -4  178.38   19.30
 -11  -1   4  205.28   40.30
  11  -1  -4  182.38   39.30
 -11   1   4  309.27   50.39
  11   1  -4  238.48   22.10
 -11   1   4  212.98   22.80
   9  -1  -4  685.33   38.30
   9  -1  -4  595.84   55.59
  -9  -1   4  643.04   39.80
  -9  -1   4  706.13   58.59
  -9   1   4  659.23   56.19
   9   1  -4  699.13   58.69
   9   1  -4  681.83   39.30
  -9   1   4  608.74   38.30
  -7  -1   4 2476.25   96.29
   7  -1  -4 2422.26   94.49
  -7  -1   4 2495.45  118.39
   7  -1  -4 2497.15  117.39
   7   1  -4 2411.66   95.19
   7   1  -4 2314.67  133.39
  -7   1   4 2426.56   95.59
  -7   1   4 2354.86  115.69
   5  -1  -4 4434.16  174.48
  -5  -1   4 4176.38  172.28
   5  -1  -4 4145.99  150.58
  -5  -1   4 4386.76  151.68
   5   1  -4 4283.57  173.28
   5   1  -4 4287.57  151.68
  -5   1   4 4332.17  173.58
  -5   1   4 4359.76  151.48
  -3  -1   4 4935.01  166.68
  -3  -1   4 5074.19  189.58
   3  -1  -4 4749.72  187.58
   3  -1  -4 4709.43  167.88
   3   1  -4 4998.70  168.58
  -3   1   4 4854.61  188.18
   3   1  -4 4994.70  188.98
  -3   1   4 4999.60  167.68
  -1  -1   4 1538.65   57.89
   1  -1  -4 1472.95   77.09
  -1  -1   4 1488.75   75.89
   1  -1  -4 1575.14   62.79
   1   1  -4 1461.15   75.79
   1   1  -4 1601.94   62.19
  -1   1   4 1575.54   59.79
  -1   1   4 1583.64   78.99
  -1  -1  -4 1497.05   75.99
   1  -1   4 1528.95   72.99
  -1  -1  -4 1574.64   61.69
   1  -1   4 1611.04   74.49
  -1   1  -4 1465.25   59.29
   1   1   4 1533.95   76.89
   1   1   4 1497.95   73.59
  -1   1  -4 1504.75   73.49
   3  -1   4 1271.67   61.19
  -3  -1  -4 1330.47   66.89
   3  -1   4 1298.87   70.59
  -3  -1  -4 1177.38   52.29
   3   1   4 1262.57   70.39
   3   1   4 1296.07   66.89
  -3   1  -4 1225.58   50.79
  -3   1  -4 1328.37   62.09
   5  -1   4  502.15   45.20
  -5  -1  -4  472.65   36.40
   5  -1   4  534.65   23.50
  -5  -1  -4  539.65   29.90
  -5   1  -4  479.65   23.00
  -5   1  -4  484.35   26.50
   5   1   4  461.05   44.20
   5   1   4  492.05   35.30
  -7  -1  -4  315.17   24.80
   7  -1   4  286.97   43.20
   7   1   4  232.18   40.20
  -7   1  -4  290.37   21.10
  -9  -1  -4  134.69   23.60
  -9  -1  -4  174.98   23.00
  -9   1  -4  194.38   20.80
   9   1   4  157.08   36.40
 -16  -2   4   57.09   21.60
 -16  -2   4  100.09   30.20
 -16  -2   4   44.00   51.49
 -16   2   4   80.29   20.30
 -16   2   4   63.49   48.50
 -14  -2   4  155.98   53.19
 -14  -2   4  131.79   48.20
  14  -2  -4  221.08   49.60
 -14  -2   4  245.78   29.40
 -14  -2   4  197.88   33.20
 -14   2   4  261.47   28.30
 -14   2   4  238.38   48.70
  14   2  -4  183.78   19.20
 -12  -2   4  430.06   53.69
  12  -2  -4  452.15   29.40
  12  -2  -4  406.86   53.09
 -12  -2   4  530.75   38.20
 -12   2   4  479.65   56.49
 -12   2   4  485.85   36.10
  12   2  -4  483.75   32.80
  12   2  -4  499.85   60.09
 -10  -2   4  614.34   58.19
  10  -2  -4  727.93   39.10
 -10  -2   4  719.33   43.20
 -10   2   4  677.93   59.49
  10   2  -4  628.84   39.60
 -10   2   4  741.33   42.90
  10   2  -4  697.63   62.89
  -8  -2   4 1449.85   64.29
   8  -2  -4 1326.97   81.19
   8  -2  -4 1348.77   60.59
  -8  -2   4 1276.47   81.89
   8   2  -4 1326.57   62.09
   8   2  -4 1341.77   84.29
  -8   2   4 1364.96   62.59
  -8   2   4 1397.46   82.59
  -6  -2   4 1714.13   71.99
   6  -2  -4 1656.33   70.79
   6  -2  -4 1739.13   91.19
  -6  -2   4 1811.72   93.79
   6   2  -4 1695.03   71.79
  -6   2   4 1675.93   89.99
   6   2  -4 1604.74   90.09
  -6   2   4 1732.53   71.69
   4  -2  -4 4469.45  158.48
   4  -2  -4 4472.35  178.98
  -4  -2   4 4905.61  166.08
  -4  -2   4 4399.16  178.68
  -4   2   4 4599.94  180.38
  -4   2   4 4726.43  158.88
   4   2  -4 4308.07  157.98
   4   2  -4 4596.44  180.88
   2  -2  -4 2205.98   84.49
   2  -2  -4 2135.39  101.19
  -2  -2   4 2210.68   80.69
  -2  -2   4 2214.48  100.69
  -2   2   4 2125.39  101.89
   2   2  -4 2151.58   83.19
   2   2  -4 2308.77  102.39
  -2   2   4 2278.07   83.19
   0  -2  -4 1475.05   60.59
   0  -2   4 1436.66   50.19
   0  -2  -4 1437.86   75.89
   0  -2   4 1475.65   72.19
   0  -2   4 1536.05   69.19
   0   2  -4 1487.65   58.39
   0   2   4 1434.66   76.79
   0   2  -4 1404.36   72.49
   0   2   4 1495.35   56.39
  -2  -2  -4 1141.19   66.09
   2  -2   4 1285.07   66.69
  -2  -2  -4 1224.98   52.89
  -2   2  -4 1283.87   62.39
  -2   2  -4 1301.17   50.29
   2   2   4 1211.88   66.59
   2   2   4 1186.88   68.89
   4  -2   4  637.64   49.00
   4  -2   4  703.33   34.90
  -4  -2  -4  667.53   35.50
  -4  -2  -4  759.22   48.90
  -4   2  -4  618.24   33.60
   4   2   4  667.83   50.39
  -4   2  -4  650.73   31.00
   4   2   4  694.03   47.70
  -6  -2  -4  388.66   34.10
  -6  -2  -4  358.06   26.40
   6  -2   4  274.67   41.60
   6   2   4  342.77   39.40
  -6   2  -4  358.96   21.20
   6   2   4  357.46   32.00
  -8  -2  -4  252.77   26.30
   8  -2   4  239.38   43.90
   8   2   4  288.07   47.10
  -8   2  -4  255.37   20.00
 -10  -2  -4  144.89   36.80
 -10  -2  -4  138.89   25.90
 -10   2  -4  127.99   17.50
 -17  -3   4   82.79   65.49
 -17  -3   4   58.39   26.60
 -17   3   4   44.70   22.10
 -17   3   4   81.69   59.59
 -15  -3   4  142.59   42.80
 -15  -3   4  102.89   47.40
 -15  -3   4  135.29   26.00
  15  -3  -4  102.99   42.50
 -15   3   4  139.89   25.80
 -15   3   4  127.49   31.70
 -15   3   4  173.68   50.59
  13  -3  -4  276.17   48.90
 -13  -3   4  251.27   50.59
  13  -3  -4  249.68   18.30
 -13  -3   4  195.18   31.50
 -13  -3   4  251.87   28.70
  13   3  -4  279.47   25.80
 -13   3   4  261.47   52.69
 -13   3   4  269.27   27.90
 -11  -3   4  530.85   37.90
 -11  -3   4  492.75   58.09
  11  -3  -4  491.05   31.30
  11  -3  -4  567.74   57.09
  11   3  -4  559.54   60.29
  11   3  -4  523.55   35.10
 -11   3   4  451.65   51.59
 -11   3   4  553.14   37.10
   9  -3  -4  943.21   46.80
  -9  -3   4 1124.99   74.59
   9  -3  -4  938.51   68.29
  -9  -3   4  937.11   50.79
   9   3  -4  837.22   67.39
   9   3  -4  929.81   49.60
  -9   3   4  905.41   67.09
  -9   3   4  959.40   49.60
   7  -3  -4 1658.73   89.49
   7  -3  -4 1663.43   68.49
  -7  -3   4 1550.54   69.19
  -7   3   4 1487.25   85.99
   7   3  -4 1580.74   69.69
   7   3  -4 1493.95   89.39
  -7   3   4 1593.84   68.89
  -5  -3   4 2192.18  109.09
  -5  -3   4 2253.07   89.39
   5  -3  -4 2330.97   90.09
   5  -3  -4 2437.06  112.09
  -5   3   4 2202.08  108.89
   5   3  -4 2312.97  111.49
   5   3  -4 2270.47   90.09
  -5   3   4 2354.16   90.19
  -3  -3   4 1928.91   76.29
   3  -3  -4 2118.49   99.19
  -3  -3   4 1998.50   96.29
   3  -3  -4 1954.20   78.69
   3   3  -4 1835.32   94.99
  -3   3   4 2013.60   78.39
  -3   3   4 2187.68  100.39
   3   3  -4 1992.70   78.59
  -1  -3   4 2032.20   71.39
   1  -3  -4 1988.50   96.59
   1  -3  -4 2060.99   78.99
  -1  -3   4 1881.71   90.69
  -1  -3   4 2025.80   82.59
  -1   3   4 2010.90   75.89
   1   3  -4 1956.50   92.89
   1   3  -4 2074.79   76.69
  -1   3   4 1876.91   95.59
  -1  -3  -4 1071.59   49.70
   1  -3   4 1142.09   58.79
  -1  -3  -4 1142.09   66.09
   1  -3   4 1094.79   57.89
  -1   3  -4 1101.59   46.30
   1   3   4 1098.69   43.50
  -1   3  -4 1040.10   58.29
   1   3   4 1182.78   61.89
   1   3   4 1190.78   67.89
  -3  -3  -4  624.54   48.00
  -3  -3  -4  600.64   34.10
   3  -3   4  655.53   37.00
   3  -3   4  599.94   44.70
  -3   3  -4  603.44   29.50
   3   3   4  663.73   49.90
  -3   3  -4  707.93   38.00
   3   3   4  697.13   48.70
   5  -3   4  358.36   38.50
  -5  -3  -4  369.96   26.50
  -5  -3  -4  391.46   38.40
   5   3   4  401.96   40.70
   5   3   4  345.37   37.20
  -5   3  -4  373.66   20.80
  -7  -3  -4  385.76   30.10
  -7  -3  -4  328.37   35.00
   7  -3   4  411.36   45.50
   7   3   4  340.47   49.10
   7   3   4  374.66   33.90
  -7   3  -4  416.76   22.40
  -9  -3  -4  198.28   28.00
  -9   3  -4  177.78   17.20
   9   3   4  132.09   34.50
 -16  -4   4   93.79   30.80
 -16  -4   4   91.49   24.50
 -16  -4   4  103.39   58.79
  16  -4  -4  115.19   50.99
 -16   4   4   63.99   20.30
 -16   4   4  104.39   50.69
 -14  -4   4  132.99   27.20
 -14  -4   4  145.19   30.10
 -14  -4   4  145.19   50.39
 -14  -4   4  132.99   45.10
  14  -4  -4  122.29   40.10
  14   4  -4  143.09   19.40
 -14   4   4  202.58   49.99
 -14   4   4  200.08   29.00
  12  -4  -4  665.33   63.29
  12  -4  -4  529.95   31.10
 -12  -4   4  571.44   45.00
 -12  -4   4  484.35   61.39
 -12  -4   4  587.54   42.10
 -12   4   4  624.94   62.79
 -12   4   4  604.44   40.50
  12   4  -4  581.04   38.90
 -10  -4   4  503.25   54.89
 -10  -4   4  561.24   39.00
  10  -4  -4  553.74   33.40
  10   4  -4  578.94   59.19
 -10   4   4  574.14   37.40
 -10   4   4  571.44   55.99
  10   4  -4  573.14   37.90
   8  -4  -4 1040.80   69.79
  -8  -4   4  979.00   70.49
  -8  -4   4  860.71   49.70
   8  -4  -4 1011.60   48.70
  -8   4   4 1020.80   50.99
   8   4  -4 1264.57   92.19
   8   4  -4  937.21   50.69
  -8   4   4  993.40   69.09
   6  -4  -4 1754.02  107.89
  -6  -4   4 1835.62   97.49
  -6  -4   4 1834.02   76.69
   6  -4  -4 1790.72   75.09
   6   4  -4 1855.11   99.29
   6   4  -4 1795.72   77.19
  -6   4   4 1882.01   97.59
  -6   4   4 1841.62   76.29
   4  -4  -4 1085.09   66.49
   4  -4  -4  981.90   47.70
  -4  -4   4 1098.49   66.49
  -4  -4   4  983.10   47.00
  -4   4   4  954.10   64.19
  -4   4   4 1002.50   48.00
   4   4  -4 1005.10   48.20
   4   4  -4  911.51   62.99
  -2  -4   4 1950.30   94.99
  -2  -4   4 2034.40   74.89
   2  -4  -4 1898.61   96.99
   2  -4  -4 1991.50   79.59
  -2   4   4 1994.30   78.79
  -2   4   4 2022.40   99.99
   2   4  -4 2048.20   78.59
   2   4  -4 2059.09   96.99
   0  -4   4 1909.51   61.19
   0  -4   4 1879.51   80.99
   0  -4  -4 1919.31   95.29
   0  -4   4 1802.32   61.59
   0  -4  -4 1919.81   76.29
   0  -4   4 1877.51   87.09
   0   4   4 1963.70   73.09
   0   4   4 1843.92   94.99
   0   4  -4 1959.80   72.79
   0   4  -4 1863.91   87.79
  -2  -4  -4  902.01   44.80
   2  -4   4  910.51   54.19
   2  -4   4  910.21   49.70
  -2  -4  -4  946.41   62.49
   2   4   4  949.21   62.69
   2   4   4  975.20   57.89
  -2   4  -4  914.71   39.60
  -2   4  -4  924.41   50.09
  -4  -4  -4  321.97   24.60
  -4  -4  -4  260.87   37.00
   4  -4   4  282.37   32.90
   4   4   4  363.76   37.00
   4   4   4  294.67   37.10
  -4   4  -4  272.67   17.50
  -6  -4  -4  396.36   44.60
   6  -4   4  504.25   48.40
  -6  -4  -4  469.05   33.60
   6   4   4  499.05   45.50
  -6   4  -4  491.05   23.90
   6   4   4  415.56   45.00
  -8  -4  -4  201.78   41.20
  -8  -4  -4  278.77   35.00
  -8  -4  -4  222.28   30.50
  -8   4  -4  260.77   17.70
   8   4   4  301.07   48.80
 -10  -4  -4  114.49   27.20
 -10  -4  -4   97.39   23.30
 -10   4  -4   95.79   12.70
  10   4   4   70.29   34.60
 -10   4  -4   80.19   12.80
 -17  -5   4   -4.30   65.19
 -17  -5   4   92.29   28.40
 -17   5   4   55.79   22.50
 -17   5   4   16.50   57.39
 -15  -5   4  104.29   24.60
  15  -5  -4   62.19   43.80
  15   5  -4   97.79   16.90
 -15   5   4  162.28   49.20
 -15   5   4  102.39   21.80
 -13  -5   4  166.68   27.50
 -13  -5   4  114.29   43.00
  13  -5  -4  182.28   13.20
 -13  -5   4  127.99   41.60
 -13  -5   4  138.49   26.20
  13  -5  -4  115.99   39.90
 -13   5   4  131.89   22.20
  13   5  -4  157.98   23.80
 -13   5   4  160.08   42.40
  11  -5  -4  541.45   56.49
 -11  -5   4  639.94   42.50
  11  -5  -4  571.94   33.50
 -11  -5   4  583.54   62.89
 -11   5   4  624.64   40.40
 -11   5   4  592.64   60.29
  11   5  -4  601.74   40.40
  -9  -5   4 1458.85   91.79
   9  -5  -4 1428.46   63.09
  -9  -5   4 1404.96   68.39
   9  -5  -4 1418.66   88.29
  -9   5   4 1488.55   67.59
   9   5  -4 1380.26   91.79
  -9   5   4 1505.35   89.99
   9   5  -4 1460.55   68.59
  -7  -5   4 1346.87   62.09
   7  -5  -4 1259.57   58.49
   7  -5  -4 1354.16   80.59
  -7  -5   4 1256.37   80.49
  -7   5   4 1304.97   80.09
  -7   5   4 1403.16   61.89
   7   5  -4 1296.57   82.39
   7   5  -4 1186.28   60.59
   5  -5  -4  990.00   66.09
  -5  -5   4  988.00   49.30
   5  -5  -4 1034.70   49.50
  -5  -5   4 1022.70   67.89
  -5   5   4 1068.79   50.39
   5   5  -4  956.00   49.80
   5   5  -4 1056.09   69.09
  -5   5   4  999.80   67.39
   3  -5  -4 1825.32   76.29
  -3  -5   4 1920.31   94.79
   3  -5  -4 1785.12   94.69
  -3  -5   4 1886.61   79.69
  -3   5   4 1916.51   76.59
   3   5  -4 1783.52   93.49
  -3   5   4 1950.10   98.89
   3   5  -4 1899.71   76.39
  -1  -5   4 2727.93   95.79
   1  -5  -4 2635.84  125.69
   1  -5  -4 2812.92  105.89
  -1  -5   4 2840.32  120.99
   1   5  -4 2941.31  103.29
  -1   5   4 2894.41  103.99
  -1   5   4 2791.52  128.39
   1   5  -4 2686.73  119.49
   1  -5   4 1130.19   59.79
   1  -5   4 1173.18   58.99
  -1  -5  -4 1069.09   51.69
   1   5   4 1079.49   70.69
  -1   5  -4 1097.89   47.00
   1   5   4 1165.58   47.90
  -1   5  -4 1010.10   61.59
  -3  -5  -4  584.14   51.29
   3  -5   4  541.15   42.80
  -3  -5  -4  580.94   35.20
   3  -5   4  593.34   34.20
   3  -5   4  621.44   34.70
   3   5   4  571.24   51.19
  -3   5  -4  568.24   28.30
   3   5   4  585.74   45.10
  -5  -5  -4  437.36   47.50
  -5  -5  -4  559.54   35.20
   5  -5   4  451.25   44.30
   5   5   4  461.65   47.80
  -5   5  -4  542.45   25.40
  -7  -5  -4  307.77   43.40
  -7  -5  -4  309.47   32.70
   7   5   4  414.36   44.70
  -7   5  -4  350.96   19.40
   7   5   4  331.17   43.60
  -9  -5  -4  132.79   25.90
  -9  -5  -4  108.99   27.40
  -9  -5  -4  166.58   54.99
   9   5   4  106.19   33.10
  -9   5  -4  115.99   12.50
 -16  -6   4   66.99   61.99
 -16  -6   4   85.99   24.30
  16  -6  -4  116.59   51.19
 -16  -6   4   72.29   30.30
 -16   6   4   56.59   20.00
 -16   6   4   11.70   82.09
 -14  -6   4  151.88   29.30
  14  -6  -4   98.49   41.70
 -14  -6   4  148.89   28.10
 -14  -6   4  125.59   46.00
 -14  -6   4  118.39   47.80
 -14   6   4  201.08   50.49
 -14   6   4  224.98   30.60
  14   6  -4  162.38   24.20
  12  -6  -4  315.77   22.00
  12  -6  -4  288.07   21.90
 -12  -6   4  266.17   54.09
 -12  -6   4  225.28   49.60
  12  -6  -4  439.76   53.69
 -12  -6   4  277.07   30.00
 -12  -6   4  303.17   31.50
 -12   6   4  263.57   27.80
 -12   6   4  280.57   51.09
  10  -6  -4  692.13   97.29
  10  -6  -4  721.83   38.30
 -10  -6   4  780.72   69.39
 -10  -6   4  658.93   44.90
 -10  -6   4  698.43   66.29
 -10   6   4  666.13   41.80
 -10   6   4  689.33   62.19
  -8  -6   4 1353.46   66.49
   8  -6  -4 1523.65   88.39
   8  -6  -4 1377.96   62.69
  -8  -6   4 1367.16   88.89
  -8   6   4 1422.06   65.79
  -8   6   4 1404.46   86.59
   8   6  -4 1576.94   94.79
   8   6  -4 1367.76   67.29
   6  -6  -4  899.71   45.10
   6  -6  -4  787.82   61.69
  -6  -6   4  807.52   44.90
  -6  -6   4  798.52   62.39
  -6   6   4  922.91   64.69
  -6   6   4  786.42   43.90
   6   6  -4  817.62   46.00
   6   6  -4  900.81   65.79
   4  -6  -4 1816.62   94.39
  -4  -6   4 1735.73   71.39
   4  -6  -4 1696.33   72.19
  -4  -6   4 1652.83   91.09
   4   6  -4 1716.63   93.29
  -4   6   4 1692.23   93.69
   4   6  -4 1547.85   71.39
  -4   6   4 1742.33   72.69
   2  -6  -4 2198.58   87.29
   2  -6  -4 2095.69  107.79
  -2  -6   4 2096.99  102.09
  -2  -6   4 2236.08   81.29
  -2  -6   4 2240.28   83.99
   2   6  -4 2203.68  105.09
   2   6  -4 2169.18   85.09
  -2   6   4 2084.29  108.29
  -2   6   4 2110.69   85.59
   0  -6  -4 3109.39  139.09
   0  -6   4 2982.30   96.29
   0  -6   4 2839.22   96.59
   0  -6  -4 3115.69  115.29
   0  -6   4 2988.30  126.49
   0  -6   4 3204.48  118.09
   0   6  -4 2966.40  109.29
   0   6   4 3164.08  112.09
   0   6   4 3054.49  140.09
  -2  -6  -4  637.84   56.29
   2  -6   4  745.53   44.20
   2  -6   4  697.73   45.80
   2  -6   4  735.63   44.10
  -2  -6  -4  728.63   40.90
   2   6   4  735.23   49.60
   2   6   4  692.53   58.19
  -2   6  -4  657.63   33.50
  -4  -6  -4  477.65   32.90
   4  -6   4  486.45   42.00
  -4  -6  -4  409.46   47.60
   4   6   4  435.56   42.00
  -4   6  -4  425.86   23.80
   4   6   4  446.16   48.60
  -6  -6  -4  441.36   38.00
  -6  -6  -4  450.15   51.59
  -6  -6  -4  526.65   39.40
  -6   6  -4  470.35   23.70
   6   6   4  462.45   51.79
   6   6   4  336.87   41.20
  -8  -6  -4  271.87   32.00
  -8  -6  -4  222.88   31.70
   8   6   4  184.18   36.90
  -8   6  -4  215.48   15.60
  17  -7  -4   79.29   59.59
 -17  -7   4    2.50   24.20
 -17   7   4  111.19   63.19
 -17   7   4   84.39   26.70
  15  -7  -4  105.09   44.00
 -15  -7   4  153.98   29.60
 -15  -7   4  102.89   54.19
  15   7  -4  148.49   22.80
 -15   7   4  130.59   52.39
  13  -7  -4   99.19   38.10
 -13  -7   4   89.39   22.90
 -13  -7   4   48.20   38.60
  13   7  -4  101.09   21.40
 -13   7   4   44.40   36.40
 -13   7   4   92.89   20.50
 -11  -7   4  581.74   68.19
  11  -7  -4  692.93   63.79
 -11  -7   4  685.93   44.90
  11  -7  -4  672.93   36.30
 -11  -7   4  599.14   68.09
 -11  -7   4  604.44   44.70
 -11   7   4  745.03   44.50
  11   7  -4  656.33   44.40
 -11   7   4  683.43   65.09
  -9  -7   4 1000.40   80.99
   9  -7  -4 1041.10   49.99
   9  -7  -4  994.80   73.79
  -9  -7   4  977.30   55.79
  -9  -7   4  975.70   79.69
  -9   7   4 1043.20   75.49
   9   7  -4  973.00   62.39
  -9   7   4 1068.79   54.49
  -7  -7   4  550.74   37.10
  -7  -7   4  538.35   56.39
   7  -7  -4  640.04   36.80
   7  -7  -4  540.35   52.89
  -7   7   4  616.64   37.90
   7   7  -4  552.34   38.60
  -7   7   4  709.23   58.69
  -5  -7   4  410.86   45.10
   5  -7  -4  430.36   44.60
   5  -7  -4  416.76   29.10
  -5  -7   4  373.36   27.60
   5   7  -4  394.56   30.10
  -5   7   4  391.66   28.60
  -5   7   4  444.36   46.00
  -3  -7   4 1881.11   71.79
   3  -7  -4 1895.01  101.79
  -3  -7   4 1971.10   76.59
  -3  -7   4 1993.60  100.19
   3  -7  -4 1896.61   79.59
  -3   7   4 1805.52   78.59
   3   7  -4 1902.41   79.39
  -3   7   4 1889.81  102.69
  -1  -7   4 2243.88   79.99
  -1  -7   4 2200.18  105.19
  -1  -7   4 2171.98   80.09
   1  -7  -4 2281.17   90.99
   1  -7  -4 2241.98  114.49
  -1  -7   4 2137.19  103.59
  -1  -7   4 2314.67   88.69
  -1   7   4 2157.08  113.69
  -1   7   4 2394.56   90.59
   1   7  -4 2196.68   86.89
  -1  -7  -4  908.91   47.40
   1  -7   4  937.71   51.09
  -1  -7  -4  857.61   65.79
   1  -7   4  902.01   54.59
   1  -7   4  862.81   54.09
   1   7   4  987.30   79.09
  -1   7  -4  854.01   41.50
   1   7   4  849.52   43.00
   3  -7   4  557.34   42.90
  -3  -7  -4  519.55   36.60
   3  -7   4  589.54   35.90
  -3  -7  -4  683.73   60.09
   3  -7   4  631.84   37.80
   3   7   4  560.84   45.20
  -3   7  -4  575.84   30.30
   3   7   4  618.24   57.39
   5  -7   4  552.34   47.90
  -5  -7  -4  601.14   39.70
  -5   7  -4  615.74   29.50
   5   7   4  519.75   55.99
   5   7   4  551.34   50.79
  -7  -7  -4  183.78   29.80
  -7  -7  -4  178.68   29.10
   7   7   4  183.68   36.50
  -7   7  -4  191.28   15.60
  -9  -7  -4   94.29   24.00
  -9   7  -4   80.79   13.10
 -16  -8   4   77.39   25.40
  16  -8  -4  124.59   78.79
 -16  -8   4   88.79   30.10
 -16   8   4   93.19   57.99
 -16   8   4   61.89   22.70
 -14  -8   4  119.89   54.99
  14  -8  -4   96.99   44.70
 -14  -8   4   27.60   45.20
 -14  -8   4  188.68   32.30
 -14  -8   4  108.39   25.70
 -14   8   4  175.38   50.89
 -14   8   4  181.68   27.50
  14   8  -4   89.59   21.40
 -12  -8   4  133.49   39.90
  12  -8  -4  160.98   16.80
  12  -8  -4  146.79   38.40
 -12  -8   4  132.59   28.10
 -12  -8   4  146.19   25.40
 -12  -8   4   86.79   43.10
  12  -8  -4  137.29   15.40
  12   8  -4  160.38   25.80
 -12   8   4  135.59   21.50
 -12   8   4   95.99   37.90
  10  -8  -4  629.94   36.10
 -10  -8   4  545.35   64.19
 -10  -8   4  619.84   39.30
  10  -8  -4  622.34   61.39
 -10  -8   4  640.64   69.59
 -10  -8   4  653.53   44.40
 -10   8   4  608.54   40.70
  10   8  -4  670.33   45.40
 -10   8   4  716.53   65.89
  -8  -8   4  531.35   36.90
   8  -8  -4  512.85   33.00
   8  -8  -4  559.94   53.99
  -8  -8   4  495.65   55.69
  -8  -8   4  421.56   54.99
   8   8  -4  448.56   35.90
  -8   8   4  569.94   53.99
  -8   8   4  464.35   34.20
  -6  -8   4 1066.09   55.09
   6  -8  -4 1062.69   53.39
   6  -8  -4 1159.08   76.39
  -6  -8   4 1018.70   74.49
  -6  -8   4 1094.59   79.19
  -6   8   4 1123.19   55.59
   6   8  -4 1001.80   55.89
  -6   8   4 1138.69   78.99
   4  -8  -4  440.06   31.10
   4  -8  -4  456.35   47.60
  -4  -8   4  465.85   47.50
  -4  -8   4  403.66   28.60
  -4  -8   4  491.65   48.70
   4   8  -4  436.86   31.30
  -4   8   4  426.86   46.90
  -4   8   4  501.05   32.80
  -2  -8   4  861.61   43.90
  -2  -8   4  962.30   63.29
   2  -8  -4  875.61   46.70
  -2  -8   4  812.82   39.90
   2  -8  -4  834.32   64.49
  -2   8   4  921.81   47.00
   2   8  -4  780.12   43.70
  -2   8   4  883.91   66.89
   0  -8   4 1106.29   64.39
   0  -8   4 1023.70   51.39
   0  -8   4  954.10   61.49
   0  -8   4  938.11   35.50
   0  -8  -4 1005.80   73.49
   0  -8  -4  980.00   51.69
   0   8   4  942.91   70.89
   0   8   4 1073.59   50.49
   0   8  -4 1022.80   48.30
   2  -8   4  418.46   35.10
  -2  -8  -4  380.46   46.70
   2  -8   4  344.27   31.40
   2  -8   4  330.17   33.30
  -2  -8  -4  410.46   45.20
  -2   8  -4  325.57   23.10
   2   8   4  348.67   34.30
   2   8   4  385.16   55.09
   4  -8   4  756.12   34.50
   4  -8   4  767.12   53.59
  -4  -8  -4  730.33   45.60
   4  -8   4  763.82   33.90
  -4  -8  -4  735.63   66.89
   4   8   4  681.53   53.59
   4   8   4  683.23   64.39
  -4   8  -4  780.32   36.60
  -6  -8  -4  229.58   33.20
  -6  -8  -4  315.17   31.50
   6   8   4  277.57   42.90
   6   8   4  191.78   42.70
  -6   8  -4  291.87   19.70
  -8  -8  -4   74.59   24.60
  -8  -8  -4  108.19   29.60
  -8   8  -4   70.39   11.50
   8   8   4   40.60   24.70
  15  -9  -4  101.99   48.40
 -15  -9   4   59.49   21.80
 -15  -9   4  -33.60   53.29
 -15  -9   4   51.19   24.20
 -15   9   4  110.89   54.09
  15   9  -4  119.89   25.10
 -15   9   4   71.99   19.80
  13  -9  -4  172.48   44.80
 -13  -9   4  164.38   28.20
 -13  -9   4  191.98   30.70
 -13  -9   4  134.99   53.09
  13   9  -4  196.48   30.80
 -13   9   4  140.59   47.30
 -13   9   4  196.28   28.80
  11  -9  -4  317.27   24.00
 -11  -9   4  303.87   56.79
  11  -9  -4  333.87   26.10
 -11  -9   4  310.07   32.60
 -11  -9   4  316.37   28.50
 -11  -9   4  273.77   56.29
  11  -9  -4  368.76   56.89
 -11   9   4  307.57   29.40
 -11   9   4  227.88   48.20
  11   9  -4  355.96   32.90
  -9  -9   4  327.27   55.29
   9  -9  -4  396.16   28.30
  -9  -9   4  317.07   30.50
  -9  -9   4  348.27   25.80
   9  -9  -4  376.66   47.50
  -9  -9   4  421.96   64.39
  -9   9   4  376.66   30.90
   9   9  -4  353.46   32.40
  -9   9   4  447.16   59.39
  -7  -9   4  513.55   36.80
  -7  -9   4  619.44   60.19
  -7  -9   4  543.45   57.19
   7  -9  -4  536.25   53.99
   7  -9  -4  587.24   36.20
  -7   9   4  544.55   56.49
   7   9  -4  481.65   37.00
  -7   9   4  536.65   36.00
   5  -9  -4  974.10   70.89
  -5  -9   4  798.32   66.79
  -5  -9   4  845.52   47.10
  -5  -9   4  910.21   69.69
   5  -9  -4  876.61   47.60
  -5   9   4  931.61   49.40
  -5   9   4  854.81   68.89
   5   9  -4  891.91   50.59
  -3  -9   4  203.28   14.30
   3  -9  -4  130.09   32.80
  -3  -9   4  233.78   39.90
  -3  -9   4  192.88   36.10
  -3  -9   4  203.98   19.10
   3  -9  -4  164.48   20.30
  -3   9   4  150.68   35.60
  -3   9   4  206.18   21.10
   3   9  -4  178.08   20.10
  -1  -9   4  685.93   33.90
  -1  -9   4  748.53   35.00
   1  -9  -4  762.62   48.50
  -1  -9   4  737.43   55.99
  -1  -9   4  748.93   39.00
   1  -9  -4  765.32   64.29
  -1   9   4  820.62   67.59
  -1   9   4  736.73   43.00
   1   9  -4  734.53   41.00
   1  -9   4  530.05   44.20
  -1  -9  -4  553.04   37.40
  -1  -9  -4  548.25   58.39
   1  -9   4  604.44   38.60
   1  -9   4  542.05   45.30
  -1   9  -4  495.15   31.70
   1   9   4  498.45   33.40
   1   9   4  556.94   58.39
  -3  -9  -4  644.44   42.80
  -3  -9  -4  640.44   64.09
   3  -9   4  699.23   44.70
   3  -9   4  725.23   44.60
  -3   9  -4  623.64   34.40
   3   9   4  627.64   63.59
   3   9   4  597.64   48.90
  -5  -9  -4  586.74   45.30
  -5  -9  -4  533.75   41.50
   5   9   4  504.85   73.59
   5   9   4  628.04   52.19
  -5   9  -4  572.74   31.40
  -7  -9  -4   27.30   19.50
  -7  -9  -4   56.59   22.30
   7   9   4   62.79   23.80
  -7   9  -4   35.10   10.90
  -9  -9  -4   89.89   29.40
  -9  -9  -4   71.19   27.10
  -9   9  -4   38.50   11.30
   9   9   4   28.30   27.70
 -16 -10   4   30.20   24.50
  16 -10  -4  -32.60   51.39
 -16 -10   4   31.10   30.70
 -16  10   4   37.60   21.30
 -16  10   4  -25.00   59.09
 -14 -10   4   44.40   50.09
  14 -10  -4  132.89   46.70
 -14 -10   4  135.89   29.40
 -14 -10   4   96.79   24.70
 -14 -10   4  101.79   53.99
  14  10  -4   76.49   24.50
 -14  10   4  162.18   54.79
 -12 -10   4  140.19   50.39
 -12 -10   4  191.28   27.30
  12 -10  -4  212.18   17.80
  12 -10  -4  188.08   47.60
 -12 -10   4  171.28   28.90
  12 -10  -4  259.87   19.80
 -12 -10   4  127.99   49.80
  12  10  -4  186.28   30.60
 -12  10   4  189.98   28.30
 -10 -10   4  294.47   25.70
 -10 -10   4  312.77   32.10
  10 -10  -4  355.36   26.60
  10 -10  -4  356.36   29.30
  10 -10  -4  312.57   52.59
 -10 -10   4  302.47   55.89
 -10 -10   4  450.45   68.49
  10  10  -4  321.27   34.90
 -10  10   4  390.66   59.89
 -10  10   4  414.76   33.20
  -8 -10   4  253.67   48.80
   8 -10  -4  348.87   27.30
   8 -10  -4  329.57   29.50
  -8 -10   4  341.87   30.40
   8 -10  -4  431.86   51.99
  -8 -10   4  278.87   19.80
  -8 -10   4  275.37   50.09
   8  10  -4  293.97   31.90
  -8  10   4  360.36   54.69
  -8  10   4  346.67   29.10
  -6 -10   4  650.73   41.90
  -6 -10   4  694.93   64.79
  -6 -10   4  684.13   64.09
   6 -10  -4  650.73   40.50
   6 -10  -4  587.94   59.99
   6  10  -4  718.23   45.80
  -6  10   4  705.93   75.49
  -6  10   4  680.33   42.70
  -4 -10   4  647.24   38.40
  -4 -10   4  554.14   55.99
  -4 -10   4  598.34   24.70
  -4 -10   4  618.14   57.99
   4 -10  -4  544.55   56.99
  -4  10   4  600.04   61.29
   4  10  -4  531.65   38.70
  -4  10   4  661.63   40.60
   2 -10  -4  340.77   28.30
   2 -10  -4  380.16   46.50
  -2 -10   4  343.77   21.50
  -2 -10   4  343.97   24.00
  -2 -10   4  317.47   23.50
  -2 -10   4  338.77   43.50
  -2  10   4  312.57   27.90
  -2  10   4  299.97   51.19
   2  10  -4  296.87   25.80
   0 -10   4  396.96   19.70
   0 -10  -4  454.55   33.40
   0 -10   4  462.65   45.90
   0 -10   4  387.26   19.80
   0 -10   4  448.66   30.30
   0 -10   4  412.76   43.60
   0 -10  -4  478.25   64.49
   0  10  -4  398.26   29.90
   0  10   4  473.55   32.60
   0  10   4  462.55   58.69
   2 -10   4  764.22   53.99
   2 -10   4  834.52   56.99
  -2 -10  -4  827.22   75.49
  -2 -10  -4  793.22   48.80
  -2  10  -4  839.22   43.00
   2  10   4  809.12   74.49
   2  10   4  774.92   53.99
   4 -10   4  600.14   37.10
  -4 -10  -4  595.24   43.60
  -4 -10  -4  669.23   48.50
   4 -10   4  629.14   38.90
  -4 -10  -4  500.65   69.49
   4  10   4  606.54   50.69
  -4  10  -4  646.64   35.60
   4  10   4  608.34   65.69
  -6 -10  -4   47.10   21.90
  -6 -10  -4   70.99   20.50
   6  10   4   67.99   23.20
   6  10   4    3.00   42.70
  -6  10  -4   93.09   14.70
  -8 -10  -4   25.20   23.00
  -8 -10  -4   63.59   24.40
   8  10   4   19.40   24.70
  -8  10  -4   43.40   12.70
  15 -11  -4   35.40   50.89
 -15 -11   4  -22.90   18.80
 -15 -11   4    7.40   63.49
 -15 -11   4   34.30   23.90
 -15  11   4   46.50   20.50
  15  11  -4   48.00   23.80
 -15  11   4   48.60   55.49
  13 -11  -4  149.69   46.50
 -13 -11   4  145.99   25.70
 -13 -11   4  113.49   24.50
 -13 -11   4   82.39   51.99
 -13 -11   4   73.99   53.09
  13  11  -4  168.58   31.00
 -13  11   4  133.89   28.70
 -13  11   4  127.59   51.29
  11 -11  -4  255.07   23.70
  11 -11  -4  282.97   23.60
 -11 -11   4  174.28   50.49
 -11 -11   4  275.17   25.50
 -11 -11   4  250.07   55.99
 -11 -11   4  274.77   31.50
  11 -11  -4  185.88   47.50
 -11  11   4  268.67   28.80
  11  11  -4  213.58   32.20
 -11  11   4  218.08   51.49
   9 -11  -4  145.79   20.60
  -9 -11   4  124.19   40.80
   9 -11  -4  138.79   35.60
   9 -11  -4  157.08   23.10
  -9 -11   4  155.08   26.60
  -9 -11   4  132.39   14.80
  -9  11   4   72.99   35.80
   9  11  -4  153.48   28.30
  -9  11   4  181.28   26.20
  -7 -11   4  409.86   35.10
  -7 -11   4  426.86   19.00
  -7 -11   4  549.45   61.79
   7 -11  -4  456.45   36.20
   7 -11  -4  451.65   54.99
  -7 -11   4  475.05   67.89
   7  11  -4  410.26   36.90
  -7  11   4  465.85   54.89
  -7  11   4  490.45   36.10
  -5 -11   4  411.56   51.99
   5 -11  -4  457.85   34.00
  -5 -11   4  470.55   35.00
  -5 -11   4  527.05   57.49
   5 -11  -4  515.25   56.69
   5  11  -4  512.75   38.40
  -5  11   4  506.75   56.49
  -5  11   4  519.05   37.00
   3 -11  -4  408.16   31.70
  -3 -11   4  402.76   49.00
   3 -11  -4  385.26   56.69
  -3 -11   4  403.66   28.80
  -3 -11   4  435.06   29.60
  -3 -11   4  387.86   47.40
  -3  11   4  410.56   32.60
   3  11  -4  319.27   34.70
  -3  11   4  427.86   60.19
  -1 -11   4  122.99   31.70
   1 -11  -4   60.19   16.50
  -1 -11   4   99.59   29.30
   1 -11  -4   50.79   30.10
  -1 -11   4   89.49   13.70
  -1 -11   4   95.79   13.90
  -1  11   4   84.59   18.00
  -1  11   4   75.19   31.80
   1  11  -4   97.49   18.10
  -1 -11  -4  923.01   57.59
  -1 -11  -4  996.10   56.09
   1 -11   4 1064.19   69.59
  -1 -11  -4 1022.40   83.79
   1 -11   4  996.00   67.29
   1  11   4  939.91   51.89
   1  11   4  916.61   79.79
  -1  11  -4 1009.70   51.09
   3 -11   4  462.35   42.70
  -3 -11  -4  511.45   38.90
  -3 -11  -4  475.65   42.10
   3 -11   4  550.94   43.70
  -3 -11  -4  433.86   63.79
  -3  11  -4  490.15   32.20
   3  11   4  496.75   43.70
   3  11   4  543.15   64.69
  -5 -11  -4   57.19   21.80
  -5 -11  -4   24.50   42.30
  -5 -11  -4  106.19   23.60
  -5  11  -4  141.49   19.30
   5  11   4   99.49   42.90
   5  11   4   72.19   24.60
  -7 -11  -4  106.99   28.00
  -7 -11  -4   20.10   21.40
   7  11   4   73.29   27.70
  -7  11  -4   89.29   16.60
 -14 -12   4  119.79   65.69
 -14 -12   4   19.70   20.80
 -14 -12   4   27.30   20.60
  14 -12  -4   64.29   47.80
 -14  12   4   34.80   53.89
 -14  12   4   49.60   19.90
  14  12  -4   53.89   23.90
 -12 -12   4  104.89   51.19
 -12 -12   4   64.59   52.29
  12 -12  -4  141.29   16.30
  12 -12  -4  162.28   48.40
 -12 -12   4  115.09   20.40
 -12 -12   4  125.59   28.00
  12 -12  -4  141.29   15.70
  12  12  -4   71.49   23.70
 -12  12   4  137.49   57.99
 -12  12   4  148.19   25.90
 -10 -12   4  210.58   38.00
 -10 -12   4  216.08   55.49
  10 -12  -4  275.47   25.60
 -10 -12   4  232.28   52.29
  10 -12  -4  263.97   24.30
  10 -12  -4  233.98   52.79
 -10 -12   4  271.47   21.90
 -10  12   4  256.17   28.10
  10  12  -4  215.18   35.40
 -10  12   4  169.78   43.90
  -8 -12   4  134.39   24.90
   8 -12  -4   70.99   34.40
   8 -12  -4  126.79   24.10
  -8 -12   4  168.68   46.10
   8 -12  -4  124.09   22.20
  -8 -12   4  167.98   46.40
   8  12  -4  170.18   30.70
  -8  12   4  151.88   44.00
  -8  12   4  162.98   26.80
   6 -12  -4  229.38   47.80
   6 -12  -4  205.78   29.00
   6 -12  -4  153.58   22.60
  -6 -12   4  135.89   39.40
  -6 -12   4  107.49   36.90
  -6 -12   4  124.79   24.00
  -6  12   4   74.89   32.00
   6  12  -4  178.18   29.30
  -6  12   4  175.78   25.60
   4 -12  -4  349.37   34.00
  -4 -12   4  460.25   62.99
  -4 -12   4  430.56   53.29
  -4 -12   4  418.86   31.30
   4 -12  -4  421.66   61.09
   4 -12  -4  360.36   30.80
  -4 -12   4  355.56   34.10
   4  12  -4  296.47   31.80
  -4  12   4  434.96   54.39
  -4  12   4  404.06   33.50
   2 -12  -4   48.00   31.50
  -2 -12   4   70.69   29.20
   2 -12  -4   66.39   17.80
  -2 -12   4   82.19   14.50
   2 -12  -4   55.59   17.00
  -2 -12   4   75.29   13.90
   2  12  -4   52.09   24.40
  -2  12   4   84.49   33.60
  -2  12   4   72.19   17.90
   0 -12   4  340.27   19.90
   0 -12  -4  368.16   32.90
   0 -12  -4  359.06   35.40
   0 -12   4  329.27   19.30
   0 -12   4  365.96   45.50
   0 -12  -4  361.36   56.69
   0 -12   4  403.36   46.60
   0  12   4  361.16   57.49
   0  12   4  304.77   29.70
   0  12  -4  377.56   30.10
  -2 -12  -4  332.97   35.80
  -2 -12  -4  493.05   61.39
   2 -12   4  430.46   45.10
   2 -12   4  425.86   45.50
  -2 -12  -4  409.36   36.00
   2  12   4  425.16   64.79
  -2  12  -4  375.46   29.70
   2  12   4  407.46   38.20
   4 -12   4   86.19   23.40
   4 -12   4  108.69   25.00
  -4 -12  -4  198.38   31.60
  -4  12  -4  144.19   20.80
   4  12   4  138.89   29.50
  -6 -12  -4   27.30   19.10
  -6 -12  -4   31.40   20.30
  -6  12  -4   51.89   15.10
   6  12   4   21.50   22.30
  -6  12  -4   37.90   23.90
  -8 -12  -4   37.10   26.00
  -8 -12  -4   61.59   27.80
  -8  12  -4   56.79   15.60
   8  12   4   62.19   31.50
 -15 -13   4  -15.40   22.30
 -15 -13   4   10.00   25.00
  15 -13  -4   23.50   56.59
 -15  13   4   29.80   23.50
 -15  13   4  -36.80  100.69
  15  13  -4   78.79   29.00
 -13 -13   4  109.79   72.19
 -13 -13   4   75.49   25.00
 -13 -13   4   32.90   56.19
  13 -13  -4  -21.60   43.00
  13  13  -4   11.80   24.00
 -13  13   4  -26.90   45.80
 -13  13   4   79.39   21.50
  11 -13  -4  108.09   17.20
  11 -13  -4  130.39   19.60
 -11 -13   4  125.59   51.39
 -11 -13   4  113.29   17.90
 -11 -13   4   50.19   50.79
  11 -13  -4   98.49   42.00
 -11 -13   4  122.39   25.80
 -11  13   4  101.39   23.70
 -11  13   4  142.89   47.40
  11  13  -4  118.99   29.10
   9 -13  -4   80.29   34.80
   9 -13  -4   89.79   18.60
  -9 -13   4   78.89   44.10
  -9 -13   4   93.69   45.50
  -9  13   4  131.39   23.50
  -9  13   4  115.19   40.50
   9  13  -4   78.99   21.70
  -7 -13   4  202.68   51.09
   7 -13  -4  163.78   24.40
  -7 -13   4  141.39   43.30
  -7 -13   4  180.38   28.50
   7 -13  -4  217.08   26.40
   7  13  -4  143.09   27.10
  -7  13   4  139.99   25.20
  -7  13   4  108.99   39.10
   5 -13  -4  338.87   33.70
   5 -13  -4  372.76   58.09
  -5 -13   4  353.16   57.39
   5 -13  -4  343.97   31.00
  -5 -13   4  294.27   28.30
  -5 -13   4  325.97   59.49
  -5  13   4  319.97   56.89
  -5  13   4  342.27   31.70
   5  13  -4  301.47   31.70
  -3 -13   4    6.60    8.20
   3 -13  -4    4.50    9.70
   3 -13  -4   21.90   27.50
  -3 -13   4   13.50   25.60
  -3 -13   4   32.10   26.10
  -3 -13   4   24.60   11.30
   3 -13  -4   -0.80   11.10
   3  13  -4    6.50   10.90
  -3  13   4    2.30   27.70
  -3  13   4   -5.00   10.30
  -1 -13   4  301.87   22.60
  -1 -13   4  313.97   49.00
   1 -13  -4  293.57   30.10
  -1 -13   4  243.08   45.70
  -1 -13   4  255.17   21.30
   1 -13  -4  258.57   30.10
   1  13  -4  243.48   32.20
  -1  13   4  278.47   53.69
  -1  13   4  251.17   27.80
  -1 -13  -4  340.87   33.60
  -1 -13  -4  288.07   33.30
  -1 -13  -4  448.56   67.99
   1 -13   4  355.96   48.70
   1 -13   4  305.77   44.90
   1  13   4  321.67   57.59
  -1  13  -4  331.67   34.20
   1  13   4  293.47   29.20
  -3 -13  -4  127.19   45.30
   3 -13   4  201.08   34.80
   3 -13   4  203.28   38.00
  -3 -13  -4  132.19   41.90
  -3 -13  -4  147.09   27.80
   3  13   4  157.88   31.00
   3  13   4   62.59   40.30
  -3  13  -4  181.98   22.50
   5 -13   4   44.60   16.60
  -5 -13  -4   25.00   20.00
  -5 -13  -4   91.59   61.69
  -5 -13  -4  102.99   27.00
   5 -13   4   52.29   17.10
   5  13   4   51.09   21.30
   5  13   4   21.60   42.30
  -5  13  -4   92.69   18.10
  -7 -13  -4   40.90   23.90
  -7 -13  -4   15.80   24.40
  -7  13  -4   21.50   15.20
   7  13   4    9.70   22.30
  14 -14  -4    0.10   54.59
 -14 -14   4  -61.89   69.59
 -14 -14   4   28.80   21.10
 -14  14   4   33.90   19.60
 -14  14   4   26.10   59.49
 -12 -14   4   37.90   21.80
  12 -14  -4   65.59   11.80
  12 -14  -4   54.59   12.00
  12 -14  -4  141.79   55.79
 -12 -14   4   40.90   57.69
 -12  14   4   63.09   18.60
 -12  14   4   38.00   45.80
 -10 -14   4   94.29   24.20
 -10 -14   4  172.08   55.69
  10 -14  -4  132.09   22.00
 -10 -14   4  112.99   50.19
  10 -14  -4  115.39   20.70
  10  14  -4  134.39   31.70
 -10  14   4  126.89   45.40
   8 -14  -4  132.79   24.00
  -8 -14   4   98.29   25.60
   8 -14  -4  169.28   44.90
   8 -14  -4   81.99   19.00
  -8 -14   4   39.30   39.40
  -8 -14   4  150.08   45.60
  -8  14   4  128.39   40.90
  -8  14   4  103.09   22.80
   8  14  -4   86.69   24.90
  -6 -14   4  237.68   27.90
  -6 -14   4  208.78   51.59
  -6 -14   4  265.17   59.39
   6 -14  -4   97.79   39.00
   6 -14  -4  202.18   24.40
   6 -14  -4  231.28   28.60
  -6  14   4  124.49   40.20
  -6  14   4  278.67   28.90
   6  14  -4  193.68   31.10
  -4 -14   4   40.00   16.00
   4 -14  -4  105.89   23.00
  -4 -14   4   96.39   20.30
   4 -14  -4  123.69   40.00
  -4 -14   4   85.69   40.40
   4 -14  -4  108.99   22.10
  -4 -14   4   30.60   28.80
  -4  14   4   55.19   35.10
  -4  14   4   80.39   19.80
   4  14  -4   91.89   21.50
  -2 -14   4  219.98   46.00
   2 -14  -4  252.57   27.50
   2 -14  -4  311.87   56.39
  -2 -14   4  297.07   24.50
   2 -14  -4  355.46   36.40
  -2 -14   4  155.38   44.30
  -2 -14   4  277.27   24.90
  -2  14   4  332.67   60.49
  -2  14   4  238.18   27.60
   2  14  -4  299.27   29.80
   0 -14  -4  307.97   60.39
   0 -14   4  292.37   48.50
   0 -14  -4  223.88   27.60
   0 -14   4  245.58   18.50
   0 -14   4  320.67   49.60
   0 -14   4  249.28   18.60
   0 -14  -4  282.07   39.20
   0  14   4  279.97   29.80
   0  14  -4  253.57   28.50
   0  14   4  267.37   55.39
  -2 -14  -4  100.09   43.60
  -2 -14  -4  125.29   26.30
   2 -14   4  125.09   34.90
   2 -14   4  116.59   34.10
  -2 -14  -4  135.69   28.90
   2  14   4   76.39   21.00
  -2  14  -4  141.19   23.40
   2  14   4   99.09   43.10
   4 -14   4  119.89   29.90
  -4 -14  -4   21.50   43.40
   4 -14   4   91.59   29.40
  -4 -14  -4   52.29   22.00
  -4 -14  -4   47.00   23.60
   4  14   4   84.49   49.80
   4  14   4   64.49   21.80
  -6 -14  -4   34.00   25.60
  -6 -14  -4   26.70   24.10
   6  14   4   26.60   21.70
  -6  14  -4   69.09   19.30
  13 -15  -4   65.99   52.69
 -13 -15   4    5.20   20.90
 -13 -15   4  -72.29   65.29
  13  15  -4   39.10   27.60
 -13  15   4   28.60   17.00
 -13  15   4   74.29   60.79
 -11 -15   4   53.39   20.60
  11 -15  -4   26.60   12.60
 -11 -15   4  -11.40   52.29
 -11 -15   4   25.60   51.09
  11 -15  -4   68.89   15.80
  11 -15  -4   48.90   45.90
 -11  15   4   80.49   50.69
 -11  15   4   30.70   16.80
  11  15  -4   16.90   25.50
  -9 -15   4   97.79   25.20
   9 -15  -4  128.09   43.20
   9 -15  -4  110.89   20.70
  -9 -15   4  128.59   51.09
  -9 -15   4   87.49   51.59
   9 -15  -4  126.19   23.00
  -9  15   4  137.49   48.50
  -9  15   4   98.39   24.50
  -7 -15   4   99.29   41.80
  -7 -15   4   93.49   43.80
   7 -15  -4  176.38   47.60
   7 -15  -4   68.29   18.40
  -7 -15   4  101.89   23.20
  -7 -15   4  108.79   23.20
   7 -15  -4   97.09   20.50
  -7  15   4   39.00   39.70
  -7  15   4   87.59   20.80
   5 -15  -4   27.70   14.70
  -5 -15   4   15.90   33.50
   5 -15  -4   30.90   15.20
   5 -15  -4   -7.70   34.70
  -5 -15   4   26.80   35.00
  -5 -15   4   26.80   13.40
  -5 -15   4   28.40   14.10
  -5  15   4   52.19   36.00
   5  15  -4   32.30   17.60
  -5  15   4   28.90   13.30
   3 -15  -4  395.26   68.49
   3 -15  -4  327.27   35.50
  -3 -15   4  348.87   29.30
   3 -15  -4  339.47   33.60
  -3 -15   4  426.96   67.39
  -3 -15   4  415.26   62.29
  -3 -15   4  324.37   29.40
  -3  15   4  347.57   62.99
   3  15  -4  322.27   34.30
  -3  15   4  293.27   32.20
   1 -15  -4  142.39   33.70
   1 -15  -4  293.97   57.89
  -1 -15   4  354.66   58.09
  -1 -15   4  250.37   22.20
  -1 -15   4  189.18   46.40
  -1 -15   4  190.78   21.20
  -1  15   4  203.88   53.09
  -1  15   4  189.58   28.80
   1  15  -4  248.98   29.80
   1 -15   4   61.39   30.60
   1 -15   4  183.98   42.80
  -1 -15  -4  100.79   26.50
  -1 -15  -4  114.29   24.00
  -1 -15  -4  111.79   47.00
   1  15   4   97.29   44.70
  -1  15  -4  147.49   26.80
   3 -15   4   80.69   32.00
  -3 -15  -4   42.30   23.10
   3 -15   4   75.89   32.20
  -3  15  -4  113.59   22.40
   3  15   4   40.40   18.50
  -5 -15  -4    2.70   20.50
   5 -15   4   31.20   23.90
  -5 -15  -4   20.00   20.70
   5  15   4    5.30   18.80
  -5  15  -4    6.20   15.40
  -7 -15  -4    7.80   27.50
  -7  15  -4   22.50   20.80
   7  15   4   26.80   24.40
  14 -16  -4   35.90   62.29
 -14 -16   4   -9.60   25.90
 -14  16   4  -46.40   72.49
 -14  16   4   47.10   23.70
  14  16  -4  -15.80   33.50
  12 -16  -4   -9.00    9.60
  12 -16  -4   -2.90   10.80
 -12 -16   4    6.20   17.80
 -12 -16   4  -57.49   63.29
 -12 -16   4   36.70   64.69
 -12  16   4    6.50   17.50
  12  16  -4   25.20   26.20
 -12  16   4   33.90   57.09
 -10 -16   4    8.90   17.60
  10 -16  -4   37.40   14.70
 -10 -16   4  114.59   58.79
 -10 -16   4   64.79   51.49
  10 -16  -4   29.90   14.60
 -10  16   4    6.80   15.20
 -10  16   4   64.29   44.90
  10  16  -4    4.90   23.80
   8 -16  -4  153.28   48.60
  -8 -16   4   54.69   20.00
   8 -16  -4  110.89   23.40
   8 -16  -4  165.98   25.90
  -8 -16   4  163.78   55.99
  -8  16   4   78.99   44.90
  -8  16   4  139.19   27.80
  -6 -16   4  -12.30   36.80
   6 -16  -4    4.10   12.20
   6 -16  -4    3.70   13.70
  -6 -16   4  -10.80   12.30
   6 -16  -4  -22.50   35.90
  -6 -16   4  -17.90   10.80
  -6 -16   4   25.50   38.10
  -6  16   4    8.20   14.00
  -6  16   4  -22.70   35.50
   4 -16  -4  126.89   23.80
  -4 -16   4  131.19   22.90
  -4 -16   4  144.39   47.50
   4 -16  -4  149.69   28.50
   4 -16  -4  121.79   43.80
  -4 -16   4   78.49   39.50
  -4 -16   4  124.99   23.30
  -4  16   4   93.89   47.50
   4  16  -4   99.59   24.90
  -2 -16   4   97.19   38.00
  -2 -16   4   84.29   38.30
  -2 -16   4   68.49   16.40
   2 -16  -4  109.29   29.10
  -2 -16   4  123.69   31.00
  -2  16   4  168.18   44.40
  -2  16   4  139.99   49.50
   2  16  -4  120.39   26.40
   0 -16   4   -7.20   31.70
   0 -16   4   41.20   10.30
   0 -16  -4  -10.70   39.90
   0 -16   4  -16.00   28.90
   0 -16  -4    2.20   25.50
   0 -16  -4   28.60   17.20
   0  16   4   -7.30   38.00
   0  16  -4   23.70   15.50
   0  16   4   44.20   17.90
   2 -16   4   -7.00   27.40
  -2 -16  -4   73.09   34.50
  -2 -16  -4   -2.40   17.00
   2 -16   4   -5.50   31.80
  -2 -16  -4   54.99   50.79
  -2  16  -4    3.10   15.10
   2  16   4   12.60   16.00
   2  16   4   -0.50   44.30
  -4 -16  -4   15.20   17.70
  -4 -16  -4    3.40   19.20
   4 -16   4    1.30   30.50
   4  16   4  -24.80   80.49
   4  16   4   14.20   18.90
  -4  16  -4   36.50   17.20
  -6 -16  -4   20.90   26.30
   6  16   4   -8.70   21.00
  -6  16  -4   56.89   20.40
 -13 -17   4   -3.60   86.29
 -13 -17   4   20.30   25.80
  13 -17  -4   -3.80   60.29
 -13  17   4  -51.29   74.09
  13  17  -4   -0.70   46.30
 -13  17   4   19.30   21.70
  11 -17  -4  -32.80   46.80
 -11 -17   4   -1.60   61.79
 -11 -17   4   -0.80   18.50
  11 -17  -4    3.80   13.50
  11 -17  -4  -15.90   12.40
 -11  17   4  -22.30   56.59
  11  17  -4  -39.00   25.60
 -11  17   4   16.30   16.20
  -9 -17   4    9.40   20.10
   9 -17  -4   10.50   41.50
  -9 -17   4    9.10   54.39
   9 -17  -4   20.90   16.40
  -9 -17   4   32.30   52.49
  -9 -17   4   22.20   17.20
   9 -17  -4   50.49   17.60
  -9  17   4   34.30   17.00
  -9  17   4   24.40   48.90
   9  17  -4   36.70   26.70
  -7 -17   4   12.70   15.20
   7 -17  -4  -13.40   12.50
  -7 -17   4   13.40   47.10
  -7 -17   4  -39.90   39.90
   7 -17  -4   32.80   43.00
   7 -17  -4   -7.60   13.20
  -7  17   4   16.90   14.30
  -7  17   4  -23.50   41.60
  -5 -17   4  -12.90   12.00
   5 -17  -4   -8.20   12.00
   5 -17  -4  -35.40   37.10
  -5 -17   4    2.90   38.30
  -5 -17   4  -10.40   11.90
  -5 -17   4   25.30   43.30
   5 -17  -4   16.50   17.30
   5  17  -4   13.50   15.20
  -5  17   4    3.10   41.00
  -5  17   4   24.00   13.10
  -3 -17   4   61.09   39.00
   3 -17  -4   53.19   40.40
  -3 -17   4   22.80   13.90
  -3 -17   4   77.49   38.10
  -3 -17   4   54.29   16.10
   3 -17  -4   45.40   18.40
   3 -17  -4   45.90   25.40
  -3  17   4   40.50   41.00
   3  17  -4   31.20   17.80
  -3  17   4   47.30   15.40
  -1 -17   4   -5.00    9.30
  -1 -17   4    7.80   35.30
   1 -17  -4   -1.20   14.40
  -1 -17   4   13.20   33.80
   1 -17  -4    8.40   42.30
  -1 -17   4    5.50   10.40
  -1  17   4    6.70   42.40
  -1  17   4   -8.40   12.20
   1  17  -4    5.10   13.70
   1 -17   4    9.60   35.80
  -1 -17  -4    3.20   17.20
  -1 -17  -4   51.99   49.00
  -1 -17  -4   35.20   18.40
   1 -17   4   17.00   35.40
  -1  17  -4  -18.10   14.40
   1  17   4  -66.89   43.50
  -3 -17  -4    3.40   20.20
  -3 -17  -4   11.10   18.00
   3 -17   4   44.20   36.60
  -3 -17  -4  -31.40   57.09
   3  17   4   -7.80   15.90
  -3  17  -4   10.70   16.70
   3  17   4   41.40   54.59
  -5 -17  -4  -25.20   22.00
   5 -17   4   35.90   31.70
   5  17   4   14.90   20.90
  -5  17  -4   29.30   20.10
  12 -18  -4    3.20   13.80
  12 -18  -4  -12.80   10.80
 -12 -18   4  -19.60   76.49
 -12 -18   4  -28.60   89.69
  12 -18  -4   97.49   98.49
 -12  18   4   -4.80   70.19
 -12  18   4    8.40   21.80
  10 -18  -4   12.30   14.80
 -10 -18   4  -42.30   73.69
 -10 -18   4  -12.40   64.89
  10 -18  -4    1.10   14.30
 -10 -18   4   36.20   21.30
 -10  18   4   -3.90   15.40
  10  18  -4   -1.30   22.40
 -10  18   4  127.09   57.89
  -8 -18   4  -26.30   48.80
  -8 -18   4   -6.30   53.09
   8 -18  -4   45.10   48.90
  -8 -18   4   -4.50   16.40
  -8 -18   4    6.60   18.50
   8 -18  -4  -13.40   14.40
   8 -18  -4  -22.90   14.10
  -8  18   4    3.90   14.90
  -8  18   4   43.00   49.60
   8  18  -4   -5.70   18.40
  -6 -18   4   64.89   49.30
  -6 -18   4   16.00   16.40
  -6 -18   4   54.99   47.00
   6 -18  -4   17.90   16.00
   6 -18  -4   85.79   48.50
  -6  18   4   58.89   20.30
  -6  18   4  -13.70   45.30
  -4 -18   4   46.40   42.50
   4 -18  -4    2.40   16.00
  -4 -18   4   21.30   13.70
  -4 -18   4   -8.20   38.20
   4 -18  -4   37.40   46.60
  -4 -18   4  -15.30   14.70
  -4  18   4   -6.30   12.90
  -4  18   4   84.69   47.10
   4  18  -4    5.40   16.20
   2 -18  -4    2.70   15.70
  -2 -18   4   42.10   38.60
  -2 -18   4   17.60   13.60
  -2 -18   4   24.90   36.60
  -2 -18   4   -5.10   11.10
   2 -18  -4   33.50   44.30
   2  18  -4   40.40   20.50
  -2  18   4   23.30   45.60
  -2  18   4    8.40   13.80
   0 -18   4   18.80   10.50
   0 -18   4   32.40   39.00
   0 -18   4    2.60    9.30
   0 -18  -4   18.30   47.90
   0 -18   4  -74.09   35.90
   0 -18  -4   22.10   19.20
   0  18   4   50.19   49.50
   0  18  -4   40.00   19.50
   0  18   4   19.10   16.60
   2 -18   4   28.30   40.10
  -2 -18  -4   20.80   18.90
  -2 -18  -4   -0.60   22.70
   2  18   4   12.20   58.59
  -2  18  -4  -11.40   16.20
   2  18   4   17.10   15.70
  -4 -18  -4    7.90   21.00
   4 -18   4  -17.50   40.20
   4  18   4  -15.40   17.40
  -4  18  -4   31.70   20.30
 -11 -19   4 -119.49   78.69
  11 -19  -4    5.20   59.29
 -11 -19   4  -43.00   36.70
  11 -19  -4    9.40   14.70
 -11  19   4  -20.20   19.10
 -11  19   4   56.09   69.69
   9 -19  -4   10.60   16.80
  -9 -19   4   19.00   64.09
  -9 -19   4   22.20   19.80
  -9 -19   4  -44.70   65.09
   9 -19  -4   23.60   57.49
   9 -19  -4   18.60   17.20
  -9  19   4   19.00   18.10
  -9  19   4  -60.69   54.19
   7 -19  -4   -5.10   16.70
  -7 -19   4  -20.90   16.20
  -7 -19   4   -3.90   16.20
  -7 -19   4   -6.10   56.99
  -7 -19   4   16.00   49.99
   7 -19  -4    8.30   17.00
   7 -19  -4  -40.20   47.40
  -7  19   4   25.00   54.19
   7  19  -4   -5.00   19.30
  -7  19   4   21.20   18.60
  -5 -19   4    6.60   15.70
  -5 -19   4   13.10   45.10
   5 -19  -4   10.10   17.00
  -5 -19   4  -13.30   49.99
   5 -19  -4   47.60   53.09
  -5  19   4   30.20   16.90
   5  19  -4   14.60   20.50
  -5  19   4  -52.89   46.60
  -3 -19   4  -80.69   43.00
   3 -19  -4    8.20   14.80
  -3 -19   4    0.80   12.60
   3 -19  -4  -30.20   14.00
  -3 -19   4   25.10   44.50
  -3 -19   4   -4.30   14.80
  -3  19   4   23.00   48.30
  -3  19   4    7.40   15.20
  -1 -19   4  -26.10   13.90
  -1 -19   4  -50.59   46.40
   1 -19  -4    2.90   16.40
  -1 -19   4   11.30   13.00
  -1 -19   4  -13.30   39.70
   1 -19  -4   68.49   57.69
   1 -19  -4   18.80   16.50
  -1  19   4   -2.50   14.00
   1  19  -4    5.60   19.30
  -1  19   4  -58.49   47.30
   1 -19   4  -56.89   42.10
  -1 -19  -4   -7.30   17.10
  -1  19  -4   27.60   20.00
   1  19   4   11.00   55.19
  -3 -19  -4   10.20   26.50
   3 -19   4   -9.00   47.70
  -3  19  -4   21.60   21.90
   3  19   4   13.80   17.00
  -5 -19  -4   14.10   29.50
  -5  19  -4   22.30   26.00
  10 -20  -4    3.10   16.80
 -10 -20   4    8.30   22.90
  10 -20  -4   33.10   19.30
 -10 -20   4   33.80   77.09
 -10  20   4  -32.40   20.90
 -10  20   4  -42.30   67.19
   8 -20  -4   19.00   19.80
  -8 -20   4  -56.99   67.79
   8 -20  -4   60.29   61.09
   8 -20  -4   19.00   20.30
  -8 -20   4   67.79   64.29
  -8 -20   4  -15.40   18.30
  -8  20   4   60.09   64.39
  -8  20   4  -25.30   19.30
  -6 -20   4  -47.50   56.39
   6 -20  -4   -9.30   17.40
  -6 -20   4   25.90   17.50
  -6 -20   4  -45.70   19.40
  -6 -20   4   40.40   55.09
   6 -20  -4   31.00   58.19
  -6  20   4   -1.80   17.40
  -6  20   4  -27.90   52.89
   6  20  -4   -2.40   23.40
  -4 -20   4  -57.99   74.59
   4 -20  -4   13.90   52.59
  -4 -20   4   19.30   16.20
   4 -20  -4   25.80   20.50
   4 -20  -4   38.90   20.30
  -4 -20   4   50.29   54.59
   4  20  -4   48.80   23.90
  -4  20   4  -12.60   49.70
  -4  20   4   21.50   17.10
   2 -20  -4   10.60   19.50
  -2 -20   4  -15.70   45.90
  -2 -20   4   -8.60   15.00
   2 -20  -4  -52.29   54.69
  -2 -20   4  -18.80   48.00
   2 -20  -4  -34.60   19.00
  -2 -20   4  -24.90   12.50
  -2  20   4   19.40   51.29
   2  20  -4   22.70   21.80
  -2  20   4    4.90   17.70
   0 -20   4    3.10   12.00
   0 -20  -4  -15.70   19.70
   0 -20   4   42.80   49.99
   0 -20   4   29.00   13.80
   0 -20  -4   11.40   62.29
   0  20  -4  -14.00   20.90
   0  20   4  -50.39   57.19
  -2 -20  -4   26.30   75.79
   2 -20   4    3.70   50.79
  -2 -20  -4   -5.50   24.20
   2  20   4   24.30   20.70
  -2  20  -4  -11.60   37.70
   2  20   4  -53.19   64.79
  -4 -20  -4   -9.20   28.50
   4 -20   4   26.90   53.29
   4  20   4  -23.50   20.40
  -4  20  -4   38.70   45.70
  -9 -21   4   40.40   25.90
   9 -21  -4    7.30   19.90
  -9 -21   4   81.39   81.59
   9 -21  -4   24.80   68.69
  -9 -21   4   71.59   83.89
  -9  21   4    7.90   21.00
  -9  21   4  -41.50   68.49
   7 -21  -4   -0.40   20.10
  -7 -21   4   34.30   69.79
   7 -21  -4   -3.10   61.79
  -7 -21   4   12.20   18.30
  -7 -21   4   13.70   62.89
  -7  21   4   70.79   63.89
  -7  21   4   18.60   20.90
  -5 -21   4  -13.10   20.70
  -5 -21   4   66.99   67.39
   5 -21  -4   21.60   19.20
  -5 -21   4  -22.30   62.09
   5 -21  -4  -10.90   61.19
   5 -21  -4    2.40   18.30
  -5 -21   4   11.60   17.70
  -5  21   4   -0.40   58.69
  -5  21   4   -2.30   16.50
  -3 -21   4    7.70   55.39
  -3 -21   4  -28.70   50.49
  -3 -21   4   16.20   18.60
   3 -21  -4   29.20   62.89
  -3 -21   4   -2.20   17.10
   3 -21  -4    2.00   25.00
   3 -21  -4   29.90   21.50
  -3  21   4  -10.40   18.70
  -3  21   4   -9.10   56.59
   3  21  -4    2.80   34.60
   1 -21  -4   25.70   26.40
   1 -21  -4   81.39   68.59
  -1 -21   4   66.79   19.20
  -1 -21   4   20.80   14.80
  -1  21   4   31.70   19.30
  -1  21   4   74.09   64.59
   1  21  -4   12.50   25.20
   1 -21   4  -24.80   57.19
  -1 -21  -4   -3.60   23.90
  -1 -21  -4   36.40   77.39
   1  21   4  -64.59   65.79
  -1  21  -4  -41.90   24.50
   3 -21   4   76.09   63.79
  -3 -21  -4  -18.90   29.50
  -3  21  -4  -12.90   28.40
   3  21   4   23.70   22.10
   8 -22  -4   19.70   21.20
  -8 -22   4   97.29   87.69
  -8 -22   4  -41.80   76.89
   8 -22  -4    6.00   76.09
   8 -22  -4   60.49   37.20
  -8 -22   4   -7.30   23.50
  -8  22   4   39.80   29.40
  -8  22   4   57.39   78.39
  -6 -22   4   19.30   21.10
  -6 -22   4   37.00   78.19
   6 -22  -4   11.30   74.89
   6 -22  -4    7.20   23.60
  -6 -22   4   33.80   65.99
   6 -22  -4   29.20   22.90
  -6  22   4   83.19   71.09
  -6  22   4   28.20   23.60
  -4 -22   4   58.79   66.89
  -4 -22   4   57.79   26.10
   4 -22  -4   60.49   89.69
  -4 -22   4    1.50   66.29
  -4 -22   4   26.20   19.00
   4 -22  -4   44.20   22.10
  -4  22   4   19.20   21.10
  -4  22   4  -74.89   65.09
  -2 -22   4   44.40   20.10
   2 -22  -4   25.60   70.29
   2 -22  -4   39.30   27.10
  -2 -22   4   27.30   20.70
  -2 -22   4 -101.29   59.79
  -2  22   4   41.60   24.40
  -2  22   4    9.70   69.59
   0 -22   4  -19.60   63.89
   0 -22   4   59.39   22.30
   0 -22   4   23.40   15.40
  -2 -22  -4   13.90   29.50
   2 -22   4  147.49   81.29
   2  22   4   17.10   24.70
   7 -23  -4   16.60   22.70
  -7 -23   4  169.38  101.49
  -7 -23   4   60.29   24.20
   7 -23  -4   34.90   80.79
   7 -23  -4   37.40   26.80
  -7 -23   4  -21.10   81.89
  -7  23   4   63.69   82.79
  -7  23   4   43.70   26.90
   5 -23  -4   16.50   80.69
  -5 -23   4   -9.10   23.80
   5 -23  -4    6.30   26.00
  -5 -23   4   43.70   83.89
  -5  23   4  -64.29   75.19
   3 -23  -4  -20.10   83.39
  -3 -23   4   39.80   37.60
   3 -23  -4   78.39   31.40
  -3 -23   4   68.39   23.10
  -3 -23   4  -25.50   73.79
  -3  23   4   47.30   75.29
   1 -23  -4   23.50   86.79
  -1 -23   4    3.20   20.70
   1 -23  -4   47.20   34.00
  -1 -23   4   17.90   17.60
  -1  23   4  154.68   81.69
  -6 -24   4   44.50   28.00
   6 -24  -4   63.89   32.10
  -6 -24   4  166.48  106.69
  -6  24   4  110.19   31.50
  -4 -24   4   59.19   91.19
  -4 -24   4  157.38   32.10
   4 -24  -4   73.39   93.99
   4 -24  -4   77.99   34.30
  -4  24   4   62.99   31.90
  -4  24   4   79.89   86.89
   2 -24  -4   80.49  101.69
   2 -24  -4   49.00   31.50
  -2 -24   4   58.79   23.90
  -2  24   4  129.29   88.99
  -2  24   4   31.00   27.20
  16   0  -5   12.40    9.20
 -16   0   5    9.40   20.10
 -16   0   5   -9.70   14.60
 -16   0   5   47.60   48.30
 -14   0   5    5.10   12.80
  14   0  -5  -23.00   10.40
  14   0  -5    7.10   38.30
 -14   0   5  -11.10   34.00
 -12   0   5    3.40   26.70
 -12   0   5    8.00   10.40
  12   0  -5   16.40   29.60
  12   0  -5   13.50    9.80
 -10   0   5   10.70   22.60
 -10   0   5   -0.70    7.50
  10   0  -5   17.30   23.30
  10   0  -5   -2.30    8.60
   8   0  -5   -5.00   18.80
   8   0  -5    0.00    7.30
  -8   0   5    5.90   19.50
  -8   0   5   -5.10    6.00
  -6   0   5    0.30    6.50
  -6   0   5   -5.20   15.90
   6   0  -5    0.80   15.80
   6   0  -5    0.20    6.30
   4   0  -5   16.20    7.90
  -4   0   5   -5.80   14.40
  -4   0   5   -0.40    5.40
   4   0  -5   11.10   15.70
   2   0  -5    9.90   14.50
   2   0  -5    4.80    5.80
  -2   0   5    5.10    5.30
  -2   0   5   18.70   15.20
   0   0   5    2.60    8.30
   0   0  -5  -33.30   13.80
   0   0   5    5.30    3.60
   0   0  -5   -3.10    5.50
   0   0   5    1.00   14.00
   2   0   5    5.90   15.80
  -2   0  -5    8.20   17.20
  -2   0  -5    7.20    6.50
   2   0   5   10.40   11.40
   4   0   5   -8.50   11.60
  -4   0  -5   -0.80   17.00
   4   0   5    0.60   15.60
  -4   0  -5    9.30    7.50
  -6   0  -5    1.10   10.10
   6   0   5   -9.00   16.80
  -8   0  -5  -30.10   13.30
 -17  -1   5   -9.80   17.60
 -17  -1   5   -2.90   59.29
 -17   1   5   18.30   59.09
 -17   1   5  -11.50   18.70
 -15  -1   5    9.70   39.80
  15  -1  -5   -5.20   10.90
 -15  -1   5   13.30   15.10
  15  -1  -5   42.20   43.50
 -15   1   5   10.00   14.30
 -15   1   5   19.60   41.30
  15   1  -5   -3.50   12.30
  15   1  -5   26.90   47.00
 -13  -1   5    6.50   10.70
  13  -1  -5    3.40   10.20
 -13  -1   5   10.50   31.80
  13   1  -5  -65.99   47.70
  13   1  -5   16.30   12.60
 -13   1   5    7.40   10.60
 -13   1   5   23.20   31.70
  11  -1  -5   16.90   26.50
 -11  -1   5   40.80   13.90
  11  -1  -5   31.70   11.80
 -11  -1   5  144.29   39.00
 -11   1   5  -10.60   22.40
  11   1  -5   94.29   36.90
 -11   1   5   57.19   17.30
   9  -1  -5   15.60    8.60
   9  -1  -5  -13.90   18.80
  -9  -1   5    2.40   21.20
  -9  -1   5    4.20    7.50
   9   1  -5   12.70   20.70
  -9   1   5   10.80    9.00
   9   1  -5  -10.70    7.10
  -9   1   5   18.50   20.70
   7  -1  -5   37.50   23.20
   7  -1  -5   81.89   16.50
  -7  -1   5  119.09   30.30
  -7  -1   5  140.59   21.10
   7   1  -5  132.19   20.60
  -7   1   5   97.79   17.00
  -7   1   5  115.79   30.30
   7   1  -5  133.69   31.60
   5  -1  -5   50.39   12.40
  -5  -1   5   41.60   20.30
   5  -1  -5   27.40   19.60
  -5  -1   5   49.60   12.80
  -5   1   5   52.69   12.00
  -5   1   5   28.20   20.50
   5   1  -5   66.09   22.80
   5   1  -5   40.80   11.30
   3  -1  -5   63.09   21.80
   3  -1  -5   53.09   12.50
  -3  -1   5   38.90    9.30
  -3  -1   5   11.70   16.70
  -3   1   5   21.90    7.90
  -3   1   5   18.30   17.20
   3   1  -5   64.09   23.10
   3   1  -5   52.19   12.10
   1  -1  -5   77.29   13.90
  -1  -1   5  131.39   26.50
  -1  -1   5  102.89   10.90
   1   1  -5   45.50   31.90
  -1   1   5  103.29   26.00
   1   1  -5  111.29   15.90
  -1   1   5   97.19   11.30
  -1  -1  -5   42.60   19.40
   1  -1   5   37.50   13.30
  -1  -1  -5   43.70   11.50
   1  -1   5   37.40   18.20
   1   1   5   40.60   15.20
  -1   1  -5   41.10   20.00
   1   1   5   24.30   17.10
  -1   1  -5   44.70   10.60
  -3  -1  -5    3.20   17.70
   3  -1   5   13.60   15.20
   3  -1   5   20.00   12.40
  -3  -1  -5   14.60    8.70
   3   1   5    0.20   18.00
   3   1   5   12.20   12.80
  -3   1  -5    9.30   16.10
  -3   1  -5    2.20    6.50
   5  -1   5    4.50    9.10
   5  -1   5    1.90   13.40
  -5  -1  -5  -16.00    8.60
  -5  -1  -5   -7.10   35.10
   5   1   5   -2.60   15.80
   5   1   5    5.70   13.50
  -5   1  -5   -2.50    8.20
  -7  -1  -5   37.20   13.60
   7  -1   5  -14.20   19.10
  -7   1  -5   -0.40   11.10
   7   1   5   -8.90   18.30
 -16  -2   5   -3.70   16.40
 -16  -2   5    2.80   22.30
  16  -2  -5   38.90   49.30
 -16   2   5  -58.89   47.30
 -16   2   5  -18.00   15.00
  16   2  -5    8.20   12.50
  14  -2  -5   11.20   10.80
 -14  -2   5   53.29   36.10
  14  -2  -5   18.50   38.10
 -14   2   5   23.30   35.40
  14   2  -5   40.10   51.29
  14   2  -5   -4.70   19.70
 -14   2   5   18.00   11.50
 -12  -2   5  -12.60    9.30
  12  -2  -5   10.80   10.50
  12  -2  -5  -10.70   26.80
 -12  -2   5   21.40   28.50
  12   2  -5    7.90   29.80
 -12   2   5    0.00    9.90
 -12   2   5   37.90   28.90
  12   2  -5  -10.30    9.30
 -10  -2   5  104.89   34.60
  10  -2  -5   84.79   30.80
  10  -2  -5  121.29   20.60
 -10  -2   5  163.08   24.80
 -10   2   5  117.39   20.90
 -10   2   5   75.49   30.80
  10   2  -5   92.39   36.00
  -8  -2   5  246.98   24.10
   8  -2  -5  275.47   44.30
   8  -2  -5  259.17   23.90
  -8  -2   5  253.87   44.50
  -8   2   5  213.68   22.00
   8   2  -5  287.17   25.60
   8   2  -5  247.18   45.30
  -8   2   5  251.47   43.20
   6  -2  -5   80.29   15.70
  -6  -2   5   87.99   16.40
  -6  -2   5   35.80   22.80
   6  -2  -5   71.09   24.40
   6   2  -5  127.49   31.10
   6   2  -5   59.29   13.20
  -6   2   5   49.90   21.20
  -6   2   5  104.69   18.40
  -4  -2   5   25.70   17.90
  -4  -2   5   12.40    6.70
   4  -2  -5   17.10    8.90
   4  -2  -5    1.10   15.40
  -4   2   5    6.30    6.90
  -4   2   5   16.20   17.60
   4   2  -5   31.70   19.20
   4   2  -5   11.70    7.30
   2  -2  -5   97.69   26.00
  -2  -2   5  166.68   14.60
   2  -2  -5  147.49   16.90
  -2  -2   5  176.38   32.00
   2   2  -5  133.49   15.90
   2   2  -5  143.39   29.00
  -2   2   5  163.18   32.80
  -2   2   5  172.68   16.10
   0  -2  -5  163.08   32.00
   0  -2  -5  160.18   17.70
   0  -2   5  121.29   25.70
   0  -2   5  146.09   24.00
   0   2  -5  146.09   29.90
   0   2  -5  120.19   14.70
   0   2   5  133.79   28.80
   0   2   5  158.78   13.30
  -2  -2  -5   18.60    9.30
   2  -2   5   30.30   16.80
   2  -2   5   32.10   14.50
  -2  -2  -5   30.60   19.10
   2   2   5    2.10   16.40
  -2   2  -5   27.60    9.30
  -2   2  -5   -0.60   15.60
   2   2   5   33.60   14.80
   4  -2   5  -15.40   10.40
  -4  -2  -5  -10.30   19.10
  -4  -2  -5   20.30    9.40
   4  -2   5    2.00   12.30
   4   2   5   23.80   19.60
   4   2   5   28.30   15.40
  -4   2  -5   27.10    8.80
  -4   2  -5   20.20   13.70
   6  -2   5   25.00   19.50
  -6  -2  -5  -12.00   12.80
  -6  -2  -5   47.90   21.90
   6   2   5   13.60   18.20
  -6   2  -5   21.50   11.20
   6   2   5   36.40   21.40
  -8  -2  -5    8.20   16.60
   8  -2   5  -43.90   41.80
   8   2   5   35.40   27.20
  -8   2  -5    5.90   12.70
 -17  -3   5   52.69   65.59
  17  -3  -5   36.80   62.19
 -17  -3   5   28.10   21.20
 -17   3   5    6.60   59.29
 -17   3   5  -42.10   18.80
  15  -3  -5   72.09   45.10
 -15  -3   5   -5.80   14.00
  15  -3  -5   14.90   10.30
 -15  -3   5   -3.00   44.80
  15   3  -5  -22.10   13.00
 -15   3   5   55.59   42.30
 -15   3   5   11.30   13.80
  13  -3  -5   93.89   17.60
 -13  -3   5   18.80   34.50
 -13  -3   5   63.99   19.80
  13  -3  -5   54.39   36.70
  13   3  -5  116.49   43.60
  13   3  -5  121.89   22.80
 -13   3   5   64.89   35.40
 -13   3   5   85.49   18.90
  11  -3  -5    7.40   27.10
 -11  -3   5   15.70   11.00
  11  -3  -5   21.20   11.10
 -11  -3   5    5.70   27.60
 -11   3   5   25.20   11.00
  11   3  -5   36.10   31.10
 -11   3   5   -6.50   22.40
  11   3  -5   20.10   12.00
   9  -3  -5  326.17   28.10
  -9  -3   5  380.96   31.30
   9  -3  -5  456.55   70.49
  -9  -3   5  519.95   55.19
   9   3  -5  442.56   53.49
  -9   3   5  301.17   27.50
  -9   3   5  369.56   53.49
   7  -3  -5   79.39   16.00
  -7  -3   5   59.49   14.30
   7  -3  -5   57.59   24.30
  -7  -3   5   96.79   29.00
  -7   3   5   42.60   12.60
   7   3  -5   61.19   26.50
   7   3  -5   69.99   15.80
  -7   3   5   69.49   26.00
   5  -3  -5    6.90   15.20
   5  -3  -5   12.20    7.90
  -5  -3   5  -18.30   15.30
  -5  -3   5    1.00    5.70
  -5   3   5   31.80   20.50
  -5   3   5   -2.80    5.70
   5   3  -5   10.90    7.50
   5   3  -5   18.40   17.90
   3  -3  -5  372.46   42.50
  -3  -3   5  346.27   23.90
  -3  -3   5  366.36   40.80
   3  -3  -5  338.47   25.70
   3   3  -5  321.37   25.00
  -3   3   5  330.27   41.00
  -3   3   5  372.26   25.80
   3   3  -5  303.67   37.40
   1  -3  -5   22.40    8.80
  -1  -3   5   27.40    6.00
  -1  -3   5   16.00    8.90
   1   3  -5   38.50   18.20
  -1   3   5   19.40   17.90
   1   3  -5   36.40   10.00
  -1  -3  -5  127.69   18.90
   1  -3   5  117.79   25.20
  -1  -3  -5  137.19   30.50
   1  -3   5  163.28   26.90
  -1   3  -5  120.89   26.00
  -1   3  -5  116.69   16.30
   1   3   5  149.69   26.50
   1   3   5  163.78   31.00
  -3  -3  -5   13.40    9.40
   3  -3   5   30.20   14.20
  -3  -3  -5   18.80   20.10
   3  -3   5    5.60   12.40
  -3   3  -5   -3.50   14.10
   3   3   5   30.20   21.50
   3   3   5    8.20   12.20
  -3   3  -5    5.10    6.50
  -5  -3  -5   25.40   12.70
  -5  -3  -5   44.00   26.00
   5  -3   5   38.60   18.80
   5   3   5   44.60   22.40
  -5   3  -5   68.69   12.10
   5   3   5   12.60   17.60
   7  -3   5   12.10   21.00
  -7  -3  -5   65.39   18.50
  -7   3  -5   33.70   11.70
   7   3   5   10.90   20.40
 -16  -4   5   12.30   20.80
 -16  -4   5  -30.80   16.70
  16  -4  -5   18.90   52.69
 -16  -4   5   67.59   52.09
 -16   4   5  -88.99   46.10
 -16   4   5  -24.20   13.50
  16   4  -5    9.00   15.00
  14  -4  -5   26.60   12.00
 -14  -4   5   32.60   15.50
  14  -4  -5   45.90   40.60
 -14  -4   5   26.10   16.40
 -14  -4   5   93.79   39.80
 -14   4   5    9.70   36.90
  14   4  -5   59.79   17.20
 -14   4   5   24.70   14.90
 -12  -4   5    9.20   12.70
 -12  -4   5   18.00   28.40
  12  -4  -5   18.70   10.70
 -12   4   5    2.10   28.60
  12   4  -5   25.70   13.20
  12   4  -5  -19.10   29.90
 -12   4   5   12.50   10.40
 -10  -4   5  388.76   32.10
  10  -4  -5  331.17   28.20
 -10  -4   5  364.46   55.19
  10  -4  -5  343.67   54.29
 -10   4   5  355.66   56.09
  10   4  -5  421.56   62.59
  10   4  -5  370.16   31.30
 -10   4   5  380.46   31.20
  -8  -4   5  514.35   54.49
   8  -4  -5  503.55   51.99
  -8  -4   5  571.44   37.70
   8  -4  -5  436.56   32.60
   8   4  -5  460.35   53.09
  -8   4   5  502.95   34.80
  -8   4   5  443.96   51.49
  -6  -4   5   20.20   21.20
   6  -4  -5   24.70   19.20
   6  -4  -5   32.50   10.80
  -6  -4   5   25.30   10.90
   6   4  -5   17.90   20.20
   6   4  -5   17.40    9.60
  -6   4   5   14.80   20.00
  -6   4   5   35.70   11.10
  -4  -4   5  158.28   16.70
  -4  -4   5  216.78   37.80
   4  -4  -5  151.68   32.90
   4  -4  -5  147.89   18.30
   4   4  -5  159.68   18.80
  -4   4   5  141.39   20.70
   4   4  -5  199.28   35.80
  -4   4   5  107.99   28.40
   2  -4  -5  192.38   35.10
   2  -4  -5  210.18   20.60
  -2  -4   5  186.68   15.40
  -2  -4   5  170.18   30.80
   2   4  -5  158.38   30.40
   2   4  -5  205.18   19.60
  -2   4   5  161.38   34.00
  -2   4   5  173.98   17.90
   0  -4   5   -8.30   12.80
   0  -4  -5   12.20    7.30
   0  -4  -5   17.60   19.30
   0  -4   5    5.00    8.00
   0   4  -5    1.40    5.70
   0   4   5   -8.50   17.10
   0   4   5    5.70    5.20
   0   4  -5   14.90   17.10
  -2  -4  -5   53.19   14.70
   2  -4   5   93.99   20.80
   2  -4   5   98.09   22.40
  -2  -4  -5   40.70   22.60
  -2   4  -5   99.39   22.90
   2   4   5   96.79   28.80
  -2   4  -5   94.69   14.00
   2   4   5   66.39   21.60
  -4  -4  -5   45.10   13.30
   4  -4   5   75.59   27.10
  -4  -4  -5   55.19   24.70
   4  -4   5   52.29   10.20
   4  -4   5   36.90    9.80
  -4   4  -5   54.69   11.70
   4   4   5   76.89   28.00
   4   4   5   92.29   27.50
  -6  -4  -5  144.09   23.20
   6  -4   5   59.39   26.20
   6   4   5   76.89   25.70
  -6   4  -5   99.29   15.40
   6   4   5  107.59   46.10
  -8  -4  -5   -8.50   16.90
  -8  -4  -5   40.00   19.70
  -8   4  -5    9.20   11.80
   8   4   5   15.20   23.00
 -17  -5   5   56.29   34.60
 -17  -5   5   58.59   69.29
  17  -5  -5  -38.90   58.79
 -17  -5   5    7.50   23.50
 -17   5   5  -49.00   64.19
 -17   5   5  -13.90   19.40
  17   5  -5   -2.20   15.10
  15  -5  -5   15.40    8.50
  15  -5  -5   12.90    8.30
 -15  -5   5   -0.50   16.40
  15  -5  -5  -22.10   42.70
 -15  -5   5   24.00   20.20
 -15  -5   5    8.80   48.50
 -15  -5   5   62.79   46.40
 -15   5   5   -2.40   13.40
  15   5  -5   35.10   18.80
 -15   5   5  -14.00   43.20
  13  -5  -5   86.19   16.60
 -13  -5   5  114.09   46.60
  13  -5  -5   34.00   36.40
 -13   5   5   72.39   20.00
  13   5  -5   81.99   20.50
 -13   5   5   75.49   39.60
  11  -5  -5   58.09   14.10
 -11  -5   5   70.89   17.40
 -11  -5   5   56.09   30.00
  11  -5  -5   19.30   28.40
  11   5  -5   59.79   35.40
  11   5  -5   86.79   20.50
 -11   5   5   79.19   18.90
 -11   5   5   47.00   32.70
  -9  -5   5  505.05   36.20
   9  -5  -5  495.85   55.69
  -9  -5   5  385.06   49.70
   9  -5  -5  450.15   32.40
   9   5  -5  514.35   57.59
   9   5  -5  508.85   38.10
  -9   5   5  451.15   34.00
  -9   5   5  452.85   51.59
  -7  -5   5   79.79   16.60
   7  -5  -5   61.59   14.50
   7  -5  -5   36.60   22.40
  -7  -5   5   71.19   27.40
  -7   5   5  120.59   32.20
  -7   5   5   89.09   17.30
   7   5  -5   86.29   29.80
   7   5  -5  100.89   21.40
   5  -5  -5  206.38   37.80
  -5  -5   5  168.98   35.20
   5  -5  -5  168.18   23.40
  -5  -5   5  220.08   21.40
  -5   5   5  204.88   21.10
   5   5  -5  199.48   21.00
  -5   5   5  246.18   41.20
   5   5  -5  229.68   39.80
  -3  -5   5  231.68   18.60
   3  -5  -5  227.78   40.80
  -3  -5   5  216.28   36.10
   3  -5  -5  168.68   18.70
  -3   5   5  187.18   19.30
   3   5  -5  192.08   19.90
   3   5  -5  211.18   36.20
  -3   5   5  186.98   37.00
  -1  -5   5  -17.70   14.40
   1  -5  -5   -9.10    7.10
   1  -5  -5    3.90   17.20
  -1  -5   5   10.20    5.00
  -1  -5   5    3.60    7.40
  -1   5   5    6.70    6.60
   1   5  -5    6.90    6.80
  -1   5   5   -5.40   32.90
   1   5  -5   27.70   17.60
   1  -5   5   59.29   16.20
  -1  -5  -5   74.69   15.00
   1  -5   5   45.40   17.30
  -1  -5  -5   51.89   25.90
  -1   5  -5   56.89   12.00
   1   5   5   93.29   23.20
  -1   5  -5   73.29   20.80
   1   5   5  112.89   31.50
   3  -5   5  127.59   21.00
   3  -5   5  111.39   19.60
   3  -5   5  144.59   26.90
  -3   5  -5  161.38   16.40
   3   5   5  122.59   30.20
   3   5   5  196.08   51.99
  -5  -5  -5  144.99   35.90
  -5  -5  -5  174.08   24.90
   5  -5   5  170.88   33.30
   5   5   5  145.19   32.70
  -5   5  -5  155.18   18.10
   5   5   5  134.99   33.50
  -7  -5  -5   52.09   19.80
  -7  -5  -5   62.69   22.10
   7   5   5   28.80   24.80
  -7   5  -5   51.19   12.30
 -16  -6   5   20.50   20.10
 -16  -6   5   18.30   56.59
  16  -6  -5   35.20   53.49
 -16   6   5  -27.90   52.99
  16   6  -5   44.30   22.80
 -16   6   5   -5.80   17.60
  14  -6  -5   23.90   11.60
 -14  -6   5   20.00   42.10
 -14  -6   5   17.60   16.40
 -14  -6   5   27.40   15.40
  14  -6  -5  -34.30   37.00
  14   6  -5   26.90   17.10
 -14   6   5    2.00   39.00
  12  -6  -5  207.48   23.30
 -12  -6   5  175.08   26.90
 -12  -6   5  156.38   44.60
 -12   6   5  205.78   47.40
 -12   6   5  212.48   29.90
  12   6  -5  221.58   27.30
 -10  -6   5  280.27   28.50
 -10  -6   5  348.57   56.49
  10  -6  -5  291.07   26.90
  10  -6  -5  284.37   49.30
  10   6  -5  367.36   32.90
 -10   6   5  257.77   46.60
  10   6  -5  308.97   57.29
 -10   6   5  307.37   28.60
  -8  -6   5  530.65   36.90
  -8  -6   5  458.65   53.59
   8  -6  -5  521.15   39.40
   8  -6  -5  441.66   53.09
   8   6  -5  531.05   57.79
   8   6  -5  488.45   37.80
  -8   6   5  407.56   51.99
  -8   6   5  456.15   34.10
  -6  -6   5  358.36   51.99
   6  -6  -5  268.97   25.10
   6  -6  -5  319.47   49.00
  -6  -6   5  274.87   25.40
  -6   6   5  258.37   43.90
   6   6  -5  309.87   48.10
  -6   6   5  236.48   23.70
   6   6  -5  325.17   28.60
   4  -6  -5  375.76   29.00
  -4  -6   5  424.16   28.40
  -4  -6   5  420.56   46.30
   4  -6  -5  392.06   53.59
  -4   6   5  403.66   55.89
   4   6  -5  399.06   30.30
  -4   6   5  348.57   28.40
   4   6  -5  415.56   45.30
  -2  -6   5  141.89   17.00
   2  -6  -5  122.59   19.40
   2  -6  -5  136.29   32.60
  -2  -6   5   86.19   12.60
  -2  -6   5   81.79   38.40
   2   6  -5   96.39   16.90
   2   6  -5  120.29   29.80
  -2   6   5   56.69   24.90
  -2   6   5   97.09   15.70
   0  -6   5  120.09   27.70
   0  -6  -5  165.88   38.20
   0  -6   5  129.89   21.50
   0  -6  -5   79.69   17.20
   0   6  -5   89.39   25.40
   0   6   5  129.29   33.40
   0   6  -5  147.49   19.30
   0   6   5   79.49   13.80
  -2  -6  -5  235.18   43.70
  -2  -6  -5  276.67   27.60
   2  -6   5  259.87   30.70
   2  -6   5  238.58   28.90
   2  -6   5  266.17   31.10
  -2   6  -5  218.78   20.10
   2   6   5  298.87   41.60
   2   6   5  271.27   45.40
   4  -6   5  263.67   46.10
  -4  -6  -5  214.58   28.50
  -4   6  -5  267.17   21.30
   4   6   5  266.37   42.10
   4   6   5  213.68   45.40
  -6  -6  -5  135.59   23.90
   6  -6   5   75.79   25.70
   6   6   5  100.89   28.50
  -6   6  -5   85.69   14.80
  -8  -6  -5   15.00   21.20
   8   6   5   15.50   26.70
  -8   6  -5   16.30   11.30
  17  -7  -5   49.40   63.09
 -17  -7   5   32.40   29.20
 -17  -7   5   36.80   23.00
 -17   7   5  -31.70   65.59
  17   7  -5  -20.00   30.60
 -17   7   5    5.50   20.20
 -15  -7   5   55.79   20.80
 -15  -7   5    9.20   52.29
 -15  -7   5   58.29   23.60
  15  -7  -5   10.50   45.90
 -15   7   5   24.10   16.90
 -15   7   5   12.60   50.09
  15   7  -5   36.60   19.60
  13  -7  -5   95.69   39.30
 -13  -7   5  112.29   23.80
  13  -7  -5   98.39   17.20
 -13  -7   5  118.49   23.70
 -13  -7   5  135.49   49.99
 -13  -7   5   52.19   42.80
 -13   7   5   80.29   19.00
  13   7  -5   83.69   22.80
 -13   7   5  101.89   43.20
 -11  -7   5   59.19   35.50
 -11  -7   5  118.69   22.40
  11  -7  -5   97.79   36.60
  11  -7  -5  106.69   18.20
  11   7  -5  126.69   24.90
 -11   7   5  178.08   42.20
 -11   7   5   78.29   18.40
  -9  -7   5  458.65   57.59
  -9  -7   5  541.85   40.10
   9  -7  -5  533.15   59.19
   9   7  -5  546.35   40.60
  -9   7   5  524.85   37.80
   9   7  -5  499.35   60.09
  -9   7   5  551.34   60.59
  -7  -7   5  606.54   59.69
   7  -7  -5  659.63   61.79
   7  -7  -5  547.85   43.60
  -7  -7   5  663.73   41.70
  -7   7   5  610.84   60.59
   7   7  -5  583.14   61.39
   7   7  -5  686.93   44.20
  -7   7   5  612.94   40.20
  -5  -7   5  716.63   41.60
   5  -7  -5  802.52   65.79
  -5  -7   5  739.53   61.99
   5   7  -5  649.14   62.09
  -5   7   5  681.53   63.29
   5   7  -5  713.03   44.40
  -5   7   5  662.03   41.90
  -3  -7   5  524.45   51.69
  -3  -7   5  560.44   32.40
   3  -7  -5  535.65   54.29
  -3   7   5  548.45   56.49
   3   7  -5  544.15   36.10
  -3   7   5  581.54   36.70
   3   7  -5  724.33  106.39
   1  -7  -5  363.46   46.90
   1  -7  -5  366.06   32.40
  -1  -7   5  400.46   42.00
  -1  -7   5  357.56   19.00
  -1  -7   5  339.57   19.10
  -1  -7   5  390.16   30.00
  -1   7   5  345.17   50.89
   1   7  -5  373.76   27.50
  -1   7   5  346.07   27.50
   1  -7   5  190.38   29.70
   1  -7   5  116.79   21.70
   1  -7   5  175.48   30.30
  -1  -7  -5  157.68   22.80
  -1  -7  -5  159.68   35.70
   1   7   5  126.19   36.50
   1   7   5  142.49   26.50
  -1   7  -5  138.59   16.60
  -3  -7  -5  469.15   36.00
   3  -7   5  470.45   42.40
   3  -7   5  412.76   33.90
   3   7   5  417.06   42.60
  -3   7  -5  472.55   29.40
   3   7   5  404.36   58.39
  -5  -7  -5  212.78   50.79
   5  -7   5  181.38   33.40
  -5  -7  -5  214.58   28.90
   5   7   5  188.58   37.70
  -5   7  -5  206.48   20.10
   5   7   5  150.28   38.60
  -7  -7  -5    7.10   18.50
  -7   7  -5   34.30   12.00
   7   7   5   40.00   24.90
  16  -8  -5   11.00   55.79
 -16  -8   5   47.90   24.90
 -16  -8   5  -68.19   59.69
 -16   8   5   40.20   21.10
  16   8  -5   20.70   21.90
 -16   8   5   47.20   61.29
  14  -8  -5  106.29   15.70
 -14  -8   5   69.19   23.50
 -14  -8   5   44.20   46.10
  14  -8  -5   40.40   42.20
 -14  -8   5  -18.10   44.30
  14  -8  -5   68.89   18.20
 -14  -8   5   60.59   21.90
  14   8  -5   99.39   23.20
 -14   8   5   84.39   21.30
 -14   8   5   53.19   50.39
 -12  -8   5  215.98   32.60
  12  -8  -5  226.68   23.60
 -12  -8   5  223.98   26.90
 -12  -8   5  173.58   48.50
 -12  -8   5  205.68   53.79
 -12   8   5  195.78   47.40
 -12   8   5  248.08   28.10
  12   8  -5  251.37   30.60
  10  -8  -5  201.18   45.60
 -10  -8   5  216.38   25.30
 -10  -8   5  231.18   48.50
  10  -8  -5  194.08   30.30
 -10   8   5  184.58   43.70
 -10   8   5  182.58   27.80
  10   8  -5  190.88   28.20
  -8  -8   5  440.26   35.00
   8  -8  -5  448.26   62.49
   8  -8  -5  410.96   31.70
  -8  -8   5  298.07   51.99
  -8   8   5  407.66   33.50
  -8   8   5  433.26   61.89
   8   8  -5  370.26   33.70
  -6  -8   5  984.10   53.39
  -6  -8   5  985.20   77.69
   6  -8  -5  967.60   53.29
   6  -8  -5 1126.79   80.29
  -6   8   5  947.71   77.99
   6   8  -5  999.70   56.69
  -6   8   5 1080.49   56.59
   4  -8  -5  674.03   41.90
   4  -8  -5  710.33   63.69
  -4  -8   5  702.63   39.70
  -4  -8   5  624.04   58.29
  -4   8   5  687.03   63.99
  -4   8   5  667.83   42.20
   4   8  -5  636.24   42.10
   2  -8  -5  403.76   32.00
  -2  -8   5  345.07   43.50
   2  -8  -5  390.36   57.19
  -2  -8   5  464.35   30.70
  -2  -8   5  458.05   26.30
  -2   8   5  419.56   31.50
  -2   8   5  409.86   51.29
   2   8  -5  475.85   32.80
   0  -8   5  169.78   24.60
   0  -8   5  166.28   30.40
   0  -8  -5  182.08   22.30
   0  -8   5  171.58   32.30
   0  -8  -5  129.19   35.90
   0   8   5  182.78   39.70
   0   8  -5  178.08   19.90
   0   8   5  171.18   19.40
  -2  -8  -5  676.73   68.59
   2  -8   5  648.74   48.20
   2  -8   5  654.23   48.50
  -2  -8  -5  675.03   44.20
   2  -8   5  619.74   47.30
  -2   8  -5  668.53   37.60
   2   8   5  565.24   63.29
   2   8   5  691.73   52.59
  -4  -8  -5  243.18   32.80
   4  -8   5  266.07   42.50
   4   8   5  202.18   37.30
   4   8   5  185.98   44.90
  -4   8  -5  182.78   20.50
  -6  -8  -5  111.99   23.60
  -6   8  -5   92.19   15.80
   6   8   5  117.19   33.80
  15  -9  -5   75.19   50.69
 -15  -9   5   72.19   22.50
 -15  -9   5   65.39   54.09
 -15  -9   5   65.89   25.10
 -15   9   5   39.80   52.59
  15   9  -5    2.20   22.50
 -15   9   5   39.60   19.80
  13  -9  -5  145.59   20.10
 -13  -9   5  126.59   25.50
 -13  -9   5  164.28   54.69
  13  -9  -5  141.69   20.80
 -13  -9   5  138.59   26.30
  13  -9  -5  138.49   46.40
  13   9  -5  136.59   27.20
 -13   9   5  123.29   51.59
 -11  -9   5  168.38   50.09
 -11  -9   5  175.88   21.70
  11  -9  -5   93.39   36.10
 -11  -9   5  147.09   42.80
 -11  -9   5  161.38   42.60
 -11   9   5  154.98   24.70
 -11   9   5  150.78   45.20
  11   9  -5  169.18   28.40
  -9  -9   5  578.54   64.89
   9  -9  -5  444.46   34.10
  -9  -9   5  389.36   65.39
   9  -9  -5  554.14   63.19
  -9  -9   5  455.15   37.10
  -9   9   5  445.76   37.10
  -9   9   5  541.95   62.49
   9   9  -5  502.85   41.30
  -7  -9   5  825.92   73.39
   7  -9  -5  612.64   65.39
  -7  -9   5  801.82   71.29
  -7  -9   5  735.23   46.50
   7  -9  -5  680.53   44.20
  -7   9   5  718.53   45.50
  -7   9   5  698.13   68.59
   7   9  -5  755.72   49.20
   5  -9  -5  773.92   67.99
  -5  -9   5  689.33   64.99
   5  -9  -5  617.04   42.50
  -5  -9   5  639.94   62.39
  -5  -9   5  726.43   42.90
   5   9  -5  753.92   46.50
  -5   9   5  637.74   42.60
  -5   9   5  629.14   63.99
  -3  -9   5  365.96   26.30
   3  -9  -5  309.97   29.20
  -3  -9   5  363.46   24.80
  -3  -9   5  341.87   51.69
   3  -9  -5  297.27   51.09
  -3   9   5  326.47   28.40
   3   9  -5  399.06   30.90
  -3   9   5  336.17   54.29
  -1  -9   5  255.17   41.70
  -1  -9   5  304.67   42.80
   1  -9  -5  312.07   52.09
  -1  -9   5  317.87   18.20
  -1  -9   5  291.27   18.30
  -1  -9   5  393.46   29.30
   1  -9  -5  314.57   28.60
  -1   9   5  316.57   27.60
  -1   9   5  285.77   51.89
   1   9  -5  352.96   28.00
   1  -9   5  700.53   55.59
  -1  -9  -5  676.03   70.49
   1  -9   5  628.34   53.19
   1  -9   5  862.41   51.59
  -1  -9  -5  810.92   48.40
   1   9   5  723.83   41.20
   1   9   5  693.73   71.89
  -1   9  -5  690.63   41.10
  -3  -9  -5  329.77   32.40
   3  -9   5  339.77   32.20
   3  -9   5  297.07   34.00
   3  -9   5  284.67   32.50
  -3   9  -5  302.97   25.60
   3   9   5  343.47   38.40
  -5  -9  -5  112.59   25.10
   5   9   5  167.88   37.20
  -5   9  -5  181.88   21.30
  -7  -9  -5   66.59   27.20
  -7  -9  -5   70.19   26.60
  -7   9  -5  101.79   16.30
 -16 -10   5   50.79   70.99
 -16 -10   5   96.89   29.20
  16 -10  -5   80.29   66.59
 -16  10   5   22.60   23.30
  16  10  -5   80.89   27.40
 -16  10   5  -51.99   62.19
 -14 -10   5   52.99   53.29
 -14 -10   5  106.69   25.70
  14 -10  -5   52.09   13.00
 -14 -10   5   24.40   55.19
  14 -10  -5   58.29   21.10
  14 -10  -5   34.70   46.40
 -14 -10   5  112.19   22.60
 -14  10   5  100.19   22.30
  14  10  -5   94.99   27.60
 -14  10   5   84.89   55.19
 -12 -10   5  262.97   61.49
 -12 -10   5  267.87   28.50
 -12 -10   5  268.37   32.00
 -12 -10   5  300.27   64.59
  12 -10  -5  265.37   28.70
  12 -10  -5  281.17   27.10
  12 -10  -5  194.88   59.59
  12  10  -5  176.58   33.10
 -12  10   5  275.17   56.89
  10 -10  -5  156.48   22.70
  10 -10  -5  176.88   44.80
 -10 -10   5  198.78   20.00
 -10 -10   5  183.18   49.50
 -10 -10   5  133.99   46.90
 -10 -10   5  155.18   26.20
 -10  10   5  188.78   27.90
 -10  10   5  164.28   44.50
  10  10  -5  197.68   32.10
  -8 -10   5  463.45   38.00
  -8 -10   5  494.75   70.89
   8 -10  -5  486.55   67.79
  -8 -10   5  536.85   64.59
   8 -10  -5  495.05   37.00
  -8  10   5  513.75   38.60
   8  10  -5  557.24   42.00
  -8  10   5  379.76   60.79
   6 -10  -5 1144.49   85.09
  -6 -10   5 1164.18   87.69
   6 -10  -5 1049.09   58.59
  -6 -10   5 1031.70   84.39
  -6 -10   5 1112.39   58.79
  -6  10   5 1094.69   59.69
  -6  10   5  972.90   81.89
   6  10  -5 1121.49   62.59
  -4 -10   5  804.02   68.39
  -4 -10   5  742.73   35.70
  -4 -10   5  839.82   70.09
   4 -10  -5  696.03   45.20
  -4 -10   5  758.42   43.30
   4 -10  -5  633.04   66.19
   4  10  -5  723.63   46.30
  -4  10   5  674.83   67.79
  -4  10   5  772.72   47.50
  -2 -10   5  134.69   16.30
  -2 -10   5  106.89   18.50
  -2 -10   5   64.19   12.50
  -2 -10   5   86.99   27.80
   2 -10  -5  113.09   38.60
   2 -10  -5  132.49   22.70
  -2 -10   5  131.49   34.50
  -2  10   5   95.79   19.40
   0 -10   5 1171.08   77.69
   0 -10   5 1341.27   81.99
   0 -10   5 1367.06   66.29
   0 -10  -5 1089.79   91.79
   0 -10  -5 1272.57   66.89
   0  10   5 1298.07   62.79
   0  10  -5 1329.27   63.09
   0  10   5 1239.38   94.99
  -2 -10  -5  514.05   72.89
   2 -10   5  428.16   45.50
  -2 -10  -5  621.44   44.40
   2 -10   5  582.44   48.60
   2 -10   5  546.05   44.10
  -2  10  -5  582.94   37.00
   2  10   5  600.24   55.69
   2  10   5  561.44   70.29
  -4 -10  -5  169.58   28.40
   4 -10   5  148.19   18.20
  -4 -10  -5  174.48   50.99
   4  10   5   60.69   40.90
   4  10   5   99.19   26.40
  -4  10  -5  137.79   20.90
  -6 -10  -5  127.59   31.20
  -6 -10  -5  133.09   28.70
  -6  10  -5  142.29   21.40
   6  10   5  158.08   36.60
 -15 -11   5  178.58   75.29
 -15 -11   5   75.79   23.90
  15 -11  -5  169.08   62.79
 -15 -11   5   51.99   25.20
 -15  11   5  104.39   69.19
 -15  11   5   39.80   20.10
  13 -11  -5   95.89   47.50
 -13 -11   5  115.79   56.99
  13 -11  -5   94.49   17.60
  13 -11  -5   87.59   16.30
 -13 -11   5   79.89   24.40
 -13 -11   5  122.59   22.50
 -13  11   5  132.49   25.50
  13  11  -5   74.39   24.50
 -13  11   5  145.29   51.29
 -11 -11   5  357.06   65.09
 -11 -11   5  408.16   73.29
  11 -11  -5  349.57   33.10
  11 -11  -5  328.87   60.79
 -11 -11   5  421.56   38.20
 -11 -11   5  379.26   28.50
  11 -11  -5  375.96   31.20
 -11  11   5  354.76   39.50
 -11  11   5  333.87   61.49
  11  11  -5  355.36   40.60
  -9 -11   5  376.86   63.79
  -9 -11   5  316.47   21.30
  -9 -11   5  364.56   66.69
   9 -11  -5  313.07   67.49
   9 -11  -5  300.47   29.10
  -9 -11   5  339.27   32.30
   9  11  -5  335.77   34.90
  -9  11   5  250.27   51.99
  -9  11   5  301.47   31.40
  -7 -11   5  976.30   57.49
  -7 -11   5  898.21   83.39
   7 -11  -5 1134.89   58.99
   7 -11  -5  987.00   83.69
  -7 -11   5 1080.89   87.99
   7  11  -5 1052.39   61.89
  -7  11   5  960.30   57.39
  -7  11   5  983.40   85.89
  -5 -11   5  687.13   67.99
  -5 -11   5  752.32   85.19
  -5 -11   5  848.92   48.20
   5 -11  -5  760.42   74.19
   5 -11  -5  787.22   49.40
  -5 -11   5  792.62   33.30
  -5  11   5  710.53   73.69
   5  11  -5  785.42   50.49
  -5  11   5  820.42   49.99
  -3 -11   5  338.37   26.50
  -3 -11   5  404.66   52.29
   3 -11  -5  304.27   55.79
  -3 -11   5  324.27   26.60
  -3 -11   5  357.76   24.30
   3 -11  -5  366.96   32.20
   3  11  -5  376.86   33.20
  -3  11   5  401.96   33.70
  -3  11   5  349.77   58.89
  -1 -11   5 1388.76   54.19
  -1 -11   5 1426.36   65.69
  -1 -11   5 1401.36   89.69
  -1 -11   5 1323.17   53.09
   1 -11  -5 1320.37   70.29
   1 -11  -5 1510.35  103.09
  -1 -11   5 1359.76   87.69
   1  11  -5 1405.06   91.59
  -1  11   5 1298.87  100.69
  -1  11   5 1386.06   68.39
  -1 -11  -5  762.22   80.19
  -1 -11  -5  860.11   53.39
   1 -11   5  850.61   52.99
   1 -11   5  863.91   65.09
   1 -11   5  728.73   60.49
  -1  11  -5  851.21   48.30
   1  11   5  752.72   79.99
   3 -11   5  192.38   31.10
  -3 -11  -5  225.18   32.40
  -3 -11  -5  262.07   58.59
  -3 -11  -5  285.77   44.00
   3 -11   5  202.18   31.70
   3  11   5  241.68   57.69
  -3  11  -5  238.28   26.40
   3  11   5  263.87   38.70
  -5 -11  -5  137.29   30.30
  -5 -11  -5  174.48   33.40
  -5  11  -5  141.19   21.90
   5  11   5  104.29   30.70
  -7 -11  -5  162.08   36.60
  -7  11  -5  136.59   21.30
   7  11   5  126.69   37.40
 -16 -12   5   80.39   31.60
 -16 -12   5   87.69   29.00
  16 -12  -5   12.10   71.79
 -16  12   5   68.89   27.90
  14 -12  -5   99.39   14.20
 -14 -12   5   94.29   22.60
 -14 -12   5   94.59   28.40
 -14 -12   5   33.20   63.39
  14 -12  -5   88.99   14.70
 -14 -12   5  125.69   66.89
 -14  12   5  143.99   28.40
 -14  12   5   10.20   55.49
 -12 -12   5  219.68   60.79
  12 -12  -5  138.79   50.49
 -12 -12   5  192.08   32.00
 -12 -12   5  228.58   24.20
 -12 -12   5  242.08   66.99
  12 -12  -5  222.68   27.40
 -12  12   5  202.38   30.90
 -12  12   5  236.18   62.89
 -10 -12   5  347.37   65.59
 -10 -12   5  326.87   66.49
  10 -12  -5  405.26   35.90
 -10 -12   5  455.05   26.70
 -10 -12   5  477.75   41.40
  10 -12  -5  394.76   64.99
  10 -12  -5  409.16   33.50
  10  12  -5  514.65   44.30
 -10  12   5  376.66   67.39
 -10  12   5  381.96   57.79
   8 -12  -5  495.15   70.19
  -8 -12   5  448.46   19.70
  -8 -12   5  479.45   69.69
  -8 -12   5  439.36   74.19
   8 -12  -5  404.76   35.40
  -8 -12   5  480.45   39.60
   8  12  -5  370.56   39.10
  -8  12   5  474.65   69.79
  -8  12   5  419.86   36.80
  -6 -12   5  907.11   85.89
  -6 -12   5  953.80   85.59
  -6 -12   5 1024.80   57.59
   6 -12  -5 1063.09   59.09
   6 -12  -5 1014.20   88.69
  -6  12   5 1128.39   91.39
   6  12  -5 1019.50   61.09
  -6  12   5  925.01   57.29
  -4 -12   5  429.86   55.19
  -4 -12   5  377.56   21.00
   4 -12  -5  356.76   33.90
  -4 -12   5  415.66   31.70
  -4 -12   5  324.67   55.59
   4 -12  -5  406.66   64.39
  -4  12   5  416.66   35.50
  -4  12   5  369.86   60.09
   4  12  -5  407.96   36.40
  -2 -12   5 1556.04   99.59
  -2 -12   5 1498.15   64.49
  -2 -12   5 1555.54   64.89
  -2 -12   5 1564.84   65.79
  -2 -12   5 1538.25   99.09
   2 -12  -5 1526.35   77.19
   2 -12  -5 1370.56  106.09
   2  12  -5 1432.96   73.79
  -2  12   5 1514.15  110.69
  -2  12   5 1553.84   76.39
   0 -12   5  788.72   67.19
   0 -12  -5  658.03   78.39
   0 -12  -5  888.31   54.79
   0 -12   5  669.03   64.39
   0  12   5  859.81   50.49
   0  12   5  838.72   84.49
   0  12  -5  898.81   51.19
  -2 -12  -5  375.26   40.60
   2 -12   5  366.46   46.20
   2 -12   5  343.47   45.90
  -2 -12  -5  385.16   37.70
   2  12   5  274.77   57.89
   2  12   5  407.66   42.30
  -4 -12  -5  184.78   36.20
  -4 -12  -5  205.58   37.10
   4 -12   5  203.78   25.70
   4 -12   5  231.38   29.50
  -4  12  -5  238.48   28.10
   4  12   5  209.08   37.50
  -6 -12  -5   53.99   26.20
  -6 -12  -5  124.99   33.20
  -6  12  -5  137.19   23.70
   6  12   5   76.89   31.70
  15 -13  -5  134.49   70.69
 -15 -13   5  119.09   82.49
 -15 -13   5   81.69   25.60
 -15  13   5  127.79   75.79
  15  13  -5  131.19   37.10
 -15  13   5  119.79   29.30
  13 -13  -5   34.50   49.99
 -13 -13   5  106.19   65.29
 -13 -13   5  166.08   23.80
  13 -13  -5  148.79   21.70
 -13 -13   5  161.18   32.00
  13 -13  -5  190.58   23.40
 -13  13   5  181.58   64.59
 -13  13   5   89.39   25.10
  11 -13  -5  289.17   31.60
 -11 -13   5  273.87   22.00
 -11 -13   5  297.47   41.00
 -11 -13   5  313.07   67.99
  11 -13  -5  281.17   29.70
  11 -13  -5  246.28   57.99
 -11 -13   5  127.19   55.99
 -11  13   5  355.26   36.10
 -11  13   5  222.58   62.79
   9 -13  -5  353.66   35.00
   9 -13  -5  353.96   32.50
  -9 -13   5  364.26   35.80
  -9 -13   5  343.17   65.99
  -9 -13   5  378.96   67.29
   9 -13  -5  247.58   64.79
   9  13  -5  327.87   39.60
  -9  13   5  352.06   63.99
   7 -13  -5  437.76   66.09
   7 -13  -5  500.65   42.70
  -7 -13   5  600.34   75.39
   7 -13  -5  483.45   38.70
  -7 -13   5  514.55   40.80
  -7 -13   5  471.65   83.89
  -7  13   5  532.05   41.30
  -7  13   5  537.05   68.69
  -5 -13   5  422.86   35.00
  -5 -13   5  531.55   70.69
   5 -13  -5  437.66   70.09
   5 -13  -5  353.36   34.80
  -5 -13   5  490.75   62.69
  -5  13   5  432.56   36.90
  -5  13   5  405.26   68.09
   5  13  -5  401.46   37.70
  -3 -13   5 1270.67   60.79
  -3 -13   5 1224.58   93.29
  -3 -13   5 1105.39   90.19
   3 -13  -5 1308.47   73.69
  -3 -13   5 1277.87   60.39
  -3  13   5 1228.48   67.99
  -3  13   5 1449.06  106.99
   3  13  -5 1226.98   68.39
   1 -13  -5 1056.89   94.49
  -1 -13   5  958.40   77.69
   1 -13  -5  874.41   56.89
   1 -13  -5 1026.90   92.99
  -1 -13   5  912.81   41.10
  -1 -13   5 1026.80   42.60
  -1 -13   5  835.02   74.89
  -1  13   5  879.51   90.09
  -1  13   5  993.80   56.99
   1  13  -5  831.42   53.79
   1 -13   5  420.06   56.59
  -1 -13  -5  283.57   62.29
  -1 -13  -5  419.86   36.90
   1 -13   5  402.86   52.19
  -1 -13  -5  380.46   41.00
  -1  13  -5  371.16   34.20
   1  13   5  316.37   62.19
   3 -13   5  226.88   38.30
  -3 -13  -5  221.08   37.30
   3 -13   5  207.58   36.80
  -3 -13  -5  263.87   66.19
  -3  13  -5  247.68   31.70
   3  13   5  239.98   39.70
   3  13   5  279.57   62.09
  -5 -13  -5  159.38   36.90
  -5 -13  -5   99.69   30.00
   5  13   5  193.18   40.10
 -14 -14   5   22.90   70.49
  14 -14  -5   96.19   12.60
 -14 -14   5   55.49   23.70
  14 -14  -5  187.68   67.09
 -14 -14   5  106.29   23.90
  14 -14  -5   77.79   13.20
  14  14  -5  112.19   34.30
 -14  14   5  118.19   28.40
 -14  14   5   85.29   68.79
  12 -14  -5  136.99   23.90
 -12 -14   5  295.97   74.69
 -12 -14   5  194.78   21.40
  12 -14  -5   61.49   54.29
  12 -14  -5  163.68   24.10
 -12 -14   5  241.88   38.20
 -12 -14   5  143.39   63.29
  12  14  -5  275.87   41.20
 -12  14   5  192.18   32.70
 -12  14   5   89.69   51.49
 -10 -14   5  318.87   69.59
  10 -14  -5  358.66   33.70
 -10 -14   5  390.46   76.99
  10 -14  -5  337.47   63.99
 -10 -14   5  406.66   41.60
  10 -14  -5  351.06   35.30
 -10  14   5  412.76   38.40
 -10  14   5  337.07   67.59
  -8 -14   5  506.95   94.99
  -8 -14   5  410.86   44.20
  -8 -14   5  426.36   72.59
   8 -14  -5  480.25   74.09
   8 -14  -5  451.05   41.20
   8 -14  -5  445.56   36.90
  -8  14   5  372.26   37.60
  -8  14   5  515.45   77.29
   6 -14  -5  191.68   52.09
   6 -14  -5  231.98   28.90
  -6 -14   5  272.87   55.09
   6 -14  -5  285.17   34.90
  -6 -14   5  289.07   60.59
  -6 -14   5  320.37   32.60
  -6  14   5  376.06   66.89
   6  14  -5  270.57   37.90
  -4 -14   5 1271.27   97.79
  -4 -14   5 1258.07   63.39
  -4 -14   5 1168.48   62.09
   4 -14  -5 1354.26   71.49
   4 -14  -5 1187.38   73.39
  -4 -14   5 1248.98  100.49
   4 -14  -5 1309.57  107.79
  -4  14   5 1420.46  109.69
   4  14  -5 1232.58   70.39
  -4  14   5 1172.58   68.49
   2 -14  -5 1098.19   67.49
  -2 -14   5 1062.99   51.19
  -2 -14   5 1040.10   87.09
   2 -14  -5 1060.29   97.99
  -2 -14   5  985.30   50.09
  -2 -14   5 1034.20   87.29
  -2  14   5  843.32   91.29
  -2  14   5 1059.89   61.59
   2  14  -5  982.60   60.89
   0 -14  -5  736.23   86.59
   0 -14   5  739.73   72.99
   0 -14  -5  687.93   51.59
   0 -14   5  591.74   82.99
   0 -14  -5  731.03   55.09
   0  14   5  719.33   86.09
   0  14  -5  633.64   46.10
   0  14   5  635.54   45.90
   2 -14   5  258.67   43.70
  -2 -14  -5  293.27   43.00
  -2 -14  -5  210.78   60.79
   2 -14   5  222.98   42.30
   2  14   5  181.58   60.89
   2  14   5  289.37   42.70
  -2  14  -5  250.97   33.40
  -4 -14  -5  337.87   44.30
   4 -14   5  297.97   37.70
  -4 -14  -5  366.26   44.50
   4  14   5  259.17   43.80
  -4  14  -5  311.37   37.00
  -6 -14  -5  155.38   40.70
  -6  14  -5  153.18   27.10
 -13 -15   5  145.99   76.69
  13 -15  -5  105.59   20.80
  13 -15  -5   67.29   62.29
  13 -15  -5  122.89   19.90
 -13 -15   5  144.09   30.70
 -13 -15   5  117.39   73.79
 -13  15   5  135.19   28.70
  13  15  -5  177.28   38.10
 -13  15   5  117.09   63.49
 -11 -15   5  431.96   85.19
 -11 -15   5  411.26   42.40
  11 -15  -5  450.55   76.69
  11 -15  -5  375.76   37.70
 -11 -15   5  310.97   78.49
  11 -15  -5  417.56   35.90
 -11  15   5  289.97   68.19
 -11  15   5  417.46   41.50
  11  15  -5  495.15   51.19
   9 -15  -5  378.86   35.80
  -9 -15   5  288.27   67.99
   9 -15  -5  352.46   36.50
  -9 -15   5  483.05   93.09
  -9 -15   5  363.36   39.30
   9 -15  -5  353.46   65.09
  -9  15   5  427.46   40.80
  -7 -15   5  214.48   56.69
   7 -15  -5  351.56   38.30
   7 -15  -5  377.86   35.00
  -7 -15   5  247.28   61.19
   7 -15  -5  366.66   71.49
  -7  15   5  381.76   66.79
  -7  15   5  332.67   36.70
  -5 -15   5 1053.19   58.69
   5 -15  -5  955.00   98.19
  -5 -15   5  892.11   88.09
   5 -15  -5 1056.39   61.79
  -5 -15   5  962.30   94.09
  -5 -15   5  906.71   55.59
   5  15  -5  946.01   63.39
  -5  15   5 1009.40   62.19
  -5  15   5  935.81   95.89
   3 -15  -5 1251.37   77.59
  -3 -15   5 1344.67   65.19
  -3 -15   5 1342.87   65.19
  -3 -15   5 1364.56  104.19
   3 -15  -5 1396.76  112.49
  -3 -15   5 1431.76  103.89
  -3  15   5 1360.26  111.29
   3  15  -5 1337.47   75.39
  -3  15   5 1166.98   80.09
   1 -15  -5  901.71   98.99
  -1 -15   5  918.71   43.20
  -1 -15   5  945.61   86.29
   1 -15  -5  887.91   59.49
   1 -15  -5  954.40   66.89
  -1  15   5  869.91   96.59
  -1  15   5  983.70   67.59
   1  15  -5 1033.30   61.39
   1 -15   5  492.55   61.89
   1 -15   5  455.85   62.09
  -1 -15  -5  439.26   45.90
  -1 -15  -5  411.16   43.30
  -1  15  -5  476.95   41.80
   1  15   5  314.97   69.69
  -3 -15  -5  339.87   48.70
  -3 -15  -5  450.75   46.80
   3 -15   5  386.76   53.19
  -3  15  -5  365.96   39.10
   3  15   5  316.77   46.00
  -5 -15  -5  227.28   43.10
  -5  15  -5  258.07   34.10
   5  15   5  260.07   48.30
  14 -16  -5   94.39   87.29
 -14 -16   5  165.48   93.69
 -14 -16   5   82.49   31.90
 -14  16   5   91.79   29.30
 -12 -16   5  207.68   75.19
  12 -16  -5  192.58   27.80
  12 -16  -5  174.88   25.40
 -12 -16   5  231.08   39.00
  12 -16  -5  208.98   69.69
  12  16  -5  194.78   40.00
 -12  16   5  195.88   34.50
 -12  16   5  125.19   63.59
 -10 -16   5  580.14   95.99
  10 -16  -5  378.66   38.80
 -10 -16   5  408.36   45.30
 -10 -16   5  302.77   82.49
  10 -16  -5  324.07   72.39
  10 -16  -5  396.76   36.90
 -10  16   5  445.16   40.90
 -10  16   5  188.78   65.59
  10  16  -5  291.17   43.50
  -8 -16   5  258.07   68.29
  -8 -16   5  315.67   37.40
   8 -16  -5  343.27   41.70
   8 -16  -5  367.86   35.50
  -8 -16   5  423.86   79.99
   8 -16  -5  467.65   76.59
  -8  16   5  349.47   37.60
  -8  16   5  348.97   71.59
  -6 -16   5  891.21   94.79
   6 -16  -5  706.93   87.29
  -6 -16   5  702.53   49.40
   6 -16  -5  729.93   56.89
   6 -16  -5  798.02   61.79
  -6 -16   5  750.62   51.89
  -6 -16   5  689.13   84.99
  -6  16   5  681.23   94.59
   6  16  -5  676.63   56.39
  -6  16   5  828.32   57.29
  -4 -16   5 1284.27   66.79
  -4 -16   5 1225.28  106.29
   4 -16  -5 1263.47   77.39
  -4 -16   5 1189.28  104.39
  -4 -16   5 1210.68   65.69
  -4  16   5 1278.17  114.39
   4  16  -5 1301.07   76.39
  -4  16   5 1352.66   76.19
   2 -16  -5 1332.47   80.29
  -2 -16   5 1293.27   60.99
  -2 -16   5 1301.57   60.89
  -2 -16   5 1194.38  102.69
  -2  16   5 1321.87   74.19
  -2  16   5 1188.48  111.09
   2  16  -5 1208.08   73.19
   0 -16   5  566.94   71.29
   0 -16  -5  580.94   49.90
   0 -16  -5  558.84   52.99
   0 -16  -5  681.83   96.89
   0 -16   5  558.04   75.19
   0  16   5  582.24   90.19
   0  16  -5  507.75   45.70
   0  16   5  610.04   47.10
  -2 -16  -5  453.85   47.60
  -2 -16  -5  408.56   47.70
  -2 -16  -5  349.37   81.29
   2 -16   5  311.07   54.99
  -2  16  -5  358.96   39.40
   2  16   5  357.66   42.80
   2  16   5  277.17   74.49
   4 -16   5  366.66   48.70
  -4 -16  -5  357.46   53.09
   4  16   5  251.07   42.90
  -4  16  -5  308.47   39.30
 -13 -17   5  157.18   91.89
  13 -17  -5  194.08   28.20
  13 -17  -5  283.17   78.79
  13 -17  -5  196.48   25.90
 -13 -17   5  244.38   43.80
 -13  17   5  208.98   36.50
 -13  17   5  145.99   85.89
 -11 -17   5  206.18   76.89
 -11 -17   5  307.37   47.80
  11 -17  -5  206.88   30.80
 -11 -17   5  232.18   82.39
  11 -17  -5  263.37   71.99
  11 -17  -5  221.08   29.30
 -11  17   5  276.57   39.80
 -11  17   5  240.48   77.59
  -9 -17   5  339.17   38.80
  -9 -17   5  395.06   81.19
  -9 -17   5  326.87   46.20
   9 -17  -5  170.68   60.99
  -9 -17   5  198.88   71.39
   9 -17  -5  315.37   37.10
  -9  17   5  340.07   76.89
  -9  17   5  338.77   39.00
   9  17  -5  359.86   51.39
  -7 -17   5  544.95   88.59
  -7 -17   5  499.95   87.79
  -7 -17   5  435.06   41.80
   7 -17  -5  609.54   49.99
   7 -17  -5  572.54   89.19
  -7  17   5  475.65   83.29
  -7  17   5  491.05   44.50
  -5 -17   5  699.73   88.39
   5 -17  -5  783.32   59.29
  -5 -17   5  723.33   50.49
  -5 -17   5  556.64   88.09
   5 -17  -5  794.82   96.09
  -5 -17   5  736.43   50.49
  -5  17   5  747.83   55.99
   5  17  -5  609.04   63.89
  -5  17   5  714.43   91.19
   3 -17  -5 1189.88  114.59
  -3 -17   5 1032.50  100.49
  -3 -17   5 1065.79   59.09
   3 -17  -5 1126.19   72.39
  -3 -17   5 1152.08   60.39
  -3  17   5  965.70  107.99
   3  17  -5 1108.19   72.19
  -3  17   5 1101.59   67.89
  -1 -17   5  560.54   77.29
  -1 -17   5  741.13   38.00
   1 -17  -5  591.54   94.29
   1 -17  -5  696.33   56.79
   1 -17  -5  710.93   55.49
  -1 -17   5  672.63   38.70
  -1 -17   5  701.63   83.79
   1  17  -5  651.83   54.39
  -1  17   5  736.63  106.49
  -1  17   5  771.52   54.69
  -1 -17  -5  351.16   82.19
  -1 -17  -5  371.56   45.50
   1 -17   5  324.77   61.29
  -1  17  -5  370.66   41.90
   1  17   5  501.15   90.29
   3 -17   5  460.75   64.29
  -3 -17  -5  353.36   51.69
   3  17   5  290.17   45.90
  -3  17  -5  463.05   48.20
  12 -18  -5  200.88   29.40
 -12 -18   5  242.58   90.19
 -12 -18   5  175.18   92.99
  12 -18  -5  211.68   31.00
  12 -18  -5  237.38   90.79
 -12  18   5  375.26   43.60
 -12  18   5   90.89   77.79
 -10 -18   5  183.58   34.50
  10 -18  -5  316.07   76.89
  10 -18  -5  213.28   32.80
 -10 -18   5  145.49   77.29
 -10 -18   5   48.70   67.99
 -10  18   5  261.97   38.80
 -10  18   5  301.87   77.29
   8 -18  -5  361.86   42.40
  -8 -18   5  506.05   92.79
  -8 -18   5  354.26   76.29
   8 -18  -5  512.15   84.29
  -8 -18   5  308.97   37.70
  -8 -18   5  476.35   46.60
  -8  18   5  253.57   71.29
   8  18  -5  429.86   55.19
  -8  18   5  401.36   43.20
   6 -18  -5  489.25   48.90
  -6 -18   5  717.13  102.09
  -6 -18   5  497.65   86.09
  -6 -18   5  511.25   44.20
   6 -18  -5  740.93  104.49
  -6  18   5  539.05   87.09
   6  18  -5  541.05   54.49
  -6  18   5  555.24   49.80
   4 -18  -5  595.44   53.79
   4 -18  -5  739.23  103.49
  -4 -18   5  764.92   95.39
   4 -18  -5  651.73   53.59
  -4 -18   5  621.74   46.30
  -4 -18   5  607.64   46.10
  -4  18   5  726.13  102.99
  -4  18   5  726.43   55.99
   4  18  -5  630.74   57.29
   2 -18  -5  500.85   88.09
   2 -18  -5  621.34   52.89
   2 -18  -5  617.04   55.39
  -2 -18   5  582.44   39.30
  -2 -18   5  557.74   45.20
  -2 -18   5  441.86   70.69
  -2 -18   5  411.26   74.49
  -2  18   5  426.16   85.99
  -2  18   5  611.64   50.79
   2  18  -5  602.24   58.79
   0 -18   5  528.85   77.19
   0 -18  -5  430.96   50.09
   0  18  -5  400.46   45.90
  -2 -18  -5  364.86   52.59
   2 -18   5  302.17   61.49
  -2  18  -5  372.56   46.70
   2  18   5  513.25   51.69
  11 -19  -5  409.66   90.19
  11 -19  -5  226.28   31.80
  11 -19  -5  206.78   32.40
 -11 -19   5  258.47   92.19
 -11  19   5  257.77   43.00
 -11  19   5  120.59   78.99
   9 -19  -5  296.77   41.00
   9 -19  -5  148.89   72.69
  -9 -19   5  325.37   45.80
  -9 -19   5  325.57   87.79
  -9 -19   5  341.17   92.29
  -9  19   5  231.38   78.89
  -9  19   5  325.97   46.60
   7 -19  -5  457.55   45.40
  -7 -19   5  465.45   47.80
   7 -19  -5  727.63  107.99
   7 -19  -5  479.25   47.60
  -7 -19   5  373.66   85.69
  -7 -19   5  608.04  101.39
  -7 -19   5  447.66   45.20
  -7  19   5  478.95   49.10
  -7  19   5  306.47   77.59
  -5 -19   5  578.14   46.20
   5 -19  -5  550.24   50.39
   5 -19  -5  527.15   50.29
  -5 -19   5  560.54   94.29
  -5 -19   5  316.07   76.99
  -5  19   5  516.85   49.00
  -5  19   5  448.76   91.49
   5  19  -5  506.75   53.29
  -3 -19   5  338.77   35.80
  -3 -19   5  397.16   36.30
  -3 -19   5  445.26   78.69
   3 -19  -5  336.17   82.19
   3 -19  -5  421.66   50.29
  -3 -19   5  438.56   79.79
   3 -19  -5  399.86   47.20
  -3  19   5  362.26   82.19
  -3  19   5  442.46   46.60
   3  19  -5  512.55   52.49
   1 -19  -5  322.27   98.39
   1 -19  -5  413.46   48.10
  -1 -19   5  373.36   29.70
  -1 -19   5  386.46   75.69
  -1 -19   5  421.26   29.80
  -1  19   5  542.75   48.30
   1  19  -5  316.17   45.60
  -1  19   5  438.86   90.59
  -1 -19  -5  463.95   56.59
   1 -19   5  641.34   88.59
  -1  19  -5  531.55   62.29
   1  19   5  579.24  163.58
   1  19   5  522.55   52.59
  -3 -19  -5  248.88   47.60
   3 -19   5  229.58   61.89
  -3  19  -5  332.57   65.79
   3  19   5  211.48   41.70
 -10 -20   5  247.98  100.49
  10 -20  -5  375.96   43.50
 -10 -20   5  433.26   99.39
 -10 -20   5  258.17   50.59
 -10  20   5  347.37  101.09
 -10  20   5  252.77   40.60
  -8 -20   5  493.15  105.39
   8 -20  -5  385.96   46.80
   8 -20  -5  341.17   88.09
  -8 -20   5  387.86   95.09
  -8 -20   5  461.65   46.50
   8 -20  -5  363.06   45.60
  -8  20   5  429.66   49.40
  -8  20   5  552.34  101.19
   6 -20  -5  517.65   49.90
   6 -20  -5  432.56   90.59
   6 -20  -5  490.15   52.29
  -6 -20   5  442.26   46.90
  -6 -20   5  524.65   97.79
  -6 -20   5  545.55  100.19
  -6 -20   5  492.65   45.30
  -6  20   5  413.46   46.80
  -6  20   5  465.65   95.19
  -4 -20   5  463.55   83.99
   4 -20  -5  440.76   49.00
  -4 -20   5  542.85  146.19
   4 -20  -5  545.05  104.79
  -4 -20   5  391.26   42.10
  -4 -20   5  461.35   47.60
  -4  20   5  548.25   52.59
  -4  20   5  293.47   84.79
  -2 -20   5  298.07   31.60
   2 -20  -5  191.28   83.39
  -2 -20   5  248.18   73.89
  -2 -20   5  282.87   31.00
   2 -20  -5  249.48   42.50
  -2  20   5  297.97   44.70
   2  20  -5  313.67   47.20
  -2  20   5  205.98   81.29
   0 -20   5  551.64   89.99
   0 -20  -5  472.25   52.79
   0 -20  -5  403.46   96.39
   0  20   5  531.65  104.09
   0  20  -5  474.65   54.09
   2 -20   5  314.27   85.79
  -2 -20  -5  238.98   47.10
  -2  20  -5  304.87   48.60
   2  20   5  331.67   49.00
  -9 -21   5  299.97   45.00
   9 -21  -5  421.96   47.00
  -9 -21   5  136.69   92.89
   9 -21  -5  411.26   48.50
  -9 -21   5  494.95  118.19
   9 -21  -5  302.77   93.19
  -9  21   5  326.07  101.09
  -7 -21   5  412.16   98.89
  -7 -21   5  270.67   95.09
   7 -21  -5  440.66   51.89
  -7 -21   5  458.45   48.90
   7 -21  -5  266.47   90.69
   7 -21  -5  484.55   58.19
  -7  21   5  510.35   99.09
  -7  21   5  305.37   49.40
   5 -21  -5  331.87   49.20
  -5 -21   5  432.06   96.49
  -5 -21   5  395.56   45.00
   5 -21  -5  348.77   96.19
  -5 -21   5  408.76   42.20
  -5  21   5  230.78   81.79
  -5  21   5  459.45   50.19
   3 -21  -5  314.37   49.20
  -3 -21   5  385.06   38.10
  -3 -21   5  311.17   79.79
   3 -21  -5  333.47   92.69
  -3 -21   5  405.66   39.40
  -3  21   5  354.36   91.79
  -3  21   5  389.06   45.40
  -1 -21   5  371.76   82.39
   1 -21  -5  473.45  105.39
  -1 -21   5  422.76   32.90
  -1 -21   5  466.35   32.90
  -1  21   5  417.56  100.19
  -1  21   5  464.15   50.59
  -1 -21  -5  298.87   49.10
   1 -21   5  141.29  111.49
   1  21   5  240.78   41.40
   8 -22  -5  183.28   98.29
  -8 -22   5  528.45  111.19
   8 -22  -5  315.67   46.30
  -8 -22   5  231.58  106.89
  -8 -22   5  290.07   47.10
  -8  22   5  477.45   56.39
  -8  22   5  170.78   99.39
  -6 -22   5  382.46   46.50
   6 -22  -5  372.56   53.39
  -6 -22   5  458.25  108.79
  -6  22   5  237.18   90.89
  -4 -22   5  256.87   91.99
   4 -22  -5  341.37   48.90
   4 -22  -5  325.17   99.49
  -4 -22   5  305.47   37.80
  -4  22   5  224.68   86.39
  -2 -22   5  406.66   42.10
  -2 -22   5  492.55   40.00
   2 -22  -5  483.35   65.79
  -2  22   5  532.85   64.59
  -2  22   5  382.36  109.69
   5 -23  -5  264.17  108.59
  -5 -23   5  151.18  116.29
  -5 -23   5  254.87   38.60
  -5 -23   5  317.07   54.19
  -5  23   5   98.49   91.29
  -5  23   5  201.58   40.40
   3 -23  -5  314.57   52.49
   3 -23  -5  395.56  113.89
  -3 -23   5  278.17   37.70
  -3  23   5  251.17   97.39
  -3  23   5  318.67   53.59
 -18   0   6   13.50   24.40
 -16   0   6  192.18   65.19
  16   0  -6  191.08   62.39
 -16   0   6  123.99   28.30
  16   0  -6  148.79   25.00
  14   0  -6  495.95   39.50
  14   0  -6  649.34   88.99
 -14   0   6  443.06   41.60
 -14   0   6  533.25   77.79
  12   0  -6  214.98   50.49
 -12   0   6  203.48   30.50
 -12   0   6  168.18   47.50
  12   0  -6  220.98   26.40
  10   0  -6 1821.92  112.99
 -10   0   6 1811.92  112.89
 -10   0   6 1624.54   80.59
  10   0  -6 1675.83   80.89
   8   0  -6  818.82   71.49
  -8   0   6  863.01   72.39
   8   0  -6  836.52   50.39
  -8   0   6  901.31   51.09
  -6   0   6  878.91   71.19
   6   0  -6  873.71   50.29
  -6   0   6  897.11   49.40
   6   0  -6  898.81   69.59
   4   0  -6 1622.64  111.79
  -4   0   6 1999.40   79.89
  -4   0   6 1839.12  105.59
   4   0  -6 1960.60   89.89
   2   0  -6 1610.54   71.39
   2   0  -6 1547.15   93.39
  -2   0   6 1616.64   79.39
  -2   0   6 1497.45   92.69
   0   0   6 1811.12   91.59
   0   0   6 1638.64   96.09
   0   0  -6 1813.02   77.19
   0   0  -6 1823.02  100.49
   2   0   6  695.83   56.59
  -2   0  -6  811.32   45.00
   2   0   6  770.52   60.39
  -2   0  -6  847.62   63.19
  -4   0  -6  429.16   32.70
  -4   0  -6  406.96   46.10
   4   0   6  399.16   45.70
   4   0   6  402.66   42.00
   6   0   6  187.48   42.00
  -6   0  -6  300.87   33.30
 -17  -1   6  -18.10   60.39
 -17  -1   6   97.29   25.20
  17  -1  -6   56.69   17.60
  17  -1  -6  137.59   68.39
 -17   1   6   75.49   26.30
  17   1  -6   51.69   26.60
 -17   1   6   59.69   63.59
 -15  -1   6  218.68   35.10
 -15  -1   6   74.89   48.60
  15  -1  -6  233.88   30.10
 -15   1   6  204.68   56.59
 -15   1   6  197.08   30.50
  15   1  -6  278.37   32.10
  15   1  -6  247.58   62.79
 -13  -1   6  362.96   64.49
  13  -1  -6  481.05   38.60
  13  -1  -6  452.45   69.69
  13   1  -6  455.55   37.60
  13   1  -6  354.56   65.29
 -13   1   6  505.55   71.59
 -11  -1   6  781.22   50.89
 -11  -1   6  765.72   74.19
  11  -1  -6  777.02   49.20
  11  -1  -6  706.63   76.19
  11   1  -6  724.93   74.79
 -11   1   6  803.52   75.29
  11   1  -6  788.62   49.80
 -11   1   6  721.53   49.00
  -9  -1   6 1242.08   91.39
   9  -1  -6 1315.17   91.99
   9  -1  -6 1323.87   66.89
  -9  -1   6 1399.46   68.19
   9   1  -6 1266.77   91.99
   9   1  -6 1195.48   65.19
  -9   1   6 1315.47   92.29
  -9   1   6 1318.57   67.29
  -7  -1   6  561.04   38.30
   7  -1  -6  630.54   59.59
  -7  -1   6  579.84   59.19
   7  -1  -6  562.54   39.00
  -7   1   6  586.94   39.20
   7   1  -6  623.74   59.89
   7   1  -6  569.74   39.40
  -7   1   6  591.94   59.79
  -5  -1   6 1313.57   63.59
   5  -1  -6 1360.36   73.39
   5  -1  -6 1459.65   92.59
  -5  -1   6 1475.15   91.89
  -5   1   6 1558.04   94.59
  -5   1   6 1388.56   65.19
   5   1  -6 1370.56   88.79
  -3  -1   6 1772.32   71.39
   3  -1  -6 1591.44   98.59
   3  -1  -6 1719.13   76.99
  -3  -1   6 1784.92   99.89
  -3   1   6 1649.13   99.89
   3   1  -6 1756.12   76.69
   3   1  -6 1696.13   99.29
  -3   1   6 1708.63   71.79
  -1  -1   6 1401.96   75.49
   1  -1  -6 1348.86   87.39
  -1  -1   6 1446.36   54.79
   1  -1  -6 1394.56   65.89
  -1  -1   6 1503.45   87.89
   1   1  -6 1414.36   65.69
  -1   1   6 1454.35   57.79
  -1   1   6 1421.86   88.79
   1   1  -6 1543.75   89.59
   1  -1   6 1184.48   71.39
  -1  -1  -6 1192.78   58.99
   1  -1   6 1257.07   76.89
   1   1   6 1182.28   72.49
  -1   1  -6 1144.59   81.79
  -1   1  -6 1241.28   58.29
   1   1   6 1207.08   77.89
  -3  -1  -6  446.76   38.00
  -3  -1  -6  487.25   53.39
   3  -1   6  482.55   46.60
   3  -1   6  546.45   50.09
  -3   1  -6  505.85   33.90
  -3   1  -6  395.26   48.00
   3   1   6  484.25   50.79
   3   1   6  536.45   50.29
  -5  -1  -6  330.47   31.00
   5  -1   6  284.77   47.40
  -5   1  -6  269.67   29.00
   5   1   6  374.16   53.69
 -18  -2   6   75.49   28.90
 -18   2   6   36.60   25.50
  18   2  -6   58.29   18.70
 -16  -2   6   79.89   24.50
 -16  -2   6   95.09   55.19
  16  -2  -6  107.79   59.29
  16  -2  -6  121.69   27.50
 -16   2   6  202.88   33.90
 -16   2   6  131.99   58.69
  16   2  -6  133.39   25.60
  14  -2  -6  345.37   33.10
 -14  -2   6  225.18   59.09
 -14  -2   6  350.36   36.40
  14  -2  -6  325.87   61.79
 -14   2   6  283.17   62.59
  14   2  -6  338.37   66.09
 -14   2   6  364.66   37.00
  14   2  -6  362.16   35.50
  12  -2  -6  797.42   79.29
 -12  -2   6  696.93   76.49
  12  -2  -6  746.93   46.50
 -12  -2   6  600.94   45.50
 -12   2   6  772.82   76.89
 -12   2   6  642.34   46.60
  12   2  -6  541.85   70.59
  12   2  -6  639.74   45.70
 -10  -2   6  677.03   67.59
 -10  -2   6  586.04   42.70
  10  -2  -6  687.13   68.89
  10  -2  -6  589.94   41.90
  10   2  -6  692.13   68.79
 -10   2   6  601.94   43.00
  10   2  -6  550.84   41.20
 -10   2   6  696.53   68.39
  -8  -2   6 1206.88   63.09
  -8  -2   6 1094.59   83.79
   8  -2  -6 1393.26   92.19
   8  -2  -6 1201.48   62.79
  -8   2   6 1299.27   90.39
  -8   2   6 1238.68   63.79
   8   2  -6 1336.87   92.39
   8   2  -6 1141.19   62.59
  -6  -2   6  865.41   48.60
   6  -2  -6 1027.90   75.59
  -6  -2   6  910.41   72.29
   6  -2  -6  913.41   51.09
   6   2  -6  908.61   51.29
  -6   2   6  912.21   50.29
  -6   2   6  967.50   74.69
   6   2  -6  798.52   70.39
  -4  -2   6 1101.79   51.89
   4  -2  -6  948.41   73.29
  -4  -2   6  951.90   74.79
   4   2  -6 1096.49   55.49
  -4   2   6  978.70   76.59
  -4   2   6 1085.99   53.19
   4   2  -6 1085.79   82.39
  -2  -2   6 1480.05   58.79
   2  -2  -6 1526.65   74.49
   2  -2  -6 1431.76   91.69
  -2  -2   6 1312.67   84.79
  -2   2   6 1340.27   89.19
  -2   2   6 1521.15   62.69
   2   2  -6 1469.05   89.69
   2   2  -6 1398.36   66.09
   0  -2  -6 1049.79   59.29
   0  -2  -6 1051.79   75.59
   0  -2   6  996.70   62.29
   0  -2   6  982.50   69.69
   0   2  -6 1033.20   52.09
   0   2   6 1046.70   40.90
   0   2  -6  982.70   70.69
   0   2   6 1079.89   75.29
   0   2   6 1075.69   65.79
   2  -2   6  689.43   63.59
   2  -2   6  638.04   52.59
  -2   2  -6  720.93   56.89
   2   2   6  594.84   57.69
  -2   2  -6  680.03   39.80
   2   2   6  744.33   57.29
  -4  -2  -6  313.27   48.50
   4  -2   6  362.26   32.20
   4  -2   6  352.76   42.80
  -4  -2  -6  351.06   30.80
  -4   2  -6  314.27   28.40
   4   2   6  375.76   46.30
   4   2   6  364.66   52.39
  -6  -2  -6  156.98   27.50
   6  -2   6  245.28   45.20
   6   2   6  200.08   52.89
  -6   2  -6  196.88   24.90
 -17  -3   6   84.29   32.80
  17  -3  -6  103.09   16.50
 -17  -3   6   85.49   28.50
 -17  -3   6   69.59   67.99
  17   3  -6  101.29   24.40
 -17   3   6   95.99   67.49
 -17   3   6  114.99   30.60
 -15  -3   6  211.68   34.00
  15  -3  -6  188.68   25.40
 -15  -3   6  129.09   55.49
  15  -3  -6  107.19   58.99
 -15   3   6  199.58   33.10
  15   3  -6  191.58   64.89
  15   3  -6  178.68   29.60
 -15   3   6  111.69   51.59
 -13  -3   6  542.05   45.50
  13  -3  -6  515.45   40.20
  13  -3  -6  695.03   77.29
 -13  -3   6  714.93   79.69
 -13   3   6  572.64   72.29
  13   3  -6  619.04   77.59
  13   3  -6  542.75   42.30
 -11  -3   6  363.96   58.59
  11  -3  -6  492.25   62.59
  11  -3  -6  519.15   38.20
 -11  -3   6  494.15   39.30
  11   3  -6  466.15   39.40
 -11   3   6  506.95   83.59
 -11   3   6  487.05   38.40
  11   3  -6  433.06   67.89
   9  -3  -6  700.73   45.10
   9  -3  -6  776.52   70.99
  -9  -3   6  640.04   66.49
  -9  -3   6  705.53   45.90
  -9   3   6  759.42   71.29
  -9   3   6  660.03   44.20
   9   3  -6  670.23   45.20
   9   3  -6  712.63   70.29
  -7  -3   6 1174.78   84.59
   7  -3  -6 1094.09   59.09
  -7  -3   6 1170.28   59.39
   7  -3  -6  996.10   78.59
  -7   3   6 1145.89   59.29
   7   3  -6 1074.89   58.69
  -7   3   6 1109.69   82.79
   7   3  -6 1079.29   81.59
   5  -3  -6  872.01   49.10
  -5  -3   6  764.02   43.90
   5  -3  -6  995.80   74.09
  -5  -3   6  791.72   68.09
  -5   3   6  787.32   45.50
   5   3  -6  829.92   52.69
   5   3  -6  791.02   67.89
  -5   3   6  753.32   67.29
   3  -3  -6  956.00   55.99
   3  -3  -6  837.62   68.39
  -3  -3   6  893.01   68.29
  -3  -3   6  916.71   43.90
  -3   3   6  912.81   46.90
   3   3  -6  903.81   48.70
  -3   3   6  884.31   71.09
   3   3  -6  838.62   68.19
   1  -3  -6 1327.57   86.39
   1  -3  -6 1329.57   69.89
  -1  -3   6 1297.27   70.19
  -1  -3   6 1331.17   47.20
  -1  -3   6 1219.48   78.99
  -1   3   6 1204.88   85.29
   1   3  -6 1229.18   60.19
  -1   3   6 1329.07   70.39
   1   3  -6 1232.58   81.69
   1  -3   6  705.33   56.19
  -1  -3  -6  736.73   44.80
   1  -3   6  785.72   55.19
   1   3   6  773.62   65.79
  -1   3  -6  757.52   59.59
  -1   3  -6  718.13   41.20
   1   3   6  733.43   63.39
  -3  -3  -6  425.16   34.30
   3  -3   6  499.55   48.60
  -3  -3  -6  401.96   54.89
   3  -3   6  447.06   41.60
   3   3   6  428.66   54.19
  -3   3  -6  430.06   31.40
  -3   3  -6  414.26   42.90
   3   3   6  503.35   48.80
  -5  -3  -6  190.08   28.20
   5  -3   6  210.58   39.60
  -5   3  -6  235.98   25.40
   5   3   6  217.08   44.50
  16  -4  -6  124.99   61.49
 -16  -4   6  136.29   29.80
 -16  -4   6   91.59   57.39
  16  -4  -6  137.09   21.80
 -16   4   6   26.90   55.19
 -16   4   6   79.59   24.90
  16   4  -6   96.49   25.70
 -14  -4   6  373.76   38.30
  14  -4  -6  274.57   30.40
  14  -4  -6  297.67   63.79
 -14  -4   6  335.77   66.89
  14   4  -6  308.27   66.39
 -14   4   6  247.18   58.39
  14   4  -6  324.57   36.30
 -14   4   6  301.77   35.60
 -12  -4   6  496.05   44.00
  12  -4  -6  288.27   56.59
 -12  -4   6  493.95   74.19
  12  -4  -6  465.75   36.70
  12   4  -6  552.74   41.90
  12   4  -6  473.55   72.59
 -12   4   6  414.46   66.29
 -12   4   6  452.75   39.20
  10  -4  -6  900.81   79.19
 -10  -4   6  861.91   79.99
  10  -4  -6  822.72   50.69
 -10  -4   6  873.61   54.29
 -10   4   6  908.81   53.79
  10   4  -6  875.71   81.29
 -10   4   6  959.80   82.09
  10   4  -6  818.92   52.39
  -8  -4   6  704.83   68.19
   8  -4  -6  790.62   48.10
   8  -4  -6  856.21   72.99
  -8  -4   6  759.82   48.60
  -8   4   6  845.52   49.20
   8   4  -6  737.13   47.90
  -8   4   6  814.22   73.29
   8   4  -6  775.72   71.79
  -6  -4   6 1375.06   65.49
  -6  -4   6 1321.87   90.39
   6  -4  -6 1344.97   67.19
   6  -4  -6 1258.07   88.29
   6   4  -6 1266.77   66.19
  -6   4   6 1518.45   96.49
  -6   4   6 1250.77   64.59
   6   4  -6 1519.65   95.69
   4  -4  -6  782.32   69.49
  -4  -4   6  867.01   43.80
  -4  -4   6  876.51   69.49
   4  -4  -6  807.72   46.80
   4   4  -6  747.13   64.59
  -4   4   6  787.42   45.00
  -4   4   6  727.33   68.19
  -2  -4   6  896.01   39.20
   2  -4  -6  916.31   49.80
  -2  -4   6  879.01   66.79
   2  -4  -6  707.33   67.19
  -2  -4   6  849.41   51.69
  -2   4   6  892.01   44.80
   2   4  -6  733.23   63.89
  -2   4   6  791.62   69.29
   2   4  -6  830.42   46.10
   0  -4  -6  990.40   54.39
   0  -4   6 1059.29   69.99
   0  -4  -6  973.80   76.79
   0  -4   6 1030.60   62.39
   0   4  -6 1061.29   52.39
   0   4   6  997.80   78.39
   0   4  -6 1088.29   72.29
   0   4   6 1040.90   66.79
   0   4   6 1020.60   45.10
  -2  -4  -6  725.83   46.10
   2  -4   6  798.52   55.89
   2   4   6  706.03   57.39
  -2   4  -6  729.03   42.20
  -2   4  -6  789.72   58.19
  -4  -4  -6  235.98   30.60
   4  -4   6  242.88   41.00
   4   4   6  196.58   37.40
  -4   4  -6  206.68   24.30
  -6  -4  -6  219.08   32.90
   6  -4   6   84.29   33.00
   6   4   6   96.39   55.39
  -6   4  -6  116.49   22.70
  17  -5  -6   43.70   13.80
  17  -5  -6   46.80   64.19
 -17  -5   6   -5.40   67.29
 -17  -5   6   24.90   26.00
 -17  -5   6  114.49   30.30
 -17   5   6  144.09   31.20
 -17   5   6   76.59   72.89
  17   5  -6   83.09   25.80
 -15  -5   6  205.58   34.60
 -15  -5   6  206.08   63.99
  15  -5  -6  165.18   53.59
 -15   5   6  164.08   30.60
 -15   5   6  162.18   56.99
  15   5  -6  140.79   27.40
  13  -5  -6  449.06   70.79
 -13  -5   6  322.17   34.70
 -13  -5   6  195.88   53.29
  13  -5  -6  339.47   32.80
  13   5  -6  321.67   67.79
 -13   5   6  316.67   62.99
  13   5  -6  364.66   35.80
 -13   5   6  376.46   39.90
 -11  -5   6  375.76   35.10
 -11  -5   6  360.96   61.19
  11  -5  -6  403.56   33.30
  11  -5  -6  303.77   55.19
 -11   5   6  392.66   63.49
  11   5  -6  336.77   35.20
 -11   5   6  339.57   32.30
  11   5  -6  371.96   66.19
   9  -5  -6 1055.79   84.79
   9  -5  -6 1012.50   57.09
  -9  -5   6  917.61   82.59
  -9  -5   6 1024.50   57.89
   9   5  -6  971.40   58.69
  -9   5   6 1012.20   56.99
   9   5  -6  964.70   85.99
  -9   5   6 1052.99   83.49
   7  -5  -6 1332.07   90.29
  -7  -5   6 1166.48   85.39
   7  -5  -6 1258.37   62.79
  -7  -5   6 1009.40   57.79
  -7   5   6 1100.39   60.09
   7   5  -6 1055.39   59.79
   7   5  -6 1117.39   85.89
  -7   5   6 1249.18   87.59
   5  -5  -6 1358.56   68.09
  -5  -5   6 1421.16   65.19
  -5  -5   6 1549.64   97.69
   5  -5  -6 1343.77   91.79
   5   5  -6 1241.68   95.99
  -5   5   6 1436.66   67.79
   5   5  -6 1415.96   68.79
  -5   5   6 1336.77   92.49
   3  -5  -6  959.10   74.99
  -3  -5   6  953.60   72.09
  -3  -5   6  993.80   45.80
   3  -5  -6 1060.49   54.89
  -3   5   6  955.70   50.49
   3   5  -6  840.12   70.79
   3   5  -6  877.61   53.89
  -3   5   6 1019.20   79.29
  -1  -5   6 1014.20   58.79
   1  -5  -6  992.60   54.49
  -1  -5   6  959.30   69.49
   1  -5  -6  957.80   77.69
  -1   5   6 1053.29   49.50
  -1   5   6  996.10   78.39
   1   5  -6  981.30   51.49
   1   5  -6  995.40   72.19
  -1  -5  -6  944.51   77.79
   1  -5   6 1021.00   63.79
   1  -5   6  909.51   64.29
  -1  -5  -6  946.51   53.89
   1   5   6  879.91   63.99
  -1   5  -6  930.71   65.99
  -1   5  -6  993.30   49.90
   1   5   6 1104.99   80.99
   3  -5   6  247.98   31.40
   3  -5   6  265.67   32.40
  -3  -5  -6  257.97   30.10
   3  -5   6  298.57   43.90
   3   5   6  211.38   37.20
   3   5   6  241.58   44.70
  -3   5  -6  251.87   24.30
  -5  -5  -6  258.37   33.30
   5  -5   6  325.67   48.90
   5   5   6  290.27   48.70
  -5   5  -6  219.28   26.20
  16  -6  -6   71.89   18.30
  16  -6  -6   50.49   58.09
  16  -6  -6   75.49   16.80
 -16  -6   6   77.59   22.90
 -16  -6   6  -35.30   56.99
  16   6  -6   66.29   25.50
 -16   6   6   65.59   23.20
 -16   6   6   37.70   57.79
  14  -6  -6  155.98   24.40
 -14  -6   6  135.19   28.70
 -14   6   6  194.88   54.79
  14   6  -6  141.29   28.20
 -14   6   6  116.99   23.60
 -12  -6   6  461.95   41.10
  12  -6  -6  626.04   75.09
 -12  -6   6  405.46   67.89
  12  -6  -6  590.94   40.50
  12   6  -6  524.05   42.40
 -12   6   6  504.75   73.39
 -12   6   6  560.84   47.50
  12   6  -6  721.13   85.69
 -10  -6   6  482.35   62.69
  10  -6  -6  536.05   38.70
  10  -6  -6  437.46   64.89
 -10  -6   6  576.94   42.10
  10   6  -6  569.34   78.09
 -10   6   6  464.05   60.29
  10   6  -6  503.15   41.20
 -10   6   6  564.84   40.90
  -8  -6   6  564.14   64.99
  -8  -6   6  731.33   48.00
   8  -6  -6  856.21   49.40
   8  -6  -6  734.53   71.19
   8   6  -6  749.82   73.29
  -8   6   6  848.52   50.39
   8   6  -6  754.42   49.80
  -8   6   6  785.62   72.09
   6  -6  -6 1208.48   87.19
  -6  -6   6 1171.08   85.59
  -6  -6   6 1162.18   60.09
   6  -6  -6 1272.67   64.49
   6   6  -6 1210.58   63.59
   6   6  -6 1221.98   89.69
  -6   6   6 1129.49   86.79
  -6   6   6 1215.98   62.99
  -4  -6   6 1647.44   71.09
   4  -6  -6 1645.44   77.59
  -4  -6   6 1632.94  100.09
   4   6  -6 1619.94   76.09
  -4   6   6 1729.83  108.39
   4   6  -6 1643.64  102.39
  -4   6   6 1685.63   76.39
  -2  -6   6  823.42   67.29
  -2  -6   6  918.71   40.30
  -2  -6   6  948.81   53.39
   2  -6  -6  972.30   53.29
   2  -6  -6  852.31   73.59
   2   6  -6  945.01   51.19
  -2   6   6  796.72   74.69
  -2   6   6  938.31   49.00
   2   6  -6  880.51   69.69
   0  -6   6  671.93   47.90
   0  -6  -6  592.64   65.09
   0  -6   6  624.04   55.29
   0  -6  -6  649.43   43.10
   0   6   6  636.84   68.29
   0   6  -6  611.14   38.70
   0   6   6  669.63   36.50
  -2  -6  -6  359.96   33.80
   2  -6   6  336.37   38.60
   2  -6   6  309.97   46.80
  -2   6  -6  413.36   30.00
   2   6   6  328.47   40.10
   2   6   6  386.46   57.79
  -4  -6  -6  258.47   35.00
   4  -6   6  239.08   38.40
   4   6   6  314.27   48.20
  -4   6  -6  306.07   27.80
  -6  -6  -6  170.78   30.20
   6  -6   6  193.28   40.90
  -6   6  -6  114.49   21.70
   6   6   6   94.69   33.20
  17  -7  -6   89.39   74.19
 -17  -7   6   44.50   29.40
 -17  -7   6   39.00   25.00
 -17   7   6   10.90   72.49
  17   7  -6    1.30   27.20
 -17   7   6   43.90   24.50
 -15  -7   6   51.89   21.70
 -15  -7   6   -6.10   53.89
 -15  -7   6   62.19   22.70
  15  -7  -6   87.69   54.29
 -15  -7   6   51.29   53.59
 -15   7   6   56.29   53.59
  15   7  -6   69.69   25.70
 -15   7   6  133.89   27.80
 -13  -7   6  189.18   32.70
  13  -7  -6  268.87   28.00
  13  -7  -6  223.78   54.99
 -13  -7   6  130.69   52.19
  13   7  -6  151.48   27.60
 -13   7   6  246.28   35.50
 -13   7   6  251.37   56.19
  11  -7  -6  562.44   69.89
 -11  -7   6  441.36   68.59
 -11  -7   6  512.65   61.49
  11  -7  -6  567.64   39.60
 -11   7   6  564.04   43.00
  11   7  -6  495.05   41.90
  11   7  -6  486.55   76.89
 -11   7   6  335.37   58.99
   9  -7  -6  657.33   68.49
  -9  -7   6  500.25   40.40
  -9  -7   6  486.45   60.89
   9  -7  -6  530.15   39.80
   9   7  -6  549.05   77.49
  -9   7   6  497.55   39.80
   9   7  -6  528.95   42.60
  -9   7   6  481.45   68.49
   7  -7  -6 1129.09   87.19
  -7  -7   6  859.31   77.59
   7  -7  -6 1060.29   58.99
  -7  -7   6 1014.30   57.29
   7   7  -6 1054.99   59.99
   7   7  -6  985.40   84.69
  -7   7   6 1095.49   86.99
  -7   7   6 1182.68   61.19
   5  -7  -6 1043.10   56.59
   5  -7  -6  894.91   76.59
  -5  -7   6  982.30   78.39
  -5  -7   6  955.50   51.29
  -5   7   6  883.31   77.79
   5   7  -6  934.51   54.99
   5   7  -6  985.30   79.59
  -5   7   6 1018.80   55.09
  -3  -7   6 1095.19   57.59
   3  -7  -6 1247.38   89.29
  -3  -7   6 1052.19   50.69
   3  -7  -6 1126.79   60.89
  -3  -7   6 1187.88   81.49
   3   7  -6 1097.19   58.69
  -3   7   6 1119.29   88.79
  -3   7   6 1136.79   58.29
   3   7  -6 1250.47   85.79
   1  -7  -6  716.93   70.59
  -1  -7   6  681.03   46.30
   1  -7  -6  730.43   47.20
  -1  -7   6  664.83   59.29
   1   7  -6  728.43   43.60
  -1   7   6  705.23   69.79
  -1   7   6  731.53   41.90
   1  -7   6   84.69   26.80
   1  -7   6  113.09   27.80
   1  -7   6  115.99   24.20
  -1  -7  -6   96.39   21.10
   1   7   6   76.59   24.10
  -1   7  -6  136.59   20.60
   1   7   6   83.89   37.50
   3  -7   6  441.96   45.30
  -3  -7  -6  360.86   36.20
   3  -7   6  475.75   36.80
   3  -7   6  378.76   35.90
  -3  -7  -6  417.16   70.69
   3   7   6  433.26   48.00
   3   7   6  404.36   63.79
  -3   7  -6  464.05   33.20
   5  -7   6  217.68   37.80
  -5  -7  -6  236.08   35.30
  -5   7  -6  222.38   26.40
   5   7   6  213.98   41.20
  16  -8  -6    6.40   62.69
 -16  -8   6    4.10   64.99
  16  -8  -6   50.69   14.50
 -16  -8   6   78.49   25.90
 -16   8   6   51.19   22.30
 -14  -8   6   25.30   20.90
 -14  -8   6   83.39   21.30
 -14  -8   6   73.59   53.59
  14  -8  -6   48.50   16.90
  14   8  -6   21.10   22.70
 -14   8   6   78.39   23.40
 -14   8   6   85.69   51.39
 -12  -8   6  421.16   40.80
 -12  -8   6  489.25   77.69
 -12  -8   6  308.07   64.49
  12  -8  -6  415.86   35.10
  12  -8  -6  458.45   69.09
 -12   8   6  331.67   61.89
 -12   8   6  416.26   39.00
  12   8  -6  361.26   39.30
  10  -8  -6  326.07   56.19
  10  -8  -6  357.56   32.80
 -10  -8   6  282.97   54.39
 -10  -8   6  341.97   33.50
  10   8  -6  339.67   36.60
 -10   8   6  369.76   35.00
 -10   8   6  370.76   61.69
   8  -8  -6  544.45   64.19
  -8  -8   6  559.24   62.69
   8  -8  -6  432.46   37.00
  -8  -8   6  419.26   35.60
  -8   8   6  493.05   69.69
   8   8  -6  439.46   38.70
  -8   8   6  560.34   41.00
   8   8  -6  569.94   66.49
  -6  -8   6  686.13   43.80
   6  -8  -6  678.93   46.00
  -6  -8   6  643.24   68.29
   6  -8  -6  891.51   76.69
   6   8  -6  731.93   48.50
  -6   8   6  712.83   46.60
   6   8  -6  706.23   68.59
  -6   8   6  647.64   69.09
  -4  -8   6 1113.39   54.39
  -4  -8   6 1086.29   80.49
   4  -8  -6 1030.40   58.89
   4  -8  -6 1064.89   85.39
  -4  -8   6 1075.29   52.79
   4   8  -6 1031.90   58.49
  -4   8   6 1234.48   61.29
  -4   8   6  926.81  107.89
   4   8  -6 1058.09   83.09
  -2  -8   6  797.82   69.69
   2  -8  -6  768.02   76.09
  -2  -8   6 1002.00   42.60
  -2  -8   6  927.61   41.20
   2  -8  -6 1014.20   57.19
  -2  -8   6  924.31   53.19
  -2   8   6  954.90   52.29
   2   8  -6  991.20   53.59
  -2   8   6 1062.59   86.29
   0  -8  -6   90.09   37.40
   0  -8  -6   96.59   20.90
   0  -8   6   56.89   27.40
   0  -8   6  101.99   22.90
   0  -8   6   64.69   27.60
   0   8   6  104.99   40.70
   0   8   6   84.69   16.50
   0   8  -6  126.79   24.10
  -2  -8  -6  326.87   60.89
   2  -8   6  257.17   36.20
   2  -8   6  319.67   36.90
  -2  -8  -6  263.67   32.00
   2   8   6  380.86   41.60
   2   8   6  267.47   57.19
  -2   8  -6  264.87   27.80
  -4  -8  -6  296.07   36.60
   4  -8   6  331.67   49.20
   4   8   6  266.27   46.60
  -4   8  -6  284.57   29.60
  -6  -8  -6   77.19   28.80
  -6  -8  -6  104.69   48.30
   6   8   6   15.20   25.90
  -6   8  -6   69.99   18.70
 -17  -9   6  107.09   32.50
 -17  -9   6  -18.90   32.70
 -17   9   6   60.19   26.50
  15  -9  -6   12.30   55.09
 -15  -9   6   58.09   23.60
  15  -9  -6   69.49   24.30
 -15  -9   6   67.59   59.99
 -15  -9   6   50.89   63.09
  15  -9  -6   39.10   17.70
 -15  -9   6   72.19   24.60
 -15   9   6   32.80   59.49
 -15   9   6   97.99   25.50
 -13  -9   6   28.40   47.10
 -13  -9   6   66.69   22.00
  13  -9  -6  106.69   21.00
  13  -9  -6   52.79   43.80
 -13  -9   6   70.49   20.90
 -13  -9   6   69.89   49.90
 -13   9   6   83.79   46.80
 -13   9   6   92.69   23.80
  11  -9  -6  448.76   37.10
 -11  -9   6  458.05   76.59
 -11  -9   6  455.45   78.39
  11  -9  -6  462.45   69.99
 -11  -9   6  437.76   39.60
 -11   9   6  442.56   71.49
  11   9  -6  426.86   40.90
 -11   9   6  415.36   45.00
   9  -9  -6  401.76   64.99
  -9  -9   6  428.66   37.70
  -9  -9   6  404.26   66.79
   9  -9  -6  428.66   36.90
  -9   9   6  394.16   65.29
   9   9  -6  429.26   40.00
  -9   9   6  364.26   33.90
   7  -9  -6  756.12   75.29
   7  -9  -6  625.14   44.80
  -7  -9   6  651.43   44.30
   7   9  -6  599.64   45.90
  -7   9   6  693.63   72.79
  -7   9   6  647.94   45.00
  -5  -9   6  522.25   60.29
   5  -9  -6  642.24   68.89
   5  -9  -6  556.54   40.90
  -5  -9   6  559.14   38.10
  -5   9   6  584.04   42.20
  -5   9   6  530.05   72.49
   5   9  -6  581.34   42.30
   3  -9  -6  962.80   84.99
  -3  -9   6 1038.60   81.69
  -3  -9   6 1084.29   81.99
   3  -9  -6 1154.68   62.79
  -3  -9   6 1094.49   51.09
  -3  -9   6 1143.59   56.59
  -3   9   6 1095.69   59.29
   3   9  -6 1086.29   59.99
  -3   9   6 1109.19   90.39
   1  -9  -6  200.98   29.20
  -1  -9   6  116.69   21.30
  -1  -9   6  251.27   44.00
   1  -9  -6  182.48   47.10
  -1  -9   6  183.78   38.30
   1   9  -6  201.28   24.10
  -1   9   6  187.88   50.39
  -1   9   6  166.98   24.20
   1  -9   6  233.78   34.90
   1  -9   6  253.17   39.80
  -1  -9  -6  251.17   30.30
   1  -9   6  231.38   38.90
   1   9   6  223.38   37.50
  -3  -9  -6  223.88   33.40
   3  -9   6  279.17   35.10
   3  -9   6  217.78   29.50
   3  -9   6  141.09   31.90
  -3   9  -6  224.08   27.20
   3   9   6  238.28   42.20
  -5  -9  -6  161.88   34.20
  -5   9  -6  132.99   23.10
   5   9   6   79.19   38.10
 -16 -10   6   33.00   25.30
 -16 -10   6   52.69   29.60
  16 -10  -6   89.99  114.99
  16 -10  -6   26.20   13.30
 -16  10   6   45.50   25.70
 -16  10   6   54.99   71.29
 -14 -10   6  103.49   26.30
 -14 -10   6   63.99   56.59
 -14 -10   6   36.70   75.49
  14 -10  -6   76.89   20.00
 -14 -10   6   76.69   21.40
  14 -10  -6   60.99   18.80
 -14  10   6  122.59   57.09
  14  10  -6   43.70   33.80
 -14  10   6   44.00   20.60
 -12 -10   6   78.09   52.29
 -12 -10   6   76.59   23.30
 -12 -10   6  103.99   20.00
 -12 -10   6  128.99   52.19
  12 -10  -6  167.28   26.70
  12 -10  -6  113.29   48.90
 -12  10   6  110.09   53.29
 -12  10   6  121.39   25.90
  10 -10  -6  459.75   74.99
 -10 -10   6  278.97   58.49
  10 -10  -6  415.76   35.20
 -10 -10   6  315.37   33.70
 -10 -10   6  201.88   54.79
 -10  10   6  299.77   60.69
  10  10  -6  367.16   37.50
 -10  10   6  311.17   38.30
   8 -10  -6  584.14   42.20
  -8 -10   6  614.24   44.60
  -8 -10   6  490.35   73.29
   8 -10  -6  490.35   70.29
  -8 -10   6  513.35   81.69
  -8  10   6  530.75   66.99
   8  10  -6  542.05   49.70
  -8  10   6  595.94   44.20
  -6 -10   6  603.34   41.70
  -6 -10   6  596.74   68.59
  -6 -10   6  564.04   67.59
   6 -10  -6  693.23   74.39
   6 -10  -6  601.54   43.30
  -6  10   6  618.34   44.70
   6  10  -6  561.84   45.30
  -6  10   6  661.23   72.19
   4 -10  -6  756.22   50.39
  -4 -10   6  772.32   72.19
  -4 -10   6  675.53   67.19
  -4 -10   6  778.52   42.10
  -4 -10   6  756.32   43.00
   4 -10  -6  955.30   85.19
   4  10  -6  736.23   49.50
  -4  10   6  787.42   50.19
  -4  10   6  887.61   83.89
  -2 -10   6  240.48   25.60
   2 -10  -6  204.98   47.50
  -2 -10   6  190.68   41.30
  -2 -10   6  270.67   18.90
   2 -10  -6  281.17   30.10
  -2 -10   6  152.88   38.00
  -2 -10   6  229.18   18.70
   2  10  -6  245.08   28.10
  -2  10   6  117.89   42.80
  -2  10   6  223.68   26.30
   0 -10   6  261.07   44.60
   0 -10  -6  200.28   53.99
   0 -10   6  336.17   33.60
   0 -10  -6  313.47   34.50
   0  10  -6  267.47   28.70
   0  10   6  292.17   28.40
   0  10   6  253.17   59.29
   2 -10   6  116.89   29.00
   2 -10   6   93.49   24.40
   2 -10   6   78.99   28.70
  -2 -10  -6  141.39   49.99
  -2 -10  -6  105.99   23.80
  -2  10  -6  108.49   23.40
   2  10   6   45.80   21.50
   2  10   6   58.49   42.40
  -4 -10  -6  180.38   36.60
   4  10   6  171.48   40.40
 -15 -11   6   43.10   24.40
 -15 -11   6   30.80   21.10
  15 -11  -6   39.90   16.40
  15 -11  -6  115.99   65.59
  15 -11  -6   49.40   19.20
 -15 -11   6   70.59   71.99
  15  11  -6  110.49   33.90
 -15  11   6   63.69   24.30
 -15  11   6   -7.10   66.39
 -13 -11   6   48.30   20.00
 -13 -11   6  -15.90   54.89
  13 -11  -6   49.40   19.10
  13 -11  -6   69.59   49.70
 -13 -11   6   63.29   55.79
  13 -11  -6   34.80   17.10
 -13 -11   6   76.89   18.50
 -13  11   6   62.69   22.20
 -13  11   6   36.70   50.89
 -11 -11   6  135.89   19.40
 -11 -11   6  137.49   29.00
 -11 -11   6  110.49   54.99
  11 -11  -6  218.98   30.40
  11 -11  -6   15.30   43.10
 -11 -11   6  140.39   54.19
 -11  11   6  144.29   49.99
 -11  11   6  192.58   31.20
   9 -11  -6  265.17   31.10
  -9 -11   6  368.66   67.39
  -9 -11   6  323.87   64.39
   9 -11  -6  222.68   53.19
  -9  11   6  240.88   37.80
  -9  11   6  267.07   56.89
  -7 -11   6  452.35   69.19
   7 -11  -6  617.54   73.19
  -7 -11   6  458.25   39.00
  -7 -11   6  509.45   75.89
   7 -11  -6  521.15   41.80
  -7  11   6  603.14   83.39
   7  11  -6  488.65   43.70
  -7  11   6  575.54   43.60
  -5 -11   6  573.54   40.00
  -5 -11   6  539.05   67.29
  -5 -11   6  580.44   67.69
   5 -11  -6  616.64   79.29
  -5 -11   6  552.84   32.10
   5  11  -6  646.84   47.30
  -5  11   6  613.64   73.39
  -5  11   6  683.63   47.10
   3 -11  -6  149.09   26.50
  -3 -11   6  118.39   17.90
  -3 -11   6   86.29   36.90
   3 -11  -6  234.08   54.69
  -3 -11   6  147.29   20.30
  -3 -11   6  150.18   18.60
  -3 -11   6  128.19   40.80
   3  11  -6  118.39   23.40
  -3  11   6  152.48   25.80
  -3  11   6  171.78   48.20
   1 -11  -6  414.46   68.59
  -1 -11   6  305.37   53.29
   1 -11  -6  334.47   34.40
  -1 -11   6  288.17   48.60
  -1 -11   6  341.27   31.60
  -1  11   6  330.97   65.59
  -1  11   6  306.87   31.00
   1  11  -6  278.67   31.00
  -1 -11  -6  154.68   29.30
   1 -11   6   86.59   30.90
   1 -11   6  120.89   32.80
   1 -11   6   87.59   22.80
  -1 -11  -6  128.89   51.39
   1  11   6  118.89   47.20
   1  11   6  127.09   30.30
  -1  11  -6  121.39   22.40
   3 -11   6   87.59   26.50
  -3 -11  -6   75.29   28.20
  -3 -11  -6   82.39   27.20
   3  11   6   52.99   26.30
  -3  11  -6  119.29   23.00
  -5 -11  -6   94.19   33.00
  -5 -11  -6    9.10   29.40
  -5  11  -6   78.89   24.00
   5  11   6   94.19   33.20
 -16 -12   6   38.30   25.10
 -16 -12   6    4.30   26.70
  16  12  -6   -4.30   33.90
 -16  12   6   15.70   25.80
 -14 -12   6  -27.70   63.59
 -14 -12   6   83.89   72.59
 -14 -12   6   56.49   28.20
  14 -12  -6   44.20   18.40
  14 -12  -6   25.70   17.40
  14 -12  -6   29.00   53.79
 -14 -12   6   55.59   23.30
 -14  12   6   19.70   18.40
 -14  12   6   63.69   62.39
  14  12  -6   36.20   28.00
 -12 -12   6   21.40   52.79
  12 -12  -6   73.89   20.60
 -12 -12   6   67.99   14.50
  12 -12  -6   12.30   45.60
  12 -12  -6   17.60   16.10
 -12 -12   6   80.49   23.80
 -12 -12   6   48.30   52.69
  12  12  -6   62.99   25.20
 -12  12   6   56.29   50.99
 -12  12   6   69.29   23.70
 -10 -12   6   86.39   45.00
  10 -12  -6   83.39   19.60
  10 -12  -6   -9.90   39.50
 -10 -12   6   49.90   10.40
 -10 -12   6   49.00   20.00
 -10  12   6   49.20   44.20
 -10  12   6   67.69   21.30
  -8 -12   6  461.05   40.70
   8 -12  -6  472.25   73.99
  -8 -12   6  558.14   79.79
  -8 -12   6  409.76   71.69
   8 -12  -6  525.05   42.30
  -8  12   6  530.55   43.60
  -8  12   6  457.45   70.89
   6 -12  -6  423.96   39.60
  -6 -12   6  482.05   73.19
  -6 -12   6  436.16   24.60
  -6 -12   6  570.94   80.19
  -6 -12   6  440.76   36.30
   6 -12  -6  564.34   80.49
  -6  12   6  579.34   81.99
   6  12  -6  505.25   44.20
  -6  12   6  509.15   48.20
  -4 -12   6   44.30   11.60
  -4 -12   6   57.89   36.50
  -4 -12   6   36.10   13.20
   4 -12  -6   46.80   39.90
  -4 -12   6   38.00   34.00
   4  12  -6   77.09   22.60
  -4  12   6   82.19   41.20
  -4  12   6   48.80   17.00
  -2 -12   6  144.59   39.90
  -2 -12   6  132.49   19.70
  -2 -12   6  147.29   16.50
  -2 -12   6  195.58   25.90
   2 -12  -6  190.88   53.49
   2 -12  -6  140.79   27.00
  -2 -12   6  169.68   44.80
  -2  12   6  137.29   25.50
  -2  12   6  198.68   55.89
   2  12  -6  131.09   26.40
   0 -12   6  156.78   39.40
   0 -12   6  181.58   43.90
   0 -12   6  201.58   30.40
   0 -12  -6  127.79   25.80
   0  12   6  302.37   94.49
   0  12   6  195.38   28.20
   0  12  -6  155.08   27.00
  -2 -12  -6   86.19   25.90
  -2 -12  -6   98.99   26.50
   2 -12   6  100.49   33.10
   2  12   6  134.79   33.50
  -2  12  -6   90.99   22.10
  -4 -12  -6   13.30   27.30
  -4 -12  -6   15.60   27.50
  -4  12  -6    6.90   18.20
   4  12   6   17.90   22.80
  15 -13  -6  109.69   69.09
 -15 -13   6  -37.20   82.29
  15 -13  -6   34.90   18.10
  15 -13  -6   42.70   20.50
 -15 -13   6   51.09   27.70
 -15 -13   6   56.49   20.60
 -15  13   6   47.70   75.99
 -15  13   6   50.69   23.60
  15  13  -6   32.60   37.20
 -13 -13   6   76.79   64.49
  13 -13  -6   34.50   18.80
 -13 -13   6   16.60   18.90
  13 -13  -6   33.30   19.60
 -13 -13   6   22.80   13.30
  13 -13  -6  138.79   59.09
  13  13  -6   -9.50   25.70
 -13  13   6   39.90   20.10
 -13  13   6   -1.70   56.29
 -11 -13   6   51.69   54.49
 -11 -13   6   44.00   10.80
  11 -13  -6   50.99   19.00
 -11 -13   6   23.10   18.30
  11 -13  -6   71.89   22.00
 -11 -13   6   73.69   52.49
  11 -13  -6  101.39   52.59
 -11  13   6   -0.90   86.89
  11  13  -6   37.40   26.80
 -11  13   6   43.80   18.40
   9 -13  -6  118.09   51.29
  -9 -13   6  130.99   54.19
  -9 -13   6   65.99   46.40
   9 -13  -6  140.29   25.60
  -9 -13   6   99.09   23.70
  -9  13   6  183.68   55.29
  -9  13   6  125.69   26.00
  -7 -13   6  520.25   41.50
   7 -13  -6  430.76   74.49
  -7 -13   6  364.16   69.59
  -7 -13   6  427.66   71.99
   7 -13  -6  461.45   40.50
  -7  13   6  469.45   41.10
  -7  13   6  634.74   88.39
   7  13  -6  409.46   42.90
  -5 -13   6   86.69   12.00
  -5 -13   6   69.09   40.80
  -5 -13   6   72.79   40.60
  -5 -13   6  103.99   21.70
   5 -13  -6  107.49   50.99
  -5 -13   6   81.19   18.20
   5  13  -6   94.99   23.80
  -5  13   6   68.79   23.20
   3 -13  -6   75.19   45.30
  -3 -13   6   83.59   40.40
  -3 -13   6  108.79   20.80
  -3 -13   6   67.69   14.60
   3 -13  -6   93.39   22.30
  -3 -13   6   91.79   17.10
  -3 -13   6   49.70   36.80
  -3  13   6  145.69   26.30
  -3  13   6   27.50   42.10
   3  13  -6   93.89   23.20
   1 -13  -6   70.69   50.29
  -1 -13   6  116.09   41.10
   1 -13  -6  148.99   29.80
  -1 -13   6  114.99   39.90
  -1  13   6  128.99   24.80
   1  13  -6  105.89   22.60
  -1  13   6   93.69   51.19
   1 -13   6  144.99   42.10
  -1 -13  -6  223.98   66.19
  -1 -13  -6  111.39   29.40
  -1 -13  -6  216.58   39.30
  -1  13  -6  218.28   33.30
   1  13   6  192.08   61.49
   1  13   6  188.68   37.40
  -3 -13  -6   47.10   27.40
   3 -13   6   30.50   30.20
  -3 -13  -6   76.69   27.90
  -3  13  -6   65.49   21.50
   3  13   6   44.90   23.70
  14 -14  -6   34.70   19.30
 -14 -14   6  -26.40   33.90
 -14 -14   6   76.29   77.39
  14 -14  -6   15.00   19.00
 -14 -14   6   15.10   14.20
  14 -14  -6  -13.70   64.89
 -14 -14   6   22.80   75.79
 -14  14   6   45.90   68.69
 -14  14   6    8.20   19.70
  12 -14  -6    5.70   18.30
  12 -14  -6  -14.70   15.60
  12 -14  -6  -56.99   51.39
 -12 -14   6    9.00   19.50
 -12 -14   6    7.20   58.39
 -12 -14   6  -10.40    7.60
 -12 -14   6  -49.20   54.69
 -12  14   6  -81.19   53.39
 -12  14   6   26.50   17.60
  12  14  -6   48.00   23.40
  10 -14  -6   70.09   26.70
 -10 -14   6   53.39   20.40
 -10 -14   6  136.69   58.09
  10 -14  -6   66.59   19.90
 -10 -14   6  124.29   56.19
  10 -14  -6   50.59   50.29
 -10  14   6   58.99   21.40
  10  14  -6   33.70   21.80
 -10  14   6   69.89   51.89
  -8 -14   6  152.38   53.49
   8 -14  -6  136.29   51.29
  -8 -14   6  245.08   36.40
   8 -14  -6  205.18   35.30
  -8 -14   6  152.08   54.89
  -8  14   6   98.49   50.49
  -8  14   6  176.18   30.70
  -6 -14   6   57.89   47.70
  -6 -14   6  147.09   51.79
  -6 -14   6  155.68   26.10
   6 -14  -6  252.87   62.09
  -6  14   6  176.08   31.70
   6  14  -6  202.98   35.30
  -6  14   6  115.99   51.19
  -4 -14   6   62.39   16.50
   4 -14  -6   14.70   43.40
  -4 -14   6   62.19   16.30
  -4 -14   6  139.99   49.30
  -4 -14   6   81.59   40.90
  -4  14   6   72.69   21.40
  -4  14   6   32.30   47.60
   4  14  -6   88.19   25.20
   2 -14  -6  147.59   59.99
  -2 -14   6   83.69   43.00
  -2 -14   6   89.09   15.50
  -2 -14   6  105.09   44.90
   2 -14  -6   93.69   25.60
   2 -14  -6   64.29   38.70
  -2  14   6   82.29   24.70
  -2  14   6  154.98   54.59
   2  14  -6  124.79   25.80
   0 -14  -6  217.98   64.39
   0 -14  -6  191.88   38.30
   0 -14   6  163.48   47.20
   0 -14  -6  207.28   36.50
   0  14   6  159.18   61.79
   0  14   6  136.79   25.10
   0  14  -6  164.38   28.90
  -2 -14  -6    3.10   23.30
   2 -14   6   55.89   37.30
   2  14   6   93.29   31.20
  -2  14  -6   82.19   23.90
  -4 -14  -6   43.90   29.90
   4  14   6  -11.10   24.90
  -4  14  -6   -0.90   22.20
  13 -15  -6   25.10   19.00
  13 -15  -6    2.80   61.69
 -13 -15   6    4.80   21.30
 -13 -15   6   40.40   71.19
  13 -15  -6   28.40   20.10
 -13  15   6    3.10   68.49
 -13  15   6   44.00   23.70
 -11 -15   6    9.70   18.30
  11 -15  -6   31.30   20.70
  11 -15  -6  -86.09   51.79
 -11 -15   6  -38.90   59.29
  11 -15  -6  -18.70   18.50
 -11 -15   6  -37.30   56.79
  11  15  -6   28.70   24.20
 -11  15   6   39.10   57.49
 -11  15   6   53.99   19.40
  -9 -15   6   67.89   55.79
   9 -15  -6   62.49   52.59
  -9 -15   6   61.49   23.30
   9 -15  -6  105.69   25.80
  -9 -15   6   -0.40   54.09
  -9  15   6   71.59   20.40
  -9  15   6   64.19   55.29
   7 -15  -6   71.49   50.89
   7 -15  -6   21.40   21.60
  -7 -15   6   51.89   46.80
  -7 -15   6  156.08   54.29
  -7 -15   6   66.59   18.50
   7  15  -6  -13.40   32.70
  -7  15   6   22.80   49.70
  -7  15   6   79.29   21.70
   5 -15  -6  163.58   33.70
  -5 -15   6  113.49   50.89
  -5 -15   6   99.39   21.60
  -5 -15   6  109.59   50.29
  -5 -15   6  123.89   21.80
   5 -15  -6  153.18   59.29
  -5  15   6  104.49   54.79
   5  15  -6  124.99   27.60
  -5  15   6  163.68   28.80
  -3 -15   6   23.50   39.90
  -3 -15   6   50.79   15.50
  -3 -15   6   47.20   13.90
   3 -15  -6  115.19   57.79
   3 -15  -6   35.40   18.90
  -3 -15   6   56.99   40.50
  -3  15   6   39.70   17.70
   3  15  -6   22.50   18.70
  -3  15   6   98.39   52.69
   1 -15  -6   82.49   26.30
   1 -15  -6  113.29   29.20
  -1 -15   6   69.19   41.40
  -1  15   6   33.90   60.99
   1  15  -6  111.69   26.40
  -1  15   6   92.69   22.70
   1 -15   6   15.50   38.40
  -1 -15  -6   15.30   22.10
  -1  15  -6   44.00   21.10
   1  15   6   55.79   22.40
   3 -15   6   47.80   37.80
   3  15   6   66.99   29.30
  14 -16  -6   -1.80   21.00
 -14 -16   6  -27.50   23.90
  14 -16  -6   63.89   22.40
 -14 -16   6 -173.88   94.09
 -12 -16   6   11.70   20.80
  12 -16  -6   36.50   21.60
 -12 -16   6   58.19   71.49
  12 -16  -6   88.99   63.39
 -12 -16   6   44.60   73.89
 -12  16   6    0.30   19.70
 -12  16   6   43.60   66.29
 -10 -16   6  -93.09   57.89
 -10 -16   6   14.30   59.09
  10 -16  -6   42.50   58.89
  10 -16  -6   33.90   19.60
 -10 -16   6   17.00   18.80
 -10  16   6  -66.49   53.49
 -10  16   6   25.10   18.30
  10  16  -6   41.20   44.00
   8 -16  -6  -21.80   17.30
  -8 -16   6   -8.60   13.50
   8 -16  -6   57.49   54.29
  -8 -16   6    0.20   50.99
  -8 -16   6   64.89   54.89
   8  16  -6    3.00   20.00
  -8  16   6  -10.90   50.69
  -8  16   6   -6.80   16.40
   6 -16  -6  -21.20   14.30
   6 -16  -6    5.30   18.20
   6 -16  -6  -32.00   51.49
  -6 -16   6   53.09   49.90
  -6 -16   6    4.20   15.50
  -6 -16   6    6.40   14.90
  -6 -16   6  -23.80   45.40
   6  16  -6    2.90   20.20
  -6  16   6    0.10   16.10
   4 -16  -6   12.40   19.60
  -4 -16   6   77.19   18.50
  -4 -16   6   69.29   18.50
   4 -16  -6   44.70   23.20
   4 -16  -6   45.90   55.99
  -4 -16   6   19.90   41.30
  -4 -16   6   58.29   41.90
  -4  16   6   51.19   22.40
   4  16  -6   88.39   31.00
  -4  16   6   26.50   52.49
  -2 -16   6   40.50   13.70
   2 -16  -6   40.10   19.10
   2 -16  -6   98.89   61.29
  -2 -16   6   49.70   45.10
  -2 -16   6   18.70   11.00
   2 -16  -6   34.20   22.90
  -2  16   6   29.00   17.60
  -2  16   6   83.99   57.59
   2  16  -6   43.00   20.90
   0 -16  -6   11.10   23.40
   0 -16  -6   70.39   68.29
   0 -16   6   55.19   47.20
   0  16   6   -9.70   57.19
   0  16  -6   10.20   19.20
   2 -16   6  -81.29   40.00
  -2 -16  -6    9.20   26.30
  -2  16  -6   12.20   23.30
   2  16   6    5.90   22.80
 -13 -17   6  -60.79   87.19
  13 -17  -6   30.10   21.80
 -13 -17   6   34.70   88.79
  13 -17  -6   -1.60   98.99
  13 -17  -6  -12.60   22.50
 -13 -17   6  -10.00   20.60
 -13  17   6   16.00   34.20
  11 -17  -6  104.79   70.69
 -11 -17   6  -31.90   67.99
  11 -17  -6   34.40   21.80
 -11 -17   6  -77.49   67.99
 -11 -17   6   -6.40   19.50
 -11  17   6   -9.90   19.80
 -11  17   6   82.79   71.49
  -9 -17   6  -14.80   16.00
  -9 -17   6   14.50   58.49
   9 -17  -6  -16.00   19.70
   9 -17  -6    2.40   18.80
   9 -17  -6   49.90   58.29
  -9  17   6   -3.70   15.70
  -9  17   6 -126.49   54.39
  -7 -17   6   19.70   22.90
   7 -17  -6   10.90   18.90
   7 -17  -6  -15.90   55.29
  -7 -17   6   -4.00   52.39
  -7 -17   6   -3.70   15.50
   7 -17  -6   14.90   21.50
  -7 -17   6   92.99   56.99
   7  17  -6   -2.00   25.00
  -7  17   6  -14.90   15.90
  -7  17   6  -45.70   55.79
  -5 -17   6   -7.90   48.40
  -5 -17   6 -101.49   46.60
   5 -17  -6   18.20   20.00
  -5 -17   6   17.80   15.10
  -5 -17   6  -10.40   15.20
   5 -17  -6   18.50   52.99
   5 -17  -6   32.00   23.60
  -5  17   6    0.40   16.20
  -5  17   6   27.00   56.39
   5  17  -6   20.90   21.00
   3 -17  -6   28.30   22.60
  -3 -17   6   28.90   14.70
  -3 -17   6   37.90   16.70
   3 -17  -6   16.90   60.39
  -3 -17   6   58.89   50.59
  -3  17   6   41.10   60.09
  -3  17   6    0.30   18.00
   3  17  -6  -20.80   21.10
  -1 -17   6   32.40   45.30
   1 -17  -6   -4.70   68.19
   1 -17  -6    9.40   19.60
  -1  17   6   10.90   17.90
  -1  17   6   -3.70   60.79
  -1 -17  -6   29.40   25.20
   1 -17   6   26.60   49.50
  -1  17  -6  -32.50   39.70
   1  17   6  -18.70   20.70
 -12 -18   6   80.89   87.39
  12 -18  -6  102.59   79.29
 -12 -18   6   -2.70   23.20
  10 -18  -6  139.89   73.49
  10 -18  -6   40.10   22.40
 -10 -18   6   15.50   74.19
 -10 -18   6    2.10   73.79
  10 -18  -6   12.90   23.50
 -10 -18   6  -46.80   19.60
 -10  18   6   79.79   75.59
 -10  18   6    8.70   20.60
  -8 -18   6   63.09   66.49
   8 -18  -6    3.80   19.50
   8 -18  -6   50.89   63.09
   8 -18  -6   -7.80   21.60
  -8 -18   6    8.30   21.40
  -8 -18   6   33.40   65.29
  -8 -18   6   23.20   18.50
  -8  18   6   13.40   20.30
  -8  18   6    7.40   61.49
   6 -18  -6    1.50   20.60
  -6 -18   6   12.60   54.69
   6 -18  -6   23.40   20.30
  -6 -18   6   96.19   59.59
   6 -18  -6   85.19   63.79
  -6 -18   6    8.00   17.20
  -6  18   6   35.20   21.80
  -6  18   6   -0.90   64.69
  -4 -18   6   39.20   54.89
  -4 -18   6   -3.00   16.70
   4 -18  -6   -0.30   18.50
  -4 -18   6   10.80   15.60
   4 -18  -6    1.30   65.09
   4  18  -6  -24.40   22.60
  -4  18   6    2.60   61.09
  -4  18   6   33.10   19.60
  -2 -18   6   32.00   54.29
  -2 -18   6   23.90   12.60
  -2 -18   6   -0.30   11.40
   2 -18  -6  -12.90   20.30
  -2  18   6  -22.50   17.30
  -2  18   6  115.89  112.09
   2  18  -6   73.99   25.90
   0 -18   6   85.69   55.19
   0 -18  -6    7.30   27.00
   0  18  -6   45.60   26.70
 -11 -19   6   26.90   88.19
 -11 -19   6   46.50   87.49
 -11 -19   6   12.00   26.30
  11 -19  -6   50.59   80.09
  11 -19  -6  -26.10   22.20
  11 -19  -6    2.50   25.60
 -11  19   6  -28.20   36.60
 -11  19   6  -45.10   92.89
  -9 -19   6   91.59   83.39
  -9 -19   6    0.80   19.10
   9 -19  -6   50.89   72.49
   9 -19  -6   12.40   21.10
   9 -19  -6   -0.70   24.80
  -9  19   6   -9.20   18.50
  -9  19   6   16.30   74.39
  -7 -19   6   21.80   19.50
   7 -19  -6 -124.29   68.09
  -7 -19   6    3.50   22.00
  -7 -19   6   81.89   70.79
  -7 -19   6  -29.30   68.09
   7 -19  -6   -9.80   18.60
  -7  19   6   -4.30   21.20
   5 -19  -6   34.70   25.80
  -5 -19   6   49.00   19.50
   5 -19  -6   17.30   70.49
  -5  19   6   21.80   21.20
  -5  19   6   50.89   69.19
  -3 -19   6  -10.40   15.60
   3 -19  -6   28.30   24.40
  -3 -19   6   34.40   60.39
  -3 -19   6   16.30   15.40
  -3  19   6   77.89   70.89
  -3  19   6  -10.70   20.20
  -1 -19   6  -14.40   58.89
   1  19  -6   -2.70   28.70
  -1  19   6   20.70   22.00
  10 -20  -6   -4.00   24.60
  10 -20  -6    8.80   29.60
 -10 -20   6   19.80   83.89
  10 -20  -6 -118.19   76.89
 -10 -20   6 -119.69   93.29
 -10  20   6   -5.10  110.29
 -10  20   6   22.50   26.00
   8 -20  -6   63.29   79.59
  -8 -20   6  -19.40   74.89
   8 -20  -6    9.50   22.20
  -8 -20   6   17.60   20.70
  -8 -20   6   14.30   85.09
  -8  20   6  -29.70   77.89
   6 -20  -6  -37.30   74.49
   6 -20  -6   21.50   24.70
  -6 -20   6   21.60   20.50
  -6 -20   6 -104.09   74.59
  -6 -20   6  -26.70   23.30
  -6  20   6    4.20   19.90
  -6  20   6 -151.48   66.29
  -4 -20   6  -39.00   64.89
  -4 -20   6    7.00   17.70
   4 -20  -6  -24.00   23.30
   4 -20  -6  -57.29   75.59
  -4 -20   6  -18.60   20.90
  -4  20   6  -21.00   19.70
  -4  20   6   25.00   73.69
   2 -20  -6  210.98   93.89
   2 -20  -6   -2.10   27.00
  -2 -20   6   20.30   15.90
  -2 -20   6   27.30   14.00
  -2 -20   6   80.49   68.19
  -2  20   6   14.30   76.39
  -2  20   6   24.20   23.00
  -9 -21   6   26.20  100.29
   9 -21  -6   22.50   88.69
   9 -21  -6    4.00   26.60
  -9 -21   6   51.19   91.29
  -9  21   6  -11.60   23.20
   7 -21  -6    1.10   25.90
  -7 -21   6  -45.30   86.49
   7 -21  -6  -10.20   91.09
  -7 -21   6   31.40   23.10
  -7  21   6   22.80   23.80
  -7  21   6   62.99   84.89
  -5 -21   6  194.58   85.69
  -5 -21   6    4.00   20.90
   5 -21  -6  113.89   91.89
  -5 -21   6    3.60   35.50
  -5  21   6   36.40   82.79
   3 -21  -6   32.80   30.20
  -3 -21   6   44.30   19.80
   3 -21  -6   55.39   94.19
  -3 -21   6   30.50   22.30
  -3  21   6   45.70   82.79
  18   0  -7    3.10   23.80
 -16   0   7   56.39   61.79
  16   0  -7  -55.59   58.99
 -16   0   7  -11.40   15.60
  16   0  -7  -11.10   18.60
  14   0  -7   -0.10   47.10
 -14   0   7  -26.40   46.90
 -14   0   7    8.30   14.60
  14   0  -7   -8.70   14.90
  12   0  -7   37.30   41.50
 -12   0   7    1.40   12.90
  12   0  -7    7.90   13.40
 -12   0   7  -22.60   34.60
 -10   0   7  -12.40   10.40
  10   0  -7   14.20   12.60
  10   0  -7    8.90   33.30
 -10   0   7   20.60   33.40
   8   0  -7   -1.70   10.00
  -8   0   7   25.00   28.00
   8   0  -7  -37.70   25.90
  -8   0   7   -4.90    8.50
  -6   0   7   -1.30    8.40
   6   0  -7   -7.00    8.40
  -6   0   7  -35.90   24.20
   6   0  -7   19.00   27.40
   4   0  -7    7.60   10.60
  -4   0   7    9.80   26.00
  -4   0   7    8.80    8.30
   4   0  -7    0.20   25.20
   2   0  -7   -6.20    9.60
   2   0  -7   13.80   25.90
  -2   0   7   -9.40   25.40
   0   0   7    4.20   28.10
   0   0  -7   20.60   12.00
   0   0   7   10.30   14.90
  -2   0  -7    2.10   12.50
   2   0   7    6.30   16.70
   4   0   7  -10.50   19.80
  -4   0  -7   -9.40   16.90
  17  -1  -7   -7.30   21.40
 -17  -1   7    1.80   21.20
 -17  -1   7   34.30   73.59
  17   1  -7  -25.30   21.70
 -17   1   7  100.39   65.19
  17   1  -7    0.60   73.99
 -17   1   7   15.30   22.70
  15  -1  -7   16.30   17.50
  15  -1  -7  -68.89   52.29
 -15  -1   7   -8.40   14.80
 -15  -1   7   -6.50   48.50
 -15   1   7    8.80   50.09
  15   1  -7   -1.50   16.90
  15   1  -7  102.39   60.99
 -15   1   7    0.70   14.70
 -13  -1   7   13.50   13.60
  13  -1  -7    0.80   13.90
 -13  -1   7   39.30   40.10
  13  -1  -7   14.30   45.80
 -13   1   7   -5.20   40.20
  13   1  -7   66.19   48.20
 -13   1   7    4.90   15.00
  13   1  -7   32.40   15.90
  11  -1  -7   20.70   14.80
 -11  -1   7   16.70   11.70
  11  -1  -7   57.19   39.60
 -11  -1   7   30.30   35.50
 -11   1   7   58.19   20.50
  11   1  -7    8.30   37.00
  11   1  -7   -0.60   13.80
 -11   1   7   31.90   36.80
   9  -1  -7   11.50   30.50
   9  -1  -7   52.49   14.80
  -9  -1   7  119.29   39.30
  -9  -1   7   42.80   15.50
   9   1  -7  100.49   39.90
   9   1  -7  102.79   22.10
  -9   1   7   58.49   33.10
  -9   1   7   34.80   15.20
  -7  -1   7   36.40   14.30
   7  -1  -7   23.40   30.20
  -7  -1   7   94.09   35.70
   7  -1  -7   17.70   10.70
  -7   1   7   36.50   29.80
   7   1  -7   48.90   16.30
   7   1  -7   12.70   33.10
  -7   1   7   25.10   14.10
   5  -1  -7   79.69   18.70
  -5  -1   7   80.69   16.40
   5  -1  -7   51.49   31.20
  -5  -1   7  103.49   33.60
   5   1  -7   57.29   32.40
   5   1  -7   95.79   20.20
  -5   1   7   64.89   15.50
  -5   1   7   -5.40   24.20
   3  -1  -7   15.40   28.50
  -3  -1   7   51.19   31.40
  -3  -1   7   23.90    9.70
   3  -1  -7   41.60   14.20
  -3   1   7   64.49   31.60
   3   1  -7   10.60   11.50
  -3   1   7   42.90   11.50
   3   1  -7   35.10   30.40
   1  -1  -7   -0.40   28.00
   1  -1  -7   20.00   10.70
  -1  -1   7   14.50   26.10
  -1  -1   7    1.70   11.70
  -1   1   7  -23.00   27.10
   1   1  -7   12.60   10.40
  -1   1   7    9.80    6.80
  -1  -1  -7   44.30   15.20
   1  -1   7   11.30   16.80
   1  -1   7   -8.50   26.00
   1   1   7   29.80   32.10
  -1   1  -7   23.00   13.90
  -1   1  -7   -1.30   29.90
   1   1   7   32.80   17.30
  -3  -1  -7    5.60   15.40
   3  -1   7   25.40   20.20
  -3   1  -7    2.30   15.30
   3   1   7  -13.90   18.30
   5  -1   7  -29.70   25.70
  -5  -1  -7   -7.20   19.50
  -5   1  -7   -0.70   19.70
   5   1   7   18.80   25.50
  18  -2  -7  -32.10   23.00
  18   2  -7   -1.10   26.20
 -16  -2   7  -30.40   55.49
 -16  -2   7   16.50   19.00
  16  -2  -7   -6.10   18.70
  16  -2  -7   77.99   64.19
 -16   2   7   37.60   63.69
  16   2  -7    6.40   21.20
 -16   2   7   20.20   17.50
  16   2  -7   -5.30   62.59
  14  -2  -7    3.90   46.20
 -14  -2   7  -12.60   44.80
  14  -2  -7    9.60   16.60
 -14  -2   7   62.89   21.80
  14   2  -7   41.90   19.20
  14   2  -7   47.10   54.09
 -14   2   7   51.99   19.80
 -12  -2   7   16.00   11.90
  12  -2  -7   -1.20   14.00
 -12  -2   7    9.80   38.60
  12  -2  -7   -4.60   38.20
  12   2  -7   28.40   39.70
 -12   2   7   18.90   12.90
  12   2  -7   -0.70   13.00
 -12   2   7   19.10   37.00
  10  -2  -7   45.90   36.90
 -10  -2   7    7.60   11.00
 -10  -2   7   19.60   32.10
  10  -2  -7   42.50   15.20
  10   2  -7   -3.50   32.50
 -10   2   7    8.70   11.50
 -10   2   7   -8.20   29.60
  10   2  -7   15.60   13.00
   8  -2  -7  105.59   39.10
  -8  -2   7   98.09   20.80
   8  -2  -7  129.09   25.00
  -8  -2   7   90.89   36.60
   8   2  -7   53.09   38.80
  -8   2   7   37.80   31.20
  -8   2   7  134.29   23.80
   8   2  -7  116.49   23.90
   6  -2  -7  267.77   52.79
  -6  -2   7  287.97   54.59
   6  -2  -7  209.68   25.50
  -6  -2   7  266.77   25.80
   6   2  -7  198.48   46.40
  -6   2   7  209.18   24.40
   6   2  -7  254.17   28.50
  -6   2   7  318.37   56.79
   4  -2  -7  108.49   38.50
   4  -2  -7   79.59   18.40
  -4  -2   7   78.89   30.00
  -4  -2   7  115.19   17.60
  -4   2   7  102.49   38.10
   4   2  -7   84.69   18.90
  -4   2   7   79.79   16.40
   4   2  -7   65.59   32.50
   2  -2  -7   21.50   11.80
  -2  -2   7    1.70   11.50
  -2  -2   7    2.10   26.10
  -2  -2   7   23.30    8.30
   2  -2  -7   30.40   29.40
  -2   2   7   -1.50   28.40
   2   2  -7   22.80   11.60
   2   2  -7  -21.50   25.60
  -2   2   7   11.90    8.60
   0  -2   7   42.40   29.10
   0  -2  -7   47.80   16.90
   0  -2   7   42.50   18.50
   0   2   7   55.29   31.00
   0   2  -7   67.79   18.40
   0   2   7   16.70   16.50
  -2  -2  -7   35.70   16.00
   2  -2   7   35.80   21.10
  -2   2  -7   61.09   17.50
   2   2   7   40.30   20.80
  -4  -2  -7    1.20   17.90
   4  -2   7    3.90   17.70
   4  -2   7   11.70   20.80
   4   2   7    5.80   22.30
  -4   2  -7   -1.80   16.80
 -17  -3   7   55.89   69.79
  17  -3  -7   43.30   21.30
 -17  -3   7   17.00   23.00
 -17   3   7   11.70   22.10
  17   3  -7   18.50   25.60
 -17   3   7  -34.90   63.19
 -15  -3   7  -16.70   50.99
 -15  -3   7   42.80   22.00
  15  -3  -7   36.70   19.00
  15  -3  -7   44.00   56.89
 -15   3   7   28.70   52.59
  15   3  -7  -34.90   53.19
 -15   3   7   49.80   21.90
  15   3  -7   18.70   20.30
  13  -3  -7  -11.40   14.00
 -13  -3   7   -3.70   13.20
  13  -3  -7    7.50   43.20
 -13  -3   7   46.00   43.70
 -13   3   7   -9.20   11.20
  13   3  -7  -46.40   44.00
  13   3  -7   -1.30   15.30
 -13   3   7    7.10   44.30
  11  -3  -7   21.50   14.30
  11  -3  -7   32.90   36.70
 -11  -3   7   48.40   36.00
 -11   3   7   32.90   36.20
  11   3  -7    5.00   12.70
  11   3  -7   62.29   41.50
  -9  -3   7   16.30   12.50
   9  -3  -7   35.00   15.00
  -9  -3   7    1.70   31.10
   9  -3  -7   10.80   31.50
  -9   3   7   27.10   13.90
  -9   3   7    2.30   30.00
   9   3  -7   73.59   36.70
   9   3  -7   -3.40   12.70
   7  -3  -7  229.18   27.60
  -7  -3   7  214.98   25.00
   7  -3  -7  190.18   46.10
  -7  -3   7  139.89   42.80
   7   3  -7  256.17   28.80
  -7   3   7  223.88   51.19
   7   3  -7  270.47   56.39
  -7   3   7  162.38   25.70
  -5  -3   7  348.37   27.90
   5  -3  -7  264.17   49.10
  -5  -3   7  318.17   52.59
   5  -3  -7  321.87   31.30
   5   3  -7  354.56   58.69
  -5   3   7  388.56   60.29
  -5   3   7  293.47   28.50
   5   3  -7  337.07   31.30
   3  -3  -7    1.00   27.30
  -3  -3   7    9.90   24.50
   3  -3  -7   30.20   13.20
  -3  -3   7   12.90    8.40
   3   3  -7   42.10   13.10
   3   3  -7   57.09   31.60
  -3   3   7    3.60    8.80
  -3   3   7   45.70   29.70
   1  -3  -7    6.50   11.60
  -1  -3   7   14.60   12.10
   1  -3  -7    8.80   36.80
  -1  -3   7    2.50   25.00
  -1   3   7   12.70   13.30
   1   3  -7   -2.70   10.80
  -1   3   7   -2.30   27.60
   1  -3   7   34.00   17.00
  -1  -3  -7   54.29   18.70
   1  -3   7  115.59   33.40
  -1   3  -7   60.89   16.30
   1   3   7   61.09   38.00
  -1   3  -7   17.10   32.80
   1   3   7   68.69   22.60
   3  -3   7   -4.30   15.50
  -3  -3  -7   12.80   17.00
   3   3   7   40.60   24.10
  -3   3  -7   24.90   16.10
  16  -4  -7  -44.40   56.79
 -16  -4   7  -36.10   61.19
 -16  -4   7    3.20   19.60
  16  -4  -7   23.50   18.90
  16   4  -7   83.39   73.79
 -16   4   7  117.89   65.69
 -16   4   7   30.30   22.20
 -14  -4   7  -17.20   46.90
  14  -4  -7   23.80   17.80
 -14  -4   7   30.10   18.20
 -14   4   7   29.00   18.80
  14   4  -7   82.39   56.09
 -14   4   7    6.00   47.00
  12  -4  -7    7.70   13.70
 -12  -4   7   77.89   42.80
  12  -4  -7   59.79   41.90
 -12  -4   7   13.80   14.60
  12   4  -7   24.50   16.20
  12   4  -7  -40.80   39.00
 -12   4   7  -33.90   36.60
 -12   4   7   27.70   17.00
  10  -4  -7   69.69   38.70
 -10  -4   7   34.00   13.20
 -10  -4   7   37.70   37.50
  10  -4  -7   44.30   16.10
  10   4  -7   62.79   39.10
 -10   4   7   52.79   35.90
 -10   4   7   33.60   14.60
  10   4  -7   44.00   18.10
   8  -4  -7   16.60   28.60
  -8  -4   7  -37.00   26.40
  -8  -4   7   10.50   10.10
   8  -4  -7  -15.00   10.10
  -8   4   7    7.80   10.50
   8   4  -7    0.60   11.10
   8   4  -7   17.30   49.60
  -8   4   7    5.20   31.50
  -6  -4   7  531.85   37.40
  -6  -4   7  469.75   67.79
   6  -4  -7  520.85   62.39
   6  -4  -7  623.34   43.20
   6   4  -7  503.65   40.50
  -6   4   7  509.05   38.70
  -6   4   7  526.95   64.79
   6   4  -7  735.23   71.29
  -4  -4   7  152.98   18.40
   4  -4  -7  157.38   41.40
  -4  -4   7  180.08   40.60
   4  -4  -7  133.79   22.80
   4   4  -7  123.69   40.40
  -4   4   7  185.08   46.40
   4   4  -7  150.98   24.60
  -4   4   7  141.09   21.30
   2  -4  -7   42.80   15.00
  -2  -4   7   25.00   14.60
  -2  -4   7   29.50   25.80
  -2  -4   7    7.90    6.70
   2  -4  -7   18.80   29.00
  -2   4   7   21.50    9.90
   2   4  -7  -10.20    9.00
  -2   4   7   -0.60   28.50
   2   4  -7   27.60   31.70
   0  -4  -7  135.09   25.30
   0  -4  -7   73.39   38.10
   0  -4   7  135.49   36.50
   0  -4   7   55.19   24.50
   0   4   7  116.89   28.70
   0   4   7   64.19   36.20
   0   4  -7   90.49   19.90
   2  -4   7  -27.20   14.40
  -2  -4  -7    8.80   15.80
   2   4   7   24.40   20.30
  -2   4  -7    7.60   13.80
  -4  -4  -7  -48.70   18.50
   4  -4   7   35.10   23.50
  -4   4  -7    5.40   16.60
   4   4   7   48.20   41.30
  17  -5  -7   19.70   21.30
  17  -5  -7   31.50   71.69
 -17  -5   7   -3.90   27.90
 -17  -5   7  102.69   79.79
 -17  -5   7   -3.00   22.90
 -17   5   7   49.70   70.49
 -17   5   7   32.70   22.60
  15  -5  -7  -17.70   16.60
 -15  -5   7    4.90   52.79
 -15  -5   7   78.09   25.00
  15  -5  -7  132.69   58.79
  15   5  -7   45.10   65.19
 -15   5   7   98.99   59.39
 -15   5   7   28.30   18.60
 -13  -5   7   22.00   16.20
 -13  -5   7   -6.70   43.80
  13  -5  -7   40.70   18.00
  13  -5  -7   26.10   45.60
 -13   5   7   36.60   18.10
  13   5  -7  107.99   53.59
 -13   5   7   92.69   51.49
  11  -5  -7   42.00   17.30
 -11  -5   7   86.39   23.80
  11  -5  -7   76.59   42.40
 -11  -5   7  101.89   45.50
  11   5  -7   80.29   21.90
 -11   5   7   82.79   41.20
 -11   5   7   32.40   14.20
  11   5  -7  103.19   46.30
   9  -5  -7  106.29   20.90
   9  -5  -7   40.00   34.70
  -9  -5   7  121.79   21.60
  -9  -5   7  125.29   43.30
  -9   5   7   65.29   37.70
  -9   5   7   83.29   20.20
   9   5  -7  142.09   31.80
   9   5  -7  220.48   52.49
  -7  -5   7   19.30   11.50
  -7  -5   7   16.80   30.30
   7  -5  -7   26.00   32.00
   7  -5  -7   19.40   13.90
   7   5  -7  -38.80   29.00
  -7   5   7   20.80   29.20
   7   5  -7   14.50   14.20
  -7   5   7   11.30   10.60
   5  -5  -7  538.35   64.09
   5  -5  -7  482.45   38.70
  -5  -5   7  374.46   60.69
  -5  -5   7  439.76   32.80
  -5   5   7  461.65   35.60
   5   5  -7  478.15   38.20
   5   5  -7  453.25   67.19
  -5   5   7  503.25   64.49
  -3  -5   7  279.97   29.50
   3  -5  -7  292.77   30.70
  -3  -5   7  225.18   20.70
  -3  -5   7  292.07   51.69
   3  -5  -7  194.78   46.20
   3   5  -7  291.57   51.49
  -3   5   7  268.97   24.90
   3   5  -7  247.98   27.20
  -3   5   7  340.47   61.59
  -1  -5   7  179.08   50.49
  -1  -5   7  130.59   25.70
   1  -5  -7  136.99   26.00
   1   5  -7  150.28   23.30
  -1   5   7  159.28   47.30
  -1   5   7  136.49   18.40
   1  -5   7    9.00   27.50
  -1  -5  -7   32.20   17.90
  -1  -5  -7   86.39   40.40
   1  -5   7   33.00   16.50
  -1   5  -7   26.10   14.80
   1   5   7   26.20   19.70
  -1   5  -7   26.80   29.80
   1   5   7   33.60   37.20
   3  -5   7   32.30   21.60
  -3  -5  -7   51.39   20.80
   3  -5   7   25.40   24.10
   3   5   7   43.50   25.60
  -3   5  -7   14.40   18.30
  16  -6  -7   14.50   70.89
  16  -6  -7    7.20   19.60
 -16  -6   7    2.00   20.90
 -16  -6   7  -57.19   65.59
 -16   6   7   30.70   20.70
 -16   6   7  -21.10   61.39
  14  -6  -7   16.80   17.50
  14  -6  -7   26.90   51.39
 -14  -6   7  -29.80   49.40
 -14  -6   7   70.99   22.90
 -14   6   7  104.99   23.90
  14   6  -7   92.69   60.89
 -14   6   7    8.40   48.00
  12  -6  -7   31.10   17.70
  12  -6  -7   36.80   44.70
 -12  -6   7   49.20   19.10
 -12  -6   7  116.39   50.39
 -12   6   7   56.09   18.70
  12   6  -7   69.39   47.80
 -12   6   7   74.89   43.60
 -10  -6   7  210.08   51.39
  10  -6  -7  245.98   34.60
 -10  -6   7  323.07   36.30
  10  -6  -7  252.27   55.59
  10   6  -7  318.97   34.20
  10   6  -7  260.87   61.19
 -10   6   7  245.38   55.09
   8  -6  -7  150.48   25.70
  -8  -6   7  168.68   27.10
  -8  -6   7  198.18   51.19
   8  -6  -7  124.79   40.80
  -8   6   7  135.19   24.50
   8   6  -7  216.98   52.09
  -8   6   7  149.29   45.40
   8   6  -7  160.28   26.90
  -6  -6   7  195.68   23.30
   6  -6  -7  197.38   30.00
  -6  -6   7  296.37   54.89
   6  -6  -7  198.78   48.10
  -6   6   7  177.38   27.10
   6   6  -7  181.68   30.10
   6   6  -7  177.08   46.20
  -6   6   7  164.38   46.30
   4  -6  -7  563.64   43.90
  -4  -6   7  657.03   44.00
   4  -6  -7  650.83   70.69
  -4  -6   7  635.14   68.49
  -4  -6   7  668.23   38.10
   4   6  -7  636.04   44.70
  -4   6   7  701.43   75.29
  -4   6   7  599.64   41.40
   4   6  -7  608.44   68.29
  -2  -6   7  480.45   39.50
  -2  -6   7  444.76   60.99
   2  -6  -7  487.55   68.69
  -2  -6   7  429.76   22.20
  -2  -6   7  473.05   22.70
   2  -6  -7  437.86   38.30
   2   6  -7  480.85   36.50
  -2   6   7  416.06   66.69
  -2   6   7  437.06   32.80
   2   6  -7  366.46   74.89
   0  -6  -7   58.49   17.70
   0  -6   7   15.90   15.90
   0  -6  -7   34.20   40.40
   0  -6   7   21.40   26.80
   0   6   7   30.00   18.20
   0   6  -7   28.90   13.20
   0   6  -7   13.20   40.40
   0   6   7   10.80   36.50
  -2  -6  -7  114.69   25.70
   2  -6   7  114.49   28.60
   2  -6   7  113.79   30.50
   2   6   7   86.79   28.40
  -2   6  -7  104.59   22.20
   4  -6   7   22.50   23.00
  -4  -6  -7   34.70   40.60
   4   6   7   67.99   29.70
  -4   6  -7   16.60   17.90
 -17  -7   7   31.80   29.00
  17  -7  -7   65.09   85.99
  17  -7  -7   58.69   22.20
 -17  -7   7    9.60   29.30
 -17   7   7   33.60   25.90
  17   7  -7   -2.20   30.10
 -15  -7   7  -12.10   20.50
 -15  -7   7   60.09   59.29
  15  -7  -7   31.80   20.40
  15  -7  -7   23.10   56.99
 -15  -7   7   91.09   65.19
 -15   7   7   17.40   58.29
 -15   7   7   57.59   21.70
  15   7  -7   27.40   28.80
  13  -7  -7   90.89   22.50
 -13  -7   7  106.99   53.29
  13  -7  -7  118.49   53.39
 -13  -7   7   17.50   18.70
 -13   7   7   52.79   46.10
  13   7  -7   79.39   54.09
 -13   7   7   69.09   21.70
  11  -7  -7   56.19   47.00
 -11  -7   7  212.88   32.60
 -11  -7   7  137.39   49.70
  11  -7  -7  128.29   23.10
  11   7  -7  182.18   55.69
 -11   7   7  145.89   52.39
 -11   7   7  107.69   23.60
   9  -7  -7  151.68   48.40
  -9  -7   7  265.27   31.60
   9  -7  -7  280.37   32.30
  -9  -7   7  246.38   62.19
   9   7  -7  276.37   59.19
  -9   7   7  302.47   62.59
  -9   7   7  264.77   38.30
   7  -7  -7  196.38   56.89
  -7  -7   7  218.38   26.10
  -7  -7   7  238.08   49.10
   7   7  -7  247.28   53.09
   7   7  -7  192.68   29.40
  -7   7   7  259.97   54.49
  -7   7   7  240.28   33.30
   5  -7  -7  286.07   31.30
  -5  -7   7  322.77   27.50
  -5  -7   7  356.16   59.99
   5  -7  -7  326.37   60.69
   5   7  -7  259.37   30.10
   5   7  -7  331.47   58.89
  -5   7   7  294.67   59.69
  -5   7   7  312.87   30.40
   3  -7  -7  809.82   81.99
  -3  -7   7  736.53   72.79
  -3  -7   7  816.12   40.70
   3  -7  -7  806.12   53.09
  -3  -7   7  894.31   53.29
   3   7  -7  982.90   54.59
   3   7  -7  741.43   77.19
  -3   7   7  712.33   80.59
  -3   7   7  802.52   48.10
   1  -7  -7  200.98   31.00
  -1  -7   7  192.78   30.80
  -1  -7   7  220.58   42.40
  -1   7   7  242.38   83.39
  -1   7   7  228.18   23.80
   1   7  -7  201.58   28.30
   1  -7   7  148.49   30.20
  -1  -7  -7  144.19   27.50
  -1   7  -7  124.79   22.50
   1   7   7  152.68   34.10
  -3  -7  -7   33.20   24.80
   3  -7   7   23.80   21.10
   3   7   7   47.50   26.80
  -3   7  -7   57.39   18.70
 -16  -8   7   39.00   25.50
 -16  -8   7   62.49   27.50
  16  -8  -7   49.10   21.60
 -16  -8   7   75.29   77.39
 -16   8   7   41.90   66.99
  16   8  -7   12.80   30.90
 -16   8   7   36.10   24.50
 -14  -8   7  155.48   65.29
 -14  -8   7   60.29   23.90
  14  -8  -7   84.89   54.19
  14  -8  -7   69.99   21.20
 -14  -8   7   14.10   65.29
 -14   8   7   71.59   22.40
 -14   8   7   68.49   58.79
  14   8  -7   66.29   27.20
 -12  -8   7  121.59   53.59
 -12  -8   7  178.08   30.90
  12  -8  -7   91.59   20.60
  12  -8  -7  120.09   52.49
 -12   8   7   80.29   51.09
 -12   8   7  121.09   27.90
  10  -8  -7  289.97   63.59
 -10  -8   7  483.55   96.49
 -10  -8   7  480.45   40.10
  10  -8  -7  388.76   38.00
 -10   8   7  340.57   65.29
  10   8  -7  418.76   76.09
 -10   8   7  377.76   37.00
   8  -8  -7  112.59   22.30
  -8  -8   7  139.99   47.70
   8  -8  -7  106.49   45.00
  -8  -8   7  146.89   25.00
   8   8  -7  194.38   31.30
   8   8  -7  192.08   50.89
  -8   8   7  153.98   29.40
  -8   8   7  182.38   52.99
   6  -8  -7  362.26   65.29
  -6  -8   7  325.77   30.70
  -6  -8   7  308.87   57.59
  -6   8   7  326.77   32.20
   6   8  -7  396.56   37.20
  -6   8   7  315.77   59.29
   6   8  -7  482.95   73.99
  -4  -8   7  402.46   33.90
   4  -8  -7  437.96   37.70
  -4  -8   7  336.47   57.19
  -4  -8   7  450.05   30.60
   4  -8  -7  435.66   66.69
   4   8  -7  407.16   63.19
  -4   8   7  405.16   34.90
   4   8  -7  477.25   38.50
  -4   8   7  387.16   68.09
  -2  -8   7  454.45   38.40
   2  -8  -7  486.35   72.39
   2  -8  -7  410.56   39.30
  -2  -8   7  412.76   19.10
   2   8  -7  373.36   35.90
  -2   8   7  382.66   32.70
  -2   8   7  286.17   59.29
   0  -8   7  252.87   36.70
   0  -8   7  185.08   40.40
   0  -8  -7  202.58   32.00
   0  -8   7  241.78   42.60
   0  -8  -7  182.68   52.99
   0   8   7  204.38   38.20
   0   8   7  219.28   53.79
   0   8  -7  259.57   29.40
   2  -8   7   66.69   25.90
   2  -8   7   67.09   30.00
   2   8   7   53.79   29.20
  -2   8  -7   86.29   21.70
  -4  -8  -7   57.49   29.60
   4  -8   7   72.79   28.70
  -4   8  -7   76.19   23.00
   4   8   7   95.39   33.80
  15  -9  -7  104.79   25.60
  15  -9  -7  145.29   71.79
 -15  -9   7   52.39   25.80
 -15  -9   7   76.69   23.70
 -15  -9   7   98.09   66.89
 -15  -9   7   57.59   66.59
  15   9  -7   92.69   31.10
 -15   9   7   86.59   27.30
 -15   9   7   69.09   63.49
  13  -9  -7   86.29   23.80
 -13  -9   7   36.30   55.79
 -13  -9   7   84.09   25.50
 -13  -9   7  101.89   55.79
  13  -9  -7  127.49   57.89
  13   9  -7  109.79   31.90
 -13   9   7  113.49   54.39
 -13   9   7  136.99   30.40
  11  -9  -7   87.99   50.59
 -11  -9   7  180.78   31.80
 -11  -9   7  317.17   69.89
  11  -9  -7  138.39   26.90
 -11   9   7  183.48   30.30
 -11   9   7  164.68   61.79
   9  -9  -7  394.56   68.89
  -9  -9   7  372.66   70.59
   9  -9  -7  321.67   33.50
  -9   9   7  321.67   34.00
  -9   9   7  257.87   63.39
  -7  -9   7  350.66   62.79
   7  -9  -7  246.58   92.59
  -7  -9   7  497.05   38.50
   7   9  -7  555.14   70.99
  -7   9   7  428.36   43.50
  -7   9   7  451.45   71.69
   7   9  -7  494.45   42.60
  -5  -9   7  410.96   32.10
   5  -9  -7  402.56   36.30
  -5  -9   7  379.96   31.40
  -5  -9   7  462.75   72.39
   5  -9  -7  292.37   60.29
   5   9  -7  377.16   37.50
  -5   9   7  387.16   36.50
  -5   9   7  378.86   67.89
  -3  -9   7  272.97   28.80
  -3  -9   7  257.87   53.29
   3  -9  -7  344.17   35.70
   3  -9  -7  145.19   52.99
  -3  -9   7  267.57   21.70
  -3  -9   7  254.97   25.10
  -3   9   7  268.27   29.30
  -3   9   7  220.58   59.59
   3   9  -7  248.68   30.40
  -1  -9   7  710.83   69.29
   1  -9  -7  527.75   83.49
   1  -9  -7  601.54   47.90
  -1  -9   7  634.24   48.20
  -1  -9   7  632.64   67.29
   1   9  -7  567.44   44.00
  -1   9   7  583.04   87.19
  -1   9   7  652.33   41.70
   1  -9   7  133.19   29.60
   1  -9   7  144.79   38.60
  -1   9  -7  149.79   26.80
   1   9   7  150.08   35.80
   3  -9   7   73.69   21.70
  -3  -9  -7  153.38   30.20
   3  -9   7   42.10   25.60
  -3   9  -7  103.09   23.00
 -16 -10   7  148.79   85.79
 -16 -10   7   61.49   30.10
  16 -10  -7  102.69   26.80
  16 -10  -7   98.09   25.00
 -16 -10   7   35.30   27.90
 -16  10   7  137.39   34.50
  16  10  -7   73.79   43.10
 -14 -10   7   94.39   27.30
  14 -10  -7  132.29   27.20
 -14 -10   7  168.78   64.99
 -14 -10   7  105.69   22.80
  14 -10  -7   38.20   59.99
 -14  10   7  130.69   28.60
 -14  10   7   37.10   67.09
  14  10  -7  129.89   35.00
 -12 -10   7  169.78   33.30
  12 -10  -7  233.08   35.40
 -12 -10   7  140.09   58.59
 -12 -10   7  216.38   62.09
  12 -10  -7  120.19   55.59
 -12  10   7  169.98   63.59
 -12  10   7  172.98   31.70
  12  10  -7  142.19   30.50
 -10 -10   7  239.38   62.99
 -10 -10   7  297.77   66.19
 -10 -10   7  211.08   33.00
  10 -10  -7  216.08   37.70
  10 -10  -7  142.79   54.59
 -10  10   7  291.57   69.99
 -10  10   7  293.17   40.20
  -8 -10   7  548.35   79.49
   8 -10  -7  443.96   72.39
  -8 -10   7  577.64   45.30
   8  10  -7  602.24   49.20
  -8  10   7  626.94   47.80
  -8  10   7  572.44   83.49
  -6 -10   7  393.26   67.89
  -6 -10   7  427.46   31.10
  -6 -10   7  410.46   34.30
   6 -10  -7  511.85   78.29
   6  10  -7  411.96   40.50
  -6  10   7  407.16   72.99
  -4 -10   7  307.87   28.60
  -4 -10   7  353.66   60.69
   4 -10  -7  222.58   56.19
  -4 -10   7  366.86   60.19
   4 -10  -7  311.57   35.10
  -4 -10   7  328.57   27.00
  -4  10   7  275.97   31.50
   4  10  -7  246.98   35.40
  -4  10   7  328.47   64.79
  -2 -10   7  546.45   67.79
   2 -10  -7  590.54   48.10
  -2 -10   7  592.54   68.59
  -2 -10   7  571.44   43.40
  -2  10   7  452.35   72.29
   2  10  -7  568.34   43.90
  -2  10   7  573.24   42.00
   0 -10  -7  434.76  110.09
   0 -10   7  381.76   54.39
   0 -10  -7  270.87   49.10
   0 -10   7  316.37   37.70
   0  10   7  357.86   50.89
   0  10  -7  289.37   34.20
   0  10   7  215.38   66.59
   2 -10   7  126.49   31.90
  -2 -10  -7  152.38   32.80
   2 -10   7  144.79   36.10
   2  10   7  143.19   36.70
  -2  10  -7  157.98   30.60
 -15 -11   7   54.39   74.29
 -15 -11   7  163.08   31.70
  15 -11  -7  144.29   28.40
  15 -11  -7  136.89   28.00
 -15 -11   7  112.39   34.10
  15 -11  -7  202.48   77.89
 -15 -11   7  142.39   82.39
 -15  11   7  157.68   37.00
 -15  11   7   75.99   76.69
  13 -11  -7  159.68   71.19
 -13 -11   7  191.28   34.60
 -13 -11   7  137.59   66.69
 -13 -11   7  141.29   67.79
 -13 -11   7  246.18   29.10
 -13  11   7  186.38   67.69
  13  11  -7  263.77   43.50
 -13  11   7  219.58   35.60
 -11 -11   7  114.69   55.09
  11 -11  -7  119.29   51.99
 -11 -11   7  284.77   41.10
 -11 -11   7  157.18   57.79
 -11  11   7  183.08   32.40
  11  11  -7  150.88   31.60
 -11  11   7  243.28   64.89
  -9 -11   7  496.85   79.09
  -9 -11   7  555.54   45.10
  -9 -11   7  507.85   78.79
   9 -11  -7  652.03   90.89
  -9  11   7  594.74   48.50
  -9  11   7  547.05   87.59
  -7 -11   7  728.73   85.49
   7 -11  -7  845.92   93.19
  -7 -11   7  907.81   86.49
  -7 -11   7  723.83   49.30
  -7  11   7  733.53   52.89
  -7  11   7  567.24  117.59
   7  11  -7  708.23   54.69
  -5 -11   7  279.47   26.30
  -5 -11   7  333.07   59.39
   5 -11  -7  422.06   76.99
  -5 -11   7  306.57   29.00
  -5 -11   7  255.27   54.49
   5  11  -7  369.06   39.20
  -5  11   7  268.97   41.30
  -5  11   7  198.58   53.99
  -3 -11   7  424.56   30.60
   3 -11  -7  411.86   74.29
   3 -11  -7  399.36   64.89
  -3 -11   7  402.86   66.79
  -3 -11   7  383.36   27.00
  -3 -11   7  411.36   66.49
  -3 -11   7  474.35   37.00
  -3  11   7  361.06   68.99
  -3  11   7  364.36   35.90
   3  11  -7  428.76   40.10
  -1 -11   7  409.96   62.79
   1 -11  -7  186.68   59.19
  -1 -11   7  456.15   40.70
   1 -11  -7  401.46   43.10
  -1  11   7  414.66   36.60
   1  11  -7  428.26   39.80
  -1  11   7  290.57   69.19
   1 -11   7  333.97   46.60
  -1 -11  -7  299.77   43.40
   1 -11   7  219.38   46.90
  -1  11  -7  281.37   37.70
   1  11   7  287.37   48.00
  -3 -11  -7  122.49   35.60
  -3  11  -7  113.99   27.60
   3  11   7   98.19   35.90
  14 -12  -7  230.88   55.39
 -14 -12   7   89.99   69.89
 -14 -12   7  148.99   24.70
  14 -12  -7  157.18   73.59
 -14 -12   7  192.78   38.00
  14 -12  -7  208.98   34.90
 -14  12   7  126.39   76.29
 -14  12   7  143.09   32.30
 -12 -12   7  232.08   70.79
 -12 -12   7  180.68   66.09
 -12 -12   7  235.18   36.70
 -12 -12   7  282.37   26.50
  12 -12  -7  132.99   58.39
 -12  12   7  307.87   74.39
 -12  12   7  266.77   39.10
  12  12  -7  242.28   44.50
 -10 -12   7  294.17   40.60
  10 -12  -7  283.17   66.19
 -10 -12   7  263.57   67.99
 -10 -12   7  178.58   62.99
 -10  12   7  282.17   34.30
 -10  12   7  288.67   68.99
   8 -12  -7  601.94   88.09
  -8 -12   7  623.94   33.20
  -8 -12   7  722.43   97.29
  -8 -12   7  693.73   87.79
  -8 -12   7  586.94   54.09
  -8  12   7  605.14   51.09
  -8  12   7  614.84   89.99
  -6 -12   7  492.35   39.70
  -6 -12   7  319.47   68.39
  -6 -12   7  524.65   79.59
   6 -12  -7  575.74   84.79
  -6  12   7  607.74   89.69
   6  12  -7  506.85   45.40
  -6  12   7  564.44   46.00
   4 -12  -7  447.26   81.39
  -4 -12   7  444.46   68.89
  -4 -12   7  439.86   72.19
   4 -12  -7  351.86   44.10
  -4 -12   7  368.26   33.60
  -4 -12   7  410.36   31.70
  -4 -12   7  434.26   32.90
   4  12  -7  457.45   43.20
  -4  12   7  365.26   37.30
  -4  12   7  456.65   81.39
  -2 -12   7  321.47   33.60
   2 -12  -7  298.97   42.70
  -2 -12   7  291.77   56.69
  -2 -12   7  191.48   60.29
   2 -12  -7  234.88  112.89
   2  12  -7  304.47   36.50
  -2  12   7  272.87   73.39
  -2  12   7  243.98   34.10
   0 -12   7  366.66   38.30
   0 -12  -7  309.87   42.90
   0 -12   7  229.98   53.59
   0  12  -7  322.27   37.40
   0  12   7  297.37   47.40
   2 -12   7  223.38   45.90
  -2 -12  -7  270.57   45.90
  -2  12  -7  255.77   37.30
 -15 -13   7  141.69   36.20
 -15 -13   7  153.98   90.69
  15 -13  -7   97.79   26.80
  15 -13  -7   53.89   23.30
 -13 -13   7  241.98   81.69
 -13 -13   7  216.08   83.29
  13 -13  -7  260.47   38.90
 -13 -13   7  230.88   25.10
 -13 -13   7  195.38   37.80
  13 -13  -7  159.88   75.29
 -13  13   7  199.58   35.30
 -13  13   7  354.16   89.39
 -11 -13   7  386.66   44.40
 -11 -13   7  405.86   25.80
  11 -13  -7  425.36   81.09
 -11 -13   7  377.76   86.59
 -11 -13   7  248.58   71.69
 -11  13   7  465.55   85.09
 -11  13   7  426.46   45.00
  11  13  -7  469.05   49.60
  -9 -13   7  333.27   37.60
  -9 -13   7  278.47   70.69
   9 -13  -7  352.66   73.59
  -9 -13   7  390.56   79.59
  -9 -13   7  291.77   18.40
   9  13  -7  361.96   49.00
  -9  13   7  272.07   70.59
  -9  13   7  279.47   40.30
  -7 -13   7  577.54   43.70
  -7 -13   7  667.93   85.99
   7 -13  -7  652.53   94.79
   7 -13  -7  471.45   44.80
  -7 -13   7  515.65   80.89
  -7 -13   7  490.95   27.60
  -7  13   7  447.76   43.20
  -7  13   7  481.15   87.69
  -5 -13   7  464.35   36.30
   5 -13  -7  331.27   73.69
  -5 -13   7  381.16   43.20
  -5 -13   7  483.65   36.60
  -5 -13   7  460.45   76.89
  -5 -13   7  482.95   78.59
  -5  13   7  299.77   73.29
   5  13  -7  471.95   46.20
  -5  13   7  451.35   43.30
  -3 -13   7  349.07   66.09
  -3 -13   7  352.66   32.10
  -3 -13   7  388.86   65.39
   3 -13  -7  378.26   41.40
  -3 -13   7  294.77   25.60
  -3 -13   7  331.97   25.10
  -3  13   7  291.47   71.29
  -3  13   7  418.66   39.10
   3  13  -7  312.37   39.00
  -1 -13   7  179.48   52.19
   1 -13  -7  159.28   77.09
  -1 -13   7  272.27   37.30
   1 -13  -7  251.97   40.00
  -1  13   7  298.37   35.30
  -1  13   7  159.18   68.29
   1  13  -7  279.67   37.70
  -1 -13  -7  371.86   53.09
   1 -13   7  276.37   56.29
   1  13   7  297.87   47.90
  -1  13  -7  316.07   41.20
  14 -14  -7  167.28   83.19
 -14 -14   7  128.49   34.50
 -14 -14   7   64.49   84.89
 -14 -14   7   87.49   18.00
  14 -14  -7  121.89   30.60
 -14 -14   7  182.48   92.29
 -14  14   7   15.50   83.89
 -14  14   7  135.19   37.20
  12 -14  -7  422.46   52.19
 -12 -14   7  290.87   84.49
 -12 -14   7  269.67   82.09
  12 -14  -7  380.36   46.10
 -12 -14   7  429.46   49.40
 -12 -14   7  400.06   22.50
  12 -14  -7  406.86   88.29
 -12  14   7  379.86   85.49
 -12  14   7  449.46   48.40
 -10 -14   7  457.75   88.79
 -10 -14   7  375.06   42.60
 -10 -14   7  327.87   78.29
  10 -14  -7  384.66   42.70
  10 -14  -7  325.57   76.69
 -10  14   7  159.28   65.29
 -10  14   7  403.36   45.50
  10  14  -7  326.37   53.79
  -8 -14   7  296.77   72.39
  -8 -14   7  363.46   38.30
   8 -14  -7  300.27   82.89
  -8 -14   7  434.56   80.89
   8 -14  -7  363.36   42.80
  -8  14   7  326.47   44.70
  -8  14   7  387.06   90.29
   8  14  -7  304.07   44.70
   6 -14  -7  501.65   86.79
  -6 -14   7  452.05   25.20
  -6 -14   7  397.26   37.40
  -6 -14   7  424.56   77.29
  -6 -14   7  419.76   37.90
   6 -14  -7  420.66   45.50
  -6 -14   7  449.16   88.29
   6  14  -7  445.26   47.70
  -6  14   7  438.46   45.20
  -6  14   7  355.06   77.69
  -4 -14   7  639.64   86.19
   4 -14  -7  500.25   46.80
  -4 -14   7  458.35   35.40
  -4 -14   7  551.34   87.39
  -4 -14   7  535.35   40.80
   4 -14  -7  548.55   89.09
  -4 -14   7  500.45   33.50
  -4  14   7  476.25   88.99
   4  14  -7  468.25   85.09
  -4  14   7  493.05   45.90
  -2 -14   7  285.27   62.69
   2 -14  -7  460.95   89.19
  -2  14   7  336.57   37.90
  -2  14   7  151.08   68.39
   2  14  -7  370.56   41.70
   0 -14  -7  280.97   45.20
   0 -14   7  253.17   60.79
   0  14  -7  297.77   40.40
   0  14   7  295.57   49.10
 -13 -15   7  213.98   90.79
  13 -15  -7  199.28   35.50
  13 -15  -7  156.38   86.59
  13 -15  -7  209.78   40.80
 -13  15   7  234.98   41.00
 -13  15   7  305.57   95.29
 -11 -15   7  521.05   99.29
  11 -15  -7  446.06   49.40
 -11 -15   7  405.66   95.99
  11 -15  -7  397.16   47.30
 -11 -15   7  483.45   49.50
  11 -15  -7  526.15   96.79
 -11  15   7  289.97   83.79
 -11  15   7  490.15   50.79
   9 -15  -7  461.35   44.80
  -9 -15   7  392.66   85.99
  -9 -15   7  477.25   88.79
   9 -15  -7  434.76   84.99
  -9 -15   7  498.85   46.60
   9 -15  -7  515.65   52.59
  -9  15   7  452.75   95.29
  -9  15   7  521.45   48.90
  -7 -15   7  265.67   71.09
   7 -15  -7  349.77   42.10
  -7 -15   7  173.18   66.89
  -7 -15   7  332.37   36.70
   7 -15  -7  282.67   72.19
   7  15  -7  299.27   44.30
  -7  15   7  118.89   66.39
  -7  15   7  303.57   43.30
  -5 -15   7  538.55   41.40
  -5 -15   7  556.04   41.80
   5 -15  -7  541.95   92.59
   5 -15  -7  590.64   58.99
  -5 -15   7  636.34   91.59
  -5 -15   7  549.45   87.59
  -5  15   7  525.25   50.39
  -5  15   7  497.75   92.49
   5  15  -7  608.54   53.09
   3 -15  -7  437.96  145.09
   3 -15  -7  424.06   47.20
  -3 -15   7  468.95   77.39
  -3 -15   7  574.64   32.90
  -3 -15   7  468.05   32.20
  -3  15   7  409.36   89.29
  -3  15   7  544.25   47.70
   3  15  -7  471.95   49.30
  -1 -15   7  293.57   67.39
   1 -15  -7  289.27   46.80
  -1  15   7  411.06   41.00
   1 -15   7  106.19   53.89
   1  15   7  170.68   44.80
  12 -16  -7  240.38   86.49
 -12 -16   7  301.87   94.29
  12 -16  -7  280.07   39.90
 -12 -16   7  245.28   41.60
 -12 -16   7  162.98   93.89
  12 -16  -7  268.37   42.30
 -12  16   7  220.68   95.69
 -12  16   7  316.37   52.09
 -10 -16   7  317.77   88.09
 -10 -16   7  274.57   87.19
  10 -16  -7  321.47   89.19
  10 -16  -7  492.05   47.80
 -10 -16   7  406.56   46.80
  10 -16  -7  435.76   49.70
 -10  16   7  503.65   96.99
 -10  16   7  434.36   49.40
   8 -16  -7  362.56   85.29
   8 -16  -7  435.86   51.19
  -8 -16   7  434.76   45.30
  -8 -16   7  395.96   90.49
  -8 -16   7  206.88   75.39
   8 -16  -7  347.07   49.99
  -8 -16   7  343.27   40.40
  -8  16   7  381.56   45.60
  -8  16   7  402.16   88.79
  -6 -16   7  504.05   43.30
  -6 -16   7  451.95   87.09
   6 -16  -7  398.16   56.29
   6 -16  -7  320.17   84.89
  -6 -16   7  417.36  101.39
  -6  16   7  455.35   49.20
   6  16  -7  490.25   52.69
  -6  16   7  540.55   99.49
  -4 -16   7  482.05   85.99
  -4 -16   7  532.15   38.80
  -4 -16   7  534.45   40.50
   4 -16  -7  590.54   55.49
  -4  16   7  519.85   95.69
   4  16  -7  496.75   52.99
  -4  16   7  535.95   48.60
  -2 -16   7  357.56   71.99
   2 -16  -7  490.05   56.29
   2  16  -7  431.96   49.10
  -2  16   7  411.96   44.50
   0 -16  -7  214.68   50.49
   0 -16   7  301.47  105.59
   0  16  -7  279.17   41.00
   0  16   7  301.57   74.09
 -11 -17   7  342.47   49.00
  11 -17  -7  406.06   58.49
  11 -17  -7  437.66   49.90
 -11 -17   7  197.98   91.19
 -11 -17   7  198.98   97.19
  11 -17  -7  262.67   97.09
 -11  17   7  368.96  100.49
  -9 -17   7  344.37   94.39
   9 -17  -7  368.06   54.59
  -9 -17   7  259.37   89.49
  -9 -17   7  313.47   44.20
  -9  17   7  249.78   80.79
  -9  17   7  336.37   47.80
  -7 -17   7  524.05   96.59
  -7 -17   7  607.64  105.99
   7 -17  -7  538.05   58.29
   7 -17  -7  265.47   88.09
  -7 -17   7  478.15   45.10
  -7  17   7  457.25   97.49
  -7  17   7  570.44   51.39
   5 -17  -7  386.36   96.59
  -5 -17   7  377.46   36.20
   5 -17  -7  294.37   52.19
  -5 -17   7  402.06   39.00
  -5 -17   7  383.86   86.29
  -5  17   7  177.88   80.39
  -5  17   7  459.55   49.20
   3 -17  -7  404.06   56.89
   3 -17  -7  506.95  114.59
  -3 -17   7  412.96   30.30
  -3 -17   7  338.57   78.49
  -3 -17   7  464.45   30.60
   3  17  -7  373.36   61.09
  -3  17   7  468.85   48.40
  -3  17   7  300.47   90.09
  -1 -17   7  240.78   69.69
   1 -17  -7  192.28   44.30
  -1  17   7  247.28   37.40
   1  17  -7  263.37   46.30
 -10 -18   7  284.37   41.10
  10 -18  -7  233.38   92.49
  10 -18  -7  256.17   43.70
 -10 -18   7  224.08   99.79
 -10 -18   7  374.66   98.89
 -10  18   7  222.88   65.29
 -10  18   7  295.87  100.09
  -8 -18   7  380.56  111.49
   8 -18  -7  440.76   54.09
   8 -18  -7  356.46   93.99
  -8 -18   7  397.66   45.30
  -8 -18   7  414.96  101.79
  -8 -18   7  454.05   52.09
  -8  18   7  339.27   96.89
  -8  18   7  430.16   49.80
   6 -18  -7  281.97   47.30
  -6 -18   7  251.27   94.99
   6 -18  -7  372.76   94.29
  -6 -18   7  351.56   40.00
  -6  18   7  388.86   54.09
  -6  18   7  188.88   85.09
   4 -18  -7  418.86  106.79
  -4 -18   7  295.97   83.59
  -4 -18   7  335.87   33.90
  -4 -18   7  359.16   37.90
  -4  18   7  362.96   45.00
  -4  18   7  223.48   89.29
   2 -18  -7  246.08   48.90
  -2 -18   7  177.28   76.59
  -2  18   7  220.28   37.40
   9 -19  -7  456.55   53.59
  -9 -19   7  367.66  109.29
   9 -19  -7  261.37  100.59
  -9 -19   7  381.46   51.59
  -9  19   7  289.57   50.19
  -9  19   7  536.55  109.09
   7 -19  -7  247.98   97.39
   7 -19  -7  249.28   49.80
  -7 -19   7  225.08   92.79
  -7 -19   7  339.27   43.70
  -7 -19   7  366.66   46.40
  -7  19   7  317.07   95.09
   5 -19  -7  300.67   54.99
  -5 -19   7  324.67   87.79
  -5 -19   7  407.76   42.80
  -5  19   7  270.67   45.70
   3 -19  -7  240.38   49.40
  -3 -19   7  209.08   24.40
  -3 -19   7  149.59   22.00
  -3  19   7  220.58   38.70
  -8 -20   7  295.37  116.79
   8 -20  -7  118.99  105.99
  -8 -20   7  299.77   45.60
   8 -20  -7  265.07   75.79
  -8  20   7  297.47  109.39
  -8  20   7  286.67   51.69
  -6 -20   7  323.07   43.80
   6 -20  -7  343.17   56.39
  -6 -20   7  369.06   43.90
   6 -20  -7  218.38  120.59
  -6  20   7  305.17  103.69
  -6  20   7  390.66   55.29
 -16   0   8   54.69   71.59
  16   0  -8  103.19   73.49
  16   0  -8   76.79   32.80
 -16   0   8  114.89   27.40
 -14   0   8   81.59   24.60
  14   0  -8  187.98   69.49
 -14   0   8  115.09   64.69
 -12   0   8  525.25   87.19
 -12   0   8  688.13   51.19
  12   0  -8  750.52   91.29
  10   0  -8 1123.69  101.99
 -10   0   8 1141.29   67.49
  -8   0   8  952.20   87.99
   8   0  -8  778.92   55.19
   8   0  -8  862.31   88.39
  -8   0   8  917.31   56.29
   6   0  -8  984.00   58.99
   6   0  -8  929.61   87.39
  -6   0   8  944.51   53.59
  -6   0   8  914.71   88.99
   4   0  -8  908.61   88.79
   4   0  -8  952.90   57.89
  -4   0   8  888.41   48.60
  -4   0   8  889.51   84.29
  -2   0   8  965.40   41.20
   2   0  -8  886.61   57.39
  -2   0   8  828.92   84.59
   2   0  -8  892.41   88.79
  -2   0   8 1039.20   69.69
   0   0  -8  316.47   37.00
   0   0   8  429.06   48.70
  -2   0  -8  154.98   31.40
   2   0   8  191.18   40.50
  17  -1  -8   90.99   86.49
 -17  -1   8   77.89   80.49
 -17   1   8   72.69   28.80
  17   1  -8  155.48   34.80
 -17   1   8   63.39   87.09
  17   1  -8  227.58   92.59
 -15  -1   8   37.70   63.29
  15  -1  -8  113.79   68.19
 -15  -1   8  115.79   27.30
  15   1  -8  171.68   32.70
 -15   1   8  153.98   62.09
  15   1  -8   96.99   72.89
 -15   1   8  122.09   29.80
 -13  -1   8  198.58   61.09
 -13  -1   8  222.98   35.40
  13  -1  -8  218.68   67.89
 -13   1   8  181.88   57.09
  13   1  -8  304.27   53.69
 -13   1   8  187.68   33.10
  13   1  -8  178.08   66.09
  11  -1  -8  966.50   99.89
 -11  -1   8  997.30   63.79
 -11  -1   8 1073.19  102.99
  11   1  -8 1077.19  102.49
 -11   1   8 1175.78  103.89
 -11   1   8 1037.10   64.49
  -9  -1   8 1010.00   94.59
  -9  -1   8  933.11   60.19
   9  -1  -8 1061.99   99.79
  -9   1   8 1101.39   97.09
   9   1  -8 1057.09   99.39
  -9   1   8 1015.80   68.79
  -7  -1   8  756.62   78.69
   7  -1  -8  740.53   81.59
  -7  -1   8  724.83   47.70
   7  -1  -8  678.13   50.39
  -7   1   8  762.12   48.80
   7   1  -8  754.82   51.39
  -7   1   8  682.53   78.29
   7   1  -8  771.62   83.29
  -5  -1   8  734.63   45.50
   5  -1  -8  756.12   51.09
   5  -1  -8  624.34   72.59
  -5  -1   8  782.22   81.29
   5   1  -8  749.53   50.89
   5   1  -8  751.82   81.39
  -5   1   8  777.62   82.09
  -5   1   8  869.21   48.20
   3  -1  -8  937.71   57.89
  -3  -1   8  907.11   45.40
  -3  -1   8  778.52   90.79
  -3   1   8  813.72  136.59
   3   1  -8  968.20   57.89
  -3   1   8  984.40   48.30
   1  -1  -8  542.05   44.80
  -1  -1   8  600.54   54.09
  -1   1   8  593.44   56.39
   1   1  -8  540.25   43.10
  -1  -1  -8  328.77   37.20
   1  -1   8  193.88   38.90
   1   1   8  171.48   38.40
  -1   1  -8  231.98   33.40
 -16  -2   8  165.38   74.29
 -16  -2   8  119.99   30.00
  16  -2  -8  282.57   94.19
  16   2  -8  241.28   85.29
  16   2  -8  156.58   35.00
 -16   2   8  115.69   77.49
 -16   2   8  121.39   30.00
  14  -2  -8  213.18   45.10
  14  -2  -8  212.28   72.29
 -14  -2   8  361.96   38.50
 -14  -2   8  229.08   70.09
 -14   2   8  226.48   67.39
  14   2  -8  138.39   67.89
  14   2  -8  292.47   47.90
 -14   2   8  290.07   35.40
  12  -2  -8  417.66   78.89
 -12  -2   8  307.37   66.19
 -12  -2   8  359.06   38.80
 -12   2   8  341.57   36.40
  12   2  -8  287.87   70.29
 -12   2   8  339.67   71.89
 -10  -2   8 1100.99  100.89
 -10  -2   8 1102.59   65.29
 -10   2   8 1019.90   64.19
 -10   2   8  978.90   97.79
  10   2  -8 1224.58  104.39
  -8  -2   8  657.53   75.69
  -8  -2   8  605.84   45.40
   8  -2  -8  743.73   82.29
   8   2  -8  623.74   79.99
  -8   2   8  647.14   86.89
  -8   2   8  663.43   48.00
   8   2  -8  658.43   48.70
   6  -2  -8  797.92   54.39
  -6  -2   8  740.53   47.10
  -6  -2   8  847.32   84.29
   6  -2  -8  794.22   83.89
  -6   2   8  698.53   81.79
   6   2  -8  773.52   51.49
   6   2  -8  686.63   80.19
  -6   2   8  767.02   48.60
  -4  -2   8  643.24   72.79
  -4  -2   8  731.83   41.10
   4  -2  -8  755.32   81.99
   4  -2  -8  739.03   50.99
  -4   2   8  581.44   40.30
  -4   2   8  621.14   76.79
   4   2  -8  698.63   48.20
   2  -2  -8  484.75   40.70
  -2  -2   8  445.26   20.30
   2  -2  -8  455.95   71.39
  -2  -2   8  489.15   46.90
  -2  -2   8  382.16   60.59
  -2   2   8  453.75   46.30
   2   2  -8  458.85   39.20
  -2   2   8  328.87   60.39
   2   2  -8  364.46   65.39
   0  -2   8  299.87   43.90
   0  -2  -8  257.57   35.00
   0   2  -8  276.27   36.70
   0   2   8  233.38   39.70
   2  -2   8  293.97   49.00
  -2  -2  -8  278.87   39.30
  -2   2  -8  263.87   36.20
 -17  -3   8   73.89   51.69
 -17  -3   8   57.09   76.49
  17  -3  -8  172.48   96.99
  17   3  -8    9.50   84.89
 -17   3   8  104.89   45.40
 -17   3   8  115.79   84.89
  17   3  -8  134.49   34.40
  15  -3  -8  258.47   43.30
 -15  -3   8  238.68   40.50
 -15  -3   8  186.78   68.29
  15  -3  -8  253.37   76.39
 -15   3   8  226.98   36.90
  15   3  -8  219.58   37.60
  15   3  -8  262.27   82.09
 -15   3   8  262.97   77.29
 -13  -3   8  254.77   67.89
  13  -3  -8  418.76   80.89
 -13  -3   8  373.46   41.10
 -13   3   8  257.77   70.49
  13   3  -8  212.98   65.09
 -13   3   8  414.26   41.60
  11  -3  -8  558.94   83.79
 -11  -3   8  488.95   43.00
  11   3  -8  537.05   83.49
 -11   3   8  273.17   64.79
 -11   3   8  428.06   40.40
  -9  -3   8  851.71   87.79
   9  -3  -8  999.70   94.69
  -9  -3   8  953.20   58.69
   9   3  -8 1019.20   95.89
  -9   3   8  830.72   89.79
  -9   3   8  892.51   66.79
   7  -3  -8  678.13   81.69
  -7  -3   8  710.73   79.99
  -7  -3   8  767.62   48.80
   7  -3  -8  806.82   55.29
  -7   3   8  846.92   86.29
   7   3  -8  727.13   82.19
  -7   3   8  794.72   50.59
   7   3  -8  721.53   51.39
   5  -3  -8  760.62   51.29
  -5  -3   8  787.52   79.89
  -5  -3   8  770.42   44.80
   5  -3  -8  580.34   76.49
  -5   3   8  735.73   84.89
   5   3  -8  698.33   50.29
   5   3  -8  687.03   79.69
  -5   3   8  729.03   46.40
   3  -3  -8  400.66   38.60
  -3  -3   8  355.46   60.39
   3   3  -8  373.16   36.20
   3   3  -8  450.25   72.69
  -3   3   8  415.56   31.00
   1  -3  -8  347.47   39.00
  -1  -3   8  347.37   40.90
  -1   3   8  353.26   51.19
   1   3  -8  404.16   38.00
   1  -3   8  437.36   49.40
  -1  -3  -8  438.86   44.60
   1   3   8  440.56   54.39
  -1   3  -8  339.07   38.30
 -16  -4   8  103.99   28.80
 -16  -4   8   67.09   73.49
  16  -4  -8  157.88   44.40
  16  -4  -8   84.19   80.09
 -16   4   8  111.59   31.60
 -16   4   8  184.48   80.99
  16   4  -8  169.68   35.30
  16   4  -8  133.79   83.69
  14  -4  -8  353.36   78.39
 -14  -4   8  312.77   72.49
  14  -4  -8  364.56   60.79
 -14  -4   8  392.96   41.30
 -14   4   8  449.46   86.09
 -14   4   8  391.56   41.40
  14   4  -8  272.47   42.70
  14   4  -8  248.88   73.99
 -12  -4   8  343.27   36.90
  12  -4  -8  287.17   66.69
 -12  -4   8  381.96   75.69
 -12   4   8  335.57   36.40
 -12   4   8  357.76   72.59
  12   4  -8  363.06   76.09
 -10  -4   8  461.05   41.00
 -10  -4   8  330.87   66.69
  10  -4  -8  478.75   76.29
  10   4  -8  380.86   69.89
 -10   4   8  431.86   77.59
 -10   4   8  443.76   40.20
  -8  -4   8 1009.90   95.39
   8  -4  -8  868.01   92.49
  -8  -4   8  952.70   57.99
   8   4  -8  882.61   59.09
   8   4  -8  884.21   89.29
  -8   4   8 1106.29   67.19
  -8   4   8  940.41   92.09
   6  -4  -8 1166.08  100.09
  -6  -4   8 1000.10   92.59
   6  -4  -8  986.00   61.69
  -6   4   8 1113.89   99.89
   6   4  -8 1005.70   61.19
  -6   4   8  900.01   55.49
   6   4  -8  853.81   90.09
   4  -4  -8  541.05   77.99
   4  -4  -8  544.45   45.20
  -4  -4   8  553.74   46.00
  -4  -4   8  550.34   68.99
  -4  -4   8  529.05   34.50
  -4   4   8  570.34   39.70
   4   4  -8  549.74   43.40
  -4   4   8  538.45   77.79
   2  -4  -8  542.65   80.69
  -2  -4   8  440.56   64.19
  -2  -4   8  511.35   45.50
   2  -4  -8  472.35   42.10
   2   4  -8  466.55   69.79
  -2   4   8  398.06   30.10
  -2   4   8  324.97   59.99
   2   4  -8  418.56   39.20
   0  -4  -8  511.25   45.50
   0  -4   8  381.36   44.40
   0   4  -8  428.66   39.10
   0   4   8  403.76   49.50
   2  -4   8  192.08   36.40
  -2  -4  -8  294.27   58.19
   2   4   8  216.48   46.20
  -2   4  -8  265.17   35.00
  17  -5  -8   70.79  104.89
 -17  -5   8   18.70  132.39
 -17  -5   8   22.10   24.30
 -17   5   8   11.10   46.30
  17   5  -8   85.29   34.10
 -15  -5   8  148.29   31.00
  15  -5  -8  230.28   41.20
  15  -5  -8  223.78   76.79
 -15  -5   8  139.89   71.09
  15   5  -8  165.58   82.59
  15   5  -8  217.68   37.70
 -15   5   8  111.79   66.49
 -15   5   8  179.58   34.90
  13  -5  -8  325.87   73.29
 -13  -5   8  329.47   71.99
 -13  -5   8  373.86   42.70
  13  -5  -8  326.47   52.89
 -13   5   8  458.15   44.20
 -13   5   8  551.64   91.09
  13   5  -8  379.56   43.90
  13   5  -8  446.16   84.39
 -11  -5   8  392.76   39.50
  11  -5  -8  436.46   76.49
 -11  -5   8  236.38   58.89
 -11   5   8  367.76   72.79
  11   5  -8  299.87   66.49
  11   5  -8  225.18   41.40
 -11   5   8  411.46   40.00
   9  -5  -8  423.76   72.89
  -9  -5   8  303.27   65.79
  -9   5   8  218.98   56.29
   9   5  -8  292.27   62.99
  -9   5   8  294.37   32.60
  -7  -5   8 1560.44  113.79
   7  -5  -8 1447.16  114.99
   7  -5  -8 1358.56   78.19
  -7  -5   8 1525.45   74.99
   7   5  -8 1535.05   80.59
  -7   5   8 1503.95   77.79
  -7   5   8 1516.35  115.99
   7   5  -8 1563.44  115.89
  -5  -5   8  540.75   38.10
  -5  -5   8  592.34   80.09
   5  -5  -8  695.73   78.89
   5  -5  -8  582.54   47.70
   5   5  -8  589.14   45.50
  -5   5   8  676.03   44.60
   5   5  -8  706.63  101.29
  -5   5   8  466.95   75.89
   3  -5  -8  449.56  120.39
   3  -5  -8  414.76   40.10
  -3  -5   8  390.06   64.49
  -3  -5   8  394.46   40.50
  -3  -5   8  418.56   32.30
   3   5  -8  444.36   39.90
  -3   5   8  387.56   70.89
   3   5  -8  394.26   67.59
  -3   5   8  422.36   33.50
  -1  -5   8  581.74   50.99
   1  -5  -8  506.75   46.00
  -1   5   8  520.15   54.79
   1   5  -8  532.35   42.80
   1  -5   8  291.37   43.80
  -1  -5  -8  369.26   65.69
  -1   5  -8  304.97   37.90
   1   5   8  327.17   54.19
  16  -6  -8   45.30   73.79
 -16  -6   8  164.48   41.30
 -16  -6   8  105.39   76.29
  16   6  -8  107.59   40.90
 -16   6   8  133.89   32.00
 -14  -6   8  189.08   34.60
  14  -6  -8  185.98   72.39
 -14  -6   8  236.98   67.59
  14   6  -8  380.26   85.99
  14   6  -8  232.78   37.60
 -14   6   8  216.28   36.60
 -14   6   8  226.48   75.49
  12  -6  -8  147.69   64.29
 -12  -6   8  362.76   39.60
 -12  -6   8  216.98   66.19
  12  -6  -8  302.77   55.19
  12   6  -8  307.47   42.80
 -12   6   8  313.37   37.70
 -12   6   8  247.48   67.29
  12   6  -8  410.56   82.19
 -10  -6   8  250.57   62.89
 -10  -6   8  299.27   35.10
  10  -6  -8  368.46   78.49
 -10   6   8  404.86   72.99
 -10   6   8  305.87   34.30
  10   6  -8  305.77   70.19
  -8  -6   8  572.04   83.49
   8  -6  -8  619.34   85.49
  -8  -6   8  520.65   42.60
   8   6  -8  636.04   91.59
  -8   6   8  602.04   87.99
   8   6  -8  568.74   46.50
  -8   6   8  560.94   45.90
  -6  -6   8  773.62   84.69
   6  -6  -8  839.12   57.49
   6  -6  -8  842.62   90.09
  -6  -6   8  817.62   48.80
  -6   6   8  758.72   52.29
  -6   6   8  909.61   93.09
   6   6  -8  708.33   84.79
   6   6  -8  814.32   55.39
  -4  -6   8  419.76   40.60
   4  -6  -8  470.55   43.90
  -4  -6   8  477.55   32.40
  -4  -6   8  485.05   72.49
  -4   6   8  679.43   82.99
   4   6  -8  486.45   41.70
   4   6  -8  463.65   74.79
  -4   6   8  485.55   37.40
   2  -6  -8  324.57   39.90
   2  -6  -8  327.47   63.09
  -2  -6   8  317.27   38.30
  -2   6   8  475.15   76.09
   2   6  -8  369.96   37.90
  -2   6   8  382.06   30.60
   0  -6  -8  317.87   51.49
   0  -6   8  409.16   44.90
   0   6   8  244.58   44.80
   0   6  -8  301.27   37.00
  -2  -6  -8  222.38   39.30
   2  -6   8  305.97   49.30
   2   6   8  247.88   47.80
  -2   6  -8  292.07   38.90
 -17  -7   8   40.30   29.50
 -17   7   8  102.99   32.60
  15  -7  -8  148.79   78.19
 -15  -7   8  163.68   34.10
 -15  -7   8  128.89   70.89
 -15   7   8  152.48   34.50
 -15   7   8  105.19   75.99
  15   7  -8  138.79   52.09
  13  -7  -8  365.26   78.09
 -13  -7   8  227.68   37.40
  13   7  -8  227.38   76.69
 -13   7   8  366.66   76.79
 -13   7   8  377.96   41.90
  13   7  -8  298.17   45.40
  11  -7  -8  227.08   64.99
 -11  -7   8  197.58   32.20
 -11  -7   8  208.68   61.89
 -11   7   8  178.58   62.39
  11   7  -8  163.38   35.70
  11   7  -8  200.08   62.59
 -11   7   8  237.08   36.90
  -9  -7   8  480.55   41.20
  -9  -7   8  408.76   70.29
   9  -7  -8  367.76   69.89
   9   7  -8  388.06   40.80
   9   7  -8  434.96   75.89
  -9   7   8  345.67   71.79
  -9   7   8  483.15   41.60
  -7  -7   8  389.96   70.29
   7  -7  -8  264.37   61.59
  -7  -7   8  302.87   31.30
   7   7  -8  482.05   77.39
  -7   7   8  287.77   68.59
   7   7  -8  318.57   37.80
  -7   7   8  296.77   34.20
  -5  -7   8  731.73   44.10
   5  -7  -8  807.02   88.39
  -5  -7   8  723.73  114.19
  -5  -7   8  730.23   50.59
   5  -7  -8  802.82   56.19
  -5   7   8  828.92   52.09
  -5   7   8  754.72   89.09
   5   7  -8  651.33   51.19
  -3  -7   8  372.56   22.70
  -3  -7   8  372.46   65.59
  -3  -7   8  361.66   37.10
  -3  -7   8  334.77   21.70
   3  -7  -8  251.77   62.49
  -3   7   8  368.76   33.20
   3   7  -8  297.07   35.90
   3   7  -8  390.56   70.39
  -3   7   8  314.17   70.39
   1  -7  -8  284.47   39.80
  -1  -7   8  318.67   38.70
   1   7  -8  267.47   37.80
  -1   7   8  260.57   25.50
  -1   7   8  258.57   44.30
  -1  -7  -8  287.97   43.20
   1  -7   8  240.88   46.30
   1  -7   8  354.46   49.40
  -1   7  -8  337.57   37.90
 -16  -8   8  122.29   34.30
 -16  -8   8   71.19   88.39
 -16   8   8    8.50   87.69
  14  -8  -8  181.38   35.50
 -14  -8   8  115.79   30.00
 -14  -8   8  211.58   77.59
  14  -8  -8  164.88   74.29
 -14   8   8  205.08   37.80
  14   8  -8  174.88   52.69
 -14   8   8  168.38   75.19
 -12  -8   8  481.65   85.39
 -12  -8   8  225.28   35.70
  12  -8  -8  249.48   41.60
  12  -8  -8  200.98   69.29
 -12   8   8  173.68   66.69
  12   8  -8  154.58   66.79
  12   8  -8  246.38   40.30
 -12   8   8  285.17   41.60
 -10  -8   8  172.78   56.59
 -10  -8   8  320.17   35.80
  10   8  -8  267.17   66.59
 -10   8   8  252.47   36.30
 -10   8   8  419.36   79.59
   8  -8  -8  326.37   68.29
  -8  -8   8  385.86   69.59
  -8  -8   8  258.97   30.30
   8   8  -8  410.06   40.40
   8   8  -8  291.97   65.29
  -8   8   8  324.47   36.90
  -8   8   8  242.48   64.39
  -6  -8   8  193.48   28.40
   6  -8  -8  235.48   63.39
  -6  -8   8  186.08   57.09
  -6  -8   8  243.18   27.60
   6   8  -8  217.88   33.40
  -6   8   8  171.08   32.50
  -6   8   8  291.97   64.79
  -4  -8   8  422.76   66.09
  -4  -8   8  602.94   36.30
  -4  -8   8  644.54   47.40
   4  -8  -8  665.33   93.79
  -4   8   8  675.33   94.79
  -4   8   8  670.53   46.80
   4   8  -8  736.13   92.79
   4   8  -8  611.14   49.60
   2  -8  -8  420.26   42.90
  -2   8   8  331.57   87.99
   2   8  -8  404.66   39.20
  -2   8   8  293.07   30.80
   0  -8   8  387.96   44.30
   0  -8   8  243.78   53.89
   0  -8  -8  267.77   41.80
   0   8   8  243.58   44.50
   0   8  -8  292.27   39.40
 -15  -9   8   47.50   26.00
 -15  -9   8   24.90   74.69
  15  -9  -8   31.20   26.00
 -15  -9   8  -30.50   69.79
  15  -9  -8    8.10   72.59
 -15   9   8  122.89   32.70
 -15   9   8  120.49   78.89
  13  -9  -8  237.18   38.00
  13  -9  -8  196.58   71.59
 -13  -9   8  207.88   35.40
 -13  -9   8  181.68   69.99
 -13   9   8  188.48   32.70
 -13   9   8  258.47   76.29
 -11  -9   8  190.08   67.49
 -11  -9   8  224.68   37.50
  11  -9  -8  347.17   74.99
  11  -9  -8  309.37   42.10
  11   9  -8  299.77   43.90
 -11   9   8  313.77   78.99
 -11   9   8  236.88   36.20
   9  -9  -8  139.09   57.49
   9  -9  -8  235.58   35.90
  -9  -9   8  194.58   60.49
  -9  -9   8  212.88   32.60
   9   9  -8  218.68   36.30
   9   9  -8  167.78   61.69
  -9   9   8  218.38   34.00
  -9   9   8  184.98   64.69
  -7  -9   8  176.78   27.60
  -7  -9   8  221.88   57.99
   7  -9  -8  167.48   58.19
   7   9  -8  148.09   77.59
   7   9  -8  204.38   39.50
  -7   9   8  139.79   56.39
  -7   9   8  236.38   35.80
  -5  -9   8  296.77   65.59
  -5  -9   8  278.17   30.00
   5  -9  -8  380.26   72.09
   5  -9  -8  278.67   39.20
  -5  -9   8  230.48   25.70
   5   9  -8  271.07   38.00
  -5   9   8  272.47   63.39
  -5   9   8  250.27   42.00
   3  -9  -8  558.44   91.59
  -3  -9   8  610.44   47.50
  -3  -9   8  573.14   27.00
  -3  -9   8  520.65   26.90
   3  -9  -8  562.04   50.99
  -3   9   8  645.44   45.20
  -3   9   8  504.55   84.69
   3   9  -8  557.14   45.90
  -1  -9   8  359.36   60.79
   1  -9  -8  396.06   47.00
  -1  -9   8  284.07   40.10
   1   9  -8  365.26   40.60
  -1   9   8  331.67   31.70
   1  -9   8  120.59   44.70
   1  -9   8  107.39   33.00
   1   9   8  104.59   34.00
  -1   9  -8  137.09   31.00
 -16 -10   8   53.59   28.30
 -16 -10   8   49.00   27.80
 -16 -10   8    5.00   98.19
 -16  10   8   94.49   30.70
 -14 -10   8   65.19   27.30
  14 -10  -8  142.69   73.29
  14 -10  -8   47.00   26.00
 -14 -10   8   70.29   79.09
 -14 -10   8  -28.40   72.09
 -14  10   8   74.69   25.80
 -14  10   8    2.20   72.19
  12 -10  -8  230.58   75.19
 -12 -10   8  201.78   68.39
 -12 -10   8  172.08   68.79
 -12 -10   8  178.48   32.50
  12 -10  -8  174.38   30.60
 -12  10   8  182.08   32.90
 -12  10   8  162.58   72.39
 -10 -10   8  145.69   30.30
  10 -10  -8  241.48   84.39
 -10 -10   8  136.19   61.29
  10 -10  -8  154.68   31.50
 -10  10   8  181.58   34.30
 -10  10   8  197.48   77.39
  10  10  -8  111.69   28.50
   8 -10  -8  220.98   37.00
   8 -10  -8  344.97   79.19
  -8 -10   8  176.78   34.30
  -8 -10   8  223.18   63.99
   8  10  -8  165.48   32.40
  -8  10   8  216.78   34.60
  -8  10   8  150.28   61.29
   6 -10  -8  264.37   70.39
  -6 -10   8  133.49   23.60
  -6 -10   8   56.89   48.70
   6 -10  -8  140.09   28.20
  -6 -10   8  126.99   22.30
  -6  10   8  129.99   24.80
  -6  10   8  141.19   58.19
  -4 -10   8  296.07   25.80
  -4 -10   8  285.77   25.80
  -4 -10   8  318.77   74.39
  -4 -10   8  323.87   33.60
   4 -10  -8  310.87   43.20
   4 -10  -8  304.47  123.79
  -4 -10   8  332.27   64.39
   4  10  -8  308.87   42.10
  -4  10   8  284.47   77.79
  -4  10   8  286.97   44.20
   2 -10  -8  368.66   43.20
  -2 -10   8  407.56   42.90
  -2 -10   8  401.46   66.59
   2  10  -8  438.66   43.70
  -2  10   8  460.35   39.00
   0 -10   8  138.49   30.60
   0 -10   8  144.49   51.19
   0  10  -8  134.79   30.50
  15 -11  -8  128.89   84.89
 -15 -11   8  -33.70   81.59
  15 -11  -8  133.59   30.90
 -15 -11   8   68.09   85.99
 -15 -11   8   57.99   25.00
 -15 -11   8   53.39   29.40
 -15  11   8   62.89   33.10
 -15  11   8  118.99   96.09
 -13 -11   8   69.39   69.39
 -13 -11   8  173.98   73.69
 -13 -11   8  101.19   30.50
  13 -11  -8   70.39   72.59
  13 -11  -8  119.69   31.70
 -13  11   8  103.79   29.30
 -13  11   8   68.49   70.39
 -11 -11   8  120.99   28.10
 -11 -11   8  122.99   64.59
  11 -11  -8  158.08   33.00
 -11 -11   8  143.59   69.09
  11 -11  -8  148.29   64.59
 -11  11   8  118.59   63.59
 -11  11   8  122.89   28.00
  -9 -11   8  145.39   61.49
   9 -11  -8  156.28   30.30
  -9 -11   8  143.89   27.40
  -9 -11   8  254.87   67.89
   9 -11  -8  225.28   69.09
   9  11  -8  154.48   33.90
  -9  11   8  294.97   72.59
  -9  11   8  236.48   36.60
   7 -11  -8   52.89   57.19
  -7 -11   8   32.10   16.70
  -7 -11   8   47.60   14.30
  -7 -11   8   41.90   46.90
   7 -11  -8   56.19   23.60
  -7  11   8   55.89   20.30
   7  11  -8   20.50   21.30
  -7  11   8   93.99   53.79
  -5 -11   8  173.68   24.30
  -5 -11   8  174.48   25.90
   5 -11  -8  209.48   36.50
  -5 -11   8  115.69   52.99
   5  11  -8  193.18   53.59
  -5  11   8  169.88   66.29
  -5  11   8  158.18   29.80
  -3 -11   8  200.88   29.70
  -3 -11   8  162.68   55.29
   3 -11  -8  228.28   72.19
   3 -11  -8  193.68   49.40
  -3  11   8  114.69   62.89
   3  11  -8  134.99   36.00
  -3  11   8  224.38   37.90
  -1 -11   8  239.98   60.29
  -1 -11   8  263.57   38.80
  -1  11   8  238.98   44.80
   1  11  -8  235.08   37.90
 -14 -12   8   49.60   47.90
 -14 -12   8   52.59   20.20
 -14 -12   8   23.40   80.89
  14 -12  -8    9.70   25.80
  14 -12  -8   40.30   80.69
 -14  12   8   64.29   83.49
 -12 -12   8   11.50   64.89
 -12 -12   8   51.19   25.60
  12 -12  -8   62.29   69.09
  12 -12  -8  106.49   29.80
 -12 -12   8  -19.00   65.89
 -12  12   8  -22.30   64.69
 -12  12   8   68.09   23.00
  10 -12  -8   68.39   26.40
  10 -12  -8   71.19   62.09
 -10 -12   8   58.29   56.39
 -10 -12   8   36.10   20.10
 -10 -12   8   31.50   57.59
 -10  12   8   43.00   65.89
 -10  12   8   76.59   26.30
  -8 -12   8  168.48   97.59
   8 -12  -8  105.39   62.29
  -8 -12   8   87.69   23.50
   8 -12  -8  103.09   27.30
  -8 -12   8   54.89   50.69
  -8 -12   8   95.19   17.80
  -8  12   8  120.49   62.99
   8  12  -8  107.99   29.10
  -8  12   8  106.69   26.10
  -6 -12   8   88.89   55.79
  -6 -12   8  107.29   22.80
   6 -12  -8  126.49   32.50
   6 -12  -8  109.09   63.39
  -6 -12   8  136.59   57.89
  -6 -12   8  127.09   21.70
  -6  12   8  216.58   33.50
  -6  12   8  102.39   61.89
   6  12  -8  170.28   33.00
   4 -12  -8  144.99   70.89
  -4 -12   8  115.89   54.59
  -4 -12   8  138.39   21.00
  -4 -12   8  170.98   21.20
  -4 -12   8  155.98   25.00
   4  12  -8  180.58   33.70
  -4  12   8  244.58   71.49
  -4  12   8  165.88   30.50
  -2 -12   8  237.28   62.79
  -2 -12   8  203.48   33.40
   0 -12   8   73.29   27.50
   0 -12   8   97.69   55.59
   0  12   8   30.10   30.90
 -13 -13   8   11.60   25.00
  13 -13  -8   68.29   82.59
 -13 -13   8   29.80   71.39
  13 -13  -8   50.09   30.80
 -13 -13   8  118.59   81.79
 -13 -13   8   28.50   14.70
 -13  13   8   39.30   78.79
 -13  13   8   60.29   42.00
 -11 -13   8   65.39   25.60
  11 -13  -8   -5.30   69.19
 -11 -13   8  132.59   69.59
 -11 -13   8   49.20   62.29
 -11  13   8   75.89   69.99
 -11  13   8   51.39   22.70
  -9 -13   8   63.39   21.90
   9 -13  -8   70.49   67.39
  -9 -13   8   82.29   62.69
  -9 -13   8   58.79   13.00
  -9  13   8   52.79   23.60
  -9  13   8   56.89   61.89
  -7 -13   8  135.29   71.99
   7 -13  -8   92.49   68.79
  -7 -13   8  181.08   62.99
  -7 -13   8  109.19   17.50
  -7  13   8  115.49   29.00
   7  13  -8  141.79   32.30
  -7  13   8   38.40   61.39
  -5 -13   8  106.99   20.50
  -5 -13   8   75.89   18.80
  -5 -13   8   84.59   20.80
  -5  13   8   92.59   69.69
  -5  13   8   31.60   22.10
   5  13  -8   76.09   26.20
  -3 -13   8  184.98   62.09
  -3 -13   8  149.88   27.60
   3  13  -8  190.08   38.00
  -3  13   8  162.18   29.90
  -1 -13   8   34.70   21.70
  -1 -13   8   -1.10   55.39
   1  13  -8  125.19   31.10
 -14 -14   8  -42.90   94.49
  14 -14  -8   18.90   26.70
 -14 -14   8    9.70   28.80
 -14  14   8   71.89   30.80
 -12 -14   8  128.29   76.69
  12 -14  -8   29.70   78.89
 -12 -14   8   71.79   82.09
 -12 -14   8   27.50   10.10
 -12 -14   8   10.30   21.10
 -12  14   8   42.40   81.49
 -12  14   8  -14.00   31.40
 -10 -14   8  108.09   73.19
 -10 -14   8   83.89   71.29
  10 -14  -8  111.29   75.29
 -10  14   8   20.00   22.60
 -10  14   8   25.70   67.49
  -8 -14   8   74.89   12.50
  -8 -14   8   55.09   58.29
  -8 -14   8   87.69   24.70
   8 -14  -8  115.29   72.19
  -8 -14   8   92.89   66.49
  -8  14   8  111.79   69.29
  -8  14   8  109.19   29.80
  -6 -14   8   51.99   18.90
  -6 -14   8  115.09   25.00
  -6 -14   8  149.19   62.99
  -6 -14   8   66.29   15.60
  -6  14   8   56.29   23.10
  -6  14   8   46.10   65.19
  -4 -14   8  158.18   26.10
  -4 -14   8   98.49   59.49
   4 -14  -8  -21.00   71.69
  -4 -14   8  108.29   19.30
  -4 -14   8  117.79   18.50
   4  14  -8  122.69   31.80
  -4  14   8   90.59   27.50
  -4  14   8  -26.30   70.69
  -2 -14   8  -13.00   56.69
  -2  14   8   81.59   24.40
   2  14  -8   86.29   31.00
  13 -15  -8    3.00   89.19
 -13 -15   8   33.20   87.09
  13 -15  -8    9.10   26.90
 -13 -15   8   29.50   26.90
 -13 -15   8   97.59  100.09
 -13  15   8    1.20   25.00
  11 -15  -8  -28.00  105.29
 -11 -15   8    0.40   75.49
 -11 -15   8   68.59   81.89
 -11 -15   8    3.20   20.90
 -11  15   8 -126.89   85.49
  -9 -15   8  -27.50   66.39
  -9 -15   8   65.99   24.00
   9 -15  -8   66.09   78.79
  -9 -15   8   26.90   73.59
  -9  15   8   21.80   22.40
  -9  15   8   84.89   79.79
   7 -15  -8    7.00   72.89
  -7 -15   8   18.90   18.20
  -7 -15   8   38.90   64.89
  -7  15   8   55.69   26.20
  -7  15   8   41.60   70.59
  -5 -15   8   48.20   21.20
  -5 -15   8    5.70   67.09
  -5 -15   8   33.50   16.80
   5 -15  -8   99.39   79.99
  -5  15   8   13.10   75.29
  -5  15   8  107.49   27.40
  -3 -15   8  -40.90   59.09
  -3  15   8    6.60   22.00
  12 -16  -8   -1.00   27.80
 -12 -16   8  -27.70   87.39
  12 -16  -8 -151.18   86.69
 -12 -16   8   -4.10   97.49
 -12 -16   8   61.89   29.90
 -12  16   8    6.40   26.60
 -12  16   8   39.00  110.19
 -10 -16   8  -17.30   78.89
  10 -16  -8   60.29   80.29
 -10 -16   8   37.90   83.99
  10 -16  -8  -11.00   25.70
 -10 -16   8   19.40   22.90
 -10  16   8   45.00   83.99
  -8 -16   8   12.10   20.10
  -8 -16   8   -9.00   24.20
  -8 -16   8  -65.29   71.79
   8 -16  -8   22.50   24.80
   8 -16  -8  -53.89   74.79
  -8  16   8  -11.50   20.40
  -8  16   8   -9.20   73.79
  -6 -16   8   70.99   72.39
  -6 -16   8   32.20   23.00
  -6 -16   8   25.20   19.30
  -6  16   8   50.59   27.50
  -6  16   8  -32.90   79.29
   4 -16  -8   31.60   27.20
  -4 -16   8   35.00   14.60
  -4 -16   8  -35.80   65.49
  -4 -16   8   20.20   15.90
  -4  16   8  -12.70   21.00
 -11 -17   8   55.69  100.39
  11 -17  -8   44.50   31.50
 -11  17   8   39.60   27.90
  -9 -17   8    9.60   23.60
  -9 -17   8 -116.19   83.09
   9 -17  -8  101.19   91.29
  -9  17   8  -32.60   81.89
  -9  17   8    9.40   22.20
  -7 -17   8   71.09   81.69
  -7 -17   8    6.20   19.40
   7 -17  -8    1.60   31.20
  -7 -17   8    4.40   28.00
  -7  17   8 -172.78   80.99
  -7  17   8  -49.90   36.20
  -5 -17   8  -12.80   16.50
   5 -17  -8  -57.19   25.10
  -5 -17   8   -6.10   20.70
  -5  17   8   48.10   27.40
   8 -18  -8   15.30   95.49
   8 -18  -8   24.20   31.70
  -8 -18   8  -15.30   22.90
  -8  18   8   53.49   91.39
  -8  18   8  -28.30   28.10
 -16   0   9   75.19   78.39
  16   0  -9  -73.19   84.29
  14   0  -9   60.19   27.20
 -14   0   9   79.49   66.29
 -14   0   9   -2.80   17.10
 -12   0   9   75.49   57.59
  12   0  -9  -39.20   56.19
 -12   0   9   15.90   17.40
  12   0  -9  -15.50   18.70
 -10   0   9  -26.90   13.80
  10   0  -9  -59.09   46.20
 -10   0   9  -53.89   45.50
  -8   0   9    9.40   13.80
   8   0  -9   -8.60   46.50
   8   0  -9   30.90   18.40
  -8   0   9  -31.20   46.40
   6   0  -9  -41.50   51.09
   6   0  -9  -10.00   16.50
  -6   0   9    2.80   12.10
  -6   0   9  -10.40   44.00
  -4   0   9   -2.70   10.80
   4   0  -9   33.60   31.60
  -2   0   9   27.10   20.60
   2   0  -9   -6.40   20.00
   0   0   9   11.40   28.80
   0   0  -9   26.20   26.20
  17  -1  -9  -62.59  126.59
 -17  -1   9  -26.30   26.80
  17   1  -9   16.30  107.39
 -17   1   9  -43.60   25.60
  15  -1  -9  -26.40   74.29
 -15  -1   9   17.20   72.09
 -15  -1   9   19.00   22.00
 -15   1   9   -7.30   19.60
  15   1  -9   26.10   82.09
 -15   1   9   -1.50   71.99
 -13  -1   9   29.50   17.80
  13  -1  -9  -13.70   20.00
  13  -1  -9    3.40   60.49
 -13  -1   9   21.90   56.79
  13   1  -9   37.90   64.39
 -13   1   9   -7.30   16.60
 -13   1   9  -22.40   59.89
  13   1  -9   19.00   21.80
  11  -1  -9   -6.40   20.40
 -11  -1   9  -25.60   13.50
 -11  -1   9   25.20   50.09
  11  -1  -9   32.50   55.59
 -11   1   9   31.00   16.10
 -11   1   9   -9.30   51.19
  11   1  -9   31.50   21.00
  11   1  -9   15.20   53.29
  -9  -1   9  -10.00   46.00
  -9  -1   9    1.90   13.90
   9  -1  -9   57.89   53.89
   9  -1  -9   -0.10   17.10
   9   1  -9  -68.39   47.80
  -9   1   9   17.10   14.90
  -9   1   9   46.90   50.09
   9   1  -9   -3.80   14.50
  -7  -1   9   25.80   46.90
  -7  -1   9   38.50   15.80
   7  -1  -9    0.80   15.60
  -7   1   9    2.70   46.50
   7   1  -9   -0.20   18.70
  -7   1   9    8.40   14.10
  -5  -1   9   39.80   44.30
   5  -1  -9  -74.99   44.40
   5  -1  -9    3.10   18.80
  -5  -1   9   42.00   15.60
  -5   1   9   33.50   14.90
   5   1  -9  -52.19   47.50
  -5   1   9    3.10   46.50
   3  -1  -9  -11.50   17.90
  -3  -1   9   13.50   19.40
  -3  -1   9  -11.80   11.70
  -3   1   9    6.00   11.20
  -3   1   9    7.70   19.10
   1  -1  -9   73.59   24.10
  -1  -1   9   41.40   22.20
   1   1  -9   21.40   22.40
  -1   1   9   12.20   22.90
 -16  -2   9   42.20   81.19
  16  -2  -9   92.29   84.59
 -16  -2   9   -1.70   42.50
 -16   2   9  -51.29   77.69
  16   2  -9   -5.90   85.59
  14  -2  -9   31.60   67.89
  14  -2  -9  -24.70   22.20
 -14  -2   9   19.20   18.90
 -14  -2   9  -69.29   62.69
 -14   2   9   53.09   23.60
 -14   2   9   -6.70   64.49
  14   2  -9   13.60   71.99
  12  -2  -9  -12.50   57.49
 -12  -2   9    7.70   19.70
 -12  -2   9   -7.00   55.79
  12  -2  -9   21.90   19.90
  12   2  -9   60.59   59.99
  12   2  -9   23.80   22.40
 -12   2   9  -56.49   55.39
 -12   2   9   11.60   15.30
 -10  -2   9  -10.90   48.30
  10  -2  -9  -37.70   49.70
 -10  -2   9   27.90   15.60
  10   2  -9    6.10   28.30
 -10   2   9  -56.69   48.10
  10   2  -9   -0.60   50.49
 -10   2   9    9.60   15.60
   8  -2  -9   27.50   18.10
  -8  -2   9  -25.60   44.70
   8  -2  -9   34.90   49.90
   8   2  -9   10.50   49.10
   8   2  -9   21.70   19.30
  -8   2   9   23.60   15.10
  -8   2   9   49.70   51.59
  -6  -2   9   48.20   46.70
  -6  -2   9   59.39   16.50
   6  -2  -9   40.40   19.40
   6  -2  -9   20.90   79.89
   6   2  -9   63.19   54.29
  -6   2   9   48.90   52.49
   6   2  -9   70.59   36.50
  -6   2   9   47.90   17.40
  -4  -2   9   13.20   17.00
  -4  -2   9   -5.40   10.70
   4  -2  -9  -29.00   17.00
  -4   2   9    5.00   11.90
  -2  -2   9    7.50   18.80
   2  -2  -9    9.30   20.70
  -2   2   9   23.50   22.00
   0  -2  -9   34.10   25.70
   0  -2   9   54.79   46.50
   0   2  -9  -18.00   24.50
   0   2   9   39.50   26.70
 -15  -3   9   56.29   26.10
  15  -3  -9   80.89   84.79
 -15  -3   9  118.49   72.39
 -15   3   9  -26.70   72.99
  15   3  -9  153.58  154.98
 -15   3   9   44.10   21.00
  13  -3  -9   52.19   22.80
 -13  -3   9   86.39   62.69
  13  -3  -9   -6.50   59.79
 -13  -3   9   12.60   19.90
  13   3  -9   42.80   67.09
 -13   3   9   33.00   21.20
  13   3  -9    7.20   26.50
 -11  -3   9   -8.00   13.30
  11  -3  -9   34.10   19.10
  11  -3  -9   47.70   55.59
 -11  -3   9   23.00   52.39
 -11   3   9   18.50   55.49
  11   3  -9   46.70   23.60
 -11   3   9    2.90   15.20
  11   3  -9    7.60   51.79
  -9  -3   9   18.20   50.79
   9  -3  -9   13.30   52.39
   9  -3  -9   49.10   19.50
  -9  -3   9   38.20   17.00
  -9   3   9   43.30   48.30
  -9   3   9   24.00   16.30
   9   3  -9    9.20   16.30
   9   3  -9   25.30   50.59
   7  -3  -9   80.19   25.80
  -7  -3   9   99.29   22.20
  -7   3   9   50.29   50.39
  -7   3   9   55.59   22.60
   7   3  -9   81.39   24.00
  -5  -3   9   -4.50   11.80
   5  -3  -9   33.30   50.39
   5  -3  -9   -0.70   18.80
  -5  -3   9  -35.30   42.50
  -5   3   9   55.19   51.19
  -5   3   9    4.00   13.50
   5   3  -9   53.09   51.59
  -3  -3   9   21.40    7.30
   3  -3  -9   26.20   20.00
  -3  -3   9  -21.20   17.70
  -3   3   9   -8.30   11.60
  -1  -3   9   15.30   23.40
   1  -3  -9  -13.90   23.70
   1   3  -9   14.70   28.90
  -1   3   9   24.00   29.80
 -16  -4   9  -12.90   19.60
  16  -4  -9   39.50   91.49
 -16  -4   9  101.39   82.39
 -16   4   9    3.90   20.60
 -16   4   9   37.80   83.59
  16   4  -9    3.70   92.69
 -14  -4   9   47.90   23.10
  14  -4  -9   50.69   27.30
 -14  -4   9   52.29   64.29
  14  -4  -9  -39.70   70.69
  14   4  -9   51.19   79.19
 -14   4   9   72.19   23.40
 -14   4   9   -0.10   66.39
 -12  -4   9  104.59   62.79
 -12  -4   9   93.99   25.70
  12  -4  -9  112.99   63.49
  12  -4  -9   66.39   24.30
  12   4  -9  160.88   65.99
 -12   4   9   81.19   25.50
 -12   4   9  126.89   64.09
  12   4  -9   92.79   27.30
 -10  -4   9   -1.30   15.60
 -10  -4   9    2.90   46.80
  10  -4  -9   23.60   20.50
  10  -4  -9   43.70   52.79
 -10   4   9    9.50   53.09
 -10   4   9   14.00   17.40
  10   4  -9  -34.50   51.89
  10   4  -9   28.90   21.80
   8  -4  -9   32.40   52.59
  -8  -4   9   62.09   50.29
   8  -4  -9   58.99   25.00
  -8   4   9   52.89   18.90
  -8   4   9   93.39   53.59
   8   4  -9   40.70   19.80
  -6  -4   9  -12.50   41.80
  -6  -4   9   28.90   14.60
   6  -4  -9   -0.60   55.49
   6  -4  -9   33.50   21.50
   6   4  -9   29.90   17.10
  -6   4   9   52.69   50.59
  -6   4   9   40.10   17.20
   6   4  -9   82.79   50.69
  -4  -4   9   24.50   11.70
  -4  -4   9   28.00   17.30
   4  -4  -9   51.79   20.60
  -4   4   9   13.70   14.50
   2  -4  -9   72.99   25.60
  -2  -4   9   44.40   24.30
   2   4  -9   31.80   36.60
  -2   4   9   92.59   32.20
   0  -4   9   57.49   27.90
   0   4   9   12.00   27.70
   0   4  -9   74.29   27.70
 -15  -5   9   68.09   73.99
  15  -5  -9   -3.90   77.39
 -15  -5   9   46.00   26.50
 -15   5   9   -4.70   72.79
 -15   5   9   33.70   24.60
  15   5  -9   92.09   83.79
 -13  -5   9   89.39   28.80
  13  -5  -9  138.39   32.80
  13  -5  -9  164.68   85.79
 -13  -5   9  -28.70   60.19
 -13   5   9   59.29   71.99
 -13   5   9  108.79   28.70
  13   5  -9  177.58   75.59
 -11  -5   9  149.79   29.80
  11  -5  -9  110.79   63.29
 -11  -5   9   73.29   56.79
  11  -5  -9  134.99   30.40
 -11   5   9  165.88   65.19
 -11   5   9  135.69   30.50
  11   5  -9   85.29   30.30
  11   5  -9  167.08   70.89
  -9  -5   9   93.99   56.09
   9  -5  -9   27.30   18.60
   9  -5  -9   84.49   55.29
  -9  -5   9  109.69   23.10
   9   5  -9  104.29   57.19
   9   5  -9   53.89   23.50
  -9   5   9   73.49   22.80
  -9   5   9  111.99   53.99
  -7  -5   9   68.99   20.80
   7  -5  -9   90.29   27.20
  -7  -5   9   79.79   49.80
   7   5  -9  105.79   27.20
  -7   5   9   62.09   19.20
   7   5  -9  131.89   54.89
  -7   5   9   70.09   51.59
  -5  -5   9   15.10   12.80
  -5  -5   9   35.20   19.70
   5  -5  -9   42.60   21.60
   5  -5  -9    1.70   53.19
  -5   5   9   28.80   16.10
  -5   5   9   -9.30   50.09
   5   5  -9    7.00   18.60
  -3  -5   9   58.99   22.30
   3  -5  -9   53.49   24.70
   3   5  -9   18.80   33.20
  -3   5   9   27.60   14.90
  -1  -5   9   58.69   25.50
   1   5  -9   80.59   27.70
  -1   5   9  103.99   35.30
 -16  -6   9  102.09   98.29
  16  -6  -9   -1.40   89.69
 -16  -6   9   72.29   31.50
 -16   6   9   13.50   97.29
  16   6  -9   72.89  103.49
 -16   6   9  101.59   33.30
 -14  -6   9  -30.30   64.99
  14  -6  -9  110.79   75.39
 -14  -6   9   45.50   23.30
 -14   6   9   48.50   24.00
 -14   6   9   -8.50   68.49
  14   6  -9  -34.50   74.59
  12  -6  -9  159.48   69.29
  12  -6  -9  209.28   37.90
 -12  -6   9  112.09   27.30
 -12  -6   9  143.19   68.89
 -12   6   9  116.59   27.90
 -12   6   9   55.09   66.69
  12   6  -9  128.79   73.59
  10  -6  -9  213.58   39.00
 -10  -6   9  213.98   72.29
 -10  -6   9  249.68   37.20
  10  -6  -9   63.69   63.69
  10   6  -9  274.67   73.69
 -10   6   9  231.48   70.49
 -10   6   9  221.48   37.10
  10   6  -9  288.57   43.80
  -8  -6   9   18.80   23.90
   8  -6  -9    7.00   54.09
   8  -6  -9   45.30   20.70
  -8  -6   9   17.00   83.29
  -8   6   9   -6.00   15.80
  -8   6   9   -7.70   51.69
   8   6  -9   40.40   23.00
  -6  -6   9  135.29   23.80
  -6  -6   9   37.40   49.40
   6  -6  -9  162.98   32.20
   6  -6  -9   64.09   59.39
   6   6  -9   71.29   57.29
  -6   6   9  145.89   61.19
  -6   6   9  173.58   28.80
   6   6  -9   94.29   25.70
   4  -6  -9   77.09   24.60
  -4  -6   9  111.79   26.50
  -4   6   9   78.99   20.10
   4   6  -9   58.79   23.80
  -2  -6   9  120.59   28.80
   2   6  -9  126.49   29.00
  -2   6   9  143.19   36.30
  -2   6   9  142.39   21.40
  15  -7  -9  244.68   93.19
 -15  -7   9   42.40   31.70
 -15  -7   9   62.19   75.89
  15   7  -9   21.40   94.89
 -15   7   9   93.89   88.89
 -15   7   9   55.59   54.79
  13  -7  -9  -39.20  119.99
 -13  -7   9    8.70   66.89
 -13  -7   9   66.59   24.70
 -13   7   9   61.19   26.00
  13   7  -9  113.99   77.99
 -13   7   9  -41.80   73.19
  11  -7  -9  301.67   49.99
  11  -7  -9  156.88   71.29
 -11  -7   9  262.27   38.80
 -11  -7   9  318.67   77.99
 -11   7   9  303.67   42.50
  11   7  -9  301.97   80.79
 -11   7   9  280.37   80.29
   9  -7  -9   60.79   27.90
   9  -7  -9  180.08   70.39
  -9  -7   9  113.19   61.69
  -9  -7   9  118.59   26.00
  -9   7   9  122.89   65.49
  -9   7   9  165.28   32.50
   9   7  -9  141.99   31.40
  -7  -7   9   97.89   21.60
  -7  -7   9   28.10   51.39
   7  -7  -9   37.50   22.30
  -7   7   9   48.80   57.29
  -7   7   9   59.99   21.10
   7   7  -9   63.09   23.80
   7   7  -9   88.59   57.29
   5  -7  -9  101.29   31.40
  -5  -7   9  139.79   22.20
   5  -7  -9  168.68   68.09
   5   7  -9  181.78   33.00
  -5   7   9  135.39   65.29
  -3  -7   9  162.58   33.40
   3   7  -9  184.88   34.50
  -3   7   9  166.48   25.50
  -1  -7   9  160.78   34.50
  -1  -7   9   91.99   56.89
  -1   7   9  134.19   38.50
   1   7  -9   84.89   29.20
 -14  -8   9  132.59   77.39
 -14  -8   9   61.79   26.00
  14  -8  -9  -40.90   77.49
 -14   8   9   80.09   31.90
 -14   8   9   54.19   76.19
 -12  -8   9  150.08   67.59
 -12  -8   9  128.49   32.00
  12  -8  -9  133.49   71.59
 -12   8   9  111.19   26.60
 -12   8   9  113.69   68.69
  12   8  -9   90.19   75.79
 -10  -8   9  195.18   68.09
  10  -8  -9  278.97   72.99
 -10  -8   9  275.07   39.10
 -10   8   9  189.18   34.20
 -10   8   9  124.49   72.79
  -8  -8   9  269.07   73.49
   8  -8  -9  233.78   70.49
  -8  -8   9  247.88   34.60
  -8   8   9  205.98   73.59
   8   8  -9  281.67   74.79
  -8   8   9  166.28   32.30
   8   8  -9  160.08   32.60
   6  -8  -9  147.49   67.09
  -6  -8   9   48.80   17.10
  -6  -8   9   56.59   19.20
  -6   8   9   71.99   22.10
   6   8  -9  104.29   25.90
  -6   8   9   -7.30   57.19
  -4  -8   9  247.38   21.70
  -4  -8   9  207.98   35.80
   4   8  -9  210.78   37.40
  -4   8   9  171.68   33.00
  -2  -8   9   67.49   56.49
  -2  -8   9  144.19   34.40
   2   8  -9  196.68   38.40
  -2   8   9  158.38   24.50
  -2   8   9  165.18   39.00
 -15  -9   9    8.40   86.69
 -15  -9   9   61.49   29.60
 -15  -9   9  120.39   88.29
  15  -9  -9  -29.00   89.29
 -15   9   9   94.99   32.60
 -15   9   9  153.18   96.99
 -13  -9   9  203.78   38.70
  13  -9  -9  216.28  101.49
 -13  -9   9   87.19   72.39
 -13   9   9  147.59   91.59
 -13   9   9   86.29   25.90
  11  -9  -9  111.89   73.19
 -11  -9   9  112.89   27.30
 -11  -9   9  150.88   71.19
 -11   9   9  177.78   33.20
 -11   9   9  168.58   75.99
   9  -9  -9  192.88   69.49
  -9  -9   9  214.38   68.79
  -9  -9   9  206.18   32.50
   9   9  -9  147.19   75.19
  -9   9   9  140.19   29.40
  -9   9   9  165.28   71.19
  -7  -9   9  196.98   29.30
  -7  -9   9  233.88   32.10
  -7   9   9  201.58   34.70
   7   9  -9  171.68   34.40
  -5  -9   9  188.98   33.70
  -5  -9   9  186.48   23.80
  -5   9   9  144.99   28.20
   5   9  -9  195.58   37.20
  -3  -9   9  292.17   42.80
  -3  -9   9  169.48   63.79
   3   9  -9  157.68   39.00
  -3   9   9  314.07   36.10
  14 -10  -9   88.99   90.29
 -14 -10   9  105.59   86.89
 -14 -10   9   90.19   34.60
 -14 -10   9 -105.39   79.09
 -14  10   9  142.39   34.20
 -14  10   9  246.58   96.39
  12 -10  -9  173.28   82.89
 -12 -10   9  220.08   75.19
 -12 -10   9  187.58   35.20
 -12  10   9  218.18   40.10
 -12  10   9   84.59   78.69
 -10 -10   9  114.79   71.39
  10 -10  -9   85.59   75.29
 -10  10   9  201.78   36.60
 -10  10   9   38.00   68.19
  -8 -10   9  158.98   26.80
  -8 -10   9  175.98   69.69
  -8 -10   9  181.18   30.80
   8 -10  -9  164.98   88.39
  -8  10   9  220.88   33.60
  -8  10   9  308.07   83.09
   6 -10  -9  367.26   87.79
  -6 -10   9  360.76   37.80
  -6 -10   9  360.86   35.00
  -6  10   9  292.17   88.69
   6  10  -9  376.26   75.79
  -6  10   9  388.86   41.90
  -4 -10   9  240.58   18.30
  -4 -10   9  245.58   41.20
  -4 -10   9  143.19   62.89
  -4 -10   9  233.58   20.20
  -4  10   9  156.48   30.00
   4  10  -9  138.89   34.40
  -2 -10   9  236.58   39.70
  -2 -10   9  287.87   71.09
  -2  10   9  179.88   43.10
  -2  10   9  238.68   31.30
   2  10  -9  265.87   43.50
 -13 -11   9  186.28   43.20
 -13 -11   9  237.28   88.99
 -13 -11   9  110.29   85.79
  13 -11  -9  193.48   93.79
 -13  11   9  156.68   35.70
 -13  11   9  170.98  142.69
 -11 -11   9   98.49   77.09
 -11 -11   9  165.78   76.59
  11 -11  -9  144.69   83.09
 -11 -11   9  139.49   30.50
 -11  11   9  140.29   34.40
 -11  11   9  168.98   82.59
  -9 -11   9  234.08   79.79
   9 -11  -9  258.77   84.69
  -9 -11   9  246.68   35.80
  -9 -11   9  260.27   78.19
  -9 -11   9  253.77   29.40
  -9  11   9  206.88   37.60
  -9  11   9  233.68   75.69
  -7 -11   9  200.98   76.89
  -7 -11   9  289.27   32.80
   7 -11  -9   76.09   81.59
  -7 -11   9  277.37   33.90
  -7  11   9  285.77   41.80
  -7  11   9  208.18   82.39
  -5 -11   9  320.97   79.29
  -5 -11   9  392.46   41.00
  -5 -11   9  408.66   32.70
  -5  11   9  483.25   44.60
  -3 -11   9  239.98   37.20
  -3 -11   9  278.77   72.59
  -3  11   9  261.07   35.80
  12 -12  -9  246.58   95.59
 -12 -12   9  145.59   36.20
 -12 -12   9   30.60   82.39
 -12 -12   9   76.79   82.29
 -12  12   9  190.28   89.69
 -12  12   9   69.49   52.59
 -10 -12   9  260.17   87.29
 -10 -12   9  232.38   84.49
 -10 -12   9  198.38   33.90
 -10 -12   9  267.47   28.40
  10 -12  -9  147.59   85.19
 -10  12   9  150.58   77.89
 -10  12   9  198.18   36.80
  -8 -12   9  309.07   31.70
  -8 -12   9  317.47   38.60
  -8 -12   9  235.48   79.09
  -8  12   9  255.97   40.00
  -8  12   9  314.17   99.19
  -6 -12   9  259.27   33.90
  -6 -12   9  325.57   34.50
   6 -12  -9  368.26  118.89
  -6 -12   9  347.97   35.50
  -6  12   9  266.27   39.60
  -6  12   9  416.86  112.29
  -4 -12   9  508.65   46.80
  -4 -12   9  466.65   92.69
  -4  12   9  382.86   43.30
 -11 -13   9  136.89   33.80
 -11 -13   9  148.99   86.29
 -11 -13   9  190.58   23.10
  11 -13  -9  128.89   87.79
 -11  13   9  111.89   89.39
 -11  13   9  209.18   45.80
  -9 -13   9  303.47   30.00
  -9 -13   9  347.57   41.70
  -9 -13   9  316.87   92.69
   9 -13  -9  276.97   98.09
  -9  13   9  333.07   95.49
  -9  13   9  323.77   49.40
  -7 -13   9  340.77   33.00
  -7 -13   9  203.38   80.09
   7 -13  -9  233.28   98.09
  -7  13   9  351.06   94.69
  -7  13   9  190.88   38.90
  -5 -13   9  457.95   34.30
  -5 -13   9  449.95   42.50
  -5 -13   9  371.26  105.79
  -5  13   9  489.55   53.19
 -10 -14   9  191.58   93.79
  10 -14  -9  211.18  102.29
 -10 -14   9  159.78   34.90
 -10 -14   9  263.87   26.90
 -10  14   9  257.27   47.00
 -10  14   9  144.99   96.79
  -8 -14   9  397.56   31.30
  -8 -14   9  439.36  106.29
  -8 -14   9  367.96   42.50
   8 -14  -9  464.65  110.79
  -8  14   9  298.07   47.60
  -8  14   9  113.29   87.59
  -6 -14   9  399.26   41.60
  -6 -14   9  407.96   38.90
  -6 -14   9  499.25   40.30
  -6  14   9  380.46   52.39
  -9 -15   9  304.37   20.30
  -9 -15   9  306.17   42.50
  -9  15   9  247.28   45.50
  -7 -15   9  480.45   46.10
  -7 -15   9  415.16   33.40
 -14   0  10  147.19   35.40
 -14   0  10  149.49   87.69
  14   0 -10  121.29   90.49
 -12   0  10  504.85   98.09
  12   0 -10  252.57   88.69
 -10   0  10  105.69   77.09
 -10   0  10  225.68   36.10
  -8   0  10  368.16   88.39
   8   0 -10  545.55  110.89
  -8   0  10  548.45   46.60
  -4   0  10  590.94   61.39
  -4   0  10  667.93   38.70
 -15  -1  10  154.38   90.29
 -15  -1  10  174.48   35.80
  15  -1 -10  133.99   98.99
 -15   1  10   67.39   90.09
 -15   1  10  110.09   32.70
  15   1 -10  259.57  103.19
 -13  -1  10  305.67   46.50
  13  -1 -10  286.47   96.09
 -13  -1  10  149.39   79.19
  13   1 -10  372.66   96.09
 -13   1  10  120.79   76.49
 -13   1  10  327.97   47.10
 -11  -1  10  212.68   35.80
 -11  -1  10  234.48   81.19
 -11   1  10  310.67   84.99
 -11   1  10  385.26   45.00
  -9  -1  10  258.67   36.90
  -9  -1  10  306.57   82.19
   9  -1 -10  418.36   88.29
  -9   1  10  353.76   40.90
  -9   1  10  259.17   80.99
   9   1 -10  380.56   88.49
  -7   1  10  661.13   49.60
  -5  -1  10  577.84   39.40
  -5  -1  10  504.25   55.99
  -5   1  10  458.25   39.70
  -3  -1  10  431.86   84.89
  -3   1  10  345.37   53.29
 -14  -2  10  282.07   61.29
 -14  -2  10  165.48   84.49
  14  -2 -10  292.37   95.99
  14   2 -10  170.38   93.09
 -14   2  10  261.37   93.59
 -12  -2  10  197.68   33.90
 -12  -2  10  243.28   82.49
  12  -2 -10  240.38   80.99
 -12   2  10  106.09   77.59
  12   2 -10  183.68   82.09
 -12   2  10  133.89   32.20
 -10  -2  10  215.88   34.20
 -10  -2  10   97.99   69.59
 -10   2  10  335.77   39.30
  10   2 -10  311.17   88.69
   8  -2 -10  305.97   85.59
  -8  -2  10  288.97   36.00
  -8   2  10  393.86   85.89
  -8   2  10  265.87   37.70
  -6  -2  10  509.25   40.80
  -6   2  10  496.05   42.70
  -4  -2  10  371.76   53.09
  -4  -2  10  249.48   29.60
  -4   2  10  288.67   50.39
  -4   2  10  382.86   31.90
  15  -3 -10  225.28  107.59
 -15  -3  10  132.59   36.10
 -15  -3  10    2.10   87.89
 -15   3  10  222.28   98.39
  15   3 -10  210.68  103.09
 -15   3  10  169.38   38.90
  13  -3 -10  203.98   86.69
 -13  -3  10  224.78   39.20
 -13  -3  10  366.16   93.19
 -13   3  10  155.08   86.59
 -13   3  10  226.68   41.10
  13   3 -10   88.69   80.59
  11  -3 -10  444.26   97.49
 -11  -3  10  353.66   46.10
 -11   3  10  230.38   38.40
 -11   3  10  169.58   74.19
   9  -3 -10  264.47   84.19
  -9  -3  10  398.56   41.70
  -9  -3  10  243.08   74.99
   9   3 -10  237.78   81.49
  -9   3  10  360.96   41.50
  -9   3  10  355.16   83.79
  -7  -3  10  372.56   40.50
  -7   3  10  476.45   42.80
  -5  -3  10  367.96   32.40
  -5  -3  10  426.16   49.99
  -5   3  10  339.87   36.80
  14  -4 -10  269.27  100.19
 -14  -4  10   39.90   82.69
  14   4 -10  290.87  100.59
 -14   4  10  -10.40   82.29
 -14   4  10  185.68   45.90
 -12  -4  10  269.37   87.49
 -12  -4  10  259.17   42.10
  12  -4 -10  209.08   85.59
 -12   4  10  192.08   85.59
 -12   4  10  183.48   34.30
 -10  -4  10  342.47   40.80
 -10  -4  10  318.87   84.19
  10   4 -10  232.48   82.59
 -10   4  10  232.98   36.80
   8  -4 -10  519.85  100.09
  -8  -4  10  412.66   42.40
  -8   4  10  341.27   86.79
  -8   4  10  429.16   43.80
  -6  -4  10  286.57   41.50
  -6  -4  10  335.07   33.20
  -6   4  10  294.17   35.40
  -4  -4  10  441.96   53.69
  -4   4  10  426.86   37.60
 -15  -5  10  244.28   95.19
  15  -5 -10  272.77  114.29
 -15  -5  10  158.98   39.70
 -15   5  10   19.30   91.19
 -15   5  10  190.78   42.10
  15   5 -10  248.58  107.39
 -13  -5  10  182.68   82.69
 -13  -5  10  211.48   37.90
  13  -5 -10  287.07  100.59
 -13   5  10  217.58   44.30
 -13   5  10  231.68   86.89
  11  -5 -10  238.18   89.39
 -11  -5  10  259.97   86.59
 -11  -5  10  199.48   35.00
 -11   5  10  330.67   47.10
  11   5 -10  334.67   90.79
 -11   5  10  355.36   92.59
   9  -5 -10  282.87   85.59
  -9  -5  10  349.47   42.00
  -9   5  10  419.36   93.79
  -9   5  10  414.46   43.90
  -7  -5  10  384.96   37.40
  -7   5  10  366.56   41.00
  -5  -5  10  346.67   49.50
  -5  -5  10  414.96   32.00
  -5   5  10  317.07   40.90
 -14  -6  10  134.89   39.20
 -14  -6  10   -8.60   80.49
  14  -6 -10  345.97  110.49
 -14   6  10  267.47   98.29
  14   6 -10  195.08  111.39
 -14   6  10  195.28   41.00
 -12  -6  10  189.08   38.80
 -12  -6  10  175.58   80.39
  12  -6 -10  184.88   88.69
  12   6 -10  283.27  105.89
 -12   6  10  207.68   38.30
 -12   6  10  183.68   82.59
 -10  -6  10  240.38   83.09
 -10  -6  10  339.57   41.90
 -10   6  10  453.85   44.90
  10   6 -10  246.48   87.09
  -8  -6  10  390.46   40.90
   8  -6 -10  147.29   88.09
  -8   6  10  340.27   44.90
  -8   6  10  335.37   95.29
  -6  -6  10  230.38   28.80
  -6  -6  10  248.08   38.90
  -6   6  10  223.78   35.10
  -4  -6  10  245.58   42.20
  -4   6  10  215.68   30.50
  13  -7 -10  306.47  102.49
 -13  -7  10  167.88   38.80
 -13  -7  10  182.78   91.59
 -13   7  10  174.98   89.69
 -13   7  10  169.08   34.80
  11  -7 -10  346.17  142.29
 -11  -7  10  127.69   77.49
 -11  -7  10  172.98   32.50
  11   7 -10  318.57   97.69
 -11   7  10  361.96   50.69
 -11   7  10  173.18   81.69
   9  -7 -10  261.97   91.19
  -9  -7  10  343.07   41.30
  -9   7  10  372.06   43.70
  -9   7  10  413.56   97.79
  -7  -7  10  273.87   35.10
  -7  -7  10  238.78   38.30
  -7   7  10  244.48   36.30
  -5  -7  10  173.18   33.30
  -5  -7  10  178.38   32.50
  -5   7  10  164.98   31.20
 -12  -8  10  113.19   32.80
 -12  -8  10  103.79   83.99
  12  -8 -10  166.68   93.99
 -12   8  10  126.19   90.29
  12   8 -10  253.57   96.19
  10  -8 -10  212.78  151.88
 -10   8  10  352.46  101.59
 -10   8  10  303.67   45.10
  -8  -8  10  172.18   32.10
  -8  -8  10  203.98   32.70
  -8   8  10  256.57   40.90
  -6  -8  10  279.87   41.90
  -6  -8  10  183.28   26.90
  -6   8  10  228.58   37.90
  13  -9 -10  115.09  101.19
 -13  -9  10   95.69   93.59
 -13  -9  10   64.09   46.00
 -13   9  10   96.39  101.39
 -13   9  10   41.60   29.80
 -11  -9  10  177.28   34.40
 -11   9  10   89.39   88.39
   9  -9 -10  211.28   92.29
  -9  -9  10  233.68   35.80
  -9   9  10  314.07   91.79
  -9   9  10  225.98   37.10
  -7  -9  10  122.59   27.70
  -7  -9  10   77.89   23.20
  -7   9  10  104.19   30.00
 -12 -10  10  122.49   32.60
  12 -10 -10  161.98  101.79
 -12  10  10   71.49   32.70
 -12  10  10   69.69   94.09
 -10 -10  10  216.88   38.70
  10 -10 -10  255.67   99.19
 -10  10  10  189.98   42.90
 -10  10  10  149.19   93.39
  -8 -10  10  201.48   32.90
  -8 -10  10  152.48   28.70
  -8  10  10   72.19   28.80
  -9 -11  10  208.28   35.70
   9 -11 -10  228.38  127.09
  -9 -11  10  113.09   24.50
  -9  11  10  136.39   38.40
  -9  11  10   85.99  102.09
 -12   0  11  -18.20   27.50
 -10   0  11   18.30   24.90
 -11  -1  11  -32.40   24.40
 -11   1  11   41.90   26.00
  -9  -1  11  -10.80   21.60
  -9   1  11    5.70   22.90
 -10  -2  11   49.70   25.70
 -10   2  11  119.09   34.40
 -11  -3  11   27.00   28.10
 -11   3  11   19.70   25.50
   0   0   0    0.00    0.00

_computing_structure_solution     'SHELXT 2018/2 (Sheldrick, 2018)'
;
_shelx_hkl_checksum              53218
_olex2_submission_special_instructions 'No special instructions were received'
loop_
_space_group_symop_operation_xyz
'x, y, z'
'-x, y, -z+1/2'
'x+1/2, y+1/2, z'
'-x+1/2, y+1/2, -z+1/2'
'-x, -y, -z'
'x, -y, z-1/2'
'-x+1/2, -y+1/2, -z'
'x+1/2, -y+1/2, z-1/2'
loop_
_atom_site_label
_atom_site_type_symbol
_atom_site_fract_x
_atom_site_fract_y
_atom_site_fract_z
_atom_site_U_iso_or_equiv
_atom_site_adp_type
_atom_site_occupancy
_atom_site_site_symmetry_order
_atom_site_calc_flag
_atom_site_refinement_flags_posn
_atom_site_refinement_flags_adp
_atom_site_refinement_flags_occupancy
_atom_site_disorder_assembly
_atom_site_disorder_group
Ce1 Ce 0.500000 0.51343(2) 0.250000 0.02757(16) Uani 1 2 d S TU P C .
O1 O 0.7009(5) 0.5592(4) 0.3928(9) 0.0842(19) Uani 1 1 d . . . . .
O2 O 0.5706(4) 0.54958(17) 0.5757(5) 0.0387(9) Uani 1 1 d . . . . .
N1 N 0.6223(5) 0.6090(2) 0.6555(6) 0.0437(12) Uani 1 1 d . . . . .
H1 H 0.637445 0.636732 0.595778 0.052 Uiso 1 1 calc R U . . .
O4 O 0.6281(5) 0.5830(2) 0.9154(6) 0.0546(12) Uani 1 1 d . . . . .
O3 O 0.500000 0.6442(4) 0.250000 0.097(3) Uani 1 2 d S TU P . .
C3 C 0.6484(6) 0.6230(3) 0.8260(8) 0.0455(14) Uani 1 1 d . . . . .
C4 C 0.7021(6) 0.6893(3) 0.9115(8) 0.0482(16) Uani 1 1 d . . . . .
C1 C 0.8184(7) 0.7846(3) 0.9576(10) 0.0580(19) Uani 1 1 d . . . . .
H1A H 0.865084 0.807642 0.930734 0.070 Uiso 1 1 calc R U . . .
C2 C 0.7691(7) 0.7247(3) 0.8689(10) 0.0583(19) Uani 1 1 d . . . . .
H2 H 0.781069 0.708143 0.779803 0.070 Uiso 1 1 calc R U . . .
N2 N 0.500000 0.6998(4) 0.250000 0.098(4) Uani 1 2 d S T P B .
N3 N 0.8576(8) 0.5872(5) 0.4028(16) 0.106(3) Uani 1 1 d . U . . .
C6 C 0.8607(19) 0.5259(10) 0.304(3) 0.199(7) Uani 1 1 d . U . . .
H6A H 0.929078 0.526954 0.302838 0.299 Uiso 1 1 calc R U . A 2
H6B H 0.792815 0.524925 0.175054 0.299 Uiso 1 1 calc R U . A 2
H6C H 0.862303 0.486925 0.369847 0.299 Uiso 1 1 calc R U . A 2
C7 C 0.9372(13) 0.6259(9) 0.395(2) 0.175(5) Uani 1 1 d . U . . .
H7A H 1.012686 0.605621 0.471050 0.262 Uiso 1 1 calc R U . . .
H7B H 0.940476 0.669482 0.444101 0.262 Uiso 1 1 calc R U . . .
H7C H 0.913511 0.629390 0.265896 0.262 Uiso 1 1 calc R U . . .
O5 O 0.483(6) 0.7357(11) 0.121(4) 0.120(17) Uani 0.42(7) 1 d . . P B 1
O6 O 0.394(4) 0.7183(17) 0.096(2) 0.125(16) Uani 0.58(7) 1 d . . P B 2
C5A C 0.7601(12) 0.5508(9) 0.338(2) 0.053(5) Uani 0.47(2) 1 d . . P C 1
H5A H 0.739523 0.518005 0.247344 0.063 Uiso 0.47(2) 1 calc R U P C 1
C5B C 0.7764(16) 0.6034(12) 0.417(3) 0.086(7) Uani 0.53(2) 1 d . . P C 2
H5B H 0.770098 0.647172 0.446056 0.104 Uiso 0.53(2) 1 calc R U P C 2
loop_
_atom_site_aniso_label
_atom_site_aniso_U_11
_atom_site_aniso_U_22
_atom_site_aniso_U_33
_atom_site_aniso_U_23
_atom_site_aniso_U_13
_atom_site_aniso_U_12
Ce1 0.0465(3) 0.0169(2) 0.0203(2) 0.000 0.01960(18) 0.000
O1 0.073(4) 0.112(5) 0.085(4) -0.016(4) 0.055(3) -0.031(3)
O2 0.067(3) 0.0229(19) 0.0308(18) -0.0109(14) 0.0306(19) -0.0165(17)
N1 0.072(3) 0.031(2) 0.030(2) -0.0124(19) 0.031(2) -0.024(2)
O4 0.092(3) 0.038(2) 0.032(2) -0.0135(17) 0.035(2) -0.029(2)
O3 0.159(7) 0.040(4) 0.055(4) 0.000 0.039(4) 0.000
C3 0.072(4) 0.032(3) 0.034(3) -0.010(2) 0.030(3) -0.018(3)
C4 0.078(4) 0.034(3) 0.034(3) -0.014(2) 0.033(3) -0.024(3)
C1 0.091(5) 0.047(4) 0.052(4) -0.022(3) 0.050(4) -0.034(4)
C2 0.102(5) 0.042(4) 0.049(3) -0.027(3) 0.054(4) -0.035(4)
N2 0.212(14) 0.030(5) 0.065(6) 0.000 0.087(9) 0.000
N3 0.080(5) 0.121(7) 0.141(8) -0.004(6) 0.076(5) -0.021(5)
C6 0.141(9) 0.192(12) 0.185(12) -0.002(10) 0.045(9) -0.002(10)
C7 0.116(8) 0.202(11) 0.188(11) 0.030(9) 0.076(8) -0.036(8)
O5 0.20(4) 0.077(12) 0.087(13) 0.045(10) 0.085(19) 0.020(15)
O6 0.19(3) 0.100(16) 0.071(8) 0.041(8) 0.066(12) 0.070(19)
C5A 0.053(8) 0.067(12) 0.037(7) -0.001(7) 0.024(6) -0.013(7)
C5B 0.087(13) 0.094(16) 0.091(14) -0.003(11) 0.059(11) -0.019(10)
loop_
_atom_type_symbol
_atom_type_description
_atom_type_scat_dispersion_real
_atom_type_scat_dispersion_imag
_atom_type_scat_source
C C 0.0033 0.0016 'International Tables Vol C Tables 4.2.6.8 and 6.1.1.4'
H H 0.0000 0.0000 'International Tables Vol C Tables 4.2.6.8 and 6.1.1.4'
Ce Ce -0.2486 2.6331 'International Tables Vol C Tables 4.2.6.8 and 6.1.1.4'
N N 0.0061 0.0033 'International Tables Vol C Tables 4.2.6.8 and 6.1.1.4'
O O 0.0106 0.0060 'International Tables Vol C Tables 4.2.6.8 and 6.1.1.4'
loop_
_geom_angle_atom_site_label_1
_geom_angle_atom_site_label_2
_geom_angle_atom_site_label_3
_geom_angle
_geom_angle_site_symmetry_1
_geom_angle_site_symmetry_3
_geom_angle_publ_flag
O1 Ce1 O1 137.1(3) 2_655 . ?
O1 Ce1 O2 126.64(18) . 5_666 ?
O1 Ce1 O2 76.55(18) . 6_565 ?
O1 Ce1 O2 76.55(18) 2_655 5_666 ?
O1 Ce1 O2 126.64(18) 2_655 6_565 ?
O1 Ce1 O3 68.55(17) . . ?
O1 Ce1 O3 68.55(18) 2_655 . ?
O2 Ce1 O1 74.15(18) 2_655 2_655 ?
O2 Ce1 O1 93.34(18) . 2_655 ?
O2 Ce1 O1 93.34(19) 2_655 . ?
O2 Ce1 O1 74.15(18) . . ?
O2 Ce1 O2 120.27(16) 6_565 5_666 ?
O2 Ce1 O2 61.77(13) . 5_666 ?
O2 Ce1 O2 145.82(17) . 2_655 ?
O2 Ce1 O2 139.96(17) 2_655 5_666 ?
O2 Ce1 O2 61.77(13) 2_655 6_565 ?
O2 Ce1 O2 139.96(17) . 6_565 ?
O2 Ce1 O3 119.86(8) 6_565 . ?
O2 Ce1 O3 119.86(8) 5_666 . ?
O2 Ce1 O3 72.91(8) . . ?
O2 Ce1 O3 72.91(8) 2_655 . ?
O4 Ce1 O1 144.3(2) 6_565 2_655 ?
O4 Ce1 O1 76.3(2) 6_565 . ?
O4 Ce1 O1 76.3(2) 5_666 2_655 ?
O4 Ce1 O1 144.3(2) 5_666 . ?
O4 Ce1 O2 83.79(13) 5_666 2_655 ?
O4 Ce1 O2 70.74(15) 6_565 5_666 ?
O4 Ce1 O2 63.06(12) 5_666 5_666 ?
O4 Ce1 O2 124.77(12) 5_666 . ?
O4 Ce1 O2 63.06(12) 6_565 6_565 ?
O4 Ce1 O2 83.79(13) 6_565 . ?
O4 Ce1 O2 124.77(12) 6_565 2_655 ?
O4 Ce1 O2 70.74(15) 5_666 6_565 ?
O4 Ce1 O4 76.3(2) 5_666 6_565 ?
O4 Ce1 O3 141.83(12) 6_565 . ?
O4 Ce1 O3 141.83(12) 5_666 . ?
C5A O1 Ce1 127.0(9) . . ?
C5B O1 Ce1 155.1(11) . . ?
Ce1 O2 Ce1 118.23(13) . 5_666 ?
N1 O2 Ce1 125.4(3) . . ?
N1 O2 Ce1 114.6(3) . 5_666 ?
O2 N1 H1 120.8 . . ?
C3 N1 O2 118.5(4) . . ?
C3 N1 H1 120.8 . . ?
C3 O4 Ce1 120.0(3) . 5_666 ?
N2 O3 Ce1 180.0 . . ?
N1 C3 C4 118.5(5) . . ?
O4 C3 N1 121.6(5) . . ?
O4 C3 C4 120.0(5) . . ?
C1 C4 C3 116.6(6) 7_667 . ?
C2 C4 C3 123.9(6) . . ?
C2 C4 C1 119.5(5) . 7_667 ?
C4 C1 H1A 120.0 7_667 . ?
C2 C1 C4 119.9(6) . 7_667 ?
C2 C1 H1A 120.0 . . ?
C4 C2 H2 119.7 . . ?
C1 C2 C4 120.5(6) . . ?
C1 C2 H2 119.7 . . ?
O3 N2 O5 126.3(12) . . ?
O3 N2 O5 126.3(12) . 2_655 ?
O3 N2 O6 105.9(18) . 2_655 ?
O3 N2 O6 105.9(18) . . ?
O5 N2 O5 107(2) 2_655 . ?
O5 N2 O6 54.2(16) 2_655 2_655 ?
O5 N2 O6 105(3) . 2_655 ?
O6 N2 O6 148(4) . 2_655 ?
C7 N3 C6 98.7(13) . . ?
C5A N3 C6 71.1(13) . . ?
C5A N3 C7 158.3(13) . . ?
C5B N3 C6 125.9(16) . . ?
C5B N3 C7 130.7(16) . . ?
N3 C6 H6A 109.5 . . ?
N3 C6 H6B 109.5 . . ?
N3 C6 H6C 109.5 . . ?
H6A C6 H6B 109.5 . . ?
H6A C6 H6C 109.5 . . ?
H6B C6 H6C 109.5 . . ?
N3 C7 H7A 109.5 . . ?
N3 C7 H7B 109.5 . . ?
N3 C7 H7C 109.5 . . ?
H7A C7 H7B 109.5 . . ?
H7A C7 H7C 109.5 . . ?
H7B C7 H7C 109.5 . . ?
O1 C5A N3 122.3(15) . . ?
O1 C5A H5A 118.8 . . ?
N3 C5A H5A 118.8 . . ?
O1 C5B H5B 120.0 . . ?
N3 C5B O1 120(2) . . ?
N3 C5B H5B 120.0 . . ?
loop_
_geom_bond_atom_site_label_1
_geom_bond_atom_site_label_2
_geom_bond_distance
_geom_bond_site_symmetry_2
_geom_bond_publ_flag
Ce1 O1 2.516(6) . ?
Ce1 O1 2.516(6) 2_655 ?
Ce1 O2 2.474(3) 2_655 ?
Ce1 O2 2.474(3) . ?
Ce1 O2 2.545(4) 6_565 ?
Ce1 O2 2.545(4) 5_666 ?
Ce1 O4 2.467(4) 5_666 ?
Ce1 O4 2.467(4) 6_565 ?
Ce1 O3 2.629(8) . ?
O1 C5A 1.171(16) . ?
O1 C5B 1.303(19) . ?
O2 N1 1.362(5) . ?
N1 H1 0.8600 . ?
N1 C3 1.315(7) . ?
O4 C3 1.249(7) . ?
O3 N2 1.118(11) . ?
C3 C4 1.499(8) . ?
C4 C1 1.405(9) 7_667 ?
C4 C2 1.381(9) . ?
C1 H1A 0.9300 . ?
C1 C2 1.380(8) . ?
C2 H2 0.9300 . ?
N2 O5 1.22(2) 2_655 ?
N2 O5 1.22(2) . ?
N2 O6 1.36(3) 2_655 ?
N2 O6 1.36(3) . ?
N3 C6 1.51(2) . ?
N3 C7 1.390(15) . ?
N3 C5A 1.358(17) . ?
N3 C5B 1.26(2) . ?
C6 H6A 0.9600 . ?
C6 H6B 0.9600 . ?
C6 H6C 0.9600 . ?
C7 H7A 0.9600 . ?
C7 H7B 0.9600 . ?
C7 H7C 0.9600 . ?
C5A H5A 0.9300 . ?
C5B H5B 0.9300 . ?
loop_
_geom_torsion_atom_site_label_1
_geom_torsion_atom_site_label_2
_geom_torsion_atom_site_label_3
_geom_torsion_atom_site_label_4
_geom_torsion
_geom_torsion_site_symmetry_1
_geom_torsion_site_symmetry_2
_geom_torsion_site_symmetry_3
_geom_torsion_site_symmetry_4
_geom_torsion_publ_flag
Ce1 O1 C5A N3 167.5(9) . . . . ?
Ce1 O1 C5B N3 -128(2) . . . . ?
Ce1 O2 N1 C3 175.6(5) . . . . ?
Ce1 O2 N1 C3 11.2(7) 5_666 . . . ?
Ce1 O4 C3 N1 -13.3(9) 5_666 . . . ?
Ce1 O4 C3 C4 165.7(5) 5_666 . . . ?
O2 N1 C3 O4 0.8(10) . . . . ?
O2 N1 C3 C4 -178.2(6) . . . . ?
N1 C3 C4 C1 152.1(7) . . . 7_667 ?
N1 C3 C4 C2 -28.0(11) . . . . ?
O4 C3 C4 C1 -26.9(10) . . . 7_667 ?
O4 C3 C4 C2 152.9(8) . . . . ?
C3 C4 C2 C1 -178.2(7) . . . . ?
C4 C1 C2 C4 -1.7(13) 7_667 . . . ?
C1 C4 C2 C1 1.7(13) 7_667 . . . ?
C6 N3 C5A O1 163.9(18) . . . . ?
C6 N3 C5B O1 19(3) . . . . ?
C7 N3 C5A O1 -131(3) . . . . ?
C7 N3 C5B O1 169.6(15) . . . . ?
