#------------------------------------------------------------------------------
#$Date: 2022-09-03 00:59:01 +0300 (Sat, 03 Sep 2022) $
#$Revision: 277603 $
#$URL: file:///home/coder/svn-repositories/cod/cif/7/13/06/7130641.cif $
#------------------------------------------------------------------------------
#
# This file is available in the Crystallography Open Database (COD),
# http://www.crystallography.net/
#
# All data on this site have been placed in the public domain by the
# contributors.
#
data_7130641
loop_
_publ_author_name
'Zhang, Hao'
'Zhang, Ling-hua'
'Zhong, Yue'
'Zhou, Jiaqi'
'Li, Yuanyuan'
'Zhang, Ping'
'Xi, Junting'
'Shi, Wei'
'Qian, Hai'
_publ_section_title
;
 A radical photochromic metal-organic framework for boosting NIR-II
 photothermal conversion and therapy
;
_journal_name_full               'Chemical Communications'
_journal_paper_doi               10.1039/D2CC04064F
_journal_year                    2022
_chemical_formula_moiety         '[Zn4(PTIA)(TPT)2(H2O)2].(7H2O)'
_chemical_formula_sum            'C62 H66 N24 O25 Zn4'
_chemical_formula_weight         1808.86
_chemical_name_common            Zn-PTIA-TPT
_chemical_name_systematic        pMOF
_chemical_properties_physical    Light-sensitive,Photo-sensitive
_space_group_crystal_system      monoclinic
_space_group_IT_number           4
_space_group_name_Hall           'P 2yb'
_space_group_name_H-M_alt        'P 1 21 1'
_atom_sites_solution_hydrogens   mixed
_audit_creation_method           SHELXL-2018/1
_audit_update_record
;
2022-05-26 deposited with the CCDC.	2022-09-02 downloaded from the CCDC.
;
_cell_angle_alpha                90
_cell_angle_beta                 101.048(4)
_cell_angle_gamma                90
_cell_formula_units_Z            2
_cell_length_a                   9.8273(4)
_cell_length_b                   32.5702(10)
_cell_length_c                   11.6532(4)
_cell_measurement_reflns_used    4300
_cell_measurement_temperature    293(2)
_cell_measurement_theta_max      70.8510
_cell_measurement_theta_min      3.8500
_cell_volume                     3660.8(2)
_computing_structure_refinement  'SHELXL-2018/1 (Sheldrick, 2018)'
_computing_structure_solution    'SHELXT 2014/5 (Sheldrick, 2014)'
_diffrn_ambient_temperature      293(2)
_diffrn_detector_area_resol_mean 8.1281
_diffrn_measured_fraction_theta_full 0.999
_diffrn_measured_fraction_theta_max 0.999
_diffrn_measurement_device_type  'Xcalibur, Eos, Gemini'
_diffrn_radiation_type           CuK\a
_diffrn_radiation_wavelength     1.54178
_diffrn_reflns_av_R_equivalents  0.0336
_diffrn_reflns_av_unetI/netI     0.0701
_diffrn_reflns_Laue_measured_fraction_full 0.999
_diffrn_reflns_Laue_measured_fraction_max 0.999
_diffrn_reflns_limit_h_max       11
_diffrn_reflns_limit_h_min       -11
_diffrn_reflns_limit_k_max       38
_diffrn_reflns_limit_k_min       -38
_diffrn_reflns_limit_l_max       13
_diffrn_reflns_limit_l_min       -11
_diffrn_reflns_number            13794
_diffrn_reflns_point_group_measured_fraction_full 0.999
_diffrn_reflns_point_group_measured_fraction_max 0.999
_diffrn_reflns_theta_full        66.581
_diffrn_reflns_theta_max         66.581
_diffrn_reflns_theta_min         2.713
_diffrn_source                   'fine-focus sealed X-ray tube'
_exptl_absorpt_coefficient_mu    2.323
_exptl_absorpt_correction_T_max  1.00000
_exptl_absorpt_correction_T_min  0.89577
_exptl_absorpt_correction_type   multi-scan
_exptl_crystal_colour            yellow
_exptl_crystal_density_diffrn    1.641
_exptl_crystal_description       plate
_exptl_crystal_F_000             1852
_exptl_crystal_preparation       'Photochromism, Photothermal Conversion'
_exptl_crystal_recrystallization_method 'hydrothermal reaction'
_exptl_crystal_size_max          0.180
_exptl_crystal_size_mid          0.150
_exptl_crystal_size_min          0.120
_refine_diff_density_max         0.864
_refine_diff_density_min         -0.532
_refine_diff_density_rms         0.077
_refine_ls_abs_structure_details
;
 Refined as an inversion twin.
;
_refine_ls_abs_structure_Flack   0.44(4)
_refine_ls_extinction_method     none
_refine_ls_goodness_of_fit_ref   1.051
_refine_ls_hydrogen_treatment    constr
_refine_ls_matrix_type           full
_refine_ls_number_parameters     1052
_refine_ls_number_reflns         10124
_refine_ls_number_restraints     13
_refine_ls_restrained_S_all      1.058
_refine_ls_R_factor_all          0.0649
_refine_ls_R_factor_gt           0.0518
_refine_ls_shift/su_max          0.000
_refine_ls_shift/su_mean         0.000
_refine_ls_structure_factor_coef Fsqd
_refine_ls_weighting_details
'w=1/[\s^2^(Fo^2^)+(0.0683P)^2^+0.1726P] where P=(Fo^2^+2Fc^2^)/3'
_refine_ls_weighting_scheme      calc
_refine_ls_wR_factor_gt          0.1261
_refine_ls_wR_factor_ref         0.1359
_reflns_Friedel_coverage         0.962
_reflns_Friedel_fraction_full    0.999
_reflns_Friedel_fraction_max     0.999
_reflns_number_gt                8611
_reflns_number_total             10124
_reflns_threshold_expression     'I > 2\s(I)'
_cod_data_source_file            d2cc04064f2.cif
_cod_data_source_block           a
_cod_original_sg_symbol_H-M      'P 21'
_cod_database_code               7130641
_shelx_shelxl_version_number     2018/1
_shelx_space_group_comment
;
The symmetry employed for this shelxl refinement is uniquely defined
by the following loop, which should always be used as a source of
symmetry information in preference to the above space-group names.
They are only intended as comments.
;
_shelx_estimated_absorpt_t_min   0.680
_shelx_estimated_absorpt_t_max   0.768
_shelx_res_file
;
TITL a_a.res in P2(1)
    a.res
    created by SHELXL-2018/1 at 07:08:51 on 12-Nov-2021

CELL 1.54178 9.8273 32.5702 11.6532 90 101.048 90
ZERR 2 0.0004 0.001 0.0004 0 0.004 0
LATT -1
SYMM -X,0.5+Y,-Z
SFAC C H N O Zn
UNIT 124 132 48 50 8
ISOR 0.005 0.01 O3w
ISOR 0.01 0.02 O4w

L.S. 20
PLAN  4
SIZE 0.18 0.15 0.12
TEMP 20
CONF
BOND $H
list 4
MORE -1
fmap 2
acta
SHEL 999 0.84
TWIN -1 0 0 0 -1 0 0 0 -1 2

WGHT    0.068300    0.172600
BASF   0.44292
FVAR       0.18997
ZN1   5    0.078004    0.295927    0.435863    11.00000    0.02847    0.02525 =
         0.03777   -0.00419    0.01274   -0.00370
ZN2   5    0.807714    0.370232    0.621986    11.00000    0.03022    0.03032 =
         0.03694   -0.00368    0.01218   -0.00225
ZN3   5    0.435979    0.698412    0.793267    11.00000    0.04743    0.02964 =
         0.03864    0.00501    0.01936    0.00982
ZN4   5   -0.347287    0.625008    0.589155    11.00000    0.03594    0.06634 =
         0.03787   -0.01311    0.01395   -0.00174
C1    1    0.061428    0.337001    0.656033    11.00000    0.03527    0.02273 =
         0.03622   -0.00532    0.01774   -0.00541
C2    1    0.198715    0.319353    0.714558    11.00000    0.03653    0.03119 =
         0.04362    0.00330    0.01706    0.00330
AFIX  23
H2A   2    0.240254    0.337353    0.777979    11.00000   -1.20000
H2B   2    0.183083    0.292926    0.748162    11.00000   -1.20000
AFIX   0
C3    1    0.307476    0.243158    0.544962    11.00000    0.03652    0.01943 =
         0.08449    0.00097    0.01719    0.00533
C4    1    0.367778    0.274738    0.638581    11.00000    0.03383    0.02871 =
         0.04452    0.00472    0.01347    0.01006
AFIX  23
H4A   2    0.370403    0.262370    0.714696    11.00000   -1.20000
H4B   2    0.462811    0.280260    0.631499    11.00000   -1.20000
AFIX   0
C5    1    0.671748    0.300552    0.503771    11.00000    0.02495    0.02311 =
         0.04428   -0.01018    0.01676    0.00363
C6    1    0.633641    0.330703    0.404809    11.00000    0.03049    0.03695 =
         0.04243   -0.00524    0.01408    0.00513
AFIX  23
H6A   2    0.708219    0.331666    0.361082    11.00000   -1.20000
H6B   2    0.551319    0.320852    0.352416    11.00000   -1.20000
AFIX   0
C7    1    0.790801    0.425456    0.428163    11.00000    0.05080    0.03195 =
         0.04609    0.00318    0.02535   -0.01215
C8    1    0.650711    0.406741    0.377300    11.00000    0.05037    0.02522 =
         0.03959    0.00198    0.01855    0.00756
AFIX  23
H8A   2    0.581132    0.428173    0.370946    11.00000   -1.20000
H8B   2    0.652845    0.397274    0.298744    11.00000   -1.20000
AFIX   0
C9    1   -0.265662    0.663539    0.811991    11.00000    0.05760    0.05594 =
         0.04600   -0.01394    0.00585    0.00054
C10   1   -0.140155    0.642761    0.866521    11.00000    0.03611    0.05110 =
         0.07293   -0.02216    0.01637    0.00280
AFIX  23
H10A  2   -0.145044    0.637120    0.947363    11.00000   -1.20000
H10B  2   -0.062308    0.661073    0.866552    11.00000   -1.20000
AFIX   0
C11   1   -0.331302    0.560833    0.774412    11.00000    0.04910    0.02533 =
         0.05872    0.00149    0.02316    0.00278
C12   1   -0.184204    0.568765    0.841806    11.00000    0.04144    0.04197 =
         0.05042    0.00501    0.01701    0.01158
AFIX  23
H12A  2   -0.187965    0.570738    0.924196    11.00000   -1.20000
H12B  2   -0.128150    0.544945    0.832323    11.00000   -1.20000
AFIX   0
C13   1    0.389690    0.650627    0.561810    11.00000    0.03894    0.01874 =
         0.03798   -0.00561    0.01281   -0.00763
C14   1    0.249531    0.665811    0.500513    11.00000    0.04862    0.02022 =
         0.04234   -0.00185    0.00886   -0.00207
AFIX  23
H14A  2    0.260346    0.692579    0.466885    11.00000   -1.20000
H14B  2    0.213293    0.647219    0.436960    11.00000   -1.20000
AFIX   0
C15   1    0.149353    0.738849    0.669264    11.00000    0.01954    0.02564 =
         0.04034    0.01327    0.01377    0.00175
C16   1    0.077671    0.707473    0.583356    11.00000    0.03611    0.02582 =
         0.06028    0.00198    0.00853    0.00968
AFIX  23
H16A  2   -0.011997    0.701488    0.602640    11.00000   -1.20000
H16B  2    0.060951    0.719732    0.506067    11.00000   -1.20000
AFIX   0
C17   1    0.348578    0.347813    0.595331    11.00000    0.01769    0.02062 =
         0.04067   -0.00303    0.00486    0.00292
C18   1    0.498079    0.377563    0.496812    11.00000    0.02599    0.02923 =
         0.03159   -0.00546    0.00595    0.00113
C19   1    0.352965    0.417199    0.579724    11.00000    0.02850    0.01851 =
         0.03299    0.00125    0.00332    0.00255
C20   1   -0.021657    0.602828    0.735630    11.00000    0.02625    0.02966 =
         0.04249   -0.00461    0.00740    0.00493
C21   1    0.110763    0.634542    0.626308    11.00000    0.02449    0.02069 =
         0.04509    0.00220    0.00493    0.00253
C22   1    0.108713    0.565172    0.636091    11.00000    0.02399    0.02091 =
         0.03956    0.00726    0.00410    0.00282
C23   1    0.202937    0.458358    0.678824    11.00000    0.05161    0.03009 =
         0.05914    0.00425    0.03466    0.00597
AFIX  23
H23A  2    0.252959    0.466812    0.755144    11.00000   -1.20000
H23B  2    0.158695    0.432211    0.687404    11.00000   -1.20000
AFIX   0
C24   1    0.365560    0.493021    0.572529    11.00000    0.03705    0.02511 =
         0.05598    0.00246    0.02578    0.00183
AFIX  23
H24A  2    0.420270    0.488607    0.512625    11.00000   -1.20000
H24B  2    0.427047    0.502677    0.642553    11.00000   -1.20000
AFIX   0
C25   1    0.094605    0.490010    0.631616    11.00000    0.04402    0.02152 =
         0.07724   -0.00221    0.03536   -0.00018
AFIX  23
H25A  2    0.037540    0.479883    0.559969    11.00000   -1.20000
H25B  2    0.035081    0.494557    0.687875    11.00000   -1.20000
AFIX   0
C26   1    0.255969    0.524791    0.531664    11.00000    0.05766    0.02511 =
         0.05127    0.00843    0.03416    0.00831
AFIX  23
H26A  2    0.300259    0.551138    0.526090    11.00000   -1.20000
H26B  2    0.206507    0.517477    0.454138    11.00000   -1.20000
AFIX   0
C27   1    0.140506    0.377259    0.344830    11.00000    0.03418    0.03638 =
         0.03120   -0.00116    0.01643   -0.00446
AFIX  43
H27A  2    0.088322    0.387086    0.397627    11.00000   -1.20000
AFIX   0
C28   1    0.221090    0.323123    0.251929    11.00000    0.05606    0.03954 =
         0.03949   -0.00771    0.02520   -0.00803
AFIX  43
H28A  2    0.224550    0.294954    0.239738    11.00000   -1.20000
AFIX   0
C29   1    0.290041    0.348019    0.190994    11.00000    0.05524    0.04342 =
         0.04213   -0.00349    0.02421   -0.00764
AFIX  43
H29A  2    0.340719    0.337214    0.138376    11.00000   -1.20000
AFIX   0
C30   1    0.206192    0.404759    0.286788    11.00000    0.03345    0.02443 =
         0.04655   -0.00894    0.00980   -0.00480
AFIX  43
H30A  2    0.198718    0.432767    0.299827    11.00000   -1.20000
AFIX   0
C31   1    0.284345    0.390645    0.208052    11.00000    0.03851    0.03417 =
         0.03288    0.00340    0.00557   -0.00414
C32   1    0.417337    0.582756    0.273839    11.00000    0.07877    0.04976 =
         0.04965   -0.01646    0.01452    0.00317
AFIX  43
H32A  2    0.373675    0.593296    0.331554    11.00000   -1.20000
AFIX   0
C33   1    0.545035    0.551722    0.107688    11.00000    0.04531    0.04052 =
         0.05225    0.00275    0.01091   -0.00026
AFIX  43
H33A  2    0.590494    0.542250    0.049823    11.00000   -1.20000
AFIX   0
C34   1    0.400401    0.541928    0.247399    11.00000    0.06214    0.04683 =
         0.04087   -0.01072    0.01899   -0.00737
AFIX  43
H34A  2    0.346192    0.525385    0.285735    11.00000   -1.20000
AFIX   0
C35   1    0.555180    0.592468    0.141500    11.00000    0.05895    0.04039 =
         0.05319   -0.00833    0.00190   -0.00991
AFIX  43
H35A  2    0.609307    0.609878    0.105590    11.00000   -1.20000
AFIX   0
C36   1    0.467067    0.525462    0.160596    11.00000    0.04427    0.04219 =
         0.03257   -0.00050    0.00684   -0.00255
C37   1    0.573602    0.374241   -0.106102    11.00000    0.05148    0.02937 =
         0.04218    0.00530    0.01796   -0.00250
AFIX  43
H37A  2    0.535671    0.354723   -0.063164    11.00000   -1.20000
AFIX   0
C38   1    0.620648    0.444086   -0.148020    11.00000    0.06449    0.02734 =
         0.04117    0.00063    0.02411    0.00545
AFIX  43
H38A  2    0.614048    0.472080   -0.134347    11.00000   -1.20000
AFIX   0
C39   1    0.642166    0.362754   -0.193506    11.00000    0.04894    0.03131 =
         0.04484   -0.00512    0.01629    0.00058
AFIX  43
H39A  2    0.647989    0.334988   -0.210543    11.00000   -1.20000
AFIX   0
C40   1    0.689314    0.429794   -0.233762    11.00000    0.04951    0.03056 =
         0.03999    0.00441    0.02234   -0.00307
AFIX  43
H40A  2    0.728425    0.448721   -0.277667    11.00000   -1.20000
AFIX   0
C41   1    0.562835    0.416002   -0.084014    11.00000    0.03027    0.03651 =
         0.03194   -0.00210    0.01279   -0.00375
C42   1    0.494835    0.430862    0.012860    11.00000    0.03547    0.03532 =
         0.03569    0.00273    0.01425    0.00448
C43   1    0.450243    0.482436    0.126434    11.00000    0.03583    0.03919 =
         0.02627    0.00218    0.00855    0.00228
C44   1    0.363581    0.419042    0.147475    11.00000    0.02802    0.03421 =
         0.03345   -0.00606    0.00576   -0.00516
C45   1    0.046014    0.412825   -0.061233    11.00000    0.06674    0.05695 =
         0.05474   -0.01920    0.01301   -0.00172
AFIX  43
H45A  2    0.087899    0.402712   -0.120557    11.00000   -1.20000
AFIX   0
C46   1   -0.091546    0.403253    0.072929    11.00000    0.05602    0.04566 =
         0.03998    0.00675    0.00371   -0.00937
AFIX  43
H46A  2   -0.146288    0.386177    0.109229    11.00000   -1.20000
AFIX   0
C47   1    0.067159    0.453217   -0.029986    11.00000    0.05239    0.05510 =
         0.04339   -0.01219    0.01281   -0.01158
AFIX  43
H47A  2    0.122915    0.469798   -0.066711    11.00000   -1.20000
AFIX   0
C48   1   -0.077042    0.442953    0.108016    11.00000    0.04714    0.04518 =
         0.03965   -0.00349    0.01009   -0.00579
AFIX  43
H48A  2   -0.121700    0.452612    0.166175    11.00000   -1.20000
AFIX   0
C49   1    0.004616    0.468848    0.056554    11.00000    0.03886    0.04351 =
         0.03264    0.00294    0.00480    0.00338
C50   1    0.190871    0.604290    0.010975    11.00000    0.03466    0.04532 =
         0.03165    0.00365    0.01144    0.00446
C51   1    0.270676    0.671177   -0.025622    11.00000    0.05944    0.03181 =
         0.04180    0.00400    0.02202    0.00327
AFIX  43
H51A  2    0.271464    0.699235   -0.010712    11.00000   -1.20000
AFIX   0
C52   1    0.195531    0.645990    0.035160    11.00000    0.05630    0.03365 =
         0.04377    0.00369    0.02250    0.00349
AFIX  43
H52A  2    0.149315    0.656811    0.090866    11.00000   -1.20000
AFIX   0
C53   1    0.265265    0.589172   -0.071677    11.00000    0.04292    0.03404 =
         0.03041    0.00348    0.01241    0.00469
AFIX  43
H53A  2    0.264891    0.561370   -0.089929    11.00000   -1.20000
AFIX   0
C54   1    0.337813    0.616667   -0.123997    11.00000    0.03568    0.04029 =
         0.03025    0.00118    0.01330    0.00594
AFIX  43
H54A  2    0.388446    0.606481   -0.177478    11.00000   -1.20000
AFIX   0
C55   1   -0.091199    0.580167    0.300971    11.00000    0.04265    0.03598 =
         0.03296   -0.00144    0.01185    0.00104
C56   1   -0.154128    0.552972    0.366724    11.00000    0.05012    0.03884 =
         0.04659   -0.00554    0.02839   -0.00728
AFIX  43
H56A  2   -0.152165    0.524875    0.352918    11.00000   -1.20000
AFIX   0
C57   1   -0.172246    0.634036    0.407245    11.00000    0.05400    0.03463 =
         0.03840    0.00375    0.01653    0.00365
AFIX  43
H57A  2   -0.181181    0.662040    0.419525    11.00000   -1.20000
AFIX   0
C58   1   -0.218736    0.567936    0.451650    11.00000    0.04572    0.05582 =
         0.04185   -0.00285    0.01629   -0.01103
AFIX  43
H58A  2   -0.256157    0.549418    0.497862    11.00000   -1.20000
AFIX   0
C59   1   -0.099716    0.621206    0.324161    11.00000    0.04454    0.03853 =
         0.04536    0.00660    0.01763    0.00252
AFIX  43
H59A  2   -0.056540    0.640307    0.283790    11.00000   -1.20000
AFIX   0
C60   1    0.108466    0.575393    0.070847    11.00000    0.03748    0.04307 =
         0.03602    0.00573    0.01619    0.00159
C61   1   -0.022743    0.565401    0.204059    11.00000    0.03187    0.04180 =
         0.02957   -0.00076    0.01287    0.00317
C62   1    0.024806    0.512826    0.092360    11.00000    0.04663    0.03381 =
         0.02813    0.00276    0.00628    0.00129
N1    3    0.294737    0.314111    0.635730    11.00000    0.02399    0.02080 =
         0.04702    0.00394    0.01312    0.00642
N2    3    0.607152    0.372737    0.442678    11.00000    0.02797    0.02508 =
         0.04610   -0.00057    0.01539    0.00160
N3    3    0.150077    0.668976    0.577819    11.00000    0.04352    0.01879 =
         0.05617    0.00101    0.01807    0.00395
N4    3   -0.113783    0.604514    0.810667    11.00000    0.03372    0.03414 =
         0.07304    0.00103    0.02956    0.00049
N5    3    0.300222    0.453933    0.597672    11.00000    0.04232    0.01814 =
         0.05965    0.00144    0.02940    0.00622
N6    3    0.158672    0.528597    0.608335    11.00000    0.04477    0.01585 =
         0.05643   -0.00009    0.02637    0.00318
N7    3    0.444266    0.342752    0.529306    11.00000    0.02591    0.01759 =
         0.04544   -0.00268    0.00860    0.00391
N8    3    0.297503    0.383644    0.621434    11.00000    0.03390    0.01693 =
         0.03889    0.00374    0.01178    0.00436
N9    3    0.458360    0.415784    0.518007    11.00000    0.02800    0.02093 =
         0.03405   -0.00099    0.01155    0.00037
N10   3    0.159490    0.598963    0.592510    11.00000    0.03087    0.01389 =
         0.05006   -0.00360    0.01181   -0.00184
N11   3    0.023709    0.638392    0.700865    11.00000    0.02385    0.02759 =
         0.04675   -0.00602    0.00779    0.00325
N12   3    0.013337    0.565103    0.705480    11.00000    0.02509    0.02749 =
         0.05192   -0.00075    0.01367    0.00100
N13   3    0.147409    0.337101    0.329643    11.00000    0.03596    0.03155 =
         0.03788   -0.00019    0.01282   -0.00742
N14   3    0.491668    0.608100    0.222640    11.00000    0.07605    0.03617 =
         0.05625   -0.01445   -0.01285   -0.00991
N15   3    0.701028    0.390157   -0.255169    11.00000    0.03088    0.03581 =
         0.03387   -0.00258    0.01556    0.00390
N16   3    0.510608    0.469618    0.040209    11.00000    0.06076    0.03227 =
         0.04325   -0.00125    0.02597   -0.00725
N17   3    0.422586    0.403630    0.062107    11.00000    0.04071    0.03861 =
         0.03026   -0.00122    0.01855   -0.00167
N18   3    0.373813    0.458260    0.182487    11.00000    0.03608    0.03469 =
         0.02840    0.00172    0.01232   -0.00185
N19   3   -0.031549    0.387068   -0.011210    11.00000    0.06922    0.04319 =
         0.04661   -0.00433    0.00403   -0.00097
N20   3    0.342288    0.657332   -0.104716    11.00000    0.03840    0.03178 =
         0.03275    0.00695    0.01462    0.00500
N21   3   -0.230361    0.607588    0.470974    11.00000    0.03162    0.05069 =
         0.03596   -0.00990    0.00983    0.00854
N22   3   -0.039852    0.525032    0.178453    11.00000    0.05137    0.03745 =
         0.03542   -0.00412    0.01783    0.00127
N23   3    0.102063    0.536455    0.037524    11.00000    0.04702    0.03638 =
         0.03428    0.00069    0.01428    0.00061
N24   3    0.047297    0.591296    0.153561    11.00000    0.03984    0.03551 =
         0.03541    0.00368    0.01703    0.00101
O1    4    0.013872    0.331192    0.549731    11.00000    0.03170    0.03740 =
         0.03778   -0.00677    0.01415    0.00380
O1W   4    0.535146    0.737404    0.694601    11.00000    0.04233    0.03225 =
         0.06777    0.01215    0.02009    0.00385
AFIX   3
H1WA  2    0.476136    0.746724    0.637551    11.00000   -1.20000
H1WB  2    0.595646    0.723944    0.667011    11.00000   -1.20000
AFIX   0
O2    4    0.205048    0.251856    0.463691    11.00000    0.04830    0.02814 =
         0.09190   -0.01184    0.00278    0.01261
O2W   4    0.475597    0.744471    0.927206    11.00000    0.09030    0.08319 =
         0.09602   -0.02924    0.02641   -0.02245
AFIX   3
H2WA  2    0.412257    0.762601    0.914106    11.00000   -1.20000
H2WB  2    0.554257    0.755381    0.927606    11.00000   -1.20000
AFIX   0
O3    4   -0.006282    0.356144    0.719355    11.00000    0.03069    0.04305 =
         0.04702   -0.02166    0.00897    0.00284
AFIX   6
O3W   4    0.547128    0.194404    0.753433    11.00000    0.15581    0.05555 =
         0.08366   -0.00065   -0.02556    0.02668
AFIX   3
H3WA  2    0.509928    0.194494    0.681273    11.00000   -1.20000
H3WB  2    0.581198    0.170514    0.767113    11.00000   -1.20000
AFIX   0
O4    4    0.366476    0.209930    0.547194    11.00000    0.07026    0.02913 =
         0.08945   -0.00783    0.01502    0.01003
O4W   4    0.768022    0.768349    1.002260    11.00000    0.24980    0.23596 =
         0.19766    0.02859   -0.04389   -0.11137
AFIX   3
H4WA  2    0.853512    0.774699    1.016930    11.00000   -1.20000
H4WB  2    0.756782    0.746699    1.040080    11.00000   -1.20000
AFIX   0
O5    4    0.739564    0.314119    0.601431    11.00000    0.02921    0.02635 =
         0.03971   -0.00146    0.01007   -0.00001
AFIX   6
O5W   4   -0.305229    0.696391    1.123187    11.00000    0.18801    0.16655 =
         0.13032    0.00969    0.03083    0.00636
AFIX   3
H5WA  2   -0.379109    0.698061    1.150737    11.00000   -1.20000
H5WB  2   -0.298479    0.673741    1.088477    11.00000   -1.20000
AFIX   0
O6    4    0.851786    0.415699    0.530137    11.00000    0.04906    0.04281 =
         0.05745    0.01113    0.00783   -0.01822
O6W   4    1.055569    0.223146    0.725393    11.00000    0.14698    0.11399 =
         0.19003   -0.01814    0.03374    0.00247
AFIX   3
H6WA  2    0.984700    0.229946    0.752893    11.00000   -1.20000
H6WB  2    1.119429    0.215676    0.781473    11.00000   -1.20000
AFIX   0
O7    4    0.643353    0.264238    0.487234    11.00000    0.05066    0.02581 =
         0.05788   -0.01117    0.01784   -0.00448
AFIX   6
O7W   4    0.266234    0.806059    0.888915    11.00000    0.12946    0.09555 =
         0.14371   -0.07423    0.02464   -0.00852
AFIX   3
H7WA  2    0.210304    0.799949    0.826165    11.00000   -1.20000
H7WB  2    0.220534    0.806989    0.943835    11.00000   -1.20000
AFIX   0
O8    4    0.836219    0.450995    0.368068    11.00000    0.10414    0.07165 =
         0.06275    0.01669    0.02887   -0.03968
AFIX   6
O8W   4    0.793424    0.249170    0.768053    11.00000    0.16097    0.09723 =
         0.08546    0.02943   -0.01073    0.01127
H8WA  2    0.802577    0.271719    0.733601    11.00000   -1.50000
H8WB  2    0.707232    0.247779    0.769166    11.00000   -1.50000
AFIX   0
O9    4    0.427347    0.654123    0.669025    11.00000    0.04568    0.03312 =
         0.02690   -0.00609    0.01103   -0.00230
AFIX   6
O9W   4   -0.067826    0.300090   -0.038806    11.00000    0.23858    0.06031 =
         0.09012    0.00402    0.01897    0.00320
H9WA  2   -0.070584    0.287320   -0.102836    11.00000   -1.50000
H9WB  2   -0.015908    0.320710   -0.043351    11.00000   -1.50000
AFIX   0
O10   4    0.253424    0.731200    0.742791    11.00000    0.03258    0.04302 =
         0.04935    0.00623    0.00324    0.01259
O11   4    0.465702    0.635053    0.497017    11.00000    0.03765    0.05548 =
         0.02827   -0.00236    0.01202    0.00238
O12   4    0.091424    0.774419    0.662648    11.00000    0.02781    0.02533 =
         0.03928    0.00111    0.00006    0.00855
O13   4   -0.279572    0.670229    0.698443    11.00000    0.04722    0.04527 =
         0.05816   -0.00584    0.00573    0.01060
O14   4   -0.366876    0.575362    0.673529    11.00000    0.06384    0.06547 =
         0.04488    0.00275    0.00622   -0.00199
O15   4   -0.354766    0.676203    0.872523    11.00000    0.05319    0.07406 =
         0.05510    0.00420    0.01070    0.01120
O16   4   -0.407349    0.540642    0.824996    11.00000    0.07632    0.05499 =
         0.09836    0.01475    0.03214   -0.02037

HKLF 4




REM  a_a.res in P2(1)
REM R1 =  0.0518 for    8611 Fo > 4sig(Fo)  and  0.0649 for all   10124 data
REM   1052 parameters refined using     13 restraints

END

WGHT      0.0698      0.2048

REM Highest difference peak  0.864,  deepest hole -0.532,  1-sigma level  0.077
Q1    1  -0.1788  0.7173  0.7856  11.00000  0.05    0.86
Q2    1  -0.4353  0.7056  0.9187  11.00000  0.05    0.86
Q3    1  -0.1940  0.6811  0.7546  11.00000  0.05    0.82
Q4    1  -0.2671  0.6724  0.6227  11.00000  0.05    0.59
;
_shelx_res_checksum              8543
_shelx_hkl_file
;
   0 -39   1   15.20    2.00
   0 -39   2    6.90    1.50
   0 -39   3    9.80    1.70
   0 -38   0    5.50    1.40
   0 -38   2    8.00    1.60
   0 -38   3   -2.20    1.20
   0 -38   4    3.80    1.20
   0 -38   4    1.90    1.10
   0 -37   1    3.60    1.50
   0 -37   2    5.00    1.60
   0 -37   3   12.40    2.10
   0 -37   4    0.10    1.20
   0 -37   5    3.30    1.20
   0 -37   5    7.90    1.40
   0 -36   1   18.70    2.60
   0 -36   2   14.60    2.30
   0 -36   3    9.10    2.20
   0 -36   4   15.90    2.50
   0 -36   5    9.10    1.80
   0 -36   6    9.20    1.70
   0 -35   1   10.80    2.40
   0 -35   2   47.00    4.20
   0 -35   3   24.40    3.20
   0 -35   4    2.20    1.70
   0 -35   5   16.30    2.50
   0 -35   6    3.00    1.40
   0 -35   6    3.00    1.20
   0 -34   1    4.90    1.90
   0 -34   2   18.50    2.90
   0 -34   3    7.10    2.30
   0 -34   4    6.60    2.00
   0 -34   5    7.50    2.20
   0 -34   6    1.50    1.40
   0 -34   7   27.40    2.50
   0 -33   0   -0.70    1.30
   0 -33   1    7.20    2.30
   0 -33   2   22.10    3.20
   0 -33   3   16.90    2.90
   0 -33   4    8.30    2.20
   0 -33   5   -0.70    1.90
   0 -33   6    6.00    1.90
   0 -33   7   23.00    2.50
   0 -33   7   19.60    2.20
   0 -32   0    6.50    1.70
   0 -32   1    6.40    2.10
   0 -32   2    7.20    2.60
   0 -32   3   48.00    4.70
   0 -32   4   61.19    5.30
   0 -32   5    1.20    2.20
   0 -32   6    4.10    2.20
   0 -32   7    9.30    2.00
   0 -32   8   11.40    1.70
   0 -31   0   -0.80    1.30
   0 -31   1   44.20    4.50
   0 -31   2    8.90    2.40
   0 -31   3    7.00    2.60
   0 -31   4   67.39    5.60
   0 -31   5    4.30    2.30
   0 -31   6    6.90    2.20
   0 -31   7   11.80    2.30
   0 -31   8    6.10    1.40
   0 -30   0  113.99    7.20
   0 -30   1   16.80    3.00
   0 -30   2    6.80    2.30
   0 -30   3   20.10    3.40
   0 -30   4   12.50    2.70
   0 -30   5   56.39    5.10
   0 -30   6   16.30    3.10
   0 -30   7   12.70    2.50
   0 -30   8   16.10    2.20
   0 -29   0   -1.60    1.30
   0 -29   1   70.19    5.60
   0 -29   2   45.30    4.60
   0 -29   3   82.49    6.30
   0 -29   4   42.30    4.70
   0 -29   5  163.78    9.40
   0 -29   6    0.90    2.00
   0 -29   7   -0.10    1.70
   0 -29   8   -1.20    1.50
   0 -28   0  155.68    8.60
   0 -28   1   41.40    4.30
   0 -28   1   42.20    4.30
   0 -28   2   12.90    2.80
   0 -28   2    9.60    2.60
   0 -28   3    7.90    2.40
   0 -28   3    6.60    2.30
   0 -28   4   47.60    4.80
   0 -28   5   12.50    2.70
   0 -28   6   22.60    3.70
   0 -28   7   22.30    3.30
   0 -28   8    4.00    2.00
   0 -27   0   -0.10    1.20
   0 -27   1    2.40    1.60
   0 -27   1    1.20    1.60
   0 -27   2   23.00    3.40
   0 -27   2   26.10    3.70
   0 -27   3   46.20    4.70
   0 -27   3   47.70    4.80
   0 -27   4   32.20    3.90
   0 -27   4   45.20    4.50
   0 -27   4   35.60    4.10
   0 -27   5    8.90    2.80
   0 -27   6   73.99    6.10
   0 -27   7    7.40    2.50
   0 -27   8    6.80    2.00
   0 -26   1  117.99    7.40
   0 -26   1  116.09    7.40
   0 -26   2  111.59    7.20
   0 -26   2  112.59    7.30
   0 -26   3    9.20    2.40
   0 -26   3    7.20    2.50
   0 -26   4   22.80    3.30
   0 -26   4   23.20    3.50
   0 -26   5    0.50    1.80
   0 -26   6   13.40    2.70
   0 -26   7    7.70    2.40
   0 -26   8    2.40    1.70
   0 -25   0   -1.10    1.60
   0 -25   1   20.50    3.10
   0 -25   2   25.80    3.70
   0 -25   3    3.40    1.80
   0 -25   3    5.50    2.60
   0 -25   4    3.50    1.80
   0 -25   4    1.10    1.70
   0 -25   5   48.00    4.80
   0 -25   5   38.40    4.40
   0 -25   5   46.30    4.50
   0 -25   6   36.10    4.30
   0 -25   7   -1.20    1.80
   0 -25   8   21.40    3.00
   0 -24   0  213.98   10.10
   0 -24   1  191.08    9.50
   0 -24   2  286.37   12.60
   0 -24   3   14.30    2.90
   0 -24   4   43.50    4.40
   0 -24   4   52.79    4.90
   0 -24   5   16.30    2.70
   0 -24   5   19.00    3.10
   0 -24   5   18.90    3.00
   0 -24   6   23.70    3.10
   0 -24   6   22.00    3.50
   0 -24   6   22.20    3.30
   0 -24   7   27.20    3.70
   0 -24   8   24.00    3.20
   0 -23   0    1.00    1.60
   0 -23   1   32.50    3.50
   0 -23   2   45.90    4.40
   0 -23   3  285.17   12.60
   0 -23   4   85.29    6.20
   0 -23   4   88.89    6.30
   0 -23   5    1.70    1.60
   0 -23   5    3.50    2.00
   0 -23   5    5.50    2.20
   0 -23   6    1.60    1.30
   0 -23   6    3.50    2.20
   0 -23   6    1.40    1.70
   0 -23   7    1.60    1.70
   0 -23   8   15.60    3.00
   0 -22   0  124.19    6.90
   0 -22  -1    3.10    1.60
   0 -22   1    0.20    1.80
   0 -22   2   31.50    3.70
   0 -22   3  113.09    7.10
   0 -22   4   67.19    5.40
   0 -22   5   22.50    3.10
   0 -22   5   21.10    3.20
   0 -22   5   20.20    3.30
   0 -22   6    1.50    1.20
   0 -22   6    4.00    2.00
   0 -22   6    0.80    1.70
   0 -22   7   38.90    4.20
   0 -22   8   50.29    4.60
   0 -21   0   -1.50    1.70
   0 -21  -1  109.99    6.10
   0 -21   1  103.29    6.40
   0 -21   2   10.10    2.60
   0 -21   3   38.20    4.00
   0 -21   4   17.30    3.00
   0 -21   5    4.70    2.10
   0 -21   6    7.90    1.90
   0 -21   6    6.20    2.10
   0 -21   6    4.80    2.00
   0 -21   7   27.80    3.60
   0 -21   7   31.40    3.80
   0 -21   8   12.80    2.40
   0 -20   0   14.40    2.40
   0 -20  -1   93.19    5.40
   0 -20   1   87.09    5.60
   0 -20   2   19.60    3.10
   0 -20   3  148.99    7.90
   0 -20   4   96.49    6.30
   0 -20   5    7.40    2.40
   0 -20   6    4.20    1.50
   0 -20   6   10.60    2.40
   0 -20   6    4.20    1.90
   0 -20   6    5.10    2.10
   0 -20   7   29.00    3.50
   0 -20   7   31.10    3.80
   0 -20   7   32.30    3.70
   0 -19   0   -1.70    1.80
   0 -19   1   55.59    4.20
   0 -19  -1   56.29    4.10
   0 -19   2  231.38   10.00
   0 -19   3   95.49    6.00
   0 -19   4   59.39    4.80
   0 -19   5    7.20    2.70
   0 -19   5    6.40    1.80
   0 -19   6   29.50    3.70
   0 -19   6   31.50    3.50
   0 -19   6   28.10    3.30
   0 -19   7   37.80    4.10
   0 -19   7   34.00    3.90
   0 -19   7   38.90    4.10
   0 -19   8   55.39    5.10
   0 -18   0  214.78    8.90
   0 -18  -1    6.00    1.60
   0 -18   1    9.10    2.30
   0 -18   2   27.60    3.20
   0 -18   3   86.39    5.60
   0 -18   4    5.90    2.30
   0 -18   5   25.40    3.40
   0 -18   5   28.00    3.00
   0 -18   6   40.40    3.80
   0 -18   6   39.10    4.10
   0 -18   6   39.00    3.80
   0 -18   7   32.50    3.70
   0 -18   7   30.90    3.70
   0 -18   7   25.10    3.50
   0 -18   8  111.59    7.20
   0 -18   8  129.79    8.00
   0 -18   9   16.20    3.00
   0 -17   0   -0.80    1.50
   0 -17  -1  156.68    7.00
   0 -17   1  170.48    7.50
   0 -17   2   29.60    3.20
   0 -17   3   74.89    5.20
   0 -17   4   18.20    2.90
   0 -17   5   30.50    3.50
   0 -17   5   30.40    3.30
   0 -17   6   38.00    4.00
   0 -17   6   33.40    3.50
   0 -17   7   21.50    3.20
   0 -17   7   23.50    3.20
   0 -17   7   18.80    2.90
   0 -17   8  141.29    8.50
   0 -17   8  134.89    8.10
   0 -17   9    4.00    1.80
   0 -16   0   59.39    3.90
   0 -16  -1  182.88    7.50
   0 -16   1  183.38    7.90
   0 -16   2  132.69    6.70
   0 -16   3   12.00    2.40
   0 -16   4   66.59    4.90
   0 -16   5   77.49    5.10
   0 -16   5   81.89    5.40
   0 -16   6   65.39    5.00
   0 -16   6   75.79    5.40
   0 -16   7   58.09    4.90
   0 -16   7   67.99    5.20
   0 -16   8   58.19    5.00
   0 -16   8   63.89    5.60
   0 -16   8   54.39    4.80
   0 -16   9    3.80    1.80
   0 -16   9    3.80    1.90
   0 -16  10   34.40    4.20
   0 -15   0    1.10    1.50
   0 -15   1  140.19    6.50
   0 -15  -1  141.39    6.20
   0 -15   2   61.49    4.30
   0 -15   3   21.20    2.70
   0 -15   4   25.70    3.00
   0 -15   5   99.99    5.80
   0 -15   5   92.59    6.00
   0 -15   6  322.47   13.00
   0 -15   6  335.27   13.40
   0 -15   7   10.60    2.20
   0 -15   7    7.00    2.00
   0 -15   8    4.20    2.00
   0 -15   8    4.10    1.50
   0 -15   8    5.30    2.10
   0 -15   9    9.20    2.50
   0 -15   9    6.80    2.10
   0 -15  10   18.40    2.90
   0 -15  10   18.20    3.20
   0 -14   0   31.70    2.70
   0 -14  -1  190.68   10.60
   0 -14  -1  180.08    7.10
   0 -14   1  184.28    7.50
   0 -14   2   14.60    2.30
   0 -14   3   66.69    4.50
   0 -14   4   80.09    5.10
   0 -14   5   18.70    2.60
   0 -14   5   20.10    2.80
   0 -14   6    6.30    2.00
   0 -14   6    6.60    2.00
   0 -14   7   41.80    4.10
   0 -14   7   49.60    4.40
   0 -14   8   28.30    3.60
   0 -14   8   30.20    3.40
   0 -14   8   30.10    3.80
   0 -14   9   19.70    3.00
   0 -14   9   22.70    3.50
   0 -14   9   21.20    3.20
   0 -14  10   10.10    2.50
   0 -14  10   11.50    2.50
   0 -13   0    0.40    1.20
   0 -13  -1    6.40    2.10
   0 -13  -1   10.00    1.60
   0 -13   1    9.50    1.90
   0 -13  -2    4.40    1.70
   0 -13   2    3.20    1.40
   0 -13   3    3.30    1.60
   0 -13   4  337.07   12.40
   0 -13   5   65.09    4.70
   0 -13   6  174.28    8.60
   0 -13   6  187.68    8.80
   0 -13   7   58.59    4.90
   0 -13   8   32.40    4.00
   0 -13   8   32.00    3.60
   0 -13   8   31.20    3.80
   0 -13   9   22.10    3.60
   0 -13   9   26.90    3.50
   0 -13   9   19.40    3.10
   0 -13  10   26.10    4.00
   0 -13  10   26.30    3.50
   0 -13  11   61.99    5.10
   0 -12   0  272.17    9.30
   0 -12  -1   96.79    6.50
   0 -12   1   97.39    4.60
   0 -12  -1   81.19    4.00
   0 -12  -2   37.60    3.80
   0 -12   2   28.30    2.60
   0 -12   3  201.98    8.10
   0 -12   4   88.59    5.10
   0 -12   5  786.72   24.60
   0 -12   6   66.69    4.70
   0 -12   6   75.49    5.10
   0 -12   7    9.60    2.50
   0 -12   8   12.40    2.50
   0 -12   8   14.80    2.80
   0 -12   9    0.10    1.70
   0 -12   9   -2.40    2.30
   0 -12   9    0.90    1.40
   0 -12  10   22.70    3.70
   0 -12  10   23.10    3.50
   0 -12  11    4.50    1.90
   0 -12  11    4.10    2.30
   0 -11   0    1.40    2.00
   0 -11   0    0.50    1.00
   0 -11  -1  150.88    8.00
   0 -11   1  139.89    5.70
   0 -11  -2   11.80    2.30
   0 -11   2   10.10    2.70
   0 -11   2   12.80    2.00
   0 -11   3   32.30    2.70
   0 -11   4  530.45   17.10
   0 -11   5  374.46   13.40
   0 -11   6    0.90    1.20
   0 -11   6    4.10    2.10
   0 -11   7   97.89    6.30
   0 -11   8   59.59    5.10
   0 -11   9   51.39    4.90
   0 -11   9   53.59    5.00
   0 -11   9   52.09    5.20
   0 -11  10   13.60    3.30
   0 -11  10   13.70    2.80
   0 -11  11    4.50    2.70
   0 -11  11   -0.80    1.90
   0 -11  12    5.00    1.90
   0 -10   0    5.00    2.00
   0 -10   0    3.90    1.10
   0 -10  -1  136.39    7.40
   0 -10  -1  124.09    4.80
   0 -10   1  126.39    5.20
   0 -10  -2   27.90    3.00
   0 -10   2   25.50    3.70
   0 -10   2   25.70    2.30
   0 -10   3  227.18    8.50
   0 -10   4   46.50    3.40
   0 -10   5   78.19    4.20
   0 -10   5   77.19    4.60
   0 -10   6  171.18    8.00
   0 -10   6  171.88    7.90
   0 -10   7   63.49    5.00
   0 -10   8   17.00    2.90
   0 -10   9    8.80    2.10
   0 -10   9   14.80    2.70
   0 -10   9   10.20    2.80
   0 -10  10    1.40    1.90
   0 -10  10    3.60    2.20
   0 -10  11   10.60    2.40
   0 -10  11   11.10    2.90
   0 -10  12   30.10    3.60
   0  -9   0   -1.00    1.80
   0  -9   0    0.30    0.90
   0  -9  -1  110.69    6.20
   0  -9  -1   94.59    3.80
   0  -9   2    6.90    2.30
   0  -9   2    7.50    1.30
   0  -9   3   21.80    3.40
   0  -9   3   20.00    2.10
   0  -9   4   55.09    3.60
   0  -9   5   18.90    1.90
   0  -9   5   20.10    2.30
   0  -9   6  356.06   13.50
   0  -9   6  372.86   13.10
   0  -9   7  176.58    8.70
   0  -9   8   25.60    3.50
   0  -9   9    6.20    1.80
   0  -9   9    4.60    2.10
   0  -9   9    3.90    1.90
   0  -9  10    6.00    2.40
   0  -9  10    6.40    2.10
   0  -9  11   11.40    2.70
   0  -9  11   11.20    2.90
   0  -9  12    8.00    2.10
   0  -8   0   49.80    4.10
   0  -8   0   54.69    2.70
   0  -8  -1  329.47   12.40
   0  -8   2  803.72   27.00
   0  -8   2  805.32   22.90
   0  -8   3  120.09    7.90
   0  -8   3  119.99    5.20
   0  -8   4   39.40    2.80
   0  -8   5   32.60    2.70
   0  -8   6    2.50    1.30
   0  -8   6    0.60    1.90
   0  -8   7    3.60    1.90
   0  -8   8   64.39    5.10
   0  -8   9   51.09    6.10
   0  -8   9   43.80    4.40
   0  -8   9   45.60    4.90
   0  -8  10    8.60    2.30
   0  -8  10    8.50    2.50
   0  -8  11    1.80    2.00
   0  -8  11   -1.80    1.90
   0  -8  12    8.40    2.40
   0  -8  13    1.40    1.30
   0  -7   0   -1.10    1.60
   0  -7  -1  310.37   11.50
   0  -7   2  672.63   22.50
   0  -7   2  652.03   18.90
   0  -7  -3  668.73   20.10
   0  -7   3  641.14   23.20
   0  -7   3  647.04   19.10
   0  -7  -4  160.88    7.00
   0  -7   4  148.79    6.10
   0  -7   5   10.10    2.00
   0  -7   5    9.90    1.60
   0  -7   6  119.59    6.50
   0  -7   6  132.49    6.10
   0  -7   7   58.49    4.70
   0  -7   8   54.49    4.80
   0  -7   9    4.70    1.90
   0  -7   9    2.20    4.50
   0  -7   9    3.00    1.50
   0  -7   9    4.60    1.70
   0  -7  10    2.60    2.00
   0  -7  10    0.20    1.90
   0  -7  10    3.80    1.70
   0  -7  11   11.40    3.10
   0  -7  11   15.80    3.00
   0  -7  12    8.10    2.30
   0  -7  13    6.40    1.90
   0  -6   0  281.17   10.60
   0  -6   2 1035.10   32.00
   0  -6  -3   46.10    3.20
   0  -6   3   43.00    4.40
   0  -6   3   48.80    2.70
   0  -6  -4  205.18    8.20
   0  -6   4  185.78    7.10
   0  -6   5   79.29    4.70
   0  -6   5   93.69    4.50
   0  -6   6   19.00    2.60
   0  -6   7  274.67   11.40
   0  -6   8   28.30    3.40
   0  -6   9   11.20    2.70
   0  -6   9   13.50    4.30
   0  -6   9   11.20    2.50
   0  -6  10    7.10    5.80
   0  -6  10    8.90    2.10
   0  -6  10   12.70    3.00
   0  -6  10    8.40    2.30
   0  -6  11   42.60    4.90
   0  -6  11   42.10    4.40
   0  -6  12   37.30    4.20
   0  -6  13   21.90    2.90
   0  -5   0    0.20    1.40
   0  -5  -2  121.39    4.80
   0  -5   2  103.39    6.30
   0  -5  -3  322.87   10.90
   0  -5   3  299.47   13.00
   0  -5   4   72.49    3.50
   0  -5   5   31.00    2.80
   0  -5   5   31.90    2.40
   0  -5   6   82.69    5.00
   0  -5   7   76.39    5.10
   0  -5   8   26.40    3.40
   0  -5   9   23.00    3.20
   0  -5   9   20.20    3.30
   0  -5   9   26.30    4.40
   0  -5  10   50.49    4.70
   0  -5  10   44.70    7.00
   0  -5  10   49.50    5.30
   0  -5  10   45.00    4.70
   0  -5  11   27.50    4.00
   0  -5  11   29.60    3.80
   0  -5  12    3.10    2.30
   0  -5  13    7.50    2.00
   0  -4   0 1777.92   48.70
   0  -4   1  803.02   23.90
   0  -4   2   12.00    2.10
   0  -4  -2   14.50    1.60
   0  -4   3   91.19    4.00
   0  -4   4  261.67    8.60
   0  -4   5   47.60    3.30
   0  -4   5   48.80    2.90
   0  -4   6   19.40    2.50
   0  -4   7   34.30    3.50
   0  -4   8   48.00    4.40
   0  -4   9   36.60    4.10
   0  -4   9   42.70    5.00
   0  -4   9   42.80    4.60
   0  -4  10   71.29    5.60
   0  -4  10   65.69    7.60
   0  -4  10   60.59    5.80
   0  -4  11   19.10    3.20
   0  -4  11   16.60    3.20
   0  -4  12    3.40    1.90
   0  -4  13   -0.50    1.60
   0  -3   0    1.90    1.00
   0  -3  -1 1184.58   31.70
   0  -3   1 1160.68   33.00
   0  -3   2    4.80    1.60
   0  -3   3  123.59    4.90
   0  -3   4   14.80    1.40
   0  -3   5  102.59    5.20
   0  -3   5  107.59    4.50
   0  -3   6  177.08    7.80
   0  -3   7   49.30    4.20
   0  -3   8   57.69    4.80
   0  -3   9   16.90    3.00
   0  -3   9   11.40    3.40
   0  -3   9   11.90    2.70
   0  -3  10    4.90    1.50
   0  -3  10    4.60    1.90
   0  -3  10    4.10    4.40
   0  -3  11   67.99    6.10
   0  -3  11   46.50    5.10
   0  -3  12   -2.30    2.00
   0  -3  13    2.30    1.70
   0  -2   0  199.68    6.50
   0  -2   1  861.91   24.40
   0  -2   3  222.48    7.60
   0  -2   4  247.88    8.70
   0  -2   5    9.30    1.80
   0  -2   6   26.90    2.90
   0  -2   7   48.70    4.10
   0  -2   8   37.80    3.80
   0  -2   9   82.29    6.00
   0  -2   9   73.59    5.90
   0  -2  10   35.30    4.00
   0  -2  10   27.10    5.60
   0  -2  10   27.40    3.70
   0  -2  11   52.49    8.10
   0  -2  11   49.00    4.90
   0  -2  11   42.70    4.80
   0  -2  12   10.30    3.00
   0  -2  13    7.00    1.90
   0  -2  14    2.10    1.20
   0  -1   1  730.23   20.60
   0  -1   4  137.99    5.60
   0  -1   5   10.00    1.70
   0  -1   6   43.30    3.40
   0  -1   7  114.09    6.40
   0  -1   8    8.10    2.30
   0  -1   9  208.08   10.00
   0  -1   9  196.98   10.00
   0  -1  10  105.99    6.90
   0  -1  10  101.89    7.30
   0  -1  10   95.29    7.80
   0  -1  11   33.90    4.30
   0  -1  11   30.00    7.10
   0  -1  12   13.90    3.10
   0  -1  13    1.60    1.70
   0  -1  14    9.40    1.70
   0   0  -1 1764.82   47.50
   0   0  -2  135.79    6.30
   0   0  -3    1.40    1.80
   0   0  -4  137.09    7.80
   0   0   4  128.79    5.30
   0   0   5  212.28    8.10
   0   0   6   75.29    4.50
   0   0   7    0.30    1.60
   0   0   8    7.70    2.20
   0   0   9    1.00    1.40
   0   0  10   15.90    2.70
   0   0  10   13.30    4.20
   0   0  10   18.00    3.10
   0   0  11    1.70    6.10
   0   0  11   -0.20    1.80
   0   0  12    1.80    2.00
   0   0  13    3.30    1.80
   0   0  14    2.20    1.10
   0   1  -2 1132.39   32.70
   0   1  -2 1132.89   32.90
   0   1  -3  124.99    7.00
   0   1  -4  142.19    8.10
   0   1   4  150.18    5.70
   0   1   4  143.09    8.70
   0   1  -4  139.19    8.60
   0   1   5    9.60    1.70
   0   1   6   40.10    3.20
   0   1   7  106.89    5.90
   0   1   8    8.00    2.00
   0   1   9  200.38    9.80
   0   1  10   98.89    7.10
   0   1  10   86.49    7.20
   0   1  11   23.00    6.30
   0   1  11   38.50    4.20
   0   1  12   13.20    3.20
   0   1  13    5.80    2.00
   0   1  14   10.60    1.70
   0   2  -2  402.96   13.80
   0   2  -3  201.08    9.50
   0   2   4  244.58    8.50
   0   2  -4  239.18   12.00
   0   2   4  254.57   12.20
   0   2  -5    7.50    2.50
   0   2   5    6.40    1.30
   0   2   6   26.70    2.70
   0   2   7   44.60    3.60
   0   2   8   41.60    3.80
   0   2   9   93.59    6.10
   0   2  10   31.40    3.80
   0   2  10   29.00    4.60
   0   2  11   49.00    6.40
   0   2  12    1.40    2.10
   0   2  13   11.90    2.40
   0   2  14    1.40    1.00
   0   3   3  127.09    5.00
   0   3  -3  128.09    7.20
   0   3   4   12.70    1.50
   0   3  -4   13.20    2.80
   0   3   4   15.60    3.10
   0   3  -4   11.70    2.40
   0   3   5   94.49    4.60
   0   3   6  187.58    7.70
   0   3   7   49.40    3.90
   0   3   8   56.09    4.40
   0   3   9   15.80    2.50
   0   3   9   12.10    2.40
   0   3  10    4.00    3.00
   0   3  11   47.00    6.70
   0   3  12    2.30    2.40
   0   3  13    2.40    2.00
   0   3  14    6.30    1.40
   0   4   1  763.32   21.50
   0   4   3   85.39    3.90
   0   4  -3   88.09    5.90
   0   4   4  267.57   12.80
   0   4  -4  258.27   12.30
   0   4  -4  278.77   13.70
   0   4  -4  248.68   12.40
   0   4   4  257.27    8.60
   0   4   5   42.80    2.90
   0   4   6   22.40    2.40
   0   4   7   41.20    3.40
   0   4   8   53.09    4.10
   0   4   9   41.70    4.30
   0   4  10   64.09    5.90
   0   4  11   19.10    5.30
   0   4  13    3.00    2.00
   0   5   1   12.00    1.60
   0   5  -3  348.97   15.10
   0   5  -3  316.07   13.60
   0   5  -4   74.69    6.80
   0   5  -4   77.09    6.10
   0   5   4   70.79    3.30
   0   5  -4   66.59    5.90
   0   5   5   29.80    2.40
   0   5   6   94.69    4.90
   0   5   7   78.49    4.80
   0   5   8   33.20    3.40
   0   5   9   31.50    3.70
   0   5  10   49.30    5.00
   0   5  11   32.20    5.60
   0   5  13   11.30    2.20
   0   6   1  249.78    8.80
   0   6  -3   48.20    5.10
   0   6   4  183.78    6.60
   0   6  -4  202.98   11.70
   0   6  -4  185.68   10.70
   0   6   5   88.69    4.30
   0   6   6   16.70    2.00
   0   6   7  300.37   11.30
   0   6   9   10.00    2.00
   0   6   9   10.50    2.70
   0   6  10    8.20    3.10
   0   6  11   42.70    6.10
   0   6  12   34.10    6.20
   0   6  13   30.50    3.30
   0   7   1  302.87   10.70
   0   7  -3  744.93   27.20
   0   7   4  158.88    5.80
   0   7   5   10.30    1.40
   0   7   6  142.29    6.30
   0   7   9    9.30    2.30
   0   7   9    7.40    2.70
   0   7  10   -0.60    1.50
   0   7  10   -1.20    2.30
   0   7  11    7.90    3.90
   0   7  12   12.40    5.10
   0   7  13    2.50    1.40
   0   8   1  288.97   10.70
   0   8  -3  151.78   10.00
   0   8   4   45.00    2.50
   0   8   9   54.79    4.90
   0   8   9   55.29    5.10
   0   8  10   13.30    2.40
   0   8  10   15.90    3.00
   0   8  11    0.80    1.40
   0   8  11   -0.50    3.50
   0   8  12    8.10    4.90
   0   8  13    1.20    1.40
   0   9  -1  102.79    7.50
   0   9   1  109.09    5.70
   0   9  -2    8.80    2.80
   0   9   9    4.80    1.90
   0   9   9    0.70    1.80
   0   9  10    7.50    2.20
   0   9  10    0.70    2.40
   0   9  11    9.50    2.10
   0   9  11    5.90    3.30
   0   9  12    7.30    4.40
   0   9  13   12.60    2.10
   0  10  -1  147.99    9.30
   0  10  -2   30.50    4.60
   0  10   2   29.10    2.90
   0  10   9    7.90    2.20
   0  10   9   12.30    2.30
   0  10  10    2.70    1.80
   0  10  10   -0.20    2.10
   0  10  11   13.30    2.60
   0  10  11   13.20    3.70
   0  10  12   32.90    3.30
   0  10  13    0.40    1.20
   0  11  -2   15.80    3.80
   0  11   2   12.90    2.20
   0  11   9   41.30    4.40
   0  11   9   52.09    4.60
   0  11  10   10.70    2.40
   0  11  10   19.20    3.30
   0  11  11   -0.10    1.40
   0  11  11    0.90    3.60
   0  11  12    3.40    1.40
   0  11  13   17.80    2.20
   0  12   1   98.99    6.40
   0  12   8   10.00    2.10
   0  12   9    1.60    1.60
   0  12  10   18.60    3.20
   0  12  10   19.40    3.10
   0  12  11   -0.90    1.90
   0  12  12   10.90    2.10
   0  12  13   10.00    1.70
   0  13   1    7.90    2.30
   0  13   8   30.60    3.70
   0  13   9   24.40    3.50
   0  13  10   20.10    3.10
   0  13  11   52.59    4.70
   0  13  12   14.90    2.30
   0  13  13    0.80    1.00
   0  14   1  185.08   10.10
   0  14   8   22.00    3.10
   0  14   9   21.00    3.30
   0  14  10    4.50    1.90
   0  14  11   24.00    3.20
   0  14  12    0.00    1.20
   0  15   1  139.69    8.80
   0  15   8    1.40    1.50
   0  15   9    7.30    2.20
   0  15  10   16.90    2.90
   0  15  11   24.20    3.10
   0  15  12   12.40    2.20
   0  16   8   58.19    5.20
   0  16   9    2.00    2.00
   0  16  10   38.10    4.30
   0  16  11    1.40    1.90
   0  16  12    4.60    1.50
   0  17   7   19.00    3.20
   0  17   8  133.09    8.30
   0  17   9    3.10    2.00
   0  17  10   51.59    5.00
   0  17  11    9.00    2.40
   0  17  12   -0.10    1.20
   0  18   7   30.30    3.90
   0  18   8  112.19    7.60
   0  18   9   15.10    3.20
   0  18  10    2.50    2.10
   0  18  11    4.60    1.80
   0  18  12    8.40    1.80
   0  19   7   36.90    4.20
   0  19   8   44.80    4.80
   0  19   9   24.50    3.80
   0  19  10    7.20    2.40
   0  19  11    7.60    2.30
   0  19  12    7.50    1.60
   0  20   6    4.30    1.60
   0  20   6    4.80    1.50
   0  20   7   26.20    3.70
   0  20   8   41.40    4.60
   0  20   9   44.60    4.70
   0  20  10   11.10    2.70
   0  20  11    4.70    1.80
   0  20  12    4.10    1.20
   0  21   6    3.00    1.50
   0  21   6    5.20    2.00
   0  21   7   27.00    3.70
   0  21   8   13.80    3.00
   0  21   9   30.50    4.00
   0  21  10    4.10    2.20
   0  21  11    6.60    2.10
   0  22   5   20.50    3.00
   0  22   5   17.50    2.80
   0  22   6    1.60    1.40
   0  22   6    2.50    1.60
   0  22   7   39.50    4.40
   0  22   8   48.30    4.80
   0  22   9   93.09    6.50
   0  22  10    2.60    1.80
   0  22  11    6.60    1.60
   0  23   4   81.29    6.00
   0  23   5    2.60    1.60
   0  23   5    2.90    1.70
   0  23   6    1.50    1.40
   0  23   6    0.90    1.40
   0  23   7    3.70    2.00
   0  23   8   13.10    2.70
   0  23   9   13.40    2.70
   0  23  10    9.90    2.40
   0  23  11    0.40    1.20
   0  24   4   48.80    4.60
   0  24   5   19.70    2.80
   0  24   5   18.00    3.00
   0  24   6   24.20    3.30
   0  24   6   23.90    3.30
   0  24   7   37.20    4.10
   0  24   8   22.40    3.40
   0  24   9    0.80    1.70
   0  24  10    0.00    1.50
   0  24  11    4.00    1.40
   0  25   2   23.50    3.20
   0  25   3    1.10    1.30
   0  25   4    2.90    1.60
   0  25   5   44.70    4.60
   0  25   6   33.80    3.80
   0  25   7    2.20    1.90
   0  25   8   27.50    3.60
   0  25   9   11.70    2.30
   0  25  10    3.90    1.70
   0  26   0   58.29    4.90
   0  26  -1  111.79    7.10
   0  26   1  125.69    7.50
   0  26   2  106.09    7.00
   0  26   3    7.80    2.20
   0  26   4   22.40    3.30
   0  26   5   -0.10    1.50
   0  26   6    8.80    2.00
   0  26   7   11.30    2.60
   0  26   8    1.90    1.60
   0  26   9    3.70    1.70
   0  26  10   11.90    2.00
   0  27   0    2.00    1.50
   0  27   1    2.60    1.70
   0  27  -1    0.20    1.20
   0  27   2   22.60    3.20
   0  27   3   53.79    5.00
   0  27   4   31.70    4.00
   0  27   5    9.60    2.50
   0  27   6   81.79    5.70
   0  27   7    9.60    2.30
   0  27   8    5.10    1.80
   0  27   9    7.70    1.90
   0  27  10    4.30    1.30
   0  28   0  159.08    8.90
   0  28  -1   47.20    4.50
   0  28   1   40.70    4.40
   0  28   2    2.80    1.60
   0  28   3    8.80    2.50
   0  28   4   49.80    4.90
   0  28   5   15.90    3.00
   0  28   7   20.90    2.80
   0  28   8    2.60    1.30
   0  28   9    6.70    1.70
   0  29   0    0.20    1.30
   0  29  -1   68.59    5.40
   0  29   1   58.69    5.40
   0  29   2   38.80    4.30
   0  29   3   88.79    6.50
   0  29   4   43.90    4.60
   0  29   5  160.58    9.00
   0  29   7    0.70    1.30
   0  29   8    1.50    1.40
   0  29   9   16.70    2.00
   0  30   0  105.79    7.10
   0  30   1   13.40    2.80
   0  30  -1   13.60    2.60
   0  30   2   10.00    2.70
   0  30   3   24.40    3.70
   0  30   4   13.50    2.70
   0  30   8   10.90    1.70
   0  31   0    1.10    1.90
   0  31   1   51.99    4.90
   0  31  -1   49.20    4.60
   0  31   2   21.40    3.40
   0  31   3    4.40    2.20
   0  31   4   64.89    5.40
   0  32   0   10.10    2.60
   0  32   1    1.60    1.70
   0  32  -1    5.20    1.90
   0  32   2    7.20    2.50
   0  32   3   43.90    4.60
   0  32   4   61.39    5.20
   0  33   0    1.40    1.50
   0  33  -1   11.50    2.30
   0  33   1    6.60    2.20
   0  33   2   27.50    3.70
   0  33   3   24.30    3.60
   0  34   0    1.90    1.40
   0  34  -1    1.60    1.30
   0  34   1    1.40    1.60
   0  34   2   21.20    3.20
   0  34   3    9.40    2.50
   0  35   0   -0.60    1.30
   0  35   1   10.90    2.40
   0  35  -1    9.90    2.10
   0  35   2   51.89    4.50
   0  36   0    6.20    1.90
   0  36   1   23.80    2.90
   0  36  -1   17.10    2.30
   0  36   2   16.40    2.60
   0  37   0   -2.00    1.30
   0  37   1    2.80    1.60
   1 -39   1    8.10    1.60
   1 -39   2    8.70    1.60
  -1 -38   4    2.50    1.10
  -1 -38   3    0.30    1.00
   1 -38   0    2.50    1.30
   1 -38   1    8.70    1.80
   1 -38   2    1.60    1.30
   1 -38   2   -2.80    1.50
   1 -38   3    4.10    1.40
   1 -38   3    0.10    1.20
   1 -38   4   -2.20    1.10
  -1 -37   5    8.40    1.50
  -1 -37   4   30.60    2.80
  -1 -37   3    1.40    1.30
  -1 -37   2    4.10    1.40
   1 -37   0    9.10    1.80
   1 -37   1    9.50    1.80
   1 -37   1   13.20    2.20
   1 -37   2    5.30    1.50
   1 -37   2    4.40    1.50
   1 -37   3    5.90    1.60
   1 -37   3    7.40    1.90
   1 -37   4    7.20    1.80
   1 -37   4    4.20    1.40
   1 -37   5   10.60    1.60
  -1 -36   6   11.50    1.70
  -1 -36   5   18.40    2.30
  -1 -36   4   -1.40    1.50
  -1 -36   3   16.80    2.50
  -1 -36   2   11.20    2.10
   1 -36   0   11.90    2.00
   1 -36   1   -0.20    1.40
   1 -36   2   13.00    2.40
   1 -36   3   13.40    2.20
   1 -36   4    6.70    1.90
   1 -36   4    3.30    1.70
   1 -36   5    5.10    1.50
   1 -36   5    2.60    1.20
  -1 -35   6   22.00    2.40
  -1 -35   5   28.10    3.10
  -1 -35   4    7.80    2.00
  -1 -35   3    7.00    2.00
  -1 -35   2    5.00    1.70
   1 -35   0   25.90    3.00
   1 -35   1    4.10    2.00
   1 -35   2    1.90    1.70
   1 -35   3    3.50    1.80
   1 -35   4   21.70    3.00
   1 -35   5   18.10    2.50
   1 -35   5   17.40    2.40
   1 -35   6    4.10    1.40
   1 -35   6    4.60    1.30
  -1 -34   7    8.80    1.80
  -1 -34   6   12.80    2.20
  -1 -34   5   19.10    2.80
  -1 -34   4    2.60    1.70
  -1 -34   3   10.80    2.60
  -1 -34   2    3.00    1.60
  -1 -34   1    7.20    2.00
   1 -34   0    9.50    2.30
   1 -34   1    3.50    1.90
   1 -34   2    4.50    2.20
   1 -34   3    4.60    2.30
   1 -34   4   27.70    3.40
   1 -34   5    0.80    1.70
   1 -34   6    4.50    1.60
   1 -34   6    2.50    1.20
  -1 -33   7    1.70    1.50
  -1 -33   6   12.60    2.30
  -1 -33   5    1.40    1.80
  -1 -33   4    3.60    1.90
  -1 -33   3    9.50    2.40
  -1 -33   2    4.90    2.00
   1 -33  -1    4.70    1.80
  -1 -33   1    6.30    1.80
   1 -33   0   -0.20    1.50
   1 -33   1   -0.70    1.70
   1 -33   2   10.30    2.50
   1 -33   3   63.69    5.20
   1 -33   4   33.90    3.90
   1 -33   5   13.80    2.60
   1 -33   6   12.70    2.30
   1 -33   6    6.40    1.50
   1 -33   7   -0.20    1.00
  -1 -32   8   13.20    1.80
  -1 -32   7   89.89    5.50
  -1 -32   6   74.99    5.40
  -1 -32   5    5.00    2.50
  -1 -32   4    3.00    2.10
  -1 -32   3    4.80    2.40
  -1 -32   2   88.69    6.30
  -1 -32   1   14.50    2.70
   1 -32  -1   16.20    2.50
   1 -32   0    9.70    2.20
   1 -32   1    8.00    2.20
   1 -32   2   10.00    2.80
   1 -32   3    4.20    2.60
   1 -32   4    3.40    2.60
   1 -32   5    9.10    2.50
   1 -32   6    3.30    1.50
   1 -32   7    6.40    1.70
  -1 -31   8   23.90    2.70
  -1 -31   7   16.80    2.80
  -1 -31   6    5.20    2.30
  -1 -31   5   35.20    4.20
  -1 -31   4   26.60    3.90
  -1 -31   3   14.60    2.80
  -1 -31   2   39.30    4.30
   1 -31  -1    2.20    1.70
  -1 -31   1    0.90    1.40
   1 -31   0   21.00    3.40
   1 -31   1   11.40    2.80
   1 -31   2   24.30    3.60
   1 -31   3   18.50    3.20
   1 -31   4   23.30    3.60
   1 -31   5   15.20    3.00
   1 -31   6   12.60    2.60
   1 -31   7    1.00    1.50
   1 -31   8    0.00    0.80
  -1 -30   9   -2.60    1.10
  -1 -30   8    1.10    1.30
  -1 -30   7   21.00    3.20
  -1 -30   6    9.00    2.80
  -1 -30   5   12.70    3.00
  -1 -30   4   18.30    3.20
  -1 -30   3   23.00    3.40
  -1 -30   2    5.10    2.10
   1 -30  -1   37.30    4.20
  -1 -30   1   30.20    3.60
   1 -30   0   17.60    3.00
   1 -30   1   49.00    4.80
   1 -30   2   53.59    5.10
   1 -30   3    0.20    2.10
   1 -30   4   75.59    6.00
   1 -30   5   21.30    3.50
   1 -30   6    9.20    2.30
   1 -30   7   11.30    2.20
   1 -30   8    0.10    1.00
  -1 -29   9    3.90    1.30
  -1 -29   8   34.50    3.60
  -1 -29   7   18.60    3.30
  -1 -29   6    9.70    2.60
  -1 -29   5   -2.80    2.30
  -1 -29   4    2.50    1.70
  -1 -29   3   15.80    3.00
  -1 -29   2    9.80    2.60
  -1 -29   1   43.70    4.40
   1 -29  -1   44.10    4.40
  -1 -29   1   49.50    4.70
   1 -29  -1   52.79    4.70
   1 -29   0   96.39    6.80
   1 -29   0  100.69    6.80
   1 -29   1   31.80    3.80
   1 -29   1   35.30    4.10
   1 -29   2   43.60    4.60
   1 -29   3   10.50    2.80
   1 -29   4   55.59    5.10
   1 -29   5   29.00    3.90
   1 -29   6   46.70    4.50
   1 -29   7   20.60    2.90
   1 -29   8    1.30    1.10
  -1 -28   9    5.50    1.40
  -1 -28   8   14.20    2.50
  -1 -28   7   -2.10    2.30
  -1 -28   6    0.60    1.90
  -1 -28   5    1.00    2.30
  -1 -28   4   19.30    3.60
  -1 -28   3   83.99    6.50
  -1 -28   3   85.69    6.30
  -1 -28   2   63.59    5.40
  -1 -28   2   62.49    5.30
   1 -28  -1   13.10    2.40
  -1 -28   1   18.00    2.90
  -1 -28   1   15.90    3.00
   1 -28   0   45.90    4.50
   1 -28   1   71.99    5.90
   1 -28   1   81.59    6.10
   1 -28   2  287.97   12.90
   1 -28   2  258.07   12.30
   1 -28   3  147.69    8.80
   1 -28   4   14.50    3.00
   1 -28   5    8.40    2.40
   1 -28   6   27.80    3.70
   1 -28   7    1.30    1.50
   1 -28   8   20.70    2.50
  -1 -27   9   64.49    4.50
  -1 -27   8   15.30    2.80
  -1 -27   7    8.10    2.40
  -1 -27   6    6.10    2.50
  -1 -27   5   62.49    5.70
  -1 -27   4  164.68    9.30
  -1 -27   4  151.08    9.00
  -1 -27   3   22.30    3.30
  -1 -27   3   22.30    3.50
  -1 -27   2   19.80    3.10
  -1 -27   2   22.20    3.20
  -1 -27   1   10.70    2.20
   1 -27  -1    8.70    2.10
  -1 -27   1    8.70    2.00
   1 -27   0   17.30    2.90
   1 -27   1   96.39    6.70
   1 -27   2   14.90    2.70
   1 -27   2   15.10    2.80
   1 -27   3   84.59    6.60
   1 -27   3   78.99    6.20
   1 -27   3   71.39    5.80
   1 -27   4    8.80    2.30
   1 -27   5   48.10    4.80
   1 -27   6    0.40    1.90
   1 -27   7   11.60    2.60
   1 -27   8   11.90    2.30
  -1 -26   9   15.00    2.40
  -1 -26   8   34.50    4.00
  -1 -26   7   13.20    3.00
  -1 -26   6   10.60    2.80
  -1 -26   5   28.10    3.80
  -1 -26   4    2.00    1.90
  -1 -26   4    1.50    1.60
  -1 -26   3   13.10    2.60
  -1 -26   3   19.50    3.20
  -1 -26   2   31.20    3.80
  -1 -26   2   40.40    4.30
   1 -26  -1    1.50    1.10
  -1 -26   1    1.70    1.10
  -1 -26   1    3.90    1.60
   1 -26   0  274.07   12.20
  -1 -26   0  258.07   11.60
   1 -26   1  121.99    7.60
   1 -26   2   16.00    2.90
   1 -26   2   18.60    3.20
   1 -26   3    5.10    2.20
   1 -26   3    3.40    1.80
   1 -26   3    5.20    2.50
   1 -26   4    5.70    2.00
   1 -26   4    8.40    2.30
   1 -26   4    5.30    1.60
   1 -26   5  106.39    7.40
   1 -26   6    4.80    2.10
   1 -26   7    5.60    1.90
   1 -26   8    4.40    1.60
  -1 -25   9   75.49    5.20
  -1 -25   8    4.50    2.00
  -1 -25   7    7.60    2.30
  -1 -25   6   -0.10    1.70
  -1 -25   5   41.50    4.40
  -1 -25   5   34.00    4.10
  -1 -25   4   36.70    4.40
  -1 -25   4   39.70    4.30
  -1 -25   3   26.00    3.50
  -1 -25   3   26.80    3.60
  -1 -25   2    1.40    1.60
  -1 -25   1   51.79    4.60
  -1 -25   0   29.60    3.30
   1 -25   1  102.19    6.80
   1 -25   2   63.09    5.40
   1 -25   2   59.19    5.20
   1 -25   3    4.30    2.00
   1 -25   3    2.90    1.70
   1 -25   3    1.60    1.70
   1 -25   4   28.90    3.60
   1 -25   4   33.00    4.40
   1 -25   4   26.30    3.40
   1 -25   5   19.70    3.10
   1 -25   5   24.20    3.50
   1 -25   5   25.10    3.50
   1 -25   6   37.40    4.30
   1 -25   7   63.79    5.40
  -1 -24   9   34.90    3.60
  -1 -24   8   83.09    6.20
  -1 -24   7   16.00    3.00
  -1 -24   6   29.90    4.10
  -1 -24   6   32.20    3.90
  -1 -24   5   50.89    5.00
  -1 -24   5   46.80    4.80
  -1 -24   4   20.00    3.30
  -1 -24   4   17.20    3.00
  -1 -24   3   61.49    5.20
  -1 -24   2   23.60    3.30
  -1 -24   1   12.50    2.50
  -1 -24   0   45.10    4.20
   1 -24   1   71.59    5.70
   1 -24   2  143.99    8.20
   1 -24   3    4.90    1.90
   1 -24   3    6.10    1.70
   1 -24   3    5.80    1.90
   1 -24   4    3.70    1.60
   1 -24   4    8.40    2.30
   1 -24   4    7.40    2.40
   1 -24   5   20.50    2.90
   1 -24   5   17.80    3.20
   1 -24   5   19.10    3.10
   1 -24   6   -0.90    1.70
   1 -24   7    6.80    2.10
  -1 -23   9    8.30    2.00
  -1 -23   8   24.40    3.40
  -1 -23   7   15.30    3.00
  -1 -23   6   43.20    4.60
  -1 -23   6   51.69    4.90
  -1 -23   5   24.80    3.60
  -1 -23   5   31.60    3.90
  -1 -23   4    8.90    2.40
  -1 -23   4   12.90    2.90
  -1 -23   3   16.30    3.10
  -1 -23   2   34.40    3.70
  -1 -23   1  104.49    6.40
  -1 -23   0   76.89    5.20
   1 -23   1   95.49    6.30
   1 -23   2   14.70    2.90
   1 -23   3   28.80    3.60
   1 -23   4  193.28    9.90
   1 -23   4  186.38    9.90
   1 -23   4  188.48    9.70
   1 -23   5  115.79    7.60
   1 -23   5  104.19    7.00
   1 -23   6   13.70    2.60
   1 -23   6   15.90    2.80
   1 -23   6   12.20    2.50
   1 -23   7    0.90    1.50
  -1 -22   9    5.70    1.80
  -1 -22   8    7.30    2.20
  -1 -22   7   23.70    3.50
  -1 -22   7   29.20    3.60
  -1 -22   6   14.70    2.80
  -1 -22   6   17.70    3.20
  -1 -22   5   21.00    3.00
  -1 -22   5   20.50    3.20
  -1 -22   4    3.50    2.50
  -1 -22   3   30.60    3.80
  -1 -22   2   30.30    3.50
  -1 -22   1   67.09    5.20
  -1 -22   0    8.80    1.80
   1 -22   0   11.00    2.50
   1 -22   1   48.50    4.30
   1 -22   2   68.79    5.30
   1 -22   3   -3.70    2.30
   1 -22   4   54.79    4.90
   1 -22   4   67.59    5.50
   1 -22   5   10.70    2.50
   1 -22   5   13.00    2.60
   1 -22   5   10.30    2.50
   1 -22   6    6.60    2.00
   1 -22   6    4.00    1.70
   1 -22   6    5.30    1.90
   1 -22   7   16.60    2.90
  -1 -21   9    3.90    1.80
  -1 -21   8   41.10    4.30
  -1 -21   7    9.00    2.40
  -1 -21   7    6.30    2.30
  -1 -21   6   62.59    5.40
  -1 -21   6   64.59    5.50
  -1 -21   6   58.89    4.80
  -1 -21   5   32.50    3.90
  -1 -21   4   52.69    5.10
  -1 -21   3  103.89    6.60
  -1 -21   2  224.88   10.10
  -1 -21   1  120.09    6.80
  -1 -21   0   59.09    4.40
   1 -21   0   55.89    4.40
  -1 -21  -1   86.49    5.20
   1 -21   1   77.89    5.50
   1 -21   2   28.10    3.50
   1 -21   3   81.99    6.00
   1 -21   4   80.69    5.70
   1 -21   4   80.09    5.90
   1 -21   5   72.79    5.60
   1 -21   5   74.49    5.80
   1 -21   5   72.39    5.80
   1 -21   6   49.50    4.50
   1 -21   6   49.90    4.70
   1 -21   6   60.89    5.10
   1 -21   7   19.00    3.10
  -1 -20   9   20.90    3.00
  -1 -20   8   14.40    2.60
  -1 -20   7  283.57   12.80
  -1 -20   7  281.87   12.40
  -1 -20   7  264.27   12.70
  -1 -20   6   76.19    6.10
  -1 -20   6   88.19    6.40
  -1 -20   6   85.19    5.80
  -1 -20   5   41.40    4.40
  -1 -20   4   12.30    2.80
  -1 -20   3   31.00    3.70
  -1 -20   2  280.77   11.60
  -1 -20   1   87.19    5.40
  -1 -20   0    0.90    1.30
   1 -20   0   -1.40    1.90
   1 -20   1    5.10    2.00
  -1 -20  -1    7.90    1.90
   1 -20   2   62.39    4.90
   1 -20   3   57.29    4.90
   1 -20   4   21.80    3.30
   1 -20   4   20.50    2.90
   1 -20   5   45.40    4.30
   1 -20   5   52.99    4.70
   1 -20   6   43.90    4.20
   1 -20   6   50.79    4.70
   1 -20   6   48.70    4.60
  -1 -19  10   29.00    3.70
  -1 -19   9    1.20    1.60
  -1 -19   8    5.60    2.00
  -1 -19   8    7.50    2.10
  -1 -19   8    6.00    1.90
  -1 -19   8    5.20    2.00
  -1 -19   7   76.99    5.90
  -1 -19   7   67.39    5.40
  -1 -19   7   73.59    5.80
  -1 -19   6   57.29    5.10
  -1 -19   6   66.29    5.10
  -1 -19   5  114.19    7.20
  -1 -19   4   35.40    3.80
  -1 -19   3  160.78    8.30
  -1 -19   2  305.47   12.10
  -1 -19   1  122.89    6.50
  -1 -19   0  211.58    9.00
   1 -19   0  213.98    9.30
  -1 -19  -1  111.29    5.60
   1 -19   1   97.69    6.10
   1 -19   2   20.00    2.90
   1 -19   3   55.19    4.50
   1 -19   4  152.08    8.10
   1 -19   4  137.39    7.60
   1 -19   5   44.20    4.40
   1 -19   5   39.80    4.10
   1 -19   6   96.49    6.50
   1 -19   6   94.79    6.20
   1 -19   6   97.09    6.50
   1 -19   7    5.20    1.60
  -1 -18  10    8.00    2.40
  -1 -18   9    4.80    1.80
  -1 -18   8   11.60    2.50
  -1 -18   8   13.50    2.70
  -1 -18   8   12.00    2.30
  -1 -18   8    9.00    2.30
  -1 -18   7   25.80    3.10
  -1 -18   7   24.40    3.30
  -1 -18   7   30.40    3.80
  -1 -18   6   76.39    5.80
  -1 -18   5    2.40    1.90
  -1 -18   4   23.10    3.10
  -1 -18   3  175.58    8.60
  -1 -18   2    8.10    2.20
  -1 -18   1   -1.60    1.80
  -1 -18   0  131.69    6.40
   1 -18   0  141.29    7.00
  -1 -18  -1   10.80    2.00
   1 -18   1    7.80    2.10
   1 -18   2  139.69    7.30
   1 -18   3  102.19    6.30
   1 -18   4  103.59    6.40
   1 -18   4   99.49    6.20
   1 -18   5   60.19    4.90
   1 -18   5   48.10    4.00
   1 -18   5   50.29    4.30
   1 -18   6   48.10    4.60
   1 -18   6   47.20    4.20
   1 -18   6   50.79    4.30
   1 -18   7   31.00    3.70
   1 -18   7   34.80    3.80
  -1 -17  11    2.50    1.80
  -1 -17  10    2.80    2.00
  -1 -17   9   11.20    2.70
  -1 -17   8   11.10    2.40
  -1 -17   8   10.80    2.30
  -1 -17   8   12.30    2.50
  -1 -17   8    9.20    2.50
  -1 -17   7   29.50    3.60
  -1 -17   7   27.00    3.40
  -1 -17   7   31.90    3.90
  -1 -17   6   39.00    4.30
  -1 -17   5   12.40    2.50
  -1 -17   4   57.49    4.80
  -1 -17   3   33.00    3.50
  -1 -17   2   56.49    4.30
   1 -17  -1  103.09    5.50
  -1 -17   1  100.79    5.60
  -1 -17   0  338.57   11.90
   1 -17   0  325.97   12.20
   1 -17   1  122.79    6.40
  -1 -17  -1  127.39    5.90
   1 -17   2   67.39    4.80
   1 -17   3    2.10    2.10
   1 -17   4  187.68    8.10
   1 -17   4  172.18    8.50
   1 -17   4  193.08    8.90
   1 -17   5  150.38    7.50
   1 -17   5  134.49    7.40
   1 -17   5  149.88    8.00
   1 -17   6   62.69    4.90
   1 -17   6   68.89    5.00
   1 -17   6   71.89    5.20
   1 -17   7  183.58    9.40
   1 -17   7  194.58   10.10
   1 -17   8   44.30    4.40
  -1 -16  11   22.00    3.40
  -1 -16  10   14.00    3.00
  -1 -16   9   -1.10    1.90
  -1 -16   8   36.60    4.10
  -1 -16   8   48.20    4.80
  -1 -16   8   42.40    4.20
  -1 -16   7   91.09    6.20
  -1 -16   7   88.69    6.40
  -1 -16   6   71.19    5.40
  -1 -16   5   20.70    3.10
  -1 -16   4   70.79    5.00
  -1 -16   3  282.27   11.20
  -1 -16   2  270.57   10.60
   1 -16  -1   49.99    3.60
  -1 -16   1   56.19    3.90
   1 -16   0   42.80    3.40
  -1 -16   0   41.50    3.20
   1 -16   1  404.26   14.40
  -1 -16  -1  424.36   13.70
   1 -16   2  189.68    8.40
   1 -16   3  120.69    6.50
   1 -16   4   94.89    5.30
   1 -16   4   91.79    5.60
   1 -16   4   90.19    5.70
   1 -16   5  108.29    6.30
   1 -16   5  113.89    6.50
   1 -16   5  128.29    7.00
   1 -16   6   36.40    3.80
   1 -16   6   37.20    3.50
   1 -16   6   39.40    3.80
   1 -16   7   34.80    3.70
   1 -16   7   38.10    4.20
   1 -16   7   37.60    4.00
   1 -16   8    7.70    1.90
   1 -16   8    6.70    1.80
   1 -16   8    9.90    2.60
  -1 -15  11   15.80    3.40
  -1 -15  10   47.10    4.30
  -1 -15  10   54.09    5.20
  -1 -15   9   73.59    5.80
  -1 -15   9   78.79    6.40
  -1 -15   8   -2.00    1.90
  -1 -15   8    2.70    1.80
  -1 -15   7    0.70    1.70
  -1 -15   7    0.80    1.60
  -1 -15   6    0.00    1.70
  -1 -15   5  190.98    9.00
  -1 -15   4  662.23   21.50
  -1 -15   3  160.08    7.50
  -1 -15   2   65.09    4.30
   1 -15  -1   49.10    3.50
  -1 -15   1   47.10    3.50
  -1 -15   0  506.55   16.00
   1 -15   0  495.95   16.30
   1 -15   1  106.79    5.60
  -1 -15  -1  106.09    5.00
   1 -15   2  127.99    6.40
   1 -15   3   22.80    2.20
   1 -15   3   19.80    2.70
   1 -15   4  204.98    8.60
   1 -15   4  199.48    8.80
   1 -15   4  202.28    9.00
   1 -15   5   56.59    4.30
   1 -15   5   57.99    4.30
   1 -15   5   52.29    4.20
   1 -15   6   40.80    3.90
   1 -15   6   48.90    4.20
   1 -15   7   12.90    2.50
   1 -15   8   57.79    5.10
   1 -15   8   59.19    5.30
   1 -15   8   68.59    5.80
   1 -15   9   12.00    2.90
  -1 -14  11    2.30    1.60
  -1 -14  11    2.60    2.00
  -1 -14  10    7.00    2.40
  -1 -14  10    4.00    1.70
  -1 -14   9   11.40    2.50
  -1 -14   9    9.30    2.60
  -1 -14   9    8.40    1.90
  -1 -14   8    6.70    2.10
  -1 -14   8   12.60    2.70
  -1 -14   7    9.50    2.50
  -1 -14   7    4.20    2.00
  -1 -14   6   17.40    2.80
  -1 -14   5   94.29    5.80
  -1 -14   4   18.20    2.60
  -1 -14   3  188.08    8.10
   1 -14  -2   92.69    7.90
  -1 -14   2   99.79    5.20
   1 -14  -1   24.10    4.10
  -1 -14   1   19.80    2.40
   1 -14  -1   16.00    2.00
   1 -14   0  488.05   15.50
  -1 -14   0  479.75   15.30
   1 -14   1   22.30    2.60
  -1 -14  -1   23.30    2.00
   1 -14   2  131.39    5.40
   1 -14   2  132.99    6.40
   1 -14   3  161.38    6.80
   1 -14   3  175.28    7.60
   1 -14   4   44.90    3.40
   1 -14   4   46.00    3.70
   1 -14   4   45.00    3.80
   1 -14   5  292.67   11.80
   1 -14   5  311.67   11.90
   1 -14   5  326.87   12.40
   1 -14   6  188.48    9.40
   1 -14   6  228.78    9.80
   1 -14   7    1.10    1.70
   1 -14   8    4.10    1.80
   1 -14   8    2.00    1.50
   1 -14   9    4.10    1.90
   1 -14   9    6.40    2.00
   1 -14  10   27.90    3.90
  -1 -13  11    7.50    2.00
  -1 -13  11    1.00    2.20
  -1 -13  10    1.90    1.30
  -1 -13  10    2.70    1.80
  -1 -13   9   32.00    3.90
  -1 -13   9   26.10    3.30
  -1 -13   9   33.70    4.30
  -1 -13   8   29.10    3.60
  -1 -13   8   30.10    3.80
  -1 -13   7   12.60    2.60
  -1 -13   7   14.30    2.60
  -1 -13   6    8.20    2.10
  -1 -13   5   44.80    4.00
  -1 -13   4  333.47   12.20
  -1 -13   3  212.38    8.50
   1 -13  -2  163.98   10.10
  -1 -13   2  148.79    6.60
   1 -13  -1   42.60    5.40
  -1 -13   1   49.40    3.20
   1 -13  -1   38.00    2.90
   1 -13   0   58.29    5.90
  -1 -13   0   52.89    3.30
   1 -13   0   54.29    3.50
   1 -13   1   -0.10    1.60
  -1 -13  -1    0.10    0.80
   1 -13   2  192.48    7.00
   1 -13   2  195.98    7.90
   1 -13   3   65.19    3.80
   1 -13   3   66.59    4.30
   1 -13   4   40.10    3.20
   1 -13   4   33.30    3.00
   1 -13   4   36.80    3.40
   1 -13   5   12.30    2.00
   1 -13   5   10.50    2.20
   1 -13   5    7.20    1.80
   1 -13   6  228.48   10.40
   1 -13   6  259.27   10.60
   1 -13   7   55.09    4.70
   1 -13   8   27.60    3.60
   1 -13   8   26.00    3.70
   1 -13   8   22.30    3.10
   1 -13   9   20.90    3.50
   1 -13   9   12.50    2.60
   1 -13  10    1.00    1.70
  -1 -12  12   27.20    3.80
  -1 -12  12   16.40    2.30
  -1 -12  11    1.00    2.30
  -1 -12  11   -5.10    2.00
  -1 -12  10   27.90    3.40
  -1 -12  10   23.40    3.60
  -1 -12   9    4.90    2.20
  -1 -12   9    3.90    1.80
  -1 -12   9    2.60    1.60
  -1 -12   8   38.70    4.20
  -1 -12   7    0.60    1.80
  -1 -12   7    3.20    1.90
  -1 -12   6   21.60    2.90
  -1 -12   5  198.18    8.70
  -1 -12   4  166.78    7.40
  -1 -12   3  892.91   26.50
  -1 -12   2   10.60    1.80
   1 -12  -1   22.80    3.70
  -1 -12   1   20.10    2.10
   1 -12  -1   21.20    2.20
   1 -12   0   80.29    7.10
  -1 -12   0   68.39    3.60
   1 -12   0   68.09    3.90
   1 -12   1   34.70    2.00
   1 -12   1   36.20    4.70
   1 -12   1   43.40    5.30
  -1 -12  -1   39.90    2.50
   1 -12   1   38.40    2.80
   1 -12   2  451.65   13.80
   1 -12   2  458.95   14.80
   1 -12   3   61.99    3.70
   1 -12   3   71.39    4.30
   1 -12   4  104.89    5.40
   1 -12   4  112.79    5.60
   1 -12   4  115.09    5.90
   1 -12   5   37.00    3.10
   1 -12   5   33.70    3.10
   1 -12   5   29.50    3.10
   1 -12   6   27.40    3.30
   1 -12   7   92.89    6.20
   1 -12   8   22.00    3.10
   1 -12   8   24.50    3.30
   1 -12   8   27.90    3.80
   1 -12   9    7.70    2.10
   1 -12   9   14.60    2.90
   1 -12   9   10.80    2.60
   1 -12  10   13.80    2.90
   1 -12  11    3.60    2.10
  -1 -11  12   -1.70    2.30
  -1 -11  12    0.30    1.30
  -1 -11  11   30.80    3.90
  -1 -11  11   28.00    3.40
  -1 -11  10   15.30    2.70
  -1 -11  10   14.40    3.20
  -1 -11   9    4.50    2.10
  -1 -11   9    2.20    1.60
  -1 -11   9    3.40    1.40
  -1 -11   8   21.60    3.20
  -1 -11   7    4.00    2.00
  -1 -11   7    6.70    1.90
  -1 -11   6    8.30    2.00
  -1 -11   5   67.39    4.40
  -1 -11   4   49.80    3.10
  -1 -11   4   45.90    3.60
  -1 -11   3   42.40    3.10
  -1 -11   2  263.07    9.30
   1 -11  -1   55.79    5.60
   1 -11  -1   61.49    3.40
  -1 -11   1   63.59    3.40
   1 -11   0  204.28   11.30
  -1 -11   0  190.18    6.90
   1 -11   0  177.78    7.00
   1 -11   1  200.08   11.10
   1 -11   1  180.28   10.30
   1 -11   1  173.78    5.90
  -1 -11  -1  184.98    6.40
   1 -11   1  176.08    7.00
   1 -11   2   62.19    3.20
  -1 -11  -2   64.09    2.90
   1 -11   2   67.29    3.80
   1 -11   3   16.10    1.80
   1 -11   3   17.90    2.10
   1 -11   4   51.29    3.70
   1 -11   4   56.09    3.60
   1 -11   4   56.19    3.80
   1 -11   5   84.59    5.20
   1 -11   5   96.99    5.10
   1 -11   5   92.19    5.20
   1 -11   6  186.58    8.80
   1 -11   7    4.80    2.10
   1 -11   8    8.20    2.10
   1 -11   8    8.00    4.10
   1 -11   8    8.30    2.30
   1 -11   8    9.70    2.30
   1 -11   9   10.30    2.40
   1 -11   9    4.70    2.20
   1 -11   9   10.70    2.60
   1 -11  10    0.60    1.70
   1 -11  11   42.50    4.40
  -1 -10  12   46.60    4.20
  -1 -10  12   50.29    4.90
  -1 -10  11    2.10    2.20
  -1 -10  11    2.10    2.10
  -1 -10  10   10.70    2.90
  -1 -10  10   15.00    2.80
  -1 -10   9   -0.10    1.60
  -1 -10   9   -1.10    1.30
  -1 -10   9    1.60    1.90
  -1 -10   8   11.50    2.70
  -1 -10   7   56.59    4.70
  -1 -10   7   61.89    4.50
  -1 -10   6   67.59    4.60
  -1 -10   5    4.90    1.80
  -1 -10   4    8.10    1.80
  -1 -10   4   12.10    1.60
  -1 -10   3    4.70    2.40
  -1 -10   3    2.40    0.80
  -1 -10   3    2.60    1.30
  -1 -10   2   11.00    1.70
  -1 -10   1   95.99    4.30
   1 -10  -1   93.89    4.20
   1 -10   0   14.30    3.10
  -1 -10   0   18.20    1.60
   1 -10   0   18.70    1.90
   1 -10   1  197.28   10.60
   1 -10   1  227.78   11.80
   1 -10   1  197.48    7.50
  -1 -10  -1  213.38    7.00
   1 -10   2  881.21   25.20
   1 -10   2  913.11   31.10
   1 -10   2  916.41   25.90
   1 -10   3   75.59    4.00
   1 -10   3   79.99    4.20
   1 -10   4   39.50    3.10
   1 -10   4   46.00    3.10
   1 -10   4   42.60    3.20
   1 -10   5  215.98    9.30
   1 -10   5  236.38    9.00
   1 -10   5  232.28    9.10
   1 -10   6    7.10    2.40
   1 -10   7  114.59    6.80
   1 -10   8   34.80    4.00
   1 -10   8   34.40    4.20
   1 -10   9   26.40    3.50
   1 -10   9   25.50    3.60
   1 -10   9   29.20    4.00
   1 -10  10   32.90    4.20
   1 -10  11   17.70    3.40
   1 -10  12    8.20    2.30
  -1  -9  13    0.20    1.10
  -1  -9  12   64.79    5.00
  -1  -9  12   63.59    5.70
  -1  -9  11   53.89    4.70
  -1  -9  11   54.99    5.60
  -1  -9  10   39.60    4.20
  -1  -9  10   37.30    4.80
  -1  -9  10   38.40    4.10
  -1  -9   9   46.70    4.40
  -1  -9   9   48.90    4.40
  -1  -9   9   46.50    5.00
  -1  -9   8    8.50    2.40
  -1  -9   7   23.50    3.10
  -1  -9   7   20.00    2.50
  -1  -9   6  145.09    7.00
  -1  -9   5  223.18    8.80
  -1  -9   5  217.68    8.70
   1  -9  -4   17.40    2.60
  -1  -9   4   14.10    2.00
  -1  -9   4   18.00    1.90
  -1  -9   3   71.79    6.00
  -1  -9   3   77.09    3.50
  -1  -9   3   71.99    3.90
  -1  -9   2   99.29    4.50
   1  -9  -1  131.89    5.10
  -1  -9   1  132.39    5.20
   1  -9   0   37.50    4.30
   1  -9   0   37.20    2.30
  -1  -9   0   35.10    2.10
   1  -9   1  165.38    9.10
   1  -9   1  166.58    9.70
   1  -9   1  146.79    5.90
   1  -9   2  667.43   24.10
   1  -9   2  659.63   19.10
   1  -9   2  669.03   19.60
   1  -9   3  268.97    9.30
   1  -9   3  271.97    9.50
   1  -9   4   25.30    2.50
   1  -9   4   25.50    2.50
   1  -9   4   27.50    2.40
   1  -9   5   19.90    2.20
   1  -9   5   18.10    2.60
   1  -9   5   17.10    2.00
   1  -9   6   29.40    3.40
   1  -9   7   18.90    2.70
   1  -9   8   83.49    6.00
   1  -9   9    1.60    4.60
   1  -9   9    0.50    1.90
   1  -9   9    1.90    1.50
   1  -9   9    1.00    1.70
   1  -9  10    3.20    1.80
   1  -9  10    8.20    2.50
   1  -9  11    1.60    2.10
   1  -9  12   -0.70    1.80
  -1  -8  13    5.40    1.70
  -1  -8  12   16.60    3.30
  -1  -8  12   16.40    2.90
  -1  -8  11   45.80    4.90
  -1  -8  11   44.60    4.40
  -1  -8  10    8.40    2.10
  -1  -8  10    6.60    2.60
  -1  -8  10    7.70    2.60
  -1  -8   9   12.50    2.40
  -1  -8   9   12.60    2.80
  -1  -8   9   16.70    3.00
  -1  -8   8   66.59    5.30
  -1  -8   7  202.88    9.50
  -1  -8   7  220.08    9.30
  -1  -8   6  491.05   16.30
  -1  -8   5  476.95   15.40
  -1  -8   5  452.95   15.20
  -1  -8   4    7.70    2.30
   1  -8  -4    8.20    1.90
  -1  -8   4    9.90    1.70
  -1  -8   4    8.70    1.60
  -1  -8   3  266.07   12.50
   1  -8  -3  279.67   11.80
  -1  -8   3  287.37    9.20
  -1  -8   3  283.87    9.60
  -1  -8   2  871.21   24.70
  -1  -8   1  652.83   18.70
   1  -8   0    5.40    2.20
   1  -8   1   53.99    5.20
   1  -8   1   46.10    4.50
   1  -8   2  176.18   10.20
   1  -8   2  170.28    9.40
   1  -8   2  175.78    6.20
   1  -8   2  171.18    6.40
   1  -8   3   38.30    2.80
   1  -8   3   44.60    5.00
   1  -8   3   42.90    2.80
   1  -8   3   40.50    2.80
   1  -8   4   41.90    3.20
   1  -8   4   41.00    2.90
   1  -8   4   47.10    3.10
   1  -8   5   46.10    3.80
   1  -8   5   49.10    3.20
   1  -8   5   49.99    3.30
   1  -8   6   21.50    2.90
   1  -8   7   -2.70    1.90
   1  -8   8   53.19    4.80
   1  -8   9   20.20    3.50
   1  -8   9   20.30    3.30
   1  -8   9   18.60    4.90
   1  -8   9   20.10    3.20
   1  -8  10   -1.40    2.70
   1  -8  10    7.90    2.50
   1  -8  11    1.40    2.20
   1  -8  12    9.20    2.60
  -1  -7  13   22.60    2.80
  -1  -7  12   14.90    3.10
  -1  -7  12   12.10    2.40
  -1  -7  11   45.10    4.90
  -1  -7  11   39.10    4.40
  -1  -7  10    7.70    2.60
  -1  -7  10   10.80    2.50
  -1  -7  10   10.30    2.30
  -1  -7   9    4.00    1.90
  -1  -7   9    4.00    2.10
  -1  -7   8   23.20    3.30
  -1  -7   7   21.00    2.90
  -1  -7   6  225.28    8.90
  -1  -7   5  269.07   10.00
  -1  -7   5  260.97    9.60
  -1  -7   4    6.60    2.30
   1  -7  -4   11.20    2.20
  -1  -7   4   11.50    1.70
  -1  -7   4   11.90    1.60
  -1  -7   3  199.58   10.10
   1  -7  -3  215.48    9.60
  -1  -7   3  213.08    7.30
  -1  -7   3  217.58    7.50
   1  -7  -2   24.00    2.80
  -1  -7   1  421.46   12.40
   1  -7   1  128.29    7.20
   1  -7   1  136.99    8.20
   1  -7   2  888.81   30.40
   1  -7   2  916.11   25.00
   1  -7   2  877.21   29.40
   1  -7   2  883.71   25.20
   1  -7   3  223.58    7.80
   1  -7   3  222.38    7.70
   1  -7   3  206.78    7.70
   1  -7   4  106.29    5.20
   1  -7   4  112.79    4.90
   1  -7   4  109.49    5.00
   1  -7   5  179.48    7.80
   1  -7   5  188.18    7.00
   1  -7   5  172.28    7.10
   1  -7   6   69.79    4.90
   1  -7   7   67.79    5.10
   1  -7   8   78.19    5.90
   1  -7   9   24.70    3.70
   1  -7   9   32.10    3.80
   1  -7   9   36.50    5.30
   1  -7   9   28.00    3.70
   1  -7  10    9.10    2.60
   1  -7  10   13.10    3.20
   1  -7  10    2.50    6.20
   1  -7  11    3.80    1.80
   1  -7  12    9.00    2.60
  -1  -6  13   -1.70    1.60
  -1  -6  12    4.70    2.40
  -1  -6  12    2.60    1.90
  -1  -6  11    4.40    2.10
  -1  -6  11   -0.10    1.80
  -1  -6  10   12.70    3.10
  -1  -6  10   14.50    2.80
  -1  -6   9    6.80    2.10
  -1  -6   9   12.00    2.70
  -1  -6   8   24.60    3.30
  -1  -6   7    3.10    1.90
  -1  -6   6   93.69    4.90
   1  -6  -5  181.28    9.90
  -1  -6   5  205.18    8.30
  -1  -6   5  211.48    7.80
  -1  -6   4  115.09    7.40
   1  -6  -4  112.69    6.80
  -1  -6   4  118.19    5.10
  -1  -6   4  108.59    4.80
   1  -6  -3  153.78    7.90
  -1  -6   3  156.18    8.30
  -1  -6   3  171.08    6.00
  -1  -6   3  166.28    6.10
   1  -6  -2   23.20    2.70
  -1  -6   2   22.70    2.90
   1  -6   1  155.08    7.60
   1  -6   1  149.99    8.40
   1  -6   2  157.58    9.10
   1  -6   2  168.68    5.80
   1  -6   2  162.98    8.80
   1  -6   3  215.08    7.70
   1  -6   3  226.88    7.50
   1  -6   3  210.08    7.50
   1  -6   4  529.35   16.50
   1  -6   4  542.35   15.90
   1  -6   4  512.05   15.90
   1  -6   5  156.18    7.00
   1  -6   6   12.40    2.40
   1  -6   7    6.10    1.90
   1  -6   8  121.89    7.30
   1  -6   9  139.09    8.30
   1  -6   9  138.39    8.20
   1  -6   9  130.79    8.60
   1  -6   9  156.68    8.90
   1  -6  10   31.10    6.30
   1  -6  10   41.10    4.80
   1  -6  10   35.00    4.30
   1  -6  11    9.40    2.50
   1  -6  12    4.40    2.40
   1  -6  13    3.60    1.70
  -1  -5  13   12.90    2.20
  -1  -5  12   29.00    4.00
  -1  -5  12   25.30    3.60
  -1  -5  11   21.30    3.60
  -1  -5  11   24.40    3.60
  -1  -5  10    8.00    2.30
  -1  -5  10   -0.70    1.90
  -1  -5   9   18.60    2.70
  -1  -5   9   18.10    4.10
  -1  -5   9   21.50    3.20
  -1  -5   8   11.80    2.40
  -1  -5   7   57.59    4.40
  -1  -5   6  271.17   11.00
  -1  -5   6  281.97   10.10
  -1  -5   5   77.99    4.00
  -1  -5   5   73.39    4.40
  -1  -5   4  130.39    5.60
  -1  -5   4  137.69    5.50
  -1  -5   3  189.88    8.80
   1  -5  -3  189.98    8.60
  -1  -5   3  186.88    6.50
  -1  -5   3  184.98    6.50
   1  -5  -2 1009.30   29.10
  -1  -5   2  930.11   29.20
   1  -5  -1 1395.06   40.00
   1  -5   0  628.54   19.60
   1  -5   1  150.58    7.30
   1  -5   1  165.98    8.40
   1  -5   2   23.60    3.30
   1  -5   2   25.50    3.50
   1  -5   2   23.50    1.70
   1  -5   3  156.68    6.00
   1  -5   3  156.18    5.70
   1  -5   4   71.29    4.10
   1  -5   4   69.39    3.40
   1  -5   4   73.99    3.50
   1  -5   5  232.28    9.00
   1  -5   6    5.20    1.90
   1  -5   7   70.79    5.10
   1  -5   8   20.30    3.00
   1  -5   9   -0.80    2.00
   1  -5   9    0.10    1.50
   1  -5   9   -0.80    2.80
   1  -5   9    1.50    1.50
   1  -5  10    1.20    1.90
   1  -5  10    1.90    2.10
   1  -5  10   -1.50    5.40
   1  -5  11    6.10    2.40
   1  -5  12   13.20    2.90
   1  -5  13   12.60    2.50
  -1  -4  14    7.40    1.40
  -1  -4  13   10.60    2.40
  -1  -4  12   15.40    3.00
  -1  -4  12    8.50    2.40
  -1  -4  11   30.70    3.80
  -1  -4  11   23.80    3.80
  -1  -4  10   28.30    3.70
  -1  -4  10   31.70    4.10
  -1  -4   9    8.80    2.20
  -1  -4   8   64.59    5.00
  -1  -4   7   10.20    2.10
  -1  -4   6  326.27   11.10
  -1  -4   6  306.07   12.10
  -1  -4   5  226.38    8.10
  -1  -4   5  219.48    8.80
  -1  -4   4    8.30    1.30
  -1  -4   4    7.80    1.50
  -1  -4   3  111.29    6.30
  -1  -4   3  116.99    4.50
  -1  -4   3  113.69    4.60
  -1  -4   2  770.92   23.20
   1  -4  -2  755.12   23.40
   1  -4  -1 1065.79   30.90
   1  -4   0 1410.46   39.30
   1  -4   1  183.88    7.80
   1  -4   1  180.68    8.60
   1  -4   2    7.20    2.50
   1  -4   2    7.90    1.10
   1  -4   3  156.88    6.10
  -1  -4  -3  169.38    5.80
   1  -4   4  132.29    5.70
   1  -4   4  139.29    5.10
   1  -4   4  119.99    4.90
   1  -4   5   13.30    2.10
   1  -4   6   50.59    4.00
   1  -4   7   18.20    2.90
   1  -4   8   61.89    5.10
   1  -4   9   64.69    5.50
   1  -4   9   66.29    5.40
   1  -4   9   55.89    5.30
   1  -4   9   59.99    5.50
   1  -4  10   17.30    3.30
   1  -4  10    8.60    4.60
   1  -4  10   16.70    3.40
   1  -4  11    7.60    2.50
   1  -4  11   -3.50    7.20
   1  -4  12   13.20    3.10
   1  -4  13    4.80    1.60
  -1  -3  14   10.80    1.70
  -1  -3  13    9.70    2.10
  -1  -3  12   12.00    2.80
  -1  -3  12   18.60    3.30
  -1  -3  11   73.29    6.30
  -1  -3  10  153.28    8.50
  -1  -3  10  148.59    9.00
  -1  -3  10  150.18   10.20
  -1  -3   9  114.59    7.10
  -1  -3   8    0.50    1.50
  -1  -3   7   73.29    5.00
  -1  -3   6   50.19    4.00
  -1  -3   6   51.19    3.20
  -1  -3   5    4.60    1.10
  -1  -3   5    4.50    1.70
  -1  -3   4  403.36   12.20
  -1  -3   4  381.76   12.70
  -1  -3   3  144.19    5.40
  -1  -3   2 1115.69   31.80
   1  -3  -1   55.99    3.50
   1  -3   0   48.40    2.80
   1  -3   1  235.88    9.00
   1  -3   1  228.38    9.50
   1  -3   2   75.79    3.20
   1  -3   3  582.74   17.20
  -1  -3  -3  582.54   17.70
   1  -3   4  122.69    4.60
   1  -3   4  112.29    5.20
  -1  -3  -4  109.19    6.10
   1  -3   5   14.90    2.20
   1  -3   6   32.00    3.30
   1  -3   7   41.20    3.90
   1  -3   8  106.39    6.70
   1  -3   9    5.20    2.20
   1  -3   9    5.70    2.40
   1  -3   9    2.60    1.60
   1  -3  10    7.70    2.40
   1  -3  10    7.60    2.50
   1  -3  10   11.90    5.20
   1  -3  10    4.60    1.80
   1  -3  11    4.40    6.70
   1  -3  11    6.80    2.50
   1  -3  12    5.90    2.40
   1  -3  13    4.70    1.70
  -1  -2  14    5.10    1.40
  -1  -2  13   17.40    2.70
  -1  -2  12   10.50    2.70
  -1  -2  12    9.40    2.40
  -1  -2  11    3.60    1.90
  -1  -2  10   63.69    5.20
  -1  -2  10   49.60    6.70
  -1  -2  10   49.50    5.10
  -1  -2   9  120.99    7.10
  -1  -2   8   88.99    5.70
  -1  -2   7  119.79    6.30
  -1  -2   6   10.70    2.20
  -1  -2   6   15.40    1.70
  -1  -2   6   16.10    2.30
  -1  -2   5   29.80    2.20
  -1  -2   5   24.30    2.60
   1  -2  -5   26.10    3.30
  -1  -2   4   29.50    2.00
  -1  -2   4   27.70    2.50
  -1  -2   2  179.08    6.70
   1  -2  -1  214.28    7.90
   1  -2   0  118.69    4.60
   1  -2   0  120.29    5.20
   1  -2   1  201.38    8.40
   1  -2   3  190.28    6.60
  -1  -2  -3  179.98    7.70
   1  -2   4   28.50    1.80
   1  -2   4   23.70    2.20
  -1  -2  -4   23.20    2.90
   1  -2   5    7.60    1.80
   1  -2   6   40.50    3.60
   1  -2   7  204.98    9.30
   1  -2   8   21.10    3.00
   1  -2   9   24.30    3.50
   1  -2   9   24.40    3.80
   1  -2   9   23.90    3.40
   1  -2  10   31.90    3.70
   1  -2  10   27.60    5.00
   1  -2  10   32.10    4.10
   1  -2  10   30.00    4.00
   1  -2  11    6.10    2.30
   1  -2  11    5.60    6.30
   1  -2  12    4.80    2.40
   1  -2  13   -0.60    1.70
  -1  -1  14    7.70    1.60
  -1  -1  13   11.40    2.40
  -1  -1  12    3.40    2.10
  -1  -1  12    3.00    1.80
  -1  -1  11   28.30    3.70
  -1  -1  10   19.10    2.90
  -1  -1  10   16.70    4.80
  -1  -1  10   20.90    3.50
  -1  -1   9   82.09    5.70
  -1  -1   8   80.49    5.50
  -1  -1   7  242.18    9.90
  -1  -1   6  138.39    7.30
  -1  -1   6  171.08    7.10
  -1  -1   5   10.50    1.40
  -1  -1   5    8.80    2.10
   1  -1  -5   12.90    2.30
  -1  -1   4  281.37    8.70
  -1  -1   4  250.37    9.30
   1  -1   0    2.00    1.10
   1  -1   1  317.47   11.40
  -1  -1  -1  346.37   10.00
  -1  -1  -2  252.17    9.90
  -1  -1  -3  213.18    9.10
  -1  -1  -4   95.29    6.20
   1  -1   4   88.39    4.40
   1  -1   5   11.20    1.90
   1  -1   6   74.89    4.70
   1  -1   7   66.39    4.80
   1  -1   8  143.69    7.80
   1  -1   9   60.99    5.20
   1  -1   9   67.09    5.60
   1  -1   9   53.89    5.30
   1  -1  10    3.20    1.50
   1  -1  10    6.60    2.20
   1  -1  10    5.80    3.00
   1  -1  11   26.40    3.70
   1  -1  11   16.50    5.90
   1  -1  12    4.90    2.30
   1  -1  13    1.20    1.60
  -1   0  14    2.80    1.30
  -1   0  13   -0.10    1.90
  -1   0  12    4.20    1.60
  -1   0  11   20.50    3.30
  -1   0  10   64.49    5.10
  -1   0  10   48.60    6.20
  -1   0  10   52.49    5.20
  -1   0   9    1.30    1.40
  -1   0   8    8.00    1.90
  -1   0   7   62.79    4.30
  -1   0   6   16.00    2.80
  -1   0   6   19.50    2.20
  -1   0   5    4.00    1.70
  -1   0   5    3.90    0.90
   1   0  -5    4.90    1.90
  -1   0   4  134.39    5.70
  -1   0   3  169.18    8.20
   1   0  -3  170.08    7.10
  -1   0   2  690.43   22.10
   1   0  -2  756.42   20.70
  -1   0   1    8.20    1.00
   1   0   0   25.60    1.80
   1   0   1  163.28    6.20
  -1   0  -1  159.08    6.10
  -1   0  -2  275.57   10.40
  -1   0  -2  300.17   11.00
  -1   0  -3 2821.52   79.59
   1   0   3 2906.11   75.59
  -1   0  -3 2706.33   78.59
   1   0   4    0.50    1.10
  -1   0  -4   -0.10    1.30
   1   0   5    2.20    1.40
   1   0   6   37.90    3.40
   1   0   7   84.19    5.50
   1   0   8  164.18    8.50
   1   0   9    0.40    1.40
   1   0   9    0.60    1.80
   1   0   9   -1.20    2.20
   1   0  10   37.20    4.10
   1   0  10   35.20    4.70
   1   0  11   44.00    4.80
   1   0  11   35.80    7.00
   1   0  12    1.10    2.10
   1   0  13   -2.00    1.50
  -1   1  14    4.60    1.50
  -1   1  13   11.70    2.60
  -1   1  12    3.90    1.80
  -1   1  11   28.30    3.60
  -1   1  10   23.70    3.50
  -1   1  10   17.10    4.30
  -1   1   9   88.39    5.80
  -1   1   8   86.19    5.40
  -1   1   7  252.07   10.10
  -1   1   6  142.59    7.20
  -1   1   6  151.88    6.70
  -1   1   5    6.20    1.80
  -1   1   5   13.00    1.40
   1   1  -5   12.60    2.50
  -1   1   5    7.90    1.50
  -1   1   4  238.68    8.80
  -1   1   4  276.27   12.30
   1   1  -3   66.79    4.00
  -1   1   3   60.79    4.70
   1   1  -3   62.69    4.70
  -1   1   2   50.39    3.60
   1   1  -2   48.40    3.40
   1   1  -2   55.19    2.90
   1   1  -1   47.20    2.40
  -1   1   0    1.10    0.70
   1   1   1  339.57   10.60
   1   1   1  314.27    9.90
  -1   1  -2  249.78    9.90
  -1   1  -2  235.58    9.70
   1   1   2  249.68    9.80
  -1   1  -3  224.18   10.70
  -1   1  -3  210.38   10.20
   1   1   3  227.28    7.60
  -1   1  -3  241.18   10.50
   1   1   4   93.99    4.50
  -1   1  -4  105.79    7.30
  -1   1  -4  101.69    7.00
  -1   1  -4   89.59    6.90
   1   1   5    9.80    1.90
   1   1   6   80.99    4.90
   1   1   7   56.99    4.40
   1   1   8  157.78    8.30
   1   1   9   71.59    5.50
   1   1   9   63.99    5.50
   1   1   9   65.99    5.60
   1   1  10    6.50    2.00
   1   1  10    6.60    3.00
   1   1  11   29.70    4.20
   1   1  11   26.10    5.70
   1   1  12    4.90    2.20
   1   1  12    2.00    7.70
   1   1  13    0.20    1.30
  -1   2  14    2.80    1.20
  -1   2  13   18.80    3.00
  -1   2  11    4.50    1.90
  -1   2  11    3.80    5.50
  -1   2  10   56.69    6.20
  -1   2  10   50.89    4.90
  -1   2   9  129.39    7.20
  -1   2   8  102.49    6.00
  -1   2   7  122.69    6.20
  -1   2   6   10.50    2.40
  -1   2   6   15.10    2.00
  -1   2   5   24.80    2.70
  -1   2   5   26.70    2.30
   1   2  -5   34.30    3.90
  -1   2   4   24.30    2.30
  -1   2   4   25.10    3.40
   1   2  -4   27.70    3.60
   1   2  -3  108.69    5.60
   1   2  -3  104.79    6.20
  -1   2   3  107.59    6.40
   1   2  -2  174.98    7.30
  -1   2   0  117.19    4.60
   1   2   1  217.88    7.80
   1   2   2  461.75   15.40
  -1   2  -2  432.06   15.90
  -1   2  -3  194.18    9.90
  -1   2  -3  187.38    9.50
   1   2   3  195.28    9.60
   1   2   3  200.38    6.80
  -1   2  -3  192.18    9.70
   1   2   4   23.00    2.10
  -1   2  -4   26.50    3.90
  -1   2  -4   23.40    3.60
   1   2   5    8.50    1.70
  -1   2  -5   11.80    3.00
   1   2   6   38.70    3.40
   1   2   7  197.88    9.00
   1   2   8   28.40    3.40
   1   2   9   24.50    3.20
   1   2   9   18.60    3.10
   1   2   9   24.50    3.20
   1   2  10   31.40    3.70
   1   2  10   34.40    4.40
   1   2  11    8.40    5.00
   1   2  11    3.70    1.80
   1   2  12   10.20    6.70
   1   2  12    8.20    2.40
   1   2  13   -0.40    1.40
  -1   3  14   12.20    1.90
  -1   3  13    8.70    2.40
  -1   3  11   90.19    8.20
  -1   3  10  152.68    9.10
  -1   3   8    4.00    1.50
  -1   3   7   73.89    4.50
  -1   3   6   48.30    4.00
  -1   3   6   51.39    3.40
  -1   3   5    5.60    1.70
  -1   3   5    6.20    1.30
   1   3  -5    3.90    1.80
   1   3  -4  393.56   16.30
  -1   3   4  417.86   16.70
  -1   3   4  420.96   12.20
  -1   3   3  145.59    5.50
   1   3  -3  141.29    7.60
  -1   3   3  153.08    8.00
  -1   3  -2   77.59    5.50
   1   3   2   74.59    4.80
  -1   3  -3  585.54   21.80
  -1   3  -3  562.14   20.70
   1   3   3  626.84   21.00
  -1   3  -3  576.74   21.00
   1   3   3  591.84   17.10
   1   3   4  127.69    8.20
  -1   3  -4  113.19    8.00
   1   3   4  116.59    5.10
  -1   3  -4  124.69    8.60
   1   3   5   14.10    2.00
   1   3   6   32.90    3.20
   1   3   7   45.60    4.00
   1   3   8  103.59    6.50
   1   3   9    4.10    1.70
   1   3   9    5.60    2.40
   1   3  10    4.30    2.80
   1   3  11    5.00    3.90
   1   3  12    5.90    2.40
   1   3  12   13.80    6.30
   1   3  13    9.20    2.00
  -1   4  14    7.90    1.50
  -1   4  13   13.00    2.60
  -1   4  11   28.00    5.60
  -1   4  10   32.70    4.80
  -1   4   7   10.00    1.70
  -1   4   6  303.47   12.30
  -1   4   6  343.27   11.40
  -1   4   5  219.28    9.00
  -1   4   5  236.28    8.10
   1   4  -5  232.28   11.90
  -1   4   4    8.00    1.50
  -1   4   4    8.50    1.10
  -1   4   4   14.10    3.00
   1   4  -4   10.30    2.60
  -1   4   3  116.69    4.60
   1   4  -3  114.19    6.70
  -1   4  -2    9.40    2.90
  -1   4  -3  135.89    8.20
   1   4   3  157.48    8.40
   1   4   3  153.68    5.70
  -1   4  -3  149.29    8.50
   1   4   4  133.89    5.50
  -1   4  -4  127.69    9.20
   1   4   5   13.20    1.80
   1   4   6   52.19    3.70
   1   4   7   19.60    2.60
   1   4   8   68.79    5.00
   1   4   9   75.19    5.60
   1   4   9   66.69    5.70
   1   4  10   15.80    3.50
   1   4  11    1.80    3.60
   1   4  12   22.00    3.30
   1   4  12   10.60    5.90
   1   4  13    8.50    1.90
  -1   5  14    4.40    1.30
  -1   5  13   17.10    2.70
  -1   5  11   14.00    4.80
  -1   5  10    2.60    2.90
  -1   5   6  259.47   10.90
  -1   5   6  285.37    9.90
  -1   5   5   79.89    4.70
  -1   5   5   80.59    3.80
  -1   5   4  134.69    5.80
  -1   5   4  143.29    8.90
   1   5  -4  134.29    8.50
  -1   5   3  190.18    6.70
  -1   5   1 1363.36   39.10
  -1   5  -1  151.08    7.50
   1   5   3  162.18    8.80
  -1   5  -3  161.28    9.90
   1   5   3  156.88    5.80
  -1   5  -3  158.28    9.00
   1   5   4   64.89    3.50
  -1   5  -4   72.49    6.80
   1   5   5  239.58    8.90
   1   5   6    3.10    1.50
   1   5   7   68.59    4.70
   1   5   8   23.40    2.90
   1   5   9    2.30    2.50
   1   5  10    3.80    2.50
   1   5  11    5.40    3.60
   1   5  12   12.60    2.50
   1   5  12    9.70    5.50
   1   5  13   18.70    2.40
  -1   6  14    1.60    1.00
  -1   6  13    1.60    1.90
  -1   6  11   -0.90    4.40
  -1   6  10    9.80    3.30
  -1   6  10   14.90    2.60
  -1   6   9    8.90    2.10
  -1   6   6   94.19    5.60
  -1   6   5  202.08    8.40
  -1   6   5  209.38    7.30
  -1   6   4  109.99    5.10
   1   6  -4  108.59    7.60
  -1   6   3  172.68    6.20
  -1   6   1   76.19    5.00
   1   6   0  250.17    9.30
  -1   6  -3  236.68   12.60
   1   6   3  215.98   10.90
  -1   6  -3  213.98   11.40
   1   6   3  234.38    7.70
   1   6   4  544.95   16.50
   1   6   5  156.48    6.60
   1   6   6   12.50    2.00
   1   6   7   10.00    2.10
   1   6   8  136.09    7.30
   1   6  10   31.10    4.60
   1   6  11   11.00    3.60
   1   6  12    5.70    2.30
   1   6  12    5.70    5.10
   1   6  13    1.20    1.20
  -1   7  14    1.70    1.00
  -1   7  11   45.30    5.70
  -1   7  11   46.10    4.40
  -1   7  10    9.20    3.40
  -1   7  10   11.50    2.30
  -1   7   9    4.30    1.70
  -1   7   5  270.97   10.20
   1   7  -4   10.60    2.50
  -1   7   4   14.80    1.90
  -1   7   3  235.08    7.90
  -1   7   1  399.26   14.50
   1   7   0   34.20    3.10
  -1   7  -3  263.47   13.60
   1   7   3  237.98    8.00
  -1   7  -3  233.68   12.10
   1   7   4  114.99    5.00
   1   7   5  183.58    7.40
   1   7   6   71.99    4.50
   1   7   7   68.09    4.80
   1   7   9   28.70    3.50
   1   7  10    7.30    3.00
   1   7  11    1.80    3.20
   1   7  12   12.10    2.60
   1   7  12    2.30    4.90
   1   7  13   23.40    2.50
  -1   8  11   44.90    5.50
  -1   8  11   49.80    4.60
  -1   8  10    2.50    2.70
  -1   8  10    8.40    2.30
  -1   8   9   13.30    2.50
  -1   8   9   15.30    2.50
  -1   8   5  458.25   15.30
  -1   8   4    8.50    1.50
  -1   8   3  303.07    9.70
   1   8   0    8.00    1.80
   1   8   3   43.50    2.50
  -1   8  -3   47.20    5.70
   1   8   4   46.90    2.90
   1   8   5   52.69    3.40
   1   8   6   22.90    2.50
   1   8   9   20.70    3.10
   1   8  10    5.80    3.20
   1   8  10    7.10    1.90
   1   8  11    7.20    3.50
   1   8  12    9.00    2.20
   1   8  12    4.70    4.60
   1   8  13    7.80    1.70
  -1   9  12   64.19    4.80
  -1   9  11   58.19    5.80
  -1   9  11   54.89    4.90
  -1   9  10   36.50    4.20
  -1   9  10   39.10    4.10
  -1   9   9   42.50    4.20
  -1   9   5  222.88    8.80
  -1   9   4   19.50    2.00
   1   9  -3   83.79    7.30
  -1   9   3   72.99    3.50
   1   9  -2  103.09    7.60
   1   9   0   38.80    3.80
   1   9   3  294.67    9.50
   1   9   4   29.30    2.20
   1   9   5   19.70    2.10
   1   9   9   -0.30    1.40
   1   9  10    6.90    2.50
   1   9  10    5.60    1.90
   1   9  11    1.30    2.90
   1   9  11    1.00    1.20
   1   9  12   -1.40    1.50
   1   9  12   -2.30    4.20
   1   9  13    5.20    1.30
  -1  10  12   45.60    4.00
  -1  10  11    0.40    1.60
  -1  10  10   15.30    2.70
  -1  10   9    0.60    1.40
  -1  10   4   11.10    1.60
  -1  10   3    5.00    1.00
   1  10  -2    8.80    2.70
  -1  10   2    7.70    2.10
   1  10  -1  112.89    7.50
  -1  10   1   92.99    6.30
   1  10   4   47.20    2.90
   1  10   8   34.10    3.80
   1  10   9   20.90    3.20
   1  10  10   34.40    4.20
   1  10  10   37.40    4.10
   1  10  11    9.80    3.40
   1  10  11   21.70    2.90
   1  10  12   14.00    2.30
   1  10  12    9.00    4.00
   1  10  13   12.80    1.80
  -1  11  12    0.50    1.70
  -1  11  11   34.90    3.90
  -1  11  10   11.20    2.60
  -1  11   9    6.20    2.30
  -1  11   4   53.09    3.20
   1  11  -2  267.57   13.90
  -1  11   2  237.58   11.70
   1  11  -1   68.69    6.20
  -1  11   1   64.59    5.40
   1  11   8   10.20    2.40
   1  11   9   10.50    2.60
   1  11  10   -0.80    1.60
   1  11  10   -0.90    2.20
   1  11  11   48.60    4.40
   1  11  11   54.39    5.20
   1  11  12   16.00    2.40
   1  11  12   11.70    3.80
  -1  12  13    7.10    1.30
  -1  12  12   13.30    2.40
  -1  12  11   -0.20    1.60
  -1  12  10   23.00    3.60
  -1  12   9    4.10    1.80
  -1  12   2   10.10    2.40
   1  12  -1   27.00    4.30
  -1  12   1   17.30    2.90
   1  12   8   24.30    3.40
   1  12   9   10.40    2.70
   1  12  10   17.80    3.20
   1  12  10   11.70    2.70
   1  12  11    4.00    2.10
   1  12  11    6.10    2.70
   1  12  12    3.20    1.30
   1  12  12    1.80    1.30
   1  12  12    4.80    3.30
  -1  13  13    6.90    1.40
  -1  13  12   24.60    3.10
  -1  13  11    0.70    1.70
  -1  13  10    5.30    2.20
  -1  13   9   24.30    3.50
  -1  13   8   28.10    3.60
  -1  13   2  144.39    8.70
   1  13  -1   47.90    5.60
  -1  13   1   33.70    4.20
   1  13   8   29.00    3.60
   1  13   9   15.10    2.80
   1  13  10    1.10    1.70
   1  13  10    2.80    2.50
   1  13  11   22.00    3.10
   1  13  11   26.40    3.80
   1  13  12   35.40    3.10
   1  13  12   38.40    3.30
   1  13  12   40.40    4.00
  -1  14  13   15.00    1.80
  -1  14  12   10.50    2.20
  -1  14  11    1.00    1.70
  -1  14  10    3.10    1.70
  -1  14   9    7.00    2.30
  -1  14   8    6.50    2.00
  -1  14   2   92.89    7.00
   1  14   8    0.90    1.40
   1  14   9   11.80    2.60
   1  14  10   26.60    3.30
   1  14  10   25.40    3.50
   1  14  11   12.90    2.90
   1  14  11    9.50    2.30
   1  14  12    3.80    1.40
   1  14  12    2.20    1.30
  -1  15  12   10.80    2.30
  -1  15  11   15.30    2.90
  -1  15  10   45.60    4.90
  -1  15   9   73.69    6.20
  -1  15   8    1.70    1.40
   1  15   7   13.70    2.70
   1  15   8   52.19    5.00
   1  15   9   11.70    2.70
   1  15  10   15.20    3.00
   1  15  11   -0.10    1.60
   1  15  12    2.50    1.30
  -1  16  12   20.70    2.80
  -1  16  11   21.40    3.20
  -1  16  10   11.40    3.00
  -1  16   9    4.10    2.50
  -1  16   8   43.00    4.40
   1  16   7   40.40    4.30
   1  16   8    9.70    2.50
   1  16   9    2.60    1.90
   1  16  10    3.20    2.20
   1  16  11   12.00    2.50
   1  16  12    1.10    1.00
  -1  17  12   10.40    2.10
  -1  17  11    3.40    2.30
  -1  17  10    4.90    2.40
  -1  17   9   13.70    3.00
  -1  17   8   10.10    2.50
  -1  17   7   38.10    4.10
   1  17   7  184.18    9.90
   1  17   8   47.60    4.90
   1  17   9   25.30    3.60
   1  17  10   12.90    2.80
   1  17  11   19.60    2.70
   1  17  12   27.30    2.50
  -1  18  12   -0.50    1.40
  -1  18  11   -1.00    2.00
  -1  18  10   10.70    2.80
  -1  18   9    2.10    1.90
  -1  18   8   10.50    2.50
  -1  18   7   22.30    3.10
   1  18   7   32.80    4.00
   1  18   8   17.00    3.00
   1  18   9  172.98    9.60
   1  18  10   16.20    3.10
   1  18  11   11.70    2.30
   1  18  12    6.60    1.40
  -1  19  12    2.60    1.40
  -1  19  11    8.70    2.30
  -1  19  10   29.10    3.80
  -1  19   9    2.90    1.90
  -1  19   8    4.70    2.10
  -1  19   7   72.79    5.90
   1  19   6   94.99    6.60
   1  19   7    7.10    2.10
   1  19   8    6.10    2.20
   1  19   9   12.20    3.00
   1  19  10    7.90    2.40
   1  19  11    4.00    1.60
  -1  20  12   29.40    2.80
  -1  20  11   16.30    2.70
  -1  20  10    6.60    2.30
  -1  20   9   16.00    3.10
  -1  20   8    9.10    2.30
  -1  20   7  279.37   12.90
  -1  20   6   89.99    6.30
   1  20   6   53.19    4.90
   1  20   7   10.80    2.70
   1  20   8    2.90    1.90
   1  20   9    2.30    2.40
   1  20  10   31.30    3.80
   1  20  11    5.20    1.90
  -1  21  12    9.20    1.60
  -1  21  11   44.70    3.90
  -1  21  10    8.10    2.60
  -1  21   9   -0.60    2.20
  -1  21   8   39.00    4.40
  -1  21   7    9.00    2.30
  -1  21   6   66.89    5.40
   1  21   5   73.99    5.50
   1  21   5   70.09    5.50
   1  21   6   53.79    4.70
   1  21   6   57.19    5.10
   1  21   7   22.50    3.50
   1  21   8   48.20    4.80
   1  21   9    3.60    2.30
   1  21  10    2.40    2.00
   1  21  11   -0.80    1.30
  -1  22  11    9.70    2.10
  -1  22  10   18.60    3.00
  -1  22   9    6.00    2.40
  -1  22   8    6.50    2.20
  -1  22   7   24.80    3.40
  -1  22   6   11.60    2.40
  -1  22   5   22.30    3.10
   1  22   5    8.30    2.00
   1  22   5    8.40    2.00
   1  22   6    3.20    1.30
   1  22   6    6.50    1.80
   1  22   7   23.20    3.50
   1  22   8    9.90    2.40
   1  22   9   37.40    4.00
   1  22  10   15.60    2.70
   1  22  11   12.00    2.00
  -1  23  11    5.00    1.60
  -1  23  10    6.10    2.20
  -1  23   9    8.00    2.40
  -1  23   8   31.60    3.90
  -1  23   7   17.30    3.00
  -1  23   6   54.09    4.80
  -1  23   5   24.10    3.40
  -1  23   4   11.40    2.40
   1  23   4  194.58    9.90
   1  23   5  111.29    7.20
   1  23   5  120.59    7.50
   1  23   6    9.90    2.30
   1  23   6   10.70    2.40
   1  23   7    6.30    2.50
   1  23   8   16.20    3.00
   1  23   9    0.80    2.30
   1  23  10    4.40    1.80
   1  23  11    7.30    1.50
  -1  24  11    1.60    1.30
  -1  24  10   58.79    4.50
  -1  24   9   35.00    3.90
  -1  24   8   78.59    5.80
  -1  24   7   13.90    2.50
  -1  24   6   39.50    4.10
  -1  24   5   46.00    4.70
  -1  24   4   20.20    3.10
   1  24   3    4.10    1.80
   1  24   4    8.50    2.50
   1  24   5   20.00    3.00
   1  24   5   24.10    3.40
   1  24   6    0.60    1.40
   1  24   6   -0.90    1.30
   1  24   7    6.20    2.20
   1  24   8    3.00    1.90
   1  24   9   22.20    3.10
   1  24  10   13.40    2.20
  -1  25  11   10.20    1.60
  -1  25  10   29.10    3.00
  -1  25   9   74.29    5.40
  -1  25   8    6.60    2.30
  -1  25   7    4.80    1.50
  -1  25   6    0.80    1.50
  -1  25   5   36.20    4.20
  -1  25   4   36.90    4.10
  -1  25   3   26.10    3.40
   1  25  -3   25.40    3.10
  -1  25   2    0.70    1.10
   1  25   2   59.09    5.00
   1  25   3    4.40    1.90
   1  25   4   30.90    3.90
   1  25   5   23.30    3.10
   1  25   5   22.70    3.40
   1  25   6   34.90    4.00
   1  25   6   38.50    4.10
   1  25   7   61.09    5.20
   1  25   8   16.00    2.70
   1  25   9    4.50    1.80
   1  25  10    1.00    1.40
  -1  26  10    4.30    1.50
  -1  26   9   12.10    2.20
  -1  26   8   21.80    2.90
  -1  26   7   16.50    2.90
  -1  26   5   31.50    3.90
  -1  26   4    4.50    1.80
  -1  26   3   15.50    2.90
   1  26  -3   15.70    2.60
  -1  26   2   33.40    3.80
   1  26  -2   36.20    3.90
   1  26  -1    4.50    1.80
  -1  26   1    3.10    1.40
  -1  26   0  256.17   11.70
   1  26   0  256.47   11.90
   1  26   1  129.19    7.90
   1  26   2   16.90    2.90
   1  26   3    2.70    1.50
   1  26   4    5.60    1.90
   1  26   5  117.59    7.50
   1  26   5  123.29    7.50
   1  26   6    6.80    2.00
   1  26   6   11.00    2.60
   1  26   7    8.70    2.30
   1  26   8   -1.00    1.80
   1  26   9   -3.90    1.90
   1  26  10   -1.30    1.20
  -1  27  10   11.10    1.80
  -1  27   9   57.49    4.30
  -1  27   8   11.20    2.30
  -1  27   7    9.10    2.20
  -1  27   5   65.79    5.70
  -1  27   4  150.28    8.80
   1  27  -3   22.80    3.00
  -1  27   3   24.10    3.40
   1  27  -2   19.70    2.90
  -1  27   2   21.40    3.10
   1  27  -1   12.80    2.60
  -1  27   1    9.70    2.40
  -1  27   0   22.50    3.10
   1  27   0   14.80    2.70
   1  27   1   95.19    6.80
   1  27   2   20.70    3.10
   1  27   3   83.19    6.30
   1  27   4   11.10    2.80
   1  27   5   48.00    4.70
   1  27   6    0.80    1.50
   1  27   7    8.90    2.20
   1  27   8   12.50    2.40
   1  27   9   -1.20    1.30
  -1  28   9    3.90    1.40
  -1  28   8   14.20    2.20
  -1  28   4   14.80    2.90
   1  28  -3   88.09    6.10
  -1  28   3   88.79    6.50
  -1  28   2   67.69    5.50
   1  28  -2   70.19    5.60
   1  28  -1   13.90    2.60
  -1  28   1   15.50    2.70
   1  28   0   45.90    4.50
  -1  28   0   48.30    4.50
   1  28   1   86.09    6.60
   1  28   2  255.37   12.10
   1  28   3  153.78    9.00
   1  28   4   15.20    3.00
   1  28   5    3.60    1.80
   1  28   6   31.80    3.50
   1  28   7    3.30    1.60
   1  28   8   18.10    2.50
   1  28   9    2.20    1.10
  -1  29   9    2.10    1.10
  -1  29   8   29.70    2.90
  -1  29   4    3.90    2.20
  -1  29   3   14.90    2.90
   1  29  -3   18.20    2.90
   1  29  -2    7.30    2.10
  -1  29   2    3.30    1.80
  -1  29   1   46.50    4.60
   1  29  -1   51.09    4.90
  -1  29   0   96.79    6.60
   1  29   0   86.39    6.50
   1  29   1   34.70    4.00
   1  29   2   37.40    4.30
   1  29   3    8.30    2.40
   1  29   4   53.49    5.00
   1  29   5   27.00    3.50
   1  29   7   23.10    2.80
   1  29   8    2.30    1.20
   1  29   9    9.10    1.60
  -1  30   4   22.50    3.60
  -1  30   3   20.70    3.10
   1  30  -3   21.30    2.90
   1  30  -2    2.80    1.50
  -1  30   2    4.50    1.90
  -1  30   1   29.70    3.80
   1  30  -1   32.40    3.90
  -1  30   0   17.20    2.70
   1  30   0   19.30    3.00
   1  30   1   42.50    4.50
   1  30   2   57.19    5.40
   1  30   3    5.00    2.50
   1  30   4   73.59    5.70
   1  30   5   21.90    3.20
   1  30   7   12.50    2.10
   1  30   8   -0.90    1.00
  -1  31   3   19.00    3.10
   1  31  -2   35.50    4.00
  -1  31   2   35.60    4.20
  -1  31   1    0.70    1.50
   1  31  -1    4.40    1.90
  -1  31   0   22.30    3.20
   1  31   0   21.80    3.30
   1  31   1    9.60    2.60
   1  31   2   16.90    3.00
   1  31   3   17.50    3.00
   1  31   4   19.10    3.10
   1  31   5   18.70    3.10
  -1  32   3    3.70    2.00
   1  32  -2   95.09    6.60
  -1  32   2   85.99    6.40
  -1  32   1   16.90    3.00
   1  32  -1   13.90    2.80
  -1  32   0    6.20    2.10
   1  32   0   11.00    2.70
   1  32   1    5.90    2.30
   1  32   2   11.50    3.00
   1  32   3    3.00    1.90
   1  32   4    9.60    2.50
  -1  33   2    9.60    2.40
   1  33  -2    5.90    1.70
  -1  33   1   10.60    2.30
   1  33  -1    5.00    1.90
   1  33   0    3.20    2.00
  -1  33   0    6.20    2.10
   1  33   1   -2.50    2.10
   1  33   2    8.20    2.70
   1  33   3   54.09    5.00
   1  33   4   38.30    3.90
   1  34  -2    4.50    1.70
  -1  34   2    3.30    1.90
   1  34  -1    9.00    2.30
  -1  34   1    6.20    1.90
  -1  34   0   14.00    2.50
   1  34   0   10.80    2.40
   1  34   1    1.00    1.90
   1  34   2    6.50    2.40
   1  34   3    3.00    1.90
   1  34   4   31.30    3.50
   1  35  -2    4.80    1.50
   1  35  -1   36.60    3.80
  -1  35   1   46.50    4.00
   1  35   0   24.60    3.10
  -1  35   0   24.00    2.80
   1  35   1    8.10    2.30
   1  35   2    6.40    2.10
   1  35   3    3.10    1.80
   1  36  -2    6.70    1.70
   1  36  -1    6.70    1.70
   1  36   0    6.10    1.90
   1  36   1    3.00    1.90
   1  36   2   10.70    2.30
   1  36   3    9.90    2.10
   1  37  -1    9.00    1.90
   1  37   0   11.20    2.00
   1  37   1   10.30    1.90
   1  37   2   10.20    2.10
   1  38  -1    6.10    1.40
   1  38   0    3.60    1.40
   1  38   1    7.10    1.70
   2 -38   0    4.60    1.40
   2 -38   1   -0.20    1.20
   2 -38   2   20.20    2.30
   2 -38   3    8.60    1.50
  -2 -37   4    1.60    1.10
  -2 -37   3    8.30    1.60
   2 -37   0   12.00    2.00
   2 -37   1   15.20    2.30
   2 -37   2    7.80    1.90
   2 -37   3    7.60    1.70
   2 -37   3    6.90    1.70
   2 -37   4    6.20    1.50
  -2 -36   6   22.60    2.20
  -2 -36   5   12.80    1.90
  -2 -36   4    8.70    1.80
  -2 -36   3   18.00    2.30
   2 -36  -1    1.40    1.30
   2 -36   0   10.30    2.00
   2 -36   1    2.90    1.60
   2 -36   1    3.00    1.60
   2 -36   2   18.70    2.80
   2 -36   2   20.10    2.80
   2 -36   3   10.70    2.20
   2 -36   3    9.90    2.20
   2 -36   4   -0.50    1.40
   2 -36   4    3.90    1.60
   2 -36   5    0.50    0.90
  -2 -35   6    2.90    1.30
  -2 -35   5   10.70    2.10
  -2 -35   4    3.80    1.80
  -2 -35   3    0.90    1.20
   2 -35  -1    4.40    1.50
   2 -35   0    2.10    1.50
   2 -35   0   -0.60    1.70
   2 -35   1    8.90    2.20
   2 -35   1   13.30    2.60
   2 -35   2    3.50    1.80
   2 -35   2   -1.10    1.80
   2 -35   3    6.30    2.20
   2 -35   3    3.40    1.70
   2 -35   4    1.30    1.60
   2 -35   4    2.60    1.70
   2 -35   5    3.50    1.30
   2 -35   5    3.30    1.40
  -2 -34   7   17.70    2.20
  -2 -34   6   11.50    2.10
  -2 -34   5   26.40    3.10
  -2 -34   4   21.50    2.90
  -2 -34   3   20.00    2.90
  -2 -34   2    2.00    1.40
   2 -34  -1   27.00    3.20
   2 -34   0   16.20    2.60
   2 -34   0   15.20    2.60
   2 -34   1    8.30    2.20
   2 -34   2   12.70    2.70
   2 -34   3    8.10    2.40
   2 -34   3   11.40    2.70
   2 -34   4    9.50    2.40
   2 -34   4   14.10    2.60
   2 -34   5   10.00    2.10
   2 -34   5    7.70    1.80
   2 -34   6   11.30    1.70
   2 -34   6   14.40    1.90
  -2 -33   8    1.30    0.90
  -2 -33   7    4.30    1.70
  -2 -33   6   10.80    2.50
  -2 -33   5   15.60    2.70
  -2 -33   4    7.10    2.20
  -2 -33   3    1.80    1.50
  -2 -33   2   20.20    2.90
   2 -33  -1    7.90    2.20
   2 -33  -1    5.40    1.80
   2 -33   0   42.30    4.40
   2 -33   1   17.50    3.10
   2 -33   2    8.00    2.60
   2 -33   3    0.20    1.90
   2 -33   4   17.50    2.70
   2 -33   4   16.00    2.70
   2 -33   5   24.00    3.00
   2 -33   5   14.70    2.30
   2 -33   6   15.40    2.20
   2 -33   6   15.90    2.10
  -2 -32   8   -1.10    1.20
  -2 -32   7    3.20    1.80
  -2 -32   6    3.60    1.90
  -2 -32   5   45.60    4.40
  -2 -32   4   33.90    3.80
  -2 -32   3   19.50    3.10
  -2 -32   2    3.10    1.60
   2 -32  -1    7.50    2.10
   2 -32   0   15.70    2.80
   2 -32   1    5.80    2.40
   2 -32   2    6.10    2.20
   2 -32   3   11.40    2.70
   2 -32   4    3.80    2.00
   2 -32   5    1.30    1.80
   2 -32   5    1.60    1.80
   2 -32   6   16.60    2.60
   2 -32   6   16.80    2.10
   2 -32   7   19.20    2.10
  -2 -31   8    1.80    1.30
  -2 -31   7   14.20    2.90
  -2 -31   6   14.90    3.00
  -2 -31   5   10.60    2.70
  -2 -31   4   38.00    4.20
  -2 -31   3   23.20    3.50
  -2 -31   2   -0.40    1.40
   2 -31  -1   51.29    4.80
   2 -31   0   18.20    3.00
   2 -31   1    3.70    2.20
   2 -31   2    3.40    2.00
   2 -31   3   22.90    3.50
   2 -31   4    1.90    2.00
   2 -31   5   18.00    2.80
   2 -31   5   16.00    2.70
   2 -31   6   23.60    2.90
   2 -31   6   18.80    2.50
   2 -31   7    8.00    1.70
  -2 -30   9    1.40    1.10
  -2 -30   8    5.80    1.70
  -2 -30   7   10.30    2.50
  -2 -30   6    7.60    3.00
  -2 -30   5   27.20    3.70
  -2 -30   4    1.90    1.90
  -2 -30   3    4.20    1.90
   2 -30  -2   12.70    2.80
  -2 -30   2    9.40    2.10
   2 -30  -1    6.00    2.20
   2 -30   0    9.60    2.50
   2 -30   1    2.60    1.80
   2 -30   2   15.80    3.20
   2 -30   3    1.20    1.90
   2 -30   4   13.70    3.10
   2 -30   5   17.50    3.10
   2 -30   6   42.50    4.00
   2 -30   6   43.90    3.90
   2 -30   7    0.90    1.20
  -2 -29   9   17.20    2.30
  -2 -29   8    5.10    2.20
  -2 -29   7    0.20    2.20
  -2 -29   6    4.40    2.60
  -2 -29   5    1.60    2.00
  -2 -29   4   14.70    3.00
  -2 -29   3   27.60    3.50
   2 -29  -2    1.00    1.60
  -2 -29   2    2.20    1.70
   2 -29  -1   29.90    3.70
   2 -29   0  115.79    7.60
   2 -29   1   89.19    6.70
   2 -29   2   10.80    2.80
   2 -29   3   22.90    3.60
   2 -29   4    8.10    2.90
   2 -29   5    1.50    1.90
   2 -29   6   19.20    2.90
   2 -29   6   23.70    3.10
   2 -29   7   12.20    2.10
  -2 -28   9   13.20    2.20
  -2 -28   8   22.90    3.10
  -2 -28   7    3.50    2.10
  -2 -28   6   14.70    3.10
  -2 -28   5    3.70    2.00
  -2 -28   4    4.70    2.00
  -2 -28   3  103.39    7.10
   2 -28  -2    7.90    1.80
  -2 -28   2    8.10    2.20
  -2 -28   2    6.90    1.90
   2 -28  -1   19.80    3.00
   2 -28  -1   21.30    3.10
   2 -28   0   22.80    3.30
   2 -28   0   19.10    3.00
   2 -28   1   62.19    5.50
   2 -28   1   61.19    5.20
   2 -28   2   90.49    6.80
   2 -28   3   31.50    3.90
   2 -28   4   15.80    3.20
   2 -28   5    3.80    2.00
   2 -28   6    8.50    2.20
   2 -28   6    8.10    2.20
   2 -28   7   11.10    2.20
  -2 -27  10    0.40    0.80
  -2 -27   9   28.30    3.20
  -2 -27   8   25.70    3.40
  -2 -27   7   73.59    5.90
  -2 -27   6   -2.40    2.50
  -2 -27   5    1.80    1.80
  -2 -27   4   47.30    4.60
  -2 -27   3  102.69    7.00
  -2 -27   3   95.99    6.80
   2 -27  -2   19.30    3.00
  -2 -27   2   16.40    2.90
  -2 -27   2   12.20    2.60
   2 -27  -1   93.69    6.60
   2 -27  -1   99.59    6.50
   2 -27   0   86.89    6.40
   2 -27   0   89.69    6.30
   2 -27   1   94.39    6.70
   2 -27   1   79.89    6.20
   2 -27   2   21.70    3.40
   2 -27   2   18.20    2.90
   2 -27   3    3.30    1.80
   2 -27   4   40.60    4.40
   2 -27   5   22.40    3.50
   2 -27   6   11.70    2.50
   2 -27   7   38.50    3.70
  -2 -26  10    9.70    1.70
  -2 -26   9    3.00    1.90
  -2 -26   8    5.50    2.30
  -2 -26   7   17.40    3.30
  -2 -26   6   30.60    4.10
  -2 -26   5   18.60    3.00
  -2 -26   4   13.80    2.70
  -2 -26   4   11.20    2.50
  -2 -26   3   57.39    5.10
  -2 -26   3   54.19    5.00
  -2 -26   2   87.99    6.30
   2 -26  -2   95.49    6.50
  -2 -26   2   90.89    6.40
   2 -26  -1    0.00    1.30
   2 -26  -1   -0.40    1.40
  -2 -26   1   -0.30    1.30
   2 -26   0    2.50    1.60
   2 -26   0    3.90    1.80
   2 -26   1   51.49    4.90
   2 -26   1   49.00    4.60
   2 -26   2  134.39    8.30
   2 -26   2  138.39    8.30
   2 -26   3   64.89    5.70
   2 -26   3   78.39    5.90
   2 -26   4   43.20    4.60
   2 -26   5   40.10    4.60
   2 -26   6    1.50    2.10
   2 -26   7    7.40    2.10
  -2 -25  10    6.00    1.60
  -2 -25   9    6.40    2.30
  -2 -25   8   45.50    4.60
  -2 -25   7   13.30    3.20
  -2 -25   6    2.90    1.90
  -2 -25   5   12.80    2.50
  -2 -25   5   14.30    3.10
  -2 -25   4   70.79    5.80
  -2 -25   4   71.79    5.90
  -2 -25   3   44.70    4.60
  -2 -25   3   39.00    4.30
  -2 -25   2  166.48    8.90
   2 -25  -2  159.08    8.60
  -2 -25   2  164.18    8.90
   2 -25  -1    8.40    2.20
   2 -25  -1    7.10    1.90
  -2 -25   1    4.00    1.90
   2 -25   0   11.10    2.10
   2 -25   0   14.00    2.90
   2 -25   1   41.70    4.30
   2 -25   1   37.50    3.90
   2 -25   2    2.00    1.50
   2 -25   2   -1.70    1.70
   2 -25   3   18.70    3.00
   2 -25   3   14.20    2.70
   2 -25   4   16.70    3.10
   2 -25   4   15.50    2.50
   2 -25   5   12.00    2.80
   2 -25   6   16.20    2.80
   2 -25   7   15.50    2.60
  -2 -24  10   10.80    2.00
  -2 -24   9   25.70    3.30
  -2 -24   8   50.79    4.80
  -2 -24   7   41.80    4.70
  -2 -24   6   14.50    3.00
  -2 -24   5    8.60    2.20
  -2 -24   5    8.10    2.30
  -2 -24   4    1.00    1.30
  -2 -24   4    4.90    2.00
  -2 -24   3   16.20    2.80
  -2 -24   3   17.60    3.10
  -2 -24   2   33.40    3.90
   2 -24  -1   27.50    3.30
  -2 -24   1   39.10    3.80
   2 -24   0    2.10    1.90
   2 -24   1   -0.70    1.60
   2 -24   2  129.19    7.80
   2 -24   2  126.59    7.70
   2 -24   3   58.79    5.20
   2 -24   3   59.29    5.20
   2 -24   4   39.70    4.30
   2 -24   4   42.10    4.30
   2 -24   5   14.30    2.80
   2 -24   5   14.10    2.70
   2 -24   6   14.70    2.80
  -2 -23  10   12.60    2.10
  -2 -23   9   41.10    4.20
  -2 -23   8   27.30    3.70
  -2 -23   7    2.50    2.00
  -2 -23   6   17.00    3.10
  -2 -23   6   16.10    3.20
  -2 -23   5   68.09    5.80
  -2 -23   5   62.59    5.40
  -2 -23   4   -0.50    1.50
  -2 -23   4    1.60    1.70
  -2 -23   3   51.99    4.80
   2 -23  -2    8.60    2.00
  -2 -23   2    6.90    1.80
   2 -23  -1   -0.60    1.70
  -2 -23   1    1.30    1.50
   2 -23   0   28.00    3.40
   2 -23   1  139.69    7.90
   2 -23   2   48.00    4.30
   2 -23   3   15.40    2.70
   2 -23   3   14.60    2.70
   2 -23   3   16.90    3.20
   2 -23   4    9.10    2.50
   2 -23   4    9.70    2.40
   2 -23   4    5.90    1.70
   2 -23   5    0.00    1.70
   2 -23   5    4.10    1.90
   2 -23   5    3.60    1.90
   2 -23   6    3.50    1.90
  -2 -22  10   25.00    2.90
  -2 -22   9   11.80    2.70
  -2 -22   8    8.50    2.30
  -2 -22   7   42.00    4.70
  -2 -22   6   27.30    3.80
  -2 -22   6   27.80    3.80
  -2 -22   5  141.49    8.50
  -2 -22   5  138.89    8.40
  -2 -22   4   34.70    4.00
  -2 -22   3   69.69    5.40
   2 -22  -2   41.30    3.70
  -2 -22   2   37.80    3.90
   2 -22  -1  144.89    7.70
  -2 -22   1  153.98    7.80
   2 -22   0  114.49    6.70
  -2 -22   0  110.69    6.30
   2 -22   1  118.99    7.10
   2 -22   2   26.60    3.40
   2 -22   2   25.00    3.40
   2 -22   3   70.69    5.60
   2 -22   3   77.49    5.80
   2 -22   4   63.89    5.20
   2 -22   4   61.79    5.20
   2 -22   4   67.59    5.50
   2 -22   5    7.80    2.30
   2 -22   5   10.50    2.60
   2 -22   5    9.50    2.40
   2 -22   6    4.80    1.80
   2 -22   6    8.10    2.10
  -2 -21  10   13.10    2.30
  -2 -21   9   10.70    2.60
  -2 -21   8   28.00    3.70
  -2 -21   7   24.80    3.20
  -2 -21   7   28.40    3.90
  -2 -21   7   29.30    3.90
  -2 -21   6  109.79    7.50
  -2 -21   6  123.49    7.70
  -2 -21   5   21.10    3.10
  -2 -21   5   15.00    2.70
  -2 -21   4    9.40    2.40
  -2 -21   3   10.10    2.40
  -2 -21   2    8.60    2.40
   2 -21  -2   12.40    2.20
  -2 -21   1  333.97   13.00
  -2 -21   0  346.27   13.10
   2 -21   1   30.80    3.50
   2 -21   2    8.80    2.40
   2 -21   2    5.90    2.00
   2 -21   3   10.80    2.60
   2 -21   3   12.70    2.60
   2 -21   4   97.39    6.50
   2 -21   4   96.09    6.80
   2 -21   5  189.68    9.80
   2 -21   5  205.38   10.30
   2 -21   5  214.68   10.40
   2 -21   6   35.80    3.90
   2 -21   6   33.30    3.80
   2 -21   6   40.50    4.10
  -2 -20  10   54.39    4.60
  -2 -20   9   50.99    4.70
  -2 -20   9   47.00    4.60
  -2 -20   8   13.40    2.90
  -2 -20   7   37.70    4.40
  -2 -20   7   47.00    4.70
  -2 -20   6  166.98    9.40
  -2 -20   5  154.98    8.70
  -2 -20   4  118.29    7.10
  -2 -20   3   20.10    3.20
  -2 -20   2  116.29    6.70
  -2 -20   1  143.49    7.40
  -2 -20   0  228.08    9.60
   2 -20   1  238.28   10.40
   2 -20   1  250.47   10.80
   2 -20   2    5.70    2.40
   2 -20   2    4.50    2.00
   2 -20   3    4.40    1.80
   2 -20   3    4.30    2.00
   2 -20   4   38.50    4.00
   2 -20   4   23.50    3.30
   2 -20   5   10.40    2.30
   2 -20   5    5.90    2.10
   2 -20   5    8.20    2.10
   2 -20   6    8.40    1.90
  -2 -19  11   10.10    2.30
  -2 -19  10   35.80    4.10
  -2 -19   9   79.49    6.00
  -2 -19   9   73.09    5.80
  -2 -19   8   17.20    3.00
  -2 -19   8   14.90    2.70
  -2 -19   8   11.20    2.60
  -2 -19   8   11.00    2.30
  -2 -19   7   35.30    4.20
  -2 -19   6  130.79    8.00
  -2 -19   5    8.20    2.60
  -2 -19   4   31.40    3.80
  -2 -19   3    7.30    2.30
  -2 -19   2   26.40    3.10
  -2 -19   1  203.48    9.10
  -2 -19   0   63.09    4.30
   2 -19   1  139.69    7.20
   2 -19   1  123.39    7.00
   2 -19   2   44.00    4.10
   2 -19   2   49.50    4.30
   2 -19   3    2.30    2.20
   2 -19   3    0.80    2.10
   2 -19   4   49.50    4.50
   2 -19   4   38.90    3.90
   2 -19   5   63.49    5.10
   2 -19   5   82.39    5.80
   2 -19   6   32.00    3.60
  -2 -18  11   -0.20    1.60
  -2 -18  10   11.40    2.50
  -2 -18   9    2.30    2.00
  -2 -18   9    0.00    1.60
  -2 -18   8   41.00    4.50
  -2 -18   8   45.70    4.60
  -2 -18   8   37.30    4.30
  -2 -18   8   38.40    4.20
  -2 -18   7   18.80    3.30
  -2 -18   6  105.69    7.00
  -2 -18   5   37.70    4.10
  -2 -18   4   10.50    2.30
  -2 -18   3    4.40    2.20
  -2 -18   2  158.38    7.80
  -2 -18   1  318.37   12.10
  -2 -18   0   97.59    5.40
   2 -18   1   46.60    4.20
   2 -18   2   13.40    2.70
   2 -18   2   11.30    2.60
   2 -18   3  111.09    6.60
   2 -18   3  118.69    6.90
   2 -18   4  112.89    6.70
   2 -18   4  129.89    7.40
   2 -18   5   34.00    3.60
   2 -18   5   22.50    3.00
   2 -18   6   21.20    2.80
  -2 -17  11   70.89    5.50
  -2 -17  10   15.50    3.00
  -2 -17   9    4.90    2.30
  -2 -17   9    5.50    1.80
  -2 -17   8   10.00    2.40
  -2 -17   8   14.70    2.80
  -2 -17   8   13.70    2.80
  -2 -17   7   15.40    2.90
  -2 -17   6   44.20    4.60
  -2 -17   5    7.30    2.20
  -2 -17   4  113.29    6.70
  -2 -17   3  102.09    6.10
  -2 -17   2   50.19    4.00
  -2 -17   1   54.69    4.00
  -2 -17   0   41.70    3.20
   2 -17   1  266.67   10.80
   2 -17   2   79.39    5.20
   2 -17   2   65.29    4.80
   2 -17   3  160.88    7.80
   2 -17   3  132.19    7.30
   2 -17   4   25.20    3.30
   2 -17   4   25.10    3.40
   2 -17   5   11.30    2.10
   2 -17   5   11.60    1.90
   2 -17   6   91.79    5.90
   2 -17   6   82.99    5.80
   2 -17   7   28.40    3.30
  -2 -16  12   19.50    2.80
  -2 -16  11    4.00    1.70
  -2 -16  10   13.90    2.80
  -2 -16   9   19.30    3.30
  -2 -16   9   18.10    2.90
  -2 -16   8   21.50    3.30
  -2 -16   8   24.90    3.50
  -2 -16   8   28.60    3.60
  -2 -16   7   34.70    4.10
  -2 -16   6  136.69    7.80
  -2 -16   5   36.20    3.90
  -2 -16   4   93.19    5.80
  -2 -16   3  124.69    6.60
  -2 -16   2   48.80    3.70
  -2 -16   1   26.30    2.60
  -2 -16   0  140.89    6.40
   2 -16   1   61.19    4.50
   2 -16   2  142.29    7.10
   2 -16   2  135.29    6.90
   2 -16   3   12.80    2.60
   2 -16   3   11.30    2.60
   2 -16   4   53.19    4.40
   2 -16   4   47.70    4.10
   2 -16   5   52.99    4.40
   2 -16   5   48.30    4.20
   2 -16   5   48.50    4.00
   2 -16   6    6.40    1.70
   2 -16   6    8.10    2.20
   2 -16   7    4.50    1.70
  -2 -15  12   15.50    2.70
  -2 -15  11    5.30    2.30
  -2 -15  10   25.70    3.70
  -2 -15   9    1.70    1.40
  -2 -15   9   -2.00    2.00
  -2 -15   8   13.10    2.70
  -2 -15   8   15.40    2.80
  -2 -15   8   19.10    3.20
  -2 -15   7   48.40    4.50
  -2 -15   6   26.60    3.40
  -2 -15   5   14.30    2.60
  -2 -15   4   65.79    4.80
  -2 -15   3  148.89    7.20
  -2 -15   2  313.97   11.60
  -2 -15   1   78.69    4.50
  -2 -15   0    1.10    1.10
   2 -15   1  124.79    6.30
   2 -15   2   45.70    3.90
   2 -15   2   46.50    3.90
   2 -15   3   22.50    2.90
   2 -15   3   22.50    2.80
   2 -15   4   69.59    4.80
   2 -15   4   69.29    4.50
   2 -15   4   71.69    4.90
   2 -15   5   43.20    3.90
   2 -15   5   43.70    3.90
   2 -15   5   40.10    3.60
   2 -15   6   54.49    4.40
   2 -15   6   53.19    4.50
   2 -15   7   11.30    2.50
   2 -15   8   32.70    3.90
  -2 -14  12   19.90    3.00
  -2 -14  11   45.00    4.80
  -2 -14  10   19.60    3.20
  -2 -14   9   10.80    2.70
  -2 -14   9   15.20    3.10
  -2 -14   8    6.00    2.30
  -2 -14   8    2.30    1.40
  -2 -14   8    6.50    2.00
  -2 -14   7   61.09    5.00
  -2 -14   6   17.00    2.80
  -2 -14   5    2.30    1.80
  -2 -14   4   13.10    2.50
  -2 -14   3  365.96   13.20
  -2 -14   2   75.09    4.50
  -2 -14   1  204.88    8.10
   2 -14   0  456.75   15.10
  -2 -14   0  453.35   14.60
  -2 -14  -1  289.07    9.70
   2 -14   1  269.37   10.50
   2 -14   2  182.98    8.00
   2 -14   2  179.98    7.90
   2 -14   3  359.26   12.90
   2 -14   3  350.86   12.10
   2 -14   3  341.07   12.80
   2 -14   4   90.59    5.50
   2 -14   4   86.59    5.10
   2 -14   4   94.29    5.60
   2 -14   5   67.19    4.70
   2 -14   5   58.89    4.40
   2 -14   5   56.59    4.40
   2 -14   6   11.70    2.20
   2 -14   6   11.00    2.00
   2 -14   7  216.28   10.80
   2 -14   7  220.68   10.60
   2 -14   8   34.50    4.10
   2 -14   8   40.10    4.20
  -2 -13  12   16.00    2.90
  -2 -13  11   13.20    3.00
  -2 -13  10   -1.20    1.70
  -2 -13   9   36.60    4.40
  -2 -13   9   30.30    3.70
  -2 -13   8   60.39    5.30
  -2 -13   8   63.29    5.00
  -2 -13   8   62.19    5.20
  -2 -13   7  201.98    9.70
  -2 -13   6   20.90    3.00
  -2 -13   5   17.20    2.60
  -2 -13   4  280.67   10.90
  -2 -13   3  765.02   23.40
  -2 -13   2 1319.07   37.50
  -2 -13   1  300.07   10.50
  -2 -13   0   37.40    2.70
   2 -13   0   31.60    2.80
  -2 -13  -1  325.27   10.50
   2 -13   1  309.37   11.30
   2 -13   1  318.37   11.30
   2 -13   2   62.29    4.00
   2 -13   2   52.69    3.80
   2 -13   3  108.39    5.70
   2 -13   3  108.19    5.70
   2 -13   3  109.59    5.20
   2 -13   4    9.60    2.10
   2 -13   4   11.70    1.90
   2 -13   4    7.40    1.90
   2 -13   5   16.60    2.40
   2 -13   5   16.30    2.40
   2 -13   5   13.20    2.30
   2 -13   6   52.39    4.40
   2 -13   7  142.89    8.20
   2 -13   7  139.89    8.10
   2 -13   8   23.30    3.50
   2 -13   8   27.70    3.70
   2 -13   9   16.90    3.30
  -2 -12  12    9.80    2.60
  -2 -12  11   27.40    3.90
  -2 -12  10   18.40    3.50
  -2 -12   9   30.90    4.10
  -2 -12   9   30.30    3.70
  -2 -12   8  104.29    6.50
  -2 -12   8   88.59    6.30
  -2 -12   7   35.00    3.70
  -2 -12   6    4.20    2.00
  -2 -12   5   41.40    3.70
  -2 -12   4  357.86   12.80
  -2 -12   3  313.57   11.20
  -2 -12   2  367.26   12.30
  -2 -12   1   64.69    3.70
   2 -12   0   63.09    3.90
  -2 -12   0   72.99    3.70
   2 -12   0   61.49    5.80
  -2 -12  -1   24.00    1.90
   2 -12   1   24.80    2.40
   2 -12   1   23.70    2.50
   2 -12   2  240.08    9.10
   2 -12   2  227.78    8.20
   2 -12   2  247.88    9.10
   2 -12   3   78.29    4.60
   2 -12   3   74.29    4.20
   2 -12   3   82.39    4.60
   2 -12   4  138.89    6.50
   2 -12   4  132.09    6.40
   2 -12   5    9.60    1.90
   2 -12   5    8.10    1.90
   2 -12   5    5.50    1.70
   2 -12   6   49.80    4.30
   2 -12   7    3.10    1.60
   2 -12   8   28.80    3.60
   2 -12   8   21.30    3.20
   2 -12   9    5.00    2.30
   2 -12  10    0.00    1.80
  -2 -11  12   13.70    3.20
  -2 -11  11   15.20    3.10
  -2 -11  10    1.90    2.10
  -2 -11   9   33.00    3.90
  -2 -11   9   31.90    4.00
  -2 -11   8   32.90    3.70
  -2 -11   8   34.90    3.70
  -2 -11   7   49.00    4.30
  -2 -11   6   37.80    3.30
  -2 -11   6   39.60    3.70
  -2 -11   5   47.90    4.00
  -2 -11   5   52.49    3.60
  -2 -11   4  661.53   21.00
  -2 -11   4  689.73   20.40
  -2 -11   3  418.86   13.80
  -2 -11   2  141.09    6.00
   2 -11  -2  136.69    5.40
  -2 -11   1  123.49    5.30
   2 -11   0   18.10    3.00
  -2 -11   0   16.70    1.70
   2 -11   1   46.40    3.20
  -2 -11  -1   50.49    2.70
   2 -11   1   54.49    5.50
   2 -11   1   44.80    2.40
   2 -11   1   51.69    3.40
   2 -11   2  214.58    8.70
   2 -11   2  228.38    8.00
   2 -11   3   47.80    3.50
   2 -11   3   50.29    3.30
   2 -11   3   49.80    3.50
   2 -11   4   50.49    3.60
   2 -11   4   48.70    3.60
   2 -11   4   44.80    3.40
   2 -11   5    9.70    1.80
   2 -11   5    9.90    2.00
   2 -11   6    9.50    2.00
   2 -11   7    3.80    2.00
   2 -11   8  112.59    7.40
   2 -11   8  106.19    7.10
   2 -11   9   28.20    3.90
   2 -11  10   11.10    3.20
  -2 -10  12   12.00    3.10
  -2 -10  12   13.30    2.30
  -2 -10  11   30.20    4.00
  -2 -10  11   37.00    3.70
  -2 -10  10   12.40    3.00
  -2 -10  10    9.90    2.10
  -2 -10   9    1.70    1.50
  -2 -10   9   -0.20    1.60
  -2 -10   8   57.59    4.50
  -2 -10   8   46.00    4.50
  -2 -10   7    8.40    1.80
  -2 -10   6   -0.70    1.30
  -2 -10   6   -2.30    2.00
  -2 -10   5  149.59    6.80
  -2 -10   5  145.49    6.90
  -2 -10   4  248.28    9.70
  -2 -10   4  275.47    9.50
  -2 -10   3  303.87   14.90
  -2 -10   3  370.36   11.80
  -2 -10   2  166.58    6.70
   2 -10  -2  174.28    6.20
   2 -10  -1  197.78   10.00
   2 -10  -1  197.18    7.10
  -2 -10   1  204.08    7.20
  -2 -10   0  155.88    5.70
   2 -10   0  146.59    8.70
   2 -10   0  150.28    6.10
   2 -10   1  305.27   10.40
  -2 -10  -1  294.77    9.40
   2 -10   1  328.67   16.30
   2 -10   1  295.47    9.30
   2 -10   1  291.07   13.90
   2 -10   1  331.17   10.50
   2 -10   2   39.10    3.00
   2 -10   2   47.80    2.80
   2 -10   2   49.40    3.30
   2 -10   3  171.68    7.10
   2 -10   3  172.58    7.00
   2 -10   3  185.68    7.40
   2 -10   4  304.17   11.00
   2 -10   4  314.77   11.10
   2 -10   4  290.47   11.00
   2 -10   5  163.98    7.20
   2 -10   5  148.59    7.40
   2 -10   6  146.49    7.80
   2 -10   7  142.09    8.10
   2 -10   8   23.30    3.30
   2 -10   8   22.80    3.20
   2 -10   8   20.70    3.80
   2 -10   9   32.30    4.10
   2 -10   9   42.40    6.60
   2 -10  10    2.50    2.00
   2 -10  11    7.40    2.90
  -2  -9  13    1.70    1.10
  -2  -9  13   -0.30    1.50
  -2  -9  12   48.40    5.20
  -2  -9  12   55.29    4.40
  -2  -9  11   32.30    3.50
  -2  -9  11   23.70    3.70
  -2  -9  10   12.90    2.60
  -2  -9  10   12.80    3.10
  -2  -9  10   13.40    2.50
  -2  -9   9    7.40    2.40
  -2  -9   9    5.00    2.10
  -2  -9   8    2.00    1.90
  -2  -9   8    3.50    1.70
  -2  -9   7   98.19    5.80
  -2  -9   7   94.49    6.00
  -2  -9   6   68.79    4.60
  -2  -9   6   61.39    4.40
  -2  -9   5  192.48    8.10
  -2  -9   5  195.58    8.10
  -2  -9   4  270.07   13.20
   2  -9  -4  259.17   13.20
  -2  -9   4  291.17    9.90
  -2  -9   4  280.47   10.20
   2  -9  -3  245.68   12.00
  -2  -9   3  242.88    8.50
  -2  -9   2  611.94   18.40
   2  -9  -2  624.94   17.80
   2  -9  -1  404.26   15.70
   2  -9  -1  419.76   12.80
  -2  -9   1  422.36   12.80
  -2  -9   0  100.19    4.10
   2  -9   0   91.69    6.40
  -2  -9   0  101.79    4.10
   2  -9   0   99.29    4.50
   2  -9   1  232.78    8.50
   2  -9   1  242.38   13.40
   2  -9   1  236.58    7.60
   2  -9   1  237.78   11.70
   2  -9   1  238.58    8.40
   2  -9   2  161.78    6.50
   2  -9   2  173.88   10.10
   2  -9   2  161.38    6.10
   2  -9   2  162.58    6.60
   2  -9   3    2.50    1.20
   2  -9   3    1.20    1.40
   2  -9   3    1.30    1.10
   2  -9   4  220.68    8.40
   2  -9   4  231.88    8.70
   2  -9   4  203.08    8.60
   2  -9   5  369.16   12.70
   2  -9   5  338.07   12.90
   2  -9   6  181.18    8.70
   2  -9   7   21.10    3.20
   2  -9   8   16.20    3.00
   2  -9   8   13.60    2.70
   2  -9   8   15.00    3.70
   2  -9   9   30.20    3.80
   2  -9   9   37.70    5.50
   2  -9   9   25.60    3.70
   2  -9  10   26.20    4.00
   2  -9  11    4.10    2.20
  -2  -8  13    7.70    1.70
  -2  -8  13    4.80    2.00
  -2  -8  12   87.29    5.80
  -2  -8  12   82.79    6.50
  -2  -8  11    0.10    2.30
  -2  -8  11    6.80    2.20
  -2  -8  10   35.90    4.00
  -2  -8  10   37.90    3.90
  -2  -8  10   29.60    4.10
  -2  -8   9   54.49    4.90
  -2  -8   9   54.99    5.30
  -2  -8   8    2.90    2.00
  -2  -8   7   10.80    2.30
  -2  -8   7   12.70    2.20
  -2  -8   6   61.29    4.20
  -2  -8   6   67.69    4.60
  -2  -8   5  656.43   20.40
  -2  -8   5  659.63   20.60
  -2  -8   4   60.19    5.30
   2  -8  -4   62.19    5.70
  -2  -8   4   66.19    3.70
  -2  -8   4   62.09    3.80
  -2  -8   3   55.79    4.90
   2  -8  -3   62.49    5.40
  -2  -8   3   54.69    3.30
   2  -8  -2   26.50    3.50
  -2  -8   2   34.50    2.40
   2  -8  -2   31.20    1.90
   2  -8  -1   61.99    4.50
   2  -8  -1   69.29    3.20
  -2  -8   1   62.29    3.20
  -2  -8   1   67.39    3.30
   2  -8   0   83.69    5.80
  -2  -8   0   85.39    3.60
   2  -8   0   91.59    4.10
  -2  -8   0   93.39    3.70
   2  -8   1    1.00    0.70
   2  -8   1    0.90    2.30
   2  -8   1    0.50    1.70
   2  -8   1    0.90    1.00
   2  -8   1    3.00    1.20
   2  -8   2  255.47    8.60
   2  -8   2  235.28   13.00
   2  -8   2  234.78    8.30
   2  -8   2  238.48   12.30
   2  -8   2  253.87    8.70
   2  -8   3   29.50    2.50
   2  -8   3   33.00    2.60
   2  -8   3   32.70    2.60
   2  -8   4  172.18    6.90
   2  -8   4  172.18    7.10
   2  -8   4  171.88    7.40
   2  -8   5   61.29    3.90
   2  -8   5   62.79    4.40
   2  -8   6   61.49    4.70
   2  -8   7   19.90    3.10
   2  -8   8    6.60    2.30
   2  -8   8    2.60    1.60
   2  -8   8    4.20    2.00
   2  -8   8    5.70    2.30
   2  -8   9   96.49    6.80
   2  -8   9   87.79    6.70
   2  -8   9  102.79    7.80
   2  -8  10   20.50    3.60
   2  -8  10   28.50    7.00
   2  -8  11    3.60    2.10
  -2  -7  13   11.90    2.50
  -2  -7  13   12.90    2.10
  -2  -7  12    9.30    2.00
  -2  -7  12   10.30    2.70
  -2  -7  11   32.90    3.80
  -2  -7  11   33.40    4.40
  -2  -7  10   62.59    5.20
  -2  -7  10   50.09    5.30
  -2  -7   9   56.29    4.80
  -2  -7   9   53.19    5.20
  -2  -7   8   13.10    2.50
  -2  -7   7    1.00    1.60
  -2  -7   7    2.70    1.50
  -2  -7   6   75.09    4.90
  -2  -7   6   72.19    4.50
  -2  -7   5  234.88    9.30
  -2  -7   5  244.58    9.10
  -2  -7   4   40.80    4.20
   2  -7  -4   52.99    5.10
  -2  -7   4   48.00    3.20
   2  -7  -3   73.79    5.70
  -2  -7   3   68.49    5.20
  -2  -7   3   71.89    3.60
   2  -7  -2  186.08    9.70
  -2  -7   2  194.08    6.80
  -2  -7   2  183.38    6.70
   2  -7  -1  152.78    7.30
  -2  -7   1  156.58    5.60
   2  -7  -1  163.58    5.60
  -2  -7   1  155.48    5.70
   2  -7   0  137.29    7.30
  -2  -7   0  146.19    5.10
   2  -7   0  141.89    5.40
  -2  -7   0  143.99    5.00
   2  -7   1  155.08    6.00
  -2  -7  -1  157.78    5.70
   2  -7   1  162.28    5.50
   2  -7   1  162.88    9.80
   2  -7   1  153.38    8.40
   2  -7   1  162.88    6.00
   2  -7   2   86.29    4.00
   2  -7   2   78.19    6.80
   2  -7   2   84.29    3.90
  -2  -7  -2   88.49    3.60
   2  -7   2   80.19    4.00
   2  -7   3  163.98    6.40
  -2  -7  -3  166.28    5.80
   2  -7   3  159.48    6.60
   2  -7   3  170.38    6.60
   2  -7   4   29.80    2.30
   2  -7   4   27.30    2.40
   2  -7   4   27.90    2.60
   2  -7   5   78.79    4.30
   2  -7   5   77.49    4.90
   2  -7   6   58.59    4.60
   2  -7   7   30.10    3.50
   2  -7   8    4.70    1.60
   2  -7   8    8.40    2.70
   2  -7   8    7.40    2.60
   2  -7   8    6.40    1.70
   2  -7   8    6.20    2.10
   2  -7   9    8.20    2.20
   2  -7   9   12.70    2.60
   2  -7  10   16.20    3.40
   2  -7  10   16.40    6.00
   2  -7  11   14.00    3.10
   2  -7  12   -0.50    1.70
  -2  -6  13   -1.30    1.30
  -2  -6  13    0.60    1.70
  -2  -6  12   -1.60    2.40
  -2  -6  12    1.90    1.70
  -2  -6  11   17.10    3.30
  -2  -6  11   14.70    2.80
  -2  -6  10   29.30    3.70
  -2  -6  10   21.40    3.60
  -2  -6   9    4.70    2.00
  -2  -6   9    3.90    2.00
  -2  -6   8   27.00    3.30
  -2  -6   7   14.90    2.30
  -2  -6   7   10.00    2.30
  -2  -6   6   97.59    5.80
  -2  -6   6  103.59    5.40
  -2  -6   5   41.50    3.30
  -2  -6   5   40.80    3.20
  -2  -6   4  301.67   12.90
   2  -6  -4  315.37   14.10
  -2  -6   4  297.37   10.30
   2  -6  -3   32.80    3.80
  -2  -6   3   32.40    3.30
  -2  -6   3   37.30    2.60
  -2  -6   3   34.00    2.40
   2  -6  -2  392.06   15.80
  -2  -6   2  414.36   12.60
  -2  -6   2  413.86   12.50
   2  -6  -1  167.88    7.40
   2  -6  -1  177.38    9.10
  -2  -6   1  178.18    6.10
  -2  -6   1  172.48    6.00
   2  -6  -1  179.88    5.90
  -2  -6   0   32.60    2.10
   2  -6   0   32.60    3.20
   2  -6   0   34.70    2.10
  -2  -6   0   37.90    1.90
   2  -6   1  475.55   13.90
   2  -6   1  459.35   13.50
   2  -6   1  469.65   18.70
   2  -6   1  442.46   17.00
  -2  -6  -1  466.45   13.70
   2  -6   2  151.18    5.60
   2  -6   2  142.09    9.20
  -2  -6  -2  147.39    5.20
   2  -6   2  146.59    5.60
   2  -6   2  142.99    5.70
   2  -6   3  225.88    7.70
   2  -6   3  220.98    7.90
  -2  -6  -3  218.58    7.20
   2  -6   3  210.78    8.00
   2  -6   4   47.70    3.20
   2  -6   4   47.40    3.50
   2  -6   5   38.10    2.80
   2  -6   5   46.80    3.70
   2  -6   6  111.09    6.40
   2  -6   7   13.90    2.50
   2  -6   8   20.20    3.10
   2  -6   8   17.70    2.90
   2  -6   8   13.60    2.70
   2  -6   9   38.50    4.20
   2  -6   9   32.40    4.10
   2  -6   9   34.70    4.70
   2  -6  10   72.89    6.40
   2  -6  10   76.59    7.80
   2  -6  11   31.00    4.00
   2  -6  12   14.50    2.80
  -2  -5  13    5.80    1.80
  -2  -5  13    6.60    2.00
  -2  -5  12   21.00    3.00
  -2  -5  12   20.00    3.40
  -2  -5  11    7.20    2.50
  -2  -5  10   18.50    2.90
  -2  -5  10   17.90    3.30
  -2  -5   9   24.20    3.20
  -2  -5   9   24.60    3.60
  -2  -5   8   46.00    4.10
  -2  -5   7    1.90    1.10
  -2  -5   7    2.50    1.80
  -2  -5   6  107.39    6.10
  -2  -5   6  112.79    5.60
  -2  -5   5  270.77    9.60
  -2  -5   5  264.57   10.00
  -2  -5   4   25.60    3.00
  -2  -5   4   25.20    2.20
  -2  -5   3   43.40    3.50
   2  -5  -3   41.80    4.30
  -2  -5   3   42.20    2.70
  -2  -5   3   43.40    2.70
   2  -5  -2  658.63   22.20
  -2  -5   2  645.14   18.50
   2  -5  -1  145.39    7.90
   2  -5  -1  154.68    6.40
  -2  -5   1  174.08    5.60
  -2  -5   1  153.78    5.40
  -2  -5   0  198.18    6.50
   2  -5   0  193.88    8.20
   2  -5   0  193.48    6.50
  -2  -5  -1  221.48    7.10
   2  -5   1  217.28    7.10
  -2  -5  -2  212.18    6.90
   2  -5   2  216.88    7.30
   2  -5   2  195.48   10.80
   2  -5   2  205.98    7.30
   2  -5   3   43.50    2.50
   2  -5   3   42.10    2.70
   2  -5   3   40.00    2.80
  -2  -5  -3   40.70    2.20
   2  -5   4   49.30    3.10
   2  -5   4   52.69    3.60
   2  -5   5  180.08    7.10
   2  -5   5  177.68    7.90
   2  -5   6  204.18    9.20
   2  -5   7  120.89    7.00
   2  -5   8   12.20    2.70
   2  -5   9   60.29    5.50
   2  -5   9   68.39    6.00
   2  -5   9   67.09    5.50
   2  -5  10   30.20    3.90
   2  -5  10   30.90    6.10
   2  -5  11    7.80    6.90
   2  -5  11   -0.30    2.20
   2  -5  12    1.40    1.80
  -2  -4  14   11.10    1.60
  -2  -4  13    2.10    1.50
  -2  -4  13   -0.80    1.40
  -2  -4  12    7.60    2.30
  -2  -4  12   11.00    2.90
  -2  -4  11   22.40    3.70
  -2  -4  10   34.90    4.30
  -2  -4  10   47.40    4.40
  -2  -4   9  120.79    8.00
  -2  -4   9  140.49    7.70
  -2  -4   8   13.40    2.40
  -2  -4   7  117.49    6.80
  -2  -4   7  119.99    6.00
  -2  -4   6  109.59    5.40
  -2  -4   6  106.09    6.00
  -2  -4   5 1135.19   33.60
  -2  -4   5 1192.08   33.10
  -2  -4   4  749.03   21.80
  -2  -4   3  474.65   14.20
  -2  -4   3  455.35   15.50
   2  -4  -2   13.50    2.50
   2  -4  -1   86.29    5.60
   2  -4  -1   90.99    4.10
   2  -4   0  194.78    6.40
  -2  -4   0  197.28    6.40
   2  -4   1  205.28    6.60
  -2  -4  -1  196.58    6.50
   2  -4   2  235.08    8.10
   2  -4   2  253.97    8.20
   2  -4   2  229.18   11.60
  -2  -4  -2  241.58    7.70
   2  -4   3  402.06   12.60
   2  -4   3  415.96   13.00
  -2  -4  -3  403.46   12.00
   2  -4   4  108.69    4.80
   2  -4   4  101.29    5.20
   2  -4   5   48.30    3.10
   2  -4   5   52.29    3.90
   2  -4   6   18.30    2.80
   2  -4   7  105.79    6.40
   2  -4   8   65.89    5.30
   2  -4   9   21.70    3.30
   2  -4   9   22.40    3.80
   2  -4   9   25.80    3.70
   2  -4  10   11.60    2.60
   2  -4  10    7.20    3.90
   2  -4  11   29.30    3.80
   2  -4  11   18.80    7.30
   2  -4  12   -0.90    2.00
  -2  -3  14   11.70    1.70
  -2  -3  13    3.70    1.60
  -2  -3  13    1.60    1.50
  -2  -3  12   20.50    3.10
  -2  -3  12   23.00    3.40
  -2  -3  11   -1.50    2.20
  -2  -3  10   -1.40    1.90
  -2  -3  10    0.40    1.40
  -2  -3   9   23.00    3.20
  -2  -3   8  133.39    7.20
  -2  -3   7  625.34   19.40
  -2  -3   7  574.84   20.50
  -2  -3   6  182.88    8.30
  -2  -3   6  184.58    7.50
  -2  -3   5  300.77   10.10
  -2  -3   5  277.37   10.50
  -2  -3   4   25.70    2.20
   2  -3  -4   29.40    2.40
  -2  -3   3  270.97    8.70
  -2  -3   3  257.57    9.70
   2  -3  -2 1119.79   34.20
   2  -3  -1  579.84   19.40
   2  -3   1  639.14   17.70
  -2  -3  -1  612.14   17.60
   2  -3   2 1099.99   30.30
  -2  -3  -2 1094.39   29.90
   2  -3   2 1133.39   30.40
   2  -3   3   14.40    1.60
   2  -3   3   18.50    2.00
  -2  -3  -3   12.90    1.30
  -2  -3  -3   16.90    1.40
   2  -3   4  145.99    5.90
   2  -3   4  164.88    6.70
   2  -3   5  169.48    7.60
   2  -3   6   59.09    4.60
   2  -3   7   34.70    3.70
   2  -3   8    5.60    2.00
   2  -3   9   68.29    5.80
   2  -3   9   69.29    5.80
   2  -3   9   70.09    5.70
   2  -3  10   39.80    4.50
   2  -3  10   39.40    5.30
   2  -3  11    5.00    2.50
   2  -3  11    5.60    5.90
   2  -3  12    5.60    2.10
  -2  -2  14   10.60    1.70
  -2  -2  13    4.00    1.80
  -2  -2  13    3.30    1.80
  -2  -2  12    1.70    1.60
  -2  -2  11    2.50    2.20
  -2  -2  10    7.00    2.40
  -2  -2  10    5.20    1.60
  -2  -2   9   32.10    3.50
  -2  -2   8  151.08    7.80
  -2  -2   7    3.20    1.30
  -2  -2   7    2.70    2.10
  -2  -2   6    0.00    1.70
  -2  -2   6    1.40    1.30
  -2  -2   5   80.99    4.10
  -2  -2   5   75.39    4.60
  -2  -2   4  185.88    7.00
   2  -2  -4  202.28    7.60
  -2  -2   3  291.97    9.60
   2  -2  -3  312.77    9.10
  -2  -2   2  473.55   14.10
   2  -2  -1  380.16   13.80
   2  -2   0  201.98    8.70
  -2  -2  -1 1967.60   52.49
   2  -2   1 1987.80   52.69
   2  -2   2 9999.00  212.58
  -2  -2  -2 9906.11  213.18
   2  -2   2 9732.83  212.78
   2  -2   3  410.86   12.70
   2  -2   3  420.06   13.20
  -2  -2  -3  419.76   13.40
   2  -2   4  430.56   13.10
   2  -2   4  407.96   13.90
   2  -2   5   92.29    5.20
   2  -2   6   36.50    3.60
   2  -2   7  180.58    8.90
   2  -2   8  133.69    7.80
   2  -2   9   38.60    4.20
   2  -2   9   37.10    4.20
   2  -2   9   30.40    3.90
   2  -2   9   35.90    4.00
   2  -2  10    4.20    2.00
   2  -2  10    4.30    3.30
   2  -2  11    0.60    1.90
   2  -2  11    0.90    5.80
   2  -2  12   16.60    2.90
   2  -2  13    8.20    1.70
  -2  -1  14   -0.20    1.00
  -2  -1  13    4.80    1.60
  -2  -1  13    4.80    2.00
  -2  -1  12   32.10    4.00
  -2  -1  11    8.70    2.60
  -2  -1  10    2.80    1.70
  -2  -1   9  111.59    6.60
  -2  -1   8   63.19    5.30
  -2  -1   8   66.89    4.70
  -2  -1   7  137.39    7.70
  -2  -1   7  166.28    7.50
  -2  -1   6  212.48    9.60
  -2  -1   6  239.88    8.80
  -2  -1   5   37.30    3.20
  -2  -1   4  494.55   15.30
   2  -1  -4  543.25   16.40
  -2  -1   3  631.64   18.10
  -2  -1   2   49.20    2.10
   2  -1  -1  214.08    9.10
   2  -1   0   11.10    1.90
   2  -1   1  267.87    8.40
   2  -1   2  900.71   24.90
   2  -1   2  842.92   27.90
  -2  -1  -2  907.41   26.10
   2  -1   2  899.11   25.10
   2  -1   3  535.75   15.80
  -2  -1  -3  537.85   17.30
   2  -1   3  531.65   16.30
   2  -1   4  182.38    6.60
   2  -1   4  169.18    7.20
   2  -1   5   62.29    4.20
   2  -1   6   69.59    4.80
   2  -1   7    5.30    2.30
   2  -1   8   44.30    4.40
   2  -1   9   16.80    3.20
   2  -1   9   20.00    3.30
   2  -1   9   16.40    3.00
   2  -1   9   21.70    3.20
   2  -1  10    0.60    2.90
   2  -1  10    0.20    1.50
   2  -1  11   13.20    2.80
   2  -1  11    7.00    5.20
   2  -1  12   -0.20    1.90
   2  -1  13   13.50    2.00
  -2   0  14   35.80    2.90
  -2   0  13   43.20    4.10
  -2   0  12   15.50    2.70
  -2   0  11    8.00    2.20
  -2   0  10    0.80    1.40
  -2   0   9  134.69    7.30
  -2   0   8  421.86   17.10
  -2   0   8  484.75   16.50
  -2   0   7   26.00    3.20
  -2   0   7   33.10    3.10
  -2   0   6   31.80    2.60
  -2   0   6   28.30    3.10
  -2   0   5    5.10    1.70
  -2   0   4   -0.30    0.80
  -2   0   4   -0.30    1.60
  -2   0   3   97.89    3.90
  -2   0   3   89.39    5.50
  -2   0   2    2.60    1.30
  -2   0   1  311.47    9.20
   2   0   0    4.30    1.50
  -2   0  -1 1687.73   46.60
  -2   0  -1 1655.93   45.90
   2   0   2   14.10    1.30
  -2   0  -2    9.60    1.80
   2   0   2    8.60    1.90
  -2   0  -2    8.30    1.80
   2   0   3  459.85   13.60
   2   0   3  442.36   14.10
  -2   0  -3  438.96   17.00
   2   0   4  544.65   16.20
   2   0   4  540.85   17.00
   2   0   5  494.85   16.30
   2   0   6   29.70    3.10
   2   0   7   24.10    3.20
   2   0   8   17.00    2.90
   2   0   9    0.30    1.60
   2   0   9   -1.60    2.10
   2   0   9   -2.50    2.00
   2   0   9   -2.10    1.80
   2   0  10    2.50    1.90
   2   0  10   -3.10    3.10
   2   0  11    4.80    2.20
   2   0  11    0.70    4.90
   2   0  12    3.60    1.90
   2   0  12    2.60    6.40
   2   0  13    5.10    1.60
  -2   1  14    2.00    1.20
  -2   1  13    1.30    1.50
  -2   1  12   30.20    3.60
  -2   1  11   10.60    2.60
  -2   1  10    0.70    1.40
  -2   1   8   59.29    5.10
  -2   1   8   69.69    4.70
  -2   1   7  149.09    8.10
  -2   1   7  170.08    7.50
  -2   1   6  213.98    9.30
  -2   1   5   36.50    3.20
  -2   1   5   40.60    2.50
  -2   1   4  501.25   14.80
  -2   1   4  497.85   18.90
  -2   1   3  614.14   20.50
  -2   1   2   46.30    3.30
  -2   1   1  231.58    7.00
   2   1   0    9.20    1.70
  -2   1  -1  258.67    9.90
   2   1   2  891.01   24.70
   2   1   2  927.81   26.60
  -2   1  -2  873.41   27.20
  -2   1  -2  853.21   27.30
  -2   1  -3  540.55   20.30
  -2   1  -3  506.05   19.20
   2   1   3  521.05   15.90
   2   1   4  177.28    7.10
   2   1   5   63.79    4.20
   2   1   6   67.09    4.70
   2   1   7    5.80    1.90
   2   1   8   45.50    4.40
   2   1   9   14.60    3.40
   2   1   9   14.70    2.70
   2   1   9   19.90    3.10
   2   1  10    5.20    2.60
   2   1  10   -0.20    2.90
   2   1  11    8.30    4.30
   2   1  11   19.10    3.20
   2   1  12    0.00    1.60
   2   1  12    4.90    6.40
   2   1  13   13.90    2.10
  -2   2  14    8.20    1.60
  -2   2  13    2.40    1.70
  -2   2  11   -0.10    1.60
  -2   2  10   10.00    2.40
  -2   2   8  156.28    7.60
  -2   2   7    2.30    2.10
  -2   2   7    1.10    1.10
  -2   2   6    1.20    1.80
  -2   2   5   94.79    4.00
  -2   2   5   76.79    4.70
  -2   2   4  201.88    6.80
  -2   2   4  181.58    9.90
  -2   2   3  286.07   11.70
  -2   2   0  208.58    8.00
  -2   2   0  207.78    8.80
  -2   2  -1 1855.21   53.79
  -2   2  -1 1944.11   53.69
  -2   2  -2 9995.90  257.07
  -2   2  -2 9431.66  255.37
   2   2   2 9498.05  253.17
   2   2   2 9836.52  252.57
  -2   2  -3  388.66   16.00
   2   2   3  407.56   12.90
  -2   2  -3  424.06   17.30
   2   2   4  415.76   13.70
   2   2   5   92.19    5.00
   2   2   6   39.40    3.70
   2   2   7  181.08    8.90
   2   2   8  133.29    7.70
   2   2   9   34.90    4.40
   2   2   9   34.10    4.20
   2   2   9   42.70    4.40
   2   2  10    2.10    2.90
   2   2  10    3.90    2.20
   2   2  11   -2.00    2.20
   2   2  11   -0.40    4.40
   2   2  12   17.20    2.80
   2   2  12   14.60    6.60
   2   2  13    6.20    1.50
  -2   3  14   10.30    1.70
  -2   3   7  590.44   21.00
  -2   3   7  646.94   19.90
  -2   3   6  182.88    8.60
  -2   3   6  201.98    7.80
  -2   3   5  279.27   10.30
  -2   3   4   30.40    1.90
  -2   3   4   23.90    3.30
   2   3  -4   24.30    3.50
   2   3  -3  252.97   10.80
  -2   3   3  271.17   11.30
   2   3  -2 1125.59   32.10
   2   3  -1  596.04   16.60
   2   3   0  414.46   11.50
  -2   3   0  390.16   13.50
  -2   3   0  397.46   14.70
  -2   3  -1  608.04   20.40
   2   3   1  639.74   18.70
   2   3   1  598.44   18.10
  -2   3  -1  622.34   20.50
   2   3   2 1110.39   30.60
  -2   3  -2 1080.89   34.60
   2   3   3   11.80    1.70
  -2   3  -3   12.30    2.50
   2   3   4  145.29    6.40
   2   3   5  169.48    7.50
   2   3   6   62.09    4.50
   2   3   7   33.50    3.70
   2   3   8    9.00    2.30
   2   3   9   64.99    5.70
   2   3   9   78.69    5.90
   2   3  10   45.80    5.20
   2   3  10   46.70    4.90
   2   3  11    5.40    1.90
   2   3  11    5.30    3.80
   2   3  12   12.60    2.60
   2   3  12    9.50    5.70
   2   3  13    5.00    1.30
  -2   4  14   10.00    1.70
  -2   4  10   40.20    4.90
  -2   4   7  115.89    6.90
  -2   4   6   96.69    5.90
  -2   4   6  108.79    5.00
  -2   4   5 1155.88   33.40
  -2   4   4  765.82   21.30
  -2   4   4  743.03   26.50
   2   4  -4  748.33   26.00
   2   4  -3  451.05   16.30
   2   4  -2   11.80    1.70
  -2   4   0  191.68    8.00
  -2   4  -1  201.58    9.40
   2   4   1  204.78    7.80
   2   4   1  197.48    6.80
  -2   4  -1  193.78    9.00
   2   4   2  238.48    8.20
  -2   4  -2  246.48   11.40
  -2   4  -3  407.16   16.80
   2   4   3  425.26   16.60
   2   4   3  419.96   13.30
   2   4   4  106.39    5.20
   2   4   5   55.59    3.80
   2   4   6   21.10    2.80
   2   4   7  107.69    6.40
   2   4   8   74.19    5.60
   2   4   9   19.30    3.30
   2   4   9   20.00    3.10
   2   4  10   11.50    3.30
   2   4  10   12.10    2.70
   2   4  11   27.90    4.70
   2   4  11   24.40    3.50
   2   4  12    1.90    1.50
   2   4  12    4.10    5.70
   2   4  13    1.60    1.10
  -2   5  14    6.50    1.50
  -2   5  10   22.00    3.00
  -2   5  10   14.70    3.90
  -2   5   7    0.10    1.90
  -2   5   6  111.99    6.20
  -2   5   5  261.47    9.90
   2   5  -4   28.30    3.60
  -2   5   4   25.50    3.60
   2   5  -3   44.00    3.90
   2   5   1  215.98    7.10
  -2   5  -1  208.18   10.10
  -2   5  -1  217.68   10.10
  -2   5  -2  210.48   10.60
   2   5   2  206.28    7.30
   2   5   3   43.90    4.40
   2   5   3   40.70    2.80
   2   5   4   52.69    3.60
   2   5   5  171.18    7.60
   2   5   6  209.78    9.20
   2   5   7  112.59    6.60
   2   5   8   11.10    2.30
   2   5   9   57.79    5.40
   2   5   9   74.29    5.50
   2   5  10   20.00    4.10
   2   5  11    1.50    1.70
   2   5  11   -2.30    3.60
   2   5  12    1.20    1.30
   2   5  12    0.10    4.90
   2   5  13    3.80    1.20
  -2   6  14    1.10    1.10
  -2   6  11   12.90    2.70
  -2   6  10   30.30    3.70
  -2   6  10   35.10    4.50
  -2   6   9    2.30    1.30
  -2   6   7   12.70    2.60
  -2   6   6   98.09    5.80
  -2   6   5   43.50    3.40
   2   6  -4  308.67   13.80
   2   6  -3   31.80    3.60
  -2   6  -1  441.76   17.50
  -2   6  -1  472.25   17.20
  -2   6  -2  140.79    8.60
   2   6   2  150.98    5.70
   2   6   3  221.78    8.10
   2   6   3  232.28   11.30
   2   6   4   44.70    3.20
   2   6   5   41.70    3.40
   2   6   6  113.99    6.20
   2   6   7   16.30    2.70
   2   6   8   17.00    3.10
   2   6   8   16.10    2.70
   2   6   9   31.50    4.00
   2   6  10   73.99    6.60
   2   6  11   37.90    4.00
   2   6  11   34.00    4.90
   2   6  12   18.60    2.50
   2   6  12   18.70    5.20
  -2   7  14   10.90    1.60
  -2   7  12    6.40    1.80
  -2   7  11   35.80    3.90
  -2   7  10   53.79    4.90
  -2   7   9   48.70    4.50
  -2   7   7   -2.10    1.80
  -2   7   6   71.59    4.80
  -2   7   5  244.58    9.50
   2   7  -4   45.50    4.50
  -2   7   1  155.78    8.50
   2   7   1  197.18    6.70
  -2   7  -1  152.58    9.40
  -2   7  -2   90.49    7.00
   2   7   3  162.88    6.60
   2   7   3  176.18    9.70
   2   7   4   30.30    2.60
   2   7   5   73.79    4.50
   2   7   6   54.29    4.10
   2   7   7   27.30    3.20
   2   7   8    5.50    1.60
   2   7   8    5.00    1.90
   2   7   8    6.20    1.70
   2   7   9    9.00    2.20
   2   7  10   16.20    3.40
   2   7  11   15.00    2.80
   2   7  11    4.50    3.00
   2   7  12    3.10    1.40
   2   7  12    0.30    4.20
  -2   8  14   10.90    1.60
  -2   8  12   81.49    5.50
  -2   8  11    4.20    1.80
  -2   8  10   34.80    4.00
  -2   8   9   56.99    5.00
  -2   8   7    9.60    2.30
  -2   8   6   60.79    4.40
  -2   8   5  647.24   20.40
  -2   8   4   61.39    3.60
   2   8  -4   61.99    5.60
  -2   8   1   61.39    5.20
  -2   8   0   85.09    6.40
   2   8   1    2.60    0.80
   2   8   3   32.20    2.50
   2   8   3   36.80    4.50
   2   8   4  176.88    7.30
   2   8   5   62.69    4.00
   2   8   6   62.79    4.50
   2   8   7   19.70    2.60
   2   8   8    6.70    2.00
   2   8   8    5.80    1.80
   2   8   9   86.99    6.70
   2   8   9  101.09    6.70
   2   8  10   22.70    4.10
   2   8  11    4.20    3.10
   2   8  11   11.00    2.40
   2   8  12    2.80    1.40
   2   8  12    4.20    4.10
  -2   9  12   51.19    4.40
  -2   9  11   21.40    3.10
  -2   9  10   10.70    2.40
  -2   9   9    6.10    1.70
  -2   9   7  102.59    6.40
  -2   9   6   67.29    4.70
  -2   9   5  189.28    8.00
  -2   9   4  293.07   10.20
  -2   9   1  430.86   17.30
   2   9   0  107.79    6.40
  -2   9   0  109.49    7.40
   2   9   1  312.57   10.70
   2   9   4  224.98    8.60
   2   9   5  359.96   12.70
   2   9   6  203.38    8.80
   2   9   7   14.70    2.10
   2   9   8   14.00    2.70
   2   9   8   10.40    2.20
   2   9   9   30.20    3.90
   2   9   9   21.40    3.10
   2   9  10   31.50    3.60
   2   9  10   19.60    3.90
   2   9  11    5.50    2.80
   2   9  11    5.30    1.70
   2   9  12    3.10    1.10
   2   9  12    4.80    3.90
  -2  10  13   18.30    2.10
  -2  10  12   11.50    2.40
  -2  10  11   23.50    3.30
  -2  10  10    8.70    2.10
  -2  10   9    2.70    2.10
  -2  10   6    1.00    1.30
  -2  10   5  137.69    6.50
  -2  10   4  272.77    9.60
  -2  10   1  213.48   11.20
  -2  10   0  141.39    9.00
   2  10   5  157.38    7.10
   2  10   6  168.48    7.90
   2  10   8   24.30    3.30
   2  10   8   20.00    2.90
   2  10   9   31.20    3.70
   2  10   9   26.30    3.50
   2  10  10    9.10    2.20
   2  10  10    7.10    2.70
   2  10  11    2.70    2.60
   2  10  11    0.50    1.30
   2  10  12   13.30    3.90
   2  10  12   11.20    1.90
  -2  11  13    6.50    1.50
  -2  11  12    7.80    2.00
  -2  11  11   16.60    2.90
  -2  11  10   -2.60    1.90
  -2  11   9   29.50    3.70
  -2  11   6   45.00    3.80
  -2  11   5   51.69    3.70
  -2  11   4  690.83   20.70
  -2  11   1  118.89    8.40
   2  11  -1  141.39    8.70
   2  11   8  130.49    7.80
   2  11   8  108.49    7.30
   2  11   9   31.20    3.80
   2  11  10    8.50    2.20
   2  11  10    9.60    3.30
   2  11  11    2.30    1.40
   2  11  11    3.50    2.40
   2  11  12    0.30    3.30
  -2  12  13   99.69    5.20
  -2  12  12   11.00    2.40
  -2  12  11   26.00    3.50
  -2  12  10   10.70    2.60
  -2  12   9   23.60    3.30
  -2  12   6    6.80    1.50
   2  12  -1   79.69    6.50
   2  12   8   25.60    3.60
   2  12   8   25.40    3.60
   2  12   9    1.30    1.60
   2  12  10   -1.40    2.80
   2  12  10   -1.40    1.70
   2  12  11    1.40    2.30
   2  12  11    6.00    2.00
   2  12  12    6.70    3.00
  -2  13  13    7.30    1.40
  -2  13  12   19.60    2.90
  -2  13  11   11.10    2.70
  -2  13  10    1.70    1.90
  -2  13   9   29.80    3.80
  -2  13   8   50.79    4.70
   2  13  -1  360.86   16.90
   2  13   7  151.58    8.70
   2  13   8   31.40    3.70
   2  13   8   28.50    3.70
   2  13   9   23.80    3.60
   2  13  10   11.50    2.60
   2  13  10   13.90    3.20
   2  13  11   10.60    2.10
   2  13  11    9.60    2.80
   2  13  12    4.30    2.80
  -2  14  13    3.60    1.20
  -2  14  12   19.00    2.70
  -2  14  11   35.70    4.00
  -2  14  10   13.80    3.00
  -2  14   9    7.50    2.30
  -2  14   8    6.00    2.10
   2  14  -1  260.07   14.30
   2  14   7  214.28   10.70
   2  14   8   35.80    4.20
   2  14   9    9.40    2.60
   2  14  10   16.70    3.40
   2  14  10   15.00    2.80
   2  14  11   17.00    2.90
   2  14  11   15.20    2.40
   2  14  12    3.90    2.40
   2  14  12    8.20    1.40
  -2  15  13    4.10    1.10
  -2  15  12   13.80    2.40
  -2  15  11   12.40    2.90
  -2  15  10   26.30    3.70
  -2  15   9    3.80    2.10
  -2  15   8   12.80    2.70
   2  15   7    9.50    2.30
   2  15   8   27.40    3.60
   2  15   9   21.50    3.50
   2  15  10   82.49    6.10
   2  15  10   89.19    6.20
   2  15  11    1.40    2.20
   2  15  11    1.40    1.60
   2  15  12   10.50    1.60
  -2  16  12   17.40    2.60
  -2  16  11    3.60    2.00
  -2  16  10    9.80    2.50
  -2  16   9   12.80    2.70
  -2  16   8   26.80    3.50
   2  16   7    9.30    2.40
   2  16   8   11.00    2.80
   2  16   9    2.00    2.00
   2  16  10   61.39    5.30
   2  16  10   64.09    5.20
   2  16  11    5.80    2.30
   2  16  11    3.30    1.50
  -2  17  12    6.00    2.00
  -2  17  11   67.19    5.50
  -2  17  10   12.30    2.70
  -2  17   9   -1.00    2.00
  -2  17   8    9.80    2.40
  -2  17   7   12.90    2.40
   2  17   6   87.39    6.30
   2  17   7   27.60    3.80
   2  17   8   15.50    3.00
   2  17   9    6.20    2.30
   2  17  10    8.60    2.20
   2  17  10    5.60    1.90
   2  17  11   18.60    2.60
  -2  18  12   -0.50    1.50
  -2  18  11    1.60    1.90
  -2  18  10    9.80    2.70
  -2  18   9    4.00    2.40
  -2  18   8   43.70    4.60
  -2  18   7   14.20    2.70
   2  18   6   18.00    2.80
   2  18   7    0.10    1.60
   2  18   8    2.70    1.90
   2  18   9   14.30    2.90
   2  18  10    2.50    2.30
   2  18  11   13.90    2.20
  -2  19  12    8.50    1.90
  -2  19  11    5.70    2.00
  -2  19  10   36.40    4.40
  -2  19   9   77.09    6.10
  -2  19   8   13.60    3.00
  -2  19   7   33.30    3.80
   2  19   6   32.70    3.90
   2  19   7    7.10    2.30
   2  19   8    7.00    2.60
   2  19   9   16.40    3.20
   2  19  10   25.40    3.30
   2  19  11    3.30    1.50
  -2  20  12    0.50    1.20
  -2  20  11    2.20    1.90
  -2  20  10   48.20    4.70
  -2  20   9   47.60    4.90
  -2  20   8   18.70    3.30
  -2  20   7   48.70    4.70
  -2  20   6  172.98    9.10
   2  20   5    8.60    1.90
   2  20   6    9.90    2.40
   2  20   7    0.90    1.60
   2  20   8    3.90    2.40
   2  20   9   29.20    3.80
   2  20  10   29.80    3.40
   2  20  11    4.30    1.50
  -2  21  12    2.30    1.30
  -2  21  11   20.70    2.90
  -2  21  10    8.60    2.20
  -2  21   9    8.80    2.50
  -2  21   8   24.80    3.80
  -2  21   7   26.50    3.40
  -2  21   6  134.79    8.00
   2  21   5  211.68   10.70
   2  21   6   35.50    4.10
   2  21   7   -5.90    2.60
   2  21   8    1.10    2.00
   2  21   9    3.70    2.30
   2  21  10    0.20    1.60
   2  21  11    9.00    1.60
  -2  22  11   -0.60    1.50
  -2  22  10   24.10    3.20
  -2  22   9    8.60    2.50
  -2  22   8   12.70    2.90
  -2  22   7   43.30    4.50
  -2  22   6   31.00    3.60
   2  22   4   65.79    5.20
   2  22   4   63.59    5.10
   2  22   5    8.00    1.90
   2  22   5    8.60    2.00
   2  22   6    4.50    2.10
   2  22   7    7.50    2.50
   2  22   8   15.20    3.10
   2  22   9   26.00    3.50
   2  22  10    4.00    1.70
   2  22  11   10.40    1.60
  -2  23  11   22.00    2.60
  -2  23  10    9.30    2.20
  -2  23   9   49.90    4.70
  -2  23   8   29.00    3.90
  -2  23   7   -0.20    1.50
  -2  23   6   15.00    2.60
  -2  23   4    4.50    1.70
   2  23   3   18.20    2.90
   2  23   4   11.10    2.30
   2  23   4    8.00    2.10
   2  23   5    1.40    1.20
   2  23   5    2.50    1.60
   2  23   6    4.00    2.20
   2  23   7   11.20    2.50
   2  23   8   19.60    3.30
   2  23   9   25.30    3.40
   2  23  10    3.10    1.50
  -2  24  11   -0.10    1.20
  -2  24  10   13.10    2.40
  -2  24   9   21.90    2.90
  -2  24   8   56.39    4.80
  -2  24   7   52.79    4.80
   2  24  -4    3.50    1.40
  -2  24   4    1.20    1.50
  -2  24   3   18.80    2.90
   2  24   2  130.79    7.80
   2  24   3   61.19    5.20
   2  24   4   47.60    4.60
   2  24   4   38.70    4.00
   2  24   5   12.70    2.60
   2  24   5   17.70    3.00
   2  24   6   12.60    2.80
   2  24   7    0.30    1.80
   2  24   8    8.90    2.10
   2  24   9   -1.10    1.60
   2  24  10    6.90    1.70
  -2  25  11    3.30    1.20
  -2  25  10    9.20    2.00
  -2  25   9    5.80    2.00
  -2  25   8   54.59    4.80
  -2  25   7   10.80    2.30
  -2  25   4   61.79    5.30
   2  25  -4   66.39    5.30
  -2  25   3   40.30    4.30
   2  25  -3   44.50    4.30
  -2  25   2  178.58    9.30
   2  25  -2  162.78    9.00
   2  25  -1    2.90    1.20
   2  25   0   16.50    2.80
   2  25   1   37.40    4.00
   2  25   2   -0.40    1.20
   2  25   3   19.50    3.00
   2  25   4   10.90    2.30
   2  25   4   13.50    2.50
   2  25   5    6.80    2.10
   2  25   5   12.90    2.60
   2  25   6   24.30    3.40
   2  25   7   10.40    2.60
   2  25   8    6.20    1.90
   2  25   9    3.00    1.90
   2  25  10    3.60    1.30
  -2  26  10    6.30    1.60
  -2  26   9    2.00    1.40
  -2  26   8    2.40    1.50
  -2  26   7   19.40    2.70
   2  26  -4   18.00    2.70
  -2  26   4   13.60    2.80
  -2  26   3   59.89    5.30
   2  26  -3   61.49    5.10
  -2  26   2   99.89    6.70
   2  26  -2   96.49    6.70
  -2  26   1    1.30    1.20
   2  26  -1   -0.90    1.50
   2  26   0    0.20    1.20
   2  26   1   54.19    4.90
   2  26   2  132.19    8.10
   2  26   3   75.89    6.00
   2  26   4   53.99    4.90
   2  26   5   45.30    4.40
   2  26   5   38.30    4.10
   2  26   6    2.10    1.50
   2  26   6   -1.40    1.60
   2  26   7    4.00    1.80
   2  26   8   24.50    3.20
   2  26   9    1.60    1.40
  -2  27  10    2.30    1.10
  -2  27   9   30.90    3.10
  -2  27   8   27.90    3.20
   2  27  -4   53.69    4.80
  -2  27   3   99.39    7.00
   2  27  -3  101.99    6.90
  -2  27   2   16.20    2.80
   2  27  -2   15.20    2.90
  -2  27   1   94.49    6.40
   2  27  -1   93.29    6.50
   2  27   0   94.29    6.80
   2  27   1   87.19    6.40
   2  27   2   17.80    3.20
   2  27   3    5.80    1.90
   2  27   4   47.70    4.90
   2  27   5   23.70    3.20
   2  27   5   15.70    2.90
   2  27   6   13.70    2.60
   2  27   7   36.20    3.80
   2  27   8    1.60    1.50
   2  27   9   10.90    1.80
  -2  28   9   13.10    2.00
  -2  28   8   22.70    2.60
   2  28  -4    8.50    2.10
  -2  28   3  105.99    7.20
   2  28  -3   99.39    6.80
   2  28  -2    8.30    2.20
  -2  28   2   11.10    2.40
   2  28  -1   19.90    3.10
  -2  28   1   23.00    3.10
   2  28   0   22.10    3.40
   2  28   1   61.29    5.40
   2  28   2   89.19    6.50
   2  28   3   35.10    4.20
   2  28   4   17.40    2.90
   2  28   5    1.90    1.50
   2  28   6    8.20    2.00
   2  28   7   13.30    2.50
   2  28   8    9.60    1.80
   2  28   9   19.60    2.10
  -2  29   9   12.00    1.70
   2  29  -4   16.10    2.70
  -2  29   3   32.10    3.90
   2  29  -3   35.50    3.90
   2  29  -2    4.20    2.00
  -2  29   2    0.00    1.50
   2  29  -1   25.20    3.30
  -2  29   1   28.80    3.50
   2  29   0  118.19    7.70
   2  29   1   93.09    6.80
   2  29   2   13.20    3.10
   2  29   3   29.30    3.90
   2  29   4    5.00    2.00
   2  29   5    3.60    1.60
   2  29   6   26.90    3.10
   2  29   7   11.70    2.00
   2  29   8   20.60    2.30
   2  30  -4   -0.20    1.40
   2  30  -3    7.20    2.30
  -2  30   2   11.30    2.40
   2  30  -2    8.80    2.10
   2  30  -1   -1.10    2.20
  -2  30   1    8.10    2.30
   2  30   0    7.90    2.50
   2  30   1    6.00    2.30
   2  30   2   19.40    3.30
   2  30   3    3.20    1.90
   2  30   4   10.30    2.10
   2  30   5   16.20    2.70
   2  30   7    0.60    1.00
   2  30   8   12.10    1.70
   2  31  -4   44.60    4.10
   2  31  -3   23.90    3.20
   2  31  -2    4.10    2.20
  -2  31   2    5.60    2.20
  -2  31   1   49.90    4.60
   2  31  -1   45.50    4.60
   2  31   0   17.10    3.10
   2  31   1    1.80    1.80
   2  31   2    4.10    2.10
   2  31   3   22.20    3.50
   2  31   4    1.50    1.80
   2  31   5   16.70    2.80
   2  32  -3   14.00    2.50
   2  32  -2    2.60    2.00
   2  32  -1   10.40    2.40
  -2  32   1   14.00    2.60
   2  32   0   18.00    3.00
   2  32   1    7.80    2.30
   2  32   2    6.50    2.30
   2  32   3   12.20    2.50
   2  32   4    4.00    1.90
   2  33  -3    6.40    1.80
   2  33  -2   11.40    2.40
   2  33  -1    8.20    2.20
   2  33   0   37.40    4.20
   2  33   1   12.30    2.80
   2  33   2    9.90    2.80
   2  33   3   -0.60    1.70
   2  33   4   18.30    2.80
   2  34  -3   19.20    2.70
   2  34  -2    3.90    1.60
   2  34  -1   28.60    3.60
   2  34   0   17.00    3.00
   2  34   1    6.90    2.60
   2  34   2   13.80    2.60
   2  34   3   11.60    2.70
   2  34   4   12.00    2.30
   2  35  -3    0.60    1.20
   2  35  -2   10.80    2.00
   2  35  -1    4.40    1.90
   2  35   0   -0.10    1.70
   2  35   1    6.20    2.30
   2  35   2    8.60    2.40
   2  35   3    3.40    1.80
   2  36  -3   15.50    2.00
   2  36  -2    1.60    1.30
   2  36  -1    5.90    1.80
   2  36   0   19.50    2.80
   2  36   1    3.10    1.70
   2  36   2   20.20    2.80
   2  36   3   10.90    2.10
   2  37  -2   17.00    2.30
   2  37  -1    6.90    1.60
   2  37   0   10.50    2.00
   2  37   1   18.10    2.60
   2  37   2    5.90    1.50
   2  38  -2   -1.80    0.90
   2  38  -1    0.50    1.00
   2  38   0    5.20    1.50
   2  38   1    5.10    1.60
   2  38   2   14.40    2.00
   2  39   0    4.30    1.20
   2  39   1    2.20    1.10
   3 -38   1   -1.90    1.10
   3 -37  -1    3.00    1.20
   3 -37   0   18.90    2.30
   3 -37   1    0.70    1.10
   3 -37   2   12.50    1.90
   3 -37   3   18.50    2.10
  -3 -36   5   15.70    1.90
  -3 -36   4   22.40    2.30
   3 -36  -1    2.60    1.30
   3 -36   0    5.80    1.80
   3 -36   1   33.90    3.40
   3 -36   2   10.20    2.10
   3 -36   3    1.40    1.30
   3 -36   4    2.80    1.10
  -3 -35   6    2.00    1.10
  -3 -35   5    5.10    1.40
  -3 -35   4   12.50    1.90
   3 -35  -1    3.40    1.50
   3 -35   0    1.10    1.40
   3 -35   1   12.50    2.40
   3 -35   2    0.30    1.60
   3 -35   3    8.10    1.90
   3 -35   4    1.90    1.40
  -3 -34   7   -3.90    1.30
  -3 -34   6    0.50    1.20
  -3 -34   5   23.90    2.80
  -3 -34   4   29.20    3.10
  -3 -34   3    7.70    1.80
   3 -34  -1    0.60    1.50
   3 -34   0   61.39    4.90
   3 -34   1   32.90    3.60
   3 -34   1   28.00    3.40
   3 -34   2   20.60    3.00
   3 -34   2   24.20    3.30
   3 -34   3   11.90    2.50
   3 -34   3   11.10    2.60
   3 -34   4   11.60    2.30
   3 -34   4   14.80    2.40
   3 -34   5    0.70    1.10
  -3 -33   7    0.00    1.20
  -3 -33   6    4.80    1.90
  -3 -33   5   14.80    2.60
  -3 -33   4    1.60    1.40
  -3 -33   3   10.80    2.20
   3 -33  -1    3.20    1.90
   3 -33   0   17.90    3.00
   3 -33   1    9.60    2.60
   3 -33   1    8.90    2.50
   3 -33   2   30.90    3.90
   3 -33   2   20.90    3.50
   3 -33   3    0.40    1.90
   3 -33   3    3.60    2.30
   3 -33   4    3.60    1.80
   3 -33   4    5.90    2.20
   3 -33   5    1.40    1.20
   3 -33   5    1.70    1.20
  -3 -32   8    7.30    1.50
  -3 -32   7    1.30    1.60
  -3 -32   6    0.80    1.50
  -3 -32   5    3.00    1.90
  -3 -32   4    0.70    1.50
  -3 -32   3   98.99    6.30
   3 -32  -1    3.20    1.90
   3 -32   0    3.80    2.30
   3 -32   0    3.80    2.00
   3 -32   1   14.00    2.80
   3 -32   1   10.50    2.60
   3 -32   2   24.40    3.60
   3 -32   2   25.20    4.00
   3 -32   3   12.80    2.70
   3 -32   3   14.70    2.90
   3 -32   4   28.00    3.40
   3 -32   4   22.50    3.10
   3 -32   5    6.10    1.80
   3 -32   5    8.10    1.90
   3 -32   6   13.50    1.90
   3 -32   6   11.00    1.60
  -3 -31   8    3.30    1.60
  -3 -31   7   13.80    2.60
  -3 -31   6    5.20    1.90
  -3 -31   5   17.50    2.90
  -3 -31   4   16.80    2.90
  -3 -31   3    2.50    1.80
   3 -31  -2   11.00    2.40
   3 -31  -1    2.40    1.80
   3 -31  -1    0.90    1.50
   3 -31   0    4.00    2.40
   3 -31   0    3.90    2.10
   3 -31   1   13.80    2.90
   3 -31   1   12.40    3.30
   3 -31   2   28.60    3.90
   3 -31   2   27.70    3.90
   3 -31   3    9.90    2.40
   3 -31   3   12.80    3.00
   3 -31   4    4.90    1.90
   3 -31   4    6.20    2.20
   3 -31   5    1.20    1.50
   3 -31   5    2.10    1.70
   3 -31   6   28.00    2.80
   3 -31   6   28.30    2.70
  -3 -30   9   10.20    1.70
  -3 -30   8   -1.60    1.70
  -3 -30   7    5.40    2.30
  -3 -30   6   23.20    3.50
  -3 -30   5    8.30    2.40
  -3 -30   4   33.50    4.00
  -3 -30   3   13.40    2.70
   3 -30  -2   30.10    3.60
   3 -30  -1    4.20    2.00
   3 -30  -1    5.60    2.10
   3 -30   0   44.00    4.70
   3 -30   1   10.30    2.80
   3 -30   2   34.50    4.40
   3 -30   3   49.50    5.00
   3 -30   3   45.00    4.90
   3 -30   4   37.60    4.20
   3 -30   4   37.10    4.30
   3 -30   5   84.49    5.90
   3 -30   5   86.59    5.80
   3 -30   6   24.50    2.80
   3 -30   6   21.70    2.60
  -3 -29   9   10.40    2.00
  -3 -29   8    8.50    2.00
  -3 -29   7   58.29    5.00
  -3 -29   6   38.70    4.30
  -3 -29   5   29.80    3.70
  -3 -29   4    1.30    1.60
  -3 -29   3   29.30    3.60
  -3 -29   2  145.89    8.10
   3 -29  -2  135.99    8.00
   3 -29  -1   61.49    5.60
   3 -29  -1   75.89    5.90
   3 -29   0   18.60    3.20
   3 -29   1    5.60    2.50
   3 -29   2    2.70    1.90
   3 -29   3   92.69    6.80
   3 -29   4   14.70    3.00
   3 -29   4   12.80    2.90
   3 -29   5    5.00    1.80
   3 -29   5    9.90    2.40
   3 -29   6   -1.40    1.50
   3 -29   6    2.90    1.60
  -3 -28   9    1.80    1.50
  -3 -28   8    7.20    2.40
  -3 -28   7   -0.50    2.10
  -3 -28   6   35.40    4.30
  -3 -28   5    3.00    1.90
  -3 -28   4   18.00    3.10
  -3 -28   3    0.90    1.40
  -3 -28   2   30.10    3.60
   3 -28  -2   28.60    3.60
   3 -28  -2   33.50    3.90
   3 -28  -1    1.80    1.80
   3 -28   0    1.40    1.80
   3 -28   1   27.10    3.70
   3 -28   2   35.20    4.10
   3 -28   3   37.10    4.30
   3 -28   4   14.10    2.90
   3 -28   4   19.00    3.30
   3 -28   5   27.30    3.60
   3 -28   5   25.40    3.30
   3 -28   6    2.50    1.70
   3 -28   6    0.50    1.30
  -3 -27  10    0.40    0.90
  -3 -27   9    9.00    1.90
  -3 -27   8    6.70    2.30
  -3 -27   7    4.80    2.20
  -3 -27   6   12.40    2.90
  -3 -27   5   28.60    3.70
  -3 -27   4    1.50    1.50
  -3 -27   3   10.50    2.40
   3 -27  -2    4.70    1.80
  -3 -27   2    5.40    1.90
   3 -27  -2    9.20    2.20
   3 -27  -1   68.69    5.50
   3 -27  -1   62.09    5.10
   3 -27   0   25.00    3.20
   3 -27   0   28.10    3.70
   3 -27   1   10.90    2.40
   3 -27   1   11.10    2.70
   3 -27   2   60.89    5.60
   3 -27   3   44.00    4.60
   3 -27   4   33.90    4.10
   3 -27   5   20.00    3.00
   3 -27   5   20.20    3.00
   3 -27   6   21.20    3.00
   3 -27   6   26.70    3.10
  -3 -26  10   13.20    2.00
  -3 -26   9    2.80    1.70
  -3 -26   8   89.49    6.20
  -3 -26   7   35.20    4.30
  -3 -26   6    2.30    2.20
  -3 -26   5    3.00    2.30
  -3 -26   4    6.60    2.10
  -3 -26   4    5.50    2.20
  -3 -26   3    6.90    1.80
  -3 -26   3    5.00    1.60
   3 -26  -2    1.30    1.70
  -3 -26   2   -2.20    1.60
  -3 -26   2    2.00    1.40
   3 -26  -1   49.90    4.80
   3 -26  -1   47.80    4.40
   3 -26   0   45.10    4.60
   3 -26   0   38.00    4.10
   3 -26   1   14.70    2.70
   3 -26   1   15.30    2.80
   3 -26   2   25.40    3.90
   3 -26   2   26.00    3.50
   3 -26   3   -2.00    2.40
   3 -26   4  116.39    7.60
   3 -26   5   31.80    3.90
   3 -26   5   26.50    3.50
   3 -26   6    5.20    1.60
   3 -26   6   11.30    2.20
  -3 -25  10    0.20    1.30
  -3 -25   9    7.20    2.40
  -3 -25   8   24.30    3.70
  -3 -25   7   26.20    3.90
  -3 -25   6   16.80    3.00
  -3 -25   5   51.79    5.10
  -3 -25   4    4.50    1.90
  -3 -25   4    5.50    1.90
  -3 -25   3    2.30    1.50
  -3 -25   3    1.30    1.60
   3 -25  -2  117.89    7.40
  -3 -25   2  121.79    7.50
  -3 -25   2  122.59    7.40
   3 -25  -1   35.80    4.00
   3 -25  -1   47.60    4.30
   3 -25   0  119.29    7.60
   3 -25   0  124.29    7.50
   3 -25   1    6.50    2.20
   3 -25   1    4.00    2.00
   3 -25   2    8.70    2.50
   3 -25   2    9.00    2.30
   3 -25   3   83.49    6.30
   3 -25   3   96.19    6.60
   3 -25   4   13.60    3.00
   3 -25   5   26.20    3.50
   3 -25   5   25.10    3.40
   3 -25   6   51.89    4.60
  -3 -24  10   11.80    2.00
  -3 -24   9   17.00    3.00
  -3 -24   8    4.40    2.30
  -3 -24   7   44.30    4.70
  -3 -24   6   24.00    3.60
  -3 -24   5   32.10    4.10
  -3 -24   5   30.30    4.10
  -3 -24   4   15.80    2.90
  -3 -24   4   16.30    3.20
  -3 -24   3   25.00    3.30
  -3 -24   3   22.30    3.30
  -3 -24   2   57.59    4.80
   3 -24  -2   59.59    5.10
  -3 -24   2   58.79    4.90
   3 -24  -1   47.70    4.40
   3 -24  -1   42.00    4.00
   3 -24   0   34.10    3.90
   3 -24   0   27.70    3.50
   3 -24   1   31.70    3.70
   3 -24   1   28.10    3.50
   3 -24   2   19.50    3.00
   3 -24   2   17.20    2.90
   3 -24   3   14.20    2.70
   3 -24   3   17.00    2.80
   3 -24   4   17.00    3.00
   3 -24   4   17.30    2.70
   3 -24   5    3.60    1.90
   3 -24   5    3.30    1.70
   3 -24   6   21.00    3.00
  -3 -23  10    9.70    2.20
  -3 -23   9  147.19    8.30
  -3 -23   8   35.20    4.30
  -3 -23   7   31.70    4.30
  -3 -23   6   10.50    2.60
  -3 -23   6    9.00    2.40
  -3 -23   5   -0.50    1.60
  -3 -23   5    4.10    2.10
  -3 -23   4    4.40    1.90
  -3 -23   4    7.40    2.50
  -3 -23   3   29.20    3.50
  -3 -23   3   34.00    3.80
  -3 -23   2   13.00    2.50
   3 -23  -1  100.69    6.40
   3 -23   0   41.30    4.10
   3 -23   1   38.30    4.10
   3 -23   2    7.10    2.10
   3 -23   2    7.10    2.20
   3 -23   3   21.20    3.20
   3 -23   3   18.00    2.80
   3 -23   4    1.10    1.50
   3 -23   4    2.60    1.80
   3 -23   5   10.10    2.40
  -3 -22  10   30.80    3.30
  -3 -22   9    1.40    2.20
  -3 -22   8   44.90    4.70
  -3 -22   7   10.70    2.70
  -3 -22   6   86.29    6.50
  -3 -22   5   23.60    3.60
  -3 -22   4   15.40    3.00
  -3 -22   3  143.79    8.20
   3 -22  -2   69.59    5.00
  -3 -22   2   76.49    5.50
   3 -22  -1   47.80    4.30
  -3 -22   1   61.09    4.60
   3 -22   0  188.28    9.30
   3 -22   1   61.69    5.10
   3 -22   2   67.79    5.40
   3 -22   3   35.70    4.00
   3 -22   3   42.80    4.20
   3 -22   4    1.50    1.70
   3 -22   4    3.70    2.20
   3 -22   5    7.90    2.00
   3 -22   5   14.50    2.70
  -3 -21  11    8.60    1.70
  -3 -21  10   38.30    3.70
  -3 -21  10   33.10    3.40
  -3 -21   9    2.00    1.80
  -3 -21   8    6.80    2.60
  -3 -21   7   44.80    4.70
  -3 -21   6    4.50    1.90
  -3 -21   5   48.30    4.90
  -3 -21   4    5.20    1.90
  -3 -21   3   68.49    5.30
  -3 -21   2    0.50    1.40
   3 -21  -2    2.80    1.30
  -3 -21   1   10.40    2.30
   3 -21  -1    9.20    2.00
   3 -21   0    3.50    2.00
   3 -21   1   94.39    6.20
   3 -21   2   83.69    5.90
   3 -21   3   18.00    3.00
   3 -21   4   22.80    3.20
   3 -21   4   21.90    3.30
   3 -21   5    0.30    1.40
   3 -21   5    6.90    2.00
  -3 -20  11    2.40    1.20
  -3 -20  10   10.30    2.20
  -3 -20  10   13.40    2.50
  -3 -20   9    5.70    2.00
  -3 -20   9    8.80    2.10
  -3 -20   8   57.99    5.40
  -3 -20   7    1.40    1.40
  -3 -20   6   12.50    2.70
  -3 -20   5   46.70    4.60
  -3 -20   4    3.80    2.30
  -3 -20   3   51.99    4.60
  -3 -20   2   38.70    3.80
   3 -20  -2   36.80    3.40
  -3 -20   1   14.70    2.40
   3 -20  -1   13.90    2.50
   3 -20   0    9.00    2.20
   3 -20   1   26.00    3.10
   3 -20   2  107.89    6.80
   3 -20   3   18.80    2.90
   3 -20   4    1.10    1.40
   3 -20   4    1.90    1.50
   3 -20   5    3.20    1.50
   3 -20   6   11.60    2.40
  -3 -19  11   39.50    3.80
  -3 -19  10   57.09    4.80
  -3 -19  10   52.59    4.70
  -3 -19   9  130.49    8.20
  -3 -19   9  140.29    8.20
  -3 -19   7    2.30    1.70
  -3 -19   6    4.40    2.00
  -3 -19   5   35.90    4.20
  -3 -19   4  112.89    6.90
  -3 -19   3    8.00    2.30
  -3 -19   2   26.20    3.20
   3 -19  -2   22.80    2.50
  -3 -19   1   15.30    2.30
   3 -19  -1   14.90    2.30
   3 -19   0   37.30    3.70
   3 -19   1  112.69    6.60
   3 -19   2   81.19    5.70
   3 -19   3    7.00    2.20
   3 -19   4    1.40    1.50
   3 -19   5    4.80    1.90
   3 -19   6    8.80    2.30
  -3 -18  12   20.90    2.50
  -3 -18  11   27.00    3.50
  -3 -18  10   64.59    5.10
  -3 -18  10   67.69    5.60
  -3 -18   9   49.30    5.00
  -3 -18   8   17.80    3.20
  -3 -18   8   15.50    2.80
  -3 -18   7    5.30    2.00
  -3 -18   6   36.10    4.20
  -3 -18   5  274.27   12.10
  -3 -18   4  211.18   10.00
  -3 -18   3  204.58    9.50
  -3 -18   2  136.19    7.10
   3 -18  -2  127.79    6.50
  -3 -18   1   32.20    3.10
   3 -18  -1   25.10    2.80
   3 -18   0  206.18    9.20
   3 -18   1   48.90    4.20
   3 -18   2  105.09    6.40
   3 -18   3   53.99    4.50
   3 -18   4   21.10    2.90
   3 -18   5   12.90    2.60
   3 -18   6   42.90    4.20
  -3 -17  12   19.20    2.70
  -3 -17  11    9.30    2.30
  -3 -17  10   -0.70    1.70
  -3 -17  10    4.30    2.00
  -3 -17   9    8.30    2.60
  -3 -17   8    9.10    2.00
  -3 -17   8   14.00    2.80
  -3 -17   7  101.49    7.00
  -3 -17   7   96.49    6.70
  -3 -17   6   38.00    4.10
  -3 -17   5   53.39    4.70
  -3 -17   4  111.09    6.60
  -3 -17   3   74.89    5.20
  -3 -17   2  284.07   11.40
   3 -17  -2  291.67   10.90
  -3 -17   1  225.38    9.30
   3 -17  -1  214.08    9.10
   3 -17   0  247.68   10.20
   3 -17   1   14.90    2.70
   3 -17   2  154.28    7.90
   3 -17   3  119.59    6.90
   3 -17   4   60.69    4.80
   3 -17   5    4.70    1.80
   3 -17   6    7.90    2.10
  -3 -16  12   14.20    2.50
  -3 -16  11   46.80    4.40
  -3 -16  10   40.30    4.10
  -3 -16  10   33.90    4.10
  -3 -16   9    8.70    2.30
  -3 -16   8    7.90    2.30
  -3 -16   8   10.30    2.40
  -3 -16   7   67.99    5.40
  -3 -16   6   68.69    5.40
  -3 -16   5   44.20    4.20
  -3 -16   4  109.59    6.50
  -3 -16   3   15.50    2.50
   3 -16  -2   27.10    2.60
  -3 -16   2   23.90    2.80
  -3 -16   1  285.37   10.60
   3 -16  -1  264.07   10.50
  -3 -16   0   32.80    2.80
   3 -16   0   30.90    3.20
   3 -16   1   40.30    3.70
   3 -16   2   44.30    4.10
   3 -16   3   36.70    3.70
   3 -16   4  111.59    6.70
   3 -16   5   93.89    6.10
   3 -16   6    4.40    1.60
   3 -16   7   13.40    2.50
  -3 -15  12   23.50    3.10
  -3 -15  11    2.10    2.20
  -3 -15  10   33.30    4.10
  -3 -15   9   19.90    3.40
  -3 -15   8   27.20    3.60
  -3 -15   8   30.40    3.90
  -3 -15   7   22.20    3.40
  -3 -15   6   54.29    4.70
  -3 -15   5  160.38    8.20
  -3 -15   4   -0.70    2.00
  -3 -15   3   41.10    3.80
  -3 -15   2  109.89    5.70
   3 -15  -2  102.29    5.20
  -3 -15   1   60.09    3.90
   3 -15  -1   51.29    3.80
  -3 -15   0  458.95   14.90
   3 -15   0  457.65   15.50
   3 -15   1  182.68    8.30
   3 -15   2   48.40    4.10
   3 -15   3   35.80    3.60
   3 -15   4   45.20    4.10
   3 -15   5   13.50    2.60
   3 -15   5   12.10    2.30
   3 -15   6    6.00    1.80
   3 -15   6    6.20    2.00
   3 -15   7   29.80    3.60
  -3 -14  12    2.60    1.80
  -3 -14  11   26.70    3.70
  -3 -14  10   16.60    3.30
  -3 -14   9    5.80    1.80
  -3 -14   9    3.70    1.50
  -3 -14   9    6.70    2.30
  -3 -14   8   89.89    6.30
  -3 -14   8   82.89    6.50
  -3 -14   7    8.90    2.00
  -3 -14   6   98.99    6.30
  -3 -14   5   42.10    4.00
  -3 -14   4   38.00    3.70
  -3 -14   3   83.59    5.00
  -3 -14   2   33.50    3.10
   3 -14  -2   33.10    2.70
  -3 -14   1  691.73   20.90
   3 -14  -1  660.33   20.80
  -3 -14   0   72.59    3.90
   3 -14   0   60.59    4.20
   3 -14   1   18.90    2.60
   3 -14   2   69.59    4.80
   3 -14   3   84.49    5.40
   3 -14   4  225.38   10.00
   3 -14   4  232.18    9.60
   3 -14   5  189.48    9.10
   3 -14   5  187.38    9.00
   3 -14   6   22.40    3.10
   3 -14   6   16.60    2.70
   3 -14   7   42.20    4.20
  -3 -13  13    0.50    1.30
  -3 -13  12   17.60    2.90
  -3 -13  11    9.00    2.90
  -3 -13  10    4.40    2.20
  -3 -13   9   37.00    4.00
  -3 -13   9   43.60    4.30
  -3 -13   9   46.50    4.80
  -3 -13   8   31.50    3.70
  -3 -13   8   34.80    4.10
  -3 -13   7   85.19    5.90
  -3 -13   6   66.29    4.90
  -3 -13   5    4.90    2.20
  -3 -13   4   36.10    3.70
  -3 -13   3  106.29    5.60
  -3 -13   2  412.86   14.00
   3 -13  -2  421.56   13.60
  -3 -13   1  164.98    6.80
   3 -13  -1  157.08    6.80
  -3 -13   0   27.50    2.30
   3 -13   0   24.40    2.50
   3 -13   1    9.10    2.10
   3 -13   2  162.48    7.50
   3 -13   3  302.87   11.50
   3 -13   3  289.57   10.70
   3 -13   4   67.09    4.80
   3 -13   4   73.39    4.70
   3 -13   5   27.80    3.20
   3 -13   5   25.10    3.10
   3 -13   6   19.40    2.70
   3 -13   6   18.80    2.90
   3 -13   7   -1.00    1.50
  -3 -12  13   -3.00    1.60
  -3 -12  12   34.10    4.00
  -3 -12  11   41.80    4.90
  -3 -12  10   24.40    3.60
  -3 -12   9    4.80    2.00
  -3 -12   9    2.00    1.50
  -3 -12   9    1.20    1.80
  -3 -12   8   27.50    3.40
  -3 -12   8   26.90    3.60
  -3 -12   7  122.09    7.20
  -3 -12   6  131.69    7.20
  -3 -12   5  100.09    6.00
  -3 -12   4    1.50    1.80
  -3 -12   3   45.40    3.60
  -3 -12   2    7.00    1.50
   3 -12  -2   11.10    1.50
  -3 -12   1   22.50    2.30
   3 -12  -1   18.70    2.20
  -3 -12   0    9.50    1.40
   3 -12   0   10.90    1.90
   3 -12   1   74.89    4.50
   3 -12   2  139.49    6.70
   3 -12   3   75.69    4.80
   3 -12   3   74.59    4.40
   3 -12   4  149.19    7.40
   3 -12   4  151.08    7.20
   3 -12   5  104.89    6.10
   3 -12   5   93.69    6.00
   3 -12   6   10.80    2.00
   3 -12   6    9.00    2.40
   3 -12   7   21.50    3.20
   3 -12   7   16.80    2.90
   3 -12   8   30.80    4.00
   3 -12   8   33.80    3.70
  -3 -11  13   11.80    2.20
  -3 -11  12   17.60    3.00
  -3 -11  11   39.90    4.80
  -3 -11  10   38.40    4.70
  -3 -11   9   61.59    5.50
  -3 -11   9   43.70    4.20
  -3 -11   8  135.79    7.80
  -3 -11   7  123.99    7.10
  -3 -11   7  135.09    7.30
  -3 -11   6   46.30    3.80
  -3 -11   6   41.70    4.00
  -3 -11   5    6.50    1.60
  -3 -11   5    5.70    2.00
  -3 -11   4   45.40    3.70
  -3 -11   3  189.48    7.80
   3 -11  -2  315.97   10.60
  -3 -11   2  317.27   11.00
   3 -11  -1  171.48    9.50
   3 -11  -1  175.48    7.00
  -3 -11   1  180.98    7.00
  -3 -11   0  166.38    6.30
  -3 -11   0  161.28    6.30
   3 -11   0  170.78    6.90
   3 -11   0  148.69    9.40
   3 -11   1   77.89    4.50
   3 -11   2   18.00    2.40
   3 -11   2   15.30    1.70
   3 -11   3   39.40    3.40
   3 -11   3   40.10    3.10
   3 -11   4  179.48    7.90
   3 -11   4  149.39    7.40
   3 -11   5    7.20    1.90
   3 -11   5    3.20    1.40
   3 -11   6   17.70    2.70
   3 -11   7   17.70    3.00
   3 -11   7   24.40    3.20
   3 -11   8   -0.40    1.40
   3 -11   8   -0.30    1.50
   3 -11   9   -1.70    1.90
  -3 -10  13   -0.70    1.50
  -3 -10  12   10.40    2.60
  -3 -10  11   17.50    3.50
  -3 -10  10   18.30    3.40
  -3 -10   9    7.10    2.00
  -3 -10   9   10.50    2.80
  -3 -10   8   29.00    3.40
  -3 -10   7    2.60    1.90
  -3 -10   7    1.80    1.20
  -3 -10   6   76.79    5.10
  -3 -10   6   81.69    5.20
  -3 -10   5   63.49    4.50
  -3 -10   5   71.09    4.40
  -3 -10   4  324.57   11.70
  -3 -10   3  789.02   23.60
  -3 -10   2   19.50    2.20
  -3 -10   2   14.50    1.80
   3 -10  -2   17.10    1.70
  -3 -10   1   22.20    2.10
  -3 -10   1   26.50    2.10
   3 -10  -1   21.40    2.00
   3 -10  -1   20.40    2.80
   3 -10   0   29.60    2.60
  -3 -10   0   32.40    2.20
  -3 -10   0   28.60    2.30
   3 -10   0   30.10    3.90
   3 -10   1  192.08    7.80
   3 -10   1  178.88    6.80
   3 -10   2  284.37   10.40
   3 -10   2  280.77    9.80
   3 -10   3   46.00    3.50
   3 -10   3   40.70    3.20
   3 -10   4  274.47   10.60
   3 -10   4  258.77   10.40
   3 -10   5  157.38    7.40
   3 -10   5  140.19    7.50
   3 -10   6  137.59    7.70
   3 -10   7    7.30    1.90
   3 -10   7   10.10    2.50
   3 -10   8   18.70    3.20
   3 -10   8   16.20    2.80
   3 -10   9   15.10    3.10
  -3  -9  13    4.30    2.10
  -3  -9  12   15.10    3.20
  -3  -9  11    5.60    2.60
  -3  -9  10   10.20    2.80
  -3  -9   9   10.10    2.40
  -3  -9   9   10.90    2.70
  -3  -9   8   62.99    4.90
  -3  -9   8   59.69    5.10
  -3  -9   7   24.20    3.10
  -3  -9   7   24.30    3.10
  -3  -9   6   62.09    4.50
  -3  -9   6   63.49    4.60
  -3  -9   5   54.99    4.10
  -3  -9   5   60.09    4.10
  -3  -9   4  232.58    9.00
  -3  -9   3  201.68    7.70
  -3  -9   3  180.38    7.50
   3  -9  -2  262.17    8.80
  -3  -9   2  264.97    9.30
  -3  -9   2  254.37    9.20
  -3  -9   1   79.19    3.90
   3  -9  -1   86.09    4.10
  -3  -9   1   81.19    4.00
   3  -9  -1   84.59    5.60
  -3  -9   0   19.90    1.70
   3  -9   0   21.70    2.20
  -3  -9   0   24.50    2.00
   3  -9   0   17.80    2.80
  -3  -9  -1  128.79    5.00
   3  -9   1  133.79    5.90
   3  -9   1  123.79    5.10
   3  -9   2  423.36   13.80
   3  -9   2  407.76   13.30
   3  -9   3   69.09    4.30
   3  -9   3   64.89    4.00
   3  -9   4   57.49    4.00
   3  -9   4   48.50    3.80
   3  -9   5   32.60    3.20
   3  -9   5   30.80    3.30
   3  -9   6   82.59    5.50
   3  -9   7   89.09    6.30
   3  -9   7   94.69    6.50
   3  -9   8   42.80    4.50
   3  -9   8   42.50    4.40
   3  -9   9   19.40    3.30
   3  -9   9   19.00    5.20
   3  -9  10    6.00    2.50
  -3  -8  13    1.10    1.60
  -3  -8  12   -0.20    2.20
  -3  -8  11   42.60    4.70
  -3  -8  10   21.70    3.60
  -3  -8  10   23.60    3.20
  -3  -8   9   13.60    2.80
  -3  -8   9   12.40    2.40
  -3  -8   8   72.09    5.10
  -3  -8   8   66.19    5.40
  -3  -8   7   30.50    3.40
  -3  -8   7   26.50    3.30
  -3  -8   6   24.60    2.80
  -3  -8   6   24.90    3.10
  -3  -8   5   81.89    4.90
  -3  -8   4  154.08    6.80
  -3  -8   3  381.86   12.90
  -3  -8   3  412.26   13.10
  -3  -8   2   65.29    3.70
  -3  -8   2   73.29    3.90
   3  -8  -2   74.79    3.50
  -3  -8   1    6.00    1.30
  -3  -8   1    5.80    1.20
   3  -8  -1    7.70    1.40
   3  -8  -1    8.80    1.70
  -3  -8   0   50.69    2.80
   3  -8   0   55.79    3.20
  -3  -8   0   49.00    2.70
   3  -8   0   48.90    4.60
  -3  -8  -1   77.69    3.50
   3  -8   1   80.99    4.20
  -3  -8  -1   73.19    3.90
   3  -8   1   70.69    3.50
   3  -8   2  105.79    5.20
  -3  -8  -2  107.39    4.70
   3  -8   2  100.79    4.70
   3  -8   3  102.49    5.40
  -3  -8  -3  115.69    4.90
   3  -8   3  101.79    5.30
   3  -8   4  126.89    6.20
   3  -8   4  119.89    6.20
   3  -8   5   52.79    3.90
   3  -8   5   51.29    4.10
   3  -8   6   75.79    5.50
   3  -8   7   74.09    5.70
   3  -8   8    6.10    2.20
   3  -8   8    5.30    2.00
   3  -8   8    5.80    2.10
   3  -8   9   15.70    3.50
   3  -8   9   20.70    4.60
   3  -8  10    4.50    2.20
   3  -8  10    6.50    5.40
  -3  -7  13   16.20    2.60
  -3  -7  12   -1.00    2.60
  -3  -7  11   27.60    4.00
  -3  -7  10   22.00    3.70
  -3  -7  10   23.80    3.20
  -3  -7   9   79.99    6.50
  -3  -7   9   89.79    6.20
  -3  -7   8   97.59    6.80
  -3  -7   8  105.59    6.30
  -3  -7   7   14.10    2.40
  -3  -7   7   11.10    2.40
  -3  -7   6  140.49    7.20
  -3  -7   6  141.19    6.90
  -3  -7   5   76.49    4.60
  -3  -7   4  476.95   15.40
  -3  -7   4  471.35   15.20
   3  -7  -3  296.67    9.20
  -3  -7   3  283.77   10.10
  -3  -7   3  284.77   10.20
  -3  -7   3  316.87   12.70
  -3  -7   2  166.18    6.40
  -3  -7   2  157.18    6.20
   3  -7  -2  153.28    5.90
   3  -7  -2  163.58    9.90
   3  -7  -2  171.38    6.90
   3  -7  -1   32.60    2.30
  -3  -7   1   35.70    2.40
  -3  -7   1   39.90    2.40
   3  -7  -1   35.00    3.20
  -3  -7   0    9.00    1.10
  -3  -7   0   10.60    1.30
   3  -7   0    8.90    1.60
  -3  -7   0    6.40    1.40
   3  -7   1  163.38    6.70
   3  -7   1  169.78    6.20
  -3  -7  -1  173.38    6.50
   3  -7   2  933.31   26.90
   3  -7   2  916.21   26.50
  -3  -7  -2  919.71   26.30
   3  -7   3  420.56   13.90
  -3  -7  -3  427.36   13.20
   3  -7   3  401.46   13.90
   3  -7   4   52.99    3.60
   3  -7   4   44.20    3.60
   3  -7   5  221.18    9.10
   3  -7   5  228.18    9.80
   3  -7   6  143.19    7.80
   3  -7   7  106.69    6.90
   3  -7   8   14.20    2.80
   3  -7   8   11.00    2.60
   3  -7   8   14.80    2.50
   3  -7   8   15.70    3.00
   3  -7   9    1.20    1.80
   3  -7   9    2.20    3.50
   3  -7  10    7.60    2.60
   3  -7  10    5.80    5.50
  -3  -6  13   22.10    2.90
  -3  -6  12    3.20    2.20
  -3  -6  12    5.60    1.70
  -3  -6  11   16.30    2.70
  -3  -6  11   22.80    3.70
  -3  -6  10   20.70    3.40
  -3  -6  10   25.10    3.10
  -3  -6   9  153.88    9.20
  -3  -6   9  156.48    8.50
  -3  -6   8   12.80    2.20
  -3  -6   8   12.30    2.60
  -3  -6   7    4.50    1.70
  -3  -6   7    5.10    2.30
  -3  -6   6   30.80    3.00
  -3  -6   6   32.20    3.30
  -3  -6   5  194.88    8.10
  -3  -6   4 1675.63   46.90
  -3  -6   4 1697.03   46.70
   3  -6  -3   66.79    3.00
  -3  -6   3   70.09    3.80
  -3  -6   3   71.59    3.80
  -3  -6   3   74.19    4.90
  -3  -6   2  259.37    9.00
   3  -6  -2  264.27    8.50
   3  -6  -2  262.27   13.00
  -3  -6   1   54.89    3.00
   3  -6  -1   60.39    3.10
   3  -6  -1   62.69    5.70
  -3  -6   1   54.39    3.20
  -3  -6   0  197.78    6.60
   3  -6   0  202.68    7.30
  -3  -6   0  199.88    7.30
   3  -6   1  505.05   15.70
   3  -6   1  521.15   15.30
  -3  -6  -1  499.25   15.40
   3  -6   2   85.69    4.40
  -3  -6  -2   81.99    3.90
   3  -6   2   74.69    4.00
   3  -6   2   76.99    7.30
   3  -6   3   24.00    2.60
  -3  -6  -3   28.80    2.20
   3  -6   3   24.80    2.60
   3  -6   4   64.09    4.00
   3  -6   4   54.29    4.00
   3  -6   5    1.40    1.00
   3  -6   5    0.40    1.80
   3  -6   6   29.90    3.50
   3  -6   7   17.40    2.80
   3  -6   8   15.60    2.90
   3  -6   8    8.60    2.20
   3  -6   8   12.80    2.70
   3  -6   8   15.90    2.80
   3  -6   9    2.20    2.20
   3  -6   9   -0.70    2.50
   3  -6  10   -0.30    2.10
   3  -6  10    2.70    4.90
   3  -6  11    3.40    2.20
  -3  -5  13   14.10    2.60
  -3  -5  13   15.10    2.20
  -3  -5  12    4.80    2.10
  -3  -5  12    2.60    1.60
  -3  -5  11   27.60    3.90
  -3  -5  10    3.20    2.00
  -3  -5  10    8.50    2.10
  -3  -5   9  256.27   12.60
  -3  -5   9  274.57   12.00
  -3  -5   8  158.08    7.80
  -3  -5   8  139.79    8.30
  -3  -5   7   32.20    3.20
  -3  -5   7   37.00    3.90
  -3  -5   6   65.29    4.60
  -3  -5   6   58.19    4.00
  -3  -5   5    3.80    1.60
  -3  -5   4   72.19    4.00
  -3  -5   4   65.89    3.90
  -3  -5   3  135.79    5.60
   3  -5  -3  129.49    4.70
   3  -5  -3  127.99    8.60
  -3  -5   3  137.79    6.60
  -3  -5   2  474.85   14.40
   3  -5  -2  471.45   13.90
   3  -5  -2  455.15   18.70
   3  -5  -1  297.97    9.50
   3  -5  -1  295.67   13.60
  -3  -5   1  291.97    9.70
   3  -5   0  351.96   11.30
  -3  -5   0  354.56   11.20
   3  -5   1  120.59    5.20
  -3  -5  -1  128.99    5.10
   3  -5   1  122.89    5.00
   3  -5   2   35.40    2.70
  -3  -5  -2   33.80    2.40
   3  -5   2   39.50    5.00
   3  -5   2   35.90    2.60
   3  -5   3  432.56   14.30
   3  -5   3  443.36   14.50
  -3  -5  -3  458.25   13.70
   3  -5   4  110.69    5.40
   3  -5   4  105.09    5.80
   3  -5   5  289.57   10.70
   3  -5   5  276.17   11.30
   3  -5   6   84.99    5.90
   3  -5   7   43.50    4.40
   3  -5   8   84.79    6.30
   3  -5   8   92.39    6.40
   3  -5   8   91.39    6.50
   3  -5   8   97.29    6.80
   3  -5   9    9.40    2.50
   3  -5   9    8.80    2.90
   3  -5   9    5.40    1.80
   3  -5  10   30.50    4.10
   3  -5  10   27.60    5.40
   3  -5  11   -1.60    1.90
   3  -5  11    5.90    6.40
  -3  -4  13   33.10    3.50
  -3  -4  13   27.80    2.90
  -3  -4  12   13.10    3.00
  -3  -4  12    9.10    1.90
  -3  -4  11    7.00    2.50
  -3  -4  10   29.00    4.10
  -3  -4  10   36.50    3.90
  -3  -4   9   14.40    2.70
  -3  -4   9   12.40    2.40
  -3  -4   8  127.99    6.80
  -3  -4   8  116.09    7.40
  -3  -4   7  109.69    5.90
  -3  -4   7   91.79    6.10
  -3  -4   6   27.10    3.10
  -3  -4   6   36.10    3.10
  -3  -4   5  203.98    8.10
  -3  -4   5  200.98    8.10
  -3  -4   4   12.10    1.70
  -3  -4   3   42.10    2.70
   3  -4  -3   43.20    4.80
  -3  -4   3   36.70    2.90
   3  -4  -2   29.00    1.80
  -3  -4   2   25.70    2.10
   3  -4  -2   23.20    3.60
   3  -4  -1   24.70    1.80
   3  -4  -1   22.10    3.40
  -3  -4   1   18.90    1.90
   3  -4   0   49.40    2.80
  -3  -4   0   45.00    2.70
   3  -4   1  531.55   16.40
  -3  -4  -1  547.35   16.20
   3  -4   1  561.24   16.30
   3  -4   2  282.87    9.80
  -3  -4  -2  283.67    9.40
   3  -4   2  296.57    9.90
   3  -4   2  277.67   14.10
   3  -4   3   28.50    2.50
   3  -4   3   26.60    2.60
   3  -4   3   21.30    3.70
  -3  -4  -3   27.40    2.10
   3  -4   4  214.78    8.50
   3  -4   4  222.28    9.00
   3  -4   5  148.39    6.60
   3  -4   5  139.69    7.20
   3  -4   6   86.89    5.80
   3  -4   7  141.59    8.10
   3  -4   8   11.90    2.70
   3  -4   8   11.10    2.50
   3  -4   8    8.10    2.20
   3  -4   8    8.90    2.50
   3  -4   9   27.20    4.30
   3  -4   9   31.40    3.80
   3  -4   9   31.60    3.90
   3  -4  10   -1.50    2.10
   3  -4  10   -0.90    4.10
   3  -4  11    3.80    1.80
   3  -4  11    2.40    5.70
  -3  -3  13   12.90    2.00
  -3  -3  13   17.80    2.70
  -3  -3  12    1.10    1.90
  -3  -3  12    7.60    2.10
  -3  -3  11   36.80    4.60
  -3  -3  10   28.30    4.00
  -3  -3  10   30.80    3.50
  -3  -3   9    2.10    1.70
  -3  -3   9    3.30    1.70
  -3  -3   8   27.80    2.90
  -3  -3   8   17.30    2.90
  -3  -3   7  101.59    5.60
  -3  -3   7  100.99    6.40
  -3  -3   6  106.69    6.00
  -3  -3   6  104.49    5.50
  -3  -3   5   94.89    4.80
  -3  -3   4    1.50    1.10
  -3  -3   3  142.19    5.90
   3  -3  -3  142.39    9.20
  -3  -3   3  157.08    5.90
   3  -3  -2   92.99    3.80
   3  -3  -2   90.79    6.80
  -3  -3   2   92.89    4.10
   3  -3  -1  186.08    6.40
   3  -3  -1  182.28    9.60
  -3  -3   1  178.68    6.50
   3  -3   0  142.69    5.50
  -3  -3   0  146.99    5.50
   3  -3   1  841.42   23.90
  -3  -3  -1  850.41   23.70
   3  -3   1  820.52   23.80
   3  -3   2  129.59    5.50
   3  -3   2  124.09    8.40
  -3  -3  -2  128.89    5.20
   3  -3   2  132.29    5.70
   3  -3   3  131.69    5.90
  -3  -3  -3  139.89    5.60
   3  -3   3  136.09    9.10
   3  -3   3  158.18    6.50
   3  -3   4   58.69    3.70
  -3  -3  -4   64.39    3.40
   3  -3   4   60.69    4.20
   3  -3   5   19.70    2.10
   3  -3   5   21.90    2.90
   3  -3   6   28.70    3.60
   3  -3   7   20.70    3.20
   3  -3   8   39.70    4.30
   3  -3   8   39.20    4.20
   3  -3   8   41.10    4.20
   3  -3   8   40.50    4.40
   3  -3   9   36.50    4.20
   3  -3   9   29.80    4.30
   3  -3   9   29.60    3.90
   3  -3  10    2.70    2.00
   3  -3  10    6.90    3.50
   3  -3  11    5.00    2.10
   3  -3  11    7.70    5.90
  -3  -2  13   17.30    2.60
  -3  -2  13   13.80    2.30
  -3  -2  12   18.20    3.30
  -3  -2  11   -3.00    2.20
  -3  -2  10    8.30    2.40
  -3  -2   9   24.70    3.50
  -3  -2   9   24.90    3.80
  -3  -2   9   28.50    3.30
  -3  -2   8  139.69    8.10
  -3  -2   7   17.10    2.40
  -3  -2   7   13.40    2.70
  -3  -2   6    6.60    2.10
  -3  -2   6    8.50    1.60
  -3  -2   5   27.00    2.50
  -3  -2   4   87.79    4.30
  -3  -2   3  140.89    5.50
   3  -2  -2  192.48   10.30
  -3  -2   2  203.08    7.00
   3  -2  -1  506.65   14.70
   3  -2  -1  476.35   18.40
  -3  -2   1  500.45   14.80
   3  -2   0    4.50    1.10
  -3  -2   0    4.00    0.90
   3  -2   0    3.30    1.90
   3  -2   1   32.90    2.30
  -3  -2  -1   32.30    2.20
   3  -2   1   29.00    2.20
   3  -2   2  297.37   10.20
  -3  -2  -2  299.27    9.90
   3  -2   2  329.17   10.50
   3  -2   2  296.27   13.90
   3  -2   3   70.89    3.90
  -3  -2  -3   71.69    3.60
   3  -2   3   66.29    5.80
   3  -2   3   72.89    4.20
   3  -2   4  121.39    5.50
  -3  -2  -4  122.29    5.20
   3  -2   4  113.49    6.00
   3  -2   5  150.88    7.40
   3  -2   6   63.59    4.90
   3  -2   7   63.39    5.10
   3  -2   8   -0.30    1.30
   3  -2   8    0.00    1.60
   3  -2   8   -2.60    2.10
   3  -2   9   28.00    4.20
   3  -2   9   26.10    3.60
   3  -2   9   29.90    3.90
   3  -2   9   25.40    3.50
   3  -2  10   27.80    4.20
   3  -2  10   27.70    3.60
   3  -2  11    5.80    5.20
   3  -2  11    5.30    2.10
   3  -2  12    8.40    1.80
  -3  -1  14    2.50    1.00
  -3  -1  13    1.50    1.50
  -3  -1  13    2.50    1.60
  -3  -1  12   17.60    3.10
  -3  -1  11   19.50    3.30
  -3  -1  10   33.60    4.10
  -3  -1   9    2.40    1.20
  -3  -1   9    2.60    2.10
  -3  -1   9    2.80    1.40
  -3  -1   8   59.99    5.30
  -3  -1   8   64.49    4.80
  -3  -1   7  303.87   13.20
  -3  -1   7  347.67   12.30
  -3  -1   6   62.99    4.60
  -3  -1   5  198.68    7.70
  -3  -1   4   65.29    3.60
  -3  -1   3   36.40    2.30
  -3  -1   2  143.39    5.40
   3  -1  -1   43.20    4.20
  -3  -1   1   40.70    2.50
   3  -1   0   96.79    4.00
  -3  -1   0   84.69    3.80
   3  -1   0   90.79    6.10
   3  -1   1  618.54   18.60
  -3  -1  -1  644.44   18.50
   3  -1   1  651.93   18.70
   3  -1   2  204.48    7.50
   3  -1   2  214.28    7.80
   3  -1   2  199.58   10.50
   3  -1   3   61.89    3.60
   3  -1   3   65.89    4.00
   3  -1   4   71.69    3.90
   3  -1   4   68.99    4.50
   3  -1   5   12.60    2.40
   3  -1   6   35.70    3.80
   3  -1   7    0.30    1.80
   3  -1   8   34.40    3.90
   3  -1   8   26.70    3.60
   3  -1   8   23.70    3.50
   3  -1   9    0.90    1.70
   3  -1   9    1.70    2.80
   3  -1   9    1.40    1.30
   3  -1   9    1.20    1.80
   3  -1  10   75.19    6.00
   3  -1  10   68.39    6.20
   3  -1  11   -2.40    5.00
   3  -1  11    1.40    1.60
   3  -1  12    3.60    1.50
  -3   0  14    5.60    1.30
  -3   0  13    4.80    1.70
  -3   0  13    5.00    1.80
  -3   0  12   12.10    2.60
  -3   0  11   99.29    7.00
  -3   0  10    7.60    2.20
  -3   0   9    5.30    1.70
  -3   0   9    6.00    2.60
  -3   0   8    1.40    2.00
  -3   0   8    0.00    1.10
  -3   0   7  200.38    9.80
  -3   0   7  219.78    8.90
  -3   0   6  622.04   20.40
  -3   0   5  115.99    5.20
  -3   0   4    2.00    1.00
  -3   0   3    2.80    1.00
  -3   0   3    2.60    1.10
  -3   0   2  204.18    7.50
  -3   0   2  207.08    7.00
  -3   0   1  122.09    4.70
   3   0  -1  118.69    7.20
   3   0   0   25.00    3.20
  -3   0   0   26.20    1.40
   3   0   1  137.29    5.50
   3   0   1  141.99    5.60
  -3   0  -1  141.69    6.00
   3   0   2  429.26   13.60
   3   0   2  443.16   13.90
  -3   0  -2  431.26   15.60
  -3   0  -2  459.65   16.00
   3   0   2  416.36   16.70
   3   0   3  361.16   12.40
   3   0   4    4.20    1.80
   3   0   5   51.49    4.20
   3   0   6    3.80    1.80
   3   0   7  126.59    7.60
   3   0   8  104.59    6.80
   3   0   8   93.59    6.70
   3   0   8   95.99    6.80
   3   0   9   -0.60    1.60
   3   0   9    1.50    3.00
   3   0   9    1.60    2.10
   3   0   9    0.00    1.50
   3   0  10    3.40    2.10
   3   0  10    0.40    3.00
   3   0  11   13.40    5.20
   3   0  11   14.30    2.70
   3   0  12    0.00    1.20
   3   0  12   -0.70    5.10
  -3   1  14    0.50    1.00
  -3   1  13    2.00    1.40
  -3   1  12   18.60    2.90
  -3   1  11   13.90    2.80
  -3   1  10   30.00    3.80
  -3   1   9    1.30    2.20
  -3   1   8   64.79    5.50
  -3   1   7  298.87   13.10
  -3   1   7  350.96   12.30
  -3   1   6   60.39    4.70
  -3   1   6   78.89    4.20
  -3   1   5  211.58    7.90
  -3   1   4   62.29    5.10
  -3   1   3   34.80    3.30
  -3   1   3   37.20    2.20
  -3   1   2  150.88    6.30
  -3   1   2  152.08    5.50
  -3   1   1   36.30    2.20
  -3   1   1   38.70    2.60
   3   1   0   84.19    5.60
   3   1   1  643.14   19.00
  -3   1  -1  657.03   20.00
  -3   1  -2  216.78   11.20
   3   1   2  216.28    7.90
  -3   1  -2  207.38    9.40
   3   1   2  200.88    9.80
  -3   1  -2  220.68   10.00
  -3   1  -3   58.29    4.80
   3   1   3   57.89    3.70
  -3   1  -3   55.89    5.00
   3   1   4   68.79    4.50
   3   1   5   13.10    2.50
   3   1   6   37.40    3.80
   3   1   7    1.80    1.90
   3   1   8   29.80    3.60
   3   1   8   23.90    3.20
   3   1   8   31.90    4.10
   3   1   9   -1.40    2.60
   3   1   9    2.60    1.60
   3   1   9   -0.70    1.60
   3   1   9   -0.50    1.90
   3   1  10   68.29    5.60
   3   1  10   69.89    6.20
   3   1  11    3.30    3.90
   3   1  11    7.30    2.20
   3   1  12    1.20    1.20
   3   1  12    2.60    5.20
  -3   2  14    4.90    1.20
  -3   2  11    0.80    1.60
  -3   2  10   10.20    2.50
  -3   2   9   26.00    3.60
  -3   2   8  136.79    8.00
  -3   2   7   11.20    2.20
  -3   2   6    9.30    2.40
  -3   2   5   23.80    2.10
  -3   2   4   86.79    6.20
  -3   2   3  143.49    7.40
  -3   2   3  143.59    5.20
  -3   2   2  200.48    6.80
  -3   2   1  512.85   15.70
  -3   2   0    4.60    1.50
   3   2   0    6.60    1.70
  -3   2  -1   31.00    3.50
  -3   2  -1   30.90    3.60
  -3   2  -2  305.67   14.10
  -3   2  -2  318.07   13.20
  -3   2  -2  307.17   12.50
   3   2   2  302.57   10.50
   3   2   2  322.37   12.30
   3   2   3   71.69    4.10
  -3   2  -3   65.09    5.50
  -3   2  -3   80.09    5.90
   3   2   4  119.19    6.00
   3   2   5  142.19    7.20
   3   2   6   78.49    5.40
   3   2   7   62.19    5.10
   3   2   8   -0.20    1.40
   3   2   8   -2.50    1.80
   3   2   8    2.40    1.70
   3   2   9   31.60    3.80
   3   2   9   31.90    4.00
   3   2  10   32.10    4.50
   3   2  10   37.30    4.20
   3   2  11    6.40    2.10
   3   2  11    3.60    3.60
   3   2  12   13.40    2.00
   3   2  12    4.20    4.80
  -3   3  14    1.70    1.00
  -3   3  10   35.60    3.80
  -3   3   9    0.20    1.10
  -3   3   8   21.70    3.40
  -3   3   7  101.79    6.40
  -3   3   6  105.49    6.00
  -3   3   5  101.39    4.70
  -3   3   4    3.50    1.90
  -3   3   3  151.78    5.40
  -3   3   3  147.49    7.70
  -3   3   2   94.49    3.90
   3   3   0  135.19    7.20
  -3   3   0  144.09    7.10
  -3   3  -1  863.81   28.10
  -3   3  -1  859.41   28.40
  -3   3  -2  127.99    8.30
  -3   3  -2  126.79    7.20
   3   3   2  132.29    5.60
  -3   3  -2  127.09    7.80
   3   3   3  137.79    6.10
  -3   3  -3  129.79    8.20
  -3   3  -3  141.99    8.50
   3   3   4   56.79    4.00
   3   3   5   22.70    2.80
   3   3   6   33.20    3.50
   3   3   7   18.90    3.10
   3   3   8   34.70    3.80
   3   3   8   29.30    3.80
   3   3   8   37.00    4.00
   3   3   9   36.40    4.10
   3   3   9   35.80    4.00
   3   3   9   30.30    4.00
   3   3  10    1.10    2.90
   3   3  10    3.20    1.90
   3   3  11    6.50    2.00
   3   3  11    1.40    3.40
   3   3  12    5.50    1.50
   3   3  12    3.40    4.70
  -3   4  14    2.50    1.10
  -3   4  11    7.10    1.80
  -3   4  10   30.80    3.50
  -3   4   9   14.10    2.40
  -3   4   8  120.89    7.50
  -3   4   7   98.99    6.40
  -3   4   6   28.40    3.30
  -3   4   5  210.78    7.70
  -3   4   4   14.70    2.70
  -3   4   3   39.40    2.20
   3   4   0   45.90    3.80
  -3   4   0   45.90    3.90
  -3   4   0   47.70    4.70
  -3   4  -1  572.74   20.80
  -3   4  -1  557.84   20.20
   3   4   1  554.34   18.00
   3   4   2  272.07    9.80
  -3   4  -2  295.97   13.40
  -3   4  -2  287.87   13.50
  -3   4  -3   27.70    3.80
  -3   4  -3   20.60    3.30
   3   4   3   27.40    2.70
   3   4   4  221.38    9.00
   3   4   5  144.79    7.20
   3   4   6   91.19    5.70
   3   4   7  137.79    7.80
   3   4   8    9.90    2.30
   3   4   8    7.60    2.40
   3   4   9   32.10    3.80
   3   4   9   32.60    4.00
   3   4  10    1.20    2.90
   3   4  10   -1.40    1.50
   3   4  11    2.60    3.30
   3   4  11    3.70    1.70
   3   4  12    7.10    1.60
   3   4  12   10.00    4.40
  -3   5  14   23.90    2.30
  -3   5  11   26.40    3.40
  -3   5  10    6.00    1.80
  -3   5   9  282.07   12.50
  -3   5   8  140.59    8.30
  -3   5   7   33.20    3.90
  -3   5   6   60.39    4.60
  -3   5   4   65.59    5.70
  -3   5   3  139.59    5.00
   3   5  -3  140.49    6.90
   3   5  -2  479.05   14.90
  -3   5   0  354.76   13.90
  -3   5   0  375.16   15.40
   3   5   1  142.09    5.90
  -3   5  -1  122.09    8.00
  -3   5  -1  121.99    7.60
   3   5   1  127.89    5.90
  -3   5  -2   41.30    4.70
   3   5   3  439.56   14.50
   3   5   4  116.09    5.90
   3   5   5  294.17   11.40
   3   5   6   77.49    5.40
   3   5   7   45.10    4.30
   3   5   8   77.09    6.20
   3   5   8   93.79    6.40
   3   5   9    8.50    2.20
   3   5   9    1.70    1.60
   3   5  10   32.90    3.70
   3   5  10   21.00    4.40
   3   5  11    0.30    3.50
   3   5  11    1.20    1.30
   3   5  12   -0.80    1.00
   3   5  12   -1.50    4.20
  -3   6  14    1.20    0.90
  -3   6  12    7.20    2.00
  -3   6  11   22.80    3.30
  -3   6  10   28.40    3.60
  -3   6   9  161.38    8.90
  -3   6   8   12.40    2.40
  -3   6   7    4.20    1.80
  -3   6   6   27.60    3.20
  -3   6   3   69.39    3.10
   3   6  -3   70.99    4.80
   3   6  -2  265.47    9.60
   3   6   0  223.08    7.40
  -3   6   0  200.08   11.00
  -3   6  -1  531.25   21.00
   3   6   1  578.64   17.50
   3   6   1  536.75   17.00
  -3   6  -1  505.15   20.10
   3   6   3   28.40    2.60
   3   6   4   58.09    4.10
   3   6   5    0.10    1.60
   3   6   6   35.60    3.60
   3   6   7   19.60    2.90
   3   6   8   11.60    2.70
   3   6   8   14.90    2.80
   3   6   9   -0.90    1.60
   3   6  10    0.00    3.10
   3   6  10   -1.00    1.50
   3   6  11   -0.60    3.70
   3   6  11    6.80    1.80
   3   6  12    4.90    4.00
  -3   7  14   30.60    2.50
  -3   7  12    1.20    1.30
  -3   7  11   23.60    3.20
  -3   7  10   17.40    2.90
  -3   7   9   81.69    6.00
  -3   7   8  104.89    7.00
  -3   7   7   12.30    2.40
  -3   7   6  147.89    7.50
   3   7  -2  158.18    6.80
  -3   7   0   15.20    3.30
   3   7   1  192.38    8.10
  -3   7  -1  172.88   10.00
   3   7   4   49.30    3.70
   3   7   5  232.18    9.80
   3   7   6  162.58    8.10
   3   7   7   98.19    6.40
   3   7   8   16.10    2.70
   3   7   8   15.40    3.00
   3   7   8   13.80    2.50
   3   7   9    0.20    1.30
   3   7  10    8.20    3.90
   3   7  11   -2.30    3.40
   3   7  12    2.10    3.60
  -3   8  12    3.00    1.70
  -3   8  11   41.00    4.30
  -3   8  10   23.30    3.30
  -3   8   9    8.00    2.10
  -3   8   8   67.99    5.50
  -3   8   7   24.90    3.30
  -3   8   6   24.00    2.90
   3   8   5   59.19    4.40
   3   8   6   82.19    5.40
   3   8   7   78.59    5.60
   3   8   8    9.20    2.50
   3   8   8    1.20    1.20
   3   8   9   12.70    2.70
   3   8   9   14.40    2.50
   3   8  10    6.40    3.40
   3   8  11    9.60    3.60
   3   8  12   10.80    4.10
  -3   9  12   15.20    2.70
  -3   9  11    2.60    1.90
  -3   9  10    7.80    2.50
  -3   9   9    8.90    2.10
  -3   9   8   53.79    4.90
  -3   9   7   21.50    2.90
  -3   9   6   54.69    4.20
  -3   9   5   55.59    4.00
   3   9   8   37.40    4.30
   3   9   8   43.40    4.30
   3   9   9   10.30    2.30
   3   9   9   15.60    2.60
   3   9  10    5.60    3.00
   3   9  11    6.70    3.40
   3   9  12    7.10    3.60
  -3  10  12   12.40    2.30
  -3  10  11   18.90    3.00
  -3  10  10   24.30    3.80
  -3  10   9    6.00    1.90
  -3  10   8   29.00    3.60
  -3  10   7    6.70    1.90
  -3  10   6   88.59    5.50
  -3  10   5   78.29    4.70
   3  10   7   10.00    2.70
   3  10   7    8.50    2.20
   3  10   8   28.40    3.80
   3  10   8   19.90    3.00
   3  10   9   16.00    2.90
   3  10   9   11.30    2.50
   3  10  10    8.00    3.30
   3  10  10    3.20    1.30
   3  10  11    9.70    3.10
   3  10  12    0.20    3.00
  -3  11  12   13.80    2.60
  -3  11  11   41.20    4.40
  -3  11  10   30.40    4.00
  -3  11   9   54.09    5.10
  -3  11   8  119.49    7.40
  -3  11   7  148.19    7.90
  -3  11   6   40.70    3.60
  -3  11   5    8.40    1.80
   3  11   7   27.00    3.60
   3  11   7   22.90    3.20
   3  11   8    3.50    1.90
   3  11   8   -0.70    1.50
   3  11   9   -1.70    2.10
   3  11   9   -0.80    1.60
   3  11  10    3.20    2.70
   3  11  10    8.80    2.10
   3  11  11    0.90    2.50
   3  11  12    1.60    3.10
  -3  12  12   30.90    3.50
  -3  12  11   30.90    3.90
  -3  12  10   18.80    3.10
  -3  12   9    1.60    1.60
  -3  12   8   26.30    3.50
  -3  12   6  152.18    7.50
   3  12   7   26.40    3.50
   3  12   7   20.50    3.20
   3  12   8   44.60    4.70
   3  12   8   43.70    4.60
   3  12   9   11.40    2.70
   3  12   9   11.70    2.70
   3  12  10    2.30    1.60
   3  12  10    0.30    2.70
   3  12  11    1.00    1.20
   3  12  11    1.30    2.30
   3  12  12   11.10    2.90
  -3  13  12   12.00    2.40
  -3  13  11   11.20    2.80
  -3  13  10    5.80    2.00
  -3  13   9   37.90    4.30
  -3  13   8   28.90    3.60
   3  13   7    3.00    1.50
   3  13   7    0.00    1.50
   3  13   8    3.50    1.60
   3  13   8    1.20    1.80
   3  13   9   12.00    2.70
   3  13  10    1.70    1.60
   3  13  10    1.80    2.80
   3  13  11    2.20    1.30
   3  13  11    2.40    2.40
  -3  14  12    4.70    1.90
  -3  14  11   25.00    3.70
  -3  14  10    9.70    2.50
  -3  14   9    5.00    2.10
  -3  14   8   86.29    6.30
   3  14   6   16.30    2.70
   3  14   7   48.30    4.50
   3  14   7   44.50    4.50
   3  14   8   21.40    3.20
   3  14   8    9.10    2.40
   3  14   9   36.60    4.30
   3  14  10    0.70    1.70
   3  14  10    2.30    2.40
   3  14  11   12.20    2.00
   3  14  11    7.50    2.10
  -3  15  12   19.70    2.90
  -3  15  11   -1.00    2.30
  -3  15  10   24.00    3.50
  -3  15   9   24.60    3.50
  -3  15   8   33.20    4.10
   3  15   6    5.20    1.80
   3  15   7   28.10    3.70
   3  15   8   19.60    3.10
   3  15   8   22.60    3.40
   3  15   9   45.90    4.50
   3  15  10   11.20    2.90
   3  15  10    6.90    2.00
   3  15  11   11.00    2.50
   3  15  11    9.20    1.80
  -3  16  12   16.30    2.50
  -3  16  11   38.20    4.10
  -3  16  10   31.80    4.00
  -3  16   9   13.90    3.10
  -3  16   8    7.90    2.30
  -3  16   7   81.49    6.00
   3  16   6    2.60    1.60
   3  16   7   18.40    3.20
   3  16   8    9.60    2.60
   3  16   9    4.80    2.00
   3  16  10   11.00    2.70
   3  16  10   13.50    2.60
   3  16  11    8.70    2.00
   3  16  11   11.70    1.90
  -3  17  12   14.90    2.30
  -3  17  11   11.30    2.80
  -3  17  10    1.10    1.90
  -3  17   9    5.00    2.00
  -3  17   8   13.70    2.90
  -3  17   7  102.99    7.00
   3  17   6    4.70    2.10
   3  17   7    4.60    2.40
   3  17   8   29.30    4.20
   3  17   9   19.70    3.20
   3  17  10    0.50    2.00
   3  17  10    0.90    1.60
   3  17  11    6.20    1.70
   3  17  11    9.50    1.60
  -3  18  12   20.50    2.50
  -3  18  11   21.10    3.00
  -3  18  10   63.59    5.50
  -3  18   9   39.40    4.30
  -3  18   8   18.20    3.10
  -3  18   7    3.50    1.50
   3  18   5   14.40    2.60
   3  18   6   47.30    4.80
   3  18   7    4.50    2.30
   3  18   8   12.40    2.80
   3  18   9    0.50    2.30
   3  18  10    6.40    2.20
   3  18  10    7.20    2.00
   3  18  11    3.60    1.20
  -3  19  12    3.40    1.60
  -3  19  11   34.20    3.70
  -3  19  10   55.79    5.20
  -3  19   9  136.29    8.20
  -3  19   8   72.49    6.10
  -3  19   7    5.70    2.00
  -3  19   6    2.80    1.40
   3  19   5    4.20    1.90
   3  19   6    8.80    2.20
   3  19   7   55.79    5.30
   3  19   8   30.10    4.00
   3  19   9    6.90    2.50
   3  19  10    4.70    1.60
   3  19  10    3.60    1.40
   3  19  11    2.20    1.00
  -3  20  12    4.80    1.60
  -3  20  11    3.70    1.80
  -3  20  10   10.50    2.70
  -3  20   9    5.20    2.30
  -3  20   8   61.89    5.40
  -3  20   7    1.70    1.50
  -3  20   6   11.60    2.50
   3  20   4    1.70    1.40
   3  20   5    2.80    1.80
   3  20   6   14.90    2.90
   3  20   7   -1.70    2.40
   3  20   8    7.50    2.70
   3  20   9   15.80    2.90
   3  20  10    4.40    1.80
  -3  21  12    1.00    1.20
  -3  21  11    9.90    2.20
  -3  21  10   27.90    3.40
  -3  21   9    4.20    2.10
  -3  21   8    6.40    2.20
  -3  21   7   46.20    4.60
  -3  21   6    6.60    2.10
   3  21  -5   50.19    4.60
   3  21   4   26.30    3.40
   3  21   5    3.50    1.60
   3  21   6   16.30    3.00
   3  21   7   27.30    3.80
   3  21   8    4.60    2.60
   3  21   9    3.10    1.90
   3  21  10   17.10    2.30
  -3  22  11    2.40    1.50
  -3  22  10   31.10    3.60
  -3  22   9    3.00    2.40
  -3  22   8   43.40    4.40
  -3  22   7   10.90    2.40
  -3  22   6  101.19    6.80
   3  22  -5   18.20    2.90
   3  22  -4   17.70    2.90
   3  22   3   41.30    4.10
   3  22   3   44.00    4.20
   3  22   4    2.10    1.60
   3  22   4    2.10    1.10
   3  22   5   11.40    2.50
   3  22   6   12.90    2.70
   3  22   7    6.10    2.40
   3  22   8    7.90    2.60
   3  22   9    9.90    2.40
   3  22  10    2.00    1.40
  -3  23  11   -1.10    1.20
  -3  23  10    8.30    2.20
  -3  23   9  141.49    7.90
  -3  23   8   38.70    4.10
  -3  23   7   35.80    3.90
   3  23  -5    1.30    1.40
   3  23  -4    3.90    1.50
   3  23  -3   34.70    3.90
   3  23   2    7.00    1.80
   3  23   3   15.50    2.60
   3  23   3   17.90    2.70
   3  23   4    1.10    1.30
   3  23   4    1.20    1.50
   3  23   5    8.60    2.50
   3  23   6   13.30    2.70
   3  23   7   10.10    2.40
   3  23   8   13.60    2.80
   3  23   9   -2.00    1.70
   3  23  10    8.00    1.60
  -3  24  11   19.30    2.20
  -3  24  10   10.40    2.20
  -3  24   9   21.90    3.10
  -3  24   8    2.70    1.50
  -3  24   7   56.99    4.90
   3  24  -5   28.00    3.40
   3  24  -4   17.00    2.70
   3  24  -3   22.00    3.20
  -3  24   2   60.29    4.90
   3  24  -2   63.29    5.20
   3  24  -1   48.30    4.60
   3  24   0   30.20    3.70
   3  24   1   35.20    3.90
   3  24   2   24.20    3.40
   3  24   3   17.80    2.90
   3  24   3   15.80    2.60
   3  24   4   17.40    2.90
   3  24   4   16.20    2.80
   3  24   5    5.20    2.40
   3  24   6   15.60    3.00
   3  24   7   29.60    3.60
   3  24   8    6.90    2.30
   3  24   9    5.60    1.80
   3  24  10    8.50    1.50
  -3  25  10   -1.40    1.40
  -3  25   9    8.80    2.20
  -3  25   8   26.40    3.20
  -3  25   7   25.00    3.20
   3  25  -5   56.19    4.90
   3  25  -4    4.20    1.70
   3  25  -3    4.20    1.80
  -3  25   2  114.69    7.30
   3  25  -2  121.79    7.70
   3  25  -1   42.00    4.30
   3  25   0  125.19    7.90
   3  25   1    3.70    1.70
   3  25   2    9.20    2.50
   3  25   3   91.09    6.50
   3  25   4    7.70    2.10
   3  25   4    9.20    2.30
   3  25   5   22.40    3.10
   3  25   6   49.20    4.70
   3  25   7   46.70    4.60
   3  25   8   21.20    2.90
   3  25   9   20.70    2.50
  -3  26  10   15.80    2.10
  -3  26   9    3.80    1.50
  -3  26   8   97.89    6.10
   3  26  -5    2.40    1.50
   3  26  -4    6.40    2.20
   3  26  -3    9.40    2.30
   3  26  -2   -0.30    1.50
   3  26  -1   45.90    4.60
   3  26   0   40.90    4.40
   3  26   1   15.20    2.70
   3  26   2   26.70    3.70
   3  26   3    1.60    1.70
   3  26   4  123.79    7.70
   3  26   4  132.29    7.70
   3  26   5   30.50    3.70
   3  26   6    5.50    2.20
   3  26   7    2.40    1.50
   3  26   8    5.30    2.00
   3  26   9   27.40    2.60
  -3  27  10    0.70    0.90
  -3  27   9    8.80    1.80
  -3  27   8    5.50    1.60
   3  27  -5   35.90    3.90
   3  27  -4    3.20    1.60
   3  27  -3    6.50    2.20
   3  27  -2    6.90    2.00
   3  27  -1   63.59    5.50
   3  27   0   23.60    3.30
   3  27   1   13.70    2.80
   3  27   2   56.69    5.10
   3  27   3   42.60    4.40
   3  27   4   25.90    3.40
   3  27   4   33.10    3.60
   3  27   5   24.00    3.10
   3  27   5   24.70    3.30
   3  27   6   18.20    2.80
   3  27   7    7.80    2.10
   3  27   8    6.70    1.70
   3  27   9   15.50    1.90
  -3  28   9    0.50    0.90
   3  28  -5   10.70    2.30
   3  28  -4   20.60    3.00
   3  28  -3    7.50    2.30
   3  28  -2   28.90    3.80
   3  28  -1    2.20    1.60
   3  28   0   -2.10    2.10
   3  28   1   24.30    3.50
   3  28   2   48.60    4.70
   3  28   3   36.40    4.00
   3  28   4   23.20    3.20
   3  28   5   23.00    3.10
   3  28   5   30.10    3.30
   3  28   6    2.20    1.60
   3  28   7   23.10    2.80
   3  28   8    6.00    1.40
   3  29  -5   36.20    3.80
   3  29  -4    2.10    1.90
   3  29  -3   26.80    3.50
   3  29  -2  127.79    8.00
   3  29  -1   66.39    5.60
   3  29   0   14.20    2.70
   3  29   1    7.80    2.30
   3  29   2    4.10    2.30
   3  29   3   87.19    6.20
   3  29   4   16.60    2.90
   3  29   5    6.70    1.60
   3  29   5    6.70    1.80
   3  29   6    1.90    1.40
   3  29   7   16.40    2.20
   3  29   8    3.70    1.30
   3  30  -5   13.90    2.40
   3  30  -4   33.60    3.80
   3  30  -3   20.40    3.20
   3  30  -2   33.30    4.20
   3  30  -1    6.50    2.50
   3  30   0   38.70    4.40
   3  30   1   11.40    3.00
   3  30   2   34.10    3.80
   3  30   3   57.29    5.10
   3  30   4   33.60    3.70
   3  30   5   95.19    5.70
   3  30   6   17.70    2.20
   3  30   7    2.20    1.10
   3  31  -5   21.00    2.70
   3  31  -4   19.00    2.80
   3  31  -3    2.80    1.90
   3  31  -2    7.40    2.30
   3  31  -1    3.20    2.10
   3  31   0    5.60    2.30
   3  31   1   13.20    3.00
   3  31   2   26.40    3.70
   3  31   3   14.00    2.70
   3  31   4    6.30    2.00
   3  31   5    3.50    1.50
   3  32  -4    4.30    1.80
   3  32  -3   97.19    6.50
   3  32  -2   35.50    3.90
   3  32  -1   -0.30    2.00
   3  32   0    2.60    2.10
   3  32   1   12.00    3.00
   3  32   2   21.20    3.10
   3  32   3   13.20    2.40
   3  32   4   20.50    2.80
   3  33  -4    3.80    1.40
   3  33  -3    8.40    2.10
   3  33  -2   13.50    2.60
   3  33  -1    1.00    1.70
   3  33   0   20.20    3.30
   3  33   1    9.20    2.50
   3  33   2   26.10    3.40
   3  33   3    1.00    1.70
   3  33   4    4.90    1.70
   3  34  -4   27.20    2.90
   3  34  -3    5.20    1.60
   3  34  -2    0.00    1.50
   3  34  -1    1.20    1.90
   3  34   0   61.99    5.00
   3  34   1   27.50    3.40
   3  34   2   23.60    3.20
   3  34   3    8.40    1.90
   3  34   4   10.70    1.90
   3  35  -4   11.00    1.80
   3  35  -3   15.60    2.40
   3  35  -2   10.20    2.20
   3  35  -1   -0.40    1.50
   3  35   0    0.30    1.70
   3  35   1    9.20    2.10
   3  35   2    3.00    1.90
   3  35   3   10.40    2.00
   3  36  -3   13.70    2.00
   3  36  -2    4.90    1.50
   3  36  -1   -0.70    1.50
   3  36   0    5.50    1.90
   3  36   1   26.10    2.90
   3  36   2    9.00    2.00
   3  36   3    3.50    1.30
   3  37  -3    3.40    1.10
   3  37  -2   -0.60    1.10
   3  37  -1    4.60    1.50
   3  37   0   17.80    2.30
   3  37   1    0.10    1.30
   3  37   2   13.70    1.90
   3  38  -2    1.90    1.00
   3  38  -1   11.10    1.70
   3  38   0   10.60    1.70
   3  38   1    0.60    1.10
   4 -37   0    1.20    1.00
   4 -37   1   11.90    1.60
   4 -36  -1    0.70    1.00
   4 -36   0    5.80    1.50
   4 -36   1    4.90    1.50
   4 -36   2    8.60    1.60
   4 -36   3   23.90    2.30
   4 -35  -1    5.80    1.60
   4 -35   0    5.60    1.70
   4 -35   1    5.30    1.70
   4 -35   2   29.20    3.10
   4 -35   3    5.20    1.50
  -4 -34   6    4.70    1.30
  -4 -34   5   -5.60    1.40
  -4 -34   4   -3.60    1.30
   4 -34  -1   26.10    3.10
   4 -34   0   16.50    2.80
   4 -34   1    5.00    2.10
   4 -34   2    1.40    1.60
   4 -34   3    6.20    1.80
   4 -34   4    3.10    1.20
  -4 -33   7    5.50    1.40
  -4 -33   6   11.90    1.90
  -4 -33   5    0.80    1.40
  -4 -33   4   11.60    2.00
   4 -33  -2   10.30    2.00
   4 -33  -1    7.00    2.00
   4 -33   0    2.20    1.80
   4 -33   1   18.50    2.90
   4 -33   2   11.30    2.50
   4 -33   3   11.70    2.30
   4 -33   4    5.70    1.70
   4 -33   5    1.70    1.00
  -4 -32   7   -0.40    1.30
  -4 -32   6    7.60    1.80
  -4 -32   5   -0.10    1.60
  -4 -32   4    3.10    1.50
   4 -32  -2   21.00    2.80
   4 -32  -1   13.90    2.80
   4 -32   0    7.80    2.80
   4 -32   1   42.10    4.30
   4 -32   2    1.80    2.20
   4 -32   3    1.50    1.90
   4 -32   4    7.40    1.90
   4 -32   5    3.30    1.30
  -4 -31   8    8.40    1.60
  -4 -31   7   11.50    2.30
  -4 -31   6    9.90    2.30
  -4 -31   5   16.80    2.60
  -4 -31   4    2.20    1.50
   4 -31  -2    5.70    2.00
   4 -31  -1   12.60    2.60
   4 -31   0   13.20    2.70
   4 -31   1    2.50    2.00
   4 -31   2    3.00    2.10
   4 -31   2    0.10    2.30
   4 -31   3   26.00    3.30
   4 -31   3   25.60    3.50
   4 -31   4    7.30    1.90
   4 -31   5    1.50    1.20
  -4 -30   8   -0.90    1.50
  -4 -30   7   11.10    2.30
  -4 -30   6   17.20    3.00
  -4 -30   5   16.40    2.90
  -4 -30   4   19.00    3.00
  -4 -30   3   15.10    2.60
   4 -30  -2   35.10    3.80
   4 -30  -1   95.89    6.40
   4 -30   0    0.90    1.90
   4 -30   1   19.80    3.40
   4 -30   1   20.50    3.50
   4 -30   2   11.90    2.80
   4 -30   2    9.00    2.70
   4 -30   3    4.90    2.40
   4 -30   3    4.10    2.30
   4 -30   4   46.60    4.20
   4 -30   4   53.49    4.70
   4 -30   5   41.10    3.60
  -4 -29   9    2.60    1.30
  -4 -29   8    1.10    1.50
  -4 -29   7   10.30    2.40
  -4 -29   6   10.70    2.30
  -4 -29   5   50.09    4.60
  -4 -29   4    9.40    2.30
  -4 -29   3    0.70    1.40
   4 -29  -2   50.79    4.60
   4 -29  -1   23.30    3.30
   4 -29   0   28.90    4.10
   4 -29   0   30.80    4.00
   4 -29   1   23.90    3.60
   4 -29   1   25.50    3.90
   4 -29   2    4.30    2.20
   4 -29   2    0.40    1.90
   4 -29   3   30.30    3.80
   4 -29   3   28.00    4.00
   4 -29   4    5.60    2.20
   4 -29   4    6.70    2.20
   4 -29   5   23.60    3.00
   4 -29   5   26.00    3.10
  -4 -28   9    7.40    1.80
  -4 -28   8    3.50    2.00
  -4 -28   7    7.80    2.40
  -4 -28   6   14.40    3.10
  -4 -28   5   23.40    3.30
  -4 -28   4   71.29    5.70
  -4 -28   3   57.99    4.90
   4 -28  -2    4.80    1.80
   4 -28  -1   14.00    2.80
   4 -28   0   27.60    4.00
   4 -28   0   32.90    4.10
   4 -28   1   13.80    2.90
   4 -28   1   17.10    3.30
   4 -28   2    4.20    2.00
   4 -28   2    7.00    2.30
   4 -28   3    1.10    1.80
   4 -28   3    2.00    2.00
   4 -28   4   23.80    3.40
   4 -28   4   23.10    3.40
   4 -28   5    5.30    1.80
   4 -28   5   10.00    2.40
  -4 -27  10    7.20    1.40
  -4 -27   9   -0.70    1.40
  -4 -27   8    5.40    2.30
  -4 -27   7   39.50    4.20
  -4 -27   6   15.60    3.10
  -4 -27   5   26.00    3.70
  -4 -27   4   28.40    3.90
  -4 -27   3   67.89    5.50
   4 -27  -2    9.80    2.30
   4 -27  -1    7.10    2.50
   4 -27  -1    9.80    2.60
   4 -27   0   26.40    3.80
   4 -27   0   27.60    3.70
   4 -27   1   28.00    3.80
   4 -27   1   25.30    3.50
   4 -27   2   22.10    3.60
   4 -27   2   21.80    3.30
   4 -27   3   11.90    2.70
   4 -27   3   10.30    2.80
   4 -27   4    7.80    2.30
   4 -27   4    8.80    2.40
   4 -27   5   11.10    2.30
   4 -27   5    9.50    2.40
  -4 -26  10    8.70    1.60
  -4 -26   9    8.00    2.00
  -4 -26   8   -1.00    2.20
  -4 -26   7    4.70    2.30
  -4 -26   6   62.79    5.70
  -4 -26   5   21.30    3.40
  -4 -26   4    1.10    1.90
  -4 -26   3   -0.70    1.40
   4 -26  -2   22.50    3.20
   4 -26  -1   69.09    5.30
   4 -26  -1   70.79    5.80
   4 -26  -1   68.19    5.70
   4 -26   0   19.10    3.00
   4 -26   0   23.20    3.50
   4 -26   0   21.40    3.30
   4 -26   1   26.00    3.70
   4 -26   1   36.80    4.10
   4 -26   2   -2.50    1.90
   4 -26   2    3.00    2.00
   4 -26   3    1.30    1.90
   4 -26   3    1.50    2.00
   4 -26   4    1.90    1.80
   4 -26   4    1.10    1.70
   4 -26   5   24.60    3.20
   4 -26   5   20.40    2.90
  -4 -25  10    6.00    1.70
  -4 -25   9    1.70    1.80
  -4 -25   8   16.40    3.10
  -4 -25   7   58.59    5.50
  -4 -25   6   29.60    4.00
  -4 -25   5    5.20    1.70
  -4 -25   4   31.60    3.80
  -4 -25   3   37.70    3.90
  -4 -25   3   37.80    4.00
   4 -25  -2   53.59    4.80
   4 -25  -1   59.69    5.00
   4 -25  -1   66.39    5.50
   4 -25  -1   62.89    5.40
   4 -25   0   22.40    3.20
   4 -25   0   22.00    3.30
   4 -25   0   26.10    3.70
   4 -25   1   33.30    3.80
   4 -25   1   27.80    3.70
   4 -25   1   32.50    4.20
   4 -25   2   19.90    3.30
   4 -25   2   21.70    3.50
   4 -25   3    8.30    2.40
   4 -25   3    4.20    2.00
   4 -25   4    5.90    1.90
   4 -25   4    4.60    2.10
   4 -25   5   -2.20    1.80
   4 -25   5    0.30    1.80
  -4 -24  10    6.60    1.90
  -4 -24   9   14.40    2.80
  -4 -24   8   26.00    3.80
  -4 -24   7   32.60    4.00
  -4 -24   6    9.10    2.50
  -4 -24   5    4.30    2.30
  -4 -24   4    8.60    2.30
  -4 -24   4    8.40    2.50
  -4 -24   3  121.39    7.60
  -4 -24   3  120.19    7.50
   4 -24  -2    6.30    2.00
   4 -24  -1   66.09    5.30
   4 -24  -1   68.29    5.60
   4 -24  -1   73.39    5.70
   4 -24   0   90.09    6.20
   4 -24   0   85.39    6.50
   4 -24   0   85.39    6.40
   4 -24   1   15.30    2.80
   4 -24   1   13.00    2.70
   4 -24   1   12.20    2.70
   4 -24   2    6.90    2.10
   4 -24   2    5.40    2.20
   4 -24   2    9.90    2.70
   4 -24   3   23.80    3.40
   4 -24   3   18.70    3.10
   4 -24   4    0.00    2.00
   4 -24   4   -1.20    2.00
   4 -24   5    8.10    2.10
   4 -24   5   10.70    2.50
  -4 -23  11    2.90    1.10
  -4 -23  10    9.80    2.20
  -4 -23   9   -0.50    2.00
  -4 -23   8   12.20    3.30
  -4 -23   7   15.30    3.30
  -4 -23   5   34.90    4.00
  -4 -23   4   77.49    6.00
  -4 -23   3    3.80    1.70
  -4 -23   3    2.70    1.70
   4 -23  -2   26.60    3.40
   4 -23  -1   45.20    4.20
   4 -23  -1   53.49    4.90
   4 -23  -1   52.39    4.70
   4 -23   0  191.18    9.90
   4 -23   0  206.68   10.40
   4 -23   0  203.28   10.30
   4 -23   1   26.30    3.50
   4 -23   1   29.80    4.00
   4 -23   1   30.80    3.80
   4 -23   2   10.30    2.60
   4 -23   2    9.30    2.40
   4 -23   2   12.90    2.90
   4 -23   3    2.00    1.70
   4 -23   3    3.00    2.10
   4 -23   3    3.10    1.90
   4 -23   4   -2.00    1.50
   4 -23   4   -3.00    2.00
   4 -23   5   34.50    3.80
  -4 -22  11   10.60    1.70
  -4 -22  10    4.00    1.50
  -4 -22   9   15.00    2.90
  -4 -22   8   12.80    2.80
  -4 -22   5   87.89    6.50
  -4 -22   4    2.40    1.60
  -4 -22   3   20.70    3.20
  -4 -22   2  132.29    7.60
   4 -22  -1   77.59    5.60
   4 -22  -1   81.79    6.10
   4 -22   0   41.30    4.10
   4 -22   0   39.90    4.20
   4 -22   0   39.70    4.10
   4 -22   1   16.00    2.90
   4 -22   1   15.70    2.70
   4 -22   1   17.40    2.90
   4 -22   2   40.40    4.20
   4 -22   2   36.50    4.00
   4 -22   2   34.90    4.20
   4 -22   3   64.09    5.40
   4 -22   3   62.19    5.40
   4 -22   3   51.29    5.10
   4 -22   4   18.60    3.00
   4 -22   4   16.20    2.70
   4 -22   4   14.10    2.90
   4 -22   5   10.80    2.30
  -4 -21  11    0.70    1.00
  -4 -21  10    4.30    1.90
  -4 -21   9   51.39    4.80
  -4 -21   6   17.90    3.00
  -4 -21   5  118.39    7.60
  -4 -21   4   82.49    6.10
  -4 -21   3   42.40    4.10
  -4 -21   2   27.40    3.20
   4 -21  -1    3.10    1.30
   4 -21   0    8.20    2.30
   4 -21   1    0.80    1.50
   4 -21   2   59.99    5.20
   4 -21   2   58.89    5.10
   4 -21   2   51.99    4.90
   4 -21   3    0.30    1.50
   4 -21   3    3.40    1.70
   4 -21   4   20.40    3.00
   4 -21   4   24.80    3.30
   4 -21   4   25.40    3.60
   4 -21   5   -1.50    1.50
  -4 -20  11    1.00    1.10
  -4 -20  11    2.40    1.20
  -4 -20  10   -0.40    1.70
  -4 -20  10    1.60    1.40
  -4 -20   9    3.90    2.30
  -4 -20   9    1.50    1.40
  -4 -20   6   21.80    3.30
  -4 -20   5   30.30    3.90
  -4 -20   4   80.69    6.00
  -4 -20   3   10.50    2.20
  -4 -20   2   29.40    3.30
   4 -20  -2   26.10    3.00
   4 -20  -1   75.59    5.30
   4 -20   0    7.70    2.20
   4 -20   1   93.99    6.30
   4 -20   2    7.00    2.40
   4 -20   3   63.89    5.40
   4 -20   3   75.79    5.70
   4 -20   3   70.99    5.70
   4 -20   4   24.00    3.40
   4 -20   4   27.60    3.50
   4 -20   4   25.00    3.30
   4 -20   5    8.00    2.20
   4 -20   5   16.10    2.50
  -4 -19  12   11.30    1.70
  -4 -19  11   10.80    1.90
  -4 -19  11   14.50    2.40
  -4 -19  10    7.40    2.10
  -4 -19  10    8.20    2.10
  -4 -19   9   47.30    4.60
  -4 -19   7   18.90    3.10
  -4 -19   6   11.10    2.40
  -4 -19   5    6.40    2.00
  -4 -19   4   30.50    3.70
  -4 -19   3   76.09    5.50
   4 -19  -2    0.60    1.30
  -4 -19   2   -0.90    1.50
   4 -19  -1   14.40    2.40
   4 -19   0   22.30    3.00
   4 -19   1   12.50    2.60
   4 -19   2   30.40    3.70
   4 -19   3   61.39    5.10
   4 -19   3   64.49    5.30
   4 -19   4   22.30    3.50
   4 -19   4   21.10    3.10
   4 -19   5   20.30    3.30
  -4 -18  12    0.40    1.00
  -4 -18  11    6.30    1.60
  -4 -18  11    4.20    1.90
  -4 -18  10   23.10    3.30
  -4 -18  10   21.20    3.30
  -4 -18   9   26.70    3.60
  -4 -18   8    2.80    1.50
  -4 -18   7   30.00    3.70
  -4 -18   6   12.70    2.80
  -4 -18   5   13.70    2.80
  -4 -18   4  101.19    6.50
  -4 -18   3  107.69    6.50
   4 -18  -2  153.18    7.50
  -4 -18   2  154.78    7.90
   4 -18  -1   29.20    3.20
   4 -18   0    3.40    1.50
   4 -18   1    3.80    2.10
   4 -18   2   30.40    3.60
   4 -18   3  159.18    8.50
   4 -18   4   73.99    5.60
   4 -18   4   72.09    5.50
   4 -18   5   27.50    3.40
  -4 -17  12   15.30    2.30
  -4 -17  11    4.60    2.10
  -4 -17  11    1.40    1.40
  -4 -17  10    7.10    2.20
  -4 -17   9   12.10    2.70
  -4 -17   8   25.40    3.50
  -4 -17   7  105.39    7.10
  -4 -17   7   99.29    6.80
  -4 -17   6   79.29    6.00
  -4 -17   5   20.40    3.00
  -4 -17   4   39.50    4.10
  -4 -17   3    0.40    1.70
   4 -17  -2   61.39    4.30
  -4 -17   2   64.79    4.60
  -4 -17   1   22.40    2.60
   4 -17  -1   21.80    2.70
   4 -17   0  141.49    7.30
   4 -17   1   16.60    3.00
   4 -17   2   21.80    3.00
   4 -17   3    4.70    2.10
   4 -17   4   13.70    2.70
   4 -17   5   18.80    3.00
   4 -17   6   37.50    4.00
  -4 -16  12    2.90    1.50
  -4 -16  11   20.40    3.30
  -4 -16  10   34.50    4.10
  -4 -16   9   38.30    4.50
  -4 -16   8   31.70    3.90
  -4 -16   8   31.50    3.90
  -4 -16   7    0.50    1.60
  -4 -16   7   -0.10    1.40
  -4 -16   6   33.20    4.00
  -4 -16   5   37.30    4.00
  -4 -16   4    1.90    1.60
  -4 -16   3  190.08    8.90
   4 -16  -2  128.79    6.50
  -4 -16   2  131.69    6.80
  -4 -16   1    9.80    1.90
   4 -16  -1    4.80    1.30
   4 -16   0    5.60    2.00
   4 -16   1    2.20    1.80
   4 -16   2   21.90    3.10
   4 -16   3   15.00    2.80
   4 -16   4    6.00    2.00
   4 -16   5   79.49    5.80
   4 -16   6   47.00    4.30
  -4 -15  13    3.60    1.20
  -4 -15  12    3.00    1.60
  -4 -15  11   19.60    3.30
  -4 -15  10   32.10    4.10
  -4 -15   9   20.60    3.40
  -4 -15   8   34.30    4.10
  -4 -15   8   39.40    4.40
  -4 -15   7  106.29    6.80
  -4 -15   7   98.49    6.80
  -4 -15   6   47.90    4.50
  -4 -15   5   50.29    4.40
  -4 -15   4  273.47   11.40
  -4 -15   3  119.29    6.50
   4 -15  -2  114.29    5.80
  -4 -15   2  101.09    5.80
   4 -15  -1  256.97   10.50
  -4 -15   1  276.27   10.40
   4 -15   0   92.19    5.60
   4 -15   1  119.29    6.60
   4 -15   2   55.59    4.50
   4 -15   3   84.59    5.80
   4 -15   4   49.90    4.50
   4 -15   5    6.30    1.90
   4 -15   6   17.20    2.60
  -4 -14  13    0.20    1.10
  -4 -14  12   17.10    2.80
  -4 -14  11  148.29    8.60
  -4 -14  10   77.09    6.30
  -4 -14   9   21.60    3.50
  -4 -14   8   35.20    4.10
  -4 -14   8   29.80    4.00
  -4 -14   7   24.00    3.30
  -4 -14   6  157.78    8.30
  -4 -14   5   67.49    5.10
  -4 -14   4   66.69    4.80
  -4 -14   3   48.70    4.00
  -4 -14   2   11.30    2.10
   4 -14  -2   11.60    1.90
  -4 -14   1   87.29    4.80
   4 -14  -1   84.29    5.10
   4 -14   0  232.38    9.70
   4 -14   1   74.89    5.00
   4 -14   2   18.30    2.90
   4 -14   3    0.20    1.70
   4 -14   4  110.59    6.60
   4 -14   5   32.30    3.70
   4 -14   6   56.89    4.80
   4 -14   6   57.59    4.80
  -4 -13  13    3.80    1.30
  -4 -13  12    5.50    2.30
  -4 -13  11    2.10    2.00
  -4 -13  10    6.70    2.70
  -4 -13   9    1.10    2.00
  -4 -13   8    1.80    1.60
  -4 -13   8    2.50    1.90
  -4 -13   7    4.00    1.80
  -4 -13   6   27.40    3.40
  -4 -13   5  141.19    7.50
  -4 -13   4   32.80    3.40
  -4 -13   3  113.29    6.10
  -4 -13   2    4.20    1.60
   4 -13  -2    6.10    1.70
  -4 -13   1  176.78    7.30
   4 -13  -1  165.88    7.50
   4 -13   0  140.99    6.80
   4 -13   1  126.59    6.60
   4 -13   2  283.57   11.50
   4 -13   3   16.50    2.70
   4 -13   4    0.70    1.70
   4 -13   5    1.20    1.60
   4 -13   5    3.50    1.70
   4 -13   6   12.40    2.30
   4 -13   6   10.00    2.20
   4 -13   7    1.20    1.50
  -4 -12  13    4.60    1.60
  -4 -12  12    2.10    1.80
  -4 -12  11   50.79    5.10
  -4 -12  10   54.79    5.40
  -4 -12   9   67.99    6.00
  -4 -12   9   69.29    5.60
  -4 -12   8    6.10    2.20
  -4 -12   8    4.70    2.00
  -4 -12   7    7.10    2.30
  -4 -12   6   11.50    2.60
  -4 -12   5   55.49    4.50
  -4 -12   4   45.00    3.90
  -4 -12   3   50.89    3.80
  -4 -12   2  112.89    5.70
   4 -12  -2  115.09    5.50
  -4 -12   1   79.39    4.30
  -4 -12   1   75.09    4.40
   4 -12  -1   68.29    4.40
   4 -12   0  103.79    5.70
  -4 -12   0  105.79    5.20
   4 -12   1   24.10    2.80
   4 -12   2    4.00    2.20
   4 -12   3    8.10    2.10
   4 -12   4   32.40    3.50
   4 -12   4   31.60    3.30
   4 -12   5  249.08   10.90
   4 -12   5  231.08   10.70
   4 -12   6   19.60    2.70
   4 -12   6   22.50    3.30
   4 -12   7   31.10    3.70
  -4 -11  13    4.90    1.80
  -4 -11  12   18.70    3.30
  -4 -11  11    6.50    2.80
  -4 -11  10   19.60    3.60
  -4 -11   9   15.70    2.70
  -4 -11   9   18.60    3.30
  -4 -11   8   22.40    3.10
  -4 -11   8   16.90    2.70
  -4 -11   8   22.40    3.50
  -4 -11   7    4.50    1.90
  -4 -11   7    7.80    2.10
  -4 -11   6   59.29    4.60
  -4 -11   6   60.19    4.70
  -4 -11   5  230.88   10.00
  -4 -11   4   95.39    5.40
  -4 -11   3   23.80    2.60
  -4 -11   2   50.29    3.60
   4 -11  -2   59.09    3.60
  -4 -11   2   52.39    3.60
  -4 -11   1   32.40    2.60
   4 -11  -1   35.90    3.00
  -4 -11   1   37.80    3.00
  -4 -11   0  416.86   13.50
   4 -11   0  402.06   14.10
   4 -11   1  202.18    8.60
   4 -11   2   19.20    2.70
   4 -11   3  203.08    9.10
   4 -11   3  198.18    8.60
   4 -11   4   16.50    2.50
   4 -11   4   19.70    2.60
   4 -11   5   74.19    5.30
   4 -11   5   70.09    5.30
   4 -11   6   23.80    2.90
   4 -11   6   24.80    3.30
   4 -11   7   12.60    2.70
  -4 -10  13    2.70    1.70
  -4 -10  12   13.10    3.00
  -4 -10  11   93.29    7.00
  -4 -10  10   30.30    4.30
  -4 -10   9   30.00    3.60
  -4 -10   9   28.10    3.90
  -4 -10   8   34.00    3.60
  -4 -10   8   38.20    4.00
  -4 -10   8   38.60    4.40
  -4 -10   7  138.29    7.60
  -4 -10   7  131.89    7.60
  -4 -10   6  100.19    6.10
  -4 -10   6   97.89    6.10
  -4 -10   5  170.18    8.10
  -4 -10   4  463.25   15.80
  -4 -10   3   20.80    2.50
  -4 -10   3   26.00    2.70
  -4 -10   2  246.78    9.50
  -4 -10   2  248.98    9.40
   4 -10  -2  257.17    9.20
  -4 -10   1  189.48    7.50
   4 -10  -1  200.78    7.90
  -4 -10   1  196.38    7.80
  -4 -10   0    1.50    1.10
   4 -10   0    1.70    1.60
   4 -10   1   14.00    2.20
   4 -10   2   35.00    3.40
   4 -10   2   33.30    2.80
   4 -10   3   88.09    5.40
   4 -10   3   83.29    5.00
   4 -10   4   78.79    5.20
   4 -10   4   75.29    5.10
   4 -10   5   16.70    2.70
   4 -10   5    7.50    1.90
   4 -10   6   14.50    2.70
   4 -10   7   30.30    3.80
  -4  -9  13   17.30    2.70
  -4  -9  12   14.60    3.10
  -4  -9  11    5.60    2.70
  -4  -9  10    4.80    2.40
  -4  -9   9  222.88   10.60
  -4  -9   9  206.18   11.30
  -4  -9   9  226.58   11.20
  -4  -9   8  116.89    7.70
  -4  -9   8  120.99    7.30
  -4  -9   8  115.89    7.40
  -4  -9   7   38.70    3.80
  -4  -9   7   35.90    3.90
  -4  -9   6   41.90    3.70
  -4  -9   6   36.70    3.80
  -4  -9   5    4.00    2.10
  -4  -9   4  109.89    5.60
  -4  -9   4   96.49    5.60
  -4  -9   3   96.79    5.30
  -4  -9   3   94.69    5.10
  -4  -9   2   16.10    2.30
  -4  -9   2   12.50    1.80
   4  -9  -2   12.60    1.60
  -4  -9   1   86.79    4.50
  -4  -9   1   82.99    4.20
   4  -9  -1   78.39    4.30
  -4  -9   0   12.50    1.40
   4  -9   0   11.20    1.90
  -4  -9   0   10.50    1.60
   4  -9   1   17.20    2.40
  -4  -9  -1   19.00    1.80
   4  -9   1   16.60    1.80
  -4  -9  -1   17.90    2.30
   4  -9   2   74.29    4.70
  -4  -9  -2   73.59    4.30
   4  -9   2   72.09    4.20
   4  -9   3   49.20    3.90
   4  -9   3   44.60    3.60
  -4  -9  -3   48.80    3.40
   4  -9   4   68.59    4.70
   4  -9   4   58.09    4.50
   4  -9   5   12.00    2.10
   4  -9   5   13.00    2.40
   4  -9   6   11.00    2.40
   4  -9   7    2.80    1.80
   4  -9   7   -0.20    1.60
  -4  -8  13   55.09    4.40
  -4  -8  12   12.30    3.20
  -4  -8  11   16.00    3.30
  -4  -8  10  113.49    8.00
  -4  -8   9   16.00    3.00
  -4  -8   9   22.10    3.00
  -4  -8   9   19.70    3.10
  -4  -8   8   63.49    5.30
  -4  -8   8   59.09    4.80
  -4  -8   7   52.59    4.60
  -4  -8   7   57.89    4.70
  -4  -8   6    8.20    2.20
  -4  -8   5   51.09    4.10
  -4  -8   4  110.69    6.00
  -4  -8   4  119.19    5.90
  -4  -8   3   63.19    4.00
   4  -8  -3   68.39    3.50
  -4  -8   3   67.09    4.20
  -4  -8   2  358.06   12.20
   4  -8  -2  359.16   11.80
  -4  -8   2  344.97   11.90
  -4  -8   1   40.30    2.90
   4  -8  -1   39.80    2.90
  -4  -8   1   36.50    2.60
  -4  -8   0   83.69    4.20
   4  -8   0   76.89    4.40
  -4  -8   0   81.89    3.80
  -4  -8   0   76.29    4.40
  -4  -8  -1  291.87    9.60
   4  -8   1  293.77   10.50
   4  -8   1  261.97    9.60
  -4  -8  -1  280.87   10.20
   4  -8   2  186.18    8.30
  -4  -8  -2  204.48    8.00
   4  -8   2  194.28    7.90
   4  -8   3   32.70    3.30
   4  -8   3   32.70    3.00
  -4  -8  -3   33.80    2.70
   4  -8   4    2.20    1.60
   4  -8   4    2.60    1.70
   4  -8   5   41.70    3.70
   4  -8   5   37.00    3.80
   4  -8   6   96.39    6.60
   4  -8   7    4.50    1.80
   4  -8   7    2.70    1.70
   4  -8   8   11.60    2.60
  -4  -7  13    5.60    1.90
  -4  -7  12   33.90    4.20
  -4  -7  11    7.40    2.60
  -4  -7  10   48.00    5.10
  -4  -7   9    2.80    1.50
  -4  -7   9    3.60    1.80
  -4  -7   9    4.80    2.10
  -4  -7   8   79.99    6.10
  -4  -7   8   88.39    5.80
  -4  -7   7   92.99    5.70
  -4  -7   7   90.59    6.10
  -4  -7   6    4.80    1.90
  -4  -7   5    2.80    1.60
  -4  -7   5    1.60    1.70
  -4  -7   4   37.00    3.30
  -4  -7   4   35.00    3.20
  -4  -7   3  121.89    6.10
   4  -7  -3  134.29    5.30
  -4  -7   3  130.19    5.90
  -4  -7   2  290.37   10.30
   4  -7  -2  292.27    9.90
  -4  -7   2  281.77   10.00
  -4  -7   1    6.20    1.40
  -4  -7   1    4.50    1.40
   4  -7  -1    8.90    1.60
  -4  -7   1    6.80    1.90
   4  -7   0   22.70    2.40
  -4  -7   0   20.90    1.80
  -4  -7   0   20.80    2.30
   4  -7   1   85.69    4.80
   4  -7   1   88.99    4.40
  -4  -7  -1   92.79    4.70
   4  -7   2  177.98    7.60
   4  -7   2  176.68    7.30
  -4  -7  -2  178.48    7.30
   4  -7   3  167.08    7.80
   4  -7   3  166.68    7.70
  -4  -7  -3  182.78    7.30
   4  -7   4   49.80    4.00
   4  -7   4   48.60    3.90
   4  -7   5   27.50    2.90
   4  -7   5   22.90    3.00
   4  -7   6   47.50    4.70
   4  -7   7  133.89    8.00
   4  -7   7  137.39    8.00
   4  -7   7  129.69    8.10
   4  -7   8   72.29    5.60
   4  -7   8   56.49    5.30
   4  -7   9   21.80    3.40
   4  -7   9   26.40    4.00
   4  -7  10   16.20    5.00
  -4  -6  13    6.70    2.00
  -4  -6  12    6.50    2.00
  -4  -6  11   36.80    4.60
  -4  -6  10   39.60    4.90
  -4  -6   9   89.99    7.10
  -4  -6   9  101.89    6.40
  -4  -6   9   93.89    6.90
  -4  -6   8   85.29    5.70
  -4  -6   8   81.69    6.10
  -4  -6   7  105.49    6.70
  -4  -6   7  105.79    6.40
  -4  -6   6   22.20    2.80
  -4  -6   5   19.40    2.60
  -4  -6   5   16.00    2.50
  -4  -6   4    4.30    1.80
  -4  -6   4    3.50    1.70
  -4  -6   3  540.25   17.40
   4  -6  -3  554.84   16.40
  -4  -6   2  380.16   12.70
   4  -6  -2  381.96   12.30
   4  -6  -1  264.57    9.30
  -4  -6   1  257.87    9.40
   4  -6   0   96.99    4.90
  -4  -6   0   93.59    4.70
   4  -6   1   66.09    4.00
  -4  -6  -1   69.29    3.90
   4  -6   1   57.59    3.50
   4  -6   2  426.36   14.20
  -4  -6  -2  423.56   13.80
   4  -6   2  413.26   14.00
   4  -6   3  146.49    6.90
   4  -6   3  148.69    7.00
  -4  -6  -3  144.19    6.30
   4  -6   4  112.59    6.00
   4  -6   4  113.99    6.30
   4  -6   5   77.99    5.10
   4  -6   5   81.89    5.60
   4  -6   6   39.70    4.20
   4  -6   7   38.50    4.10
   4  -6   7   28.20    3.60
   4  -6   7   36.00    4.10
   4  -6   8   35.20    4.10
   4  -6   8   26.60    3.70
   4  -6   8   33.60    4.10
   4  -6   8   32.20    3.90
   4  -6   9    3.70    1.80
   4  -6   9    4.50    2.60
   4  -6   9    3.10    1.70
   4  -6  10   -1.10    4.50
  -4  -5  13    1.60    1.60
  -4  -5  12   43.00    4.50
  -4  -5  11    4.50    2.30
  -4  -5  10    8.80    2.60
  -4  -5  10   11.20    2.30
  -4  -5   9    2.60    1.60
  -4  -5   9    3.10    1.90
  -4  -5   9   -1.70    1.80
  -4  -5   8   54.89    5.10
  -4  -5   8   54.99    4.40
  -4  -5   7  219.38   10.30
  -4  -5   7  222.88    9.80
  -4  -5   6   88.89    5.30
  -4  -5   5  162.78    7.60
  -4  -5   5  169.88    7.50
  -4  -5   4  128.19    6.10
  -4  -5   3  487.85   15.70
   4  -5  -2   33.60    2.40
  -4  -5   2   32.80    2.80
   4  -5  -1   46.40    3.00
  -4  -5   1   34.10    2.90
   4  -5   0  260.97    9.40
  -4  -5   0  263.67    9.40
   4  -5   1  241.48    9.20
   4  -5   1  249.48    8.90
  -4  -5  -1  244.88    9.00
   4  -5   2  528.45   17.10
   4  -5   2  539.05   17.00
  -4  -5  -2  526.65   16.60
   4  -5   3   85.69    5.00
  -4  -5  -3   91.39    4.70
   4  -5   3   89.39    5.10
   4  -5   4  399.06   14.10
   4  -5   4  391.56   14.60
   4  -5   5   58.59    4.30
   4  -5   5   60.89    4.90
   4  -5   6   40.90    4.10
   4  -5   7   31.20    3.70
   4  -5   7   23.90    3.20
   4  -5   7   26.10    3.70
   4  -5   8   14.40    2.70
   4  -5   8   13.90    2.80
   4  -5   8   12.60    2.70
   4  -5   8   19.90    3.20
   4  -5   9   13.20    2.70
   4  -5   9   11.90    3.80
   4  -5   9   14.30    2.80
   4  -5  10   14.80    4.70
  -4  -4  13   20.90    2.90
  -4  -4  12   11.30    2.90
  -4  -4  11   -2.80    2.10
  -4  -4  10    5.20    2.40
  -4  -4   9   17.60    3.00
  -4  -4   9   19.90    3.10
  -4  -4   9   18.80    2.70
  -4  -4   8   97.59    6.80
  -4  -4   8  103.19    6.30
  -4  -4   7   -2.70    1.70
  -4  -4   7   -2.20    2.20
  -4  -4   6  174.68    8.00
  -4  -4   5  115.29    6.00
  -4  -4   4   25.50    2.70
  -4  -4   3  137.59    6.10
   4  -4  -2    2.70    0.90
  -4  -4   2    2.00    1.40
   4  -4  -1   24.50    2.30
  -4  -4   1   27.10    2.40
   4  -4   0   40.40    2.80
  -4  -4   0   38.90    2.90
   4  -4   1   46.20    3.20
  -4  -4  -1   47.90    3.10
   4  -4   2   10.50    2.00
   4  -4   2    5.10    1.60
  -4  -4  -2    6.90    1.50
   4  -4   3  729.73   22.50
   4  -4   3  740.43   22.80
  -4  -4  -3  721.53   22.00
   4  -4   4  451.55   15.70
   4  -4   4  445.26   16.10
  -4  -4  -4  467.45   15.00
   4  -4   5  146.99    7.90
   4  -4   6  198.08    9.90
   4  -4   7   54.49    4.80
   4  -4   7   47.20    4.50
   4  -4   7   48.70    4.70
   4  -4   8    9.70    2.50
   4  -4   8    7.20    2.30
   4  -4   8   12.20    2.60
   4  -4   8    8.90    2.50
   4  -4   9   -0.20    1.60
   4  -4   9   -0.20    2.50
   4  -4   9    0.20    1.50
   4  -4  10   10.60    4.30
   4  -4  10    5.30    2.30
   4  -4  11   22.60    5.40
  -4  -3  13    2.30    1.50
  -4  -3  12    4.60    2.50
  -4  -3  11    8.10    2.70
  -4  -3  10   31.00    4.20
  -4  -3   9   37.80    4.50
  -4  -3   9   25.60    3.70
  -4  -3   9   31.40    3.50
  -4  -3   8   37.80    4.20
  -4  -3   8   44.80    4.00
  -4  -3   7   99.29    5.80
  -4  -3   7   91.69    6.10
  -4  -3   6   26.30    3.00
  -4  -3   6   32.10    3.20
  -4  -3   5   22.80    2.60
  -4  -3   4  260.17    9.70
  -4  -3   3  301.47   10.40
  -4  -3   2   37.60    3.10
   4  -3  -1    8.70    1.60
  -4  -3   1    7.30    1.60
   4  -3   0   83.79    4.30
  -4  -3   0   85.69    4.30
   4  -3   1  511.35   16.10
  -4  -3  -1  506.35   15.90
   4  -3   2  143.79    6.50
   4  -3   2  145.19    6.60
  -4  -3  -2  149.09    6.30
   4  -3   3   29.00    2.80
  -4  -3  -3   30.80    2.60
   4  -3   3   32.70    3.20
   4  -3   4  248.58    9.90
   4  -3   4  246.68   10.40
  -4  -3  -4  247.88    9.30
   4  -3   5   75.19    5.50
   4  -3   6    4.70    1.90
   4  -3   7    3.40    1.80
   4  -3   7    1.60    1.60
   4  -3   8   11.30    2.80
   4  -3   8    9.40    2.30
   4  -3   8    7.30    2.10
   4  -3   8   11.50    2.40
   4  -3   9   18.00    3.10
   4  -3   9   26.60    3.80
   4  -3   9   23.40    3.40
   4  -3  10   10.90    2.50
   4  -3  10   11.00    3.60
   4  -3  11    4.00    4.30
  -4  -2  13    1.10    1.30
  -4  -2  12   19.30    3.20
  -4  -2  11   19.40    3.30
  -4  -2  10   26.50    3.80
  -4  -2   9  113.79    7.80
  -4  -2   9  111.09    7.70
  -4  -2   8   26.30    3.00
  -4  -2   8   24.10    3.50
  -4  -2   7  182.18    9.20
  -4  -2   7  192.98    8.70
  -4  -2   6  459.55   15.70
  -4  -2   5  364.96   12.90
  -4  -2   4  180.28    7.50
  -4  -2   3  148.19    6.20
  -4  -2   2  227.08    8.20
  -4  -2   1  234.98    8.40
   4  -2  -1  222.88   12.00
   4  -2   0   83.69    4.30
  -4  -2   0   83.99    4.30
   4  -2   1   98.49    4.80
  -4  -2  -1   95.29    4.70
   4  -2   2  283.17   10.40
  -4  -2  -2  292.07   10.20
   4  -2   2  286.97   10.40
   4  -2   3  424.96   14.40
  -4  -2  -3  425.66   14.00
   4  -2   3  433.16   14.70
  -4  -2  -4  106.09    5.20
   4  -2   4  102.29    6.00
   4  -2   5    4.00    2.20
   4  -2   6   27.30    3.60
   4  -2   7   22.70    3.10
   4  -2   7   20.30    3.10
   4  -2   7   20.70    3.20
   4  -2   8    0.90    1.40
   4  -2   8    1.60    1.40
   4  -2   8    5.60    1.90
   4  -2   9    5.10    1.90
   4  -2   9    7.30    2.70
   4  -2   9    9.30    2.30
   4  -2  10    1.40    1.70
   4  -2  10    1.00    2.70
   4  -2  11    3.20    4.70
  -4  -1  13    2.00    1.30
  -4  -1  13   -2.20    1.70
  -4  -1  12   15.70    3.00
  -4  -1  11   16.30    3.20
  -4  -1  10  104.19    7.60
  -4  -1   9    9.60    2.40
  -4  -1   9   10.00    2.20
  -4  -1   8   32.30    3.30
  -4  -1   8   33.20    4.00
  -4  -1   7   19.10    3.10
  -4  -1   7   20.70    2.70
  -4  -1   6   88.79    5.10
  -4  -1   5  399.36   13.60
  -4  -1   4  521.95   16.50
  -4  -1   3  292.37   10.00
  -4  -1   2  246.28    8.70
   4  -1  -1   42.80    4.70
  -4  -1   1   30.80    2.50
  -4  -1   0  492.95   15.30
   4  -1   0  491.45   19.70
  -4  -1  -1  447.56   14.30
  -4  -1  -2  279.37    9.90
   4  -1   2  275.67   10.20
  -4  -1  -3  242.78    9.10
   4  -1   3  241.38    9.70
  -4  -1  -4  611.74   19.10
   4  -1   4  612.84   20.20
   4  -1   5  296.77   12.20
   4  -1   6   40.40    4.20
   4  -1   7    7.30    1.90
   4  -1   7    6.30    1.90
   4  -1   7    9.30    2.30
   4  -1   8   13.70    2.70
   4  -1   8   14.30    2.80
   4  -1   8   16.80    3.00
   4  -1   9   13.60    2.90
   4  -1   9    9.30    3.30
   4  -1   9   16.90    2.90
   4  -1  10    3.90    1.90
   4  -1  10    0.90    2.70
   4  -1  11    4.00    4.10
  -4   0  13    4.70    1.80
  -4   0  13    2.20    1.30
  -4   0  12    6.30    2.10
  -4   0  11   -2.10    2.00
  -4   0  10  130.19    8.50
  -4   0   9  217.78   11.20
  -4   0   9  205.98   11.00
  -4   0   8    7.90    1.80
  -4   0   8   13.60    3.10
  -4   0   7    4.80    2.40
  -4   0   6    2.70    1.40
  -4   0   5   -1.30    1.40
  -4   0   4   36.00    2.60
  -4   0   3   35.60    2.60
  -4   0   2   19.70    1.90
  -4   0   1  157.88    7.10
   4   0  -1  146.09    9.10
  -4   0   1  146.69    6.10
  -4   0   0   91.49    4.50
   4   0   0   98.59    7.10
  -4   0  -1  343.87   11.50
   4   0   2   13.80    2.20
   4   0   3   10.00    2.10
  -4   0  -4 1629.74   46.00
   4   0   4 1653.03   47.20
   4   0   5  390.36   14.80
   4   0   6   22.50    3.20
   4   0   7   50.19    4.70
   4   0   7   47.90    4.70
   4   0   8   13.00    2.60
   4   0   8   15.40    2.60
   4   0   8   11.20    2.50
   4   0   9    8.80    2.70
   4   0   9   11.70    2.40
   4   0   9    6.00    2.10
   4   0  10   14.70    2.80
   4   0  10   14.20    3.80
   4   0  11   17.20    4.20
  -4   1  13    2.90    1.40
  -4   1  12   17.20    2.70
  -4   1  11   20.60    3.40
  -4   1  10   99.59    7.10
  -4   1   9   15.20    2.50
  -4   1   9   15.90    3.30
  -4   1   9   13.20    2.50
  -4   1   8   32.70    3.40
  -4   1   8   31.30    3.90
  -4   1   7   18.10    3.10
  -4   1   6  102.79    5.40
  -4   1   5  391.46   13.30
  -4   1   4  534.15   16.20
  -4   1   3  298.77   10.00
  -4   1   2  262.47    9.00
  -4   1   1   34.20    2.60
  -4   1   1   38.10    3.10
   4   1  -1   36.10    4.30
  -4   1   0  514.55   18.30
  -4   1   0  488.65   15.50
   4   1   0  500.45   19.30
  -4   1  -1  447.56   18.20
   4   1   3  248.48    9.80
   4   1   4  622.34   20.50
   4   1   5  293.47   12.00
   4   1   6   35.10    3.80
   4   1   7    6.70    2.10
   4   1   7    5.70    2.20
   4   1   8   10.90    2.40
   4   1   8   17.20    3.00
   4   1   9    8.20    3.50
   4   1   9   15.80    2.70
   4   1   9   12.60    2.80
   4   1  10   -1.10    3.40
   4   1  10    1.00    1.30
   4   1  11    7.50    4.30
  -4   2  12   20.70    2.80
  -4   2  11   26.80    3.80
  -4   2  10   30.50    3.70
  -4   2  10   30.90    3.90
  -4   2   9  119.09    7.20
  -4   2   9  113.09    7.50
  -4   2   9  113.19    7.70
  -4   2   8   25.20    2.80
  -4   2   8   23.80    3.60
  -4   2   7  183.78    9.20
  -4   2   6  477.65   15.80
  -4   2   5  381.56   13.00
  -4   2   4  206.38    7.50
  -4   2   3  156.58    6.10
  -4   2   2  219.48    7.90
  -4   2   1  239.48    8.60
  -4   2   1  249.97    9.50
   4   2  -1  236.38   12.10
   4   2   0   83.59    6.30
  -4   2   0   88.89    5.80
  -4   2  -1   92.69    6.90
   4   2   3  416.16   14.40
   4   2   4  103.79    6.00
   4   2   5    4.90    2.20
   4   2   6   23.10    3.30
   4   2   7   18.40    2.70
   4   2   7   21.70    3.20
   4   2   8    5.00    2.00
   4   2   8    3.30    1.40
   4   2   9    2.70    1.70
   4   2  10   -2.00    3.40
   4   2  10    1.30    1.20
   4   2  11   -3.70    3.60
  -4   3  11    9.70    2.30
  -4   3  10   42.80    4.50
  -4   3  10   32.10    3.80
  -4   3   9   34.90    3.90
  -4   3   9   31.00    4.00
  -4   3   9   29.30    3.70
  -4   3   8   40.70    4.60
  -4   3   8   48.40    3.90
  -4   3   7   96.39    6.30
  -4   3   6   26.70    2.50
  -4   3   5   21.20    2.30
  -4   3   3  313.07   10.40
  -4   3   2   42.50    2.90
   4   3  -1   10.50    2.70
   4   3   0   90.99    6.40
  -4   3   0   92.19    6.10
  -4   3  -1  505.15   19.70
   4   3   3   31.60    3.20
   4   3   4  247.48   10.40
   4   3   5   86.79    5.70
   4   3   6    9.50    2.60
   4   3   7    2.20    1.40
   4   3   7    4.00    1.90
   4   3   8    6.80    2.30
   4   3   8   13.10    2.60
   4   3   9   15.60    3.00
   4   3  10    8.40    3.50
   4   3  11    8.20    3.90
   4   3  12    2.80    3.40
  -4   4  11    1.00    1.50
  -4   4  10    5.00    2.00
  -4   4   9   17.20    3.30
  -4   4   9   18.00    2.90
  -4   4   8  110.79    7.20
  -4   4   7    2.70    2.00
  -4   4   3  144.39    5.80
  -4   4   2    0.60    1.00
   4   4   0   32.40    3.70
  -4   4   0   36.30    3.90
  -4   4  -1   50.29    5.20
   4   4   4  442.16   15.70
   4   4   5  149.19    7.80
   4   4   6  204.98    9.90
   4   4   7   42.50    4.60
   4   4   7   52.49    4.90
   4   4   8    7.80    2.30
   4   4   8    7.20    2.00
   4   4   9   -0.60    1.60
   4   4  10    2.90    3.00
   4   4  11   20.60    3.90
   4   4  12    5.60    3.40
  -4   5  11    5.50    1.90
  -4   5  10   12.40    2.70
  -4   5   9    3.90    2.20
  -4   5   9    2.80    1.70
  -4   5   8   58.49    5.30
  -4   5   7  221.68   10.30
  -4   5   3  512.05   15.60
   4   5   0  252.67   11.70
  -4   5   0  257.57   11.90
   4   5   5   55.49    4.50
   4   5   6   43.40    4.20
   4   5   7   25.90    3.70
   4   5   7   26.00    3.50
   4   5   8   15.00    3.00
   4   5   9    8.30    2.10
   4   5  10   13.10    4.00
   4   5  11    2.30    2.70
   4   5  12    8.10    3.40
  -4   6  11   33.60    3.90
  -4   6  10   41.10    4.50
  -4   6   9   77.29    6.20
  -4   6   9   86.99    6.30
  -4   6   8   95.19    6.70
  -4   6   7  104.59    6.70
  -4   6   3  555.04   16.70
   4   6   7   29.30    3.80
   4   6   8   29.80    3.80
   4   6   9    2.20    1.50
   4   6  10   -1.60    3.30
   4   6  11    9.20    3.20
   4   6  12    2.70    3.20
  -4   7  11   10.90    2.40
  -4   7  10   50.99    4.90
  -4   7   9    5.40    2.10
  -4   7   9    1.90    1.70
  -4   7   8   97.69    6.70
  -4   7   7   83.29    5.90
  -4   7   3  132.29    5.40
   4   7   7  133.09    8.10
   4   7   7  117.79    7.30
   4   7   8   53.19    5.10
   4   7   9   17.30    2.90
   4   7  10   13.20    4.10
   4   7  11    2.00    2.80
   4   7  12   16.00    3.20
  -4   8  12   15.00    2.40
  -4   8  11   11.10    2.40
  -4   8  10  111.39    7.60
  -4   8   9   20.60    3.20
  -4   8   9   16.00    2.80
  -4   8   8   55.99    5.00
  -4   8   7   52.89    4.70
  -4   8   6    9.10    2.40
  -4   8   3   72.79    3.80
   4   8   7    5.80    2.20
   4   8   7    5.00    1.80
   4   8   8   12.40    2.80
   4   8   8    4.80    1.60
   4   8   9    1.80    1.50
   4   8  10    4.60    3.20
   4   8  11   12.40    3.40
   4   8  12    1.60    2.60
  -4   9  12   10.00    2.20
  -4   9  11    6.80    2.40
  -4   9  10    3.40    1.80
  -4   9   9  240.38   11.60
  -4   9   9  209.38   10.80
  -4   9   8  119.39    7.60
  -4   9   8  117.39    7.40
  -4   9   7   35.10    3.90
  -4   9   6   43.10    4.10
   4   9   7    0.40    1.40
   4   9   7   -1.00    1.40
   4   9   8   21.20    3.40
   4   9   8   22.10    3.20
   4   9   9   28.60    3.80
   4   9   9   29.90    3.60
   4   9  10    2.80    3.10
   4   9  11    3.10    2.60
  -4  10  12    9.20    2.40
  -4  10  11   91.89    6.40
  -4  10  10   36.70    4.40
  -4  10   9   22.20    3.20
  -4  10   8   37.60    3.90
  -4  10   8   29.80    3.60
  -4  10   7  149.88    8.30
  -4  10   6  106.79    6.40
   4  10   6   13.70    2.60
   4  10   7   29.40    3.90
   4  10   7   27.60    3.60
   4  10   8   11.60    2.50
   4  10   8   16.20    2.80
   4  10   9    3.10    1.80
   4  10   9    3.60    1.60
   4  10  10   -0.50    2.90
   4  10  11    0.40    2.20
  -4  11  12   23.80    3.00
  -4  11  11   10.00    2.70
  -4  11  10   15.40    2.90
  -4  11   9   11.90    2.70
  -4  11   8   20.90    3.00
  -4  11   8   19.00    3.00
  -4  11   7    7.90    2.20
  -4  11   6   69.19    5.00
   4  11   6   26.90    3.50
   4  11   6   20.40    3.00
   4  11   7    9.00    2.70
   4  11   7   13.60    2.60
   4  11   8   54.89    5.00
   4  11   8   48.60    4.80
   4  11   9   29.60    3.60
   4  11   9   26.70    3.40
   4  11  10    6.40    1.50
   4  11  10    5.20    3.00
   4  11  11    3.10    2.10
  -4  12  12    2.80    1.80
  -4  12  11   43.80    4.50
  -4  12  10   48.70    4.90
  -4  12   9   67.39    5.80
  -4  12   8    6.80    2.30
   4  12   6   20.50    2.90
   4  12   6   19.30    3.10
   4  12   7   31.90    3.80
   4  12   7   24.60    3.40
   4  12   8    6.20    1.90
   4  12   8    8.10    2.20
   4  12   9   20.30    3.00
   4  12   9   17.40    2.90
   4  12  10    5.60    1.70
   4  12  10    3.60    2.60
   4  12  11    1.30    2.10
  -4  13  12    3.30    1.60
  -4  13  11   -4.40    2.70
  -4  13  10    4.20    2.20
  -4  13   9    0.00    1.70
  -4  13   8    0.70    1.60
   4  13   6   16.10    2.80
   4  13   6   11.50    2.90
   4  13   7    0.90    1.70
   4  13   7   -1.90    2.00
   4  13   8    2.40    1.80
   4  13   8    5.80    2.40
   4  13   9   -4.20    2.10
   4  13   9    0.80    1.50
   4  13  10   10.50    2.10
   4  13  10    9.00    3.20
   4  13  11   -1.60    1.80
  -4  14  12   15.70    2.50
  -4  14  11  134.49    8.00
  -4  14  10   64.39    5.60
  -4  14   9   22.50    3.30
  -4  14   8   22.10    3.20
  -4  14   7   23.30    3.30
   4  14   6   61.29    5.20
   4  14   6   44.50    4.60
   4  14   7   35.70    4.10
   4  14   7   29.40    4.00
   4  14   8   19.60    3.00
   4  14   8   13.30    2.80
   4  14   9   13.00    2.70
   4  14  10    1.50    1.40
   4  14  10    0.70    2.30
   4  14  11   20.00    2.70
  -4  15  12    3.60    1.60
  -4  15  11   15.70    2.90
  -4  15  10   27.90    3.70
  -4  15   9   20.10    3.40
  -4  15   8   27.50    3.80
  -4  15   7   93.79    6.60
   4  15   5    4.90    1.60
   4  15   6   15.20    2.80
   4  15   7   16.90    3.00
   4  15   7   16.40    2.90
   4  15   8   10.90    2.60
   4  15   8    6.50    2.10
   4  15   9    0.40    1.80
   4  15  10    7.00    2.80
   4  15  10    6.60    1.90
   4  15  11   18.00    2.50
  -4  16  12    1.50    1.40
  -4  16  11   16.70    2.90
  -4  16  10   35.10    4.40
  -4  16   9   38.30    4.40
  -4  16   8   30.50    4.00
  -4  16   7    0.90    1.50
   4  16   5   78.79    6.00
   4  16   6   44.90    4.70
   4  16   7   14.50    2.90
   4  16   8    2.50    2.30
   4  16   9   28.50    3.50
   4  16  10    5.20    2.20
   4  16  10    2.30    1.60
  -4  17  12   24.80    2.70
  -4  17  11    6.60    2.40
  -4  17  10    5.50    2.30
  -4  17   9    8.00    2.50
  -4  17   8   20.80    3.20
   4  17  -7  107.59    7.00
  -4  17   7  107.29    7.20
  -4  17   6   69.29    5.40
   4  17   5   16.00    3.00
   4  17   6   41.10    4.60
   4  17   7   49.10    4.80
   4  17   8    6.70    2.60
   4  17   9    7.00    2.40
   4  17  10    3.80    2.00
   4  17  10    6.20    1.70
  -4  18  11    5.60    2.10
  -4  18  10   26.50    3.70
  -4  18   9   33.20    4.10
  -4  18   8    2.90    1.80
   4  18  -7   28.20    3.60
  -4  18   7   28.40    3.70
   4  18  -6   13.70    2.50
  -4  18   6   13.70    2.50
   4  18   5   22.80    3.30
   4  18   6    3.20    1.80
   4  18   7   22.30    3.60
   4  18   8    1.30    1.90
   4  18   9   -1.30    1.70
   4  18  10   12.10    2.20
   4  18  10   17.90    2.30
  -4  19  11   10.30    2.50
  -4  19  10    2.00    1.90
  -4  19   9   48.30    4.70
  -4  19   8    6.10    2.40
   4  19  -7   20.30    3.10
  -4  19   7   25.10    3.50
   4  19  -6    9.70    2.40
  -4  19   6   13.40    2.40
   4  19  -5    5.30    2.00
   4  19   4   19.10    3.00
   4  19   5   13.50    2.60
   4  19   6    9.10    2.80
   4  19   7   20.10    3.40
   4  19   8   20.70    3.40
   4  19   9   12.70    2.50
   4  19  10    1.60    1.50
   4  19  10    5.50    1.70
  -4  20  11    2.70    1.70
  -4  20  10    0.20    1.80
  -4  20   9    4.40    2.30
  -4  20   8   22.30    3.30
   4  20  -7   13.20    2.50
  -4  20   7   19.60    3.20
   4  20  -6   22.30    3.30
  -4  20   6   33.90    3.80
   4  20  -5   33.80    3.70
   4  20   4   24.10    3.50
   4  20   5    7.20    2.30
   4  20   6   19.90    3.30
   4  20   7    3.60    2.20
   4  20   8   13.40    2.90
   4  20   9    0.60    1.60
   4  20  10    1.90    1.10
  -4  21  11    2.10    1.70
  -4  21  10   -0.10    1.60
  -4  21   9   62.39    5.40
  -4  21   8  146.29    8.50
   4  21  -7    0.60    1.30
  -4  21   7    5.60    1.90
   4  21  -6   21.00    3.10
  -4  21   6   30.30    3.50
   4  21  -5  122.19    7.60
   4  21  -4   78.39    6.00
   4  21   2   62.29    5.00
   4  21   4   27.00    3.70
   4  21   5    0.30    1.70
   4  21   6    0.40    2.30
   4  21   7   16.40    3.30
   4  21   8   20.00    3.50
   4  21   9   15.90    2.60
   4  21  10    2.80    1.10
  -4  22  11    5.10    1.60
  -4  22  10    4.10    1.80
  -4  22   9   13.20    2.60
  -4  22   8   16.50    3.00
   4  22  -7   19.40    2.90
  -4  22   7   17.80    2.80
   4  22  -6   90.89    6.40
   4  22  -5   86.09    6.30
   4  22  -4    1.00    1.40
   4  22  -3   18.40    3.00
   4  22  -2  127.39    7.70
   4  22  -1   83.79    6.10
   4  22   0   39.90    4.10
   4  22   1   14.90    2.50
   4  22   2   39.40    4.00
   4  22   3   60.29    5.30
   4  22   3   66.29    5.30
   4  22   4   18.30    3.10
   4  22   5    6.70    2.20
   4  22   6    2.60    1.90
   4  22   7    8.00    2.50
   4  22   8   12.70    2.60
   4  22   9    0.40    1.30
  -4  23  10    9.10    1.90
  -4  23   9    1.40    1.50
  -4  23   8   12.70    2.60
   4  23  -7    8.60    2.00
  -4  23   7   16.60    2.70
   4  23  -6   47.40    4.50
   4  23  -5   35.70    4.00
   4  23  -4   77.99    6.10
   4  23  -3    2.00    1.70
   4  23  -2   27.40    3.50
   4  23  -1   48.10    4.70
   4  23   0  206.28   10.50
   4  23   1   29.90    3.50
   4  23   2   13.40    2.50
   4  23   2    9.40    2.30
   4  23   3    2.40    1.60
   4  23   3    4.20    2.00
   4  23   4    2.10    1.90
   4  23   5   38.10    4.30
   4  23   6    4.80    2.30
   4  23   7   58.39    5.10
   4  23   8   36.60    3.70
   4  23   9   -0.80    1.50
  -4  24  10    9.70    2.00
  -4  24   9   10.60    2.20
  -4  24   8   31.00    3.50
   4  24  -7   38.60    3.90
   4  24  -6    7.70    2.00
   4  24  -5    0.50    1.50
   4  24  -4   10.00    2.50
   4  24  -3  117.89    7.60
   4  24  -2   10.40    2.60
   4  24  -1   64.89    5.50
   4  24   0   90.69    6.50
   4  24   1   15.30    3.00
   4  24   2   11.80    2.50
   4  24   3   26.10    3.40
   4  24   3   23.10    3.10
   4  24   4    1.50    1.50
   4  24   5    8.10    2.30
   4  24   6   50.59    4.80
   4  24   7   57.99    4.80
   4  24   8    7.80    2.10
   4  24   9    1.40    1.30
  -4  25   9    3.30    1.50
  -4  25   8   16.70    2.50
   4  25  -6   24.30    3.30
   4  25  -5   13.10    2.90
   4  25  -4   29.90    3.90
   4  25  -3   47.00    4.70
   4  25  -2   61.99    5.40
   4  25  -1   54.19    5.00
   4  25   0   21.50    3.30
   4  25   1   39.10    4.20
   4  25   2   25.10    3.40
   4  25   3    2.70    1.60
   4  25   3    6.60    2.20
   4  25   4    5.90    2.10
   4  25   5    1.40    1.60
   4  25   6   29.50    3.60
   4  25   7   11.20    2.40
   4  25   8   -0.20    1.40
   4  25   9    0.60    0.90
  -4  26   9    2.60    1.20
   4  26  -6   62.19    5.00
   4  26  -5   25.00    3.40
   4  26  -4    3.00    1.80
   4  26  -3   -0.20    1.70
   4  26  -2   20.70    3.40
   4  26  -1   66.09    5.70
   4  26   0   18.50    3.00
   4  26   1   33.70    4.10
   4  26   2    4.20    1.90
   4  26   3    0.70    1.50
   4  26   3    2.50    1.70
   4  26   4    0.30    1.60
   4  26   5   26.30    3.30
   4  26   6   64.69    5.10
   4  26   7    4.60    1.80
   4  26   8    5.60    1.70
   4  27  -6   14.40    2.50
   4  27  -5   22.70    3.30
   4  27  -4   24.30    3.70
   4  27  -3   56.09    5.00
   4  27  -2    8.50    2.40
   4  27  -1    5.20    2.00
   4  27   0   27.70    3.70
   4  27   1   23.70    3.40
   4  27   2   24.50    3.50
   4  27   3    8.30    2.20
   4  27   4    5.80    1.80
   4  27   4    6.00    1.90
   4  27   5    8.10    2.10
   4  27   6    8.80    2.20
   4  27   7    4.20    1.60
   4  27   8    9.90    1.60
   4  28  -6   17.20    2.60
   4  28  -5   18.60    2.90
   4  28  -4   61.89    5.30
   4  28  -3   52.09    4.90
   4  28  -2    8.70    2.90
   4  28  -1   12.00    2.50
   4  28   0   22.60    3.40
   4  28   1   14.40    2.80
   4  28   2    9.80    2.50
   4  28   3    0.60    1.70
   4  28   4   23.00    2.90
   4  28   4   26.40    3.10
   4  28   5    4.90    1.50
   4  28   6   -0.70    1.50
   4  28   7   15.60    2.10
   4  29  -6   16.10    2.40
   4  29  -5   54.69    4.70
   4  29  -4    7.80    2.20
   4  29  -3    5.90    2.50
   4  29  -2   50.19    4.80
   4  29  -1   21.00    3.40
   4  29   0   30.20    3.90
   4  29   1   29.30    3.70
   4  29   2    6.20    2.40
   4  29   3   39.50    4.20
   4  29   4    7.10    1.80
   4  29   5   20.90    2.70
   4  29   6   11.30    1.90
   4  29   7    6.90    1.50
   4  30  -6   11.80    1.90
   4  30  -5   11.80    2.30
   4  30  -4   20.10    3.20
   4  30  -3   12.00    2.70
   4  30  -2   38.00    4.20
   4  30  -1   86.09    6.40
   4  30   0    2.40    2.40
   4  30   1   21.60    3.50
   4  30   2   12.90    2.70
   4  30   3    7.50    2.20
   4  30   4   54.19    4.10
   4  30   6    0.00    0.90
   4  31  -6   10.80    1.90
   4  31  -5   15.00    2.50
   4  31  -4   -1.70    1.70
   4  31  -3    8.40    2.20
   4  31  -2    2.30    1.70
   4  31  -1   14.80    3.20
   4  31   0   18.90    3.40
   4  31   1    1.30    2.00
   4  31   2   -1.00    1.80
   4  31   3   27.20    3.20
   4  31   4    9.40    1.90
   4  32  -5    2.00    1.30
   4  32  -4    5.40    2.00
   4  32  -3   11.50    2.40
   4  32  -2   19.10    3.20
   4  32  -1   10.70    2.80
   4  32   0    3.50    2.20
   4  32   1   33.60    3.70
   4  32   2   -0.50    1.60
   4  32   3   -0.70    1.40
   4  32   4   10.40    1.70
   4  33  -5   -1.00    1.20
   4  33  -4    9.20    2.00
   4  33  -3   15.20    2.70
   4  33  -2   11.40    2.50
   4  33  -1    0.60    1.80
   4  33   0    0.50    2.00
   4  33   1   23.90    3.30
   4  33   2   10.90    2.20
   4  33   3   12.30    2.10
   4  33   4    6.30    1.30
   4  34  -5    0.20    0.90
   4  34  -4    1.20    1.20
   4  34  -3   29.20    3.10
   4  34  -2   43.50    4.00
   4  34  -1   24.30    3.20
   4  34   0   13.80    2.60
   4  34   1    3.00    1.70
   4  34   2    4.40    1.50
   4  34   3    6.30    1.50
   4  35  -4    8.60    1.60
   4  35  -3    1.70    1.30
   4  35  -2    6.40    1.80
   4  35  -1    3.10    1.60
   4  35   0    6.40    2.00
   4  35   1    7.50    1.90
   4  35   2   21.50    2.60
   4  35   3    2.60    1.10
   4  36  -3    9.30    1.60
   4  36  -2   27.00    2.70
   4  36  -1    2.30    1.30
   4  36   0    8.40    1.80
   4  36   1    9.20    1.70
   4  36   2    8.90    1.60
   4  37  -2   13.70    1.80
   4  37  -1    1.60    1.10
   4  37   0    0.60    1.00
   4  37   1   10.00    1.50
   5 -35  -1    0.00    1.00
   5 -35   0    5.00    1.40
   5 -35   1    3.10    1.30
   5 -35   2    4.30    1.30
   5 -34  -1   28.50    2.80
   5 -34   0   19.50    2.50
   5 -34   1    4.80    1.40
   5 -34   2    4.20    1.70
   5 -34   3   -0.30    1.00
  -5 -33   5    9.80    1.60
   5 -33  -2    6.30    1.50
   5 -33  -1    9.30    2.00
   5 -33   0    6.10    1.60
   5 -33   1   12.70    2.30
   5 -33   2    2.50    1.50
   5 -33   3    2.60    1.50
   5 -33   4    0.60    0.90
  -5 -32   7    4.40    1.40
  -5 -32   6    0.60    1.10
  -5 -32   5    2.10    1.30
   5 -32  -2   34.20    3.30
   5 -32  -1   23.60    3.10
   5 -32   0   11.50    2.60
   5 -32   1   12.70    2.40
   5 -32   2    7.40    2.00
   5 -32   3   12.10    2.30
   5 -32   4    5.30    1.50
  -5 -31   7   21.50    2.40
  -5 -31   6   33.50    3.10
  -5 -31   5    6.80    1.70
   5 -31  -2   13.50    2.30
   5 -31  -1   25.80    3.20
   5 -31   0   -0.10    1.80
   5 -31   1   20.60    3.20
   5 -31   2   44.80    4.30
   5 -31   3   -1.10    1.60
   5 -31   4    1.10    1.20
  -5 -30   8   14.40    1.90
  -5 -30   7    1.20    1.30
  -5 -30   6    6.80    1.90
  -5 -30   5   13.40    2.30
  -5 -30   4    8.60    1.90
   5 -30  -2   22.20    3.10
   5 -30  -1   14.60    2.70
   5 -30   0    5.50    2.20
   5 -30   1    0.50    2.30
   5 -30   2    5.00    2.40
   5 -30   3    5.60    2.00
   5 -30   4    6.10    1.70
   5 -30   5    0.70    1.10
  -5 -29   8    1.00    1.30
  -5 -29   7    2.60    1.90
  -5 -29   6   10.30    2.30
  -5 -29   5    6.90    2.10
  -5 -29   4   32.40    3.50
   5 -29  -2    4.20    1.90
   5 -29  -1    0.80    1.60
   5 -29   0    7.50    2.60
   5 -29   1   25.40    3.60
   5 -29   2   51.69    4.90
   5 -29   3   20.60    3.20
   5 -29   4    3.20    1.90
   5 -29   5    4.30    1.50
  -5 -28   9    2.30    1.10
  -5 -28   8   13.50    2.30
  -5 -28   7   11.20    2.40
  -5 -28   6   15.00    2.70
  -5 -28   5   26.60    3.40
  -5 -28   4   30.60    3.60
   5 -28  -2   12.70    2.20
   5 -28  -1    5.80    2.20
   5 -28   0   12.10    2.50
   5 -28   1   20.00    3.30
   5 -28   2   27.70    3.90
   5 -28   3   11.60    2.60
   5 -28   4    7.70    2.10
   5 -28   5   15.80    2.30
  -5 -27   9    2.40    1.40
  -5 -27   8    7.00    2.10
  -5 -27   7   11.00    2.30
  -5 -27   6    4.40    2.00
  -5 -27   5   54.99    5.10
  -5 -27   4   46.70    4.60
   5 -27  -2   37.40    4.20
   5 -27  -1   25.30    3.60
   5 -27   0  102.99    7.10
   5 -27   1   39.60    4.40
   5 -27   2   62.19    5.40
   5 -27   3   53.59    4.90
   5 -27   4   12.10    2.60
   5 -27   5   46.90    3.90
  -5 -26  10   12.00    1.70
  -5 -26   9   39.40    3.50
  -5 -26   8   15.80    2.90
  -5 -26   7   15.70    3.00
  -5 -26   6   13.80    2.80
  -5 -26   5   19.10    3.30
  -5 -26   4   54.89    4.80
   5 -26  -3   53.09    4.80
   5 -26  -2   11.10    2.50
   5 -26  -1    0.00    1.70
   5 -26   0   12.40    2.20
   5 -26   1    5.10    2.30
   5 -26   2    5.00    2.90
   5 -26   3   10.70    2.30
   5 -26   4   12.30    2.90
   5 -26   5   10.20    2.30
  -5 -25  10   20.10    2.30
  -5 -25   9    1.70    1.60
  -5 -25   8   12.30    2.70
  -5 -25   7   11.30    2.90
  -5 -25   6    0.80    1.80
  -5 -25   5   43.70    4.50
  -5 -25   4    3.90    2.00
   5 -25  -3   33.50    3.70
   5 -25  -2   39.90    4.30
   5 -25  -1   41.00    4.30
   5 -25   0   22.40    3.60
   5 -25   1   75.29    6.20
   5 -25   2    9.80    2.50
   5 -25   2   14.20    3.20
   5 -25   3   19.30    3.20
   5 -25   3   25.10    3.60
   5 -25   4   23.00    3.50
   5 -25   5    3.30    1.50
  -5 -24  10    0.50    1.20
  -5 -24   9    6.50    2.10
  -5 -24   8   10.60    2.70
  -5 -24   7   21.60    3.70
  -5 -24   6   30.70    3.90
  -5 -24   4   73.09    5.80
   5 -24  -3    8.20    2.10
   5 -24  -2    1.90    1.80
   5 -24  -1   28.70    3.40
   5 -24  -1   33.80    4.20
   5 -24   0   37.20    3.80
   5 -24   0   40.80    4.40
   5 -24   1    3.70    2.10
   5 -24   1    4.10    2.00
   5 -24   2   35.50    4.20
   5 -24   2   31.80    4.00
   5 -24   3    4.90    2.30
   5 -24   3    1.60    1.90
   5 -24   4   28.70    3.50
   5 -24   4   28.60    3.70
   5 -24   5   19.10    2.80
  -5 -23  10    8.90    2.00
  -5 -23   9   -0.60    2.00
  -5 -23   8    2.10    2.40
   5 -23  -3   51.99    4.70
   5 -23  -2    7.50    2.00
   5 -23  -1   15.50    2.70
   5 -23  -1   12.30    2.70
   5 -23   0    1.20    1.30
   5 -23   0    4.60    2.50
   5 -23   1    8.00    2.30
   5 -23   1    5.80    2.20
   5 -23   1    8.30    2.60
   5 -23   2   64.39    5.60
   5 -23   2   65.39    5.60
   5 -23   3   10.50    2.50
   5 -23   3    9.10    2.50
   5 -23   4   40.90    4.10
   5 -23   4   34.40    4.00
   5 -23   5   24.50    3.00
  -5 -22  11    5.80    1.30
  -5 -22  10   14.10    2.50
  -5 -22   9    1.00    2.10
  -5 -22   4    3.00    1.60
  -5 -22   3   36.30    3.90
   5 -22  -3   36.80    3.80
   5 -22  -2   12.50    2.40
   5 -22  -1   21.40    2.80
   5 -22  -1   20.70    3.10
   5 -22   0  112.49    7.20
   5 -22   0  127.39    8.00
   5 -22   0  120.49    7.70
   5 -22   1   12.60    2.60
   5 -22   1   13.50    2.80
   5 -22   1   15.50    2.90
   5 -22   2    3.50    1.80
   5 -22   2    5.40    2.20
   5 -22   2    5.60    2.20
   5 -22   3   16.70    2.80
   5 -22   3   13.10    3.10
   5 -22   4   18.70    2.90
   5 -22   5   18.80    2.90
  -5 -21  11   13.20    1.90
  -5 -21  10    2.50    1.90
  -5 -21   9    8.80    2.20
  -5 -21   5    3.90    1.70
  -5 -21   4   61.79    5.30
  -5 -21   3   20.50    3.00
   5 -21  -3   15.20    2.40
   5 -21  -2   94.09    6.50
   5 -21  -1   50.39    4.50
   5 -21  -1   49.80    4.90
   5 -21   0    8.30    2.20
   5 -21   0    8.60    2.30
   5 -21   0    4.20    1.80
   5 -21   1    6.50    2.00
   5 -21   1   10.40    2.40
   5 -21   1    8.50    2.20
   5 -21   2   10.50    2.70
   5 -21   2    5.40    1.60
   5 -21   2    9.50    2.60
   5 -21   3   12.80    2.60
   5 -21   3   16.80    2.90
   5 -21   4    8.00    2.30
   5 -21   5   34.10    3.80
  -5 -20  11   37.70    3.10
  -5 -20  11   35.40    3.00
  -5 -20  10    0.80    1.60
  -5 -20  10   -2.00    1.40
  -5 -20   5    0.70    1.70
  -5 -20   4   17.30    3.00
   5 -20  -3   89.59    6.20
  -5 -20   3   97.19    6.30
   5 -20  -2  169.18    9.10
   5 -20  -1   58.39    4.90
   5 -20  -1   58.29    5.10
   5 -20   0   64.59    5.20
   5 -20   0   63.29    5.20
   5 -20   0   55.79    5.00
   5 -20   1   15.60    2.90
   5 -20   1   17.60    2.80
   5 -20   1   14.20    2.70
   5 -20   2   19.30    3.00
   5 -20   2   21.40    3.20
   5 -20   2   17.00    3.10
   5 -20   3    7.30    2.30
   5 -20   3   13.20    2.60
   5 -20   3    7.20    2.20
   5 -20   4   51.29    4.90
  -5 -19  11   38.70    3.30
  -5 -19  11   33.50    3.00
  -5 -19  10    2.70    2.00
  -5 -19  10    2.60    1.70
  -5 -19   9    4.60    2.00
  -5 -19   6   16.00    2.90
  -5 -19   5   38.70    4.20
  -5 -19   4   43.70    4.30
  -5 -19   3   16.00    2.70
   5 -19  -1   59.59    4.90
   5 -19   0    3.20    1.60
   5 -19   1    8.10    2.20
   5 -19   1    9.90    2.30
   5 -19   1   12.80    2.50
   5 -19   2   45.30    4.40
   5 -19   2   42.10    4.20
   5 -19   2   39.70    4.40
   5 -19   3   17.50    2.90
   5 -19   3   15.90    2.60
   5 -19   3   21.40    3.30
   5 -19   4   15.00    2.70
   5 -19   4    7.30    2.10
  -5 -18  11    7.00    1.80
  -5 -18  11    9.00    1.80
  -5 -18  10   17.70    2.80
  -5 -18   9    7.00    2.00
  -5 -18   8   19.10    3.10
  -5 -18   6   52.49    4.90
  -5 -18   5   63.89    5.30
  -5 -18   4   23.00    3.30
  -5 -18   3   23.60    3.00
   5 -18  -2  164.48    8.10
   5 -18  -1   66.89    5.10
   5 -18   0  128.59    7.30
   5 -18   1   54.09    4.80
   5 -18   2   27.40    3.70
   5 -18   2   23.30    3.10
   5 -18   2   27.30    3.50
   5 -18   3    2.90    1.70
   5 -18   3    1.60    1.50
   5 -18   4    5.10    2.10
   5 -18   4    5.20    1.60
  -5 -17  12    0.20    1.00
  -5 -17  11   13.20    2.50
  -5 -17  11   11.70    2.00
  -5 -17  10   45.30    4.40
  -5 -17   9   12.40    2.80
  -5 -17   8   82.49    6.30
  -5 -17   7   80.19    6.10
  -5 -17   7   67.09    5.60
  -5 -17   6  125.39    7.70
  -5 -17   5   27.30    3.40
  -5 -17   4    8.90    2.30
  -5 -17   3   49.90    4.40
   5 -17  -2   37.90    3.50
  -5 -17   2   42.50    3.80
   5 -17  -1    7.50    2.00
   5 -17   0  125.69    7.20
   5 -17   1   40.50    4.30
   5 -17   2   14.80    2.80
   5 -17   3   18.40    3.10
   5 -17   3   19.70    3.00
   5 -17   4   27.00    3.50
   5 -17   4   24.00    3.30
   5 -17   5   27.80    3.60
  -5 -16  12   15.60    2.20
  -5 -16  11    3.10    1.50
  -5 -16  11    5.20    2.00
  -5 -16  10   39.30    4.30
  -5 -16   9  143.69    8.70
  -5 -16   8   72.09    5.90
  -5 -16   7   48.00    4.80
  -5 -16   7   48.10    4.60
  -5 -16   6   31.30    3.80
  -5 -16   5   12.50    2.60
  -5 -16   4   85.29    5.90
  -5 -16   3   58.89    4.60
  -5 -16   2   12.70    2.20
   5 -16  -2   15.90    2.40
   5 -16  -1   95.29    5.90
   5 -16   0   34.70    3.70
   5 -16   1   52.69    4.60
   5 -16   2   10.50    2.50
   5 -16   3   17.10    2.90
   5 -16   3   22.70    3.00
   5 -16   4   27.40    3.40
   5 -16   4   36.30    3.80
   5 -16   5   10.30    2.40
  -5 -15  12    6.10    2.00
  -5 -15  11    4.50    2.20
  -5 -15  10   14.00    2.80
  -5 -15   9   -3.10    1.90
  -5 -15   8    9.60    2.50
  -5 -15   7    2.10    1.80
  -5 -15   7   -2.10    1.70
  -5 -15   6   11.80    2.30
  -5 -15   6   12.10    2.50
  -5 -15   5  156.18    8.30
  -5 -15   4   21.50    2.90
  -5 -15   3    1.40    1.50
   5 -15  -2   38.30    3.40
  -5 -15   2   44.90    3.70
   5 -15  -1    0.30    1.40
   5 -15   0  187.88    8.90
   5 -15   1  229.78   10.40
   5 -15   2   17.20    2.80
   5 -15   3   18.20    3.20
   5 -15   4   11.50    2.50
   5 -15   4   12.50    2.30
   5 -15   5   38.40    4.10
  -5 -14  12    0.00    1.60
  -5 -14  11    6.40    2.10
  -5 -14  10   22.50    3.50
  -5 -14   9   74.09    6.30
  -5 -14   8   25.40    3.70
  -5 -14   8   28.90    3.60
  -5 -14   7   -0.10    1.50
  -5 -14   7    1.50    1.70
  -5 -14   6   13.10    2.40
  -5 -14   5   44.10    4.20
  -5 -14   4  342.87   13.50
  -5 -14   3  159.48    7.90
  -5 -14   2   40.80    3.50
   5 -14  -2   41.60    3.50
   5 -14  -1   72.99    4.90
   5 -14   0   14.40    2.40
   5 -14   1   86.49    5.80
   5 -14   2   27.20    3.40
   5 -14   3   10.70    2.50
   5 -14   4    4.40    2.10
   5 -14   5    7.80    2.10
  -5 -13  13   12.10    1.80
  -5 -13  12    0.20    1.60
  -5 -13  11    6.30    2.30
  -5 -13  10   59.09    5.30
  -5 -13   9   32.80    4.20
  -5 -13   8   35.90    4.40
  -5 -13   8   41.90    4.30
  -5 -13   7   25.80    3.50
  -5 -13   7   22.90    3.10
  -5 -13   6   43.80    4.20
  -5 -13   5  122.59    7.10
  -5 -13   4   73.49    5.10
  -5 -13   3   78.69    5.10
  -5 -13   2   79.69    4.80
   5 -13  -2   75.39    4.80
   5 -13  -1  173.58    8.10
  -5 -13   1  165.78    7.60
   5 -13   0  103.99    6.10
   5 -13   1   33.60    3.70
   5 -13   2  170.08    8.60
   5 -13   3   55.49    4.60
   5 -13   4    9.30    2.40
   5 -13   5   35.90    3.90
   5 -13   6   38.60    3.90
  -5 -12  13    5.00    1.50
  -5 -12  12   12.90    2.70
  -5 -12  11    1.70    2.10
  -5 -12  10    3.90    2.00
  -5 -12   9   12.90    2.90
  -5 -12   8   59.19    5.20
  -5 -12   8   60.39    5.50
  -5 -12   7   51.59    5.00
  -5 -12   7   47.50    4.60
  -5 -12   6   49.90    4.50
  -5 -12   5   19.70    3.00
  -5 -12   4    6.90    2.00
  -5 -12   3   48.70    3.90
   5 -12  -2   52.49    3.80
  -5 -12   2   50.89    3.80
  -5 -12   2   48.00    3.90
   5 -12  -1   58.79    4.10
  -5 -12   1   49.90    3.70
   5 -12   0   35.60    3.40
  -5 -12   0   37.20    3.00
   5 -12   1  148.19    7.70
   5 -12   2   71.99    5.30
   5 -12   3   16.70    2.90
   5 -12   4   92.39    6.20
   5 -12   5    4.30    1.60
   5 -12   6   51.19    4.60
  -5 -11  13    0.50    1.20
  -5 -11  12    8.50    2.40
  -5 -11  11    8.50    2.60
  -5 -11  10    9.00    2.70
  -5 -11   9    4.10    2.10
  -5 -11   8   10.20    2.90
  -5 -11   8    7.00    2.30
  -5 -11   7   50.79    4.90
  -5 -11   7   66.59    5.20
  -5 -11   7   58.99    5.00
  -5 -11   6   30.30    3.40
  -5 -11   5   19.00    2.80
  -5 -11   4   64.49    4.70
  -5 -11   3  192.68    8.50
  -5 -11   3  196.58    8.80
   5 -11  -2   46.70    3.50
  -5 -11   2   45.20    3.60
  -5 -11   2   43.70    3.40
  -5 -11   1    7.00    1.80
  -5 -11   1    6.20    1.40
   5 -11  -1    7.30    1.70
   5 -11   0   41.00    3.70
  -5 -11   0   44.00    3.30
   5 -11   1  161.88    7.90
   5 -11   2  145.49    7.60
   5 -11   3   27.20    3.40
   5 -11   4   33.70    3.80
   5 -11   4   29.30    3.20
   5 -11   5  117.99    7.10
   5 -11   5  112.79    7.00
   5 -11   6   34.40    3.80
  -5 -10  13    6.30    1.70
  -5 -10  12    5.20    2.30
  -5 -10  11   34.00    4.20
  -5 -10  10   45.70    4.90
  -5 -10   9    4.20    2.30
  -5 -10   8   68.09    6.00
  -5 -10   8   88.29    6.30
  -5 -10   8   75.99    5.70
  -5 -10   7   21.50    3.10
  -5 -10   7   22.00    3.00
  -5 -10   6   38.90    3.80
  -5 -10   5  112.89    6.40
  -5 -10   4  192.88    8.50
  -5 -10   4  182.28    8.60
  -5 -10   3  100.39    5.60
  -5 -10   3   98.39    5.80
  -5 -10   2   21.20    2.60
   5 -10  -2   23.60    2.50
  -5 -10   2   22.70    2.50
  -5 -10   1  145.09    7.00
   5 -10  -1  153.88    7.30
  -5 -10   1  165.08    6.80
  -5 -10   0  109.49    5.50
   5 -10   0  115.49    6.10
   5 -10   1   69.49    4.80
   5 -10   2    3.30    1.70
   5 -10   3   13.80    2.60
   5 -10   3   13.60    2.20
   5 -10   4    2.80    1.70
   5 -10   4    5.20    1.80
   5 -10   5   13.50    2.60
   5 -10   5   12.90    2.50
   5 -10   6   40.30    4.20
  -5  -9  13   -1.10    1.50
  -5  -9  12   43.20    4.40
  -5  -9  11   31.30    4.20
  -5  -9  10   38.00    4.70
  -5  -9   9   15.40    2.50
  -5  -9   9    9.30    2.30
  -5  -9   9   10.80    3.00
  -5  -9   8   40.30    4.20
  -5  -9   8   39.00    4.40
  -5  -9   8   34.10    4.30
  -5  -9   7  143.69    8.20
  -5  -9   7  155.38    8.30
  -5  -9   6  201.78    9.40
  -5  -9   5   32.30    3.20
  -5  -9   4   44.80    3.90
  -5  -9   4   42.50    3.70
  -5  -9   3   71.19    4.60
  -5  -9   3   81.69    5.00
  -5  -9   2  144.09    7.00
   5  -9  -2  146.89    6.60
  -5  -9   2  148.99    6.70
  -5  -9   1  424.36   14.50
   5  -9  -1  425.16   14.70
  -5  -9   1  429.96   14.10
  -5  -9   0   36.50    3.00
   5  -9   0   36.80    3.40
   5  -9   1   50.39    4.00
  -5  -9  -1   43.50    3.70
   5  -9   2  148.79    7.60
  -5  -9  -2  147.39    7.20
   5  -9   3   45.50    4.20
   5  -9   3   37.60    3.50
  -5  -9  -3   43.20    3.50
   5  -9   4   25.30    3.20
   5  -9   4   23.80    3.00
   5  -9   5   75.39    5.40
   5  -9   5   65.09    5.20
   5  -9   6  102.19    6.90
  -5  -8  13    4.60    1.80
  -5  -8  12   16.30    3.00
  -5  -8  11   44.80    5.00
  -5  -8  10    0.10    2.30
  -5  -8   9   37.80    4.00
  -5  -8   9   28.90    3.70
  -5  -8   9   28.50    4.10
  -5  -8   8   33.30    3.80
  -5  -8   8   41.00    4.30
  -5  -8   8   33.90    4.20
  -5  -8   7   62.49    5.20
  -5  -8   7   68.99    5.30
  -5  -8   6   76.49    5.40
  -5  -8   5    8.30    2.40
  -5  -8   5    8.90    2.20
  -5  -8   4   51.09    4.20
  -5  -8   4   57.09    4.30
  -5  -8   3   16.90    2.50
  -5  -8   3   20.20    2.50
  -5  -8   2  893.51   26.80
   5  -8  -2  905.61   26.60
  -5  -8   2  865.91   26.40
  -5  -8   1  189.88    7.90
   5  -8  -1  183.18    7.90
  -5  -8   1  185.18    7.50
  -5  -8   0   89.89    4.90
   5  -8   0   95.29    5.50
  -5  -8   0  100.79    5.60
   5  -8   1   39.50    3.60
  -5  -8  -1   39.20    3.40
   5  -8   2   16.50    2.70
  -5  -8  -2   17.50    2.40
   5  -8   3  172.88    8.30
   5  -8   3  157.88    7.90
  -5  -8  -3  168.48    7.70
   5  -8   4   53.09    4.50
   5  -8   4   45.50    4.10
   5  -8   5   45.60    4.00
   5  -8   5   34.60    3.80
   5  -8   6    8.90    2.40
  -5  -7  13    3.20    1.60
  -5  -7  12   32.20    4.00
  -5  -7  11    3.70    2.50
  -5  -7  10    6.60    2.60
  -5  -7   9    1.80    1.60
  -5  -7   9   -1.80    1.90
  -5  -7   9    0.30    1.80
  -5  -7   8    7.80    2.00
  -5  -7   8    7.10    2.20
  -5  -7   8   11.50    2.50
  -5  -7   7   92.89    6.30
  -5  -7   7   88.39    5.90
  -5  -7   6  435.56   15.90
  -5  -7   5  161.68    8.10
  -5  -7   5  167.78    7.90
  -5  -7   4   93.89    5.40
  -5  -7   4   91.29    5.50
  -5  -7   3    1.70    1.50
  -5  -7   3    2.40    1.40
   5  -7  -2   18.40    2.10
  -5  -7   2   18.10    2.20
  -5  -7   2   15.10    2.00
   5  -7  -1   30.60    2.90
  -5  -7   1   34.00    2.80
  -5  -7   1   30.00    2.50
  -5  -7   1   32.00    3.30
   5  -7   0    8.80    2.00
  -5  -7   0   11.70    2.30
   5  -7   1    5.90    1.90
  -5  -7  -1    3.70    1.60
   5  -7   2   65.29    4.70
  -5  -7  -2   62.89    4.40
   5  -7   3   54.69    4.40
   5  -7   3   53.49    4.20
  -5  -7  -3   54.99    3.90
   5  -7   4   57.69    4.70
   5  -7   4   58.49    4.70
   5  -7   5    9.90    2.20
   5  -7   6   17.80    3.00
   5  -7   7   15.90    2.70
   5  -7   7   11.30    2.50
   5  -7   8    5.50    1.80
  -5  -6  13   30.30    3.20
  -5  -6  12   27.90    3.70
  -5  -6  11    1.30    2.20
  -5  -6  10   -0.20    1.90
  -5  -6   9    1.20    1.80
  -5  -6   9    0.00    1.30
  -5  -6   9    0.00    1.40
  -5  -6   8   50.99    5.10
  -5  -6   8   54.09    5.10
  -5  -6   8   52.59    4.60
  -5  -6   7   63.29    5.30
  -5  -6   7   72.09    5.10
  -5  -6   6   82.79    5.50
  -5  -6   5   89.79    5.40
  -5  -6   5   85.99    5.40
  -5  -6   4    3.70    2.00
  -5  -6   4    1.30    1.70
  -5  -6   3   59.89    4.20
  -5  -6   2    1.70    1.60
   5  -6  -2    4.20    1.20
  -5  -6   2    1.60    1.70
   5  -6  -1  175.88    7.60
  -5  -6   1  177.18    7.70
   5  -6   0  244.78    9.80
  -5  -6   0  251.27    9.70
   5  -6   1   10.60    2.30
  -5  -6  -1   10.90    2.00
   5  -6   2   27.80    3.20
  -5  -6  -2   25.40    2.90
   5  -6   3   25.00    3.10
  -5  -6  -3   21.80    2.50
   5  -6   3   21.20    2.80
   5  -6   4   83.79    5.60
   5  -6   4   93.89    5.90
   5  -6   5   64.99    5.30
   5  -6   6    1.10    1.50
   5  -6   6    0.70    1.70
   5  -6   7   -1.50    1.70
   5  -6   7    0.00    1.40
   5  -6   8   13.60    2.50
   5  -6   9    3.90    1.70
  -5  -5  13   14.90    2.40
  -5  -5  12    8.00    2.60
  -5  -5  11  105.59    7.50
  -5  -5  10   77.69    6.60
  -5  -5   9   51.29    5.00
  -5  -5   9   55.99    4.80
  -5  -5   9   44.70    5.10
  -5  -5   8   21.00    3.00
  -5  -5   8   21.80    3.40
  -5  -5   8   18.40    3.20
  -5  -5   7   33.10    3.60
  -5  -5   7   29.20    3.80
  -5  -5   6   23.30    3.10
  -5  -5   6   25.70    3.30
  -5  -5   5   66.89    4.70
  -5  -5   5   65.09    4.60
  -5  -5   4   10.90    2.60
  -5  -5   3   88.19    5.20
  -5  -5   2   51.99    3.90
   5  -5  -1  131.99    6.10
  -5  -5   1  124.79    6.30
   5  -5   0   59.79    4.10
  -5  -5   0   61.29    4.10
   5  -5   1   -0.60    1.70
  -5  -5  -1    2.00    1.60
   5  -5   2   12.90    2.50
  -5  -5  -2    9.90    2.00
   5  -5   3  133.69    7.00
   5  -5   3  139.99    7.10
  -5  -5  -3  128.09    6.50
   5  -5   4  169.48    8.40
   5  -5   5   17.20    2.80
   5  -5   6   23.80    3.30
   5  -5   6   18.40    3.10
   5  -5   7    7.40    2.10
   5  -5   7    6.30    2.20
   5  -5   8   12.80    2.50
   5  -5   9   24.70    3.30
  -5  -4  13   -1.00    1.60
  -5  -4  12    5.00    2.20
  -5  -4  11   18.70    3.00
  -5  -4  10   36.50    4.40
  -5  -4   9   11.60    2.70
  -5  -4   9   16.20    2.70
  -5  -4   9    7.90    2.40
  -5  -4   8  121.39    8.00
  -5  -4   8  111.79    7.60
  -5  -4   8  133.99    7.40
  -5  -4   7   19.70    2.80
  -5  -4   6   15.10    2.50
  -5  -4   6   16.10    2.60
  -5  -4   5   17.70    2.50
  -5  -4   4   41.30    3.60
  -5  -4   3    4.70    1.70
  -5  -4   3    3.90    1.60
  -5  -4   2  421.46   14.30
  -5  -4   1  168.88    7.30
   5  -4   0   65.19    4.20
  -5  -4   0   67.99    4.30
   5  -4   1    4.30    2.00
  -5  -4  -1    2.10    1.60
   5  -4   2   46.70    3.80
  -5  -4  -2   38.60    3.40
   5  -4   3  312.27   12.00
  -5  -4  -3  293.97   11.30
   5  -4   4  153.78    8.00
  -5  -4  -4  154.38    7.30
   5  -4   5   19.50    2.90
   5  -4   6   19.70    3.00
   5  -4   6   19.90    3.20
   5  -4   7   41.30    4.10
   5  -4   7   37.00    4.30
   5  -4   7   37.40    4.20
   5  -4   8    4.40    1.80
   5  -4   8    3.30    2.40
   5  -4   9    2.40    1.50
   5  -4   9   -0.20    2.10
   5  -4  10   -3.90    3.60
  -5  -3  13   38.50    3.60
  -5  -3  12   37.00    4.10
  -5  -3  11   74.59    6.10
  -5  -3  10   11.50    3.10
  -5  -3   9   15.00    3.00
  -5  -3   9   12.90    2.40
  -5  -3   9   13.40    2.90
  -5  -3   8   91.89    6.70
  -5  -3   8   88.59    6.40
  -5  -3   8   94.09    6.10
  -5  -3   7  132.89    7.40
  -5  -3   6   78.39    5.10
  -5  -3   5  155.38    7.50
  -5  -3   4   -0.90    1.50
  -5  -3   3   94.69    5.10
  -5  -3   2   22.30    2.50
  -5  -3   1    5.10    1.70
  -5  -3   0  241.78    9.40
  -5  -3  -1  423.56   14.30
  -5  -3  -2   99.09    5.40
   5  -3   3  111.09    6.20
  -5  -3  -3  108.69    5.90
   5  -3   4   99.29    6.10
  -5  -3  -4   92.49    5.30
   5  -3   5   53.49    4.70
   5  -3   6   23.30    3.20
   5  -3   6   22.30    3.30
   5  -3   7   10.50    2.60
   5  -3   7   12.80    2.70
   5  -3   8   24.40    3.50
   5  -3   8   22.80    3.60
   5  -3   9    9.50    2.30
   5  -3   9    7.20    2.50
   5  -3  10    3.70    3.10
  -5  -2  13   11.50    2.10
  -5  -2  12   21.30    3.30
  -5  -2  11   17.10    3.40
  -5  -2  10   28.70    4.00
  -5  -2   9  183.78   10.50
  -5  -2   9  187.48   10.40
  -5  -2   9  207.98    9.90
  -5  -2   8   85.29    6.50
  -5  -2   8   73.29    6.10
  -5  -2   8   82.79    5.70
  -5  -2   7   19.30    2.70
  -5  -2   6   61.79    4.70
  -5  -2   5   98.39    5.60
  -5  -2   4  189.48    8.20
  -5  -2   3  140.49    6.40
  -5  -2   2   37.70    3.10
  -5  -2   1   42.60    3.40
  -5  -2   0   33.90    3.10
  -5  -2  -1   74.69    4.50
  -5  -2  -2   11.70    2.00
  -5  -2  -3   17.30    2.40
   5  -2   4   42.40    4.00
  -5  -2  -4   46.50    3.70
   5  -2   5   26.20    3.40
   5  -2   6   23.10    3.40
   5  -2   6   25.90    3.50
   5  -2   7   36.80    4.20
   5  -2   7   39.00    4.30
   5  -2   8   10.40    2.70
   5  -2   9    1.70    1.40
   5  -2   9    5.20    2.50
   5  -2  10    8.70    3.10
   5  -2  11   -3.00    3.50
  -5  -1  13   -0.40    1.20
  -5  -1  12    2.90    1.70
  -5  -1  11   31.00    4.00
  -5  -1  10   22.30    3.60
  -5  -1   9   11.80    2.30
  -5  -1   9   13.60    3.00
  -5  -1   9   15.40    3.00
  -5  -1   8    8.30    2.10
  -5  -1   8    7.00    2.50
  -5  -1   8   10.70    2.70
  -5  -1   7    7.70    1.60
  -5  -1   6    0.20    1.30
  -5  -1   5   47.60    3.80
  -5  -1   4   56.19    3.70
  -5  -1   3   93.79    5.00
  -5  -1   2    6.00    1.80
  -5  -1   1   22.60    2.40
  -5  -1   0  229.88    8.90
  -5  -1  -1  232.08    9.20
  -5  -1  -2  165.98    7.50
  -5  -1  -3   77.19    4.70
  -5  -1  -4    7.90    1.60
   5  -1   4   11.20    2.50
   5  -1   5   42.10    4.30
   5  -1   6    1.30    1.50
   5  -1   6    3.70    2.20
   5  -1   7   11.10    2.40
   5  -1   7    9.70    2.30
   5  -1   8    1.90    1.60
   5  -1   9   -1.20    1.60
   5  -1   9    0.30    2.60
   5  -1  10    4.00    2.80
   5  -1  11    9.10    3.50
  -5   0  13    4.90    1.50
  -5   0  12   -0.10    1.40
  -5   0  11   -1.30    1.70
  -5   0  10    1.10    1.70
  -5   0   9    8.30    1.90
  -5   0   9    9.00    2.70
  -5   0   9   11.90    2.80
  -5   0   8   35.40    3.60
  -5   0   8   34.30    4.20
  -5   0   8   31.50    3.90
  -5   0   7   28.90    3.10
  -5   0   6   37.70    3.50
  -5   0   5    7.60    1.90
  -5   0   4   11.00    1.80
  -5   0   3   54.49    3.60
  -5   0   2  300.27   10.80
  -5   0   1  131.39    6.10
  -5   0   0   20.00    2.60
  -5   0  -1   34.50    3.10
  -5   0  -2    1.80    1.40
  -5   0  -3   30.70    3.00
  -5   0  -4   -0.20    1.20
   5   0   5   -1.10    2.00
   5   0   6    7.20    2.00
   5   0   6    9.00    2.40
   5   0   7   38.40    4.30
   5   0   7   39.30    4.30
   5   0   8    0.30    1.50
   5   0   9    2.10    1.50
   5   0   9    3.00    3.10
   5   0  10   -0.50    2.50
   5   0  11   16.90    3.80
  -5   1  12    2.90    1.60
  -5   1  11   24.70    3.50
  -5   1  10   25.30    3.70
  -5   1   9    6.70    2.10
  -5   1   9   14.30    2.80
  -5   1   8    6.10    1.80
  -5   1   8    7.20    2.30
  -5   1   8    3.90    1.80
  -5   1   7    4.30    1.60
  -5   1   6    3.60    1.60
  -5   1   5   48.60    3.80
  -5   1   4   54.49    3.60
  -5   1   3   88.29    4.70
  -5   1   2    5.50    1.60
  -5   1   1   26.20    2.70
  -5   1   0  233.58    9.00
  -5   1  -1  235.98    9.40
  -5   1  -2  170.08    7.60
  -5   1  -3   79.79    5.00
  -5   1  -4   10.30    1.90
   5   1   6    2.90    1.40
   5   1   6    2.90    2.00
   5   1   7   10.30    2.50
   5   1   8    1.60    1.80
   5   1   9   -2.10    1.70
   5   1   9    0.70    2.40
   5   1  10    1.90    2.50
   5   1  11    5.20    3.10
  -5   2  12   17.70    2.70
  -5   2  11   16.70    3.00
  -5   2  10   42.60    4.60
  -5   2   9  186.38   10.20
  -5   2   9  180.68   10.20
  -5   2   8   87.09    6.00
  -5   2   8   79.19    6.20
  -5   2   8   76.59    6.30
  -5   2   8   84.29    5.60
  -5   2   6   80.49    5.00
  -5   2   5   96.79    5.40
  -5   2   4  201.48    8.00
  -5   2   3  135.09    6.10
  -5   2   2   41.00    3.20
  -5   2   1   39.60    3.20
  -5   2   0   31.60    2.90
  -5   2  -1   71.79    4.50
  -5   2  -3   15.50    2.40
  -5   2  -4   37.30    3.50
  -5   2  -5   35.00    3.40
   5   2   6   26.80    3.60
   5   2   7   29.30    4.00
   5   2   8    4.40    1.80
   5   2   9    3.50    2.80
   5   2   9    4.20    1.90
   5   2  10    4.30    2.80
   5   2  11   -0.70    2.90
  -5   3  11   97.99    6.80
  -5   3  10   16.30    3.10
  -5   3   9   20.00    3.30
  -5   3   9   12.00    2.60
  -5   3   9   16.20    2.90
  -5   3   8   89.79    6.20
  -5   3   8   88.79    6.50
  -5   3   8   94.59    6.70
  -5   3   6   82.29    5.10
  -5   3   4   -0.60    1.00
  -5   3   3  109.19    5.20
  -5   3   2   18.10    2.10
  -5   3   1    6.00    1.70
  -5   3   0  235.08    9.30
  -5   3  -5   58.59    4.40
   5   3   6   24.90    3.50
   5   3   7    7.80    2.30
   5   3   8   17.60    3.00
   5   3   9    5.50    1.90
   5   3  10    2.60    2.50
   5   3  11    3.80    3.00
  -5   4   9   16.90    3.00
  -5   4   9   11.60    2.50
  -5   4   9   16.00    2.80
  -5   4   8  127.09    7.70
  -5   4   8  123.39    7.70
  -5   4   8  120.29    7.80
  -5   4   6   16.90    2.30
  -5   4   3    3.90    1.30
  -5   4   2  405.56   13.70
  -5   4   1  164.88    7.20
   5   4   6   17.10    2.80
   5   4   7   30.40    3.80
   5   4   8    2.80    1.70
   5   4   9    0.50    1.60
   5   4  10    2.50    2.60
   5   4  11   -2.20    2.70
  -5   5  10   80.39    6.20
  -5   5   9   55.49    5.40
  -5   5   9   48.40    4.90
  -5   5   8   23.30    3.70
  -5   5   8   16.50    2.70
  -5   5   7   38.20    4.30
  -5   5   3   98.19    4.90
  -5   5   2   62.09    4.00
   5   5   6   23.60    3.50
   5   5   7    6.40    2.30
   5   5   8   12.50    2.60
   5   5   9   20.50    3.20
   5   5  10   10.80    3.20
   5   5  11    6.70    2.80
  -5   6  10    2.70    2.00
  -5   6   9   -0.90    1.60
  -5   6   9    2.60    2.00
  -5   6   8   55.69    5.10
  -5   6   8   49.40    4.70
  -5   6   7   75.09    5.90
  -5   6   3   57.29    3.70
  -5   6   2    1.10    1.20
   5   6   6    0.50    1.40
   5   6   6    3.20    1.40
   5   6   7    1.70    1.80
   5   6   8   12.90    2.70
   5   6   9    4.20    1.80
   5   6  10    0.30    2.70
   5   6  11    9.90    2.80
  -5   7  10    7.00    2.60
  -5   7   9   -1.30    1.80
  -5   7   9    0.90    1.70
  -5   7   8   14.80    3.10
  -5   7   8    8.40    2.30
  -5   7   7   98.89    6.70
  -5   7   3    1.80    1.20
  -5   7   2   18.00    2.10
   5   7   6   16.20    2.80
   5   7   6   21.30    3.00
   5   7   7   18.30    3.20
   5   7   7   14.00    2.40
   5   7   8    3.30    1.70
   5   7   9   18.20    3.00
   5   7  10   15.10    3.30
   5   7  11    8.20    2.60
  -5   8  10    6.00    2.50
  -5   8   9   28.70    3.90
  -5   8   9   23.60    3.40
  -5   8   8   36.10    4.10
  -5   8   8   35.40    4.10
  -5   8   7   67.09    5.40
  -5   8   3   17.60    2.10
   5   8   6   10.30    2.30
   5   8   6   10.40    2.30
   5   8   7   14.30    2.90
   5   8   7    7.50    2.00
   5   8   8   49.99    5.00
   5   8   9    3.00    1.80
   5   8  10    3.30    2.60
   5   8  11    2.30    2.00
  -5   9  10   33.40    4.00
  -5   9   9   14.30    2.80
  -5   9   9    8.40    2.30
  -5   9   8   44.20    4.60
  -5   9   8   31.40    4.00
  -5   9   7  161.78    8.80
  -5   9   3   81.69    4.50
   5   9   6  106.89    7.30
   5   9   6  102.99    7.00
   5   9   7    6.60    2.30
   5   9   7    5.80    2.00
   5   9   8    3.00    1.70
   5   9   8    0.40    1.40
   5   9   9   -3.20    1.90
   5   9  10   10.30    3.40
   5   9  11    1.40    1.90
  -5  10  11   28.80    3.60
  -5  10  10   33.70    4.20
  -5  10   9    3.10    2.20
  -5  10   8   77.59    5.90
  -5  10   8   57.79    5.30
  -5  10   7   17.00    2.90
   5  10   5   12.50    2.60
   5  10   6   47.70    4.70
   5  10   6   47.70    4.70
   5  10   7    3.90    1.80
   5  10   7    4.70    2.20
   5  10   8    6.60    2.10
   5  10   8    5.60    2.10
   5  10   9    4.70    1.90
   5  10  10    1.60    2.90
   5  10  11    2.50    1.90
  -5  11  11    9.90    2.40
  -5  11  10    6.80    2.10
  -5  11   9    4.90    2.50
  -5  11   8   10.40    2.40
  -5  11   8    6.10    2.20
  -5  11   7   63.39    5.10
  -5  11   7   55.49    4.90
   5  11   5  120.59    7.60
   5  11   6   25.50    3.60
   5  11   6   32.10    4.00
   5  11   7   18.60    3.20
   5  11   7   25.20    3.50
   5  11   8    0.60    1.80
   5  11   8   -0.10    1.50
   5  11   9    7.40    2.00
   5  11   9   11.20    2.20
   5  11  10   17.60    3.20
   5  11  11    8.00    2.00
  -5  12  11    0.80    1.80
  -5  12  10    3.80    2.10
  -5  12   9   16.40    3.00
  -5  12   8   55.59    5.30
  -5  12   7   43.10    4.50
   5  12   5    5.70    1.80
   5  12   6   50.59    4.90
   5  12   6   50.09    5.00
   5  12   7   66.99    5.50
   5  12   7   59.59    5.30
   5  12   8   24.30    3.30
   5  12   8   20.70    3.30
   5  12   9   54.19    4.60
   5  12   9   54.49    4.40
   5  12  10    2.10    2.30
  -5  13  11    2.50    2.20
  -5  13  10   58.49    5.20
  -5  13   9   29.40    3.80
  -5  13   8   30.10    4.00
  -5  13   7   24.90    3.40
   5  13   5   34.00    3.90
   5  13   6   44.40    4.60
   5  13   6   36.80    4.20
   5  13   7   17.60    2.90
   5  13   7   17.10    3.00
   5  13   8    6.10    1.90
   5  13   8    6.30    2.20
   5  13   9    8.00    1.90
   5  13   9    7.40    2.00
   5  13  10    4.10    2.10
  -5  14  11    6.40    2.30
  -5  14  10   17.10    3.20
  -5  14   9   73.29    6.30
  -5  14   8   27.30    3.80
  -5  14   7    0.50    1.50
   5  14   5   10.40    2.70
   5  14   6   13.00    2.60
   5  14   6    7.60    2.40
   5  14   7   16.50    2.80
   5  14   7   14.10    2.90
   5  14   8   18.00    2.90
   5  14   8   19.00    3.10
   5  14   9   12.90    2.30
   5  14  10    6.60    1.40
   5  14  10    3.70    1.90
  -5  15  11   -0.80    1.90
  -5  15  10   17.00    3.40
  -5  15   9   -2.10    2.00
  -5  15   8   11.00    2.70
  -5  15   7    0.10    1.50
  -5  15   6   11.70    2.30
   5  15   5   44.20    4.50
   5  15   6    7.30    2.10
   5  15   6    5.30    1.70
   5  15   7    2.70    1.50
   5  15   7    5.30    2.20
   5  15   8   23.20    3.10
   5  15   8   32.10    3.90
   5  15   9    7.60    2.10
   5  15  10   17.80    2.00
   5  15  10   11.60    2.40
  -5  16  10   41.90    4.30
   5  16  -9  134.89    7.80
  -5  16   9  143.99    8.40
  -5  16   8   65.49    5.60
  -5  16   7   47.90    4.70
  -5  16   6   28.90    3.60
   5  16   5    6.50    2.50
   5  16   6    6.10    1.90
   5  16   6    5.00    2.20
   5  16   7   46.10    4.50
   5  16   7   52.09    5.10
   5  16   8   27.30    3.30
   5  16   8   26.90    3.60
   5  16   9   10.20    2.00
   5  16  10   12.50    2.20
   5  16  10   14.10    1.80
  -5  17  10   40.20    4.40
  -5  17   9    9.30    2.30
   5  17  -8   66.89    5.50
  -5  17   8   74.09    5.80
   5  17  -7   73.49    5.90
  -5  17   7   73.59    5.80
  -5  17   6  127.29    7.80
   5  17   5   22.30    3.50
   5  17   6    5.80    1.90
   5  17   7    9.40    2.30
   5  17   8   14.30    2.90
   5  17   9   19.30    2.60
   5  17  10    4.30    1.70
  -5  18  10   13.90    2.60
  -5  18   9    6.10    2.30
   5  18  -8   15.50    2.90
  -5  18   8   18.70    3.00
   5  18  -7   24.30    3.50
  -5  18   7   29.30    3.70
   5  18  -6   53.29    5.10
  -5  18   6   63.19    5.20
   5  18  -5   62.49    5.40
   5  18  -4   21.50    3.10
   5  18   5    3.10    2.00
   5  18   6    7.40    2.40
   5  18   7    9.20    2.30
   5  18   8    9.30    2.70
   5  18   9    2.20    1.40
  -5  19  10    4.10    2.40
  -5  19   9    4.30    2.10
   5  19  -8   30.70    3.80
  -5  19   8   35.60    4.00
   5  19  -7   -0.30    1.40
  -5  19   7   -0.50    1.40
   5  19  -6   21.00    3.30
  -5  19   6   21.10    3.00
   5  19  -5   37.90    4.20
   5  19  -4   41.40    4.40
   5  19  -3   12.80    2.50
   5  19   1   13.70    2.50
   5  19   5    9.40    2.30
   5  19   6   20.30    3.50
   5  19   7   15.00    2.90
   5  19   8    1.60    1.80
   5  19   9    7.40    1.90
  -5  20  10    1.10    1.70
  -5  20   9    0.70    1.80
   5  20  -8   10.80    2.40
  -5  20   8   27.20    3.50
   5  20  -7   16.10    3.10
  -5  20   7   21.40    3.20
   5  20  -6   12.20    2.60
  -5  20   6   18.00    2.90
   5  20  -5    0.50    1.40
   5  20  -4   15.20    2.70
   5  20  -3   89.59    6.50
   5  20  -2  184.68    9.70
   5  20  -1   61.79    5.20
   5  20   0   62.89    5.20
   5  20   1   13.70    2.40
   5  20   4   50.29    5.00
   5  20   5   23.90    3.60
   5  20   6   33.70    4.40
   5  20   7    4.30    2.50
   5  20   8   10.80    2.40
   5  20   9    3.70    1.60
   5  20   9   -1.20    1.20
  -5  21   9   11.30    2.30
   5  21  -8    1.50    1.30
  -5  21   8    2.00    1.80
   5  21  -7  113.39    7.50
  -5  21   7  145.49    8.10
   5  21  -6   48.40    4.60
   5  21  -5    8.00    2.50
   5  21  -4   65.09    5.60
   5  21  -3   18.00    3.00
   5  21  -2   90.69    6.60
   5  21  -1   46.50    4.60
   5  21   0    3.20    1.60
   5  21   1   12.80    2.50
   5  21   4   16.00    2.90
   5  21   5   33.50    4.10
   5  21   6    9.20    2.80
   5  21   7    7.40    2.50
   5  21   8    0.60    1.50
   5  21   9    7.00    1.60
  -5  22   9    1.40    1.50
   5  22  -8   20.20    2.80
  -5  22   8   16.10    2.70
   5  22  -7   31.50    3.70
  -5  22   7   37.50    3.90
   5  22  -6   16.60    3.10
   5  22  -5   11.00    2.50
   5  22  -4    1.30    1.60
   5  22  -3   38.10    4.30
   5  22  -2   12.00    2.60
   5  22  -1   26.60    3.60
   5  22   0  132.19    8.10
   5  22   1   15.80    2.70
   5  22   2    5.80    1.60
   5  22   3   19.30    3.20
   5  22   4   23.20    3.60
   5  22   5   21.80    3.40
   5  22   6   35.80    4.10
   5  22   7    5.60    2.40
   5  22   8    8.40    2.00
   5  22   9   -0.30    0.90
   5  23  -8    4.60    1.60
  -5  23   8    1.00    1.40
   5  23  -7    1.20    1.60
   5  23  -6   13.10    2.70
   5  23  -5   15.20    2.80
   5  23  -4   12.90    2.80
   5  23  -3   40.50    4.40
   5  23  -2    5.00    1.90
   5  23  -1   15.10    2.90
   5  23   0   -1.30    1.50
   5  23   1    6.90    2.10
   5  23   2   71.99    5.60
   5  23   3    9.80    2.20
   5  23   4   35.40    4.20
   5  23   5   28.30    3.60
   5  23   6    5.10    2.20
   5  23   7   11.30    2.40
   5  23   8    4.90    1.60
   5  24  -8    9.00    1.80
   5  24  -7   20.70    3.00
   5  24  -6   30.40    3.80
   5  24  -5   37.70    4.30
   5  24  -4   76.99    6.20
   5  24  -3    4.50    1.70
   5  24  -2    2.10    1.80
   5  24  -1   30.10    4.00
   5  24   0   44.70    4.60
   5  24   1    5.50    1.90
   5  24   2   37.10    4.00
   5  24   2   30.60    3.80
   5  24   3    3.00    1.90
   5  24   4   25.20    3.60
   5  24   5   24.30    3.40
   5  24   6   21.50    3.10
   5  24   7   17.50    2.80
   5  24   8   17.40    2.30
   5  25  -7   11.30    2.20
   5  25  -6    4.80    2.00
   5  25  -5   44.10    4.60
   5  25  -4    9.70    2.60
   5  25  -3   29.40    3.90
   5  25  -2   33.50    4.10
   5  25  -1   40.10    4.40
   5  25   0   19.30    3.30
   5  25   1   77.09    5.90
   5  25   2   14.00    2.70
   5  25   2    7.30    2.00
   5  25   3   25.20    3.40
   5  25   4   24.10    3.40
   5  25   5    8.30    2.30
   5  25   6    9.00    2.10
   5  25   7   20.00    2.70
   5  25   8    1.50    1.10
   5  26  -7   15.50    2.40
   5  26  -6   13.60    2.50
   5  26  -5   20.60    3.30
   5  26  -4   55.09    5.10
   5  26  -3   46.40    4.70
   5  26  -2   10.40    2.80
   5  26  -1    1.10    1.90
   5  26   0   16.50    3.10
   5  26   1    6.10    2.00
   5  26   2    3.40    1.60
   5  26   3    6.50    1.90
   5  26   4   12.90    2.50
   5  26   5    7.60    2.00
   5  26   6    0.40    1.40
   5  26   7   10.60    2.00
   5  27  -7   13.90    2.40
   5  27  -6    0.70    1.40
   5  27  -5   57.69    4.90
   5  27  -4   46.70    4.70
   5  27  -3   14.10    2.90
   5  27  -2   33.50    4.10
   5  27  -1   25.50    3.70
   5  27   0  108.09    7.20
   5  27   1   39.10    4.20
   5  27   2   60.99    5.00
   5  27   3   58.49    4.70
   5  27   4   14.10    2.50
   5  27   5   47.00    4.00
   5  27   6   33.70    3.10
   5  27   7    8.50    1.60
   5  28  -7   12.60    2.10
   5  28  -6   15.70    2.50
   5  28  -5   26.00    3.30
   5  28  -4   26.10    3.60
   5  28  -3    2.40    2.00
   5  28  -2    8.80    2.50
   5  28  -1    6.00    2.20
   5  28   0   12.40    2.70
   5  28   1   16.00    2.80
   5  28   2   30.00    3.70
   5  28   3    9.10    1.80
   5  28   4   10.60    1.80
   5  28   5   22.00    2.70
   5  28   6    5.10    1.50
   5  29  -7    0.30    1.10
   5  29  -6   12.50    2.30
   5  29  -5    6.70    1.90
   5  29  -4   29.60    3.70
   5  29  -3   58.19    5.20
   5  29  -2    6.50    2.40
   5  29  -1   -1.20    1.80
   5  29   0    5.80    2.20
   5  29   1   28.20    3.50
   5  29   2   57.79    4.80
   5  29   3   24.60    2.90
   5  29   4    3.80    1.40
   5  29   5    3.50    1.40
   5  29   6    5.30    1.30
   5  30  -6    6.90    1.60
   5  30  -5    9.90    2.10
   5  30  -4    9.50    2.00
   5  30  -3   20.00    3.10
   5  30  -2   18.60    3.40
   5  30  -1   15.00    3.00
   5  30   0    4.50    2.20
   5  30   1    6.70    2.10
   5  30   2    3.70    1.80
   5  30   3    5.70    1.70
   5  30   5    2.20    1.00
   5  31  -6   30.10    2.70
   5  31  -5    7.50    1.90
   5  31  -4   15.20    2.60
   5  31  -3   26.40    3.50
   5  31  -2   11.10    2.70
   5  31  -1   21.20    3.20
   5  31   0    3.70    2.00
   5  31   1   16.80    2.70
   5  31   2   41.00    3.70
   5  31   3    3.10    1.30
   5  32  -6   -1.10    0.90
   5  32  -5    5.20    1.60
   5  32  -4   17.10    2.60
   5  32  -3    4.70    1.70
   5  32  -2   32.00    3.70
   5  32  -1   26.50    3.40
   5  32   0    9.70    2.20
   5  32   1   14.40    2.60
   5  32   2    9.20    2.00
   5  32   3   10.00    1.60
   5  33  -5    7.10    1.40
   5  33  -4    2.70    1.40
   5  33  -3    2.90    1.80
   5  33  -2   10.80    2.40
   5  33  -1    7.70    2.10
   5  33   0    5.70    1.90
   5  33   1   11.50    2.10
   5  33   2    4.60    1.30
   5  33   3   -0.70    0.80
   5  34  -5    0.30    0.80
   5  34  -4    0.60    1.10
   5  34  -3    7.80    1.80
   5  34  -2   19.90    2.50
   5  34  -1   21.00    2.70
   5  34   0   17.50    2.40
   5  34   1    6.10    1.60
   5  34   2    4.60    1.20
   5  35  -4   -1.00    0.80
   5  35  -3    8.80    1.70
   5  35  -2   -0.50    1.30
   5  35  -1   -0.90    1.10
   5  35   0    7.40    1.70
   5  35   1    2.30    1.30
   5  36  -2    5.10    1.40
   5  36  -1   39.40    2.90
   5  36   0   12.30    1.70
   6 -34   0    6.50    1.40
   6 -33  -2    4.40    1.30
   6 -33  -1    3.20    1.30
   6 -33   0    3.70    1.60
   6 -33   1    5.50    1.50
   6 -33   2    5.10    1.40
   6 -32  -2    2.50    1.20
   6 -32  -1    1.80    1.40
   6 -32   0   11.10    1.90
   6 -32   1   10.70    1.90
   6 -32   2    6.10    1.70
   6 -32   3    4.70    1.20
   6 -31  -2    6.40    1.80
   6 -31  -1    4.80    1.40
   6 -31   0   19.50    2.70
   6 -31   1   19.10    2.60
   6 -31   2    2.10    1.40
   6 -31   3   15.20    2.10
  -6 -30   7    3.30    1.20
  -6 -30   6   16.20    2.10
  -6 -30   5    1.60    1.20
   6 -30  -2   -2.00    1.50
   6 -30  -1    2.80    1.70
   6 -30   0    1.60    1.80
   6 -30   1    3.60    1.80
   6 -30   2    1.70    1.80
   6 -30   3    4.50    1.70
   6 -30   4   -1.30    1.20
  -6 -29   7   11.70    1.90
  -6 -29   6    6.00    1.80
  -6 -29   5   13.90    2.10
   6 -29  -2    7.60    2.00
   6 -29  -1    3.80    1.60
   6 -29   0    1.70    1.80
   6 -29   1    8.30    2.50
   6 -29   2    0.70    1.70
   6 -29   3    1.90    1.70
   6 -29   4   10.80    1.90
  -6 -28   8   40.50    3.10
  -6 -28   7   28.10    3.00
  -6 -28   6   10.90    2.10
  -6 -28   5    3.00    1.60
   6 -28  -3    5.90    1.80
   6 -28  -2    6.10    2.00
   6 -28  -1   24.80    3.50
   6 -28   0   21.60    3.30
   6 -28   1   49.30    4.60
   6 -28   2   16.50    3.00
   6 -28   3    1.70    1.60
   6 -28   4    5.90    1.80
   6 -28   5   -1.70    1.00
  -6 -27   9    0.00    1.00
  -6 -27   8    7.40    1.70
  -6 -27   7    2.50    1.60
  -6 -27   6    0.70    1.40
  -6 -27   5   10.50    2.20
   6 -27  -3   31.40    3.50
   6 -27  -2    6.20    2.10
   6 -27  -1    8.40    2.40
   6 -27   0   13.50    2.80
   6 -27   1    6.40    2.50
   6 -27   2   20.30    3.50
   6 -27   3   28.90    3.50
   6 -27   4   25.90    3.00
   6 -27   5   28.40    2.60
  -6 -26   9   -2.10    1.40
  -6 -26   8   30.90    3.20
  -6 -26   7   65.49    4.90
  -6 -26   6   23.80    3.20
  -6 -26   5   10.90    2.50
   6 -26  -3   19.00    3.10
   6 -26  -2   80.79    6.00
   6 -26  -1   -0.50    1.60
   6 -26   0    9.80    2.80
   6 -26   1   15.90    2.90
   6 -26   2    9.50    2.50
   6 -26   3    5.10    2.30
   6 -26   4    0.10    1.40
   6 -26   5    0.90    1.10
  -6 -25   9    8.30    1.80
  -6 -25   8   11.10    2.30
  -6 -25   7   13.30    2.60
  -6 -25   6    4.40    1.70
  -6 -25   5    1.30    1.70
  -6 -25   4   25.00    3.20
   6 -25  -3   30.00    3.70
   6 -25  -2   16.60    2.80
   6 -25  -1    4.30    2.50
   6 -25   0    7.20    2.50
   6 -25   1    5.30    2.20
   6 -25   2   41.00    4.50
   6 -25   3   66.19    5.40
   6 -25   4   13.00    2.40
   6 -25   5   11.50    2.00
  -6 -24  10    4.10    1.30
  -6 -24   9    3.60    1.50
  -6 -24   8   19.50    3.00
  -6 -24   7   19.90    2.90
  -6 -24   6   13.10    2.80
  -6 -24   5    4.40    2.00
  -6 -24   4  103.09    6.70
   6 -24  -3   10.00    2.30
   6 -24  -2    3.30    1.80
   6 -24  -1   -1.30    2.00
   6 -24   0    5.80    2.30
   6 -24   1   69.69    5.90
   6 -24   2   10.70    2.70
   6 -24   3   19.90    3.40
   6 -24   4   10.60    2.20
   6 -24   5    4.30    1.40
  -6 -23  10    2.50    1.40
  -6 -23   9    4.40    1.90
  -6 -23   8   26.80    3.50
   6 -23  -3   29.60    3.60
   6 -23  -2   55.19    5.20
   6 -23  -1   54.19    5.10
   6 -23   0   17.80    3.30
   6 -23   1   18.80    3.20
   6 -23   2   12.50    2.90
   6 -23   3   19.50    3.10
   6 -23   4   46.80    4.30
   6 -23   5    5.50    2.00
  -6 -22  10   20.80    2.60
  -6 -22   9   14.60    2.90
   6 -22  -3   11.30    2.50
   6 -22  -2   26.30    3.60
   6 -22  -1   27.70    3.80
   6 -22   0   19.40    3.30
   6 -22   1   92.09    6.70
   6 -22   2    1.60    1.80
   6 -22   3   18.40    3.00
   6 -22   4   -0.50    1.70
  -6 -21  10   19.20    2.60
   6 -21  -3   21.30    3.10
   6 -21  -2   27.00    3.60
   6 -21  -1   13.60    2.60
   6 -21  -1   10.50    2.60
   6 -21   0   36.40    4.00
   6 -21   0   39.50    4.40
   6 -21   1   69.99    5.70
   6 -21   2    9.10    2.50
   6 -21   3    8.50    2.80
   6 -21   4   55.99    4.90
  -6 -20  11   10.40    1.70
  -6 -20  10    0.70    1.50
  -6 -20   4    4.20    1.80
   6 -20  -3    6.40    1.80
   6 -20  -2   11.20    2.60
   6 -20  -1   28.20    3.30
   6 -20  -1   21.70    3.10
   6 -20   0   94.99    6.50
   6 -20   0  104.19    7.10
   6 -20   1    0.50    1.50
   6 -20   1    4.70    2.00
   6 -20   2   40.10    4.40
   6 -20   3   23.70    3.50
   6 -20   4   15.10    2.80
  -6 -19  11   -1.50    1.10
  -6 -19  11    0.70    1.20
  -6 -19  10   38.10    3.50
  -6 -19   9   22.10    3.00
  -6 -19   5  103.59    6.90
  -6 -19   4   71.69    5.60
   6 -19  -3   17.70    2.80
   6 -19  -2   47.20    4.60
   6 -19  -1   64.19    5.20
   6 -19  -1   66.89    5.50
   6 -19   0   43.60    4.40
   6 -19   0   36.80    4.30
   6 -19   1    9.80    2.20
   6 -19   1   11.30    2.70
   6 -19   2    5.70    1.90
   6 -19   2    5.40    2.40
   6 -19   3    6.10    2.10
   6 -19   4   28.40    3.50
  -6 -18  11   33.50    3.10
  -6 -18  11   28.50    2.80
  -6 -18  10   35.30    3.50
  -6 -18   9   30.10    3.40
  -6 -18   8    2.80    2.00
  -6 -18   5   41.20    4.30
  -6 -18   4   52.79    4.70
   6 -18  -3    9.80    2.20
   6 -18  -2   26.60    3.40
   6 -18  -1   21.80    3.20
   6 -18  -1   17.00    2.90
   6 -18   0    5.30    2.10
   6 -18   0    4.00    1.80
   6 -18   1   41.70    4.30
   6 -18   1   40.80    4.40
   6 -18   2   23.50    3.40
   6 -18   2   23.30    3.40
   6 -18   3   24.10    3.40
   6 -18   4    2.40    1.40
  -6 -17  11   11.60    2.00
  -6 -17  11   12.90    2.20
  -6 -17  10   11.00    2.40
  -6 -17   9   10.70    2.40
  -6 -17   8   57.09    5.20
  -6 -17   7    8.30    2.20
  -6 -17   6   28.70    3.70
  -6 -17   5   24.90    3.30
  -6 -17   4   45.80    4.30
   6 -17  -3   43.10    4.20
  -6 -17   3   49.00    4.30
   6 -17  -2    8.50    1.80
   6 -17  -1   22.40    3.10
   6 -17  -1   23.30    3.10
   6 -17   0    8.80    2.20
   6 -17   0    6.30    2.10
   6 -17   1    0.90    1.50
   6 -17   1   -1.50    1.80
   6 -17   2   46.20    4.60
   6 -17   2   45.10    4.70
   6 -17   3   22.70    3.30
   6 -17   3   23.50    3.40
   6 -17   4   28.30    3.60
  -6 -16  12    5.70    1.40
  -6 -16  11    5.00    1.70
  -6 -16  10   10.40    2.20
  -6 -16   9    8.30    2.30
  -6 -16   8    9.30    2.40
  -6 -16   7   42.20    4.40
  -6 -16   6   59.99    5.10
  -6 -16   5   34.40    3.90
  -6 -16   4    7.10    1.90
  -6 -16   3   79.09    5.50
   6 -16  -1   17.70    2.80
   6 -16   0   53.79    4.80
   6 -16   0   53.19    4.80
   6 -16   1   82.79    6.10
   6 -16   1   94.99    6.60
   6 -16   2   45.70    4.50
   6 -16   2   51.29    4.90
   6 -16   3   22.80    3.20
   6 -16   3   22.90    3.30
   6 -16   4    5.10    1.90
  -6 -15  12   12.70    1.90
  -6 -15  11   24.50    3.00
  -6 -15  10    6.20    2.10
  -6 -15   9    2.30    1.90
  -6 -15   8   18.20    3.30
  -6 -15   7   34.20    4.10
  -6 -15   6   45.90    4.60
  -6 -15   6   44.30    4.50
  -6 -15   5   43.00    4.30
  -6 -15   4   49.80    4.50
  -6 -15   3  103.59    6.40
   6 -15  -2   34.00    3.40
   6 -15  -1   45.50    4.10
   6 -15   0   92.69    6.20
   6 -15   1   13.10    2.80
   6 -15   1   11.50    2.40
   6 -15   2   90.59    6.30
   6 -15   2   83.99    6.30
   6 -15   3   18.10    2.90
   6 -15   3   25.50    3.60
   6 -15   4   18.50    3.10
   6 -15   4   16.30    2.70
  -6 -14  12    7.30    1.80
  -6 -14  11    2.10    1.80
  -6 -14  10   -1.10    2.00
  -6 -14   9    9.90    2.60
  -6 -14   8   30.70    4.00
  -6 -14   7  193.48   10.50
  -6 -14   7  199.28   10.10
  -6 -14   6   99.29    6.80
  -6 -14   6  101.99    7.10
  -6 -14   5   35.00    3.80
  -6 -14   5   28.50    3.60
  -6 -14   4   22.30    3.00
  -6 -14   3  123.89    6.90
   6 -14  -2  140.89    7.40
   6 -14  -1   84.19    5.70
   6 -14   0   20.70    2.90
   6 -14   1   23.30    3.30
   6 -14   2    4.60    2.10
   6 -14   2    4.80    1.50
   6 -14   3   17.80    2.90
   6 -14   3   16.80    2.80
   6 -14   4    4.30    2.00
  -6 -13  12   13.80    2.10
  -6 -13  11    4.00    1.90
  -6 -13  10    5.80    2.30
  -6 -13   9   10.90    2.30
  -6 -13   8    6.30    2.20
  -6 -13   7   15.60    2.90
  -6 -13   7   21.20    3.30
  -6 -13   6   30.90    3.50
  -6 -13   6   22.50    3.40
  -6 -13   5   26.60    3.30
  -6 -13   4   13.60    2.60
  -6 -13   3   38.00    3.60
   6 -13  -2  100.69    5.90
  -6 -13   2   91.69    5.90
   6 -13  -1   21.90    2.90
  -6 -13   1   23.10    2.70
   6 -13   0   35.30    3.70
   6 -13   1   36.90    3.90
   6 -13   2   71.49    5.60
   6 -13   2   67.99    5.30
   6 -13   3  102.49    6.80
   6 -13   3  107.29    6.90
   6 -13   4   48.80    4.70
  -6 -12  12    3.20    1.70
  -6 -12  11   12.00    2.70
  -6 -12  10    3.50    2.20
  -6 -12   9  226.38   11.60
  -6 -12   8   99.39    7.20
  -6 -12   7  101.99    7.30
  -6 -12   7  105.39    6.90
  -6 -12   6  167.88    9.50
  -6 -12   6  159.88    8.70
  -6 -12   5   22.10    3.10
  -6 -12   4  130.49    7.30
  -6 -12   3  166.58    8.10
  -6 -12   3  157.78    8.20
   6 -12  -2   70.19    4.90
  -6 -12   2   77.89    5.00
  -6 -12   2   72.19    5.20
   6 -12  -1   34.90    3.50
  -6 -12   1   38.90    3.50
   6 -12   0    4.00    1.70
   6 -12   1   70.39    5.30
   6 -12   2   25.60    3.40
   6 -12   3   15.50    2.80
   6 -12   3   13.00    2.40
   6 -12   4    2.10    1.50
  -6 -11  12    7.00    1.90
  -6 -11  11   11.40    2.90
  -6 -11  10   14.60    3.20
  -6 -11   9   10.40    2.90
  -6 -11   8   76.09    6.40
  -6 -11   7   72.89    6.10
  -6 -11   7   68.29    5.40
  -6 -11   6   58.99    5.20
  -6 -11   6   59.29    5.00
  -6 -11   5   57.19    4.60
  -6 -11   4    9.90    2.40
  -6 -11   4    7.60    2.10
  -6 -11   3   52.49    4.10
  -6 -11   3   56.59    4.60
   6 -11  -2   54.89    4.20
  -6 -11   2   58.39    4.20
  -6 -11   2   51.89    4.20
   6 -11  -1  124.69    6.80
  -6 -11   1  124.79    6.70
   6 -11   0   74.39    5.30
   6 -11   1   44.50    4.10
   6 -11   2   15.30    2.60
   6 -11   3   34.70    3.90
   6 -11   3   26.90    3.20
   6 -11   4   77.59    5.80
  -6 -10  13    2.70    1.20
  -6 -10  12   17.80    2.70
  -6 -10  11   11.80    2.70
  -6 -10  10   18.10    3.60
  -6 -10   9   38.90    4.50
  -6 -10   8   85.09    6.20
  -6 -10   8   82.79    6.10
  -6 -10   8   78.09    6.60
  -6 -10   7   37.40    4.40
  -6 -10   7   42.70    4.20
  -6 -10   7   37.70    4.10
  -6 -10   6   75.99    5.40
  -6 -10   6   66.89    5.70
  -6 -10   5   67.79    5.10
  -6 -10   4   12.40    2.30
  -6 -10   4   14.90    2.50
  -6 -10   3   22.40    2.90
  -6 -10   3   17.80    2.60
  -6 -10   2   24.70    3.00
  -6 -10   2   24.00    2.60
   6 -10  -2   28.00    3.00
  -6 -10   1   95.69    5.60
   6 -10  -1   91.99    5.70
  -6 -10   0  205.18    8.80
   6 -10   0  196.38    9.30
   6 -10   1    3.60    1.80
   6 -10   2    6.20    1.90
   6 -10   3   19.50    3.00
   6 -10   4    2.90    1.90
  -6  -9  13    0.50    1.00
  -6  -9  12   11.40    2.40
  -6  -9  11    5.20    2.50
  -6  -9  10   52.19    5.30
  -6  -9   9    3.90    2.30
  -6  -9   8    3.40    1.70
  -6  -9   8    7.90    2.20
  -6  -9   8    7.60    2.60
  -6  -9   7   29.80    3.70
  -6  -9   7   27.50    3.60
  -6  -9   7   24.00    3.70
  -6  -9   6   22.90    3.20
  -6  -9   5  120.89    7.10
  -6  -9   5  119.49    6.90
  -6  -9   4   23.50    3.00
  -6  -9   4   33.10    3.50
  -6  -9   3   67.59    4.70
  -6  -9   3   66.99    4.90
  -6  -9   2   92.79    5.60
  -6  -9   2   90.49    5.20
  -6  -9   1   53.59    4.10
   6  -9  -1   56.69    4.50
  -6  -9   0  127.89    6.50
   6  -9   0  127.79    7.00
   6  -9   1   16.30    2.70
   6  -9   2  111.49    6.80
  -6  -9  -2  100.39    6.20
   6  -9   3   58.79    5.20
  -6  -8  13    2.50    1.10
  -6  -8  12    2.00    1.70
  -6  -8  11   -3.00    2.60
  -6  -8  10   41.60    4.80
  -6  -8   9    5.90    2.40
  -6  -8   8   22.40    3.30
  -6  -8   8   20.30    3.20
  -6  -8   8   21.10    3.60
  -6  -8   7   10.00    2.10
  -6  -8   7    8.30    2.10
  -6  -8   7    8.70    2.30
  -6  -8   6   18.20    2.80
  -6  -8   5  118.49    7.20
  -6  -8   5  130.39    7.00
  -6  -8   4    9.70    2.50
  -6  -8   4    9.20    2.10
  -6  -8   3   56.59    4.60
  -6  -8   3   50.89    4.00
  -6  -8   2  104.79    6.10
  -6  -8   2  112.09    5.90
  -6  -8   1   57.99    4.20
   6  -8  -1   62.69    4.60
  -6  -8   0  289.67   11.30
   6  -8   0  298.87   12.00
  -6  -8   0  298.97   11.80
   6  -8   1   62.79    4.80
  -6  -8  -1   65.19    4.70
   6  -8   2  149.79    7.90
  -6  -8  -2  142.39    7.50
   6  -8   3   63.49    5.20
  -6  -8  -3   63.39    4.70
  -6  -7  13    1.50    1.20
  -6  -7  12    4.30    2.00
  -6  -7  11   27.00    3.80
  -6  -7  10   16.60    3.50
  -6  -7   9   21.40    3.70
  -6  -7   8   10.30    2.60
  -6  -7   8    6.20    2.00
  -6  -7   8    5.70    1.70
  -6  -7   7   53.09    5.20
  -6  -7   7   44.60    4.20
  -6  -7   6   62.09    4.80
  -6  -7   5   87.59    5.80
  -6  -7   5   92.29    6.00
  -6  -7   4   44.50    4.10
  -6  -7   4   47.60    3.90
  -6  -7   3   16.10    2.70
  -6  -7   3   15.80    2.30
  -6  -7   2   18.50    2.50
  -6  -7   2   17.60    2.30
  -6  -7   1   75.59    4.80
  -6  -7   1   78.19    5.30
   6  -7   0   76.79    5.30
  -6  -7   0   80.79    5.30
   6  -7   1   23.20    3.20
  -6  -7  -1   19.70    2.70
   6  -7   2    5.50    2.20
  -6  -7  -2    5.70    1.70
  -6  -7  -3    4.80    1.60
  -6  -6  13   -2.70    1.60
  -6  -6  12    3.40    1.80
  -6  -6  11  112.09    7.50
  -6  -6  10   49.30    5.10
  -6  -6   9   21.30    3.50
  -6  -6   8   41.40    4.40
  -6  -6   8   43.20    4.30
  -6  -6   8   39.80    4.70
  -6  -6   7   -0.30    1.60
  -6  -6   7    0.30    1.30
  -6  -6   6   42.50    4.10
  -6  -6   6   45.60    4.30
  -6  -6   5   53.89    4.40
  -6  -6   5   51.49    4.30
  -6  -6   4   33.50    3.60
  -6  -6   4   31.00    3.30
  -6  -6   3    5.90    2.00
  -6  -6   2    4.60    1.80
  -6  -6   2    3.40    2.10
  -6  -6   1   32.80    3.40
  -6  -6   0    2.80    1.70
  -6  -6  -1  128.79    6.80
  -6  -6  -2    0.50    1.40
  -6  -6  -3   21.60    2.80
   6  -6   5   43.40    4.40
   6  -6   6   34.70    4.00
   6  -6   7    9.80    2.40
   6  -6   8    8.00    2.20
  -6  -5  13   11.20    1.90
  -6  -5  12   33.90    3.60
  -6  -5  11   18.70    3.40
  -6  -5  10    7.80    2.50
  -6  -5   9   19.00    3.50
  -6  -5   8   35.90    4.50
  -6  -5   8   43.10    4.10
  -6  -5   8   40.90    4.50
  -6  -5   7   47.20    4.80
  -6  -5   7   61.29    4.80
  -6  -5   6  121.79    7.20
  -6  -5   6  129.29    7.20
  -6  -5   5    5.50    2.00
  -6  -5   5    5.00    1.90
  -6  -5   4   90.89    5.80
  -6  -5   3  110.59    6.30
  -6  -5   2   67.79    4.70
  -6  -5   1  403.26   14.60
  -6  -5   0  118.29    6.50
  -6  -5  -1   14.40    2.50
  -6  -5  -2   26.10    3.00
  -6  -5  -3   20.30    2.70
   6  -5   5    9.40    2.60
   6  -5   6   40.00    4.30
   6  -5   7    6.70    2.10
   6  -5   8    1.60    1.40
  -6  -4  13    5.40    1.50
  -6  -4  12    6.90    2.20
  -6  -4  11   13.20    2.80
  -6  -4  10   31.70    4.20
  -6  -4   9    6.00    2.90
  -6  -4   8  111.29    7.90
  -6  -4   8  118.19    7.70
  -6  -4   8  117.09    7.20
  -6  -4   7  133.39    8.30
  -6  -4   7  134.49    7.70
  -6  -4   6   10.60    2.30
  -6  -4   6    7.70    2.40
  -6  -4   5   23.50    3.10
  -6  -4   4   74.89    5.20
  -6  -4   3   46.30    3.90
  -6  -4   3   46.00    3.90
  -6  -4   2  282.97   11.20
  -6  -4   1   72.19    5.00
  -6  -4   0  214.28    9.40
  -6  -4  -1  110.89    6.20
  -6  -4  -2   47.90    4.10
  -6  -4  -3   19.40    2.60
   6  -4   5  135.49    8.10
   6  -4   6   63.19    5.60
   6  -4   7   53.89    5.00
   6  -4   8    4.70    1.80
   6  -4   9   10.00    2.20
  -6  -3  13    2.60    1.40
  -6  -3  12   12.00    2.40
  -6  -3  11    5.40    2.30
  -6  -3  10   57.19    5.40
  -6  -3   9   -0.60    1.70
  -6  -3   8   35.70    4.20
  -6  -3   8   47.10    4.50
  -6  -3   8   42.90    4.70
  -6  -3   7   21.60    2.90
  -6  -3   7   20.70    2.90
  -6  -3   7   21.40    3.30
  -6  -3   6   31.50    3.50
  -6  -3   5  115.19    6.60
  -6  -3   4   63.09    4.60
  -6  -3   3  141.69    7.00
  -6  -3   2  113.19    6.20
  -6  -3   1  158.48    7.60
  -6  -3   0   75.39    4.90
  -6  -3  -1   61.29    4.50
  -6  -3  -2   26.00    2.90
  -6  -3  -3  108.19    6.30
  -6  -3  -4   16.60    2.40
   6  -3   5   67.09    5.60
   6  -3   6   42.60    4.60
   6  -3   7   32.90    3.90
   6  -3   8   18.80    3.00
   6  -3   9    6.80    1.90
  -6  -2  13    0.70    1.00
  -6  -2  12   17.60    2.70
  -6  -2  11   44.30    4.60
  -6  -2  10   63.39    5.70
  -6  -2   9   16.90    3.20
  -6  -2   8   12.20    2.70
  -6  -2   8   10.40    2.30
  -6  -2   8   11.40    2.80
  -6  -2   7   88.59    6.70
  -6  -2   7   88.49    6.00
  -6  -2   7   81.89    5.80
  -6  -2   6  168.68    8.40
  -6  -2   5   48.30    4.30
  -6  -2   4   73.09    5.00
  -6  -2   3    2.00    1.60
  -6  -2   2   80.09    5.20
  -6  -2   1   44.40    4.00
  -6  -2   0   83.29    5.40
  -6  -2  -1    5.00    1.80
  -6  -2  -2   20.00    2.50
  -6  -2  -3    9.60    2.20
  -6  -2  -4   25.50    3.00
   6  -2   5   77.49    6.10
   6  -2   6   43.60    4.60
   6  -2   7   34.00    4.00
   6  -2   8   13.20    2.70
   6  -2   8   12.90    2.90
   6  -2   9   18.10    2.70
   6  -2   9   25.00    3.40
  -6  -1  13   42.60    3.30
  -6  -1  12   44.90    4.20
  -6  -1  11    8.50    2.60
  -6  -1  10    1.30    1.90
  -6  -1   9    1.90    1.80
  -6  -1   9    4.70    1.70
  -6  -1   8   57.79    5.50
  -6  -1   8   59.79    4.90
  -6  -1   8   63.19    5.80
  -6  -1   7   10.30    2.20
  -6  -1   7   13.90    2.80
  -6  -1   6   69.19    5.20
  -6  -1   5   58.79    4.50
  -6  -1   4   18.40    2.50
  -6  -1   3   63.59    4.40
  -6  -1   2  168.08    7.80
  -6  -1   1  274.67   10.90
  -6  -1   0   91.59    5.60
  -6  -1  -1   49.10    3.90
  -6  -1  -2   20.90    2.70
  -6  -1  -3   27.60    3.20
  -6  -1  -4  131.89    7.20
   6  -1   5   87.89    6.50
   6  -1   6   31.80    3.90
   6  -1   7   36.90    4.20
   6  -1   8   20.40    3.00
   6  -1   8   22.00    3.40
   6  -1   9    6.80    2.10
   6  -1   9    8.70    2.60
   6  -1  10    4.60    2.70
  -6   0  13    0.00    0.90
  -6   0  12    1.60    1.70
  -6   0  11    1.20    1.80
  -6   0  10   10.80    3.00
  -6   0   9   13.40    3.10
  -6   0   9   10.40    2.10
  -6   0   8  122.59    8.10
  -6   0   8  149.79    8.00
  -6   0   8  132.09    8.40
  -6   0   7    8.40    2.10
  -6   0   7   11.10    2.70
  -6   0   6   85.19    5.60
  -6   0   5   10.80    2.30
  -6   0   4  118.99    6.20
  -6   0   3  219.68    9.20
  -6   0   2    0.50    1.60
  -6   0   1    0.60    1.80
  -6   0   0   15.40    2.60
  -6   0  -1  168.88    8.00
  -6   0  -2   25.10    3.10
  -6   0  -3    3.90    1.70
  -6   0  -4    6.30    1.70
   6   0   5   40.90    4.40
   6   0   6   27.00    3.80
   6   0   7   14.40    2.90
   6   0   8   17.90    3.00
   6   0   9   24.00    3.20
   6   0   9   28.80    3.50
   6   0  10   15.80    3.10
  -6   1  12   44.20    4.00
  -6   1  11    4.00    1.90
  -6   1  10    0.20    1.90
  -6   1   9    2.80    2.20
  -6   1   9    6.30    1.90
  -6   1   8   58.89    5.40
  -6   1   8   59.99    5.50
  -6   1   8   65.09    5.10
  -6   1   7   13.10    2.40
  -6   1   6   72.19    5.20
  -6   1   5   65.69    4.70
  -6   1   4   21.60    2.50
  -6   1   3   70.79    4.60
  -6   1   2  163.28    7.60
  -6   1   1  278.37   10.90
  -6   1   0   86.99    5.40
  -6   1  -1   50.39    4.10
  -6   1  -2   18.20    2.70
  -6   1  -3   30.20    3.30
  -6   1  -4  136.29    7.30
   6   1   5   83.39    6.30
   6   1   6   26.60    3.70
   6   1   7   38.40    4.40
   6   1   8   15.40    2.80
   6   1   9    9.40    2.30
   6   1   9    3.00    2.30
   6   1  10    3.60    2.50
  -6   2  12   21.20    2.80
  -6   2  11   48.50    4.70
  -6   2  10   67.49    5.80
  -6   2   9   23.00    3.50
  -6   2   9   23.40    3.00
  -6   2   8    8.60    2.40
  -6   2   8   12.10    2.50
  -6   2   8    7.30    2.30
  -6   2   7   72.69    5.90
  -6   2   7   91.49    5.80
  -6   2   6  175.38    8.50
  -6   2   5   49.60    4.00
  -6   2   4   73.89    4.70
  -6   2   3    5.70    1.80
  -6   2   2   90.89    5.20
  -6   2   1   41.50    3.70
  -6   2   0   80.59    5.10
  -6   2  -1    6.20    2.10
  -6   2  -2   16.20    2.40
  -6   2  -3    6.30    1.90
  -6   2  -4   23.40    3.10
   6   2   5   82.09    6.20
   6   2   6   36.90    4.30
   6   2   7   33.20    4.00
   6   2   8   14.70    2.90
   6   2   9   17.10    2.80
   6   2   9   20.40    3.30
   6   2  10   14.60    2.80
  -6   3  11    4.10    1.70
  -6   3  10   68.09    5.70
  -6   3   9    0.40    1.60
  -6   3   8   43.80    4.60
  -6   3   8   43.50    4.60
  -6   3   7   20.30    3.20
  -6   3   6   26.30    3.10
  -6   3   4   69.99    4.50
  -6   3   3  141.49    6.80
  -6   3   2  116.59    6.10
  -6   3   1  168.48    7.80
  -6   3   0   73.69    5.00
  -6   3  -1   63.99    4.70
  -6   3  -2   25.50    3.10
  -6   3  -3  105.49    6.30
  -6   3  -4   15.30    2.50
   6   3   5   49.80    4.90
   6   3   6   34.80    4.20
   6   3   7   29.00    3.80
   6   3   8   16.50    3.10
   6   3   9    2.90    1.70
   6   3   9    5.80    2.30
   6   3  10    3.60    2.10
  -6   4  10   39.40    4.20
  -6   4   9    5.80    2.10
  -6   4   8  123.39    8.00
  -6   4   8  126.29    8.10
  -6   4   7  145.49    8.50
  -6   4   6   10.60    2.00
  -6   4   4   86.79    5.10
  -6   4   3   44.40    3.60
  -6   4   2  286.47   11.10
  -6   4   1   81.39    5.00
  -6   4   0  214.18    9.40
  -6   4  -1  109.29    6.30
  -6   4  -2   55.99    4.40
  -6   4  -3   15.50    2.50
  -6   4  -4   14.50    2.50
   6   4   5  110.19    7.60
  -6   4  -5  135.79    7.30
   6   4   6   51.19    4.90
   6   4   7   32.80    4.10
   6   4   8    2.00    1.50
   6   4   9   10.40    2.40
   6   4   9    9.30    2.70
   6   4  10   14.80    2.60
  -6   5   9   16.00    2.80
  -6   5   8   41.60    4.60
  -6   5   8   50.39    4.90
  -6   5   7   58.79    5.10
  -6   5   6  132.19    7.00
  -6   5   3  124.69    6.40
  -6   5   2   62.89    4.30
  -6   5   1  396.06   14.30
  -6   5   0  112.29    6.30
  -6   5  -1   16.90    2.90
  -6   5  -2   35.60    3.80
  -6   5  -3   17.20    2.70
   6   5   4   10.80    2.50
  -6   5  -4   14.30    2.50
   6   5   5   10.60    2.50
  -6   5  -5    6.80    1.80
   6   5   6   39.70    4.50
   6   5   7    3.40    1.70
   6   5   8    3.30    1.60
   6   5   9    5.90    2.10
   6   5   9    3.40    2.40
   6   5  10    5.90    2.10
  -6   6   8   56.19    5.20
  -6   6   6   51.89    4.20
  -6   6   3    7.00    1.70
  -6   6   2    2.40    1.40
  -6   6   1   35.60    3.40
  -6   6   0    2.30    1.70
   6   6   4   30.60    3.70
  -6   6  -4   19.90    3.00
   6   6   5   39.50    4.30
  -6   6  -5   45.10    4.20
   6   6   6   36.90    4.30
   6   6   7    9.30    2.50
   6   6   8    3.60    1.70
   6   6   9   -1.10    1.40
   6   6  10    0.10    2.10
  -6   7   8    7.90    2.30
  -6   7   3   18.70    2.30
  -6   7   2   19.80    2.50
  -6   7   1   77.99    5.00
   6   7   4   85.99    6.30
  -6   7  -5   29.80    3.50
   6   7   5   23.00    3.50
   6   7   6   69.59    6.00
   6   7   6   77.79    5.80
   6   7   7   11.80    2.50
   6   7   8   20.80    3.30
   6   7   9   10.60    2.40
   6   7  10    2.30    1.80
  -6   8   8   22.90    3.30
  -6   8   7   11.80    2.50
  -6   8   3   49.20    3.70
  -6   8   2  121.99    6.40
  -6   8   1   53.19    4.20
   6   8   4   21.00    3.10
  -6   8  -5   22.80    3.00
   6   8   5   15.70    2.90
   6   8   6   54.79    5.20
   6   8   6   64.89    5.40
   6   8   7    9.50    2.40
   6   8   7    9.90    2.20
   6   8   8   15.00    2.70
   6   8   9    0.20    1.40
   6   8  10   12.30    2.40
  -6   9   8    7.20    2.10
  -6   9   7   23.40    3.30
  -6   9   3   66.79    4.50
  -6   9   2   85.99    5.30
   6   9   4   16.20    3.00
   6   9   5   29.70    3.90
   6   9   6    8.50    2.40
   6   9   6    9.60    2.50
   6   9   7   11.30    2.50
   6   9   7   14.10    2.40
   6   9   8    7.40    2.30
   6   9   9   18.00    2.80
   6   9  10   13.40    2.40
  -6  10   8   90.99    6.70
  -6  10   7   48.10    4.70
  -6  10   2   22.90    2.70
   6  10   4    1.70    1.50
   6  10   5    2.20    1.70
   6  10   6   19.60    3.10
   6  10   6   14.50    2.70
   6  10   7   18.20    3.20
   6  10   7   19.10    3.00
   6  10   8   13.10    2.50
   6  10   8   15.90    2.50
   6  10   9    7.80    1.80
   6  10  10   -1.10    2.00
  -6  11   7   78.29    5.80
  -6  11   7   67.49    5.60
  -6  11   2   56.39    4.30
   6  11   4   74.59    5.90
   6  11   5    0.80    1.40
   6  11   6    4.90    2.00
   6  11   6    9.30    2.20
   6  11   7   -2.00    1.80
   6  11   7   -1.30    1.70
   6  11   8    2.80    1.90
   6  11   8    3.20    1.70
   6  11   9   17.40    2.60
   6  11  10    1.20    1.60
  -6  12   7  106.79    7.20
  -6  12   2   73.79    4.90
   6  12   3   12.10    2.60
   6  12   4    4.10    2.00
   6  12   5    0.10    1.30
   6  12   6   23.10    3.50
   6  12   6   22.30    3.30
   6  12   7    7.40    2.20
   6  12   7    4.90    1.70
   6  12   8   10.80    2.40
   6  12   8    5.10    1.70
   6  12   9    1.50    1.30
   6  12  10    6.40    1.80
  -6  13   7   22.30    3.50
   6  13   3  104.29    7.00
   6  13   4   42.30    4.60
   6  13   5   40.10    4.30
   6  13   6    8.70    2.40
   6  13   6    7.00    2.40
   6  13   7    5.20    2.00
   6  13   7    5.40    1.90
   6  13   8    5.70    2.00
   6  13   8    4.60    1.60
   6  13   9    0.40    1.00
   6  14 -10   -1.20    1.30
   6  14   3   20.00    3.20
   6  14   4    3.80    2.10
   6  14   5    8.00    2.10
   6  14   6    7.10    2.20
   6  14   6    7.00    2.10
   6  14   7   26.50    3.30
   6  14   7   24.20    3.30
   6  14   8    7.10    1.90
   6  14   8    7.30    2.00
   6  14   9    9.60    1.60
   6  15 -10    7.50    1.90
   6  15   3   21.80    3.20
   6  15   4   18.50    3.00
   6  15   5   41.50    4.30
   6  15   6    4.00    1.70
   6  15   6    3.40    2.20
   6  15   7    4.80    1.90
   6  15   7   10.00    2.50
   6  15   8    5.60    1.60
   6  15   8    4.10    1.60
   6  15   9    0.80    1.00
   6  16 -10    5.80    1.60
   6  16  -9    9.20    2.30
   6  16  -3   78.69    6.00
   6  16   4    7.90    2.20
   6  16   5    8.20    2.30
   6  16   5    3.10    2.00
   6  16   6   17.10    2.70
   6  16   6   18.30    3.40
   6  16   7    6.10    1.80
   6  16   7    8.90    2.50
   6  16   8    4.10    1.80
   6  16   8   -1.40    1.50
   6  16   9    7.60    1.50
   6  17  -9   11.30    2.40
   6  17  -8   48.00    4.70
   6  17  -7    8.90    2.40
   6  17  -6   23.60    3.60
   6  17  -5   25.90    3.70
   6  17  -4   42.30    4.50
   6  17  -3   40.40    4.40
   6  17  -2   10.30    2.20
   6  17  -1   16.90    2.70
   6  17   0    7.20    1.90
   6  17   5   -0.50    1.90
   6  17   6    6.00    2.60
   6  17   7    4.40    2.10
   6  17   8    1.10    1.80
   6  17   9   -1.60    1.70
   6  17   9    0.70    1.00
   6  18  -9   21.40    2.90
   6  18  -8   -0.80    1.70
   6  18  -7    4.50    2.00
   6  18  -6   72.29    6.00
   6  18  -5   37.80    4.40
   6  18  -4   49.30    4.90
   6  18  -3   12.70    2.70
   6  18  -2   26.70    3.70
   6  18  -1   20.80    3.10
   6  18   0    1.60    1.20
   6  18   5   12.40    2.90
   6  18   6   15.60    3.20
   6  18   7    1.60    2.00
   6  18   8   12.20    2.20
   6  19  -9   23.80    3.00
   6  19  -8    8.00    2.10
   6  19  -7    7.00    2.10
   6  19  -6   15.80    3.30
   6  19  -5   99.99    7.10
   6  19  -4   67.09    5.70
   6  19  -3   17.00    2.90
   6  19  -2   47.20    4.80
   6  19  -1   72.99    5.80
   6  19   0   40.60    4.10
   6  19   5    7.00    2.50
   6  19   6    7.70    2.80
   6  19   7    3.80    1.90
   6  19   8    3.80    1.30
   6  20  -9    5.70    1.60
   6  20  -8    0.70    1.40
   6  20  -7    7.50    2.10
   6  20  -6    0.30    1.70
   6  20  -5   16.80    3.00
   6  20  -4    1.20    1.50
   6  20  -3    9.40    2.50
   6  20  -2   15.20    3.00
   6  20  -1   29.20    3.70
   6  20   0  113.19    7.30
   6  20   4   23.00    3.70
   6  20   5   74.29    5.90
   6  20   6   25.80    3.60
   6  20   7    9.40    2.20
   6  20   8   10.30    1.90
   6  21  -9   19.80    2.40
   6  21  -8    7.10    2.00
   6  21  -7   39.10    4.30
   6  21  -6    0.90    1.90
   6  21  -5   64.79    5.80
   6  21  -4   32.50    4.00
   6  21  -3   15.10    2.90
   6  21  -2   24.30    3.40
   6  21  -1   17.20    3.00
   6  21   0   37.90    4.20
   6  21   4   48.30    4.70
   6  21   5    9.60    2.80
   6  21   6   -1.80    1.80
   6  21   7    7.80    2.00
   6  21   8    3.50    1.40
   6  22  -9   15.00    2.10
   6  22  -8    6.70    2.00
   6  22  -7    5.50    2.10
   6  22  -6   30.50    3.90
   6  22  -5   11.40    2.40
   6  22  -4    6.90    2.10
   6  22  -3   10.40    2.70
   6  22  -2   30.30    4.00
   6  22  -1   34.80    4.00
   6  22   0   20.90    3.10
   6  22   1  103.09    6.80
   6  22   3   11.40    2.70
   6  22   4   -0.90    2.10
   6  22   5   17.90    3.10
   6  22   6    5.40    2.00
   6  22   7    4.30    1.60
   6  22   8    7.40    1.40
   6  23  -9    3.10    1.30
   6  23  -8   29.20    3.30
   6  23  -7   -0.90    1.90
   6  23  -6   48.80    4.70
   6  23  -5   17.00    3.10
   6  23  -4   92.99    6.70
   6  23  -3   26.00    3.60
   6  23  -2   50.39    4.90
   6  23  -1   67.79    5.70
   6  23   0   17.00    2.70
   6  23   1   24.00    3.20
   6  23   3   20.60    3.30
   6  23   4   54.19    4.90
   6  23   5    5.90    2.20
   6  23   6    1.30    1.90
   6  23   7    4.90    1.70
   6  24  -8   17.30    2.40
   6  24  -7   21.70    3.10
   6  24  -6    8.70    2.30
   6  24  -5    3.00    1.90
   6  24  -4  107.29    7.20
   6  24  -3   10.30    2.60
   6  24  -2    6.40    2.10
   6  24  -1   -0.60    1.80
   6  24   0    7.20    2.20
   6  24   1   77.29    5.70
   6  24   2    8.00    2.00
   6  24   3   19.50    3.10
   6  24   4    8.40    2.20
   6  24   5    6.60    2.10
   6  24   6    8.20    2.00
   6  24   7    5.90    1.60
   6  25  -8   13.80    2.30
   6  25  -7   13.60    2.70
   6  25  -6    5.60    2.00
   6  25  -5    0.40    1.90
   6  25  -4   17.40    3.00
   6  25  -3   26.30    3.70
   6  25  -2   21.10    3.30
   6  25  -1    1.90    1.60
   6  25   0    5.60    1.90
   6  25   1    4.90    1.70
   6  25   1    3.70    1.60
   6  25   2   51.79    4.70
   6  25   3   66.19    5.30
   6  25   4   14.60    2.50
   6  25   5   11.20    2.30
   6  25   6    1.70    1.30
   6  25   7    5.60    1.30
   6  26  -8   30.90    2.80
   6  26  -7   63.29    4.60
   6  26  -6   25.00    3.30
   6  26  -5    8.00    2.50
   6  26  -4    3.60    2.50
   6  26  -3   17.20    3.30
   6  26  -2   99.39    6.80
   6  26  -1    3.80    2.10
   6  26   0    8.90    2.50
   6  26   1   22.30    3.20
   6  26   2   14.60    2.40
   6  26   3    1.60    1.30
   6  26   4   -0.20    1.30
   6  26   5   -0.20    1.30
   6  26   6    7.50    1.70
   6  27  -8    3.30    1.10
   6  27  -7    2.60    1.50
   6  27  -6   -0.70    1.60
   6  27  -5   12.00    2.80
   6  27  -4    5.40    2.80
   6  27  -3   25.60    3.80
   6  27  -2    4.20    2.20
   6  27  -1    9.70    2.60
   6  27   0   16.50    2.90
   6  27   1    9.00    2.20
   6  27   2   16.90    2.60
   6  27   3   31.70    3.30
   6  27   4   25.40    2.80
   6  27   5   24.10    2.60
   6  27   6    3.00    1.20
   6  28  -7   23.70    2.50
   6  28  -6   13.20    2.40
   6  28  -5    0.50    1.60
   6  28  -4   40.00    4.10
   6  28  -3    9.10    2.50
   6  28  -2    6.80    2.50
   6  28  -1   24.10    3.40
   6  28   0   22.20    3.30
   6  28   1   45.20    4.20
   6  28   3    2.50    1.30
   6  28   4    3.80    1.30
   6  28   5   -0.10    0.90
   6  29  -7    6.00    1.50
   6  29  -6    1.60    1.30
   6  29  -5   16.80    2.80
   6  29  -4   -2.90    1.60
   6  29  -3    4.80    1.90
   6  29  -2    5.40    2.10
   6  29  -1    9.80    2.40
   6  29   0   -0.70    1.40
   6  29   1    6.50    2.00
   6  29   4    9.40    1.50
   6  30  -6   16.20    2.10
   6  30  -5    0.60    1.30
   6  30  -4    8.60    2.10
   6  30  -3   13.60    2.50
   6  30  -2    1.40    1.80
   6  30  -1    2.60    2.00
   6  30   0    0.10    1.40
   6  30   1    5.40    1.60
   6  31  -6   16.80    2.10
   6  31  -5   13.50    2.00
   6  31  -4   20.80    2.80
   6  31  -3    0.40    1.60
   6  31  -2    2.50    1.60
   6  31  -1    8.40    2.00
   6  31   0   14.90    2.40
   6  31   1   16.90    2.20
   6  32  -5   14.30    2.00
   6  32  -4    7.50    1.80
   6  32  -3    1.50    1.40
   6  32  -2    3.30    1.60
   6  32  -1   -1.90    1.50
   6  32   0   13.20    2.20
   6  32   1    3.20    1.20
   6  33  -4   16.30    2.10
   6  33  -3   10.40    2.00
   6  33  -2    4.50    1.60
   6  33  -1    3.50    1.50
   6  33   0    0.10    1.00
   6  33   1    7.10    1.40
   6  34  -3    6.40    1.30
   6  34  -2    0.90    1.20
   6  34  -1   -1.60    1.20
   6  34   0    8.20    1.40
   7 -32   0   13.50    1.80
   7 -31  -2    8.40    1.50
   7 -31  -1   -1.90    1.30
   7 -31   0   17.30    2.30
   7 -31   1   18.50    2.20
   7 -30  -2   29.80    2.90
   7 -30  -1   13.10    2.10
   7 -30   0    4.60    1.50
   7 -30   1    3.70    1.60
   7 -30   2    6.80    1.50
   7 -29  -3    8.70    1.70
   7 -29  -2   14.40    2.20
   7 -29  -1   17.60    2.60
   7 -29   0    6.70    2.10
   7 -29   1   14.80    2.50
   7 -29   2    6.50    1.70
   7 -29   3    6.70    1.50
  -7 -28   6   21.00    2.20
   7 -28  -3    0.80    1.20
   7 -28  -2   12.30    2.40
   7 -28  -1   42.10    3.80
   7 -28   0   35.60    3.60
   7 -28   1    3.80    1.80
   7 -28   2    1.70    1.50
   7 -28   3    9.70    1.90
  -7 -27   7   13.40    1.90
  -7 -27   6   19.50    2.30
   7 -27  -3   26.10    2.90
   7 -27  -2    2.40    1.60
   7 -27  -1   18.00    2.90
   7 -27   0    5.80    2.30
   7 -27   1   14.40    2.80
   7 -27   2    3.50    1.70
   7 -27   3    9.10    1.90
   7 -27   4   22.00    2.20
  -7 -26   8    3.30    1.30
  -7 -26   7    0.10    1.20
  -7 -26   6   16.70    2.30
   7 -26  -3   23.50    2.80
   7 -26  -2    0.60    1.80
   7 -26  -1    7.50    2.40
   7 -26   0   34.00    4.00
   7 -26   1   -2.30    2.00
   7 -26   2    2.30    2.00
   7 -26   3    1.80    1.40
   7 -26   4   -2.60    1.30
  -7 -25   8    9.80    1.80
  -7 -25   7   -0.10    1.30
  -7 -25   6   10.30    2.10
  -7 -25   5    6.70    1.90
   7 -25  -3    0.60    1.40
   7 -25  -2    0.40    1.60
   7 -25  -1   10.20    2.70
   7 -25   0    2.70    2.30
   7 -25   1    1.70    2.50
   7 -25   2   19.40    3.00
   7 -25   3    6.80    2.00
   7 -25   4   42.90    3.50
  -7 -24   9    9.30    1.60
  -7 -24   8   14.20    2.30
  -7 -24   7   25.60    2.90
  -7 -24   6   23.80    2.90
  -7 -24   5   45.40    4.10
   7 -24  -3    1.60    1.60
   7 -24  -2   23.40    3.10
   7 -24  -1   15.50    2.90
   7 -24   0   29.30    3.90
   7 -24   1   36.80    4.10
   7 -24   2   27.60    3.60
   7 -24   3   16.90    2.80
   7 -24   4    8.80    1.90
  -7 -23   9    6.10    1.70
  -7 -23   8   13.20    2.40
  -7 -23   7    2.70    1.70
   7 -23  -3   41.80    4.30
   7 -23  -2   24.50    3.50
   7 -23  -1   32.00    4.00
   7 -23   0    7.50    2.50
   7 -23   1   12.00    2.50
   7 -23   2   25.60    3.60
   7 -23   3   17.10    2.90
   7 -23   4   25.10    2.90
  -7 -22  10    2.90    1.20
  -7 -22   9   24.90    2.80
   7 -22  -3    2.30    1.60
   7 -22  -2   38.90    4.30
   7 -22  -1    3.70    2.00
   7 -22   0   11.60    2.80
   7 -22   1   15.80    3.10
   7 -22   2   51.19    4.90
   7 -22   3    7.20    2.10
   7 -22   4    1.40    1.40
  -7 -21  10   10.70    1.80
  -7 -21   9    9.60    2.20
   7 -21  -4    4.70    2.00
   7 -21  -3   24.10    3.40
   7 -21  -2   23.80    3.30
   7 -21  -1   23.20    3.50
   7 -21   0    5.80    2.70
   7 -21   1    7.50    2.60
   7 -21   2    6.70    2.30
   7 -21   3    7.30    2.50
   7 -21   4   15.70    2.60
  -7 -20  10   13.80    2.10
   7 -20  -4    2.40    1.40
   7 -20  -3   25.50    3.30
   7 -20  -2    4.40    1.90
   7 -20  -1   21.50    3.50
   7 -20   0   27.70    3.90
   7 -20   1   18.50    3.10
   7 -20   2   72.79    5.90
   7 -20   3    8.40    2.40
   7 -20   4   12.10    2.40
  -7 -19  10   11.00    2.20
   7 -19  -4   58.29    4.90
   7 -19  -3   30.90    3.70
   7 -19  -2   37.30    4.20
   7 -19  -1    6.20    2.30
   7 -19   0   24.90    3.60
   7 -19   1    9.70    2.60
   7 -19   2   37.40    4.20
   7 -19   3    4.70    1.80
   7 -19   4    2.50    1.80
  -7 -18  11    8.30    1.60
  -7 -18  10    2.50    1.00
  -7 -18   9   27.90    3.10
  -7 -18   8   24.40    3.00
   7 -18  -4   28.30    3.50
   7 -18  -3    4.20    1.70
   7 -18  -2   26.40    3.70
   7 -18  -1   17.10    2.80
   7 -18  -1   15.80    3.10
   7 -18   0   10.00    2.40
   7 -18   1   21.00    3.30
   7 -18   2   13.30    2.90
   7 -18   3   27.40    3.70
   7 -18   4    6.60    2.20
  -7 -17  11    7.60    1.40
  -7 -17  11    7.10    1.50
  -7 -17  10   17.50    2.30
  -7 -17   9    6.20    1.90
  -7 -17   8    5.90    1.90
  -7 -17   7   30.40    3.60
   7 -17  -4   21.60    2.90
   7 -17  -3   17.90    3.00
   7 -17  -2   18.60    3.00
   7 -17  -1   32.80    3.70
   7 -17  -1   31.90    4.00
   7 -17   0    7.60    2.00
   7 -17   0    9.50    2.70
   7 -17   1   17.90    3.10
   7 -17   2    7.50    2.40
   7 -17   3   32.40    4.00
   7 -17   4   22.30    3.10
  -7 -16  11   15.80    2.10
  -7 -16  10    1.90    1.30
  -7 -16   9   19.50    3.10
  -7 -16   8    2.70    1.80
  -7 -16   7   20.20    3.20
  -7 -16   6   97.09    6.80
  -7 -16   4   19.30    2.90
   7 -16  -4   19.00    2.90
   7 -16  -3   31.00    3.70
   7 -16  -2   73.29    5.80
   7 -16  -1   58.19    4.90
   7 -16  -1   58.29    5.20
   7 -16   0   43.10    4.30
   7 -16   0   41.40    4.50
   7 -16   1   -0.90    1.50
   7 -16   1    2.90    2.00
   7 -16   2    1.20    1.90
   7 -16   3   34.00    4.10
   7 -16   4    6.60    1.80
  -7 -15  11    1.00    1.20
  -7 -15  10   15.90    2.70
  -7 -15   9    1.70    1.80
  -7 -15   8   44.30    4.70
  -7 -15   7   23.50    3.50
  -7 -15   6    1.70    1.50
  -7 -15   5    8.00    2.10
  -7 -15   4   79.19    5.70
   7 -15  -4   72.99    5.60
   7 -15  -3   38.80    4.20
   7 -15  -2   15.80    2.90
   7 -15  -1   17.60    2.90
   7 -15  -1   22.30    3.30
   7 -15   0   30.50    3.80
   7 -15   0   28.50    3.90
   7 -15   1   33.50    3.90
   7 -15   1   35.10    4.20
   7 -15   2   50.29    4.90
   7 -15   3   12.20    2.60
  -7 -14  11    0.70    1.30
  -7 -14  10    7.60    2.00
  -7 -14   9   -0.20    1.80
  -7 -14   8    6.60    2.30
  -7 -14   7   30.10    4.10
  -7 -14   6   86.29    6.60
  -7 -14   5   82.29    6.30
  -7 -14   5   81.29    5.90
  -7 -14   4   30.40    3.50
   7 -14  -4   33.00    3.70
   7 -14  -3   46.30    4.40
   7 -14  -2   59.49    5.10
   7 -14  -1  104.99    6.70
   7 -14  -1   97.99    6.80
   7 -14   0   30.30    3.70
   7 -14   0   27.40    3.60
   7 -14   1   22.10    3.20
   7 -14   1   24.70    3.70
   7 -14   2   -3.60    2.10
   7 -14   2   -0.90    1.60
   7 -14   3   51.79    4.80
  -7 -13  12   26.00    2.50
  -7 -13  11   24.40    3.00
  -7 -13  10   23.10    3.30
  -7 -13   9   16.00    2.80
  -7 -13   8   14.10    3.00
  -7 -13   7    2.60    2.20
  -7 -13   6   38.50    4.30
  -7 -13   6   38.00    4.10
  -7 -13   5   55.79    5.20
  -7 -13   5   57.49    4.80
  -7 -13   4   59.59    4.80
   7 -13  -4   64.09    5.20
   7 -13  -3   23.20    3.10
  -7 -13   2   24.30    3.10
   7 -13  -2   29.10    3.60
   7 -13  -1   29.00    3.60
   7 -13   0    7.50    1.80
   7 -13   0    7.90    2.10
   7 -13   1    6.70    2.10
   7 -13   1    7.50    2.00
   7 -13   2   15.00    2.70
   7 -13   2   15.90    2.90
   7 -13   3   12.80    2.60
  -7 -12  12   10.70    1.80
  -7 -12  11    4.90    2.20
  -7 -12  10    6.00    2.40
  -7 -12   9    4.40    2.40
  -7 -12   8   36.30    4.30
  -7 -12   7   37.50    4.30
  -7 -12   6   31.00    3.70
  -7 -12   6   35.20    4.30
  -7 -12   5    9.40    2.00
  -7 -12   4   53.19    4.50
   7 -12  -4   57.19    4.90
  -7 -12   3   13.90    2.60
   7 -12  -3   19.20    2.90
  -7 -12   2  210.78    9.90
   7 -12  -2  208.18   10.40
   7 -12  -1   80.29    6.00
   7 -12   0   37.90    4.20
   7 -12   1   68.99    5.50
   7 -12   1   66.79    5.40
   7 -12   2    1.90    1.40
   7 -12   3   26.10    3.40
  -7 -11  12   14.20    2.10
  -7 -11  11   48.50    4.20
  -7 -11  10   15.20    3.10
  -7 -11   9   26.00    3.90
  -7 -11   8   38.60    4.50
  -7 -11   7   13.60    3.10
  -7 -11   6   44.40    4.30
  -7 -11   6   47.30    4.90
  -7 -11   5   55.69    4.80
  -7 -11   4   90.39    6.00
  -7 -11   4   90.39    6.10
   7 -11  -4   91.99    6.20
  -7 -11   3  124.59    6.90
  -7 -11   3  105.29    6.70
   7 -11  -3  120.39    7.20
  -7 -11   2  143.29    7.80
   7 -11  -2  148.19    8.30
  -7 -11   1    9.30    1.90
   7 -11  -1   10.90    2.30
   7 -11   0  126.99    7.70
   7 -11   1   67.09    5.50
   7 -11   2   50.99    4.80
   7 -11   3    7.80    2.30
  -7 -10  12   14.10    2.20
  -7 -10  11    0.50    2.00
  -7 -10  10    2.70    2.10
  -7 -10   9   11.00    2.90
  -7 -10   8    7.70    2.50
  -7 -10   7   97.39    7.20
  -7 -10   6    7.70    2.30
  -7 -10   6    6.50    2.30
  -7 -10   5    6.80    2.10
  -7 -10   4   21.10    3.20
  -7 -10   4   20.30    2.80
   7 -10  -4   20.50    2.70
  -7 -10   3   22.40    3.20
  -7 -10   3   24.20    2.90
  -7 -10   2   21.50    3.00
  -7 -10   1  112.69    6.50
   7 -10   0    3.90    1.70
   7 -10   1   52.99    4.80
   7 -10   2   30.50    3.70
   7 -10   3    9.40    2.20
  -7  -9  12   -0.20    1.40
  -7  -9  11    8.40    2.60
  -7  -9  10    0.50    2.40
  -7  -9   9   17.20    3.50
  -7  -9   8   53.19    5.40
  -7  -9   7   24.50    3.30
  -7  -9   7   20.10    3.60
  -7  -9   6   -0.60    1.60
  -7  -9   6    2.20    2.10
  -7  -9   5   38.00    4.00
  -7  -9   5   31.60    3.60
  -7  -9   4   29.80    3.60
  -7  -9   4   28.20    3.10
  -7  -9   3  164.58    8.10
  -7  -9   3  146.19    8.10
  -7  -9   2   47.80    4.30
  -7  -9   1   56.79    4.50
   7  -9   1   16.20    2.70
   7  -9   2   22.30    3.10
   7  -9   3    0.80    1.10
  -7  -8  12    9.40    2.10
  -7  -8  11   10.00    2.70
  -7  -8  10   57.49    5.50
  -7  -8   9   16.20    3.20
  -7  -8   8    0.00    1.90
  -7  -8   7   25.40    3.40
  -7  -8   7   24.70    3.80
  -7  -8   6   22.10    3.10
  -7  -8   5   52.09    4.50
  -7  -8   5   50.79    4.70
  -7  -8   4    2.20    1.70
  -7  -8   4    4.30    1.80
  -7  -8   3   52.19    4.20
  -7  -8   3   47.60    4.30
  -7  -8   2   63.29    4.80
  -7  -8   1  166.58    8.40
  -7  -8   0   38.00    3.60
   7  -8   1   20.80    3.00
  -7  -8  -1   25.70    3.20
   7  -8   2   47.50    4.50
  -7  -8  -2   48.30    4.30
  -7  -7  12    0.90    1.50
  -7  -7  11   11.00    2.80
  -7  -7  10   19.00    3.60
  -7  -7   9   68.39    6.10
  -7  -7   8    4.90    1.90
  -7  -7   7    5.90    2.40
  -7  -7   7    4.30    1.90
  -7  -7   6    5.20    1.90
  -7  -7   6    8.80    2.30
  -7  -7   5   89.79    6.00
  -7  -7   5   87.09    6.00
  -7  -7   4  242.98   10.80
  -7  -7   4  242.78   11.00
  -7  -7   3  168.98    8.70
  -7  -7   3  180.78    8.60
  -7  -7   2   43.80    3.90
  -7  -7   1   21.20    2.90
  -7  -7   0   12.90    2.60
  -7  -7   0   19.30    2.60
  -7  -7  -1  118.89    7.10
   7  -7   2   24.60    3.30
  -7  -7  -2   21.00    3.00
  -7  -7  -3    8.70    2.10
  -7  -6  12    5.40    2.30
  -7  -6  11    1.60    2.00
  -7  -6  10    1.00    2.40
  -7  -6   9   62.79    5.90
  -7  -6   8   17.00    3.10
  -7  -6   7    3.80    2.20
  -7  -6   7    1.10    1.40
  -7  -6   6   57.99    5.00
  -7  -6   6   55.59    4.80
  -7  -6   5   20.30    3.10
  -7  -6   5   19.50    2.90
  -7  -6   4    5.20    2.10
  -7  -6   4    4.70    1.70
  -7  -6   3   13.00    2.50
  -7  -6   3   13.00    2.30
  -7  -6   2   15.70    2.60
  -7  -6   2   17.30    2.20
  -7  -6   1   13.30    2.30
  -7  -6   1   15.90    2.60
  -7  -6   0  214.28   10.10
  -7  -6  -1   18.70    2.90
   7  -6   2   18.00    2.70
  -7  -6  -2   13.20    2.20
  -7  -6  -3   36.60    3.70
   7  -6   4    7.10    2.00
   7  -6   5   16.40    2.90
   7  -6   6    6.00    2.00
   7  -6   7   13.60    2.50
   7  -6   8   25.70    2.90
  -7  -5  12    3.00    1.90
  -7  -5  11    3.80    2.30
  -7  -5  10   23.00    3.50
  -7  -5   9   39.40    4.80
  -7  -5   8    1.30    1.80
  -7  -5   7    3.50    2.10
  -7  -5   7   -0.50    1.30
  -7  -5   6   36.30    4.00
  -7  -5   6   39.80    4.10
  -7  -5   5  109.69    6.70
  -7  -5   5  118.49    7.20
  -7  -5   4  334.97   13.70
  -7  -5   4  343.87   13.50
  -7  -5   3   59.59    4.70
  -7  -5   2  118.89    6.90
  -7  -5   2  125.09    7.30
  -7  -5   1   71.59    5.10
  -7  -5   0   22.90    3.20
  -7  -5  -1   17.80    2.70
   7  -5   2   11.40    2.20
  -7  -5  -2   11.30    2.40
   7  -5   3    9.40    2.40
  -7  -5  -3    6.60    1.90
   7  -5   4    9.50    2.10
   7  -5   5    3.70    1.60
   7  -5   6   26.40    3.40
   7  -5   7   24.20    3.20
   7  -5   8   21.30    2.80
  -7  -4  12    3.30    1.70
  -7  -4  11   10.80    2.60
  -7  -4  10   30.00    4.00
  -7  -4   9   24.80    3.80
  -7  -4   8   17.70    3.50
  -7  -4   7   15.30    3.20
  -7  -4   7   18.60    2.70
  -7  -4   6   77.89    5.90
  -7  -4   6   71.29    5.40
  -7  -4   5  112.49    6.80
  -7  -4   5  110.89    6.90
  -7  -4   4   24.00    3.30
  -7  -4   3   20.10    3.10
  -7  -4   2   40.30    4.00
  -7  -4   1   35.90    3.70
  -7  -4   0   38.50    3.80
  -7  -4  -1   19.70    2.90
  -7  -4  -2   11.70    2.40
   7  -4   3   26.40    3.60
  -7  -4  -3   24.20    3.10
   7  -4   4   38.10    4.20
   7  -4   5   21.50    3.10
   7  -4   6    3.40    1.90
   7  -4   7    3.60    1.80
   7  -4   8   23.30    2.90
  -7  -3  12    0.30    1.40
  -7  -3  11    2.40    2.10
  -7  -3  10    5.00    2.50
  -7  -3   9    4.60    2.60
  -7  -3   8   61.39    5.80
  -7  -3   7   40.40    4.70
  -7  -3   7   33.80    3.80
  -7  -3   7   39.30    4.10
  -7  -3   6    7.60    2.30
  -7  -3   6    4.30    1.90
  -7  -3   5   31.50    3.50
  -7  -3   4    3.20    1.70
  -7  -3   3   90.99    5.90
  -7  -3   3   96.19    6.10
  -7  -3   2   70.19    5.10
  -7  -3   1   52.69    4.60
  -7  -3   0    2.70    1.70
  -7  -3  -1    3.40    1.60
  -7  -3  -2    2.10    1.60
   7  -3   3    2.80    1.90
  -7  -3  -3    1.10    1.50
   7  -3   4   20.30    3.20
   7  -3   5   29.20    3.80
   7  -3   6   23.30    3.40
   7  -3   7   19.60    2.90
   7  -3   8    0.30    1.50
  -7  -2  12   13.30    2.20
  -7  -2  11    1.50    1.80
  -7  -2  10   11.50    2.70
  -7  -2   9    1.40    1.90
  -7  -2   8    0.00    2.00
  -7  -2   7    7.70    2.50
  -7  -2   7   10.10    2.40
  -7  -2   7    8.40    2.50
  -7  -2   6   61.79    5.00
  -7  -2   5   62.79    5.10
  -7  -2   4   23.30    3.20
  -7  -2   3   13.70    2.50
  -7  -2   2   76.79    5.30
  -7  -2   1   56.79    4.60
  -7  -2   0   21.20    2.90
  -7  -2  -1   25.70    3.30
  -7  -2  -2   22.20    3.00
   7  -2   3   10.30    2.50
  -7  -2  -3   10.10    2.10
   7  -2   4    4.70    1.90
   7  -2   5    3.50    1.90
   7  -2   6   15.70    2.90
   7  -2   7    1.70    1.50
   7  -2   8    2.00    1.60
  -7  -1  12   11.90    2.10
  -7  -1  11   23.30    3.40
  -7  -1  10    2.00    2.20
  -7  -1   9    4.50    1.80
  -7  -1   8   22.50    3.80
  -7  -1   7   75.39    5.70
  -7  -1   7   73.69    5.60
  -7  -1   7   71.89    6.30
  -7  -1   6  198.48    9.90
  -7  -1   5   34.90    3.80
  -7  -1   4   40.20    4.10
  -7  -1   3  198.28    9.30
  -7  -1   2   15.20    2.60
  -7  -1   1   46.80    4.30
  -7  -1   0    5.10    2.00
  -7  -1  -1    0.30    1.80
  -7  -1  -2   22.40    3.20
  -7  -1  -3   69.29    5.10
   7  -1   4   19.00    3.20
  -7  -1  -4   20.60    2.90
   7  -1   5   75.79    6.10
   7  -1   6   38.60    4.30
   7  -1   7   14.00    2.60
   7  -1   8    9.70    2.30
  -7   0  12   19.60    2.60
  -7   0  11    3.90    2.00
  -7   0  10    5.50    2.40
  -7   0   9   28.70    4.10
  -7   0   8    1.60    1.70
  -7   0   7  259.97   11.40
  -7   0   7  214.68   11.80
  -7   0   6   33.10    3.70
  -7   0   5   31.70    3.60
  -7   0   4   67.29    4.90
  -7   0   3    0.60    1.50
  -7   0   2  360.16   14.00
  -7   0   1  160.48    8.20
  -7   0   0   37.20    4.00
  -7   0  -1   65.99    5.00
  -7   0  -2   39.40    3.90
  -7   0  -3   -0.30    1.40
   7   0   4    3.20    1.60
  -7   0  -4    2.50    1.50
   7   0   5   12.00    2.70
   7   0   6    3.40    1.90
   7   0   7    9.30    2.30
   7   0   8    2.10    1.60
   7   0   9    5.30    1.70
  -7   1  12   11.60    2.00
  -7   1  11   26.30    3.30
  -7   1  10   -2.70    1.80
  -7   1   9    7.30    2.60
  -7   1   8   18.90    3.40
  -7   1   7   70.39    5.30
  -7   1   7   73.39    6.20
  -7   1   6  198.48    9.80
  -7   1   5   34.20    3.80
  -7   1   4   45.50    3.90
  -7   1   3  196.98    9.20
  -7   1   2   16.30    2.60
  -7   1   1   50.09    4.30
  -7   1   0    3.60    2.10
  -7   1  -1    3.60    2.00
  -7   1  -2   18.60    2.90
  -7   1  -3   64.99    5.10
   7   1   4   20.10    3.30
  -7   1  -4   21.30    2.70
   7   1   5   75.69    6.20
   7   1   6   38.20    4.30
   7   1   7   12.90    2.60
   7   1   8    8.20    2.10
   7   1   8    7.00    2.20
   7   1   9   -0.40    1.20
  -7   2  12   13.70    1.90
  -7   2  11    4.40    1.90
  -7   2  10   14.80    3.00
  -7   2   9    4.30    2.00
  -7   2   8    1.60    1.80
  -7   2   7    9.60    2.70
  -7   2   7    7.90    2.10
  -7   2   6   59.89    4.80
  -7   2   5   56.99    4.70
  -7   2   4   20.80    2.70
  -7   2   3   12.10    2.30
  -7   2   2   77.59    5.30
  -7   2   1   53.39    4.50
  -7   2   0   19.90    3.10
  -7   2  -1   26.70    3.30
  -7   2  -2   24.40    3.20
  -7   2  -3    9.00    2.10
   7   2   4    2.90    1.70
  -7   2  -4    5.00    1.70
   7   2   5    3.80    1.50
   7   2   6   13.50    2.80
   7   2   7    4.90    2.10
   7   2   8   -0.60    1.40
   7   2   8    5.30    2.30
   7   2   9    1.90    1.30
   7   2   9    3.20    1.60
  -7   3  11    3.70    1.80
  -7   3  10    5.60    2.20
  -7   3   9    5.70    2.10
  -7   3   8   63.89    6.00
  -7   3   7   39.70    4.50
  -7   3   6    6.00    2.00
  -7   3   5   34.70    3.70
  -7   3   4    4.40    1.80
  -7   3   3   96.19    5.90
  -7   3   2   75.39    5.40
  -7   3   1   56.89    4.60
  -7   3   0    0.90    1.60
  -7   3  -1    5.40    1.90
  -7   3  -2    3.70    2.00
  -7   3  -3    0.00    1.50
   7   3   4   14.10    2.60
  -7   3  -4   17.60    2.70
   7   3   5   32.60    4.10
   7   3   6   17.30    3.20
   7   3   7   23.50    3.40
   7   3   8   -0.30    1.60
   7   3   9    1.30    1.50
   7   3   9    1.20    1.10
  -7   4  10   34.00    3.90
  -7   4   9   28.60    3.80
  -7   4   8   16.70    3.00
  -7   4   7   19.60    3.30
  -7   4   6   76.79    5.50
   7   4  -6   80.19    5.80
  -7   4   3   19.00    2.70
  -7   4   2   42.80    3.80
  -7   4   1   37.20    3.70
  -7   4   0   31.00    3.50
  -7   4  -1   17.10    2.90
  -7   4  -2   10.20    2.20
  -7   4  -3   25.40    3.30
   7   4   4   37.40    4.20
  -7   4  -4   41.50    3.90
   7   4   5   15.30    2.80
   7   4   6    1.30    1.80
   7   4   7    1.40    1.40
   7   4   8   12.40    2.50
   7   4   9    2.60    1.60
   7   4   9    5.70    1.50
  -7   5   9   44.70    4.60
  -7   5   8    0.50    1.50
  -7   5   7    0.60    1.50
  -7   5   6   41.90    3.90
   7   5  -6   45.30    4.30
  -7   5   3   67.69    4.80
  -7   5   2  123.79    7.00
  -7   5   1   70.39    5.20
  -7   5   0   27.90    3.50
  -7   5  -1   18.60    3.00
  -7   5  -2   12.50    2.50
  -7   5  -3   11.20    2.50
   7   5   4    6.50    2.00
  -7   5  -4    9.20    2.10
   7   5   5    3.30    1.90
   7   5   6   27.30    3.90
   7   5   7   18.20    3.10
   7   5   8   16.60    2.60
   7   5   9    5.00    1.80
   7   5   9    5.10    1.50
  -7   6   8   33.10    4.00
  -7   6   7    0.40    1.60
  -7   6   6   66.29    5.00
   7   6  -6   53.49    4.80
  -7   6   3   16.80    2.60
  -7   6   2   18.90    2.70
  -7   6   1   19.00    2.90
  -7   6   0  233.78   10.50
  -7   6  -1   15.30    2.80
  -7   6  -2   20.80    3.20
  -7   6  -3   28.40    3.60
   7   6   4   10.40    2.60
  -7   6  -4    9.10    2.20
   7   6   5   12.90    2.50
   7   6   6    9.10    2.30
   7   6   7   11.80    2.60
   7   6   8   24.70    3.20
   7   6   9    6.60    1.90
   7   6   9    7.80    1.80
  -7   7   6   11.60    2.30
   7   7  -6   12.80    2.40
   7   7  -5   83.09    5.90
  -7   7   3  187.38    8.80
  -7   7   2   41.40    3.90
  -7   7   1   18.60    2.70
  -7   7   0   13.80    2.50
  -7   7  -1  124.59    7.20
  -7   7  -2   22.10    3.20
  -7   7  -3   10.10    2.50
   7   7   4   13.20    2.70
  -7   7  -4   15.00    2.60
   7   7   5    4.20    2.30
   7   7   6    5.30    2.10
   7   7   6    4.30    1.60
   7   7   7    0.40    1.40
   7   7   8    7.70    2.00
   7   7   9    1.80    1.70
   7   7   9    6.40    1.80
   7   8  -6   29.30    3.50
   7   8  -5   54.29    4.80
  -7   8   3   56.09    4.30
  -7   8   2   71.79    5.20
  -7   8   1  170.98    8.60
  -7   8   0   37.20    3.80
  -7   8  -1   23.20    3.20
  -7   8  -2   47.00    4.40
  -7   8  -3   24.90    3.40
   7   8   4    5.60    2.10
  -7   8  -4    6.00    1.80
   7   8   5   23.10    3.50
   7   8   6    4.10    1.90
   7   8   6    1.30    1.50
   7   8   7   28.10    3.50
   7   8   8    8.10    1.90
   7   8   9    4.80    1.80
   7   8   9    3.50    1.40
   7   9  -6    1.90    1.80
   7   9  -5   36.00    4.00
   7   9  -4   26.90    3.40
  -7   9   3  159.68    8.00
  -7   9   2   46.80    4.00
  -7   9   1   64.09    5.10
  -7   9   0    4.60    1.80
  -7   9  -1   16.70    3.00
  -7   9  -2   24.70    3.40
   7   9   3    3.50    2.10
  -7   9  -3   -1.00    1.60
   7   9   4   15.00    2.90
   7   9   5    7.00    2.40
   7   9   6    8.80    2.40
   7   9   6    9.80    2.30
   7   9   7   12.70    2.60
   7   9   7   16.20    2.40
   7   9   8    7.30    2.00
   7   9   9   17.50    2.60
   7  10  -5    8.90    2.20
   7  10  -4   24.20    3.30
   7  10  -3   21.50    3.10
  -7  10   2   17.20    2.70
  -7  10   1  109.39    6.60
  -7  10   0    1.90    1.80
  -7  10  -1   52.99    4.70
  -7  10  -2   23.30    3.30
   7  10   3    7.30    2.30
  -7  10  -3    1.50    1.50
   7  10   4    3.40    1.60
   7  10   5   19.80    3.20
   7  10   6   27.10    3.60
   7  10   6   26.80    3.50
   7  10   7   30.20    3.60
   7  10   7   37.50    3.60
   7  10   8    7.60    2.00
   7  10   9    3.80    1.80
   7  11 -11   47.10    3.70
   7  11  -5   51.69    4.70
   7  11  -4   96.39    6.70
   7  11  -3  106.89    7.00
   7  11  -2  150.18    8.30
  -7  11   2  141.69    7.60
   7  11  -1    6.80    1.90
  -7  11   1   10.40    2.30
   7  11   0  131.69    7.60
  -7  11   0  120.69    7.30
  -7  11  -1   68.59    5.40
  -7  11  -2   52.19    4.80
   7  11   3    5.10    1.90
  -7  11  -3    8.70    2.10
   7  11   4    1.90    1.50
   7  11   5   13.60    2.90
   7  11   6   29.60    3.70
   7  11   6   34.00    4.00
   7  11   7    6.40    1.90
   7  11   7   10.40    2.20
   7  11   8   11.70    2.20
   7  11   9    0.20    1.50
   7  12 -11    1.00    1.00
   7  12  -4   44.20    4.40
   7  12  -3   12.20    2.40
  -7  12   2  227.28   10.10
   7  12  -2  204.68   10.30
   7  12  -2  201.58   10.40
   7  12  -1   72.39    5.60
  -7  12   1   73.09    5.40
   7  12   0   43.30    4.20
  -7  12   0   41.80    4.20
   7  12   3   22.90    3.40
  -7  12  -3   25.80    3.50
   7  12   4    3.40    1.50
   7  12   5   -1.00    1.80
   7  12   6    6.10    2.10
   7  12   6    8.00    2.30
   7  12   7    1.60    2.00
   7  12   7    4.20    1.50
   7  12   8    7.80    1.70
   7  12   8    6.50    1.40
   7  12   9    0.70    1.40
   7  13 -11   24.80    2.50
   7  13 -10   25.20    3.10
   7  13  -3   25.90    3.60
   7  13  -2   27.10    3.40
   7  13  -2   25.80    3.40
  -7  13   2   27.50    3.20
   7  13  -1   37.90    4.00
  -7  13   1   30.50    3.50
   7  13   0   12.60    2.40
  -7  13   0   11.50    2.50
   7  13   3    9.20    2.40
   7  13   4   17.20    2.80
   7  13   5    3.20    1.70
   7  13   6    7.30    2.20
   7  13   6    3.60    1.90
   7  13   7    0.50    1.40
   7  13   7    0.30    1.40
   7  13   8    3.90    1.50
   7  13   8    7.30    1.60
   7  14 -10    6.60    1.90
   7  14  -3   45.20    4.60
  -7  14   2   56.39    4.60
   7  14  -2   52.39    4.80
   7  14  -2   59.29    5.20
   7  14  -1   96.59    6.70
  -7  14   1   91.69    6.20
   7  14   0   25.90    3.40
   7  14   3   58.19    5.30
   7  14   4   30.50    3.80
   7  14   5    2.20    1.80
   7  14   5    2.60    1.80
   7  14   6    4.10    1.70
   7  14   6   -0.70    1.70
   7  14   7    1.60    1.30
   7  14   7    5.40    1.70
   7  14   8    3.90    1.50
   7  14   8    5.00    1.50
   7  15 -10   11.30    2.10
   7  15  -9    0.80    1.60
   7  15  -3   32.40    3.90
   7  15  -2   13.00    2.60
  -7  15   1   16.60    2.80
   7  15   2   45.20    4.40
   7  15   3   12.70    2.70
   7  15   4   48.00    4.60
   7  15   5   39.70    4.10
   7  15   5   31.10    4.10
   7  15   6   15.80    2.60
   7  15   6   12.30    2.50
   7  15   7   13.60    2.20
   7  15   7   14.40    2.50
   7  15   8    5.90    1.50
   7  15   8    2.50    1.10
   7  16 -10    2.30    1.30
   7  16  -9   25.10    3.30
   7  16  -8    2.50    2.10
   7  16  -7   21.70    3.40
   7  16  -5   72.39    5.90
   7  16  -4   22.20    3.40
   7  16  -3   29.70    3.80
   7  16  -2   76.59    6.00
  -7  16   1   57.69    4.80
   7  16  -1   58.29    5.00
   7  16   2    0.50    1.50
   7  16   3   36.50    4.00
   7  16   4   10.20    2.40
   7  16   5   18.30    2.80
   7  16   5   14.80    2.90
   7  16   6    3.30    1.80
   7  16   6    0.10    1.70
   7  16   7   -0.40    1.10
   7  16   7   -0.60    1.40
   7  16   8    1.00    1.10
   7  17 -10   20.40    2.50
   7  17  -9    3.30    1.70
   7  17  -8    8.60    2.40
   7  17  -7   27.30    3.70
   7  17  -6   11.70    2.80
   7  17  -5   31.00    4.10
   7  17  -4   25.40    3.60
   7  17  -3   21.50    3.40
   7  17  -2   15.60    2.80
  -7  17   1   33.70    3.80
   7  17  -1   36.60    4.00
   7  17   3   35.10    3.90
   7  17   4   22.30    3.20
   7  17   5    0.40    1.30
   7  17   5    7.30    2.80
   7  17   6   -0.40    1.50
   7  17   6   -0.30    1.90
   7  17   7    4.20    1.70
   7  18 -10    3.20    1.20
   7  18  -9   28.20    3.30
   7  18  -8   19.00    3.00
   7  18  -7   34.70    4.20
   7  18  -6   10.30    2.90
   7  18  -5   37.50    4.40
   7  18  -4   25.00    3.70
   7  18  -3    4.70    1.70
   7  18  -2   26.40    3.70
  -7  18   1   12.00    2.20
   7  18  -1   15.90    2.70
   7  18   5    5.80    2.30
   7  18   6    7.50    2.20
   7  18   7    6.00    1.70
   7  19 -10    7.50    1.50
   7  19  -9   20.90    2.80
   7  19  -8   11.00    2.50
   7  19  -7   10.10    2.80
   7  19  -6   55.19    5.20
   7  19  -5   41.80    4.60
   7  19  -4   53.49    5.20
   7  19  -3   30.80    4.10
   7  19  -2   36.70    4.20
   7  19  -1    1.10    1.70
   7  19   4    2.70    2.10
   7  19   5    3.00    2.20
   7  19   6    5.70    2.00
   7  19   7   -1.80    1.40
   7  20 -10    7.20    1.40
   7  20  -9   11.10    2.30
   7  20  -8   15.10    2.70
   7  20  -7   13.80    3.00
   7  20  -6    3.80    2.10
   7  20  -5   33.10    4.10
   7  20  -4    2.90    1.90
   7  20  -3   19.80    3.20
   7  20  -2    0.60    1.50
   7  20  -1   19.20    3.00
   7  20   4   12.10    3.00
   7  20   5    5.00    2.20
   7  20   6    6.80    1.80
   7  20   7    9.10    1.90
   7  21  -9   10.10    1.80
   7  21  -8   17.00    2.60
   7  21  -7    7.60    2.30
   7  21  -6    8.60    2.50
   7  21  -5    4.10    2.30
   7  21  -4    5.70    2.10
   7  21  -3   30.60    3.90
   7  21  -2   21.80    3.20
   7  21  -1   23.90    3.30
   7  21   0    4.90    1.70
   7  21   4    8.80    2.40
   7  21   5   18.00    2.90
   7  21   6    8.40    2.00
   7  21   7    1.10    1.00
   7  22  -9   26.70    2.50
   7  22  -8   13.90    2.30
   7  22  -7   23.40    3.30
   7  22  -6    4.10    2.10
   7  22  -5    4.60    2.40
   7  22  -4    3.10    2.20
   7  22  -3    3.10    2.10
   7  22  -2   42.10    4.40
   7  22  -1    1.10    1.40
   7  22   0   12.50    2.30
   7  22   3    9.80    2.50
   7  22   4    4.30    2.00
   7  22   5    0.60    1.60
   7  22   6   14.00    2.30
   7  23  -9    4.50    1.20
   7  23  -8   12.00    2.00
   7  23  -7    5.20    2.00
   7  23  -6    1.60    1.80
   7  23  -5   36.90    4.20
   7  23  -4   58.09    5.00
   7  23  -3   43.00    4.50
   7  23  -2   22.00    3.30
   7  23  -1   31.50    3.80
   7  23   0    6.70    1.70
   7  23   3   17.70    2.90
   7  23   4   25.50    3.10
   7  23   5   15.30    2.40
   7  23   6   15.10    2.10
   7  24  -8   17.10    2.30
   7  24  -7   25.40    3.10
   7  24  -6   26.80    3.40
   7  24  -5   43.30    4.50
   7  24  -4   19.10    3.40
   7  24  -3    7.30    2.60
   7  24  -2   28.10    3.70
   7  24  -1   19.50    2.90
   7  24   0   30.70    3.50
   7  24   2   24.40    3.20
   7  24   3   19.90    3.00
   7  24   4    4.80    1.70
   7  24   5    5.80    1.60
   7  24   6    2.60    1.10
   7  25  -8    8.40    1.60
   7  25  -7    4.90    1.70
   7  25  -6    9.90    2.20
   7  25  -5    6.30    2.30
   7  25  -4   34.30    3.90
   7  25  -3    3.10    1.90
   7  25  -2    0.40    1.70
   7  25  -1   13.70    2.60
   7  25   0    1.20    1.30
   7  25   1    3.80    1.70
   7  25   2   21.90    2.80
   7  25   3    6.10    1.80
   7  25   4   41.40    3.60
   7  25   5   11.20    1.90
   7  26  -8    1.80    1.00
   7  26  -7    2.40    1.20
   7  26  -6   11.80    2.20
   7  26  -5   23.50    3.10
   7  26  -4   13.30    2.80
   7  26  -3   26.40    3.50
   7  26  -2    6.40    2.30
   7  26  -1    7.30    2.10
   7  26   0   37.70    3.70
   7  26   1    0.50    1.10
   7  26   2    4.20    1.30
   7  26   3    2.80    1.60
   7  26   4   -0.10    1.10
   7  26   5    0.90    0.90
   7  27  -7   16.80    2.10
   7  27  -6   19.00    2.50
   7  27  -5    3.90    1.90
   7  27  -4   -0.30    1.90
   7  27  -3   21.20    3.00
   7  27  -2    2.40    2.00
   7  27  -1   16.50    2.50
   7  27   0    4.80    1.70
   7  27   2    6.30    1.60
   7  27   3    7.90    1.60
   7  27   4   21.70    2.20
   7  28  -7   14.00    1.80
   7  28  -6   21.00    2.50
   7  28  -5    9.00    2.00
   7  28  -4   16.60    2.60
   7  28  -3    1.00    1.50
   7  28  -2   13.10    2.20
   7  28  -1   46.90    4.20
   7  28   0   43.30    3.60
   7  28   3    7.20    1.50
   7  29  -6   11.90    1.80
   7  29  -5    8.70    1.80
   7  29  -4    7.40    2.00
   7  29  -3   11.50    2.30
   7  29  -2   12.60    2.20
   7  29  -1   16.60    2.40
   7  29   0    4.30    1.40
   7  30  -5    3.80    1.40
   7  30  -4    7.30    1.60
   7  30  -3    2.20    1.50
   7  30  -2   25.40    2.80
   7  30  -1   13.50    2.00
   7  30   0    4.50    1.20
   7  31  -5    1.10    1.00
   7  31  -4    2.70    1.10
   7  31  -3   30.10    2.80
   7  31  -2   12.30    1.90
   7  31  -1    0.50    1.00
   7  31   0   14.10    1.80
   7  32  -3    1.40    1.20
   7  32  -2    0.20    1.00
   7  32  -1    9.40    1.40
   8 -29  -2    8.50    1.50
   8 -29  -1    1.00    1.10
   8 -29   0    3.50    1.30
   8 -28  -3    4.90    1.30
   8 -28  -2   21.70    2.40
   8 -28  -1    9.00    1.80
   8 -28   0   18.80    2.40
   8 -28   1    7.50    1.60
   8 -27  -3    7.60    1.60
   8 -27  -2    4.20    1.50
   8 -27  -1    0.70    1.40
   8 -27   0    4.20    1.60
   8 -27   1    7.20    1.90
   8 -27   2    6.00    1.50
   8 -26  -3   15.50    2.20
   8 -26  -2   33.30    3.40
   8 -26  -1    5.30    1.90
   8 -26   0    2.70    1.50
   8 -26   1   16.60    2.50
   8 -26   2   16.00    2.30
   8 -25  -3    7.90    1.70
   8 -25  -2   28.10    3.30
   8 -25  -1   32.80    3.50
   8 -25   0    5.10    2.20
   8 -25   1    7.90    2.20
   8 -25   2    6.70    1.80
   8 -25   3   12.20    1.80
  -8 -24   7    7.60    1.40
  -8 -24   6    9.90    1.70
   8 -24  -3   29.50    3.20
   8 -24  -2    7.50    2.20
   8 -24  -1   25.90    3.40
   8 -24   0   12.90    2.60
   8 -24   1    5.70    2.20
   8 -24   2    4.70    1.80
   8 -24   3   18.30    2.20
  -8 -23   8    2.80    1.20
  -8 -23   7   11.40    1.90
  -8 -23   6    8.40    1.80
   8 -23  -4   25.30    2.90
   8 -23  -3    6.30    2.00
   8 -23  -2   23.80    3.20
   8 -23  -1   15.80    3.00
   8 -23   0    3.60    2.30
   8 -23   1   14.70    2.70
   8 -23   2   12.40    2.50
   8 -23   3   12.90    2.10
   8 -23   4    0.90    0.90
  -8 -22   8    3.40    1.40
  -8 -22   7    8.90    1.90
   8 -22  -4    4.90    1.60
   8 -22  -3   15.20    2.70
   8 -22  -2    2.20    1.80
   8 -22  -1    2.50    2.00
   8 -22   0   17.50    3.30
   8 -22   1    8.00    2.50
   8 -22   2   -0.60    1.90
   8 -22   3   30.00    3.20
   8 -22   4    6.00    1.40
  -8 -21   9   11.90    1.70
   8 -21  -4   13.20    2.30
   8 -21  -3    7.10    2.20
   8 -21  -2   15.80    3.00
   8 -21  -1   72.59    5.80
   8 -21   0    0.00    2.10
   8 -21   1   25.90    3.70
   8 -21   2    1.40    1.80
   8 -21   3   26.00    3.10
   8 -21   4   12.20    2.00
  -8 -20   9   15.50    2.00
   8 -20  -4   31.80    3.50
   8 -20  -3   12.40    2.60
   8 -20  -2    9.50    2.70
   8 -20  -1    7.70    2.80
   8 -20   0   41.10    4.40
   8 -20   1    4.90    2.30
   8 -20   2   22.60    3.30
   8 -20   3   35.70    3.70
   8 -20   4    5.70    1.50
   8 -19  -4    6.40    2.10
   8 -19  -3    2.70    1.90
   8 -19  -2    7.20    2.00
   8 -19  -1   48.30    4.70
   8 -19   0    7.70    2.40
   8 -19   1    4.60    2.20
   8 -19   2   22.20    3.10
   8 -19   3   30.90    3.60
   8 -19   4    3.10    1.60
  -8 -18  10    5.70    1.30
   8 -18  -4   -2.60    1.60
   8 -18  -3   11.20    2.50
   8 -18  -2   11.90    2.80
   8 -18  -1    1.00    1.90
   8 -18   0   30.00    4.00
   8 -18   1   55.99    5.00
   8 -18   2   43.90    4.40
   8 -18   3   14.70    2.50
  -8 -17   9   35.60    3.20
  -8 -17   8   29.90    3.10
  -8 -17   7   17.80    2.50
   8 -17  -4    6.50    2.20
   8 -17  -3   30.60    3.80
   8 -17  -2   56.49    5.30
   8 -17  -1   29.30    3.90
   8 -17   0   42.80    4.40
   8 -17   1   13.80    3.00
   8 -17   2   13.10    2.80
   8 -17   3   -2.00    1.80
  -8 -16  10    0.60    1.00
  -8 -16   9    6.40    1.70
  -8 -16   8    7.60    2.10
  -8 -16   7   31.30    3.70
  -8 -16   6    5.60    1.90
   8 -16  -4   22.80    3.30
   8 -16  -3    2.50    1.60
   8 -16  -2   39.40    4.40
   8 -16  -1   18.00    3.40
   8 -16   0    8.60    2.60
   8 -16   1   57.59    5.30
   8 -16   2   36.90    4.20
   8 -16   3    3.20    1.80
  -8 -15  10   24.30    2.60
  -8 -15   9   14.30    2.60
  -8 -15   8   16.10    2.60
  -8 -15   7    5.60    1.80
  -8 -15   6   33.80    3.90
  -8 -15   5    1.70    1.30
   8 -15  -4   17.10    2.90
   8 -15  -3   16.30    2.90
   8 -15  -2   78.49    6.20
   8 -15  -1   22.90    3.40
   8 -15   0    7.40    2.10
   8 -15   1   21.00    3.40
   8 -15   2    9.10    2.40
   8 -15   3   -0.10    1.40
  -8 -14  10   10.10    2.20
  -8 -14   9    3.00    1.60
  -8 -14   8    2.10    1.80
  -8 -14   7   53.49    5.10
  -8 -14   6    6.80    2.10
  -8 -14   5   31.00    3.80
   8 -14  -4   53.99    4.80
   8 -14  -3  137.89    8.20
   8 -14  -2   11.00    2.70
   8 -14  -1   14.50    3.20
   8 -14   0    6.90    2.40
   8 -14   1   46.50    4.70
   8 -14   2   46.20    4.60
   8 -14   3    1.60    1.50
  -8 -13  11   23.10    2.40
  -8 -13  10   20.80    2.90
  -8 -13   9   23.80    3.20
  -8 -13   8   31.70    3.80
  -8 -13   7   13.10    2.80
  -8 -13   6   49.30    5.00
  -8 -13   5   17.40    3.00
   8 -13  -5   21.70    3.00
   8 -13  -4   25.60    3.40
   8 -13  -3   10.10    2.40
   8 -13  -2   21.10    3.10
   8 -13  -1   61.49    5.40
   8 -13   0    2.80    2.10
   8 -13   1   11.00    2.60
   8 -13   2   22.80    3.50
   8 -13   3    8.10    2.00
  -8 -12  11    3.50    1.60
  -8 -12  10    1.80    1.50
  -8 -12   9    9.60    2.60
  -8 -12   8   18.60    3.30
  -8 -12   7   23.80    3.60
  -8 -12   6   21.30    3.60
  -8 -12   5  102.39    7.50
   8 -12  -5  108.19    6.90
   8 -12  -4  104.59    6.90
   8 -12  -3   68.79    5.60
  -8 -12   2   40.90    4.20
   8 -12  -2   41.40    4.50
   8 -12  -1    4.30    2.00
   8 -12   0   39.50    4.40
   8 -12   1   33.90    4.00
   8 -12   2   47.90    4.70
   8 -12   3   27.60    3.50
  -8 -11  11    1.10    1.30
  -8 -11  10   14.80    2.80
  -8 -11   9   18.00    3.10
  -8 -11   8    0.40    2.20
  -8 -11   7    5.60    2.10
  -8 -11   6   28.00    4.00
   8 -11  -5    1.70    1.40
   8 -11  -4    4.30    1.50
  -8 -11   3   12.80    2.20
   8 -11  -3    8.50    2.50
  -8 -11   2   14.80    2.50
   8 -11  -2   15.00    3.00
   8 -11  -1   45.00    4.70
   8 -11   0    7.70    2.40
   8 -11   1   11.80    2.70
   8 -11   2   22.00    3.40
   8 -11   3   23.80    3.10
  -8 -10  11    0.90    1.40
  -8 -10  10    8.40    2.70
  -8 -10   9    0.50    2.10
  -8 -10   8    3.20    2.00
  -8 -10   7    7.10    2.70
  -8 -10   6   18.90    3.40
   8 -10  -5   56.69    4.80
  -8 -10   4   33.80    3.70
  -8 -10   4   34.40    3.70
   8 -10  -4   38.90    4.10
  -8 -10   3    7.00    2.10
   8 -10  -3    3.30    1.80
  -8 -10   2    0.80    1.40
   8 -10  -2    3.40    1.50
   8 -10  -1   23.00    3.30
   8 -10   0   36.80    4.30
   8 -10   1    6.50    2.30
   8 -10   2   20.10    3.20
   8 -10   3   17.80    2.80
  -8  -9  11   20.10    2.70
  -8  -9  10   26.10    3.50
  -8  -9   9   28.50    3.90
  -8  -9   8    0.90    2.20
  -8  -9   7    3.10    2.50
  -8  -9   6    9.00    2.70
  -8  -9   5   19.60    2.90
   8  -9  -5   25.20    3.20
  -8  -9   4  111.19    6.80
  -8  -9   4  105.29    6.90
   8  -9  -4  117.69    7.30
  -8  -9   3  120.79    7.40
   8  -9  -3  126.59    7.90
  -8  -9   2   47.80    4.30
   8  -9  -2   47.30    4.80
  -8  -9   1   21.70    2.90
   8  -9  -1   20.60    3.10
   8  -9   0   17.60    3.10
   8  -9   1   36.40    4.20
   8  -9   2   14.90    2.80
   8  -9   3   12.50    2.40
  -8  -8  11    4.70    1.60
  -8  -8  10    1.40    1.90
  -8  -8   9   63.69    5.90
  -8  -8   8  110.59    7.80
  -8  -8   7   13.60    3.10
  -8  -8   6   52.19    5.40
  -8  -8   5    2.10    1.60
  -8  -8   5    0.40    1.30
   8  -8  -5    1.40    1.30
  -8  -8   4   66.59    5.10
  -8  -8   4   65.89    5.30
   8  -8  -4   73.49    5.70
  -8  -8   3   67.39    5.30
   8  -8  -3   71.99    5.70
  -8  -8   2   13.50    2.50
   8  -8  -2   19.40    3.10
  -8  -8   1   -2.20    1.50
   8  -8  -1   -0.50    1.60
   8  -8   0    4.00    1.90
   8  -8   1    5.40    2.00
   8  -8   2   43.20    4.50
  -8  -7  12    8.10    1.60
  -8  -7  11    8.80    2.20
  -8  -7  10    4.80    2.30
  -8  -7   9    1.40    2.30
  -8  -7   8   25.30    3.70
  -8  -7   7   23.30    3.80
  -8  -7   5   77.09    5.60
  -8  -7   5   70.49    5.70
   8  -7  -5   85.69    6.00
  -8  -7   4   48.90    4.30
  -8  -7   4   52.29    4.70
   8  -7  -4   56.89    5.00
  -8  -7   3   22.60    3.10
   8  -7  -3   24.70    3.30
  -8  -7   2  111.99    7.00
   8  -7  -2  108.69    7.20
  -8  -7   1   34.00    3.60
   8  -7  -1   36.90    4.20
   8  -7   0   13.20    2.80
   8  -7   1   41.50    4.40
   8  -7   2   25.50    3.50
  -8  -6  12   23.30    2.40
  -8  -6  11   17.90    2.80
  -8  -6  10    0.20    2.00
  -8  -6   9   14.10    3.20
  -8  -6   8   -0.10    2.60
  -8  -6   7   24.30    3.80
  -8  -6   5   14.00    2.80
  -8  -6   5   11.80    2.40
   8  -6  -5   12.90    2.50
  -8  -6   4   15.50    2.70
  -8  -6   4   19.60    2.90
   8  -6  -4   16.70    2.70
  -8  -6   3   48.50    4.50
   8  -6  -3   56.79    5.00
  -8  -6   2   13.10    2.40
   8  -6  -2   10.10    2.40
  -8  -6   1   -0.80    1.50
   8  -6  -1    3.00    1.90
   8  -6   0   23.30    3.30
  -8  -6   0   18.00    3.10
   8  -6   1    9.80    2.50
  -8  -6  -1    9.80    2.50
   8  -6   2   68.79    5.50
  -8  -6  -2   63.99    5.20
   8  -6   3   14.30    2.70
   8  -6   4   69.99    5.50
   8  -6   5   67.49    5.20
  -8  -5  12    8.60    1.60
  -8  -5  11    7.30    1.90
  -8  -5  10    2.60    2.10
  -8  -5   9   19.40    3.50
  -8  -5   8   30.70    4.20
  -8  -5   7   50.09    5.20
  -8  -5   5   25.60    3.40
  -8  -5   5   28.10    3.40
   8  -5  -5   29.60    3.60
  -8  -5   4   20.20    3.10
  -8  -5   4   17.50    2.70
   8  -5  -4   17.80    2.80
  -8  -5   3   78.89    5.80
  -8  -5   3   81.19    5.50
   8  -5  -3   78.69    5.90
  -8  -5   2   42.00    4.10
   8  -5  -2   39.00    4.10
  -8  -5   1   11.90    2.40
   8  -5  -1   11.00    2.30
  -8  -5   1   14.50    2.60
  -8  -5   0   34.80    3.60
   8  -5   0   35.20    4.10
  -8  -5   0   31.60    3.70
   8  -5   1   17.30    3.10
  -8  -5  -1   16.60    2.80
   8  -5   2   49.50    4.60
  -8  -5  -2   48.90    4.50
   8  -5   3   48.50    4.80
   8  -5   4   23.90    3.30
   8  -5   5   39.00    4.00
   8  -5   6   33.30    3.50
   8  -5   7    8.50    1.80
  -8  -4  12    9.80    1.70
  -8  -4  11    3.70    1.80
  -8  -4  10   22.40    3.50
  -8  -4   9   48.70    5.10
  -8  -4   8   67.69    6.00
  -8  -4   7   97.19    7.30
  -8  -4   6   29.10    3.60
  -8  -4   6   27.60    3.50
  -8  -4   5   17.40    2.90
  -8  -4   5   17.30    2.70
   8  -4  -5   20.80    3.10
  -8  -4   4   54.69    4.90
  -8  -4   4   47.90    4.30
   8  -4  -4   49.80    4.70
  -8  -4   3  103.59    6.70
  -8  -4   3  110.39    6.40
   8  -4  -3  100.19    6.90
  -8  -4   2   28.90    3.40
   8  -4  -2   31.50    3.90
   8  -4  -1    6.10    2.10
  -8  -4   1    1.70    1.90
   8  -4   0    3.70    1.70
  -8  -4   0    6.40    2.20
   8  -4   1   14.40    2.70
  -8  -4  -1   11.40    2.50
   8  -4   2   38.30    3.90
  -8  -4  -2   40.30    4.00
   8  -4   3   24.60    3.60
   8  -4   4    4.40    1.70
   8  -4   5    9.80    2.20
   8  -4   6    5.30    1.70
   8  -4   7    6.00    1.70
  -8  -3  12   17.20    2.10
  -8  -3  11   21.70    2.90
  -8  -3  10   10.50    2.60
  -8  -3   9   10.50    2.80
  -8  -3   8   19.50    3.60
  -8  -3   7    9.80    3.00
  -8  -3   6   19.80    2.90
  -8  -3   6   15.40    2.80
  -8  -3   5  101.09    6.60
  -8  -3   5  108.29    7.00
   8  -3  -5  102.89    6.80
  -8  -3   4   22.80    3.30
   8  -3  -4   23.40    3.10
  -8  -3   3   45.50    4.40
   8  -3  -3   42.70    4.50
  -8  -3   2    8.70    2.10
   8  -3  -2   13.20    2.50
  -8  -3   2    9.20    2.50
   8  -3  -1   32.70    3.80
  -8  -3   1   27.50    3.60
   8  -3   0   10.10    2.40
  -8  -3   0   13.70    2.70
   8  -3   1   96.29    6.50
  -8  -3  -1   83.49    6.10
   8  -3   2   32.80    3.60
  -8  -3  -2   26.70    3.50
   8  -3   3   14.70    2.90
   8  -3   4   12.80    2.50
   8  -3   5    1.30    1.60
   8  -3   6   28.00    3.40
   8  -3   7    6.20    1.90
   8  -3   8    7.00    1.50
  -8  -2  12    1.50    1.10
  -8  -2  11    5.90    1.90
  -8  -2  10   18.30    3.00
  -8  -2   9   11.50    3.10
  -8  -2   8   37.40    4.50
  -8  -2   7    5.90    2.50
  -8  -2   6   89.39    6.30
  -8  -2   6   94.79    6.50
  -8  -2   5   72.59    5.70
   8  -2  -5   71.69    5.70
  -8  -2   4   10.80    2.50
   8  -2  -4    6.80    1.90
  -8  -2   3    2.00    1.60
   8  -2  -3    1.50    1.40
   8  -2  -2   34.50    3.80
  -8  -2   2   28.30    3.60
   8  -2  -1   76.29    5.80
  -8  -2   1   69.69    5.50
   8  -2   0   64.69    5.40
  -8  -2   0   63.79    5.30
   8  -2   1   20.60    3.00
  -8  -2  -1   18.10    2.90
   8  -2   2    7.40    2.00
  -8  -2  -2    5.70    1.70
   8  -2   3   44.30    4.70
   8  -2   4   23.50    3.40
   8  -2   5    1.80    1.60
   8  -2   6    7.10    2.30
   8  -2   7    6.40    1.80
   8  -2   8    5.90    1.50
  -8  -1  12    2.00    1.00
  -8  -1  11   13.10    2.30
  -8  -1  10   33.10    4.00
  -8  -1   9   78.79    6.20
  -8  -1   8    3.10    2.30
  -8  -1   7   26.50    3.80
  -8  -1   6  135.09    8.10
  -8  -1   6  150.78    8.40
   8  -1  -6  163.58    8.70
  -8  -1   5   12.50    2.50
   8  -1  -5   17.30    3.00
  -8  -1   4   70.89    5.50
   8  -1  -4   76.49    5.70
   8  -1  -3   14.90    2.90
  -8  -1   3   16.80    3.00
   8  -1  -2    2.50    1.30
  -8  -1   2   -1.20    1.50
   8  -1  -1   39.30    4.10
  -8  -1   1   41.10    4.10
   8  -1   0   29.20    3.60
  -8  -1   0   28.10    3.60
   8  -1   1   45.10    4.50
  -8  -1  -1   49.40    4.50
   8  -1   2   22.10    3.10
  -8  -1  -2   15.50    2.60
   8  -1   3   12.80    2.80
   8  -1   4   11.10    2.60
   8  -1   5   16.00    3.00
   8  -1   6   15.60    2.60
   8  -1   7   55.59    4.40
   8  -1   8   17.00    2.10
  -8   0  11   -0.50    1.40
  -8   0  10   21.30    3.00
  -8   0   9   -3.10    2.50
  -8   0   8   37.80    4.70
  -8   0   7   17.60    3.20
  -8   0   6   -0.50    1.40
   8   0  -6    0.50    1.20
  -8   0   5   78.19    5.80
   8   0  -5   88.89    6.20
  -8   0   4  122.49    7.40
   8   0  -4  123.99    7.60
   8   0  -3   28.60    3.60
  -8   0   3   29.00    3.40
   8   0  -2   61.99    5.10
  -8   0   2   66.19    5.20
   8   0  -1    1.20    1.30
  -8   0   1    4.30    2.10
   8   0   0   34.10    3.90
  -8   0   0   26.70    3.50
   8   0   1   10.70    2.50
  -8   0  -1    8.90    2.20
  -8   0  -2   23.00    3.30
   8   0   3   19.30    3.20
   8   0   4    3.30    1.60
   8   0   5    0.60    1.50
   8   0   6    3.80    1.80
   8   0   7   -0.10    1.40
   8   0   8    3.50    1.30
  -8   1  11   15.90    2.40
  -8   1  10   34.30    3.80
  -8   1   9   72.99    6.00
  -8   1   8   -1.60    2.10
  -8   1   7   25.60    3.90
  -8   1   6  148.39    8.40
   8   1  -6  149.99    8.40
  -8   1   5   18.20    2.90
   8   1  -5   15.40    2.70
  -8   1   4   71.69    5.40
   8   1  -4   73.99    5.70
   8   1  -3   13.80    2.60
  -8   1   3   14.50    2.70
   8   1  -2   -0.90    1.30
  -8   1   2    1.80    1.50
   8   1  -1   42.00    4.30
  -8   1   1   34.30    4.00
   8   1   0   32.80    3.80
  -8   1   0   27.40    3.50
   8   1   1   47.60    4.50
  -8   1  -1   41.70    4.30
  -8   1  -2   21.20    3.10
   8   1   3    9.60    2.60
   8   1   4   13.30    2.80
   8   1   5   15.00    2.80
   8   1   6   17.40    2.80
   8   1   7   49.00    4.20
   8   1   8   18.40    2.40
  -8   2  11    5.80    1.70
  -8   2  10   17.60    2.80
  -8   2   9   15.10    3.20
  -8   2   8   32.50    4.20
  -8   2   7    2.70    1.90
  -8   2   6   85.89    6.10
   8   2  -6  100.49    6.70
  -8   2   5   69.89    5.50
   8   2  -5   70.09    5.60
   8   2  -4    9.70    2.30
  -8   2   4   12.10    2.40
   8   2  -3    0.10    1.30
  -8   2   3    0.00    1.40
   8   2  -2   27.60    3.70
  -8   2   2   31.00    3.70
   8   2  -1   65.59    5.50
  -8   2   1   81.29    5.80
   8   2   0   64.99    5.20
  -8   2   0   61.69    5.20
   8   2   1   17.00    2.70
  -8   2  -1   17.60    3.00
  -8   2  -2    4.60    1.70
   8   2   3   37.50    4.50
   8   2   4   16.90    3.10
   8   2   5    4.90    2.00
   8   2   6    8.00    2.20
   8   2   7    3.70    1.70
   8   2   8    7.50    1.60
  -8   3  11   21.80    2.50
  -8   3  10    9.80    2.40
  -8   3   9    5.90    2.10
  -8   3   8   13.70    3.10
  -8   3   7    9.50    2.80
  -8   3   6   20.80    3.20
   8   3  -6   18.80    3.00
  -8   3   5  106.19    6.80
   8   3  -5  104.29    7.00
   8   3  -4   19.50    3.20
   8   3  -3   44.40    4.40
  -8   3   3   45.20    4.30
   8   3  -2   11.30    2.40
  -8   3   2    9.50    2.30
   8   3  -1   31.00    3.80
  -8   3   1   35.20    3.80
   8   3   0   12.20    2.70
  -8   3   0    8.60    2.30
   8   3   1   90.79    6.30
  -8   3  -1   89.19    6.20
  -8   3  -2   31.00    3.80
   8   3   3   13.20    2.70
   8   3   4   10.10    2.50
   8   3   5    1.70    1.60
   8   3   6   20.80    3.10
   8   3   7    7.40    2.00
   8   3   8   10.90    2.00
  -8   4  10   21.40    3.00
  -8   4   9   52.59    4.90
  -8   4   8   73.29    6.10
  -8   4   7  100.39    7.40
  -8   4   6   24.50    3.20
   8   4  -6   30.40    3.70
  -8   4   5   18.80    2.80
   8   4  -5   14.30    2.70
   8   4  -4   51.99    4.90
   8   4  -3  105.39    7.10
  -8   4   3  105.49    6.70
   8   4  -2   29.50    3.70
  -8   4   2   29.10    3.60
   8   4  -1    1.40    1.40
  -8   4   1    0.80    1.80
   8   4   0   -0.30    1.50
  -8   4   0    3.00    1.40
   8   4   1   19.80    3.10
  -8   4  -1    7.00    2.20
  -8   4  -2   32.40    3.80
   8   4   3   22.40    3.60
   8   4   4    3.20    1.70
   8   4   5    9.50    2.60
   8   4   6    4.40    1.80
   8   4   7    6.50    2.10
   8   4   8    0.10    1.30
  -8   5   9   23.20    3.40
  -8   5   8   32.40    3.60
  -8   5   7   59.19    5.50
  -8   5   6    2.20    1.60
   8   5  -6    2.30    1.50
  -8   5   5   31.00    3.50
   8   5  -5   26.70    3.40
   8   5  -4   24.60    3.30
  -8   5   3   76.49    5.60
   8   5  -3   77.59    5.90
  -8   5   2   39.80    4.10
   8   5  -2   38.00    4.10
  -8   5   1   11.20    2.50
   8   5  -1    9.60    2.20
  -8   5   0   35.00    3.80
   8   5   0   29.20    3.70
  -8   5  -1   14.60    2.80
   8   5   1   15.30    2.60
  -8   5  -2   40.70    4.20
   8   5   3   36.30    4.20
   8   5   4   17.70    3.20
   8   5   5   22.40    3.30
   8   5   6   24.90    3.20
   8   5   7    9.30    2.00
   8   5   8    8.80    1.90
   8   5   8    7.00    1.60
  -8   6   9   23.60    3.20
  -8   6   8    1.90    1.60
  -8   6   7   20.60    3.40
   8   6  -6    5.70    2.00
   8   6  -5   10.10    2.30
   8   6  -4   20.30    3.20
  -8   6   3   57.79    4.80
   8   6  -3   52.19    5.10
  -8   6   2   12.10    2.50
   8   6  -2    7.50    2.20
  -8   6   1    5.60    2.10
   8   6  -1    0.50    1.40
  -8   6   0   17.80    2.80
   8   6   0   20.50    3.20
  -8   6  -1   10.40    2.20
   8   6   1   15.90    2.80
  -8   6  -2   57.39    5.00
   8   6   3   10.20    2.50
   8   6   4   51.49    5.00
   8   6   5   56.69    5.20
   8   6   6    4.90    1.80
   8   6   7   23.90    3.00
   8   6   8    6.00    1.50
   8   6   8    9.20    1.80
  -8   7   7   23.60    3.40
   8   7  -6   23.70    3.40
   8   7  -5   84.99    6.50
   8   7  -4   49.00    4.80
  -8   7   3   30.20    3.50
   8   7  -3   27.90    3.60
  -8   7   2  119.69    7.10
   8   7  -2  113.79    7.40
  -8   7   1   31.10    3.60
   8   7  -1   31.80    3.90
  -8   7   0   15.50    2.70
   8   7   0   12.90    2.80
  -8   7  -1   49.20    4.60
   8   7   1   45.00    4.40
   8   7   3   10.60    2.40
   8   7   4    6.50    2.30
   8   7   5    3.90    1.70
   8   7   6    8.10    2.00
   8   7   7   10.80    2.10
   8   7   8    9.50    2.00
   8   7   8   10.30    1.90
   8   8  -6   52.19    4.80
   8   8  -5    0.10    1.50
   8   8  -4   71.09    5.90
   8   8  -3   70.49    5.80
  -8   8   2   10.10    2.20
   8   8  -2   11.10    2.70
  -8   8   1    1.30    1.40
   8   8  -1    0.90    1.40
  -8   8   0    2.90    1.60
   8   8   0    4.30    2.00
  -8   8  -1    2.40    1.50
   8   8   1    1.80    1.50
   8   8   3    8.70    2.50
   8   8   4   15.10    3.00
   8   8   5    5.20    2.00
   8   8   6    5.00    1.90
   8   8   7    1.80    1.50
   8   8   8   21.40    2.60
   8   8   8   21.80    2.50
   8   9  -5   21.00    3.30
   8   9  -4  112.39    7.40
   8   9  -3  116.89    7.60
   8   9  -2   46.50    4.80
  -8   9   2   50.29    4.50
   8   9  -1   19.30    3.20
  -8   9   1   21.50    3.10
   8   9   0   13.20    2.50
  -8   9   0   18.30    3.20
   8   9   1   40.80    4.30
  -8   9  -1   32.60    3.90
   8   9   3    8.40    2.50
   8   9   4   25.00    3.50
   8   9   5    2.00    1.40
   8   9   6   21.20    3.10
   8   9   6   20.80    2.70
   8   9   7   12.30    2.30
   8   9   8    0.10    1.00
   8  10 -11    2.00    1.30
   8  10  -5   48.00    4.80
   8  10  -4   38.30    4.20
   8  10  -3    8.90    2.60
   8  10  -2    5.40    2.30
  -8  10   2    5.30    1.60
   8  10  -1   22.10    3.50
  -8  10   1   17.40    2.80
   8  10   0   39.00    4.20
  -8  10   0   39.80    4.10
   8  10   1    2.20    1.50
   8  10   3   14.60    2.80
   8  10   4   16.00    2.90
   8  10   5    7.50    1.80
   8  10   5   13.60    2.80
   8  10   6    1.40    1.40
   8  10   6    0.80    1.30
   8  10   7    9.00    1.90
   8  10   8   16.10    2.00
   8  11 -11    0.50    1.00
   8  11  -4    3.80    1.90
   8  11  -3    9.10    2.50
   8  11  -2   14.40    2.90
  -8  11   2   15.00    2.70
   8  11  -1   38.20    4.40
  -8  11   1   53.59    4.70
   8  11   0    8.50    2.20
  -8  11   0   14.50    2.70
   8  11   1   16.90    2.70
   8  11   3   23.10    3.40
   8  11   4   21.90    3.30
   8  11   5   13.20    2.50
   8  11   5   12.60    2.60
   8  11   6   11.50    2.20
   8  11   6   10.80    2.10
   8  11   7    8.50    1.70
   8  12 -11    0.30    0.90
   8  12 -10    4.60    1.80
   8  12  -4  101.39    7.20
   8  12  -3   58.59    5.10
   8  12  -3   59.59    5.40
   8  12  -2   39.10    4.40
  -8  12   2   43.80    4.20
   8  12  -1    1.20    1.60
  -8  12   1    2.20    1.50
   8  12   0   44.50    4.50
   8  12   3   26.00    3.40
   8  12   4    4.90    2.10
   8  12   5   10.20    2.10
   8  12   5   11.30    2.30
   8  12   6   11.40    2.10
   8  12   6   10.30    2.00
   8  12   7    4.70    1.60
   8  12   7    0.40    1.00
   8  13 -10   15.00    2.10
   8  13  -3    6.60    1.90
   8  13  -3   10.80    2.50
   8  13  -2   24.60    3.50
   8  13  -1   56.09    5.20
   8  13   0    0.80    1.50
   8  13   2   25.30    3.60
   8  13   3    9.40    2.50
   8  13   4    4.70    2.00
   8  13   5   10.60    2.20
   8  13   5   15.60    2.90
   8  13   6   13.20    2.20
   8  13   6   13.40    2.40
   8  13   7   20.10    2.40
   8  13   7   16.20    2.00
   8  14 -10    7.20    1.80
   8  14  -9    1.80    1.60
   8  14  -4   54.09    5.00
   8  14  -3  139.29    8.40
   8  14   2   45.10    4.50
   8  14   3    0.10    1.60
   8  14   4   10.70    2.30
   8  14   5    3.70    1.60
   8  14   5    5.20    1.90
   8  14   6    1.80    1.30
   8  14   6    0.70    1.40
   8  14   7    4.80    1.50
   8  14   7    4.90    1.20
   8  15 -10   25.80    2.70
   8  15  -9   13.40    2.50
   8  15  -8   19.20    3.20
   8  15  -7    4.90    2.30
   8  15  -6   26.80    3.90
   8  15  -5    4.50    2.50
   8  15  -4    9.90    2.50
   8  15  -3   16.40    2.80
   8  15  -2   84.99    6.20
   8  15   2    1.50    1.90
   8  15   3    5.20    1.80
   8  15   4    1.40    1.50
   8  15   5    5.00    1.90
   8  15   5    8.20    2.40
   8  15   6   10.90    1.90
   8  15   6    8.40    2.10
   8  16 -10    1.40    1.10
   8  16  -9    2.60    1.40
   8  16  -8    6.20    2.20
   8  16  -7   28.70    3.90
   8  16  -6    4.50    2.50
   8  16  -5   23.10    3.60
   8  16  -4   14.60    2.70
   8  16  -3    1.90    1.60
   8  16  -2   39.90    4.10
   8  16   2   37.70    3.90
   8  16   3    4.10    1.90
   8  16   4    6.10    1.80
   8  16   5    5.90    1.80
   8  16   5    2.70    1.70
   8  16   6    7.50    1.70
   8  16   6    4.80    1.50
   8  17 -10    4.10    1.30
   8  17  -9   24.20    2.90
   8  17  -8   25.40    3.30
   8  17  -7   11.80    2.80
   8  17  -6    4.40    2.40
   8  17  -5    5.30    2.10
   8  17  -4    8.70    2.30
   8  17  -3   24.90    3.60
   8  17  -2   52.19    4.70
   8  17   1   17.30    2.70
   8  17   2   10.90    2.40
   8  17   3    3.00    1.40
   8  17   4   11.50    2.10
   8  17   4   10.20    2.50
   8  17   5    6.60    1.80
   8  17   5    3.60    1.80
   8  17   6    9.50    1.80
   8  18  -9    2.00    1.40
   8  18  -8    4.10    1.80
   8  18  -7    7.90    2.50
   8  18  -6    5.30    2.00
   8  18  -5   10.90    2.90
   8  18  -4    1.40    1.80
   8  18  -3    9.70    2.20
   8  18  -2   11.40    2.40
   8  18   4   33.00    3.70
   8  18   5   12.00    2.30
   8  18   6    3.30    1.40
   8  19  -9   15.60    2.20
   8  19  -8   -0.40    1.90
   8  19  -7   17.80    3.00
   8  19  -6   12.40    2.70
   8  19  -5   11.90    2.90
   8  19  -4   10.00    2.50
   8  19  -3    2.30    1.80
   8  19  -2    7.20    2.20
   8  19   4    3.10    1.70
   8  19   5    4.00    1.70
   8  19   6    4.90    1.50
   8  20  -9   12.20    1.90
   8  20  -8   43.30    3.80
   8  20  -7   17.10    2.80
   8  20  -6   11.20    2.50
   8  20  -5    6.30    2.00
   8  20  -4   30.40    3.70
   8  20  -3   15.00    2.70
   8  20  -2    4.10    1.70
   8  20   3   35.50    4.00
   8  20   4    8.60    2.20
   8  20   5    3.70    1.20
   8  21  -9   10.10    1.50
   8  21  -8    0.10    1.30
   8  21  -7    5.90    1.90
   8  21  -6    4.90    2.10
   8  21  -5   -0.40    1.80
   8  21  -4   13.30    2.70
   8  21  -3    9.40    2.20
   8  21  -2   13.60    2.60
   8  21   3   23.90    3.10
   8  21   4   15.80    2.50
   8  21   5    2.20    1.40
   8  22  -8    3.70    1.30
   8  22  -7    7.40    2.10
   8  22  -6    9.20    2.30
   8  22  -5    8.70    2.40
   8  22  -4    0.70    1.70
   8  22  -3   14.30    2.50
   8  22  -2    3.40    1.50
   8  22  -1    3.80    1.70
   8  22   2    0.40    1.60
   8  22   3   28.20    3.20
   8  22   4    4.70    1.60
   8  22   5    7.90    1.50
   8  23  -8    3.30    1.30
   8  23  -7   14.60    2.40
   8  23  -6    5.80    1.80
   8  23  -5   16.50    2.70
   8  23  -4   23.60    3.10
   8  23  -3    7.60    2.10
   8  23  -2   28.50    3.40
   8  23  -1   17.00    2.40
   8  23   2   12.60    2.30
   8  23   3   12.70    2.30
   8  23   4    0.90    1.20
   8  24  -7   14.40    2.20
   8  24  -6    8.50    1.90
   8  24  -5   18.10    2.90
   8  24  -4   18.90    3.00
   8  24  -3   34.60    3.70
   8  24  -2    6.90    1.80
   8  24  -1   30.90    3.20
   8  24   1    8.60    1.80
   8  24   2    8.10    2.00
   8  24   3   18.70    2.40
   8  24   4    1.50    1.20
   8  25  -7    7.80    1.60
   8  25  -6   10.10    2.10
   8  25  -5   18.40    2.60
   8  25  -4    1.00    1.50
   8  25  -3   11.90    2.10
   8  25  -2   27.20    3.10
   8  25  -1   38.00    3.40
   8  25   0    5.40    1.50
   8  25   1    5.10    1.50
   8  25   2    5.60    1.60
   8  25   3   14.60    2.00
   8  26  -6   11.70    1.80
   8  26  -5    8.40    1.90
   8  26  -4   39.00    3.60
   8  26  -3   19.20    2.70
   8  26  -2   31.20    3.10
   8  26  -1    4.80    1.60
   8  26   1    9.10    1.60
   8  26   2    9.80    1.60
   8  27  -6   34.80    2.70
   8  27  -5    8.20    1.70
   8  27  -4    2.90    1.50
   8  27  -3    4.90    1.70
   8  27  -2    8.40    1.70
   8  27  -1    3.20    1.20
   8  28  -5   12.80    1.80
   8  28  -4   32.90    2.80
   8  28  -3    2.50    1.10
   8  28  -2   18.70    2.20
   8  28  -1    7.50    1.30
   8  29  -4    1.30    1.00
   8  29  -3    6.10    1.30
   8  29  -2    7.30    1.40
   9 -26  -2   26.10    2.30
   9 -26  -1    4.70    1.30
   9 -25  -3    1.40    1.00
   9 -25  -2    0.60    1.00
   9 -25  -1   11.20    1.90
   9 -25   0    2.70    1.30
   9 -25   1    2.20    1.20
   9 -24  -3   11.40    1.90
   9 -24  -2    6.80    1.60
   9 -24  -1    7.70    1.80
   9 -24   0    8.40    1.80
   9 -24   1    1.70    1.30
   9 -23  -3   15.40    2.10
   9 -23  -2   13.20    2.20
   9 -23  -1    9.80    2.20
   9 -23   0    7.20    1.80
   9 -23   1   -1.20    1.50
   9 -23   2    5.70    1.40
   9 -22  -4   10.20    1.80
   9 -22  -3   36.50    3.30
   9 -22  -2    3.30    1.80
   9 -22  -1   -0.50    1.70
   9 -22   0    4.50    1.90
   9 -22   1    8.10    2.20
   9 -22   2   17.50    2.20
   9 -21  -4   15.20    2.20
   9 -21  -3   14.30    2.60
   9 -21  -2   49.50    4.30
   9 -21  -1    4.10    1.90
   9 -21   0   21.40    2.90
   9 -21   1   20.40    2.80
   9 -21   2   -0.50    1.30
   9 -21   3    7.90    1.40
  -9 -20   7   21.80    2.30
   9 -20  -4   18.60    2.50
   9 -20  -3   15.00    2.40
   9 -20  -2    0.30    1.70
   9 -20  -1    0.60    1.80
   9 -20   0    3.10    2.00
   9 -20   1   -0.90    1.60
   9 -20   2    3.70    1.50
   9 -20   3    7.20    1.50
   9 -19  -4    5.80    1.80
   9 -19  -3    6.80    2.00
   9 -19  -2   14.00    2.80
   9 -19  -1   27.60    3.40
   9 -19   0   42.80    4.20
   9 -19   1   11.40    2.20
   9 -19   2    0.70    1.60
   9 -19   3    8.10    1.70
   9 -18  -4   -2.30    1.80
   9 -18  -3   18.30    2.90
   9 -18  -2    8.70    2.50
   9 -18  -1   17.10    3.30
   9 -18   0   10.60    2.40
   9 -18   1    6.60    1.80
   9 -18   2   16.80    2.70
   9 -18   3    1.00    1.10
   9 -17  -4   10.80    2.40
   9 -17  -3    2.30    2.10
   9 -17  -2    3.70    1.90
   9 -17  -1   14.90    3.20
   9 -17   0    9.00    2.70
   9 -17   1   -1.30    2.00
   9 -17   2    0.90    1.50
   9 -17   3    1.20    1.20
  -9 -16   8    8.00    1.60
  -9 -16   7    1.60    1.30
   9 -16  -5   41.20    3.70
   9 -16  -4    5.60    2.00
   9 -16  -3   28.10    3.50
   9 -16  -2   29.50    3.80
   9 -16  -1    6.00    2.50
   9 -16   0    8.00    2.60
   9 -16   1   13.60    2.90
   9 -16   2    6.70    2.10
   9 -16   3   12.60    2.10
  -9 -15   9   35.70    2.90
  -9 -15   8   40.30    3.50
  -9 -15   7    9.30    2.00
  -9 -15   6   41.30    4.00
   9 -15  -5    4.30    1.80
   9 -15  -4   12.10    2.60
   9 -15  -3   33.60    3.80
   9 -15  -2    7.60    2.30
   9 -15  -1   38.40    4.50
   9 -15   0    3.40    2.80
   9 -15   1    2.70    1.90
   9 -15   2    6.40    2.20
   9 -15   3    1.40    1.20
  -9 -14   9    0.00    1.10
  -9 -14   8    1.50    1.50
  -9 -14   7    4.70    1.80
  -9 -14   6    0.00    1.40
   9 -14  -5   38.40    3.80
  -9 -14   5   44.20    4.30
  -9 -14   4   20.50    2.90
   9 -14  -4   25.90    3.50
   9 -14  -3    0.20    1.80
   9 -14  -2    9.50    2.80
   9 -14  -1   11.90    2.90
   9 -14   0  116.39    7.50
   9 -14   1   30.10    3.70
   9 -14   2   37.60    3.90
   9 -14   3   26.90    3.10
  -9 -13  10    2.40    1.10
  -9 -13   9   31.00    3.20
  -9 -13   8   14.70    2.70
  -9 -13   7   20.00    3.10
  -9 -13   6   48.80    4.60
  -9 -13   5   18.10    3.10
   9 -13  -5   13.20    2.40
  -9 -13   4   27.30    3.50
   9 -13  -4   28.00    3.60
   9 -13  -3    4.20    2.10
   9 -13  -2   18.50    3.20
   9 -13  -1   51.89    5.20
   9 -13   0   53.79    5.00
   9 -13   1   -1.00    1.90
   9 -13   2   11.20    2.60
   9 -13   3   10.70    2.30
  -9 -12  10   24.70    2.60
  -9 -12   9   14.30    2.40
  -9 -12   8    3.60    2.00
  -9 -12   7    3.10    1.90
  -9 -12   6   14.60    2.70
  -9 -12   5   30.10    3.80
   9 -12  -5   31.00    3.70
   9 -12  -4    3.10    1.70
   9 -12  -3   24.80    3.50
   9 -12  -2    9.80    3.00
   9 -12  -1    0.80    2.20
   9 -12   0    3.70    2.50
   9 -12   1   10.20    2.40
   9 -12   2   27.20    3.60
   9 -12   3    7.30    2.00
  -9 -11  10    8.80    1.80
  -9 -11   9   12.40    2.50
  -9 -11   8   50.89    4.70
  -9 -11   7   38.70    4.20
  -9 -11   6    7.80    2.50
  -9 -11   5    5.10    2.40
   9 -11  -5    3.50    1.70
   9 -11  -4   10.00    2.40
   9 -11  -3   28.10    3.80
   9 -11  -2   56.39    5.20
   9 -11  -1   15.40    3.00
   9 -11   0   10.20    2.60
   9 -11   1   17.90    3.10
   9 -11   2   -0.60    1.50
   9 -11   3    4.20    1.70
  -9 -10  10    0.70    1.40
  -9 -10   9   10.40    2.50
  -9 -10   8    6.60    2.30
  -9 -10   7   35.50    4.20
  -9 -10   6   63.09    5.60
   9 -10  -5    2.70    1.50
   9 -10  -4    9.80    2.50
   9 -10  -3   40.00    4.50
   9 -10  -2    5.20    2.50
   9 -10  -1    9.60    2.60
   9 -10   0   11.30    2.70
   9 -10   1   23.40    3.40
   9 -10   2   39.50    3.90
   9 -10   3   30.90    3.40
  -9  -9  10    8.90    2.00
  -9  -9   9   16.00    2.90
  -9  -9   8   31.40    3.90
  -9  -9   7   42.10    4.60
  -9  -9   6    5.30    2.10
   9  -9  -5    8.70    2.00
   9  -9  -4   98.69    6.90
   9  -9  -3   23.90    3.90
   9  -9  -2   24.40    4.00
   9  -9  -1   11.00    2.50
   9  -9   0   14.80    3.20
   9  -9   1   31.00    3.90
   9  -9   2   16.70    2.90
  -9  -8  10    4.30    1.90
  -9  -8   9   24.10    3.20
  -9  -8   8    8.30    2.80
  -9  -8   7   45.80    4.90
  -9  -8   6   23.10    3.80
   9  -8  -5   44.30    4.40
   9  -8  -4   53.09    5.00
   9  -8  -3   23.80    3.70
   9  -8  -2   12.40    3.00
   9  -8  -1   14.70    3.20
   9  -8   0    5.50    2.10
   9  -8   1   11.00    2.50
   9  -8   2    3.30    1.80
  -9  -7  11    0.20    1.10
  -9  -7  10    0.50    1.50
  -9  -7   9    3.80    1.90
  -9  -7   8    9.20    2.60
  -9  -7   7    8.80    2.50
  -9  -7   6   24.10    3.90
   9  -7  -5    7.30    2.40
   9  -7  -4    5.80    1.90
   9  -7  -3   11.80    2.60
   9  -7  -2   19.90    3.50
   9  -7  -1   57.49    5.30
   9  -7   0   37.80    4.50
   9  -7   1   37.40    4.40
   9  -7   2   17.40    2.70
  -9  -6  11    3.30    1.20
  -9  -6  10   15.20    2.50
  -9  -6   9    1.60    2.00
  -9  -6   8   31.50    4.10
  -9  -6   7   22.40    3.60
   9  -6  -6   27.50    3.30
   9  -6  -5   40.40    4.20
   9  -6  -4    7.70    2.50
   9  -6  -3   20.40    3.10
   9  -6  -2    4.00    2.30
   9  -6  -1   14.20    3.00
   9  -6   0   -0.50    1.70
   9  -6   1   48.10    4.80
   9  -6   2   18.50    2.90
  -9  -5  11   -1.00    1.10
  -9  -5  10    6.70    1.90
  -9  -5   9    7.60    2.20
  -9  -5   8    7.20    2.80
  -9  -5   7   25.80    3.80
   9  -5  -6   22.10    3.20
   9  -5  -5   22.80    3.30
   9  -5  -4   20.70    3.20
   9  -5  -3    1.30    2.40
   9  -5  -2    6.60    2.30
   9  -5  -1   27.30    3.60
   9  -5   0   35.80    4.10
   9  -5   1   18.70    3.60
   9  -5   2    6.40    1.90
   9  -5   2    9.20    2.20
   9  -5   3   10.90    2.50
   9  -5   4   17.20    2.80
   9  -5   5    8.00    1.90
  -9  -4  11   17.20    2.20
  -9  -4  10   27.50    3.30
  -9  -4   9   10.00    2.60
  -9  -4   8    3.30    2.50
  -9  -4   7   28.30    4.00
   9  -4  -6   37.40    3.90
   9  -4  -5   22.20    3.20
   9  -4  -4  126.59    7.80
   9  -4  -3   18.80    3.30
   9  -4  -2    1.40    1.80
   9  -4  -1   14.90    3.10
   9  -4   0    6.70    2.40
   9  -4   1    6.20    2.10
   9  -4   2    3.30    1.60
   9  -4   2    3.70    1.90
   9  -4   3   19.40    3.00
   9  -4   4    6.90    2.00
   9  -4   5    6.00    1.90
   9  -4   6   -0.20    1.10
  -9  -3  11   15.90    2.10
  -9  -3  10    5.70    1.90
  -9  -3   9   33.40    4.00
  -9  -3   8   32.80    4.30
  -9  -3   7   49.50    5.20
   9  -3  -6   31.30    3.50
   9  -3  -5   18.40    3.00
   9  -3  -4   31.00    4.20
   9  -3  -3   60.19    5.40
   9  -3  -2   34.90    4.30
   9  -3  -1   28.60    3.90
   9  -3   0   49.80    4.80
   9  -3   1   22.40    3.20
   9  -3   2    2.70    1.70
   9  -3   2    3.20    1.60
   9  -3   3   -2.00    1.80
   9  -3   4   13.40    2.50
   9  -3   5   16.00    2.50
   9  -3   6   10.70    1.90
  -9  -2  11    6.50    1.50
  -9  -2  10    4.30    1.50
  -9  -2   9   -0.80    2.10
  -9  -2   8   -2.80    2.10
  -9  -2   7   49.10    5.20
   9  -2  -6   31.90    3.90
   9  -2  -5   27.40    3.50
   9  -2  -4   74.19    5.90
   9  -2  -3   78.49    6.00
   9  -2  -2   30.40    3.80
   9  -2  -1    8.00    2.70
   9  -2   0   31.10    3.90
   9  -2   1   20.50    3.20
   9  -2   2   32.50    3.60
   9  -2   2   22.40    3.40
   9  -2   3   16.10    2.90
   9  -2   4    5.20    2.00
   9  -2   5    7.30    1.90
   9  -2   6    1.10    1.40
  -9  -1  11    4.50    1.30
  -9  -1  10    4.90    1.90
  -9  -1   9    4.70    2.20
  -9  -1   8   17.30    3.40
  -9  -1   7    9.10    2.80
   9  -1  -6   20.20    3.00
   9  -1  -5   59.39    5.10
   9  -1  -4   41.20    4.50
   9  -1  -3   26.10    3.80
   9  -1  -2   12.20    2.80
   9  -1  -1    5.70    2.10
   9  -1   0    1.00    1.70
   9  -1   1   17.30    2.80
   9  -1   2    6.40    2.10
   9  -1   2    5.50    1.90
   9  -1   3   -0.40    1.80
   9  -1   4   11.00    2.60
   9  -1   5    2.40    1.70
   9  -1   6   12.00    2.10
   9  -1   7    7.80    1.60
  -9   0  11    2.20    1.00
  -9   0  10   51.39    4.20
  -9   0   9    0.40    1.90
  -9   0   8   -2.00    2.00
  -9   0   7    4.30    2.30
   9   0  -6   12.00    2.60
   9   0  -5  106.89    7.30
   9   0  -4   21.30    3.30
   9   0  -3   54.39    5.10
   9   0  -2    1.30    1.80
   9   0  -1   -3.60    2.10
   9   0   0   22.40    3.20
   9   0   1    0.90    1.70
   9   0   2   11.20    2.50
   9   0   3    1.80    1.40
   9   0   4    0.80    1.40
   9   0   5    3.30    1.70
   9   0   6   -1.80    1.40
   9   0   7    3.60    1.40
  -9   1  11    8.90    1.60
  -9   1  10   -1.10    1.60
  -9   1   9    1.80    1.60
  -9   1   8   16.10    3.20
  -9   1   7    7.60    2.90
   9   1  -6   20.70    3.20
   9   1  -5   65.99    5.50
   9   1  -4   41.20    4.60
   9   1  -3   25.80    3.90
   9   1  -2    8.50    2.30
   9   1  -1    6.40    2.40
   9   1   0   -2.80    1.90
   9   1   1   19.10    3.30
   9   1   2    3.80    1.70
   9   1   3    1.20    1.50
   9   1   4   13.90    2.80
   9   1   5    2.60    1.50
   9   1   6   14.90    2.40
   9   1   7    8.50    1.60
  -9   2  10    2.90    1.40
  -9   2   9    0.90    1.60
  -9   2   8    0.40    1.80
  -9   2   7   46.30    4.90
   9   2  -6   33.40    3.80
   9   2  -5   31.00    3.90
   9   2  -4   77.19    6.00
   9   2  -3   76.59    6.20
   9   2  -2   31.00    3.90
   9   2  -1    7.00    2.20
   9   2   0   33.30    3.90
   9   2   1   20.30    3.00
   9   2   2   21.00    3.40
   9   2   3   15.10    2.80
   9   2   4    0.70    1.30
   9   2   5    4.40    1.80
   9   2   6   -0.70    1.50
   9   2   7    3.10    1.20
  -9   3  10    9.10    1.80
  -9   3   9   39.60    4.10
  -9   3   8   25.00    3.50
  -9   3   7   45.30    4.80
   9   3  -6   32.50    3.90
   9   3  -5   20.80    3.20
   9   3  -4   31.80    4.00
   9   3  -3   55.59    5.20
   9   3  -2   30.70    4.00
   9   3  -1   31.20    4.00
   9   3   0   47.70    4.60
   9   3   1   23.00    3.20
   9   3   2    4.50    2.20
   9   3   3    1.10    1.40
   9   3   4    8.90    2.30
   9   3   5   14.90    2.60
   9   3   6   10.50    1.90
   9   3   7    9.10    1.60
  -9   4  10   33.10    3.10
  -9   4   9    5.80    2.00
  -9   4   8    3.40    2.20
  -9   4   7   28.60    4.10
   9   4  -7   29.60    3.50
   9   4  -6   40.20    4.20
   9   4  -5   19.40    3.00
   9   4  -4  134.09    8.20
   9   4  -3   16.40    2.90
   9   4  -2    1.60    1.90
   9   4  -1   13.50    2.70
   9   4   0    8.80    2.40
   9   4   1    9.90    2.50
   9   4   2    1.60    1.70
   9   4   3   17.60    3.10
   9   4   4    7.60    2.10
   9   4   5    5.70    1.90
   9   4   6    0.00    1.20
   9   4   7    0.10    1.00
  -9   5   9    8.20    1.70
  -9   5   8    6.80    2.30
  -9   5   7   20.10    3.30
   9   5  -6   18.50    3.00
   9   5  -5   13.50    2.80
   9   5  -4   24.60    3.60
   9   5  -3    2.90    2.40
   9   5  -2   10.60    2.60
   9   5  -1   31.40    3.90
   9   5   0   39.10    4.30
   9   5   1   18.10    3.00
   9   5   2    8.50    2.40
   9   5   3    7.00    2.20
   9   5   4    9.40    2.30
   9   5   5    7.50    2.10
   9   5   6    0.80    1.10
   9   5   7    2.50    1.20
  -9   6   9    4.00    1.60
  -9   6   8   38.80    4.00
  -9   6   7   28.90    3.80
   9   6  -6   30.70    3.70
   9   6  -5   45.10    4.70
   9   6  -4   12.00    2.90
   9   6  -3   16.20    2.60
   9   6  -2    3.20    2.10
   9   6  -1   13.60    2.90
   9   6   0    3.20    1.90
   9   6   1   62.89    5.20
   9   6   2   16.40    3.00
   9   6   3    2.80    1.90
   9   6   4    1.60    1.40
   9   6   5    3.20    1.70
   9   6   6    5.80    1.70
   9   6   7   10.90    1.90
   9   7 -11   -2.90    1.10
  -9   7   8   16.80    2.60
  -9   7   7   12.40    2.40
   9   7  -6   20.30    3.00
   9   7  -5    5.80    1.90
   9   7  -4    7.40    2.60
   9   7  -3   13.80    3.00
   9   7  -2   22.70    3.60
   9   7  -1   54.59    5.10
   9   7   0   40.10    4.30
   9   7   1   41.00    4.20
   9   7   2   10.60    2.40
   9   7   3   18.50    2.90
   9   7   4    7.80    2.20
   9   7   5    9.30    2.20
   9   7   6    9.60    1.90
   9   7   7   -0.30    1.10
  -9   8   7   47.10    4.40
   9   8  -5   43.90    4.60
   9   8  -4   47.80    4.90
   9   8  -3   25.20    3.80
   9   8  -2   10.80    2.40
   9   8  -1   10.50    2.60
   9   8   0   11.40    2.80
   9   8   1   10.80    2.40
   9   8   2    3.70    1.80
   9   8   3    5.10    2.00
   9   8   4    1.50    1.40
   9   8   5    8.60    1.80
   9   8   5    8.60    2.20
   9   8   6    1.40    1.20
   9   9  -5    7.90    2.50
   9   9  -4   92.39    6.70
   9   9  -3   22.20    3.40
   9   9  -2   23.40    3.70
   9   9  -1   11.40    2.50
   9   9   0   13.70    3.00
   9   9   1   27.10    3.40
   9   9   2   13.80    3.00
   9   9   3   43.80    4.50
   9   9   4   14.70    2.50
   9   9   5    8.50    2.00
   9   9   5   12.10    2.10
   9   9   6   16.50    2.40
   9  10 -10    1.20    1.40
   9  10  -4    8.20    2.60
   9  10  -3   35.60    4.30
   9  10  -2    2.60    1.90
   9  10  -1    9.70    2.50
   9  10   0   12.10    2.60
   9  10   1   25.50    3.30
   9  10   2   33.20    4.10
   9  10   3   23.30    3.30
   9  10   4    7.80    2.20
   9  10   5    8.50    2.00
   9  10   5    6.00    1.70
   9  10   6    3.10    1.30
   9  11 -10    9.00    1.80
   9  11  -9   11.00    2.30
   9  11  -4   13.40    2.90
   9  11  -4   10.00    2.30
   9  11  -3   29.50    4.00
   9  11  -2   55.19    5.30
   9  11  -1   10.10    2.50
   9  11   0    7.90    2.20
   9  11   2    0.10    1.50
   9  11   3    2.10    1.70
   9  11   4    1.40    1.50
   9  11   5    0.70    1.30
   9  11   5   -0.50    1.20
   9  11   6    5.00    1.50
   9  12 -10   23.20    2.50
   9  12  -9   10.50    2.10
   9  12  -8    1.70    1.80
   9  12  -5   32.80    4.00
   9  12  -4    4.60    1.60
   9  12  -2    7.50    2.30
   9  12  -1    2.80    1.90
   9  12   2   27.80    3.70
   9  12   3    4.30    1.80
   9  12   4    1.70    1.60
   9  12   5    5.60    1.80
   9  12   5    1.80    1.30
   9  12   6    0.90    1.30
   9  13 -10    5.60    1.30
   9  13  -9   26.00    3.00
   9  13  -8   12.70    2.40
   9  13  -7   18.10    3.10
   9  13  -6   40.50    4.30
   9  13  -5   12.90    2.70
   9  13  -4   21.70    3.10
   9  13   2    8.00    2.20
   9  13   3    4.70    1.70
   9  13   4   27.20    3.10
   9  13   4   24.70    3.10
   9  13   5    5.30    1.60
   9  13   5    8.90    1.80
   9  14  -9   -0.50    1.50
   9  14  -8    2.50    1.90
   9  14  -7    5.90    2.10
   9  14  -6   -3.20    2.20
   9  14  -5   39.60    4.00
   9  14  -4   20.60    3.00
   9  14  -3    2.50    1.40
   9  14   1   28.40    3.50
   9  14   2   35.70    3.80
   9  14   3   22.40    2.90
   9  14   4    4.80    1.80
   9  14   4    0.10    1.50
   9  14   5    4.90    1.60
   9  14   5    4.70    1.50
   9  15  -9   35.30    3.10
   9  15  -8   34.90    3.60
   9  15  -7   12.40    2.70
   9  15  -6   37.30    4.00
   9  15  -5    4.00    1.80
   9  15  -4    7.10    2.20
   9  15  -3   30.90    3.50
   9  15   1    9.90    2.30
   9  15   2    2.30    1.30
   9  15   3    3.90    1.90
   9  15   4    3.40    1.30
   9  15   4    0.50    1.40
   9  15   5    7.90    1.60
   9  15   5    7.20    1.60
   9  16  -9    2.70    1.40
   9  16  -8    3.20    1.60
   9  16  -7   -1.30    1.70
   9  16  -6    3.90    2.00
   9  16  -5   39.10    4.10
   9  16  -4    6.20    1.90
   9  16  -3   27.50    3.30
   9  16   1   16.10    2.50
   9  16   2    3.50    1.50
   9  16   3   16.50    2.30
   9  16   4    8.40    1.80
   9  16   4    7.00    1.90
   9  16   5    1.30    1.10
   9  17  -9   12.30    1.70
   9  17  -8    0.50    1.30
   9  17  -7    0.90    1.50
   9  17  -6   18.00    2.80
   9  17  -5   27.50    3.60
   9  17  -4   11.60    2.70
   9  17  -3    4.00    1.70
   9  17   0   11.60    2.30
   9  17   1   -1.10    1.20
   9  17   2    2.70    1.40
   9  17   3    4.30    1.40
   9  17   3    4.90    2.00
   9  17   4   19.60    2.20
   9  17   4   26.00    2.80
   9  17   5    8.80    1.60
   9  18  -8    1.10    1.20
   9  18  -7    4.10    1.80
   9  18  -6    0.40    1.60
   9  18  -5    6.10    2.10
   9  18  -4    0.10    1.50
   9  18  -3   21.70    3.00
   9  18   3    5.40    2.00
   9  18   4   11.40    1.90
   9  19  -8   30.70    2.80
   9  19  -7   17.50    2.60
   9  19  -6    5.20    2.10
   9  19  -5    1.40    1.50
   9  19  -4   10.10    2.30
   9  19  -3    8.00    1.90
   9  19   3    7.60    1.80
   9  19   4    1.20    1.10
   9  20  -8    3.10    1.30
   9  20  -7   22.90    2.60
   9  20  -6   36.80    3.50
   9  20  -5    6.10    2.00
   9  20  -4   12.30    2.10
   9  20  -3   17.60    2.50
   9  20   2    4.70    1.70
   9  20   3    1.40    1.30
   9  20   4    1.70    1.10
   9  21  -7    8.60    1.60
   9  21  -6    1.20    1.30
   9  21  -5    3.80    1.70
   9  21  -4   16.20    2.60
   9  21  -3   12.90    2.10
   9  21   2   -0.90    1.40
   9  21   3    8.60    1.70
   9  22  -7   14.70    1.90
   9  22  -6   15.90    2.30
   9  22  -5   10.00    2.00
   9  22  -4    9.70    1.90
   9  22  -3   34.90    3.30
   9  22   1    5.50    1.50
   9  22   2   19.60    2.30
   9  22   3    1.40    1.00
   9  23  -6    2.50    1.30
   9  23  -5    7.20    1.70
   9  23  -4    2.50    1.20
   9  23  -3   14.20    2.10
   9  23   1    2.90    1.20
   9  23   2    6.10    1.50
   9  24  -6    1.10    1.00
   9  24  -5   14.90    2.00
   9  24  -4    3.00    1.30
   9  24  -3   13.70    1.90
   9  24   0    5.90    1.40
   9  24   1   -1.40    1.00
   9  25  -5    2.80    1.20
   9  25  -4   10.40    1.60
   9  25  -3    2.80    1.00
  10 -22  -1   15.30    1.90
  10 -21  -3    6.20    1.30
  10 -21  -2    4.10    1.30
  10 -21  -1    2.10    1.20
  10 -21   0    4.90    1.30
  10 -20  -4   10.80    1.60
  10 -20  -3   13.70    2.10
  10 -20  -2    6.80    1.70
  10 -20  -1    0.70    1.30
  10 -20   0    0.90    1.20
  10 -20   1    0.80    1.00
  10 -19  -4    0.00    0.90
  10 -19  -3   -0.80    1.30
  10 -19  -2    3.40    1.70
  10 -19  -1   11.20    2.00
  10 -19   0   13.20    2.40
  10 -19   1   11.80    1.70
  10 -18  -4   22.30    2.50
  10 -18  -3   19.60    2.50
  10 -18  -2   10.20    2.20
  10 -18  -1    8.90    2.20
  10 -18   0    5.70    1.70
  10 -18   1   19.20    2.30
  10 -17  -4    1.50    1.30
  10 -17  -3    3.80    1.70
  10 -17  -2    7.50    2.30
  10 -17  -1    9.50    2.40
  10 -17   0   15.00    2.40
  10 -17   1   22.40    2.60
  10 -17   2    6.90    1.50
  10 -16  -5    2.60    1.30
  10 -16  -4    5.30    1.70
  10 -16  -3   22.30    2.90
  10 -16  -2   10.40    2.20
  10 -16  -1   20.10    2.90
  10 -16   0    9.90    2.10
  10 -16   1    2.50    1.50
  10 -16   2    8.90    1.60
  10 -15  -5    1.10    1.20
  10 -15  -4   15.50    2.40
  10 -15  -3   17.30    2.60
  10 -15  -2   53.19    4.60
  10 -15  -1   12.90    2.50
  10 -15   0   10.10    2.20
  10 -15   1   26.60    3.10
  10 -15   2   15.00    2.00
 -10 -14   7    1.40    1.10
 -10 -14   6    4.00    1.40
 -10 -14   5   17.90    2.40
  10 -14  -5   19.80    2.50
  10 -14  -4    8.40    2.00
  10 -14  -3   19.00    2.90
  10 -14  -2   52.09    4.50
  10 -14  -1   45.10    4.30
  10 -14   0   28.70    3.60
  10 -14   1    9.90    2.00
  10 -14   2    0.50    1.10
 -10 -13   8   20.70    2.30
 -10 -13   7   16.40    2.30
 -10 -13   6   32.10    3.30
 -10 -13   5    1.60    1.60
  10 -13  -5    1.20    1.20
 -10 -13   4   15.50    2.50
  10 -13  -4   11.60    2.50
  10 -13  -3    2.60    2.00
  10 -13  -2   15.50    3.10
  10 -13  -1   17.40    2.90
  10 -13   0   14.00    2.40
  10 -13   1    1.70    1.60
  10 -13   2    2.60    1.50
 -10 -12   8    8.00    1.70
 -10 -12   7    1.30    1.20
 -10 -12   6    5.50    1.70
 -10 -12   5   13.70    2.50
  10 -12  -5   18.70    2.60
 -10 -12   4    2.50    1.60
  10 -12  -4    3.30    1.90
  10 -12  -3    4.10    2.20
  10 -12  -2   16.50    3.10
  10 -12  -1   23.30    3.30
  10 -12   0   11.40    2.60
  10 -12   1    2.10    1.70
  10 -12   2    3.10    1.40
 -10 -11   8    5.30    1.50
 -10 -11   7   13.80    2.50
 -10 -11   6   37.50    3.80
 -10 -11   5   17.30    2.80
  10 -11  -5   14.80    2.50
 -10 -11   4   19.00    3.00
  10 -11  -4   20.30    3.00
  10 -11  -3   49.10    4.60
  10 -11  -2   40.00    4.40
  10 -11  -1   16.10    3.00
  10 -11   0    1.60    2.10
  10 -11   1    0.70    1.60
  10 -11   2    3.90    1.50
 -10 -10   9    4.80    1.50
 -10 -10   8    5.30    1.60
 -10 -10   7    2.30    1.60
 -10 -10   6   13.20    2.60
 -10 -10   5   32.40    3.70
  10 -10  -5   24.50    3.00
  10 -10  -4   18.20    3.10
  10 -10  -3    3.20    2.00
  10 -10  -2    7.60    2.90
  10 -10  -1   57.99    5.00
  10 -10   0   50.39    4.60
  10 -10   1   13.50    2.60
  10 -10   2   -0.60    1.40
 -10  -9   9   20.20    2.40
 -10  -9   8    2.40    1.60
 -10  -9   7   20.90    3.00
 -10  -9   6   10.80    2.30
 -10  -9   5    5.00    2.00
  10  -9  -5    3.80    1.40
  10  -9  -4   -0.10    1.70
  10  -9  -3    3.50    2.20
  10  -9  -2    5.90    2.20
  10  -9  -1    3.50    2.60
  10  -9   0   40.10    4.20
  10  -9   1   35.90    4.00
  10  -9   2   36.40    3.50
 -10  -8   9   22.20    2.60
 -10  -8   8   24.60    3.00
 -10  -8   7   11.70    2.40
 -10  -8   6    0.30    1.90
  10  -8  -6    1.40    1.20
 -10  -8   5   11.80    2.60
  10  -8  -5   13.50    2.40
  10  -8  -4   25.70    3.20
  10  -8  -3   -1.40    2.20
  10  -8  -2    0.80    2.30
  10  -8  -1    0.90    2.00
  10  -8   0    5.80    2.40
  10  -8   1    6.70    2.00
  10  -8   2   10.60    2.10
 -10  -7   9    7.40    1.90
 -10  -7   8   10.50    2.50
 -10  -7   7   21.40    3.30
 -10  -7   6    1.20    2.10
  10  -7  -6    2.10    1.20
  10  -7  -5    7.10    1.90
  10  -7  -4    7.90    2.30
  10  -7  -3    1.60    1.90
  10  -7  -2   18.80    3.80
  10  -7  -1    3.60    2.50
  10  -7   0   27.30    3.60
  10  -7   1   34.60    3.80
  10  -7   2   24.70    3.00
 -10  -6   9   24.60    2.80
 -10  -6   8   20.30    3.00
 -10  -6   7   12.80    2.50
  10  -6  -6   76.69    5.20
 -10  -6   6   88.09    6.30
  10  -6  -5   17.20    2.70
  10  -6  -4   13.60    2.60
  10  -6  -3   18.50    3.20
  10  -6  -2    1.90    2.40
  10  -6  -1   24.00    3.60
  10  -6   0    5.90    2.60
  10  -6   1    5.70    2.20
  10  -6   2   10.10    2.00
 -10  -5   9    5.10    1.70
 -10  -5   8   21.00    2.80
 -10  -5   7   14.10    2.80
 -10  -5   6    9.40    2.80
  10  -5  -6    5.20    1.70
  10  -5  -5    7.10    1.90
  10  -5  -4   18.20    3.20
  10  -5  -3   31.40    4.40
  10  -5  -2    5.80    2.40
  10  -5  -1    1.90    2.10
  10  -5   0    3.70    1.90
  10  -5   1   42.10    4.00
  10  -5   1   46.00    4.30
  10  -5   2   12.80    2.40
  10  -5   2   15.30    2.40
 -10  -4   9   15.50    2.50
 -10  -4   8   18.70    2.90
 -10  -4   7    4.60    2.20
 -10  -4   6   15.30    3.20
  10  -4  -6   12.40    2.30
  10  -4  -5   21.20    3.30
  10  -4  -4   13.80    3.20
  10  -4  -3   56.29    5.10
  10  -4  -2    9.10    2.60
  10  -4  -1    3.50    2.50
  10  -4   0   10.10    2.60
  10  -4   1    0.70    1.70
  10  -4   1   -1.60    1.50
  10  -4   2   28.20    3.30
  10  -4   2   32.10    3.30
  10  -4   3   14.70    2.20
  10  -4   4    7.50    1.70
 -10  -3  10    3.60    1.20
 -10  -3   9    8.70    2.10
 -10  -3   8   -2.60    1.70
 -10  -3   7   32.70    4.00
 -10  -3   6   10.30    3.00
  10  -3  -6    7.50    1.90
  10  -3  -5   15.50    3.10
  10  -3  -4    8.00    2.50
  10  -3  -3    6.50    2.60
  10  -3  -2   56.59    5.40
  10  -3  -1   13.20    3.00
  10  -3   0    7.10    2.20
  10  -3   1   15.70    2.80
  10  -3   1   12.40    2.50
  10  -3   2   24.50    3.10
  10  -3   2   25.70    2.90
  10  -3   3   15.00    2.40
  10  -3   4   14.90    2.10
 -10  -2  10   17.00    2.10
 -10  -2   9   10.00    2.10
 -10  -2   8    2.80    1.70
 -10  -2   7   10.30    2.80
 -10  -2   6   20.20    3.50
  10  -2  -6   21.60    2.80
  10  -2  -5   27.40    3.60
  10  -2  -4    4.80    2.30
  10  -2  -3   30.80    4.20
  10  -2  -2   13.70    3.00
  10  -2  -1   16.50    3.10
  10  -2   0   49.50    4.70
  10  -2   1   14.80    2.70
  10  -2   1   11.40    2.20
  10  -2   2    4.60    1.90
  10  -2   3    5.50    1.70
  10  -2   4   29.50    3.00
  10  -2   5   13.80    1.90
 -10  -1   9   22.90    2.80
 -10  -1   8   17.10    2.80
 -10  -1   7   27.50    3.80
  10  -1  -6    3.70    1.60
  10  -1  -5   98.19    6.60
  10  -1  -4    2.40    1.80
  10  -1  -3    1.30    2.00
  10  -1  -2   11.90    2.80
  10  -1  -1   37.00    4.20
  10  -1   0    4.90    2.10
  10  -1   1   13.90    2.60
  10  -1   1    5.70    1.60
  10  -1   2   10.70    2.40
  10  -1   3   21.30    2.80
  10  -1   4    9.90    1.90
  10  -1   5    6.50    1.30
 -10   0   9   -2.10    1.40
 -10   0   8    4.70    2.20
 -10   0   7   23.10    3.40
  10   0  -6    2.80    1.50
  10   0  -5   -1.40    1.80
  10   0  -4   79.69    6.10
  10   0  -3   52.29    5.10
  10   0  -2   -1.30    2.20
  10   0  -1    6.20    2.40
  10   0   0    1.40    1.80
  10   0   1   11.00    2.40
  10   0   1    5.80    1.80
  10   0   2    8.60    2.10
  10   0   3   16.90    2.60
  10   0   4    2.40    1.20
  10   0   5    3.70    1.20
 -10   1   9   22.20    2.60
 -10   1   8   20.10    3.00
 -10   1   7   32.40    3.80
  10   1  -6    8.20    2.30
  10   1  -5  101.19    6.70
  10   1  -4    5.00    2.40
  10   1  -3    4.40    2.60
  10   1  -2    7.90    2.60
  10   1  -1   33.00    4.00
  10   1   0    5.40    2.30
  10   1   1    9.10    2.50
  10   1   1    8.30    2.10
  10   1   2    5.90    2.10
  10   1   3   15.90    2.50
  10   1   4    7.90    1.90
  10   1   5    8.00    1.60
 -10   2   9    8.20    1.80
 -10   2   8    3.80    1.70
 -10   2   7   10.50    2.50
  10   2  -6   21.80    3.10
  10   2  -5   23.30    3.30
  10   2  -4    1.60    2.00
  10   2  -3   31.00    4.00
  10   2  -2   14.80    3.00
  10   2  -1   14.80    2.80
  10   2   0   49.50    4.60
  10   2   1   11.90    2.40
  10   2   1    9.90    2.30
  10   2   2    0.30    1.40
  10   2   3    1.20    1.30
  10   2   4   27.40    3.10
  10   2   5   12.90    2.00
 -10   3   9   14.40    2.10
 -10   3   8    1.20    1.60
 -10   3   7   34.10    3.80
  10   3  -6    7.80    2.20
  10   3  -5   11.60    2.90
  10   3  -4    7.90    2.70
  10   3  -3    4.00    2.50
  10   3  -2   53.19    5.10
  10   3  -1    2.60    2.00
  10   3   0   13.30    2.80
  10   3   1   12.60    2.60
  10   3   1   10.10    2.50
  10   3   2   19.00    3.10
  10   3   3   13.00    2.30
  10   3   4   12.60    2.20
  10   3   5    2.80    1.30
 -10   4   9   12.60    2.00
 -10   4   8   16.10    2.40
 -10   4   7    8.80    2.30
  10   4  -6   14.30    2.60
  10   4  -5   22.50    3.50
  10   4  -4   14.50    3.00
  10   4  -3   55.39    5.20
  10   4  -2   10.50    2.80
  10   4  -1    0.50    1.80
  10   4   0   10.70    2.50
  10   4   1    0.40    1.40
  10   4   1    1.30    1.60
  10   4   2   20.80    2.90
  10   4   3    7.60    1.80
  10   4   4    2.80    1.40
  10   4   5    2.20    1.10
 -10   5   9    3.00    1.00
 -10   5   8   19.90    2.60
 -10   5   7    8.40    2.30
  10   5  -6    4.40    1.70
  10   5  -5    6.50    2.30
  10   5  -4   22.10    3.40
  10   5  -3   17.10    3.10
  10   5  -2    7.60    2.60
  10   5  -1   -0.20    1.80
  10   5   0    4.10    2.10
  10   5   1   39.40    3.80
  10   5   1   36.20    4.00
  10   5   2   12.00    2.60
  10   5   3   14.10    2.70
  10   5   4    3.10    1.40
  10   5   5    6.70    1.60
 -10   6   8   23.80    2.70
 -10   6   7   14.30    2.60
 -10   6   6   92.09    6.40
  10   6  -5   18.60    2.90
  10   6  -4   13.10    2.80
  10   6  -3   18.10    3.50
  10   6  -2    0.30    2.20
  10   6  -1   23.90    3.40
  10   6   0    6.60    2.20
  10   6   1    4.90    1.60
  10   6   1    6.50    2.00
  10   6   2    9.20    2.20
  10   6   3    8.80    2.20
  10   6   4    1.70    1.20
  10   6   5    3.20    1.40
 -10   7   7   20.90    2.90
 -10   7   6    2.00    1.60
  10   7  -5    4.50    2.00
  10   7  -4    5.60    2.70
  10   7  -3   10.10    2.90
  10   7  -2   11.70    2.70
  10   7  -1    2.00    1.90
  10   7   0   20.80    3.00
  10   7   1   32.90    3.90
  10   7   1   44.60    4.00
  10   7   2   20.10    3.10
  10   7   3    3.10    1.50
  10   7   4    3.30    1.50
  10   7   5    1.40    1.00
  10   8  -9   21.40    2.40
 -10   8   7   13.10    2.20
 -10   8   6    3.30    1.60
  10   8  -5   14.60    2.40
  10   8  -4   26.80    3.70
  10   8  -3    5.10    2.30
  10   8  -2    1.60    2.00
  10   8  -1    5.60    2.30
  10   8   0    0.00    1.80
  10   8   1    7.20    2.00
  10   8   2    8.70    2.10
  10   8   3    5.40    1.80
  10   8   4    4.50    1.70
  10   8   5    2.00    1.00
  10   9  -9   13.60    1.90
  10   9  -8   -0.20    1.30
  10   9  -7   18.90    2.80
 -10   9   6   11.60    2.20
  10   9  -6   10.90    2.30
  10   9  -5    2.40    1.50
  10   9  -4   -2.00    2.30
  10   9  -3    5.40    2.40
  10   9  -2   11.70    2.80
  10   9  -1    2.80    2.00
  10   9   0   40.10    4.00
  10   9   1   35.20    3.80
  10   9   2   35.10    3.70
  10   9   3   27.50    3.20
  10   9   4   -0.80    1.20
  10   9   4    0.00    0.90
  10  10  -9    3.50    1.30
  10  10  -8    5.50    1.70
  10  10  -7    3.40    1.60
  10  10  -6   15.80    2.60
  10  10  -5   30.30    3.20
  10  10  -2    6.70    2.40
  10  10  -1   58.89    4.80
  10  10   1   11.40    2.30
  10  10   2   -1.10    1.40
  10  10   3    6.90    1.90
  10  10   4   19.60    2.40
  10  10   4   19.80    2.20
  10  11  -9   16.60    2.00
  10  11  -8    8.50    1.80
  10  11  -7   13.10    2.40
  10  11  -6   38.60    3.80
  10  11  -5   14.60    2.50
  10  11   1    0.70    1.50
  10  11   2    4.20    1.80
  10  11   3    1.60    1.20
  10  11   4    1.90    1.30
  10  11   4    1.20    1.10
  10  12  -8    8.00    1.80
  10  12  -7    3.00    1.50
  10  12  -6    1.50    1.50
  10  12  -5   13.00    2.30
  10  12   1   -0.40    1.40
  10  12   2    6.90    1.90
  10  12   3    5.50    1.60
  10  12   4   10.90    1.80
  10  13  -8   15.10    2.10
  10  13  -7   14.70    2.40
  10  13  -6   23.20    2.90
  10  13  -5    1.40    1.50
  10  13   0   13.90    2.40
  10  13   1   -0.30    1.40
  10  13   2    4.60    1.60
  10  13   3    1.60    1.20
  10  13   3    3.40    1.60
  10  14  -8    0.70    1.20
  10  14  -7    1.10    1.20
  10  14  -6    3.80    1.50
  10  14  -5   18.90    2.50
  10  14   0   27.80    3.20
  10  14   1   10.90    2.00
  10  14   2    0.20    1.30
  10  14   3    9.40    1.70
  10  14   3    5.20    1.50
  10  15  -8    2.40    1.20
  10  15  -7   24.10    2.60
  10  15  -6   16.30    2.40
  10  15  -5   -2.70    1.50
  10  15   0   13.00    2.30
  10  15   1   22.00    2.50
  10  15   2   12.70    2.00
  10  15   3    5.40    1.40
  10  15   3    6.00    1.50
  10  16  -7    8.80    1.60
  10  16  -6   12.20    2.10
  10  16  -5    7.60    1.70
  10  16  -4    7.00    1.50
  10  16  -1   22.60    2.70
  10  16   0   16.00    2.20
  10  16   1    3.70    1.50
  10  16   2   10.90    1.70
  10  16   3   13.90    1.90
  10  17  -7   21.30    2.20
  10  17  -6   10.70    1.80
  10  17  -5    4.60    1.50
  10  17  -4    5.20    1.40
  10  17  -1   12.10    1.90
  10  17   0   15.40    2.20
  10  17   1   25.30    2.50
  10  17   2    7.00    1.70
  10  18  -6   26.90    2.50
  10  18  -5   21.40    2.30
  10  18  -4   19.70    2.20
  10  18   2    8.90    1.60
  10  19  -6    3.40    1.20
  10  19  -5    6.30    1.30
  10  19  -4   -0.50    0.90
  10  19   1   11.60    1.70
  10  20   1    0.70    1.00
  11 -16  -2    4.20    1.20
  11 -15  -3   11.00    1.80
  11 -15  -2    4.40    1.40
  11 -15  -1    3.90    1.30
  11 -14  -4    5.10    1.30
  11 -14  -3    9.40    1.70
  11 -14  -2    5.30    1.70
  11 -14  -1   25.20    2.60
  11 -14   0   13.20    1.90
  11 -13  -4   10.70    1.80
  11 -13  -3    3.80    1.50
  11 -13  -2   -0.80    1.30
  11 -13  -1   44.30    3.50
  11 -13   0   34.80    2.90
  11 -12  -5    2.50    1.20
 -11 -12   4    7.50    1.40
  11 -12  -4    6.20    1.50
  11 -12  -3   11.90    2.10
  11 -12  -2   16.00    2.40
  11 -12  -1   17.40    2.40
  11 -12   0    5.00    1.70
 -11 -11   6    7.90    1.50
 -11 -11   5    8.10    1.60
  11 -11  -5    5.20    1.50
 -11 -11   4    6.20    1.40
  11 -11  -4    8.10    1.90
 -11 -11   3    4.30    1.30
  11 -11  -3    4.40    1.50
  11 -11  -2   17.20    2.70
  11 -11  -1    4.00    1.80
  11 -11   0    3.00    1.30
  11 -11   1    4.50    1.30
 -11 -10   6    6.50    1.50
 -11 -10   5    7.30    1.80
  11 -10  -5    5.90    1.50
 -11 -10   4    7.70    1.90
  11 -10  -4    6.50    1.70
  11 -10  -3   29.40    3.10
 -11 -10   3   36.60    3.30
  11 -10  -2   30.40    3.20
  11 -10  -1    2.00    1.50
  11 -10   0    6.50    1.70
  11 -10   1    0.30    1.10
 -11  -9   7    9.00    1.50
 -11  -9   6   16.30    2.20
 -11  -9   5   18.90    2.50
  11  -9  -5   19.40    2.30
 -11  -9   4    2.30    1.60
  11  -9  -4    0.50    1.30
  11  -9  -3   -0.50    1.60
  11  -9  -2    1.60    1.60
  11  -9  -1   14.20    2.60
  11  -9   0   20.10    2.70
  11  -9   1    6.30    1.50
 -11  -8   7    4.30    1.40
 -11  -8   6    5.00    1.60
 -11  -8   5   11.50    2.30
  11  -8  -5   12.50    2.00
 -11  -8   4    4.00    1.70
  11  -8  -4    4.00    1.50
  11  -8  -3    9.30    2.20
  11  -8  -2    3.80    1.70
  11  -8  -1    6.90    1.80
  11  -8   0    1.40    1.60
  11  -8   1    3.70    1.30
 -11  -7   7    7.30    1.80
 -11  -7   6   11.90    2.10
 -11  -7   5   38.40    3.80
  11  -7  -5   39.60    3.30
  11  -7  -4    0.00    1.50
  11  -7  -3    1.80    1.80
  11  -7  -2    9.10    2.40
  11  -7  -1    1.00    1.60
  11  -7   0    4.90    1.70
  11  -7   1    7.70    1.70
 -11  -6   7   11.90    2.00
 -11  -6   6    6.70    1.80
  11  -6  -6    8.40    1.60
 -11  -6   5   10.60    2.30
  11  -6  -5    9.00    1.80
  11  -6  -4   12.20    2.30
  11  -6  -3   16.20    2.80
  11  -6  -2   64.69    5.00
  11  -6  -1   43.30    4.00
  11  -6   0    0.50    1.40
  11  -6   1    8.80    1.70
 -11  -5   8    2.00    1.10
 -11  -5   7    0.10    1.30
 -11  -5   6    3.70    1.70
  11  -5  -6    4.10    1.30
 -11  -5   5   15.10    2.70
  11  -5  -5   12.00    2.30
  11  -5  -4    1.00    1.60
  11  -5  -3   10.90    2.80
  11  -5  -2   12.70    3.00
  11  -5  -1   41.60    4.10
  11  -5   0   21.00    2.70
  11  -5   1    4.20    1.30
 -11  -4   8   -1.10    1.20
 -11  -4   7    2.50    1.50
 -11  -4   6    4.50    2.00
  11  -4  -6    3.70    1.30
 -11  -4   5    1.40    1.60
  11  -4  -5    6.80    2.00
  11  -4  -4    5.10    1.80
  11  -4  -3   19.50    3.10
  11  -4  -2   11.30    2.50
  11  -4  -1   20.70    3.20
  11  -4  -1   25.90    2.90
  11  -4   0    1.10    1.20
  11  -4   0   -0.50    1.40
  11  -4   1    1.00    1.10
 -11  -3   8    4.40    1.40
 -11  -3   7    6.70    2.00
 -11  -3   6    7.10    2.10
  11  -3  -6    2.60    1.20
 -11  -3   5    4.10    2.00
  11  -3  -5    5.50    1.80
  11  -3  -4   -0.50    1.80
  11  -3  -3    2.70    2.10
  11  -3  -2    4.30    1.80
  11  -3  -1   15.20    2.60
  11  -3  -1   16.30    2.30
  11  -3   0   15.30    2.40
  11  -3   0   19.00    2.50
  11  -3   1    6.80    1.60
  11  -3   1    5.10    1.50
  11  -3   2    2.10    1.10
 -11  -2   8   20.70    2.40
 -11  -2   7    7.10    1.90
 -11  -2   6   -1.80    1.60
  11  -2  -6    0.90    1.30
  11  -2  -5    3.50    1.70
  11  -2  -4    6.70    1.70
  11  -2  -3   15.50    2.80
  11  -2  -2    9.20    2.60
  11  -2  -1    8.80    2.30
  11  -2   0    5.20    1.80
  11  -2   0    4.30    1.80
  11  -2   1    9.00    1.70
  11  -2   1   12.10    1.90
  11  -2   2    6.40    1.50
 -11  -1   8   -0.20    1.20
 -11  -1   7   26.70    2.90
 -11  -1   6   16.80    2.80
  11  -1  -6   18.00    2.30
  11  -1  -5   14.60    2.50
  11  -1  -4   26.50    3.20
  11  -1  -3   14.90    2.80
  11  -1  -2   34.20    3.90
  11  -1  -1    5.60    2.20
  11  -1   0    0.80    1.50
  11  -1   0    0.90    1.40
  11  -1   1   10.60    2.00
  11  -1   1    8.80    1.80
  11  -1   2   10.20    1.80
 -11   0   8    8.80    1.60
 -11   0   7    0.80    1.30
 -11   0   6    3.10    1.80
  11   0  -6    5.40    1.50
  11   0  -5   -0.60    1.40
  11   0  -4    7.30    2.70
  11   0  -3   15.60    3.00
  11   0  -2   21.40    3.10
  11   0  -1    2.70    2.00
  11   0   0   74.79    5.10
  11   0   0   84.99    5.30
  11   0   1   22.70    2.80
  11   0   1   23.60    2.60
  11   0   2    5.20    1.40
 -11   1   8   -0.70    1.10
 -11   1   7   20.00    2.70
 -11   1   6   21.40    3.10
  11   1  -5   18.20    2.70
  11   1  -4   26.60    3.20
  11   1  -3   14.00    2.80
  11   1  -2   32.80    3.50
  11   1  -1    6.40    2.20
  11   1   0   -1.00    1.50
  11   1   0   -0.30    1.30
  11   1   1   11.90    2.20
  11   1   1   11.60    1.90
  11   1   2   13.20    2.10
 -11   2   7    7.60    1.80
 -11   2   6    3.70    1.90
  11   2  -5    2.00    1.50
  11   2  -4   11.20    2.70
  11   2  -3   16.10    2.90
  11   2  -2    6.60    2.10
  11   2  -1    5.10    2.10
  11   2   0    7.60    1.90
  11   2   0    2.90    1.60
  11   2   1   12.30    2.30
  11   2   1   10.50    1.80
  11   2   2    7.90    1.80
  11   2   3    3.20    1.20
 -11   3   7   -0.40    1.30
  11   3  -7    5.00    1.40
 -11   3   6    5.50    1.90
  11   3  -5    3.30    1.80
  11   3  -4    1.90    1.70
  11   3  -3    1.30    2.10
  11   3  -2    3.90    2.10
  11   3  -1   17.00    2.70
  11   3   0   17.90    2.40
  11   3   0   15.40    2.40
  11   3   1    2.00    1.20
  11   3   2    6.30    1.70
  11   3   3    2.90    1.20
 -11   4   7    1.30    1.20
  11   4  -7    2.60    1.00
 -11   4   6    9.40    2.20
  11   4  -5    4.60    1.70
  11   4  -4    5.70    2.00
  11   4  -3   14.10    2.60
  11   4  -2   12.00    2.60
  11   4  -1   26.20    3.10
  11   4   0    3.50    1.60
  11   4   0    2.30    1.50
  11   4   1    3.90    1.70
  11   4   2   -0.10    1.30
  11   4   3    3.40    1.20
 -11   5   7   -2.30    1.20
  11   5  -7    0.20    0.80
 -11   5   6    7.40    2.00
  11   5  -4    2.70    1.90
  11   5  -3    9.50    2.80
  11   5  -2    7.00    2.10
  11   5  -1   47.70    4.10
  11   5   0   22.10    2.80
  11   5   0   24.40    2.70
  11   5   1    8.40    1.80
  11   5   2    9.00    1.90
 -11   6   7   15.00    1.90
 -11   6   6   11.50    2.10
  11   6  -3   16.10    2.70
  11   6  -2   65.59    5.00
  11   6  -1   39.80    3.60
  11   6   0    3.40    1.50
  11   6   1    3.60    1.40
  11   6   2    8.80    1.80
 -11   7   6   15.60    2.20
 -11   7   5   38.70    3.50
  11   7  -2    7.00    1.90
  11   7   0    3.10    1.60
  11   7   1    4.10    1.50
  11   7   2    6.80    1.40
 -11   8   6    2.80    1.10
 -11   8   5    6.60    1.70
  11   8   0    4.70    1.70
  11   8   1    2.30    1.20
  11   8   2    3.40    1.40
 -11   9   5   20.30    2.40
  11   9   0   14.90    2.40
  11   9   1    1.40    1.20
  11   9   2    3.20    1.30
  11  10  -1   -0.30    1.20
  11  10   0    2.90    1.30
  11  10   1    1.70    1.30
  11  10   2   -0.20    1.10
  11  11  -1    5.30    1.60
  11  11   0    0.00    1.10
  11  11   1    5.20    1.50
  11  12  -1   17.00    2.30
  11  12   0    4.60    1.50
  11  12   1   10.80    1.80
  11  13  -2    0.00    1.20
  11  13  -1   51.39    3.70
  11  13   0   33.30    2.80
  11  14  -2    7.60    1.70
  11  14  -1   31.80    2.80
  12  -4  -3   11.00    1.70
  12  -3  -3   34.40    2.70
 -12  -3   3   31.10    2.80
  12  -3  -2    6.50    1.50
 -12  -2   4   18.70    2.20
  12  -2  -3   11.90    1.90
  12  -2  -2    9.20    1.50
 -12  -1   4    3.00    1.20
  12  -1  -3   28.70    2.60
  12  -1  -2   10.80    1.70
 -12   0   4   -1.10    1.00
  12   0  -3   22.20    2.30
  12   0  -2   -1.00    1.10
 -12   1   4    4.90    1.50
  12   1  -3   30.00    2.60
  12   1  -2   12.80    1.80
   0   0   0    0.00    0.00


_computing_structure_solution     'SHELXT 2014/5 (Sheldrick, 2014)'
_computing_structure_solution     'SHELXT 2014/5 (Sheldrick, 2014)'
;
_shelx_hkl_checksum              47679
loop_
_space_group_symop_operation_xyz
'x, y, z'
'-x, y+1/2, -z'
loop_
_atom_site_label
_atom_site_type_symbol
_atom_site_fract_x
_atom_site_fract_y
_atom_site_fract_z
_atom_site_U_iso_or_equiv
_atom_site_adp_type
_atom_site_occupancy
_atom_site_site_symmetry_order
_atom_site_calc_flag
_atom_site_refinement_flags_posn
_atom_site_refinement_flags_adp
_atom_site_refinement_flags_occupancy
_atom_site_disorder_assembly
_atom_site_disorder_group
Zn1 Zn 0.07800(11) 0.29593(3) 0.43586(9) 0.0296(2) Uani 1 1 d . . . . .
Zn2 Zn 0.80771(11) 0.37023(3) 0.62199(10) 0.0317(3) Uani 1 1 d . . . . .
Zn3 Zn 0.43598(13) 0.69841(3) 0.79327(10) 0.0371(3) Uani 1 1 d . . . . .
Zn4 Zn -0.34729(12) 0.62501(5) 0.58916(11) 0.0458(3) Uani 1 1 d . . . . .
C1 C 0.0614(9) 0.3370(2) 0.6560(7) 0.0300(18) Uani 1 1 d . . . . .
C2 C 0.1987(9) 0.3194(3) 0.7146(8) 0.036(2) Uani 1 1 d . . . . .
H2A H 0.240254 0.337353 0.777979 0.043 Uiso 1 1 calc R U . . .
H2B H 0.183083 0.292926 0.748162 0.043 Uiso 1 1 calc R U . . .
C3 C 0.3075(10) 0.2432(3) 0.5450(10) 0.046(3) Uani 1 1 d . . . . .
C4 C 0.3678(9) 0.2747(3) 0.6386(8) 0.0349(19) Uani 1 1 d . . . . .
H4A H 0.370403 0.262370 0.714696 0.042 Uiso 1 1 calc R U . . .
H4B H 0.462811 0.280260 0.631499 0.042 Uiso 1 1 calc R U . . .
C5 C 0.6717(8) 0.3006(2) 0.5038(7) 0.0294(17) Uani 1 1 d . . . . .
C6 C 0.6336(9) 0.3307(3) 0.4048(8) 0.036(2) Uani 1 1 d . . . . .
H6A H 0.708219 0.331666 0.361082 0.043 Uiso 1 1 calc R U . . .
H6B H 0.551319 0.320852 0.352416 0.043 Uiso 1 1 calc R U . . .
C7 C 0.7908(10) 0.4255(3) 0.4282(9) 0.041(2) Uani 1 1 d . . . . .
C8 C 0.6507(10) 0.4067(3) 0.3773(8) 0.037(2) Uani 1 1 d . . . . .
H8A H 0.581132 0.428173 0.370946 0.044 Uiso 1 1 calc R U . . .
H8B H 0.652845 0.397274 0.298744 0.044 Uiso 1 1 calc R U . . .
C9 C -0.2657(12) 0.6635(4) 0.8120(9) 0.054(3) Uani 1 1 d . . . . .
C10 C -0.1402(10) 0.6428(3) 0.8665(10) 0.053(3) Uani 1 1 d . . . . .
H10A H -0.145044 0.637120 0.947363 0.063 Uiso 1 1 calc R U . . .
H10B H -0.062308 0.661073 0.866552 0.063 Uiso 1 1 calc R U . . .
C11 C -0.3313(10) 0.5608(3) 0.7744(9) 0.043(2) Uani 1 1 d . . . . .
C12 C -0.1842(10) 0.5688(3) 0.8418(9) 0.044(2) Uani 1 1 d . . . . .
H12A H -0.187965 0.570738 0.924196 0.052 Uiso 1 1 calc R U . . .
H12B H -0.128150 0.544945 0.832323 0.052 Uiso 1 1 calc R U . . .
C13 C 0.3897(9) 0.6506(2) 0.5618(8) 0.0312(18) Uani 1 1 d . . . . .
C14 C 0.2495(10) 0.6658(3) 0.5005(8) 0.037(2) Uani 1 1 d . . . . .
H14A H 0.260346 0.692579 0.466885 0.044 Uiso 1 1 calc R U . . .
H14B H 0.213293 0.647219 0.436960 0.044 Uiso 1 1 calc R U . . .
C15 C 0.1494(7) 0.7388(2) 0.6693(7) 0.0274(17) Uani 1 1 d . . . . .
C16 C 0.0777(9) 0.7075(3) 0.5834(9) 0.041(2) Uani 1 1 d . . . . .
H16A H -0.011997 0.701488 0.602640 0.049 Uiso 1 1 calc R U . . .
H16B H 0.060951 0.719732 0.506067 0.049 Uiso 1 1 calc R U . . .
C17 C 0.3486(8) 0.3478(2) 0.5953(7) 0.0264(17) Uani 1 1 d . . . . .
C18 C 0.4981(8) 0.3776(3) 0.4968(7) 0.0289(17) Uani 1 1 d . . . . .
C19 C 0.3530(8) 0.4172(2) 0.5797(7) 0.0270(17) Uani 1 1 d . . . . .
C20 C -0.0217(8) 0.6028(3) 0.7356(8) 0.0327(19) Uani 1 1 d . . . . .
C21 C 0.1108(8) 0.6345(2) 0.6263(8) 0.0303(18) Uani 1 1 d . . . . .
C22 C 0.1087(8) 0.5652(2) 0.6361(8) 0.0284(18) Uani 1 1 d . . . . .
C23 C 0.2029(10) 0.4584(3) 0.6788(9) 0.044(2) Uani 1 1 d . . . . .
H23A H 0.252959 0.466812 0.755144 0.053 Uiso 1 1 calc R U . . .
H23B H 0.158695 0.432211 0.687404 0.053 Uiso 1 1 calc R U . . .
C24 C 0.3656(9) 0.4930(3) 0.5725(9) 0.037(2) Uani 1 1 d . . . . .
H24A H 0.420270 0.488607 0.512625 0.045 Uiso 1 1 calc R U . . .
H24B H 0.427047 0.502677 0.642553 0.045 Uiso 1 1 calc R U . . .
C25 C 0.0946(10) 0.4900(3) 0.6316(10) 0.044(2) Uani 1 1 d . . . . .
H25A H 0.037540 0.479883 0.559969 0.053 Uiso 1 1 calc R U . . .
H25B H 0.035081 0.494557 0.687875 0.053 Uiso 1 1 calc R U . . .
C26 C 0.2560(10) 0.5248(3) 0.5317(9) 0.042(2) Uani 1 1 d . . . . .
H26A H 0.300259 0.551138 0.526090 0.050 Uiso 1 1 calc R U . . .
H26B H 0.206507 0.517477 0.454138 0.050 Uiso 1 1 calc R U . . .
C27 C 0.1405(9) 0.3773(3) 0.3448(7) 0.0326(19) Uani 1 1 d . . . . .
H27A H 0.088322 0.387086 0.397627 0.039 Uiso 1 1 calc R U . . .
C28 C 0.2211(10) 0.3231(3) 0.2519(8) 0.043(2) Uani 1 1 d . . . . .
H28A H 0.224550 0.294954 0.239738 0.051 Uiso 1 1 calc R U . . .
C29 C 0.2900(11) 0.3480(3) 0.1910(9) 0.045(2) Uani 1 1 d . . . . .
H29A H 0.340719 0.337214 0.138376 0.054 Uiso 1 1 calc R U . . .
C30 C 0.2062(9) 0.4048(3) 0.2868(8) 0.0345(19) Uani 1 1 d . . . . .
H30A H 0.198718 0.432767 0.299827 0.041 Uiso 1 1 calc R U . . .
C31 C 0.2843(9) 0.3906(3) 0.2081(8) 0.035(2) Uani 1 1 d . . . . .
C32 C 0.4173(13) 0.5828(4) 0.2738(10) 0.059(3) Uani 1 1 d . . . . .
H32A H 0.373675 0.593296 0.331554 0.071 Uiso 1 1 calc R U . . .
C33 C 0.5450(10) 0.5517(3) 0.1077(9) 0.046(2) Uani 1 1 d . . . . .
H33A H 0.590494 0.542250 0.049823 0.055 Uiso 1 1 calc R U . . .
C34 C 0.4004(12) 0.5419(3) 0.2474(9) 0.049(3) Uani 1 1 d . . . . .
H34A H 0.346192 0.525385 0.285735 0.058 Uiso 1 1 calc R U . . .
C35 C 0.5552(12) 0.5925(3) 0.1415(10) 0.052(3) Uani 1 1 d . . . . .
H35A H 0.609307 0.609878 0.105590 0.062 Uiso 1 1 calc R U . . .
C36 C 0.4671(10) 0.5255(3) 0.1606(8) 0.040(2) Uani 1 1 d . . . . .
C37 C 0.5736(10) 0.3742(3) -0.1061(8) 0.040(2) Uani 1 1 d . . . . .
H37A H 0.535671 0.354723 -0.063164 0.048 Uiso 1 1 calc R U . . .
C38 C 0.6206(11) 0.4441(3) -0.1480(8) 0.042(2) Uani 1 1 d . . . . .
H38A H 0.614048 0.472080 -0.134347 0.051 Uiso 1 1 calc R U . . .
C39 C 0.6422(10) 0.3628(3) -0.1935(8) 0.041(2) Uani 1 1 d . . . . .
H39A H 0.647989 0.334988 -0.210543 0.049 Uiso 1 1 calc R U . . .
C40 C 0.6893(10) 0.4298(3) -0.2338(8) 0.038(2) Uani 1 1 d . . . . .
H40A H 0.728425 0.448721 -0.277667 0.046 Uiso 1 1 calc R U . . .
C41 C 0.5628(8) 0.4160(3) -0.0840(7) 0.0320(19) Uani 1 1 d . . . . .
C42 C 0.4948(9) 0.4309(3) 0.0129(8) 0.035(2) Uani 1 1 d . . . . .
C43 C 0.4502(9) 0.4824(3) 0.1264(7) 0.0334(19) Uani 1 1 d . . . . .
C44 C 0.3636(9) 0.4190(3) 0.1475(8) 0.0319(19) Uani 1 1 d . . . . .
C45 C 0.0460(13) 0.4128(4) -0.0612(10) 0.059(3) Uani 1 1 d . . . . .
H45A H 0.087899 0.402712 -0.120557 0.071 Uiso 1 1 calc R U . . .
C46 C -0.0915(11) 0.4033(3) 0.0729(9) 0.048(2) Uani 1 1 d . . . . .
H46A H -0.146288 0.386177 0.109229 0.058 Uiso 1 1 calc R U . . .
C47 C 0.0672(11) 0.4532(4) -0.0300(9) 0.050(3) Uani 1 1 d . . . . .
H47A H 0.122915 0.469798 -0.066711 0.060 Uiso 1 1 calc R U . . .
C48 C -0.0770(10) 0.4430(3) 0.1080(9) 0.044(2) Uani 1 1 d . . . . .
H48A H -0.121700 0.452612 0.166175 0.053 Uiso 1 1 calc R U . . .
C49 C 0.0046(9) 0.4688(3) 0.0566(8) 0.039(2) Uani 1 1 d . . . . .
C50 C 0.1909(9) 0.6043(3) 0.0110(8) 0.037(2) Uani 1 1 d . . . . .
C51 C 0.2707(10) 0.6712(3) -0.0256(9) 0.043(2) Uani 1 1 d . . . . .
H51A H 0.271464 0.699235 -0.010712 0.051 Uiso 1 1 calc R U . . .
C52 C 0.1955(11) 0.6460(3) 0.0352(9) 0.043(2) Uani 1 1 d . . . . .
H52A H 0.149315 0.656811 0.090866 0.051 Uiso 1 1 calc R U . . .
C53 C 0.2653(9) 0.5892(3) -0.0717(7) 0.035(2) Uani 1 1 d . . . . .
H53A H 0.264891 0.561370 -0.089929 0.042 Uiso 1 1 calc R U . . .
C54 C 0.3378(9) 0.6167(3) -0.1240(7) 0.0345(19) Uani 1 1 d . . . . .
H54A H 0.388446 0.606481 -0.177478 0.041 Uiso 1 1 calc R U . . .
C55 C -0.0912(9) 0.5802(3) 0.3010(8) 0.037(2) Uani 1 1 d . . . . .
C56 C -0.1541(10) 0.5530(3) 0.3667(8) 0.043(2) Uani 1 1 d . . . . .
H56A H -0.152165 0.524875 0.352918 0.051 Uiso 1 1 calc R U . . .
C57 C -0.1722(10) 0.6340(3) 0.4072(8) 0.041(2) Uani 1 1 d . . . . .
H57A H -0.181181 0.662040 0.419525 0.050 Uiso 1 1 calc R U . . .
C58 C -0.2187(10) 0.5679(4) 0.4516(9) 0.047(2) Uani 1 1 d . . . . .
H58A H -0.256157 0.549418 0.497862 0.056 Uiso 1 1 calc R U . . .
C59 C -0.0997(10) 0.6212(3) 0.3242(8) 0.042(2) Uani 1 1 d . . . . .
H59A H -0.056540 0.640307 0.283790 0.050 Uiso 1 1 calc R U . . .
C60 C 0.1085(9) 0.5754(3) 0.0708(8) 0.038(2) Uani 1 1 d . . . . .
C61 C -0.0227(9) 0.5654(3) 0.2041(7) 0.0335(19) Uani 1 1 d . . . . .
C62 C 0.0248(10) 0.5128(3) 0.0924(7) 0.036(2) Uani 1 1 d . . . . .
N1 N 0.2947(7) 0.3141(2) 0.6357(6) 0.0298(15) Uani 1 1 d . . . . .
N2 N 0.6072(7) 0.3727(2) 0.4427(6) 0.0320(15) Uani 1 1 d . . . . .
N3 N 0.1501(8) 0.6690(2) 0.5778(7) 0.0384(18) Uani 1 1 d . . . . .
N4 N -0.1138(8) 0.6045(3) 0.8107(8) 0.044(2) Uani 1 1 d . . . . .
N5 N 0.3002(8) 0.4539(2) 0.5977(7) 0.0374(18) Uani 1 1 d . . . . .
N6 N 0.1587(8) 0.5286(2) 0.6083(7) 0.0368(18) Uani 1 1 d . . . . .
N7 N 0.4443(7) 0.34275(19) 0.5293(6) 0.0294(15) Uani 1 1 d . . . . .
N8 N 0.2975(7) 0.3836(2) 0.6214(6) 0.0293(15) Uani 1 1 d . . . . .
N9 N 0.4584(7) 0.4158(2) 0.5180(6) 0.0269(14) Uani 1 1 d . . . . .
N10 N 0.1595(7) 0.5990(2) 0.5925(7) 0.0311(16) Uani 1 1 d . . . . .
N11 N 0.0237(7) 0.6384(2) 0.7009(6) 0.0326(16) Uani 1 1 d . . . . .
N12 N 0.0133(7) 0.5651(2) 0.7055(7) 0.0340(16) Uani 1 1 d . . . . .
N13 N 0.1474(8) 0.3371(2) 0.3296(6) 0.0344(16) Uani 1 1 d . . . . .
N14 N 0.4917(11) 0.6081(3) 0.2226(8) 0.060(3) Uani 1 1 d . . . . .
N15 N 0.7010(7) 0.3902(2) -0.2552(6) 0.0323(16) Uani 1 1 d . . . . .
N16 N 0.5106(9) 0.4696(2) 0.0402(7) 0.0433(19) Uani 1 1 d . . . . .
N17 N 0.4226(8) 0.4036(2) 0.0621(6) 0.0350(16) Uani 1 1 d . . . . .
N18 N 0.3738(7) 0.4583(2) 0.1825(6) 0.0322(16) Uani 1 1 d . . . . .
N19 N -0.0315(10) 0.3871(3) -0.0112(8) 0.054(2) Uani 1 1 d . . . . .
N20 N 0.3423(7) 0.6573(2) -0.1047(6) 0.0333(16) Uani 1 1 d . . . . .
N21 N -0.2304(7) 0.6076(3) 0.4710(6) 0.0390(18) Uani 1 1 d . . . . .
N22 N -0.0399(8) 0.5250(2) 0.1785(7) 0.0402(18) Uani 1 1 d . . . . .
N23 N 0.1021(8) 0.5365(2) 0.0375(7) 0.0384(17) Uani 1 1 d . . . . .
N24 N 0.0473(7) 0.5913(2) 0.1536(6) 0.0356(17) Uani 1 1 d . . . . .
O1 O 0.0139(6) 0.33119(18) 0.5497(5) 0.0346(13) Uani 1 1 d . . . . .
O1W O 0.5351(7) 0.7374(2) 0.6946(6) 0.0462(16) Uani 1 1 d . . . . .
H1WA H 0.476136 0.746724 0.637551 0.055 Uiso 1 1 d R U . . .
H1WB H 0.595646 0.723944 0.667011 0.055 Uiso 1 1 d R U . . .
O2 O 0.2050(7) 0.2519(2) 0.4637(7) 0.058(2) Uani 1 1 d . . . . .
O2W O 0.4756(11) 0.7445(3) 0.9272(8) 0.089(3) Uani 1 1 d . . . . .
H2WA H 0.412257 0.762601 0.914106 0.106 Uiso 1 1 d R U . . .
H2WB H 0.554257 0.755381 0.927606 0.106 Uiso 1 1 d R U . . .
O3 O -0.0063(6) 0.3561(2) 0.7194(6) 0.0401(15) Uani 1 1 d . . . . .
O3W O 0.5471(12) 0.1944(3) 0.7534(8) 0.105(4) Uani 1 1 d G U . . .
H3WA H 0.509928 0.194494 0.681273 0.126 Uiso 1 1 d R U . . .
H3WB H 0.581198 0.170514 0.767113 0.126 Uiso 1 1 d R U . . .
O4 O 0.3665(8) 0.2099(2) 0.5472(8) 0.063(2) Uani 1 1 d . . . . .
O4W O 0.768(2) 0.7683(7) 1.0023(16) 0.239(11) Uani 1 1 d . U . . .
H4WA H 0.853512 0.774699 1.016930 0.287 Uiso 1 1 d R U . . .
H4WB H 0.756782 0.746699 1.040080 0.287 Uiso 1 1 d R U . . .
O5 O 0.7396(5) 0.31412(17) 0.6014(5) 0.0313(12) Uani 1 1 d . . . . .
O5W O -0.3052(17) 0.6964(6) 1.1232(12) 0.162(6) Uani 1 1 d G . . . .
H5WA H -0.379109 0.698061 1.150737 0.194 Uiso 1 1 d R U . . .
H5WB H -0.298479 0.673741 1.088477 0.194 Uiso 1 1 d R U . . .
O6 O 0.8518(7) 0.4157(2) 0.5301(6) 0.0501(17) Uani 1 1 d . . . . .
O6W O 1.0556(16) 0.2231(5) 0.7254(14) 0.150(6) Uani 1 1 d . . . . .
H6WA H 0.984700 0.229946 0.752893 0.180 Uiso 1 1 d R U . . .
H6WB H 1.119429 0.215676 0.781473 0.180 Uiso 1 1 d R U . . .
O7 O 0.6434(7) 0.26424(19) 0.4872(6) 0.0438(15) Uani 1 1 d . . . . .
O7W O 0.2662(13) 0.8061(4) 0.8889(11) 0.123(5) Uani 1 1 d G . . . .
H7WA H 0.210304 0.799949 0.826165 0.148 Uiso 1 1 d R U . . .
H7WB H 0.220534 0.806989 0.943835 0.148 Uiso 1 1 d R U . . .
O8 O 0.8362(10) 0.4510(3) 0.3681(7) 0.078(3) Uani 1 1 d . . . . .
O8W O 0.7934(16) 0.2492(4) 0.7681(12) 0.119(4) Uani 1 1 d G . . . .
H8WA H 0.802577 0.271719 0.733601 0.179 Uiso 1 1 d G U . . .
H8WB H 0.707232 0.247779 0.769166 0.179 Uiso 1 1 d G U . . .
O9 O 0.4273(6) 0.65412(18) 0.6690(5) 0.0347(13) Uani 1 1 d . . . . .
O9W O -0.068(2) 0.3001(4) -0.0388(11) 0.131(5) Uani 1 1 d G . . . .
H9WA H -0.070584 0.287320 -0.102836 0.197 Uiso 1 1 d G U . . .
H9WB H -0.015908 0.320710 -0.043351 0.197 Uiso 1 1 d G U . . .
O10 O 0.2534(6) 0.7312(2) 0.7428(6) 0.0423(15) Uani 1 1 d . . . . .
O11 O 0.4657(6) 0.6351(2) 0.4970(5) 0.0397(15) Uani 1 1 d . . . . .
O12 O 0.0914(6) 0.77442(17) 0.6626(5) 0.0317(13) Uani 1 1 d . . . . .
O13 O -0.2796(7) 0.6702(2) 0.6984(6) 0.0508(17) Uani 1 1 d . . . . .
O14 O -0.3669(8) 0.5754(3) 0.6735(6) 0.059(2) Uani 1 1 d . . . . .
O15 O -0.3548(8) 0.6762(3) 0.8725(7) 0.061(2) Uani 1 1 d . . . . .
O16 O -0.4073(9) 0.5406(3) 0.8250(8) 0.075(3) Uani 1 1 d . . . . .
loop_
_atom_site_aniso_label
_atom_site_aniso_U_11
_atom_site_aniso_U_22
_atom_site_aniso_U_33
_atom_site_aniso_U_23
_atom_site_aniso_U_13
_atom_site_aniso_U_12
Zn1 0.0285(5) 0.0253(5) 0.0378(6) -0.0042(5) 0.0127(4) -0.0037(5)
Zn2 0.0302(5) 0.0303(6) 0.0369(6) -0.0037(5) 0.0122(5) -0.0022(5)
Zn3 0.0474(6) 0.0296(6) 0.0386(6) 0.0050(5) 0.0194(5) 0.0098(5)
Zn4 0.0359(6) 0.0663(9) 0.0379(7) -0.0131(6) 0.0140(5) -0.0017(6)
C1 0.035(4) 0.023(4) 0.036(5) -0.005(3) 0.018(4) -0.005(3)
C2 0.037(4) 0.031(5) 0.044(5) 0.003(4) 0.017(4) 0.003(4)
C3 0.037(5) 0.019(4) 0.084(8) 0.001(5) 0.017(5) 0.005(4)
C4 0.034(4) 0.029(4) 0.045(5) 0.005(4) 0.013(4) 0.010(4)
C5 0.025(4) 0.023(4) 0.044(5) -0.010(4) 0.017(3) 0.004(3)
C6 0.030(4) 0.037(5) 0.042(5) -0.005(4) 0.014(4) 0.005(4)
C7 0.051(6) 0.032(5) 0.046(6) 0.003(4) 0.025(5) -0.012(4)
C8 0.050(5) 0.025(4) 0.040(5) 0.002(4) 0.019(4) 0.008(4)
C9 0.058(6) 0.056(6) 0.046(6) -0.014(5) 0.006(5) 0.001(5)
C10 0.036(5) 0.051(6) 0.073(7) -0.022(6) 0.016(5) 0.003(4)
C11 0.049(5) 0.025(4) 0.059(6) 0.001(4) 0.023(5) 0.003(4)
C12 0.041(5) 0.042(5) 0.050(6) 0.005(4) 0.017(4) 0.012(4)
C13 0.039(5) 0.019(4) 0.038(5) -0.006(3) 0.013(4) -0.008(3)
C14 0.049(5) 0.020(4) 0.042(5) -0.002(4) 0.009(4) -0.002(4)
C15 0.020(4) 0.026(4) 0.040(5) 0.013(4) 0.014(3) 0.002(3)
C16 0.036(5) 0.026(4) 0.060(6) 0.002(4) 0.009(4) 0.010(4)
C17 0.018(3) 0.021(4) 0.041(5) -0.003(3) 0.005(3) 0.003(3)
C18 0.026(4) 0.029(4) 0.032(4) -0.005(3) 0.006(3) 0.001(3)
C19 0.029(4) 0.019(4) 0.033(4) 0.001(3) 0.003(3) 0.003(3)
C20 0.026(4) 0.030(4) 0.042(5) -0.005(4) 0.007(4) 0.005(3)
C21 0.024(4) 0.021(4) 0.045(5) 0.002(4) 0.005(3) 0.003(3)
C22 0.024(4) 0.021(4) 0.040(5) 0.007(3) 0.004(3) 0.003(3)
C23 0.052(6) 0.030(5) 0.059(6) 0.004(4) 0.035(5) 0.006(4)
C24 0.037(5) 0.025(4) 0.056(6) 0.002(4) 0.026(4) 0.002(4)
C25 0.044(5) 0.022(4) 0.077(7) -0.002(5) 0.035(5) 0.000(4)
C26 0.058(6) 0.025(4) 0.051(6) 0.008(4) 0.034(5) 0.008(4)
C27 0.034(4) 0.036(5) 0.031(4) -0.001(4) 0.016(4) -0.004(4)
C28 0.056(6) 0.040(5) 0.039(5) -0.008(4) 0.025(5) -0.008(5)
C29 0.055(6) 0.043(6) 0.042(5) -0.003(5) 0.024(5) -0.008(5)
C30 0.033(4) 0.024(4) 0.047(5) -0.009(4) 0.010(4) -0.005(3)
C31 0.039(5) 0.034(5) 0.033(5) 0.003(4) 0.006(4) -0.004(4)
C32 0.079(8) 0.050(7) 0.050(7) -0.016(5) 0.015(6) 0.003(6)
C33 0.045(5) 0.041(5) 0.052(6) 0.003(5) 0.011(5) 0.000(4)
C34 0.062(7) 0.047(6) 0.041(5) -0.011(5) 0.019(5) -0.007(5)
C35 0.059(6) 0.040(6) 0.053(6) -0.008(5) 0.002(5) -0.010(5)
C36 0.044(5) 0.042(5) 0.033(5) 0.000(4) 0.007(4) -0.003(4)
C37 0.051(5) 0.029(5) 0.042(5) 0.005(4) 0.018(4) -0.003(4)
C38 0.064(6) 0.027(5) 0.041(5) 0.001(4) 0.024(5) 0.005(4)
C39 0.049(5) 0.031(5) 0.045(5) -0.005(4) 0.016(4) 0.001(4)
C40 0.050(5) 0.031(5) 0.040(5) 0.004(4) 0.022(4) -0.003(4)
C41 0.030(4) 0.037(5) 0.032(4) -0.002(4) 0.013(4) -0.004(4)
C42 0.035(4) 0.035(5) 0.036(5) 0.003(4) 0.014(4) 0.004(4)
C43 0.036(4) 0.039(5) 0.026(4) 0.002(4) 0.009(4) 0.002(4)
C44 0.028(4) 0.034(5) 0.033(5) -0.006(4) 0.006(4) -0.005(4)
C45 0.067(7) 0.057(7) 0.055(7) -0.019(6) 0.013(6) -0.002(6)
C46 0.056(6) 0.046(6) 0.040(6) 0.007(5) 0.004(5) -0.009(5)
C47 0.052(6) 0.055(6) 0.043(6) -0.012(5) 0.013(5) -0.012(5)
C48 0.047(5) 0.045(6) 0.040(5) -0.003(4) 0.010(4) -0.006(5)
C49 0.039(5) 0.044(5) 0.033(5) 0.003(4) 0.005(4) 0.003(4)
C50 0.035(5) 0.045(5) 0.032(5) 0.004(4) 0.011(4) 0.004(4)
C51 0.059(6) 0.032(5) 0.042(5) 0.004(4) 0.022(5) 0.003(4)
C52 0.056(6) 0.034(5) 0.044(5) 0.004(4) 0.023(5) 0.003(4)
C53 0.043(5) 0.034(5) 0.030(4) 0.003(4) 0.012(4) 0.005(4)
C54 0.036(4) 0.040(5) 0.030(4) 0.001(4) 0.013(4) 0.006(4)
C55 0.043(5) 0.036(5) 0.033(5) -0.001(4) 0.012(4) 0.001(4)
C56 0.050(6) 0.039(5) 0.047(6) -0.006(4) 0.028(5) -0.007(4)
C57 0.054(5) 0.035(5) 0.038(5) 0.004(4) 0.017(4) 0.004(4)
C58 0.046(6) 0.056(6) 0.042(6) -0.003(5) 0.016(5) -0.011(5)
C59 0.045(5) 0.039(5) 0.045(5) 0.007(5) 0.018(4) 0.003(4)
C60 0.037(5) 0.043(5) 0.036(5) 0.006(4) 0.016(4) 0.002(4)
C61 0.032(4) 0.042(5) 0.030(4) -0.001(4) 0.013(4) 0.003(4)
C62 0.047(5) 0.034(5) 0.028(4) 0.003(4) 0.006(4) 0.001(4)
N1 0.024(3) 0.021(3) 0.047(4) 0.004(3) 0.013(3) 0.006(3)
N2 0.028(3) 0.025(3) 0.046(4) -0.001(3) 0.015(3) 0.002(3)
N3 0.044(4) 0.019(3) 0.056(5) 0.001(3) 0.018(4) 0.004(3)
N4 0.034(4) 0.034(4) 0.073(6) 0.001(4) 0.030(4) 0.000(3)
N5 0.042(4) 0.018(3) 0.060(5) 0.001(3) 0.029(4) 0.006(3)
N6 0.045(4) 0.016(3) 0.056(5) 0.000(3) 0.026(4) 0.003(3)
N7 0.026(3) 0.018(3) 0.045(4) -0.003(3) 0.009(3) 0.004(3)
N8 0.034(3) 0.017(3) 0.039(4) 0.004(3) 0.012(3) 0.004(3)
N9 0.028(3) 0.021(3) 0.034(4) -0.001(3) 0.012(3) 0.000(3)
N10 0.031(4) 0.014(3) 0.050(4) -0.004(3) 0.012(3) -0.002(3)
N11 0.024(3) 0.028(4) 0.047(4) -0.006(3) 0.008(3) 0.003(3)
N12 0.025(3) 0.027(4) 0.052(5) -0.001(3) 0.014(3) 0.001(3)
N13 0.036(4) 0.032(4) 0.038(4) 0.000(3) 0.013(3) -0.007(3)
N14 0.076(6) 0.036(5) 0.056(6) -0.014(4) -0.013(5) -0.010(5)
N15 0.031(4) 0.036(4) 0.034(4) -0.003(3) 0.016(3) 0.004(3)
N16 0.061(5) 0.032(4) 0.043(5) -0.001(3) 0.026(4) -0.007(4)
N17 0.041(4) 0.039(4) 0.030(4) -0.001(3) 0.019(3) -0.002(3)
N18 0.036(4) 0.035(4) 0.028(4) 0.002(3) 0.012(3) -0.002(3)
N19 0.069(6) 0.043(5) 0.047(5) -0.004(4) 0.004(4) -0.001(5)
N20 0.038(4) 0.032(4) 0.033(4) 0.007(3) 0.015(3) 0.005(3)
N21 0.032(4) 0.051(5) 0.036(4) -0.010(4) 0.010(3) 0.009(3)
N22 0.051(5) 0.037(4) 0.035(4) -0.004(3) 0.018(4) 0.001(4)
N23 0.047(4) 0.036(4) 0.034(4) 0.001(3) 0.014(3) 0.001(3)
N24 0.040(4) 0.036(4) 0.035(4) 0.004(3) 0.017(3) 0.001(3)
O1 0.032(3) 0.037(3) 0.038(3) -0.007(3) 0.014(3) 0.004(3)
O1W 0.042(4) 0.032(3) 0.068(4) 0.012(3) 0.020(3) 0.004(3)
O2 0.048(4) 0.028(3) 0.092(6) -0.012(4) 0.003(4) 0.013(3)
O2W 0.090(7) 0.083(7) 0.096(7) -0.029(6) 0.026(6) -0.022(6)
O3 0.031(3) 0.043(4) 0.047(4) -0.022(3) 0.009(3) 0.003(3)
O3W 0.156(8) 0.056(5) 0.084(6) -0.001(5) -0.026(6) 0.027(6)
O4 0.070(5) 0.029(4) 0.089(6) -0.008(4) 0.015(4) 0.010(3)
O4W 0.250(18) 0.24(2) 0.198(16) 0.029(15) -0.044(14) -0.111(16)
O5 0.029(3) 0.026(3) 0.040(3) -0.001(3) 0.010(3) 0.000(2)
O5W 0.188(15) 0.167(16) 0.130(11) 0.010(12) 0.031(11) 0.006(14)
O6 0.049(4) 0.043(4) 0.057(4) 0.011(3) 0.008(3) -0.018(3)
O6W 0.147(13) 0.114(12) 0.190(15) -0.018(11) 0.034(11) 0.002(10)
O7 0.051(4) 0.026(3) 0.058(4) -0.011(3) 0.018(3) -0.004(3)
O7W 0.129(10) 0.096(9) 0.144(10) -0.074(8) 0.025(8) -0.009(7)
O8 0.104(7) 0.072(6) 0.063(5) 0.017(4) 0.029(5) -0.040(5)
O8W 0.161(12) 0.097(9) 0.085(8) 0.029(7) -0.011(9) 0.011(9)
O9 0.046(3) 0.033(3) 0.027(3) -0.006(2) 0.011(3) -0.002(3)
O9W 0.239(17) 0.060(7) 0.090(8) 0.004(6) 0.019(9) 0.003(9)
O10 0.033(3) 0.043(4) 0.049(4) 0.006(3) 0.003(3) 0.013(3)
O11 0.038(3) 0.055(4) 0.028(3) -0.002(3) 0.012(3) 0.002(3)
O12 0.028(3) 0.025(3) 0.039(3) 0.001(2) 0.000(2) 0.009(2)
O13 0.047(4) 0.045(4) 0.058(4) -0.006(3) 0.006(3) 0.011(3)
O14 0.064(5) 0.065(5) 0.045(4) 0.003(4) 0.006(4) -0.002(4)
O15 0.053(4) 0.074(5) 0.055(4) 0.004(4) 0.011(4) 0.011(4)
O16 0.076(6) 0.055(5) 0.098(7) 0.015(5) 0.032(5) -0.020(4)
loop_
_atom_type_symbol
_atom_type_description
_atom_type_scat_dispersion_real
_atom_type_scat_dispersion_imag
_atom_type_scat_source
C C 0.0181 0.0091 'International Tables Vol C Tables 4.2.6.8 and 6.1.1.4'
H H 0.0000 0.0000 'International Tables Vol C Tables 4.2.6.8 and 6.1.1.4'
N N 0.0311 0.0180 'International Tables Vol C Tables 4.2.6.8 and 6.1.1.4'
O O 0.0492 0.0322 'International Tables Vol C Tables 4.2.6.8 and 6.1.1.4'
Zn Zn -1.5491 0.6778 'International Tables Vol C Tables 4.2.6.8 and 6.1.1.4'
loop_
_geom_angle_atom_site_label_1
_geom_angle_atom_site_label_2
_geom_angle_atom_site_label_3
_geom_angle
_geom_angle_site_symmetry_1
_geom_angle_site_symmetry_3
_geom_angle_publ_flag
O2 Zn1 O1 128.3(3) . . ?
O2 Zn1 O12 106.7(3) . 2_546 ?
O1 Zn1 O12 105.1(2) . 2_546 ?
O2 Zn1 N13 108.6(3) . . ?
O1 Zn1 N13 102.5(3) . . ?
O12 Zn1 N13 103.0(3) 2_546 . ?
O6 Zn2 O5 139.8(3) . . ?
O6 Zn2 O3 102.3(3) . 1_655 ?
O5 Zn2 O3 96.3(3) . 1_655 ?
O6 Zn2 N15 110.3(3) . 1_556 ?
O5 Zn2 N15 100.0(3) . 1_556 ?
O3 Zn2 N15 102.2(3) 1_655 1_556 ?
O9 Zn3 O10 104.3(3) . . ?
O9 Zn3 O1W 90.0(3) . . ?
O10 Zn3 O1W 90.0(3) . . ?
O9 Zn3 N20 89.3(3) . 1_556 ?
O10 Zn3 N20 92.2(3) . 1_556 ?
O1W Zn3 N20 177.7(3) . 1_556 ?
O9 Zn3 O2W 172.1(3) . . ?
O10 Zn3 O2W 82.7(4) . . ?
O1W Zn3 O2W 86.3(3) . . ?
N20 Zn3 O2W 94.1(3) 1_556 . ?
O9 Zn3 O15 88.5(3) . 1_655 ?
O10 Zn3 O15 166.6(3) . 1_655 ?
O1W Zn3 O15 86.2(3) . 1_655 ?
N20 Zn3 O15 91.6(3) 1_556 1_655 ?
O2W Zn3 O15 84.3(4) . 1_655 ?
O14 Zn4 O11 104.1(3) . 1_455 ?
O14 Zn4 O13 110.6(3) . . ?
O11 Zn4 O13 113.0(3) 1_455 . ?
O14 Zn4 N21 103.7(4) . . ?
O11 Zn4 N21 105.4(3) 1_455 . ?
O13 Zn4 N21 118.6(3) . . ?
O3 C1 O1 121.3(8) . . ?
O3 C1 C2 117.1(8) . . ?
O1 C1 C2 121.5(7) . . ?
N1 C2 C1 113.2(7) . . ?
N1 C2 H2A 108.9 . . ?
C1 C2 H2A 108.9 . . ?
N1 C2 H2B 108.9 . . ?
C1 C2 H2B 108.9 . . ?
H2A C2 H2B 107.7 . . ?
O4 C3 O2 121.0(10) . . ?
O4 C3 C4 117.4(9) . . ?
O2 C3 C4 121.5(8) . . ?
N1 C4 C3 116.7(7) . . ?
N1 C4 H4A 108.1 . . ?
C3 C4 H4A 108.1 . . ?
N1 C4 H4B 108.1 . . ?
C3 C4 H4B 108.1 . . ?
H4A C4 H4B 107.3 . . ?
O7 C5 O5 122.5(8) . . ?
O7 C5 C6 119.6(8) . . ?
O5 C5 C6 117.7(7) . . ?
N2 C6 C5 114.1(7) . . ?
N2 C6 H6A 108.7 . . ?
C5 C6 H6A 108.7 . . ?
N2 C6 H6B 108.7 . . ?
C5 C6 H6B 108.7 . . ?
H6A C6 H6B 107.6 . . ?
O8 C7 O6 123.3(10) . . ?
O8 C7 C8 116.9(9) . . ?
O6 C7 C8 119.8(8) . . ?
N2 C8 C7 115.9(8) . . ?
N2 C8 H8A 108.3 . . ?
C7 C8 H8A 108.3 . . ?
N2 C8 H8B 108.3 . . ?
C7 C8 H8B 108.3 . . ?
H8A C8 H8B 107.4 . . ?
O15 C9 O13 122.9(10) . . ?
O15 C9 C10 121.4(10) . . ?
O13 C9 C10 115.7(10) . . ?
C9 C10 N4 114.6(9) . . ?
C9 C10 H10A 108.6 . . ?
N4 C10 H10A 108.6 . . ?
C9 C10 H10B 108.6 . . ?
N4 C10 H10B 108.6 . . ?
H10A C10 H10B 107.6 . . ?
O16 C11 O14 124.5(11) . . ?
O16 C11 C12 116.5(10) . . ?
O14 C11 C12 119.0(9) . . ?
N4 C12 C11 117.5(8) . . ?
N4 C12 H12A 107.9 . . ?
C11 C12 H12A 107.9 . . ?
N4 C12 H12B 107.9 . . ?
C11 C12 H12B 107.9 . . ?
H12A C12 H12B 107.2 . . ?
O9 C13 O11 122.8(8) . . ?
O9 C13 C14 121.1(8) . . ?
O11 C13 C14 116.0(8) . . ?
N3 C14 C13 113.0(8) . . ?
N3 C14 H14A 109.0 . . ?
C13 C14 H14A 109.0 . . ?
N3 C14 H14B 109.0 . . ?
C13 C14 H14B 109.0 . . ?
H14A C14 H14B 107.8 . . ?
O10 C15 O12 121.6(8) . . ?
O10 C15 C16 123.2(8) . . ?
O12 C15 C16 115.2(7) . . ?
N3 C16 C15 116.4(8) . . ?
N3 C16 H16A 108.2 . . ?
C15 C16 H16A 108.2 . . ?
N3 C16 H16B 108.2 . . ?
C15 C16 H16B 108.2 . . ?
H16A C16 H16B 107.3 . . ?
N8 C17 N7 125.4(7) . . ?
N8 C17 N1 116.5(7) . . ?
N7 C17 N1 118.0(7) . . ?
N7 C18 N9 126.2(7) . . ?
N7 C18 N2 115.2(7) . . ?
N9 C18 N2 118.6(8) . . ?
N5 C19 N8 118.2(7) . . ?
N5 C19 N9 117.9(7) . . ?
N8 C19 N9 124.0(7) . . ?
N11 C20 N12 126.8(8) . . ?
N11 C20 N4 117.3(8) . . ?
N12 C20 N4 115.9(8) . . ?
N11 C21 N10 125.5(8) . . ?
N11 C21 N3 117.8(7) . . ?
N10 C21 N3 116.7(7) . . ?
N10 C22 N12 125.2(8) . . ?
N10 C22 N6 116.9(7) . . ?
N12 C22 N6 117.9(8) . . ?
N5 C23 C25 109.4(8) . . ?
N5 C23 H23A 109.8 . . ?
C25 C23 H23A 109.8 . . ?
N5 C23 H23B 109.8 . . ?
C25 C23 H23B 109.8 . . ?
H23A C23 H23B 108.2 . . ?
N5 C24 C26 110.1(7) . . ?
N5 C24 H24A 109.6 . . ?
C26 C24 H24A 109.6 . . ?
N5 C24 H24B 109.6 . . ?
C26 C24 H24B 109.6 . . ?
H24A C24 H24B 108.2 . . ?
N6 C25 C23 111.0(8) . . ?
N6 C25 H25A 109.4 . . ?
C23 C25 H25A 109.4 . . ?
N6 C25 H25B 109.4 . . ?
C23 C25 H25B 109.4 . . ?
H25A C25 H25B 108.0 . . ?
N6 C26 C24 112.6(7) . . ?
N6 C26 H26A 109.1 . . ?
C24 C26 H26A 109.1 . . ?
N6 C26 H26B 109.1 . . ?
C24 C26 H26B 109.1 . . ?
H26A C26 H26B 107.8 . . ?
N13 C27 C30 122.9(8) . . ?
N13 C27 H27A 118.5 . . ?
C30 C27 H27A 118.5 . . ?
N13 C28 C29 122.9(9) . . ?
N13 C28 H28A 118.5 . . ?
C29 C28 H28A 118.5 . . ?
C28 C29 C31 118.9(9) . . ?
C28 C29 H29A 120.5 . . ?
C31 C29 H29A 120.5 . . ?
C27 C30 C31 119.2(8) . . ?
C27 C30 H30A 120.4 . . ?
C31 C30 H30A 120.4 . . ?
C30 C31 C29 117.7(8) . . ?
C30 C31 C44 121.4(8) . . ?
C29 C31 C44 120.9(9) . . ?
N14 C32 C34 124.1(11) . . ?
N14 C32 H32A 117.9 . . ?
C34 C32 H32A 117.9 . . ?
C36 C33 C35 119.1(10) . . ?
C36 C33 H33A 120.4 . . ?
C35 C33 H33A 120.4 . . ?
C32 C34 C36 118.5(11) . . ?
C32 C34 H34A 120.7 . . ?
C36 C34 H34A 120.7 . . ?
N14 C35 C33 123.5(11) . . ?
N14 C35 H35A 118.2 . . ?
C33 C35 H35A 118.2 . . ?
C33 C36 C34 117.5(10) . . ?
C33 C36 C43 121.4(9) . . ?
C34 C36 C43 121.1(9) . . ?
C39 C37 C41 117.9(8) . . ?
C39 C37 H37A 121.1 . . ?
C41 C37 H37A 121.1 . . ?
C41 C38 C40 118.5(8) . . ?
C41 C38 H38A 120.8 . . ?
C40 C38 H38A 120.8 . . ?
N15 C39 C37 122.5(8) . . ?
N15 C39 H39A 118.8 . . ?
C37 C39 H39A 118.8 . . ?
N15 C40 C38 122.3(8) . . ?
N15 C40 H40A 118.9 . . ?
C38 C40 H40A 118.9 . . ?
C38 C41 C37 119.8(8) . . ?
C38 C41 C42 119.1(8) . . ?
C37 C41 C42 121.0(8) . . ?
N16 C42 N17 126.0(8) . . ?
N16 C42 C41 116.6(8) . . ?
N17 C42 C41 117.4(8) . . ?
N16 C43 N18 123.8(8) . . ?
N16 C43 C36 117.7(8) . . ?
N18 C43 C36 118.4(8) . . ?
N18 C44 N17 124.4(8) . . ?
N18 C44 C31 117.9(8) . . ?
N17 C44 C31 117.6(8) . . ?
N19 C45 C47 123.7(11) . . ?
N19 C45 H45A 118.1 . . ?
C47 C45 H45A 118.1 . . ?
N19 C46 C48 124.0(10) . . ?
N19 C46 H46A 118.0 . . ?
C48 C46 H46A 118.0 . . ?
C45 C47 C49 118.9(11) . . ?
C45 C47 H47A 120.5 . . ?
C49 C47 H47A 120.5 . . ?
C46 C48 C49 119.3(10) . . ?
C46 C48 H48A 120.4 . . ?
C49 C48 H48A 120.4 . . ?
C47 C49 C48 118.2(10) . . ?
C47 C49 C62 120.4(9) . . ?
C48 C49 C62 121.5(9) . . ?
C52 C50 C53 118.8(9) . . ?
C52 C50 C60 121.4(8) . . ?
C53 C50 C60 119.8(9) . . ?
N20 C51 C52 123.6(9) . . ?
N20 C51 H51A 118.2 . . ?
C52 C51 H51A 118.2 . . ?
C51 C52 C50 118.4(9) . . ?
C51 C52 H52A 120.8 . . ?
C50 C52 H52A 120.8 . . ?
C54 C53 C50 117.6(9) . . ?
C54 C53 H53A 121.2 . . ?
C50 C53 H53A 121.2 . . ?
N20 C54 C53 125.3(8) . . ?
N20 C54 H54A 117.4 . . ?
C53 C54 H54A 117.4 . . ?
C59 C55 C56 117.5(9) . . ?
C59 C55 C61 121.0(9) . . ?
C56 C55 C61 121.4(8) . . ?
C58 C56 C55 119.3(10) . . ?
C58 C56 H56A 120.3 . . ?
C55 C56 H56A 120.3 . . ?
N21 C57 C59 122.1(9) . . ?
N21 C57 H57A 119.0 . . ?
C59 C57 H57A 119.0 . . ?
N21 C58 C56 122.7(10) . . ?
N21 C58 H58A 118.6 . . ?
C56 C58 H58A 118.6 . . ?
C55 C59 C57 119.7(9) . . ?
C55 C59 H59A 120.1 . . ?
C57 C59 H59A 120.1 . . ?
N23 C60 N24 125.5(8) . . ?
N23 C60 C50 117.7(8) . . ?
N24 C60 C50 116.8(8) . . ?
N24 C61 N22 125.9(8) . . ?
N24 C61 C55 119.1(8) . . ?
N22 C61 C55 115.0(8) . . ?
N23 C62 N22 125.6(8) . . ?
N23 C62 C49 118.6(8) . . ?
N22 C62 C49 115.8(8) . . ?
C17 N1 C2 118.3(7) . . ?
C17 N1 C4 119.9(6) . . ?
C2 N1 C4 117.7(7) . . ?
C18 N2 C8 119.7(7) . . ?
C18 N2 C6 116.6(7) . . ?
C8 N2 C6 117.6(7) . . ?
C21 N3 C16 121.3(7) . . ?
C21 N3 C14 118.8(7) . . ?
C16 N3 C14 118.9(7) . . ?
C20 N4 C12 122.4(8) . . ?
C20 N4 C10 121.0(8) . . ?
C12 N4 C10 116.5(8) . . ?
C19 N5 C23 120.4(7) . . ?
C19 N5 C24 122.9(7) . . ?
C23 N5 C24 113.7(7) . . ?
C22 N6 C26 122.8(7) . . ?
C22 N6 C25 121.8(7) . . ?
C26 N6 C25 113.9(7) . . ?
C17 N7 C18 114.8(7) . . ?
C17 N8 C19 115.6(7) . . ?
C18 N9 C19 113.8(7) . . ?
C21 N10 C22 114.6(7) . . ?
C20 N11 C21 114.2(7) . . ?
C20 N12 C22 113.4(7) . . ?
C27 N13 C28 118.3(8) . . ?
C27 N13 Zn1 122.7(6) . . ?
C28 N13 Zn1 118.4(6) . . ?
C32 N14 C35 117.3(9) . . ?
C40 N15 C39 119.0(7) . . ?
C40 N15 Zn2 121.2(6) . 1_554 ?
C39 N15 Zn2 119.8(6) . 1_554 ?
C42 N16 C43 116.1(8) . . ?
C42 N17 C44 114.3(8) . . ?
C44 N18 C43 115.3(7) . . ?
C45 N19 C46 115.9(9) . . ?
C51 N20 C54 116.2(8) . . ?
C51 N20 Zn3 121.1(6) . 1_554 ?
C54 N20 Zn3 122.3(6) . 1_554 ?
C58 N21 C57 118.4(8) . . ?
C58 N21 Zn4 117.8(7) . . ?
C57 N21 Zn4 123.6(7) . . ?
C62 N22 C61 113.3(8) . . ?
C60 N23 C62 114.4(8) . . ?
C61 N24 C60 115.2(8) . . ?
C1 O1 Zn1 130.9(6) . . ?
Zn3 O1W H1WA 109.2 . . ?
Zn3 O1W H1WB 109.3 . . ?
H1WA O1W H1WB 108.1 . . ?
C3 O2 Zn1 134.3(7) . . ?
Zn3 O2W H2WA 109.3 . . ?
Zn3 O2W H2WB 109.5 . . ?
H2WA O2W H2WB 110.1 . . ?
C1 O3 Zn2 108.0(6) . 1_455 ?
H3WA O3W H3WB 105.5 . . ?
H4WA O4W H4WB 108.6 . . ?
C5 O5 Zn2 122.8(5) . . ?
H5WA O5W H5WB 112.7 . . ?
C7 O6 Zn2 126.8(6) . . ?
H6WA O6W H6WB 108.8 . . ?
H7WA O7W H7WB 108.0 . . ?
H8WA O8W H8WB 104.4 . . ?
C13 O9 Zn3 138.3(6) . . ?
H9WA O9W H9WB 104.5 . . ?
C15 O10 Zn3 149.6(6) . . ?
C13 O11 Zn4 109.7(5) . 1_655 ?
C15 O12 Zn1 132.3(5) . 2_556 ?
C9 O13 Zn4 118.6(7) . . ?
C11 O14 Zn4 139.5(7) . . ?
C9 O15 Zn3 123.4(7) . 1_455 ?
loop_
_geom_bond_atom_site_label_1
_geom_bond_atom_site_label_2
_geom_bond_distance
_geom_bond_site_symmetry_2
_geom_bond_publ_flag
Zn1 O2 1.889(7) . ?
Zn1 O1 1.949(6) . ?
Zn1 O12 1.962(5) 2_546 ?
Zn1 N13 2.030(7) . ?
Zn2 O6 1.925(7) . ?
Zn2 O5 1.945(6) . ?
Zn2 O3 2.011(6) 1_655 ?
Zn2 N15 2.036(7) 1_556 ?
Zn3 O9 2.034(6) . ?
Zn3 O10 2.074(6) . ?
Zn3 O1W 2.077(6) . ?
Zn3 N20 2.114(7) 1_556 ?
Zn3 O2W 2.146(9) . ?
Zn3 O15 2.208(8) 1_655 ?
Zn4 O14 1.921(8) . ?
Zn4 O11 1.970(6) 1_455 ?
Zn4 O13 1.977(7) . ?
Zn4 N21 2.036(7) . ?
C1 O3 1.251(10) . ?
C1 O1 1.252(10) . ?
C1 C2 1.504(12) . ?
C2 N1 1.448(11) . ?
C2 H2A 0.9700 . ?
C2 H2B 0.9700 . ?
C3 O4 1.226(11) . ?
C3 O2 1.275(13) . ?
C3 C4 1.533(14) . ?
C4 N1 1.467(10) . ?
C4 H4A 0.9700 . ?
C4 H4B 0.9700 . ?
C5 O7 1.222(10) . ?
C5 O5 1.282(10) . ?
C5 C6 1.506(12) . ?
C6 N2 1.477(11) . ?
C6 H6A 0.9700 . ?
C6 H6B 0.9700 . ?
C7 O8 1.225(11) . ?
C7 O6 1.265(12) . ?
C7 C8 1.518(14) . ?
C8 N2 1.454(11) . ?
C8 H8A 0.9700 . ?
C8 H8B 0.9700 . ?
C9 O15 1.293(13) . ?
C9 O13 1.322(13) . ?
C9 C10 1.443(15) . ?
C10 N4 1.452(12) . ?
C10 H10A 0.9700 . ?
C10 H10B 0.9700 . ?
C11 O16 1.228(12) . ?
C11 O14 1.253(12) . ?
C11 C12 1.529(14) . ?
C12 N4 1.436(12) . ?
C12 H12A 0.9700 . ?
C12 H12B 0.9700 . ?
C13 O9 1.238(10) . ?
C13 O11 1.266(10) . ?
C13 C14 1.508(13) . ?
C14 N3 1.454(12) . ?
C14 H14A 0.9700 . ?
C14 H14B 0.9700 . ?
C15 O10 1.227(10) . ?
C15 O12 1.287(10) . ?
C15 C16 1.507(13) . ?
C16 N3 1.449(11) . ?
C16 H16A 0.9700 . ?
C16 H16B 0.9700 . ?
C17 N8 1.329(10) . ?
C17 N7 1.334(11) . ?
C17 N1 1.342(11) . ?
C18 N7 1.336(11) . ?
C18 N9 1.342(11) . ?
C18 N2 1.353(11) . ?
C19 N5 1.336(10) . ?
C19 N8 1.353(10) . ?
C19 N9 1.370(10) . ?
C20 N11 1.332(11) . ?
C20 N12 1.341(11) . ?
C20 N4 1.375(11) . ?
C21 N11 1.337(11) . ?
C21 N10 1.341(11) . ?
C21 N3 1.345(11) . ?
C22 N10 1.347(10) . ?
C22 N12 1.350(11) . ?
C22 N6 1.351(11) . ?
C23 N5 1.475(11) . ?
C23 C25 1.508(13) . ?
C23 H23A 0.9700 . ?
C23 H23B 0.9700 . ?
C24 N5 1.480(11) . ?
C24 C26 1.504(12) . ?
C24 H24A 0.9700 . ?
C24 H24B 0.9700 . ?
C25 N6 1.454(11) . ?
C25 H25A 0.9700 . ?
C25 H25B 0.9700 . ?
C26 N6 1.434(11) . ?
C26 H26A 0.9700 . ?
C26 H26B 0.9700 . ?
C27 N13 1.323(12) . ?
C27 C30 1.358(12) . ?
C27 H27A 0.9300 . ?
C28 N13 1.343(11) . ?
C28 C29 1.344(13) . ?
C28 H28A 0.9300 . ?
C29 C31 1.405(13) . ?
C29 H29A 0.9300 . ?
C30 C31 1.383(13) . ?
C30 H30A 0.9300 . ?
C31 C44 1.473(12) . ?
C32 N14 1.318(15) . ?
C32 C34 1.368(15) . ?
C32 H32A 0.9300 . ?
C33 C36 1.371(14) . ?
C33 C35 1.383(15) . ?
C33 H33A 0.9300 . ?
C34 C36 1.412(14) . ?
C34 H34A 0.9300 . ?
C35 N14 1.330(14) . ?
C35 H35A 0.9300 . ?
C36 C43 1.458(13) . ?
C37 C39 1.376(13) . ?
C37 C41 1.392(13) . ?
C37 H37A 0.9300 . ?
C38 C41 1.370(13) . ?
C38 C40 1.389(13) . ?
C38 H38A 0.9300 . ?
C39 N15 1.344(12) . ?
C39 H39A 0.9300 . ?
C40 N15 1.324(12) . ?
C40 H40A 0.9300 . ?
C41 C42 1.498(12) . ?
C42 N16 1.304(12) . ?
C42 N17 1.333(11) . ?
C43 N16 1.328(11) . ?
C43 N18 1.341(11) . ?
C44 N18 1.339(12) . ?
C44 N17 1.341(11) . ?
C45 N19 1.340(15) . ?
C45 C47 1.370(16) . ?
C45 H45A 0.9300 . ?
C46 N19 1.345(14) . ?
C46 C48 1.355(15) . ?
C46 H46A 0.9300 . ?
C47 C49 1.375(14) . ?
C47 H47A 0.9300 . ?
C48 C49 1.378(13) . ?
C48 H48A 0.9300 . ?
C49 C62 1.494(13) . ?
C50 C52 1.386(14) . ?
C50 C53 1.405(12) . ?
C50 C60 1.498(13) . ?
C51 N20 1.340(12) . ?
C51 C52 1.386(13) . ?
C51 H51A 0.9300 . ?
C52 H52A 0.9300 . ?
C53 C54 1.360(12) . ?
C53 H53A 0.9300 . ?
C54 N20 1.343(12) . ?
C54 H54A 0.9300 . ?
C55 C59 1.369(14) . ?
C55 C56 1.391(13) . ?
C55 C61 1.500(12) . ?
C56 C58 1.364(13) . ?
C56 H56A 0.9300 . ?
C57 N21 1.335(12) . ?
C57 C59 1.373(13) . ?
C57 H57A 0.9300 . ?
C58 N21 1.320(14) . ?
C58 H58A 0.9300 . ?
C59 H59A 0.9300 . ?
C60 N23 1.324(13) . ?
C60 N24 1.334(11) . ?
C61 N24 1.299(11) . ?
C61 N22 1.352(12) . ?
C62 N23 1.328(12) . ?
C62 N22 1.346(11) . ?
O1W H1WA 0.8501 . ?
O1W H1WB 0.8499 . ?
O2W H2WA 0.8503 . ?
O2W H2WB 0.8500 . ?
O3W H3WA 0.8503 . ?
O3W H3WB 0.8500 . ?
O4W H4WA 0.8502 . ?
O4W H4WB 0.8499 . ?
O5W H5WA 0.8500 . ?
O5W H5WB 0.8500 . ?
O6W H6WA 0.8499 . ?
O6W H6WB 0.8503 . ?
O7W H7WA 0.8499 . ?
O7W H7WB 0.8499 . ?
O8W H8WA 0.8500 . ?
O8W H8WB 0.8508 . ?
O9W H9WA 0.8501 . ?
O9W H9WB 0.8512 . ?
loop_
_geom_torsion_atom_site_label_1
_geom_torsion_atom_site_label_2
_geom_torsion_atom_site_label_3
_geom_torsion_atom_site_label_4
_geom_torsion
_geom_torsion_site_symmetry_1
_geom_torsion_site_symmetry_2
_geom_torsion_site_symmetry_3
_geom_torsion_site_symmetry_4
_geom_torsion_publ_flag
O3 C1 C2 N1 -154.6(7) . . . . ?
O1 C1 C2 N1 28.7(11) . . . . ?
O4 C3 C4 N1 -179.1(9) . . . . ?
O2 C3 C4 N1 5.0(14) . . . . ?
O7 C5 C6 N2 151.1(7) . . . . ?
O5 C5 C6 N2 -32.3(10) . . . . ?
O8 C7 C8 N2 172.2(9) . . . . ?
O6 C7 C8 N2 -10.8(13) . . . . ?
O15 C9 C10 N4 130.1(11) . . . . ?
O13 C9 C10 N4 -52.9(14) . . . . ?
O16 C11 C12 N4 -154.5(9) . . . . ?
O14 C11 C12 N4 24.7(13) . . . . ?
O9 C13 C14 N3 -22.6(11) . . . . ?
O11 C13 C14 N3 158.6(7) . . . . ?
O10 C15 C16 N3 -9.9(13) . . . . ?
O12 C15 C16 N3 171.9(7) . . . . ?
N5 C23 C25 N6 -54.5(11) . . . . ?
N5 C24 C26 N6 50.8(11) . . . . ?
N13 C28 C29 C31 -0.6(16) . . . . ?
N13 C27 C30 C31 -0.1(14) . . . . ?
C27 C30 C31 C29 0.9(14) . . . . ?
C27 C30 C31 C44 -176.7(8) . . . . ?
C28 C29 C31 C30 -0.5(15) . . . . ?
C28 C29 C31 C44 177.1(9) . . . . ?
N14 C32 C34 C36 0.5(19) . . . . ?
C36 C33 C35 N14 -0.8(17) . . . . ?
C35 C33 C36 C34 0.3(15) . . . . ?
C35 C33 C36 C43 178.6(9) . . . . ?
C32 C34 C36 C33 -0.1(16) . . . . ?
C32 C34 C36 C43 -178.4(10) . . . . ?
C41 C37 C39 N15 1.7(14) . . . . ?
C41 C38 C40 N15 -0.3(15) . . . . ?
C40 C38 C41 C37 -0.2(14) . . . . ?
C40 C38 C41 C42 176.9(8) . . . . ?
C39 C37 C41 C38 -0.5(14) . . . . ?
C39 C37 C41 C42 -177.5(8) . . . . ?
C38 C41 C42 N16 -8.6(13) . . . . ?
C37 C41 C42 N16 168.4(9) . . . . ?
C38 C41 C42 N17 170.6(9) . . . . ?
C37 C41 C42 N17 -12.4(13) . . . . ?
C33 C36 C43 N16 -1.5(14) . . . . ?
C34 C36 C43 N16 176.8(9) . . . . ?
C33 C36 C43 N18 179.3(8) . . . . ?
C34 C36 C43 N18 -2.4(14) . . . . ?
C30 C31 C44 N18 9.2(13) . . . . ?
C29 C31 C44 N18 -168.4(9) . . . . ?
C30 C31 C44 N17 -171.9(8) . . . . ?
C29 C31 C44 N17 10.6(13) . . . . ?
N19 C45 C47 C49 -0.8(18) . . . . ?
N19 C46 C48 C49 -0.6(16) . . . . ?
C45 C47 C49 C48 -0.1(15) . . . . ?
C45 C47 C49 C62 -179.7(10) . . . . ?
C46 C48 C49 C47 0.7(14) . . . . ?
C46 C48 C49 C62 -179.7(9) . . . . ?
N20 C51 C52 C50 -1.7(16) . . . . ?
C53 C50 C52 C51 1.6(15) . . . . ?
C60 C50 C52 C51 -178.3(9) . . . . ?
C52 C50 C53 C54 -0.3(13) . . . . ?
C60 C50 C53 C54 179.7(8) . . . . ?
C50 C53 C54 N20 -1.3(14) . . . . ?
C59 C55 C56 C58 -1.1(14) . . . . ?
C61 C55 C56 C58 -178.0(9) . . . . ?
C55 C56 C58 N21 3.4(16) . . . . ?
C56 C55 C59 C57 -2.0(14) . . . . ?
C61 C55 C59 C57 175.0(8) . . . . ?
N21 C57 C59 C55 3.1(15) . . . . ?
C52 C50 C60 N23 175.8(9) . . . . ?
C53 C50 C60 N23 -4.2(13) . . . . ?
C52 C50 C60 N24 -4.1(14) . . . . ?
C53 C50 C60 N24 176.0(8) . . . . ?
C59 C55 C61 N24 10.5(13) . . . . ?
C56 C55 C61 N24 -172.7(9) . . . . ?
C59 C55 C61 N22 -170.2(9) . . . . ?
C56 C55 C61 N22 6.6(13) . . . . ?
C47 C49 C62 N23 1.2(14) . . . . ?
C48 C49 C62 N23 -178.4(9) . . . . ?
C47 C49 C62 N22 -179.5(9) . . . . ?
C48 C49 C62 N22 0.9(13) . . . . ?
N8 C17 N1 C2 -7.0(11) . . . . ?
N7 C17 N1 C2 175.4(7) . . . . ?
N8 C17 N1 C4 -163.8(8) . . . . ?
N7 C17 N1 C4 18.6(12) . . . . ?
C1 C2 N1 C17 69.8(10) . . . . ?
C1 C2 N1 C4 -132.9(8) . . . . ?
C3 C4 N1 C17 -104.9(9) . . . . ?
C3 C4 N1 C2 98.1(10) . . . . ?
N7 C18 N2 C8 164.1(8) . . . . ?
N9 C18 N2 C8 -19.1(12) . . . . ?
N7 C18 N2 C6 12.3(11) . . . . ?
N9 C18 N2 C6 -170.8(7) . . . . ?
C7 C8 N2 C18 112.2(9) . . . . ?
C7 C8 N2 C6 -96.3(9) . . . . ?
C5 C6 N2 C18 -63.8(10) . . . . ?
C5 C6 N2 C8 143.9(8) . . . . ?
N11 C21 N3 C16 -14.2(13) . . . . ?
N10 C21 N3 C16 163.8(8) . . . . ?
N11 C21 N3 C14 177.3(8) . . . . ?
N10 C21 N3 C14 -4.7(12) . . . . ?
C15 C16 N3 C21 104.4(10) . . . . ?
C15 C16 N3 C14 -87.1(11) . . . . ?
C13 C14 N3 C21 -64.2(11) . . . . ?
C13 C14 N3 C16 127.0(9) . . . . ?
N11 C20 N4 C12 171.4(8) . . . . ?
N12 C20 N4 C12 -8.8(14) . . . . ?
N11 C20 N4 C10 -11.2(14) . . . . ?
N12 C20 N4 C10 168.6(9) . . . . ?
C11 C12 N4 C20 -97.1(11) . . . . ?
C11 C12 N4 C10 85.5(12) . . . . ?
C9 C10 N4 C20 100.0(12) . . . . ?
C9 C10 N4 C12 -82.5(12) . . . . ?
N8 C19 N5 C23 11.1(13) . . . . ?
N9 C19 N5 C23 -170.2(8) . . . . ?
N8 C19 N5 C24 170.3(8) . . . . ?
N9 C19 N5 C24 -10.9(13) . . . . ?
C25 C23 N5 C19 -143.6(9) . . . . ?
C25 C23 N5 C24 55.4(11) . . . . ?
C26 C24 N5 C19 146.3(9) . . . . ?
C26 C24 N5 C23 -53.2(11) . . . . ?
N10 C22 N6 C26 -3.0(13) . . . . ?
N12 C22 N6 C26 177.4(8) . . . . ?
N10 C22 N6 C25 -168.5(9) . . . . ?
N12 C22 N6 C25 12.0(14) . . . . ?
C24 C26 N6 C22 139.9(9) . . . . ?
C24 C26 N6 C25 -53.6(12) . . . . ?
C23 C25 N6 C22 -138.0(9) . . . . ?
C23 C25 N6 C26 55.3(12) . . . . ?
N8 C17 N7 C18 5.7(13) . . . . ?
N1 C17 N7 C18 -176.9(8) . . . . ?
N9 C18 N7 C17 -4.6(13) . . . . ?
N2 C18 N7 C17 172.0(7) . . . . ?
N7 C17 N8 C19 -2.5(12) . . . . ?
N1 C17 N8 C19 -179.9(7) . . . . ?
N5 C19 N8 C17 176.3(8) . . . . ?
N9 C19 N8 C17 -2.3(12) . . . . ?
N7 C18 N9 C19 0.4(12) . . . . ?
N2 C18 N9 C19 -176.0(7) . . . . ?
N5 C19 N9 C18 -175.4(8) . . . . ?
N8 C19 N9 C18 3.2(12) . . . . ?
N11 C21 N10 C22 2.9(13) . . . . ?
N3 C21 N10 C22 -174.9(8) . . . . ?
N12 C22 N10 C21 2.0(13) . . . . ?
N6 C22 N10 C21 -177.5(8) . . . . ?
N12 C20 N11 C21 1.5(13) . . . . ?
N4 C20 N11 C21 -178.8(8) . . . . ?
N10 C21 N11 C20 -4.5(13) . . . . ?
N3 C21 N11 C20 173.3(8) . . . . ?
N11 C20 N12 C22 2.6(13) . . . . ?
N4 C20 N12 C22 -177.1(8) . . . . ?
N10 C22 N12 C20 -4.5(13) . . . . ?
N6 C22 N12 C20 175.0(8) . . . . ?
C30 C27 N13 C28 -1.0(14) . . . . ?
C30 C27 N13 Zn1 169.0(7) . . . . ?
C29 C28 N13 C27 1.4(15) . . . . ?
C29 C28 N13 Zn1 -169.1(8) . . . . ?
C34 C32 N14 C35 -1.0(18) . . . . ?
C33 C35 N14 C32 1.1(17) . . . . ?
C38 C40 N15 C39 1.4(14) . . . . ?
C38 C40 N15 Zn2 -178.0(7) . . . 1_554 ?
C37 C39 N15 C40 -2.1(14) . . . . ?
C37 C39 N15 Zn2 177.3(7) . . . 1_554 ?
N17 C42 N16 C43 1.1(15) . . . . ?
C41 C42 N16 C43 -179.8(8) . . . . ?
N18 C43 N16 C42 -1.6(14) . . . . ?
C36 C43 N16 C42 179.2(9) . . . . ?
N16 C42 N17 C44 -0.4(14) . . . . ?
C41 C42 N17 C44 -179.5(7) . . . . ?
N18 C44 N17 C42 0.1(12) . . . . ?
C31 C44 N17 C42 -178.7(8) . . . . ?
N17 C44 N18 C43 -0.6(13) . . . . ?
C31 C44 N18 C43 178.3(7) . . . . ?
N16 C43 N18 C44 1.4(13) . . . . ?
C36 C43 N18 C44 -179.5(8) . . . . ?
C47 C45 N19 C46 0.9(17) . . . . ?
C48 C46 N19 C45 -0.2(16) . . . . ?
C52 C51 N20 C54 0.3(14) . . . . ?
C52 C51 N20 Zn3 173.2(8) . . . 1_554 ?
C53 C54 N20 C51 1.3(14) . . . . ?
C53 C54 N20 Zn3 -171.6(7) . . . 1_554 ?
C56 C58 N21 C57 -2.3(15) . . . . ?
C56 C58 N21 Zn4 173.7(8) . . . . ?
C59 C57 N21 C58 -1.0(14) . . . . ?
C59 C57 N21 Zn4 -176.7(7) . . . . ?
N23 C62 N22 C61 1.8(13) . . . . ?
C49 C62 N22 C61 -177.5(8) . . . . ?
N24 C61 N22 C62 0.2(13) . . . . ?
C55 C61 N22 C62 -179.0(7) . . . . ?
N24 C60 N23 C62 1.3(14) . . . . ?
C50 C60 N23 C62 -178.5(8) . . . . ?
N22 C62 N23 C60 -2.5(14) . . . . ?
C49 C62 N23 C60 176.7(8) . . . . ?
N22 C61 N24 C60 -1.3(13) . . . . ?
C55 C61 N24 C60 178.0(8) . . . . ?
N23 C60 N24 C61 0.4(14) . . . . ?
C50 C60 N24 C61 -179.7(8) . . . . ?
O3 C1 O1 Zn1 -168.8(6) . . . . ?
C2 C1 O1 Zn1 7.8(12) . . . . ?
O4 C3 O2 Zn1 173.2(8) . . . . ?
C4 C3 O2 Zn1 -11.1(16) . . . . ?
O1 Zn1 O2 C3 -28.1(12) . . . . ?
O12 Zn1 O2 C3 -153.8(10) 2_546 . . . ?
N13 Zn1 O2 C3 95.7(10) . . . . ?
O1 C1 O3 Zn2 3.2(10) . . . 1_455 ?
C2 C1 O3 Zn2 -173.5(6) . . . 1_455 ?
O7 C5 O5 Zn2 171.1(6) . . . . ?
C6 C5 O5 Zn2 -5.4(9) . . . . ?
O8 C7 O6 Zn2 -168.9(9) . . . . ?
C8 C7 O6 Zn2 14.2(13) . . . . ?
O11 C13 O9 Zn3 129.5(8) . . . . ?
C14 C13 O9 Zn3 -49.2(12) . . . . ?
O12 C15 O10 Zn3 -151.0(9) . . . . ?
C16 C15 O10 Zn3 30.9(16) . . . . ?
O9 C13 O11 Zn4 -7.3(10) . . . 1_655 ?
C14 C13 O11 Zn4 171.4(6) . . . 1_655 ?
O10 C15 O12 Zn1 -176.0(6) . . . 2_556 ?
C16 C15 O12 Zn1 2.1(11) . . . 2_556 ?
O15 C9 O13 Zn4 -101.7(11) . . . . ?
C10 C9 O13 Zn4 81.3(11) . . . . ?
O16 C11 O14 Zn4 137.7(10) . . . . ?
C12 C11 O14 Zn4 -41.5(15) . . . . ?
O13 C9 O15 Zn3 14.0(15) . . . 1_455 ?
C10 C9 O15 Zn3 -169.1(8) . . . 1_455 ?
