#------------------------------------------------------------------------------
#$Date: 2022-07-27 00:52:35 +0300 (Wed, 27 Jul 2022) $
#$Revision: 276942 $
#$URL: file:///home/coder/svn-repositories/cod/cif/7/13/04/7130402.cif $
#------------------------------------------------------------------------------
#
# This file is available in the Crystallography Open Database (COD),
# http://www.crystallography.net/
#
# All data on this site have been placed in the public domain by the
# contributors.
#
data_7130402
loop_
_publ_author_name
'Freund, Ralph'
'Kalytta-Mewes, Andreas'
'Kraft, Maryana'
'Volkmer, Dirk'
_publ_section_title
;
 Anionic or neutral? The charge of Ni8 cubes in metal-organic framework
 compounds.
;
_journal_name_full               'Chemical Communications'
_journal_paper_doi               10.1039/D2CC03016K
_journal_year                    2022
_chemical_formula_sum            'C72 H54 N24 Ni8 O6'
_chemical_formula_weight         1821.07
_space_group_crystal_system      cubic
_space_group_IT_number           225
_space_group_name_Hall           '-F 4 2 3'
_space_group_name_H-M_alt        'F m -3 m'
_atom_sites_solution_hydrogens   difmap
_audit_creation_method           SHELXL-2018/3
_audit_update_record
;
2022-05-20 deposited with the CCDC.	2022-07-26 downloaded from the CCDC.
;
_cell_angle_alpha                90
_cell_angle_beta                 90
_cell_angle_gamma                90
_cell_formula_units_Z            4
_cell_length_a                   25.4003(3)
_cell_length_b                   25.4003(3)
_cell_length_c                   25.4003(3)
_cell_measurement_reflns_used    8064
_cell_measurement_temperature    150(2)
_cell_measurement_theta_max      41.23
_cell_measurement_theta_min      2.27
_cell_volume                     16387.6(3)
_computing_cell_refinement       'SAINT V8.40A'
_computing_data_collection       'Bruker APEX3'
_computing_data_reduction        'SAINT V8.40A'
_computing_structure_refinement  'SHELXL-2018/3 (Sheldrick, 2018)'
_computing_structure_solution    'SHELXT 2014/5 (Sheldrick, 2014)'
_diffrn_ambient_temperature      150(2)
_diffrn_measured_fraction_theta_full 0.998
_diffrn_measured_fraction_theta_max 0.998
_diffrn_measurement_device_type  'Bruker D8 Venture'
_diffrn_radiation_type           MoK\a
_diffrn_radiation_wavelength     0.71073
_diffrn_reflns_av_R_equivalents  0.0271
_diffrn_reflns_av_unetI/netI     0.0155
_diffrn_reflns_Laue_measured_fraction_full 0.998
_diffrn_reflns_Laue_measured_fraction_max 0.998
_diffrn_reflns_limit_h_max       31
_diffrn_reflns_limit_h_min       -35
_diffrn_reflns_limit_k_max       23
_diffrn_reflns_limit_k_min       -35
_diffrn_reflns_limit_l_max       35
_diffrn_reflns_limit_l_min       -12
_diffrn_reflns_number            13546
_diffrn_reflns_point_group_measured_fraction_full 0.998
_diffrn_reflns_point_group_measured_fraction_max 0.998
_diffrn_reflns_theta_full        25.242
_diffrn_reflns_theta_max         29.971
_diffrn_reflns_theta_min         2.268
_diffrn_source                   'fine-focus sealed tube'
_exptl_absorpt_coefficient_mu    0.930
_exptl_absorpt_correction_T_max  0.7483
_exptl_absorpt_correction_T_min  0.6428
_exptl_absorpt_correction_type   multi-scan
_exptl_absorpt_process_details   SADABS-2016/2
_exptl_crystal_colour            green
_exptl_crystal_density_diffrn    0.738
_exptl_crystal_description       octahedral
_exptl_crystal_F_000             3704
_exptl_crystal_size_max          0.08
_exptl_crystal_size_mid          0.08
_exptl_crystal_size_min          0.075
_refine_diff_density_max         0.338
_refine_diff_density_min         -0.199
_refine_diff_density_rms         0.040
_refine_ls_extinction_method     none
_refine_ls_goodness_of_fit_ref   1.060
_refine_ls_hydrogen_treatment    refxyz
_refine_ls_matrix_type           full
_refine_ls_number_parameters     44
_refine_ls_number_reflns         1249
_refine_ls_number_restraints     2
_refine_ls_restrained_S_all      1.060
_refine_ls_R_factor_all          0.0269
_refine_ls_R_factor_gt           0.0215
_refine_ls_shift/su_max          0.000
_refine_ls_shift/su_mean         0.000
_refine_ls_structure_factor_coef Fsqd
_refine_ls_weighting_details
'w=1/[\s^2^(Fo^2^)+(0.0362P)^2^+10.7842P] where P=(Fo^2^+2Fc^2^)/3'
_refine_ls_weighting_scheme      calc
_refine_ls_wR_factor_gt          0.0582
_refine_ls_wR_factor_ref         0.0616
_reflns_Friedel_coverage         0.000
_reflns_number_gt                1089
_reflns_number_total             1249
_reflns_threshold_expression     'I > 2\s(I)'
_cod_data_source_file            d2cc03016k1.cif
_cod_data_source_block           mo_vk255_2_0m_a_sq
_cod_original_cell_volume        16387.6(6)
_cod_database_code               7130402
_shelx_shelxl_version_number     2018/3
_shelx_space_group_comment
;
The symmetry employed for this shelxl refinement is uniquely defined
by the following loop, which should always be used as a source of
symmetry information in preference to the above space-group names.
They are only intended as comments.
;
_shelx_res_file
;
TITL mo_VK255_2_0m_a.res in Fm-3m
    mo_vk255_2_0m_a_sq.res
    created by SHELXL-2018/3 at 14:17:23 on 19-May-2022
REM Old TITL mo_VK255_2_0m in Fm-3m
REM SHELXT solution in Fm-3m
REM R1 0.150,  Rweak 0.016,  Alpha 0.057,  Orientation as input
REM Formula found by SHELXT:  C24 N12 Ni4 O3
CELL  0.71073  25.4003  25.4003  25.4003   90.000   90.000   90.000
ZERR    4.000   0.0003   0.0003   0.0003    0.000    0.000    0.000
LATT  4
SYMM -X, -Y, Z
SYMM -X, Y, -Z
SYMM X, -Y, -Z
SYMM Z, X, Y
SYMM Z, -X, -Y
SYMM -Z, -X, Y
SYMM -Z, X, -Y
SYMM Y, Z, X
SYMM -Y, Z, -X
SYMM Y, -Z, -X
SYMM -Y, -Z, X
SYMM Y, X, -Z
SYMM -Y, -X, -Z
SYMM Y, -X, Z
SYMM -Y, X, Z
SYMM X, Z, -Y
SYMM -X, Z, Y
SYMM -X, -Z, -Y
SYMM X, -Z, Y
SYMM Z, Y, -X
SYMM Z, -Y, X
SYMM -Z, Y, X
SYMM -Z, -Y, -X
SFAC C H N NI O
UNIT 288 216 96 32 24
LIST 4
TEMP -123.150
L.S. 5 0    4
BOND $H
FMAP 2
PLAN 20
ABIN
ACTA
DFIX 0.82 O1 H1
DFIX 0.93 C1 H3
omit -1 60
WGHT    0.036200   10.784200
FVAR       0.10751
NI1   4    0.441283    0.441283    0.441283    10.16667    0.00866    0.00866 =
         0.00866   -0.00084   -0.00084   -0.00084
rem 50% C1
PART -1
C1    1    0.256727    0.281865    0.542954    10.50000    0.05678    0.05420 =
         0.03129   -0.01900    0.01629   -0.04615
H3    2    0.263364    0.301291    0.574047    10.50000    0.06828
PART 0
O1    5    0.500000    0.421078    0.500000    10.12500    0.01047    0.00778 =
         0.01047    0.00000    0.00000    0.00000
H1    2    0.500000    0.390018    0.500000    10.12500    0.04025
N1    3    0.389942    0.389942    0.473353    10.50000    0.01754    0.01754 =
         0.01520   -0.00043   -0.00043   -0.00668
C2    1    0.354459    0.354459    0.456952    10.50000    0.02781    0.02781 =
         0.01942   -0.00130   -0.00130   -0.01748
H2    2    0.349129    0.349129    0.420755    10.50000   -1.20000
C3    1    0.330286    0.330286    0.500000    10.25000    0.02716    0.02716 =
         0.02221    0.00000    0.00000   -0.01740
C4    1    0.289510    0.289510    0.500000    10.25000    0.03500    0.03500 =
         0.02550    0.00000    0.00000   -0.02512
HKLF 4




REM  mo_VK255_2_0m_a.res in Fm-3m
REM wR2 = 0.061625, GooF = S = 1.05962, Restrained GooF = 1.06004 for all data
REM R1 = 0.021459 for 1089 Fo > 4sig(Fo) and 0.026914 for all 1249 data
REM 44 parameters refined using 2 restraints

END

WGHT      0.0362     10.7778

REM Highest difference peak  0.338,  deepest hole -0.199,  1-sigma level  0.040
Q1    1   0.3405  0.3405  0.5229  10.50000  0.05    0.34
Q2    1   0.4239  0.4239  0.4239  10.16667  0.05    0.33
Q3    1   0.3902  0.3902  0.5000  10.25000  0.05    0.32
Q4    1   0.4583  0.4583  0.4583  10.16667  0.05    0.30
Q5    1   0.4098  0.4098  0.4551  10.50000  0.05    0.28
Q6    1   0.4555  0.4555  0.4146  10.50000  0.05    0.28
Q7    1   0.4231  0.4231  0.4668  10.50000  0.05    0.27
Q8    1   0.2500  0.2500  0.5458  10.25000  0.05    0.26
Q9    1   0.3088  0.3088  0.5000  10.25000  0.05    0.26
Q10   1   0.2809  0.2809  0.4772  10.50000  0.05    0.25
Q11   1   0.3743  0.3743  0.4646  10.50000  0.05    0.23
Q12   1   0.4683  0.4223  0.4390  11.00000  0.05    0.20
Q13   1   0.5271  0.4306  0.5271  10.50000  0.05    0.18
Q14   1   0.2432  0.3192  0.5708  11.00000  0.05    0.12
Q15   1   0.2796  0.2796  0.5723  10.50000  0.05    0.12
Q16   1   0.5000  0.2413  0.5000  10.12500  0.05    0.12
Q17   1   0.5000  0.4381  0.5267  10.50000  0.05    0.10
Q18   1   0.3557  0.3257  0.4142  11.00000  0.05    0.09
Q19   1   0.2500  0.2500  0.7500  10.04167  0.05    0.08
Q20   1   0.3244  0.3675  0.4205  11.00000  0.05    0.08
;
_shelx_res_checksum              56422
_shelx_fab_file
;
    0    2    2   -105.70      0.00
    2    2    2   -406.61      0.00
    1    1    3    -63.54      0.00
    1    3    3     14.85      0.00
    3    3    3    -19.57      0.00
    0    0    4    213.17      0.00
    0    2    4     98.20      0.00
    2    2    4    -49.84      0.00
    0    4    4    228.97      0.00
    2    4    4     49.51      0.00
    4    4    4    102.10      0.00
    1    1    5     11.84      0.00
    1    3    5     35.35      0.00
    3    3    5      2.18      0.00
    1    5    5    -28.38      0.00
    3    5    5    -24.45      0.00
    5    5    5    -22.46      0.00
    0    0    6     28.58      0.00
    0    2    6    -37.64      0.00
    0    4    6     25.01      0.00
    2    2    6    -90.59      0.00
    2    4    6    -37.20      0.00
    4    4    6     18.08      0.00
    0    6    6     -0.34      0.00
    2    6    6    -54.99      0.00
    4    6    6     -8.62      0.00
    6    6    6    -29.77      0.00
    1    1    7    -12.74      0.00
    1    3    7     10.24      0.00
    1    5    7     -0.52      0.00
    3    3    7     24.90      0.00
    3    5    7      4.12      0.00
    5    5    7      1.16      0.00
    1    7    7     50.80      0.00
    3    7    7     32.07      0.00
    5    7    7     10.46      0.00
    7    7    7     -4.39      0.00
    0    0    8     23.47      0.00
    0    2    8     13.74      0.00
    0    4    8     30.41      0.00
    0    6    8     29.69      0.00
    2    2    8     -7.13      0.00
    2    4    8      9.82      0.00
    2    6    8     -2.23      0.00
    4    4    8     28.43      0.00
    4    6    8     13.18      0.00
    6    6    8     -6.82      0.00
    0    8    8     39.99      0.00
    2    8    8      5.02      0.00
    4    8    8     20.62      0.00
    6    8    8     -1.05      0.00
    8    8    8      5.01      0.00
    1    1    9     -8.89      0.00
    1    3    9     -3.36      0.00
    1    5    9    -19.74      0.00
    1    7    9      4.77      0.00
    3    3    9      2.80      0.00
    3    5    9    -14.42      0.00
    3    7    9     -1.21      0.00
    5    5    9     -9.34      0.00
    5    7    9      1.67      0.00
    7    7    9     -5.63      0.00
    1    9    9     -8.96      0.00
    3    9    9    -10.35      0.00
    5    9    9      2.52      0.00
    7    9    9      2.39      0.00
    9    9    9     12.38      0.00
    0    0   10      9.20      0.00
    0    2   10     -3.96      0.00
    0    4   10      2.98      0.00
    0    6   10      0.41      0.00
    0    8   10      9.80      0.00
    2    2   10     -3.71      0.00
    2    4   10     -5.84      0.00
    2    6   10    -14.92      0.00
    2    8   10     -9.69      0.00
    4    4   10      1.85      0.00
    4    6   10      0.01      0.00
    4    8   10      5.40      0.00
    6    6   10     -9.93      0.00
    6    8   10     -4.08      0.00
    8    8   10      2.64      0.00
    0   10   10     12.68      0.00
    2   10   10    -14.73      0.00
    4   10   10      1.11      0.00
    6   10   10     -5.24      0.00
    8   10   10     -2.30      0.00
   10   10   10     -3.27      0.00
    1    1   11     -0.66      0.00
    1    3   11      1.29      0.00
    1    5   11      2.28      0.00
    1    7   11      4.32      0.00
    1    9   11      4.01      0.00
    3    3   11      1.35      0.00
    3    5   11     -0.39      0.00
    3    7   11     -1.01      0.00
    3    9   11     -1.38      0.00
    5    5   11      1.35      0.00
    5    7   11     -1.14      0.00
    5    9   11      2.77      0.00
    7    7   11     -9.29      0.00
    7    9   11     -4.17      0.00
    9    9   11      1.34      0.00
    1   11   11     -5.60      0.00
    3   11   11    -10.05      0.00
    5   11   11     -4.84      0.00
    7   11   11     -9.78      0.00
    9   11   11     -4.37      0.00
   11   11   11     -1.61      0.00
    0    0   12     -4.32      0.00
    0    2   12     -3.74      0.00
    0    4   12      0.41      0.00
    0    6   12      3.06      0.00
    0    8   12     11.58      0.00
    0   10   12      2.89      0.00
    2    2   12    -15.30      0.00
    2    4   12     -4.70      0.00
    2    6   12     -7.64      0.00
    2    8   12     -4.58      0.00
    2   10   12     -4.75      0.00
    4    4   12      0.74      0.00
    4    6   12      0.76      0.00
    4    8   12      6.88      0.00
    4   10   12      4.18      0.00
    6    6   12     -4.11      0.00
    6    8   12      1.31      0.00
    6   10   12     -3.41      0.00
    8    8   12      5.31      0.00
    8   10   12      1.99      0.00
   10   10   12     -1.65      0.00
    0   12   12      6.60      0.00
    2   12   12     -4.66      0.00
    4   12   12      3.50      0.00
    6   12   12     -0.47      0.00
    8   12   12      2.33      0.00
   10   12   12      5.30      0.00
   12   12   12      7.70      0.00
    1    1   13      9.20      0.00
    1    3   13      0.29      0.00
    1    5   13      5.83      0.00
    1    7   13     -0.70      0.00
    1    9   13      9.91      0.00
    1   11   13     -1.41      0.00
    3    3   13     -2.24      0.00
    3    5   13      4.41      0.00
    3    7   13     -1.47      0.00
    3    9   13      8.09      0.00
    3   11   13     -0.94      0.00
    5    5   13     11.42      0.00
    5    7   13      6.38      0.00
    5    9   13     11.45      0.00
    5   11   13     -0.37      0.00
    7    7   13      4.27      0.00
    7    9   13      6.92      0.00
    7   11   13      0.61      0.00
    9    9   13      6.69      0.00
    9   11   13      2.61      0.00
   11   11   13      3.87      0.00
    1   13   13     12.15      0.00
    3   13   13     11.55      0.00
    5   13   13      5.50      0.00
    7   13   13      3.73      0.00
    9   13   13      0.46      0.00
   11   13   13      2.11      0.00
   13   13   13     12.37      0.00
    0    0   14     29.75      0.00
    0    2   14     14.17      0.00
    0    4   14     12.71      0.00
    0    6   14      6.86      0.00
    0    8   14      4.56      0.00
    0   10   14      1.76      0.00
    0   12   14      3.06      0.00
    2    2   14      3.39      0.00
    2    4   14      4.75      0.00
    2    6   14     -1.63      0.00
    2    8   14      1.63      0.00
    2   10   14     -2.55      0.00
    2   12   14      1.61      0.00
    4    4   14     13.49      0.00
    4    6   14      5.50      0.00
    4    8   14      8.37      0.00
    4   10   14      0.83      0.00
    4   12   14      1.58      0.00
    6    6   14      1.15      0.00
    6    8   14      3.08      0.00
    6   10   14     -3.37      0.00
    6   12   14     -2.10      0.00
    8    8   14      5.39      0.00
    8   10   14     -0.13      0.00
    8   12   14      1.33      0.00
   10   10   14     -3.46      0.00
   10   12   14     -3.18      0.00
   12   12   14      3.76      0.00
    0   14   14      4.43      0.00
    2   14   14     -1.56      0.00
    4   14   14     -0.63      0.00
    6   14   14     -2.21      0.00
    8   14   14     -1.45      0.00
   10   14   14     -3.71      0.00
   12   14   14      0.98      0.00
   14   14   14     10.32      0.00
    1    1   15      1.13      0.00
    1    3   15     -3.56      0.00
    1    5   15     -1.05      0.00
    1    7   15     -9.65      0.00
    1    9   15     -0.95      0.00
    1   11   15     -9.23      0.00
    1   13   15      2.21      0.00
    3    3   15     -8.90      0.00
    3    5   15     -3.43      0.00
    3    7   15     -8.43      0.00
    3    9   15     -0.34      0.00
    3   11   15     -8.08      0.00
    3   13   15      0.89      0.00
    5    5   15     -0.42      0.00
    5    7   15     -4.11      0.00
    5    9   15     -0.84      0.00
    5   11   15     -7.27      0.00
    5   13   15     -0.96      0.00
    7    7   15     -6.42      0.00
    7    9   15      0.13      0.00
    7   11   15     -1.77      0.00
    7   13   15     -0.60      0.00
    9    9   15     -3.86      0.00
    9   11   15     -3.12      0.00
    9   13   15     -1.01      0.00
   11   11   15     -2.83      0.00
   11   13   15     -2.29      0.00
   13   13   15      1.90      0.00
    1   15   15     -4.90      0.00
    3   15   15     -3.71      0.00
    5   15   15     -7.88      0.00
    7   15   15     -3.56      0.00
    9   15   15     -2.14      0.00
   11   15   15     -2.69      0.00
   13   15   15      2.00      0.00
   15   15   15      2.14      0.00
    0    0   16     -1.92      0.00
    0    2   16     -8.92      0.00
    0    4   16      0.15      0.00
    0    6   16     -4.92      0.00
    0    8   16     -3.18      0.00
    0   10   16     -1.20      0.00
    0   12   16      2.15      0.00
    0   14   16      1.36      0.00
    2    2   16    -12.89      0.00
    2    4   16     -8.57      0.00
    2    6   16     -7.36      0.00
    2    8   16     -1.71      0.00
    2   10   16     -2.52      0.00
    2   12   16      2.23      0.00
    2   14   16     -0.19      0.00
    4    4   16     -0.11      0.00
    4    6   16     -3.57      0.00
    4    8   16      2.31      0.00
    4   10   16     -1.37      0.00
    4   12   16      2.90      0.00
    4   14   16      1.36      0.00
    6    6   16     -8.06      0.00
    6    8   16     -0.72      0.00
    6   10   16     -1.06      0.00
    6   12   16      1.44      0.00
    6   14   16     -0.36      0.00
    8    8   16      8.51      0.00
    8   10   16      2.61      0.00
    8   12   16      4.00      0.00
    8   14   16     -0.05      0.00
   10   10   16     -1.85      0.00
   10   12   16      1.27      0.00
   10   14   16      3.17      0.00
   12   12   16     -1.22      0.00
   12   14   16      0.42      0.00
   14   14   16      2.59      0.00
    0   16   16      6.71      0.00
    2   16   16      1.87      0.00
    4   16   16     -1.91      0.00
    6   16   16      2.52      0.00
    8   16   16     -0.57      0.00
   10   16   16     -0.45      0.00
   12   16   16     -0.38      0.00
   14   16   16     -0.69      0.00
   16   16   16     -0.66      0.00
    1    1   17      2.51      0.00
    1    3   17      3.08      0.00
    1    5   17      4.08      0.00
    1    7   17      1.84      0.00
    1    9   17      6.51      0.00
    1   11   17      0.96      0.00
    1   13   17      5.23      0.00
    1   15   17      1.18      0.00
    3    3   17      3.75      0.00
    3    5   17      2.32      0.00
    3    7   17      2.78      0.00
    3    9   17      4.26      0.00
    3   11   17      1.46      0.00
    3   13   17      8.04      0.00
    3   15   17      0.22      0.00
    5    5   17      5.36      0.00
    5    7   17      2.36      0.00
    5    9   17      4.82      0.00
    5   11   17      2.10      0.00
    5   13   17      3.09      0.00
    5   15   17      0.56      0.00
    7    7   17      5.39      0.00
    7    9   17      3.98      0.00
    7   11   17      3.90      0.00
    7   13   17      5.15      0.00
    7   15   17      0.67      0.00
    9    9   17      3.15      0.00
    9   11   17      3.95      0.00
    9   13   17      2.72      0.00
    9   15   17      0.88      0.00
   11   11   17      2.69      0.00
   11   13   17      3.21      0.00
   11   15   17      0.64      0.00
   13   13   17      1.48      0.00
   13   15   17      2.54      0.00
   15   15   17     -0.19      0.00
    1   17   17      3.76      0.00
    3   17   17      5.20      0.00
    5   17   17      2.84      0.00
    7   17   17      3.21      0.00
    9   17   17      4.27      0.00
   11   17   17      1.23      0.00
   13   17   17      1.49      0.00
   15   17   17      0.47      0.00
   17   17   17      1.40      0.00
    0    0   18      8.56      0.00
    0    2   18      4.85      0.00
    0    4   18      6.33      0.00
    0    6   18     -0.46      0.00
    0    8   18     -0.82      0.00
    0   10   18     -2.69      0.00
    0   12   18     -0.82      0.00
    0   14   18     -3.17      0.00
    0   16   18      1.01      0.00
    2    2   18      1.19      0.00
    2    4   18      3.67      0.00
    2    6   18     -1.78      0.00
    2    8   18     -1.38      0.00
    2   10   18     -3.59      0.00
    2   12   18     -1.00      0.00
    2   14   18     -0.35      0.00
    2   16   18     -0.77      0.00
    4    4   18      1.00      0.00
    4    6   18      1.15      0.00
    4    8   18      4.63      0.00
    4   10   18     -1.51      0.00
    4   12   18      0.78      0.00
    4   14   18     -2.03      0.00
    4   16   18      1.55      0.00
    6    6   18     -3.09      0.00
    6    8   18      1.51      0.00
    6   10   18     -3.81      0.00
    6   12   18     -1.55      0.00
    6   14   18      0.01      0.00
    6   16   18     -0.07      0.00
    8    8   18      2.81      0.00
    8   10   18      0.44      0.00
    8   12   18      0.69      0.00
    8   14   18      0.35      0.00
    8   16   18     -1.69      0.00
   10   10   18     -0.37      0.00
   10   12   18      0.30      0.00
   10   14   18     -0.28      0.00
   10   16   18     -0.02      0.00
   12   12   18     -1.58      0.00
   12   14   18      1.64      0.00
   12   16   18      0.92      0.00
   14   14   18      2.35      0.00
   14   16   18     -0.19      0.00
   16   16   18     -0.35      0.00
    0   18   18      3.26      0.00
    2   18   18     -1.76      0.00
    4   18   18     -1.11      0.00
    6   18   18      1.91      0.00
    8   18   18     -2.38      0.00
   10   18   18     -0.50      0.00
   12   18   18      0.60      0.00
   14   18   18      1.57      0.00
   16   18   18      2.81      0.00
   18   18   18     -0.21      0.00
    1    1   19     -6.53      0.00
    1    3   19     -1.91      0.00
    1    5   19     -4.59      0.00
    1    7   19     -4.49      0.00
    1    9   19     -4.49      0.00
    1   11   19     -6.48      0.00
    1   13   19     -1.03      0.00
    1   15   19     -4.54      0.00
    1   17   19      0.41      0.00
    3    3   19     -2.99      0.00
    3    5   19     -6.25      0.00
    3    7   19     -3.24      0.00
    3    9   19     -3.89      0.00
    3   11   19     -4.70      0.00
    3   13   19     -0.78      0.00
    3   15   19     -1.74      0.00
    3   17   19     -0.47      0.00
    5    5   19     -7.75      0.00
    5    7   19      1.56      0.00
    5    9   19     -3.19      0.00
    5   11   19     -3.88      0.00
    5   13   19     -2.94      0.00
    5   15   19     -3.53      0.00
    5   17   19      1.05      0.00
    7    7   19     -3.58      0.00
    7    9   19     -3.64      0.00
    7   11   19     -1.73      0.00
    7   13   19     -1.64      0.00
    7   15   19     -2.21      0.00
    7   17   19      0.02      0.00
    9    9   19     -3.61      0.00
    9   11   19     -2.52      0.00
    9   13   19     -0.23      0.00
    9   15   19     -1.94      0.00
    9   17   19      0.07      0.00
   11   11   19      1.08      0.00
   11   13   19     -3.68      0.00
   11   15   19     -1.29      0.00
   11   17   19      0.68      0.00
   13   13   19      0.98      0.00
   13   15   19     -0.79      0.00
   13   17   19      0.00      0.00
   15   15   19     -2.32      0.00
   15   17   19      0.44      0.00
   17   17   19     -1.42      0.00
    1   19   19     -1.44      0.00
    3   19   19     -2.99      0.00
    5   19   19     -2.59      0.00
    7   19   19     -1.97      0.00
    9   19   19     -1.31      0.00
   11   19   19     -2.53      0.00
   13   19   19     -2.15      0.00
   15   19   19     -0.77      0.00
   17   19   19     -0.53      0.00
   19   19   19     -5.83      0.00
    0    0   20     -2.27      0.00
    0    2   20     -1.86      0.00
    0    4   20      1.16      0.00
    0    6   20      1.68      0.00
    0    8   20      5.20      0.00
    0   10   20      1.52      0.00
    0   12   20      3.67      0.00
    0   14   20      2.63      0.00
    0   16   20      1.98      0.00
    0   18   20     -0.10      0.00
    2    2   20     -1.25      0.00
    2    4   20      0.84      0.00
    2    6   20     -0.35      0.00
    2    8   20      3.81      0.00
    2   10   20      0.76      0.00
    2   12   20      1.93      0.00
    2   14   20      0.19      0.00
    2   16   20      1.04      0.00
    2   18   20     -2.20      0.00
    4    4   20     -0.27      0.00
    4    6   20      2.75      0.00
    4    8   20      3.68      0.00
    4   10   20      2.14      0.00
    4   12   20      2.51      0.00
    4   14   20      1.99      0.00
    4   16   20      0.08      0.00
    4   18   20     -0.65      0.00
    6    6   20     -0.72      0.00
    6    8   20     -0.31      0.00
    6   10   20     -2.54      0.00
    6   12   20      0.28      0.00
    6   14   20      0.03      0.00
    6   16   20      1.56      0.00
    6   18   20     -0.43      0.00
    8    8   20      0.79      0.00
    8   10   20      0.58      0.00
    8   12   20      1.62      0.00
    8   14   20      2.33      0.00
    8   16   20      1.01      0.00
    8   18   20      1.07      0.00
   10   10   20      0.12      0.00
   10   12   20     -0.64      0.00
   10   14   20      0.89      0.00
   10   16   20      1.45      0.00
   10   18   20      1.62      0.00
   12   12   20     -0.33      0.00
   12   14   20      0.53      0.00
   12   16   20      0.49      0.00
   12   18   20      0.07      0.00
   14   14   20     -1.01      0.00
   14   16   20     -0.85      0.00
   14   18   20     -0.45      0.00
   16   16   20     -2.54      0.00
   16   18   20      0.47      0.00
   18   18   20     -1.01      0.00
    0   20   20      0.66      0.00
    2   20   20     -0.46      0.00
    4   20   20     -0.07      0.00
    6   20   20      0.43      0.00
    8   20   20      0.74      0.00
   10   20   20      0.42      0.00
   12   20   20      1.06      0.00
   14   20   20     -1.91      0.00
   16   20   20     -1.40      0.00
   18   20   20     -1.88      0.00
   20   20   20      3.02      0.00
    1    1   21      6.88      0.00
    1    3   21      7.29      0.00
    1    5   21      2.22      0.00
    1    7   21      8.13      0.00
    1    9   21      6.20      0.00
    1   11   21      3.67      0.00
    1   13   21      4.97      0.00
    1   15   21      1.43      0.00
    1   17   21      2.44      0.00
    1   19   21     -2.70      0.00
    3    3   21      7.94      0.00
    3    5   21      5.56      0.00
    3    7   21      7.83      0.00
    3    9   21      4.34      0.00
    3   11   21      4.68      0.00
    3   13   21      3.09      0.00
    3   15   21      1.44      0.00
    3   17   21     -1.25      0.00
    3   19   21     -0.60      0.00
    5    5   21      6.57      0.00
    5    7   21      4.35      0.00
    5    9   21      1.85      0.00
    5   11   21      2.76      0.00
    5   13   21      4.10      0.00
    5   15   21     -0.23      0.00
    5   17   21      1.25      0.00
    5   19   21     -0.87      0.00
    7    7   21      4.11      0.00
    7    9   21      2.25      0.00
    7   11   21      2.23      0.00
    7   13   21      2.65      0.00
    7   15   21      0.76      0.00
    7   17   21      0.50      0.00
    7   19   21     -0.01      0.00
    9    9   21      1.11      0.00
    9   11   21      2.97      0.00
    9   13   21      1.31      0.00
    9   15   21      0.83      0.00
    9   17   21      1.41      0.00
    9   19   21     -0.02      0.00
   11   11   21     -0.75      0.00
   11   13   21      2.05      0.00
   11   15   21      0.05      0.00
   11   17   21      2.70      0.00
   11   19   21      1.15      0.00
   13   13   21      0.93      0.00
   13   15   21      0.46      0.00
   13   17   21      0.93      0.00
   13   19   21     -2.01      0.00
   15   15   21     -0.63      0.00
   15   17   21      2.67      0.00
   15   19   21      0.45      0.00
   17   17   21      3.00      0.00
   17   19   21      0.56      0.00
   19   19   21     -0.87      0.00
    1   21   21     -0.46      0.00
    3   21   21      5.25      0.00
    5   21   21     -1.31      0.00
    7   21   21     -2.20      0.00
    9   21   21     -1.33      0.00
   11   21   21     -0.52      0.00
   13   21   21      2.47      0.00
   15   21   21     -1.43      0.00
   17   21   21      3.17      0.00
   19   21   21      5.95      0.00
   21   21   21      0.92      0.00
    0    0   22      1.04      0.00
    0    2   22      3.03      0.00
    0    4   22     -2.82      0.00
    0    6   22     -2.65      0.00
    0    8   22      1.52      0.00
    0   10   22     -1.87      0.00
    0   12   22      0.53      0.00
    0   14   22      0.24      0.00
    0   16   22      0.04      0.00
    0   18   22     -1.87      0.00
    0   20   22     -6.55      0.00
    2    2   22      1.23      0.00
    2    4   22     -1.23      0.00
    2    6   22     -1.25      0.00
    2    8   22     -0.29      0.00
    2   10   22     -2.00      0.00
    2   12   22     -2.14      0.00
    2   14   22     -2.98      0.00
    2   16   22     -0.24      0.00
    2   18   22     -1.96      0.00
    2   20   22      3.74      0.00
    4    4   22      3.13      0.00
    4    6   22     -0.80      0.00
    4    8   22     -0.28      0.00
    4   10   22      1.08      0.00
    4   12   22      1.55      0.00
    4   14   22     -0.02      0.00
    4   16   22      0.35      0.00
    4   18   22     -0.84      0.00
    4   20   22      2.67      0.00
    6    6   22      1.90      0.00
    6    8   22     -0.08      0.00
    6   10   22     -2.06      0.00
    6   12   22     -1.81      0.00
    6   14   22      1.01      0.00
    6   16   22     -1.03      0.00
    6   18   22     -0.62      0.00
    6   20   22     -2.80      0.00
    8    8   22      1.47      0.00
    8   10   22      0.11      0.00
    8   12   22      1.80      0.00
    8   14   22     -0.55      0.00
    8   16   22     -0.25      0.00
    8   18   22     -1.97      0.00
    8   20   22      0.03      0.00
   10   10   22     -1.59      0.00
   10   12   22      0.55      0.00
   10   14   22     -1.12      0.00
   10   16   22     -0.45      0.00
   10   18   22     -0.03      0.00
   10   20   22     -1.78      0.00
   12   12   22      0.35      0.00
   12   14   22      1.46      0.00
   12   16   22     -1.67      0.00
   12   18   22     -0.91      0.00
   12   20   22     -1.46      0.00
   14   14   22      1.05      0.00
   14   16   22     -0.80      0.00
   14   18   22      0.36      0.00
   14   20   22     -1.46      0.00
   16   16   22      1.40      0.00
   16   18   22      2.38      0.00
   16   20   22      0.29      0.00
   18   18   22      0.84      0.00
   18   20   22      1.40      0.00
   20   20   22      4.22      0.00
    0   22   22      4.38      0.00
    2   22   22      0.72      0.00
    4   22   22     -2.24      0.00
    6   22   22     -0.63      0.00
    8   22   22     -1.73      0.00
   10   22   22     -5.41      0.00
   12   22   22     -0.46      0.00
   14   22   22     -1.12      0.00
   16   22   22     -2.96      0.00
   18   22   22     -0.18      0.00
   20   22   22     -2.72      0.00
   22   22   22     -6.92      0.00
    1    1   23     -7.11      0.00
    1    3   23     -7.09      0.00
    1    5   23     -8.77      0.00
    1    7   23     -4.23      0.00
    1    9   23     -5.88      0.00
    1   11   23     -2.66      0.00
    1   13   23     -2.61      0.00
    1   15   23     -2.50      0.00
    1   17   23      0.60      0.00
    1   19   23     -0.88      0.00
    1   21   23      1.47      0.00
    3    3   23     -4.60      0.00
    3    5   23     -6.94      0.00
    3    7   23     -4.38      0.00
    3    9   23     -2.85      0.00
    3   11   23     -1.43      0.00
    3   13   23     -1.39      0.00
    3   15   23     -2.82      0.00
    3   17   23      1.63      0.00
    3   19   23      1.69      0.00
    3   21   23     -0.88      0.00
    5    5   23     -6.90      0.00
    5    7   23     -5.63      0.00
    5    9   23     -3.03      0.00
    5   11   23     -3.22      0.00
    5   13   23     -0.16      0.00
    5   15   23      4.53      0.00
    5   17   23      1.07      0.00
    5   19   23      2.68      0.00
    5   21   23     -0.62      0.00
    7    7   23     -1.53      0.00
    7    9   23     -2.32      0.00
    7   11   23     -2.38      0.00
    7   13   23      1.57      0.00
    7   15   23      0.65      0.00
    7   17   23      1.14      0.00
    7   19   23     -0.37      0.00
    7   21   23      1.35      0.00
    9    9   23     -0.81      0.00
    9   11   23     -1.66      0.00
    9   13   23      0.42      0.00
    9   15   23      0.26      0.00
    9   17   23     -0.82      0.00
    9   19   23     -0.58      0.00
    9   21   23     -0.92      0.00
   11   11   23      0.02      0.00
   11   13   23      2.64      0.00
   11   15   23     -0.38      0.00
   11   17   23      0.51      0.00
   11   19   23      0.04      0.00
   11   21   23     -1.53      0.00
   13   13   23      3.45      0.00
   13   15   23     -3.05      0.00
   13   17   23     -1.27      0.00
   13   19   23     -2.43      0.00
   13   21   23      0.23      0.00
   15   15   23     -1.43      0.00
   15   17   23     -0.67      0.00
   15   19   23     -2.42      0.00
   15   21   23     -0.54      0.00
   17   17   23      2.15      0.00
   17   19   23     -1.28      0.00
   17   21   23      0.22      0.00
   19   19   23      0.60      0.00
   19   21   23      0.79      0.00
   21   21   23     -3.24      0.00
    1   23   23      1.75      0.00
    3   23   23     -0.93      0.00
    5   23   23      0.47      0.00
    7   23   23      0.35      0.00
    9   23   23     -2.96      0.00
   11   23   23     -1.82      0.00
   13   23   23      1.07      0.00
   15   23   23     -2.42      0.00
   17   23   23     -2.62      0.00
   19   23   23     -1.62      0.00
   21   23   23     -2.11      0.00
   23   23   23      3.51      0.00
    0    0   24     -2.24      0.00
    0    2   24     -3.10      0.00
    0    4   24     -0.67      0.00
    0    6   24     -1.60      0.00
    0    8   24      0.20      0.00
    0   10   24      1.69      0.00
    0   12   24      2.16      0.00
    0   14   24     -0.28      0.00
    0   16   24     -0.48      0.00
    0   18   24     -0.32      0.00
    0   20   24      1.06      0.00
    0   22   24     -3.26      0.00
    2    2   24     -0.77      0.00
    2    4   24     -1.28      0.00
    2    6   24     -1.49      0.00
    2    8   24     -0.50      0.00
    2   10   24     -0.94      0.00
    2   12   24     -0.22      0.00
    2   14   24      0.83      0.00
    2   16   24      0.09      0.00
    2   18   24      3.34      0.00
    2   20   24      0.44      0.00
    2   22   24     -0.22      0.00
    4    4   24     -2.40      0.00
    4    6   24     -2.56      0.00
    4    8   24     -0.33      0.00
    4   10   24      0.52      0.00
    4   12   24      1.58      0.00
    4   14   24      2.61      0.00
    4   16   24      3.44      0.00
    4   18   24      0.23      0.00
    4   20   24     -0.93      0.00
    4   22   24     -1.35      0.00
    6    6   24     -2.71      0.00
    6    8   24     -1.29      0.00
    6   10   24      0.47      0.00
    6   12   24      0.23      0.00
    6   14   24      0.23      0.00
    6   16   24      3.76      0.00
    6   18   24      0.49      0.00
    6   20   24      1.42      0.00
    6   22   24      1.45      0.00
    8    8   24     -0.46      0.00
    8   10   24      0.57      0.00
    8   12   24      2.24      0.00
    8   14   24      2.51      0.00
    8   16   24      1.81      0.00
    8   18   24      1.78      0.00
    8   20   24      0.84      0.00
    8   22   24      1.85      0.00
   10   10   24     -1.08      0.00
   10   12   24      0.88      0.00
   10   14   24      1.19      0.00
   10   16   24      1.56      0.00
   10   18   24     -0.25      0.00
   10   20   24      2.24      0.00
   10   22   24      0.51      0.00
   12   12   24      6.15      0.00
   12   14   24     -0.85      0.00
   12   16   24     -1.23      0.00
   12   18   24      1.55      0.00
   12   20   24      1.80      0.00
   12   22   24      0.54      0.00
   14   14   24      2.13      0.00
   14   16   24      0.04      0.00
   14   18   24      1.61      0.00
   14   20   24      1.43      0.00
   14   22   24      2.09      0.00
   16   16   24      0.04      0.00
   16   18   24     -1.36      0.00
   16   20   24      1.01      0.00
   16   22   24     -0.05      0.00
   18   18   24     -0.24      0.00
   18   20   24      2.50      0.00
   18   22   24     -0.26      0.00
   20   20   24      3.39      0.00
   20   22   24     -0.62      0.00
   22   22   24      0.83      0.00
    0   24   24      3.95      0.00
    2   24   24     -0.13      0.00
    4   24   24      0.44      0.00
    6   24   24     -0.18      0.00
    8   24   24     -1.14      0.00
   10   24   24      1.21      0.00
   12   24   24      1.34      0.00
   14   24   24      1.44      0.00
   16   24   24      1.39      0.00
   18   24   24      0.33      0.00
   20   24   24      1.15      0.00
   22   24   24      4.50      0.00
   24   24   24      9.81      0.00
    1    1   25      4.07      0.00
    1    3   25      5.89      0.00
    1    5   25      4.17      0.00
    1    7   25      3.91      0.00
    1    9   25      0.89      0.00
    1   11   25      2.03      0.00
    1   13   25      2.01      0.00
    1   15   25     -0.44      0.00
    1   17   25      0.47      0.00
    1   19   25      0.63      0.00
    1   21   25     -1.26      0.00
    1   23   25     -1.01      0.00
    3    3   25      5.06      0.00
    3    5   25      6.19      0.00
    3    7   25      4.60      0.00
    3    9   25      3.37      0.00
    3   11   25      2.05      0.00
    3   13   25     -0.16      0.00
    3   15   25      0.79      0.00
    3   17   25     -3.65      0.00
    3   19   25     -3.40      0.00
    3   21   25     -3.94      0.00
    3   23   25      2.14      0.00
    5    5   25      2.03      0.00
    5    7   25      1.02      0.00
    5    9   25      1.50      0.00
    5   11   25     -0.49      0.00
    5   13   25     -0.67      0.00
    5   15   25      0.70      0.00
    5   17   25      0.86      0.00
    5   19   25     -0.43      0.00
    5   21   25     -0.84      0.00
    5   23   25     -1.00      0.00
    7    7   25      1.10      0.00
    7    9   25      3.05      0.00
    7   11   25      0.53      0.00
    7   13   25      0.43      0.00
    7   15   25      0.84      0.00
    7   17   25     -1.26      0.00
    7   19   25      0.34      0.00
    7   21   25      1.18      0.00
    7   23   25      0.82      0.00
    9    9   25      1.56      0.00
    9   11   25     -0.47      0.00
    9   13   25      1.69      0.00
    9   15   25     -0.58      0.00
    9   17   25     -0.32      0.00
    9   19   25     -0.55      0.00
    9   21   25      0.91      0.00
    9   23   25      0.42      0.00
   11   11   25     -0.54      0.00
   11   13   25      0.05      0.00
   11   15   25      0.62      0.00
   11   17   25      1.32      0.00
   11   19   25      1.25      0.00
   11   21   25      2.33      0.00
   11   23   25     -0.28      0.00
   13   13   25     -0.21      0.00
   13   15   25      0.54      0.00
   13   17   25      2.16      0.00
   13   19   25      2.15      0.00
   13   21   25      2.86      0.00
   13   23   25      1.14      0.00
   15   15   25      1.77      0.00
   15   17   25      2.47      0.00
   15   19   25     -0.66      0.00
   15   21   25      4.10      0.00
   15   23   25     -1.02      0.00
   17   17   25      2.39      0.00
   17   19   25     -0.08      0.00
   17   21   25      0.86      0.00
   17   23   25      1.91      0.00
   19   19   25      1.62      0.00
   19   21   25      1.34      0.00
   19   23   25     -0.48      0.00
   21   21   25      0.04      0.00
   21   23   25      1.41      0.00
   23   23   25      7.81      0.00
    1   25   25      3.60      0.00
    3   25   25      0.75      0.00
    5   25   25      1.06      0.00
    7   25   25      0.16      0.00
    9   25   25      1.22      0.00
   11   25   25      0.75      0.00
   13   25   25      1.31      0.00
   15   25   25     -2.43      0.00
   17   25   25      2.53      0.00
   19   25   25     -0.14      0.00
   21   25   25      2.79      0.00
   23   25   25     -0.04      0.00
   25   25   25      2.65      0.00
    0    0   26      0.01      0.00
    0    2   26      1.80      0.00
    0    4   26      4.88      0.00
    0    6   26      1.64      0.00
    0    8   26      2.14      0.00
    0   10   26      0.52      0.00
    0   12   26      0.60      0.00
    0   14   26      0.95      0.00
    0   16   26     -1.76      0.00
    0   18   26     -3.58      0.00
    0   20   26      1.39      0.00
    0   22   26     -1.85      0.00
    0   24   26      0.64      0.00
    2    2   26      0.77      0.00
    2    4   26      3.08      0.00
    2    6   26      1.42      0.00
    2    8   26      0.69      0.00
    2   10   26     -0.10      0.00
    2   12   26      0.25      0.00
    2   14   26     -0.19      0.00
    2   16   26     -0.37      0.00
    2   18   26     -1.93      0.00
    2   20   26      0.36      0.00
    2   22   26     -0.47      0.00
    2   24   26      2.14      0.00
    4    4   26      4.29      0.00
    4    6   26      3.07      0.00
    4    8   26      0.06      0.00
    4   10   26     -0.10      0.00
    4   12   26     -2.68      0.00
    4   14   26      0.64      0.00
    4   16   26     -1.35      0.00
    4   18   26     -3.10      0.00
    4   20   26     -2.73      0.00
    4   22   26     -0.80      0.00
    4   24   26      0.34      0.00
    6    6   26      1.57      0.00
    6    8   26      0.58      0.00
    6   10   26     -0.14      0.00
    6   12   26     -1.87      0.00
    6   14   26     -3.33      0.00
    6   16   26     -1.29      0.00
    6   18   26      0.12      0.00
    6   20   26     -1.61      0.00
    6   22   26      0.28      0.00
    6   24   26     -1.31      0.00
    8    8   26     -0.47      0.00
    8   10   26     -0.69      0.00
    8   12   26      1.27      0.00
    8   14   26     -0.10      0.00
    8   16   26      0.34      0.00
    8   18   26     -0.78      0.00
    8   20   26     -2.72      0.00
    8   22   26      0.01      0.00
    8   24   26     -0.36      0.00
   10   10   26     -1.83      0.00
   10   12   26     -0.75      0.00
   10   14   26     -1.95      0.00
   10   16   26     -0.03      0.00
   10   18   26      0.29      0.00
   10   20   26     -1.21      0.00
   10   22   26      0.32      0.00
   10   24   26     -0.61      0.00
   12   12   26     -2.52      0.00
   12   14   26     -0.93      0.00
   12   16   26      1.05      0.00
   12   18   26     -3.09      0.00
   12   20   26     -0.74      0.00
   12   22   26     -2.30      0.00
   12   24   26      1.74      0.00
   14   14   26     -2.08      0.00
   14   16   26      2.83      0.00
   14   18   26     -0.03      0.00
   14   20   26      2.99      0.00
   14   22   26      0.36      0.00
   14   24   26     -2.85      0.00
   16   16   26      0.03      0.00
   16   18   26     -0.26      0.00
   16   20   26     -0.54      0.00
   16   22   26     -0.47      0.00
   16   24   26     -0.24      0.00
   18   18   26      0.04      0.00
   18   20   26     -0.84      0.00
   18   22   26     -1.49      0.00
   18   24   26      0.15      0.00
   20   20   26     -2.00      0.00
   20   22   26     -0.21      0.00
   20   24   26     -0.25      0.00
   22   22   26     -0.09      0.00
   22   24   26      2.89      0.00
   24   24   26     -1.94      0.00
    0   26   26      4.36      0.00
    2   26   26     -2.06      0.00
    4   26   26      1.12      0.00
    6   26   26      2.88      0.00
    8   26   26      0.58      0.00
   10   26   26     -1.52      0.00
   12   26   26     -2.67      0.00
   14   26   26     -0.73      0.00
   16   26   26      1.19      0.00
   18   26   26      2.19      0.00
   20   26   26      1.64      0.00
   22   26   26     -4.04      0.00
   24   26   26      1.15      0.00
   26   26   26      1.45      0.00
    1    1   27     -1.67      0.00
    1    3   27     -1.76      0.00
    1    5   27     -0.19      0.00
    1    7   27     -2.49      0.00
    1    9   27     -1.44      0.00
    1   11   27      1.50      0.00
    1   13   27     -0.41      0.00
    1   15   27      2.14      0.00
    1   17   27      0.63      0.00
    1   19   27      2.16      0.00
    1   21   27      1.84      0.00
    1   23   27      0.19      0.00
    1   25   27     -0.68      0.00
    3    3   27     -0.27      0.00
    3    5   27     -0.90      0.00
    3    7   27     -0.23      0.00
    3    9   27     -1.00      0.00
    3   11   27      0.15      0.00
    3   13   27      0.54      0.00
    3   15   27      0.92      0.00
    3   17   27     -0.88      0.00
    3   19   27     -0.77      0.00
    3   21   27      1.04      0.00
    3   23   27     -1.02      0.00
    3   25   27     -0.64      0.00
    5    5   27      0.24      0.00
    5    7   27     -1.49      0.00
    5    9   27     -1.76      0.00
    5   11   27     -0.90      0.00
    5   13   27     -1.84      0.00
    5   15   27      3.58      0.00
    5   17   27      0.77      0.00
    5   19   27      1.43      0.00
    5   21   27     -0.33      0.00
    5   23   27     -2.14      0.00
    5   25   27     -0.71      0.00
    7    7   27      0.11      0.00
    7    9   27      1.21      0.00
    7   11   27     -0.37      0.00
    7   13   27      0.83      0.00
    7   15   27     -0.18      0.00
    7   17   27     -1.62      0.00
    7   19   27     -0.58      0.00
    7   21   27     -2.60      0.00
    7   23   27      0.02      0.00
    7   25   27      0.89      0.00
    9    9   27      1.23      0.00
    9   11   27      0.74      0.00
    9   13   27      0.78      0.00
    9   15   27     -0.97      0.00
    9   17   27     -0.42      0.00
    9   19   27      0.04      0.00
    9   21   27     -2.21      0.00
    9   23   27      0.26      0.00
    9   25   27     -1.79      0.00
   11   11   27      0.29      0.00
   11   13   27     -1.17      0.00
   11   15   27      1.98      0.00
   11   17   27     -0.71      0.00
   11   19   27     -1.08      0.00
   11   21   27      0.06      0.00
   11   23   27     -0.81      0.00
   11   25   27      0.70      0.00
   13   13   27     -4.04      0.00
   13   15   27     -0.69      0.00
   13   17   27     -1.83      0.00
   13   19   27     -3.71      0.00
   13   21   27      2.41      0.00
   13   23   27      0.15      0.00
   13   25   27     -0.12      0.00
   15   15   27     -3.05      0.00
   15   17   27      0.80      0.00
   15   19   27     -0.46      0.00
   15   21   27     -0.54      0.00
   15   23   27     -2.51      0.00
   15   25   27      0.77      0.00
   17   17   27     -0.16      0.00
   17   19   27      0.24      0.00
   17   21   27      0.62      0.00
   17   23   27      0.30      0.00
   17   25   27      0.11      0.00
   19   19   27     -0.82      0.00
   19   21   27     -2.12      0.00
   19   23   27      0.18      0.00
   19   25   27     -0.49      0.00
   21   21   27     -2.28      0.00
   21   23   27      0.79      0.00
   21   25   27     -0.65      0.00
   23   23   27     -1.77      0.00
   23   25   27     -1.40      0.00
   25   25   27      1.46      0.00
    1   27   27     -1.13      0.00
    3   27   27     -2.95      0.00
    5   27   27     -1.64      0.00
    7   27   27      1.60      0.00
    9   27   27     -0.25      0.00
   11   27   27     -1.82      0.00
   13   27   27     -2.97      0.00
   15   27   27     -1.03      0.00
   17   27   27      2.05      0.00
   19   27   27      0.17      0.00
   21   27   27      0.28      0.00
   23   27   27     -5.44      0.00
   25   27   27     -3.54      0.00
   27   27   27      3.40      0.00
    0    0   28      5.67      0.00
    0    2   28      2.12      0.00
    0    4   28      1.07      0.00
    0    6   28     -0.08      0.00
    0    8   28      0.15      0.00
    0   10   28      1.05      0.00
    0   12   28      0.34      0.00
    0   14   28     -0.64      0.00
    0   16   28      1.71      0.00
    0   18   28      0.70      0.00
    0   20   28      3.32      0.00
    0   22   28     -0.92      0.00
    0   24   28      2.48      0.00
    0   26   28      0.85      0.00
    2    2   28     -3.12      0.00
    2    4   28      0.82      0.00
    2    6   28     -1.79      0.00
    2    8   28     -1.67      0.00
    2   10   28      0.68      0.00
    2   12   28     -0.53      0.00
    2   14   28      0.80      0.00
    2   16   28      1.86      0.00
    2   18   28     -0.35      0.00
    2   20   28      4.18      0.00
    2   22   28     -0.07      0.00
    2   24   28     -0.33      0.00
    2   26   28     -2.42      0.00
    4    4   28      1.33      0.00
    4    6   28     -1.74      0.00
    4    8   28     -1.22      0.00
    4   10   28      1.32      0.00
    4   12   28      1.13      0.00
    4   14   28     -0.01      0.00
    4   16   28      3.60      0.00
    4   18   28      1.70      0.00
    4   20   28     -0.49      0.00
    4   22   28     -0.81      0.00
    4   24   28     -2.14      0.00
    4   26   28     -0.61      0.00
    6    6   28      1.00      0.00
    6    8   28      0.55      0.00
    6   10   28      0.85      0.00
    6   12   28      0.40      0.00
    6   14   28      2.58      0.00
    6   16   28     -0.17      0.00
    6   18   28     -0.40      0.00
    6   20   28     -0.49      0.00
    6   22   28      1.81      0.00
    6   24   28     -0.37      0.00
    6   26   28      0.01      0.00
    8    8   28      0.30      0.00
    8   10   28      1.55      0.00
    8   12   28      1.44      0.00
    8   14   28     -0.12      0.00
    8   16   28     -0.96      0.00
    8   18   28      1.29      0.00
    8   20   28     -1.97      0.00
    8   22   28     -1.56      0.00
    8   24   28      0.17      0.00
    8   26   28     -1.55      0.00
   10   10   28      3.52      0.00
   10   12   28      0.26      0.00
   10   14   28     -0.59      0.00
   10   16   28      0.29      0.00
   10   18   28      3.03      0.00
   10   20   28      1.06      0.00
   10   22   28      1.68      0.00
   10   24   28      0.66      0.00
   10   26   28      0.62      0.00
   12   12   28      1.44      0.00
   12   14   28      0.69      0.00
   12   16   28      0.56      0.00
   12   18   28     -3.15      0.00
   12   20   28     -0.49      0.00
   12   22   28      2.32      0.00
   12   24   28      0.75      0.00
   12   26   28     -0.85      0.00
   14   14   28     -3.85      0.00
   14   16   28     -0.71      0.00
   14   18   28     -1.53      0.00
   14   20   28      3.78      0.00
   14   22   28      0.70      0.00
   14   24   28      0.77      0.00
   14   26   28      1.27      0.00
   16   16   28     -1.04      0.00
   16   18   28     -0.04      0.00
   16   20   28      0.31      0.00
   16   22   28     -2.62      0.00
   16   24   28      2.28      0.00
   16   26   28     -0.90      0.00
   18   18   28     -0.06      0.00
   18   20   28      2.18      0.00
   18   22   28      2.67      0.00
   18   24   28     -1.48      0.00
   18   26   28     -0.43      0.00
   20   20   28     -2.73      0.00
   20   22   28     -0.08      0.00
   20   24   28      1.96      0.00
   20   26   28     -0.46      0.00
   22   22   28      0.07      0.00
   22   24   28     -1.18      0.00
   22   26   28     -0.53      0.00
   24   24   28     -4.18      0.00
   24   26   28     -0.06      0.00
   26   26   28     -0.26      0.00
    0   28   28      2.44      0.00
    2   28   28      0.30      0.00
    4   28   28      1.01      0.00
    6   28   28     -0.56      0.00
    8   28   28      1.73      0.00
   10   28   28     -0.96      0.00
   12   28   28     -2.85      0.00
   14   28   28     -2.85      0.00
   16   28   28      2.24      0.00
   18   28   28      0.74      0.00
   20   28   28      1.53      0.00
   22   28   28     -4.34      0.00
   24   28   28     -1.00      0.00
   26   28   28      1.65      0.00
    1    1   29      3.66      0.00
    1    3   29     -0.23      0.00
    1    5   29      0.24      0.00
    1    7   29      0.16      0.00
    1    9   29      0.26      0.00
    1   11   29      0.12      0.00
    1   13   29     -1.27      0.00
    1   15   29      1.06      0.00
    1   17   29     -0.12      0.00
    1   19   29      0.00      0.00
    1   21   29      0.09      0.00
    1   23   29      1.72      0.00
    1   25   29      3.37      0.00
    1   27   29      0.56      0.00
    3    3   29     -0.36      0.00
    3    5   29      0.55      0.00
    3    7   29     -1.37      0.00
    3    9   29      0.06      0.00
    3   11   29      2.85      0.00
    3   13   29     -3.81      0.00
    3   15   29      0.87      0.00
    3   17   29     -1.13      0.00
    3   19   29      0.30      0.00
    3   21   29     -0.56      0.00
    3   23   29     -2.35      0.00
    3   25   29      2.07      0.00
    3   27   29      0.14      0.00
    5    5   29     -2.96      0.00
    5    7   29      0.65      0.00
    5    9   29     -0.37      0.00
    5   11   29      0.88      0.00
    5   13   29      1.99      0.00
    5   15   29      1.35      0.00
    5   17   29      1.88      0.00
    5   19   29     -0.19      0.00
    5   21   29     -1.57      0.00
    5   23   29      3.90      0.00
    5   25   29      1.83      0.00
    5   27   29      0.80      0.00
    7    7   29     -1.33      0.00
    7    9   29     -1.49      0.00
    7   11   29      0.52      0.00
    7   13   29     -0.96      0.00
    7   15   29     -0.03      0.00
    7   17   29     -1.57      0.00
    7   19   29      1.08      0.00
    7   21   29      0.08      0.00
    7   23   29      1.58      0.00
    7   25   29     -0.19      0.00
    7   27   29     -0.46      0.00
    9    9   29      1.17      0.00
    9   11   29     -0.91      0.00
    9   13   29     -4.60      0.00
    9   15   29      0.62      0.00
    9   17   29     -0.44      0.00
    9   19   29      1.67      0.00
    9   21   29     -0.20      0.00
    9   23   29     -0.97      0.00
    9   25   29     -0.72      0.00
    9   27   29      0.02      0.00
   11   11   29     -0.81      0.00
   11   13   29      2.56      0.00
   11   15   29      1.92      0.00
   11   17   29      1.35      0.00
   11   19   29     -0.66      0.00
   11   21   29     -0.42      0.00
   11   23   29      0.78      0.00
   11   25   29      0.92      0.00
   11   27   29      1.52      0.00
   13   13   29      0.34      0.00
   13   15   29     -0.48      0.00
   13   17   29     -2.11      0.00
   13   19   29      0.93      0.00
   13   21   29      3.15      0.00
   13   23   29     -2.59      0.00
   13   25   29     -0.38      0.00
   13   27   29     -0.58      0.00
   15   15   29      3.29      0.00
   15   17   29     -1.65      0.00
   15   19   29      0.85      0.00
   15   21   29     -0.06      0.00
   15   23   29     -1.04      0.00
   15   25   29      1.40      0.00
   15   27   29     -0.44      0.00
   17   17   29     -0.89      0.00
   17   19   29      1.24      0.00
   17   21   29     -1.16      0.00
   17   23   29     -0.38      0.00
   17   25   29      1.00      0.00
   17   27   29      1.72      0.00
   19   19   29     -0.27      0.00
   19   21   29     -1.05      0.00
   19   23   29      2.55      0.00
   19   25   29     -2.03      0.00
   19   27   29     -4.10      0.00
   21   21   29     -2.04      0.00
   21   23   29      1.36      0.00
   21   25   29      3.42      0.00
   21   27   29      2.51      0.00
   23   23   29     -4.75      0.00
   23   25   29     -1.97      0.00
   23   27   29     -1.86      0.00
   25   25   29      0.74      0.00
   25   27   29      5.48      0.00
    1   29   29     -4.23      0.00
    3   29   29      7.66      0.00
    5   29   29     -0.14      0.00
    7   29   29      3.60      0.00
    9   29   29     -5.95      0.00
   11   29   29     -1.76      0.00
   13   29   29     -2.22      0.00
   15   29   29     -1.27      0.00
   17   29   29      9.09      0.00
   19   29   29     -0.75      0.00
   21   29   29     -2.23      0.00
   23   29   29      8.96      0.00
    0    0   30     11.28      0.00
    0    2   30     -4.10      0.00
    0    4   30     -0.36      0.00
    0    6   30     -1.27      0.00
    0    8   30     -0.71      0.00
    0   10   30      0.81      0.00
    0   12   30     -1.56      0.00
    0   14   30      4.34      0.00
    0   16   30      2.47      0.00
    0   18   30      0.04      0.00
    0   20   30     -1.54      0.00
    0   22   30     -0.58      0.00
    0   24   30      4.10      0.00
    0   26   30     -2.98      0.00
    0   28   30     -1.18      0.00
    2    2   30     -2.96      0.00
    2    4   30     -1.20      0.00
    2    6   30     -1.50      0.00
    2    8   30     -0.06      0.00
    2   10   30      0.84      0.00
    2   12   30     -1.03      0.00
    2   14   30     -1.53      0.00
    2   16   30      0.83      0.00
    2   18   30     -1.94      0.00
    2   20   30     -0.61      0.00
    2   22   30     -1.63      0.00
    2   24   30      1.50      0.00
    2   26   30      0.45      0.00
    2   28   30      0.66      0.00
    4    4   30     -1.97      0.00
    4    6   30      0.14      0.00
    4    8   30      0.12      0.00
    4   10   30      0.77      0.00
    4   12   30      2.20      0.00
    4   14   30     -1.10      0.00
    4   16   30      1.19      0.00
    4   18   30      0.19      0.00
    4   20   30     -1.22      0.00
    4   22   30     -2.17      0.00
    4   24   30      1.70      0.00
    4   26   30      2.85      0.00
    4   28   30      3.42      0.00
    6    6   30     -0.06      0.00
    6    8   30     -0.56      0.00
    6   10   30     -0.37      0.00
    6   12   30      1.22      0.00
    6   14   30     -1.32      0.00
    6   16   30      0.54      0.00
    6   18   30      1.68      0.00
    6   20   30     -1.18      0.00
    6   22   30      2.54      0.00
    6   24   30      5.92      0.00
    6   26   30      0.30      0.00
    6   28   30     -1.52      0.00
    8    8   30     -1.13      0.00
    8   10   30      1.40      0.00
    8   12   30     -4.63      0.00
    8   14   30     -0.54      0.00
    8   16   30     -2.58      0.00
    8   18   30      0.46      0.00
    8   20   30      0.11      0.00
    8   22   30      2.16      0.00
    8   24   30     -3.03      0.00
    8   26   30     -0.24      0.00
    8   28   30      1.48      0.00
   10   10   30     -2.24      0.00
   10   12   30     -2.28      0.00
   10   14   30      1.60      0.00
   10   16   30     -0.34      0.00
   10   18   30     -0.27      0.00
   10   20   30     -1.05      0.00
   10   22   30     -1.31      0.00
   10   24   30      3.05      0.00
   10   26   30      1.22      0.00
   10   28   30     -2.25      0.00
   12   12   30      2.06      0.00
   12   14   30      2.06      0.00
   12   16   30      0.02      0.00
   12   18   30      0.52      0.00
   12   20   30     -1.44      0.00
   12   22   30     -1.03      0.00
   12   24   30     -5.86      0.00
   12   26   30      3.50      0.00
   12   28   30      0.50      0.00
   14   14   30      2.93      0.00
   14   16   30     -0.19      0.00
   14   18   30     -0.18      0.00
   14   20   30      2.89      0.00
   14   22   30     -1.14      0.00
   14   24   30     -0.64      0.00
   14   26   30     -1.28      0.00
   14   28   30     -0.88      0.00
   16   16   30      5.35      0.00
   16   18   30     -1.98      0.00
   16   20   30      0.08      0.00
   16   22   30     -3.22      0.00
   16   24   30     -1.47      0.00
   16   26   30      1.05      0.00
   16   28   30      3.14      0.00
   18   18   30      2.56      0.00
   18   20   30     -1.68      0.00
   18   22   30     -3.76      0.00
   18   24   30      5.46      0.00
   18   26   30     -6.25      0.00
   18   28   30      3.36      0.00
   20   20   30     -2.63      0.00
   20   22   30     -1.20      0.00
   20   24   30     -0.37      0.00
   20   26   30      3.15      0.00
   20   28   30     -2.69      0.00
   22   22   30      0.81      0.00
   22   24   30     -4.55      0.00
   22   26   30      4.19      0.00
   22   28   30     -1.49      0.00
   24   24   30     -2.05      0.00
   24   26   30      0.24      0.00
   24   28   30      9.73      0.00
   26   26   30      8.30      0.00
    0   30   30    -10.45      0.00
    2   30   30     -2.66      0.00
    4   30   30      2.67      0.00
    6   30   30     -2.44      0.00
    8   30   30     -0.82      0.00
   10   30   30     -0.71      0.00
   12   30   30      0.67      0.00
   14   30   30     -0.38      0.00
   16   30   30     -6.03      0.00
   18   30   30      1.11      0.00
   20   30   30      4.98      0.00
   22   30   30      0.79      0.00
    1    1   31      1.07      0.00
    1    3   31     -1.73      0.00
    1    5   31     -0.81      0.00
    1    7   31     -0.07      0.00
    1    9   31      0.09      0.00
    1   11   31     -1.31      0.00
    1   13   31      0.46      0.00
    1   15   31      2.41      0.00
    1   17   31     -1.06      0.00
    1   19   31     -1.25      0.00
    1   21   31     -0.10      0.00
    1   23   31     -0.03      0.00
    1   25   31     -0.64      0.00
    1   27   31     -2.31      0.00
    1   29   31     -0.48      0.00
    3    3   31      0.17      0.00
    3    5   31     -0.94      0.00
    3    7   31      0.32      0.00
    3    9   31     -0.66      0.00
    3   11   31      0.27      0.00
    3   13   31      0.10      0.00
    3   15   31     -2.06      0.00
    3   17   31      0.68      0.00
    3   19   31      0.29      0.00
    3   21   31     -2.75      0.00
    3   23   31     -1.10      0.00
    3   25   31      0.82      0.00
    3   27   31      0.68      0.00
    3   29   31      2.44      0.00
    5    5   31      2.61      0.00
    5    7   31      2.22      0.00
    5    9   31     -0.13      0.00
    5   11   31      3.11      0.00
    5   13   31     -1.19      0.00
    5   15   31      0.31      0.00
    5   17   31     -0.83      0.00
    5   19   31      0.29      0.00
    5   21   31     -1.36      0.00
    5   23   31      0.36      0.00
    5   25   31      4.53      0.00
    5   27   31     -1.95      0.00
    5   29   31     -3.04      0.00
    7    7   31      1.67      0.00
    7    9   31      1.50      0.00
    7   11   31      1.52      0.00
    7   13   31     -2.50      0.00
    7   15   31     -0.40      0.00
    7   17   31      1.09      0.00
    7   19   31      0.02      0.00
    7   21   31      0.05      0.00
    7   23   31      1.28      0.00
    7   25   31     -0.70      0.00
    7   27   31      0.61      0.00
    7   29   31     -0.66      0.00
    9    9   31      1.64      0.00
    9   11   31     -1.37      0.00
    9   13   31      2.25      0.00
    9   15   31     -0.45      0.00
    9   17   31     -1.23      0.00
    9   19   31      1.47      0.00
    9   21   31      1.32      0.00
    9   23   31      1.72      0.00
    9   25   31     -0.62      0.00
    9   27   31     -0.64      0.00
    9   29   31     -1.64      0.00
   11   11   31      1.40      0.00
   11   13   31      1.77      0.00
   11   15   31      3.58      0.00
   11   17   31     -1.28      0.00
   11   19   31      0.38      0.00
   11   21   31      0.49      0.00
   11   23   31     -0.57      0.00
   11   25   31      1.83      0.00
   11   27   31      3.95      0.00
   11   29   31     -1.32      0.00
   13   13   31     -1.81      0.00
   13   15   31      0.04      0.00
   13   17   31     -0.72      0.00
   13   19   31      1.30      0.00
   13   21   31      1.62      0.00
   13   23   31     -2.86      0.00
   13   25   31     -1.41      0.00
   13   27   31      0.75      0.00
   13   29   31     -1.30      0.00
   15   15   31      5.07      0.00
   15   17   31      0.40      0.00
   15   19   31     -0.17      0.00
   15   21   31     -0.24      0.00
   15   23   31     -1.17      0.00
   15   25   31     -0.37      0.00
   15   27   31     -2.53      0.00
   15   29   31     -3.10      0.00
   17   17   31      0.06      0.00
   17   19   31      0.05      0.00
   17   21   31     -3.72      0.00
   17   23   31     -0.26      0.00
   17   25   31      1.99      0.00
   17   27   31      2.41      0.00
   17   29   31     -0.39      0.00
   19   19   31      1.41      0.00
   19   21   31     -0.95      0.00
   19   23   31     -0.24      0.00
   19   25   31     -0.82      0.00
   19   27   31     -4.18      0.00
   19   29   31      0.59      0.00
   21   21   31     -2.84      0.00
   21   23   31     -0.94      0.00
   21   25   31      2.80      0.00
   21   27   31      0.66      0.00
   21   29   31      4.82      0.00
   23   23   31     -5.45      0.00
   23   25   31     -0.60      0.00
   23   27   31      4.28      0.00
   25   25   31      3.11      0.00
    1   31   31      1.97      0.00
    3   31   31      2.31      0.00
    5   31   31     -4.03      0.00
    7   31   31      2.05      0.00
    9   31   31      2.12      0.00
   11   31   31      1.36      0.00
   13   31   31      3.93      0.00
   15   31   31     -6.04      0.00
   17   31   31     -5.57      0.00
   19   31   31      2.35      0.00
    0    0   32      5.48      0.00
    0    2   32      3.56      0.00
    0    4   32      1.84      0.00
    0    6   32     -0.47      0.00
    0    8   32     -0.60      0.00
    0   10   32     -1.96      0.00
    0   12   32     -0.29      0.00
    0   14   32      0.29      0.00
    0   16   32      0.82      0.00
    0   18   32     -0.95      0.00
    0   20   32     -1.70      0.00
    0   22   32      4.10      0.00
    0   24   32     -1.40      0.00
    0   26   32     -3.16      0.00
    0   28   32      2.82      0.00
    0   30   32     -0.06      0.00
    2    2   32     -1.91      0.00
    2    4   32      1.10      0.00
    2    6   32      0.54      0.00
    2    8   32      0.06      0.00
    2   10   32     -0.95      0.00
    2   12   32      0.06      0.00
    2   14   32     -1.35      0.00
    2   16   32     -3.47      0.00
    2   18   32     -0.47      0.00
    2   20   32     -1.38      0.00
    2   22   32      1.99      0.00
    2   24   32      1.48      0.00
    2   26   32     -0.58      0.00
    2   28   32      5.17      0.00
    2   30   32      2.86      0.00
    4    4   32     -0.65      0.00
    4    6   32      1.38      0.00
    4    8   32     -0.64      0.00
    4   10   32     -0.68      0.00
    4   12   32      1.17      0.00
    4   14   32     -0.78      0.00
    4   16   32      0.02      0.00
    4   18   32     -0.75      0.00
    4   20   32     -0.22      0.00
    4   22   32     -1.84      0.00
    4   24   32      1.93      0.00
    4   26   32     -0.68      0.00
    4   28   32     -1.04      0.00
    4   30   32     -5.13      0.00
    6    6   32      1.53      0.00
    6    8   32     -1.74      0.00
    6   10   32      0.68      0.00
    6   12   32     -1.56      0.00
    6   14   32     -0.41      0.00
    6   16   32      1.55      0.00
    6   18   32      0.65      0.00
    6   20   32     -0.99      0.00
    6   22   32     -0.30      0.00
    6   24   32     -1.49      0.00
    6   26   32     -0.18      0.00
    6   28   32     -1.87      0.00
    6   30   32     -3.18      0.00
    8    8   32      2.29      0.00
    8   10   32      0.06      0.00
    8   12   32      0.93      0.00
    8   14   32      0.35      0.00
    8   16   32     -0.10      0.00
    8   18   32      1.75      0.00
    8   20   32     -0.35      0.00
    8   22   32     -0.50      0.00
    8   24   32      0.55      0.00
    8   26   32     -0.66      0.00
    8   28   32     -1.62      0.00
    8   30   32      3.40      0.00
   10   10   32     -2.24      0.00
   10   12   32      1.52      0.00
   10   14   32      6.99      0.00
   10   16   32     -1.84      0.00
   10   18   32      1.71      0.00
   10   20   32      1.04      0.00
   10   22   32      3.68      0.00
   10   24   32     -2.06      0.00
   10   26   32      1.20      0.00
   10   28   32     -1.34      0.00
   10   30   32     -4.34      0.00
   12   12   32     -3.51      0.00
   12   14   32      0.63      0.00
   12   16   32     -0.75      0.00
   12   18   32      2.04      0.00
   12   20   32      3.39      0.00
   12   22   32     -2.01      0.00
   12   24   32      2.00      0.00
   12   26   32     -0.51      0.00
   12   28   32     -0.51      0.00
   12   30   32     -0.13      0.00
   14   14   32     -5.65      0.00
   14   16   32     -1.01      0.00
   14   18   32     -1.34      0.00
   14   20   32     -2.61      0.00
   14   22   32      1.63      0.00
   14   24   32      0.90      0.00
   14   26   32     -0.18      0.00
   14   28   32     -1.85      0.00
   14   30   32     -1.13      0.00
   16   16   32      1.34      0.00
   16   18   32     -0.49      0.00
   16   20   32     -1.03      0.00
   16   22   32     -1.81      0.00
   16   24   32      0.47      0.00
   16   26   32     -2.10      0.00
   16   28   32      0.09      0.00
   16   30   32     -3.78      0.00
   18   18   32     -1.85      0.00
   18   20   32      1.96      0.00
   18   22   32      2.15      0.00
   18   24   32     -0.01      0.00
   18   26   32     -0.04      0.00
   18   28   32     -1.63      0.00
   18   30   32     -2.72      0.00
   20   20   32      1.14      0.00
   20   22   32     -0.45      0.00
   20   24   32      1.43      0.00
   20   26   32     -1.75      0.00
   20   28   32      1.48      0.00
   22   22   32      0.02      0.00
   22   24   32     -2.36      0.00
   22   26   32      1.72      0.00
   24   24   32     -2.94      0.00
   24   26   32      9.01      0.00
    0   32   32      8.06      0.00
    2   32   32      2.12      0.00
    4   32   32      4.57      0.00
    6   32   32     -0.54      0.00
    8   32   32     -0.93      0.00
   10   32   32      3.27      0.00
   12   32   32     -4.05      0.00
   14   32   32      5.02      0.00
    1    1   33      1.25      0.00
    1    3   33      1.62      0.00
    1    5   33     -0.05      0.00
    1    7   33      1.01      0.00
    1    9   33      1.13      0.00
    1   11   33     -1.60      0.00
    1   13   33      3.03      0.00
    1   15   33     -2.53      0.00
    1   17   33     -0.02      0.00
    1   19   33     -0.64      0.00
    1   21   33      1.46      0.00
    1   23   33      2.83      0.00
    1   25   33      0.26      0.00
    1   27   33     -0.76      0.00
    1   29   33      1.50      0.00
    1   31   33     -0.25      0.00
    3    3   33     -0.21      0.00
    3    5   33     -3.60      0.00
    3    7   33     -1.30      0.00
    3    9   33     -1.56      0.00
    3   11   33      0.04      0.00
    3   13   33      0.54      0.00
    3   15   33      1.73      0.00
    3   17   33      0.46      0.00
    3   19   33      2.23      0.00
    3   21   33      1.64      0.00
    3   23   33     -0.59      0.00
    3   25   33      1.19      0.00
    3   27   33      1.25      0.00
    3   29   33     -2.04      0.00
    3   31   33     -0.96      0.00
    5    5   33      2.86      0.00
    5    7   33     -0.23      0.00
    5    9   33     -1.53      0.00
    5   11   33      0.82      0.00
    5   13   33     -1.18      0.00
    5   15   33      1.33      0.00
    5   17   33     -0.16      0.00
    5   19   33     -0.72      0.00
    5   21   33      1.16      0.00
    5   23   33      0.20      0.00
    5   25   33      1.48      0.00
    5   27   33     -2.67      0.00
    5   29   33     -2.79      0.00
    5   31   33     -0.69      0.00
    7    7   33     -2.11      0.00
    7    9   33     -1.39      0.00
    7   11   33     -0.02      0.00
    7   13   33     -0.38      0.00
    7   15   33      0.23      0.00
    7   17   33      1.41      0.00
    7   19   33     -0.06      0.00
    7   21   33     -0.36      0.00
    7   23   33     -0.96      0.00
    7   25   33     -0.07      0.00
    7   27   33      0.99      0.00
    7   29   33      0.60      0.00
    7   31   33     -0.19      0.00
    9    9   33     -1.83      0.00
    9   11   33     -0.72      0.00
    9   13   33      0.76      0.00
    9   15   33      2.44      0.00
    9   17   33      0.53      0.00
    9   19   33      0.31      0.00
    9   21   33      0.25      0.00
    9   23   33      1.03      0.00
    9   25   33     -1.62      0.00
    9   27   33     -1.08      0.00
    9   29   33     -1.82      0.00
    9   31   33      0.46      0.00
   11   11   33     -2.11      0.00
   11   13   33      1.24      0.00
   11   15   33      0.58      0.00
   11   17   33     -0.10      0.00
   11   19   33      1.37      0.00
   11   21   33     -1.55      0.00
   11   23   33     -0.21      0.00
   11   25   33      0.55      0.00
   11   27   33      3.34      0.00
   11   29   33     -5.82      0.00
   11   31   33     -2.14      0.00
   13   13   33     -5.35      0.00
   13   15   33     -1.09      0.00
   13   17   33     -1.64      0.00
   13   19   33      2.25      0.00
   13   21   33     -1.35      0.00
   13   23   33     -0.43      0.00
   13   25   33      2.83      0.00
   13   27   33      0.27      0.00
   13   29   33      0.50      0.00
   13   31   33     -0.21      0.00
   15   15   33     -1.30      0.00
   15   17   33     -1.02      0.00
   15   19   33     -1.54      0.00
   15   21   33      1.95      0.00
   15   23   33      0.09      0.00
   15   25   33     -1.08      0.00
   15   27   33     -1.01      0.00
   15   29   33     -0.57      0.00
   15   31   33      5.79      0.00
   17   17   33     -0.50      0.00
   17   19   33     -1.21      0.00
   17   21   33      0.99      0.00
   17   23   33     -0.28      0.00
   17   25   33     -1.18      0.00
   17   27   33      1.06      0.00
   17   29   33     -0.57      0.00
   19   19   33      6.10      0.00
   19   21   33      0.76      0.00
   19   23   33      2.22      0.00
   19   25   33     -0.69      0.00
   19   27   33     -5.54      0.00
   21   21   33     -2.13      0.00
   21   23   33     -2.27      0.00
   21   25   33     -2.97      0.00
   21   27   33      2.35      0.00
   23   23   33     -0.03      0.00
   23   25   33      2.61      0.00
    1   33   33     -0.78      0.00
    3   33   33     -0.92      0.00
    5   33   33      2.69      0.00
    7   33   33     -2.19      0.00
    0    0   34      5.05      0.00
    0    2   34     -1.07      0.00
    0    4   34     -0.07      0.00
    0    6   34      2.17      0.00
    0    8   34      2.44      0.00
    0   10   34     -1.23      0.00
    0   12   34      3.46      0.00
    0   14   34      2.12      0.00
    0   16   34     -2.01      0.00
    0   18   34      3.43      0.00
    0   20   34     -2.12      0.00
    0   22   34      4.11      0.00
    0   24   34      0.43      0.00
    0   26   34     -5.74      0.00
    0   28   34     -5.31      0.00
    0   30   34     -1.00      0.00
    0   32   34     -2.23      0.00
    2    2   34     -0.30      0.00
    2    4   34     -1.73      0.00
    2    6   34     -0.07      0.00
    2    8   34      0.33      0.00
    2   10   34      1.70      0.00
    2   12   34      2.34      0.00
    2   14   34     -0.47      0.00
    2   16   34      1.88      0.00
    2   18   34      2.65      0.00
    2   20   34     -1.11      0.00
    2   22   34      1.19      0.00
    2   24   34     -0.08      0.00
    2   26   34      2.07      0.00
    2   28   34      4.82      0.00
    2   30   34     -4.88      0.00
    2   32   34     -1.36      0.00
    4    4   34      0.57      0.00
    4    6   34     -0.14      0.00
    4    8   34      0.14      0.00
    4   10   34      0.91      0.00
    4   12   34     -0.55      0.00
    4   14   34      0.63      0.00
    4   16   34      0.33      0.00
    4   18   34     -0.63      0.00
    4   20   34      2.78      0.00
    4   22   34      2.43      0.00
    4   24   34     -0.30      0.00
    4   26   34     -1.98      0.00
    4   28   34     -0.36      0.00
    4   30   34     -5.35      0.00
    4   32   34      0.63      0.00
    6    6   34      3.06      0.00
    6    8   34     -0.06      0.00
    6   10   34      0.17      0.00
    6   12   34     -0.06      0.00
    6   14   34     -0.10      0.00
    6   16   34      1.19      0.00
    6   18   34     -0.17      0.00
    6   20   34      2.84      0.00
    6   22   34      0.42      0.00
    6   24   34     -0.17      0.00
    6   26   34      0.17      0.00
    6   28   34      1.43      0.00
    6   30   34     -0.11      0.00
    6   32   34      4.14      0.00
    8    8   34      1.74      0.00
    8   10   34      1.15      0.00
    8   12   34     -1.25      0.00
    8   14   34      0.42      0.00
    8   16   34     -1.00      0.00
    8   18   34     -0.11      0.00
    8   20   34     -0.10      0.00
    8   22   34      2.27      0.00
    8   24   34      1.87      0.00
    8   26   34      1.21      0.00
    8   28   34      2.10      0.00
    8   30   34     -1.59      0.00
    8   32   34     -5.30      0.00
   10   10   34      0.88      0.00
   10   12   34     -0.35      0.00
   10   14   34      1.55      0.00
   10   16   34      0.44      0.00
   10   18   34      0.74      0.00
   10   20   34     -1.77      0.00
   10   22   34     -3.71      0.00
   10   24   34      1.00      0.00
   10   26   34     -1.47      0.00
   10   28   34     -0.16      0.00
   10   30   34     -1.61      0.00
   10   32   34      3.46      0.00
   12   12   34     -0.15      0.00
   12   14   34      1.11      0.00
   12   16   34      1.29      0.00
   12   18   34      2.46      0.00
   12   20   34      0.12      0.00
   12   22   34     -2.34      0.00
   12   24   34      0.09      0.00
   12   26   34      4.75      0.00
   12   28   34      4.21      0.00
   12   30   34     -6.34      0.00
   14   14   34      1.34      0.00
   14   16   34     -1.13      0.00
   14   18   34     -3.27      0.00
   14   20   34      2.84      0.00
   14   22   34      1.37      0.00
   14   24   34      1.65      0.00
   14   26   34     -1.13      0.00
   14   28   34      0.33      0.00
   14   30   34      6.68      0.00
   16   16   34      1.48      0.00
   16   18   34      0.88      0.00
   16   20   34     -0.32      0.00
   16   22   34      1.69      0.00
   16   24   34     -1.53      0.00
   16   26   34     -0.60      0.00
   16   28   34      0.80      0.00
   18   18   34      2.57      0.00
   18   20   34      0.39      0.00
   18   22   34      0.64      0.00
   18   24   34     -0.97      0.00
   18   26   34     -1.69      0.00
   18   28   34     -0.34      0.00
   20   20   34     -5.81      0.00
   20   22   34     -1.46      0.00
   20   24   34     -2.92      0.00
   20   26   34      0.03      0.00
   22   22   34     -5.70      0.00
   22   24   34     -0.07      0.00
    1    1   35     -0.92      0.00
    1    3   35      1.26      0.00
    1    5   35     -0.66      0.00
    1    7   35      1.96      0.00
    1    9   35      1.75      0.00
    1   11   35      0.15      0.00
    1   13   35      2.21      0.00
    1   15   35     -1.48      0.00
    1   17   35     -0.42      0.00
    1   19   35     -0.92      0.00
    1   21   35     -1.48      0.00
    1   23   35     -0.15      0.00
    1   25   35      2.05      0.00
    1   27   35     -1.65      0.00
    1   29   35      0.96      0.00
    1   31   35      0.33      0.00
    3    3   35      0.12      0.00
    3    5   35      0.61      0.00
    3    7   35     -1.95      0.00
    3    9   35     -0.98      0.00
    3   11   35     -0.66      0.00
    3   13   35      0.36      0.00
    3   15   35      1.11      0.00
    3   17   35     -1.00      0.00
    3   19   35      0.14      0.00
    3   21   35      1.40      0.00
    3   23   35     -1.48      0.00
    3   25   35      0.06      0.00
    3   27   35      0.73      0.00
    3   29   35      0.00      0.00
    3   31   35     -1.97      0.00
    5    5   35      2.28      0.00
    5    7   35      1.69      0.00
    5    9   35      2.88      0.00
    5   11   35      0.59      0.00
    5   13   35     -1.04      0.00
    5   15   35     -1.86      0.00
    5   17   35     -3.69      0.00
    5   19   35     -0.13      0.00
    5   21   35      2.81      0.00
    5   23   35     -0.92      0.00
    5   25   35      0.62      0.00
    5   27   35     -0.40      0.00
    5   29   35     -2.26      0.00
    5   31   35     -1.35      0.00
    7    7   35     -0.96      0.00
    7    9   35      1.75      0.00
    7   11   35      0.14      0.00
    7   13   35     -3.45      0.00
    7   15   35      1.56      0.00
    7   17   35     -0.67      0.00
    7   19   35      0.73      0.00
    7   21   35      2.63      0.00
    7   23   35     -1.56      0.00
    7   25   35      0.58      0.00
    7   27   35      1.84      0.00
    7   29   35     -2.04      0.00
    7   31   35     -2.08      0.00
    9    9   35     -2.05      0.00
    9   11   35      1.49      0.00
    9   13   35      0.54      0.00
    9   15   35     -0.05      0.00
    9   17   35      3.12      0.00
    9   19   35      0.89      0.00
    9   21   35     -1.62      0.00
    9   23   35     -0.96      0.00
    9   25   35     -0.55      0.00
    9   27   35     -0.49      0.00
    9   29   35     -3.28      0.00
    9   31   35     -2.31      0.00
   11   11   35      2.01      0.00
   11   13   35     -0.83      0.00
   11   15   35      1.90      0.00
   11   17   35     -1.71      0.00
   11   19   35     -0.33      0.00
   11   21   35     -1.36      0.00
   11   23   35     -2.63      0.00
   11   25   35     -0.98      0.00
   11   27   35      1.42      0.00
   11   29   35      1.49      0.00
   13   13   35      2.17      0.00
   13   15   35      3.75      0.00
   13   17   35     -1.87      0.00
   13   19   35     -0.40      0.00
   13   21   35      1.07      0.00
   13   23   35     -0.61      0.00
   13   25   35     -2.94      0.00
   13   27   35      4.23      0.00
   13   29   35     -1.50      0.00
   15   15   35     -1.65      0.00
   15   17   35     -0.38      0.00
   15   19   35      0.61      0.00
   15   21   35      1.48      0.00
   15   23   35      1.83      0.00
   15   25   35     -0.96      0.00
   15   27   35     -1.72      0.00
   17   17   35     -2.42      0.00
   17   19   35      0.42      0.00
   17   21   35     -2.82      0.00
   17   23   35     -4.00      0.00
   17   25   35      1.95      0.00
   17   27   35      0.66      0.00
   19   19   35      0.85      0.00
   19   21   35     -2.78      0.00
   19   23   35      4.28      0.00
   19   25   35     -0.71      0.00
   21   21   35    -11.22      0.00
   21   23   35     -2.03      0.00
   23   23   35      7.91      0.00
    0    0   36     -3.55      0.00
    0    2   36      2.16      0.00
    0    4   36      1.86      0.00
    0    6   36      0.11      0.00
    0    8   36     -1.81      0.00
    0   10   36     -2.48      0.00
    0   12   36      0.34      0.00
    0   14   36     -3.50      0.00
    0   16   36     -1.72      0.00
    0   18   36      0.52      0.00
    0   20   36     -0.77      0.00
    0   22   36     -2.37      0.00
    0   24   36     -1.61      0.00
    0   26   36     -1.45      0.00
    0   28   36     -0.66      0.00
    0   30   36     -0.89      0.00
    2    2   36     -0.96      0.00
    2    4   36     -0.85      0.00
    2    6   36     -0.03      0.00
    2    8   36     -2.12      0.00
    2   10   36     -2.18      0.00
    2   12   36     -0.83      0.00
    2   14   36      1.58      0.00
    2   16   36      0.19      0.00
    2   18   36     -1.78      0.00
    2   20   36     -2.72      0.00
    2   22   36     -0.83      0.00
    2   24   36      0.42      0.00
    2   26   36      0.77      0.00
    2   28   36      3.13      0.00
    2   30   36      3.15      0.00
    4    4   36     -1.13      0.00
    4    6   36      1.36      0.00
    4    8   36     -3.52      0.00
    4   10   36      1.63      0.00
    4   12   36     -0.01      0.00
    4   14   36     -1.93      0.00
    4   16   36     -3.86      0.00
    4   18   36     -0.97      0.00
    4   20   36     -0.62      0.00
    4   22   36      0.65      0.00
    4   24   36      0.71      0.00
    4   26   36     -0.83      0.00
    4   28   36     -3.54      0.00
    4   30   36     -4.04      0.00
    6    6   36     -4.97      0.00
    6    8   36     -0.64      0.00
    6   10   36      1.80      0.00
    6   12   36     -0.18      0.00
    6   14   36      2.52      0.00
    6   16   36     -0.55      0.00
    6   18   36     -0.33      0.00
    6   20   36      1.25      0.00
    6   22   36     -3.86      0.00
    6   24   36     -1.49      0.00
    6   26   36     -1.70      0.00
    6   28   36     -1.48      0.00
    6   30   36     -5.65      0.00
    8    8   36      0.55      0.00
    8   10   36     -2.53      0.00
    8   12   36     -1.90      0.00
    8   14   36     -0.49      0.00
    8   16   36      1.02      0.00
    8   18   36     -1.43      0.00
    8   20   36      3.98      0.00
    8   22   36     -1.02      0.00
    8   24   36      1.00      0.00
    8   26   36      0.96      0.00
    8   28   36     -0.13      0.00
   10   10   36     -0.08      0.00
   10   12   36      0.43      0.00
   10   14   36     -2.11      0.00
   10   16   36      1.89      0.00
   10   18   36     -1.32      0.00
   10   20   36      1.72      0.00
   10   22   36     -3.39      0.00
   10   24   36     -3.35      0.00
   10   26   36     -5.51      0.00
   10   28   36     -0.77      0.00
   12   12   36     -1.67      0.00
   12   14   36      1.60      0.00
   12   16   36      2.19      0.00
   12   18   36     -4.25      0.00
   12   20   36      0.24      0.00
   12   22   36     -0.36      0.00
   12   24   36     -1.18      0.00
   12   26   36     -2.07      0.00
   12   28   36      1.47      0.00
   14   14   36     -2.39      0.00
   14   16   36     -0.25      0.00
   14   18   36     -0.51      0.00
   14   20   36     -0.87      0.00
   14   22   36     -0.62      0.00
   14   24   36     -5.73      0.00
   14   26   36     -2.14      0.00
   14   28   36      1.01      0.00
   16   16   36     -0.43      0.00
   16   18   36      0.17      0.00
   16   20   36     -1.91      0.00
   16   22   36     -5.17      0.00
   16   24   36      1.63      0.00
   16   26   36      0.71      0.00
   18   18   36     -1.57      0.00
   18   20   36     -0.40      0.00
   18   22   36      2.51      0.00
   18   24   36     -0.64      0.00
   20   20   36     -4.54      0.00
   20   22   36     -0.61      0.00
   20   24   36      3.78      0.00
   22   22   36      2.88      0.00
    8   30   36    -11.86      0.00
    1    1   37     -1.99      0.00
    1    3   37      2.86      0.00
    1    5   37     -0.66      0.00
    1    7   37      0.48      0.00
    1    9   37     -1.88      0.00
    1   11   37     -2.73      0.00
    1   13   37     -2.10      0.00
    1   15   37     -0.44      0.00
    1   17   37     -1.37      0.00
    1   19   37      1.22      0.00
    1   21   37      0.98      0.00
    1   23   37     -3.63      0.00
    1   25   37      0.16      0.00
    1   27   37     -0.37      0.00
    1   29   37      0.79      0.00
    3    3   37     -3.28      0.00
    3    5   37     -0.94      0.00
    3    7   37     -1.04      0.00
    3    9   37      1.43      0.00
    3   11   37     -3.07      0.00
    3   13   37     -2.08      0.00
    3   15   37      0.10      0.00
    3   17   37      0.62      0.00
    3   19   37      0.14      0.00
    3   21   37      0.30      0.00
    3   23   37     -2.02      0.00
    3   25   37      2.30      0.00
    3   27   37     -4.32      0.00
    3   29   37      0.31      0.00
    5    5   37      2.32      0.00
    5    7   37     -5.12      0.00
    5    9   37     -1.22      0.00
    5   11   37      3.95      0.00
    5   13   37      3.28      0.00
    5   15   37      2.04      0.00
    5   17   37     -1.89      0.00
    5   19   37      3.18      0.00
    5   21   37     -1.70      0.00
    5   23   37     -0.50      0.00
    5   25   37      0.67      0.00
    5   27   37     -1.26      0.00
    5   29   37     -6.51      0.00
    7    7   37     -3.33      0.00
    7    9   37      1.22      0.00
    7   11   37     -1.26      0.00
    7   13   37      4.10      0.00
    7   15   37      1.52      0.00
    7   17   37     -0.65      0.00
    7   19   37      1.04      0.00
    7   21   37      1.55      0.00
    7   23   37     -0.21      0.00
    7   25   37      1.57      0.00
    7   27   37     -3.78      0.00
    9    9   37      1.71      0.00
    9   11   37      0.76      0.00
    9   13   37     -1.07      0.00
    9   15   37      3.11      0.00
    9   17   37     -0.66      0.00
    9   19   37     -0.05      0.00
    9   21   37      5.77      0.00
    9   23   37     -1.60      0.00
    9   25   37      1.66      0.00
    9   27   37      0.93      0.00
   11   11   37      2.52      0.00
   11   13   37     -2.71      0.00
   11   15   37      1.84      0.00
   11   17   37     -0.34      0.00
   11   19   37     -1.59      0.00
   11   21   37      2.22      0.00
   11   23   37      1.51      0.00
   11   25   37     -0.93      0.00
   11   27   37     -0.48      0.00
   13   13   37      3.94      0.00
   13   15   37      0.03      0.00
   13   17   37      4.51      0.00
   13   19   37     -1.56      0.00
   13   21   37     -3.11      0.00
   13   23   37     -1.67      0.00
   13   25   37     -3.01      0.00
   13   27   37      1.49      0.00
   15   15   37      3.55      0.00
   15   17   37      1.14      0.00
   15   19   37      4.57      0.00
   15   21   37     -2.89      0.00
   15   23   37     -4.91      0.00
   15   25   37     -0.27      0.00
   17   17   37     -2.26      0.00
   17   19   37     -2.37      0.00
   17   21   37     -4.20      0.00
   17   23   37      0.09      0.00
   17   25   37     -0.15      0.00
   19   19   37      1.81      0.00
   19   21   37      7.05      0.00
   19   23   37      2.96      0.00
   21   21   37    -11.69      0.00
    7   29   37     -3.91      0.00
    0    0   38     -1.27      0.00
    0    2   38      1.46      0.00
    0    4   38      2.22      0.00
    0    6   38      3.46      0.00
    0    8   38      1.13      0.00
    0   10   38      0.35      0.00
    0   12   38      0.48      0.00
    0   14   38     -4.31      0.00
    0   16   38      0.74      0.00
    0   18   38     -1.23      0.00
    0   20   38      4.07      0.00
    0   22   38      2.01      0.00
    0   24   38     -1.43      0.00
    0   26   38     -0.71      0.00
    0   28   38      2.17      0.00
    2    2   38      0.72      0.00
    2    4   38     -2.71      0.00
    2    6   38      0.78      0.00
    2    8   38      3.62      0.00
    2   10   38      0.85      0.00
    2   12   38     -1.92      0.00
    2   14   38     -1.78      0.00
    2   16   38     -0.76      0.00
    2   18   38      0.77      0.00
    2   20   38      0.58      0.00
    2   22   38      0.26      0.00
    2   24   38      1.12      0.00
    2   26   38      0.17      0.00
    2   28   38     -1.39      0.00
    4    4   38     -0.39      0.00
    4    6   38      2.29      0.00
    4    8   38      0.38      0.00
    4   10   38     -0.97      0.00
    4   12   38     -3.70      0.00
    4   14   38      0.63      0.00
    4   16   38     -3.88      0.00
    4   18   38      3.21      0.00
    4   20   38      3.68      0.00
    4   22   38      0.39      0.00
    4   24   38      1.38      0.00
    4   26   38      1.95      0.00
    4   28   38     -2.10      0.00
    6    6   38     -2.31      0.00
    6    8   38     -4.52      0.00
    6   10   38      0.20      0.00
    6   12   38      2.68      0.00
    6   14   38      7.31      0.00
    6   16   38      2.49      0.00
    6   18   38      1.49      0.00
    6   20   38     -0.56      0.00
    6   22   38     -0.86      0.00
    6   24   38      0.90      0.00
    6   26   38     -6.04      0.00
    6   28   38     -2.62      0.00
    8    8   38      2.27      0.00
    8   10   38      3.88      0.00
    8   12   38      2.66      0.00
    8   14   38      1.83      0.00
    8   16   38     -0.18      0.00
    8   18   38     -2.47      0.00
    8   20   38      5.63      0.00
    8   22   38      1.96      0.00
    8   24   38      6.06      0.00
    8   26   38      1.55      0.00
   10   10   38      1.68      0.00
   10   12   38      2.71      0.00
   10   14   38     -1.24      0.00
   10   16   38      4.70      0.00
   10   18   38     -3.24      0.00
   10   20   38      3.01      0.00
   10   22   38     -0.42      0.00
   10   24   38      3.63      0.00
   10   26   38      2.79      0.00
   12   12   38      5.46      0.00
   12   14   38      0.37      0.00
   12   16   38      4.93      0.00
   12   18   38     -0.78      0.00
   12   20   38     -1.09      0.00
   12   22   38      3.20      0.00
   12   24   38      2.91      0.00
   12   26   38      2.42      0.00
   14   14   38      1.62      0.00
   14   16   38      1.97      0.00
   14   18   38      3.36      0.00
   14   20   38      1.30      0.00
   14   22   38     -7.82      0.00
   14   24   38     -0.20      0.00
   16   16   38      4.62      0.00
   16   18   38     -1.87      0.00
   16   20   38     -0.30      0.00
   16   22   38      0.77      0.00
   16   24   38     -2.82      0.00
   18   18   38     -0.64      0.00
   18   20   38      2.95      0.00
   18   22   38      1.57      0.00
   20   20   38      2.64      0.00
    1    1   39      1.22      0.00
    1    3   39      0.13      0.00
    1    5   39     -0.86      0.00
    1    7   39      1.69      0.00
    1    9   39      2.31      0.00
    1   11   39      1.95      0.00
    1   13   39      0.65      0.00
    1   15   39      0.96      0.00
    1   17   39      1.36      0.00
    1   19   39     -2.98      0.00
    1   21   39      4.01      0.00
    1   23   39      0.48      0.00
    1   25   39      1.07      0.00
    1   27   39     -0.26      0.00
    3    3   39     -1.95      0.00
    3    5   39      0.26      0.00
    3    7   39      2.77      0.00
    3    9   39      1.48      0.00
    3   11   39     -1.98      0.00
    3   13   39     -3.19      0.00
    3   15   39     -2.98      0.00
    3   17   39     -5.58      0.00
    3   19   39      3.90      0.00
    3   21   39      0.86      0.00
    3   23   39      0.47      0.00
    3   25   39      0.14      0.00
    5    5   39      1.42      0.00
    5    7   39     -0.90      0.00
    5    9   39      2.19      0.00
    5   11   39     -8.64      0.00
    5   13   39     -0.16      0.00
    5   15   39      2.22      0.00
    5   17   39      0.93      0.00
    5   19   39      0.34      0.00
    5   21   39     -0.28      0.00
    5   23   39      0.72      0.00
    5   25   39      3.27      0.00
    5   27   39     -3.88      0.00
    7    7   39     -2.99      0.00
    7    9   39      0.37      0.00
    7   11   39      0.72      0.00
    7   13   39     -0.03      0.00
    7   15   39      0.37      0.00
    7   17   39     -2.97      0.00
    7   19   39      0.41      0.00
    7   21   39      0.13      0.00
    7   23   39     -1.54      0.00
    7   25   39     -4.47      0.00
    9    9   39      1.81      0.00
    9   11   39      1.73      0.00
    9   13   39      2.92      0.00
    9   15   39     -0.14      0.00
    9   17   39     -1.20      0.00
    9   19   39     -0.31      0.00
    9   21   39     -1.34      0.00
    9   23   39      0.07      0.00
    9   25   39      5.07      0.00
   11   11   39      0.04      0.00
   11   13   39      1.17      0.00
   11   15   39     -4.70      0.00
   11   17   39      2.98      0.00
   11   19   39     -2.91      0.00
   11   21   39     -0.88      0.00
   11   23   39      1.68      0.00
   11   25   39      4.86      0.00
   13   13   39     -0.99      0.00
   13   15   39      2.48      0.00
   13   17   39     -3.47      0.00
   13   19   39     -1.46      0.00
   13   21   39      1.27      0.00
   13   23   39     -2.96      0.00
   15   15   39     -2.05      0.00
   15   17   39      0.62      0.00
   15   19   39      0.50      0.00
   15   21   39      1.45      0.00
   15   23   39     -0.60      0.00
   17   17   39     -1.28      0.00
   17   19   39      1.10      0.00
   17   21   39      0.67      0.00
   19   19   39     11.06      0.00
    3   27   39     -0.75      0.00
    0    0   40     -2.03      0.00
    0    2   40      2.52      0.00
    0    4   40     -0.68      0.00
    0    6   40     -0.67      0.00
    0    8   40      2.62      0.00
    0   10   40     -0.39      0.00
    0   12   40      1.15      0.00
    0   14   40      0.17      0.00
    0   16   40      4.34      0.00
    0   18   40     -0.26      0.00
    0   20   40     -4.39      0.00
    0   22   40      1.78      0.00
    0   24   40      0.60      0.00
    0   26   40     -1.43      0.00
    2    2   40     -0.66      0.00
    2    4   40     -2.59      0.00
    2    6   40     -0.63      0.00
    2    8   40      0.25      0.00
    2   10   40     -2.00      0.00
    2   12   40      3.41      0.00
    2   14   40      1.39      0.00
    2   16   40     -0.42      0.00
    2   18   40     -1.17      0.00
    2   20   40      0.07      0.00
    2   22   40      0.30      0.00
    2   24   40     -3.57      0.00
    2   26   40     -1.85      0.00
    4    4   40      1.44      0.00
    4    6   40      0.15      0.00
    4    8   40      0.85      0.00
    4   10   40     -0.20      0.00
    4   12   40     -6.62      0.00
    4   14   40     -1.26      0.00
    4   16   40     -1.40      0.00
    4   18   40     -0.53      0.00
    4   20   40      0.33      0.00
    4   22   40      1.53      0.00
    4   24   40      3.71      0.00
    6    6   40     -1.76      0.00
    6    8   40      2.74      0.00
    6   10   40     -0.07      0.00
    6   12   40     -5.34      0.00
    6   14   40     -0.11      0.00
    6   16   40      0.38      0.00
    6   18   40      0.91      0.00
    6   20   40     -2.70      0.00
    6   22   40     -3.47      0.00
    6   24   40     -2.20      0.00
    8    8   40     -0.93      0.00
    8   10   40     -1.95      0.00
    8   12   40      2.65      0.00
    8   14   40     -2.12      0.00
    8   16   40     -2.04      0.00
    8   18   40     -1.52      0.00
    8   20   40      1.27      0.00
    8   22   40     -0.97      0.00
    8   24   40     -1.34      0.00
   10   10   40     -1.96      0.00
   10   12   40      0.63      0.00
   10   14   40     -0.92      0.00
   10   16   40     -1.44      0.00
   10   18   40      0.21      0.00
   10   20   40     -1.17      0.00
   10   22   40     -5.25      0.00
   10   24   40      1.52      0.00
   12   12   40      3.53      0.00
   12   14   40     -3.15      0.00
   12   16   40      1.15      0.00
   12   18   40     -2.07      0.00
   12   20   40      2.49      0.00
   12   22   40     -3.53      0.00
   14   14   40     -0.73      0.00
   14   16   40      2.47      0.00
   14   18   40     -5.30      0.00
   14   20   40     -0.11      0.00
   14   22   40      4.10      0.00
   16   16   40     -3.84      0.00
   16   18   40      1.69      0.00
   16   20   40      4.25      0.00
   18   18   40      4.23      0.00
    1    1   41      0.15      0.00
    1    3   41     -0.74      0.00
    1    5   41      1.22      0.00
    1    7   41      1.54      0.00
    1    9   41     -0.17      0.00
    1   11   41      0.89      0.00
    1   13   41     -1.31      0.00
    1   15   41      0.88      0.00
    1   17   41      1.32      0.00
    1   19   41     -1.74      0.00
    1   21   41     -1.92      0.00
    1   23   41      1.16      0.00
    3    3   41      0.40      0.00
    3    5   41     -0.35      0.00
    3    7   41     -0.16      0.00
    3    9   41      0.74      0.00
    3   11   41     -1.56      0.00
    3   13   41      2.62      0.00
    3   15   41     -1.25      0.00
    3   17   41      0.59      0.00
    3   19   41     -1.84      0.00
    3   21   41      2.98      0.00
    3   23   41     -2.04      0.00
    5    5   41      0.14      0.00
    5    7   41     -1.33      0.00
    5    9   41      1.24      0.00
    5   11   41     -1.45      0.00
    5   13   41      0.82      0.00
    5   15   41      3.29      0.00
    5   17   41      4.43      0.00
    5   19   41      1.64      0.00
    5   21   41     -1.59      0.00
    5   23   41      3.01      0.00
    7    7   41     -0.92      0.00
    7    9   41      0.86      0.00
    7   11   41     -1.70      0.00
    7   13   41     -1.77      0.00
    7   15   41     -0.29      0.00
    7   17   41      1.39      0.00
    7   19   41      2.06      0.00
    7   21   41     -0.71      0.00
    9    9   41     -0.48      0.00
    9   11   41     -0.39      0.00
    9   13   41      5.73      0.00
    9   15   41      1.79      0.00
    9   17   41      0.41      0.00
    9   19   41      3.31      0.00
    9   21   41      1.59      0.00
   11   11   41      1.52      0.00
   11   13   41      3.68      0.00
   11   15   41      0.77      0.00
   11   17   41      1.93      0.00
   11   19   41      1.76      0.00
   11   21   41      0.82      0.00
   13   13   41      6.10      0.00
   13   15   41      1.66      0.00
   13   17   41      4.86      0.00
   13   19   41     -1.88      0.00
   15   15   41      3.78      0.00
   15   17   41      0.25      0.00
   15   19   41     -0.74      0.00
   17   17   41     -1.52      0.00
    7   23   41      0.90      0.00
    0    0   42     -3.31      0.00
    0    2   42     -2.39      0.00
    0    4   42      3.02      0.00
    0    6   42      3.48      0.00
    0    8   42      4.25      0.00
    0   10   42     -0.46      0.00
    0   12   42     -1.59      0.00
    0   14   42     -3.49      0.00
    0   16   42     -3.57      0.00
    0   18   42     -0.66      0.00
    0   20   42     -2.06      0.00
    0   22   42      2.82      0.00
    2    2   42      0.88      0.00
    2    4   42      0.41      0.00
    2    6   42      0.47      0.00
    2    8   42     -0.52      0.00
    2   10   42      0.87      0.00
    2   12   42      1.19      0.00
    2   14   42     -0.42      0.00
    2   16   42      1.94      0.00
    2   18   42      0.18      0.00
    2   20   42      0.92      0.00
    2   22   42      1.00      0.00
    4    4   42      2.56      0.00
    4    6   42     -1.04      0.00
    4    8   42      1.91      0.00
    4   10   42     -5.10      0.00
    4   12   42      4.78      0.00
    4   14   42      1.55      0.00
    4   16   42     -0.04      0.00
    4   18   42      1.77      0.00
    4   20   42     -0.78      0.00
    4   22   42      2.50      0.00
    6    6   42      1.94      0.00
    6    8   42     -1.08      0.00
    6   10   42      0.89      0.00
    6   12   42      1.52      0.00
    6   14   42      0.85      0.00
    6   16   42      5.32      0.00
    6   18   42      1.92      0.00
    6   20   42     -0.92      0.00
    6   22   42      1.06      0.00
    8    8   42     -2.81      0.00
    8   10   42      2.32      0.00
    8   12   42     -2.92      0.00
    8   14   42      1.77      0.00
    8   16   42      2.89      0.00
    8   18   42      2.17      0.00
    8   20   42      3.92      0.00
   10   10   42     -0.41      0.00
   10   12   42      3.60      0.00
   10   14   42      1.42      0.00
   10   16   42      2.29      0.00
   10   18   42     -1.30      0.00
   10   20   42      2.51      0.00
   12   12   42      6.74      0.00
   12   14   42      3.49      0.00
   12   16   42     -1.06      0.00
   12   18   42      2.21      0.00
   14   14   42      0.00      0.00
   14   16   42      0.88      0.00
   14   18   42      1.41      0.00
   16   16   42      3.83      0.00
    1    1   43     -2.59      0.00
    1    3   43      1.14      0.00
    1    5   43      1.18      0.00
    1    7   43     -2.28      0.00
    1    9   43      0.02      0.00
    1   11   43      0.52      0.00
    1   13   43     -0.75      0.00
    1   15   43     -0.84      0.00
    1   17   43     -0.21      0.00
    1   19   43      0.61      0.00
    3    3   43     -3.25      0.00
    3    5   43      1.93      0.00
    3    7   43      0.82      0.00
    3    9   43     -3.97      0.00
    3   11   43     -1.63      0.00
    3   13   43      2.85      0.00
    3   15   43     -3.62      0.00
    3   17   43     -1.30      0.00
    3   19   43     -1.44      0.00
    5    5   43     -0.53      0.00
    5    7   43      1.80      0.00
    5    9   43     -0.60      0.00
    5   11   43      1.90      0.00
    5   13   43      3.34      0.00
    5   15   43      0.69      0.00
    5   17   43     -0.72      0.00
    5   19   43     -4.79      0.00
    7    7   43      0.79      0.00
    7    9   43      1.71      0.00
    7   11   43     -3.13      0.00
    7   13   43     -1.44      0.00
    7   15   43     -3.68      0.00
    7   17   43      1.22      0.00
    9    9   43      3.39      0.00
    9   11   43      0.07      0.00
    9   13   43     -3.48      0.00
    9   15   43      1.43      0.00
    9   17   43      0.25      0.00
   11   11   43     -3.86      0.00
   11   13   43      1.94      0.00
   11   15   43     -3.19      0.00
   11   17   43     -5.35      0.00
   13   13   43      2.11      0.00
   13   15   43     -8.21      0.00
    7   19   43     -1.11      0.00
    0    2   44     -0.70      0.00
    0    4   44     -1.33      0.00
    0    6   44     -1.83      0.00
    0    8   44     -0.91      0.00
    0   10   44      1.36      0.00
    0   12   44      0.06      0.00
    0   14   44     -2.19      0.00
    0   16   44     -1.10      0.00
    2    2   44     -0.64      0.00
    2    4   44      3.83      0.00
    2    6   44     -4.67      0.00
    2    8   44     -0.56      0.00
    2   10   44     -1.82      0.00
    2   12   44      1.23      0.00
    2   14   44      1.58      0.00
    2   16   44     -1.81      0.00
    2   18   44      2.05      0.00
    4    4   44     -6.69      0.00
    4    6   44      1.72      0.00
    4    8   44     -0.24      0.00
    4   10   44     -3.16      0.00
    4   12   44     -1.15      0.00
    4   14   44     -0.56      0.00
    4   16   44     -1.46      0.00
    4   18   44     -8.74      0.00
    6    6   44     -1.93      0.00
    6    8   44      0.45      0.00
    6   10   44      3.63      0.00
    6   12   44      2.62      0.00
    6   14   44     -2.49      0.00
    6   16   44     -3.05      0.00
    8    8   44     -0.22      0.00
    8   10   44     -0.50      0.00
    8   12   44     -2.34      0.00
    8   14   44     -3.27      0.00
   10   10   44      0.48      0.00
   10   12   44     -2.45      0.00
   10   14   44      0.66      0.00
   12   12   44      0.45      0.00
   12   14   44     -1.33      0.00
    0   18   44     -2.05      0.00
    1    3   45     -1.84      0.00
    1    5   45      2.56      0.00
    1    7   45     -0.49      0.00
    1    9   45      1.75      0.00
    1   11   45      1.76      0.00
    1   13   45      2.09      0.00
    1   15   45     -2.56      0.00
    3    3   45      5.90      0.00
    3    5   45     -0.60      0.00
    3    7   45     -0.97      0.00
    3    9   45      4.22      0.00
    3   11   45     -3.72      0.00
    3   13   45     -5.73      0.00
    3   15   45      3.41      0.00
    5    5   45     -4.96      0.00
    5    7   45      2.13      0.00
    5    9   45      0.27      0.00
    5   11   45     -0.90      0.00
    5   13   45      5.91      0.00
    5   15   45     -4.48      0.00
    7    7   45     -6.68      0.00
    7    9   45     -0.55      0.00
    7   11   45      2.77      0.00
    7   13   45     -2.36      0.00
    9    9   45     -0.30      0.00
    9   11   45     -1.37      0.00
    9   13   45      5.87      0.00
   11   11   45     -0.46      0.00
    0    4   46      4.27      0.00
    0    6   46     -4.36      0.00
    0    8   46      0.50      0.00
    0   10   46      0.98      0.00
    2    4   46      3.12      0.00
    2    6   46      4.04      0.00
    2    8   46      3.80      0.00
    2   10   46      2.12      0.00
    4    4   46      4.48      0.00
    4    6   46      1.86      0.00
    4    8   46      2.92      0.00
    4   10   46      2.29      0.00
    4   12   46     -6.84      0.00
    6    6   46      0.72      0.00
    6    8   46     -0.70      0.00
    6   10   46      1.50      0.00
    8    8   46     -3.82      0.00
    8   10   46      0.00      0.00
    0   12   46      1.86      0.00
    2   12   46     -2.80      0.00
    1    5   47      0.12      0.00
    1    7   47     -6.10      0.00
    3    3   47     -0.40      0.00
    3    5   47      3.20      0.00
    3    7   47      6.42      0.00
    5    5   47      9.20      0.00
    5    7   47     -3.68      0.00
    1    1    1    146.93      0.00
    0    0    2    128.48      0.00
    0    0    0      0.00      0.00
# SQUEEZE RESULTS (Version = 230318)
# Note: Data are Listed for all Voids in the P1 Unit Cell
# i.e. Centre of Gravity, Solvent Accessible Volume,
# Recovered number of Electrons in the Void and
# Details about the Squeezed Material
loop_
  _platon_squeeze_void_nr
  _platon_squeeze_void_average_x
  _platon_squeeze_void_average_y
  _platon_squeeze_void_average_z
  _platon_squeeze_void_volume
  _platon_squeeze_void_count_electrons
  _platon_squeeze_void_content
   1 -0.009 -0.005 -0.004     10712       765 ' '
# Missing Reflections Below sin(th)/lambda = 0.25
loop_
  _platon_missing_refln_index_h
  _platon_missing_refln_index_k
  _platon_missing_refln_index_l
  _platon_missing_refln_theta
    1    1    1     1.389
    0    0    2     1.603
_platon_squeeze_void_probe_radius                  1.20
_platon_squeeze_details
)
TITL mo_VK255_2_0m_a.res in Fm-3m
CELL   25.4003   25.4003   25.4003     90.00     90.00     90.00
SPGR Fm-3m
# Solvent Accessible Volume =     10782
# Electrons Found in S.A.V. =       732
# Note: Atoms in Void are Labelled as Cxxx and Qxxx for all Others
C101 0.500 0.497 0.242 !       2.51 eA-3
C102 1.000 0.505 0.211 !       1.73 eA-3
C103 0.023 0.480 0.219 !       1.13 eA-3
C104 1.000 0.472 0.220 !       1.13 eA-3
Q105 0.928 0.424 0.073 !       0.82 eA-3
Q106 0.891 0.500 0.000 !       0.79 eA-3
Q107 0.955 0.959 0.547 !       0.77 eA-3
Q108 0.955 0.459 0.047 !       0.77 eA-3
Q109 0.539 0.049 0.951 !       0.77 eA-3
C110 0.797 0.297 0.203 !       0.75 eA-3
C111 0.500 0.500 0.000 !       0.69 eA-3
Q112 0.024 0.023 0.477 !       0.63 eA-3
C113 0.945 0.056 0.227 !       0.60 eA-3
Q114 0.952 0.044 0.423 !       0.57 eA-3
C115 0.250 0.250 0.250 !       0.56 eA-3
C116 0.967 0.046 0.221 !       0.56 eA-3
C117 0.467 0.546 0.221 !       0.56 eA-3
Q118 0.968 0.406 0.094 !       0.55 eA-3
C119 0.344 0.500 0.000 !       0.54 eA-3
C120 0.964 0.060 0.250 !       0.53 eA-3
C121 0.983 0.062 0.220 !       0.53 eA-3
C122 0.957 0.073 0.209 !       0.52 eA-3
Q123 0.036 0.122 0.378 !       0.52 eA-3
C124 0.939 0.064 0.210 !       0.52 eA-3
Q125 0.063 0.558 0.969 !       0.51 eA-3
C126 0.040 0.460 0.303 !       0.51 eA-3
C127 0.016 0.468 0.298 !       0.50 eA-3
)
;
_shelx_fab_checksum              87464
loop_
_space_group_symop_operation_xyz
'x, y, z'
'-x, -y, z'
'-x, y, -z'
'x, -y, -z'
'z, x, y'
'z, -x, -y'
'-z, -x, y'
'-z, x, -y'
'y, z, x'
'-y, z, -x'
'y, -z, -x'
'-y, -z, x'
'y, x, -z'
'-y, -x, -z'
'y, -x, z'
'-y, x, z'
'x, z, -y'
'-x, z, y'
'-x, -z, -y'
'x, -z, y'
'z, y, -x'
'z, -y, x'
'-z, y, x'
'-z, -y, -x'
'x, y+1/2, z+1/2'
'-x, -y+1/2, z+1/2'
'-x, y+1/2, -z+1/2'
'x, -y+1/2, -z+1/2'
'z, x+1/2, y+1/2'
'z, -x+1/2, -y+1/2'
'-z, -x+1/2, y+1/2'
'-z, x+1/2, -y+1/2'
'y, z+1/2, x+1/2'
'-y, z+1/2, -x+1/2'
'y, -z+1/2, -x+1/2'
'-y, -z+1/2, x+1/2'
'y, x+1/2, -z+1/2'
'-y, -x+1/2, -z+1/2'
'y, -x+1/2, z+1/2'
'-y, x+1/2, z+1/2'
'x, z+1/2, -y+1/2'
'-x, z+1/2, y+1/2'
'-x, -z+1/2, -y+1/2'
'x, -z+1/2, y+1/2'
'z, y+1/2, -x+1/2'
'z, -y+1/2, x+1/2'
'-z, y+1/2, x+1/2'
'-z, -y+1/2, -x+1/2'
'x+1/2, y, z+1/2'
'-x+1/2, -y, z+1/2'
'-x+1/2, y, -z+1/2'
'x+1/2, -y, -z+1/2'
'z+1/2, x, y+1/2'
'z+1/2, -x, -y+1/2'
'-z+1/2, -x, y+1/2'
'-z+1/2, x, -y+1/2'
'y+1/2, z, x+1/2'
'-y+1/2, z, -x+1/2'
'y+1/2, -z, -x+1/2'
'-y+1/2, -z, x+1/2'
'y+1/2, x, -z+1/2'
'-y+1/2, -x, -z+1/2'
'y+1/2, -x, z+1/2'
'-y+1/2, x, z+1/2'
'x+1/2, z, -y+1/2'
'-x+1/2, z, y+1/2'
'-x+1/2, -z, -y+1/2'
'x+1/2, -z, y+1/2'
'z+1/2, y, -x+1/2'
'z+1/2, -y, x+1/2'
'-z+1/2, y, x+1/2'
'-z+1/2, -y, -x+1/2'
'x+1/2, y+1/2, z'
'-x+1/2, -y+1/2, z'
'-x+1/2, y+1/2, -z'
'x+1/2, -y+1/2, -z'
'z+1/2, x+1/2, y'
'z+1/2, -x+1/2, -y'
'-z+1/2, -x+1/2, y'
'-z+1/2, x+1/2, -y'
'y+1/2, z+1/2, x'
'-y+1/2, z+1/2, -x'
'y+1/2, -z+1/2, -x'
'-y+1/2, -z+1/2, x'
'y+1/2, x+1/2, -z'
'-y+1/2, -x+1/2, -z'
'y+1/2, -x+1/2, z'
'-y+1/2, x+1/2, z'
'x+1/2, z+1/2, -y'
'-x+1/2, z+1/2, y'
'-x+1/2, -z+1/2, -y'
'x+1/2, -z+1/2, y'
'z+1/2, y+1/2, -x'
'z+1/2, -y+1/2, x'
'-z+1/2, y+1/2, x'
'-z+1/2, -y+1/2, -x'
'-x, -y, -z'
'x, y, -z'
'x, -y, z'
'-x, y, z'
'-z, -x, -y'
'-z, x, y'
'z, x, -y'
'z, -x, y'
'-y, -z, -x'
'y, -z, x'
'-y, z, x'
'y, z, -x'
'-y, -x, z'
'y, x, z'
'-y, x, -z'
'y, -x, -z'
'-x, -z, y'
'x, -z, -y'
'x, z, y'
'-x, z, -y'
'-z, -y, x'
'-z, y, -x'
'z, -y, -x'
'z, y, x'
'-x, -y+1/2, -z+1/2'
'x, y+1/2, -z+1/2'
'x, -y+1/2, z+1/2'
'-x, y+1/2, z+1/2'
'-z, -x+1/2, -y+1/2'
'-z, x+1/2, y+1/2'
'z, x+1/2, -y+1/2'
'z, -x+1/2, y+1/2'
'-y, -z+1/2, -x+1/2'
'y, -z+1/2, x+1/2'
'-y, z+1/2, x+1/2'
'y, z+1/2, -x+1/2'
'-y, -x+1/2, z+1/2'
'y, x+1/2, z+1/2'
'-y, x+1/2, -z+1/2'
'y, -x+1/2, -z+1/2'
'-x, -z+1/2, y+1/2'
'x, -z+1/2, -y+1/2'
'x, z+1/2, y+1/2'
'-x, z+1/2, -y+1/2'
'-z, -y+1/2, x+1/2'
'-z, y+1/2, -x+1/2'
'z, -y+1/2, -x+1/2'
'z, y+1/2, x+1/2'
'-x+1/2, -y, -z+1/2'
'x+1/2, y, -z+1/2'
'x+1/2, -y, z+1/2'
'-x+1/2, y, z+1/2'
'-z+1/2, -x, -y+1/2'
'-z+1/2, x, y+1/2'
'z+1/2, x, -y+1/2'
'z+1/2, -x, y+1/2'
'-y+1/2, -z, -x+1/2'
'y+1/2, -z, x+1/2'
'-y+1/2, z, x+1/2'
'y+1/2, z, -x+1/2'
'-y+1/2, -x, z+1/2'
'y+1/2, x, z+1/2'
'-y+1/2, x, -z+1/2'
'y+1/2, -x, -z+1/2'
'-x+1/2, -z, y+1/2'
'x+1/2, -z, -y+1/2'
'x+1/2, z, y+1/2'
'-x+1/2, z, -y+1/2'
'-z+1/2, -y, x+1/2'
'-z+1/2, y, -x+1/2'
'z+1/2, -y, -x+1/2'
'z+1/2, y, x+1/2'
'-x+1/2, -y+1/2, -z'
'x+1/2, y+1/2, -z'
'x+1/2, -y+1/2, z'
'-x+1/2, y+1/2, z'
'-z+1/2, -x+1/2, -y'
'-z+1/2, x+1/2, y'
'z+1/2, x+1/2, -y'
'z+1/2, -x+1/2, y'
'-y+1/2, -z+1/2, -x'
'y+1/2, -z+1/2, x'
'-y+1/2, z+1/2, x'
'y+1/2, z+1/2, -x'
'-y+1/2, -x+1/2, z'
'y+1/2, x+1/2, z'
'-y+1/2, x+1/2, -z'
'y+1/2, -x+1/2, -z'
'-x+1/2, -z+1/2, y'
'x+1/2, -z+1/2, -y'
'x+1/2, z+1/2, y'
'-x+1/2, z+1/2, -y'
'-z+1/2, -y+1/2, x'
'-z+1/2, y+1/2, -x'
'z+1/2, -y+1/2, -x'
'z+1/2, y+1/2, x'
loop_
_atom_site_label
_atom_site_type_symbol
_atom_site_fract_x
_atom_site_fract_y
_atom_site_fract_z
_atom_site_U_iso_or_equiv
_atom_site_adp_type
_atom_site_occupancy
_atom_site_site_symmetry_order
_atom_site_calc_flag
_atom_site_refinement_flags_posn
_atom_site_refinement_flags_adp
_atom_site_refinement_flags_occupancy
_atom_site_disorder_assembly
_atom_site_disorder_group
Ni1 Ni 0.44128(2) 0.44128(2) 0.44128(2) 0.00866(8) Uani 1 6 d S T P . .
C1 C 0.25673(9) 0.28187(8) 0.54295(8) 0.0474(8) Uani 0.5 1 d D . P A -1
H3 H 0.2634(11) 0.3013(10) 0.5740(8) 0.068(9) Uiso 0.5 1 d D . P B -1
O1 O 0.500000 0.42108(5) 0.500000 0.0096(3) Uani 1 8 d DS T P . .
H1 H 0.500000 0.3900(7) 0.500000 0.040(11) Uiso 1 8 d DS . P . .
N1 N 0.38994(2) 0.38994(2) 0.47335(3) 0.01676(19) Uani 1 2 d S T P . .
C2 C 0.35446(3) 0.35446(3) 0.45695(5) 0.0250(3) Uani 1 2 d S T P . .
H2 H 0.3491(4) 0.3491(4) 0.4208(7) 0.030 Uiso 1 2 d S U P . .
C3 C 0.33029(4) 0.33029(4) 0.500000 0.0255(4) Uani 1 4 d S T P A .
C4 C 0.28951(5) 0.28951(5) 0.500000 0.0318(4) Uani 1 4 d S T P . .
loop_
_atom_site_aniso_label
_atom_site_aniso_U_11
_atom_site_aniso_U_22
_atom_site_aniso_U_33
_atom_site_aniso_U_23
_atom_site_aniso_U_13
_atom_site_aniso_U_12
Ni1 0.00866(8) 0.00866(8) 0.00866(8) -0.00084(4) -0.00084(4) -0.00084(4)
C1 0.0568(15) 0.0542(14) 0.0313(9) -0.0190(8) 0.0163(9) -0.0462(13)
O1 0.0105(4) 0.0078(6) 0.0105(4) 0.000 0.000 0.000
N1 0.0175(3) 0.0175(3) 0.0152(4) -0.0004(2) -0.0004(2) -0.0067(3)
C2 0.0278(4) 0.0278(4) 0.0194(5) -0.0013(3) -0.0013(3) -0.0175(5)
C3 0.0272(5) 0.0272(5) 0.0222(8) 0.000 0.000 -0.0174(7)
C4 0.0350(6) 0.0350(6) 0.0255(8) 0.000 0.000 -0.0251(8)
loop_
_atom_type_symbol
_atom_type_description
_atom_type_scat_dispersion_real
_atom_type_scat_dispersion_imag
_atom_type_scat_source
C C 0.0033 0.0016 'International Tables Vol C Tables 4.2.6.8 and 6.1.1.4'
H H 0.0000 0.0000 'International Tables Vol C Tables 4.2.6.8 and 6.1.1.4'
N N 0.0061 0.0033 'International Tables Vol C Tables 4.2.6.8 and 6.1.1.4'
Ni Ni 0.3393 1.1124 'International Tables Vol C Tables 4.2.6.8 and 6.1.1.4'
O O 0.0106 0.0060 'International Tables Vol C Tables 4.2.6.8 and 6.1.1.4'
loop_
_geom_angle_atom_site_label_1
_geom_angle_atom_site_label_2
_geom_angle_atom_site_label_3
_geom_angle
_geom_angle_site_symmetry_1
_geom_angle_site_symmetry_3
_geom_angle_publ_flag
N1 Ni1 N1 95.98(3) . 5 ?
N1 Ni1 N1 95.98(3) . 9 ?
N1 Ni1 N1 95.98(3) 5 9 ?
N1 Ni1 O1 90.80(3) . 9 ?
N1 Ni1 O1 169.85(4) 5 9 ?
N1 Ni1 O1 90.80(3) 9 9 ?
N1 Ni1 O1 169.84(4) . 5 ?
N1 Ni1 O1 90.80(3) 5 5 ?
N1 Ni1 O1 90.80(3) 9 5 ?
O1 Ni1 O1 81.53(5) 9 5 ?
N1 Ni1 O1 90.80(3) . . ?
N1 Ni1 O1 90.80(3) 5 . ?
N1 Ni1 O1 169.85(4) 9 . ?
O1 Ni1 O1 81.54(5) 9 . ?
O1 Ni1 O1 81.54(5) 5 . ?
N1 Ni1 Ni1 66.17(3) . 98_556 ?
N1 Ni1 Ni1 130.304(10) 5 98_556 ?
N1 Ni1 Ni1 130.304(10) 9 98_556 ?
O1 Ni1 Ni1 46.601(8) 9 98_556 ?
O1 Ni1 Ni1 103.67(4) 5 98_556 ?
O1 Ni1 Ni1 46.602(8) . 98_556 ?
N1 Ni1 Ni1 130.303(10) . 99_565 ?
N1 Ni1 Ni1 130.304(10) 5 99_565 ?
N1 Ni1 Ni1 66.17(3) 9 99_565 ?
O1 Ni1 Ni1 46.601(8) 9 99_565 ?
O1 Ni1 Ni1 46.601(8) 5 99_565 ?
O1 Ni1 Ni1 103.68(4) . 99_565 ?
Ni1 Ni1 Ni1 90.0 98_556 99_565 ?
N1 Ni1 Ni1 130.303(10) . 100_655 ?
N1 Ni1 Ni1 66.17(3) 5 100_655 ?
N1 Ni1 Ni1 130.304(10) 9 100_655 ?
O1 Ni1 Ni1 103.67(4) 9 100_655 ?
O1 Ni1 Ni1 46.601(8) 5 100_655 ?
O1 Ni1 Ni1 46.602(8) . 100_655 ?
Ni1 Ni1 Ni1 90.0 98_556 100_655 ?
Ni1 Ni1 Ni1 90.0 99_565 100_655 ?
C4 C1 H3 118.5(18) . . ?
Ni1 O1 Ni1 86.795(16) 3_656 100_655 ?
Ni1 O1 Ni1 86.795(16) 3_656 98_556 ?
Ni1 O1 Ni1 152.65(7) 100_655 98_556 ?
Ni1 O1 Ni1 152.65(7) 3_656 . ?
Ni1 O1 Ni1 86.795(16) 100_655 . ?
Ni1 O1 Ni1 86.795(16) 98_556 . ?
Ni1 O1 H1 103.68(4) 3_656 . ?
Ni1 O1 H1 103.68(4) 100_655 . ?
Ni1 O1 H1 103.68(3) 98_556 . ?
Ni1 O1 H1 103.68(4) . . ?
C2 N1 N1 108.09(7) . 98_556 ?
C2 N1 Ni1 138.07(8) . . ?
N1 N1 Ni1 113.84(3) 98_556 . ?
N1 C2 C3 110.35(11) . . ?
N1 C2 H2 119.9(10) . . ?
C3 C2 H2 129.8(9) . . ?
C2 C3 C2 103.09(14) . 98_556 ?
C2 C3 C4 128.45(7) . . ?
C2 C3 C4 128.46(7) 98_556 . ?
C1 C4 C3 121.59(9) . . ?
loop_
_geom_bond_atom_site_label_1
_geom_bond_atom_site_label_2
_geom_bond_distance
_geom_bond_site_symmetry_2
_geom_bond_publ_flag
Ni1 N1 2.0161(9) . ?
Ni1 N1 2.0162(9) 5 ?
Ni1 N1 2.0162(9) 9 ?
Ni1 O1 2.1707(4) 9 ?
Ni1 O1 2.1707(4) 5 ?
Ni1 O1 2.1707(4) . ?
Ni1 Ni1 2.9828(2) 98_556 ?
Ni1 Ni1 2.9828(2) 99_565 ?
Ni1 Ni1 2.9828(2) 100_655 ?
C1 C4 1.386(2) . ?
C1 H3 0.946(17) . ?
O1 H1 0.789(18) . ?
N1 C2 1.3409(14) . ?
N1 N1 1.3537(18) 98_556 ?
C2 C3 1.3963(15) . ?
C2 H2 0.939(17) . ?
C3 C4 1.465(2) . ?
