#------------------------------------------------------------------------------
#$Date: 2015-09-26 10:39:19 +0300 (Sat, 26 Sep 2015) $
#$Revision: 158422 $
#$URL: svn://www.crystallography.net/cod/cif/7/22/23/7222301.cif $
#------------------------------------------------------------------------------
#
# This file is available in the Crystallography Open Database (COD),
# http://www.crystallography.net/
#
# All data on this site have been placed in the public domain by the
# contributors.
#
data_7222301
loop_
_publ_author_name
'liu, jianqiang'
'Wang, Jiaping'
'Jin, Juncheng'
'Li, Fumei'
'Li, Baohong'
'Jin, Jie'
'Wang, Chun-Feng'
'Zeng, Yong-Ping'
'Wang, Yu-Kun'
_publ_section_title
;
 A combined experimental and theoretical insight into the drug delivery of
 nanoporous metal-organic frameworks
;
_journal_name_full               'RSC Adv.'
_journal_paper_doi               10.1039/C5RA12543J
_journal_year                    2015
_chemical_formula_moiety
'C21 H13 N O14 Zn3 2-, 2(C2 H8 N 1+), 4(H2 O)'
_chemical_formula_sum            'C25 H37 N3 O18 Zn3'
_chemical_formula_weight         863.68
_chemical_name_systematic
;
 ?
;
_space_group_crystal_system      tetragonal
_space_group_IT_number           108
_space_group_name_Hall           'I 4 -2c'
_space_group_name_H-M_alt        'I 4 c m'
_symmetry_space_group_name_Hall  'I 4 -2c'
_symmetry_space_group_name_H-M   'I 4 c m'
_atom_sites_solution_hydrogens   geom
_audit_creation_method           SHELXL-2013
_audit_update_record
;
2015-09-21 deposited with the CCDC.
2015-09-25 downloaded from the CCDC.
;
_cell_angle_alpha                90
_cell_angle_beta                 90
_cell_angle_gamma                90
_cell_formula_units_Z            8
_cell_length_a                   20.5138(10)
_cell_length_b                   20.5138
_cell_length_c                   17.8100(8)
_cell_measurement_reflns_used    9053
_cell_measurement_temperature    293(2)
_cell_measurement_theta_max      27.9244
_cell_measurement_theta_min      2.4973
_cell_volume                     7494.7(5)
_computing_structure_refinement  'SHELXL-2013 (Sheldrick, 2013)'
_diffrn_ambient_temperature      293(2)
_diffrn_measured_fraction_theta_full 0.993
_diffrn_measured_fraction_theta_max 0.995
_diffrn_measurement_device_type  'Bruker SMART APEX diffractometer'
_diffrn_measurement_method       '\w scans'
_diffrn_radiation_monochromator  graphite
_diffrn_radiation_source         'fine-focus sealed tube'
_diffrn_radiation_type           MoK\a
_diffrn_radiation_wavelength     0.71073
_diffrn_reflns_av_R_equivalents  0.0338
_diffrn_reflns_av_unetI/netI     0.0299
_diffrn_reflns_laue_measured_fraction_full 0.993
_diffrn_reflns_laue_measured_fraction_max 0.995
_diffrn_reflns_limit_h_max       14
_diffrn_reflns_limit_h_min       -26
_diffrn_reflns_limit_k_max       26
_diffrn_reflns_limit_k_min       -25
_diffrn_reflns_limit_l_max       22
_diffrn_reflns_limit_l_min       -23
_diffrn_reflns_number            21512
_diffrn_reflns_point_group_measured_fraction_full 0.991
_diffrn_reflns_point_group_measured_fraction_max 0.986
_diffrn_reflns_theta_full        25.242
_diffrn_reflns_theta_max         27.497
_diffrn_reflns_theta_min         2.287
_diffrn_standards_decay_%        0
_diffrn_standards_interval_count 0
_diffrn_standards_interval_time  0
_diffrn_standards_number         0
_exptl_absorpt_coefficient_mu    1.978
_exptl_absorpt_correction_T_max  1.000000
_exptl_absorpt_correction_T_min  0.750127
_exptl_absorpt_correction_type   multi-scan
_exptl_absorpt_process_details   SADABS
_exptl_crystal_colour            colorless
_exptl_crystal_density_diffrn    1.531
_exptl_crystal_description       prism
_exptl_crystal_F_000             3536
_exptl_crystal_size_max          0.20
_exptl_crystal_size_mid          0.15
_exptl_crystal_size_min          0.10
_refine_diff_density_max         0.430
_refine_diff_density_min         -0.283
_refine_diff_density_rms         0.068
_refine_ls_abs_structure_details
;
 Flack x determined using 1860 quotients [(I+)-(I-)]/[(I+)+(I-)]
 (Parsons and Flack (2004), Acta Cryst. A60, s61).
;
_refine_ls_abs_structure_Flack   -0.006(9)
_refine_ls_extinction_method     none
_refine_ls_goodness_of_fit_ref   1.092
_refine_ls_hydrogen_treatment    constr
_refine_ls_matrix_type           full
_refine_ls_number_parameters     215
_refine_ls_number_reflns         4425
_refine_ls_number_restraints     37
_refine_ls_restrained_S_all      1.104
_refine_ls_R_factor_all          0.0357
_refine_ls_R_factor_gt           0.0319
_refine_ls_shift/su_max          0.001
_refine_ls_shift/su_mean         0.001
_refine_ls_structure_factor_coef Fsqd
_refine_ls_weighting_details
;
 w=1/[\s^2^(Fo^2^)+(0.0634P)^2^+0.6713P]
 where P=(Fo^2^+2Fc^2^)/3
;
_refine_ls_weighting_scheme      calc
_refine_ls_wR_factor_gt          0.0900
_refine_ls_wR_factor_ref         0.0924
_reflns_Friedel_coverage         0.916
_reflns_friedel_fraction_full    0.988
_reflns_friedel_fraction_max     0.976
_reflns_number_gt                4070
_reflns_number_total             4425
_reflns_threshold_expression     'I > 2\s(I)'
_cod_data_source_file            c5ra12543j2.cif
_cod_data_source_block           zn_sq
_cod_original_cell_volume        7494.7(8)
_cod_database_code               7222301
_shelxl_version_number           2013-2
_shelx_res_file
;
TITL  I4cm
rem   2(CH3)2NH2 [Zn3 O (C3 H7 N O) (C9 H3 O6)2] 4(H2 O)
rem   Not found: Two (CH3)2NH2 and three H2O
CELL  0.71073 20.5138 20.5138 17.8100 90.000 90.000 90.000
ZERR  8        0.0010  0.0000  0.0008  0.000  0.000  0.000
LATT -2
SYMM -X,-Y,Z
SYMM -Y,X,Z
SYMM  Y,-X,Z
SYMM -X,Y,0.5+Z
SYMM  X,-Y,0.5+Z
SYMM  Y,X,0.5+Z
SYMM -Y,-X,0.5+Z
SFAC  C H N O Zn
UNIT  200 296 24 144 24
ACTA
OMIT -3 55
OMIT  1   1   0
OMIT  3   3   0
OMIT  1   5   0
OMIT  0   6   0
OMIT  1   7   0
OMIT 10  10   0
OMIT  2   2   2
OMIT  2   2  -2
OMIT  2   2   0
OMIT  0   2   0
OMIT  3   5   0
OMIT  0   4   0
L.S.  25 0 21
BOND  $H
CONF
FMAP  2
PLAN -1
ISOR  0.01 Zn1'
ISOR  0.01 N1 C10 C11 C12
DFIX  1.25 0.01 O7 C10
DFIX  1.35 0.01 C10 N1
DFIX  1.45 0.01 N1 C11 N1 C12
FLAT  0.01 O7 N1 C10 C11 C12
ABIN
WGHT    0.063400    0.671300
FVAR       0.11391   0.87020
PART  1
ZN1   5    0.257480    0.119454    0.332385    21.00000    0.03313    0.03645 =
         0.01474    0.00135   -0.00218    0.00487
PART  2
ZN1'  5    0.343199    0.080594    0.309641   -21.00000    0.04654    0.03437 =
         0.01631   -0.00096   -0.00120   -0.00158
PART  0
ZN2   5    0.343692    0.156308    0.478018    10.50000    0.02916    0.02916 =
         0.01629    0.00153   -0.00153    0.00297
O1    4    0.235208    0.129486    0.226865    11.00000    0.08363    0.06563 =
         0.02002   -0.00774   -0.01129    0.01875
O2    4    0.312884    0.056166    0.214222    11.00000    0.12018    0.07453 =
         0.03547   -0.00142   -0.03124    0.04162
O3    4    0.337070   -0.054887   -0.030812    11.00000    0.04916    0.03028 =
         0.03981   -0.00805   -0.00419    0.00952
O4    4    0.257369   -0.034695   -0.115714    11.00000    0.08606    0.04498 =
         0.03348   -0.01094   -0.01518    0.01751
O5    4    0.173295    0.191843   -0.115623    11.00000    0.08456    0.04837 =
         0.02111    0.00576   -0.00137    0.03063
O6    4    0.160254    0.242047   -0.006095    11.00000    0.08947    0.03096 =
         0.03181    0.00296   -0.00204    0.01804
O7    4    0.358702    0.141298    0.591001    10.50000    0.06782    0.06782 =
         0.02175    0.00331   -0.00331    0.00458
O8    4    0.339557    0.160443    0.360130    10.50000    0.03659    0.03659 =
         0.01755    0.00039   -0.00039   -0.00299
PART  2
O1W   4    0.430263    0.069737    0.293758    10.50000    0.14722    0.14722 =
         0.17545   -0.03850    0.03850    0.03840
AFIX  23  0.8400
H1W1  2    0.441218    0.058782    0.250100    10.50000   -1.50000
H1W2  2    0.450650    0.049349    0.327249    10.50000   -1.50000
AFIX   0
PART -1
N1    3    0.334137    0.149829    0.712199    10.50000    0.08371    0.11452 =
         0.04507    0.00932    0.00667    0.00239
PART  0
C1    1    0.271304    0.093055    0.187312    11.00000    0.06695    0.05013 =
         0.02058   -0.00690   -0.01067    0.00586
C2    1    0.260665    0.093155    0.103963    11.00000    0.05783    0.04190 =
         0.01806   -0.00291   -0.00728    0.01416
C3    1    0.283630    0.040537    0.062118    11.00000    0.05157    0.02968 =
         0.02242    0.00207   -0.00881    0.00724
AFIX  43
H3    2    0.307437    0.007695    0.085439    11.00000   -1.20000
AFIX   0
C4    1    0.270915    0.037106   -0.014775    11.00000    0.05468    0.03159 =
         0.02129   -0.00324   -0.00165    0.00675
C5    1    0.237369    0.087484   -0.048679    11.00000    0.06500    0.03366 =
         0.01518   -0.00263   -0.00623    0.01081
AFIX  43
H5    2    0.228892    0.085464   -0.099923    11.00000   -1.20000
AFIX   0
C6    1    0.215970    0.141199   -0.007865    11.00000    0.05469    0.03081 =
         0.02669    0.00082   -0.00341    0.01044
C7    1    0.226747    0.143357    0.069246    11.00000    0.06121    0.03104 =
         0.02145   -0.00578   -0.00361    0.01141
AFIX  43
H7    2    0.211294    0.178277    0.097390    11.00000   -1.20000
AFIX   0
C8    1    0.291416   -0.021875   -0.057615    11.00000    0.07638    0.03217 =
         0.01929   -0.00049   -0.00018    0.00876
C9    1    0.181146    0.196456   -0.045451    11.00000    0.05766    0.03270 =
         0.02495    0.00030   -0.00248    0.01111
PART -1
C10   1    0.323708    0.160116    0.639669    10.50000    0.05248    0.08073 =
         0.05614    0.00465   -0.00675    0.00002
AFIX  43
H10   2    0.286728    0.183501    0.625995    10.50000   -1.20000
AFIX   0
C11   1    0.390829    0.113709    0.738996    10.50000    0.16708    0.18845 =
         0.09347    0.03642   -0.03075    0.04028
AFIX  33
H11A  2    0.403808    0.130281    0.787138    10.50000   -1.50000
H11B  2    0.426063    0.118714    0.703992    10.50000   -1.50000
H11C  2    0.379915    0.068369    0.743488    10.50000   -1.50000
AFIX   0
C12   1    0.288063    0.175026    0.766674    10.50000    0.16291    0.23255 =
         0.06882   -0.03587    0.03441    0.01605
AFIX  33
H12A  2    0.292316    0.151283    0.812865    10.50000   -1.50000
H12B  2    0.244538    0.170134    0.747687    10.50000   -1.50000
H12C  2    0.296825    0.220347    0.775543    10.50000   -1.50000
PART  0
AFIX   0
HKLF  4

REM   I4cm
REM R1 =  0.0319 for    4070 Fo > 4sig(Fo)  and  0.0357 for all    4425 data
REM    215 parameters refined using     37 restraints

END

WGHT      0.0630      0.7552

REM Highest difference peak  0.430,  deepest hole -0.283,  1-sigma level  0.068
Q1    1   0.3052  0.0113  0.3681  11.00000  0.05    0.43
;
_shelx_res_checksum              74253
_shelx_fab_file
;
    1    2   23     -0.22      0.65
    0    0   22     -2.64     -1.64
    1    1   22     -0.27      2.36
    0    2   22     -1.41     -0.79
    2    2   22      0.00     -0.16
    1    3   22      0.80      0.82
    3    3   22      1.99      0.18
    0    4   22     -0.64     -0.24
    2    4   22      0.62      0.04
    4    4   22      1.04     -0.86
    1    5   22     -0.90     -0.09
    3    5   22      0.95     -0.43
    5    5   22      1.21     -1.55
    0    6   22     -1.80      1.41
    2    6   22     -0.66      1.61
    4    6   22      0.23     -0.21
    1    7   22     -1.42      0.85
    3    7   22      0.13      1.06
    1    2   21      0.32      0.30
    2    3   21     -0.25      0.27
    1    4   21      0.86      1.15
    3    4   21      1.32      1.50
    2    5   21      0.25      1.32
    4    5   21      0.03      0.18
    1    6   21      0.26      0.51
    3    6   21      1.19      0.87
    5    6   21      0.56     -0.09
    2    7   21     -0.40     -0.32
    4    7   21      0.33     -0.82
    6    7   21     -0.36     -0.71
    1    8   21     -0.52     -0.13
    3    8   21      0.53     -0.06
    5    8   21      0.45     -0.69
    7    8   21     -0.05     -0.14
    2    9   21     -1.48      0.20
    4    9   21      0.06      0.16
    6    9   21     -0.30     -0.54
    1   10   21     -1.10      0.43
    3   10   21     -0.62      1.17
    0    0   20      1.30     -2.56
    1    1   20      1.14     -0.71
    0    2   20      0.46     -2.23
    2    2   20      0.95     -1.82
    1    3   20     -0.34      0.17
    3    3   20      0.87     -0.28
    0    4   20     -2.71     -0.43
    2    4   20     -0.79     -0.83
    4    4   20     -0.92     -0.97
    1    5   20     -0.98      1.88
    3    5   20      0.58     -0.38
    5    5   20     -0.97     -0.77
    0    6   20     -1.19      0.91
    2    6   20      0.13     -0.35
    4    6   20     -0.74     -0.78
    6    6   20     -2.00      0.33
    1    7   20      0.54      2.06
    3    7   20      1.66     -0.25
    5    7   20     -0.35     -0.44
    7    7   20     -0.36      0.52
    0    8   20     -0.17     -1.58
    2    8   20      1.10     -1.24
    4    8   20      1.13     -0.48
    6    8   20     -0.61      0.77
    8    8   20     -0.05      1.08
    1    9   20     -0.18      0.11
    3    9   20      0.91     -0.07
    5    9   20     -0.03     -0.38
    7    9   20     -0.43      0.78
    9    9   20     -0.08      0.84
    0   10   20      1.53     -2.45
    2   10   20      1.41     -1.08
    4   10   20      1.27     -0.70
    6   10   20     -0.59     -0.34
    8   10   20     -0.36      0.22
    1   11   20     -0.60      0.62
    3   11   20     -0.19      0.29
    5   11   20     -0.31     -1.59
    7   11   20     -1.36     -0.56
    0   12   20      1.09      0.04
    2   12   20      0.25      0.56
    4   12   20      0.90     -0.27
    1    2   19     -0.44     -0.45
    2    3   19      1.31      0.32
    1    4   19     -0.36     -0.99
    3    4   19     -0.89     -1.68
    2    5   19      1.59     -0.81
    4    5   19      1.77     -0.11
    1    6   19     -0.53     -0.50
    3    6   19     -0.27     -1.75
    5    6   19     -0.12     -0.32
    2    7   19     -0.38      0.42
    4    7   19      0.09     -0.43
    6    7   19     -0.04      0.33
    1    8   19     -0.48      0.96
    3    8   19     -0.45     -0.72
    5    8   19      0.17     -0.17
    7    8   19      0.62      0.39
    2    9   19     -0.54      0.92
    4    9   19     -0.74     -1.56
    6    9   19     -0.69     -0.09
    8    9   19     -0.82      0.05
    1   10   19      0.38      1.93
    3   10   19      1.27      0.77
    5   10   19      0.61     -0.27
    7   10   19      0.47      0.56
    9   10   19      0.73     -0.05
    2   11   19     -0.60      1.56
    4   11   19     -0.41     -0.72
    6   11   19     -0.87     -0.36
    8   11   19     -0.33      0.13
   10   11   19     -0.59      0.13
    1   12   19     -0.70      1.56
    3   12   19     -0.30      2.09
    5   12   19     -0.14      0.57
    7   12   19      0.86      0.79
    9   12   19      1.07      0.23
    2   13   19     -1.61      0.29
    4   13   19     -1.48     -0.42
    6   13   19     -0.98     -0.64
    1   14   19     -0.46     -0.46
    0    0   18      1.77     -2.34
    1    1   18     -2.19      1.44
    0    2   18      0.94     -1.15
    2    2   18      0.61     -1.20
    1    3   18     -0.92      1.99
    3    3   18     -0.02      0.03
    0    4   18     -0.17      0.68
    2    4   18     -0.56     -0.01
    4    4   18     -0.59      0.24
    1    5   18     -0.17      0.02
    3    5   18     -0.68     -0.42
    5    5   18     -0.42     -1.10
    0    6   18     -1.44     -0.93
    2    6   18     -2.06      0.12
    4    6   18     -0.62      1.02
    6    6   18      0.54     -0.14
    1    7   18      0.62     -1.46
    3    7   18     -0.42     -0.26
    5    7   18     -0.30     -0.89
    7    7   18     -1.47     -1.24
    0    8   18      0.10     -0.56
    2    8   18      0.19      0.01
    4    8   18      0.85      0.54
    6    8   18      1.16     -0.15
    8    8   18      0.28      0.47
    1    9   18      0.64      0.77
    3    9   18      0.44     -0.15
    5    9   18     -0.23     -0.16
    7    9   18     -1.22      0.47
    9    9   18     -1.74      1.44
    0   10   18     -0.36     -0.78
    2   10   18      0.80     -0.86
    4   10   18     -0.05     -1.14
    6   10   18      0.33     -0.36
    8   10   18      0.55      0.80
   10   10   18      1.54      0.44
    1   11   18     -1.16      0.51
    3   11   18     -0.49      0.37
    5   11   18     -2.11      0.19
    7   11   18     -2.15      0.79
    9   11   18     -1.41      0.51
   11   11   18      0.04     -1.39
    0   12   18     -0.07     -1.20
    2   12   18      0.94     -0.54
    4   12   18     -0.25     -1.25
    6   12   18     -1.01     -1.03
    8   12   18     -0.39      0.37
   10   12   18      0.71     -0.26
    1   13   18     -0.70      0.75
    3   13   18     -0.49      1.12
    5   13   18     -1.06     -0.65
    7   13   18     -1.20     -0.10
    9   13   18     -0.63      0.38
    0   14   18      0.73      0.23
    2   14   18      0.19      1.23
    4   14   18      0.24      0.21
    6   14   18      0.20     -1.33
    8   14   18      0.42     -0.13
    1   15   18     -0.98     -0.19
    3   15   18     -1.25      0.75
    5   15   18      0.02     -0.37
    1    2   17      0.06      0.35
    2    3   17      0.68     -0.14
    1    4   17      0.00      1.35
    3    4   17     -0.51      1.59
    2    5   17      1.01      0.27
    4    5   17      0.94     -1.66
    1    6   17      0.07      1.04
    3    6   17     -0.10      0.46
    5    6   17     -0.02     -0.67
    2    7   17      1.08     -0.26
    4    7   17      0.96     -2.11
    6    7   17      0.49     -0.90
    1    8   17      0.56     -0.39
    3    8   17     -0.22     -0.36
    5    8   17     -0.32     -0.99
    7    8   17     -1.09     -0.54
    2    9   17      0.86      0.03
    4    9   17      0.36      1.26
    6    9   17      0.28      2.08
    8    9   17      0.06      1.78
    1   10   17     -0.13     -0.18
    3   10   17     -1.11      0.19
    5   10   17     -0.46      1.18
    7   10   17     -0.91      0.69
    9   10   17     -1.12     -0.42
    2   11   17      0.37      0.16
    4   11   17     -0.34      0.43
    6   11   17      0.03      0.98
    8   11   17     -0.04      0.11
   10   11   17      0.98      0.34
    1   12   17     -0.47      0.24
    3   12   17     -0.54     -0.67
    5   12   17     -0.37      0.37
    7   12   17     -0.04     -0.25
    9   12   17     -0.44     -0.23
   11   12   17     -0.50      0.00
    2   13   17     -0.09     -0.32
    4   13   17      0.08     -0.69
    6   13   17     -0.29     -0.26
    8   13   17     -0.29     -0.83
   10   13   17      1.77      0.51
   12   13   17      1.44      0.46
    1   14   17     -1.12     -0.13
    3   14   17     -0.53     -0.35
    5   14   17      1.19      1.14
    7   14   17      0.52      0.78
    9   14   17      0.16      1.10
   11   14   17      0.48      0.41
    2   15   17     -1.07     -0.35
    4   15   17      0.31     -0.14
    6   15   17      0.68     -0.32
    8   15   17     -0.42      0.04
   10   15   17      1.97      0.98
    1   16   17     -0.13     -0.65
    3   16   17     -0.26     -0.87
    5   16   17      1.51     -0.49
    7   16   17      0.00     -0.28
    2   17   17      0.60     -0.34
    0    0   16      1.03      0.68
    1    1   16      2.88      0.61
    0    2   16      0.60      0.29
    2    2   16     -0.58      0.16
    1    3   16      0.05     -0.03
    3    3   16     -1.32      0.11
    0    4   16     -0.28      0.25
    2    4   16     -0.71      0.72
    4    4   16     -0.43      1.14
    1    5   16     -1.51      0.19
    3    5   16      0.14      0.32
    5    5   16      0.17     -0.07
    0    6   16     -0.03      2.70
    2    6   16      1.83      2.15
    4    6   16      1.90      0.47
    6    6   16     -0.66      0.51
    1    7   16     -1.46     -0.02
    3    7   16      1.19     -1.11
    5    7   16     -0.14     -1.54
    7    7   16     -1.49      0.48
    0    8   16     -0.44      2.46
    2    8   16      0.65      1.56
    4    8   16      1.19     -0.56
    6    8   16     -0.41     -0.62
    8    8   16      1.37      1.06
    1    9   16     -1.35     -0.96
    3    9   16      0.43      0.02
    5    9   16      0.51     -0.76
    7    9   16     -0.11      0.15
    9    9   16      0.17     -0.37
    0   10   16     -0.13      0.72
    2   10   16      0.37      0.75
    4   10   16      0.86      1.13
    6   10   16     -0.06     -0.17
    8   10   16      1.05      0.83
   10   10   16      0.34     -1.12
    1   11   16      1.27      0.50
    3   11   16      2.06      1.40
    5   11   16      0.54      1.19
    7   11   16     -0.77      1.41
    9   11   16     -1.34     -0.56
   11   11   16     -2.30     -2.01
    0   12   16     -1.48      0.05
    2   12   16     -0.06      0.20
    4   12   16      0.09     -0.11
    6   12   16     -0.52      0.44
    8   12   16      1.26      1.58
   10   12   16      0.48     -0.24
   12   12   16      0.16      0.36
    1   13   16     -0.68     -0.49
    3   13   16      0.83      1.18
    5   13   16     -0.32      0.91
    7   13   16      0.31      2.00
    9   13   16      0.32      0.54
   11   13   16     -1.13      0.38
   13   13   16     -0.55      0.58
    0   14   16     -3.14     -2.68
    2   14   16     -0.80      0.29
    4   14   16      0.49     -0.02
    6   14   16     -0.14      0.38
    8   14   16      0.79      0.20
   10   14   16      0.16     -0.02
   12   14   16      0.31      0.46
    1   15   16     -1.94     -1.73
    3   15   16      0.48      1.18
    5   15   16      0.32      0.32
    7   15   16     -0.09      0.67
    9   15   16     -0.19      0.02
   11   15   16     -0.62      0.52
    0   16   16     -0.95     -1.37
    2   16   16      0.01      1.06
    4   16   16      0.97      0.55
    6   16   16      0.74     -0.42
    8   16   16     -0.22     -0.88
   10   16   16      0.15     -0.57
    1   17   16     -0.98     -1.08
    3   17   16     -0.91      0.57
    5   17   16      0.19      0.38
    7   17   16      1.05     -0.38
    9   17   16      0.11      0.16
    0   18   16      1.13     -0.49
    2   18   16      0.67     -0.27
    4   18   16     -0.30      1.12
    6   18   16      0.99      0.41
    1    2   15      0.64     -0.60
    2    3   15     -0.65     -0.13
    1    4   15      1.26     -1.26
    3    4   15      1.76     -1.37
    2    5   15      1.46     -0.65
    4    5   15     -0.80      0.34
    1    6   15      1.65     -0.42
    3    6   15      1.49     -0.18
    5    6   15     -0.46      0.46
    2    7   15      1.69      0.77
    4    7   15     -0.87      2.08
    6    7   15     -0.06      1.32
    1    8   15      0.07      0.60
    3    8   15     -0.91      1.72
    5    8   15     -0.92      1.38
    7    8   15      0.78      0.53
    2    9   15      0.88      0.47
    4    9   15      0.39     -0.31
    6    9   15      3.01     -0.93
    8    9   15      2.54      0.28
    1   10   15      0.56     -0.11
    3   10   15     -1.27     -0.99
    5   10   15     -0.51     -2.37
    7   10   15      0.60     -0.51
    9   10   15     -1.01      0.75
    2   11   15      2.15     -0.37
    4   11   15      0.13     -1.12
    6   11   15      0.54     -1.31
    8   11   15      0.64      0.41
   10   11   15      1.43      0.20
    1   12   15      0.88      0.24
    3   12   15     -1.68     -0.39
    5   12   15     -1.35     -0.11
    7   12   15     -1.89     -0.13
    9   12   15     -1.06     -0.25
   11   12   15     -1.08     -0.89
    2   13   15     -0.24      0.47
    4   13   15     -0.93     -0.32
    6   13   15     -0.66     -0.24
    8   13   15     -0.20      0.08
   10   13   15      0.99      0.43
   12   13   15      0.26      1.33
    1   14   15      0.07      1.06
    3   14   15      0.08     -0.01
    5   14   15      0.97     -1.17
    7   14   15      0.03      0.33
    9   14   15      0.16      0.21
   11   14   15     -0.76     -1.02
   13   14   15      0.00     -1.42
    2   15   15      0.06      1.52
    4   15   15      1.15      0.05
    6   15   15     -0.46      0.06
    8   15   15     -0.25      2.02
   10   15   15     -0.35      0.26
   12   15   15     -0.48      0.39
    1   16   15     -0.47     -0.33
    3   16   15      1.63      0.08
    5   16   15      1.13     -0.94
    7   16   15      0.24      1.38
    9   16   15      0.09      0.09
   11   16   15     -0.16     -1.45
    2   17   15     -0.42      0.08
    4   17   15      0.86      1.20
    6   17   15     -0.49      0.61
    8   17   15     -0.19      1.61
   10   17   15     -0.56     -0.81
    1   18   15     -0.71     -1.86
    3   18   15      0.72     -1.23
    5   18   15      0.55     -1.33
    7   18   15      0.00     -0.61
    9   18   15     -0.39     -0.38
    2   19   15      0.45      0.00
    4   19   15      1.22      1.35
    6   19   15      0.56      0.54
    0    0   14     -0.71      2.01
    1    1   14     -1.54     -3.65
    0    2   14      0.27      2.98
    2    2   14      0.48      4.18
    1    3   14      0.41     -0.66
    3    3   14      2.15      1.64
    0    4   14      0.09      1.46
    2    4   14     -0.39      2.32
    4    4   14     -0.74     -0.29
    1    5   14      1.57     -0.65
    3    5   14      1.50     -0.63
    5    5   14      1.73     -3.42
    0    6   14     -0.35     -3.26
    2    6   14     -2.39     -1.67
    4    6   14     -2.49     -2.55
    6    6   14      0.10     -0.79
    1    7   14      2.55     -1.74
    3    7   14     -0.35      0.78
    5    7   14      0.16      0.11
    7    7   14      1.00      1.30
    0    8   14      1.99     -3.34
    2    8   14     -0.18      0.10
    4    8   14     -0.71      1.15
    6    8   14      0.28      2.71
    8    8   14      0.39      1.78
    1    9   14      3.42      0.33
    3    9   14      1.54      1.50
    5    9   14     -0.30      0.38
    7    9   14     -1.35     -0.40
    9    9   14     -1.39     -0.66
    0   10   14      0.05      1.27
    2   10   14     -0.83      0.95
    4   10   14      1.07     -0.77
    6   10   14      0.89      0.78
    8   10   14      1.16      0.99
   10   10   14     -0.16      1.76
    1   11   14     -0.43      0.41
    3   11   14     -1.01     -1.70
    5   11   14     -0.26     -1.01
    7   11   14      0.48     -0.60
    9   11   14      0.17      0.58
   11   11   14     -2.10      0.57
    0   12   14     -1.13      1.17
    2   12   14     -1.40     -0.88
    4   12   14     -0.60     -0.61
    6   12   14      0.75      0.08
    8   12   14      1.39     -0.67
   10   12   14     -0.28     -0.81
   12   12   14     -0.68     -1.80
    1   13   14      0.38      0.34
    3   13   14     -0.06     -1.19
    5   13   14     -0.87      0.24
    7   13   14     -0.01     -0.96
    9   13   14      0.23     -0.17
   11   13   14     -0.16      0.70
   13   13   14     -1.20      1.07
    0   14   14     -1.58      1.70
    2   14   14      0.49     -0.95
    4   14   14     -0.64     -1.17
    6   14   14      0.51     -1.36
    8   14   14      0.57     -1.32
   10   14   14      1.88     -1.36
   12   14   14      1.67     -0.48
   14   14   14     -0.31     -0.33
    1   15   14     -0.47      1.15
    3   15   14      0.47      0.06
    5   15   14     -0.47      0.38
    7   15   14      0.58      1.07
    9   15   14      0.38      1.27
   11   15   14      0.66      0.79
   13   15   14     -1.66     -0.25
   15   15   14     -2.00     -1.99
    0   16   14      0.35      0.59
    2   16   14      1.54     -0.21
    4   16   14     -0.28     -0.79
    6   16   14     -0.36     -0.69
    8   16   14     -0.46      0.03
   10   16   14      0.29     -1.70
   12   16   14      0.43     -0.88
    1   17   14      0.56      1.14
    3   17   14      0.56      1.47
    5   17   14     -0.38     -0.16
    7   17   14     -1.48      0.26
    9   17   14     -0.57      0.98
   11   17   14     -0.76      0.02
    0   18   14      2.11     -0.93
    2   18   14      0.74     -0.09
    4   18   14      0.75     -0.42
    6   18   14     -0.94     -1.82
    8   18   14     -0.31     -0.63
   10   18   14      0.18     -0.17
    1   19   14      0.35      0.04
    3   19   14     -0.97      0.45
    5   19   14      0.20     -0.71
    7   19   14     -0.85     -1.11
    9   19   14      1.06      0.94
    0   20   14      2.26     -1.98
    2   20   14     -0.60     -1.50
    4   20   14     -0.31     -0.30
    6   20   14     -0.14     -0.22
    1   21   14      0.62      0.60
    3   21   14     -1.14      0.19
    1    2   13     -0.92      0.97
    2    3   13      1.88      1.76
    1    4   13     -1.50      2.59
    3    4   13     -3.47      0.93
    2    5   13      0.41      3.12
    4    5   13      1.41      1.98
    1    6   13     -2.50      1.16
    3    6   13     -4.44     -0.18
    5    6   13     -0.93     -1.43
    2    7   13     -1.38     -0.39
    4    7   13      1.11     -0.05
    6    7   13      0.42     -0.01
    1    8   13     -1.10      0.03
    3    8   13      0.51     -0.05
    5    8   13      1.80     -0.57
    7    8   13      0.74     -0.44
    2    9   13     -0.11      0.63
    4    9   13      1.07      1.78
    6    9   13     -2.13     -1.11
    8    9   13     -0.91     -2.33
    1   10   13     -0.47     -0.06
    3   10   13      1.98      3.91
    5   10   13      0.29      2.86
    7   10   13      0.01      0.38
    9   10   13      0.62      0.18
    2   11   13     -2.26     -0.68
    4   11   13     -0.27      0.80
    6   11   13     -0.63     -1.11
    8   11   13      0.25     -1.74
   10   11   13     -0.06     -1.01
    1   12   13     -0.81     -1.83
    3   12   13      0.56      0.32
    5   12   13      1.28     -1.46
    7   12   13     -0.38     -0.17
    9   12   13     -1.89     -0.77
   11   12   13     -0.35     -0.65
    2   13   13     -1.05     -0.66
    4   13   13     -0.32     -0.10
    6   13   13      0.55     -0.08
    8   13   13     -0.73      0.37
   10   13   13      0.15     -0.18
   12   13   13      0.05      0.80
    1   14   13      1.20     -0.56
    3   14   13      0.73     -0.12
    5   14   13     -0.41     -0.92
    7   14   13     -0.95      0.00
    9   14   13     -0.05     -0.99
   11   14   13      1.01     -0.70
   13   14   13     -0.49      0.06
    2   15   13      1.24      0.07
    4   15   13     -0.05      0.21
    6   15   13     -0.06      1.21
    8   15   13      0.96      0.42
   10   15   13      0.55      0.90
   12   15   13     -1.64      1.04
   14   15   13     -1.04      0.50
    1   16   13      1.17      0.14
    3   16   13      2.28     -1.63
    5   16   13      0.52     -0.75
    7   16   13     -0.08     -0.92
    9   16   13      0.29      0.13
   11   16   13     -0.82      0.69
   13   16   13     -1.63      0.80
   15   16   13     -1.38      0.16
    2   17   13      0.21      1.18
    4   17   13      0.94      0.28
    6   17   13     -1.10      0.13
    8   17   13     -0.87     -0.61
   10   17   13     -2.05      0.27
   12   17   13     -1.10     -0.74
   14   17   13     -0.33     -0.42
    1   18   13     -0.74      0.76
    3   18   13      0.65      0.29
    5   18   13     -0.06      0.77
    7   18   13     -0.45     -0.01
    9   18   13      0.56      0.50
   11   18   13      0.20      0.20
    2   19   13     -0.96      0.37
    4   19   13     -0.26      0.40
    6   19   13     -0.93     -0.08
    8   19   13      0.28      0.09
   10   19   13      0.53     -0.71
    1   20   13     -0.31     -0.61
    3   20   13     -0.05      0.35
    5   20   13      0.64      0.11
    7   20   13      0.78      0.40
    9   20   13      1.60      0.01
    2   21   13      0.16     -0.61
    4   21   13      0.20      0.44
    6   21   13      0.67     -0.57
    1   22   13      0.39     -1.20
    0    0   12      5.97      7.42
    1    1   12     -2.90      7.81
    0    2   12      2.01      4.09
    2    2   12      0.14      1.09
    1    3   12     -1.70     -0.39
    3    3   12      1.33     -5.30
    0    4   12     -2.73     -0.05
    2    4   12     -1.41     -1.75
    4    4   12     -1.23     -2.20
    1    5   12      2.49     -4.02
    3    5   12      4.15     -3.39
    5    5   12      0.46      0.05
    0    6   12     -5.35     -0.76
    2    6   12     -0.92      0.04
    4    6   12     -1.55      1.21
    6    6   12     -1.97     -0.73
    1    7   12      0.24      0.10
    3    7   12      4.48      1.73
    5    7   12      0.01      1.19
    7    7   12     -0.20     -1.29
    0    8   12    -13.95      0.06
    2    8   12     -4.15     -0.04
    4    8   12      0.08      0.07
    6    8   12      2.26     -0.77
    8    8   12      3.19      2.20
    1    9   12     -6.04      1.82
    3    9   12      0.04      2.54
    5    9   12     -0.65      1.76
    7    9   12      0.18      1.48
    9    9   12      0.21      1.41
    0   10   12     -5.48     -1.19
    2   10   12     -0.88      0.48
    4   10   12     -0.80      0.39
    6   10   12      1.11      0.01
    8   10   12      1.75      0.27
   10   10   12      1.09     -1.31
    1   11   12      1.45      1.27
    3   11   12      0.00      3.12
    5   11   12     -2.33      0.44
    7   11   12     -1.35     -1.07
    9   11   12      0.30     -1.61
   11   11   12     -0.21      1.31
    0   12   12      3.90     -2.63
    2   12   12      2.44     -0.13
    4   12   12      0.39     -0.38
    6   12   12     -0.31     -1.37
    8   12   12      0.75     -1.44
   10   12   12     -0.32     -0.44
   12   12   12     -1.15      0.73
    1   13   12     -0.49     -1.05
    3   13   12     -0.47      0.45
    5   13   12     -0.87      0.07
    7   13   12     -0.60      0.61
    9   13   12      0.42      0.66
   11   13   12     -0.50      0.83
   13   13   12     -0.16      0.13
    0   14   12      1.72     -1.43
    2   14   12      0.64     -1.27
    4   14   12      0.60     -0.56
    6   14   12     -1.56     -0.78
    8   14   12     -0.06      0.38
   10   14   12     -1.08     -0.56
   12   14   12     -0.35     -1.16
   14   14   12     -0.89      0.70
    1   15   12      0.28      0.56
    3   15   12      1.28      1.11
    5   15   12     -0.84      0.39
    7   15   12     -1.05     -0.77
    9   15   12     -1.59      0.79
   11   15   12     -0.96     -0.73
   13   15   12      0.36     -0.21
   15   15   12      0.24     -0.30
    0   16   12      0.73     -1.49
    2   16   12      1.47     -1.72
    4   16   12      0.63     -0.45
    6   16   12     -1.03     -1.22
    8   16   12      0.51      0.39
   10   16   12     -0.40      0.66
   12   16   12      0.55     -0.11
   14   16   12     -0.11      0.24
   16   16   12     -0.28     -0.86
    1   17   12     -0.22     -0.11
    3   17   12      0.93      0.71
    5   17   12     -1.64      0.56
    7   17   12     -0.77      1.28
    9   17   12     -0.70      1.59
   11   17   12      0.42      0.03
   13   17   12      0.98     -0.68
   15   17   12      0.87     -0.65
    0   18   12     -0.49     -1.81
    2   18   12      0.64     -0.52
    4   18   12     -0.98     -0.07
    6   18   12     -1.42      1.08
    8   18   12      0.33      1.57
   10   18   12      1.61     -0.12
   12   18   12      0.74     -0.41
    1   19   12     -1.30      0.84
    3   19   12     -0.53      1.52
    5   19   12     -1.79     -0.23
    7   19   12     -1.74      1.53
    9   19   12     -0.53      0.29
   11   19   12      0.96      0.63
    0   20   12     -1.29     -0.52
    2   20   12     -0.22      1.46
    4   20   12      0.67      0.19
    6   20   12      0.66     -0.55
    8   20   12      0.35     -0.50
   10   20   12      0.93     -0.49
    1   21   12     -1.36      0.04
    3   21   12     -0.16      0.26
    5   21   12      0.54     -1.49
    7   21   12     -0.37     -0.35
    0   22   12     -0.52     -0.18
    2   22   12     -0.21     -0.09
    4   22   12      1.53     -0.29
    1    2   11     -0.06      1.16
    2    3   11      2.48     -3.05
    1    4   11      1.76      0.30
    3    4   11      0.33      3.27
    2    5   11      3.93     -2.35
    4    5   11      1.36     -0.88
    1    6   11      1.84      1.36
    3    6   11      0.21      6.68
    5    6   11     -1.55      2.97
    2    7   11     -1.09      5.08
    4    7   11     -4.34      5.20
    6    7   11     -2.13      0.06
    1    8   11     -0.62      3.56
    3    8   11     -3.34      7.41
    5    8   11     -2.84      3.66
    7    8   11      0.18      1.09
    2    9   11     -2.90      1.82
    4    9   11     -3.17      0.47
    6    9   11     -0.33     -0.90
    8    9   11     -0.54     -2.17
    1   10   11      0.86      0.97
    3   10   11      2.31     -1.65
    5   10   11      2.10      0.22
    7   10   11      1.21     -0.25
    9   10   11      0.38      0.82
    2   11   11     -0.11     -0.96
    4   11   11     -0.38     -3.85
    6   11   11     -0.35     -3.44
    8   11   11     -0.34     -3.07
   10   11   11      0.03     -0.89
    1   12   11      0.56      2.18
    3   12   11      1.43      0.16
    5   12   11     -1.42      0.09
    7   12   11     -0.28     -0.54
    9   12   11      0.76      2.34
   11   12   11      0.73      1.87
    2   13   11      0.97      0.00
    4   13   11      0.81     -1.45
    6   13   11      1.38     -2.68
    8   13   11      1.65     -0.93
   10   13   11     -0.13      0.19
   12   13   11     -0.39     -0.48
    1   14   11     -0.17     -0.15
    3   14   11      0.90     -0.51
    5   14   11      0.54     -0.08
    7   14   11      0.45      0.17
    9   14   11     -1.79      1.38
   11   14   11     -1.11      2.18
   13   14   11     -0.10      2.36
    2   15   11      0.91     -1.17
    4   15   11      2.53     -0.73
    6   15   11      3.29     -0.16
    8   15   11      0.36     -0.77
   10   15   11     -1.16     -0.94
   12   15   11     -0.14      0.31
   14   15   11      0.41     -0.66
    1   16   11     -0.65     -0.29
    3   16   11     -1.31     -0.79
    5   16   11     -1.03      1.14
    7   16   11     -2.24      2.82
    9   16   11     -1.84      0.90
   11   16   11     -0.53      1.95
   13   16   11     -1.46      1.65
   15   16   11     -1.24      1.54
    2   17   11      0.54     -0.20
    4   17   11      1.37     -2.08
    6   17   11      0.77      0.98
    8   17   11     -0.50     -0.01
   10   17   11      1.18      0.43
   12   17   11     -0.53     -0.01
   14   17   11     -0.81      0.35
   16   17   11      0.15      0.52
    1   18   11      0.20      1.06
    3   18   11      0.58     -0.56
    5   18   11      0.44      1.02
    7   18   11     -1.48      2.11
    9   18   11      0.14      0.67
   11   18   11      0.41      1.52
   13   18   11     -1.43      0.33
   15   18   11     -0.57      0.79
    2   19   11      0.33      0.74
    4   19   11      1.61     -1.57
    6   19   11      0.14     -0.65
    8   19   11     -0.37     -3.09
   10   19   11      0.85     -1.23
   12   19   11      0.11     -0.28
    1   20   11     -0.65      1.39
    3   20   11      0.25      0.83
    5   20   11     -0.12      1.58
    7   20   11     -1.11     -0.09
    9   20   11      0.19     -1.08
   11   20   11      0.76     -0.50
    2   21   11     -1.60      0.54
    4   21   11     -0.26     -0.39
    6   21   11     -1.38     -0.32
    8   21   11     -0.47     -1.45
   10   21   11      0.49     -1.22
    1   22   11     -1.35      0.63
    3   22   11     -0.65      0.24
    5   22   11     -0.35      0.61
    7   22   11     -0.93      0.64
    2   23   11     -2.09      0.23
    4   23   11      0.11      0.04
    0    0   10     -0.17     -2.77
    1    1   10      2.78     -1.44
    0    2   10     -1.19     -0.90
    2    2   10     -1.77      1.90
    1    3   10      2.29      1.36
    3    3   10     -1.25      1.88
    0    4   10      0.81      2.27
    2    4   10     -0.40      2.89
    4    4   10     -2.50     -1.66
    1    5   10      0.36     -0.52
    3    5   10     -1.03     -2.90
    5    5   10     -0.39     -5.56
    0    6   10     -0.86     -1.71
    2    6   10      0.63     -2.63
    4    6   10      2.50     -3.76
    6    6   10      2.17     -1.04
    1    7   10     -3.28     -2.14
    3    7   10     -0.59     -3.21
    5    7   10      1.26     -0.55
    7    7   10      0.11      2.10
    2    8   10      0.44      0.18
    4    8   10      1.44     -0.12
    6    8   10     -1.02      0.44
    8    8   10      0.71     -0.71
    1    9   10     -0.41      8.56
    3    9   10     -2.03      2.26
    5    9   10     -0.17      0.90
    7    9   10      0.62      0.38
    9    9   10      2.86      0.33
    2   10   10     -0.54      1.20
    4   10   10      0.02      0.58
    6   10   10     -1.87      0.08
    8   10   10     -0.27      0.07
   10   10   10     -0.21     -0.11
    1   11   10     -3.61      1.80
    3   11   10     -1.15      0.35
    5   11   10      1.72      1.11
    7   11   10     -0.01      2.10
    9   11   10     -0.71      1.28
   11   11   10     -0.43      0.13
    0   12   10     -0.42     -2.49
    2   12   10     -0.89     -2.11
    4   12   10     -0.52     -0.49
    6   12   10     -0.75      0.29
    8   12   10     -2.02     -0.50
   10   12   10     -1.11     -1.09
   12   12   10     -0.93      1.01
    1   13   10     -0.82     -0.66
    3   13   10      0.00     -1.09
    5   13   10      1.84     -0.33
    7   13   10      1.00     -0.05
    9   13   10     -0.28     -1.04
   11   13   10     -0.60     -0.09
   13   13   10     -0.01      1.66
    0   14   10      2.52     -0.18
    2   14   10      1.35     -0.95
    4   14   10     -0.02     -1.36
    6   14   10      0.65      0.39
    8   14   10      0.64     -0.57
   10   14   10      0.76      0.23
   12   14   10     -1.55      1.60
   14   14   10     -0.95      1.02
    1   15   10      1.17     -0.08
    3   15   10      0.11     -1.88
    5   15   10      0.91      0.55
    7   15   10     -0.10      0.98
    9   15   10      1.62      1.03
   11   15   10     -0.10      0.62
   13   15   10      0.51     -0.03
   15   15   10      0.14     -0.07
    0   16   10      1.99      1.31
    2   16   10      0.43     -0.26
    4   16   10     -0.15     -0.38
    6   16   10     -1.02      1.18
    8   16   10      0.83      0.03
   10   16   10      1.95      1.16
   12   16   10     -0.61      0.23
   14   16   10     -1.03     -0.85
   16   16   10     -0.73     -0.62
    1   17   10      1.44      1.55
    3   17   10     -0.19      0.04
    5   17   10     -0.69      1.39
    7   17   10     -1.61      0.09
    9   17   10     -0.16     -0.08
   11   17   10     -1.20      0.11
   13   17   10      0.00      0.05
   15   17   10     -0.13      0.35
    0   18   10      0.31     -0.26
    2   18   10     -0.45     -0.37
    4   18   10     -0.32      0.06
    6   18   10     -0.15      0.37
    8   18   10      1.72     -0.94
   10   18   10      0.45     -0.79
   12   18   10      0.41      0.58
   14   18   10     -0.06     -0.12
    1   19   10      0.31     -0.15
    3   19   10      0.28     -0.44
    5   19   10     -1.01      0.36
    7   19   10     -0.19      1.53
    9   19   10     -1.18      0.94
   11   19   10     -1.30      0.33
   13   19   10     -0.25      1.38
    0   20   10     -1.56     -0.10
    2   20   10     -0.51      0.62
    4   20   10     -1.03     -0.26
    6   20   10     -1.05      0.21
    8   20   10      0.65      0.60
   10   20   10      0.48     -0.33
   12   20   10      1.05     -0.13
    1   21   10      0.06      0.82
    3   21   10      0.36     -0.01
    5   21   10     -1.67     -0.64
    7   21   10     -0.64      1.53
    9   21   10     -1.42      1.70
   11   21   10     -0.34      0.90
    0   22   10     -1.63      1.04
    2   22   10     -0.48      1.94
    4   22   10     -1.04      0.48
    6   22   10      0.14      0.52
    8   22   10      0.64     -0.15
    1   23   10      0.41     -0.01
    3   23   10      0.89     -0.85
    5   23   10      0.43     -1.51
    0   24   10     -1.03     -0.35
    1    2    9      1.69     -2.04
    2    3    9      0.05      0.24
    1    4    9      1.70     -2.65
    3    4    9      2.21     -1.88
    2    5    9     -6.76     -0.48
    4    5    9     -6.01     -0.29
    1    6    9     -3.93     -0.65
    3    6    9     -2.08     -0.52
    5    6    9      1.40      3.25
    2    7    9     -5.53     -1.15
    4    7    9     -2.12     -1.46
    6    7    9     -1.42     -1.55
    1    8    9     -0.91      0.23
    3    8    9      4.07     -1.01
    5    8    9      3.11      2.46
    7    8    9     -0.65      2.11
    2    9    9     -1.29     -0.14
    4    9    9      2.31     -3.34
    6    9    9      1.37     -4.19
    8    9    9      0.61     -2.86
    1   10    9     -1.41      0.52
    3   10    9     -1.47      0.18
    5   10    9      1.27     -1.12
    7   10    9     -0.86     -1.06
    9   10    9     -1.13     -0.49
    2   11    9     -2.20     -1.45
    4   11    9      0.66     -2.44
    6   11    9      2.44     -3.47
    8   11    9     -0.25     -2.29
   10   11    9     -0.74     -1.07
    1   12    9     -0.28     -0.72
    3   12    9     -1.16      1.41
    5   12    9      1.49      1.53
    7   12    9     -0.64      1.45
    9   12    9      0.01      0.48
   11   12    9      0.88      0.63
    2   13    9     -0.11     -0.75
    4   13    9      1.80     -0.40
    6   13    9      0.29     -2.14
    8   13    9     -0.02     -1.00
   10   13    9      1.39     -0.40
   12   13    9      0.76     -1.44
    1   14    9     -0.75      0.90
    3   14    9     -0.96      3.06
    5   14    9     -0.44      2.31
    7   14    9     -2.46      1.73
    9   14    9      0.57      3.99
   11   14    9      1.00      2.51
   13   14    9     -0.50      1.06
    2   15    9      0.96      1.09
    4   15    9      2.49     -0.22
    6   15    9      1.03     -2.74
    8   15    9     -0.02     -0.32
   10   15    9      0.22      1.32
   12   15    9     -0.78     -0.85
   14   15    9     -0.29     -0.81
    1   16    9      0.63      1.09
    3   16    9     -0.36      1.73
    5   16    9     -0.45      1.78
    7   16    9     -1.32      1.57
    9   16    9     -2.13      3.33
   11   16    9     -2.70      1.54
   13   16    9     -2.52      1.33
   15   16    9      0.45      0.34
    2   17    9      1.72      0.70
    4   17    9      0.04     -0.51
    6   17    9      1.90     -2.31
    8   17    9      0.62     -0.86
   10   17    9      0.37     -1.21
   12   17    9     -1.31     -0.21
   14   17    9     -0.08      0.10
   16   17    9      0.72     -0.15
    1   18    9      0.99      0.46
    3   18    9     -2.61      1.00
    5   18    9     -2.94      0.91
    7   18    9     -1.70      1.17
    9   18    9     -1.02      0.21
   11   18    9      0.31     -1.40
   13   18    9     -0.28      0.28
   15   18    9      1.39     -0.88
    2   19    9      1.00      0.11
    4   19    9     -0.69     -1.09
    6   19    9      1.09     -2.69
    8   19    9      0.15     -0.75
   10   19    9      2.74     -1.98
   12   19    9      1.57     -0.32
   14   19    9      0.53     -0.11
    1   20    9      0.49     -0.53
    3   20    9     -0.90      0.29
    5   20    9     -0.20     -0.63
    7   20    9     -0.77      0.85
    9   20    9      0.38      0.61
   11   20    9      1.36     -0.34
   13   20    9      1.00      0.03
    2   21    9      0.41      0.14
    4   21    9      0.90     -0.38
    6   21    9      1.59     -2.05
    8   21    9      0.72     -0.79
   10   21    9      1.49     -0.94
   12   21    9      0.33     -0.02
    1   22    9     -0.16      0.05
    3   22    9     -0.43      1.45
    5   22    9      0.00     -0.07
    7   22    9      0.10      0.77
    9   22    9      0.42      0.71
    2   23    9      0.27      1.14
    4   23    9      0.39      0.28
    6   23    9      0.23     -1.15
    8   23    9      0.06     -0.55
    1   24    9     -0.65      0.46
    3   24    9     -0.43      0.57
    5   24    9     -0.58     -1.04
    0    0    8    -17.81     17.69
    1    1    8     -6.24     -1.12
    0    2    8    -10.98     16.57
    2    2    8     -4.87     12.18
    1    3    8      0.26     -1.07
    3    3    8      4.75     -3.84
    0    4    8     -0.66      0.14
    2    4    8      2.55     -2.67
    4    4    8      5.98      1.95
    1    5    8      3.58     -5.23
    3    5    8      2.82     -5.99
    5    5    8     -1.02      1.77
    0    6    8      6.35      1.10
    2    6    8      4.59     -4.88
    4    6    8      3.11      0.80
    6    6    8     -0.66      3.50
    1    7    8      0.56      5.06
    3    7    8     -1.26     -3.45
    5    7    8     -1.91     -1.55
    7    7    8     -1.75     -1.23
    0    8    8      4.68      2.27
    2    8    8      3.09      0.85
    4    8    8      1.75      1.01
    6    8    8     -0.59      3.26
    8    8    8     -5.34      1.03
    1    9    8     -1.91      1.22
    3    9    8     -3.07      0.60
    5    9    8     -1.12      1.15
    7    9    8      0.54      1.84
    9    9    8     -1.82     -0.80
    0   10    8      2.59     -3.11
    2   10    8      1.29      1.59
    4   10    8     -2.63      2.23
    6   10    8     -1.19      3.07
    8   10    8     -3.44     -1.12
   10   10    8     -4.37     -1.97
    1   11    8     -1.24      1.46
    3   11    8     -2.82      1.75
    5   11    8     -2.19     -0.25
    7   11    8      3.32     -0.04
    9   11    8      0.84     -0.17
   11   11    8      0.87      0.43
    0   12    8      0.47     -0.97
    2   12    8      0.49      1.17
    4   12    8     -1.63      0.49
    6   12    8      0.08     -0.57
    8   12    8      0.72     -0.81
   10   12    8     -1.49      1.37
   12   12    8      1.20     -0.14
    1   13    8     -0.80      0.53
    3   13    8     -0.95      0.92
    5   13    8      0.13     -1.17
    7   13    8      3.08     -1.65
    9   13    8      1.32      1.08
   11   13    8      1.81      0.20
   13   13    8      3.35     -2.50
    0   14    8      0.67      0.23
    2   14    8     -0.62      0.84
    4   14    8     -0.23      0.16
    6   14    8      0.60     -2.61
    8   14    8      0.98     -2.02
   10   14    8     -0.26      0.54
   12   14    8      0.99      0.45
   14   14    8     -0.78      0.74
    1   15    8      0.36      1.80
    3   15    8     -0.45      1.94
    5   15    8      1.23     -1.20
    7   15    8      1.42     -1.76
    9   15    8      0.95     -1.81
   11   15    8      1.64      0.21
   13   15    8      0.45      0.91
   15   15    8     -1.30      1.11
    0   16    8      2.33     -1.30
    2   16    8      1.30      0.40
    4   16    8      0.99      0.18
    6   16    8      0.62     -0.73
    8   16    8     -0.59     -0.83
   10   16    8      0.18     -1.58
   12   16    8      0.39      1.02
   14   16    8     -1.29      1.05
   16   16    8      0.45     -1.27
    1   17    8      1.08     -0.36
    3   17    8      1.69      1.35
    5   17    8      2.08      0.22
    7   17    8      1.09      1.76
    9   17    8     -0.68      0.31
   11   17    8      0.87      0.90
   13   17    8     -0.28      1.07
   15   17    8     -0.69     -0.15
   17   17    8      0.16     -1.80
    0   18    8     -0.91     -2.50
    2   18    8      0.65     -0.68
    4   18    8     -1.10     -0.39
    6   18    8      0.18     -0.77
    8   18    8     -1.01     -0.71
   10   18    8     -0.86     -0.30
   12   18    8      0.58     -0.26
   14   18    8     -0.02     -0.41
   16   18    8      0.46     -1.65
    1   19    8     -0.82      0.61
    3   19    8      0.18      0.78
    5   19    8     -0.51      0.55
    7   19    8      0.71      0.35
    9   19    8     -2.00      0.56
   11   19    8     -1.76      0.31
   13   19    8     -0.67     -0.08
   15   19    8     -0.58      0.22
    0   20    8     -2.69     -1.48
    2   20    8     -0.64     -1.40
    4   20    8     -2.90     -0.20
    6   20    8     -0.62     -0.78
    8   20    8      0.04     -1.37
   10   20    8     -0.68     -0.26
   12   20    8     -0.46     -1.07
   14   20    8     -0.50     -0.21
    1   21    8     -1.05     -0.53
    3   21    8      0.34     -0.86
    5   21    8      0.27      0.56
    7   21    8      1.22     -0.13
    9   21    8      0.12      0.47
   11   21    8     -1.25     -1.03
   13   21    8     -1.06      0.19
    0   22    8     -0.80     -0.89
    2   22    8     -0.06     -1.28
    4   22    8     -0.54      0.31
    6   22    8      0.16     -1.04
    8   22    8      0.58     -0.39
   10   22    8      0.66      0.14
    1   23    8      0.29      0.04
    3   23    8      0.61      0.08
    5   23    8      0.80      0.35
    7   23    8      0.14     -1.17
    9   23    8     -0.34      0.70
    0   24    8      0.38      1.02
    2   24    8     -0.17      0.53
    4   24    8     -0.13      1.96
    6   24    8     -0.02     -0.12
    2    3    7     -8.32      2.66
    1    4    7     -7.69     -2.43
    3    4    7     -0.04     -4.26
    2    5    7     -4.93      2.22
    4    5    7      0.46      2.05
    1    6    7      1.14      1.61
    3    6    7      7.40      1.51
    5    6    7      7.75     -0.20
    2    7    7      0.42      5.00
    4    7    7      0.90      0.77
    6    7    7     -0.52     -1.97
    1    8    7      3.14      2.06
    3    8    7      0.91      1.76
    5    8    7      4.36     -2.28
    7    8    7      2.22      0.19
    2    9    7      0.14      0.98
    4    9    7     -3.79     -2.58
    6    9    7     -1.85     -2.13
    8    9    7     -2.35      1.78
    1   10    7      1.92     -0.04
    3   10    7     -0.21     -1.39
    5   10    7     -0.22     -3.22
    7   10    7     -0.67      0.52
    9   10    7      1.26      1.71
    2   11    7     -0.16      0.33
    4   11    7     -1.69     -1.49
    6   11    7     -1.66     -1.47
    8   11    7      0.73      1.95
   10   11    7      0.51      1.93
    1   12    7     -0.23      0.52
    3   12    7      0.75     -0.61
    5   12    7     -1.30     -0.71
    7   12    7      0.78     -0.23
    9   12    7      2.95      1.30
   11   12    7      0.98      0.64
    2   13    7      0.83      1.75
    4   13    7      0.18      0.45
    6   13    7     -0.54      1.51
    8   13    7      1.20     -0.83
   10   13    7     -0.18     -1.12
   12   13    7     -0.58     -1.17
    1   14    7      1.58      0.67
    3   14    7      2.87      0.00
    5   14    7      0.06      1.90
    7   14    7      0.52      3.18
    9   14    7      0.00     -0.27
   11   14    7     -0.18     -0.10
   13   14    7     -0.67     -0.08
    2   15    7     -0.10      0.05
    4   15    7     -1.63     -1.58
    6   15    7     -0.54      0.09
    8   15    7     -0.11     -1.08
   10   15    7      1.40     -1.25
   12   15    7      0.90     -0.07
   14   15    7     -0.52     -0.39
    1   16    7      0.62     -1.60
    3   16    7     -1.08     -0.42
    5   16    7     -1.10      0.77
    7   16    7     -0.83      2.23
    9   16    7      0.59      0.27
   11   16    7      2.12      1.79
   13   16    7      0.05      0.41
   15   16    7     -0.14     -0.68
    2   17    7     -0.85     -1.70
    4   17    7     -1.34     -0.03
    6   17    7     -0.65     -0.93
    8   17    7     -0.25     -0.86
   10   17    7      1.68      0.64
   12   17    7      1.13      1.86
   14   17    7     -0.79      0.45
   16   17    7     -1.07      0.63
    1   18    7      0.06     -2.37
    3   18    7     -0.35      0.06
    5   18    7     -0.30      1.48
    7   18    7     -0.80      1.12
    9   18    7      0.33      0.00
   11   18    7      0.08      1.20
   13   18    7      0.70      1.24
   15   18    7      0.12      0.49
   17   18    7      0.14     -0.46
    2   19    7      0.23     -1.13
    4   19    7      0.85     -0.55
    6   19    7     -0.88     -1.14
    8   19    7      0.62     -0.57
   10   19    7      0.13     -0.08
   12   19    7      0.44     -0.23
   14   19    7     -0.39      0.34
   16   19    7     -1.10      1.01
    1   20    7     -0.97     -0.05
    3   20    7     -0.07     -0.70
    5   20    7     -1.88     -0.14
    7   20    7     -1.75      0.19
    9   20    7     -0.52     -0.36
   11   20    7     -0.36     -0.95
   13   20    7      0.57     -1.24
   15   20    7      0.01      0.00
    2   21    7      0.90      0.13
    4   21    7      1.38     -1.63
    6   21    7     -2.22     -1.27
    8   21    7     -1.02     -1.21
   10   21    7     -0.38     -0.48
   12   21    7      0.73     -0.80
   14   21    7     -1.03     -1.57
    1   22    7     -1.26      0.65
    3   22    7      0.33     -0.88
    5   22    7     -0.57      0.59
    7   22    7     -0.89      1.03
    9   22    7     -0.88      1.42
   11   22    7      0.09      1.24
    2   23    7      1.98     -0.63
    4   23    7      3.22     -0.93
    6   23    7      1.18     -0.74
    8   23    7      0.29     -0.56
   10   23    7      0.58      0.72
    1   24    7     -0.65     -0.15
    3   24    7      0.02     -0.39
    5   24    7      1.07      1.27
    7   24    7      0.81      1.33
    2   25    7      2.51     -0.71
    4   25    7      2.68     -0.38
    0    0    6     -8.08     33.24
    1    1    6      7.86      3.31
    0    2    6     -6.68      9.44
    2    2    6     -2.15     -2.48
    1    3    6      2.79    -10.78
    3    3    6      2.54    -15.51
    0    4    6     -2.81      9.01
    2    4    6      0.82      5.84
    4    4    6      4.38     -0.14
    1    5    6     -1.81      0.50
    3    5    6     -1.96     -4.58
    5    5    6      4.12     -7.78
    0    6    6      1.31      3.80
    2    6    6      0.31      9.05
    4    6    6      6.08      1.88
    6    6    6     11.40      5.00
    1    7    6      1.39     -5.45
    3    7    6     -1.92     -2.16
    5    7    6      4.94     -2.94
    7    7    6      4.51      1.59
    0    8    6      3.98      0.02
    2    8    6      0.10      3.23
    4    8    6      0.99     -1.47
    6    8    6      1.78     -2.13
    8    8    6     -3.34     -1.41
    1    9    6      0.42      1.43
    3    9    6     -2.93      2.42
    5    9    6     -1.15     -1.56
    7    9    6     -1.23     -2.12
    9    9    6      0.39      3.18
    0   10    6      0.46      4.72
    2   10    6     -0.48      3.45
    4   10    6      0.68      3.41
    6   10    6     -2.68     -2.87
    8   10    6     -6.29      1.22
   10   10    6     -3.79      3.76
    1   11    6     -1.45      3.08
    3   11    6     -1.25      4.78
    5   11    6      0.42      4.09
    7   11    6     -2.44      0.12
    9   11    6      1.67      2.42
   11   11    6      3.83     -0.88
    0   12    6     -0.81     -1.63
    2   12    6      0.29     -2.89
    4   12    6      3.71     -0.73
    6   12    6      1.45     -2.43
    8   12    6     -1.61      1.22
   10   12    6      2.53      1.94
   12   12    6     -1.88      4.08
    1   13    6     -0.47      0.55
    3   13    6     -1.24      1.33
    5   13    6      0.14     -0.44
    7   13    6     -1.87     -1.36
    9   13    6      4.04     -1.43
   11   13    6      3.91     -0.16
   13   13    6     -1.82      1.86
    0   14    6      2.12     -5.68
    2   14    6      1.85     -3.24
    4   14    6      1.38     -3.05
    6   14    6      0.04     -0.80
    8   14    6     -0.92      1.24
   10   14    6      3.59      1.31
   12   14    6     -0.81      3.01
   14   14    6     -0.20      2.03
    1   15    6      2.04      2.24
    3   15    6      1.07      2.85
    5   15    6     -0.53      0.61
    7   15    6     -1.25      1.19
    9   15    6      0.68     -1.08
   11   15    6      2.05     -1.11
   13   15    6      0.87     -0.57
   15   15    6     -0.06      1.01
    0   16    6      1.20     -2.73
    2   16    6      1.61     -1.43
    4   16    6     -0.28     -1.87
    6   16    6     -0.69      0.51
    8   16    6      0.01      1.04
   10   16    6     -0.85     -0.14
   12   16    6     -0.09     -1.25
   14   16    6      0.34      1.15
   16   16    6     -0.95      2.03
    1   17    6      0.02      2.22
    3   17    6      1.88      1.24
    5   17    6     -0.03      0.97
    7   17    6      1.55     -0.25
    9   17    6      0.79     -0.72
   11   17    6     -0.24     -2.32
   13   17    6      0.21     -1.31
   15   17    6     -1.03      0.70
   17   17    6      0.14     -0.20
    0   18    6      0.02     -1.65
    2   18    6      0.46     -2.74
    4   18    6     -0.63      0.34
    6   18    6     -2.14     -0.03
    8   18    6      0.14     -0.24
   10   18    6     -1.55     -0.85
   12   18    6     -1.30     -2.05
   14   18    6     -1.08     -0.31
   16   18    6     -0.07     -0.20
   18   18    6      0.58      0.41
    1   19    6     -1.27      1.29
    3   19    6      1.33      1.20
    5   19    6      0.75      3.18
    7   19    6      0.70      1.21
    9   19    6      0.50      1.31
   11   19    6     -0.10     -0.91
   13   19    6     -0.97     -0.03
   15   19    6     -0.57     -0.27
   17   19    6      0.62     -0.38
    0   20    6      0.13     -0.07
    2   20    6     -0.54     -1.72
    4   20    6     -0.07      1.17
    6   20    6     -0.56      0.70
    8   20    6      0.13      1.63
   10   20    6     -1.44      0.63
   12   20    6     -1.55      0.90
   14   20    6     -0.56      0.45
   16   20    6      0.13      0.05
    1   21    6     -3.20      1.39
    3   21    6     -0.73      1.51
    5   21    6      0.74      2.16
    7   21    6      1.04      1.83
    9   21    6      0.07     -0.52
   11   21    6     -0.64     -1.13
   13   21    6     -0.15      0.80
    0   22    6     -0.85     -1.43
    2   22    6     -0.65     -0.96
    4   22    6     -0.62     -0.60
    6   22    6     -0.44     -0.28
    8   22    6      0.47     -0.35
   10   22    6     -0.79     -1.60
   12   22    6     -0.49     -0.06
    1   23    6     -3.35     -0.73
    3   23    6     -0.19      0.26
    5   23    6      0.68     -0.05
    7   23    6      1.48      0.68
    9   23    6      1.59     -1.61
   11   23    6      0.45     -1.32
    2   24    6      1.13     -0.31
    4   24    6      1.35     -1.51
    6   24    6      0.71     -0.66
    8   24    6      0.73     -0.33
    1   25    6      0.14     -0.60
    3   25    6      1.11     -0.69
    5   25    6      1.21     -0.12
    1    2    5      9.15      1.45
    2    3    5      5.88      0.40
    1    4    5     17.50      5.18
    3    4    5     10.84      1.78
    2    5    5      1.67      4.34
    4    5    5     -8.74     -1.27
    1    6    5      5.33      4.65
    3    6    5      4.66     -4.37
    5    6    5      2.22     -7.67
    2    7    5      1.38     -0.28
    4    7    5     -2.17     -3.46
    6    7    5     -5.20      5.01
    1    8    5      2.78     -2.11
    3    8    5     10.69     -7.40
    5    8    5      2.01     -5.85
    7    8    5      4.46     -2.62
    2    9    5      1.84     -2.17
    4    9    5      0.13     -0.36
    6    9    5     -2.77      4.39
    8    9    5      0.25      1.90
    1   10    5     -0.65     -1.48
    3   10    5      2.49     -3.31
    5   10    5      0.06     -4.56
    7   10    5      6.32     -2.46
    9   10    5      5.37     -2.81
    2   11    5     -1.33      2.93
    4   11    5     -2.74      1.31
    6   11    5     -3.01      0.99
    8   11    5     -3.53     -3.76
   10   11    5     -3.45     -5.03
    1   12    5      0.21      0.24
    3   12    5     -1.03     -0.91
    5   12    5      0.62     -0.94
    7   12    5     -1.70      0.84
    9   12    5      0.93     -1.25
   11   12    5      3.84      2.07
    2   13    5     -1.54     -0.03
    4   13    5     -1.75      0.98
    6   13    5     -0.66      1.61
    8   13    5     -5.14      0.98
   10   13    5     -0.77      0.08
   12   13    5     -1.84     -0.27
    1   14    5      1.25     -1.12
    3   14    5     -0.52      0.43
    5   14    5      1.72      2.70
    7   14    5      0.65      2.84
    9   14    5      2.36      5.66
   11   14    5      2.46      2.51
   13   14    5     -0.02      0.91
    2   15    5     -0.86     -0.78
    4   15    5     -1.54      2.71
    6   15    5      0.05     -1.05
    8   15    5     -0.74      1.40
   10   15    5     -0.01      0.13
   12   15    5     -1.90     -1.22
   14   15    5     -1.72      1.36
    1   16    5     -0.04     -0.58
    3   16    5      1.28      3.20
    5   16    5      1.31      3.21
    7   16    5      2.21      1.06
    9   16    5      0.82      2.85
   11   16    5      0.58     -2.32
   13   16    5     -0.86      0.93
   15   16    5     -0.12      0.01
    2   17    5     -1.17     -1.01
    4   17    5      0.46      0.01
    6   17    5      0.35     -3.48
    8   17    5     -0.79     -0.45
   10   17    5     -1.01     -1.75
   12   17    5      0.65     -0.92
   14   17    5     -0.93      0.84
   16   17    5     -0.62      0.60
    1   18    5     -0.96     -0.11
    3   18    5      1.44      1.27
    5   18    5      1.58     -0.12
    7   18    5      1.29     -0.97
    9   18    5     -0.37     -0.30
   11   18    5      1.85     -0.62
   13   18    5      0.64      0.05
   15   18    5      0.94     -1.11
   17   18    5      1.29      0.04
    2   19    5     -0.27     -1.26
    4   19    5     -0.47     -2.02
    6   19    5     -1.22     -2.86
    8   19    5     -2.09     -2.57
   10   19    5      0.30     -1.94
   12   19    5      1.04     -0.94
   14   19    5      0.01     -1.53
   16   19    5      0.33      0.46
    1   20    5     -0.06     -0.29
    3   20    5     -1.57     -0.09
    5   20    5     -0.75      0.35
    7   20    5     -0.78      0.14
    9   20    5     -0.48     -0.96
   11   20    5     -0.21     -0.27
   13   20    5     -1.94     -0.59
   15   20    5     -0.05      0.17
    2   21    5     -0.81     -1.52
    4   21    5     -2.00     -1.60
    6   21    5     -0.83      0.20
    8   21    5     -0.72      0.36
   10   21    5      0.82     -0.10
   12   21    5     -1.04     -1.12
   14   21    5     -1.20      0.45
    1   22    5     -0.52      0.82
    3   22    5     -2.26      1.55
    5   22    5      0.78      1.58
    7   22    5      0.36      2.65
    9   22    5      0.97      2.80
   11   22    5      0.27      0.62
   13   22    5     -0.13      0.29
    2   23    5      0.64      1.36
    4   23    5      1.76     -0.75
    6   23    5      0.73     -1.50
    8   23    5      1.05      0.58
   10   23    5      1.58      1.09
   12   23    5      1.07     -0.07
    1   24    5     -1.35      1.40
    3   24    5     -0.64      1.27
    5   24    5      1.24     -1.01
    7   24    5      0.59      0.18
    9   24    5      1.02      2.16
    2   25    5     -0.41      0.49
    4   25    5      1.49     -1.75
    6   25    5      0.23     -2.44
    1   26    5     -2.36      0.07
    0    0    4     11.88    -44.55
    1    1    4     23.85    -22.06
    0    2    4      2.39      8.44
    2    2    4    -10.89     17.94
    1    3    4      0.83      5.59
    3    3    4    -18.32     -7.48
    0    4    4      5.80     15.68
    2    4    4     -5.30      0.31
    4    4    4     -3.43      6.24
    1    5    4     -3.17     -9.29
    3    5    4     -9.26     -9.86
    5    5    4     -0.37      7.63
    0    6    4      5.20     14.10
    2    6    4      3.65     -3.84
    4    6    4      1.68      2.06
    6    6    4      4.71     -8.50
    1    7    4     -5.59      2.71
    3    7    4     -5.28     -4.89
    5    7    4     -0.77     -3.74
    7    7    4      2.09     -9.36
    0    8    4      1.82     10.12
    2    8    4      3.32      0.92
    4    8    4     -2.39     -3.01
    6    8    4     -3.35     -5.11
    8    8    4     -6.89     -2.41
    1    9    4      0.71      1.13
    3    9    4      3.94      2.23
    5    9    4      2.61      2.91
    7    9    4      0.73      1.02
    9    9    4      0.47     -5.15
    0   10    4      3.25     -0.59
    2   10    4      5.04      0.87
    4   10    4      5.99     -3.09
    6   10    4      1.44      3.33
    8   10    4     -0.68      2.16
   10   10    4     -2.83      5.90
    1   11    4      3.13      3.08
    3   11    4      4.39      2.80
    5   11    4      3.72     -0.26
    7   11    4      3.19      2.10
    9   11    4      0.13     -1.51
   11   11    4     -4.43      4.94
    0   12    4     -0.42     -3.85
    2   12    4     -0.83     -1.08
    4   12    4      0.10     -5.19
    6   12    4     -1.51     -0.16
    8   12    4      0.88      2.68
   10   12    4     -3.89      5.04
   12   12    4      3.68      6.38
    1   13    4     -3.79      2.49
    3   13    4     -2.74      3.15
    5   13    4     -4.52     -1.04
    7   13    4     -0.65     -0.45
    9   13    4     -2.96     -3.82
   11   13    4     -0.15     -1.44
   13   13    4      5.90      1.79
    0   14    4     -6.88     -5.85
    2   14    4     -3.60     -3.79
    4   14    4     -2.52     -3.12
    6   14    4     -0.57     -1.80
    8   14    4      2.42      2.42
   10   14    4     -0.93     -1.31
   12   14    4      4.23      0.61
   14   14    4     -0.62      0.17
    1   15    4     -2.40      1.40
    3   15    4     -0.38      2.57
    5   15    4     -1.58      0.72
    7   15    4      2.06     -0.39
    9   15    4     -0.05     -1.36
   11   15    4      1.02     -3.33
   13   15    4     -0.38     -0.44
   15   15    4     -0.50     -1.88
    0   16    4     -0.31     -0.57
    2   16    4      0.60     -1.77
    4   16    4     -0.21     -0.86
    6   16    4      1.86     -0.86
    8   16    4      1.37      0.86
   10   16    4      0.63     -0.35
   12   16    4     -0.65      0.16
   14   16    4     -1.98     -0.45
   16   16    4     -0.15     -0.80
    1   17    4      1.88      3.00
    3   17    4      1.54      1.08
    5   17    4      2.61      2.36
    7   17    4      0.67      0.36
    9   17    4     -0.30     -0.61
   11   17    4      0.21     -0.47
   13   17    4     -1.01      0.36
   15   17    4      1.03     -0.28
   17   17    4      0.52     -0.68
    0   18    4      2.20      2.09
    2   18    4      0.44     -0.60
    4   18    4      1.48     -1.67
    6   18    4      1.94      1.24
    8   18    4     -0.81     -0.23
   10   18    4     -0.45      0.30
   12   18    4     -1.91      0.14
   14   18    4     -0.91      0.72
   16   18    4     -1.58      0.11
   18   18    4     -0.57      0.24
    1   19    4      1.50      0.59
    3   19    4     -0.04     -1.25
    5   19    4      1.32      1.24
    7   19    4     -0.45      0.72
    9   19    4      0.81     -0.31
   11   19    4      0.10     -0.60
   13   19    4      0.55      0.32
   15   19    4     -0.28      1.53
   17   19    4      0.80      0.93
    0   20    4      2.96     -0.26
    2   20    4      0.01     -0.75
    4   20    4     -1.48     -1.48
    6   20    4     -1.14      0.26
    8   20    4      0.87     -0.57
   10   20    4      0.09      0.59
   12   20    4      0.09     -0.78
   14   20    4      0.82      1.15
   16   20    4      0.28      0.69
    1   21    4     -1.44      0.05
    3   21    4     -1.38      0.01
    5   21    4     -1.19      1.07
    7   21    4      0.19     -0.34
    9   21    4      1.48      0.95
   11   21    4      1.11     -0.42
   13   21    4      1.74     -0.26
   15   21    4      0.01     -0.03
    0   22    4     -0.23      2.66
    2   22    4     -0.24      0.55
    4   22    4     -0.61     -0.15
    6   22    4     -0.37     -0.46
    8   22    4      0.63      0.41
   10   22    4     -0.94      1.13
   12   22    4     -0.05     -0.63
   14   22    4      0.17      0.06
    1   23    4     -1.42      0.39
    3   23    4      0.30     -0.63
    5   23    4      0.62      1.39
    7   23    4      0.77      0.94
    9   23    4      0.20      1.18
   11   23    4      0.44     -1.00
    0   24    4      2.97      2.27
    2   24    4      1.80      0.05
    4   24    4      0.06      0.57
    6   24    4     -0.28      0.27
    8   24    4     -0.38      0.49
   10   24    4     -0.38     -0.58
    1   25    4      0.97     -1.15
    3   25    4     -0.03     -0.54
    5   25    4      0.63      0.36
    7   25    4      0.26      0.59
    0   26    4      2.72      1.43
    2   26    4      0.82      1.50
    1    2    3    -12.82     -4.94
    2    3    3    -27.19     -8.62
    1    4    3    -27.15    -12.57
    3    4    3     -7.59     -5.83
    2    5    3     -8.20     -2.06
    4    5    3      3.23      9.66
    1    6    3      8.23     -4.12
    3    6    3     13.60     -3.45
    5    6    3      7.21     -6.70
    2    7    3     13.87      1.91
    4    7    3      8.63      5.12
    6    7    3      7.76      5.79
    1    8    3      6.37     -0.04
    3    8    3      0.01     -7.58
    5    8    3      9.73     -6.20
    7    8    3      4.95     -6.44
    2    9    3      2.78      2.07
    4    9    3      1.82      1.72
    6    9    3      6.93     -0.85
    8    9    3     -2.76     -4.43
    1   10    3      2.69      0.60
    3   10    3     -2.09     -2.85
    5   10    3      0.28      0.13
    7   10    3     -1.33     -4.65
    9   10    3     -1.98      1.87
    2   11    3      2.93     -1.33
    4   11    3     -3.80      0.28
    6   11    3     -4.25     -0.72
    8   11    3     -5.51     -0.97
   10   11    3     -5.61     -2.22
    1   12    3      0.91     -0.54
    3   12    3     -2.87      1.43
    5   12    3     -5.40      2.78
    7   12    3      2.97      4.48
    9   12    3      0.14      4.31
   11   12    3      1.37      1.07
    2   13    3     -3.59     -1.84
    4   13    3     -7.78     -0.21
    6   13    3     -5.12     -0.18
    8   13    3     -0.64      0.12
   10   13    3     -3.44     -5.55
   12   13    3      0.04     -1.20
    1   14    3     -2.35      0.21
    3   14    3     -2.03      4.18
    5   14    3     -0.79      3.26
    7   14    3      4.49      2.67
    9   14    3      5.38     -3.43
   11   14    3      3.71     -1.54
   13   14    3      2.30      0.66
    2   15    3     -4.27     -3.21
    4   15    3     -0.35     -2.04
    6   15    3     -2.62     -1.01
    8   15    3     -0.61     -4.01
   10   15    3     -1.86     -4.05
   12   15    3     -0.87      1.70
   14   15    3      0.63      1.15
    1   16    3     -1.79      1.52
    3   16    3      2.53      3.68
    5   16    3      4.80      3.98
    7   16    3      2.91      1.10
    9   16    3      5.41     -1.72
   11   16    3     -0.02      1.34
   13   16    3      1.57      0.14
   15   16    3      0.83     -0.39
    2   17    3     -1.85     -1.48
    4   17    3      1.42     -1.62
    6   17    3     -2.58     -0.23
    8   17    3     -0.65     -1.95
   10   17    3     -0.60     -0.40
   12   17    3     -0.08     -0.72
   14   17    3      1.59      0.54
   16   17    3     -0.06      0.28
    1   18    3     -0.20      0.88
    3   18    3      1.81      1.01
    5   18    3      1.72      2.84
    7   18    3      0.49      2.71
    9   18    3      2.93      2.84
   11   18    3      1.10      0.56
   13   18    3      1.04      0.09
   15   18    3     -0.72      0.54
   17   18    3      1.09     -0.18
    2   19    3     -1.18     -3.28
    4   19    3     -0.53     -2.36
    6   19    3     -1.39      0.74
    8   19    3     -2.03      1.30
   10   19    3     -1.97     -1.09
   12   19    3      0.84     -1.92
   14   19    3      0.35      0.58
   16   19    3      1.07     -1.04
   18   19    3      0.32     -1.00
    1   20    3     -0.36      0.18
    3   20    3      0.99      1.03
    5   20    3      1.91      1.54
    7   20    3      1.50      1.97
    9   20    3     -1.82      1.41
   11   20    3     -1.32      0.08
   13   20    3     -0.78      1.29
   15   20    3     -0.80     -0.51
   17   20    3      0.74     -0.36
    2   21    3     -1.20     -0.72
    4   21    3     -0.77     -1.17
    6   21    3      0.17     -0.92
    8   21    3     -1.79     -0.34
   10   21    3     -2.99     -1.24
   12   21    3     -0.83     -0.02
   14   21    3      0.70     -0.48
   16   21    3      0.69     -0.57
    1   22    3      0.15      0.29
    3   22    3      1.58      0.29
    5   22    3      1.07     -0.68
    7   22    3      1.78      0.14
    9   22    3      0.44     -0.30
   11   22    3     -0.38      1.16
   13   22    3     -0.86     -0.39
    2   23    3      1.13     -2.36
    4   23    3     -0.55     -3.23
    6   23    3     -1.48     -0.03
    8   23    3     -0.29     -0.11
   10   23    3      0.82     -0.11
   12   23    3     -1.01     -0.47
    1   24    3      1.61     -0.75
    3   24    3      2.38     -2.57
    5   24    3      0.12     -0.63
    7   24    3     -0.67      0.54
    9   24    3      1.22     -0.46
   11   24    3      1.22      1.22
    2   25    3      2.01     -0.65
    4   25    3      0.26     -0.57
    6   25    3     -1.45      1.72
    8   25    3     -1.40     -0.63
    1   26    3      0.55      0.46
    3   26    3      0.43     -0.29
    0    0    2    -27.87    110.89
    1    1    2    -34.79     24.19
    0    2    2     32.26     11.02
    1    3    2      9.84    -35.79
    3    3    2     -6.15    -12.91
    0    4    2     17.96    -10.65
    2    4    2     -4.30      5.00
    4    4    2     -2.97     -9.32
    1    5    2    -14.57      9.59
    3    5    2    -16.15     11.88
    0    6    2      4.40      2.06
    2    6    2    -18.43     18.49
    4    6    2     -0.38     -7.47
    6    6    2      1.92    -10.36
    1    7    2      0.56      2.73
    3    7    2    -10.87     16.09
    5    7    2      1.90      1.47
    7    7    2     -3.94      1.48
    0    8    2      9.47    -10.84
    2    8    2     -4.26      0.68
    4    8    2     -1.26      3.33
    6    8    2      2.31      1.92
    8    8    2     -0.21      7.46
    1    9    2      5.89      1.91
    3    9    2     -0.73      5.32
    5    9    2      2.16     -0.53
    7    9    2     -2.11     -4.43
    9    9    2    -12.98      1.08
    0   10    2      3.35     -2.03
    2   10    2      3.45     -2.22
    4   10    2      1.93     -0.41
    6   10    2      6.97     -2.89
    8   10    2     -0.55      5.58
   10   10    2      7.83      8.24
    1   11    2     10.50      1.13
    3   11    2      6.87      1.15
    5   11    2      3.90     -3.18
    7   11    2      0.17     -7.44
    9   11    2     -4.64     -0.38
   11   11    2      6.19      2.11
    0   12    2     -3.98     -5.52
    2   12    2      0.46     -4.28
    4   12    2     -0.17     -0.33
    6   12    2      3.14     -1.30
    8   12    2      0.66      2.60
   12   12    2     11.26      2.64
    1   13    2      3.28      2.57
    3   13    2      4.20      0.34
    5   13    2      1.86     -0.24
    7   13    2     -0.84     -4.26
    9   13    2     -2.59      1.44
   11   13    2     -1.51      3.30
   13   13    2     -3.13     -3.25
    0   14    2     -9.58      2.41
    2   14    2     -6.31     -0.61
    4   14    2     -4.99     -0.89
    6   14    2     -5.74     -0.75
    8   14    2     -2.83     -2.46
   10   14    2      0.59      4.27
   12   14    2      1.84     -1.34
   14   14    2      0.03     -0.27
    1   15    2     -1.25      5.20
    3   15    2     -0.13      2.23
    5   15    2     -1.63      2.32
    7   15    2     -1.85     -2.53
    9   15    2      0.40     -1.88
   11   15    2     -2.12      0.25
   13   15    2     -0.98     -0.68
   15   15    2     -2.05      1.52
    0   16    2     -2.05      1.55
    2   16    2     -2.49      0.27
    4   16    2     -2.49     -1.19
    6   16    2     -4.61     -1.98
    8   16    2     -1.87     -1.87
   10   16    2     -0.52      0.27
   12   16    2      1.38     -0.94
   14   16    2     -1.08      0.63
   16   16    2     -1.88     -0.35
    1   17    2      3.30     -0.61
    3   17    2      0.16      1.54
    5   17    2     -0.45     -0.59
    7   17    2     -0.32      0.82
    9   17    2      1.30      1.39
   11   17    2      1.33     -0.80
   13   17    2      0.84     -1.48
   15   17    2     -0.12     -1.04
   17   17    2      2.29      0.30
    0   18    2      3.79     -0.55
    2   18    2      0.95      1.37
    4   18    2     -1.37     -0.62
    6   18    2     -0.66     -2.98
    8   18    2     -0.45      0.87
   10   18    2      0.93     -0.57
   12   18    2      0.88     -0.79
   14   18    2     -1.29     -0.87
   16   18    2     -0.30      0.56
   18   18    2      0.41      0.03
    1   19    2      2.18     -1.34
    3   19    2      0.15      2.64
    5   19    2      1.35      0.55
    7   19    2      1.75      1.13
    9   19    2      1.80      0.07
   11   19    2      0.89      0.02
   13   19    2     -1.29     -0.95
   15   19    2     -0.11     -0.49
   17   19    2      1.60      0.31
    0   20    2      1.48     -0.10
    2   20    2      1.52      0.98
    4   20    2      1.11      2.04
    6   20    2      1.36      1.53
    8   20    2      0.59      0.49
   10   20    2      1.68     -0.48
   12   20    2      0.09      0.24
   14   20    2      0.60     -0.55
   16   20    2      0.89      0.49
    1   21    2      2.42     -2.40
    3   21    2      2.23     -0.56
    5   21    2      1.57      2.29
    7   21    2      0.48      1.82
    9   21    2      1.98     -0.36
   11   21    2      1.02      0.81
   13   21    2      0.77     -1.03
   15   21    2      0.40      0.57
    0   22    2      2.29      0.98
    2   22    2      0.96     -0.43
    4   22    2     -0.47     -0.43
    6   22    2     -1.00      0.99
    8   22    2      0.67     -1.06
   10   22    2      0.68     -0.25
   12   22    2     -0.01     -0.29
   14   22    2      1.60      0.51
    1   23    2     -0.93     -2.43
    3   23    2     -1.53     -2.72
    5   23    2     -0.85     -0.71
    7   23    2      0.36     -0.16
    9   23    2      1.06     -0.06
   11   23    2     -0.95      1.07
   13   23    2      0.70      0.04
    0   24    2     -1.95      0.61
    2   24    2     -2.63      0.78
    4   24    2     -1.39     -0.13
    6   24    2      0.04     -0.03
    8   24    2      1.17     -1.07
   10   24    2     -1.67      0.04
    1   25    2     -2.89     -2.31
    3   25    2     -1.10     -0.60
    5   25    2     -0.14      0.71
    7   25    2      1.02      1.13
    0   26    2      0.04     -0.48
    2   26    2      0.76      0.64
    4   26    2      0.33      1.15
    1    2    1      4.18     22.31
    2    3    1     40.41     48.67
    1    4    1     22.30     55.05
    3    4    1     -1.72     20.32
    2    5    1     38.30     36.23
    4    5    1     17.94      2.97
    1    6    1      1.00      3.38
    3    6    1     -7.36     -8.97
    2    7    1     14.29     -1.31
    4    7    1      8.16     -2.54
    6    7    1     -1.82     -5.43
    1    8    1      0.11     -2.52
    3    8    1      0.14      4.89
    5    8    1     -9.72    -11.17
    7    8    1     -5.91     -4.17
    2    9    1     12.27      6.86
    4    9    1      5.11      2.82
    6    9    1     -6.87     -8.16
    8    9    1     -0.42     -0.09
    1   10    1     -0.52     -0.55
    3   10    1     -2.29      4.51
    5   10    1     -6.96     -3.27
    7   10    1     -6.31      1.11
    9   10    1     -2.82      3.06
    2   11    1     -2.18     -1.32
    4   11    1     -3.90     -0.46
    6   11    1     -5.69     -3.22
    8   11    1      0.03     -2.67
   10   11    1      6.01      0.97
    1   12    1     -2.09     -0.49
    3   12    1     -1.94      2.69
    5   12    1      0.55      4.25
    7   12    1      0.11     -2.56
    9   12    1      3.22      3.41
   11   12    1     -1.23      2.76
    2   13    1     -4.34     -0.58
    4   13    1     -3.70      2.24
    6   13    1     -3.58     -0.13
    8   13    1     -0.23     -1.65
   10   13    1      3.71      4.38
   12   13    1      1.60     -1.35
    1   14    1      0.73      2.98
    3   14    1      3.50      4.12
    5   14    1      6.17      4.08
    7   14    1      6.73      0.25
    9   14    1      5.46      3.73
   11   14    1      0.38     -0.46
   13   14    1     -2.58     -2.40
    2   15    1     -2.70     -0.14
    4   15    1     -4.81     -4.22
    6   15    1     -3.73     -2.25
    8   15    1     -3.71      0.07
   10   15    1     -1.64      2.28
   12   15    1     -0.25     -0.64
   14   15    1      0.45     -0.40
    1   16    1      2.09      2.06
    3   16    1      3.43     -1.14
    5   16    1      4.19     -3.36
    7   16    1      5.32     -0.14
    9   16    1      3.59      0.50
   11   16    1      3.02      1.77
   13   16    1     -1.89     -1.09
   15   16    1     -1.14     -1.05
    2   17    1     -0.76     -2.08
    4   17    1     -1.47     -5.04
    6   17    1     -0.13     -1.09
    8   17    1     -2.24     -0.38
   10   17    1     -1.55     -0.17
   12   17    1     -1.16      0.22
   14   17    1      0.00     -1.14
   16   17    1      1.21      0.15
    1   18    1      1.14      0.17
    3   18    1      3.07      0.28
    5   18    1      4.45      0.62
    7   18    1      3.97      1.39
    9   18    1      2.55      0.12
   11   18    1      0.71      0.60
   13   18    1     -1.28     -1.49
   15   18    1      0.72      0.20
   17   18    1     -0.56     -0.12
    2   19    1     -1.94     -1.17
    4   19    1     -0.53     -0.04
    6   19    1     -0.86     -0.90
    8   19    1     -1.75     -0.59
   10   19    1     -2.05      0.37
   12   19    1     -1.81     -1.80
   14   19    1      2.41     -0.96
   16   19    1      2.24     -0.82
   18   19    1      0.62     -1.45
    1   20    1      0.23     -0.10
    3   20    1      1.10      0.92
    5   20    1     -0.41     -0.31
    7   20    1     -2.12     -2.30
    9   20    1      0.76      2.53
   11   20    1     -0.22      1.61
   13   20    1     -1.04     -1.65
   15   20    1     -0.69     -0.75
   17   20    1     -0.92     -1.06
    2   21    1     -1.17     -0.49
    4   21    1     -1.42      0.62
    6   21    1     -4.50     -2.16
    8   21    1     -4.20     -0.09
   10   21    1     -1.99      2.28
   12   21    1     -0.75     -1.03
   14   21    1      0.10     -1.59
   16   21    1      0.51     -0.50
    1   22    1      0.74      0.44
    3   22    1      1.10      1.41
    5   22    1     -0.15      1.50
    7   22    1     -1.46     -1.15
    9   22    1      1.15      1.21
   11   22    1      2.25      1.35
   13   22    1     -0.02     -0.07
   15   22    1     -1.51     -1.17
    2   23    1     -1.88     -0.27
    4   23    1     -1.09      1.58
    6   23    1     -0.31      1.59
    8   23    1     -1.01      1.21
   10   23    1      0.29      0.58
   12   23    1      1.65      1.53
    1   24    1     -0.67     -0.90
    3   24    1     -0.93     -1.28
    5   24    1      1.42      0.22
    7   24    1      2.05      1.25
    9   24    1      1.61      0.54
   11   24    1      2.83      0.93
    2   25    1     -2.25     -1.84
    4   25    1     -1.18     -1.21
    6   25    1      0.94      0.90
    8   25    1      0.20      2.12
    1   26    1     -0.16     -0.48
    3   26    1      0.16     -0.97
    5   26    1      0.69     -2.06
    1    3    0    -63.97      0.08
    0    4    0    -13.30      0.02
    2    4    0     -7.88      0.01
    4    4    0    -37.62      0.00
    2    6    0     16.16      0.04
    4    6    0    -20.29      0.01
    6    6    0    -10.23      0.01
    3    7    0     15.73     -0.10
    5    7    0     -1.37     -0.07
    7    7    0      5.20      0.00
    0    8    0    -24.31     -0.02
    2    8    0      0.84     -0.03
    4    8    0     11.49      0.00
    6    8    0     14.47      0.04
    8    8    0     19.61      0.00
    1    9    0      4.16     -0.05
    3    9    0     13.09     -0.09
    5    9    0      6.72     -0.03
    7    9    0     -1.18      0.00
    9    9    0      0.20     -0.03
    0   10    0     -1.68     -0.04
    2   10    0      5.07      0.00
    4   10    0     16.41      0.08
    6   10    0      9.91      0.02
    8   10    0     14.98     -0.01
    1   11    0     11.73      0.08
    3   11    0     13.99      0.03
    5   11    0      6.72      0.01
    7   11    0     -5.21      0.04
    9   11    0     -8.63      0.03
   11   11    0    -15.98     -0.02
    0   12    0    -10.12     -0.01
    2   12    0     -6.41      0.06
    4   12    0      3.02      0.13
    6   12    0     -1.66      0.04
    8   12    0      0.99     -0.06
   10   12    0      4.54     -0.13
   12   12    0      5.54      0.04
    1   13    0      5.84      0.03
    3   13    0      4.89      0.02
    5   13    0      3.26     -0.01
    7   13    0     -3.75     -0.02
    9   13    0     -5.29     -0.05
   11   13    0     -6.13     -0.05
   13   13    0     -9.17      0.00
    0   14    0     -7.23     -0.09
    2   14    0     -8.54      0.01
    4   14    0     -5.44      0.06
    6   14    0     -5.31     -0.09
    8   14    0     -8.93     -0.21
   10   14    0      1.41     -0.20
   12   14    0      2.65     -0.08
   14   14    0      2.38      0.01
    1   15    0      4.66      0.01
    3   15    0      2.30      0.03
    5   15    0      4.42     -0.09
    7   15    0     -0.05     -0.12
    9   15    0     -3.22     -0.02
   11   15    0     -0.64     -0.27
   13   15    0     -2.91     -0.29
   15   15    0      2.42     -0.01
    0   16    0     -4.90     -0.01
    2   16    0     -4.25      0.08
    4   16    0     -3.48      0.10
    6   16    0     -3.35     -0.06
    8   16    0     -5.19     -0.12
   10   16    0      0.23     -0.12
   12   16    0      0.92      0.11
   14   16    0      2.32      0.74
   16   16    0      0.68     -0.01
    1   17    0     -1.94      0.10
    3   17    0      0.78      0.08
    5   17    0      0.01      0.01
    7   17    0      2.95     -0.02
    9   17    0      4.03      0.05
   11   17    0      1.94     -0.22
   13   17    0     -0.62      0.45
   15   17    0      0.75      0.62
   17   17    0      1.13      0.00
    0   18    0     -2.60      0.05
    2   18    0      0.90      0.07
    4   18    0     -0.05      0.09
    6   18    0     -3.81      0.00
    8   18    0     -0.27     -0.12
   10   18    0      1.15     -0.07
   12   18    0      1.97      0.79
   14   18    0      1.15      2.00
   16   18    0      0.18      0.71
   18   18    0     -0.27     -0.02
    1   19    0      2.00      0.07
    3   19    0      4.40      0.02
    5   19    0      0.60      0.02
    7   19    0      1.07      0.00
    9   19    0      1.52     -0.02
   11   19    0      1.91     -0.29
   13   19    0      0.56      0.44
   15   19    0     -0.28      0.40
   17   19    0     -0.32     -0.28
    0   20    0      1.70     -0.06
    2   20    0      1.86      0.00
    4   20    0      1.74      0.05
    6   20    0     -0.69     -0.06
    8   20    0     -0.66     -0.18
   10   20    0      1.80     -0.20
   12   20    0      3.61      0.05
   14   20    0      0.29      0.72
   16   20    0      0.14      0.08
    1   21    0      0.82      0.03
    3   21    0      0.41      0.02
    5   21    0      2.59     -0.04
    7   21    0      1.97     -0.06
    9   21    0      0.98     -0.05
   11   21    0      2.79     -0.30
   13   21    0     -1.14     -0.30
   15   21    0     -0.60     -0.22
    0   22    0      0.21     -0.04
    2   22    0     -1.62      0.03
    4   22    0     -0.99      0.09
    6   22    0      0.26     -0.08
    8   22    0     -1.81     -0.24
   10   22    0      1.35     -0.23
   12   22    0      0.39     -0.19
   14   22    0     -0.95     -0.04
    1   23    0      0.95      0.07
    3   23    0     -0.83      0.07
    5   23    0     -0.60      0.08
    7   23    0     -2.55      0.10
    9   23    0     -0.68     -0.04
   11   23    0      2.18     -0.04
   13   23    0     -1.75     -0.01
    0   24    0      1.89     -0.01
    2   24    0      1.51      0.01
    4   24    0      0.00      0.11
    6   24    0     -1.19      0.08
    8   24    0     -2.90     -0.01
   10   24    0      0.49     -0.16
    1   25    0      0.79      0.05
    3   25    0      1.21      0.02
    5   25    0      0.93      0.08
    7   25    0     -1.13      0.17
    9   25    0     -0.07      0.07
    0   26    0     -0.39     -0.04
    2   26    0      0.68     -0.03
    4   26    0      2.26      0.04
    5    6    1    -10.89    -11.88
    5    5    2     13.27    -17.80
   10   12    2     11.14      8.48
    0   24    6     -0.16     -1.04
    1    2    7     -3.04     -1.88
    0    8   10      3.28      4.39
    0   10   10      2.77      5.06
    1   20   15     -0.18     -0.56
    3   20   15     -0.26     -0.90
    1   19   16      0.40      1.06
    3   19   16     -0.12      0.29
    4   17   17      0.38      0.23
    6   17   17      0.36      0.21
    1   18   17      0.44     -0.70
    7   15   18      0.62     -0.50
    0   16   18      1.14     -0.23
    2   16   18      0.13      0.65
    4   16   18     -0.09      0.84
    3   14   19     -0.21      0.15
    5   14   19      0.01      0.18
    2   15   19     -0.21     -0.98
    1   13   20     -1.86      0.22
    3   13   20     -1.18      0.31
    5   10   21      0.25      0.37
    2   11   21     -2.04      0.04
    0    8   22     -0.55      1.81
    2    8   22     -0.03      1.83
    1    1    0     62.17      0.06
    0    2    0     83.18      0.05
    2    2    0     -4.31      0.00
    3    3    0    -48.16      0.05
    1    5    0      7.36      0.02
    3    5    0      1.94      0.01
    5    5    0    -37.02      0.01
    0    6    0     -8.88      0.04
    1    7    0     -3.59     -0.02
   10   10    0      9.24      0.00
   19   19    0     -0.96      0.00
   18   20    0     -0.60     -0.09
   17   21    0     -0.96     -0.25
   12   24    0     -0.44     -0.10
    6   26    0      1.53      0.02
   14   23    1     -0.21      0.01
   10   25    1     -0.02     -0.56
    7   26    1      0.28     -0.25
    2    2    2     38.97    -16.34
   19   19    2      0.64      0.70
   18   20    2      0.67     -0.63
   12   24    2     -1.18      0.37
    9   25    2      0.20      0.65
    6   26    2     -0.10      1.23
   15   22    3     -0.20     -1.32
    5   26    3      0.80      0.34
   13   23    4     -0.31     -0.08
    9   25    4      0.42      0.41
    4   26    4      0.24      0.79
   18   19    5     -0.80      0.10
   17   20    5      0.48      0.15
   16   21    5     -0.88      0.32
   11   24    5      0.37      1.00
    8   25    5      0.94     -0.44
    3   26    5     -2.18     -0.38
   15   21    6      0.58      0.69
   14   22    6      0.97     -0.01
   10   24    6      0.10      0.10
    7   25    6      0.45      0.52
    0   26    6      0.63      0.27
    2   26    6      0.58     -0.08
   13   22    7     -0.23     -0.19
    9   24    7      0.59      1.15
    6   25    7      1.25     -0.63
   12   22    8      0.48     -0.51
    8   24    8      0.07     -0.39
    1   25    8      0.67      0.67
    3   25    8      0.20      0.33
   17   18    9      0.65     -0.49
   16   19    9     -0.18      0.24
   11   22    9     -0.92     -0.13
   17   17   10      0.94      0.88
   16   18   10      0.99     -0.68
   15   19   10     -0.13      0.67
   14   20   10     -0.48     -0.07
   10   22   10      0.31     -0.33
    7   23   10      1.42     -0.03
    2   24   10      0.31      0.43
    4   24   10     -0.16     -0.42
   14   19   11      0.33      0.36
   13   20   11      0.05      0.28
    9   22   11      0.06      0.30
    6   23   11      0.26      0.49
   14   18   12      0.32     -0.54
   13   19   12      0.47     -0.28
    9   21   12     -0.41      0.11
    6   22   12      0.70     -0.60
    1   23   12     -0.34      0.41
    3   23   12      0.20     -0.74
   13   18   13      0.01      0.30
   12   19   13      0.03     -0.72
    8   21   13     -0.29      0.29
    3   22   13     -0.08      0.17
   14   16   14     -0.60      0.09
   13   17   14     -0.46     -0.28
   12   18   14      0.09     -0.27
    8   20   14      0.73      0.42
    5   21   14     -0.21      0.07
   14   15   15     -0.29      0.35
   13   16   15      0.27     -0.49
   12   17   15     -0.22      0.18
    8   19   15     -0.37      0.54
    5   20   15      0.05      0.02
   14   14   16      1.15      0.08
    8   18   16     -0.15      0.33
    5   19   16     -0.14      0.60
    9   16   17      0.20      0.49
    3   18   17     -0.54     -1.13
   12   12   18      0.07     -0.42
   11   13   18     -0.02     -0.45
   10   14   18      0.20      0.32
    6   16   18     -0.22      0.46
    1   17   18     -0.03      0.07
    3   17   18     -0.51     -0.28
    8   13   19      0.67     -0.15
    7   14   19      0.47      0.17
    4   15   19      0.20     -0.38
   10   10   20      0.09     -0.15
    6   12   20      0.12     -0.84
    5   13   20      0.30     -0.44
    0   14   20      0.34     -0.51
    2   14   20     -0.58     -0.06
    8    9   21     -0.34     -0.36
    4   11   21     -0.50      0.20
    1   12   21     -0.69      0.21
    6    6   22      0.06     -1.44
    5    7   22      0.68     -0.05
    4    8   22      0.07      0.50
    1    9   22     -0.60      0.69
    3    9   22     -0.05      0.48
    2    3   23      0.08     -0.87
    1    4   23     -0.63      0.64
    3    4   23     -0.89      1.24
    2    5   23     -0.22     -0.77
    0    0    0      0.00      0.00
;
_shelx_fab_checksum              42359
loop_
_space_group_symop_operation_xyz
'x, y, z'
'-x, -y, z'
'-y, x, z'
'y, -x, z'
'-x, y, z+1/2'
'x, -y, z+1/2'
'y, x, z+1/2'
'-y, -x, z+1/2'
'x+1/2, y+1/2, z+1/2'
'-x+1/2, -y+1/2, z+1/2'
'-y+1/2, x+1/2, z+1/2'
'y+1/2, -x+1/2, z+1/2'
'-x+1/2, y+1/2, z+1'
'x+1/2, -y+1/2, z+1'
'y+1/2, x+1/2, z+1'
'-y+1/2, -x+1/2, z+1'
loop_
_atom_site_label
_atom_site_type_symbol
_atom_site_fract_x
_atom_site_fract_y
_atom_site_fract_z
_atom_site_U_iso_or_equiv
_atom_site_adp_type
_atom_site_occupancy
_atom_site_site_symmetry_order
_atom_site_calc_flag
_atom_site_refinement_flags_posn
_atom_site_refinement_flags_adp
_atom_site_refinement_flags_occupancy
_atom_site_disorder_assembly
_atom_site_disorder_group
Zn1 Zn 0.25748(2) 0.11945(2) 0.33239(3) 0.02811(16) Uani 0.870(2) 1 d . . P A 1
Zn1' Zn 0.34320(19) 0.08059(18) 0.30964(18) 0.0324(13) Uani 0.130(2) 1 d . U P
A 2
Zn2 Zn 0.34369(2) 0.15631(2) 0.47802(3) 0.02487(16) Uani 1 2 d S T P A .
O1 O 0.2352(2) 0.1295(2) 0.2269(2) 0.0564(11) Uani 1 1 d . . . . .
O2 O 0.3129(3) 0.0562(2) 0.2142(2) 0.0767(15) Uani 1 1 d . . . . .
O3 O 0.33707(15) -0.05489(14) -0.0308(2) 0.0397(7) Uani 1 1 d . . . . .
O4 O 0.2574(2) -0.03470(17) -0.1157(2) 0.0548(9) Uani 1 1 d . . . . .
O5 O 0.17330(19) 0.19184(17) -0.11562(17) 0.0513(9) Uani 1 1 d . . . . .
O6 O 0.1603(2) 0.24205(16) -0.00609(19) 0.0507(9) Uani 1 1 d . . . . .
O7 O 0.3587(2) 0.1413(2) 0.5910(3) 0.0525(12) Uani 1 2 d DS T P . .
O8 O 0.33956(14) 0.16044(14) 0.3601(2) 0.0302(9) Uani 1 2 d S T P . .
O1W O 0.4303(4) 0.0697(4) 0.2938(8) 0.157(5) Uani 1 2 d S T P A 2
H1W1 H 0.4412 0.0588 0.2501 0.235 Uiso 1 2 calc R U P A 2
H1W2 H 0.4507 0.0493 0.3272 0.235 Uiso 1 2 calc R U P A 2
N1 N 0.3341(8) 0.1498(8) 0.7122(5) 0.081(5) Uani 0.5 1 d D U P B -1
C1 C 0.2713(3) 0.0931(3) 0.1873(3) 0.0459(11) Uani 1 1 d . . . . .
C2 C 0.2607(2) 0.0932(2) 0.1040(2) 0.0393(10) Uani 1 1 d . . . . .
C3 C 0.2836(2) 0.04054(19) 0.0621(2) 0.0346(9) Uani 1 1 d . . . . .
H3 H 0.3074 0.0077 0.0854 0.041 Uiso 1 1 calc R U . . .
C4 C 0.2709(2) 0.03711(19) -0.0148(2) 0.0359(8) Uani 1 1 d . . . . .
C5 C 0.2374(2) 0.0875(2) -0.0487(2) 0.0379(10) Uani 1 1 d . . . . .
H5 H 0.2289 0.0855 -0.0999 0.046 Uiso 1 1 calc R U . . .
C6 C 0.2160(2) 0.1412(2) -0.0079(2) 0.0374(9) Uani 1 1 d . . . . .
C7 C 0.2267(2) 0.1434(2) 0.0692(2) 0.0379(9) Uani 1 1 d . . . . .
H7 H 0.2113 0.1783 0.0974 0.045 Uiso 1 1 calc R U . . .
C8 C 0.2914(3) -0.0219(2) -0.0576(2) 0.0426(11) Uani 1 1 d . . . . .
C9 C 0.1811(2) 0.1965(2) -0.0455(2) 0.0384(9) Uani 1 1 d . . . . .
C10 C 0.3237(6) 0.1601(7) 0.6397(5) 0.063(5) Uani 0.5 1 d D U P B -1
H10 H 0.2867 0.1835 0.6260 0.076 Uiso 0.5 1 calc R U P B -1
C11 C 0.391(2) 0.114(3) 0.7390(10) 0.150(8) Uani 0.5 1 d D U P B -1
H11A H 0.4038 0.1303 0.7871 0.224 Uiso 0.5 1 calc R U P B -1
H11B H 0.4261 0.1187 0.7040 0.224 Uiso 0.5 1 calc R U P B -1
H11C H 0.3799 0.0684 0.7435 0.224 Uiso 0.5 1 calc R U P B -1
C12 C 0.2881(11) 0.1750(11) 0.7667(10) 0.155(12) Uani 0.5 1 d D U P B -1
H12A H 0.2923 0.1513 0.8129 0.232 Uiso 0.5 1 calc R U P B -1
H12B H 0.2445 0.1701 0.7477 0.232 Uiso 0.5 1 calc R U P B -1
H12C H 0.2968 0.2203 0.7755 0.232 Uiso 0.5 1 calc R U P B -1
loop_
_atom_site_aniso_label
_atom_site_aniso_U_11
_atom_site_aniso_U_22
_atom_site_aniso_U_33
_atom_site_aniso_U_23
_atom_site_aniso_U_13
_atom_site_aniso_U_12
Zn1 0.0331(3) 0.0365(3) 0.0147(2) 0.0013(2) -0.0022(2) 0.00487(17)
Zn1' 0.047(2) 0.034(2) 0.0163(17) -0.0010(12) -0.0012(12) -0.0016(15)
Zn2 0.0292(2) 0.0292(2) 0.0163(3) 0.00153(16) -0.00153(16) 0.0030(2)
O1 0.084(3) 0.066(2) 0.0200(17) -0.0077(14) -0.0113(17) 0.019(2)
O2 0.120(4) 0.075(3) 0.0355(19) -0.0014(19) -0.031(2) 0.042(3)
O3 0.0492(17) 0.0303(14) 0.0398(17) -0.0081(13) -0.0042(14) 0.0095(12)
O4 0.086(3) 0.0450(19) 0.0335(15) -0.0109(15) -0.0152(17) 0.0175(16)
O5 0.085(2) 0.048(2) 0.0211(13) 0.0058(13) -0.0014(15) 0.0306(17)
O6 0.089(3) 0.0310(15) 0.0318(19) 0.0030(12) -0.0020(16) 0.0180(15)
O7 0.068(2) 0.068(2) 0.022(2) 0.0033(16) -0.0033(16) 0.005(3)
O8 0.0366(14) 0.0366(14) 0.0175(19) 0.0004(11) -0.0004(11) -0.0030(16)
O1W 0.147(7) 0.147(7) 0.175(11) -0.039(5) 0.039(5) 0.038(8)
N1 0.084(9) 0.115(12) 0.045(5) 0.009(5) 0.007(5) 0.002(8)
C1 0.067(3) 0.050(3) 0.021(2) -0.0069(19) -0.011(2) 0.006(2)
C2 0.058(3) 0.042(2) 0.018(2) -0.0029(17) -0.0073(17) 0.014(2)
C3 0.052(2) 0.0297(19) 0.0224(18) 0.0021(15) -0.0088(17) 0.0072(17)
C4 0.055(2) 0.0316(19) 0.0213(18) -0.0032(16) -0.0017(17) 0.0067(17)
C5 0.065(3) 0.034(2) 0.0152(17) -0.0026(15) -0.0062(17) 0.011(2)
C6 0.055(2) 0.0308(19) 0.027(2) 0.0008(15) -0.0034(17) 0.0104(17)
C7 0.061(3) 0.031(2) 0.021(2) -0.0058(15) -0.0036(18) 0.0114(19)
C8 0.076(3) 0.032(2) 0.0193(17) -0.0005(15) -0.0002(18) 0.009(2)
C9 0.058(3) 0.033(2) 0.0249(19) 0.0003(15) -0.0025(17) 0.0111(18)
C10 0.052(7) 0.081(10) 0.056(5) 0.005(5) -0.007(5) 0.000(7)
C11 0.17(2) 0.19(2) 0.093(10) 0.04(2) -0.03(2) 0.040(14)
C12 0.16(2) 0.23(3) 0.069(10) -0.036(13) 0.034(11) 0.016(18)
loop_
_atom_type_symbol
_atom_type_description
_atom_type_scat_dispersion_real
_atom_type_scat_dispersion_imag
_atom_type_scat_source
C C 0.0033 0.0016 'International Tables Vol C Tables 4.2.6.8 and 6.1.1.4'
H H 0.0000 0.0000 'International Tables Vol C Tables 4.2.6.8 and 6.1.1.4'
N N 0.0061 0.0033 'International Tables Vol C Tables 4.2.6.8 and 6.1.1.4'
O O 0.0106 0.0060 'International Tables Vol C Tables 4.2.6.8 and 6.1.1.4'
Zn Zn 0.2839 1.4301 'International Tables Vol C Tables 4.2.6.8 and 6.1.1.4'
loop_
_geom_angle_atom_site_label_1
_geom_angle_atom_site_label_2
_geom_angle_atom_site_label_3
_geom_angle
_geom_angle_site_symmetry_1
_geom_angle_site_symmetry_3
O1 Zn1 O8 113.76(18) . .
O1 Zn1 O4 123.14(16) . 6
O8 Zn1 O4 105.27(16) . 6
O1 Zn1 O5 103.53(16) . 7
O8 Zn1 O5 103.27(17) . 7
O4 Zn1 O5 105.86(18) 6 7
O1W Zn1' O8 102.8(3) . .
O1W Zn1' O2 98.7(5) . .
O8 Zn1' O2 131.0(3) . .
O1W Zn1' Zn1' 52.6(2) . 16_554
O8 Zn1' Zn1' 53.76(14) . 16_554
O2 Zn1' Zn1' 115.0(2) . 16_554
O1W Zn1' O4 139.3(5) . 6
O8 Zn1' O4 92.75(19) . 6
O2 Zn1' O4 98.8(3) . 6
Zn1' Zn1' O4 142.80(12) 16_554 6
O7 Zn2 O3 86.24(14) . 6
O7 Zn2 O3 86.24(14) . 12
O3 Zn2 O3 97.10(17) 6 12
O7 Zn2 O8 171.1(2) . .
O3 Zn2 O8 87.85(12) 6 .
O3 Zn2 O8 87.85(12) 12 .
O7 Zn2 O6 91.29(15) . 10
O3 Zn2 O6 173.17(14) 6 10
O3 Zn2 O6 89.08(15) 12 10
O8 Zn2 O6 95.32(12) . 10
O7 Zn2 O6 91.29(15) . 7
O3 Zn2 O6 89.08(15) 6 7
O3 Zn2 O6 173.17(15) 12 7
O8 Zn2 O6 95.32(12) . 7
O6 Zn2 O6 84.6(2) 10 7
C1 O1 Zn1 109.7(3) . .
C1 O2 Zn1' 114.6(4) . .
C8 O3 Zn2 128.0(3) . 11_544
C8 O4 Zn1 124.2(3) . 6_554
C8 O4 Zn1' 97.4(3) . 6_554
C9 O5 Zn1 119.0(3) . 7_554
C9 O6 Zn2 133.0(3) . 10_554
C10 O7 Zn2 125.0(6) . .
Zn1' O8 Zn1' 72.5(3) . 16_554
Zn1 O8 Zn1 133.1(2) . 16_554
Zn1' O8 Zn2 116.3(2) . .
Zn1' O8 Zn2 116.3(2) 16_554 .
Zn1 O8 Zn2 105.72(13) . .
Zn1 O8 Zn2 105.72(13) 16_554 .
Zn1' O1W Zn1' 74.7(5) . 16_554
Zn1' O1W H1W1 116.0 . .
Zn1' O1W H1W1 116.0 16_554 .
Zn1' O1W H1W2 116.0 . .
Zn1' O1W H1W2 116.0 16_554 .
H1W1 O1W H1W2 113.0 . .
C10 N1 C12 119.3(13) . .
C10 N1 C11 121.9(11) . .
C12 N1 C11 118.8(14) . .
O2 C1 O1 123.3(5) . .
O2 C1 C2 119.0(4) . .
O1 C1 C2 117.7(4) . .
C7 C2 C3 120.4(4) . .
C7 C2 C1 121.0(4) . .
C3 C2 C1 118.6(4) . .
C2 C3 C4 120.0(4) . .
C2 C3 H3 120.0 . .
C4 C3 H3 120.0 . .
C5 C4 C3 119.0(4) . .
C5 C4 C8 121.6(3) . .
C3 C4 C8 119.4(3) . .
C4 C5 C6 121.4(4) . .
C4 C5 H5 119.3 . .
C6 C5 H5 119.3 . .
C7 C6 C5 119.4(4) . .
C7 C6 C9 119.5(4) . .
C5 C6 C9 121.1(4) . .
C2 C7 C6 119.7(4) . .
C2 C7 H7 120.1 . .
C6 C7 H7 120.1 . .
O3 C8 O4 127.4(4) . .
O3 C8 C4 117.1(4) . .
O4 C8 C4 115.3(4) . .
O6 C9 O5 124.7(4) . .
O6 C9 C6 118.8(4) . .
O5 C9 C6 116.5(4) . .
O7 C10 N1 124.1(10) . .
O7 C10 H10 118.0 . .
N1 C10 H10 118.0 . .
N1 C11 H11A 109.5 . .
N1 C11 H11B 109.5 . .
H11A C11 H11B 109.5 . .
N1 C11 H11C 109.5 . .
H11A C11 H11C 109.5 . .
H11B C11 H11C 109.5 . .
N1 C12 H12A 109.5 . .
N1 C12 H12B 109.5 . .
H12A C12 H12B 109.5 . .
N1 C12 H12C 109.5 . .
H12A C12 H12C 109.5 . .
H12B C12 H12C 109.5 . .
loop_
_geom_bond_atom_site_label_1
_geom_bond_atom_site_label_2
_geom_bond_distance
_geom_bond_site_symmetry_2
Zn1 O1 1.945(4) .
Zn1 O8 1.9458(17) .
Zn1 O4 1.969(3) 6
Zn1 O5 1.972(3) 7
Zn1' O1W 1.822(9) .
Zn1' O8 1.870(5) .
Zn1' O2 1.878(5) .
Zn1' Zn1' 2.211(7) 16_554
Zn1' O4 2.399(5) 6
Zn2 O7 2.059(5) .
Zn2 O3 2.091(3) 6
Zn2 O3 2.091(3) 12
Zn2 O8 2.103(4) .
Zn2 O6 2.106(3) 10
Zn2 O6 2.106(3) 7
O1 C1 1.266(7) .
O2 C1 1.237(6) .
O3 C8 1.250(6) .
O3 Zn2 2.091(3) 11_544
O4 C8 1.276(6) .
O4 Zn1 1.969(3) 6_554
O4 Zn1' 2.399(5) 6_554
O5 C9 1.264(5) .
O5 Zn1 1.972(3) 7_554
O6 C9 1.245(5) .
O6 Zn2 2.106(3) 10_554
O7 C10 1.190(10) .
O8 Zn1' 1.870(5) 16_554
O8 Zn1 1.9459(17) 16_554
O1W Zn1' 1.822(9) 16_554
O1W H1W1 0.8400 .
O1W H1W2 0.8400 .
N1 C10 1.326(10) .
N1 C12 1.450(12) .
N1 C11 1.459(12) .
C1 C2 1.500(6) .
C2 C7 1.388(6) .
C2 C3 1.394(6) .
C3 C4 1.396(5) .
C3 H3 0.9300 .
C4 C5 1.381(6) .
C4 C8 1.491(5) .
C5 C6 1.391(6) .
C5 H5 0.9300 .
C6 C7 1.392(6) .
C6 C9 1.498(6) .
C7 H7 0.9300 .
C10 H10 0.9300 .
C11 H11A 0.9600 .
C11 H11B 0.9600 .
C11 H11C 0.9600 .
C12 H12A 0.9600 .
C12 H12B 0.9600 .
C12 H12C 0.9600 .
loop_
_geom_torsion_atom_site_label_1
_geom_torsion_atom_site_label_2
_geom_torsion_atom_site_label_3
_geom_torsion_atom_site_label_4
_geom_torsion
_geom_torsion_site_symmetry_1
_geom_torsion_site_symmetry_4
O1W Zn1' O2 C1 -134.3(6) . .
O8 Zn1' O2 C1 -18.9(7) . .
Zn1' Zn1' O2 C1 -81.6(5) 16_554 .
O4 Zn1' O2 C1 82.6(5) 6 .
O1W Zn1' O8 Zn1' 20.4(5) . 16_554
O2 Zn1' O8 Zn1' -93.3(4) . 16_554
O4 Zn1' O8 Zn1' 162.46(13) 6 16_554
O1W Zn1' O8 Zn1 174.5(5) . .
O2 Zn1' O8 Zn1 60.8(4) . .
Zn1' Zn1' O8 Zn1 154.10(16) 16_554 .
O4 Zn1' O8 Zn1 -43.44(13) 6 .
O1W Zn1' O8 Zn1 49.9(6) . 16_554
O2 Zn1' O8 Zn1 -63.9(5) . 16_554
Zn1' Zn1' O8 Zn1 29.47(15) 16_554 16_554
O4 Zn1' O8 Zn1 -168.1(2) 6 16_554
O1W Zn1' O8 Zn2 -90.8(5) . .
O2 Zn1' O8 Zn2 155.4(3) . .
Zn1' Zn1' O8 Zn2 -111.2(2) 16_554 .
O4 Zn1' O8 Zn2 51.2(2) 6 .
O8 Zn1' O1W Zn1' -20.7(5) . 16_554
O2 Zn1' O1W Zn1' 114.9(4) . 16_554
O4 Zn1' O1W Zn1' -130.5(3) 6 16_554
Zn1' O2 C1 O1 -23.8(8) . .
Zn1' O2 C1 C2 158.8(4) . .
Zn1 O1 C1 O2 1.6(7) . .
Zn1 O1 C1 C2 179.0(4) . .
O2 C1 C2 C7 -164.5(6) . .
O1 C1 C2 C7 18.0(8) . .
O2 C1 C2 C3 17.7(8) . .
O1 C1 C2 C3 -159.9(5) . .
C7 C2 C3 C4 -1.9(7) . .
C1 C2 C3 C4 175.9(4) . .
C2 C3 C4 C5 2.2(7) . .
C2 C3 C4 C8 -175.4(5) . .
C3 C4 C5 C6 -0.2(7) . .
C8 C4 C5 C6 177.3(5) . .
C4 C5 C6 C7 -2.1(8) . .
C4 C5 C6 C9 178.4(5) . .
C3 C2 C7 C6 -0.3(8) . .
C1 C2 C7 C6 -178.1(5) . .
C5 C6 C7 C2 2.3(8) . .
C9 C6 C7 C2 -178.1(5) . .
Zn2 O3 C8 O4 -39.4(7) 11_544 .
Zn2 O3 C8 C4 136.3(4) 11_544 .
Zn1 O4 C8 O3 12.3(8) 6_554 .
Zn1' O4 C8 O3 -37.0(6) 6_554 .
Zn1 O4 C8 C4 -163.5(3) 6_554 .
Zn1' O4 C8 C4 147.3(4) 6_554 .
C5 C4 C8 O3 158.8(5) . .
C3 C4 C8 O3 -23.7(7) . .
C5 C4 C8 O4 -25.0(7) . .
C3 C4 C8 O4 152.5(5) . .
Zn2 O6 C9 O5 -41.4(8) 10_554 .
Zn2 O6 C9 C6 141.2(4) 10_554 .
Zn1 O5 C9 O6 -4.3(7) 7_554 .
Zn1 O5 C9 C6 173.2(3) 7_554 .
C7 C6 C9 O6 -2.9(7) . .
C5 C6 C9 O6 176.7(5) . .
C7 C6 C9 O5 179.5(5) . .
C5 C6 C9 O5 -0.9(7) . .
Zn2 O7 C10 N1 179.8(15) . .
C12 N1 C10 O7 -179.9(5) . .
C11 N1 C10 O7 0.0(5) . .
