#------------------------------------------------------------------------------
#$Date: 2017-12-10 21:25:10 +0200 (Sun, 10 Dec 2017) $
#$Revision: 204138 $
#$URL: file:///home/coder/svn-repositories/cod/cif/7/22/77/7227777.cif $
#------------------------------------------------------------------------------
#
# This file is available in the Crystallography Open Database (COD),
# http://www.crystallography.net/
#
# All data on this site have been placed in the public domain by the
# contributors.
#
data_7227777
loop_
_publ_author_name
'Patyk-Ka\'zmierczak, Ewa'
'Warren, Mark R.'
'Allan, David R.'
'Katrusiak, Andrzej'
_publ_section_title
;
 Pressure inverse solubility and polymorphism of an edible
 \g-cyclodextrin-based metal-organic framework.
;
_journal_issue                   13
_journal_name_full               'Physical chemistry chemical physics : PCCP'
_journal_page_first              9086
_journal_page_last               9091
_journal_paper_doi               10.1039/c7cp00593h
_journal_volume                  19
_journal_year                    2017
_chemical_absolute_configuration rm
_chemical_formula_moiety         'C48 H80 O40, 2(KOH)'
_chemical_formula_sum            'C48 H82 K2 O42'
_chemical_formula_weight         1409.34
_chemical_name_common            '\g-cyclodextrin-metal-organic framework'
_chemical_name_systematic
'catena-((\m8-\g-Cyclodextrin)-di-potassium dihydroxide)'
_space_group_crystal_system      cubic
_space_group_IT_number           211
_space_group_name_Hall           'I 4 2 3'
_space_group_name_H-M_alt        'I 4 3 2'
_atom_sites_solution_hydrogens   geom
_atom_sites_solution_primary     direct
_audit_creation_date             2017-01-18
_audit_creation_method
;
Olex2 1.2
(compiled 2017.01.04 svn.r3372 for OlexSys, GUI svn.r5289)
;
_cell_angle_alpha                90.0
_cell_angle_beta                 90.0
_cell_angle_gamma                90.0
_cell_formula_units_Z            12
_cell_length_a                   31.3031(11)
_cell_length_b                   31.3031(11)
_cell_length_c                   31.3031(11)
_cell_measurement_reflns_used    2435
_cell_measurement_temperature    295
_cell_measurement_theta_max      13.2400
_cell_measurement_theta_min      1.7750
_cell_volume                     30673.4(19)
_computing_cell_refinement       'CrysAlisPro 1.171.38.41 (Rigaku OD, 2015)'
_computing_data_collection       'CrysAlisPro 1.171.38.41 (Rigaku OD, 2015)'
_computing_data_reduction        'CrysAlisPro 1.171.38.41 (Rigaku OD, 2015)'
_computing_molecular_graphics    'Olex2 (Dolomanov et al., 2009)'
_computing_publication_material  'Olex2 (Dolomanov et al., 2009)'
_computing_structure_refinement  'ShelXL (Sheldrick, 2015)'
_computing_structure_solution    'ShelXS (Sheldrick, 2008)'
_diffrn_ambient_environment      'diamond-anvil cell'
_diffrn_ambient_pressure         250000
_diffrn_ambient_temperature      295
_diffrn_detector                 'CCD plate'
_diffrn_measured_fraction_theta_full 0.727
_diffrn_measured_fraction_theta_max 0.727
_diffrn_measurement_details
;
List of Runs (angles in degrees, time in seconds):

  # Type    Start    End  Width  t~exp~   \w     \q     \k     \f   Frames
--------------------------------------------------------------------------
  1  \w   -105.00 -74.00   0.20    0.70    --   15.00  70.00 155.77  155
  2  \w   -105.00 -74.00   0.20    0.70    --   15.00  70.00 -24.23  155
  3  \w   -106.00 -66.00   0.20    0.70    --  -15.00 -70.00-155.77  200
  4  \w   -106.00 -66.00   0.20    0.70    --  -15.00 -70.00  24.23  200
  5  \w   -150.00 -94.00   0.20    0.70    --  -15.00  70.00 -24.23  280
  6  \w   -150.00 -94.00   0.20    0.70    --  -15.00  70.00 155.77  280
  7  \w    -96.00 -30.00   0.20    0.70    --   15.00 -70.00  24.23  330
  8  \w    -96.00 -30.00   0.20    0.70    --   15.00 -70.00-155.77  330
;
_diffrn_measurement_device       'abstract diffractometer'
_diffrn_measurement_device_type  'Newport IS4CCD (4 circle), Pilatus 300K'
_diffrn_measurement_method       '\w scans'
_diffrn_orient_matrix_type
'CrysAlisPro convention (1999,Acta A55,543-557)'
_diffrn_orient_matrix_UB_11      -0.0037906000
_diffrn_orient_matrix_UB_12      -0.0001763000
_diffrn_orient_matrix_UB_13      0.0217748000
_diffrn_orient_matrix_UB_21      -0.0111240000
_diffrn_orient_matrix_UB_22      0.0188683000
_diffrn_orient_matrix_UB_23      -0.0017932000
_diffrn_orient_matrix_UB_31      -0.0185468000
_diffrn_orient_matrix_UB_32      -0.0112634000
_diffrn_orient_matrix_UB_33      -0.0032637000
_diffrn_radiation_monochromator  synchrotron
_diffrn_radiation_probe          x-ray
_diffrn_radiation_type           synchrotron
_diffrn_radiation_wavelength     0.6889
_diffrn_reflns_av_R_equivalents  0.0810
_diffrn_reflns_av_unetI/netI     0.0324
_diffrn_reflns_Laue_measured_fraction_full 0.727
_diffrn_reflns_Laue_measured_fraction_max 0.727
_diffrn_reflns_limit_h_max       20
_diffrn_reflns_limit_h_min       -20
_diffrn_reflns_limit_k_max       20
_diffrn_reflns_limit_k_min       -20
_diffrn_reflns_limit_l_max       9
_diffrn_reflns_limit_l_min       -9
_diffrn_reflns_number            4737
_diffrn_reflns_point_group_measured_fraction_full 0.731
_diffrn_reflns_point_group_measured_fraction_max 0.731
_diffrn_reflns_theta_full        13.252
_diffrn_reflns_theta_max         13.252
_diffrn_reflns_theta_min         1.784
_diffrn_source                   synchrotron
_exptl_absorpt_coefficient_mu    0.145
_exptl_absorpt_correction_T_max  1.00000
_exptl_absorpt_correction_T_min  0.76028
_exptl_absorpt_correction_type   multi-scan
_exptl_absorpt_process_details
;
CrysAlisPro 1.171.38.41 (Rigaku Oxford Diffraction, 2015)
Empirical absorption correction using spherical harmonics,
 implemented in SCALE3 ABSPACK scaling algorithm.
;
_exptl_crystal_colour            'clear colourless'
_exptl_crystal_colour_lustre     clear
_exptl_crystal_colour_primary    colourless
_exptl_crystal_density_diffrn    0.915
_exptl_crystal_description       plate
_exptl_crystal_F_000             8928
_exptl_crystal_recrystallization_method
'Compressed crystal that was grown in situ at 0.16 GPa in the diamond-anvil cell from methanol:water mixture by heating and subsequent cooling of the cell'
_exptl_crystal_size_max          0.15
_exptl_crystal_size_mid          0.14
_exptl_crystal_size_min          0.05
_refine_diff_density_max         0.208
_refine_diff_density_min         -0.169
_refine_diff_density_rms         0.041
_refine_ls_abs_structure_details
;
 Flack x determined using 140 quotients [(I+)-(I-)]/[(I+)+(I-)]
 (Parsons, Flack and Wagner, Acta Cryst. B69 (2013) 249-259).
;
_refine_ls_abs_structure_Flack   0.36(14)
_refine_ls_extinction_method     none
_refine_ls_goodness_of_fit_ref   1.189
_refine_ls_hydrogen_treatment    constr
_refine_ls_matrix_type           full
_refine_ls_number_parameters     75
_refine_ls_number_reflns         594
_refine_ls_number_restraints     62
_refine_ls_restrained_S_all      1.452
_refine_ls_R_factor_all          0.1071
_refine_ls_R_factor_gt           0.0955
_refine_ls_shift/su_max          0.000
_refine_ls_shift/su_mean         0.000
_refine_ls_structure_factor_coef Fsqd
_refine_ls_weighting_details
'w=1/[\s^2^(Fo^2^)+(0.2000P)^2^] where P=(Fo^2^+2Fc^2^)/3'
_refine_ls_weighting_scheme      calc
_refine_ls_wR_factor_gt          0.2583
_refine_ls_wR_factor_ref         0.2807
_reflns_Friedel_coverage         0.605
_reflns_Friedel_fraction_full    0.737
_reflns_Friedel_fraction_max     0.737
_reflns_number_gt                466
_reflns_number_total             594
_reflns_threshold_expression     'I > 2\s(I)'
_iucr_refine_instructions_details
;

    final2.res created by SHELXL-2014/7

TITL FINAL2 in I432 #211
REM reset to I432 #211
CELL 0.6889 31.303052 31.303052 31.303052 90 90 90
ZERR 12 0.001109 0.001109 0.001109 0 0 0
LATT -2
SYMM -Y,+X,+Z
SYMM -X,-Y,+Z
SYMM +Y,-X,+Z
SYMM +X,-Z,+Y
SYMM +X,-Y,-Z
SYMM +X,+Z,-Y
SYMM +Z,+Y,-X
SYMM -X,+Y,-Z
SYMM -Z,+Y,+X
SYMM +Z,+X,+Y
SYMM +Y,+Z,+X
SYMM -Y,-Z,+X
SYMM +Z,-X,-Y
SYMM -Y,+Z,-X
SYMM -Z,-X,+Y
SYMM -Z,+X,-Y
SYMM +Y,-Z,-X
SYMM +Y,+X,-Z
SYMM -Y,-X,-Z
SYMM -X,+Z,+Y
SYMM -X,-Z,-Y
SYMM +Z,-Y,+X
SYMM -Z,-Y,-X
SFAC H C O K
DISP C 0.003 0.001 10.848
DISP H -0 0 0.623
DISP K 0.203 0.25 967.432
DISP O 0.011 0.006 30.192
UNIT 960 576 480 24
DFIX 1.5 C4 C3
DFIX 1.5 C14 C15
DFIX 2.4 O14 C15
DFIX 1.45 C14 O14
DFIX 1.5 C14 C13
DFIX 1.45 O13 C13
DFIX 1.45 O3 C3
DFIX 1.5 C4 C5
DFIX 1.5 C6 C5
DFIX 1.5 C16 C15
DFIX 1.45 C16 O16
DFIX 4 K1 C16
DFIX 1.5 C2 C3
DFIX 2.3 C2 O3
DFIX 3 C2 C5
DFIX 3 C5 C2
DFIX 2.8 C1 C4
DFIX 2.3 C5 C1
DFIX 1.5 C2 C1
DFIX 3 C12 C15
DFIX 1.5 C12 C13
DFIX 3 C15 C12
DFIX 3 C11 C14
DFIX 4 K1 C11
DFIX 1.5 C12 C11
DFIX 1.45 C2 O2
DFIX 2.2 O2 C3
DFIX 1.45 C12 O12
DFIX 1.45 C6 O6
DFIX 3 O5 C3
DFIX 1.45 O15 C15
DFIX 3 O15 C13
DFIX 2.5 O5 C6
DFIX 1.45 O5 C5
DFIX 2.2 O15 C16
DFIX 1.45 O5 C1
DFIX 1.45 O15 C11
DANG 2.4 0.02 C13 C15
DANG 2.5 O14 C15
DANG 2.5 C13 O14
DANG 2.5 0.02 C5 C3
DANG 2.5 0.02 C4 C2
DANG 2.5 0.02 C3 C1
DANG 2.5 0.02 C1 C5
DANG 2.4 0.02 C12 C14
DANG 2.5 C4 C11
DANG 2.5 C11 C4
DANG 2.4 0.02 C11 C13
DANG 2.4 0.02 C15 C11
DANG 2.5 O2 C1
DANG 2.5 O4 C12
DANG 2.7 O6 C5
DANG 2.5 0.02 O5 C4
DANG 2.4 0.02 C14 O15
DANG 2.5 0.02 C2 O5
DANG 2.4 0.02 O15 C12
ISOR K1
 
L.S. 100 0 0
PLAN  15
TEMP 21.85
CONN 4 C11
CONN 1 H11
BOND
MORE -1
BOND $H
CONF
ABIN
fmap 2 53
acta
OMIT 0 4 18
OMIT 0 0 10
OMIT 3 3 12
OMIT 4 4 18
OMIT 2 2 6
OMIT 5 5 18
OMIT 0 4 10
OMIT 4 8 8
OMIT 2 2 12
OMIT 2 4 4
OMIT 3 3 6
OMIT 0 8 16
OMIT 4 12 14
OMIT 0 1 5
OMIT 6 7 9
OMIT 2 3 9
OMIT 5 5 8
OMIT 4 4 10
OMIT 0 7 15
OMIT 2 2 20
OMIT -1 3 8
OMIT 4 5 17
OMIT -3 10 15
OMIT 0 6 6
OMIT 0 4 20
OMIT -6 7 17
OMIT -4 6 8
OMIT -2 3 9
OMIT 1 3 8
OMIT 2 2 18
OMIT 4 6 8
OMIT -2 3 19
OMIT 7 12 13
OMIT 1 1 16
OMIT 3 3 20
OMIT 4 5 15
OMIT 2 5 17
OMIT 2 3 19
OMIT -7 11 14
OMIT 2 2 8
OMIT 1 12 15
OMIT -2 11 13
OMIT 0 7 17
OMIT 2 11 13
OMIT 1 4 19
OMIT -1 12 13
REM <olex2.extras>
REM <HklSrc "%.\\FINAL2.hkl">
REM </olex2.extras>
 
WGHT    0.200000
FVAR       0.93546   0.23541   0.25344
C1    2    0.851296    0.684425    0.645022    11.00000   21.00000
AFIX  13
H1    1    0.844884    0.715051    0.646048    11.00000   -1.20000
AFIX   0
C2    2    0.893034    0.673999    0.665593    11.00000   21.00000
AFIX  13
H2    1    0.895340    0.683873    0.695213    11.00000   -1.20000
AFIX   0
C3    2    0.901715    0.626073    0.659976    11.00000   21.00000
AFIX  13
H3    1    0.907623    0.621085    0.629639    11.00000   -1.20000
AFIX   0
C4    2    0.862672    0.600525    0.671457    11.00000   21.00000
AFIX  13
H4    1    0.858543    0.608192    0.701528    11.00000   -1.20000
AFIX   0
C5    2    0.821144    0.613897    0.652084    11.00000   21.00000
AFIX  13
H5    1    0.829356    0.608555    0.622350    11.00000   -1.20000
AFIX   0
C6    2    0.781176    0.587663    0.651269    11.00000   21.00000
AFIX  23
H6A   1    0.772971    0.584603    0.621545    11.00000   -1.20000
H6B   1    0.788723    0.559367    0.661398    11.00000   -1.20000
AFIX   0
C11   2    0.867706    0.532987    0.705931    11.00000   21.00000
AFIX  13
H11   1    0.865774    0.553025    0.729907    11.00000   -1.20000
AFIX   0
C12   2    0.903597    0.505017    0.722482    11.00000   21.00000
AFIX  13
H12   1    0.903369    0.498445    0.753090    11.00000   -1.20000
AFIX   0
C13   2    0.904845    0.466759    0.691650    11.00000   21.00000
AFIX  13
H13   1    0.898021    0.481608    0.664947    11.00000   -1.20000
AFIX   0
C14   2    0.863931    0.442116    0.697445    11.00000   21.00000
AFIX  13
H14   1    0.861094    0.431997    0.726935    11.00000   -1.20000
AFIX   0
C15   2    0.825852    0.470469    0.684952    11.00000   21.00000
AFIX  13
H15   1    0.825174    0.477349    0.654418    11.00000   -1.20000
AFIX   0
C16   2    0.785549    0.451881    0.700564    11.00000   21.00000
AFIX  23
H16A  1    0.762982    0.471483    0.692398    11.00000   -1.20000
H16B  1    0.780928    0.425852    0.684398    11.00000   -1.20000
AFIX   0
K1    4    0.814366    0.500000    0.814366    10.50000    0.33314    0.25390 =
         0.33314   -0.03754    0.19341    0.03754
O2    3    0.927821    0.689397    0.637603    11.00000   31.00000
AFIX  83
H2A   1    0.950228    0.677536    0.644193    11.00000   -1.50000
AFIX   0
O3    3    0.941223    0.619624    0.683044    11.00000   31.00000
AFIX  83
H3A   1    0.949633    0.595103    0.679273    11.00000   -1.50000
AFIX   0
O4    3    0.872001    0.561258    0.674055    11.00000   31.00000
O5    3    0.814201    0.659175    0.647340    11.00000   31.00000
O6    3    0.742555    0.600910    0.674923    11.00000   31.00000
AFIX  83
H6    1    0.739157    0.585189    0.695599    11.00000   -1.50000
AFIX   0
O12   3    0.936317    0.531035    0.707936    11.00000   31.00000
AFIX  83
H12A  1    0.958335    0.517005    0.705801    11.00000   -1.50000
AFIX   0
O13   3    0.949751    0.455222    0.682636    11.00000   31.00000
AFIX  83
H13A  1    0.950615    0.431513    0.671530    11.00000   -1.50000
AFIX   0
O14   3    0.864636    0.406097    0.667426    11.00000   31.00000
O15   3    0.825935    0.509090    0.712781    11.00000   31.00000
O16   3    0.778343    0.441125    0.745747    11.00000   31.00000
AFIX  83
H16   1    0.770139    0.416318    0.747617    11.00000   -1.50000
AFIX   0
 
OA    3    1.000000    0.500000    0.676306    10.50000   31.00000
HKLF 4
 
REM  FINAL2 in I432 #211
REM R1 =  0.0955 for     466 Fo > 4sig(Fo)  and  0.1071 for all     594 data
REM     75 parameters refined using     62 restraints
 
END  
     
WGHT      0.2000      0.0000 

REM Highest difference peak  0.208,  deepest hole -0.169,  1-sigma level  0.041
Q1    1   0.8293  0.6546  0.6364  11.00000  0.05    0.21
Q2    1   0.8242  0.6543  0.6222  11.00000  0.05    0.19
Q3    1   0.8353  0.3861  0.6569  11.00000  0.05    0.19
Q4    1   0.8055  0.6403  0.6276  11.00000  0.05    0.18
Q5    1   0.8163  0.6420  0.6368  11.00000  0.05    0.17
Q6    1   0.8508  0.4160  0.6584  11.00000  0.05    0.16
Q7    1   0.8377  0.4147  0.6407  11.00000  0.05    0.13
Q8    1   0.8345  0.5238  0.7385  11.00000  0.05    0.11
Q9    1   0.8872  0.4381  0.7411  11.00000  0.05    0.11
Q10   1   0.7990  0.5000  0.7990  10.50000  0.05    0.11
Q11   1   0.8438  0.5994  0.7514  11.00000  0.05    0.11
Q12   1   0.8492  0.5971  0.7397  11.00000  0.05    0.11
Q13   1   0.8546  0.5217  0.7221  11.00000  0.05    0.11
Q14   1   0.8596  0.5860  0.7380  11.00000  0.05    0.11
Q15   1   0.8735  0.5750  0.7407  11.00000  0.05    0.11

  REM The information below was added by Olex2.
  REM
  REM R1 = 0.0955 for 466 Fo > 4sig(Fo) and 0.1071 for all 5195 data
  REM n/a parameters refined using n/a restraints
  REM Highest difference peak 0.21, deepest hole -0.17
  REM Mean Shift 0, Max Shift 0.000.

  REM +++ Tabular Listing of Refinement Information +++
  REM R1_all = 0.1071
  REM R1_gt = 0.0955
  REM wR_ref = 0.2807
  REM GOOF = 1.189
  REM Shift_max = 0.000
  REM Shift_mean = 0
  REM Reflections_all = 5195
  REM Reflections_gt = 466
  REM Parameters = n/a
  REM Hole = -0.17
  REM Peak = 0.21
  REM Flack = 0.36(14)

  
;
_cod_data_source_file            c7cp00593h3.cif
_cod_data_source_block           CDMOF_a_0_25GPa
_cod_depositor_comments
'Adding full bibliography for 7227776--7227790.cif.'
_cod_original_cell_volume        30673(2)
_cod_database_code               7227777
#BEGIN Tags that were not found in dictionaries:
_shelx_shelxl_version_number     2014/7
_chemical_oxdiff_formula         'C48 H82 K2 O40'
_shelx_space_group_comment
;
The symmetry employed for this shelxl refinement is uniquely defined
by the following loop, which should always be used as a source of
symmetry information in preference to the above space-group names.
They are only intended as comments.
;
_reflns_odcompleteness_completeness 77.45
_reflns_odcompleteness_iscentric 1
_reflns_odcompleteness_theta     13.25
_olex2_refinement_description
;
1. Fixed Uiso
 At 1.2 times of:
  All C(H) groups, All C(H,H) groups
 At 1.5 times of:
  All O(H) groups
2. Restrained distances
 C4-C3
 1.5 with sigma of 0.02
 C14-C15
 1.5 with sigma of 0.02
 O14-C15
 2.4 with sigma of 0.02
 C14-O14
 1.45 with sigma of 0.02
 C14-C13
 1.5 with sigma of 0.02
 O13-C13
 1.45 with sigma of 0.02
 O3-C3
 1.45 with sigma of 0.02
 C4-C5
 1.5 with sigma of 0.02
 C6-C5
 1.5 with sigma of 0.02
 C16-C15
 1.5 with sigma of 0.02
 C16-O16
 1.45 with sigma of 0.02
 K1-C16
 4 with sigma of 0.02
 C2-C3
 1.5 with sigma of 0.02
 C2-O3
 2.3 with sigma of 0.02
 C2-C5
 3 with sigma of 0.02
 C5-C2
 3 with sigma of 0.02
 C1-C4
 2.8 with sigma of 0.02
 C5-C1
 2.3 with sigma of 0.02
 C2-C1
 1.5 with sigma of 0.02
 C12-C15
 3 with sigma of 0.02
 C12-C13
 1.5 with sigma of 0.02
 C15-C12
 3 with sigma of 0.02
 C11-C14
 3 with sigma of 0.02
 K1-C11
 4 with sigma of 0.02
 C12-C11
 1.5 with sigma of 0.02
 C2-O2
 1.45 with sigma of 0.02
 O2-C3
 2.2 with sigma of 0.02
 C12-O12
 1.45 with sigma of 0.02
 C6-O6
 1.45 with sigma of 0.02
 O5-C3
 3 with sigma of 0.02
 O15-C15
 1.45 with sigma of 0.02
 O15-C13
 3 with sigma of 0.02
 O5-C6
 2.5 with sigma of 0.02
 O5-C5
 1.45 with sigma of 0.02
 O15-C16
 2.2 with sigma of 0.02
 O5-C1
 1.45 with sigma of 0.02
 O15-C11
 1.45 with sigma of 0.02
 C13-C15
 2.4 with sigma of 0.02
 O14-C15
 2.5 with sigma of 0.04
 C13-O14
 2.5 with sigma of 0.04
 C5-C3
 2.5 with sigma of 0.02
 C4-C2
 2.5 with sigma of 0.02
 C3-C1
 2.5 with sigma of 0.02
 C1-C5
 2.5 with sigma of 0.02
 C12-C14
 2.4 with sigma of 0.02
 C4-C11
 2.5 with sigma of 0.04
 C11-C4
 2.5 with sigma of 0.04
 C11-C13
 2.4 with sigma of 0.02
 C15-C11
 2.4 with sigma of 0.02
 O2-C1
 2.5 with sigma of 0.04
 O4-C12
 2.5 with sigma of 0.04
 O6-C5
 2.7 with sigma of 0.04
 O5-C4
 2.5 with sigma of 0.02
 C14-O15
 2.4 with sigma of 0.02
 C2-O5
 2.5 with sigma of 0.02
 O15-C12
 2.4 with sigma of 0.02
3. Uiso/Uaniso restraints and constraints
Uanis(K1) \\sim Ueq: with sigma of 0.1 and sigma for terminal atoms of 0.2
4. Others
 Uiso(C1)=Uiso(C2)=Uiso(C3)=Uiso(C4)=Uiso(C5)=Uiso(C6)=Uiso(C11)=Uiso(C12)=
 Uiso(C13)=Uiso(C14)=Uiso(C15)=Uiso(C16)=FVAR(1)
 Uiso(O2)=Uiso(O3)=Uiso(O4)=Uiso(O5)=Uiso(O6)=Uiso(O12)=Uiso(O13)=Uiso(O14)=
 Uiso(O15)=Uiso(O16)=Uiso(OA)=FVAR(2)
5.a Ternary CH refined with riding coordinates:
 C1(H1), C2(H2), C3(H3), C4(H4), C5(H5), C11(H11), C12(H12), C13(H13),
 C14(H14), C15(H15)
5.b Secondary CH2 refined with riding coordinates:
 C6(H6A,H6B), C16(H16A,H16B)
5.c Tetrahedral OH refined with riding coordinates:
 O2(H2A), O3(H3A), O6(H6), O12(H12A), O13(H13A), O16(H16)
;
_shelx_fab_file
;
-8 -17 -9 -10.3077 -2.0090
-8 -16 -10 8.9909 -0.5634
-8 -15 -11 -7.8088 -15.8367
-8 -15 -9 12.4428 9.2317
-8 -14 -12 -0.8966 -3.3342
-8 -13 -11 -0.5565 -7.6713
-8 -13 -9 -21.6611 10.8291
-8 -12 -10 23.6551 -6.8593
-7 -17 -8 3.4786 -9.0831
-7 -16 -11 -1.5262 11.8068
-7 -15 -12 -12.9856 -2.1284
-7 -15 -10 10.5632 -17.8420
-7 -15 -8 8.6705 -15.1208
-7 -14 -13 -4.6974 -3.4773
-7 -14 -11 -29.9087 -16.5987
-7 -14 -9 16.6306 6.5289
-7 -13 -10 -18.4769 12.0282
-7 -13 -8 0.2978 -7.4919
-7 -12 -11 9.2905 -40.7901
-7 -12 -9 18.0747 11.9329
-7 -11 -10 -18.0565 -19.7061
-6 -18 -8 1.2123 -8.3478
-6 -17 -9 5.0076 11.4839
-6 -17 -7 1.5853 -6.9831
-6 -16 -8 17.7530 -24.5434
-6 -15 -13 17.2688 -11.9336
-6 -15 -11 -1.1848 -16.3651
-6 -15 -9 26.2480 -15.8509
-6 -15 -7 -6.6693 -12.9721
-6 -14 -12 -3.2191 -22.8564
-6 -14 -10 12.1545 -14.7907
-6 -14 -8 1.5709 -14.7762
-6 -13 -11 -3.8300 -17.9768
-6 -13 -9 9.5754 4.4842
-6 -13 -7 -48.2204 -25.3524
-6 -12 -10 16.4100 -20.1604
-6 -11 -7 14.5350 3.0464
-5 -19 -6 -14.5730 19.7529
-5 -18 -9 13.0092 1.0277
-5 -18 -7 -2.5586 2.3796
-5 -17 -10 5.8965 7.7148
-5 -17 -8 0.3083 -9.1616
-5 -17 -6 41.0880 15.4289
-5 -16 -11 -5.1442 4.2975
-5 -16 -9 5.2453 13.3434
-5 -16 -7 -7.1897 11.9824
-5 -15 -10 3.6761 -9.1205
-5 -15 -8 24.6976 -23.1563
-5 -15 -6 12.1157 24.2532
-5 -14 -11 7.9855 2.2086
-5 -14 -9 2.9154 19.7833
-5 -14 -7 -63.3144 13.5931
-5 -13 -12 -9.8016 25.1810
-5 -13 -10 15.6525 2.3357
-5 -13 -8 -39.7234 20.5372
-5 -12 -11 6.7947 20.1726
-5 -12 -9 39.7298 -9.5310
-5 -11 -8 -15.2864 22.1662
-5 -11 -6 -4.6700 -0.9774
-5 -10 -9 22.0104 40.7280
-5 -10 -7 -37.7606 28.2973
-5 -9 -8 -15.8408 35.5133
-5 -9 -6 7.0981 -13.2505
-5 -8 -7 33.2047 42.1079
-5 -7 -6 44.4277 -14.7485
-4 -19 -7 -8.6186 -12.6256
-4 -19 -5 -5.9307 -14.5406
-4 -18 -8 1.5227 -14.4256
-4 -18 -6 1.6186 3.7600
-4 -17 -11 -12.4680 18.3090
-4 -17 -7 0.4708 7.7039
-4 -16 -12 6.8345 -3.1778
-4 -16 -10 -13.1283 -3.6672
-4 -16 -8 -17.5572 -11.4477
-4 -16 -6 17.5999 -7.3926
-4 -15 -13 4.2418 1.5857
-4 -15 -11 7.0578 -3.9339
-4 -15 -9 -8.8132 -20.2650
-4 -15 -7 -5.2173 -34.9943
-4 -14 -10 8.8688 4.3758
-4 -14 -8 -8.7254 -29.7192
-4 -14 -6 -21.5440 35.6243
-4 -13 -11 -0.5347 31.7478
-4 -13 -9 33.0239 -31.7559
-4 -12 -10 13.9111 9.0863
-4 -11 -7 -52.1747 -26.5723
-4 -11 -5 19.4436 16.8481
-4 -10 -8 -23.4763 21.4736
-4 -10 -6 8.3204 -20.7548
-4 -9 -7 -74.2797 32.0503
-4 -9 -5 6.9846 18.7034
-4 -7 -5 -78.3736 15.9157
-3 -20 -5 3.4793 -7.0000
-3 -19 -8 -9.5737 7.0995
-3 -19 -6 5.0982 6.2643
-3 -18 -9 -7.1046 0.4431
-3 -18 -7 2.7928 12.7695
-3 -18 -5 -2.1022 -14.7744
-3 -17 -10 -3.2477 -9.3834
-3 -17 -8 14.3075 -7.6704
-3 -17 -6 3.7846 7.5227
-3 -17 -4 1.3891 -6.1732
-3 -16 -13 -1.6481 -10.6292
-3 -16 -9 -5.2395 -2.5862
-3 -16 -7 -2.1908 0.9172
-3 -16 -5 8.9469 -35.5292
-3 -15 -14 -28.1012 24.1983
-3 -15 -12 -14.0870 9.5420
-3 -15 -10 18.0671 -33.9440
-3 -15 -8 6.0788 -39.5851
-3 -15 -6 0.2064 -7.0608
-3 -15 -4 -42.2829 -7.7639
-3 -14 -13 -23.8557 3.3416
-3 -14 -11 -5.4177 14.1095
-3 -14 -9 10.7069 -14.9609
-3 -14 -7 -6.1771 -15.1101
-3 -13 -12 -34.3210 22.9058
-3 -13 -10 -3.7738 9.1561
-3 -12 -11 -4.4231 5.1658
-3 -12 -5 67.1478 28.7984
-3 -11 -6 -45.7452 -9.3521
-3 -11 -4 -7.5598 -14.1417
-3 -10 -7 -5.0272 11.4782
-3 -10 -5 -44.1705 38.9935
-3 -9 -8 34.0243 -17.3411
-3 -9 -6 -29.6927 -52.4815
-3 -9 -4 -25.6901 35.4527
-3 -8 -7 -23.9367 32.1608
-3 -8 -5 -15.2060 62.7379
-3 -7 -6 12.4042 -14.5336
-3 -7 -4 -28.0622 61.9945
-3 -6 -5 -90.5069 11.1119
-3 -5 -4 48.5556 21.8764
-2 -20 -4 12.1787 10.1229
-2 -19 -7 5.5414 13.1056
-2 -18 -10 3.7515 -12.1517
-2 -18 -6 19.7859 1.9656
-2 -18 -4 35.5473 15.5701
-2 -17 -11 11.0815 -1.7858
-2 -17 -9 -24.3016 5.7874
-2 -17 -7 5.3641 4.5751
-2 -17 -3 6.3018 -9.3248
-2 -16 -12 12.1199 3.1630
-2 -16 -10 -19.0192 -7.8544
-2 -16 -8 5.0762 2.6592
-2 -16 -6 -12.6049 7.5637
-2 -16 -4 3.3691 -26.8152
-2 -15 -13 35.6511 5.5336
-2 -15 -11 -19.2138 4.3474
-2 -15 -9 18.5475 -6.7339
-2 -15 -7 18.9777 1.5438
-2 -15 -5 2.3293 -40.8923
-2 -14 -12 -7.5686 19.6045
-2 -14 -10 -5.9085 11.8552
-2 -14 -8 -1.3851 57.8485
-2 -13 -9 -16.1668 21.2411
-2 -13 -3 52.0534 13.8639
-2 -12 -10 -8.3603 22.1364
-2 -12 -6 -8.8889 15.0102
-2 -12 -4 -2.4757 -17.2084
-2 -11 -9 -13.7884 -25.9754
-2 -11 -7 -31.3264 12.0778
-2 -11 -5 23.3013 -1.8396
-2 -11 -3 -2.4702 -23.1156
-2 -10 -8 -40.9445 -10.9616
-2 -10 -6 7.8202 -42.3050
-2 -10 -4 3.5248 -13.8240
-2 -9 -7 -24.2910 -52.9843
-2 -9 -5 -32.4879 43.5821
-2 -8 -6 -50.7025 -46.2221
-2 -8 -4 99.4030 52.9545
-2 -7 -5 46.3571 -10.0882
-2 -7 -3 -3.2092 10.3163
-2 -6 -4 -107.0543 9.5182
-2 -5 -3 98.9274 -41.8695
-1 -20 -5 -8.1468 -5.8673
-1 -20 -3 1.6944 -0.7596
-1 -19 -8 -4.4155 3.1155
-1 -19 -6 7.5214 19.7431
-1 -19 -2 20.4094 2.1899
-1 -18 -9 -17.2260 7.6391
-1 -18 -7 -16.7132 16.9137
-1 -18 -5 31.7979 -9.9510
-1 -18 -3 2.0103 0.2752
-1 -17 -12 11.4901 -3.0135
-1 -17 -8 -8.9990 15.9297
-1 -17 -6 12.0490 5.8124
-1 -17 -4 33.0521 -5.1994
-1 -17 -2 -9.4082 -11.9966
-1 -16 -13 11.5468 0.2936
-1 -16 -11 -8.2963 -9.6412
-1 -16 -9 -15.3380 14.9507
-1 -16 -7 30.3446 16.1009
-1 -16 -5 29.4133 -8.3898
-1 -16 -3 40.4508 -11.6273
-1 -15 -14 9.6686 -1.8924
-1 -15 -10 -0.1006 -9.4380
-1 -15 -8 38.7763 23.4378
-1 -15 -6 -46.6363 -11.6844
-1 -14 -13 -0.9377 -16.0231
-1 -14 -11 -12.0760 4.6723
-1 -14 -9 -3.8475 16.1357
-1 -14 -7 37.7405 35.6545
-1 -14 -3 64.3957 52.6691
-1 -13 -12 -20.7194 2.3872
-1 -13 -10 2.0894 -11.8058
-1 -13 -6 -25.5790 16.7606
-1 -13 -4 -32.9276 17.9546
-1 -13 -2 -14.1355 36.1056
-1 -12 -11 30.7535 2.5768
-1 -12 -5 30.2944 38.0069
-1 -12 -3 51.2482 17.5859
-1 -11 -8 -37.9297 -2.2441
-1 -11 -6 -22.2505 -29.2396
-1 -11 -4 -14.3810 10.3192
-1 -11 -2 -8.0580 11.5185
-1 -10 -9 -14.8031 -18.7511
-1 -10 -7 13.9465 -5.9012
-1 -10 -5 19.2910 21.8600
-1 -10 -3 -77.1175 -0.6004
-1 -9 -8 47.9818 -64.4961
-1 -9 -6 49.5648 -16.6542
-1 -9 -4 73.6256 24.5514
-1 -9 -2 83.3689 14.3935
-1 -8 -7 145.7064 -36.7873
-1 -8 -5 -19.8855 24.7849
-1 -7 -6 83.0553 -51.2541
-1 -7 -4 59.5029 37.5534
-1 -7 -2 -14.0918 45.8490
-1 -6 -5 -55.2255 -9.5322
-1 -6 -3 -27.0144 -6.5310
-1 -5 -4 -48.5885 24.2229
-1 -5 -2 16.5677 -4.3610
-1 -4 -3 131.3975 -7.0464
-1 -3 -2 -134.7760 13.2124
0 2 2 758.4608 -0.0000
0 3 1 -165.7203 0.0000
0 3 3 186.6705 -0.0000
0 4 0 379.8031 0.0000
0 4 2 -153.7142 0.0000
0 4 4 -53.8146 -0.0000
0 5 3 37.6285 -0.0000
0 5 5 -25.4216 0.0000
0 6 0 -124.3029 -0.0000
0 6 2 -147.1504 -0.0000
0 6 4 -141.2541 -0.0000
0 7 1 -35.2540 0.0000
0 7 3 -85.5580 0.0000
0 7 5 44.4318 -0.0000
0 7 7 146.1149 -0.0000
0 8 0 -127.4072 0.0000
0 8 2 -37.7816 0.0000
0 8 4 -64.1366 -0.0000
0 8 6 66.2653 -0.0000
0 8 8 41.7131 0.0000
0 9 1 91.4382 -0.0000
0 9 3 -5.9087 0.0000
0 9 5 -33.3779 0.0000
0 9 7 28.5857 -0.0000
0 9 9 -11.3035 0.0000
0 10 2 -10.1536 0.0000
0 10 6 -52.8650 -0.0000
0 10 8 14.5095 -0.0000
0 11 1 28.1063 -0.0000
0 11 3 18.9584 -0.0000
0 11 5 2.3574 0.0000
0 11 7 -3.8087 -0.0000
0 12 0 13.0377 -0.0000
0 12 2 28.7402 -0.0000
0 12 4 -36.4437 0.0000
0 12 6 -27.3672 -0.0000
0 12 8 -56.5172 -0.0000
0 12 12 2.9745 -0.0000
0 13 1 -34.0438 0.0000
0 13 3 127.1912 -0.0000
0 13 9 5.0283 -0.0000
0 13 11 -9.1689 -0.0000
0 13 13 15.9660 -0.0000
0 14 8 16.4647 0.0000
0 14 10 -27.6345 0.0000
0 14 12 -22.5564 -0.0000
0 15 5 -28.5457 0.0000
0 15 9 -25.7963 0.0000
0 15 11 17.4177 -0.0000
0 16 0 -2.4923 -0.0000
0 16 2 -2.2129 -0.0000
0 16 4 1.5435 0.0000
0 16 6 -14.8599 -0.0000
0 16 10 3.8057 -0.0000
0 17 1 -11.0243 0.0000
0 17 3 -7.0848 0.0000
0 17 5 16.3177 -0.0000
0 17 9 7.9590 -0.0000
0 17 11 4.0290 0.0000
0 18 0 -3.7407 0.0000
0 18 2 -9.1857 -0.0000
0 18 6 -6.6309 -0.0000
0 18 10 4.8854 0.0000
0 19 1 16.5884 -0.0000
0 19 3 3.4960 0.0000
0 19 7 9.4728 0.0000
0 20 0 -5.1887 -0.0000
0 20 2 11.9134 -0.0000
1 3 2 -134.7760 -13.2124
1 4 1 98.6769 -0.0000
1 4 3 131.3975 7.0464
1 5 2 16.5677 4.3610
1 5 4 -48.5885 -24.2229
1 6 1 268.8158 0.0000
1 6 3 -27.0144 6.5310
1 6 5 -55.2255 9.5322
1 7 2 -14.0918 -45.8490
1 7 4 59.5029 -37.5534
1 7 6 83.0553 51.2541
1 8 1 67.2633 -0.0000
1 8 5 -19.8855 -24.7849
1 8 7 145.7064 36.7873
1 9 2 83.3689 -14.3935
1 9 4 73.6256 -24.5514
1 9 6 49.5648 16.6542
1 9 8 47.9818 64.4961
1 10 1 -16.5881 0.0000
1 10 3 -77.1175 0.6004
1 10 5 19.2910 -21.8600
1 10 7 13.9465 5.9012
1 10 9 -14.8031 18.7511
1 11 2 -8.0580 -11.5185
1 11 4 -14.3810 -10.3192
1 11 6 -22.2505 29.2396
1 11 8 -37.9297 2.2441
1 12 1 -84.1766 0.0000
1 12 3 51.2482 -17.5859
1 12 5 30.2944 -38.0069
1 12 11 30.7535 -2.5768
1 13 2 -14.1355 -36.1056
1 13 4 -32.9276 -17.9546
1 13 6 -25.5790 -16.7606
1 13 10 2.0894 11.8058
1 14 3 64.3957 -52.6691
1 14 9 -3.8475 -16.1357
1 14 11 -12.0760 -4.6723
1 14 13 -0.9377 16.0231
1 15 6 -46.6363 11.6844
1 15 8 38.7763 -23.4378
1 15 10 -0.1006 9.4380
1 15 12 5.1778 -6.3394
1 15 14 9.6686 1.8924
1 16 3 40.4508 11.6273
1 16 5 29.4133 8.3898
1 16 7 30.3446 -16.1009
1 16 9 -15.3380 -14.9507
1 16 11 -8.2963 9.6412
1 16 13 11.5468 -0.2936
1 17 2 -9.4082 11.9966
1 17 4 33.0521 5.1994
1 17 6 12.0490 -5.8124
1 17 8 -8.9990 -15.9297
1 17 12 11.4901 3.0135
1 18 1 10.7346 0.0000
1 18 3 2.0103 -0.2752
1 18 5 31.7979 9.9510
1 18 7 -16.7132 -16.9137
1 18 9 -17.2260 -7.6391
1 19 2 20.4094 -2.1899
1 19 4 33.0489 2.4548
1 19 6 7.5214 -19.7431
1 19 8 -4.4155 -3.1155
1 20 1 9.8887 0.0000
1 20 3 1.6944 0.7596
1 20 5 -8.1468 5.8673
2 3 3 35.0541 -0.0000
2 4 2 85.8994 0.0000
2 5 3 98.9274 41.8695
2 5 5 55.5082 -0.0000
2 6 4 -107.0543 -9.5182
2 6 6 85.2985 0.0000
2 7 3 -3.2092 -10.3163
2 7 5 46.3571 10.0882
2 7 7 28.9077 -0.0000
2 8 4 99.4030 -52.9545
2 8 6 -50.7025 46.2221
2 8 8 49.8328 0.0000
2 9 5 -32.4879 -43.5821
2 9 7 -24.2910 52.9843
2 9 9 -30.2927 0.0000
2 10 2 25.7116 0.0000
2 10 4 3.5248 13.8240
2 10 6 7.8202 42.3050
2 10 8 -40.9445 10.9616
2 10 10 -24.8674 0.0000
2 11 3 -2.4702 23.1156
2 11 5 23.3013 1.8396
2 11 7 -31.3264 -12.0778
2 11 9 -13.7884 25.9754
2 12 4 -2.4757 17.2084
2 12 6 -8.8889 -15.0102
2 12 10 -8.3603 -22.1364
2 12 12 -31.7868 0.0000
2 13 3 52.0534 -13.8639
2 13 9 -16.1668 -21.2411
2 13 13 -15.8746 -0.0000
2 14 2 -2.6181 0.0000
2 14 8 -1.3851 -57.8485
2 14 10 -5.9085 -11.8552
2 14 12 -7.5686 -19.6045
2 14 14 5.6104 -0.0000
2 15 5 2.3293 40.8923
2 15 7 18.9777 -1.5438
2 15 9 18.5475 6.7339
2 15 11 -19.2138 -4.3474
2 15 13 35.6511 -5.5336
2 16 2 5.2343 0.0000
2 16 4 3.3691 26.8152
2 16 6 -12.6049 -7.5637
2 16 8 5.0762 -2.6592
2 16 10 -19.0192 7.8544
2 16 12 12.1199 -3.1630
2 17 3 6.3018 9.3248
2 17 5 26.5013 22.1947
2 17 7 5.3641 -4.5751
2 17 9 -24.3016 -5.7874
2 17 11 11.0815 1.7858
2 18 4 35.5473 -15.5701
2 18 6 19.7859 -1.9656
2 18 10 3.7515 12.1517
2 19 7 5.5414 -13.1056
2 20 4 12.1787 -10.1229
3 4 3 61.0543 -0.0000
3 5 4 48.5556 -21.8764
3 6 5 -90.5069 -11.1119
3 7 4 -28.0622 -61.9945
3 7 6 12.4042 14.5336
3 8 3 -199.1221 -0.0000
3 8 5 -15.2060 -62.7379
3 8 7 -23.9367 -32.1608
3 9 4 -25.6901 -35.4527
3 9 6 -29.6927 52.4815
3 9 8 34.0243 17.3411
3 10 3 -14.8143 0.0000
3 10 5 -44.1705 -38.9935
3 10 7 -5.0272 -11.4782
3 11 4 -7.5598 14.1417
3 11 6 -45.7452 9.3521
3 12 5 67.1478 -28.7984
3 12 11 -4.4231 -5.1658
3 13 10 -3.7738 -9.1561
3 13 12 -34.3210 -22.9058
3 14 7 -6.1771 15.1101
3 14 9 10.7069 14.9609
3 14 11 -5.4177 -14.1095
3 14 13 -23.8557 -3.3416
3 15 4 -42.2829 7.7639
3 15 6 0.2064 7.0608
3 15 8 6.0788 39.5851
3 15 12 -14.0870 -9.5420
3 15 14 -28.1012 -24.1983
3 16 3 -14.5032 -0.0000
3 16 5 8.9469 35.5292
3 16 7 -2.1908 -0.9172
3 16 9 -5.2395 2.5862
3 16 13 -1.6481 10.6292
3 17 4 1.3891 6.1732
3 17 6 3.7846 -7.5227
3 17 8 14.3075 7.6704
3 18 3 -8.2284 0.0000
3 18 5 -2.1022 14.7744
3 18 9 -7.1046 -0.4431
3 19 6 5.0982 -6.2643
3 19 8 -9.5737 -7.0995
3 20 5 3.4793 7.0000
4 5 5 -27.9513 -0.0000
4 6 4 158.6264 -0.0000
4 6 6 -26.4803 0.0000
4 7 5 -78.3736 -15.9157
4 7 7 -8.3062 0.0000
4 8 4 -41.5251 -0.0000
4 9 5 6.9846 -18.7034
4 9 7 -74.2797 -32.0503
4 9 9 44.3366 0.0000
4 10 6 8.3204 20.7548
4 10 8 -23.4763 -21.4736
4 11 5 19.4436 -16.8481
4 11 7 -52.1747 26.5723
4 11 11 43.1276 -0.0000
4 12 4 22.5482 0.0000
4 12 10 13.9111 -9.0863
4 12 12 -16.8865 -0.0000
4 13 9 33.0239 31.7559
4 13 11 -0.5347 -31.7478
4 13 13 4.9985 0.0000
4 14 6 -21.5440 -35.6243
4 14 8 -8.7254 29.7192
4 14 10 8.8688 -4.3758
4 14 12 -28.7663 -16.5552
4 14 14 -2.3993 -0.0000
4 15 5 32.3328 15.4891
4 15 7 -5.2173 34.9943
4 15 9 -8.8132 20.2650
4 15 11 7.0578 3.9339
4 15 13 4.2418 -1.5857
4 16 4 -15.1848 0.0000
4 16 6 17.5999 7.3926
4 16 8 -17.5572 11.4477
4 16 10 -13.1283 3.6672
4 16 12 6.8345 3.1778
4 17 5 16.8642 38.8688
4 17 7 0.4708 -7.7039
4 17 11 -12.4680 -18.3090
4 18 6 1.6186 -3.7600
4 18 8 1.5227 14.4256
4 19 5 -5.9307 14.5406
4 19 7 -8.6186 12.6256
4 20 4 -7.5956 0.0000
5 7 6 44.4277 14.7485
5 8 7 33.2047 -42.1079
5 9 6 7.0981 13.2505
5 9 8 -15.8408 -35.5133
5 10 5 105.3541 0.0000
5 10 7 -37.7606 -28.2973
5 10 9 22.0104 -40.7280
5 11 6 -4.6700 0.9774
5 12 9 39.7298 9.5310
5 12 11 6.7947 -20.1726
5 13 8 -39.7234 -20.5372
5 13 10 15.6525 -2.3357
5 13 12 -9.8016 -25.1810
5 14 7 -63.3144 -13.5931
5 14 9 2.9154 -19.7833
5 14 11 7.9855 -2.2086
5 15 6 12.1157 -24.2532
5 15 8 24.6976 23.1563
5 15 10 3.6761 9.1205
5 16 5 24.8091 -0.0000
5 16 7 -7.1897 -11.9824
5 16 9 5.2453 -13.3434
5 16 11 -5.1442 -4.2975
5 17 6 41.0880 -15.4289
5 17 8 0.3083 9.1616
5 18 7 -2.5586 -2.3796
5 18 9 13.0092 -1.0277
5 19 6 -14.5730 -19.7529
6 8 6 34.0128 0.0000
6 8 8 -7.9606 -0.0000
6 9 7 0.2114 -21.0036
6 10 6 45.2416 0.0000
6 11 7 14.5350 -3.0464
6 11 11 2.3677 0.0000
6 12 10 16.4100 20.1604
6 12 12 -2.8567 0.0000
6 13 7 -48.2204 25.3524
6 13 9 9.5754 -4.4842
6 13 11 -3.8300 17.9768
6 13 13 22.8557 0.0000
6 14 6 -20.4133 0.0000
6 14 8 1.5709 14.7762
6 14 10 12.1545 14.7907
6 14 12 -3.2191 22.8564
6 14 14 12.2634 0.0000
6 15 7 -6.6693 12.9721
6 15 9 26.2480 15.8509
6 15 11 -1.1848 16.3651
6 15 13 17.2688 11.9336
6 16 6 7.7691 0.0000
6 16 8 17.7530 24.5434
6 17 9 5.0076 -11.4839
6 18 8 1.2123 8.3478
7 11 10 -18.0565 19.7061
7 12 9 18.0747 -11.9329
7 12 11 9.2905 40.7901
7 13 8 0.2978 7.4919
7 13 10 -18.4769 -12.0282
7 13 12 -19.2904 11.6975
7 14 9 16.6306 -6.5289
7 14 13 -4.6974 3.4773
7 15 8 8.6705 15.1208
7 15 10 10.5632 17.8420
7 15 12 -12.9856 2.1284
7 16 7 -12.1490 -0.0000
7 16 11 -1.5262 -11.8068
7 17 8 3.4786 9.0831
7 18 7 4.1590 -0.0000
8 11 11 -52.8271 -0.0000
8 12 8 68.6700 0.0000
8 12 12 -8.7583 -0.0000
8 13 11 -0.5565 7.6713
8 13 13 -2.3797 0.0000
8 14 8 26.5252 -0.0000
8 14 12 -0.8966 3.3342
8 15 9 12.4428 -9.2317
8 15 11 -7.8088 15.8367
8 16 10 8.9909 0.5634
8 17 9 -10.3077 2.0090
9 15 10 -8.3732 5.1927
9 16 9 -3.5070 0.0000
0 0 0 0.0 0.0
;
_olex2_exptl_crystal_mounting_method 'Diamond-anvil cell'
_olex2_submission_original_sample_id CDMOF_alpha_2_025
_olex2_submission_special_instructions 'No special instructions were received'
_oxdiff_exptl_absorpt_empirical_details
;
Empirical correction (ABSPACK) includes:
- Absorption correction using spherical harmonics
- Frame scaling
;
_oxdiff_exptl_absorpt_empirical_full_max 1.937
_oxdiff_exptl_absorpt_empirical_full_min 0.678
#END Tags that were not found in dictionaries
loop_
_space_group_symop_id
_space_group_symop_operation_xyz
1 'x, y, z'
2 '-y, x, z'
3 '-x, -y, z'
4 'y, -x, z'
5 'x, -z, y'
6 'x, -y, -z'
7 'x, z, -y'
8 'z, y, -x'
9 '-x, y, -z'
10 '-z, y, x'
11 'z, x, y'
12 'y, z, x'
13 '-y, -z, x'
14 'z, -x, -y'
15 '-y, z, -x'
16 '-z, -x, y'
17 '-z, x, -y'
18 'y, -z, -x'
19 'y, x, -z'
20 '-y, -x, -z'
21 '-x, z, y'
22 '-x, -z, -y'
23 'z, -y, x'
24 '-z, -y, -x'
25 'x+1/2, y+1/2, z+1/2'
26 '-y+1/2, x+1/2, z+1/2'
27 '-x+1/2, -y+1/2, z+1/2'
28 'y+1/2, -x+1/2, z+1/2'
29 'x+1/2, -z+1/2, y+1/2'
30 'x+1/2, -y+1/2, -z+1/2'
31 'x+1/2, z+1/2, -y+1/2'
32 'z+1/2, y+1/2, -x+1/2'
33 '-x+1/2, y+1/2, -z+1/2'
34 '-z+1/2, y+1/2, x+1/2'
35 'z+1/2, x+1/2, y+1/2'
36 'y+1/2, z+1/2, x+1/2'
37 '-y+1/2, -z+1/2, x+1/2'
38 'z+1/2, -x+1/2, -y+1/2'
39 '-y+1/2, z+1/2, -x+1/2'
40 '-z+1/2, -x+1/2, y+1/2'
41 '-z+1/2, x+1/2, -y+1/2'
42 'y+1/2, -z+1/2, -x+1/2'
43 'y+1/2, x+1/2, -z+1/2'
44 '-y+1/2, -x+1/2, -z+1/2'
45 '-x+1/2, z+1/2, y+1/2'
46 '-x+1/2, -z+1/2, -y+1/2'
47 'z+1/2, -y+1/2, x+1/2'
48 '-z+1/2, -y+1/2, -x+1/2'
loop_
_atom_site_label
_atom_site_type_symbol
_atom_site_fract_x
_atom_site_fract_y
_atom_site_fract_z
_atom_site_U_iso_or_equiv
_atom_site_adp_type
_atom_site_occupancy
_atom_site_site_symmetry_order
_atom_site_calc_flag
_atom_site_refinement_flags_posn
_atom_site_refinement_flags_adp
_atom_site_refinement_flags_occupancy
C1 C 0.8513(8) 0.6844(7) 0.6450(11) 0.235(6) Uiso 1 1 d D . .
H1 H 0.8449 0.7151 0.6460 0.282 Uiso 1 1 calc R . .
C2 C 0.8930(7) 0.6740(7) 0.6656(10) 0.235(6) Uiso 1 1 d D . .
H2 H 0.8953 0.6839 0.6952 0.282 Uiso 1 1 calc R . .
C3 C 0.9017(7) 0.6261(7) 0.6600(11) 0.235(6) Uiso 1 1 d D . .
H3 H 0.9076 0.6211 0.6296 0.282 Uiso 1 1 calc R . .
C4 C 0.8627(9) 0.6005(7) 0.6715(13) 0.235(6) Uiso 1 1 d D . .
H4 H 0.8585 0.6082 0.7015 0.282 Uiso 1 1 calc R . .
C5 C 0.8211(8) 0.6139(9) 0.6521(12) 0.235(6) Uiso 1 1 d D . .
H5 H 0.8294 0.6086 0.6223 0.282 Uiso 1 1 calc R . .
C6 C 0.7812(10) 0.5877(10) 0.6513(11) 0.235(6) Uiso 1 1 d D . .
H6A H 0.7730 0.5846 0.6215 0.282 Uiso 1 1 calc R . .
H6B H 0.7887 0.5594 0.6614 0.282 Uiso 1 1 calc R . .
C11 C 0.8677(9) 0.5330(6) 0.7059(8) 0.235(6) Uiso 1 1 d D . .
H11 H 0.8658 0.5530 0.7299 0.282 Uiso 1 1 calc R . .
C12 C 0.9036(7) 0.5050(8) 0.7225(11) 0.235(6) Uiso 1 1 d D . .
H12 H 0.9034 0.4984 0.7531 0.282 Uiso 1 1 calc R . .
C13 C 0.9048(7) 0.4668(9) 0.6916(11) 0.235(6) Uiso 1 1 d D . .
H13 H 0.8980 0.4816 0.6649 0.282 Uiso 1 1 calc R . .
C14 C 0.8639(9) 0.4421(7) 0.6974(11) 0.235(6) Uiso 1 1 d D . .
H14 H 0.8611 0.4320 0.7269 0.282 Uiso 1 1 calc R . .
C15 C 0.8259(6) 0.4705(8) 0.6850(10) 0.235(6) Uiso 1 1 d D . .
H15 H 0.8252 0.4773 0.6544 0.282 Uiso 1 1 calc R . .
C16 C 0.7855(10) 0.4519(10) 0.7006(8) 0.235(6) Uiso 1 1 d D . .
H16A H 0.7630 0.4715 0.6924 0.282 Uiso 1 1 calc R . .
H16B H 0.7809 0.4259 0.6844 0.282 Uiso 1 1 calc R . .
K1 K 0.8144(4) 0.5000 0.8144(4) 0.307(9) Uani 1 2 d DS TU P
O2 O 0.9278(7) 0.6894(8) 0.6376(8) 0.253(4) Uiso 1 1 d D . .
H2A H 0.9502 0.6775 0.6442 0.380 Uiso 1 1 calc R . .
O3 O 0.9412(8) 0.6196(7) 0.6830(9) 0.253(4) Uiso 1 1 d D . .
H3A H 0.9496 0.5951 0.6793 0.380 Uiso 1 1 calc R . .
O4 O 0.8720(8) 0.5613(9) 0.6741(10) 0.253(4) Uiso 1 1 d D . .
O5 O 0.8142(6) 0.6592(8) 0.6473(8) 0.253(4) Uiso 1 1 d D . .
O6 O 0.7426(8) 0.6009(7) 0.6749(9) 0.253(4) Uiso 1 1 d D . .
H6 H 0.7392 0.5852 0.6956 0.380 Uiso 1 1 calc R . .
O12 O 0.9363(8) 0.5310(8) 0.7079(7) 0.253(4) Uiso 1 1 d D . .
H12A H 0.9583 0.5170 0.7058 0.380 Uiso 1 1 calc R . .
O13 O 0.9498(7) 0.4552(9) 0.6826(8) 0.253(4) Uiso 1 1 d D . .
H13A H 0.9506 0.4315 0.6715 0.380 Uiso 1 1 calc R . .
O14 O 0.8646(8) 0.4061(8) 0.6674(9) 0.253(4) Uiso 1 1 d D . .
O15 O 0.8259(6) 0.5091(6) 0.7128(7) 0.253(4) Uiso 1 1 d D . .
O16 O 0.7783(8) 0.4411(8) 0.7457(8) 0.253(4) Uiso 1 1 d D . .
H16 H 0.7701 0.4163 0.7476 0.380 Uiso 1 1 calc R . .
OA O 1.0000 0.5000 0.6763(12) 0.253(4) Uiso 1 2 d S T P
loop_
_atom_site_aniso_label
_atom_site_aniso_U_11
_atom_site_aniso_U_22
_atom_site_aniso_U_33
_atom_site_aniso_U_23
_atom_site_aniso_U_13
_atom_site_aniso_U_12
K1 0.333(12) 0.254(12) 0.333(12) -0.038(9) 0.193(15) 0.038(9)
loop_
_atom_type_symbol
_atom_type_description
_atom_type_scat_dispersion_real
_atom_type_scat_dispersion_imag
_atom_type_scat_source
H H 0.0000 0.0000 'International Tables Vol C Tables 4.2.6.8 and 6.1.1.4'
C C 0.0030 0.0010 'International Tables Vol C Tables 4.2.6.8 and 6.1.1.4'
O O 0.0110 0.0060 'International Tables Vol C Tables 4.2.6.8 and 6.1.1.4'
K K 0.2030 0.2500 'International Tables Vol C Tables 4.2.6.8 and 6.1.1.4'
loop_
_geom_angle_atom_site_label_1
_geom_angle_atom_site_label_2
_geom_angle_atom_site_label_3
_geom_angle
_geom_angle_site_symmetry_1
_geom_angle_site_symmetry_3
C2 C1 H1 112.3 . .
C2 C1 O14 97(2) . 7_556
O5 C1 H1 112.3 . .
O5 C1 C2 125.3(16) . .
O5 C1 O14 94(2) . 7_556
O14 C1 H1 112.3 7_556 .
C1 C2 H2 113.8 . .
C1 C2 C3 108.6(15) . .
C1 C2 K1 155.7(16) . 42_566
C3 C2 H2 113.8 . .
C3 C2 K1 87.2(11) . 42_566
K1 C2 H2 73.8 42_566 .
O2 C2 C1 109(2) . .
O2 C2 H2 113.8 . .
O2 C2 C3 96.9(18) . .
O2 C2 K1 49.8(12) . 42_566
C2 C3 H3 107.5 . .
C4 C3 C2 110.4(17) . .
C4 C3 H3 107.5 . .
O3 C3 C2 103.3(18) . .
O3 C3 H3 107.5 . .
O3 C3 C4 120(2) . .
C3 C4 H4 101.9 . .
C5 C4 C3 117.4(17) . .
C5 C4 H4 101.9 . .
O4 C4 C3 110(3) . .
O4 C4 H4 101.9 . .
O4 C4 C5 120(3) . .
C4 C5 H5 96.3 . .
C4 C5 C6 125(2) . .
C6 C5 H5 96.3 . .
O5 C5 C4 116.6(14) . .
O5 C5 H5 96.3 . .
O5 C5 C6 114(2) . .
C5 C6 H6A 107.0 . .
C5 C6 H6B 107.0 . .
H6A C6 H6B 106.7 . .
O6 C6 C5 121(2) . .
O6 C6 H6A 107.0 . .
O6 C6 H6B 107.0 . .
C12 C11 H11 98.8 . .
C12 C11 O15 107.7(14) . .
O4 C11 H11 98.8 . .
O4 C11 C12 124(2) . .
O4 C11 O15 121(3) . .
O15 C11 H11 98.8 . .
C11 C12 H12 116.7 . .
C11 C12 C13 104.7(16) . .
C13 C12 H12 116.7 . .
O12 C12 C11 96(2) . .
O12 C12 H12 116.7 . .
O12 C12 C13 103(3) . .
C12 C13 H13 99.2 . .
C14 C13 C12 107.5(16) . .
C14 C13 H13 99.2 . .
O13 C13 C12 110(2) . .
O13 C13 H13 99.2 . .
O13 C13 C14 135(2) . .
C13 C14 H14 110.9 . .
C13 C14 C15 109.5(17) . .
C15 C14 H14 110.9 . .
O14 C14 C13 108(2) . .
O14 C14 H14 110.9 . .
O14 C14 C15 107.0(18) . .
C14 C15 H15 113.1 . .
C16 C15 C14 111(3) . .
C16 C15 H15 113.1 . .
C16 C15 O15 97.4(17) . .
O15 C15 C14 108.6(15) . .
O15 C15 H15 113.1 . .
C15 C16 H16A 106.6 . .
C15 C16 H16B 106.6 . .
H16A C16 H16B 106.6 . .
O16 C16 C15 123(3) . .
O16 C16 H16A 106.6 . .
O16 C16 H16B 106.6 . .
C2 K1 C2 156.4(11) 44_666 41_646
O2 K1 C2 24.5(5) 41_646 41_646
O2 K1 C2 139.6(9) 41_646 44_666
O2 K1 C2 139.6(9) 44_666 41_646
O2 K1 C2 24.5(5) 44_666 44_666
O2 K1 O2 137.7(14) 44_666 41_646
O2 K1 O3 57.5(6) 41_646 41_646
O2 K1 O3 98.1(8) 41_646 44_666
O2 K1 O3 57.5(6) 44_666 44_666
O2 K1 O3 98.1(8) 44_666 41_646
O2 K1 O15 88.2(6) 44_666 23_565
O2 K1 O15 88.2(6) 41_646 .
O2 K1 O15 118.6(7) 41_646 23_565
O2 K1 O15 118.6(7) 44_666 .
O2 K1 O16 70.8(8) 41_646 .
O2 K1 O16 151.3(10) 41_646 23_565
O2 K1 O16 151.3(10) 44_666 .
O2 K1 O16 70.8(8) 44_666 23_565
O3 K1 C2 42.7(5) 41_646 41_646
O3 K1 C2 120.7(8) 44_666 41_646
O3 K1 C2 120.7(8) 41_646 44_666
O3 K1 C2 42.7(5) 44_666 44_666
O3 K1 O3 113.5(12) 44_666 41_646
O3 K1 O15 83.5(7) 41_646 23_565
O3 K1 O15 142.6(5) 41_646 .
O3 K1 O15 142.6(5) 44_666 23_565
O3 K1 O15 83.5(7) 44_666 .
O3 K1 O16 134.3(7) 41_646 23_565
O3 K1 O16 97.8(7) 44_666 23_565
O3 K1 O16 134.4(7) 44_666 .
O3 K1 O16 97.8(7) 41_646 .
O15 K1 C2 94.7(6) 23_565 41_646
O15 K1 C2 94.7(6) . 44_666
O15 K1 C2 99.9(5) 23_565 44_666
O15 K1 C2 99.9(5) . 41_646
O15 K1 O15 103.4(9) 23_565 .
O16 K1 C2 63.4(6) . 41_646
O16 K1 C2 139.4(8) 23_565 41_646
O16 K1 C2 139.4(8) . 44_666
O16 K1 C2 63.4(6) 23_565 44_666
O16 K1 O15 53.0(6) . .
O16 K1 O15 53.0(6) 23_565 23_565
O16 K1 O15 70.1(7) . 23_565
O16 K1 O15 70.1(7) 23_565 .
O16 K1 O16 81.0(11) 23_565 .
C2 O2 K1 105.7(15) . 42_566
C2 O2 H2A 109.5 . .
K1 O2 H2A 29.5 42_566 .
C3 O3 K1 118.6(15) . 42_566
C3 O3 H3A 109.5 . .
K1 O3 H3A 119.3 42_566 .
C4 O4 C11 132(4) . .
C1 O5 C5 115.7(14) . .
C6 O6 H6 109.5 . .
C12 O12 H12A 109.5 . .
C13 O13 H13A 109.5 . .
C14 O14 C1 121(2) . 5_565
C11 O15 K1 106.3(14) . .
C15 O15 C11 108.5(15) . .
C15 O15 K1 120.4(16) . .
C16 O16 K1 118.9(15) . .
C16 O16 H16 109.5 . .
K1 O16 H16 129.7 . .
loop_
_geom_bond_atom_site_label_1
_geom_bond_atom_site_label_2
_geom_bond_distance
_geom_bond_site_symmetry_2
C1 H1 0.9800 .
C1 C2 1.49(2) .
C1 O5 1.407(18) .
C1 O14 1.74(4) 7_556
C2 H2 0.9800 .
C2 C3 1.53(2) .
C2 K1 3.43(2) 42_566
C2 O2 1.48(2) .
C3 H3 0.9800 .
C3 C4 1.50(2) .
C3 O3 1.45(2) .
C4 H4 0.9800 .
C4 C5 1.49(2) .
C4 O4 1.27(3) .
C5 H5 0.9800 .
C5 C6 1.50(2) .
C5 O5 1.44(2) .
C6 H6A 0.9700 .
C6 H6B 0.9700 .
C6 O6 1.48(2) .
C11 H11 0.9800 .
C11 C12 1.52(2) .
C11 O4 1.34(3) .
C11 O15 1.522(19) .
C12 H12 0.9800 .
C12 C13 1.54(2) .
C12 O12 1.39(2) .
C13 H13 0.9800 .
C13 C14 1.51(2) .
C13 O13 1.48(2) .
C14 H14 0.9800 .
C14 C15 1.54(2) .
C14 O14 1.47(2) .
C15 H15 0.9800 .
C15 C16 1.47(2) .
C15 O15 1.49(2) .
C16 H16A 0.9700 .
C16 H16B 0.9700 .
C16 O16 1.47(2) .
K1 C2 3.43(2) 44_666
K1 C2 3.43(2) 41_646
K1 O2 2.72(2) 44_666
K1 O2 2.72(2) 41_646
K1 O3 2.77(3) 44_666
K1 O3 2.77(3) 41_646
K1 O15 3.21(3) .
K1 O15 3.21(3) 23_565
K1 O16 3.05(3) .
K1 O16 3.05(3) 23_565
O2 K1 2.72(2) 42_566
O2 H2A 0.8200 .
O3 K1 2.77(3) 42_566
O3 H3A 0.8200 .
O6 H6 0.8200 .
O12 H12A 0.8200 .
O13 H13A 0.8200 .
O14 C1 1.74(4) 5_565
O16 H16 0.8200 .
loop_
_geom_torsion_atom_site_label_1
_geom_torsion_atom_site_label_2
_geom_torsion_atom_site_label_3
_geom_torsion_atom_site_label_4
_geom_torsion
_geom_torsion_site_symmetry_1
_geom_torsion_site_symmetry_4
C1 C2 C3 C4 -47(4) . .
C1 C2 C3 O3 -177(2) . .
C1 C2 O2 K1 167.2(16) . 42_566
C2 C1 O5 C5 -29(5) . .
C2 C3 C4 C5 49(5) . .
C2 C3 C4 O4 -169(3) . .
C2 C3 O3 K1 -32(3) . 42_566
C3 C2 O2 K1 -80.4(18) . 42_566
C3 C4 C5 C6 165(3) . .
C3 C4 C5 O5 -37(5) . .
C3 C4 O4 C11 123(4) . .
C4 C3 O3 K1 -155(2) . 42_566
C4 C5 C6 O6 114(4) . .
C4 C5 O5 C1 24(5) . .
C5 C4 O4 C11 -96(5) . .
C6 C5 O5 C1 -176(3) . .
C11 C12 C13 C14 -66(3) . .
C11 C12 C13 O13 140(2) . .
C12 C11 O4 C4 -128(3) . .
C12 C11 O15 C15 -66(2) . .
C12 C11 O15 K1 64.7(18) . .
C12 C13 C14 C15 63(3) . .
C12 C13 C14 O14 179(2) . .
C13 C14 C15 C16 -165(2) . .
C13 C14 C15 O15 -60(3) . .
C13 C14 O14 C1 133(2) . 5_565
C14 C15 C16 O16 55(3) . .
C14 C15 O15 C11 60(3) . .
C14 C15 O15 K1 -63(2) . .
C15 C14 O14 C1 -110(2) . 5_565
C15 C16 O16 K1 38(4) . .
C16 C15 O15 C11 175(2) . .
C16 C15 O15 K1 52(2) . .
K1 C2 C3 C4 152(2) 42_566 .
K1 C2 C3 O3 22(2) 42_566 .
O2 C2 C3 C4 -159(3) . .
O2 C2 C3 O3 71(3) . .
O3 C3 C4 C5 169(3) . .
O3 C3 C4 O4 -49(5) . .
O4 C4 C5 C6 27(7) . .
O4 C4 C5 O5 -176(4) . .
O4 C11 C12 C13 -83(3) . .
O4 C11 C12 O12 23(3) . .
O4 C11 O15 C15 86(3) . .
O4 C11 O15 K1 -144(2) . .
O5 C1 C2 C3 41(5) . .
O5 C1 C2 K1 170(3) . 42_566
O5 C1 C2 O2 146(3) . .
O5 C5 C6 O6 -44(5) . .
O12 C12 C13 C14 -166(3) . .
O12 C12 C13 O13 40(3) . .
O13 C13 C14 C15 -153(4) . .
O13 C13 C14 O14 -37(5) . .
O14 C1 C2 C3 -59(2) 7_556 .
O14 C1 C2 K1 70(5) 7_556 42_566
O14 C1 C2 O2 45(2) 7_556 .
O14 C1 O5 C5 72(3) 7_556 .
O14 C14 C15 C16 78(3) . .
O14 C14 C15 O15 -176(2) . .
O15 C11 C12 C13 68(2) . .
O15 C11 C12 O12 173(2) . .
O15 C11 O4 C4 85(4) . .
O15 C15 C16 O16 -58(3) . .
loop_
_refln_index_h
_refln_index_k
_refln_index_l
_refln_F_squared_meas
_refln_F_squared_sigma
_refln_scale_group_code
2 2 0 78738.3 285.018 5
2 2 0 77949.1 284.948 2
-3 1 0 18815 109.157 6
-1 -3 0 16844.8 114.278 5
3 1 0 20631.2 163.172 4
3 0 1 19004 119.098 1
-3 0 1 21748 125.042 7
1 -3 0 22389.9 145.885 3
0 -3 -1 23190.3 143.162 8
-3 1 0 19839.7 116.664 7
0 -3 -1 18560.6 114.638 5
-3 0 -1 22641.5 118.463 7
0 -3 1 20172.5 112.083 2
1 -3 0 21232.4 119.425 8
0 -3 1 21463.3 136.206 8
-1 -3 0 20091.8 129.996 8
-3 0 1 19530 127.826 6
3 0 -1 22987.7 188.944 4
1 -3 0 16539.1 100.974 5
2 -3 -1 283.334 35.257 6
-3 -2 -1 596.945 48.1636 5
-2 3 -1 982.729 40.9115 7
-3 -2 -1 535.661 31.256 6
3 1 2 416.876 37.6211 1
2 3 1 1101.94 89.3728 3
-3 -2 -1 747.084 36.5076 7
3 2 -1 664.793 45.7563 2
-2 -3 1 840.958 56.7748 8
-2 3 -1 622.547 32.7993 1
3 -2 1 288.851 36.834 1
-3 2 1 506.268 43.5084 6
2 -3 -1 731.635 42.0506 8
-2 -3 1 588.266 51.6922 5
-1 -3 -2 850.038 51.05 8
-2 3 -1 642.598 33.8138 6
-3 2 1 939.07 45.5882 7
-1 -3 -2 342.019 49.8163 5
2 -3 -1 936.248 76.1822 3
-3 1 -2 554.741 49.164 7
-3 -2 -1 1036.2 47.4363 8
3 -2 -1 1208.3 92.661 4
-3 -2 1 731.695 58.8549 8
3 2 1 969.377 45.6025 8
-2 -3 -1 949.439 47.8183 8
-2 3 1 916.647 77.8254 4
3 2 1 1028.83 83.4093 3
-3 -1 -2 613.013 49.5219 7
2 -3 1 508.36 31.3088 1
3 2 1 550.841 36.1101 1
-3 2 -1 289.905 36.8301 6
-2 -3 -1 636.326 47.0689 5
-3 2 -1 562.131 41.9266 7
3 -1 2 258.09 41.5463 1
-2 3 1 352.955 40.5728 5
-2 3 1 393.546 37.0503 7
2 -3 1 655.21 35.6749 6
2 3 -1 436.747 47.4174 2
1 3 2 1059.19 88.5725 3
-3 3 0 46254.4 222.091 6
-3 -3 0 55914.4 284.803 4
3 3 0 61348.8 296.746 4
-3 -3 0 49074.7 209.902 6
-3 -3 0 47139.6 228.828 5
3 3 0 50143.9 203.146 6
-3 -3 0 48447.9 202.212 7
-3 3 0 50648.1 218.646 7
3 3 0 48875.3 231.249 2
3 -3 0 62787.3 309.814 4
3 3 0 55626.2 204.903 7
-3 -3 0 55403.2 262.07 8
-3 -3 -2 204781 676.769 5
-3 -3 -2 197301 650.794 7
3 3 2 205308 756.964 3
3 -3 2 195410 653.634 1
-3 -3 -2 185076 697.032 8
-3 3 -2 197048 646.818 6
-3 3 -2 197149 665.993 7
3 3 2 193330 632.312 1
-4 0 0 150733 525.988 7
0 4 0 155538 609.685 3
0 -4 0 154960 536.063 5
-4 0 0 164015 548.575 6
4 0 0 141997 618.101 4
0 -4 0 152748 548.807 8
1 -4 -1 3487.75 74.8279 8
4 1 1 4364.19 63.794 5
-4 1 -1 4310.86 66.6443 6
-4 1 1 4039.14 75.2764 6
-1 -4 -1 4920.39 88.5663 5
1 4 -1 3544.81 70.8186 2
4 -1 -1 3315.05 126.413 4
4 1 1 3779.12 59.1634 8
-1 -4 -1 4605.82 82.9253 8
1 -4 1 3912.63 87.2252 8
-1 -4 1 3595.81 89.8033 8
-4 -1 -1 4541.46 64.8016 6
4 1 -1 3832.42 127.246 4
1 -4 1 3749.33 63.4616 5
-4 1 1 3500.93 67.2984 7
-4 -1 -1 4001.16 57.9566 8
1 -4 -1 4337.2 75.541 5
-4 -1 1 4083.18 71.7639 6
1 4 1 3461.05 106.542 3
4 1 1 3568.42 91.7828 3
-1 4 -1 3811.65 60.539 2
-4 1 -1 3736.5 66.6757 7
-4 -1 -1 4106.28 84.9461 3
-1 4 1 3872.41 104.365 3
-4 -1 -1 3712.83 63.3567 7
-1 -4 1 3860.17 70.3667 5
-4 -1 -1 4894.16 66.715 5
-4 -1 1 3559.49 67.0569 7
4 2 0 7201.74 79.1107 2
-4 0 -2 8377.57 99.6972 7
-4 -2 0 9335.93 99.5546 6
-2 -4 0 6316.9 102.273 8
2 -4 0 7368.25 64.7637 6
-4 -2 0 7409.43 81.6057 7
-2 4 0 7994.5 68.8572 7
0 -4 -2 7570.52 100.309 5
2 -4 0 8431.92 116.229 4
-2 4 0 8305.95 74.0591 6
4 0 2 8090.65 88.9593 1
-2 4 0 8420.1 121.751 3
-2 -4 0 7728.75 98.3461 5
-4 2 0 8491.98 90.2462 7
-4 2 0 8617.14 97.2004 6
0 -4 -2 8049.54 111.662 8
2 -4 0 6987.42 63.2668 7
-4 -2 0 7933.02 83.3563 5
2 -4 0 6635.61 85.1694 8
-2 4 0 9139.66 134.856 4
4 2 0 7316.02 144.867 4
-4 -2 0 7538.45 93.0579 8
4 -2 0 7244.96 149.74 4
-2 4 0 7733.57 85.8263 8
-4 0 -2 8592.71 89.4162 6
0 4 2 9778.42 151.029 3
2 -4 0 7057.23 87.6161 5
-4 2 -2 20394 150.682 7
-4 -2 -2 22243.9 136.714 6
4 2 2 16189.9 170.732 3
-4 -2 -2 22001.8 143.569 5
-2 -4 -2 17839.3 171.525 8
2 4 2 17964.1 211.128 3
-4 2 -2 21242.3 140.894 6
-2 -4 2 19055.9 191.914 8
4 -2 2 20046.9 142.168 1
2 4 -2 19683 160.913 2
-2 -4 -2 22926.3 171.818 5
4 2 2 18438.5 130.064 1
-4 -2 -2 21438.8 154.188 8
-4 -2 -2 19946.8 142.761 7
4 3 -1 28.5764 119.974 4
-3 4 -1 18.0931 47.2923 7
3 -4 -1 151.973 105.523 4
-4 3 1 24.2773 55.9976 7
-4 -3 -1 136.685 50.8042 7
3 4 1 85.6972 39.4608 7
-4 -3 -1 184.054 61.2376 8
-4 -3 -1 256.95 81.6311 5
4 3 -1 82.7919 63.2046 2
-3 -4 1 51.2994 81.7935 8
-4 3 1 76.7953 55.7232 6
-3 4 -1 37.056 43.7957 6
-3 -4 1 111.165 63.3044 5
-3 4 -1 30.1993 42.0382 8
3 -4 -1 120.142 52.1447 8
4 1 3 45.5747 53.6902 1
-3 4 -1 82.478 53.2718 5
3 4 1 100.324 120.449 3
3 4 1 64.2213 38.2165 6
-4 1 -3 105.587 68.4474 7
-4 -3 -1 81.1284 45.8495 6
-3 4 -1 35.4198 39.779 2
3 4 1 38.2512 39.0049 1
-4 -1 -3 91.6267 67.8956 7
-3 -4 -1 75.6529 42.7935 7
-4 3 -1 130.209 54.8448 7
-4 -3 1 186.577 68.9053 5
4 -1 3 68.1251 59.5776 1
3 4 -1 27.4039 64.1346 2
3 -4 1 40.622 64.6638 8
-3 4 1 47.2821 49.9045 6
-4 -3 1 24.7384 75.4149 8
-3 4 1 46.6144 48.0376 7
-3 -4 -1 107.484 65.9521 8
-4 3 -1 54.4253 50.4966 6
3 -4 1 36.4474 45.0528 1
4 -3 -1 148.632 127.924 4
-4 -3 1 145.133 51.0131 6
-4 -3 1 49.8579 50.4335 7
-3 -4 -1 291.647 89.8515 5
3 -4 1 97.2018 48.5219 5
4 3 1 146.759 104.379 3
-3 -4 -1 65.2235 34.4177 6
-4 -3 -3 321926 1053.51 5
-4 -3 -3 321744 1080.49 8
-4 3 -3 323739 1060.66 7
-3 -4 -3 330390 1099.41 8
3 4 3 318086 1197.83 3
4 -3 3 313268 1027.71 1
-3 -4 -3 328237 1072.47 5
4 3 3 322110 1186.35 3
-4 -4 0 309404 895.178 7
4 4 0 302049 946.272 2
-4 4 0 289571 928.586 6
-4 4 0 300628 881.606 8
-4 4 0 295221 914.168 7
-4 4 0 289039 885.076 5
-4 4 0 316413 925.843 3
4 -4 0 304426 877.941 8
-4 -4 0 293161 898.476 6
4 -4 0 305388 1045.23 4
4 4 0 296385 1028.51 4
-4 -4 0 292394 946.923 5
-4 -4 0 289040 993.705 8
-4 4 -2 50405.7 230.292 8
-4 4 -2 48167.6 240.052 6
-4 4 -2 49986.4 257.348 7
4 4 2 46081.1 343.684 3
-4 -4 -2 49496.4 240.855 7
4 4 2 50172.6 229.483 1
4 -4 2 48449.1 238.108 1
-4 -4 -2 46031.7 280.497 8
-4 -4 -2 48151.7 221.147 6
-5 0 1 232.814 65.7161 7
-5 0 1 149.113 62.2837 6
-5 1 0 314.159 66.0663 6
1 -5 0 492.443 66.1415 5
5 -1 0 126.051 131.3 4
1 -5 0 270.208 65.269 8
0 -5 1 286.194 92.0784 8
0 5 -1 200.382 58.5925 2
0 -5 -1 327.27 78.1697 5
-5 1 0 254.315 65.0602 7
0 -5 1 198.242 63.3849 5
-5 -1 0 233.138 40.8762 2
5 1 0 254.729 133.905 4
-5 -1 0 222.753 61.8862 7
-5 -1 0 332.767 45.7067 5
0 -5 -1 208.129 59.2002 8
5 0 -1 224.055 144.247 4
-1 5 0 241.91 114.241 3
5 1 0 333.473 48.9088 2
-1 -5 0 149.273 71.7026 8
0 5 1 262.13 105.79 3
-5 -1 0 332.34 69.1708 6
5 1 0 246.298 55.3964 8
-5 -1 0 162.754 54.3316 8
-1 -5 0 454.606 67.9421 5
-5 0 -1 291.871 58.4094 7
2 -5 -1 12911.8 127.479 5
-5 2 1 15432.8 135.665 7
-2 5 -1 13639 101.48 7
-5 1 -2 15588.3 140.816 7
1 -5 2 17833.4 168.5 8
-2 5 -1 14093.8 118.017 2
-2 -5 1 14813.1 132.149 5
-5 -2 -1 13215.4 121.181 8
-5 -2 -1 13147.9 116.424 6
-5 -2 -1 13134.5 117.125 7
1 5 -2 13525.5 138.258 2
-1 5 2 17817.6 207.267 3
-1 -5 -2 12760.8 145.182 5
5 1 2 15133.5 165.214 3
-5 2 1 13570.9 135.999 6
5 2 -1 14321.6 216.765 4
-2 5 -1 12853.5 90.1969 6
-5 -2 -1 13072.6 115.412 5
2 -5 -1 15171.8 109.066 6
2 5 1 15126.4 223.994 3
2 -5 -1 16516.2 147.1 8
5 1 2 12018.5 119.93 1
5 -2 1 17079 264.137 4
-5 1 -2 13211.6 129.434 6
-1 -5 -2 15918.6 159.271 8
-2 -5 1 15195.6 180.605 8
-2 5 1 16238.7 184.74 3
2 -5 1 12397.5 115.346 5
5 2 1 14086.4 164.877 3
2 -5 1 14723.2 140.588 8
-2 -5 -1 17127.5 161.641 5
-5 -1 -2 14086.2 114.859 8
2 5 -1 13542.9 130.002 2
-5 -1 -2 12514.4 112.577 5
-1 5 -2 13111.6 123.6 2
1 -5 -2 13178.3 149.542 8
-5 2 -1 12656.4 120.934 6
5 -1 2 11411.7 123.403 1
1 -5 -2 11251.5 136.544 5
-5 -1 -2 14124.2 127.21 6
-5 -2 1 13865.9 129.744 6
2 -5 1 13968.2 93.6102 7
-2 -5 -1 13565.1 152.076 8
-5 -2 1 14414.4 127.4 7
-1 -5 2 13716.6 172.405 8
-5 2 -1 13697.9 127.531 7
-5 -1 -2 13674 132.837 7
5 -2 -1 16270 242.751 4
5 2 1 14095 231.785 4
2 -5 1 13147.4 90.4757 1
-2 5 1 13804.6 95.1852 7
1 5 2 14257.1 203.143 3
-5 -3 -2 5415.75 100.517 7
-5 -3 -2 5152.4 105.143 8
3 5 2 4398.25 169.68 3
-3 5 -2 4988.88 93.5003 7
-5 2 -3 4466.64 93.6553 6
-5 -3 -2 5736.32 91.4963 6
-5 -3 -2 7074.33 120.141 5
3 5 2 5655.66 75.1355 7
-3 5 -2 4194.36 76.829 6
5 -3 2 4992.59 96.874 1
-3 5 -2 4644.65 82.9186 2
-2 -5 -3 4208.06 122.995 5
5 2 3 4718.3 97.0263 1
5 3 0 64122.2 293.332 2
-3 5 0 69451.4 296.578 6
-5 -3 0 74754.3 304.927 7
3 5 0 76445.8 329.665 4
-3 -5 0 71832.7 319.208 4
-3 5 0 79849.8 358.2 3
5 0 3 66814.7 321.624 1
-3 -5 0 60809.3 315.347 5
-3 -5 0 65978.8 248.362 7
-5 -3 0 65749.9 304.377 6
3 -5 0 87258.9 399.243 4
-5 3 0 65777.4 320.396 6
5 3 0 75364.1 423.584 4
3 5 0 68027.7 249.582 7
3 -5 0 57649.2 283.841 5
3 -5 0 69911.4 307.175 8
5 -3 0 79254.6 445.437 4
-3 -5 0 64654.5 262.872 6
-5 -3 0 67899.8 342.821 8
-3 5 0 71294 276.548 7
-3 -5 0 72750.4 357.184 8
-5 0 -3 69985.2 338.259 7
3 5 0 65749.1 246.106 6
-5 0 -3 64835.2 315.677 6
-5 3 0 74475.4 319.457 7
-5 -2 -3 4837.97 94.8264 6
-3 -5 -2 5929.62 133.153 5
-5 3 -2 5275.4 93.6013 6
2 5 3 4989.53 186.163 3
-5 -2 -3 4168.5 95.8323 8
5 3 2 5384.04 89.6245 1
-5 -2 -3 5005.67 108.726 7
-3 -5 -2 4590.71 62.613 1
3 -5 2 6161.28 120.428 8
3 -5 2 4050.8 75.012 1
-5 3 -2 6354.71 111.543 7
3 -5 2 5682.7 102.616 5
5 3 2 6244.45 173.257 3
-4 5 -3 17181.2 150.264 6
-5 -4 -3 17521.7 149.75 6
4 5 1 75308 414.213 4
4 -5 -1 88085.6 457.107 4
4 -5 -1 81459.3 344.624 8
-4 5 -1 75992.1 297.702 2
4 5 1 77943.5 457.959 3
-4 5 -1 79143.5 328.848 7
4 5 1 75415.7 296.153 1
-4 5 -1 68783.8 313.25 6
-5 -4 -1 79324.1 375.529 8
5 -4 1 91011 531.774 4
-4 5 -1 79179.3 370.622 3
-5 -4 -1 78410.3 316.151 7
-5 -4 -1 81206.9 326.189 6
-5 4 1 69385.5 345.324 6
-5 -4 -1 78123.5 352.281 5
5 4 -1 72634.3 349.978 2
-5 4 1 79197.7 339.279 7
-4 -5 1 72939.2 297.474 7
-4 -5 1 72780.2 346.172 5
5 -4 -1 90245.9 511.302 4
-4 -5 -1 77229.1 293.098 6
-4 -5 -1 82642.6 364.194 5
-5 4 -1 65318.4 317.519 6
-4 5 1 76185.4 315.678 7
-5 4 -1 77312.8 334.296 7
-5 -4 1 72256.9 338.837 6
5 4 1 69677.4 419.161 4
4 -5 1 86049.2 467.383 4
-5 -4 1 73305 321.349 7
-5 -4 1 74478.4 342.252 5
-4 -5 -1 79447.6 293.908 7
4 -5 1 67083 292.11 5
5 4 1 80229.7 472.219 3
-5 -4 1 77652.5 399.191 8
4 -5 1 82179.4 333.52 8
4 -5 1 70475.7 326.032 1
-5 4 -3 15551.8 150.327 6
4 -5 3 15988.5 150.203 1
-5 -5 0 18380 142.197 6
-5 -5 0 15988.6 131.667 7
5 -5 0 14889.3 131.934 8
-5 5 0 16574.2 126.592 8
5 5 0 15683.7 246.671 4
-5 5 0 15481.3 150.977 7
-5 5 0 17045.6 174.442 3
5 -5 0 15821.2 131.328 5
5 -5 0 16824.7 259.913 4
-5 5 -2 104272 400.812 8
-5 -5 2 99517.4 560.427 8
-5 -5 -2 108320 405.874 6
-5 5 -2 106576 431.732 6
-5 -5 -2 106625 421.386 7
5 5 -2 103266 470.352 2
5 -5 2 101169 369.722 2
5 5 2 109744 407.098 1
-5 -5 -4 5341.4 159.264 8
-6 0 0 957144 2758.15 5
6 0 0 948599 2811.72 8
-6 0 0 985643 2885.08 6
6 0 0 942436 3026.59 4
-1 6 -1 85728.6 378.541 2
1 -6 1 100372 426.81 8
-1 6 1 96467.8 473.232 3
-6 1 -1 89302 388.793 6
6 1 1 99736.3 403.936 3
6 -1 1 97841.9 543.917 4
6 1 -1 94555.7 553.625 4
1 -6 -1 79816 387.224 5
-6 1 1 74911.8 399.531 6
-6 -1 -1 94886.4 387.316 6
6 -1 -1 103151 574.184 4
1 -6 -1 85431.8 399.826 8
-6 -1 -1 98174.1 353.632 8
-1 -6 1 79373.3 379.853 5
6 1 1 93858.5 528.364 4
-6 -1 1 78865.7 387.555 6
1 -6 1 80560.3 369.006 5
-6 -1 -1 90250.2 333.373 5
-1 -6 -1 98231.6 432.405 5
1 6 1 103377 528.859 3
2 -6 0 4754.9 62.5993 6
6 -2 0 4599.21 206.796 4
-2 -6 0 6149.16 115.191 5
-6 0 -2 5322.9 110.948 3
0 -6 -2 7596.71 132.58 5
0 -6 2 7182.84 128.844 5
-6 -2 0 6628.35 119.207 6
-2 6 0 4698.28 167.941 3
6 2 0 4415.9 85.7276 2
6 2 0 3878.71 204.268 4
-6 0 -2 7244.43 108.582 6
-2 6 0 3725.52 61.9647 7
-6 -2 0 4294.31 102.936 8
0 6 -2 3907.13 105.853 2
2 -6 0 6088.36 118.869 5
6 0 2 7277.19 79.8654 5
-6 0 -2 4829.45 73.7813 8
0 6 2 4697.42 174.737 3
2 -6 0 4287.22 104.207 8
2 -6 0 4495.34 62.924 7
0 -6 2 3151.73 126.128 8
-6 -2 0 5766.19 92.2095 5
-6 2 0 6728.06 128.172 6
-6 -2 0 4519.88 102.783 7
2 -6 -2 5478.56 118.873 5
-6 -2 -2 8171 116.098 8
6 2 2 8673.79 181.68 3
-2 6 2 10433.6 206.372 3
-6 -2 -2 6579.32 104.903 6
2 -6 -2 9067.46 137.998 8
2 -6 2 6618.56 107.855 5
-2 6 -2 7540.95 115.425 2
2 -6 2 11073.3 156.459 8
-6 -2 -2 5960.47 98.5994 5
-3 6 -1 31297.3 175.426 6
-6 -3 -1 36900 213.712 6
3 -6 -1 30686.1 205.488 5
3 6 1 37692.3 155.676 7
6 3 -1 34921.3 221.411 2
-3 6 -1 36551.1 189.78 7
-3 -6 1 34002.1 230.565 4
-6 -3 -1 36553.1 212.767 5
3 6 1 35570.1 152.844 1
3 6 1 35404.3 243.209 4
3 -6 -1 38054.3 241.705 8
-6 -3 -1 35299.2 234.657 8
-3 6 -1 33287.3 194.867 2
3 -6 -1 41239.1 295.221 4
-6 -3 -1 36496 211.355 7
6 3 -1 35636.9 330.593 4
-3 -6 1 32791.6 163.146 7
-3 6 1 36586.6 182.83 7
-3 6 1 41468.7 293.848 3
-6 -3 1 35965.1 264.662 8
-6 -3 1 34187.1 216.616 7
-3 6 1 33408.2 194.345 6
6 3 1 35004.4 298.147 3
-6 -3 1 42130.5 247.473 5
-3 -6 -1 36757.4 155.463 6
6 3 1 37157 346.699 4
3 6 -1 34617.2 170.522 6
3 -6 1 32591 225.167 8
3 -6 1 31174.4 173.341 1
-6 -1 -3 36482.6 212.066 8
-3 -6 -1 37516.9 165.637 7
3 -6 1 29349.8 190.147 5
-6 -3 1 34149.6 227.045 6
-3 -6 -3 506.383 116.571 8
-6 -3 -3 811.891 105.463 5
6 -3 3 845.124 93.224 1
6 3 3 730.63 168.308 3
-6 -3 -3 511.583 80.9814 6
-6 3 -3 780.972 108.791 7
-6 -3 -3 474.804 97.816 8
4 -6 -2 11149.7 140.184 8
6 2 4 11232.6 149.016 1
-4 -6 2 11405.3 183.446 5
-4 6 -2 10387 122.059 6
-4 6 -2 9761.15 131.126 7
-6 -4 -2 15139.6 178.823 5
-6 2 -4 11118.6 145.788 6
-6 2 -4 10076 158.393 7
-6 -4 -2 14549.9 134.446 6
4 6 2 12159.4 106.669 1
-4 -6 2 8338.85 197.326 8
-4 6 -2 9743.86 118.294 2
-6 -4 -2 11884.4 141.717 7
-4 -6 0 243393 758.675 6
4 -6 0 248481 938.594 4
6 0 4 250432 836.385 1
-6 0 -4 243961 864.023 7
4 -6 0 220382 788.62 5
-4 -6 0 231995 739.659 7
-4 -6 0 229609 893.054 8
4 6 0 240707 841.558 2
-6 -4 0 213764 788.643 7
4 -6 0 243504 799.572 8
-6 -4 0 240298 807.518 6
-6 -4 0 249299 823.89 5
6 4 0 227046 973.067 4
-4 6 0 242422 865.773 3
4 6 0 223971 848.854 4
-4 6 0 232358 774.633 7
4 6 -2 9163.87 159.195 2
-6 -2 -4 9519.86 163.095 7
6 -2 4 10813.1 145.042 1
4 -6 2 9855.25 114.838 1
-4 -6 -2 13189.6 187.516 8
6 4 2 10744.4 215.008 3
-4 6 2 11925.1 134.638 7
-4 -6 -2 12082.2 123.974 7
6 4 2 14343.3 139.448 1
4 -6 2 7466.79 151.227 8
-4 -6 -2 17410.7 139.611 6
-4 -6 -4 57800.5 371.441 5
-6 4 -4 55005.4 319.902 6
6 -5 3 64715 270.52 2
5 6 3 67522.1 507.788 3
-6 -5 -3 69275.5 320.983 6
6 -5 3 65414.1 337.879 1
-6 -5 -3 71353 398.118 8
5 -6 -1 41655.7 240.843 8
-5 -6 1 33438.9 202.228 7
-5 -6 1 38594.5 262.135 5
-5 6 -1 33032 217.003 6
5 6 1 44715.2 217.522 1
-5 6 -1 37066.3 264.803 3
5 -6 -1 44197.6 384.953 4
-6 -5 -1 38411 221.102 7
-5 6 -1 38771.4 229.122 7
6 5 -1 33662.7 342.229 4
-5 -6 1 40184.9 315.856 8
-6 -5 -1 38849.2 226.205 6
-5 -6 -1 38116.4 204.824 6
-6 -5 1 33751.5 213.737 7
-5 6 1 35520.9 240.29 6
5 -6 1 38772.9 229.199 5
-6 5 -1 38403.7 178.817 5
-6 5 -1 45286.1 194.708 8
-6 5 -1 38629.4 214.886 3
-5 6 1 40278.3 233.149 7
6 5 1 38288.6 356.394 4
5 -6 1 35799.5 357.273 4
-6 -5 1 34488.6 294.503 8
-5 -6 -1 40881.5 291.617 8
-6 5 -1 36322.2 165.881 2
5 6 -1 38663.8 265.829 2
5 -6 1 40441.9 226.89 8
-6 -5 1 35947.2 236.56 6
-5 -6 -3 68849.2 305.16 6
-6 5 -3 68567.4 321.036 8
-6 5 -3 69036 368.029 7
-5 -6 -3 69798.9 382.603 5
6 6 0 259.421 119.676 2
6 -6 0 229.622 94.2494 5
-6 -6 0 260.425 93.3844 7
-6 -6 0 345.595 128.313 5
6 6 0 533.782 206.523 4
-6 6 0 540.908 141.774 3
-6 -6 0 442.332 90.9699 6
-6 6 -2 16557.2 137.055 2
-6 -6 -2 20431.6 161.485 6
6 6 -2 19247.7 219.787 2
-6 -6 -2 24914.6 231.524 5
6 6 2 18006.3 155.83 1
-6 6 -2 14770.3 181.825 7
6 -6 2 22216.9 147.532 5
-6 -6 2 31578.7 271.628 5
6 -6 2 12591.5 162.317 8
-6 -6 -2 11229.3 194.445 8
-6 6 2 18878.3 190.919 7
6 6 2 10463.5 293.542 3
6 -6 2 18477.1 181.479 1
-6 -6 2 14466.1 247.218 8
-6 -6 -2 11842.7 152.253 7
-6 -6 -4 16814.8 238.923 5
6 -6 4 11893 174.741 1
6 6 4 14287.3 327.231 3
-6 -6 -4 16428 228.491 8
-6 6 -4 13132.3 173.418 6
-6 6 -4 13227.5 202.947 7
-7 1 0 6739.12 135.114 7
7 0 1 7139.63 126.813 3
-7 0 -1 8698.47 103.896 5
-7 0 -1 11025.8 120.041 8
7 1 0 6748.68 101.284 2
-7 0 -1 8342.52 130.66 7
1 -7 0 6244.78 127.422 5
7 0 1 9913.93 100.437 5
7 0 1 7473.88 79.3021 2
-7 -1 0 6029.99 90.756 5
-1 7 0 7280.36 215.817 3
-7 -1 0 6259.58 121.785 8
-7 0 1 8033.92 132.644 7
-1 -7 0 7650.97 154.229 8
7 0 1 7136.27 81.5384 8
-2 -7 1 29564.1 260.897 8
-2 7 -1 24150.3 182.398 2
-7 -2 -1 25054.1 189.77 8
-7 1 -2 29338.7 219.044 7
-1 -7 -2 28935.7 253.093 8
7 1 2 27046.1 207.453 1
-7 -2 -1 23066.3 161.557 5
-2 7 -1 27595.6 150.157 7
1 -7 2 21687.6 180.245 5
7 1 2 26217.3 223.665 3
1 7 -2 28053.9 211.254 2
-7 -1 2 27833.5 213.645 7
-2 7 -1 22824.7 125.347 6
2 -7 -1 24548.6 216.113 5
2 7 -1 26601 211.82 2
-2 -7 -1 25180.6 241.816 8
7 -1 2 26432.5 213.67 1
-1 -7 2 29093.5 260.532 8
7 2 1 25945.4 172.937 2
-2 7 1 27034.7 139.801 7
2 -7 1 26220.3 220.256 8
-7 2 -1 28936.2 208.746 7
-7 -1 -2 29310 217.417 7
2 -7 1 23109 186.78 5
-7 1 2 26197.4 214.033 7
7 2 1 25496.1 250.281 3
2 -7 1 25933.9 143.278 1
-7 -1 -2 26846.7 174.111 8
2 -7 1 25235.3 136.04 7
-7 -1 -2 23946.3 168.255 5
-7 3 2 26169 232.023 6
-3 -7 2 28467.7 234.78 5
-7 3 2 27473.7 223.87 7
3 7 2 26568.5 139.566 7
3 7 2 24345.7 307.462 3
3 -7 -2 21961.8 203.312 5
7 2 3 23981.4 278.315 3
-7 2 -3 27799.8 227.856 7
-3 7 -2 25326.1 161.399 6
2 7 -3 28135.6 244.507 2
-7 2 -3 24983.4 211.487 6
-3 -7 2 25161.1 276.922 8
2 -7 3 26015.8 218.203 5
-2 -7 -3 21983.2 256.984 8
-7 -3 -2 23398.9 201.94 8
-2 -7 -3 21375.2 225.432 5
7 2 3 25079.7 204.676 1
-3 7 -2 27602.8 185.991 7
-7 -3 -2 29117.4 216.11 5
-3 7 -2 23567.5 187.521 2
-7 0 -3 51401.6 299.823 6
7 0 3 50692.4 288.775 1
3 -7 0 42374 279.691 5
-3 7 0 50870.2 226.004 7
-7 0 -3 51141 247.875 8
7 3 0 45738.4 262.306 2
0 -7 -3 58650.8 363.957 8
-7 -3 0 41104.5 250.618 5
-7 3 0 56853.3 314.37 7
-3 -7 0 45340.4 291.212 5
-3 -7 0 55817 340.87 8
-7 -3 0 55734.8 321.556 8
0 -7 3 61821 406.899 8
0 7 -3 48877.7 309.075 2
-7 0 -3 59087.1 322.524 7
3 -7 0 61232 371.326 4
-3 7 0 58444.5 385.903 3
3 -7 2 25043.5 162.248 1
3 7 -2 30176.1 243.698 2
3 -7 2 27311.7 228.542 8
-7 -3 2 28583.8 218.034 7
7 3 2 23483.3 257.375 3
-7 3 -2 26957.8 208.773 6
-7 -2 -3 23877.6 199.175 8
7 -3 -2 28178.3 365.572 4
-7 -2 -3 22651.1 195.499 5
-3 -7 -2 31410.4 261.425 5
-3 -7 -2 30478 263.349 8
2 7 3 23563.4 319.521 3
-3 -7 -2 25682.1 136.54 1
7 -2 3 24619.8 209.683 1
-3 7 2 30388.6 313.107 3
-2 -7 3 30929.3 312.32 8
-7 -2 -3 24266.1 218.103 7
3 -7 2 24475.1 190.19 5
2 -7 -3 27494.1 248.328 8
-3 -7 -2 27384.9 135.387 6
-7 3 -2 28534 223.926 7
-7 3 -4 240.607 138.976 7
-4 7 -3 202.195 85.6915 6
-7 -4 -3 152.804 118.02 7
-3 -7 -4 0.5129 145.082 8
4 7 1 54426.9 354.615 4
-4 7 -1 60678.9 391.106 3
-7 -4 -1 58760.4 304.171 5
4 -7 -1 47952.5 305.23 5
7 1 4 57560.7 341.96 1
-7 1 -4 57250.3 360.61 7
-4 -7 1 56007.8 243.333 7
4 7 1 52215.6 451.688 3
-4 7 -1 56071.4 268.706 7
4 -7 -1 59916.4 329.113 8
7 -4 1 61076.3 516.364 4
-4 -7 1 71503.9 476.599 8
4 -7 -1 62090.7 404.52 4
4 7 -1 56012.1 331.141 2
-7 4 -1 53701.2 304.817 6
-4 7 1 58284.2 372.039 3
4 -7 1 54425 268.605 1
-7 -1 -4 52565 312.089 6
7 -4 -1 62766.9 490.405 4
-4 -7 -1 58452.3 374.05 8
7 4 1 58062.6 424.622 3
-7 4 -1 60175.5 318.658 7
7 -1 4 54676 336.468 1
4 -7 1 70352.9 345.165 8
4 -7 1 49954.8 270.513 5
-4 7 1 53229.2 282.534 6
-4 -7 -1 59033.3 245.668 7
4 -7 1 57270.8 403.309 4
-4 -7 -3 573.306 142.491 5
-7 4 -3 90.3795 124.687 7
7 -3 4 412.862 124.803 1
7 4 3 157.505 100.753 1
-7 -3 -4 237.14 98.9242 6
-4 -7 -3 28.7822 133.041 8
-7 4 -3 198.424 103.655 6
3 7 4 156.467 237.082 3
4 -7 3 237.27 118.083 5
4 7 -3 370.043 137.856 2
-7 -3 -4 179.603 135.16 7
7 -5 4 20681.4 215.869 1
-7 4 -5 15834.2 238.428 7
-7 -5 -4 16304.3 211.54 7
-7 4 -5 19167.4 219.299 6
5 7 4 14631.3 320.715 3
-7 -5 -4 19735 187.283 6
-5 -7 2 2988.53 200.936 8
-7 -5 -2 3008 149.051 8
-7 5 2 3366.79 140.512 6
5 7 2 3665.67 98.0307 1
-7 5 2 4283 146.618 7
-5 7 -2 3697.24 107.369 2
-5 -7 2 2928.97 149.561 5
-7 2 -5 3065.97 165.385 7
5 7 2 3966.57 277.641 3
-5 7 -2 3120.6 102.917 6
7 5 -2 3843.3 156.495 2
5 -7 -2 2807.41 130.862 8
5 -7 0 23007.3 327.01 4
-7 5 0 25077.8 219.309 6
-5 -7 0 25287.6 273.341 8
-7 0 -5 22722 246.906 7
7 -5 0 24723.7 379.007 4
7 0 5 22471 218.671 1
-7 5 0 19070.6 134.977 5
-5 -7 0 25370.8 171.281 6
-5 7 0 24023.9 192.953 6
-5 -7 0 27250.3 236.465 5
5 -7 0 24571.1 193.97 8
7 5 0 22621.4 208.621 2
5 7 0 21918.3 269.952 4
5 7 0 22785.4 229.859 2
7 -5 0 21888.8 184.521 3
-7 -5 0 29001 311.706 8
-5 -7 0 23643.3 158.621 7
-5 7 0 23350.3 181.479 7
-5 7 0 25174 274.664 3
-7 5 -2 2721.46 116.122 6
-5 -7 -2 2963.44 83.9365 6
5 -7 2 4316.14 143.561 8
-5 -7 -2 3789.71 112.328 7
5 -7 2 3215.56 115.88 5
-7 5 -2 3040.55 130.027 7
7 -2 5 3072.3 138.411 1
-7 -5 2 3732.02 200.614 8
-5 -7 -2 4228.1 160.679 5
7 -5 -2 4012.05 281.151 4
-7 -5 2 4629.82 173.167 5
-7 5 -4 16439.7 225.571 7
7 5 4 15461.6 320.836 3
7 -6 5 11448.8 186.78 1
-7 -6 -5 10481 240.979 8
6 7 5 10537.6 357.757 3
-7 -6 -3 9276.53 192.236 5
-7 -6 -3 6493.29 198.229 8
-6 7 -3 8343.18 156.982 6
7 -6 3 6547.81 110.883 5
6 7 3 7691.88 126.481 1
7 -6 3 6915.07 153.643 1
6 7 3 6712.97 321.017 3
-6 7 -3 7688.04 189.045 7
-7 6 1 23934.8 228.642 6
-6 -7 1 19607.7 164.224 7
-6 7 -1 23225.6 253.981 3
-6 7 -1 24017.3 168.439 2
6 7 1 15759.6 274.029 4
7 -6 1 21587.7 396.457 4
-6 -7 1 28558.3 257.983 5
6 -7 -1 23723.4 204.321 8
-7 -6 -1 25563.2 190.908 6
-7 6 1 25822.5 218.205 7
-7 -6 -1 29470.6 245.524 5
7 -6 1 20319.1 153.392 5
-6 7 -1 23715.9 207.135 7
-7 6 -1 21817.7 144.588 2
-6 -7 -1 24637.6 177.206 6
-7 -6 1 29559.4 245.267 5
6 -7 1 21978.5 189.311 8
-6 7 1 22843.6 199.191 7
6 -7 1 23085.8 175.491 5
7 6 1 20641.5 363.095 3
-7 -6 1 19654.7 282.843 8
7 6 1 19610.1 356.871 4
6 7 -1 23921.9 240.737 2
-6 -7 -1 23728.7 177.284 7
7 -6 -1 22295.1 383.621 4
-7 6 -1 24681 212.783 6
7 -6 -1 24358.2 180.523 8
-7 6 -1 21792.5 150.204 8
-7 6 -1 23367.2 213.936 7
-6 -7 -1 22687.6 266.371 8
-6 -7 -3 6923.45 201.205 8
-6 -7 -3 8627.46 134.26 6
6 -7 3 7565.61 147.51 1
-7 6 -3 6550.43 178.286 7
-7 6 -3 7165.93 152.963 6
-6 -7 -3 9082.07 199.648 5
6 -7 3 7050.07 116.531 5
7 6 3 6105.19 303.781 3
-7 6 -5 9764.57 217.069 7
-7 6 -5 10969 185.064 6
7 6 5 10995.5 350.372 3
-6 -7 -5 10247.6 238.512 8
-7 7 0 25378.2 237.181 6
-7 7 0 24012.5 226.743 7
7 7 0 17727.5 310.704 4
-7 -7 0 20023.4 278.518 8
-7 -7 0 30247 233.041 6
7 7 0 27011.7 264.317 2
7 -7 0 22812.4 419.901 4
-7 -7 0 27484.5 269.641 5
-7 7 2 9340.58 172.028 7
-7 7 -2 8964.47 165.176 6
-7 -7 2 8989.39 252.746 8
-7 -7 2 9437.48 190.623 5
7 7 2 8425.65 330.478 3
7 -7 2 8570.45 388.139 4
7 7 -2 10364.2 203.773 2
-7 7 2 8363.18 169.442 6
7 -7 -2 9382.83 348.638 4
-7 7 -2 7677.19 200.532 3
7 -7 2 8991.32 126.569 5
-7 7 -2 8589.43 177.842 7
-7 7 -2 8747.13 121.957 2
7 -7 2 8954.37 164.677 1
7 -7 4 89.1558 148.666 1
7 7 4 80.5537 281.131 3
-7 -7 -4 584.872 180.553 5
-7 7 -4 4.25538 165.697 7
-7 -7 -4 160.94 174.8 8
0 -8 0 610168 1840.37 8
8 0 0 605455 2041.43 4
0 -8 0 542056 1753.08 5
-8 0 0 616144 1806.27 6
-8 0 0 633275 1797.39 7
-1 -8 1 263125 947.21 5
8 -1 -1 257943 1163.34 4
1 8 1 272816 1122.25 3
-8 -1 1 266700 976.523 6
-8 1 -1 258343 929.926 7
8 1 1 253937 1174 4
1 8 -1 264990 954.246 2
8 1 1 274763 843.622 2
-8 1 1 268767 984.033 6
-1 -8 1 264489 1004.73 8
-1 8 -1 264892 928.346 2
1 -8 1 271527 990.455 8
-8 -1 -1 263126 935.752 6
-8 -1 -1 253694 839.553 5
-8 -1 1 263303 937.497 7
8 -1 1 260743 1193 4
-1 -8 -1 261913 988.096 8
8 1 1 244895 932.302 3
-8 1 -1 261779 940.58 6
8 1 -1 259068 1181.54 4
0 -8 2 79447 505.269 8
8 2 0 83673 371.522 2
-8 -2 0 85392.8 416.842 7
-8 0 -2 94807.1 423.454 6
2 8 0 75787.7 549.834 3
-2 8 0 84732.7 317.493 6
8 2 0 83556.6 592.064 4
-8 2 0 102838 481.412 6
-2 -8 0 74913.5 450.946 8
0 8 2 94241.4 588.332 3
8 -2 0 88366.2 623.363 4
-8 -2 0 89204.8 363.77 5
-2 -8 0 97991.3 464.502 5
0 8 -2 84845.9 416.788 2
-8 0 2 87263.5 442.412 6
-8 -2 0 90109.3 435.36 6
8 0 2 82949.3 339.851 8
2 -8 0 84670.5 304.161 7
-8 0 2 84921.1 430.451 7
0 -8 -2 95307.8 442.52 5
8 0 2 78904.2 621.326 4
-8 2 0 92661.1 431.581 7
2 -8 0 84493.8 408.541 4
8 0 2 78256.4 372.099 3
-8 0 -2 84344 422.839 7
-8 0 -2 84906.8 336.735 8
-2 -8 -2 16483.6 228.284 5
8 2 2 10914.3 338.158 4
8 2 2 9804.82 198.973 3
-2 -8 -2 13938.8 216.073 8
-8 -2 2 15838.3 189.633 7
-8 -2 -2 10966.3 178.452 7
8 2 -2 17922.6 349.335 4
-8 -2 2 18081.3 209.932 6
8 -2 2 13791.6 193.696 1
2 8 2 12303.4 278.137 3
-8 -2 -2 13741.3 161.881 5
2 8 -2 16812.7 198.2 2
8 2 2 15097.5 192.702 1
-8 2 2 18244.5 208.256 7
-2 -8 2 15000.4 194.85 5
2 -8 -2 16054.9 208.2 8
-2 8 -2 14330.7 115.054 6
-8 2 -2 12138.2 180.409 7
8 -2 2 12999.8 373.702 4
-8 2 -2 11492.6 163.951 6
-8 -2 -2 13275 166.951 6
-8 -2 -2 12060.9 153.093 8
1 -8 3 14954.3 251.007 8
-8 -3 -1 13325.1 166.651 6
8 3 -1 12415.8 323.781 4
-1 -8 -3 12357.1 216.088 8
-8 1 -3 9244.9 105.175 8
1 -8 3 15298.8 210.25 5
-8 1 -3 11826.4 188.141 7
-1 -8 -3 10712.5 191.961 5
1 8 -3 11001.8 186.05 2
-8 -3 -1 12185.9 164.269 7
-3 -8 1 13319.2 193.72 5
-1 8 3 12795.1 299.488 3
-8 -3 -1 12056.6 175.09 8
-8 -3 -1 12977.5 155.597 5
-3 8 -1 12818.5 128.584 7
-3 -8 1 12691.1 215.289 8
3 8 1 11727.7 294.968 3
-8 1 -3 10492.1 164.963 6
8 1 3 10316.3 166.125 1
-1 8 -3 11352.9 175.484 2
-8 -1 -3 11267.5 138.562 8
-1 -8 3 9956.1 230.697 8
3 -8 1 10719.3 220.853 4
8 -1 3 10524.8 168.328 1
8 -1 3 7774.76 99.1172 5
-8 -3 1 11710.4 162.076 7
1 -8 -3 9985.14 199.897 5
8 3 1 10957.3 147.845 2
8 3 1 10808.1 349.614 4
-1 -8 3 14397.9 221.382 5
-3 -8 -1 14010.7 209.862 8
3 8 -1 11196.2 180.017 2
3 -8 1 12906.2 115.622 1
-8 3 -1 11613.7 165.708 6
-8 -3 1 14973.7 180.237 5
-8 -1 -3 11884.4 183.892 7
-8 -3 1 12953.3 176.425 6
-8 -1 -3 9710.88 157.149 6
1 8 3 10231.8 269.552 3
-8 3 -1 10776.4 166.059 7
3 8 3 90968.9 643.157 3
-3 -8 -3 103150 504.845 5
-8 -3 -3 101338 447.826 5
-8 -3 -3 96899.6 472.735 7
-3 -8 3 123156 575.791 5
8 3 3 102004 463.376 1
-8 3 -3 101485 493.454 7
8 3 3 84531.9 525.996 3
-8 -3 -3 106737 472.294 6
-8 3 -3 105222 482.738 6
3 -8 -3 100208 519.192 8
-2 -8 -4 82375.3 458.441 5
-4 8 -2 66267.8 340.371 7
8 -4 2 63750.2 599.536 4
-8 -4 -2 64046.3 361.222 7
-4 8 -2 66983.1 313.152 6
-8 4 2 65252.6 396.554 6
8 -4 2 66808.7 408.181 1
-8 2 -4 69746.8 412.634 7
-4 -8 2 71991 401.073 5
8 2 4 76367.6 381.33 1
4 8 2 56508.6 493.101 3
-2 -8 -4 71443.6 475.698 8
-8 4 2 74628.4 403.245 7
4 8 0 3469.63 150.327 2
8 4 0 2531.47 304.692 4
-4 8 0 2850.97 98.7584 6
-8 -4 0 4048.45 132.222 6
4 8 0 1726.79 257.815 3
-8 4 0 2946.81 144.284 6
-4 -8 0 2640.39 170.896 8
-8 -4 0 3030.91 135.563 7
0 -8 -4 2183.39 154.052 8
-4 8 0 2268.89 187.167 3
-4 -8 0 3721.63 80.9596 6
4 8 0 1925.56 160.408 4
-8 4 0 3473.54 146.548 7
-4 8 0 2957.27 95.6425 7
-8 0 -4 2128.68 164.374 7
4 -8 0 2475 235.79 4
8 -4 0 2361.51 303.819 4
4 -8 0 4209.11 152.685 5
-8 0 -4 2610.79 129.988 6
-8 -2 -4 69202.8 368.498 8
-8 4 -2 68783.5 389.509 7
-8 -2 -4 76046.8 389.077 6
-4 -8 -2 73370 283.227 6
8 -4 -2 63993 563.742 4
-8 -4 2 69061.7 382.256 7
-4 -8 -2 67310.2 426.365 8
-8 -2 -4 70471 426.16 7
4 8 -2 66747.6 399.111 2
8 4 2 76848.3 373.448 1
-4 8 2 69604.2 322.726 7
8 4 2 56884.1 564.437 4
8 -2 4 73304 389.247 1
4 -8 2 67230.5 346.708 5
-4 -8 -2 89847.8 471.384 5
-8 4 -2 68272.1 377.302 6
-4 -8 -4 54418.8 405.285 5
-8 -4 -4 56020.2 361.124 6
8 4 4 47532.9 311.485 1
-8 4 -4 43132.7 345.13 7
8 -4 4 40259 292.625 1
-8 4 -4 52712.3 373.649 6
-8 -4 -4 40963.2 317.789 8
-4 -8 -4 41816.9 367.955 8
-8 -4 -4 41837.4 323.213 7
4 8 4 36927.8 434.649 3
8 -5 3 56655.9 342.514 1
-8 -5 -3 63025.9 366.353 5
-8 -5 -3 50143.4 380.2 8
-8 -5 -3 50779.5 331.504 7
-5 -8 3 54730.4 477.498 8
8 3 5 64088 364.461 1
-8 -5 -3 57747.6 320.994 6
5 8 3 50103 531.741 3
-8 -5 -1 28971.2 277.705 8
-5 -8 1 33222.1 288.05 5
5 -8 -1 28234.2 245.177 5
-8 5 1 30722.3 255.073 7
5 -8 -1 28211 352.246 4
-5 8 -1 29878.4 215.579 2
8 5 -1 26289.7 389.508 4
5 8 1 33500.2 182.264 1
8 1 5 31097 261.232 1
-8 1 -5 28842.6 280.632 7
-5 8 -1 26657.4 293.35 3
-8 -5 -1 27901.1 228.542 7
-8 1 -5 29861.9 254.722 6
5 8 1 28074.3 421.086 3
8 5 -1 30605.5 267.585 2
-8 -5 -1 31931.8 234.715 6
-5 -8 1 27134.7 345.105 8
8 -5 1 32169.3 487.985 4
-8 -5 -1 36054.3 261.804 5
-5 8 -1 29601.6 210.82 6
8 5 1 27053.2 429.978 4
-8 -1 -5 29361.2 247.365 6
8 -5 -1 27954 419.49 4
5 -8 1 34411.9 268.199 5
8 5 1 24934.9 367.954 3
-5 -8 -1 33054 201.386 6
5 -8 1 27769.5 248.492 8
-8 -5 1 30289.5 250.643 6
-5 8 1 29203.8 217.475 6
-5 -8 -1 28718 185.226 7
-8 -5 1 27491.2 305.6 8
8 5 1 32877 254.571 2
-8 -5 1 33382.5 254.929 5
5 8 -1 30717.6 263.525 2
-8 5 -1 31301.5 251.511 6
-5 8 1 29779.8 326.016 3
-8 -1 -5 29483.7 279.051 7
-8 5 -3 53881.5 354.332 7
-5 -8 -3 57694.5 268.93 6
-8 -3 -5 59181.9 344.2 6
-8 -3 -5 49609.2 341.741 8
5 8 -3 55754.3 387.2 2
5 -8 3 51151 287.17 5
-5 -8 -3 49439.4 410.071 8
-5 -8 -3 62495 393.775 5
-8 -3 -5 50874.4 368.414 7
8 5 3 48870.2 473.306 3
8 5 3 60860 328.018 1
-8 -5 -5 30551.2 250.895 6
-8 5 -5 27502.7 260.917 6
-8 5 -5 26273 294.565 7
8 -5 5 27437.3 260.934 1
-8 -5 -5 27893.9 288.185 7
8 5 5 29858.8 259.193 1
5 8 5 26118 445.524 3
-8 -5 -5 26212.1 291.474 8
8 -6 4 842.698 154.392 1
-8 -6 -4 1010.49 161.136 7
-8 -6 -4 928.481 175.1 8
-6 8 -4 654.823 168.939 7
-8 -6 -4 1305.57 164.073 6
6 8 4 480.861 297.762 3
-8 6 2 17405 210.824 7
-6 -8 2 12555.2 157.059 7
6 8 2 9851.25 304.006 4
8 -6 2 11615.7 421.563 4
-6 8 -2 11037.9 239.125 3
8 -6 2 10055.6 113.822 5
8 6 -2 17321 236.547 2
-8 6 2 16023.9 221.941 6
-6 8 -2 13292.4 157.544 2
-8 -6 -2 16814.7 254.251 5
6 8 2 13308.1 140.105 1
-6 -8 2 15433 226.109 5
8 -6 2 11373.4 195.163 1
-6 -8 2 14627.6 287.307 8
6 8 2 10632 373.13 3
-8 -6 -2 11708.6 186.146 7
-6 8 -2 15192.3 194.153 7
-8 -6 -2 14160.4 179.766 6
8 -6 0 197.893 83.6494 8
-6 -8 0 12.274 172.96 8
-6 8 0 149.772 121.711 7
8 6 0 256.666 140.269 2
-8 6 0 156.184 148.595 7
-8 6 0 401.653 141.361 6
6 8 0 161.644 154.201 2
-8 6 0 9.53101 63.9695 5
-8 -6 0 432.433 155.683 5
6 8 0 88.5233 234.876 4
-8 -6 0 141.497 222.997 8
-6 8 0 194.124 188.538 3
6 -8 0 199.431 119.16 8
-8 -6 0 131.643 129.379 7
-8 6 -2 11637.8 188.368 7
-6 -8 -2 12371.6 139.475 6
-6 -8 -2 11778.9 232.843 8
-6 -8 -2 15375.9 235.633 5
6 -8 2 15468.5 178.841 1
-6 -8 -2 12034.8 160.606 7
6 -8 2 12896.7 160.89 5
-8 6 -2 10720.9 104.259 8
-6 8 2 13541.2 175.68 7
8 6 2 11791.6 337.915 3
-8 -6 2 15742.3 195.182 7
-8 -6 2 16763.2 222.661 5
6 -8 2 12679.5 189.397 8
-8 6 -2 11896.6 185.808 6
-8 6 -2 10049.1 148.579 3
8 -6 -2 13858.3 365.651 4
8 6 2 8782.4 333.29 4
-6 -8 -4 889.187 108.688 6
8 6 4 561.701 265.159 3
-8 6 -4 1078.89 189.891 7
8 6 4 1096.02 135.236 1
-8 6 -4 803.901 150.833 6
-8 6 -6 14656.6 233.815 6
-8 -6 -6 14766.8 267.6 8
-8 -7 -5 268.994 193.64 8
-8 7 3 5517.89 180.67 7
-7 8 -3 4026.76 148.888 6
-8 -7 -3 4281.86 172.462 7
8 -7 3 4142.28 114.094 5
-8 -7 -3 6420.54 239.404 5
-7 -8 3 6640.4 238.643 5
-8 -7 -3 4518.86 143.99 6
7 8 3 4464.4 340.475 3
-7 8 -1 55559.1 333.717 6
-7 -8 1 67563.9 400.067 5
7 -8 -1 60933.4 334.468 8
7 8 1 46391.1 440.764 4
-7 8 -1 58709 335.644 7
-8 -7 -1 66198 392.167 5
-8 7 1 54304.8 365.797 6
7 8 1 48060.2 564.198 3
7 -8 -1 60480 546.278 4
8 7 -1 57262.8 376.872 2
-7 8 -1 54523.4 370.178 3
8 -7 1 49656.8 276.296 5
-7 -8 -1 71833.1 360.05 6
7 -8 1 59602.5 583.536 4
-7 -8 -1 48391 397.978 8
8 -7 -1 60550.1 588.207 4
-8 7 -1 53727.7 334.866 6
8 7 1 61506.7 375.274 2
7 -8 1 56727.2 319.01 8
-7 8 1 56408.4 350.807 6
-8 -7 1 65585.4 390.233 5
-8 -7 1 57449.8 321.292 7
7 8 -1 60022.6 397.059 2
-7 -8 -1 68977.9 413.164 5
-8 7 -1 54930.5 257.675 2
-8 7 -1 51344.5 314.925 3
8 -7 -1 56562.7 303.586 8
-8 7 -1 57903.1 351.278 7
-8 7 -3 4485.35 156.668 6
8 7 3 4711.54 144.402 1
7 -8 3 4967.43 152.853 1
7 8 -3 4603.49 210.794 2
-7 8 3 5750.7 171.167 7
-7 -8 -3 5819.11 236.664 5
-8 7 -3 4646.01 184.214 7
7 -8 3 4299.86 141.827 5
8 7 5 201.615 359.162 3
-7 -8 -5 297.444 197.629 8
8 8 0 61706.6 411.015 2
-8 8 0 65346.8 385.251 6
-8 -8 2 74896.3 554.439 8
8 8 2 83002.6 395.075 1
-8 8 2 78823.8 457.731 6
8 8 -2 85782.5 493.512 2
8 8 2 61945.7 620.513 3
-8 -8 -2 74151.9 393.602 7
-8 -8 2 85532.9 479.495 5
8 -8 -2 73103.1 408.966 8
8 -8 -2 72049.6 631.391 4
-8 8 -2 77669.3 436.669 7
-8 -8 -4 534.021 177.107 7
8 -8 4 542.396 168.65 1
-8 -8 -4 720.754 219.636 8
8 8 6 465.011 406.564 3
-9 -1 0 7674.81 171.621 7
0 9 -1 6468.92 164.197 2
9 -1 0 6216.11 99.4456 8
-9 0 -1 5352.77 122.059 8
0 -9 1 5787.27 182.655 8
9 1 0 5096.99 329.306 4
-9 1 0 8521.68 89.3836 2
0 -9 -1 7088.31 180.181 5
9 -1 0 5394.5 326.176 4
-1 -9 0 9534.34 183.28 5
9 0 -1 5327.34 323.175 4
-9 1 0 9598.77 179.985 6
-9 -1 0 9530.49 178.205 6
0 -9 -1 4682.1 181.535 8
-9 0 -1 6234.7 102.426 5
-1 9 0 5780.31 252.99 3
1 -9 0 6719.17 173.962 8
-9 1 0 7940.3 89.2622 5
1 9 0 6128.88 280.776 3
0 -9 1 6852.61 167.264 5
-9 0 -1 6318.58 153.098 6
1 -9 0 12418.4 229.98 5
9 0 1 5794.82 173.116 3
9 0 1 5194.14 99.717 2
9 0 1 5825.67 375.839 4
-9 0 -1 5366.24 159.462 7
-1 -9 0 6928.76 194.626 8
-2 9 -1 22531.2 324.019 3
-2 -9 1 26669.7 283.262 8
9 1 2 19879.7 452.179 4
-1 -9 -2 26861.3 287.874 8
9 -2 1 24499.6 470.029 4
-9 1 -2 23104.6 225.076 6
-2 9 -1 24441 226.427 2
-9 -1 2 24994.8 254.449 6
2 9 1 24273.9 389.505 3
-2 9 -1 23457 142.586 6
-2 9 -1 24282.4 159.291 7
-2 -9 1 25590.8 263.291 5
1 -9 2 24483.3 231.532 5
-9 -2 -1 23035 183.435 5
1 -9 2 21494.6 146.296 7
1 9 -2 23024 241.816 2
9 1 2 24712.4 265.892 3
-9 -2 -1 25511.8 255.243 8
-1 -9 -2 29345.7 301.398 5
-9 1 -2 23541.8 238.94 7
-9 1 2 26163.1 254.889 7
-9 -1 -2 21702.2 183.607 8
-9 -2 1 23919.2 237.519 7
9 2 1 18122.4 271.655 3
9 -1 2 21780.2 454.216 4
1 -9 -2 23445.5 249.159 8
-9 -2 1 32267 236.679 5
-9 -1 -2 24917.8 223.515 6
2 -9 1 24304.5 224.753 5
2 9 -1 27179 256.743 2
-9 2 -1 22487.6 224.776 6
-9 1 2 24169.4 253.37 6
9 1 -2 20465.1 414.444 4
-9 -1 -2 23314 175.211 5
-1 -9 2 25310.8 252.206 5
-9 -2 1 26596.8 247.339 6
-1 9 -2 22846 229.152 2
1 -9 -2 22593.9 234.384 5
-2 -9 -1 25086.9 274.516 8
-2 -9 -1 27300.2 290.233 5
1 9 2 22526.3 356.306 3
-2 9 1 21177 316.384 3
-1 9 -2 21509.1 133.223 1
-9 -1 -2 22549.7 233.572 7
-9 2 -1 22151.9 223.353 7
9 2 1 22127.7 179.734 2
-2 9 1 22823.1 141.813 7
-9 -3 -2 2555.77 155.374 7
3 9 2 2007.2 61.6632 7
9 2 3 2410.46 145.732 1
3 9 2 2479.52 281.015 3
9 -3 2 2594.4 397.038 4
-9 2 -3 2457.99 142.663 6
-9 -3 -2 2135.54 138.852 6
-9 3 2 1930.8 152.639 7
2 -9 3 2731.13 192.444 8
-2 -9 -3 2579.64 193.48 5
2 9 -3 1913.46 162.124 2
-3 9 -2 1821.79 87.1025 6
-9 3 2 1697.96 158.325 6
-9 2 -3 2598.36 165.707 7
9 3 -2 2348.95 318.286 4
-3 9 -2 2249.23 139.17 2
-2 9 3 3068.81 278.369 3
-3 -9 2 1505.08 159.393 5
9 2 3 2693.82 191.09 3
3 -9 -2 2351.38 166.551 8
-2 -9 -3 2629.79 183.133 8
3 -9 -2 1505.68 184.1 5
9 0 3 10518 180.339 1
-9 0 -3 11265.7 173.851 6
-3 9 0 10395 287.395 3
9 3 0 9103.58 375.363 4
9 -3 0 10215.5 372.402 4
3 -9 0 9633.52 229.051 4
0 -9 -3 13373.9 246.547 5
-9 3 0 10515.9 190.492 6
-9 -3 0 10485.7 175.109 6
-3 9 0 9612.48 121.05 6
0 9 -3 10973.5 191.489 2
-9 0 -3 11162.9 199.357 7
-9 3 0 10699.8 194.212 7
-9 -3 0 10516.6 159.811 5
-3 -9 0 7680.65 207.331 8
-3 -9 0 10781.5 221.92 5
-9 0 -3 8949.12 116.215 8
0 -9 3 10977.9 192.438 5
3 -9 0 10374.3 187.999 8
0 -9 -3 10341 222.2 8
3 9 0 9812.39 189.225 2
0 9 3 9284.62 291.901 3
3 9 0 8199.29 324.02 3
9 3 2 2155.32 213.136 3
3 9 -2 2135.75 162.821 2
9 -3 -2 2523.17 328.042 4
-2 -9 3 2573.32 169.566 5
9 -2 3 3079.19 149.158 1
-9 3 -2 2018.42 136.64 6
-3 -9 -2 2781.27 176.444 8
-3 9 2 2587.81 227.252 3
3 -9 2 2629.92 188.612 8
2 9 3 3023.18 284.87 3
-3 -9 -2 1563.45 201.876 5
-3 -9 -2 2093.42 73.4912 6
-9 -2 -3 2536.05 157.035 7
-9 3 -2 2348.15 160.042 7
2 -9 -3 2928.78 170.261 8
-9 -2 -3 2987.22 148.522 5
2 -9 -3 2087.79 170.289 5
-9 -3 2 1509.12 150.438 6
-9 -2 -3 3154.04 133.654 8
-4 9 -3 1314 145.439 2
4 -9 -3 2147.25 170.433 8
-9 3 -4 2851.31 192.906 7
-9 -4 -3 2033.82 148.448 8
-9 3 -4 2452.78 148.316 6
4 9 3 1472.24 328.658 3
-4 9 -3 1320.46 109.121 6
-9 -4 -3 1903.47 131.79 6
9 3 4 2611.47 153.166 1
3 -9 4 2466.29 191.608 5
-3 -9 -4 2324.11 187.733 8
-3 -9 -4 3869.08 232.9 5
9 -4 3 2020.65 159.556 1
4 -9 -1 29078.8 271.279 8
4 9 1 19547.4 232.074 4
-9 1 -4 31581 275.168 6
-9 -4 -1 29448.4 239.571 6
4 9 1 20450.8 387.401 3
-4 9 -1 27829.6 189.302 6
9 4 -1 23778.4 431.481 4
9 4 -1 28609.5 249.822 2
4 -9 -1 23289.3 311.682 4
-4 -9 1 31464.3 373.62 8
4 9 1 23618.8 139.423 7
-9 -4 -1 21717.8 248.07 8
-4 9 -1 27651.9 230.958 2
9 -4 1 22878.4 494.701 4
-9 4 1 27361.5 259.811 7
-9 1 -4 27350.5 275.211 7
-9 -4 -1 24132 225.544 7
-9 -1 -4 32975.5 277.322 6
4 -9 1 21606.7 329.065 4
4 -9 1 28305.3 188.859 1
1 9 4 22986.9 414.451 3
9 -1 4 29679.2 262.845 1
4 -9 1 25097.5 269.887 8
-9 4 -1 29065.4 258.608 6
-4 -9 -1 23836.9 288.106 8
-9 4 -1 26776.6 252.056 7
9 4 1 23291.9 441.074 4
-9 -4 1 32145.4 242.364 5
4 9 -1 23599.7 264.931 2
9 4 1 29379.2 240.399 2
-4 -9 -1 29597.4 154.238 6
-9 -1 -4 27617 277.615 7
-4 -9 -1 43225 390.927 5
-9 -4 1 33328.2 276.493 6
-9 -1 -4 22920 220.953 8
9 -3 4 2561.8 153.222 1
-9 4 -3 1835.62 174.848 7
-4 -9 -3 1560.54 83.2856 6
-9 4 -3 1962.64 146.918 6
-9 -3 -4 2464.03 150.783 6
4 9 -3 1720.22 178.077 2
9 4 3 1929.12 143.396 1
4 -9 3 1686.82 184.553 8
-4 -9 -3 2439.31 195.179 5
-9 -3 -4 2297.64 170.82 7
3 9 4 1731.13 286.263 3
-4 -9 -5 715.586 199.664 5
5 9 4 634.977 312.626 3
-9 4 -5 443.175 193.756 7
9 4 5 340.172 148.718 1
-9 4 -5 617.089 156.167 6
-4 -9 -5 380.576 196.425 8
9 -5 4 963.225 155.683 1
-9 -5 -4 666.793 160.706 8
-9 -5 -4 1144.87 200.805 5
9 -5 2 1710.06 171.813 1
5 9 2 1300.02 233.893 4
-9 2 -5 1509.95 154.668 6
-9 -5 -2 2081.62 189.557 5
5 9 2 1586.27 93.2122 1
-9 5 2 1461.84 159.843 7
-9 -5 -2 1647.18 157.495 8
-9 2 -5 1363.61 190.208 7
9 2 5 1427.31 147.867 1
-5 -9 2 1924.81 185.041 5
-9 -5 -2 1504.59 131.94 6
5 -9 -2 1484.75 167.725 8
-9 -5 -2 1569.89 153.194 7
-9 -5 0 8035.22 164.466 6
-9 -5 0 6911.07 213.029 8
-9 5 0 7834.76 187.03 6
9 -5 0 7543.05 384.515 4
5 -9 0 7788.76 303.018 4
9 5 0 7863.61 383.217 4
-5 9 0 6705.43 135.638 6
-5 -9 0 8153.37 117.415 6
-9 -5 0 8898.97 179.443 7
-9 -5 0 8035.71 188.376 5
9 0 5 7069.63 190.32 1
9 5 0 8245.68 183.096 2
-5 -9 0 7392.44 242.015 8
5 9 0 5240.23 324.049 3
-5 -9 0 8327.38 207.039 5
-5 -9 0 7011.27 106.279 7
5 9 0 8681.29 204.908 2
-9 5 0 8644.25 193.623 7
-5 -9 -2 1386.11 87.7681 6
-9 5 -2 1646.62 150.597 6
-5 -9 -2 1598.47 192.455 8
9 -5 -2 1620.64 345.56 4
-9 -5 2 1630.74 182.969 5
9 5 2 1659.24 279.631 3
-9 -2 -5 1604.9 189.467 7
9 5 2 1351.53 348.315 4
-9 5 -2 1810.5 172.058 7
-9 -2 -5 1416.85 146.398 6
-9 5 -4 915.569 148.589 6
-9 -4 -5 329.455 180.114 7
4 9 5 202.993 338.769 3
9 5 4 514.845 265.922 3
-9 -4 -5 390.366 147.6 6
-9 5 -4 906.707 185.536 7
9 5 4 758.277 133.934 1
-9 -4 -5 390.487 159.307 8
-9 -6 -5 1964.85 205.078 8
-9 5 -6 1895.44 178.013 6
-9 -6 -5 2056.02 155.763 6
-6 9 -5 1583.96 151.221 6
-9 -6 -3 9029.72 219.865 8
-9 3 -6 9908.58 204.409 6
9 -6 3 8149.66 196.947 1
-9 -6 -3 9918.35 175.598 6
-6 9 -3 9466.26 170.624 6
-9 -6 -3 12476.2 263.105 5
-9 3 -6 10523.5 255.204 7
-6 9 -3 11323.2 209.185 7
-6 -9 3 9096.44 280.158 8
-9 1 -6 3972.19 181.651 6
9 -6 1 3653.92 410.83 4
6 9 1 4246.2 112.602 1
-6 -9 1 2732.8 251.462 8
9 1 6 4638.88 181.725 1
-9 1 -6 3344.44 217.457 7
-9 -6 -1 5668.62 178.833 6
-6 -9 1 4306.07 201.234 5
-9 -6 -1 3869.31 207.6 8
6 9 1 3424.89 370.481 3
-9 -6 -1 5476.31 183.992 5
-6 9 -1 3287.41 149.388 7
-9 -6 -1 3749.45 151.744 7
9 6 -1 2873.62 326.761 4
9 6 1 3221.26 323.108 4
9 -6 -1 3360.18 109.361 8
9 6 1 4136.38 177.983 2
9 -6 -1 3067.74 379.175 4
-6 -9 -1 4461.86 124.134 6
9 -1 6 3177.26 179.915 1
-9 -6 1 4498.4 161.318 6
-9 -1 -6 3510.58 216.775 7
6 -9 1 4032.47 151.44 1
-6 -9 -1 5265.02 212.016 5
9 6 1 3111.98 322.188 3
-6 -9 -1 3605.89 208.255 8
6 9 -1 4343.55 186.858 2
-9 -6 1 4831.74 188.587 5
-9 6 -1 3912.76 156.193 6
-9 6 -1 3804.6 169.747 7
-6 9 3 9963.55 181.812 7
-9 -3 -6 12012.4 218.821 6
-6 -9 -3 12501.8 288.208 5
6 -9 3 8365.24 171.575 5
6 -9 3 11726.9 180.121 1
9 6 3 8437.11 337.723 3
9 -3 6 12061.1 223.443 1
-6 -9 -3 10296.5 143.057 6
-9 6 -3 9395.08 219.78 7
-9 -5 -6 2112.63 158.67 6
-6 -9 -5 1791.87 230.9 8
7 9 6 403.643 405.657 3
-9 -7 -6 542.962 162.444 6
-7 9 -4 9801.83 201.847 6
-9 -7 -4 11626.3 196.699 6
7 9 4 10030.2 407.558 3
-9 -7 -4 11494.5 266.421 8
-9 -7 -4 11013.2 266.208 5
9 -7 2 7498.34 109.571 5
7 9 2 11209.4 339.348 4
9 7 -2 15618.2 258.691 2
-9 -7 -2 15175.1 286.246 5
-7 9 -2 12257.2 170.46 2
-7 -9 2 15573.7 327.628 8
-7 -9 2 14692.4 258.829 5
-7 9 -2 15353.9 220.355 7
-9 -7 -2 12380.8 194.625 7
-7 9 -2 12481.5 196.632 6
-9 -7 -2 13364.5 251.342 8
-7 -9 0 23726.6 199.905 7
-9 7 0 24669.3 262.669 6
9 -7 0 25672.4 531.017 4
7 -9 0 27708.2 481.028 4
9 7 0 22885.2 420.001 4
7 9 0 20881.1 352.051 4
-9 7 0 26246.1 272.834 7
-9 -7 0 25748.5 356.963 8
-9 -7 0 27378.9 296.858 5
7 9 0 26875.3 305.461 2
9 -7 0 22965 172.685 8
-7 -9 0 27099.7 305.777 5
-7 9 0 23103.3 297.969 3
-7 9 0 26142.2 235.463 7
9 7 0 24226.1 265.836 2
-7 -9 -2 14517.4 259.778 8
9 -7 -2 14413.5 440.353 4
-9 7 -2 12147.3 209.984 6
7 9 -2 14883.6 267.911 2
9 7 2 12289 389.009 3
-9 -7 2 14073.4 226.745 5
-9 -7 2 14648.3 297.8 8
7 -9 2 14606.9 214.739 8
-7 -9 -2 17801.5 307.419 5
-9 7 -2 13293.7 195.553 3
-7 -9 -2 13878.7 163.696 6
-9 -7 2 14730.8 209.276 7
-9 7 -4 10595.4 243.004 7
-9 7 -4 10010.2 210.153 6
9 7 4 13272.9 213.516 1
7 -9 4 8359.48 169.607 5
-7 -9 -4 11758.2 282.224 5
-9 7 -6 219.798 235.988 7
-7 -9 -6 2305.02 246.939 5
-9 -8 -5 8886.64 294.886 5
-8 9 -5 8964.24 268.577 6
-9 -8 -5 9589.91 246.258 6
-8 9 -5 5954.37 251.766 7
-9 -8 -5 4819.62 226.335 8
8 9 3 1886.97 364.952 3
-9 -8 -3 2220.02 189.047 7
-8 9 -3 2402.1 163.907 6
-8 9 -3 2026.22 193.741 7
-9 8 1 12278 223.402 6
8 9 1 8693.53 456.434 3
9 -8 1 6411.08 426.274 4
-9 -8 -1 10821.9 203.625 6
9 8 -1 12320 246.189 2
-9 8 1 13466.7 230.324 7
9 -8 1 7722.26 155.819 8
-9 -8 -1 7539.84 273.206 8
-8 -9 1 9735.11 280.622 8
-9 -8 -1 12151.8 247.618 5
8 9 1 10232.8 239.806 2
9 -8 1 7598.21 162.092 5
-9 8 -1 8009.94 135.703 2
-9 -8 1 14845.9 221.819 6
9 8 1 6471.97 371.407 4
-9 8 -1 8985.59 220.222 6
9 -8 -1 9303.92 451.508 4
-9 8 -1 7561.62 223.167 3
8 9 -1 11186.5 244.873 2
-8 -9 -1 14340.4 267.823 5
-8 -9 -1 7930.75 263.553 8
9 8 1 9233.63 235.392 2
8 -9 1 9629.91 175.417 5
-9 -8 1 16365 271.621 5
-8 -9 -3 2677.44 144.938 6
8 -9 3 2365.42 150.732 5
-9 -8 3 2539.57 218.303 5
-8 -9 -3 2220.63 181.715 7
-9 8 -5 5672.88 249.297 7
-9 8 -5 6778.96 219.792 6
-8 -9 -5 5329.18 256.222 8
8 -9 5 7880.04 219.279 5
-8 -9 -5 8843.47 322.191 5
9 8 5 5230.27 420.017 3
9 9 0 23468.1 470.822 4
-9 9 0 26203.5 277.351 6
-9 -9 0 29745.2 272.336 6
9 9 0 24928.8 496.781 3
9 9 0 29517.9 317.923 2
-9 -9 0 29363.4 258.66 7
-9 9 0 32182.1 295.756 7
-9 -9 2 3093.43 170.811 7
-9 -9 -2 5148.9 195.351 7
-9 -9 -2 5609.18 264.979 8
9 9 2 4286.58 423.448 4
9 9 2 4901.01 170.358 1
9 9 -2 3746.65 239.107 2
-9 9 2 2650.43 207.922 6
9 -9 2 4247.71 194.267 1
-9 -9 -2 5427.85 288.858 5
9 9 2 5057.29 428.991 3
-9 9 -2 4973.31 213.775 7
9 -9 4 6769.25 226.22 1
-9 -9 -4 6248.63 268.705 5
-9 9 -4 6031.67 266.031 7
10 0 0 13119.1 442.234 4
-10 0 0 11025.3 208.661 6
0 10 0 11333.9 355.022 3
0 -10 0 13351.3 236.912 8
0 -10 0 11505.3 216.32 5
-10 1 1 28172.3 263.339 7
-10 -1 1 25622.4 257.108 7
10 -1 1 26040.1 494.731 4
-10 1 -1 27032.4 251.447 7
10 1 1 25869.8 497.556 4
10 -1 1 22622.3 150.9 8
-10 -1 -1 24825 211.852 8
10 -1 -1 23695.6 452.93 4
-10 -1 -1 26451 246.392 6
10 1 1 23251 279.617 3
-10 1 1 31065.5 297.752 6
-1 10 -1 22478.4 385.339 3
10 1 1 25831 189.009 2
-1 -10 1 23064 301.156 8
1 -10 1 24979.1 287.443 8
-1 -10 -1 34904.7 328.955 5
1 10 1 28035.2 418.136 3
-10 -1 1 29961.8 294.158 6
-1 -10 -1 27344.6 305.027 8
1 -10 1 26595.8 263.177 5
1 -10 -1 24045.7 284.424 8
-10 -1 -1 26441.6 186.265 5
1 10 -1 26980.5 276.255 2
-1 10 1 24459.4 364.679 3
-1 -10 1 26554.6 274.355 5
1 -10 -1 29184.5 303.185 5
-10 -1 -1 27707.2 255.86 7
10 -1 1 23272.8 207.098 3
1 -10 1 21397.7 125.373 7
-10 0 2 29375.9 269.36 7
-10 0 -2 25506.6 183.4 8
-10 0 -2 24841.1 259.851 7
0 -10 -2 27587.1 285.336 5
0 -10 -2 26409.4 322.111 8
-10 -2 0 25277.7 277.462 8
10 0 2 25215.7 247.03 3
2 -10 0 26280.2 147.696 1
0 -10 2 33305 287.119 5
-10 0 -2 27746.2 260.011 6
2 -10 0 22597.7 252.257 4
10 0 -2 28264.5 461.243 4
-10 2 0 30686.4 285.676 6
-10 -2 0 30067.4 269.975 6
-2 10 0 26413.7 162.436 6
-10 0 2 31924.9 297.052 6
-10 -2 0 30241.4 211.955 5
0 10 -2 24648.3 136.641 1
2 -10 0 34680.5 311.726 5
-10 0 -2 29175.7 191.7 5
10 0 2 28433.7 176.665 2
0 10 -2 27830.3 268.084 2
10 2 0 25632.9 492.028 4
2 10 0 25372.8 423.437 3
2 -10 0 25874.6 280.716 8
0 10 2 25821.9 424.669 3
-2 -10 0 31382.3 286.921 5
-2 -10 0 26291.5 292.669 8
-2 10 0 28006.7 411.595 3
-2 10 0 24842.8 153.412 7
-10 2 0 28922.6 282.015 7
-10 -2 0 29408.5 276.147 7
2 -10 -2 4415.43 200.5 5
-2 10 2 2933.26 93.5157 7
-2 10 2 1996.6 275.483 3
-10 -2 -2 1956.79 136.458 8
-2 -10 2 3435.22 186.13 5
10 -2 2 2042.69 375.805 4
10 2 2 1869.22 372.698 4
-2 10 -2 3010.48 95.671 6
-10 -2 -2 4021.5 155.725 6
10 -2 -2 2059.53 375.869 4
-10 2 2 1892.18 166.219 7
-10 2 2 2839.8 168.846 6
-10 -2 2 2879.22 172.556 6
2 10 -2 2376.77 178.086 2
10 2 2 3191.46 126.066 2
-2 10 -2 2616.77 157.252 2
-10 2 -2 4302.81 167.173 6
2 -10 2 3746.36 183.137 5
2 -10 -2 2182.21 165.881 8
2 10 2 2276.03 290.738 3
-10 -2 -2 4878.05 160.291 5
-2 -10 -2 4581.89 220.126 5
-10 -2 -2 2878.03 168.892 7
-10 2 -2 2848.49 173.821 7
-10 1 -3 28624.5 267.695 6
1 -10 3 26302 341.761 8
-3 10 -1 26800.5 197.032 7
-3 10 -1 25854.3 175.467 6
10 -3 1 26650.5 523.993 4
10 3 -1 25953.9 475.847 4
1 10 -3 29555.8 296.009 2
10 1 3 30120.8 273.298 1
-3 -10 1 27193.6 320.555 8
3 -10 -1 30336.1 312.461 5
3 10 1 23200.6 446.347 3
1 -10 3 28974.2 265.585 5
-3 10 -1 24231.5 386.161 3
-3 -10 1 32374.7 307.516 5
3 -10 -1 24968.1 277.183 8
-1 10 3 24257.3 370.722 3
-3 10 -1 27131.2 252.672 2
-10 -3 -1 27687.1 252.891 6
-3 10 1 28268.4 411.837 3
3 -10 1 27483 257.409 5
3 -10 1 23572.7 333.889 4
-10 -1 -3 29868.9 265.025 6
-10 3 -1 26898.1 257.385 6
-10 -1 -3 30122.6 230.907 5
-10 -3 1 29267.7 276.745 6
10 -1 3 30557.3 270.658 1
-1 -10 3 24477.7 352.774 8
3 -10 1 28226.6 171.882 1
-3 -10 -1 22397.7 302.571 8
3 10 -1 31581.8 299.694 2
-10 -1 -3 22118.7 198.936 8
1 -10 -3 30097.4 318.707 8
-3 -10 -1 38559.6 353.433 5
-3 10 1 27667.9 178.24 7
1 10 3 22830.1 404.762 3
10 3 1 21046.2 429.718 4
-10 3 -1 27903.9 268.394 7
-10 3 -3 78743.8 442.03 6
10 3 3 80448.9 436.718 1
-3 10 -3 73824.3 428.699 2
3 10 -3 80506.8 480.34 2
10 -3 3 80313.5 447.543 1
3 -10 -3 77018.8 493.787 8
-3 -10 3 80575 445.539 5
-3 -10 -3 72454.7 294.794 1
3 -10 3 80609.6 520.362 8
-3 10 -3 73016.4 334.314 6
-3 -10 3 78804.4 568.41 8
-3 -10 -3 71170.8 515.552 8
-10 3 -3 80605.6 462.616 7
-10 -3 -3 76710.2 443.766 7
3 -10 -3 70269.8 438.972 5
10 -4 2 11341.9 453.998 4
-10 2 -4 13833.5 218.488 6
-10 -4 -2 14489.3 202.987 6
4 10 2 8598.9 220.139 4
10 4 -2 12434.6 407.661 4
4 10 2 10931.2 362.323 3
-10 4 2 16261.9 240.383 6
-2 -10 -4 11798.7 266.441 8
-4 10 -2 13835.1 202.884 2
-4 -10 2 17824.3 262.6 5
2 -10 4 18395.1 259.062 5
-10 -4 -2 9881.91 197.975 8
-10 2 -4 10033.9 115.627 8
-10 -4 -2 16281.8 213.413 5
10 2 4 12996.7 222.502 1
-4 10 -2 13079.7 171.337 7
-10 2 -4 12241.9 235.616 7
4 -10 -2 15401.7 247.652 5
-10 -4 -2 11850.4 210.936 7
4 10 2 12122.7 108.497 7
-10 -4 0 25408.5 244.057 5
-4 10 0 20458.8 337.547 3
10 0 4 27652.6 266.556 1
-4 10 0 22105.4 186.6 6
4 10 0 23943 274.43 2
4 10 0 20682.5 431.945 3
10 -4 0 26365.8 521.183 4
-10 4 0 23718.1 267.444 6
-10 -4 0 23240.1 243.261 6
0 10 -4 23918 283.135 2
4 10 0 19987.1 121.338 1
4 -10 0 21685.5 260.152 8
-4 -10 0 20805.8 309.444 8
-10 0 -4 24744.5 196.337 8
0 -10 -4 22493.7 312.097 8
10 4 0 24691.6 234.18 2
-10 0 -4 27519.2 267.627 6
-10 0 -4 26421.1 286.865 7
-4 -10 0 17999.5 123.196 7
0 10 4 24855 428.22 3
-10 4 0 23528.4 270.097 7
-10 -4 0 22604.1 253.266 7
-4 10 2 13297.7 151.914 7
10 -2 4 15035.9 224.389 1
-10 -4 2 14984.6 222.834 7
2 -10 -4 13018 257.571 8
4 -10 2 12466.8 248.063 8
-4 -10 -2 18778.9 266.098 5
-4 10 2 13905.8 349.557 3
10 -2 4 8952.24 109.152 5
10 4 2 10377 428.525 4
-10 -2 -4 15486.7 223.048 6
-4 -10 -2 14695.9 111.945 6
2 10 4 11626 348.629 3
10 -4 -2 12776.7 421.953 4
-10 -4 2 19542.9 252.538 6
4 -10 2 15847 156.87 1
-10 -4 2 23550.5 272.407 5
-2 -10 4 20720.4 301.509 5
4 -10 2 16113.4 211.299 5
10 4 2 10204.3 329.045 3
-10 4 -2 11455.8 227.532 7
-4 -10 4 68.4325 264.601 8
-10 4 -4 399.905 190.787 7
-4 -10 -4 1079 209.263 5
10 4 4 738.581 158.012 1
4 10 4 485.058 319.444 3
10 4 4 451.57 295.617 3
-10 4 -4 707.443 160.824 6
-10 -4 -4 990.589 186.528 5
-3 -10 -5 15464.9 293.501 8
-10 3 -5 17777.1 291.755 7
-5 10 -3 17727.1 224.423 2
-10 -5 -3 15717.2 248.656 8
-10 -5 -3 19854.1 229.207 6
10 -5 3 18928.1 247.919 1
10 3 5 22240.7 265.301 1
5 -10 -3 18387.5 289.858 8
-10 -5 -3 25433.8 292.253 5
10 -5 3 13350 495.807 4
-3 -10 -5 18464.4 298.957 5
-5 10 -1 2130.26 291.691 3
10 5 -1 1784 387.333 4
-10 1 -5 2763.08 219.808 6
-5 10 -1 1985.74 119.427 6
5 10 1 2724.33 86.6657 1
-10 -5 -1 3197.49 185.151 6
5 -10 -1 2333.2 281.135 4
5 -10 -1 1649.34 174.871 5
-5 -10 1 3182 291.573 8
-5 -10 1 2475.36 210.044 5
-10 -5 -1 2941.25 173.562 5
-10 1 -5 1938.22 211.725 7
10 5 1 2433.53 307.103 3
5 -10 1 2259.37 310.894 4
-5 -10 -1 2401.55 100.512 6
-10 5 -1 2519.04 160.707 6
-10 -5 1 1801.02 170.471 6
-10 5 -1 3058.09 179.499 7
10 -5 -1 1783.41 378.96 4
10 5 1 1963.96 371.579 4
10 -1 5 2602.88 185.558 1
-5 -10 -1 2732.27 218.96 8
5 -10 1 1657.74 189.486 5
-10 -1 -5 2060.43 141.585 8
5 -10 1 2391.73 186.28 8
5 10 -1 1830.63 182.629 2
10 5 3 12084.7 439.266 4
-10 -3 -5 24701.4 311.788 6
-10 5 -3 17753.4 237.724 6
10 5 3 17885.4 234.917 1
-5 -10 -3 26216.9 350.557 5
10 -3 5 19873.1 263.111 1
3 10 5 15892.1 440.285 3
10 5 5 13252.2 413.244 3
-10 -5 -5 20723.2 279.174 5
-10 -5 -5 19322.3 253.386 6
-10 5 -5 18768.1 268.328 6
-10 -5 -5 13602.3 261.079 8
5 -10 5 20243.1 269.625 5
10 -5 5 17043.3 259.543 1
-5 -10 -5 13958.5 300.998 8
-5 -10 -5 21853.9 341.971 5
5 10 5 11141.9 440.307 3
-6 10 -4 16232.7 249.467 6
-10 -6 -4 11629 204.084 6
10 4 6 14353.6 242.206 1
6 10 4 7569.77 415.514 3
-10 4 -6 10347 269.002 7
-10 -6 -4 11089.3 244.516 7
-10 -6 -4 14572.7 256.086 5
-10 -6 -4 10648 260.134 8
-10 -6 -2 43384.7 363.643 5
-10 -6 -2 24083.4 289.924 8
-10 2 -6 32460.4 302.162 6
6 10 2 20438 338.65 4
-6 10 -2 28408.6 246.616 6
-10 -6 -2 34602 278.09 6
10 2 6 33964.9 305.345 1
-10 6 2 31153.3 311.592 6
6 10 2 31957.6 203.462 1
-6 10 -2 27228.1 246.588 2
6 -10 -2 31813.8 303.648 8
-6 10 -2 29162.6 264.358 7
-6 -10 0 12435.8 287.92 8
10 -6 0 14886.1 490.809 4
10 6 0 11726.4 443.139 4
-10 6 0 15503 236.164 6
-6 -10 0 15586.3 167.077 6
10 6 0 17155.1 242.009 2
-10 -6 0 13990.7 276.474 8
6 -10 0 13125.3 222.792 8
6 10 0 16872.5 263.308 2
-6 10 0 15023.7 188.924 7
-10 -6 0 15919 229.146 7
6 -10 2 21400.2 412.894 4
-10 -2 -6 33341 302.205 6
10 6 2 23689.9 483.56 4
10 -6 -2 27978.3 506.226 4
10 -2 6 33301.6 304.704 1
-10 -6 2 28763.1 273.279 7
-10 -6 2 32548.5 287.328 5
10 6 2 33612.6 287.557 1
10 6 2 24891.3 436.91 3
-10 6 -2 29998.2 302.892 7
6 -10 2 27742.3 239.09 1
-6 -10 -4 13474.1 163.159 6
10 -4 6 13508.4 239.198 1
-6 -10 -4 11106.1 293.526 8
10 6 4 12712.4 212.534 1
10 6 4 9424.35 373.088 3
-10 6 -4 9891.66 259.209 7
-10 6 -6 28037.3 312.869 6
-6 -10 -6 30960.3 380.996 5
-10 -6 -6 29963.9 293.316 6
10 -6 6 28378.4 311.748 1
-10 -7 -5 10211 295.096 5
-7 10 -5 7917.46 206.796 6
-10 -7 -5 9747.08 205.135 6
-10 -7 -5 6289.58 244.787 8
-10 -7 -5 7462.57 246.934 7
-10 -7 -3 2833.29 199.261 7
-7 10 -3 2163.46 159.787 6
-7 -10 3 2079.09 286.441 8
-10 7 3 2079.72 200.759 7
-10 -7 -3 2634.22 223.553 8
-10 7 1 5688.47 220.875 7
10 -7 1 3013.27 410.116 4
7 10 1 2920.18 309.282 4
7 -10 -1 3761.38 347.569 4
-10 -7 -1 4225.85 185.629 6
10 7 -1 4441.33 377.407 4
-10 7 1 4885.35 210.142 6
7 10 1 3654.74 130.016 1
-7 -10 1 6422.28 249.208 5
-10 -7 -1 2425.25 234.166 8
-7 -10 1 5128.73 311.976 8
-10 -7 -1 3398.58 205.499 5
-7 -10 1 6300.33 153.934 7
-10 -7 1 5590.24 272.958 8
-7 -10 -1 2923.98 144.638 7
7 -10 1 3188.06 356.035 4
10 7 1 2567 405.272 4
-10 7 -1 3599.99 198.631 6
-7 -10 -1 3653.74 130.083 6
-10 -7 1 6650.81 206.229 6
-7 -10 -1 3129.6 224.978 8
-10 -7 1 7090.85 203.465 7
7 10 -1 6255.87 230.284 2
10 7 1 2516.16 376.615 3
7 -10 1 4701.92 180.924 1
10 -7 -1 5447.87 141.674 8
-10 -7 1 7122.33 225.194 5
-10 7 -1 3391.56 193.245 7
-7 10 1 4530.81 186.801 7
10 7 3 2580.99 172.731 1
10 7 3 2153.42 346.899 3
7 -10 3 2112.4 238.125 8
10 7 5 8908.68 210.943 1
7 -10 5 10450.1 240.533 5
-8 10 -4 20349.9 298.508 7
-8 10 -4 22112.8 260.282 6
-10 -8 -4 26053.9 263.683 6
-10 -8 -4 16760.4 315.155 8
10 -8 4 22998 281.426 1
-10 -8 -4 20559.2 304.98 7
-10 8 2 5134.52 218.01 7
-8 -10 2 8459.06 264.821 5
10 -8 2 3667.87 486.525 4
8 10 2 7745.29 166.779 1
-10 8 2 6758.73 232.102 6
-8 -10 2 4803.04 314.916 8
-10 -8 -2 4527.46 247.686 8
8 -10 -2 4727.01 200.366 8
-8 -10 2 4164.88 157.759 7
-8 10 -2 5533.61 217.96 7
8 -10 0 8256.39 475.382 4
-10 -8 0 12662.3 223.574 6
-8 10 0 10596.1 212.005 6
10 8 0 10119.8 237.971 2
8 10 0 5666.29 425.54 3
-10 -8 0 9406.55 307.49 8
-10 -8 0 13763.6 265.549 5
-8 -10 0 13270.2 283.212 5
8 10 0 9141.3 261.973 2
-10 8 -2 6881.68 209.727 6
8 -10 2 6577.47 193.744 1
-10 -8 2 4970.87 197.409 7
-8 -10 -2 4506.02 262.312 8
8 10 -2 4862.7 251.905 2
10 8 2 6222.34 194.479 1
-10 -8 2 7985.39 250.15 5
-10 -8 2 3557.97 289.654 8
8 -10 2 8353.76 217.578 5
10 8 2 5167.43 420.081 3
-8 -10 -4 25878.2 234.669 6
8 -10 4 25395.3 293.772 1
-10 -9 -5 7006.86 262.29 6
-10 -9 -5 7787.65 440.339 5
10 -9 5 7412.99 316.463 1
9 10 5 5162.32 602.283 3
-9 10 -5 5768.94 269.926 6
-10 -9 -5 6920.41 338.823 7
-9 10 -5 6186.85 354.118 7
9 10 1 5835.21 529.961 3
9 10 1 5145.83 403.548 4
-9 10 -1 9200.24 256.648 6
-10 -9 -1 8307.74 211.619 6
-10 9 1 8153.72 240.773 6
-9 -10 1 10164.6 298.844 5
-10 -9 -1 5431.37 282.107 8
-10 -9 -1 8659.81 283.124 5
-9 10 -1 8035.76 234.542 7
-10 -9 -1 6213.68 206.405 7
-10 9 1 8775.47 252.725 7
-9 -10 -1 6510.09 306.224 8
10 -9 -1 6177.15 519.127 4
-9 -10 -1 8962.29 191.676 6
-9 10 1 6737.56 226.372 6
-10 -9 1 9241.2 224.494 6
-10 -9 1 11031.5 292.745 5
10 9 1 4340.12 475.198 3
10 9 1 7570.49 259.266 2
-9 -10 -1 6004.67 194.453 7
-10 9 -1 6537.32 229.343 7
-9 10 1 7695.25 241.656 7
-10 -9 1 7602.32 223.022 7
-10 9 -1 8215.29 268.977 6
-9 -10 -5 7123.87 241.528 6
-10 9 -5 5316.69 293.478 6
9 -10 5 7065.42 276.826 1
-10 9 -5 6303.33 369.606 7
10 9 5 7159.6 280.584 1
-9 -10 -5 6821.91 395.858 5
10 9 5 5696.49 558.878 3
-10 -10 2 7306.05 274.324 7
-10 -10 -2 3135.24 295.185 7
-10 10 -2 3453.51 321.024 7
-10 10 -2 5749.57 282.48 6
10 10 -2 10015.2 362.682 2
10 -10 2 1198.62 769.781 4
-10 10 2 9298.89 327.349 7
-10 -10 2 6800.87 458.172 8
0 -11 -1 7643.45 225.321 5
11 -1 0 8284.63 463.477 4
11 1 0 7382.39 439.869 4
-11 0 -1 5782.81 125.206 5
11 0 -1 6541.99 403.845 4
-11 0 -1 5879.46 180.202 6
-11 1 0 8750.78 202.137 6
-11 -1 0 8383.7 201.16 6
-11 0 1 7061.09 216.988 6
-1 -11 0 7765.2 229.57 8
-11 0 1 6164.42 201.226 7
-11 1 0 7975.24 110.053 5
0 11 -1 5612.13 348.979 3
-11 -1 0 8456.5 143.176 5
1 11 0 7154.99 394.335 3
-1 11 0 6688.89 335.54 3
1 -11 0 12378 289.014 5
11 0 1 5667.69 406.562 4
-11 0 -1 5689.29 193.842 7
-11 1 0 9734.99 224.597 7
-1 11 2 25383.5 142.562 7
11 1 2 23635.5 526.356 4
11 -2 1 22768.7 483.635 4
-1 11 2 20996.4 232.97 4
-11 1 -2 29818.9 281.938 6
-2 11 -1 26883.6 155.661 6
-11 -2 -1 34725.7 318.904 6
11 -1 -2 26306.7 508.774 4
-11 -1 2 27526.4 288.85 7
-11 2 1 37366.5 346.597 6
-11 -1 2 31292.2 311.186 6
-2 11 -1 28881.6 276.669 2
1 11 -2 30414.8 298.423 2
-11 -2 -1 29940.3 225.285 5
-11 1 -2 25844.4 189.681 8
-11 1 -2 23569.8 169.936 5
-2 11 -1 25823.1 422.661 3
-2 -11 1 27353.4 358.285 8
1 -11 2 33200.1 310.629 5
-2 -11 1 34618.7 318.082 5
2 -11 -1 27699 309.347 8
2 11 1 26198.7 456.379 3
-1 -11 -2 27535 333.509 8
-11 1 -2 27940.6 287.895 7
1 -11 2 33294.2 375.539 8
-1 -11 -2 35307.8 350.777 5
1 -11 2 22006.3 151.687 7
-11 2 1 33448.9 321.273 7
-11 -2 -1 26074.6 271.86 7
-11 -2 1 31606.1 294.687 7
11 -1 2 25616.9 232.823 3
-1 11 -2 33505.2 181.408 6
2 -11 1 23441.4 285.524 4
-11 -1 -2 29978.6 282.867 6
-11 2 -1 27802.1 270 6
11 1 -2 26144.1 495.051 4
-11 -2 1 33045.3 309.324 6
11 -1 2 27491.8 162.965 2
1 11 2 26725.8 450.289 3
-1 11 -2 29092 284.466 2
11 -1 2 24629.6 526.471 4
-1 11 -2 26286.9 155.632 1
-1 -11 2 29640.2 359.264 8
2 -11 1 29278.2 320.449 8
1 -11 -2 30621.5 350.848 8
-2 -11 -1 39955.6 372.552 5
1 -11 -2 29752.9 309.096 5
-2 11 1 26212 399.514 3
11 2 1 21927.1 333.788 3
-11 -1 -2 27670.9 283.425 7
-2 11 1 23740.3 148.582 7
-11 3 2 3086.94 199.118 7
-11 2 -3 3325.31 194.555 7
3 -11 -2 3868.83 206.686 5
11 2 3 3066.65 486.503 4
-11 -3 -2 2962.92 172.763 6
11 3 -2 2947.58 396.168 4
-11 3 2 3694.03 195.008 6
11 2 3 3366.48 253.675 3
-3 11 -2 3444.74 179.626 2
3 -11 -2 3242.24 211.966 8
-11 -3 -2 2561.81 197.531 7
3 -11 0 204.393 90.2402 1
3 -11 0 386.606 214.484 5
-3 -11 0 234.461 200.348 5
-11 3 0 614.347 190.334 7
-11 -3 0 328.444 176.709 7
3 -11 0 413.255 179.167 8
0 11 3 560.041 314.455 3
11 0 3 328.018 167.255 1
3 11 0 399.766 174.122 2
11 0 3 531.822 452.124 4
3 11 0 379.823 361.88 3
-11 0 -3 218.011 157.391 6
-11 0 -3 462.789 106.697 8
-11 3 0 221.675 163.526 6
-11 -3 0 208.921 157.523 6
0 -11 3 735.663 234.811 8
3 -11 0 391.884 237.465 4
-11 -3 0 400.128 184.707 8
-3 -11 0 564.052 219.313 8
-3 11 0 438.477 106.532 7
-11 0 -3 391.738 170.571 7
-2 11 -3 3257.12 111.227 6
11 3 2 2390.81 455.712 4
-11 -2 -3 4470.5 181.454 6
-11 3 -2 2749.67 174.819 6
11 -3 -2 3066.86 416.583 4
11 -2 3 2256.77 499.924 4
11 -2 3 3594.45 185.965 1
3 11 -2 3136.01 206.376 2
3 -11 2 4125.69 247.002 8
3 -11 2 4128.51 192.691 5
2 -11 -3 3261.19 231.914 8
-11 -2 -3 4461.81 159.682 5
2 -11 -3 4094.75 234.645 5
-11 -2 -3 3482.84 201.215 7
-3 -11 -2 5300.57 263.449 5
11 3 4 5398.25 198.42 1
-11 4 3 4218.61 224.639 7
-11 -4 -3 7004.21 196.358 5
-4 11 -3 4823.97 139.111 6
-11 3 -4 5269.68 195.607 6
-11 -4 -3 6002.01 186.166 6
11 -4 3 7145.07 220.773 1
-11 3 -4 6442.46 245.549 7
-11 -4 -3 5453.78 212.204 7
-4 11 -1 5435.96 318.147 3
-11 -4 -1 7359.99 203.586 7
-11 1 -4 6116.98 190.571 6
-4 11 -1 5514.22 141.699 6
-11 -4 -1 8678.85 238.887 6
11 1 4 5576.84 188.984 1
-11 4 1 5588.71 221.276 7
1 11 -4 8260.93 244.403 2
-4 -11 1 8061.57 246.716 5
1 -11 4 6150.05 204.219 5
4 -11 -1 7384.26 214.11 8
4 11 1 6789.48 420.473 3
-11 -4 -1 6825.82 187.204 5
-4 11 -1 6021.28 146.613 7
-11 1 -4 6879.48 230.291 7
-1 11 4 7358.88 385.655 3
-11 -4 1 6773.79 218.549 7
-4 11 1 7838.56 142.433 7
4 -11 1 5734.62 126.317 1
11 -1 4 7509.3 209.311 1
11 4 1 6611.85 405.725 4
-11 -1 -4 5967.86 184.165 6
4 -11 1 4861.46 276.728 4
-1 -11 4 8039.78 229.319 5
1 -11 -4 6958.71 243.122 5
4 11 -1 7316.38 217.099 2
4 -11 1 6613.49 243.246 8
1 -11 -4 8113.48 247.318 8
4 -11 1 6775.99 258.647 5
-4 -11 -1 7918.5 307.754 5
-11 -1 -4 7266.6 230.124 7
-11 4 -1 6361.75 210.151 7
-4 -11 -3 6242.79 287.225 5
11 4 3 4925.07 497.802 4
-11 4 -3 5958.52 194.783 6
-11 -3 -4 4603 190.267 8
-3 11 -4 4472.2 216.329 2
11 4 3 6078.74 200.968 1
3 -11 -4 6226.2 249.772 8
11 4 3 5338.15 353.048 3
-11 -3 -4 4637.26 217.111 7
-4 11 3 6672.83 370.868 3
-5 11 -4 15463.3 196.878 6
-11 4 -5 15601.6 251.67 6
-4 -11 -5 15250.1 317.709 8
-5 -11 2 31182.3 325.782 5
-11 2 -5 24139.1 284.7 6
-11 -5 -2 32319.2 332.365 5
11 5 -2 22755.3 531.04 4
-11 5 2 24045.7 291.557 6
-2 -11 -5 26425.3 359.759 8
5 -11 -2 26793.7 323.39 5
5 -11 -2 25210.2 292.708 8
-11 -5 0 37192 310.976 5
-11 0 -5 36047.1 319.347 6
11 -5 0 30373.4 604.53 4
-11 5 0 31874.3 315.694 6
-5 11 0 34854.1 262.975 6
11 5 0 32939.7 290.512 2
5 11 0 31197.8 176.977 1
5 11 0 26543.5 525.439 3
-5 -11 0 32299.2 395.956 8
-5 -11 0 36870.5 380.553 5
-11 0 -5 29695.1 248.074 8
5 11 0 35160 345.551 2
-11 -5 0 34738 312.512 7
11 5 2 22173.9 557.625 4
-11 -2 -5 25681.9 280.781 6
11 -5 -2 23751 534.365 4
5 11 -2 28703.1 328.021 2
11 5 2 19386.8 412.254 3
5 -11 2 25176.4 285.775 5
-5 11 2 28087.8 438.071 3
-11 5 -2 27687.8 312.837 7
-11 -4 -5 16781.9 245.307 6
-11 5 -4 14924.3 250.622 6
5 -11 4 15216.1 243.731 5
-11 -4 -5 13232.6 248.997 8
11 -4 5 15875.9 251.75 1
-11 5 -4 14239.8 285.211 7
4 11 5 11548.2 468.635 3
11 5 4 16650.9 248.597 1
11 -6 5 13560.1 260.17 1
-6 11 -5 12733.4 210.076 6
-11 5 -6 17472.3 347.904 6
11 5 6 14015.7 253.25 1
-11 5 -6 12340.8 319.377 7
-11 -6 -5 12104.9 280.807 8
-11 -6 -5 13324.7 292.692 7
6 11 5 8802.43 447.048 3
-11 -6 -5 16333.9 327.391 5
-11 3 -6 909.159 253.832 7
-11 -6 -3 956.109 213.066 7
-6 11 -3 1076.88 147.845 6
-11 -6 -3 930.515 173.837 6
-11 3 -6 952.042 243.579 6
11 -6 3 560.862 544.422 4
-11 -6 -3 1875.33 251.153 5
6 -11 -3 1026.89 211.203 8
-6 -11 3 1092.81 233.74 5
11 -6 3 839.841 202.807 1
-6 -11 3 1078.21 287.178 8
-11 1 -6 3650.66 205.409 6
11 -6 1 3122.85 442.812 4
6 11 1 2591.69 275.938 4
-11 -6 -1 3247.5 194.945 6
11 6 -1 3290.93 217.961 2
-11 6 1 2541.78 227.229 7
11 1 6 3598.55 205.019 1
11 6 -1 2168.28 405.774 4
-6 -11 1 3588.23 250.141 5
-6 11 -1 2799.84 167.676 7
-11 -6 1 3064.94 207.323 5
-11 -1 -6 3691.48 206.679 6
6 -11 1 2166.92 363.901 4
11 -1 6 3721.14 209.298 1
6 -11 1 2551.74 206.249 8
11 -6 -1 2852.99 455.11 4
-11 -1 -6 3149.89 241.83 7
-6 11 1 2725.82 288.253 3
-11 6 -1 3187.66 211.339 7
-11 -6 1 2955.19 205.058 7
-6 11 3 913.692 168.515 7
11 6 3 1061.83 188.689 1
11 6 3 703.601 409.124 4
-11 6 -3 691.503 181.081 6
11 6 3 547.357 346.873 3
11 6 5 10906.6 449.782 3
-11 -5 -6 12296.5 296.772 7
-6 -11 -5 11709.7 333.826 8
-11 6 -5 11346.4 311.964 7
-11 -7 -6 8192.15 357.553 5
-7 11 -6 6799.94 279.016 6
-11 6 -7 8021.2 312.736 6
-11 -7 -6 8699.6 301.671 6
11 -7 6 8618.24 314.757 1
-11 -7 -6 5983.41 358.765 8
-11 6 -7 6438.93 398.539 7
-11 -7 -6 5970.48 373.986 7
7 11 6 5878.6 672.552 3
-11 -7 -4 1816.7 275.364 5
-11 4 -7 1138.56 216.782 6
-7 11 -4 1018.57 185.148 6
-11 -7 -4 1339.15 192.781 6
-7 -11 4 1725.03 355.33 8
-11 -7 -4 753.126 254.033 7
-7 11 -4 1004.75 237.42 7
-11 7 2 13998.2 269.105 7
-11 2 -7 16178.3 271.831 6
11 -7 2 10509 598.871 4
-11 -7 -2 12634.3 224.216 6
-7 11 -2 13091 230.997 7
11 2 7 16393.7 262.624 1
-7 11 -2 11419.5 213.406 2
-7 -11 2 12935.9 333.673 8
-11 -7 -2 16974.2 323.964 5
-11 -7 -2 12619.6 248.351 7
-11 7 0 47229 377.702 6
-7 11 0 48158.6 343.652 6
11 7 0 53087.9 390.623 2
-7 -11 0 41658.2 457.249 8
-11 -7 0 56211.6 400.98 5
7 -11 0 45912.5 361.958 8
-11 0 -7 51483.3 461.617 7
-7 11 0 50416.7 328.64 7
-11 -7 0 49813.4 375.456 7
7 -11 2 13703 210.218 1
11 7 2 10150.4 434.976 3
11 7 2 10369.9 525.01 4
-11 7 -2 12450.9 249.757 6
11 -7 -2 11553.8 510.614 4
7 11 -2 11676.1 281.804 2
7 -11 2 13603.2 283.893 8
11 7 2 14047.9 240.88 1
-7 -11 -2 11517.7 307.567 8
7 -11 2 14668.9 296.766 5
-11 -2 -7 12992.8 316.931 7
11 7 4 456.578 432.886 3
7 11 -4 2334.18 290.37 2
-11 -4 -7 1164.05 211.209 6
-11 7 -4 1063.73 208.837 6
-7 -11 -4 1007.46 270.032 8
11 7 4 230.516 208.367 1
7 -11 4 950.907 200.004 5
-11 7 -4 1143.55 261.239 7
-7 -11 -4 2863.16 264.759 5
11 -4 7 987.99 237.351 1
7 -11 4 939.946 186.265 1
-11 -6 -7 9499.99 299.506 6
-11 7 -6 8109.45 329.966 6
11 7 6 7342.1 308.347 1
11 -6 7 8360.09 333.829 1
-7 -11 -6 6936.26 397.051 8
-11 -6 -7 6629.02 339.814 8
-11 7 -6 7089.5 386.38 7
8 11 5 9023.66 674.317 3
-11 -8 -1 152.863 260.694 5
-8 11 -1 260.835 180.922 2
-11 8 1 1714.5 220.108 6
-11 -8 -1 62.2879 213.825 6
8 -11 -1 414.853 446.771 4
11 8 -1 250.267 462.027 4
-8 -11 1 2559.43 274.424 5
8 -11 -1 972.522 206.193 8
-8 -11 1 1181.02 310.85 8
-11 8 1 1755.44 239.254 7
-8 -11 -1 167.788 293.412 5
8 11 -1 608.521 263.532 2
-11 8 -1 26.3653 233.461 7
8 -11 1 215.35 208.32 1
-8 11 1 1493.24 195.284 6
-11 -8 1 2488.35 218.481 6
-11 8 -1 355.403 283.137 6
-11 -8 1 2247.89 249.688 5
-11 -8 1 1881.9 219.73 7
-11 9 2 2096.6 321.171 7
9 11 2 319.004 671.579 3
-9 11 -2 319.649 300.602 7
-11 -9 -2 462.997 291.831 7
11 -9 2 1038.49 297.684 1
11 9 -2 1833.08 333.022 2
-11 9 2 2034.02 297.44 6
-9 11 -2 620.492 268.218 6
-11 -9 -2 838.213 425.418 5
9 -11 -2 1186.05 660.58 4
-9 -11 2 3184.7 368.872 5
-9 -11 2 1337.33 446.97 8
-11 -9 -2 164.869 372.007 8
11 9 2 1018.3 256.169 1
-9 -11 -2 2192.02 457.423 5
-11 -9 2 1326.43 279.161 7
11 9 2 450.567 328.4 2
9 -11 2 654.91 723.66 4
9 11 -2 1724.54 350.823 2
9 -11 2 1433.97 267.157 1
-11 9 -2 766.298 274.991 6
11 -9 -2 1615.69 649.052 4
-11 9 -2 424.892 312.801 7
-11 -9 2 2765.05 340.486 5
-11 -9 2 1115.68 406.685 8
-9 11 2 1814.96 299.863 7
-11 -10 -7 41.9644 324.807 8
10 11 7 217.216 587.146 3
-11 -10 -7 99.6599 296.605 6
-10 -11 -7 285.23 331.05 5
11 10 7 106.416 563.012 3
-11 10 -7 100.528 336.263 6
-10 -11 -7 185.374 341.66 8
-11 11 -4 26.2703 301.936 7
11 11 4 23.3671 618.349 3
-11 11 -4 82.7647 233.486 6
-11 11 -6 106.992 321.838 7
-11 -11 -6 1379.89 366.909 5
11 11 6 9.2592 542.527 3
-11 -11 -6 179.582 342.514 8
-11 11 -6 317.843 244.666 6
-11 -11 -8 4469.24 376.193 8
-12 0 0 15819.1 249.291 6
-12 0 0 15670.1 164.187 5
0 -12 0 12060.7 275.91 8
0 12 0 12481.4 413.754 3
-12 -1 1 9168.56 248.396 7
1 -12 -1 18702.1 319.64 5
12 -1 1 6424.99 449.604 4
12 -1 -1 6341.38 454.535 4
12 1 -1 7016.48 492.398 4
-12 1 -1 14344.1 271.641 6
-12 -1 -1 14753.8 261.53 6
-12 -1 1 13110.8 262.91 6
-1 -12 -1 16436.7 318.267 5
-12 -1 1 13125 179.671 5
-1 -12 1 6507.54 272.399 8
12 1 1 6401.72 280.302 3
12 -1 1 6274.95 200.922 3
1 -12 1 14619.8 283.949 5
-12 -1 -1 15005.5 181.632 5
1 12 -1 9950.47 248.799 2
2 12 0 2543.09 415.459 3
-12 0 -2 3684.32 197.125 6
-12 2 0 3454.17 198.37 6
-12 -2 0 3586.51 194.701 6
-12 0 2 2378.13 204.637 6
12 0 2 2456.87 494.702 4
12 0 -2 1415.05 434.484 4
0 12 -2 2672.46 204.581 2
0 -12 2 2302.81 260.504 8
-2 -12 0 2248.7 243.574 8
0 -12 -2 4262.19 272.146 5
2 12 0 3357.62 211.426 2
-12 0 -2 3033.46 201.068 7
-12 2 0 3398.12 225.389 7
-12 -2 2 6642.36 222.831 7
12 -2 2 4735.49 507.471 4
-2 12 -2 5546.77 109.772 6
-12 2 -2 4412.4 207.022 6
12 -2 -2 6498.07 464.509 4
12 2 -2 5564.79 451.818 4
-12 2 2 6069.88 224.562 6
-12 -2 2 7598.47 237.451 6
2 -12 -2 4539.68 223.79 5
2 12 -2 5385.87 233.638 2
-2 12 -2 6317.88 215.218 2
2 -12 2 6215.78 293.485 8
-2 -12 2 7139.67 261.043 5
12 2 2 3735.56 263.98 3
-12 -2 -2 5634.53 194.955 5
-12 1 -3 12522.4 227.119 6
-12 -3 -1 13875.1 276.048 6
12 -1 -3 13092.9 525.394 4
-12 3 1 13742.4 282.643 6
-12 3 1 13134.9 271.729 7
12 1 3 12980.5 253.843 1
-3 12 -1 13087.9 246.592 2
1 -12 3 12103.7 334.61 8
1 -12 3 12461.2 249.528 5
-12 -3 -1 11600.2 254.513 8
3 -12 -1 11079.4 262.437 8
-1 -12 -3 13851.2 308.786 8
-1 12 3 12403.8 404.37 3
-12 1 -3 12132.4 239.05 7
-3 12 -1 11954.2 162.637 7
12 1 3 9597.93 294.07 3
-12 -1 -3 10883.3 227.784 6
12 -1 3 9700.23 492.665 4
12 3 1 10262.5 474.353 4
-12 3 -1 11711.2 258.984 6
-12 -3 1 12580.2 255.929 6
-1 12 -3 13442.8 265.425 2
1 12 3 10750.5 453.343 3
-1 -12 3 12107.5 330.702 8
-12 1 3 11800.4 256.318 6
12 -1 3 13039 250.924 1
-12 -3 1 12388.8 201.586 5
-1 -12 3 12817 265.917 5
-3 -12 -1 13387.7 280.249 8
3 -12 1 12491.3 279.811 8
-12 -1 -3 10961.5 178.887 8
3 12 -1 12053.2 270.619 2
3 -12 1 11834.1 253.768 5
-3 -12 -1 13991.9 319.078 5
1 -12 -3 12199.3 270.092 5
-12 -1 -3 12293.4 198.044 5
-12 -1 -3 12840.6 247.433 7
-12 -3 1 10329.6 263.734 7
-12 3 3 7709.14 250.593 7
-3 12 3 6627.67 144.767 7
-3 -12 -3 15353.5 298.296 5
12 3 3 4669.01 493.99 4
-12 3 -3 9432.47 237.013 6
3 12 3 6466.01 462.793 3
-12 -3 -3 11106.4 233.216 6
12 -3 -3 5985.27 502.33 4
-12 3 3 11573.4 261.58 6
-3 12 -3 8639.5 230.778 2
12 3 3 9732.75 237.379 1
12 -3 3 9399.77 238.614 1
-3 -12 3 11063.6 272.657 5
-3 -12 3 5687.06 309.328 8
3 -12 3 6060.74 305.049 8
3 -12 3 12447.2 254.73 5
3 -12 -3 11529.3 292.07 5
-12 -3 -3 5765.9 222.826 7
-12 3 -3 5689.66 230.86 7
-12 4 2 1202.84 218.606 7
4 12 2 1514.35 387.019 3
-4 12 -2 2007.48 132.88 6
-12 -4 -2 2410.95 195.709 6
2 12 -4 1198.23 229.055 2
-12 4 2 1701.94 213.307 6
2 -12 4 821.633 288.47 8
-4 12 -2 1518.11 201.704 2
-12 -4 -2 1293.76 198.906 8
4 -12 -2 1428.13 245.097 8
-12 -4 -2 3252.51 199.077 5
4 -12 -2 2347.58 262.207 5
12 0 4 25336.4 299.527 1
-12 0 -4 25146.5 297.851 6
12 4 0 23317.6 576.487 4
-12 4 0 24251.8 296.572 6
-12 -4 0 26231.1 296.798 6
0 12 -4 27026.4 334.221 2
4 -12 0 22481.1 192.887 1
-12 -4 0 23775.7 335.386 8
4 12 0 20164.9 511.609 3
-12 -4 0 30443.1 285.278 5
4 -12 0 24104.4 323.457 8
-4 -12 0 28361.6 337.675 5
0 -12 -4 27844.5 366.286 8
4 12 0 26908 332.312 2
0 -12 -4 30357.2 382.745 5
-12 0 -4 23803.7 319.959 7
0 12 4 22482.8 503.928 3
-4 12 0 22633 203.806 7
-12 -4 0 26580.4 306.152 7
4 -12 2 1470.91 313.712 4
-4 12 2 1186.45 315.607 3
-12 -2 -4 2771.41 199.13 6
-2 -12 4 826.791 321.048 8
-12 4 -2 2430.44 207.515 6
12 -4 -2 910.839 449.901 4
-12 -4 2 1953.37 226.592 5
-2 -12 4 1655.62 217.511 5
4 -12 2 2446.98 227.485 5
12 4 4 11109.6 239.665 1
-12 -4 -4 10313.9 234.746 6
4 -12 4 8481.85 327.658 8
4 -12 4 9515.57 252.699 5
-12 -4 -4 8182.41 229.412 8
12 4 4 9020.86 389.837 3
-12 5 3 6363.11 253.24 7
12 3 5 6228.43 232.869 1
-12 3 -5 5724.77 230.611 6
-12 -5 -3 6422.03 224.957 6
-5 12 -3 6284.69 236.879 2
-12 5 3 5808.2 240.446 6
12 -5 3 6136 230.508 1
-3 -12 -5 5949.8 284.657 8
5 -12 -3 5713.02 266.153 8
5 12 3 5288.41 444.406 3
-12 3 -5 5612.24 279.12 7
-12 -5 -3 5793.23 246.85 7
-12 1 -5 17998.4 279.499 6
12 5 -1 12944.8 517.943 4
-12 -5 -1 23609 292.627 6
-12 5 1 19263.2 315.366 6
12 -5 1 12823.3 541.145 4
-5 -12 1 19200.4 314.357 5
5 12 1 18076.7 544.179 3
-5 12 -1 15143.9 426.231 3
12 1 5 18548.3 276.346 1
5 -12 -1 17303.2 296.745 5
-12 1 -5 12818.6 301.522 7
-12 -5 -1 17596.3 269.256 7
-12 5 1 17626.5 299.409 7
12 5 1 14069.9 540.527 4
-12 5 -1 20663 310.48 6
-12 -5 1 18361.7 283.861 6
5 12 -1 12123.6 283.109 2
5 -12 1 14623 288.828 8
-5 -12 -1 16756.1 319.291 8
1 -12 -5 13460.3 322.868 8
5 -12 1 21651.2 323.741 5
-12 -5 1 13021.2 336.153 8
-12 5 -1 17323 277.343 7
-12 -5 1 14204.9 275.001 7
-5 12 3 6183 185.796 7
-12 -5 3 5983.69 252.346 7
-12 -3 -5 6548.16 220.831 6
-12 5 -3 5871.41 229.933 6
12 -5 -3 5831.43 539.409 4
5 12 -3 4993.86 277.897 2
12 -3 5 5476 230.029 1
5 -12 3 6512.01 236.202 5
-12 -3 -5 5240.2 190.301 8
12 5 3 5476.11 387.471 3
-12 -3 -5 6676.76 275.126 7
-12 6 2 12025.5 278.76 7
12 -6 2 6451.02 640.8 4
-12 2 -6 13428.2 284.248 6
-6 12 -2 10081.2 200.699 6
12 6 -2 8775.62 522.998 4
-12 6 2 11303.5 271.03 6
12 2 6 13609.6 286.513 1
-6 -12 2 15717.2 317.721 5
-12 -6 -2 14716.9 317.838 5
-6 -12 2 11009.7 389.234 8
-12 2 -6 10544.3 320.115 7
-6 12 -2 10444.6 237.264 7
6 -12 -2 10961.6 276.094 5
-12 -6 0 878.224 262.122 8
12 0 6 772.895 232.158 1
-12 -6 0 1515.66 209.493 6
-12 0 -6 455.796 214.624 6
12 6 0 1545 215.579 2
6 -12 0 1527.66 375.242 4
-12 -6 0 1705.49 219.501 5
-6 -12 0 2353.72 275.663 5
6 12 0 1626.21 248.782 2
-6 -12 0 1544.51 284.872 8
-6 12 0 1392.92 164.145 7
-12 -6 0 1580.43 222.829 7
-12 -6 2 10868.9 264.361 7
6 -12 2 10194 256.069 5
6 -12 2 5130.03 442.2 4
12 6 2 6389.95 591.412 4
-12 6 -2 11074.7 260.148 6
12 -6 -2 9661.95 539.203 4
-6 -12 -2 14502 321.946 5
-12 -6 2 12943.2 272.834 6
-12 -6 2 13016.4 264.635 5
6 -12 2 9701.84 295.556 8
-6 -12 -2 9482.81 305.498 8
6 -12 2 9627.53 186.454 1
12 6 2 6488.09 444.356 3
-12 -2 -6 10003.9 225.618 8
12 6 2 9321.01 258.102 2
12 6 2 12736.2 275.664 1
-12 -2 -6 10749.8 300.449 7
-12 6 -2 10479.5 279.076 7
-6 12 2 13185.6 219.741 7
12 -8 0 14323.1 867.731 4
8 -12 0 12909.7 639.709 4
-12 8 0 16418.7 347.061 6
-12 -8 0 16570.2 353.603 6
12 8 0 10589.3 642.565 3
12 8 0 19003.8 371.482 2
-8 -12 0 16480.4 478.913 8
-12 -8 0 15001.1 479.997 8
-8 12 0 17541.2 308.098 7
8 12 0 13976.4 727.14 3
8 12 0 18188.7 432.504 2
8 -12 0 16242.9 382.939 5
-12 8 0 17606.9 382.637 7
-12 -8 0 17690.3 338.842 7
-12 8 -8 130.064 271.043 6
9 12 7 21.1849 597.334 3
-12 -9 -7 109.111 291.332 8
-9 12 -5 4882.3 259.701 6
12 -9 5 5697.58 296.256 1
-9 12 -5 4830.04 345.638 7
-12 9 -5 5122.41 295.605 6
-12 9 -5 4772.22 375.354 7
-12 9 -7 9.6164 349.478 7
-9 -12 -7 290.611 331.985 8
-12 -10 -8 1455.1 354.295 8
-10 12 -6 2424.03 252.855 6
-12 -10 -6 2672.3 227.944 6
10 12 6 1837.93 584.705 3
12 -10 6 3009.5 266.331 1
-12 -10 -6 1842.17 311.422 8
-12 -10 -6 3725.15 371.89 5
-10 12 -4 937.595 315.579 7
-12 -10 -4 1256.68 303.392 7
-12 -10 -4 1738.77 237.111 6
12 -10 4 256.442 647.469 4
-10 12 -4 1102.31 236.854 6
-12 -10 -4 894.168 332.187 8
12 -10 4 1708.27 267.027 1
-10 12 -2 9775.86 324.508 6
-12 10 2 8972.58 344.938 6
-10 12 -2 8238.05 331.741 7
-12 -10 -2 7433.58 432.661 8
-12 -10 -2 9769.7 320.226 7
-12 -10 2 7431.68 318.565 7
-12 10 -2 10842.7 371.401 6
12 10 2 11016.7 292.547 1
10 12 -2 8991.68 388.488 2
10 -12 2 2928.34 619.833 4
12 10 2 2671.89 659.356 4
12 -10 -2 4392.52 689.971 4
-12 -10 2 6300.36 433.84 8
-10 12 2 8063.11 318.019 7
-10 12 4 1704.04 256.396 7
-12 10 -4 1213.29 304.149 7
12 10 4 523.012 600.815 3
-12 10 -4 1551.53 248.859 6
10 -12 4 205.87 681.693 4
-10 -12 -4 2611.47 349.375 5
-12 10 -6 2267.35 323.524 7
-12 -11 -7 1553.47 362.686 5
-12 -11 -7 562.823 366.878 8
-12 -11 -5 967.209 348.006 5
-11 12 -5 570.87 240.812 6
-12 -11 -3 766.955 376.727 5
11 12 3 485.185 518.894 3
12 -11 3 595.103 268.627 1
-12 -11 -3 649.654 320.057 8
12 11 -3 320.416 322.268 2
-12 11 1 7463.38 295.213 6
-11 -12 1 9295.24 354.511 5
12 -11 -1 4275.08 640.89 4
-11 12 1 7459.06 286.167 6
11 12 -1 6346.39 322.855 2
-12 -11 1 3707.33 388.429 8
12 11 1 6618.92 315.395 2
-12 11 -1 5829.62 297.049 7
-11 12 1 6372.68 279.267 7
-11 -12 -3 724.231 380.651 5
-12 11 -3 662.37 303.644 7
12 11 3 371.395 494.543 3
-11 12 3 606.85 259.164 7
-11 -12 -3 450.426 328.843 8
11 -12 3 652.466 239.903 1
-12 11 -5 372.504 324.112 7
11 -12 5 511.872 246.563 1
-12 11 -5 453.258 261.679 6
-12 11 -7 1135.45 268.017 6
-11 -12 -7 1486.29 367.738 5
12 -12 0 1668.71 612.288 4
-12 12 0 1697.59 275.971 7
-12 -12 -2 2230.53 393.16 5
12 -12 2 2379.99 268.416 1
-12 12 2 2062.24 280.671 6
12 -12 2 1551.87 632.339 4
12 -12 -2 1775.96 612.429 4
12 12 2 2282.31 317.11 2
-12 12 -4 403.28 314.697 7
12 12 4 288.502 626.993 3
12 -12 4 940.797 669.94 4
-12 12 -4 198.011 257.937 6
-12 -12 4 298.8 340.108 5
-12 12 -6 187.345 335.334 7
12 -12 6 371.651 257.876 1
-12 -12 -6 752.219 408.914 5
12 12 6 97.8995 619.809 3
-12 12 -6 271.079 266.866 6
-12 -12 -6 93.1501 348.964 8
-12 12 -8 831.951 316.583 6
-1 -13 0 83.5796 306.661 5
1 -13 0 33.9854 269.155 5
0 13 1 10.4488 412.876 3
-13 0 1 36.4376 227.828 7
0 13 -1 68.7214 225.633 2
1 13 0 119.915 217.995 2
13 -1 0 141.889 520.683 4
-13 0 -1 65.7109 237.823 6
-13 1 0 42.3026 202.551 6
13 0 -1 13.4952 505.95 4
-13 -1 0 94.4488 205.515 6
-13 0 1 215.214 226.766 6
0 -13 1 50.4428 263.148 8
0 -13 1 28.9445 254.024 5
-13 -1 2 27744.4 342.063 7
13 -2 1 23680.2 604.982 4
-13 2 1 30460 357.647 7
13 -1 -2 23866.8 597.312 4
-13 -2 -1 39470.8 408.858 6
-13 -1 2 34720.8 356.394 6
2 -13 -1 35203.2 396.565 5
1 13 -2 30151.8 344.862 2
-13 1 -2 27570.7 333.245 7
2 -13 -1 23469.3 354.048 8
2 13 1 26576.5 555.688 3
-1 -13 -2 41159.1 422.541 5
-1 13 2 25053.9 539.877 3
-13 -2 -1 27249.3 321.943 7
13 -1 2 28020.1 704.506 4
13 -2 -1 22294.3 585.617 4
-13 2 -1 40050.8 412.986 6
13 1 -2 27365.6 603.828 4
-13 -2 1 29983.8 335.085 6
-1 13 -2 27671.2 329.821 2
2 13 -1 21832.4 533.352 3
-1 -13 2 30805.9 433.822 8
-2 -13 -1 25596.5 373.463 8
1 -13 -2 30492.8 366.839 8
1 13 2 23115.2 512.037 3
1 -13 -2 33167.1 368.908 5
-13 -1 -2 28338.1 326.99 7
-13 -2 1 30098.4 344.945 7
-13 3 2 10853.9 287.509 7
-13 -2 3 9195.79 266.078 7
13 -3 2 8362.37 666.604 4
-13 2 -3 9064.6 256.722 6
-13 3 2 11826.8 276.033 6
13 2 3 2272.03 564.913 4
13 2 3 8332.93 271.005 1
2 -13 3 5963.47 308.293 8
-3 -13 2 15857.3 329.144 5
3 -13 -2 9579.46 285.899 8
-13 -3 -2 12949.2 234.798 5
-2 -13 -3 10479.9 299.41 5
-2 13 3 6273.47 407.418 3
-13 2 -3 8179.52 264.871 7
-13 0 3 63316.5 467.809 7
-13 0 -3 71560.7 468.431 6
13 3 0 53434.9 787.519 4
-13 3 0 64007.8 457.111 6
-13 -3 0 65309.9 447.096 6
13 0 -3 53952 755.762 4
-13 0 3 60884 469.791 6
0 -13 3 50637.7 523.552 8
-13 -3 0 70882.9 397.523 5
3 13 0 50436.1 695.274 3
0 -13 -3 57550.6 528.823 8
-3 13 0 52098.4 618.419 3
3 -13 0 57605.6 435.3 5
3 13 0 62054.1 476.325 2
-13 -3 0 57311.7 442.612 7
-13 -2 -3 8594.89 248.847 6
-13 3 -2 11772.5 263.994 6
-13 2 3 10126.1 267.493 6
13 3 2 4992.95 608.767 4
-2 13 -3 8170.17 276.67 2
3 13 -2 11372.6 291.066 2
-13 -3 2 16199.5 276.853 5
13 -2 3 9806.88 261.897 1
-2 -13 3 7565.26 324.035 8
3 -13 2 8332.16 338.348 8
-3 -13 -2 7165.14 312.9 8
3 -13 2 13538.8 316.327 5
-3 -13 -2 15431 362.841 5
2 13 3 7419.63 493.03 3
2 -13 -3 11396.6 341.808 5
-13 -2 -3 7215.14 262.317 7
4 -13 -1 559.364 265.006 5
-13 -4 -1 3367.81 245.168 7
-4 13 -1 770.776 261.049 2
13 1 4 5099.98 261.865 1
-13 1 -4 4734.09 243.716 6
-13 -4 -1 3395.58 239.383 6
-13 4 1 5007.53 267.553 6
1 13 -4 3754.21 278.669 2
-13 -4 -1 1742.94 279.046 8
13 -4 1 296.866 576.898 4
13 4 -1 2447.84 569.615 4
1 -13 4 4222.05 271.015 5
-4 -13 1 3061.89 386.31 8
-4 -13 1 3726.68 273.835 5
-1 -13 -4 3445.99 286.954 8
-13 1 -4 4020.64 277.705 7
13 4 1 1723.92 435.347 3
4 -13 1 1942.11 313.907 5
-4 -13 -1 2067.88 359.451 5
13 4 1 3619.93 220.247 2
-13 4 -1 4672.7 287.112 6
13 -1 4 3327.73 250.68 1
-13 -4 1 3959.25 246.563 6
1 -13 -4 4050.33 302.285 8
13 -4 -1 2915.62 531.884 4
-13 -4 1 4590.07 227.702 5
4 13 -1 2586.08 254.652 2
4 -13 1 2278.75 278.469 8
1 13 4 4143.8 429.296 3
-13 -1 -4 4733.31 282.639 7
1 -13 -4 5950.16 312.81 5
-13 4 -1 4539.15 257.692 7
4 13 -1 1303.99 461.219 3
-13 -4 1 3907.29 256.823 7
-13 1 -6 13938.9 415.757 7
-13 1 -6 15501.3 338.784 6
13 -6 1 12020.9 787.574 4
13 6 -1 9889.22 698.538 4
-13 -6 -1 14421.9 333.472 6
13 6 -1 16273.7 371.481 2
-13 6 1 14799.4 355.821 6
13 1 6 17130.9 378.905 1
-13 -6 -1 11440.3 404.257 8
-6 -13 1 12923.6 522.424 8
-6 -13 1 19923.2 420.236 5
6 -13 -1 13813.6 370.957 8
6 13 1 9960.26 733.725 3
-13 -6 -1 16519.3 345.518 5
-6 13 -1 11106.7 316.071 2
6 13 1 12647.1 371.017 2
6 -13 -1 12928.4 347.824 5
-6 13 -1 8950.09 570.404 3
-13 6 1 14585.4 387.862 7
13 6 1 9560.63 602.872 3
-13 -1 -6 14474.2 333.137 6
13 6 1 9099.99 793.357 4
13 -6 -1 13516.1 810.234 4
-13 6 -1 17872.4 416.448 6
-13 -6 1 18513.3 371.691 6
13 6 1 14939.7 336.597 2
13 -1 6 16548.3 364.075 1
-13 -6 1 18113.8 354.535 5
6 -13 1 9194 379.321 8
-6 -13 -1 20369.6 542.735 5
-6 13 1 11208 535.559 3
-13 -1 -6 14683.5 423.691 7
6 -13 1 8838.55 341.671 5
-13 6 -1 12561.8 360.285 7
-13 -6 1 15029 369.072 7
-6 -13 -7 3965.93 366.831 5
-13 -7 -6 4830.04 272.324 6
7 13 6 1743.34 616.853 3
13 6 7 4327.81 302.629 1
13 -7 6 4281.31 329.715 1
-13 -7 -6 3005.54 330.506 8
-13 6 -7 2699.77 338.302 7
-13 -7 -6 3503.26 319.601 7
-13 -6 -7 4111.04 295.819 6
13 7 6 2472.67 568.64 3
-13 -6 -7 2842.81 319.006 8
-13 7 -6 3762.5 374.576 7
-8 13 -7 1145.16 230.597 6
-13 -8 -7 1668.09 242.144 6
13 -8 7 1316.35 261.466 1
-13 -8 -7 950.089 283.451 8
-13 5 -8 3946.96 300.747 6
-13 -8 -5 5164.31 265.025 6
-13 -8 -5 3867.33 331.454 8
13 -8 5 4670.24 293.29 1
-13 5 -8 3743.54 389.579 7
-13 -8 -5 4533.86 327.537 7
-13 -8 -5 5483.91 399.828 5
-13 -5 -8 4995.41 290.711 6
-13 8 -5 4252.72 286.247 6
13 -5 8 4519.88 287.681 1
-8 -13 -5 5231.24 366.563 5
13 8 5 3603.01 490.608 3
-13 8 -7 947.054 334.792 7
-13 -7 -8 1535.77 258.994 6
-13 -9 -8 1255.14 344.721 6
-13 -9 -8 552.838 326.624 8
-13 -9 -6 586.334 352.673 5
-13 -9 -6 189.048 233.719 6
13 -9 4 1981.58 255.189 1
-9 13 -4 2312.49 236.104 6
-13 -9 -4 2407.77 244.367 6
-9 -13 4 2396.75 333.57 5
-9 13 -4 1808.26 279.466 7
9 13 2 313.735 637.729 3
-13 -9 -2 769.676 268.362 7
13 -9 2 137.476 623.486 4
-9 13 -2 1001.17 259.135 6
-13 -9 -2 1255.67 279.62 6
-13 9 2 665.762 293.364 6
13 -9 2 827.387 298.63 1
-9 13 -2 1250.36 268.752 7
-13 9 0 54.3666 307.43 7
-13 -9 0 159.95 287.398 7
9 13 0 82.8976 338.077 2
-13 9 0 27.2235 313.117 6
-13 -9 0 881.263 279.795 6
-9 -13 0 804.805 366.439 5
9 13 -2 544.896 331.22 2
13 9 2 235.966 608.553 3
-13 9 -2 741.699 299.153 7
13 9 2 1021.53 308.967 2
13 -9 -2 355.633 636.348 4
13 9 2 1192.77 255.422 1
-13 -9 2 747.085 436.181 8
-13 -9 2 1206.61 311.668 5
9 13 -4 1687.56 334.519 2
13 9 4 2347.49 242.719 1
-13 9 -4 1818.01 304.454 7
-9 -13 -6 718.208 388.834 5
13 9 6 40.208 563.911 3
-9 -13 -6 291.212 359.282 8
13 9 6 295.062 256.441 1
-10 13 -7 1136.06 277.117 6
-13 -10 -7 588.266 385.755 8
13 -10 5 1171.73 721.898 4
13 -10 5 2249.98 264.723 1
-10 13 -3 4183.2 253.217 6
13 -10 3 4889.79 286.469 1
-10 -13 3 4140.97 335.747 5
10 13 1 157.169 562.283 3
-10 13 -1 575.053 248.587 7
-13 -10 -1 584.435 265.155 7
10 13 1 766.075 327.755 2
-10 13 -1 994.679 240.951 6
13 -10 1 268.992 689.365 4
-13 -10 -1 796.904 251.79 6
-13 10 1 1280.19 288.119 6
13 10 -1 612.116 570.418 4
-10 -13 1 1463.43 333.324 5
-13 -10 1 919.811 264.602 7
-13 -10 1 1780.04 267.114 6
13 10 1 240.801 547.521 4
-13 10 -1 519.42 252.305 6
13 -10 -1 691.175 662.322 4
-10 -13 -1 393.987 353.01 8
-10 13 3 4724.42 294.466 7
-13 10 -3 4259.94 313.763 7
-13 10 -3 3742.86 282.877 6
10 13 -3 3722.82 329.964 2
13 10 3 2353.77 573.108 4
-10 -13 -3 4353.95 370.084 8
13 10 3 2995.57 495.936 3
13 10 3 4765.31 304.495 2
13 10 5 1338.27 523.541 3
-13 10 -5 2283.74 264.829 6
13 10 5 2103.04 253.224 1
-10 -13 -5 1398.85 346.976 8
-10 -13 -5 2682.27 374.331 5
-13 10 -7 717.793 352.947 7
-13 10 -7 921.754 284.302 6
-11 13 -8 662.564 366.142 6
13 -11 6 1844.67 279.985 1
-13 -11 -6 3119.54 397.706 5
-11 13 -4 509.865 305.236 7
11 13 4 546.981 618.947 3
13 -11 4 562.005 702.708 4
-11 13 -4 1286.18 260.026 6
13 -11 4 956.36 283.589 1
-13 11 2 1549.49 309.838 7
13 -11 2 1411.62 279.013 1
13 -11 2 885.172 665.804 4
-11 13 0 1118.33 267.07 7
11 13 0 1413.28 305.799 2
-11 -13 0 1181.78 422.112 8
13 11 0 1594.98 310.346 2
-11 13 0 999.742 259.07 6
-13 -11 0 1058.88 418.816 8
11 13 0 992.694 604.407 3
-11 -13 0 1289.38 333.253 5
13 11 2 1325.46 297.034 2
-13 11 -2 1430.06 335.327 6
13 -11 -2 1233.82 606.321 4
-13 -11 2 1956.91 347.951 5
13 11 2 602.681 585.514 3
13 11 4 518.557 604.773 3
11 -13 4 725.785 646.156 4
-13 11 -6 1178.32 353.456 7
-13 11 -6 1895.45 283.878 6
-13 11 -8 386.505 283.326 6
-11 -13 -8 11.1583 329.215 8
-12 13 -7 1713.57 276.302 6
13 -12 7 1975.58 295.573 1
-12 13 -5 74.5556 330.604 7
-13 -12 -5 124.031 400.248 5
13 -12 5 410.146 789.467 4
-12 13 -5 112.08 260.873 6
13 -12 3 6628.97 304.788 1
-12 13 -3 5741.38 278.821 6
12 13 1 1908.26 608.126 3
-12 13 -1 4433.83 280.662 6
-13 12 1 4767.68 292.585 6
13 12 -1 4421.97 347.381 2
12 -13 -1 2678.16 606.312 4
-12 13 -1 3471.6 295.672 7
-13 12 1 3805.48 300.035 7
-12 13 1 4931.15 297.714 6
12 -13 1 2668.03 701.679 4
13 12 1 4681.99 313.643 2
-13 -12 1 2241.58 441.781 8
12 -13 1 5242.27 305.142 1
-12 13 1 3688.2 288.944 7
12 -13 3 3755.75 726.988 4
-13 12 -3 6063.58 282.925 6
-13 -12 3 8208 372.7 5
13 12 3 3353.56 588.728 3
-12 -13 -3 8631.56 427.417 5
-13 12 -3 5634.38 333.604 7
-12 13 3 6984.29 336.143 7
12 -13 3 6563.23 286.079 1
-13 12 -5 11.647 269.129 6
-13 12 -7 1219.79 391.073 7
-13 12 -7 1906.67 299.036 6
13 -13 0 11117.1 752.049 4
-13 13 0 15486 351.048 7
-13 13 -2 418.728 316.612 7
-13 13 2 542.353 322.166 7
13 -13 2 79.7529 697.782 4
-13 13 -2 127.309 296.487 6
-13 13 2 271.4 285.944 6
13 -13 2 251.646 273.975 1
-13 13 -4 297.717 337.87 7
-13 13 4 296.987 316.386 7
13 -13 4 43.4556 749.795 4
-13 13 -4 115.898 284.838 6
13 -13 4 151.316 274.827 1
-13 13 -6 3674.61 299.703 6
13 -13 6 652.254 806.552 4
-13 -13 -6 1207.82 394.55 8
-13 13 -6 2818.68 370.36 7
-13 13 -8 122.005 313.375 6
2 14 -2 649.913 326.653 2
14 -2 2 1190 801.337 4
-14 -2 2 706.199 296.23 6
14 -2 -2 1673.9 684.793 4
14 2 -2 1195.73 670.727 4
-2 -14 2 518.366 416.626 8
-2 -14 -2 412.014 377.575 8
-14 -1 3 5918.48 347.041 7
-3 14 -1 1178.99 595.151 3
-14 1 -3 3094.08 364.173 7
14 -3 1 7269.69 763.769 4
-14 1 -3 3609.61 305.941 6
14 1 3 3526.37 326.487 1
14 3 -1 5559.78 803.44 4
-14 -3 -1 8481.16 342.927 6
-14 3 1 7083.92 362.133 6
14 1 3 184.136 826.627 4
1 14 -3 5665.41 349.535 2
-14 -1 3 5963.86 340.303 6
1 -14 3 4597.02 437.872 8
-3 -14 1 5762.33 419.084 8
1 -14 3 7100.33 376.037 5
3 -14 -1 4509.89 360.262 8
-1 -14 -3 6138.81 393.703 8
-3 -14 1 9478.14 421.052 5
3 14 1 4857.66 672.534 3
-3 14 -1 4978.59 342.163 2
-1 -14 -3 6865.3 371.372 5
-1 14 3 4661.47 570.288 3
-14 -3 -1 6393.95 329.494 7
3 -14 -1 4313.1 424.011 5
-14 3 -1 5577.22 339.081 7
-14 1 3 6256.57 336.926 7
1 14 3 5586.07 642.074 3
-14 -1 -3 2506.87 349.154 7
-3 14 1 3511.62 557.126 3
14 3 1 4887.06 744.375 4
14 -3 -1 7042.16 807.186 4
-14 3 -1 10127.1 410.018 6
14 1 -3 5050.52 773.848 4
-14 -3 1 7648 341.115 6
14 -1 3 103.104 836.97 4
-14 1 3 5963.17 341.877 6
-14 -1 -3 3271.58 310.043 6
-1 14 -3 6154.8 339.637 2
14 -1 3 3489.79 334.629 1
-1 -14 3 4789.22 436.777 8
3 14 -1 4652.05 671.926 3
-1 -14 3 7192.29 372.443 5
3 14 -1 5617.63 353.3 2
1 -14 -3 6288.64 406.33 8
3 -14 1 5309.33 469.588 5
-3 -14 -1 9642.49 487.701 5
3 -14 1 4199.82 386.088 8
1 -14 -3 5808.07 368.331 5
-14 -3 1 5912.58 357.291 7
14 -6 4 7217.24 327.761 1
-14 4 -6 8150.04 316.869 6
-14 -6 -4 9109.52 320.721 6
4 -14 6 6605.27 326.566 5
-6 -14 4 10246.4 413.512 5
-14 -6 -4 5230.43 342.831 8
-4 -14 -6 6077.57 425.074 8
6 -14 -4 6607.86 381.361 8
-14 4 -6 6338.53 416.409 7
-4 -14 -6 9622.5 454.953 5
4 14 6 4713.21 686.185 3
6 -14 4 6022.37 437.025 8
6 -14 4 6600.39 348.845 5
14 -4 6 7304.91 335.587 1
-6 -14 -4 5376.53 404.633 8
-14 -4 -6 5614.24 400.636 7
-14 6 -4 6007.75 389.716 7
6 14 6 87.7037 578.865 3
14 -6 6 442.064 290.997 1
6 -14 6 233.037 276.407 5
-5 -14 -7 9473.63 375.07 5
14 -7 5 3583.78 755.661 4
-14 -7 -5 8443.87 290.608 6
7 14 5 4539.62 580.49 3
-14 5 -7 5486.65 367.829 7
-14 -7 -5 11210.5 392.447 5
-14 7 3 7018.69 340.356 7
-14 3 -7 5666.8 303.651 6
-14 -7 -3 7083.54 289.694 6
14 -7 3 2768.81 801.273 4
-14 -7 -3 5151.16 352.673 8
7 -14 -3 3819.92 306.214 8
-14 3 -7 4956.18 389.757 7
14 7 -1 196.181 726.911 4
14 7 3 4471.96 504.086 3
-14 7 -3 6248.03 310.891 6
14 7 3 7260.56 299.227 1
14 7 3 2679.12 721.98 4
14 -3 7 5946.59 307.021 1
14 7 3 6702.79 317.446 2
-14 -7 3 7951.38 304.637 5
-7 -14 -3 8165.65 411.842 5
-14 -3 -7 4617.83 359.552 7
-14 7 -3 5364.04 345.14 7
14 7 5 4390.62 702.543 4
-14 -5 -7 8579.38 287.109 6
14 7 5 7804.53 279.211 1
-7 -14 -5 9742.28 382.396 5
-14 7 -5 5928.45 355.7 7
-14 6 -8 1219.06 305.192 6
-14 -8 -6 1805.45 357.021 5
8 14 4 48.4918 616.605 3
14 -8 4 238.947 262.168 1
-14 4 -8 586.599 362.234 6
14 4 8 665.213 263.813 1
-8 -14 4 677.19 341.83 5
-14 2 -8 19635.9 453.111 6
14 -8 2 7907.75 663.078 4
-14 -8 -2 22558.5 391.583 6
-8 -14 2 11219.5 429.573 8
-14 -8 -2 10217.2 378.051 8
8 14 2 10146.2 671.056 3
-14 -8 -2 23824 438.49 5
-14 2 -8 12174.3 403.135 7
-14 -8 -2 12636.9 332.808 7
-14 8 2 13917.6 372.312 7
-14 0 -8 871.294 356.61 7
-14 8 0 712.765 286.827 7
-14 0 -8 1900.12 374.367 6
14 -8 0 275.372 693.761 4
-14 8 0 568.238 291.08 6
-14 -8 0 750.589 268.967 6
14 8 0 254.83 530.453 3
-14 -8 0 1014.89 296.003 5
14 8 0 879.126 282.586 2
-14 8 -2 16797 364.152 6
-8 -14 -2 18789 419.686 5
14 -2 8 17586.5 359.113 1
-14 -8 2 16864 350.57 5
-8 -14 -2 10409.2 378.17 8
-14 -2 -8 12366.8 412.501 7
-14 8 -2 13388 353.879 7
-14 8 -4 257.308 323.286 7
-14 -4 -8 913.621 356.187 6
-14 8 -4 297.73 279.842 6
-8 -14 -4 381.191 369.217 8
-14 8 -6 1276.89 347.396 7
-14 -6 -8 1324.01 284.96 6
-14 -8 -8 2559.37 290.683 6
-14 -8 -8 1227.96 335.295 8
-14 -9 -7 219.975 254.325 6
-14 -9 -7 296.908 371.895 8
-14 -9 -5 420.655 328.2 7
-14 -9 -5 791.671 323.666 5
-14 -9 -5 455.421 242.392 6
-14 -9 -5 352.39 305.068 8
-14 9 3 2960.97 317.746 7
-14 -9 -3 3213.59 246.674 6
14 -9 3 3158.78 290.461 1
-9 -14 3 3314.71 353.243 5
-14 -9 -3 2348.67 286.972 7
-14 -9 -1 794.638 261.355 7
-14 9 1 1593.63 312.455 7
-14 -9 -1 1456.71 262.788 6
14 9 -1 999.349 560.882 4
-9 -14 1 2563 341.531 5
-14 -9 -1 2238.97 315.336 5
14 9 1 679.766 518.902 3
-9 -14 -1 2285.35 462.8 5
-14 9 -1 1163.19 294.201 7
-14 9 -1 1482.17 280.43 6
-14 -9 1 2255.87 281.841 6
14 -9 -1 716.565 661.755 4
14 9 3 2974.82 255.71 1
-14 9 -3 3191.51 280.887 6
-14 9 -3 2309.24 312.397 7
-14 9 -5 732.588 334.389 7
14 9 5 319.077 519.087 3
14 9 5 159.733 619.656 4
-14 9 -7 203.796 281.933 6
-9 -14 -7 93.0828 377.868 8
-14 -10 -6 1401.21 384.456 5
14 -10 4 4172.96 294.94 1
14 -10 4 2482.56 727.121 4
-14 -10 -4 3105.88 360.734 8
-14 -10 -2 541.886 373.093 5
10 14 2 363.937 649.034 3
-14 10 2 18.2713 319.354 7
-14 10 2 87.692 296.364 6
14 10 -2 99.3612 324.438 2
-14 10 0 547.334 287.566 7
14 10 0 377.172 554.756 4
-14 -10 0 216.641 350.477 8
14 10 2 277.023 590.864 3
-14 10 -2 169.633 305.453 7
14 10 2 113.193 317.372 2
14 10 2 247.38 249.693 1
14 10 2 86.8491 631.401 4
-14 10 -2 308.776 325.695 6
-14 -10 2 181.326 319.713 5
14 10 4 2801.8 713.311 4
-14 10 -4 4037.26 292.159 6
14 10 4 2941.03 616.108 3
-14 10 -4 4488 348.188 7
14 10 6 501.748 254.485 1
14 10 6 626.748 699.097 4
-14 -11 -7 1681.18 373.894 5
-14 -11 -5 372.736 380.631 5
14 -11 5 97.7183 708.541 4
14 -11 5 226.253 278.348 1
-11 -14 3 546.927 427.976 8
-14 -11 -3 857.54 375.07 8
-14 -11 -1 765.58 446.81 5
-14 11 1 197.411 302.074 6
14 11 1 313.478 317.864 2
-14 -11 1 516.961 335.105 5
-14 11 -3 1097.03 332.089 7
-14 11 -3 1402.54 264.157 6
-14 -11 3 1901.13 336.742 5
11 14 -3 1077.15 345.449 2
-14 11 -5 361.978 377.483 7
-14 11 -5 322.961 287.638 6
-11 -14 -5 44.0642 364.901 8
14 11 7 567.691 633.132 3
-11 -14 -7 257.338 375.831 8
12 14 8 54.6706 700.778 3
12 14 6 299.156 573.034 3
14 -12 6 1271.79 844.922 4
-12 -14 4 2164.4 359.767 5
-14 -12 -4 2351.87 364.495 5
-14 12 2 43.5833 321.414 7
12 14 2 239.269 328.904 2
-12 -14 2 6.11647 433.106 8
-14 -12 0 1918.9 366.691 5
14 -12 0 736.467 696.673 4
12 14 0 1145.25 356.245 2
14 12 2 7.1431 662.851 3
-12 -14 -2 47.204 382.298 8
-14 -12 2 668.735 353.597 5
-14 12 -4 1299.5 357.92 7
14 12 4 1462.62 702.098 3
-14 12 -4 2174.68 286.956 6
-12 -14 -4 475.031 394.166 8
-12 -14 -6 270.551 451.033 5
-14 12 -6 37.3935 289.232 6
-12 -14 -6 45.3302 389.943 8
-12 -14 -8 286.271 404.295 5
13 14 7 47.1996 726.466 3
-14 -13 -7 28.4941 403.032 8
13 14 3 66.252 609.777 3
14 -13 3 46.3758 288.994 1
13 14 3 60.1665 366.65 2
-14 -13 -3 157.896 400.853 8
-13 -14 3 394.442 392.15 5
13 14 1 783.993 721.994 3
14 -13 1 927.455 344.93 1
13 14 1 1012.37 337.525 2
-13 -14 1 511.99 434.371 8
-14 13 1 1120.22 318.706 6
14 13 -1 851.051 354.213 2
-13 -14 1 1027.26 364.437 5
13 14 -1 738.424 356.453 2
-14 13 -1 965.484 323.752 7
-14 13 -1 1306.76 306.455 6
14 13 1 1244.63 341.933 2
-13 -14 -1 874.865 527.7 8
-14 13 -3 286.821 347.806 7
14 13 3 91.9995 363.531 2
-14 13 -3 471.436 343.38 6
-14 -13 3 128.514 455.861 8
-13 -14 -3 83.8678 431.609 8
-14 -13 3 660.754 386.24 5
14 13 7 43.0108 700.681 3
14 14 2 216.106 828.936 3
14 14 -2 596.943 398.552 2
-14 -14 -4 161.657 389.411 5
-14 -14 -4 174.412 392.096 8
-14 -14 4 286.906 391.236 5
-14 -14 -6 310.944 479.365 5
-3 -15 -4 1907.56 368.784 8
-15 3 -4 1916.56 358.454 7
15 -4 3 2756.39 340.597 1
4 -15 -3 1928.14 379.539 5
-15 4 3 2322.82 344.295 7
-15 3 -4 3176.81 319.542 6
-15 -4 -3 2925.72 299.633 6
15 3 4 262.723 785.344 4
15 -4 3 702.043 887.581 4
-15 4 3 2910.03 343.564 6
15 3 4 2492.66 309.519 1
-4 -15 3 3097.31 392.123 5
3 -15 4 1452.08 424.992 8
4 -15 -3 2936.61 379.483 8
3 15 -4 2272.92 350.848 2
3 -15 -4 2091.48 370.605 5
3 15 4 824.967 614.751 3
-15 -3 -4 3188.5 311.965 6
-15 4 -3 3170.16 318.429 6
3 -15 -4 2239.13 345.17 8
-3 -15 4 1626.15 443.105 8
4 -15 3 1981.1 376.718 8
-3 15 -4 2043.66 326.389 2
4 15 -3 2496.11 353.391 2
-15 -5 -4 3835.43 269.612 6
-5 -15 4 6152.63 346.233 5
4 -15 5 4572.16 312.492 5
-4 -15 -5 6571.53 425.762 5
15 4 5 4131.42 284.662 1
-15 -5 -2 10046.8 374.264 6
-15 5 2 6767.31 332.751 6
15 -5 2 4021.99 686.552 4
-5 15 -2 6516.9 307.694 2
2 -15 5 7843.33 361.326 5
-5 -15 2 4936.81 466.302 8
-5 -15 2 8764.64 380.979 5
-2 -15 -5 5467.77 410.232 8
5 15 2 4305.16 587.445 3
-2 -15 -5 7379.34 415.683 5
-2 15 5 4866.99 594.765 3
15 2 5 6721.64 309.285 1
-5 -15 0 2941.83 380.016 5
5 -15 0 1701.13 371.627 5
-15 0 -5 81.9464 371.616 7
-15 5 0 745.895 352.013 7
5 15 0 1785.65 349.95 2
-5 -15 0 932.757 406.626 8
0 15 5 44.5973 640.555 3
-15 5 0 2066.76 295.801 6
15 -5 0 1096.16 754.379 4
0 15 -5 1049.65 362.149 2
0 -15 5 1143.6 343.996 5
-15 -5 2 8128.89 358.216 7
15 5 2 5359.34 718.354 4
-15 -2 -5 7544.53 301.838 6
-2 15 -5 7052.83 359.71 2
-15 -5 2 8762.66 328.195 6
-2 -15 5 7918.56 370.076 5
-5 -15 -2 5895.13 413.115 8
2 -15 -5 6706.45 367.06 8
5 -15 2 9537.44 425.796 5
-5 15 2 4782.33 485.882 3
-15 -2 -5 6338.18 356.36 7
2 15 5 5191.3 629.76 3
15 -4 5 3500.64 289.216 1
-15 -4 -5 4108.62 283.32 6
-15 5 -4 3167.45 289.281 6
-4 -15 5 2984.17 454.621 8
5 -15 4 2639.21 419.116 8
5 -15 4 4652.09 312.113 5
-5 -15 -4 1950.31 351.687 8
4 -15 -5 3375.79 341.089 8
-15 5 -4 2387.28 325.151 7
-15 5 -6 10460.2 327.707 6
6 -15 -5 7134.36 370.809 8
6 -15 -3 1177.37 305.976 5
-15 6 3 385.443 298.737 7
-15 3 -6 555.31 272.201 6
15 -6 3 1218.04 290.389 1
15 3 6 272.105 270.164 1
-3 -15 -6 499.3 363.896 8
-6 -15 3 820.092 349.823 5
-6 15 -3 412.593 483.307 3
-1 -15 -6 6343.21 366.951 5
-15 1 -6 7078.85 294.33 6
15 6 -1 3724.72 633.966 4
-15 -6 -1 8557.79 282.589 6
-15 6 1 7403.41 322.134 6
6 -15 -1 4916.34 326.751 8
-6 -15 1 9510.94 404.98 5
-6 15 -1 5730.28 296.215 2
-1 -15 -6 4902.18 382.787 8
15 1 6 6442.36 308.981 1
-6 15 -1 3290.46 455.981 3
6 15 1 6361.69 353.784 2
-15 -6 -1 5728.31 303.208 7
-15 6 -1 9348.32 339.137 6
15 6 1 7500.76 292.075 2
6 15 -1 7276.07 323.324 2
-15 -6 1 10229.7 325.814 5
6 -15 1 4219.73 353.112 8
-6 -15 -1 4404.19 376.272 8
15 -1 6 6933.54 292.767 1
-15 -1 -6 6123.04 402.396 7
1 15 6 3492.68 609.147 3
6 -15 3 277.054 283.152 5
-6 -15 -3 1191.19 411.57 5
-15 -3 -6 378.974 357.9 7
-15 6 -3 777.961 312.815 7
-15 -3 -6 424.773 265.148 6
-15 6 -3 734.818 273.408 6
-15 -6 3 801.245 253.077 5
6 -15 5 9427.9 329.894 5
-15 -5 -6 8394.87 373.928 7
-15 -7 -6 4826.24 290.827 6
-6 -15 -7 1508.1 379.529 8
7 -15 -4 2094.92 327.073 8
-15 -7 -2 7083.97 301.029 6
-15 7 2 7309.34 311.102 6
-7 -15 2 8973.92 368.813 5
-15 -7 -2 9961.8 370.355 5
7 -15 -2 5883.83 319.913 5
15 7 0 5441.96 662.991 4
-15 -7 0 8770.57 304.517 6
15 7 0 5348.86 514.364 3
7 15 0 5755.33 661.47 3
-15 -7 0 10162 319.059 5
-15 -2 -7 6757.74 296.813 6
15 7 2 3505.28 674.006 4
15 -7 -2 4166.81 640.691 4
15 7 2 5845.29 279.676 2
-15 -7 2 9800.15 321.255 5
15 7 2 3793.97 548.866 3
-7 -15 -2 9367.2 381.684 5
-15 -2 -7 5046.57 375.164 7
-15 7 -2 5369.68 331.001 7
-15 -7 2 7064.92 332.352 7
-15 7 -4 2799.47 279.813 6
-15 7 -4 2120.96 332.071 7
-7 -15 -6 1502.55 394.215 8
-15 -6 -7 2342.64 356.989 7
-15 -8 -7 129.025 352.173 7
15 -8 7 16.2116 290.077 1
8 15 7 64.6416 627.421 3
-15 -8 -7 203.237 261.791 6
-15 5 -8 2476.78 379.517 7
-15 -8 -5 3278.8 355.061 7
-15 8 3 2709.37 306.55 6
-15 -8 -3 5769.35 356.538 5
15 -8 1 3425.4 759.138 4
-15 -8 -1 3606.1 288.86 7
-15 8 1 4462.64 332.068 7
-15 -1 -8 4799.71 312.822 6
-15 8 -1 4976.46 288.932 6
15 8 1 4153.96 296.602 2
-15 -8 1 4730.17 421.409 8
-15 8 -1 3924.58 308.92 7
-15 -8 3 1760.29 294.452 7
-15 8 -3 3708.75 292.91 6
15 8 3 3470.04 282.634 1
15 8 3 1435.06 587.106 4
-15 -8 3 3166.32 312.111 5
15 -8 -3 1004.9 674.594 4
15 8 3 3216.93 302.231 2
-15 8 -3 2576.55 335.608 7
-15 8 -5 3890.27 281.188 6
15 8 5 3673.4 270.859 1
15 -7 8 0.68594 286.625 1
-8 -15 -7 0.92897 405.607 5
-15 -7 -8 213.287 267.771 6
15 8 7 258.268 285.732 1
-15 8 -9 1557.04 326.717 6
9 15 8 135.049 679.474 3
-15 -9 -8 1598.31 298.717 6
15 -9 8 210.218 317.81 1
-15 6 -9 1935.83 329.059 6
-15 -9 -6 2197.44 282.82 6
-15 -9 -6 1121.22 339.672 8
-15 -9 -4 757.459 320.998 5
-15 -9 -4 431.14 323.618 7
-15 -9 -4 751.287 266.848 6
-15 -9 -4 87.0457 312.904 8
-15 9 2 1190.34 329.591 7
-15 -9 -2 1541.67 264.451 6
-15 -9 -2 2093.36 383.604 5
-9 -15 2 431.725 396.008 8
-15 -9 -2 434.71 423.839 8
-15 9 0 318.473 302.216 7
-15 -9 0 144.645 266.221 6
15 9 0 180.779 640.73 4
9 15 -2 740.2 322.635 2
15 9 2 344.287 567.821 3
-15 9 -2 1917.28 347.396 6
15 9 2 570.501 683.922 4
15 9 4 634.25 722.851 4
-15 9 -4 513.458 286.821 6
9 15 -4 349.368 361.443 2
-15 -6 -9 2422 394.366 6
15 9 6 1450.59 595.61 3
15 9 6 1042.16 786.523 4
-9 -15 -6 650.94 392.356 8
-9 -15 -6 2026.64 441.482 5
-15 9 -8 571.968 406.126 7
-15 -8 -9 1575.56 308.878 6
-15 9 -8 129.45 304.623 6
-9 -15 -8 606.242 362.049 8
-15 -10 -7 518.378 355.485 8
-15 -10 -5 481.846 348.391 5
-10 -15 3 1777.8 389.475 5
-10 -15 3 929.464 450.245 8
-15 -10 -3 1204.77 351.212 8
-15 -10 -1 625.199 432.698 5
-15 10 1 133.767 328.155 7
10 15 1 41.336 331.157 2
15 -10 1 136.699 775.9 4
-15 10 1 66.7016 304.102 6
15 10 1 69.0299 561.215 3
15 10 1 227.347 293.166 2
-15 10 -1 64.0974 305.292 7
-15 10 -1 210.044 290.777 6
15 -10 -1 44.4027 709.167 4
-15 -10 1 27.2995 396.66 8
-15 -10 1 392.31 331.536 5
15 10 3 2218.29 284.638 1
-15 -10 3 2589.21 345.886 5
-10 -15 -5 557.487 411.301 5
15 10 5 364.329 577.872 3
-10 -15 -5 99.2111 398.81 8
-15 10 -7 274.479 366.753 7
-15 10 -9 357.248 311.324 6
11 15 8 99.2306 744.564 3
15 -11 8 3.59214 317.698 1
-15 -11 -6 82.8532 412.753 5
-11 -15 4 2001.42 361.19 5
-15 -11 -4 2145.9 361.076 5
-15 -11 -2 525.811 411.434 5
11 15 2 49.3196 699.637 3
11 15 2 136.668 345.862 2
-15 11 2 268.976 324.683 6
-15 -11 -2 91.6955 474.32 8
-11 -15 2 430.903 355.326 5
11 15 0 1325.13 686.938 3
15 11 0 4091.66 363.945 2
15 -11 0 2120.14 684.869 4
-15 -11 0 2676.53 379.72 8
-15 -11 0 5025.5 361.789 5
15 11 0 2223.36 643.703 3
-11 -15 -2 51.1447 376.079 5
15 11 2 403.744 650.347 3
15 11 2 256.554 330.784 2
15 -11 -2 598.365 664.604 4
-15 -11 2 343.475 349.456 5
11 15 -2 112.019 362.467 2
-11 -15 -4 2100.55 382.724 5
15 11 4 1002.6 655.176 3
-15 11 -4 1859.9 297.154 6
-11 -15 -4 781.19 399.735 8
15 11 4 2103.31 340.798 2
-11 -15 -6 577.16 459.46 5
-11 -15 -8 1353.9 421.08 5
-15 11 -8 1224.45 303.83 6
-11 -15 -8 802.203 436.284 8
15 -12 7 100.801 315.69 1
-12 -15 3 690.282 389.411 5
-15 12 1 2409.32 311.858 6
12 15 1 1860.95 345.714 2
-15 12 -1 1150.55 306.089 6
15 -12 -1 1273.8 683.377 4
-12 -15 -1 906.372 554.565 8
12 15 -1 706.465 700.343 3
12 15 -3 85.2387 383.64 2
-15 12 -7 415.068 410.466 7
-12 -15 -7 980.153 451.077 5
-15 -13 -6 2232.79 481.516 5
13 15 6 25.0137 651.851 3
15 -13 6 988.017 800.242 4
-15 -13 -6 187.598 417.144 8
-15 -13 -4 253.684 396.468 5
-13 -15 4 166.008 406.296 5
-15 13 2 1355.83 339.874 6
15 13 -2 1638.59 401.426 2
15 -13 -2 374.241 740.25 4
-15 -13 2 534.781 505.08 8
-13 -15 -4 42.9546 415.69 5
15 13 4 73.2634 776.214 3
15 13 4 87.7098 360.922 2
-13 -15 -4 279.408 402.078 8
-15 13 -6 647.575 413.78 7
15 13 6 426.301 653.611 3
-13 -15 -6 288.707 400.713 8
-14 -15 3 3190.5 429.74 5
-14 -15 3 1360.43 555.87 8
-15 -14 -3 590.46 430.552 8
-15 -14 -3 3716.82 496.035 5
-15 -14 -1 1601.29 475.039 5
14 15 1 418.583 780.237 3
14 15 1 740.238 380.299 2
-15 -14 -1 342.32 486.14 8
15 14 -1 440.329 759.861 3
-14 -15 1 1277.19 456.373 5
-14 -15 -1 1449.19 462.931 5
15 14 1 515.568 757.499 3
-14 -15 -1 511.648 523.593 8
14 15 -1 38.6145 750.992 3
-15 -14 1 1252.49 438.186 5
14 15 -3 2324.2 440.756 2
-15 -14 3 3411.39 428.143 5
15 14 3 2359.65 410.632 2
0 -16 0 10994 433.866 8
0 16 0 11047.2 349.925 2
-16 0 0 10228.3 365.993 7
-1 -16 1 68.8798 342.916 5
-1 16 -1 387.528 556.348 3
-1 -16 -1 233.697 358.09 5
1 16 1 69.3415 546.135 3
-16 1 -1 297.803 305.001 7
1 16 -1 139.177 303.91 2
-1 16 -1 139.132 318.144 2
16 1 1 352.761 758.136 4
-16 1 -1 671.399 309.036 6
-16 -1 -1 575.323 285.431 6
16 -1 -1 568.055 713.125 4
-1 -16 1 65.9312 372.454 8
-1 -16 -1 170.815 347.966 8
1 -16 -1 114.414 352.985 8
2 -16 0 384.286 329.37 5
-16 0 -2 132.296 300.744 7
-16 2 0 248.996 320.432 7
-16 -2 0 134.191 312.276 7
0 16 2 439.32 540.698 3
-16 0 2 166.867 333.14 7
-2 16 0 159.53 311.829 2
-16 0 -2 960.001 311.213 6
16 2 0 640.702 713.823 4
-16 2 0 147.209 294.872 6
-2 -16 0 304.43 403.271 8
0 -16 -2 55.0219 338.148 8
2 16 -2 64.211 308.253 2
-2 16 -2 643.225 291.092 2
-16 -2 -2 248.915 304.149 7
-16 2 -2 234.677 299.316 7
-16 2 2 347.88 325.73 7
-16 -2 2 324.522 332.564 7
16 2 2 96.5615 673.536 4
-16 2 -2 789.478 315.431 6
-16 -2 -2 1272.26 328.723 6
16 2 -2 93.0713 653.681 4
2 16 -2 71.6571 552.486 3
-2 -16 2 585.093 325.125 5
-2 16 -2 64.6051 576.893 3
-16 1 -3 322.698 319.822 7
-16 3 1 263.017 321.199 7
-16 -1 3 387.236 314.835 7
-3 16 -1 119.681 288.167 2
-16 1 -3 315.16 275.395 6
-16 -3 -1 69.4291 275.176 6
16 3 -1 20.5897 664.337 4
-16 3 1 58.9644 286.895 6
-16 -1 3 111.224 286.445 6
16 -1 -3 203.113 683.644 4
16 1 3 232.337 292.2 1
-3 -16 1 316.798 471.402 8
3 -16 -1 118.675 328.693 8
-1 -16 -3 188.59 348.045 8
-3 -16 -1 315.346 414.677 5
1 -16 -3 280.731 359.919 5
-16 -1 -3 254.838 308.319 7
-3 16 1 81.973 518.676 3
-16 1 3 458.685 333.262 7
-16 -1 -3 162.916 283.93 6
-16 3 -1 90.2323 297.691 6
16 -3 -1 22.8104 705.565 4
16 -1 3 237.836 284.532 1
-16 -3 3 7677.09 338.097 7
16 -3 3 7244.52 826.107 4
-16 3 -3 9922.2 320.693 6
-16 -3 -3 9916.06 301.718 6
16 -3 -3 6958.14 714.014 4
-16 3 3 8645.84 347.788 6
3 16 -3 8929.5 347.677 2
-3 16 -3 8713.27 321.227 2
-3 16 -3 6702.56 560.637 3
-3 -16 3 6952.17 416.283 8
-3 -16 3 9820.29 379.003 5
-3 -16 -3 9006.18 394.129 8
3 -16 3 9330.45 339.372 5
3 -16 -3 7086.41 354.718 8
3 -16 -3 9647.41 414.869 5
-2 16 4 2995.56 586.07 3
-16 2 -4 3138.74 288.718 6
16 2 4 2766.32 291.031 1
-16 4 2 2822.31 296.051 6
2 16 -4 3562.98 331.726 2
16 2 4 1506.48 724.412 4
-4 16 -2 2246.8 291.132 2
-4 -16 2 3941.32 353.985 5
2 -16 4 2204.18 411.784 8
-2 -16 -4 3214.77 355.261 5
-16 -4 -2 2088.57 303.98 7
4 -16 0 734.915 354.661 5
0 -16 -4 911.033 394.19 5
-4 16 0 166.78 466.631 3
-16 -4 0 271.894 296.469 7
0 16 4 119.544 491.676 3
4 16 0 565.497 308.268 2
-4 16 0 336.938 273.979 2
16 0 4 378.026 724.072 4
-16 0 -4 626.389 261.471 6
16 -4 0 287.878 700.752 4
-16 4 0 458.121 304.884 6
-4 -16 0 444.783 356.13 8
0 -16 4 1165.46 326.763 5
-16 4 -2 3384.31 329.048 6
-2 16 -4 2413.96 302.905 2
16 -2 4 1756.29 724.842 4
-2 -16 4 3948.23 356.01 5
2 -16 -4 2898.68 388.32 8
4 -16 2 3888.04 417.034 5
-16 -2 -4 2181.4 329.823 7
4 16 -2 1391.21 570.135 3
-16 -4 2 2522.53 333.625 7
-16 -4 -4 32.3914 320.828 7
-4 16 4 30.4916 580.687 3
16 4 4 8.22543 275.1 1
16 4 4 265.253 692.216 4
4 -16 4 343.716 394.048 8
-16 -5 -3 1262.93 290.128 7
-16 -5 -3 1561.17 252.45 6
16 3 5 600.252 677.993 4
-16 5 3 1565.81 311.89 6
16 -5 3 1328.37 776.208 4
3 -16 5 1228.87 415.549 8
5 -16 -3 1815.28 364.978 5
-16 1 -5 3124.18 288.57 6
1 16 -5 2968.77 351.161 2
-16 -5 -1 2976.51 274.516 6
-16 5 1 2387.8 299.202 6
16 5 -1 1774.4 655.36 4
5 -16 -1 2544.86 313.934 8
-5 -16 1 2912.79 337.261 5
-1 -16 -5 3119.08 378.833 8
-5 16 -1 2256.3 552.087 3
5 -16 -1 1910.71 297.883 5
-1 -16 -5 3020.13 389.457 5
-1 16 5 2382 573.372 3
1 16 5 2344.17 610.97 3
-16 -1 -5 3165.43 278.697 6
-1 16 -5 3345.62 336.09 2
-16 5 -1 2420.8 286.828 6
-16 -5 1 2872.54 303.476 6
16 5 1 2501.62 700.058 4
5 -16 1 2897.38 350.715 8
1 -16 -5 2735.39 317.4 8
-5 -16 -1 3930.25 420.586 5
5 16 -1 1936.3 631.85 3
-16 -3 -5 1216.25 318.593 7
16 5 3 895.221 743.254 4
-16 5 -3 1270.1 285.27 6
16 5 3 1866.24 280.138 1
5 -16 3 1185.62 357.714 8
-3 -16 5 1405.45 345.27 5
-16 -5 -5 2134.72 277.15 6
16 5 5 386.538 673.33 4
-5 -16 5 978.914 461.482 8
-5 -16 -5 848.36 355.891 8
5 -16 -5 1660.48 348.827 8
16 5 5 1991.8 288.226 1
-16 4 -6 694.999 336.992 7
-16 -6 -4 2162.55 290.768 6
16 4 6 576.386 758.884 4
4 -16 6 1882.63 317.794 5
6 -16 -4 1286.75 356.154 8
-16 -6 -2 1277.08 309.239 7
16 -6 2 913.452 679.911 4
-16 -6 -2 1396.18 281.918 6
2 -16 6 941.942 314.739 5
6 -16 0 57.6343 307.336 5
-6 16 0 109.959 553.695 3
16 -6 0 13.8931 708.991 4
16 6 0 195.497 665.703 4
-16 -6 0 164.161 290.537 6
6 -16 0 115.668 308.94 8
6 -16 2 1262.78 353.326 5
-16 -6 2 1492.62 318.022 7
-16 6 -2 1850.73 360.979 6
16 6 2 997.891 677.028 4
16 -6 -2 1469.08 666.22 4
16 6 4 972.175 770.882 4
16 -4 6 1177.16 292.888 1
-6 -16 -4 812.416 374.902 8
-16 -6 -6 748.804 374.907 7
-6 -16 -6 1494.74 402.348 5
16 6 6 32.3408 762.147 4
-16 -6 -6 1071.88 287.152 6
-6 -16 -6 299.727 400.785 8
-5 -16 -7 700.227 367.171 5
-16 5 -7 275.763 284.317 6
-16 -7 -5 221.887 277.626 6
16 -7 5 173.822 292.254 1
-7 -16 5 228.243 350.143 5
-16 3 -7 430.547 367.781 7
-16 -7 -3 720.937 321.563 7
-16 -7 -3 859.358 308.165 6
-7 -16 3 410.045 448.273 8
7 -16 -3 564.414 326.454 8
-16 7 1 2011.24 309.076 6
16 7 -1 1372.98 639.884 4
-16 7 -1 2258.46 302.829 6
16 7 1 1107.15 660.005 4
7 16 -1 1337.82 331.668 2
16 -1 7 2022.22 318.438 1
-16 -7 1 1756.44 309.766 7
-16 -7 3 592.215 292.59 7
16 -3 7 462.275 304.645 1
16 7 3 507.066 631.64 4
-7 -16 -5 274.529 352.567 5
5 16 7 1.57702 608.896 3
16 -5 7 326.545 311.024 1
16 7 5 73.9584 700.964 4
-16 -5 -7 559.053 288.003 6
16 7 5 302.596 284.895 1
-16 7 -7 604.491 375.862 7
-7 -16 -7 336.215 419.992 5
7 16 7 384.876 626.581 3
16 -7 7 514.875 337.088 1
-16 7 -7 249.114 294.39 6
-16 -7 -7 88.0543 279.586 6
-7 -16 -7 73.5869 406.533 8
-16 6 -8 391.146 367.15 7
-16 6 -8 552.519 293.258 6
-16 -8 -6 803.912 285.056 6
16 -8 6 350.838 307.272 1
-16 4 -8 61.6111 353.76 7
-16 -8 -4 101.44 279.044 6
-8 -16 4 59.6071 353.44 5
-16 2 -8 721.934 361.185 7
8 16 2 186.494 644.358 3
16 2 8 1188.54 297.469 1
-16 2 -8 1041.72 298.585 6
-8 -16 2 1224.87 352.265 5
16 8 0 5973.09 330.617 2
16 0 8 4511.29 293.42 1
16 8 0 3208.88 577.561 3
8 16 0 3864.86 345.063 2
-16 -8 0 4857.68 315.441 7
-16 -2 -8 819.576 362.672 7
8 16 -2 717.001 326.177 2
16 -2 8 1092.67 293.352 1
16 8 2 466.423 737.914 4
16 8 4 62.5198 273.751 1
-8 -16 -4 93.0419 353.009 5
-16 8 -4 19.7326 361.114 7
16 -4 8 169.874 298.664 1
16 8 4 124.95 791.471 4
-16 8 -6 490.93 393.02 7
-8 -16 -6 549.541 453.996 5
16 -6 8 563.885 312.721 1
16 8 6 510.566 802.25 4
-16 8 -6 137.318 293.606 6
-16 -9 -5 700.941 363.197 7
16 -9 5 1186.31 792.631 4
-16 5 -9 216.013 311.03 6
-16 -9 -5 430.388 271.881 6
-16 -9 -3 26.6424 329.316 7
9 16 3 140.183 595.372 3
-16 3 -9 158.325 325.498 6
-9 -16 3 156.424 477.19 8
-9 -16 3 500.108 365.047 5
9 16 1 36.1876 688.381 3
-16 -9 -1 96.4322 300.603 7
9 16 1 185.521 354.865 2
-16 1 -9 120.693 304.224 6
-9 -16 1 66.7787 438.716 8
-9 -16 1 310.945 392.817 5
-16 -1 -9 94.148 375.053 7
-9 -16 -1 253.291 422.911 5
16 9 1 207.123 577.131 3
16 9 1 57.2928 297.71 2
9 16 -1 146.033 346.112 2
16 9 1 390.559 684.407 4
-16 -9 1 402.617 296.37 6
-16 -9 1 505.626 330.774 5
9 16 -1 90.0844 645.095 3
16 9 3 125.48 280.576 1
-9 -16 -3 88.9119 403.782 8
16 -3 9 21.066 322.147 1
-16 -9 3 532.535 333.046 5
-9 -16 -5 332.043 414.778 5
16 9 5 722.511 287.498 1
-9 -16 -5 449.826 405.678 8
-16 9 -9 122.031 340.002 6
16 -10 8 207.284 336.168 1
16 -10 4 395.447 319.24 1
10 16 4 457.17 701.888 3
-10 -16 4 683.885 522.754 8
-10 -16 4 1021.66 384.49 5
10 16 2 101.138 674.233 3
-10 -16 2 267.458 468.91 8
-16 -10 -2 932.129 434.439 8
-10 -16 2 196.126 368.374 5
-10 -16 0 109.16 397.128 5
10 16 0 231.565 696.497 3
-16 -10 0 75.482 414.808 8
-10 -16 0 14.992 463.353 8
-16 -10 0 483.991 331.511 5
16 10 2 691.547 631.69 3
-16 -10 2 1695.62 355.881 5
10 16 -2 670.456 362.073 2
16 10 4 1239.42 655.48 3
16 10 4 1491.47 335.589 2
-10 -16 -4 515.011 391.261 8
10 16 -4 1149.42 391.185 2
-16 10 -8 338.885 412.395 7
-10 -16 -8 358.984 403.058 5
-16 10 -8 219.984 331.22 6
11 16 7 150.716 707.664 3
-16 -11 -5 1060.83 426.777 5
-16 -11 -1 548.2 473.627 5
-16 11 1 106.465 332.843 7
-16 -11 -1 142.7 443.331 8
16 11 -1 57.6746 642.625 3
-11 -16 1 25.0835 422.41 5
16 11 1 268.677 690.012 3
16 11 5 353.562 647.624 3
-16 11 -7 114.667 400.21 7
-11 -16 -7 87.1391 457.72 5
-12 -16 4 104.448 533.606 8
16 -12 4 53.9469 335.701 1
-12 -16 4 79.0625 406.885 5
-16 12 2 622.028 368.335 7
16 12 -2 724.738 387.502 2
-12 -16 2 149.623 390.589 5
12 16 -2 174.917 720.2 3
12 16 -2 622.036 399.853 2
-12 -16 -4 442.913 412.567 5
-16 12 -4 191.428 393.163 7
16 12 4 237.983 376.446 2
-16 12 -4 0.7068 299.091 6
-16 13 3 1582.86 391.309 7
16 -13 3 402.847 346.815 1
-13 -16 3 891.14 543.364 8
13 16 1 265.983 796.403 3
-16 13 1 124.083 344.226 7
16 13 -1 326.89 378.194 2
16 13 -1 297.28 712.564 3
-13 -16 1 587.73 410.576 5
13 16 -1 259.452 393.839 2
-13 -16 -1 290.668 474.807 5
16 13 1 53.243 746.117 3
16 13 1 148.993 378.534 2
-16 13 -1 362.361 374.187 7
-13 -16 -1 80.7451 514.021 8
-16 -13 1 835.175 438.512 5
13 16 -1 489.532 733.788 3
16 13 3 454.29 648.379 3
-16 -13 3 2438.98 430.565 5
16 13 3 1555.14 402.798 2
-13 -16 -3 653.07 459.77 8
-13 -16 -3 2454.29 477.269 5
13 16 -3 1564.77 413.636 2
0 17 -1 1273.8 555.329 3
-1 17 0 1602.26 606.848 3
17 1 0 1653.51 705.268 4
0 -17 1 1781.02 397.508 8
-1 -17 0 1994.56 395.374 8
0 17 -1 2623.82 313.981 2
-1 -17 0 2550.64 402.579 5
1 -17 0 2251.65 337.745 5
-1 17 0 2294.03 322.587 2
-2 -17 1 1636.41 343.672 5
-2 17 -1 1168.98 611.05 3
2 -17 -1 1777.34 398.188 5
2 17 1 1260.86 608.842 3
-17 -2 -1 2005.48 300.764 6
17 2 -1 854.652 715.799 4
1 17 -2 1721.49 313.973 2
2 -17 -1 1361.76 365.028 8
-1 17 -2 888.438 606.658 3
-2 17 1 1207.35 544.278 3
1 17 2 931.237 563.419 3
-1 -17 2 1296.12 400.531 8
-2 -17 -1 2300.33 371.993 5
-3 17 -2 424.924 528.435 3
3 -17 -2 480.023 354.286 5
-3 17 -2 736.561 293.545 2
-2 17 3 173.996 529.204 3
17 3 -2 396.709 671.792 4
0 -17 -3 1321.25 377.122 5
3 -17 2 381.694 329.299 5
-2 17 -3 557.153 307.526 2
-3 17 2 462.23 528.775 3
-17 -3 2 468.337 311.986 6
-4 17 -3 636.827 306.296 2
-17 3 -4 390.419 341.648 7
17 -4 3 800.477 287.689 1
-17 4 3 339.225 320.826 7
-3 17 4 613.957 616.667 3
-17 -4 -3 1368.31 317.957 6
3 -17 4 713.354 414.022 8
-4 -17 3 348.124 398.755 8
4 -17 -3 413.799 347.206 8
3 -17 4 1294.69 330.698 5
17 4 -1 4323.48 721.503 4
1 -17 4 4491.78 463.128 8
-4 17 -1 4324.61 579.16 3
-17 1 -4 5095.9 363.686 7
-17 -4 1 7555.69 344.519 6
4 -17 1 4437.9 391.941 8
1 -17 -4 4994.26 391.799 8
1 -17 -4 9345.65 422.514 5
3 -17 -4 1112.15 388.209 5
17 4 3 482.033 681.733 4
4 -17 3 463.066 361.316 8
-4 -17 -3 473.238 373.754 8
-3 17 -4 937.589 309.655 2
5 17 4 440.427 630.561 3
-17 4 -5 3213.02 300.984 6
-17 -5 -4 3762.63 301.694 6
4 17 -5 2726.61 379.007 2
-5 17 -4 2402.42 322.788 2
17 -5 4 1789.59 779.636 4
4 -17 5 3740.08 357.793 5
-4 -17 -5 1493.2 393.364 8
-4 -17 -5 4993.61 436.529 5
17 2 5 6059.15 307.798 1
-5 -17 2 3513.24 452.887 8
5 -17 -2 7056.49 417.277 5
-17 5 2 4855.08 377.808 7
17 0 5 947.853 288.591 1
-17 5 0 999.89 317.013 7
-17 -5 0 1149.5 304.109 7
-17 -5 0 1888.06 330.544 6
17 5 0 857.34 731.149 4
5 17 0 1679.17 342.862 2
-5 -17 0 548.132 400.286 8
5 -17 0 967.367 377.428 8
-5 17 0 1676.99 310.381 2
17 -2 5 5726.67 312.426 1
17 5 2 3579.99 755.81 4
-5 17 2 3101.78 509.959 3
-17 5 -2 5461.28 354.487 7
17 -4 5 2852.45 297.715 1
4 17 5 775.953 553.314 3
-17 5 -4 3051.24 303.824 6
-4 17 -5 2636.92 348.22 2
17 -4 5 1245.52 719.49 4
5 17 -4 2489.74 352.732 2
-4 -17 5 3379.22 361.052 5
4 -17 -5 2113.71 345.105 8
-4 -17 5 1509.78 480.929 8
-5 -17 -4 3761.36 365.694 5
6 17 5 314.762 603.363 3
17 -6 5 87.9275 829.284 4
17 5 6 311.213 296.57 1
-6 -17 5 348.317 360.457 5
5 -17 6 554.368 334.992 5
17 -6 5 96.606 293.216 1
-3 -17 -6 45.7581 400.763 5
6 17 3 105.745 616.295 3
-17 6 3 216.584 356.001 7
17 -6 3 55.1112 710.555 4
-17 3 -6 26.2347 293.087 6
-17 -6 -3 175.444 311.35 6
17 -6 3 19.6621 304.436 1
17 3 6 233.325 284.42 1
-6 -17 3 262.643 462.728 8
-6 -17 3 111.798 349.274 5
6 17 1 1034.29 633.948 3
-17 1 -6 3625.42 308.974 6
17 6 -1 1652 693.546 4
1 -17 6 3911.43 360.875 5
-1 -17 -6 1468.84 339.246 8
-6 -17 1 3902.04 360.159 5
17 1 6 3395.51 304.543 1
6 -17 -1 2926.74 359.255 5
-17 1 -6 2554.21 361.071 7
-17 -6 -1 2541.78 317.992 7
-17 6 1 3097.29 337.204 7
6 17 -1 1254.07 641.679 3
-6 17 1 1972.54 534.063 3
17 -1 6 1639.98 793.925 4
-17 -6 1 3828.89 310.826 6
17 6 1 2164.07 733.955 4
-6 -17 -1 1965.13 425.781 8
-17 -1 -6 2949.92 379.605 7
-17 -6 1 3184.45 343.762 7
-6 -17 -3 600.283 430.174 5
-17 -3 -6 302.312 349.382 7
-17 6 -3 7.02907 324.692 7
3 17 6 165.003 635.359 3
17 6 3 236.581 658.611 4
-17 6 -3 313.816 279.14 6
17 -6 -3 162.141 726.73 4
6 17 -3 162.701 351.876 2
-17 6 -5 147.977 356.261 7
-17 6 -5 335.3 298.413 6
17 -5 6 429.266 296.444 1
6 17 -5 170.552 375.782 2
-17 6 -7 134.866 399.794 7
-6 -17 -7 64.3787 380.144 5
17 6 7 37.2472 328.036 1
17 -7 6 726.973 909.202 4
-17 4 -7 1719.76 314.121 6
-17 -7 -4 1971.05 293.588 6
17 -7 4 1379.14 321.155 1
17 -7 4 840.735 860.993 4
17 4 7 2114.5 324.898 1
-7 -17 4 2573.16 386.298 5
-7 -17 4 793.565 462.071 8
-17 2 -7 371.593 373.282 7
-17 -7 -2 688.781 328.056 7
-17 7 2 736.96 357.936 7
-17 2 -7 783.724 305.287 6
17 -7 2 602.401 780.922 4
17 7 -2 583.214 714.503 4
-7 -17 2 263.358 471.39 8
-7 -17 2 748.202 370.234 5
7 17 0 2418.82 339.382 2
-17 7 0 1974.19 335.817 7
-17 -7 0 2257.73 311.486 7
7 17 -2 419.663 337.337 2
-17 7 -2 507.24 349.391 7
-17 -7 2 709.273 347.018 7
17 -2 7 791.779 327.633 1
-17 -2 -7 629.729 294.584 6
-17 -7 2 621.808 302.565 6
17 -7 -2 103.122 699.536 4
17 7 2 781.542 329.066 1
-17 -4 -7 1224.84 385.385 7
-17 7 -4 1302.84 379.332 7
-17 7 -4 1768.35 296.886 6
4 17 7 656.86 664.806 3
17 7 4 883.52 776.399 4
17 -4 7 1919.07 341.891 1
-7 -17 -4 2327.05 369.308 5
-17 -6 -7 49.6241 386.114 7
-7 -17 -6 137.61 458.949 5
6 17 7 74.6734 685.038 3
-17 7 -6 143.498 300.376 6
-7 -17 -6 212.803 387.898 8
-17 7 -8 344.048 410.329 7
8 17 7 406.423 706.736 3
17 -8 7 248.676 887.051 4
-17 7 -8 148.624 317.56 6
-7 -17 -8 276.792 397.986 8
17 7 8 396.531 330.817 1
-17 5 -8 68.1028 383.436 7
17 5 8 268.133 313.683 1
8 17 5 687.709 675.933 3
-17 5 -8 343.111 306.129 6
-17 -8 -5 535.771 308.611 6
17 -8 5 101.155 336.754 1
-8 -17 5 296.326 363.497 5
-17 3 -8 27.1821 376.484 7
-17 -8 -3 16.0398 347.888 7
17 3 8 4.89395 297.527 1
-17 8 3 70.8457 367.372 7
17 -8 3 137.978 328.239 1
-17 3 -8 120.516 304.757 6
17 -8 3 96.8349 727.586 4
-17 -8 -3 59.4882 352.548 6
-17 8 3 17.9163 311.952 6
-8 -17 3 48.1615 486.177 8
-8 -17 1 1313.44 365.274 5
-17 1 -8 653.183 372.248 7
-17 -8 -1 1215.76 311.001 7
17 1 8 1249.23 300.591 1
8 17 1 1585.01 356.591 2
-17 -8 -1 1663.35 301.682 6
-17 1 -8 1204.42 298.288 6
17 -8 1 1337.18 834.895 4
-8 -17 1 430.443 440.347 8
-17 8 -1 1202.12 353.679 7
-17 -8 1 817.672 327.137 7
-17 -1 -8 863.756 294.937 6
-17 8 -1 775.97 297.533 6
-8 -17 -1 1096.47 399.232 8
8 17 -1 462.328 649.213 3
-17 -3 -8 4.97183 386.466 7
-8 -17 -3 58.0501 412.055 5
-17 -3 -8 291.568 286.746 6
-17 8 -3 0.83403 336.027 6
-8 -17 -3 210.318 404.041 8
17 8 3 75.5424 286.825 1
8 17 -3 17.226 376.965 2
-8 -17 -5 305.371 416.206 5
17 8 5 166.063 798.072 4
-17 -5 -8 378.694 289.396 6
-17 8 -5 40.0644 326.203 6
-8 -17 -5 285.727 420.085 8
8 17 -5 492.299 417.941 2
-17 -7 -8 138.079 404.991 7
-8 -17 -7 99.3074 450.996 5
17 8 7 400.655 310.742 1
7 17 8 116.503 718.349 3
-17 -7 -8 312.528 303.961 6
-17 8 -7 36.4626 322.665 6
-8 -17 -7 84.1009 416.932 8
17 -9 8 97.0595 339.692 1
-17 8 -9 80.6115 333.21 6
-17 6 -9 603.341 428.861 7
-17 6 -9 1204.49 338.047 6
17 -9 6 56.6103 320.894 1
-17 2 -9 707.309 430.962 7
9 17 2 55.8773 632.467 3
-17 -9 -2 919.944 315.713 7
-17 9 2 511.928 362.668 7
9 17 2 821.296 371.658 2
-17 -9 -2 1576.94 305.403 6
-17 9 2 604.527 326.985 6
-17 2 -9 1282.29 309.349 6
-9 -17 0 210.877 496.014 5
9 17 0 271.515 654.267 3
-17 9 0 9.48344 339.714 7
9 17 0 134.57 349.355 2
-17 0 -9 352.93 308.093 6
-17 -9 0 244.56 318.825 6
-9 -17 0 18.7438 544.318 8
17 0 9 162.127 328.023 1
-9 -17 -2 863.779 394.168 5
-17 -9 2 1218.39 353.379 7
-17 -2 -9 1315.6 310.453 6
-17 9 -2 280.062 342.118 6
17 -9 -2 879.037 720.311 4
17 9 2 1553.23 313.956 1
17 -2 9 1202.78 322.66 1
-9 -17 -6 478.216 465.514 5
-17 -6 -9 1196.39 335.57 6
-17 9 -6 22.7588 342.224 6
-9 -17 -6 590.913 427.943 8
-9 -17 -8 267.938 411.422 5
-17 -8 -9 177.942 304.336 6
-17 9 -8 0.80637 338.529 6
17 -8 9 94.435 356.106 1
17 -10 5 780.32 325.45 1
-10 -17 3 106.028 410.251 5
11 17 4 119.758 747.24 3
-11 -17 4 853.21 562.72 8
-11 -17 4 438.317 434.942 5
-17 11 2 883 389.378 7
-17 11 2 384.25 347.669 6
17 -11 2 146.727 345.768 1
-11 -17 2 166.101 399.71 5
-11 -17 0 361.94 520.282 5
11 17 0 475.739 716.601 3
11 17 0 1058.12 381.768 2
17 -11 0 451.346 793.707 4
-17 11 0 252.05 332.569 6
-17 11 -2 992.947 365.051 7
-17 11 -2 348.217 336.652 6
17 -11 -2 583.183 745.357 4
-11 -17 -4 999.845 415.43 5
-17 11 -4 1109.75 399.905 7
-17 11 -4 334.563 323.872 6
11 17 -4 1591.89 429.359 2
-12 -17 1 0.86674 411.503 5
12 17 1 259.649 747.083 3
-17 12 1 184.59 362.32 7
12 17 1 480.98 378.252 2
17 -12 1 131.439 808.031 4
-17 12 1 136.028 343.139 6
-17 -12 -1 194.884 434.467 8
17 12 -1 208.219 384.497 2
-12 -17 -1 114.519 486.541 5
17 12 1 97.985 363.162 2
-17 12 -1 28.0531 361.087 6
17 -12 -1 411.062 754.53 4
-17 -12 1 75.2382 503.39 8
-18 0 0 1874.29 339.296 6
0 -18 0 2638.01 359.443 5
-18 0 0 2294.25 323.468 7
1 -18 1 135.463 414.521 5
1 -18 -1 421.989 398.541 5
-18 -1 -1 64.1438 344.068 7
-1 18 1 119.769 580.386 3
-18 1 1 30.7955 362.841 7
18 -1 1 114.259 792.65 4
-18 1 -1 138.762 294.124 6
0 -18 2 1526.23 365.111 5
-2 18 0 583.866 551.969 3
-18 0 -2 794.366 325.528 7
-18 2 0 1019.83 328.202 7
-18 -2 0 884.284 333.211 7
-18 0 2 976.382 353.296 7
2 18 0 780.344 325.291 2
-2 18 0 1219.81 334.956 2
-18 0 -2 738.531 307.706 6
-18 2 0 1182.96 319.79 6
-18 0 2 1023.6 321.982 6
18 0 -2 435.437 716.687 4
-2 -18 0 411.914 399.112 8
2 -18 0 660.456 408.676 8
2 -18 -2 1528.29 356.073 5
2 18 -2 1433.07 333.666 2
-2 18 -2 1430.89 336.061 2
-18 -2 -2 971.512 334.532 7
-18 2 -2 996.007 327.605 7
18 -2 2 1115.51 754.049 4
-18 2 2 1381.9 309.09 6
18 -2 -2 884.463 671.784 4
2 -18 2 1966.8 355.088 5
-2 -18 2 794.055 419.768 8
-2 -18 -2 567.396 385.212 8
3 -18 -1 975.711 344.194 5
3 18 1 10.5891 656.61 3
-18 1 -3 654.729 350.886 7
-18 -3 -1 666.747 314.611 7
-3 18 -1 888.544 298.312 2
3 18 1 707.768 347.633 2
18 1 3 875.771 696.058 4
-18 1 -3 955.626 334.429 6
-18 -1 3 781.657 307.697 6
18 1 3 962.469 309.18 1
-3 -18 1 450.24 499.262 8
3 -18 -1 547.823 374.413 8
-1 -18 -3 424.292 354.808 8
1 -18 3 840.891 376.849 5
3 -18 1 962.86 410.816 5
-3 -18 -1 953.983 362.735 5
3 18 -1 738.571 329.261 2
-18 1 3 543.234 382.164 7
-18 -1 -3 1062.21 334.556 6
-18 3 -1 776.257 304.802 6
18 -3 -1 50.2557 718.959 4
3 -18 1 605.838 392.347 8
-3 -18 -1 591.044 374.421 8
-1 18 -3 215.666 617.029 3
3 18 -3 1302.54 344.73 2
-18 -3 3 865.084 375.627 7
-3 18 3 1140.41 531.699 3
-18 3 3 1835.12 327.483 6
18 -3 3 765.356 689.308 4
-3 -18 3 607.399 435.079 8
3 -18 3 785.097 411.121 8
-3 -18 -3 2109.12 378.247 5
-3 -18 3 1826.35 359.554 5
-4 18 -2 693.245 627.423 3
-2 -18 -4 1320.23 365.976 5
4 -18 -2 1359.54 373.016 5
-4 18 -2 895.266 331.199 2
-18 2 -4 1135.06 362.251 7
4 18 2 932.206 586.353 3
18 2 4 246.033 835.625 4
18 -4 2 982.654 758.474 4
-18 2 -4 1300.49 291.557 6
18 2 4 1342.42 312.098 1
-4 -18 2 1983.01 413.563 5
-4 -18 2 790.099 447.369 8
4 -18 -2 1231.12 358.741 8
-2 -18 -4 389.241 382.111 8
2 18 -4 1115.59 359.236 2
2 -18 4 1646.3 369.065 5
-4 -18 0 1553.84 423.831 5
-18 0 -4 583.785 346.126 7
-18 -4 0 552.527 338.007 7
4 18 0 798.397 348.85 2
-18 0 -4 1151.04 299.417 6
-18 4 0 1131.77 320.77 6
4 -18 0 632.239 416.106 8
18 0 4 1234.8 310.889 1
0 -18 -4 493.209 385.848 8
4 -18 2 1488.27 409.894 5
-4 -18 -2 1602.58 415.717 5
4 18 -2 941.057 347.517 2
-4 18 2 410.87 552.237 3
18 -2 4 425.906 873.6 4
-18 -2 -4 1224.32 303.089 6
-4 -18 -2 633.529 390.278 8
-2 18 -4 1340.88 360.404 2
-4 -18 -4 953.89 395.016 5
-18 -4 -4 436.028 353.149 7
4 -18 -4 908.147 371.862 5
18 -4 4 515.662 870.359 4
18 4 4 803.481 819.534 4
-18 4 -4 705.937 304.301 6
-18 -4 -4 994.213 302.19 6
18 4 4 969.843 322.259 1
4 -18 4 492.491 448.28 8
-4 -18 4 285.493 485.017 8
-4 18 -4 411.413 337.59 2
4 -18 4 806.224 344.441 5
-3 -18 -5 1511.12 450.574 5
5 -18 -3 1077.8 404.334 5
5 18 3 449.696 668.757 3
18 3 5 612.053 796.454 4
-18 3 -5 1252.92 302.695 6
-18 5 3 834.929 340.826 6
18 -5 3 774.633 339.489 1
-5 -18 3 767.015 464.64 8
5 -18 -3 769.059 376.917 8
3 18 -5 893.761 380.689 2
3 -18 5 1089.35 370.455 5
-5 -18 3 1336.61 369.013 5
5 18 1 762.982 655.846 3
18 1 5 3707.25 332.768 1
-18 1 -5 3375.63 307.991 6
1 18 -5 2408.23 376.295 2
18 1 5 1225.37 773.891 4
-1 -18 -5 1794.95 396.102 8
-5 -18 1 3739.29 385.467 5
-5 -18 1 1450.11 479.772 8
5 18 1 3542.63 367.091 2
-1 -18 -5 4181.02 431.193 5
-5 18 1 1980.59 584.701 3
-18 -1 -5 3846.67 317.924 6
18 -5 -1 1953.47 737.759 4
5 -18 1 3279.49 500.622 8
-5 -18 -1 1823.78 449.022 8
-5 -18 -1 3897.01 392.919 5
5 -18 1 4076.07 414.206 5
-18 5 -1 2331.36 347.299 7
5 -18 3 1001.3 347.864 5
18 -3 5 1147.05 313.384 1
-18 -3 -5 763.706 354.513 7
3 18 5 413.799 559.54 3
18 5 3 1259.77 317.392 1
18 -3 5 127.302 775.42 4
-18 -3 -5 1321.47 296.201 6
-18 5 -3 1155.11 342.601 6
-3 -18 5 461.344 500.359 8
5 -18 3 722.142 402.175 8
-5 -18 -3 573.659 398.325 8
-3 -18 5 1216.6 369.981 5
18 -5 5 3041.6 338.374 1
5 18 5 753.947 628.57 3
-18 5 -5 3606.38 329.507 6
-18 -5 -5 4314.23 328.468 6
5 18 -5 3300.15 411.107 2
18 -5 5 1326.5 815.877 4
18 5 5 1025.16 792.455 4
-5 -18 5 2968.21 518.123 8
-5 -18 -5 1763.08 416.132 8
-5 -18 -5 4512.6 397.784 5
-18 -5 -5 2404.82 373.62 7
-4 -18 -6 1040.52 440.147 5
18 4 6 142.818 784.387 4
18 4 6 1259.42 301.137 1
-6 -18 4 881.995 484.397 8
6 -18 -4 712.001 385.62 8
-6 -18 4 1610.58 396.383 5
-18 2 -6 329.299 376.939 7
6 -18 -2 1031.16 393.29 5
6 18 2 53.8874 594.608 3
-2 -18 -6 981.904 429.085 5
-18 6 2 297.763 393.793 7
6 18 2 903.104 353.132 2
18 2 6 222.049 763.869 4
-18 2 -6 567.857 292.65 6
-18 6 2 756.643 325.774 6
18 2 6 432.205 308.607 1
-6 -18 2 331.559 461.197 8
-6 -18 2 1413.27 410.005 5
-6 -18 0 307.898 486.074 5
-18 0 -6 169.836 367.33 7
-18 6 0 100.871 336.295 7
0 -18 -6 81.3455 379.855 5
6 18 0 52.5664 341.192 2
0 18 6 22.5884 643.06 3
18 0 6 246.532 858.335 4
-18 0 -6 123.46 281.435 6
18 0 6 79.8419 297.106 1
6 18 -2 907.917 367.054 2
-18 -2 -6 159.207 394.666 7
2 18 6 289.259 636.555 3
18 -2 6 83.18 867.762 4
-18 -2 -6 705.868 292.412 6
18 -6 -2 181.964 741.707 4
18 6 2 1136.26 352.078 1
2 -18 -6 187.942 378.499 8
-6 -18 -4 1089.16 378.54 5
-18 -4 -6 530.48 376.35 7
18 6 4 864.068 311.559 1
-18 -4 -6 1111.31 311.119 6
-18 6 -4 839.21 319.543 6
-6 -18 -4 430.344 412.824 8
6 18 -4 1261.48 387.187 2
-18 5 -7 202.865 433.962 7
-18 -7 -5 249.823 399.352 7
-5 -18 -7 215.691 411.13 5
18 5 7 194.019 349.46 1
-5 -18 -7 1.22453 456.884 8
-7 -18 5 8.74727 400.543 5
18 -7 5 47.4198 375.423 1
18 3 7 2108.92 347.693 1
-18 1 -7 1898.65 420.91 7
-18 1 -7 2209.46 321.355 6
18 1 7 461.426 831.809 4
18 -7 1 1025.11 812.457 4
-7 -18 1 3548.41 384.758 5
-18 7 1 1868.78 362.156 7
-18 7 -1 2702.89 332.253 6
7 18 -1 2285.95 380.494 2
18 -1 7 2303.64 354.872 1
-18 -5 -7 123.755 398.783 7
5 18 7 146.524 673.462 3
-18 -5 -7 78.7934 319.923 6
7 18 -5 40.651 402.815 2
-18 -7 -7 88.3006 413.947 7
-18 7 -7 108.348 421.59 7
-7 -18 -7 314.087 459.537 5
7 18 7 232.91 723.314 3
18 7 7 91.1989 361.437 1
18 -7 7 50.388 1013.05 4
18 7 7 7.76054 939.151 4
18 -7 7 24.6657 368.265 1
-18 7 -7 296.27 329.789 6
-7 -18 -7 88.8503 440.046 8
-18 6 -8 26.2129 434.252 7
-18 -8 -6 27.9634 421.039 7
18 6 8 194.303 317.478 1
-18 6 -8 108.246 339.831 6
-18 -8 -6 103.346 308.993 6
18 -8 6 9.75786 345.839 1
-18 4 -8 152.08 428.273 7
-18 -8 -4 339.088 360.911 7
8 18 4 548.088 715.464 3
18 4 8 416.931 330.183 1
-18 4 -8 556.868 317.927 6
-8 -18 4 786.175 401.009 5
-18 -4 -8 606.991 404.845 7
-8 -18 -4 572.116 416.957 8
8 18 -4 491.586 385.805 2
-18 8 -6 104.356 408.875 7
-8 -18 -6 84.9341 502.787 5
-18 -6 -8 134.736 331.622 6
-18 8 -6 0.81377 334.698 6
-8 -18 -6 122.264 440.331 8
-18 5 -9 29.5543 438.046 7
-18 -9 -5 7.17767 397.896 7
18 -9 5 635.278 878.748 4
-18 5 -9 131.647 329.073 6
-9 -18 5 115.457 419.363 5
-18 3 -9 485.368 416.194 7
9 18 3 1.57444 708.643 3
-9 -18 3 327.547 520.344 8
18 3 9 766.102 359.829 1
-9 -18 1 490.635 401.007 5
-18 1 -9 423.617 414.573 7
-18 1 -9 673.69 329.905 6
18 -9 1 575.778 804.119 4
-18 9 1 0.86559 344.098 6
18 1 9 494.057 337.149 1
9 18 -1 96.8806 753.911 3
18 -1 9 486.741 335.459 1
-18 9 -1 135.06 356.132 7
-18 -1 -9 451.764 316.907 6
-18 9 -1 50.9719 326.585 6
-18 -3 -9 652.204 437.038 7
-9 -18 -3 688.819 494.293 5
-18 9 -3 496.624 395.845 7
-18 -3 -9 751.873 319.716 6
-18 9 -3 0.96526 392.341 6
18 -9 -3 596.113 784.308 4
9 18 -3 868.803 408.102 2
18 -5 9 165.52 332.02 1
-18 -5 -9 96.3517 446.35 7
-18 9 -5 172.231 412.482 7
-9 -18 -5 176.68 452.684 5
-18 9 -5 0.80306 339.179 6
9 18 -5 661.333 434.605 2
10 18 2 193.534 678.493 3
18 -10 2 31.0733 364.259 1
-18 10 2 639.733 404.559 7
10 18 2 601.085 402.91 2
18 -10 2 267.298 887.091 4
-18 10 2 299.366 363.614 6
-10 -18 2 220.865 515.696 8
-10 -18 2 557.655 465.349 5
-10 -18 0 466.39 535.898 5
10 18 0 185.832 709.106 3
18 -10 0 37.2472 826.614 4
-18 10 0 107.216 349.408 6
-10 -18 0 298.864 532.595 8
-18 10 -2 580.549 403.014 7
-18 10 -2 344.239 355.946 6
18 -10 -2 602.428 752.201 4
10 18 -2 856.425 413.312 2
-1 -19 0 522.5 444.247 5
0 19 1 318.524 585.774 3
-19 1 0 71.6237 366.723 7
-19 -1 0 31.2641 361.193 7
-19 0 1 59.3903 354.235 7
1 19 0 104.251 357.508 2
-1 19 0 114.543 339.871 2
0 19 1 161.875 346.019 2
19 -1 0 126.119 710.951 4
19 1 0 56.9621 738.733 4
-19 0 -1 115.101 301.168 6
19 0 -1 441.63 776.597 4
1 -19 0 35.9154 378.788 8
0 -19 -1 229.28 394.365 8
1 19 -2 269.937 698.702 3
-2 -19 1 1526.58 504.588 5
-1 -19 -2 1132.55 453.48 5
1 19 -2 585.319 339.017 2
-19 -2 -1 644.51 355.622 7
-19 2 1 500.719 358.287 7
19 1 2 87.2965 799.863 4
19 2 -1 405.714 748.122 4
-19 -1 2 732.922 340.034 6
19 -1 -2 415.12 703.954 4
-1 -19 -2 532.533 409.876 8
-1 -19 2 1388.71 393.964 5
-1 19 -2 835.6 356.47 2
-19 -1 -2 700.812 380.222 7
-19 2 -1 546.769 347.025 7
2 19 -1 934.373 331.277 2
-19 1 2 638.184 376.048 7
1 19 2 30.1613 617.562 3
-19 -1 -2 969.246 339.72 6
-19 2 -1 811.837 310.549 6
19 -2 -1 236.429 775.067 4
-19 -2 1 904.403 324.615 6
-19 1 2 892.428 336.599 6
1 -19 -2 485.108 410.041 8
-3 -19 2 464.69 367.378 5
2 19 -3 52.3831 375.178 2
-3 19 -2 492.918 642.153 3
-19 2 -3 51.405 345.236 7
3 19 2 264.515 629.164 3
-19 -2 3 94.6711 379.545 7
19 2 3 248.846 800.502 4
-19 2 -3 10.5739 349.271 6
-19 -3 -2 46.7218 313.33 6
-19 3 2 217.102 329.095 6
-19 -2 3 121.041 311.121 6
19 3 -2 1.63278 725.368 4
19 -2 -3 487.957 793.67 4
-2 -19 -3 125.708 390.518 8
19 2 3 45.7714 334.917 1
2 19 -3 79.6766 696.076 3
0 19 3 1520.41 616.585 3
-19 0 -3 4568.23 369.393 6
-19 -3 0 4716.62 377.474 6
19 0 3 1919.7 760.793 4
0 19 -3 2845.72 357.11 2
-3 -19 0 4494.34 468.536 5
3 -19 0 4852.68 434.313 5
-19 0 -3 3171.57 359.111 7
-19 -3 0 2944.53 353.519 7
0 19 -3 2228.2 663.858 3
-19 0 3 3577.07 392.794 7
3 -19 2 270.037 413.793 5
-3 -19 -2 159.67 429.877 5
3 19 -2 0.8154 359.947 2
-19 -2 -3 6.64338 345.218 7
-19 3 -2 76.3728 368.013 7
-19 -3 2 100.31 360.502 7
-19 2 3 65.8276 378.673 7
19 -2 3 248.305 750.599 4
-19 -2 -3 95.2391 371.038 6
-19 3 -2 337.328 329.302 6
-2 -19 3 12.757 433.909 8
-3 -19 -2 1.02942 394 8
2 -19 -3 130.673 390.508 8
-2 -19 3 14.9298 367.791 5
4 19 1 108.128 720.889 3
-1 19 4 970.894 682.142 3
4 19 1 1658.75 373.971 2
-19 1 -4 2202.84 311.701 6
-19 -4 -1 2927.73 346.128 6
19 1 4 323.111 875.47 4
19 -4 1 230.205 806.191 4
19 4 -1 1353.61 735.86 4
-4 19 -1 2120.9 328.471 2
-4 -19 1 3128.4 524.821 5
19 1 4 1726.69 346.552 1
1 -19 4 987.627 477.184 8
-1 -19 -4 1139.13 422.076 8
-1 -19 -4 2807.44 392.865 5
-19 -4 -1 1878.23 364.438 7
1 19 -4 1860.93 383.733 2
4 19 -1 49.176 669.321 3
-4 -19 -1 1996.72 403.169 5
1 19 4 398.4 629.433 3
-19 -1 -4 2238.04 311.551 6
-19 4 -1 1948.04 316.754 6
-19 -4 1 2797.33 338.613 6
19 -1 4 395.337 867.166 4
19 -4 -1 1145.68 800.287 4
-1 -19 4 2611.83 381.23 5
-1 -19 4 896.685 495.655 8
-4 -19 -1 290.666 453.122 8
1 -19 -4 2934.77 493.877 5
-19 4 -1 1530.97 362.038 7
-19 -5 -4 238.152 384.018 7
-19 -5 -4 21.9784 317.055 6
-5 -19 4 337.15 478.793 8
-4 -19 -5 370.738 435.626 8
4 19 -5 1454.55 416.369 2
-5 -19 4 977.098 404.021 5
4 -19 5 1232.62 370.97 5
19 4 5 515.356 330.904 1
-5 -19 -4 368.198 387.977 5
19 -4 5 262.787 354.609 1
-19 -4 -5 142.33 335.18 6
-4 -19 5 987.528 534.98 8
4 -19 -5 696.637 432.385 8
5 19 -4 599.309 403.068 2
19 -6 5 1126.87 351.214 1
-19 5 -6 2579.49 353.552 6
-19 -6 -5 2329.67 344.034 6
19 -6 5 163.334 940.356 4
-6 -19 5 741.912 545.939 8
19 5 6 2198.43 329.925 1
-5 -19 -6 3163.67 474.5 5
-19 -6 -3 298.635 389.448 7
-19 6 3 327.586 408.274 7
6 19 3 112.503 676.87 3
19 3 6 25.5259 835.302 4
19 -6 3 215.017 778.967 4
-19 -6 -3 176.214 335.131 6
19 -6 3 456.546 376.924 1
-19 6 3 352.917 338.582 6
-6 -19 3 339.018 394.403 5
-19 1 -6 448.584 400.25 7
-1 -19 -6 1853.04 431.536 5
-19 6 1 1383.17 385.431 7
19 1 6 167.723 810.415 4
-19 6 1 1493.88 363.525 6
19 6 -1 432.619 736.77 4
19 1 6 1500.4 342.171 1
-1 -19 -6 706.334 465.325 8
1 -19 6 1283.36 396.107 5
-19 -1 -6 650.749 401.635 7
-19 -6 1 1269.92 369.652 7
1 19 6 365.366 677.266 3
19 -1 6 210.967 833.165 4
-19 -6 1 1952.5 347.539 6
-19 -1 -6 1463.74 339.351 6
19 6 1 1024.97 757.814 4
19 -6 -1 170.773 796.579 4
1 -19 -6 832.602 447.972 8
-1 -19 6 1713.72 385.894 5
-6 -19 -3 374.982 471.222 5
-19 -3 -6 26.7005 409.443 7
-19 6 -3 256.96 370.055 7
19 6 3 294.619 347.84 1
-19 -6 3 462.702 373.836 7
3 19 6 67.1648 705.531 3
19 -3 6 77.1237 836.534 4
19 6 3 235.36 801.712 4
-19 -3 -6 291.403 324.418 6
19 -6 -3 162.812 773.351 4
-6 -19 -3 138.694 455.777 8
3 -19 -6 249.234 446.831 8
-3 -19 6 580.8 377.224 5
6 19 -3 247.029 694.417 3
-19 -5 -6 1198.87 409.616 7
5 19 6 493.799 698.284 3
-19 -5 -6 2610.27 335.824 6
-19 6 -5 1901.21 351.677 6
19 6 5 824.442 958.731 4
-6 -19 -5 1109.69 449.73 8
19 -5 6 2030.96 336.017 1
6 19 -5 1678.45 430.523 2
-19 4 -7 1344.63 449.926 7
-19 -7 -4 796.432 382.143 7
19 4 7 931.356 966.949 4
19 4 7 1661.3 377.064 1
19 -7 4 456.922 897.522 4
-7 -19 4 1046.4 538.349 8
-4 -19 -7 2306.43 433.945 5
-7 -19 4 1294.58 420.182 5
-19 2 -7 196.798 478.14 7
-19 -7 -2 253.895 371.085 7
-19 7 2 50.0144 388.635 7
19 2 7 260.611 927.623 4
19 2 7 67.16 362.317 1
-19 2 -7 42.0185 324.715 6
19 -7 2 155.084 880.532 4
-19 -7 -2 47.2116 323.622 6
-19 7 2 191.667 358.1 6
19 -7 2 0.88897 405.062 1
-2 -19 -7 83.0843 467.053 8
-7 -19 0 793.172 483.648 5
-19 0 -7 200.517 441.25 7
-19 7 0 265.808 370.532 7
-19 -7 0 519.654 348.769 7
-19 0 -7 406.372 307.367 6
19 0 7 562.677 335.698 1
-19 -7 0 677.524 336.618 6
19 7 0 112.79 792.512 4
-7 -19 0 1.52276 584.678 8
7 19 -2 41.0581 395.082 2
-19 -2 -7 173.597 439.621 7
-19 7 -2 66.6609 399.586 7
2 19 7 73.7502 732.621 3
-19 -2 -7 192.02 316.745 6
19 -2 7 229.891 329.516 1
-19 7 -2 0.82086 324.99 6
-19 -7 2 105.09 326.69 6
19 -7 -2 418.722 746.764 4
19 7 2 198.201 371.114 1
7 19 -2 273.892 721.677 3
-19 -4 -7 963.346 442.434 7
-7 -19 -4 1729.67 420.294 5
-19 7 -4 867.577 429.929 7
-19 -4 -7 1518.03 316.813 6
19 7 4 1212.67 341.949 1
19 -4 7 1114.63 1047.35 4
-19 7 -4 1566.78 324.812 6
-7 -19 -4 685.303 439.018 8
7 19 -4 1271.93 396.204 2
19 -8 3 31.6495 375.003 1
19 -8 3 152.576 847.298 4
-19 -8 -3 473.756 365.634 6
-19 8 3 89.7641 351.885 6
-8 -19 1 635.406 416.476 5
-19 -8 -1 188.077 357.145 7
19 1 8 324.394 371.206 1
-19 1 -8 553.085 336.438 6
19 -8 1 490.865 858.276 4
-19 -8 -1 790.015 379.414 6
19 8 -1 913.609 754.317 4
-8 -19 1 316.297 502.307 8
-8 -19 -1 508.23 514.579 5
-19 8 -1 395.238 379.41 7
-19 -8 1 636.094 368.807 7
19 -1 8 829.147 397.604 1
-19 -1 -8 509.169 328.713 6
19 8 1 501.288 806.025 4
19 -8 -1 3.66333 825.603 4
-19 -8 1 1018.66 360.273 6
-19 -3 -8 454.836 430.357 7
-8 -19 -3 505.219 508.535 5
-19 -8 3 421.327 388.169 7
-19 8 -3 235.708 421.105 6
19 8 3 470.03 331.601 1
8 19 -3 349.34 710.927 3
-20 0 0 1424.79 373.821 7
0 20 0 479.194 411.345 2
20 0 0 405.173 834.924 4
0 -20 0 559.711 451.289 8
-1 20 -1 1076.23 697.831 3
-20 1 -1 314.536 383.694 7
-20 -1 1 299.513 385.112 7
-20 1 -1 317.731 318.776 6
-20 -1 -1 83.7628 348.062 6
-20 1 1 17.0658 355.584 6
-20 -1 1 65.3202 349.927 6
20 -1 -1 95.087 821.043 4
20 1 -1 207.511 750.051 4
1 -20 -1 463.609 416.587 8
0 20 -2 108.512 659.199 3
-2 -20 0 474.553 500.712 5
2 -20 0 269.695 456.236 5
0 -20 -2 955.041 400.544 5
0 20 -2 970.311 355.307 2
-2 20 0 339.627 598.097 3
-20 0 2 1423.64 400.731 7
0 20 2 53.7517 729.978 3
2 20 0 580.279 395.141 2
-2 20 0 677.736 383.235 2
20 0 2 671.584 857.979 4
20 -2 0 293.531 803.164 4
20 2 0 1029.18 797.276 4
-20 0 2 1537.02 355.126 6
20 0 -2 549.267 756.518 4
0 -20 -2 603.674 410.093 8
-2 -20 2 207.942 416.278 5
2 20 -2 306.372 753.413 3
2 -20 2 459.353 455.114 5
-2 20 -2 265.271 736.309 3
2 20 -2 351.374 374.955 2
2 -20 -2 230.794 372.351 5
-20 2 -2 76.3392 377.033 7
2 20 2 283.736 669.173 3
-2 20 2 672.496 682.916 3
20 -2 2 178.124 879.616 4
-20 2 -2 180.488 332.122 6
-20 2 2 402.205 365.148 6
20 2 -2 290.302 814.945 4
-2 -20 2 145.531 462.121 8
2 -20 2 250.227 476.132 8
-2 -20 -2 113.988 410.377 8
2 -20 -2 169.31 435.487 8
1 20 -3 281.275 388.458 2
-20 1 -3 197.141 380.617 7
-20 -3 -1 110.278 374.261 7
-20 3 1 39.5088 384.38 7
-3 20 -1 267.767 358.803 2
-1 20 3 160.25 659.919 3
-20 1 -3 256.381 402.063 6
-20 -3 -1 232.629 345.37 6
-20 -1 3 61.3535 337.067 6
20 -1 -3 103.053 817.178 4
1 -20 3 8.17626 450.057 8
3 -20 -1 72.972 410.891 8
-1 -20 -3 60.2606 421.624 8
1 20 -3 126.354 714.667 3
-1 20 -3 13.9049 706.568 3
-1 20 -3 145.611 384.702 2
3 20 -1 38.988 755.898 3
-3 -20 -1 370.025 459.164 5
1 -20 -3 387.667 399.104 5
-20 -1 -3 116.971 355.569 7
20 -1 3 210.941 822.921 4
-20 -1 -3 419.504 405.803 6
-20 -3 1 110.335 325.43 6
20 1 -3 183.695 859.232 4
-1 -20 3 11.9857 477.455 8
3 -20 1 242.44 543.936 8
-1 -20 3 120.046 432.443 5
3 20 -3 135.446 416.64 2
-3 20 -3 24.0941 386.562 2
3 -20 -3 218.023 467.834 5
-20 -3 -3 52.5094 356.613 7
-20 3 -3 115.002 374.829 7
-20 3 3 213.818 424.687 7
-20 -3 3 3.49971 418.779 7
3 20 3 153.881 735.794 3
-20 3 -3 20.2359 393.479 6
-20 -3 -3 4.94737 411.763 6
3 -20 3 4.55559 455.285 8
3 -20 -3 17.5568 421.74 8
3 20 -3 167.981 716.488 3
-4 -20 2 604.7 408.647 5
-2 -20 -4 802.519 423.874 5
-20 2 -4 466.744 412.058 7
-20 -4 -2 291.397 383.261 7
4 20 2 64.2754 669.786 3
4 20 2 732.52 380.523 2
20 -4 2 519.304 885.95 4
-20 2 -4 565.827 333.61 6
20 4 -2 401.189 834.322 4
20 2 4 421.109 365.47 1
2 -20 4 155.114 504.402 8
-4 -20 2 119.359 515.475 8
2 20 -4 289.221 391.399 2
2 -20 4 761.352 436.654 5
-4 -20 0 1083.21 489.963 5
0 -20 -4 963.069 477.509 5
-20 -4 0 556.989 360.654 7
0 20 4 24.423 615.287 3
20 0 4 481.908 804.111 4
-20 0 -4 587.119 323.406 6
-20 4 0 670.929 367.635 6
0 20 -4 401.737 387.716 2
0 20 -4 200.542 673.178 3
0 -20 4 666.014 398.013 5
4 20 -2 91.7821 784.776 3
-4 -20 -2 495.62 480.658 5
-20 4 -2 312.777 392.232 7
2 -20 -4 695.739 441.854 5
-20 -4 2 349.583 398.325 7
20 -2 4 105.67 791.651 4
20 4 2 103.228 909.14 4
-20 -2 -4 645.098 378.26 6
-20 4 -2 385.285 340.854 6
-20 -4 2 775.99 348.627 6
-2 -20 4 1.37056 527.439 8
4 -20 2 300.285 461.924 8
-2 20 -4 428.582 396.634 2
-2 -20 4 635.332 400.302 5
-4 -20 -4 340.461 452.373 5
-20 -4 -4 67.4464 408.209 7
-20 4 -4 261.841 426.755 7
-20 -4 -4 82.688 374.184 6
20 4 4 202.872 351.64 1
20 -4 4 167.564 369.411 1
-4 -20 4 1.40783 527.491 8
-4 -20 -4 248.245 443.745 8
-4 -20 4 318.002 419.313 5
-3 -20 -5 128.176 487.18 5
20 3 5 227.161 945.324 4
-20 -5 -3 320.512 361.522 6
3 -20 5 139.383 553.365 8
5 -20 -3 246.947 414.051 8
3 20 -5 234.465 420.482 2
3 -20 5 128.557 395.914 5
-5 -20 3 753.49 470.951 5
-5 -20 1 1349.04 551.475 5
-20 1 -5 396.764 421.367 7
5 20 1 131.948 773.088 3
-1 -20 -5 1002.72 445.209 5
20 1 5 573.82 335.666 1
-1 20 5 301.559 688.32 3
-20 1 -5 803.251 348.004 6
-20 -5 -1 772.704 374.489 6
-20 5 1 867.192 366.636 6
20 5 -1 528.749 760.124 4
1 -20 5 222.474 540.182 8
-1 -20 -5 370.313 439.462 8
1 20 -5 476.581 387.704 2
5 20 -1 652.607 695.92 3
-5 -20 -1 964.15 416.748 5
-20 -1 -5 424.318 411.716 7
-20 5 -1 666.335 380.959 7
1 -20 -5 1318.79 463.437 5
5 20 -1 716.997 381.939 2
20 -1 5 507.431 355.991 1
1 20 5 311.866 739.721 3
20 -1 5 222.4 977.908 4
-20 -1 -5 675.475 335.435 6
20 5 1 675.691 788.054 4
-20 -5 1 755.813 341.805 6
-1 -20 5 463.068 569.032 8
1 -20 -5 190.311 427.222 8
-1 -20 5 1035.14 427.426 5
-20 5 -3 178.987 382.923 7
20 -3 5 122.875 360.608 1
20 -3 5 721.995 974.864 4
-20 5 -3 282.9 433.245 6
20 -5 -3 168.46 799.984 4
-3 -20 5 244.184 589.523 8
-3 20 -5 48.5654 400.126 2
5 20 -3 104.65 766.877 3
#BEGIN Loops that were not found in dictionaries:
loop_
_smtbx_masks_void_nr
_smtbx_masks_void_average_x
_smtbx_masks_void_average_y
_smtbx_masks_void_average_z
_smtbx_masks_void_volume
_smtbx_masks_void_count_electrons
1 -0.760 -0.022 -0.048 14195.0 5716.1
#END Loops that were not found in dictionaries
