#------------------------------------------------------------------------------
#$Date: 2017-12-10 21:25:10 +0200 (Sun, 10 Dec 2017) $
#$Revision: 204138 $
#$URL: file:///home/coder/svn-repositories/cod/cif/7/22/77/7227781.cif $
#------------------------------------------------------------------------------
#
# This file is available in the Crystallography Open Database (COD),
# http://www.crystallography.net/
#
# All data on this site have been placed in the public domain by the
# contributors.
#
data_7227781
loop_
_publ_author_name
'Patyk-Ka\'zmierczak, Ewa'
'Warren, Mark R.'
'Allan, David R.'
'Katrusiak, Andrzej'
_publ_section_title
;
 Pressure inverse solubility and polymorphism of an edible
 \g-cyclodextrin-based metal-organic framework.
;
_journal_issue                   13
_journal_name_full               'Physical chemistry chemical physics : PCCP'
_journal_page_first              9086
_journal_page_last               9091
_journal_paper_doi               10.1039/c7cp00593h
_journal_volume                  19
_journal_year                    2017
_chemical_absolute_configuration rm
_chemical_formula_moiety         'C48 H80 O40, 2(KOH)'
_chemical_formula_sum            'C48 H82 K2 O42'
_chemical_formula_weight         1409.34
_chemical_name_common            '\g-cyclodextrin-metal-organic framework'
_chemical_name_systematic
'catena-((\m8-\g-Cyclodextrin)-di-potassium dihydroxide)'
_space_group_crystal_system      cubic
_space_group_IT_number           211
_space_group_name_Hall           'I 4 2 3'
_space_group_name_H-M_alt        'I 4 3 2'
_atom_sites_solution_hydrogens   geom
_atom_sites_solution_primary     direct
_audit_creation_date             2017-01-18
_audit_creation_method
;
Olex2 1.2
(compiled 2017.01.04 svn.r3372 for OlexSys, GUI svn.r5289)
;
_cell_angle_alpha                90.0
_cell_angle_beta                 90.0
_cell_angle_gamma                90.0
_cell_formula_units_Z            12
_cell_length_a                   31.179(11)
_cell_length_b                   31.179(11)
_cell_length_c                   31.179(11)
_cell_measurement_reflns_used    149
_cell_measurement_temperature    295
_cell_measurement_theta_max      8.7690
_cell_measurement_theta_min      4.6480
_cell_volume                     30310(19)
_computing_cell_refinement       'CrysAlisPro 1.171.38.41 (Rigaku OD, 2015)'
_computing_data_collection       'CrysAlisPro 1.171.38.41 (Rigaku OD, 2015)'
_computing_data_reduction        'CrysAlisPro 1.171.38.41 (Rigaku OD, 2015)'
_computing_molecular_graphics    'Olex2 (Dolomanov et al., 2009)'
_computing_publication_material  'Olex2 (Dolomanov et al., 2009)'
_computing_structure_refinement  'ShelXL (Sheldrick, 2015)'
_computing_structure_solution    'ShelXS (Sheldrick, 2008)'
_diffrn_ambient_environment      'diamond-anvil cell'
_diffrn_ambient_pressure         570000
_diffrn_ambient_temperature      295
_diffrn_detector                 'CCD plate'
_diffrn_detector_area_resol_mean 16.2413
_diffrn_detector_type            Eos
_diffrn_measured_fraction_theta_full 0.790
_diffrn_measured_fraction_theta_max 0.790
_diffrn_measurement_details
;
List of Runs (angles in degrees, time in seconds):

  # Type    Start    End  Width  t~exp~   \w     \q     \k     \f   Frames
--------------------------------------------------------------------------
  1  \f    -35.00  19.75   0.75   10.00   0.00 -30.00   0.00    --    73
  2  \f    140.00 200.00   0.75   10.00   0.00 -30.00   0.00    --    80
  3  \f    160.00 217.00   0.75   10.00   0.00  30.00   0.00    --    76
  4  \f    -20.00  34.75   0.75   10.00   0.00  30.00   0.00    --    73
  5  \w    -24.00  24.00   0.75   10.00    --   30.00  39.46 -12.90   64
  6  \w    -24.00  24.00   0.75   10.00    --   30.00  39.46 167.10   64
  7  \w    -50.00  10.00   0.75   10.00    --  -30.00  39.46 167.10   80
  8  \w    -50.00  10.00   0.75   10.00    --  -30.00  39.46 -12.90   80
  9  \w    -64.00  -8.50   0.75   10.00    --  -30.00  81.40 -28.90   74
 10  \w    -64.00  -8.50   0.75   10.00    --  -30.00  81.40 151.10   74
 11  \w    -19.00   8.00   0.75   10.00    --   30.00  81.40 151.10   36
 12  \w    -19.00   8.00   0.75   10.00    --   30.00  81.40 -28.90   36
 13  \w    -43.00 -21.25   0.75   10.00    --   30.00 134.60 -56.90   29
 14  \w    -43.00 -21.25   0.75   10.00    --   30.00 134.60 123.10   29
 15  \w    -90.00 -36.00   0.75   10.00    --  -30.00 134.60 123.10   72
 16  \w    -90.00 -36.00   0.75   10.00    --  -30.00 134.60 -56.90   72
;
_diffrn_measurement_device       'four-circle diffractometer'
_diffrn_measurement_device_type  'Xcalibur, Eos'
_diffrn_measurement_method       '\w and \f scans'
_diffrn_orient_matrix_type
'CrysAlisPro convention (1999,Acta A55,543-557)'
_diffrn_orient_matrix_UB_11      0.0026630000
_diffrn_orient_matrix_UB_12      0.0015808000
_diffrn_orient_matrix_UB_13      0.0225279000
_diffrn_orient_matrix_UB_21      0.0187021000
_diffrn_orient_matrix_UB_22      0.0125278000
_diffrn_orient_matrix_UB_23      -0.0033899000
_diffrn_orient_matrix_UB_31      -0.0125930000
_diffrn_orient_matrix_UB_32      0.0189554000
_diffrn_orient_matrix_UB_33      0.0002699000
_diffrn_radiation_monochromator  graphite
_diffrn_radiation_probe          x-ray
_diffrn_radiation_type           MoK\a
_diffrn_radiation_wavelength     0.71073
_diffrn_reflns_av_R_equivalents  0.3847
_diffrn_reflns_av_unetI/netI     0.1671
_diffrn_reflns_Laue_measured_fraction_full 0.790
_diffrn_reflns_Laue_measured_fraction_max 0.790
_diffrn_reflns_limit_h_max       15
_diffrn_reflns_limit_h_min       -15
_diffrn_reflns_limit_k_max       15
_diffrn_reflns_limit_k_min       -15
_diffrn_reflns_limit_l_max       7
_diffrn_reflns_limit_l_min       -7
_diffrn_reflns_number            3862
_diffrn_reflns_point_group_measured_fraction_full 0.823
_diffrn_reflns_point_group_measured_fraction_max 0.823
_diffrn_reflns_theta_full        10.213
_diffrn_reflns_theta_max         10.213
_diffrn_reflns_theta_min         4.714
_diffrn_source                   'fine-focus sealed X-ray tube'
_diffrn_source_type              'Enhance (Mo) X-ray Source'
_exptl_absorpt_coefficient_mu    0.161
_exptl_absorpt_correction_type   none
_exptl_crystal_colour            'clear colourless'
_exptl_crystal_colour_lustre     clear
_exptl_crystal_colour_primary    colourless
_exptl_crystal_density_diffrn    0.926
_exptl_crystal_description       plate
_exptl_crystal_F_000             8928
_exptl_crystal_recrystallization_method
'Compressed crystal that was grown in situ from methano:water solution in the diamond-anvil cell at 0.1 GPa.'
_exptl_crystal_size_max          0.17
_exptl_crystal_size_mid          0.16
_exptl_crystal_size_min          0.1
_refine_diff_density_max         0.056
_refine_diff_density_min         -0.048
_refine_diff_density_rms         0.012
_refine_ls_abs_structure_details
;
 Flack x determined using 55 quotients [(I+)-(I-)]/[(I+)+(I-)]
 (Parsons, Flack and Wagner, Acta Cryst. B69 (2013) 249-259).
;
_refine_ls_abs_structure_Flack   0.0(7)
_refine_ls_extinction_method     none
_refine_ls_goodness_of_fit_ref   0.944
_refine_ls_hydrogen_treatment    constr
_refine_ls_matrix_type           full
_refine_ls_number_parameters     76
_refine_ls_number_reflns         283
_refine_ls_number_restraints     71
_refine_ls_restrained_S_all      1.501
_refine_ls_R_factor_all          0.0699
_refine_ls_R_factor_gt           0.0640
_refine_ls_shift/su_max          0.000
_refine_ls_shift/su_mean         0.000
_refine_ls_structure_factor_coef Fsqd
_refine_ls_weighting_details     'w=1/[\s^2^(Fo^2^)] where P=(Fo^2^+2Fc^2^)/3'
_refine_ls_weighting_scheme      calc
_refine_ls_wR_factor_gt          0.1342
_refine_ls_wR_factor_ref         0.1406
_reflns_Friedel_coverage         0.564
_reflns_Friedel_fraction_full    0.887
_reflns_Friedel_fraction_max     0.887
_reflns_number_gt                254
_reflns_number_total             283
_reflns_threshold_expression     'I > 2\s(I)'
_iucr_refine_instructions_details
;

    2.res created by SHELXL-2014/7

TITL 2 in I432 #211
REM reset to I432 #211
CELL 0.71073 31.178648 31.178648 31.178648 90 90 90
ZERR 12 0.010662 0.010662 0.010662 0 0 0
LATT -2
SYMM -Y,+X,+Z
SYMM -X,-Y,+Z
SYMM +Y,-X,+Z
SYMM +X,-Z,+Y
SYMM +X,-Y,-Z
SYMM +X,+Z,-Y
SYMM +Z,+Y,-X
SYMM -X,+Y,-Z
SYMM -Z,+Y,+X
SYMM +Z,+X,+Y
SYMM +Y,+Z,+X
SYMM -Y,-Z,+X
SYMM +Z,-X,-Y
SYMM -Y,+Z,-X
SYMM -Z,-X,+Y
SYMM -Z,+X,-Y
SYMM +Y,-Z,-X
SYMM +Y,+X,-Z
SYMM -Y,-X,-Z
SYMM -X,+Z,+Y
SYMM -X,-Z,-Y
SYMM +Z,-Y,+X
SYMM -Z,-Y,-X
SFAC C H K O
UNIT 576 960 24 504
DFIX 1.45 0.002 C16 O16
DFIX 1.5 0.002 C6 C5
DFIX 1.45 0.002 C6 O6
DFIX 1.5 0.002 C16 C15
DFIX 1.5 0.002 C14 C15
DFIX 2.4 O14 C15
DFIX 1.45 0.002 C14 O14
DFIX 1.45 0.002 C11 O4
DFIX 3 C11 C14
DFIX 1.45 0.002 C4 O4
DFIX 1.5 0.002 C4 C5
DFIX 2 C12 O4
DFIX 3 C12 C15
DFIX 3 C15 C12
DFIX 1.5 0.002 C12 C11
DFIX 2.3 0.002 C5 C1
DFIX 2.8 C1 C4
DFIX 2.5 O5 C6
DFIX 2.2 O15 C16
DFIX 1.45 0.002 O5 C5
DFIX 1.45 0.002 O15 C15
DFIX 1.45 0.002 O15 C11
DFIX 1.45 0.002 O5 C1
DFIX 1.5 C14 C13
DFIX 1.5 C12 C13
DFIX 3 C2 C5
DFIX 3 C5 C2
DFIX 1.5 0.002 C2 C1
DFIX 3 O15 C13
DFIX 1.45 0.002 O13 C13
DFIX 1.45 0.002 O3 C3
DFIX 1.5 0.002 C4 C3
DFIX 3 O5 C3
DFIX 1.5 0.002 C2 C3
DFIX 2.3 C2 O3
DFIX 1.45 0.002 C2 O2
DFIX 2.2 O2 C3
DFIX 1.45 C12 O12
DFIX 1.45 O12 C12
DANG 2.5 O14 C15
DANG 2.4 0.02 C15 C11
DANG 2.5 C11 C4
DANG 2.4 0.02 C12 C14
DANG 2.5 C4 C11
DANG 2.5 O4 C5
DANG 2.5 O4 C12
DANG 2.5 0.02 C1 C5
DANG 2.4 0.02 C14 O15
DANG 2.5 0.02 O5 C4
DANG 2.4 0.02 O15 C12
DANG 2.5 O4 O15
DANG 2.5 O13 C14
DANG 2.5 O13 C12
DANG 2.4 0.02 C13 C15
DANG 2.5 C13 O14
DANG 2.4 0.02 C11 C13
DANG 2.5 0.02 C4 C2
DANG 2.5 0.02 C2 O5
DANG 2.5 0.02 C5 C3
DANG 2.5 O4 C3
DANG 2.5 0.02 C3 C1
DANG 2.5 O2 C1
DANG 2.5 O2 C3
DANG 2.4 O12 C13
DANG 2.6 O12 C11
ISOR K1
 
L.S. 100
PLAN  5
TEMP 21.85
CONN 4 C6
CONN 4 C11
CONN 4 C16
BOND
MORE -1
BOND $H
CONF
fmap 2
acta 52
ABIN
OMIT 1 1 8
OMIT -1 4 7
OMIT 2 4 8
OMIT -2 4 8
OMIT 2 9 9
OMIT 0 2 10
OMIT 1 2 15
OMIT 1 2 11
OMIT -1 2 15
OMIT 0 5 13
OMIT -1 2 9
OMIT 5 5 8
OMIT 0 6 6
OMIT 0 4 8
OMIT 2 3 15
OMIT 0 5 11
OMIT 0 1 9
REM <olex2.extras>
REM <HklSrc "%.\\2.hkl">
REM </olex2.extras>
 
WGHT    0.000000
FVAR       0.19841   0.22197   0.30899
C1    1    0.857204    0.677047    0.630074    11.00000   21.00000
AFIX  13
H1    2    0.850074    0.707634    0.628838    11.00000   -1.20000
AFIX   0
C2    1    0.895681    0.675842    0.658970    11.00000   21.00000
AFIX  13
H2    2    0.890774    0.693510    0.684500    11.00000   -1.20000
AFIX   0
C3    1    0.904658    0.630282    0.671568    11.00000   21.00000
AFIX  13
H3    2    0.913790    0.621025    0.642952    11.00000   -1.20000
AFIX   0
C4    1    0.866402    0.601215    0.673764    11.00000   21.00000
AFIX  13
H4    2    0.856099    0.607797    0.702721    11.00000   -1.20000
AFIX   0
C5    1    0.827165    0.612051    0.648137    11.00000   21.00000
AFIX  13
H5    2    0.835330    0.604270    0.618798    11.00000   -1.20000
AFIX   0
C6    1    0.788630    0.584505    0.656556    11.00000   21.00000
AFIX  23
H6A   2    0.765343    0.589931    0.636652    11.00000   -1.20000
H6B   2    0.795409    0.554148    0.657189    11.00000   -1.20000
AFIX   0
C11   1    0.866480    0.537308    0.720104    11.00000   21.00000
AFIX  13
H11   2    0.868776    0.558784    0.742940    11.00000   -1.20000
AFIX   0
C12   1    0.906367    0.510597    0.716902    11.00000   21.00000
AFIX  13
H12   2    0.913812    0.500399    0.745686    11.00000   -1.20000
AFIX   0
C13   1    0.900415    0.472271    0.688246    11.00000   21.00000
AFIX  13
H13   2    0.903767    0.480835    0.658190    11.00000   -1.20000
AFIX   0
C14   1    0.858035    0.449751    0.694225    11.00000   21.00000
AFIX  13
H14   2    0.857377    0.437262    0.723061    11.00000   -1.20000
AFIX   0
C15   1    0.821563    0.480874    0.690260    11.00000   21.00000
AFIX  13
H15   2    0.815732    0.490984    0.661075    11.00000   -1.20000
AFIX   0
C16   1    0.785159    0.457698    0.711543    11.00000   21.00000
AFIX  23
H16B  2    0.760892    0.476605    0.706900    11.00000   -1.20000
H16A  2    0.780225    0.433329    0.692843    11.00000   -1.20000
AFIX   0
K1    3    0.804630    0.500000    0.804630    10.50000    0.13069    0.54240 =
         0.13069   -0.05143   -0.08004    0.05143
O2    4    0.934865    0.688812    0.637563    11.00000   31.00000
AFIX  83
H2A   2    0.953262    0.670334    0.641001    11.00000   -1.50000
AFIX   0
O3    4    0.947452    0.631351    0.689715    11.00000   31.00000
AFIX  83
H3A   2    0.958350    0.607486    0.687882    11.00000   -1.50000
AFIX   0
O4    4    0.875249    0.555790    0.678340    11.00000   31.00000
O5    4    0.817699    0.657478    0.644900    11.00000   31.00000
O6    4    0.780653    0.602088    0.698873    11.00000   31.00000
AFIX  83
H6    2    0.777922    0.628189    0.697149    11.00000   -1.50000
AFIX   0
O12   4    0.942048    0.537030    0.700759    11.00000   31.00000
AFIX  83
H12A  2    0.964382    0.523180    0.701787    11.00000   -1.50000
AFIX   0
O13   4    0.927772    0.435771    0.697365    11.00000   31.00000
AFIX  83
H13A  2    0.916238    0.413786    0.688688    11.00000   -1.50000
AFIX   0
O14   4    0.853782    0.415383    0.663185    11.00000   31.00000
O15   4    0.826096    0.514346    0.722259    11.00000   31.00000
O16   4    0.777366    0.440421    0.754017    11.00000   31.00000
AFIX  83
H16   2    0.764967    0.417320    0.751945    11.00000   -1.50000
AFIX   0
 
OA    4    0.959204    0.459204    0.750000    10.50000    0.34686
HKLF 4
 
REM  2 in I432 #211
REM R1 =  0.0640 for     254 Fo > 4sig(Fo)  and  0.0699 for all     283 data
REM     76 parameters refined using     71 restraints
 
END  
     
WGHT      0.0000      0.0000 

REM Highest difference peak  0.056,  deepest hole -0.048,  1-sigma level  0.012
Q1    1   0.9454  0.6918  0.6340  11.00000  0.05    0.06
Q2    1   0.7536  0.4407  0.8029  11.00000  0.05    0.05
Q3    1   0.7945  0.5445  0.7447  11.00000  0.05    0.05
Q4    1   0.9984  0.6460  0.6246  11.00000  0.05    0.05
Q5    1   0.8687  0.4515  0.6776  11.00000  0.05    0.05

  REM The information below was added by Olex2.
  REM
  REM R1 = 0.0640 for 254 Fo > 4sig(Fo) and 0.0699 for all 4120 data
  REM n/a parameters refined using n/a restraints
  REM Highest difference peak 0.06, deepest hole -0.05
  REM Mean Shift 0, Max Shift 0.000.

  REM +++ Tabular Listing of Refinement Information +++
  REM R1_all = 0.0699
  REM R1_gt = 0.0640
  REM wR_ref = 0.1406
  REM GOOF = 0.944
  REM Shift_max = 0.000
  REM Shift_mean = 0
  REM Reflections_all = 4120
  REM Reflections_gt = 254
  REM Parameters = n/a
  REM Hole = -0.05
  REM Peak = 0.06
  REM Flack = 0.0(7)

  
;
_cod_data_source_file            c7cp00593h3.cif
_cod_data_source_block           CDMOF_a_0_57GPa
_cod_depositor_comments
'Adding full bibliography for 7227776--7227790.cif.'
_cod_original_cell_volume        30309(18)
_cod_database_code               7227781
#BEGIN Tags that were not found in dictionaries:
_shelx_shelxl_version_number     2014/7
_chemical_oxdiff_formula         'C48 H82 K2 O40'
_shelx_space_group_comment
;
The symmetry employed for this shelxl refinement is uniquely defined
by the following loop, which should always be used as a source of
symmetry information in preference to the above space-group names.
They are only intended as comments.
;
_reflns_odcompleteness_completeness 83.91
_reflns_odcompleteness_iscentric 1
_reflns_odcompleteness_theta     10.19
_olex2_refinement_description
;
1. Fixed Uiso
 At 1.2 times of:
  All C(H) groups, All C(H,H) groups
 At 1.5 times of:
  All O(H) groups
2. Restrained distances
 C16-O16
 1.45 with sigma of 0.002
 C6-C5
 1.5 with sigma of 0.002
 C6-O6
 1.45 with sigma of 0.002
 C16-C15
 1.5 with sigma of 0.002
 C14-C15
 1.5 with sigma of 0.002
 O14-C15
 2.4 with sigma of 0.02
 C14-O14
 1.45 with sigma of 0.002
 C11-O4
 1.45 with sigma of 0.002
 C11-C14
 3 with sigma of 0.02
 C4-O4
 1.45 with sigma of 0.002
 C4-C5
 1.5 with sigma of 0.002
 C12-O4
 2 with sigma of 0.02
 C12-C15
 3 with sigma of 0.02
 C15-C12
 3 with sigma of 0.02
 C12-C11
 1.5 with sigma of 0.002
 C5-C1
 2.3 with sigma of 0.002
 C1-C4
 2.8 with sigma of 0.02
 O5-C6
 2.5 with sigma of 0.02
 O15-C16
 2.2 with sigma of 0.02
 O5-C5
 1.45 with sigma of 0.002
 O15-C15
 1.45 with sigma of 0.002
 O15-C11
 1.45 with sigma of 0.002
 O5-C1
 1.45 with sigma of 0.002
 C14-C13
 1.5 with sigma of 0.02
 C12-C13
 1.5 with sigma of 0.02
 C2-C5
 3 with sigma of 0.02
 C5-C2
 3 with sigma of 0.02
 C2-C1
 1.5 with sigma of 0.002
 O15-C13
 3 with sigma of 0.02
 O13-C13
 1.45 with sigma of 0.002
 O3-C3
 1.45 with sigma of 0.002
 C4-C3
 1.5 with sigma of 0.002
 O5-C3
 3 with sigma of 0.02
 C2-C3
 1.5 with sigma of 0.002
 C2-O3
 2.3 with sigma of 0.02
 C2-O2
 1.45 with sigma of 0.002
 O2-C3
 2.2 with sigma of 0.02
 C12-O12
 1.45 with sigma of 0.02
 O12-C12
 1.45 with sigma of 0.02
 O14-C15
 2.5 with sigma of 0.04
 C15-C11
 2.4 with sigma of 0.02
 C11-C4
 2.5 with sigma of 0.04
 C12-C14
 2.4 with sigma of 0.02
 C4-C11
 2.5 with sigma of 0.04
 O4-C5
 2.5 with sigma of 0.04
 O4-C12
 2.5 with sigma of 0.04
 C1-C5
 2.5 with sigma of 0.02
 C14-O15
 2.4 with sigma of 0.02
 O5-C4
 2.5 with sigma of 0.02
 O15-C12
 2.4 with sigma of 0.02
 O4-O15
 2.5 with sigma of 0.04
 O13-C14
 2.5 with sigma of 0.04
 O13-C12
 2.5 with sigma of 0.04
 C13-C15
 2.4 with sigma of 0.02
 C13-O14
 2.5 with sigma of 0.04
 C11-C13
 2.4 with sigma of 0.02
 C4-C2
 2.5 with sigma of 0.02
 C2-O5
 2.5 with sigma of 0.02
 C5-C3
 2.5 with sigma of 0.02
 O4-C3
 2.5 with sigma of 0.04
 C3-C1
 2.5 with sigma of 0.02
 O2-C1
 2.5 with sigma of 0.04
 O2-C3
 2.5 with sigma of 0.04
 O12-C13
 2.4 with sigma of 0.04
 O12-C11
 2.6 with sigma of 0.04
3. Uiso/Uaniso restraints and constraints
Uanis(K1) \\sim Ueq: with sigma of 0.1 and sigma for terminal atoms of 0.2
4. Others
 Uiso(C1)=Uiso(C2)=Uiso(C3)=Uiso(C4)=Uiso(C5)=Uiso(C6)=Uiso(C11)=Uiso(C12)=
 Uiso(C13)=Uiso(C14)=Uiso(C15)=Uiso(C16)=FVAR(1)
 Uiso(O2)=Uiso(O3)=Uiso(O4)=Uiso(O5)=Uiso(O6)=Uiso(O12)=Uiso(O13)=Uiso(O14)=
 Uiso(O15)=Uiso(O16)=FVAR(2)
5.a Ternary CH refined with riding coordinates:
 C1(H1), C2(H2), C3(H3), C4(H4), C5(H5), C11(H11), C12(H12), C13(H13),
 C14(H14), C15(H15)
5.b Secondary CH2 refined with riding coordinates:
 C6(H6A,H6B), C16(H16B,H16A)
5.c Tetrahedral OH refined with riding coordinates:
 O2(H2A), O3(H3A), O6(H6), O12(H12A), O13(H13A), O16(H16)
;
_shelx_fab_file
;
-7 -11 -8 22.2840 -14.3451
-7 -10 -9 28.6332 -1.2699
-7 -9 -8 -36.0735 -6.3684
-6 -11 -9 43.8743 1.3606
-6 -11 -7 -34.1100 -14.5991
-6 -10 -8 -10.5749 -8.6260
-6 -9 -7 18.0651 -0.7734
-5 -13 -6 0.6270 7.7140
-5 -12 -7 -31.2026 -27.1970
-5 -11 -8 -31.5471 -26.4885
-5 -11 -6 -25.9216 -33.1314
-5 -10 -9 -13.3028 1.4536
-5 -10 -7 3.0836 -31.7070
-5 -9 -8 -10.2749 -12.5454
-5 -9 -6 -15.5414 -24.1594
-5 -8 -7 -19.4403 9.2328
-5 -7 -6 -16.0440 13.6106
-4 -13 -7 7.7683 -3.7553
-4 -13 -5 26.3542 -23.5086
-4 -12 -8 -40.2114 -6.5798
-4 -12 -6 -7.9022 -40.3674
-4 -11 -9 -24.8239 -11.2112
-4 -11 -7 5.3416 -56.8585
-4 -11 -5 -27.2258 -3.1703
-4 -10 -8 -24.4238 -16.5874
-4 -10 -6 -18.0995 -36.6402
-4 -9 -7 0.4686 11.3925
-4 -9 -5 -3.1153 20.7068
-4 -8 -6 9.0085 32.9405
-4 -7 -5 -7.2110 65.0473
-3 -14 -5 16.2689 -12.2338
-3 -13 -8 17.4773 28.4029
-3 -13 -6 38.5717 -4.1491
-3 -13 -4 49.5543 10.4449
-3 -12 -9 -15.9864 11.7603
-3 -12 -7 15.5979 -7.7379
-3 -12 -5 -2.1172 -15.0462
-3 -11 -10 4.5129 -14.8839
-3 -11 -8 1.6727 -26.5222
-3 -11 -6 -3.7890 -20.6275
-3 -11 -4 -12.5199 23.5288
-3 -10 -9 -7.5518 10.6787
-3 -10 -7 -13.0522 -19.4292
-3 -10 -5 2.6859 20.1971
-3 -9 -8 -2.8432 -12.8504
-3 -9 -6 -28.1581 17.4731
-3 -9 -4 0.7331 14.4724
-3 -8 -7 -8.2350 9.3463
-3 -8 -5 -53.4464 65.9292
-3 -7 -6 16.2346 37.5679
-3 -7 -4 -42.6534 64.3392
-3 -6 -5 49.8232 27.6727
-2 -14 -6 -0.8350 -10.8648
-2 -14 -4 -3.4852 33.8212
-2 -13 -7 8.2263 -9.5259
-2 -13 -5 18.3131 35.1677
-2 -13 -3 15.1009 43.9224
-2 -12 -8 1.1082 -3.0256
-2 -12 -6 -16.0788 -8.4655
-2 -12 -4 27.7040 33.3836
-2 -11 -9 -6.2062 -29.7838
-2 -11 -7 -10.1009 -8.8993
-2 -11 -5 -27.2977 -0.7689
-2 -11 -3 -0.1388 30.7370
-2 -10 -8 -20.6171 -27.1511
-2 -10 -6 -6.7578 -28.7910
-2 -10 -4 52.8860 -3.3718
-2 -9 -7 -5.3454 -40.8073
-2 -9 -5 4.3041 50.4048
-2 -9 -3 -21.9911 2.1139
-2 -8 -6 -4.5570 -20.9922
-2 -7 -5 26.7561 39.3960
-2 -7 -3 2.2189 51.1696
-2 -6 -4 68.1249 12.3964
-1 -15 -4 14.8256 6.9481
-1 -14 -5 -10.4094 -1.9305
-1 -14 -3 13.7100 9.7887
-1 -13 -8 -8.2871 5.6145
-1 -13 -6 -17.9408 24.3134
-1 -13 -4 32.8689 17.9022
-1 -13 -2 -39.8624 -30.8287
-1 -12 -9 -7.0379 14.9228
-1 -12 -7 -31.3970 6.5547
-1 -12 -5 -17.3204 16.6448
-1 -12 -3 27.2151 -22.9815
-1 -11 -10 22.0029 -22.2157
-1 -11 -8 50.9665 10.9331
-1 -11 -6 -35.8261 -0.8092
-1 -11 -4 15.7555 -29.9003
-1 -10 -9 63.9777 -6.1080
-1 -10 -7 25.1966 4.4234
-1 -10 -5 -40.8197 -33.2217
-1 -10 -3 61.0911 -34.2105
-1 -9 -8 85.6574 -28.6110
-1 -9 -6 -31.3983 -25.6667
-1 -9 -4 -13.7051 11.6611
-1 -9 -2 -53.1580 -35.2735
-1 -8 -7 -36.9089 -39.7372
-1 -8 -5 -64.6387 24.2304
-1 -8 -3 -14.3743 14.9664
-1 -7 -6 -68.5459 -13.2511
-1 -7 -4 14.3540 43.1887
-1 -7 -2 -5.0987 30.8570
-1 -6 -5 -28.9032 -21.2135
0 6 4 73.4302 -0.0000
0 7 3 -7.6329 -0.0000
0 7 5 -72.3194 0.0000
0 7 7 -145.3105 0.0000
0 8 0 175.5991 -0.0000
0 8 2 -97.5134 0.0000
0 8 6 -42.3402 0.0000
0 8 8 33.9685 -0.0000
0 9 3 16.3636 -0.0000
0 9 5 -86.4729 0.0000
0 9 7 19.8204 -0.0000
0 9 9 84.0019 -0.0000
0 10 0 9.2854 -0.0000
0 10 4 38.0713 -0.0000
0 10 6 -32.4595 0.0000
0 10 8 98.9173 -0.0000
0 10 10 24.9442 -0.0000
0 11 1 -11.3908 0.0000
0 11 3 20.1020 -0.0000
0 11 7 -30.8767 0.0000
0 11 9 7.7568 -0.0000
0 11 11 -7.8806 0.0000
0 12 0 128.5221 -0.0000
0 12 2 -19.6432 0.0000
0 12 4 34.4055 -0.0000
0 12 6 -56.9943 0.0000
0 12 8 -32.0590 0.0000
0 13 1 32.6658 -0.0000
0 13 3 22.3528 -0.0000
0 13 7 -49.8056 0.0000
0 14 0 36.6150 -0.0000
0 14 2 -30.2557 0.0000
0 14 4 12.8540 0.0000
0 14 6 -42.0096 0.0000
0 15 1 -18.5736 0.0000
0 15 3 12.3327 -0.0000
1 6 5 -28.9032 21.2135
1 7 2 -5.0987 -30.8570
1 7 6 -68.5459 13.2511
1 8 3 -14.3743 -14.9664
1 8 5 -64.6387 -24.2304
1 8 7 -36.9089 39.7372
1 9 4 -13.7051 -11.6611
1 9 6 -31.3983 25.6667
1 9 8 85.6574 28.6110
1 10 1 41.0501 0.0000
1 10 3 61.0911 34.2105
1 10 5 -40.8197 33.2217
1 10 7 25.1966 -4.4234
1 10 9 63.9777 6.1080
1 11 2 -81.3020 29.9008
1 11 4 15.7555 29.9003
1 11 6 -35.8261 0.8092
1 11 8 50.9665 -10.9331
1 11 10 22.0029 22.2157
1 12 1 28.8111 0.0000
1 12 3 27.2151 22.9815
1 12 5 -17.3204 -16.6448
1 12 7 -31.3970 -6.5547
1 12 9 -7.0379 -14.9228
1 13 2 -39.8624 30.8287
1 13 4 32.8689 -17.9022
1 13 6 -17.9408 -24.3134
1 13 8 -8.2871 -5.6145
1 14 1 -0.5556 -0.0000
1 14 3 13.7100 -9.7887
1 14 5 -10.4094 1.9305
1 15 4 14.8256 -6.9481
2 5 5 76.2339 0.0000
2 6 4 68.1249 -12.3964
2 6 6 184.9071 0.0000
2 7 3 2.2189 -51.1696
2 7 5 26.7561 -39.3960
2 7 7 33.8889 0.0000
2 8 2 -76.1842 0.0000
2 8 6 -4.5570 20.9922
2 8 8 12.5067 -0.0000
2 9 3 -21.9911 -2.1139
2 9 5 4.3041 -50.4048
2 9 7 -5.3454 40.8073
2 10 2 -60.1146 0.0000
2 10 4 52.8860 3.3718
2 10 6 -6.7578 28.7910
2 10 8 -20.6171 27.1511
2 10 10 -13.1395 -0.0000
2 11 3 -0.1388 -30.7370
2 11 5 -27.2977 0.7689
2 11 7 -10.1009 8.8993
2 11 9 -6.2062 29.7838
2 12 2 -41.8826 -0.0000
2 12 4 27.7040 -33.3836
2 12 6 -16.0788 8.4655
2 12 8 1.1082 3.0256
2 13 3 15.1009 -43.9224
2 13 5 18.3131 -35.1677
2 13 7 8.2263 9.5259
2 14 2 -36.6620 0.0000
2 14 4 -3.4852 -33.8212
2 14 6 -0.8350 10.8648
2 15 3 -4.0845 -38.0163
3 6 3 -49.4673 0.0000
3 6 5 49.8232 -27.6727
3 7 4 -42.6534 -64.3392
3 7 6 16.2346 -37.5679
3 8 3 -26.1401 0.0000
3 8 5 -53.4464 -65.9292
3 8 7 -8.2350 -9.3463
3 9 4 0.7331 -14.4724
3 9 6 -28.1581 -17.4731
3 9 8 -2.8432 12.8504
3 10 3 23.0912 0.0000
3 10 5 2.6859 -20.1971
3 10 7 -13.0522 19.4292
3 10 9 -7.5518 -10.6787
3 11 4 -12.5199 -23.5288
3 11 6 -3.7890 20.6275
3 11 8 1.6727 26.5222
3 11 10 4.5129 14.8839
3 12 3 39.9761 -0.0000
3 12 5 -2.1172 15.0462
3 12 7 15.5979 7.7379
3 12 9 -15.9864 -11.7603
3 13 4 49.5543 -10.4449
3 13 6 38.5717 4.1491
3 13 8 17.4773 -28.4029
3 14 3 19.9140 0.0000
3 14 5 16.2689 12.2338
4 5 5 -1.7487 -0.0000
4 6 4 51.9042 0.0000
4 6 6 -9.6343 0.0000
4 7 5 -7.2110 -65.0473
4 7 7 27.6575 -0.0000
4 8 4 -51.4597 0.0000
4 8 6 9.0085 -32.9405
4 8 8 -30.0766 0.0000
4 9 5 -3.1153 -20.7068
4 9 7 0.4686 -11.3925
4 9 9 33.2559 -0.0000
4 10 4 21.9588 -0.0000
4 10 6 -18.0995 36.6402
4 10 8 -24.4238 16.5874
4 10 10 -34.0333 0.0000
4 11 5 -27.2258 3.1703
4 11 7 5.3416 56.8585
4 11 9 -24.8239 11.2112
4 12 4 -8.9510 0.0000
4 12 6 -7.9022 40.3674
4 12 8 -40.2114 6.5798
4 13 5 26.3542 23.5086
4 13 7 7.7683 3.7553
4 14 4 16.0622 0.0000
5 6 5 -4.5682 -0.0000
5 7 6 -16.0440 -13.6106
5 8 7 -19.4403 -9.2328
5 9 6 -15.5414 24.1594
5 9 8 -10.2749 12.5454
5 10 5 -5.3773 0.0000
5 10 7 3.0836 31.7070
5 10 9 -13.3028 -1.4536
5 11 6 -25.9216 33.1314
5 11 8 -31.5471 26.4885
5 12 5 -16.7358 -0.0000
5 12 7 -31.2026 27.1970
5 13 6 0.6270 -7.7140
6 7 7 -33.0962 -0.0000
6 8 6 -40.0263 0.0000
6 8 8 19.8758 0.0000
6 9 7 18.0651 0.7734
6 9 9 -23.8688 -0.0000
6 10 6 6.5575 0.0000
6 10 8 -10.5749 8.6260
6 10 10 28.1660 0.0000
6 11 7 -34.1100 14.5991
6 11 9 43.8743 -1.3606
6 12 6 -51.6136 0.0000
7 9 8 -36.0735 6.3684
7 10 7 -0.3556 -0.0000
7 10 9 28.6332 1.2699
7 11 8 22.2840 14.3451
0 0 0 0.0 0.0
;
_olex2_exptl_crystal_mounting_method 'Diamond-anvil cell'
_olex2_submission_original_sample_id CDMOF_alpha_9_059
_olex2_submission_special_instructions 'No special instructions were received'
_oxdiff_exptl_absorpt_empirical_details
;
Empirical correction (ABSPACK) includes:
;
_oxdiff_exptl_absorpt_empirical_full_max 1.000
_oxdiff_exptl_absorpt_empirical_full_min 1.000
#END Tags that were not found in dictionaries
loop_
_space_group_symop_id
_space_group_symop_operation_xyz
1 'x, y, z'
2 '-y, x, z'
3 '-x, -y, z'
4 'y, -x, z'
5 'x, -z, y'
6 'x, -y, -z'
7 'x, z, -y'
8 'z, y, -x'
9 '-x, y, -z'
10 '-z, y, x'
11 'z, x, y'
12 'y, z, x'
13 '-y, -z, x'
14 'z, -x, -y'
15 '-y, z, -x'
16 '-z, -x, y'
17 '-z, x, -y'
18 'y, -z, -x'
19 'y, x, -z'
20 '-y, -x, -z'
21 '-x, z, y'
22 '-x, -z, -y'
23 'z, -y, x'
24 '-z, -y, -x'
25 'x+1/2, y+1/2, z+1/2'
26 '-y+1/2, x+1/2, z+1/2'
27 '-x+1/2, -y+1/2, z+1/2'
28 'y+1/2, -x+1/2, z+1/2'
29 'x+1/2, -z+1/2, y+1/2'
30 'x+1/2, -y+1/2, -z+1/2'
31 'x+1/2, z+1/2, -y+1/2'
32 'z+1/2, y+1/2, -x+1/2'
33 '-x+1/2, y+1/2, -z+1/2'
34 '-z+1/2, y+1/2, x+1/2'
35 'z+1/2, x+1/2, y+1/2'
36 'y+1/2, z+1/2, x+1/2'
37 '-y+1/2, -z+1/2, x+1/2'
38 'z+1/2, -x+1/2, -y+1/2'
39 '-y+1/2, z+1/2, -x+1/2'
40 '-z+1/2, -x+1/2, y+1/2'
41 '-z+1/2, x+1/2, -y+1/2'
42 'y+1/2, -z+1/2, -x+1/2'
43 'y+1/2, x+1/2, -z+1/2'
44 '-y+1/2, -x+1/2, -z+1/2'
45 '-x+1/2, z+1/2, y+1/2'
46 '-x+1/2, -z+1/2, -y+1/2'
47 'z+1/2, -y+1/2, x+1/2'
48 '-z+1/2, -y+1/2, -x+1/2'
loop_
_atom_site_label
_atom_site_type_symbol
_atom_site_fract_x
_atom_site_fract_y
_atom_site_fract_z
_atom_site_U_iso_or_equiv
_atom_site_adp_type
_atom_site_occupancy
_atom_site_site_symmetry_order
_atom_site_calc_flag
_atom_site_refinement_flags_posn
_atom_site_refinement_flags_adp
_atom_site_refinement_flags_occupancy
C1 C 0.8572(9) 0.6770(8) 0.6301(10) 0.222(10) Uiso 1 1 d D . .
H1 H 0.8501 0.7076 0.6288 0.266 Uiso 1 1 calc R . .
C2 C 0.8957(8) 0.6758(7) 0.6590(10) 0.222(10) Uiso 1 1 d D . .
H2 H 0.8908 0.6935 0.6845 0.266 Uiso 1 1 calc R . .
C3 C 0.9047(7) 0.6303(8) 0.6716(11) 0.222(10) Uiso 1 1 d D . .
H3 H 0.9138 0.6210 0.6430 0.266 Uiso 1 1 calc R . .
C4 C 0.8664(8) 0.6012(7) 0.6738(11) 0.222(10) Uiso 1 1 d D . .
H4 H 0.8561 0.6078 0.7027 0.266 Uiso 1 1 calc R . .
C5 C 0.8272(7) 0.6121(8) 0.6481(11) 0.222(10) Uiso 1 1 d D . .
H5 H 0.8353 0.6043 0.6188 0.266 Uiso 1 1 calc R . .
C6 C 0.7886(9) 0.5845(10) 0.6566(13) 0.222(10) Uiso 1 1 d D . .
H6A H 0.7653 0.5899 0.6367 0.266 Uiso 1 1 calc R . .
H6B H 0.7954 0.5541 0.6572 0.266 Uiso 1 1 calc R . .
C11 C 0.8665(9) 0.5373(7) 0.7201(9) 0.222(10) Uiso 1 1 d D . .
H11 H 0.8688 0.5588 0.7429 0.266 Uiso 1 1 calc R . .
C12 C 0.9064(8) 0.5106(9) 0.7169(11) 0.222(10) Uiso 1 1 d D . .
H12 H 0.9138 0.5004 0.7457 0.266 Uiso 1 1 calc R . .
C13 C 0.9004(8) 0.4723(10) 0.6882(13) 0.222(10) Uiso 1 1 d D . .
H13 H 0.9038 0.4808 0.6582 0.266 Uiso 1 1 calc R . .
C14 C 0.8580(9) 0.4498(8) 0.6942(11) 0.222(10) Uiso 1 1 d D . .
H14 H 0.8574 0.4373 0.7231 0.266 Uiso 1 1 calc R . .
C15 C 0.8216(7) 0.4809(10) 0.6903(9) 0.222(10) Uiso 1 1 d D . .
H15 H 0.8157 0.4910 0.6611 0.266 Uiso 1 1 calc R . .
C16 C 0.7852(11) 0.4577(11) 0.7115(12) 0.222(10) Uiso 1 1 d D . .
H16B H 0.7609 0.4766 0.7069 0.266 Uiso 1 1 calc R . .
H16A H 0.7802 0.4333 0.6928 0.266 Uiso 1 1 calc R . .
K1 K 0.8046(3) 0.5000 0.8046(3) 0.268(11) Uani 1 2 d S TU P
O2 O 0.9349(10) 0.6888(9) 0.6376(11) 0.309(8) Uiso 1 1 d D . .
H2A H 0.9533 0.6703 0.6410 0.463 Uiso 1 1 calc R . .
O3 O 0.9475(8) 0.6314(11) 0.6897(10) 0.309(8) Uiso 1 1 d D . .
H3A H 0.9584 0.6075 0.6879 0.463 Uiso 1 1 calc R . .
O4 O 0.8752(10) 0.5558(7) 0.6783(10) 0.309(8) Uiso 1 1 d D . .
O5 O 0.8177(7) 0.6575(8) 0.6449(9) 0.309(8) Uiso 1 1 d D . .
O6 O 0.7807(10) 0.6021(11) 0.6989(12) 0.309(8) Uiso 1 1 d D . .
H6 H 0.7779 0.6282 0.6971 0.463 Uiso 1 1 calc R . .
O12 O 0.9420(10) 0.5370(10) 0.7008(11) 0.309(8) Uiso 1 1 d D . .
H12A H 0.9644 0.5232 0.7018 0.463 Uiso 1 1 calc R . .
O13 O 0.9278(10) 0.4358(10) 0.6974(12) 0.309(8) Uiso 1 1 d D . .
H13A H 0.9162 0.4138 0.6887 0.463 Uiso 1 1 calc R . .
O14 O 0.8538(10) 0.4154(10) 0.6632(10) 0.309(8) Uiso 1 1 d D . .
O15 O 0.8261(8) 0.5143(9) 0.7223(9) 0.309(8) Uiso 1 1 d D . .
O16 O 0.7774(10) 0.4404(10) 0.7540(11) 0.309(8) Uiso 1 1 d D . .
H16 H 0.7650 0.4173 0.7519 0.463 Uiso 1 1 calc R . .
OA O 0.9592(15) 0.4592(15) 0.7500 0.35(2) Uiso 1 2 d S T P
loop_
_atom_site_aniso_label
_atom_site_aniso_U_11
_atom_site_aniso_U_22
_atom_site_aniso_U_33
_atom_site_aniso_U_23
_atom_site_aniso_U_13
_atom_site_aniso_U_12
K1 0.131(9) 0.54(3) 0.131(9) -0.051(15) -0.080(12) 0.051(15)
loop_
_atom_type_symbol
_atom_type_description
_atom_type_scat_dispersion_real
_atom_type_scat_dispersion_imag
_atom_type_scat_source
C C 0.0033 0.0016 'International Tables Vol C Tables 4.2.6.8 and 6.1.1.4'
H H 0.0000 0.0000 'International Tables Vol C Tables 4.2.6.8 and 6.1.1.4'
K K 0.2009 0.2494 'International Tables Vol C Tables 4.2.6.8 and 6.1.1.4'
O O 0.0106 0.0060 'International Tables Vol C Tables 4.2.6.8 and 6.1.1.4'
loop_
_geom_angle_atom_site_label_1
_geom_angle_atom_site_label_2
_geom_angle_atom_site_label_3
_geom_angle
_geom_angle_site_symmetry_1
_geom_angle_site_symmetry_3
C2 C1 H1 103.3 . .
O5 C1 H1 103.3 . .
O5 C1 C2 118.5(16) . .
O5 C1 O14 97(2) . 7_556
O14 C1 H1 103.3 7_556 .
O14 C1 C2 129(3) 7_556 .
C1 C2 H2 110.4 . .
C1 C2 K1 159.0(15) . 42_566
C3 C2 C1 109.3(13) . .
C3 C2 H2 110.4 . .
C3 C2 K1 84.6(10) . 42_566
K1 C2 H2 77.5 42_566 .
O2 C2 C1 113(2) . .
O2 C2 H2 110.4 . .
O2 C2 C3 103.1(15) . .
O2 C2 K1 46.9(16) . 42_566
C2 C3 H3 95.4 . .
C4 C3 C2 115.8(13) . .
C4 C3 H3 95.4 . .
O3 C3 C2 104.6(16) . .
O3 C3 H3 95.4 . .
O3 C3 C4 137(2) . .
C3 C4 H4 100.2 . .
C3 C4 C5 119.2(13) . .
C5 C4 H4 100.2 . .
O4 C4 C3 116(2) . .
O4 C4 H4 100.2 . .
O4 C4 C5 115(2) . .
C4 C5 H5 103.3 . .
C4 C5 C6 116(2) . .
C6 C5 H5 103.3 . .
O5 C5 C4 115.0(15) . .
O5 C5 H5 103.3 . .
O5 C5 C6 114.1(18) . .
C5 C6 H6A 112.8 . .
C5 C6 H6B 112.8 . .
H6A C6 H6B 110.3 . .
O6 C6 C5 95(2) . .
O6 C6 H6A 112.8 . .
O6 C6 H6B 112.8 . .
C12 C11 H11 111.5 . .
C12 C11 K1 109.0(16) . .
K1 C11 H11 73.6 . .
O4 C11 H11 111.5 . .
O4 C11 C12 90.3(13) . .
O4 C11 K1 157.1(19) . .
O15 C11 H11 111.5 . .
O15 C11 C12 116.7(14) . .
O15 C11 K1 46.8(14) . .
O15 C11 O4 114(2) . .
C11 C12 H12 108.4 . .
C11 C12 C13 112.2(14) . .
C13 C12 H12 108.4 . .
O12 C12 C11 110(2) . .
O12 C12 H12 108.4 . .
O12 C12 C13 110(3) . .
C12 C13 H13 109.8 . .
C12 C13 C14 113.9(18) . .
C14 C13 H13 109.8 . .
O13 C13 C12 116(3) . .
O13 C13 H13 109.8 . .
O13 C13 C14 97(2) . .
C13 C14 H14 108.5 . .
C15 C14 C13 110.7(17) . .
C15 C14 H14 108.5 . .
O14 C14 C13 110(3) . .
O14 C14 H14 108.5 . .
O14 C14 C15 110.7(17) . .
C14 C15 H15 115.2 . .
C14 C15 C16 103(3) . .
C16 C15 H15 115.2 . .
O15 C15 C14 109.6(15) . .
O15 C15 H15 115.2 . .
O15 C15 C16 96.7(15) . .
C15 C16 H16B 103.4 . .
C15 C16 H16A 103.4 . .
C15 C16 K1 93.3(16) . .
H16B C16 H16A 105.2 . .
K1 C16 H16B 91.9 . .
K1 C16 H16A 152.3 . .
O16 C16 C15 135(3) . .
O16 C16 H16B 103.4 . .
O16 C16 H16A 103.4 . .
O16 C16 K1 50.6(18) . .
C11 K1 C11 163.4(10) . 23_565
C16 K1 C11 63.9(5) 23_565 23_565
C16 K1 C11 102.6(8) 23_565 .
C16 K1 C11 102.6(8) . 23_565
C16 K1 C11 63.9(5) . .
C16 K1 C16 80.2(15) . 23_565
O2 K1 C11 102.2(7) 41_646 23_565
O2 K1 C11 102.2(7) 44_666 .
O2 K1 C11 86.5(7) 44_666 23_565
O2 K1 C11 86.5(7) 41_646 .
O2 K1 C16 83.6(10) 44_666 23_565
O2 K1 C16 83.6(10) 41_646 .
O2 K1 C16 155.4(10) 44_666 .
O2 K1 C16 155.4(10) 41_646 23_565
O2 K1 O2 117.2(14) 44_666 41_646
O3 K1 C11 139.5(8) 41_646 .
O3 K1 C11 139.5(8) 44_666 23_565
O3 K1 C11 53.9(9) 41_646 23_565
O3 K1 C11 53.9(9) 44_666 .
O3 K1 C16 117.5(9) 41_646 23_565
O3 K1 C16 116.4(9) 41_646 .
O3 K1 C16 117.5(9) 44_666 .
O3 K1 C16 116.4(9) 44_666 23_565
O3 K1 O2 87.5(10) 44_666 41_646
O3 K1 O2 87.5(10) 41_646 44_666
O3 K1 O2 54.9(8) 41_646 41_646
O3 K1 O2 54.9(8) 44_666 44_666
O3 K1 O3 107.2(15) 44_666 41_646
O3 K1 O15 145.5(8) 41_646 .
O3 K1 O15 76.6(10) 41_646 23_565
O3 K1 O15 76.6(10) 44_666 .
O3 K1 O15 145.5(8) 44_666 23_565
O15 K1 C11 140.9(11) . 23_565
O15 K1 C11 23.1(4) 23_565 23_565
O15 K1 C11 23.1(4) . .
O15 K1 C11 140.9(10) 23_565 .
O15 K1 C16 42.3(6) . .
O15 K1 C16 88.6(9) . 23_565
O15 K1 C16 88.6(9) 23_565 .
O15 K1 C16 42.3(6) 23_565 23_565
O15 K1 O2 91.8(8) . 41_646
O15 K1 O2 119.3(8) 23_565 41_646
O15 K1 O2 91.8(8) 23_565 44_666
O15 K1 O2 119.3(8) . 44_666
O15 K1 O15 120.1(12) 23_565 .
O16 K1 C11 81.3(9) 23_565 .
O16 K1 C11 81.3(9) . 23_565
O16 K1 C11 87.7(9) 23_565 23_565
O16 K1 C11 87.7(9) . .
O16 K1 C16 83.3(10) 23_565 .
O16 K1 C16 25.7(6) . .
O16 K1 C16 25.7(6) 23_565 23_565
O16 K1 C16 83.3(10) . 23_565
O16 K1 O2 165.0(10) 23_565 41_646
O16 K1 O2 74.2(10) 23_565 44_666
O16 K1 O2 165.0(10) . 44_666
O16 K1 O2 74.2(10) . 41_646
O16 K1 O3 138.7(10) . 44_666
O16 K1 O3 92.2(10) 23_565 44_666
O16 K1 O3 138.7(10) 23_565 41_646
O16 K1 O3 92.2(10) . 41_646
O16 K1 O15 67.6(10) . .
O16 K1 O15 73.6(9) 23_565 .
O16 K1 O15 73.6(9) . 23_565
O16 K1 O15 67.6(10) 23_565 23_565
O16 K1 O16 96.6(14) . 23_565
C2 O2 K1 110(2) . 42_566
C2 O2 H2A 109.5 . .
K1 O2 H2A 56.3 42_566 .
C3 O3 K1 128.8(17) . 42_566
C3 O3 H3A 109.5 . .
K1 O3 H3A 116.2 42_566 .
C11 O4 C4 116(2) . .
C1 O5 C5 105.1(3) . .
C6 O6 H6 109.5 . .
C12 O12 H12A 109.5 . .
C13 O13 H13A 109.5 . .
C14 O14 C1 120(3) . 5_565
C11 O15 C15 114.1(14) . .
C11 O15 K1 110.0(18) . .
C15 O15 K1 120.8(17) . .
C16 O16 K1 104(2) . .
C16 O16 H16 109.5 . .
K1 O16 H16 146.7 . .
loop_
_geom_bond_atom_site_label_1
_geom_bond_atom_site_label_2
_geom_bond_distance
_geom_bond_site_symmetry_2
C1 H1 0.9800 .
C1 C2 1.501(3) .
C1 O5 1.450(3) .
C1 O14 1.49(4) 7_556
C2 H2 0.9800 .
C2 C3 1.500(3) .
C2 K1 3.50(2) 42_566
C2 O2 1.450(3) .
C3 H3 0.9800 .
C3 C4 1.500(3) .
C3 O3 1.450(3) .
C4 H4 0.9800 .
C4 C5 1.500(3) .
C4 O4 1.450(3) .
C5 H5 0.9800 .
C5 C6 1.500(3) .
C5 O5 1.450(3) .
C6 H6A 0.9700 .
C6 H6B 0.9700 .
C6 O6 1.450(3) .
C11 H11 0.9800 .
C11 C12 1.500(3) .
C11 K1 3.47(3) .
C11 O4 1.450(3) .
C11 O15 1.450(3) .
C12 H12 0.9800 .
C12 C13 1.50(2) .
C12 O12 1.47(2) .
C13 H13 0.9800 .
C13 C14 1.51(2) .
C13 O13 1.450(3) .
C14 H14 0.9800 .
C14 C15 1.500(3) .
C14 O14 1.450(3) .
C15 H15 0.9800 .
C15 C16 1.500(3) .
C15 O15 1.451(3) .
C16 H16B 0.9700 .
C16 H16A 0.9700 .
C16 K1 3.25(4) .
C16 O16 1.450(3) .
K1 C11 3.47(3) 23_565
K1 C16 3.25(4) 23_565
K1 O2 2.72(4) 44_666
K1 O2 2.72(4) 41_646
K1 O3 2.59(3) 44_666
K1 O3 2.59(3) 41_646
K1 O15 2.69(3) .
K1 O15 2.69(3) 23_565
K1 O16 2.58(3) 23_565
K1 O16 2.58(3) .
O2 K1 2.72(4) 42_566
O2 H2A 0.8200 .
O3 K1 2.59(3) 42_566
O3 H3A 0.8200 .
O6 H6 0.8200 .
O12 H12A 0.8200 .
O13 H13A 0.8200 .
O14 C1 1.49(4) 5_565
O16 H16 0.8200 .
loop_
_geom_torsion_atom_site_label_1
_geom_torsion_atom_site_label_2
_geom_torsion_atom_site_label_3
_geom_torsion_atom_site_label_4
_geom_torsion
_geom_torsion_site_symmetry_1
_geom_torsion_site_symmetry_4
C1 C2 C3 C4 -30(4) . .
C1 C2 C3 O3 166(3) . .
C1 C2 O2 K1 172.6(17) . 42_566
C2 C1 O5 C5 -65(2) . .
C2 C3 C4 C5 24(5) . .
C2 C3 C4 O4 169(3) . .
C2 C3 O3 K1 -4(4) . 42_566
C3 C2 O2 K1 -70(2) . 42_566
C3 C4 C5 C6 -172(3) . .
C3 C4 C5 O5 -36(4) . .
C3 C4 O4 C11 107(4) . .
C4 C3 O3 K1 -163(4) . 42_566
C4 C5 C6 O6 71(3) . .
C4 C5 O5 C1 52(3) . .
C5 C4 O4 C11 -106(3) . .
C6 C5 O5 C1 -171(3) . .
C11 C12 C13 C14 -42(3) . .
C11 C12 C13 O13 -153(3) . .
C12 C11 O4 C4 -140(2) . .
C12 C11 O15 C15 -48(3) . .
C12 C11 O15 K1 92(2) . .
C12 C13 C14 C15 53(4) . .
C12 C13 C14 O14 176(3) . .
C13 C14 C15 C16 -161(3) . .
C13 C14 C15 O15 -59(3) . .
C13 C14 O14 C1 108(3) . 5_565
C14 C15 C16 K1 92.0(15) . .
C14 C15 C16 O16 59(4) . .
C14 C15 O15 C11 57(3) . .
C14 C15 O15 K1 -78(2) . .
C15 C14 O14 C1 -130(3) . 5_565
C15 C16 O16 K1 44(5) . .
C16 C15 O15 C11 163(3) . .
C16 C15 O15 K1 28(3) . .
K1 C2 C3 C4 166(3) 42_566 .
K1 C2 C3 O3 2(2) 42_566 .
K1 C11 C12 C13 90(2) . .
K1 C11 C12 O12 -148(2) . .
K1 C11 O4 C4 72(5) . .
K1 C11 O15 C15 -139(3) . .
O2 C2 C3 C4 -150(3) . .
O2 C2 C3 O3 46(3) . .
O3 C3 C4 C5 -179(4) . .
O3 C3 C4 O4 -33(7) . .
O4 C4 C5 C6 42(4) . .
O4 C4 C5 O5 178(3) . .
O4 C11 C12 C13 -78(2) . .
O4 C11 C12 O12 44(3) . .
O4 C11 O15 C15 55(3) . .
O4 C11 O15 K1 -165.3(16) . .
O5 C1 C2 C3 55(3) . .
O5 C1 C2 K1 -176(4) . 42_566
O5 C1 C2 O2 169(2) . .
O5 C5 C6 O6 -66(4) . .
O12 C12 C13 C14 -164(3) . .
O12 C12 C13 O13 84(3) . .
O13 C13 C14 C15 175(3) . .
O13 C13 C14 O14 -62(3) . .
O14 C1 C2 C3 -73(3) 7_556 .
O14 C1 C2 K1 57(5) 7_556 42_566
O14 C1 C2 O2 41(3) 7_556 .
O14 C1 O5 C5 76(3) 7_556 .
O14 C14 C15 C16 77(3) . .
O14 C14 C15 O15 179(3) . .
O15 C11 C12 C13 39(3) . .
O15 C11 C12 O12 161(3) . .
O15 C11 O4 C4 100(3) . .
O15 C15 C16 K1 -19.9(19) . .
O15 C15 C16 O16 -52(5) . .
loop_
_refln_index_h
_refln_index_k
_refln_index_l
_refln_F_squared_meas
_refln_F_squared_sigma
_refln_scale_group_code
5 -5 2 4308.76 595.21 14
5 5 2 2452.37 451.42 4
-5 -5 2 4757.51 640.836 3
5 5 -2 4931.84 658.512 4
5 5 -4 46.0882 109.974 4
3 -6 3 100.386 135.651 14
6 3 -3 11.3803 85.2835 4
3 -6 -3 37.2595 123.641 13
-3 -6 3 106.023 137.166 6
-6 -3 3 11.532 92.8898 3
6 -3 -3 22.2826 110.606 12
4 -6 -2 287.799 156.827 13
-4 -6 2 561.929 228.918 6
6 4 -2 401.387 182.249 4
-6 -4 -2 2.01126 79.1105 3
-6 -2 4 469.713 203.534 3
6 0 -4 6908.21 761.645 5
-6 -4 0 4784.57 628.975 3
6 4 0 6858.48 762.889 4
6 2 -4 60.9907 90.466 4
-2 -6 4 172.342 139.338 6
6 2 -4 315.438 177.566 5
4 6 -4 2398.03 475.655 7
6 -4 -4 2064.22 456.726 12
4 6 -4 2044.25 447.319 4
-4 -6 4 1588.66 406.638 6
-5 -6 3 2288.03 470.439 3
-6 5 3 2441.76 495.348 9
6 -5 3 1935.98 451.12 14
5 -6 -3 2043.13 450.245 12
-5 6 -3 1140.34 336.619 16
5 -6 -3 2345.53 447.968 13
6 5 -1 1172.48 359.943 4
-6 -5 -1 482.796 238.993 3
5 6 1 795.822 252.172 4
-5 -6 1 763.524 287.848 6
6 -5 1 793.271 286.97 14
-5 -6 1 935.549 283.28 3
-6 -5 1 835.823 264.316 3
-6 -5 1 896.92 288.322 6
5 -6 1 782.97 280.575 14
-6 5 -3 1447.59 373.369 16
5 6 -3 2204.64 457.577 7
5 -6 3 1512.55 388.396 14
-5 -6 5 126.535 95.2409 6
6 5 -5 176.86 151.553 7
5 6 -5 373.186 211.709 7
-6 -6 0 72.6225 100.203 3
6 6 0 1.90247 85.3608 2
6 -6 2 1458.28 390.321 14
6 -6 -4 595.333 296.866 12
-6 -6 4 807.289 351.493 3
6 -6 -4 421.759 217.979 13
-6 -6 4 887.592 319.506 1
6 6 -4 700.971 256.434 5
6 6 -4 767.378 292.076 7
-6 6 4 689.143 278.321 16
-2 -7 1 836.353 283.846 6
7 2 1 415.381 188.437 5
-1 -7 2 487.632 178.545 11
-2 -7 -1 339.529 169.695 6
-3 -7 2 539.588 225.299 6
7 3 -2 735.178 257.992 4
-7 -3 -2 69.9486 158.713 3
-7 -2 3 627.24 252.31 3
7 -2 -3 773.857 251.679 5
2 -7 3 817.649 290.973 11
2 -7 3 472.683 240.388 14
7 3 -2 547.929 210.071 5
3 -7 -2 634.698 217.482 13
-7 -3 0 924.804 277.841 3
-3 -7 0 1198.07 355.712 6
7 2 -3 832.878 277.239 4
7 2 -3 894.217 297.935 5
-2 -7 3 490.642 206.629 11
7 3 2 449.216 232.258 4
2 -7 -3 655.696 224.327 13
-7 -3 2 813.936 298.398 3
-2 -7 3 712.637 285.431 6
3 -7 2 545.274 243.061 14
-4 -7 3 40.1312 127.25 6
4 -7 -3 112.257 214.926 13
-7 -3 4 18.5925 151.679 3
4 -7 -3 34.2976 101.345 12
7 4 -3 78.2229 119.546 2
-4 -7 3 73.7122 104.618 3
-4 -7 3 11.5373 101.936 11
-7 -1 4 2144.47 447.573 8
7 4 -1 2157.8 452.161 2
7 -1 -4 1748.32 423.055 12
7 -1 -4 2231.96 461.455 5
4 7 1 2073.22 438.741 7
4 7 1 2241.89 432.621 4
7 1 -4 2344.85 481.934 5
-4 7 1 2396.76 474.59 15
4 -7 1 1851.52 446.122 14
7 4 1 2043.36 438.952 2
-1 -7 4 1539.73 390.662 6
4 7 -1 2125.4 446.877 7
7 4 1 1755.89 381.952 5
4 -7 1 2300.51 447.275 11
-7 -4 1 2413.21 503.109 3
7 -4 -1 2484.42 474.809 12
-4 -7 -1 817.424 296.972 6
-7 -4 3 66.6353 120.484 6
-3 -7 4 18.738 95.4708 3
4 -7 3 116.417 125.951 14
-7 4 -3 56.3332 118.315 9
7 3 -4 99.7892 114.559 5
-7 3 4 13.4195 101.41 9
7 -4 -3 147.192 106.636 13
-4 7 3 213.577 163.983 15
-7 -4 3 70.5283 108.871 1
7 3 -4 284.203 196.154 4
-5 -7 4 458.613 230.617 11
-5 -7 4 585.976 253.865 1
-5 -7 4 697.471 349.985 6
-5 -7 4 949.071 318.081 3
-7 5 4 521.186 238.809 16
-7 5 4 567.099 253.107 15
7 5 -4 569.513 268.719 5
-7 -4 5 531.283 241.609 8
7 -5 2 115.101 143.511 14
7 5 -2 535.781 245.574 2
5 -7 -2 306.68 157.812 12
-7 5 2 105.023 150.929 9
-5 -7 2 64.8391 103.566 1
7 5 0 717.204 282.396 4
-7 -5 0 974.387 315.025 1
-7 5 -2 184.743 169.574 9
-5 -7 -2 15.4749 89.0619 1
-5 7 2 90.5068 119.373 15
7 -5 -2 299.181 179.732 12
7 5 2 44.344 132.663 4
7 5 2 289.027 183.049 2
5 7 -4 526.351 245.874 7
-5 7 4 509.49 249.594 15
-7 -5 4 605.509 275.1 1
5 7 -4 704.824 311.361 4
7 -5 -4 364.507 281.048 12
5 7 -4 235.449 181.495 2
5 -7 4 535.35 289.75 14
7 -5 -4 406.439 200.03 13
-4 -7 5 406.662 237.886 6
7 6 -5 326.83 213.1 2
7 6 -5 456.286 298.894 4
-6 -7 5 314.039 187.645 6
-6 -7 5 623.958 249.582 8
-6 7 -3 131.934 161.109 16
-6 -7 3 491.354 233.706 11
7 6 -3 492.074 222.982 5
-7 6 3 548.595 263.868 9
-6 -7 3 463.994 285.524 3
6 -7 -3 261.909 174.945 13
-7 6 3 9.14223 112.041 16
6 7 1 623.204 250.86 4
6 -7 -1 934.413 364.402 12
-6 -7 1 455.083 261.847 3
6 7 1 609.583 263.78 7
-7 6 1 1022.92 339.255 16
-7 -6 -1 441.662 226.776 1
7 -6 -1 751.138 273.056 12
-7 6 -1 286.009 201.034 16
6 7 -3 365.176 221.472 7
7 -6 -3 310.63 195.697 13
-7 -6 3 230.972 172.398 8
-7 -6 3 175.781 136.928 6
-7 6 -3 317.06 210.638 16
6 -7 3 353.321 232.366 14
-7 -6 5 816.477 327.087 1
-7 -6 5 465.292 230.15 8
6 7 -5 322.425 210.919 7
-7 -6 5 502.535 265.917 3
-7 7 0 1357.01 404.128 16
7 -7 -2 260.942 184.555 13
7 -7 2 214.019 101.374 11
-7 -7 -2 13.4305 90.0947 1
7 7 2 24.7377 100.11 7
-7 7 -2 4.79256 102.25 16
-7 7 2 449.458 241.323 15
7 7 2 277.666 176.881 4
7 -7 4 56.9672 156.327 14
7 -7 -4 39.1238 174.669 12
-7 7 -4 36.3361 123.667 16
-7 7 -4 198.33 187.29 15
-7 -7 4 37.1539 153.944 11
7 7 -4 93.5521 191.398 4
-7 -7 4 261.714 231.694 6
-7 7 4 135.475 162.684 16
-7 -7 6 757.829 328.178 3
7 7 -6 789.123 327.601 7
-7 -7 6 1030.93 380.796 1
7 7 -6 852.936 345.27 2
7 7 -6 920.457 375.337 4
8 0 0 18493.1 1304.23 5
-1 8 -1 11653 1059.74 10
1 -8 -1 10161.8 916.485 13
-1 8 1 9681.21 962.571 10
8 -1 1 8896.56 909.391 5
-1 -8 1 12032.5 1056.05 6
-2 -8 0 3002.46 530.558 6
0 8 2 3401.75 573.987 10
0 8 -2 3934.63 631.456 10
8 2 0 3381.1 564.435 5
0 -8 2 3816.65 634.107 11
8 0 -2 3518.82 555.625 12
-8 -2 -2 143.983 137.382 3
-8 -2 2 83.8727 125.71 8
-2 8 2 42.8484 151.427 10
2 -8 2 451.664 218.366 11
2 8 2 80.2552 131.189 10
8 2 -2 538.232 234.436 2
8 2 2 147.311 132.254 4
-2 -8 2 226.199 149.084 6
1 8 -3 412.036 226.039 10
-3 8 -1 493.735 227.039 16
1 -8 3 312.48 215.319 6
-8 -1 3 26.822 94.9869 3
3 8 1 362.446 259.609 4
-8 -1 3 418.226 220.059 8
-8 -3 -1 329.543 193.372 8
3 -8 -1 608.101 272.373 13
-1 -8 3 249.728 178.931 11
1 8 3 235.244 199.272 10
8 1 -3 486.381 248.199 4
3 -8 1 391.054 264.807 11
8 3 1 688.119 249.217 5
-8 -3 1 269.161 182.074 8
8 1 -3 323.753 172.994 5
8 -3 -3 3596.4 626.805 12
-3 -8 3 3490.16 569.462 3
-3 8 3 2110.14 475.195 10
-3 -8 3 3231.7 561.86 11
-3 8 -3 2393.94 518.952 10
-8 3 3 3647.07 617.393 9
8 4 -2 2592.92 550.241 4
2 -8 4 2698.66 543.925 11
8 4 -2 2843.83 547.038 2
8 -4 2 2346.81 502.155 14
-8 -2 4 2009.06 506.951 3
2 -8 4 1262.56 378.072 14
-4 -8 2 2475.14 482.108 1
8 -2 -4 2226.47 485.809 5
4 8 2 2139.35 461.055 10
4 8 2 2256.18 487.228 7
-4 8 -2 2061.97 465.555 16
-8 -2 4 2145.02 476.001 8
8 0 -4 65.3452 128.842 4
8 -4 0 371.271 255.821 5
8 0 -4 164.249 234.411 12
8 0 -4 67.1852 100.489 5
-8 0 4 427.003 221.998 8
-8 0 4 19.6619 129.021 9
0 -8 4 33.1995 142.564 6
0 8 -4 73.8257 110.85 7
0 8 -4 2.78876 87.9922 10
-8 -4 2 2705.88 513.156 6
8 2 -4 2170.08 432.885 12
8 2 -4 2327.13 520.509 4
8 2 -4 2218.62 498.602 5
-4 8 2 2552.01 522.742 16
-2 -8 4 2693.47 552.851 11
-4 8 2 1987.43 455.027 10
8 2 -4 2563.16 509.809 2
-8 2 4 2375.97 541.446 9
-4 -8 4 1377.55 368.135 11
-4 -8 4 1904.09 443.851 1
-4 8 -4 1273.92 396.134 10
-8 4 4 1515.16 391.909 16
4 -8 4 1577.14 447.433 14
8 -4 -4 1054.41 298.82 13
8 -4 -4 1157.1 385.736 12
8 -4 -4 1957.47 439.536 5
-4 8 4 1112.19 363.271 15
-8 -4 4 1986.72 482.208 3
-4 -8 4 1836.37 465.894 6
8 -5 3 1781.65 446.651 14
-5 -8 3 2007.4 502.657 6
-8 -3 5 1576.51 425.021 1
-5 -8 3 2074.19 474.265 3
-8 5 3 2224.5 462.459 8
3 8 -5 2037.47 482.809 7
8 5 -3 2125.19 462.835 5
5 8 3 1203.05 374.071 7
5 -8 -3 1749.98 443.715 12
8 -3 -5 1866.37 489.185 12
8 -5 1 1231.75 394.512 14
-8 5 1 1183.5 395.896 9
5 8 1 1562.28 417.002 7
-8 -5 1 1510.79 391.42 8
5 -8 1 1120.15 344.884 11
-8 1 5 1458.38 401.901 8
8 3 -5 2324.61 517.198 5
5 -8 3 1880.81 491.943 14
8 -5 -3 2267.13 490.955 5
8 -5 -3 2043.69 523.422 12
-3 -8 5 1861.24 496.711 6
-8 -5 3 2104.51 501.356 3
5 8 -3 2242.58 489.136 4
8 -5 -3 2110.48 484.922 13
8 3 -5 1928.31 473.958 4
-8 -5 5 619.462 293.229 1
5 8 -5 688.185 303.346 4
5 8 -5 1126.9 376.238 7
-5 -8 5 900.9 333.738 1
8 5 -5 812.063 296.797 5
5 8 -5 664.699 261.841 10
8 -5 -5 651.054 292.809 12
-5 -8 5 568.302 268.561 6
-8 -5 5 693.536 289.165 6
8 5 -5 871.945 361.283 4
-8 -5 5 701.008 273.838 3
8 6 -4 15.8222 189.402 4
-8 6 4 313.56 219.891 16
6 -8 -4 94.1459 136.094 13
6 -8 -4 4.9668 134.757 12
-6 -8 4 135.604 150.599 11
8 6 -2 925.262 331.313 5
-6 -8 2 907.079 304.583 11
-6 8 -2 714.302 312.735 16
6 8 2 596.873 270.796 10
-8 6 2 709.592 295.66 16
6 8 2 452.203 238.001 2
-6 -8 2 813.417 305.028 3
6 -8 -2 571.844 230.94 13
6 8 0 6.40221 87.6203 7
-8 6 0 529.653 266.238 16
-8 -6 0 210.95 172.468 8
8 -6 0 120.12 141.457 5
6 -8 0 16.1777 103.383 11
-6 -8 0 61.8206 111.388 3
-6 8 0 10.1604 106.685 10
6 8 0 204.023 172.903 2
-8 6 -2 436.427 178.296 9
-6 -8 -2 112.124 147.091 1
-8 -6 4 87.7009 186.978 3
-8 -6 4 92.9129 138.938 1
6 8 -4 67.9666 127.753 5
-6 8 4 61.2839 126.934 9
-8 6 -4 137.087 165.148 15
-6 -8 6 813.842 331.495 1
8 6 -6 326.655 229.282 2
-6 -8 6 370.235 215.479 6
-8 -6 6 835.306 352.012 1
6 8 -6 252.516 206.852 2
8 6 -6 421.285 251.787 4
8 6 -6 510.67 265.515 7
-8 -6 6 536.632 323.411 3
8 7 -5 181.238 216.521 5
7 -8 -5 175.066 219.717 13
8 7 -5 213.757 250.594 4
-8 7 5 1.69451 180.088 9
-7 -8 5 256.75 219.355 1
-7 -8 3 116.736 155.099 11
-8 7 3 242.346 206.298 15
-7 -8 3 372.527 245.294 6
7 8 3 193.463 175.581 7
7 -8 -3 412.918 239.709 13
8 -7 3 220.409 168.686 14
8 7 -3 19.2217 99.5926 5
-7 -8 3 361.93 345.001 3
7 8 3 501.282 269.341 2
-7 8 -3 148.25 182.513 15
-7 -8 3 327.782 231.847 1
7 -8 -3 7.99368 258.634 12
8 7 -3 146.274 166.138 4
-7 8 -3 121.907 107.318 9
8 -7 1 1453.18 460.626 14
8 7 -1 2364.29 542.164 2
7 8 1 2088.48 509.609 7
7 8 1 2259.22 547.932 4
-7 -8 1 1735.11 498.868 3
8 -7 1 2659.13 469.922 5
-8 7 1 2232.74 521.251 15
-8 7 -1 1698.95 472.86 9
-8 -7 1 1241.59 380.933 3
8 -7 -1 2441.4 581.614 12
-8 7 -1 1906.78 491.364 16
-8 -7 1 1665.03 466.224 1
7 -8 1 2349.09 582.76 14
-7 8 1 1576.03 391.32 10
-7 8 1 1954.43 482.037 9
8 -7 -3 303.673 177.537 5
7 -8 3 13.0796 128.698 11
-8 -7 3 79.4176 105.119 11
-7 -8 -3 189.932 180.554 1
8 7 3 2.06184 136.99 4
7 8 -3 259.034 163.099 10
8 7 3 445.91 257.413 2
7 8 -3 78.2285 124.115 4
-8 -7 3 556.079 321.43 3
7 8 -3 354.269 223.43 7
-8 7 -3 14.9945 191.091 9
-7 -8 -3 179.642 226.988 3
8 -7 -3 282.105 206.343 13
7 -8 3 344.999 276.814 14
7 8 -5 14.7376 97.6905 10
8 -7 -5 39.2858 115.177 13
-8 -7 5 170.789 171.143 8
7 8 -5 6.50861 169.646 4
-8 -7 5 75.4344 116.511 6
-7 8 5 224.786 203.844 15
-8 -7 5 65.7537 179.171 3
-8 -7 5 182.257 185.202 1
8 -7 -5 86.3958 151.497 12
-8 -8 0 1815.37 499.99 3
8 8 2 2726.32 643.392 4
8 -8 2 2522.48 629.259 14
-8 -8 -2 1219.04 413.093 1
8 8 2 2678.52 598.063 2
-8 -8 -2 788.692 350.766 3
8 8 -2 3414.16 588.208 5
8 -8 2 2991.6 529.872 5
8 8 -2 3503.51 672.989 7
-8 -8 2 2903.28 628.909 3
8 -8 2 2722.85 533.332 11
-8 8 -4 3.76137 128.463 9
-8 -8 4 44.4048 91.4258 11
-8 8 -4 43.6192 138.065 15
-8 8 4 117.445 158.061 9
8 8 -4 385.594 250.58 7
8 -8 4 40.6184 173.44 14
8 8 -4 94.7499 165.865 5
-8 -8 4 91.87 152.141 6
8 -8 -4 245.944 280.143 12
-8 -8 4 185.815 202.505 1
8 8 -4 90.4081 188.099 4
8 8 -6 37.478 158.036 2
8 8 -6 372.027 253.823 7
-8 -8 6 148.286 180.47 1
8 8 -6 106.622 146.81 10
8 8 -6 69.0517 167.752 4
-8 -8 6 23.2046 112.568 8
-9 0 -1 364.807 171.477 3
1 9 0 475.09 204.426 10
-9 1 0 550.247 225.153 3
9 -1 0 762.877 286.723 5
-9 0 1 465.591 248.36 9
-9 0 -1 226.095 259.847 9
9 1 0 488.761 223.625 2
9 0 1 544.074 256.744 4
9 0 -1 650.84 222.789 5
0 -9 1 688.229 296.112 11
1 -9 2 931.478 334.424 14
-1 9 2 1303.63 383.362 10
-1 -9 -2 1082.16 314.387 13
-1 9 2 1287.08 361.798 15
-9 -2 -1 476.031 241.981 8
9 2 -1 1460.19 389.743 4
9 2 1 676.904 275.426 2
9 1 -2 1224.48 333.063 12
9 2 1 1370.98 422.493 4
-9 -2 1 1569.5 416.115 8
-2 9 1 1048.76 336.121 10
9 1 -2 1426.48 377.522 2
-1 -9 2 1555.69 463.701 6
1 -9 -2 1337.69 360.679 13
-9 -2 1 1013.4 294.986 3
-9 -3 -2 153.478 179.883 3
9 3 -2 260.199 205.265 4
3 9 2 119.827 151.375 4
2 -9 3 65.3737 99.5814 6
9 -3 2 60.1074 108.474 14
9 -2 -3 94.8007 106.439 5
-9 -3 -2 155.378 161.08 8
2 9 -3 73.0622 90.8537 4
-3 -9 2 26.6671 150.095 6
-3 -9 2 28.4786 123.213 11
3 -9 -2 46.7344 132.616 13
-9 3 2 161.244 191.884 9
-9 -2 3 13.6995 94.0981 1
-9 -2 3 200.675 190.258 3
2 9 -3 53.0893 109.501 7
0 9 3 460.732 221.006 15
-9 0 3 606.442 272.743 8
-9 3 0 295.474 218.132 9
0 -9 3 59.5014 198.269 11
-3 9 0 460.119 242.867 16
9 3 0 548.592 310.306 4
9 0 -3 299.489 214.687 12
0 9 3 142.529 137.92 10
9 2 -3 123.642 169.807 4
2 9 3 114.641 169.117 10
2 -9 -3 78.3638 124.199 13
9 2 -3 6.44338 120.442 12
-9 2 3 49.813 139.442 3
9 -3 -2 65.4778 148.495 13
9 3 2 211.987 206.137 4
-9 -3 2 164.768 155.382 1
-3 9 2 81.4719 115.78 10
-3 -9 -2 82.1887 181.158 3
9 4 -3 361.535 201.978 7
3 9 -4 185.687 156.069 2
-9 4 3 108.196 135.857 15
9 -3 -4 20.5741 142.468 5
-4 -9 3 147.559 143.24 11
4 -9 -3 59.1375 83.1659 12
9 -3 -4 84.16 192.608 12
-9 -3 4 140.77 144.458 6
3 9 -4 120.633 141.661 7
3 -9 4 194.987 238.788 11
4 -9 -3 163.517 153.176 13
9 4 -3 163.858 140.655 5
9 -3 -4 90.2977 105.105 13
4 9 3 395.806 233.902 7
-4 9 -3 55.8694 116.938 15
-4 9 -3 324.697 219.358 16
-4 9 -3 244.159 209.196 10
-3 9 4 226.129 191.315 15
-4 -9 3 52.1789 150.976 6
-9 -3 4 27.2165 124.726 1
9 -4 1 1087.63 342.712 5
4 -9 -1 1000.84 375.91 13
1 -9 4 462.634 195.971 14
9 -1 -4 1017.82 377.624 5
4 -9 -1 838.994 320.646 12
1 -9 4 1234.68 394.144 11
9 -4 1 1096.35 346.073 14
9 -1 -4 970.154 331.49 4
-9 -1 4 900.218 283.138 9
-9 -1 4 1022.89 334.749 3
1 9 -4 773.563 299.141 7
-9 -1 4 1237.25 384.39 8
9 4 -1 1171.25 373.886 2
1 9 -4 799.435 297.744 10
9 -1 -4 1400.63 422.503 12
-9 1 4 895.15 326.183 9
9 1 -4 1138.76 340.259 4
9 4 1 794.189 309.036 5
4 9 -1 1236.22 381.069 7
-1 -9 4 801.282 320.373 6
-1 -9 4 1176.95 415.343 11
-1 9 -4 1288.53 409.861 10
9 4 1 1167.3 408.539 4
4 9 -1 1313.27 367.375 2
-9 -4 1 888.248 325.51 8
3 -9 -4 205.612 186.824 13
-3 -9 4 56.2158 172.281 11
4 -9 3 53.4671 146.459 11
-3 -9 4 155.839 147.764 1
9 -4 -3 162.868 211.318 13
-4 9 3 33.6436 96.964 9
-3 9 -4 73.9311 103.526 10
-3 9 -4 25.8617 128.327 15
-3 -9 4 32.808 201.446 3
9 3 -4 114.073 127.509 4
-4 9 3 39.4112 124.944 15
-3 -9 4 20.7792 148.813 6
-9 -4 5 74.869 172.923 3
-9 5 4 182.441 170.688 16
4 9 -5 18.7423 121.246 10
-5 -9 4 84.7372 224.622 3
9 5 -4 162.563 215.856 5
5 -9 -4 38.7022 203.817 13
-9 5 4 98.1376 182.885 9
9 5 -4 4.16849 129.615 4
-9 -4 5 52.8219 122.757 8
-9 5 4 23.0239 108.528 15
-5 9 -4 127.826 181.724 10
-5 9 -4 98.9933 164.096 15
4 9 -5 50.6495 110.11 7
9 -4 -5 25.2693 182.271 12
-9 -2 5 28.99 127.064 3
-9 -2 5 294.378 210.3 8
9 5 -2 448.222 261.907 2
5 -9 -2 128.191 176.344 12
2 9 -5 78.6681 124.068 10
9 -2 -5 72.1017 153.093 12
9 -2 -5 7.25127 150.642 5
9 5 -2 127.702 211.504 4
9 -5 2 93.2357 87.1542 14
-5 -9 2 352.114 217.37 1
-5 9 -2 28.6245 150.088 9
-9 0 5 59.9181 105.405 9
5 9 0 24.8634 120.24 2
9 0 -5 204.641 223.834 5
9 5 2 12.6619 116.749 4
-5 9 2 202.778 181.488 16
9 2 -5 173.329 168.859 2
-9 2 5 75.1697 130.072 8
-2 -9 5 0.21147 107.291 11
9 -5 -2 54.4467 191.317 5
-2 -9 5 199.918 109.478 6
5 -9 2 100.401 154.924 11
9 2 -5 15.434 134.673 4
-9 2 5 57.5551 166.628 9
-9 -5 2 82.5781 142.335 3
5 9 -2 104.47 112.571 4
-5 -9 -2 451.418 268.329 6
9 5 2 40.5355 105.697 7
9 4 -5 261.817 291.625 4
9 -5 -4 54.0474 181.614 12
-4 -9 5 96.757 133.913 1
5 -9 4 93.0431 93.735 11
9 4 -5 133.913 225.213 5
-9 -5 4 126.834 173.418 6
-4 -9 5 10.8303 154.75 11
5 -9 4 3.68312 196.112 14
9 -5 -4 0.19955 133.265 5
9 -5 -4 17.9578 122.721 13
-9 -5 4 17.3685 145.072 3
-5 9 4 104.851 160.738 15
-9 4 5 19.7079 119.29 9
-9 6 5 69.0618 159.46 9
9 6 -5 42.7122 182.818 5
9 6 -5 49.0695 126.035 4
-9 -5 6 113.746 169.03 3
-9 -5 6 67.8078 145.345 1
-6 -9 5 186.722 126.729 11
6 -9 -5 45.6921 214.752 13
9 6 -5 402.745 246.738 7
5 9 -6 138.478 159.146 2
-6 -9 5 27.1307 92.8307 8
-9 -5 6 64.1674 137.138 8
-6 -9 5 63.4869 126.484 3
-9 6 5 218.705 184.593 8
-9 6 3 88.7483 222.277 9
9 6 -3 155.689 163.401 7
6 9 3 57.2402 138.646 7
9 -6 3 158.426 129.944 14
6 9 3 157.524 206.591 4
6 -9 -3 225.932 175.466 13
-6 -9 3 277.935 149.165 3
6 9 1 72.0416 119.365 10
6 9 1 65.283 148.365 7
-9 6 1 173.323 186.156 15
9 6 -1 755.073 331.117 2
6 -9 -1 6.65365 134.032 12
-9 6 1 496.434 265.956 16
6 9 1 17.6333 125.7 2
-9 -6 -1 255.345 200.44 1
9 6 -1 23.9872 96.2348 7
6 9 -1 180.913 206.704 4
-9 -6 1 334.474 119.46 6
9 6 1 95.256 178.537 4
-9 -6 1 326.401 219.264 1
-9 6 -1 231.055 206.25 16
9 6 1 351.299 242.589 2
9 -6 -1 335.152 313.555 12
-6 -9 -1 233.225 209.214 6
-9 -6 1 275.118 205.07 8
6 9 -3 296.461 190.255 10
6 9 -3 565.445 282.644 7
9 -6 -3 376.166 250.964 13
-9 6 -3 183.214 176.39 16
-6 9 3 114.418 101.949 10
6 -9 3 30.7312 152.909 11
9 -6 -3 237.96 234.218 5
-9 6 -3 122.591 218.403 9
-6 -9 -3 107.852 217.574 3
6 -9 3 34.605 183.804 14
-6 9 3 434.136 264.473 15
-9 -6 5 159.562 175.633 1
-5 -9 6 200.858 252.652 6
6 9 -5 47.6866 140.985 2
6 9 -5 21.7424 176.924 10
9 -6 -5 62.043 229.355 12
6 9 -5 170.393 255.377 4
-6 9 5 272.93 218.709 16
-5 -9 6 161.356 176.809 1
9 5 -6 7.78405 174.96 4
9 5 -6 162.247 167.371 7
-9 -6 5 90.5899 232.573 3
-7 -9 6 126.851 185.585 1
9 7 -6 6.54819 188.205 4
9 7 -6 136.443 188.126 2
-7 -9 6 246.084 286.574 3
9 7 -6 248.331 215.709 7
-9 7 4 312.582 231.189 15
9 7 -4 577.12 287.619 7
-9 7 4 31.5818 133.565 16
-7 -9 4 306.227 242.095 11
7 -9 -4 754.582 376.246 13
-7 -9 4 355.281 262.427 3
9 7 -4 520.745 217.026 5
7 -9 -4 481.353 287.718 12
9 -7 4 457.894 323.872 14
7 9 2 246.207 256.214 4
7 9 2 707.002 317.627 7
7 -9 -2 169.026 203.022 12
-9 -7 -2 159.584 199.9 6
-7 -9 2 395.471 254.002 6
-9 -7 -2 204.631 190.727 1
-7 -9 2 289.629 219.623 1
-9 -7 -2 0.96855 158.803 3
9 -7 2 246.817 156.011 11
7 9 2 174.692 178.106 10
9 7 -2 609.12 299.212 4
-9 -7 -2 89.3368 141.247 8
9 -7 0 1498.38 380.975 5
9 7 0 1752.66 463.529 5
7 -9 0 781.487 264.091 11
9 -7 0 1322.06 369.794 11
9 7 0 1316.82 410.57 7
-9 -7 0 806.463 353.475 1
7 9 0 1180.14 343.163 5
7 9 0 992.444 377.365 7
-9 -7 0 507.738 259.282 3
-9 7 0 689.234 320.713 16
-7 -9 -2 48.7311 152.278 6
-9 7 -2 328.59 291.191 9
-9 7 -2 719.562 317.802 15
-9 -7 2 368.172 232.547 8
-9 -7 2 125.616 185.119 3
7 -9 2 233.476 176.897 14
9 -7 -2 379.545 269.161 5
7 9 -2 84.6103 149.457 7
-7 -9 -2 64.7834 129.654 1
9 -7 -2 349.724 282.051 12
9 7 2 454.054 255.115 5
-7 -9 -2 138.093 233.353 3
-9 -7 4 510.279 297.97 1
7 9 -4 466.379 288.789 4
9 -7 -4 306.433 213.292 5
-9 7 -4 241.796 216.373 16
-9 -7 4 480.343 252.87 6
9 -7 -4 437.33 273.825 12
-9 -7 4 371.973 259.328 3
7 9 -6 347.012 247.807 2
7 9 -6 437.078 283.205 7
-9 -7 6 96.0508 164.128 1
7 9 -6 82.3258 204.102 10
-9 -7 6 166.754 179.567 8
7 9 -6 129.733 157.795 4
9 8 -7 242.597 240.613 2
-8 -9 7 668.884 348.913 1
9 8 -7 257.602 265.644 4
9 8 -5 709.668 345.128 2
-9 8 5 401.001 279.182 16
-8 -9 5 232.522 228.824 1
-9 8 5 190.665 179.08 8
8 -9 -5 94.3565 213.367 13
9 8 -5 254.169 310.239 4
9 8 -5 235.408 210.526 5
-9 8 5 404.825 262.106 15
-8 -9 5 360.156 229.725 8
9 8 -5 309.297 248.367 7
-8 -9 5 103.072 164.083 3
9 8 -3 38.491 122.094 7
-8 9 -3 214.033 220.149 10
8 -9 -3 4.66432 216.005 13
-9 -8 -3 371.675 262.871 1
-9 8 3 84.7424 180.416 16
8 9 3 178.774 138.213 4
-9 -8 -3 68.0189 149.479 3
8 9 3 72.7801 151.493 7
-9 8 3 71.4378 267.369 9
9 8 -3 470.189 381.804 4
9 -8 3 150.41 226.796 14
-8 -9 3 19.3241 177.105 3
8 9 3 320.46 239.533 2
-8 9 -3 17.4495 133.682 16
-8 -9 3 70.4313 210.712 6
-8 -9 3 255.314 199.285 8
9 8 -1 316.786 238.089 2
-9 -8 -1 57.0832 137.222 8
-9 -8 -1 80.3018 194.591 3
8 9 1 674.883 272.961 10
-8 -9 1 157.407 206.379 3
9 8 -1 601.416 316.772 4
9 -8 1 442.3 323.565 14
-9 -8 -1 262.072 240.805 1
8 9 1 529.621 283.243 7
-8 -9 1 480.573 244.542 8
8 -9 1 378.147 311.026 14
-8 9 1 782.83 356.039 16
-9 -8 1 272.093 223.019 6
-8 9 1 535.644 293.581 10
-9 8 -1 565.852 308.019 16
-9 -8 1 392.379 273.036 3
9 -8 -1 319.23 210.847 12
-9 8 -1 263.353 183.533 9
8 9 -3 243.94 234.253 5
8 -9 3 286.576 250.401 11
-9 8 -3 14.5107 126.644 15
9 8 3 223.966 227.9 4
9 -8 -3 290.22 242.593 12
9 8 3 374.301 265.952 2
-9 -8 3 114.106 235.655 3
9 8 3 365.033 247.492 7
-8 -9 -3 165.126 237.119 3
-8 9 3 528.646 305.101 16
8 9 -3 269.002 260.461 4
9 -8 -5 47.6181 157.466 12
8 9 -5 154.744 207.408 5
8 9 -5 261.034 255.428 4
-9 -8 5 137.248 176.201 8
-8 9 5 161.756 227.167 9
-8 9 5 2.45441 129.027 16
-9 -8 7 357.661 280.43 1
8 9 -7 60.6344 154.28 2
9 -9 0 1070.66 317.535 5
-9 9 0 965.824 402.595 15
9 9 0 1676.78 503.838 7
-9 -9 0 593.022 284.935 8
9 -9 2 205.117 156.773 11
9 9 2 397.721 206.413 4
-9 -9 2 504.784 306.58 1
9 9 2 297.826 250.86 2
9 9 -2 308.145 332.861 4
-9 9 -2 340.519 407.385 9
9 9 -2 129.083 148.405 10
-9 -9 -2 509.679 339.196 6
-9 9 2 344.307 253.802 15
-9 -9 2 143.913 318.806 3
9 -9 -2 195.504 272.694 12
9 -9 -2 305.607 285.543 13
9 9 -2 120.664 188.166 2
-9 -9 -2 423.626 245.964 8
9 9 2 19.3306 114.679 7
9 9 -4 62.693 159.382 7
9 -9 -4 239.256 209.213 12
-9 9 4 368.067 274.932 16
9 -9 4 313.006 287.801 14
-9 -9 4 276.378 218.613 8
-9 -9 4 111.912 148.354 3
-9 -9 6 352.914 271.618 1
-9 -9 6 76.2964 158.414 6
9 9 -6 167.025 218.228 2
-9 -9 6 85.6131 162.938 8
-9 -9 6 279.016 222.626 3
-10 0 0 895.645 337.026 8
10 0 0 772.709 351.711 5
10 0 0 751.628 283.299 2
10 1 -1 1013.92 337.942 2
1 10 1 877.298 313.398 7
1 10 -1 1174.01 368.478 7
10 -1 -1 1179.21 352.019 4
-1 10 -1 887.114 313.318 16
1 10 1 965.077 309.049 15
10 -1 -1 1088.55 374.371 5
1 -10 1 837.138 275.484 11
10 -1 1 943.582 282.801 4
10 1 1 876.768 320.674 5
-1 -10 -1 932.238 295.904 13
-1 10 1 1053.69 328.498 7
-10 -1 -1 508.506 246.582 1
-10 1 1 1314.19 401.817 8
-1 -10 -1 635.237 264.985 6
0 10 -2 2113.28 462.201 15
0 -10 -2 1139.74 355.639 6
0 10 2 2000.05 455.617 15
0 10 -2 1890.09 499.639 10
0 10 2 1772.78 469.239 10
-2 -10 0 1275.01 370.805 6
0 -10 2 1925 519.74 11
0 -10 -2 1019.39 401.537 13
10 0 2 947.629 312.938 2
0 10 -2 2128.04 478.447 7
-10 -2 0 1045.14 374.174 3
-10 0 -2 783.612 365.887 9
2 -10 0 1871.34 441.342 6
10 0 2 1077.78 388.495 5
10 2 0 2318.23 547.62 5
-2 -10 -2 7.34231 121.619 13
2 -10 2 1.60695 138.017 14
10 -2 2 74.4945 101.821 14
10 -2 -2 139.194 132.065 4
2 -10 -2 173.833 162.185 13
2 10 2 77.8902 206.402 10
10 2 -2 81.0576 152.078 4
10 2 -2 98.7504 143.51 12
-10 -2 -2 8.85052 114.56 1
-10 2 2 149.841 182.309 9
10 2 -2 202.76 234.033 5
-2 -10 -2 191.386 91.9091 3
3 -10 -1 1072.27 317.463 6
3 10 1 1277.68 397.603 7
1 -10 3 1072.82 354.036 6
10 -1 -3 1134.2 411.706 12
-10 -1 3 718.219 263.549 3
1 10 -3 1533.86 427.407 7
10 3 -1 1425.3 407.618 4
1 -10 3 1013.06 353.084 11
-3 10 -1 1407.49 415.341 15
-1 10 3 916.907 327.76 15
1 10 -3 1156.56 351.355 4
-10 -1 3 1115.59 380.24 8
10 -1 -3 1294.37 403.342 4
10 1 -3 1037.96 378.472 5
1 10 3 978.225 389.477 10
10 3 1 1186.86 381.787 2
-3 10 1 669.768 298.284 15
10 3 1 1398.66 464.952 5
-10 1 3 1347.08 368.364 1
3 10 -1 1632.47 412.375 4
-10 1 3 1427.67 385.547 3
-10 3 -1 745.979 280.184 15
-1 10 -3 1343.81 470.807 10
-10 -3 1 842.848 336.509 8
3 10 -1 1304.59 405.776 7
-3 10 -3 3108.92 545.248 7
-3 -10 3 2348.68 548.32 11
10 3 -3 2390.96 505.297 12
-10 3 3 2602.15 602.471 9
3 -10 -3 2195.86 489.067 13
10 3 3 1624.24 458.283 4
-3 -10 3 2382.82 531.192 3
10 3 -3 2702.1 586.49 5
-10 3 3 2797.03 493.222 3
10 -3 -3 2746.85 577.882 5
3 -10 3 2633.56 528.781 6
-3 10 3 2415.6 549.176 16
-10 -3 3 3072.71 614.798 1
3 10 -3 2678.5 545.651 4
3 -10 3 2478.35 575.454 11
-3 10 -3 2031.14 504.52 15
4 10 2 375.206 210.762 10
10 4 -2 796.508 290.209 12
10 -4 2 566.583 315.338 14
2 10 -4 382.881 208.711 2
10 -2 -4 388.022 194.554 4
2 -10 4 493.249 286.928 11
-4 -10 2 417.869 199.111 3
10 -2 -4 611.56 317.934 5
2 10 -4 279.989 150.312 10
2 -10 4 471.772 261.558 6
-2 10 4 358.274 281.607 10
4 -10 -2 630.59 313.962 13
2 10 -4 454.155 235.076 4
-10 -4 -2 139.332 231.542 3
4 -10 -2 509.277 231.042 12
-10 -4 -2 43.883 131.28 8
10 -2 -4 673.417 266.222 2
0 10 -4 981.36 333.466 15
10 4 0 1267.7 395.045 5
0 -10 4 772.821 281.878 11
10 0 -4 1426.61 394.799 2
-10 -4 0 737.667 306.571 3
-10 0 4 1145.57 352.325 3
10 0 -4 628.749 251.183 4
10 0 -4 996.008 391.922 5
-10 4 0 1123.53 352.381 15
0 10 -4 582.334 253.951 16
4 -10 0 878.144 302.291 12
10 0 -4 813.368 322.226 12
-2 10 -4 306.26 230.5 10
10 4 2 308.736 199.324 4
10 2 -4 489.771 234.978 5
-10 -4 2 714.41 337.499 6
-10 -4 2 275.215 186.69 3
4 -10 2 562.065 272.746 6
10 -4 -2 496.532 324.958 13
-2 -10 4 221.25 170.498 1
-4 10 2 510.386 221.948 10
4 10 -2 381.144 264.969 10
-4 10 2 525.135 229.981 9
-2 -10 4 658.432 357.678 6
10 4 2 183.181 209.457 5
10 -4 -2 651.89 332.222 12
10 2 -4 465.854 174.095 4
-10 2 4 544.359 222.008 3
-10 4 4 219.326 192.646 8
4 -10 -4 127.557 178.485 13
-4 10 4 341.565 241.088 15
4 -10 4 50.1159 152.144 14
-4 -10 4 69.5605 206.518 3
-4 10 4 68.2063 139.679 16
10 4 -4 135.619 220.603 12
10 4 -4 225.689 212.347 2
10 -4 -4 97.5037 142.374 5
10 -4 -4 26.9876 216.336 12
-10 4 4 72.0546 132.754 9
-4 -10 4 212.163 179.901 1
4 10 -4 102.184 150.416 4
-10 4 4 480.082 252.628 16
10 4 -4 183.433 164.969 4
-10 4 4 23.0317 104.6 15
-10 5 3 570.058 272.289 16
-5 -10 3 595.51 307.408 6
10 -3 -5 909.697 362.528 5
-10 5 3 775.874 385.504 9
-10 -3 5 939.521 361.847 1
5 -10 -3 407.621 243.199 12
-10 5 3 330.795 217.113 15
-10 -3 5 489.407 232.276 9
10 5 -3 506.771 233.355 12
-10 -3 5 352.285 254.789 3
10 5 -3 924.366 356.573 4
-10 -5 -3 23.6081 102.798 1
3 -10 5 607.427 320.791 11
-5 10 -3 643.581 320.864 10
10 5 -3 758.61 324.644 5
10 -3 -5 502.24 376.341 12
10 5 -3 123.376 147.686 7
5 10 3 108.563 166.87 7
-5 -10 3 793.079 316.82 1
10 -5 3 417.453 301.118 14
10 5 -3 599.531 297.821 2
3 10 -5 136.419 173.175 7
-10 -1 5 214.882 186.719 1
-5 10 -1 223.87 216.406 15
10 -1 -5 80.9514 162.588 5
5 -10 -1 8.74669 113.465 12
10 -1 -5 148.299 181.559 12
5 -10 -1 18.709 172.802 13
-5 -10 1 96.6959 138.6 6
-10 -5 -1 65.5527 204.229 6
-10 -1 5 95.2093 135.577 3
-10 -5 -1 264.06 221.325 1
10 5 -1 131.406 165.104 2
10 5 -1 145.403 155.156 7
1 10 -5 285.447 212.904 7
10 -5 1 71.7012 150.554 5
-10 -1 5 69.2145 148.957 8
-10 -5 -1 213.585 296.936 3
1 10 -5 116.04 135.744 10
-5 -10 -1 81.2678 136.965 3
10 1 -5 69.5376 124.601 2
10 5 1 337.882 208.238 7
-10 -5 1 21.2152 142.396 6
10 -5 -1 73.656 181.264 5
10 1 -5 233.129 264.648 12
-1 -10 5 181.767 233.424 6
5 10 -1 675.484 289.149 2
-10 -5 1 238.466 220.393 3
10 5 1 40.8183 124.918 5
10 1 -5 101.848 134.01 5
10 1 -5 73.8166 218.281 4
-1 10 -5 547.526 264.736 15
-10 1 5 45.132 142.24 9
-5 -10 -1 229.302 194.736 1
-1 -10 5 258.344 180.27 11
10 5 1 105.044 135.311 4
-10 1 5 222.443 174.285 1
-3 10 -5 174.299 184.355 15
10 3 -5 619.293 318.718 5
-10 -5 3 610.125 239.135 6
10 -5 -3 573.354 350.516 12
-5 10 3 539.495 268.596 10
-3 -10 5 721.522 367.739 6
5 10 -3 544.006 285.883 10
-10 3 5 790.65 299.439 16
-10 3 5 518.846 295.743 9
10 3 -5 690.014 317.364 4
-10 3 5 359.774 235.222 8
-3 -10 5 471.841 233.86 11
-5 -10 -3 207.726 230.958 3
-3 -10 5 433.292 237.513 1
-10 -5 5 934.55 374.431 1
10 5 -5 447.262 308.749 4
-10 -5 5 530.839 281.172 3
-5 10 -5 376.749 258.299 15
5 -10 5 496.613 300.824 14
10 -5 -5 657.53 333.137 5
10 -5 -5 792.648 366.289 12
5 10 -5 580.665 299.642 7
-10 5 5 643.722 368.733 9
-5 -10 5 503.82 273.228 11
10 5 -5 482.354 272.85 5
-10 -5 5 676.535 310.091 9
5 10 -5 660.813 316.558 10
10 5 -5 584.397 315.054 2
-10 -5 5 584.185 302.255 8
5 10 -5 1090.33 401.478 4
10 5 -5 652.701 291.311 7
-10 5 5 596.457 289.72 16
-6 -10 4 869.196 421.303 6
-10 -4 6 733.952 389.563 3
-6 -10 4 396.458 263.052 1
6 -10 -4 272.239 193.41 13
6 -10 -4 221.909 178.496 12
-10 -4 6 555.188 296.022 8
-10 6 4 789.296 380.781 9
10 6 -4 722.552 319.069 5
-10 6 4 28.778 123.479 15
-10 -4 6 856.47 360.108 1
-6 10 -4 362.299 266.151 15
10 6 -4 405.063 253.03 7
-10 6 4 606.074 303.922 16
10 6 -2 1327.76 406.907 7
-6 10 -2 724.598 332.184 15
-6 -10 2 1215.61 414.242 6
10 -6 2 1255.55 460.667 14
10 6 -2 1310.97 442.761 2
-10 -6 -2 409.555 209.684 6
-10 -6 -2 174.477 190.691 1
-10 -2 6 1093.85 397.058 8
-6 -10 2 862.413 304.085 3
-10 -6 -2 243.681 144.515 3
-10 -6 -2 370.783 243.295 8
-10 -2 6 1353.45 428.072 1
10 6 0 1053.47 390.012 5
6 -10 0 663.073 292.332 12
6 -10 0 488.158 261.251 11
-6 10 0 461.422 282.636 15
-10 0 6 620.051 306.271 8
-6 -10 0 645.346 341.121 6
6 10 0 731.184 331.364 7
10 6 0 848.362 299.766 4
-10 6 -2 628.983 352.573 9
-10 -6 2 966.541 386.674 3
-10 6 -2 1125.87 389.227 15
-10 -6 2 1703.67 470.917 8
6 -10 2 1558.37 459.836 11
6 10 -2 1498.27 460.116 7
6 -10 2 1208.19 464.169 14
10 6 2 588.008 343.311 5
10 2 -6 1283.62 414.689 2
10 -6 -4 740.573 328.235 13
6 -10 4 737.012 330.068 11
-4 -10 6 86.6991 168.307 6
-6 10 4 739.008 349.379 16
-10 -6 4 269.158 182.816 3
6 10 -4 864.337 373.756 7
6 10 -4 746.004 296.532 10
6 10 -4 660.592 329.499 4
-6 10 4 709.185 343.36 15
10 -6 -4 567.352 257.831 5
10 4 -6 467.774 319.801 4
6 -10 4 393.102 208.863 14
-10 -6 4 387.565 253.938 8
-6 -10 6 1499.03 474.934 1
-10 -6 6 1271.24 476.022 3
-6 -10 6 911.504 404.254 6
10 -6 -6 995.678 411.137 12
10 6 -6 842.114 389.568 5
6 10 -6 1558.81 484.388 2
6 10 -6 738.281 357.825 10
10 6 -6 901.011 389.801 2
6 10 -6 636.876 318.542 4
10 6 -6 1149.66 431.826 4
-10 -6 6 1277.82 455.499 1
10 6 -6 1191.08 410.145 7
-7 -10 5 59.905 171.052 3
-7 -10 5 108.871 150.078 11
10 7 -5 677.68 373.73 5
10 7 -5 520.928 312.989 2
-10 7 5 216.996 197.809 8
7 -10 -5 12.0093 181.099 13
-7 10 -5 216.896 231.983 16
10 7 -5 209.817 209.3 7
-10 7 5 420.855 275.463 16
7 10 3 119.952 185.026 7
10 7 -3 189.872 199.944 7
10 -7 3 19.2114 188.967 14
7 -10 -3 110.982 273.941 12
-7 -10 3 105.215 164.149 3
-7 -10 3 60.875 124.29 11
-10 -7 -3 173.025 189.014 1
7 10 3 34.3648 177.406 4
-7 10 -3 39.9789 236.939 9
-7 -10 3 99.5488 137.266 8
7 10 1 58.9254 122.681 5
-7 10 -1 292.259 250.64 16
7 10 1 36.4079 119.928 7
10 -7 1 176.28 186.772 11
10 -7 1 214.294 270.772 14
-10 -7 -1 132.544 325.106 6
7 10 1 27.8373 102.235 10
-7 -10 1 154.953 176.189 3
-7 -10 1 217.879 274.553 6
-10 7 1 134.106 223.315 9
-10 -7 -1 90.2098 147.143 3
7 -10 1 213.422 341.391 14
-10 -7 1 75.2403 234.604 6
10 7 1 103.48 149.252 7
10 -7 -1 92.8587 217.733 12
10 -7 -1 84.3305 127.979 11
-7 -10 -1 366.387 262.35 1
-7 -10 -1 105.371 236.771 6
-7 -10 -1 94.7082 130.485 8
-10 7 -1 4.08575 151.951 15
10 7 1 145.624 222.189 4
-7 10 3 378.572 261.156 16
-10 7 -3 171.808 330.432 9
10 -7 -3 341.277 289.935 13
-10 -7 3 93.539 138.115 6
-7 -10 -3 333.028 236.303 1
-7 10 3 105.865 174.348 9
7 10 -3 113.458 159.649 5
-10 7 -3 325.187 249.713 16
-10 -7 3 28.9653 160.463 3
-7 10 3 70.849 176.997 10
10 7 3 89.4113 149.367 4
7 -10 3 143.462 199.049 11
7 -10 3 28.6389 235.568 14
10 -7 -3 119.514 220.561 12
10 7 3 537.341 306.14 2
-7 -10 -3 131.038 155.987 3
10 -7 -3 4.9908 143.211 5
7 10 -3 110.931 274.554 4
10 -7 -5 331.71 258.078 12
-7 10 5 564.487 323.197 16
10 -7 -5 219.168 243.014 13
-7 10 5 25.0982 127.74 15
-10 -7 5 26.0454 158.879 6
-10 -7 5 344.719 305.062 3
-10 -7 5 408.13 263.468 8
7 10 -5 114.262 183.722 4
-10 -7 7 128.544 203.047 1
10 7 -7 397.953 297.022 2
10 7 -7 337.543 259.346 4
7 10 -7 453.092 305.752 7
10 8 -6 165.846 223.858 2
-8 -10 6 247.63 293.049 6
-10 8 6 357.197 218.292 9
10 8 -6 400.163 233.804 5
-8 -10 6 289.485 264.321 1
-10 8 6 371.196 265.051 16
-8 -10 6 538.412 276.575 8
10 8 -6 203.739 214.619 4
-8 -10 6 92.336 298.319 3
10 8 -6 287.065 247.898 7
-8 -10 4 854.928 388.4 3
10 -8 4 934.503 429.508 14
-8 -10 4 751.653 344.832 6
8 -10 -4 334.672 167.558 13
8 -10 -4 775.562 377.794 12
-8 -10 4 1682.27 524.042 1
-8 -10 4 863.576 402.672 11
10 8 -4 792.282 332.74 5
-8 -10 4 1058.25 359.935 8
-10 8 2 844.538 377.849 16
8 -10 -2 161.955 125.845 5
10 -8 2 476.179 260.996 14
8 -10 -2 354.373 226.633 12
10 8 -2 695.954 327.93 7
10 -8 2 195.973 215.96 11
8 10 2 165.859 173.189 10
8 10 2 515.943 288.431 2
8 10 2 273.68 205.723 5
-8 10 -2 70.589 161.672 16
8 10 0 696.682 346.937 7
-10 8 0 723.256 354.363 16
10 -8 0 452.253 220.402 11
-8 -10 0 721.13 342.991 1
-10 -8 0 813.261 342.12 8
-8 -10 0 551.989 257.606 8
-10 -8 2 303.376 215.377 11
8 10 -2 90.3287 177.473 2
8 10 -2 227.459 203.041 4
-8 10 2 747.242 371.883 16
-10 -8 2 526.563 299.593 1
10 -8 -2 374.057 326.061 12
8 10 -2 392.818 213.283 5
10 8 2 398.513 264.536 7
-10 8 -2 392.533 270.6 16
-8 -10 -2 148.382 207.722 1
8 10 -2 386.98 266.445 7
10 8 2 408.603 241.204 5
8 -10 2 61.7207 163.858 14
10 -8 -2 423.826 198.886 5
8 -10 4 715.394 407.665 14
8 10 -4 1176.65 439.845 2
10 -8 -4 641.515 375.292 12
-10 -8 4 520.969 226.492 11
8 -10 4 1059.25 436.086 11
-8 10 4 1174.6 456.768 9
8 10 -4 1083.16 360.775 5
-10 8 -4 1198.14 449.165 15
-10 -8 4 1041.17 462.286 6
-10 -8 4 562.147 297.201 3
8 10 -4 754.437 364.527 7
-10 -8 4 1261.88 460.389 1
-10 8 -4 73.9291 198.704 9
-10 -8 4 1325.6 435.803 8
8 10 -6 153.636 211.063 2
-10 -8 6 461.99 318.304 1
-10 -8 6 272.392 149.94 6
-10 -8 6 82.4601 281.811 3
-10 -8 6 138.055 190.425 8
8 10 -6 66.1996 254.745 4
-9 -10 7 30.1845 176.886 1
-9 -10 7 89.6027 174.96 3
10 9 -7 406.989 314.781 2
-9 -10 7 46.0424 201.935 6
-9 -10 7 82.5154 166.194 8
10 9 -7 150.172 243.066 4
10 9 -7 384.802 297.5 7
-10 9 5 118.19 217.743 16
-9 -10 5 73.8589 205.525 6
-9 -10 5 437.168 375.283 3
-10 9 5 204.098 199.171 8
9 -10 -5 121.683 300.57 13
9 -10 -5 298.224 306.127 12
-9 -10 5 181.055 152.566 11
-9 10 -5 68.7478 170.396 16
-10 9 5 111.113 238.782 9
-9 -10 5 228.72 260.107 1
10 9 -5 226.569 215.216 4
-9 10 -5 420.998 312.757 15
-10 9 3 188.965 232.743 16
9 10 3 292.107 355.149 4
9 -10 -3 291.936 292.346 12
-9 10 -3 617.862 355.198 15
-9 -10 3 245.974 207.923 11
10 -9 3 147.499 168.547 5
-10 -9 -3 512.828 328.275 1
10 9 -3 945.285 406.013 7
9 10 3 337.913 261.822 7
-9 -10 3 125.957 171.248 8
-10 9 3 278.517 261.82 15
-9 10 -1 35.1957 148.973 16
-10 9 1 41.3587 177.638 16
10 9 -1 88.0381 234.349 4
-9 -10 1 330.345 271.443 6
-9 -10 1 290.215 355.903 3
-9 -10 1 156.888 219.545 1
-10 9 1 391.498 275.975 15
9 -10 -1 70.9352 287.168 12
9 10 1 260.712 249.91 2
9 10 1 316.889 205.067 10
9 10 1 660.218 347.32 7
10 -9 1 518.79 275.878 5
10 -9 1 171.318 303.213 14
-10 -9 -1 161.103 297.001 3
10 9 -1 292.953 224.167 10
-9 -10 1 11.6642 132.468 8
10 9 1 397.942 294.062 4
-9 10 1 1.12898 176.594 15
9 -10 1 304.855 277.954 14
-10 -9 1 187.697 242.033 1
-9 10 1 240.855 256.179 16
10 -9 -1 169.217 292.343 12
9 -10 1 404.994 289.177 11
10 -9 -1 497.849 297.593 11
-9 10 1 446.116 242.869 9
-9 -10 -1 304.511 219.926 8
10 9 3 584.882 325.994 7
9 -10 3 297.642 264.962 11
10 -9 -3 132.759 138.267 5
10 9 3 80.6019 174.197 4
-10 -9 3 269.102 358.199 6
9 10 -3 409.841 265.573 5
-10 -9 3 232.189 284.185 3
10 -9 -3 390.347 346.059 12
9 -10 3 401.595 269.738 5
10 9 3 204.001 219.388 2
-9 10 3 890.176 318.248 8
-10 -9 3 144.137 193.028 8
-10 9 -3 1185.66 457.909 16
-9 -10 -3 320.428 282.883 3
9 10 -3 339.655 387.157 4
-10 -9 5 124.222 185.518 3
-9 10 5 99.2549 302.408 9
10 -9 -5 20.9806 251.335 13
-10 -9 5 527.581 332.061 1
9 10 -5 292.28 209.744 5
-9 10 5 331.227 272.049 16
-10 -9 5 46.0009 268.575 6
9 -10 5 17.6016 177.83 14
-10 9 -5 97.125 184.858 15
-10 -9 7 370.445 281.324 1
9 10 -7 219.916 241.001 2
-10 -9 7 20.0236 295.272 3
9 10 -7 217.013 230.18 10
-10 -9 7 208.626 219.392 8
9 10 -7 27.6419 212.795 4
-10 -10 0 215.458 231.627 1
10 10 0 25.3467 243.807 4
-10 -10 0 99.6227 339.625 3
10 -10 0 130.346 172.491 5
10 -10 0 81.6213 231.585 11
10 10 0 473.833 304.545 7
-10 -10 0 118.642 178.055 8
10 10 -2 243.259 243.912 7
-10 10 2 598.51 349.818 16
-10 -10 2 46.8616 188.816 1
10 -10 -2 435.045 309.076 12
10 10 -2 28.6592 200.028 2
10 -10 -2 504.59 310.506 13
-10 10 2 392.075 293.951 15
10 -10 -2 756.955 302.546 5
-10 -10 2 212.219 200.024 3
10 10 2 413.175 211.676 5
10 10 2 247.006 261.336 2
-10 10 2 217.751 244.209 9
10 10 -2 228.924 281.288 4
10 10 2 107.817 179.993 7
10 -10 2 226.806 190.902 11
-10 -10 -2 38.3831 185.912 3
-10 10 4 794.226 398.314 16
-10 -10 4 1145.76 436.399 3
-10 10 -4 356.538 296.68 15
-10 10 4 736.944 377.661 15
-10 10 -4 113.123 168.783 9
10 -10 -4 1092.25 469.882 12
-10 -10 4 795.485 282.231 11
10 10 -4 1334.42 462.772 5
10 10 -4 1276.73 434.282 10
-10 -10 4 1130.02 460.646 1
-10 -10 4 1181.25 419.099 8
10 10 -4 1450.88 612.875 4
10 10 -6 24.3499 192.995 2
-10 -10 6 205.041 256.685 6
-10 -10 6 94.7866 244.787 3
10 -10 -6 442.114 420.061 13
10 10 -6 288.462 257.72 7
10 -10 -6 52.207 310.065 12
-10 -10 6 316.168 272.201 1
-10 -10 6 576.641 313.013 8
10 10 -6 44.7943 326.192 4
0 11 1 886.168 329.625 7
-11 0 1 576.263 261.713 1
11 0 -1 29.2634 121.754 2
0 -11 1 405.887 225.43 6
-11 0 -1 357.969 242.388 8
0 -11 1 425.163 304.96 11
0 11 -1 56.4298 131.918 16
-11 0 -1 88.1185 138.672 1
0 11 1 127.961 157.866 10
-1 11 0 406.303 263.368 10
11 0 -1 448.618 309.223 5
-11 -1 0 208.757 289.939 9
0 11 -1 152.476 133.667 10
-11 0 -1 49.3746 241.194 9
11 0 -1 251.825 142.912 4
11 -2 1 1264.68 361.397 4
-1 11 2 578.759 262.443 7
2 11 1 1469.84 382.523 15
2 11 1 1040.11 385.233 10
11 2 -1 1943 540.085 4
1 11 -2 872.751 308.253 16
11 -1 -2 1524.79 404.228 2
-11 2 1 1356.95 445.962 9
2 -11 -1 1607.18 447.938 6
-11 -2 -1 480.642 211.883 6
11 2 -1 1462.99 431.581 2
2 -11 -1 1060.32 375.938 13
-1 11 2 1309.71 436.49 10
11 -1 -2 1796.46 496.886 5
11 -1 -2 1254.32 338.426 13
-11 1 -2 507.171 308.498 9
11 1 2 1341.08 533.058 5
-11 2 1 1160.77 396.603 8
11 2 1 1203.84 389.221 2
11 1 -2 1416.55 413.889 2
1 -11 -2 692.499 292.388 6
11 1 -2 1479.9 477.686 5
11 1 -2 1174.14 411.015 12
11 -2 -1 1229.47 349.491 2
2 11 -1 1289.82 420.079 10
-2 11 1 1554.05 444.928 10
1 11 2 1101.55 387.758 10
-11 1 2 1144.85 350.51 1
11 -1 2 969.912 336.61 5
-11 1 2 1119.44 362.944 3
-11 2 -1 504.561 253.193 3
11 -1 2 677.181 273.663 2
1 -11 -2 968.828 387.783 13
-2 11 3 122.981 157.253 16
-11 -2 3 10.4041 82.5981 6
3 11 2 336.045 233.554 7
-2 11 3 37.0976 125.289 15
2 -11 3 139.488 171.773 6
2 11 -3 302.29 195.058 2
11 -2 -3 176.886 161.543 2
11 2 3 33.1396 169.444 4
3 11 2 153.623 149.63 2
3 -11 -2 143.53 156.547 12
3 -11 -2 67.5164 143.971 6
3 11 2 33.753 94.6555 15
2 -11 3 133.71 170.968 11
-11 3 2 374.297 216.921 16
2 11 -3 191.791 243.265 10
-11 -2 3 97.5214 170.847 3
-3 -11 2 31.4867 196.578 6
3 11 2 260.642 250.574 10
11 3 -2 17.6407 167.712 5
2 11 -3 61.206 115.321 16
11 3 -2 446.417 267.929 2
11 -3 2 20.0281 167.894 5
11 -2 -3 12.6721 255.412 12
-3 -11 2 173.628 219.748 14
-11 -3 -2 89.4854 181.129 9
-3 -11 2 153.845 155.277 1
-11 -3 -2 89.9213 132.81 3
3 -11 -2 158.953 186.178 13
-11 -3 -2 436.51 266.876 8
-11 2 -3 120.474 167.454 8
2 11 -3 199.981 203.071 7
-11 2 -3 117.947 292.987 9
-3 11 0 393.223 253.247 16
0 -11 -3 181.482 146.205 13
-3 -11 0 0.89891 145.054 3
0 -11 3 49.543 163.939 11
-11 0 3 14.3362 172.417 3
11 3 0 159.511 211.774 5
0 11 3 144.49 172.8 10
0 11 3 34.2003 118.677 15
11 -3 0 276.717 244.188 5
-11 3 0 14.4658 106.41 15
-11 0 -3 55.8953 130.566 9
0 11 -3 36.6989 102.514 4
-11 3 0 319.09 231.078 8
11 0 -3 166.585 191.923 4
11 -3 0 28.3707 115.507 14
11 0 -3 13.1245 102.472 2
11 -3 -2 79.5841 113.307 5
2 11 3 373.713 247.232 10
-3 11 2 67.2289 114.819 7
-3 11 2 414.032 259.778 15
-11 3 -2 351.202 214.785 15
2 -11 -3 21.0933 119.287 13
-2 -11 3 86.3274 146.957 14
-11 2 3 217.817 124.371 3
-3 -11 -2 200.999 254.821 6
-2 -11 3 108.289 106.848 3
-2 11 -3 89.8795 160.12 16
3 -11 2 223.01 249.209 11
3 -11 2 189.373 191.532 6
-2 -11 3 329.831 265.34 11
-11 -3 2 45.309 198.718 3
-11 2 3 68.0532 138.858 9
11 3 2 219.745 201.138 2
-11 -3 2 837.513 353.365 8
-3 -11 -2 121.696 103.317 3
-11 3 -2 25.6389 96.4214 3
11 -3 -2 188.282 176.832 4
-11 -2 -3 33.8101 215.561 3
11 2 -3 86.0649 171.984 4
-2 11 -3 352.927 215.821 7
-11 -3 4 405.532 203.794 6
11 -4 3 217.408 196.952 14
3 11 -4 29.6631 113.175 15
3 -11 4 57.7507 181.198 14
-11 4 3 596.427 273.289 15
11 -3 -4 389.667 202.22 4
11 -3 -4 329.514 205.394 13
11 -4 3 157.428 94.1561 4
-11 4 3 142.378 111.342 3
11 -3 -4 158.684 213.848 12
-3 11 4 160.49 188.344 15
4 -11 -3 97.529 138.525 6
3 -11 4 170.063 269.259 11
-4 -11 3 83.0125 221.162 11
-11 -3 4 204.993 238.761 3
-4 -11 3 112.051 123.884 3
11 -3 -4 323.623 259.155 5
-11 -4 -3 516.282 286.082 1
4 11 3 124.186 176.171 7
3 -11 4 124.051 170.691 6
-11 -3 4 27.1801 163.262 9
-11 4 3 152 195.33 9
-4 -11 3 7.30265 116.253 1
-11 -3 4 358.222 252.862 8
11 4 -3 72.0846 176.293 5
-11 4 3 340.374 218.52 16
11 4 -3 79.0937 212.847 4
3 11 -4 573.843 298.187 7
-11 4 1 967.376 342.09 16
1 11 -4 663.132 296.298 10
-11 4 1 287.315 198.195 3
1 -11 4 475.634 253.379 6
-4 11 -1 413.185 267.89 15
-4 -11 1 275.845 239.761 6
4 -11 -1 602.403 257.585 13
-11 -1 4 615.051 326.746 3
11 4 -1 141.127 180.122 2
1 -11 4 539.453 333.589 11
11 -1 -4 79.5207 185.337 5
-4 11 -1 68.0949 191.15 10
11 -1 -4 114.945 149.51 2
-1 11 4 193.096 124.492 10
4 -11 -1 295.132 229.112 12
-11 -1 4 168.38 230.413 9
-11 4 1 84.121 200.172 9
4 11 1 315.754 241.222 7
-11 -4 -1 118.152 190.052 3
-11 -1 4 301.074 236.529 8
-11 -4 -1 756.471 336.831 8
1 11 -4 293.44 209.696 7
-1 11 4 117.716 161.347 16
-1 -11 4 612.261 310.681 6
-1 -11 4 64.1531 116.563 1
-1 -11 4 247.813 215.319 14
4 -11 1 220.704 176.388 6
11 1 -4 479.288 262.002 2
4 -11 1 461.609 305.904 11
11 4 1 70.5066 200.68 5
-11 4 -1 181.105 123.967 3
-4 -11 -1 177.071 169.248 3
-11 1 4 484.918 281.369 8
-11 -4 1 211.479 206.836 8
11 1 -4 164.476 114.56 4
-11 4 -1 597.712 293.989 8
-11 1 4 320.395 206.098 3
-3 11 -4 136.426 184.149 15
-3 11 -4 234.441 207.169 16
11 3 -4 99.0222 327.08 5
-11 3 4 170.516 157.78 15
4 -11 3 72.061 117.099 6
11 3 -4 332.92 236.39 2
4 -11 3 259.972 229.385 14
-3 -11 4 95.0304 189.184 6
-11 -4 3 247.861 124.559 6
3 -11 -4 155.981 220.395 13
11 -4 -3 82.3532 127.426 13
-4 11 3 677.82 328.33 16
-3 -11 4 26.0154 114.157 3
-3 -11 4 144.874 164.994 1
-3 -11 4 426.085 283.881 11
4 -11 3 454.567 359.525 11
-11 3 4 15.5184 209.63 9
-4 11 3 195.299 148.366 10
-11 4 -3 212.9 193.357 15
-11 -4 3 247.778 173.242 9
11 -4 -3 98.7926 246.573 12
11 4 3 251.418 204.072 4
11 -4 -3 46.4824 168.726 5
11 3 -4 224.98 177.9 12
-11 3 4 736.988 333.722 8
11 4 3 183.509 201.102 2
11 3 -4 238.317 230.112 4
-4 -11 -3 22.3474 128.482 3
-3 11 -4 111.418 140.975 7
-11 4 -3 131.248 136.654 3
-11 -4 5 417.156 196.968 6
-11 5 4 395.029 240.674 15
4 -11 5 508.108 343.466 14
11 -4 -5 601.83 323.621 5
-11 -4 5 446.555 288.553 1
4 -11 5 474.008 305.157 11
-11 -4 5 604.464 378.788 3
-5 -11 4 557.824 320.955 3
4 11 -5 189.252 131.824 10
-5 11 -4 768.432 426.328 10
11 5 -4 502.886 379.235 5
-5 -11 4 219.429 201.42 1
4 11 -5 347.837 310.811 4
-11 -4 5 1208.49 431.981 8
-11 5 4 1031.39 386.797 8
11 5 -4 734.755 359.809 2
-5 -11 4 443.137 215.571 6
11 -4 -5 576.632 394.952 12
4 11 -5 228.614 208.459 7
-5 11 -4 61.8924 172.436 15
11 -2 -5 546.633 284.516 12
-11 5 2 967.228 360.608 16
11 5 -2 698.961 294.991 7
11 5 -2 725.306 347.339 4
-5 -11 2 368.312 250.695 6
5 11 2 866.128 364.996 4
5 -11 -2 996.705 341.338 12
11 5 -2 984.996 389.952 2
2 -11 5 1130.2 428.013 11
-11 5 2 841.902 334.334 15
11 -2 -5 938.043 390.437 5
11 -5 2 685.93 250.88 14
2 11 -5 545.09 237.316 10
-5 11 -2 728.754 359.528 10
-5 -11 2 448.319 275.472 3
11 5 -2 756.123 398.28 5
2 11 -5 369.224 220.452 15
11 -5 2 951.736 375.275 5
5 11 2 415.906 245.074 2
-11 5 2 630.745 306.154 8
11 -2 -5 884.256 322.076 2
2 11 -5 889.441 365.821 7
-5 -11 2 930.304 351.695 1
5 11 0 1751.46 464.361 4
-5 11 0 1574.75 486.719 16
-5 11 0 1820.44 517.767 15
-11 0 5 1465.96 426.551 1
11 -5 0 1845.88 507.814 14
11 0 -5 1416.07 483.077 12
0 -11 5 1463.38 481.142 6
5 -11 0 1784.39 484.532 12
11 0 -5 1802.42 517.815 5
5 11 0 1948.44 488.694 2
-11 0 5 1754.22 486.506 3
11 0 -5 1320.96 411.966 2
-11 0 5 1614.08 497.002 9
0 -11 5 1776.64 518.854 11
-11 0 5 1949.7 532.421 8
11 0 -5 1648.7 435.95 4
11 5 0 2005.42 554.526 5
5 11 -2 749.161 307.346 4
11 2 -5 707.109 308.238 5
11 5 2 597.833 270.92 7
-5 11 2 1102.53 408.458 15
5 -11 2 713.246 355.06 11
-11 -5 2 678.762 337.188 1
-2 -11 5 1026.62 340.154 1
-5 11 2 716.142 291.077 10
-11 2 5 636.891 317.896 8
11 5 2 608.295 355.03 5
-5 -11 -2 106.782 160.291 1
11 2 -5 799.397 361.217 4
-11 -5 2 245.989 229.9 8
-11 5 -2 996.884 362.244 16
-11 2 5 1174.24 355.348 16
-5 11 4 282.259 248.538 16
-4 11 -5 228.822 217.813 15
-11 5 -4 414.753 263.058 15
-4 -11 5 711.464 317.313 1
11 -5 -4 563.987 329.355 12
11 -5 -4 554.853 262.258 5
11 4 -5 446.295 321.541 5
-11 -5 4 512.154 274.518 3
-11 -5 4 985.647 399.354 1
-5 11 4 381.05 220.864 9
-11 4 5 288.466 210.482 9
-11 -5 4 712.11 327.182 9
-4 -11 5 548.618 344.672 6
-11 4 5 419.834 249.305 16
11 4 -5 413.596 326.907 4
5 11 -4 476.652 233.567 4
-4 -11 5 410.043 318.795 3
11 4 -5 440.692 280.387 2
6 -11 -5 160.755 152.935 13
-6 -11 5 935.464 383.52 1
11 -5 -6 486.489 336.16 12
-6 -11 5 714.969 367.848 6
11 6 -5 670.138 381.236 4
-6 -11 5 719.444 378.867 3
11 6 -5 738.635 352.349 5
11 6 -5 184.91 232.766 2
-11 -5 6 353.107 242.349 9
-6 11 -5 258.996 249.209 16
-11 6 5 384.497 211.958 9
-11 -5 6 511.722 290.46 3
-11 -5 6 246.7 233.726 8
-11 6 5 530.284 296.671 8
6 11 3 812.008 369.631 7
-6 -11 3 171.624 283.679 6
6 -11 -3 54.1176 203.327 13
-11 -3 6 172.173 190.249 1
-11 -3 6 60.2571 169.946 3
11 -3 -6 174.933 260.049 12
11 -6 3 13.8451 153.68 5
11 6 -3 95.9485 148.721 12
6 -11 -3 11.7392 100.747 6
3 11 -6 90.8694 155.662 10
-6 -11 3 48.172 160.319 3
11 6 -3 90.6763 156.558 5
-11 -3 6 65.2775 139.355 9
-6 11 -3 56.6173 186.499 15
-11 -3 6 584.614 317.285 8
3 11 -6 342.669 255.428 7
-11 -6 -3 391.631 266.522 1
-11 -1 6 312.703 229.197 1
-11 6 1 123.348 174.114 15
6 11 1 124.934 147.563 4
11 -6 1 167.522 153.975 14
-6 -11 1 272.775 230.146 6
6 -11 -1 335.208 266.418 13
-6 11 -1 495.834 298.358 15
11 -1 -6 529.123 324.992 5
6 11 1 164.799 207.563 7
6 11 1 412.742 299.037 10
-11 -1 6 309.781 166.732 9
11 -6 1 2.60543 160.155 5
-11 6 1 57.4693 225.257 9
-11 -1 6 151.978 184.171 8
11 -1 -6 396.866 236.542 2
6 11 -1 155.663 209.272 7
6 11 -1 31.483 232.147 4
-11 -6 1 76.3132 189.785 6
11 -6 -1 312.187 306.976 12
11 1 -6 28.699 128 5
6 11 -1 47.4331 144.942 10
11 6 1 157.574 188.374 2
11 -6 -1 131.171 182.935 5
-11 1 6 214.9 262.373 9
11 6 1 8.23434 252.008 5
-11 6 -1 124.417 173.134 15
-11 1 6 227.368 211.766 8
-11 6 -1 53.9895 148.12 8
-11 1 6 3.53529 99.1021 1
11 1 -6 275.48 210.885 2
6 11 -3 418.602 283.617 7
-3 -11 6 38.2748 165.038 6
6 -11 3 10.0225 228.621 14
11 6 3 106.89 252.276 4
11 -6 -3 59.0474 172.485 13
11 -6 -3 227.428 209.294 12
-6 -11 -3 241.066 287.389 6
11 3 -6 429.241 338.518 5
6 -11 3 47.0516 240.956 11
6 11 -3 207.792 174.044 5
-6 11 3 511.563 296.509 15
-11 3 6 10.9836 238.647 9
-11 -6 3 46.1929 231.783 3
-6 11 3 21.519 145.554 9
-11 6 -3 61.4243 167.901 9
-11 3 6 73.0175 156.071 8
11 6 3 228.955 228.593 2
-6 -11 -3 34.078 194.402 3
6 11 -5 679.896 398.153 10
11 -6 -5 495.866 299.02 13
11 5 -6 385.453 285.734 2
6 11 -5 311.94 255.301 2
-6 11 5 501.391 318.126 15
-11 -6 5 389.508 194.211 6
-11 -6 5 435.665 249.059 9
11 5 -6 419.73 324.378 5
-11 -6 5 678.414 425.196 3
-11 -6 5 403 294.562 1
-11 5 6 31.7112 139.038 8
11 5 -6 322.993 218.693 4
6 11 -5 485.21 298.005 4
11 5 -6 527.21 281.055 7
6 11 -5 432.348 300.681 7
-11 -6 7 514.029 324.15 1
-7 -11 6 436.853 330.566 6
-7 -11 6 932.039 408.495 1
-11 7 6 212.116 213.716 16
11 7 -6 320.995 276.495 5
11 7 -6 305.416 180.469 10
-11 7 6 189.334 172.099 9
-7 -11 6 193.156 161.27 3
-7 -11 6 388.689 230.209 8
-11 -6 7 920.778 398.041 8
11 7 -6 296.111 179.422 4
11 7 -6 52.1157 190.072 2
6 11 -7 773.722 386.384 7
11 7 -6 232.22 217.307 7
11 7 -4 90.2732 160.515 7
11 -7 4 107.078 142.495 14
-7 -11 4 332.077 336.277 6
-7 -11 4 208.378 331.69 3
-11 7 4 136.658 202.924 16
7 -11 -4 60.9261 304.455 12
11 7 -4 85.1983 224.729 5
-7 11 -4 278.11 272.931 16
-7 -11 4 434.651 290.148 1
-11 7 4 170.726 284.282 9
-7 11 -4 302.137 376.859 9
-7 -11 4 233.801 191.11 8
11 7 -4 84.0726 186.2 4
7 11 2 251.47 219.115 7
-11 -7 -2 460.337 306.659 1
-7 -11 2 509.677 303.499 1
11 7 -2 519.777 319.194 2
11 7 -2 685.328 322.267 5
11 7 -2 391.464 360.767 4
11 -7 2 238.462 201.379 14
11 -7 2 559.505 303.046 5
7 11 2 411.056 265.224 2
7 11 2 274.567 198.359 5
-7 11 0 1084.06 436.938 16
11 -7 0 1524.33 449.047 14
11 7 0 1483.75 482.205 4
-7 -11 0 1055.34 491.55 6
-11 -7 0 790.569 381.371 6
7 -11 0 1236.2 369.369 12
11 7 0 1838.3 510.964 5
7 11 -2 310.417 218.817 4
7 11 -2 410.947 292.377 10
-11 7 -2 159.92 200.658 16
7 11 -2 186.968 161.95 5
11 -7 -2 408.007 257.821 5
-11 -7 2 99.7518 242.12 3
7 11 -2 381.724 281.102 7
-7 -11 -2 413.976 278.503 1
7 11 -4 162.582 201.476 7
7 -11 4 78.8652 209.124 14
11 -7 -4 161.179 167.08 12
11 -7 -4 233.45 299.257 13
7 11 -4 107.864 110.821 5
7 -11 4 342.471 290.011 11
11 -7 -4 15.3837 202.68 5
-11 -7 4 203.513 160.267 3
-11 7 -4 34.761 154.217 16
-7 11 4 10.1785 189.121 10
-11 7 -4 327.559 267.361 15
-7 11 4 92.834 200.151 9
-11 -7 4 118.007 207.262 1
-11 7 -4 189.444 170.872 9
7 11 -4 47.8788 246.842 4
-11 -7 6 206.296 281.865 3
7 11 -6 187.784 224.571 2
11 -7 -6 564.853 393 12
-11 -7 6 78.3287 181.724 6
-11 -7 6 958.641 426.011 1
-6 -11 7 288.936 258.338 6
11 6 -7 745.763 382.582 2
-11 -7 6 172.848 158.863 9
11 6 -7 317.976 326.219 4
-11 -7 6 335.377 264.825 8
-8 -11 7 428.365 313.181 1
-8 -11 7 23.4526 167.415 3
-8 -11 7 153.476 308.346 6
11 8 -7 40.396 164.13 2
-8 -11 7 244.019 207.079 8
11 8 -7 207.868 209.725 4
-8 11 -5 326.641 265.889 16
8 -11 -5 402.665 218.811 13
-8 11 -5 190.142 261.015 10
8 -11 -5 765.527 421.22 12
11 8 -5 705.875 329.62 5
-11 8 5 326.74 277.04 16
-11 8 5 1125.94 515.91 9
-8 -11 5 979.577 485.107 3
11 8 -5 1413.86 479.245 7
-8 -11 3 383.059 379.478 6
11 8 -3 955.828 431.763 2
8 -11 -3 172.419 250.635 12
-11 -8 -3 168.982 318.812 6
-8 -11 3 16.4532 272.202 3
-11 -8 -3 361.003 294.025 1
-11 8 3 44.088 194.728 9
11 -8 3 233.616 240.103 5
-11 8 3 420.862 295.175 15
-11 -8 -3 10.3218 228.545 3
11 -8 3 286.708 330.498 14
-11 8 3 231.792 235.862 16
-8 -11 3 194.18 258.248 11
8 11 3 137.005 184.299 7
11 8 -3 110.466 258.112 4
8 11 1 261.156 244.999 7
11 -8 1 106.471 147.516 14
-8 -11 1 155.891 324.809 6
-8 -11 1 21.9846 178.88 3
11 -8 1 156.507 125.901 11
11 8 -1 436.673 307.345 2
-11 8 1 249.391 249.424 15
8 11 1 8.24937 175.593 10
-11 -8 -1 325.683 369.398 3
-11 -8 -1 180.995 211.34 8
-8 11 1 376.711 284.005 16
-11 8 -1 214.384 247.905 15
-8 11 1 253.432 268.844 15
8 -11 1 113.304 266.272 14
11 8 1 0.86617 321.688 4
-8 -11 -1 671.935 467.118 6
11 -8 -1 93.4761 288.926 12
8 -11 1 7.74665 204.944 11
8 11 -1 181.639 151.453 10
-8 11 1 276.66 302.177 10
11 -8 -1 17.4987 206.462 5
11 -8 -1 95.5417 160.841 11
11 8 1 163.44 234.083 2
-8 -11 -1 25.9328 119.306 8
-11 8 -3 737.451 374.286 15
11 8 3 18.5791 218.618 4
8 -11 3 38.1392 186.837 14
11 -8 -3 117.929 301.4 12
8 11 -3 311.572 252.807 2
11 -8 -3 147.176 220.012 5
8 11 -3 168.975 281.674 10
-8 11 3 91.0041 167.445 9
11 -8 -3 247.912 205.296 13
-11 8 -3 142.04 221.925 16
-8 11 3 529.289 334.619 16
11 8 3 82.2907 195.071 2
-11 -8 3 152.035 206.317 8
-8 -11 -3 390.22 267.716 1
8 11 -3 39.8757 236.172 4
11 -8 -5 129.563 284.689 13
8 -11 5 318.323 263.777 14
11 -8 -5 1186.26 518.308 12
-11 -8 5 904.438 384.007 3
-8 11 5 528.974 250.271 8
-11 -8 5 1213.99 444.758 8
8 11 -5 749.352 460.751 4
-11 -8 7 54.5124 379.129 3
8 11 -7 306.648 268.592 10
8 11 -7 105.686 157.912 4
-11 -8 7 60.4347 167.859 8
-11 -8 7 185.553 240.524 1
11 9 -6 439.5 325.44 2
-9 -11 6 74.3854 328.964 3
11 9 -6 160.32 260.321 5
-9 -11 6 221.865 249.538 1
-9 -11 6 16.5326 199.492 6
-11 9 6 158.595 254.803 9
-11 9 6 222.024 216.108 8
-9 -11 6 173.267 196.566 8
11 9 -6 166.067 378.512 4
11 9 -6 197.569 233.964 7
-9 -11 4 126.338 253.921 6
-11 9 4 334.116 284.863 16
-9 -11 4 171.05 141.625 11
11 9 -4 384.443 182.334 5
-9 -11 4 221.767 257.732 3
9 -11 -4 128.388 232.859 12
-11 9 4 558.769 347.903 9
-9 11 -4 89.801 298.16 9
-9 -11 4 53.0154 165.577 1
11 9 -4 476.261 349.379 4
11 9 -2 231.067 191.924 4
-9 11 -2 480.041 335.657 15
-9 -11 2 109.942 209.089 6
-11 -9 -2 396.776 297.33 1
11 -9 2 247.484 205.822 11
-9 -11 2 284.286 319.451 11
11 9 -2 42.9265 173.668 10
-9 -11 2 62.9247 251.079 3
9 11 2 239.019 288.865 10
11 -9 2 37.7029 180.568 5
9 11 2 228.144 225.229 2
9 11 2 205.388 236.187 5
-11 -9 -2 209.457 263.155 3
-11 9 2 299.914 227.711 8
-9 -11 2 188.592 199.009 8
11 -9 2 8.192 172.351 14
-11 -9 -2 585.599 317.15 8
-11 9 2 175.076 219.615 16
-11 9 0 36.8633 185.436 16
9 11 0 220.957 202.955 4
11 9 0 176.256 310.217 4
9 -11 0 404.284 310.33 12
-11 -9 0 69.4852 171.824 1
9 -11 0 188.594 108.887 5
9 11 0 434.66 177.126 10
11 -9 0 129.746 140.665 5
9 11 0 443.97 290.815 5
-9 -11 0 248.988 376.324 3
-11 -9 0 267.398 191.205 3
-11 -9 0 159.257 207.477 8
9 11 -2 201.933 308.039 4
9 11 -2 393.918 306.021 7
-11 -9 2 372.659 309.733 1
-9 11 2 470.477 306.903 16
-11 9 -2 709.436 384.943 15
11 -9 -2 50.8107 269.775 12
9 11 -2 66.1589 206.796 2
9 -11 2 229.062 223.001 11
9 11 -2 16.518 146.965 5
-9 -11 -2 632.331 358 1
-9 11 2 65.4043 192.548 10
9 -11 2 65.0892 309.028 14
9 -11 2 110.043 141.604 5
-11 9 -2 149.235 206.65 9
-11 -9 2 185.401 221.083 8
9 11 -4 759.532 394.869 7
-9 11 4 532.23 336.392 16
9 -11 4 74.0806 295.781 14
11 -9 -4 286.037 401.449 13
11 -9 -4 382.989 324.896 12
9 -11 4 296.441 218.121 11
11 -9 -4 316.995 192.261 5
9 11 -4 378.826 227.116 5
9 11 -4 578.321 281.405 10
-11 9 -4 43.5734 165.698 9
-11 -9 4 1282.38 500.024 1
-11 -9 6 128.102 383.767 3
-11 -9 6 94.4299 221.089 1
-9 11 6 164.967 223.6 9
-11 -9 6 74.642 293.201 6
9 11 -6 140.499 215.872 2
-11 -9 6 216.681 235.474 8
9 11 -6 105.672 204.235 7
-10 11 -3 65.7113 179.698 16
10 11 3 250.589 243.713 7
10 11 3 338.809 334.097 4
11 -10 3 178.263 278.093 14
-11 -10 -3 412.682 286.981 6
10 -11 -3 134.9 176.708 5
11 -10 3 281.167 123.171 11
-10 -11 3 152.82 207.689 11
-11 10 3 456.206 333.752 16
11 10 -3 173.511 207.67 5
-10 -11 3 357.346 399.498 6
11 10 -3 90.9293 288.305 4
-11 10 3 197.853 352.898 9
11 -10 3 105.36 135.941 5
-10 -11 3 83.5988 342.128 3
-11 -10 -3 41.2735 301.217 3
-10 -11 3 238.799 273.308 1
11 10 -1 317.154 253.823 4
10 11 1 23.7559 180.447 7
10 11 1 165.179 231.068 4
-10 11 -1 34.5807 186.487 15
-10 -11 1 4.62197 381.278 6
10 -11 -1 324.766 205.602 13
-11 -10 -1 183.118 401.179 6
11 10 -1 115.092 215.708 7
10 -11 -1 159.488 353.215 12
-10 -11 1 392.314 319.781 1
-10 11 -1 679.598 386.202 16
11 -10 1 106.669 254.4 11
10 -11 -1 391.752 271.023 11
10 -11 -1 164.69 148.218 5
10 11 1 112.256 200.38 10
11 10 -1 76.0686 205.636 5
10 11 1 51.1692 199.141 2
-11 10 1 63.8586 238.568 9
-11 -10 -1 302.251 281.75 1
-11 -10 -1 108.556 185.852 8
-11 10 -1 239.442 252.591 16
11 10 1 80.4286 329.352 4
10 -11 1 255.526 385.363 14
-10 -11 -1 5.86236 202.485 6
-11 -10 1 277.524 294.483 1
11 -10 -1 105.481 237.726 12
10 -11 1 118.364 189.901 11
10 11 -1 504.785 331.208 2
11 -10 -1 74.7533 158.615 5
11 10 1 140.463 224.582 2
-11 -10 1 16.0471 235.006 3
-10 11 1 237.138 391.352 9
-10 -11 -1 106.325 290.065 3
-10 -11 -1 391.811 257.837 8
-10 -11 -1 150.082 228.083 1
-11 10 -3 75.2049 211.241 16
10 11 -3 179.282 243.906 7
-10 11 3 573.333 364.313 15
10 -11 3 206.768 266.072 14
11 10 3 89.8857 185.293 7
-11 -10 3 219.107 358.17 6
-11 10 -3 2.5248 148.685 15
10 -11 3 79.7453 172.508 11
11 -10 -3 40.8037 178.396 5
-11 -10 3 140.094 310.975 3
-10 11 3 102.184 252.167 10
11 10 3 283.736 229.087 5
11 10 3 54.7199 203.087 2
-10 -11 -3 306.171 375.864 3
-10 -11 -3 78.502 192.085 1
-11 -10 3 285.012 296.81 1
11 11 0 516.1 394.337 4
-11 11 0 1056.68 470.5 16
-11 -11 0 100.378 291.402 6
11 -11 0 612.226 307.532 11
11 -11 0 537.25 289.689 5
11 11 0 897.551 356.321 10
11 11 0 297.107 251.478 5
-11 -11 0 225.391 279.8 1
-11 -11 0 281.583 254.208 3
-11 11 0 672.17 407.464 9
-11 -11 0 324.37 256.682 8
12 0 0 272.8 205.114 2
-12 0 0 501.024 265.569 1
12 0 0 528.263 271.063 5
-12 0 0 468.785 228.103 3
-12 0 0 36.8711 234.16 9
12 0 0 436.339 309.42 4
12 -1 -1 514.246 326.523 4
12 1 -1 600.376 285.628 4
12 -1 -1 655.595 281.655 14
-1 -12 1 337.92 207.522 6
-1 -12 -1 721.716 286.921 13
1 -12 -1 137.97 129.907 13
12 -1 -1 619.709 279.569 2
1 -12 1 201.19 222.195 11
-1 12 -1 351.249 149.833 10
1 12 1 142.537 174.563 10
12 1 1 510.602 275.753 2
1 12 1 198.061 186.125 16
12 1 1 511.04 299.848 5
-12 1 1 410.558 312.186 9
-12 1 -1 252.346 180.163 3
-12 1 1 181.219 212.379 8
-12 1 -1 209.603 215.753 8
-12 -1 -1 67.8061 169.602 8
12 -2 0 18.7383 166.229 4
0 12 2 42.7044 126.594 4
12 -2 0 88.1322 158.378 14
0 -12 -2 524.937 274.179 13
-2 -12 0 201.795 240.065 13
2 12 0 358.405 219.104 15
-12 -2 0 360.22 254.158 1
2 12 0 268.458 188.938 2
2 12 0 361.438 258.368 10
2 12 0 191.835 176.536 16
-2 -12 0 148.125 154.921 1
12 0 2 280.914 249.571 5
-12 0 -2 34.4801 155.384 9
12 0 2 17.5064 106.333 2
-12 0 -2 131.517 176.889 3
0 12 -2 20.7224 118.885 4
2 12 -2 227.141 200.309 7
-12 2 -2 564.254 260.899 15
2 12 2 112.305 147.834 15
12 -2 2 390.608 234.727 14
12 -2 2 111.104 154.206 4
2 -12 2 468.033 340.138 6
-2 -12 -2 193.661 187.938 13
2 -12 -2 555.237 328.341 13
-2 -12 2 187.72 212.023 14
-2 -12 -2 49.3975 163.344 6
-2 -12 2 333.714 268.465 11
-2 12 2 635.209 305.097 15
-2 12 -2 587.115 388.298 10
2 12 -2 375.142 316.233 10
-12 2 2 317.372 198.073 3
-2 12 2 665.827 335.334 10
2 12 2 557.439 285.777 10
-12 2 2 264.794 265.672 9
12 -2 2 38.0172 246.915 5
12 2 2 151.658 200.616 5
-12 2 -2 54.5593 257.149 9
-12 -2 -2 170.999 215.039 9
-12 -2 -2 160.142 278.642 3
-12 2 -2 57.0774 187.366 3
-12 2 -2 54.034 157.106 8
12 -2 2 221.616 175.281 2
-12 -2 -2 425.607 258.335 1
-2 -12 2 467.158 237.059 1
12 -2 -2 306.685 229.437 4
-3 12 -1 775.077 355.232 15
-1 12 3 411.782 241.558 7
1 -12 3 517.274 314.506 14
12 1 3 150.045 155.206 4
12 -1 -3 610.982 287.759 13
-3 -12 1 322.232 250.422 6
-1 -12 -3 331.522 188.055 6
12 3 -1 435.634 221.614 7
1 -12 3 836.419 396.045 11
3 12 1 478.817 303.683 10
-1 12 3 809.32 345.487 10
12 -3 1 600.925 311.418 5
-12 -1 3 386.052 280.401 9
-12 3 1 291.826 290.278 9
-12 -3 -1 147.543 233.176 9
12 -3 1 661.754 264.865 2
3 12 1 729.948 284.057 15
-12 -1 3 33.2841 151.815 8
-12 1 -3 158.44 197.664 8
12 -1 -3 810.268 382.237 4
-12 1 -3 182.708 256.944 3
-1 -12 -3 91.315 214.296 13
-12 3 -1 376.923 227.441 16
1 12 3 166.675 187.186 7
3 12 -1 386.59 218.813 15
12 3 1 280.247 151.227 4
1 12 3 711.891 305.696 15
12 3 1 274.058 179.32 7
-1 -12 3 332.251 278.812 14
-1 -12 3 450.401 303.968 6
12 -1 3 459.152 245.767 4
1 -12 -3 583.705 277.586 13
3 12 -1 934.624 373.888 7
-3 -12 -1 332.167 245.51 6
12 1 -3 410.599 330.404 12
1 -12 -3 115.066 196.049 6
3 -12 1 367.23 241.286 12
-1 -12 3 618.563 362.312 11
3 -12 1 34.1815 200.235 11
-3 12 1 999.367 390.958 15
1 12 3 158.061 244.658 10
12 3 1 601.336 304.886 2
-1 -12 3 918.837 305.682 1
-12 1 3 212.652 230.004 9
12 3 1 355.659 303.898 5
-12 -3 1 101.262 179.666 9
3 12 -1 397.824 246.403 4
-3 -12 -1 154.956 176.017 3
-12 1 3 653.96 332.33 8
-12 -3 1 83.7439 178.531 8
-12 3 -1 28.855 102.148 1
-12 -1 -3 120.478 191.237 8
-12 -1 -3 295.016 207.589 3
12 1 -3 752.282 299.338 4
1 12 3 857.712 332.25 16
-3 -12 3 391.548 246.403 14
3 -12 3 445.689 285.426 6
12 3 3 464.191 281.272 4
3 12 3 388.458 233.974 4
12 -3 3 586.56 254.27 4
-3 -12 3 746.667 367.325 6
12 -3 -3 780.46 299.325 2
12 3 -3 807.596 365.016 2
3 -12 3 242.523 248.349 14
-3 12 -3 798.723 352.979 15
-3 -12 -3 22.3653 176.395 6
-12 3 3 419.838 230.878 3
-3 -12 3 755.921 333.952 3
3 -12 3 632.328 348.878 11
3 -12 -3 1177.2 446.29 13
3 12 -3 785.259 476.542 10
12 -3 -3 595.45 365.539 5
-12 -3 3 335.936 295.435 3
3 12 3 617.853 366.196 10
-12 -3 -3 414.659 270.108 1
3 12 3 431.357 230.928 16
-3 -12 3 903.387 333.816 1
12 -3 3 64.6229 203.172 5
3 12 -3 522.193 210.691 4
-12 -3 -3 546.468 359.182 3
-12 -3 -3 48.3173 158.402 8
-12 3 -3 37.8888 184.186 3
4 12 2 188.365 192.752 7
-4 -12 2 12.6754 131.215 1
-12 -2 4 30.0807 98.0214 6
-2 12 4 92.6785 165.972 15
4 12 2 70.2859 120.567 4
12 -2 -4 233.922 193.291 2
12 -2 -4 83.7198 174.731 13
-4 -12 2 51.6966 291.039 6
4 -12 -2 170.602 196.2 6
4 -12 -2 30.8739 101.321 12
12 -2 -4 53.2884 139.749 12
2 -12 4 253.586 249.988 14
-12 -4 -2 153.767 235.216 6
2 -12 4 35.371 186.664 11
-4 -12 2 128.936 197.248 11
-12 4 2 71.0935 144.019 3
12 -2 -4 15.7919 186.722 5
-12 -4 -2 108.978 191.854 1
-4 -12 2 53.0703 204.933 3
12 4 -2 187.335 303.713 5
-12 -2 4 219.785 244.755 9
-12 4 2 64.7215 140.465 9
2 12 -4 54.981 190.74 4
-12 -4 -2 161.339 317.057 3
-12 4 2 23.412 146.375 8
-12 -4 -2 308.254 255.855 8
2 12 -4 36.7183 140.111 7
4 12 0 814.639 367.018 7
4 12 0 783.583 351.619 4
-12 4 0 270.307 216.467 15
0 -12 4 261.767 178.16 14
0 -12 4 703.978 352.053 6
12 0 -4 476.649 269.667 2
0 -12 4 673.285 260.099 1
-4 -12 0 708.595 325.006 13
-12 0 4 854.293 324.422 3
0 -12 4 579.649 338.857 11
12 0 -4 729.497 420.039 5
0 12 -4 577.031 347.735 10
12 -4 0 646.624 254.374 2
0 12 4 896.021 432.973 10
12 -4 0 753.868 360.68 5
12 4 0 959.468 432.075 5
-12 0 4 556.546 372.909 9
-12 -4 0 324.102 287.313 9
0 12 4 935.714 356.907 16
-4 12 2 166.383 195.571 16
-12 4 -2 330.193 225.809 16
-2 12 -4 298.833 229.449 15
-12 -4 2 81.5452 173.018 1
-12 2 4 110.372 135.115 15
12 2 -4 334.177 244.157 2
-2 -12 4 53.8875 189.852 6
4 -12 2 109.154 149.718 6
4 -12 2 9.13282 153.573 14
2 -12 -4 100.134 157.705 13
-2 -12 4 8.38297 151.545 3
-12 2 4 254.205 263.281 3
12 2 -4 260.493 257.054 12
12 -4 -2 40.8715 115.039 2
-4 -12 -2 182.191 245.563 6
-2 -12 4 5.26308 109.029 1
-2 12 -4 11.435 136.115 16
-2 -12 4 181.164 232.313 11
4 12 -2 202.588 248.227 10
12 -4 -2 221.37 219.974 5
-4 -12 -2 459.905 256.381 1
-12 2 4 175.711 302.558 9
-4 12 2 117.872 185.56 9
12 4 2 145.445 274.504 4
12 4 2 125.655 203.805 5
-12 4 -2 246.502 289.563 9
-4 -12 -2 64.9446 185.641 3
-12 2 4 397.665 275.653 8
12 2 -4 183.854 161.248 7
-12 4 4 566.358 287.26 16
-4 12 -4 288.188 261.563 15
-4 12 4 998.663 403.67 15
-12 -4 4 459.499 239.196 6
-4 -12 4 351.768 269.924 6
12 4 -4 402.958 280.851 2
12 -4 -4 498.701 255.655 13
12 -4 -4 626.003 347.754 12
-4 -12 4 582.109 328.316 3
-12 -4 4 205.553 236.329 3
12 -4 -4 555.674 376.197 5
-4 12 -4 232.265 191.734 10
4 12 -4 364.094 215.766 10
12 4 -4 580.438 334.871 5
-4 -12 4 572.465 294.692 1
-4 12 4 398.343 284.276 10
-4 12 4 359.731 271.532 9
-12 -4 4 42.7551 177.959 1
-12 -4 4 430.73 330.333 9
-12 4 -4 79.0211 292.526 9
-12 4 4 770.023 358.517 8
-12 -4 4 431.641 292.093 8
12 -3 -5 411.888 238.02 2
3 12 -5 249.479 211.367 2
-5 -12 3 49.2536 127.594 14
5 12 3 9.44605 130.932 4
-12 5 3 268.078 159.389 3
5 -12 -3 110.593 276.844 12
5 12 3 122.171 171.943 7
12 -3 -5 184.635 157.849 12
5 -12 -3 181.872 256.565 6
-12 -5 -3 267.775 238.081 1
-12 -3 5 200.073 207.677 1
12 -3 -5 243.803 254.056 5
-5 -12 3 531.857 353.36 11
3 12 -5 5.13195 157.156 10
-12 5 3 424.707 222.723 9
3 12 -5 716.059 295.52 15
12 -5 3 63.5948 230.035 5
-5 12 -3 215.084 129.255 9
-12 -3 5 421.738 291.061 8
3 12 -5 60.5747 166.706 7
12 5 -1 739.32 428.158 4
12 5 -1 541.822 270.542 7
1 -12 5 353.91 308.139 6
12 -5 1 589.471 264.515 14
-5 -12 1 239.22 205.316 14
-5 -12 1 671.996 304.051 6
12 -1 -5 712.503 316.619 12
-5 -12 1 585.616 293.466 1
5 -12 -1 490.078 271.974 12
12 5 -1 687.117 355.071 2
12 -1 -5 1113.37 445.272 5
1 12 -5 386.349 246.978 10
5 12 1 314.086 185.821 10
-12 -1 5 397.825 249.755 9
12 -5 1 680.656 323.762 5
1 12 -5 448.661 262.435 15
-12 5 1 937.606 522.882 9
12 -1 -5 554.585 286.887 4
-12 -1 5 1601.57 509.709 8
5 12 1 513.704 272.003 4
-12 -5 -1 551.516 316.041 8
-12 5 -1 237.953 215.849 16
12 1 -5 605.783 308.028 2
-1 -12 5 779.703 411.114 6
12 1 -5 422.913 209.037 12
-5 -12 -1 47.4916 311.359 6
-1 -12 5 467.976 332.809 11
12 1 -5 640.636 331.16 5
-5 12 1 577.938 382.876 10
-1 12 -5 502.587 326.502 10
12 5 1 562.798 320.409 5
-5 -12 -1 209.283 165.129 3
-12 1 5 945.428 399.586 8
12 5 1 132.634 160.995 7
12 1 -5 367.787 255.478 4
-12 1 5 815.328 295.378 16
5 12 -3 455.626 308.345 7
5 -12 3 168.591 214.722 14
-12 5 -3 416.187 265.331 16
-3 -12 5 122.341 160.896 1
-3 12 -5 226.528 207.738 16
-3 12 -5 340.551 266.737 15
-5 12 3 380.86 270.4 15
5 -12 3 196.409 253.858 6
-3 -12 5 208.622 175.556 6
-12 5 -3 50.9147 159.088 15
12 3 -5 198.752 115.886 12
-5 -12 -3 62.3371 234.916 6
-3 -12 5 298.491 238.577 11
5 -12 3 334.785 327.636 11
12 3 -5 20.3596 225.174 5
-3 12 -5 406.16 357.675 10
12 5 3 176.361 217.015 4
-12 3 5 17.9925 190.142 9
-12 5 -3 31.8494 231.669 9
12 -5 -3 363.833 203.929 4
-12 3 5 340.163 261.796 8
12 3 -5 259.173 251.978 4
-5 -12 -3 118.079 245.454 3
12 3 -5 389.825 286.128 2
-12 5 -3 62.2571 188.065 3
-3 12 -5 331.14 229.847 7
12 3 -5 276.783 199.846 7
-12 5 5 359.086 251.807 16
-5 12 -5 672.944 360.155 16
-5 12 -5 447.662 303.91 15
5 -12 5 224.996 303.196 14
-5 12 5 220.96 237.761 16
-5 -12 5 290.852 409.433 6
-5 12 5 146.418 207.488 15
12 -5 -5 303.776 306.23 13
-5 -12 5 102.261 277.611 3
12 -5 -5 300.733 313.54 12
5 -12 5 271.87 248.414 11
-5 -12 5 280.358 239.858 1
12 -5 -5 64.959 220.528 5
-12 5 5 197.144 170.761 1
12 5 -5 257.8 282.581 5
-5 12 -5 315.398 325.789 10
5 12 -5 409.221 221.832 15
5 12 -5 256.718 185.508 10
-12 5 5 280.939 344.825 9
-12 -5 5 7.94117 287.336 9
-12 5 5 980.234 402.252 8
5 12 -5 184.975 224.364 4
12 5 -5 756.409 436.43 4
-5 12 -5 611.763 285.647 7
5 12 -5 176.257 219.628 7
12 6 -4 931.784 373.254 7
-6 12 -4 322.091 279.267 16
-12 6 4 350.901 251.525 15
12 6 -4 157.751 213.902 2
6 -12 -4 581.38 391.497 13
-12 -4 6 329.94 274.911 1
6 -12 -4 26.8931 126.331 12
12 -4 -6 189.79 205.196 12
12 6 -4 348.512 224.002 12
-12 -4 6 21.141 216.226 3
12 -4 -6 38.6161 181.754 5
-6 -12 4 1.03729 172.253 11
4 12 -6 120.145 164.218 10
-6 12 -4 149.805 190.82 10
-12 -4 6 63.7143 180.743 9
-12 6 4 104.29 327.344 9
-6 -12 4 473.987 286.701 1
-12 -4 6 390.492 283.508 8
4 12 -6 434.738 285.054 7
12 -4 -6 112.152 152.71 2
6 12 2 164.126 225.998 7
-6 -12 2 653.656 320.441 1
12 -6 2 218.279 187.101 14
-6 -12 2 342.57 232.372 6
6 -12 -2 853.915 448.976 13
-12 -2 6 38.549 173.038 3
-12 6 2 491.326 245.257 3
12 6 -2 997.247 436.42 2
12 -2 -6 429.801 324.806 5
-12 6 2 607.811 312.306 15
2 12 -6 292.3 302.973 10
12 6 -2 451.372 202.218 5
-6 -12 2 482.587 355.278 3
-12 -2 6 363.123 249.26 9
-12 6 2 278.449 231.256 16
-12 6 2 304.997 228.813 9
-12 -2 6 255.825 241.01 8
-12 -6 -2 543.141 324.307 8
2 12 -6 176.066 200.504 7
12 6 0 57.0018 152.297 7
6 12 0 209.362 214.313 7
12 6 0 126.572 204.827 4
12 -6 0 161.055 223.344 14
12 0 -6 151.266 240.236 12
-6 -12 0 47.7824 255.549 6
0 -12 6 531.631 319.008 11
12 0 -6 28.4167 189.175 5
-12 6 0 627.058 328.93 16
0 12 -6 33.779 242.065 10
6 12 0 93.9945 160.012 10
6 12 0 159.255 192.763 5
-12 0 6 84.2777 191.04 9
12 6 0 228.513 216.439 5
-12 -6 0 100.071 292.581 3
-12 0 6 3.98596 132.411 8
12 2 -6 1089.28 417.056 2
12 6 2 465.567 263.552 7
-2 -12 6 271.409 210.474 6
6 -12 2 462.942 282.882 6
-12 -6 2 233.982 248.226 1
-12 2 6 334.562 230.426 1
12 -6 -2 385.951 274.478 13
-6 -12 -2 44.8334 195.905 6
6 12 -2 550.43 309.015 2
12 -6 -2 419.171 355.081 12
-2 -12 6 471.853 262.664 11
12 2 -6 323.294 245.105 5
6 -12 2 336.863 149.455 11
6 12 -2 276.467 169.648 5
6 12 -2 594.993 329.097 10
-6 12 2 301.653 217.953 10
12 6 2 86.9772 161.56 5
-12 2 6 174.773 213.214 8
-6 -12 -2 47.144 202.258 3
-12 -6 2 299.672 258.749 8
-2 -12 6 532.667 271.42 1
12 2 -6 742.403 292.893 7
-6 12 4 163.09 230.006 16
12 4 -6 742.857 370.549 2
-4 -12 6 190.511 150.546 6
6 -12 4 250.017 390.834 14
-12 -6 4 538.847 309.958 6
12 -6 -4 283.382 285.746 13
12 -6 -4 434.99 300.391 12
-4 -12 6 113.506 229.172 11
6 -12 4 6.10059 178.139 11
12 4 -6 389.374 277.772 5
6 12 -4 342.453 261.934 10
-12 4 6 232.886 312.569 9
-12 -6 4 110.019 159.607 9
-12 6 -4 26.3564 170.526 9
12 4 -6 205.627 338.759 4
12 4 -6 423.705 253.03 7
-12 4 6 179.696 186.042 16
6 12 -6 37.1966 121.205 15
-12 -6 6 5.20848 236.64 6
12 6 -6 532.86 345.623 2
-6 -12 6 208.506 253.799 6
-6 -12 6 96.1656 267.505 3
12 -6 -6 139.489 161.736 12
-12 -6 6 117.434 248.387 3
12 6 -6 31.0932 144.065 5
-6 -12 6 306.458 204.319 8
-12 6 6 132.013 194.82 8
12 6 -6 213.636 311.367 4
12 6 -6 485.722 294.083 7
-7 12 -5 87.6287 172.726 16
-7 12 -5 50.5091 207.777 15
-12 -5 7 569.654 347.73 1
7 -12 -5 272.158 291.13 13
-7 -12 5 172.228 209.216 11
12 7 -5 200.575 283.818 5
-12 7 5 317.363 249.772 9
-12 7 5 61.4728 152.874 15
-12 -5 7 520.324 324.853 8
12 7 -5 140.637 265.434 4
12 7 -5 556.956 316.853 7
-7 12 -3 951.46 435.903 16
-7 12 -3 254.216 250.56 15
7 12 3 81.8587 183.627 7
12 -7 3 287.351 223.788 14
-12 7 3 233.883 245.147 16
-7 -12 3 155.529 197.669 6
7 -12 -3 173.563 349.506 13
12 7 -3 213.422 247.386 2
7 -12 -3 28.7693 244.728 12
-12 -7 -3 288.103 319.569 6
-7 -12 3 60.7633 184.211 11
12 7 -3 194.462 296.069 5
-12 -3 7 13.3293 147.562 1
12 -7 3 107.921 203.756 5
-12 -3 7 281.654 261.274 8
-7 -12 3 329.904 260.009 1
7 12 3 171.523 213.587 2
12 7 -3 112.446 333.543 4
7 12 1 50.9117 213.992 4
-12 7 1 136.161 201.388 16
12 -7 1 235.252 148.522 14
-7 -12 1 88.7849 327.13 6
-12 -7 -1 923.895 527.277 6
-7 -12 1 275.269 250.149 1
12 -7 1 222.728 186.851 11
12 7 -1 70.6044 222.888 2
7 12 1 366.591 265.498 10
-7 -12 1 352.09 298.743 3
-7 -12 1 127.878 152.494 8
-7 12 1 280.739 288.371 16
7 12 -3 65.0607 183.165 7
-12 7 -3 54.0935 186.061 15
-7 12 3 161.63 234.646 15
7 -12 3 227.665 423.649 14
-12 -7 3 137.23 355.458 6
12 -7 -3 123.149 356.107 12
7 12 -3 15.2778 129.314 5
12 -7 -3 112.235 214.3 5
7 12 -3 53.3985 152.42 10
-12 -7 3 319.197 402.778 3
-12 -7 3 71.6403 162.55 9
12 7 3 58.7196 189.707 2
12 3 -7 84.0097 168.702 2
-7 -12 -3 819.495 374.615 1
-12 -7 3 300.197 278.651 1
-12 7 -3 59.6814 99.7618 3
-12 7 -3 30.2984 145.152 8
-7 12 5 674.329 377.782 16
12 5 -7 99.0272 187.18 2
-5 -12 7 351.094 356.983 6
-7 12 5 17.6694 160.661 15
7 -12 5 41.7233 221.702 14
-12 -7 5 18.8692 232.521 6
12 -7 -5 289.511 225.043 13
12 -7 -5 113.125 266.883 12
12 5 -7 96.4105 228.836 5
12 -7 -5 94.306 228.013 5
7 12 -5 73.0983 219.936 10
-7 12 5 107.519 232.658 9
-12 -7 5 97.6811 122.841 9
12 5 -7 171.584 262.935 4
7 12 -5 27.3213 181.906 4
12 5 -7 56.1439 138.356 7
7 12 -5 247.581 265.013 7
-8 12 -4 430.601 316.934 16
-8 12 -4 48.2407 204.557 15
12 8 -4 279.577 259.606 7
-12 8 4 627.312 355.505 15
12 -8 4 328.649 298.399 14
-8 -12 4 414.201 452.604 6
8 -12 -4 186.269 259.387 13
12 8 -4 862.799 430.61 2
8 -12 -4 60.6974 197.237 12
8 -12 -4 103.801 219.819 6
-8 -12 4 150.662 293.425 11
12 8 -4 43.5082 241.656 5
-8 12 -4 393.273 285.759 10
-12 8 4 429.809 304.887 16
12 8 -4 273.262 387.887 4
-8 12 -4 118.953 147.369 7
12 8 -2 355.933 337.506 4
12 8 -2 208.415 232.95 7
-8 12 -2 845.549 419.101 16
8 12 2 152.32 219.803 7
-12 8 2 305.146 265.109 15
8 12 2 150.962 228.939 4
12 -8 2 14.3539 237.106 14
-8 -12 2 374.811 377.027 6
8 -12 -2 359.669 353.878 13
-12 -8 -2 620.508 363.46 1
8 -12 -2 10.1743 161.993 12
-8 -12 2 150.499 190.222 11
12 8 -2 103.18 207.387 5
8 12 2 198.997 260.082 10
8 12 2 281.148 248.267 2
8 12 2 228.494 239.577 5
-8 12 -2 456.165 281.591 9
8 12 0 370.961 300.619 7
-8 12 0 28.2711 189.41 15
8 -12 0 450.601 311.63 12
12 -8 0 715.405 317.121 11
8 -12 0 525.66 348.126 11
8 12 0 374.037 207.551 10
-12 -8 0 667.805 375.695 1
12 -8 0 549.017 277.974 5
-8 -12 0 101.961 151.09 8
-8 12 2 89.7715 222.26 16
12 8 2 276.431 242.826 7
-8 12 2 82.9052 220.697 15
8 -12 2 58.9561 288.722 14
-12 -8 2 290.119 283.747 1
8 12 -2 586.488 350.685 7
-12 -8 2 162.215 216.914 6
12 -8 -2 248.728 245.318 13
8 -12 2 296.103 296.64 11
-8 12 2 208.808 207.969 10
-12 -8 2 38.2022 287.943 3
12 8 2 220.085 271.751 5
-8 -12 -2 44.3153 182.843 1
-8 -12 -2 253.908 408.378 3
-12 -8 2 500.641 313.343 8
-8 12 4 144.995 233.579 16
-12 8 -4 321.014 286.916 15
-8 12 4 77.0783 199.572 15
8 -12 4 132.251 268.248 14
12 -8 -4 381.585 334.225 13
12 -8 -4 414.574 464.724 12
8 -12 4 153.334 292.162 11
12 -8 -4 14.8431 222.588 5
-12 8 -4 14.0324 171.57 10
8 12 -4 195.545 226.301 10
-8 12 4 76.533 205.569 10
-12 8 -4 38.9111 186.519 9
-8 12 4 300.99 196.736 8
8 12 -4 203.46 360.266 4
-9 -12 3 71.5507 217.678 1
-12 9 3 28.9856 194.189 16
-9 12 -3 229.333 244.549 16
9 12 3 721.855 379.639 7
-12 9 3 297.199 282.388 15
9 12 3 118.664 302.622 4
12 -9 3 176.8 282.035 14
-9 -12 3 99.6224 184.687 6
9 -12 -3 291.365 360.173 13
12 9 -3 79.8258 162.948 12
12 9 -3 253.725 274.157 2
9 -12 -3 112.472 234.558 12
-12 -9 -3 294.121 264.403 1
-9 -12 3 271.05 401.804 3
12 -9 3 163.738 249.898 5
-12 -9 -3 25.4324 193.767 3
9 12 3 492.687 320.076 2
-12 9 1 465.296 319.217 16
9 12 1 90.8246 214.057 7
9 12 1 205.57 233.062 4
-9 12 -1 1070.18 468.857 15
12 -9 1 644.665 435.969 14
-12 -9 -1 183.624 307.866 6
9 -12 -1 207.596 220.57 12
-9 -12 1 63.5926 176.206 1
12 -9 1 493.87 306.696 11
9 -12 -1 337.017 205.775 5
-9 12 -1 707.752 306.935 10
9 12 1 149.026 183.501 10
9 12 1 608.435 345.333 2
-12 -9 -1 54.4608 290.546 3
-9 12 -1 177.875 246.16 16
-12 -9 -1 420.658 322.875 1
-9 -12 1 50.7186 149.301 8
-12 -9 -1 699.825 357.777 8
-9 -12 -1 127.572 223.858 1
-9 12 1 92.1362 222.976 16
9 12 -1 163.794 244.055 7
-12 9 -1 361.741 309.936 16
12 9 1 66.9128 173.515 7
12 9 1 476.685 343.275 4
-9 12 1 366.034 299.147 15
9 -12 1 469.757 354.437 14
-9 -12 -1 51.4468 335.049 6
12 -9 -1 658.129 393.709 12
9 12 -1 112.081 218.897 2
12 -9 -1 234.588 140.074 5
12 9 1 566.434 321.072 5
-12 9 -1 57.5293 162.246 8
-9 -12 -1 128.213 162.394 8
-9 12 3 489.229 334.939 16
9 12 -3 200.855 263.148 7
-12 -9 3 117.198 224.386 1
-12 9 -3 269.278 262.641 16
-12 9 -3 39.0968 209.352 15
12 9 3 124.185 189.132 7
12 9 3 342.68 315.97 4
9 -12 3 152.323 188.498 14
9 12 -3 165.767 226.917 2
12 -9 -3 260.48 153.01 5
-9 -12 -3 138.696 230.549 1
9 -12 3 213.82 172.558 5
-9 12 3 138.617 166.816 9
12 9 3 238.398 246.326 5
12 9 3 141.525 237.782 2
-9 -12 -3 347.08 375.48 3
-12 -9 3 523.676 323.75 8
0 13 1 396.284 249.158 16
-1 13 0 60.2053 164.974 16
13 1 0 81.0222 206.727 4
0 13 1 198.152 184.331 4
-13 0 -1 118.471 178.893 1
13 -1 0 45.8958 104.964 14
1 -13 0 12.8934 171.248 13
13 0 -1 85.8705 182.429 13
-1 -13 0 150.908 200.435 6
0 -13 -1 103.42 271.986 6
0 -13 1 427.61 312.786 11
13 1 0 401.963 264.114 2
-1 13 0 53.5374 191.005 10
13 -1 0 262.265 207.095 2
1 13 0 126.737 284.217 10
13 -1 0 74.2044 210.989 5
13 1 0 250.803 198.542 5
13 0 1 107.523 276.12 5
-13 -1 0 85.5732 269.082 3
-13 1 0 50.5893 163.567 9
-1 -13 0 269.214 183.739 1
-13 -1 0 10.1907 158.837 8
0 13 -1 283.079 229.679 4
2 13 1 821.724 360.235 7
-13 2 1 1218.02 365.703 15
13 1 2 1299.2 450.726 4
-13 -1 2 1105.13 406.727 1
13 -2 1 1051.19 346.957 14
1 -13 2 575.109 388.454 14
-13 -1 2 1014.91 319.156 6
-1 -13 -2 789.323 360.785 13
-13 1 -2 77.399 142.463 1
-2 -13 1 789.471 304.582 1
1 13 -2 1178.77 455.198 10
-1 13 2 1147.36 434.829 10
13 -1 -2 747.987 418.019 5
13 -2 1 1210.75 499.704 5
13 1 2 898.552 429.605 5
-13 2 1 821.534 455.428 9
2 13 1 821.487 304.294 2
13 1 2 964.526 377.573 2
13 -2 1 1094.27 368.938 4
-13 -1 2 1362.48 479.966 8
-13 2 1 1052.08 421.787 8
1 13 -2 778.024 350.93 7
1 13 -2 1523.28 414.981 4
13 -2 -1 1508.38 426.276 4
2 13 -1 1222.86 382.774 16
-13 2 -1 989.264 338.367 16
1 13 2 778.771 355.322 7
-1 -13 2 1370.15 375.389 1
2 13 -1 2172.3 506.539 15
13 2 1 1516.32 523.648 4
1 13 2 1401.93 430.636 15
13 -1 2 929.898 405.517 4
-2 -13 -1 847.364 289.945 13
13 1 -2 831.6 354.514 2
2 13 -1 1317.44 381.89 2
-1 -13 2 959.437 321.732 3
13 -2 -1 1190.07 380.472 2
2 13 -1 1363.38 465.43 10
1 13 2 728.489 308.932 10
13 2 1 895.999 375.053 2
13 2 1 938.477 380.846 5
13 -1 2 1080.39 393.718 5
-13 2 -1 521.12 357.819 9
-13 -2 1 368.509 278.076 8
-13 -1 -2 23.1062 160.076 8
13 -3 2 676.096 310.217 4
3 13 2 523.063 259.594 15
-13 -2 3 159.024 215.794 6
2 -13 3 386.409 336.359 14
2 -13 3 532.506 307.448 6
2 13 -3 773.683 312.261 2
-3 -13 2 343.702 323.713 6
-2 -13 -3 37.3943 189.694 6
13 -2 -3 215.126 230.001 12
13 3 -2 996.997 420.73 2
2 -13 3 408.011 340.791 11
-3 -13 2 514.083 356.308 11
-3 13 -2 358.522 176.673 10
13 -2 -3 465.662 171.389 5
-13 -2 3 219.241 230.779 9
13 -3 2 82.6268 205.205 5
-3 13 -2 238.472 198.268 9
13 2 3 278.868 212.595 5
-13 -3 -2 318.326 273.524 9
-13 -3 -2 224.919 318.527 3
-13 -2 3 133.37 213.408 8
-13 2 -3 94.1281 221.361 3
13 2 3 47.7719 144.27 2
13 -2 -3 456.066 244.065 4
-13 2 -3 96.8427 192.827 8
-13 0 -3 1084.27 332.721 15
-3 13 0 2808.65 652.143 15
0 13 3 3084.06 649.563 15
0 -13 3 2599.52 682.104 6
0 -13 -3 1654.28 521.027 13
0 -13 3 2095.19 466.354 3
-3 -13 0 2387 492.118 13
13 3 0 2240.94 587.802 2
-13 0 3 2232.1 568.07 3
13 -3 0 2084.63 476.784 2
-3 13 0 1631.28 459.498 9
13 0 3 2128.67 580.057 5
-13 0 -3 503.678 384.862 9
13 0 -3 2453.56 578.812 4
-3 13 2 530.314 320.754 16
3 13 -2 955.884 414.244 7
-13 2 3 598.523 276.207 16
-3 13 2 739.543 361.467 15
13 3 2 501.153 204.712 4
13 -2 3 136.171 147.158 4
-2 -13 3 619.88 353.114 6
2 -13 -3 633.355 363.316 13
-3 -13 -2 205.962 181.622 1
-13 2 3 408.404 219.65 3
3 -13 2 393.996 305.755 11
-2 13 -3 562.472 343.967 10
3 13 -2 799.839 427.947 10
-3 13 2 307.907 218.01 10
2 13 3 519.094 312.774 10
-13 2 3 735.086 477.703 9
13 3 2 473.499 316.538 5
-13 3 -2 76.2295 145.804 9
-13 3 -2 54.5601 179.832 8
-13 -2 -3 115.883 201.959 8
13 -3 -2 550.607 279.705 4
-3 13 4 162.157 217.587 16
-13 4 3 230.18 210.618 16
3 13 -4 213.66 199.718 15
-3 13 4 1.69933 140.904 15
3 -13 4 125.853 158.535 6
-4 -13 3 32.1115 107.636 14
13 -3 -4 146.571 158.61 13
-4 -13 3 76.2631 253.536 6
4 -13 -3 185.006 285.203 13
13 -3 -4 460.162 398.57 12
-13 4 3 116.985 201.807 3
3 -13 4 57.4382 332.351 11
-4 -13 3 318.906 274.43 11
-4 -13 3 94.8317 250.544 3
13 -3 -4 181.622 293.327 5
3 13 -4 41.2294 204.906 10
-3 13 4 134.027 205.389 10
-13 -3 4 133.398 199.946 9
-13 4 3 188.471 247.769 9
-13 -3 4 220.073 218.877 1
-13 3 -4 31.6932 276.698 9
13 -3 -4 19.5383 168.425 4
-13 -3 4 524.502 333.796 8
-13 -4 -3 1486.08 510.262 8
13 4 -1 171.246 311.588 4
-13 4 1 82.6665 163.117 15
-1 13 4 232.799 214.148 15
1 -13 4 299.137 321.352 6
13 -1 -4 573.346 299.003 2
-4 -13 1 2.92696 181.007 14
-4 -13 1 228.362 205.887 6
13 -1 -4 274.494 260.954 12
1 -13 4 95.0508 310.893 11
13 -1 -4 224.259 298.793 5
1 13 -4 136.281 192.188 10
4 13 1 54.5529 238.854 10
13 -4 1 22.9265 243.343 4
13 4 -1 121.811 283.074 5
-4 -13 1 449.68 258.308 3
-13 -1 4 266.642 332.891 9
-13 4 1 39.2238 196.114 9
-13 -1 4 271.286 254.911 8
13 -1 -4 261.704 256.489 4
-13 -4 -1 906.94 414.983 8
-1 13 4 136.998 193.279 16
-13 1 4 193.35 174.065 16
-1 13 -4 405.554 273.894 15
-1 -13 4 46.7736 116.364 14
-1 -13 4 216.346 161.128 6
13 1 -4 1026.46 398.986 2
-13 4 -1 102.62 139.237 1
-4 -13 -1 650.983 305.314 1
4 -13 1 181.938 185.437 6
-4 -13 -1 458.518 311.875 6
13 1 -4 225.245 293.183 12
-13 1 4 54.6666 163.477 3
-1 -13 4 533.065 373.069 11
-1 -13 4 252.102 194.019 1
13 -4 -1 123.212 289.427 5
1 13 4 128.708 257.728 10
-13 -4 1 70.379 307.605 3
-13 1 4 205.636 268.174 9
-4 -13 -1 159.425 248.383 3
-1 13 -4 141.021 197.558 16
-13 1 4 71.6731 189.627 8
13 1 -4 40.3475 233.726 4
1 13 4 111.026 166.338 16
-4 13 3 120.522 194.718 16
-13 3 4 342.903 229.136 16
-4 13 3 134.824 212.027 15
-3 -13 4 20.221 212.701 14
4 -13 3 148.122 182.851 6
13 4 3 149.293 348.546 4
4 -13 3 15.8496 282.735 14
-3 -13 4 96.7282 323.206 6
-13 3 4 286.587 241.774 3
-3 -13 4 7.12768 179.036 3
4 -13 3 55.3882 192.78 11
4 13 -3 192.649 329.467 10
13 3 -4 1130.81 564.865 5
-3 -13 4 97.0987 169.905 1
-13 3 4 298.196 306.218 9
13 4 3 140.412 319.557 5
-13 -4 3 462.569 299.473 1
-13 4 -3 4.57041 156.212 3
4 13 -3 30.4485 182.17 4
-5 13 -4 86.7948 215.269 15
5 13 4 127.453 184.947 7
-13 -4 5 311.135 308.932 6
4 13 -5 221.193 219.26 2
-4 13 5 166.031 206.008 15
4 -13 5 53.6413 219.124 14
-5 -13 4 306.808 240.673 6
5 -13 -4 34.2875 208.188 13
13 -4 -5 110.21 248.002 12
13 -4 -5 393.81 299.816 5
13 5 -4 233.041 304.324 5
-13 -4 5 203.768 225.216 1
-13 -4 5 28.8724 247.076 9
-13 5 4 45.2581 257.881 9
-5 -13 4 189.566 214.318 1
4 13 -5 72.6188 160.058 4
-13 -4 5 71.9968 196.504 8
-13 5 4 57.3961 179.231 8
13 5 -4 10.879 177.728 4
-4 13 5 367.451 275.893 16
-13 5 2 71.2591 165.735 16
5 13 2 235.224 234.89 7
-5 13 -2 725.704 396.865 15
2 -13 5 295.447 282.574 6
13 -2 -5 403.212 254.733 2
13 -5 2 338.555 258.232 14
-5 -13 2 562.903 299.458 1
5 -13 -2 143.041 251.377 13
13 -2 -5 571.352 312.749 12
-13 -2 5 569.616 311.661 3
2 -13 5 553.928 308.496 11
13 -2 -5 413.708 346.339 5
-5 -13 2 93.8861 183.737 11
2 13 -5 340.891 359.581 10
5 13 2 303.99 271.521 10
13 5 -2 203.72 284.825 5
-13 -2 5 497.329 324.304 9
-13 5 2 759.42 498.145 9
2 -13 5 339.216 312.318 14
-13 5 2 491.951 310.955 8
-13 0 5 947.275 311.887 16
13 5 0 433.443 394.35 4
5 13 0 790.154 290.627 15
0 -13 5 395.289 261.599 6
5 -13 0 971.446 449.485 6
-5 -13 0 301.287 189.245 6
13 0 -5 646.339 375.99 12
-13 0 5 1220.5 445.582 3
0 -13 5 354.122 280.265 11
13 0 -5 913.547 418.168 5
0 13 -5 582.061 286.258 10
13 -5 0 408.207 246.228 5
13 5 0 443.608 342.097 5
13 -5 0 246.254 179.24 2
-13 0 5 478.279 311.468 9
-5 -13 0 29.3414 191.555 3
-13 -5 0 955.2 471.244 9
-13 0 5 665.25 365.214 8
13 0 -5 357.677 170.347 4
-13 2 5 387.454 234.977 16
-5 13 2 468.157 319.291 16
5 13 -2 589.809 345.848 7
-2 13 -5 249.56 236.116 16
-2 13 -5 469.862 312.812 15
-5 13 2 19.4123 184.464 15
13 5 2 329.24 212.989 4
-2 -13 5 517.533 361.913 6
13 2 -5 211.677 238.992 2
5 -13 2 452.623 295.546 6
5 -13 2 462.232 360.558 14
-13 2 5 577.704 347.043 3
-5 -13 -2 205.235 214.467 1
13 2 -5 702.146 357.965 12
-5 -13 -2 120.998 322.518 6
13 -5 -2 133.323 310.765 12
-2 -13 5 22.2394 340.697 11
5 -13 2 534.563 303.61 11
13 2 -5 644.582 379.899 5
5 13 -2 441.141 222.931 10
13 5 2 276.213 260.911 2
-13 5 -2 170.142 216.761 15
-5 -13 -2 11.214 188.496 3
-13 5 -2 239.425 186.244 3
-13 2 5 750.298 376.635 8
-13 -5 2 351.349 294.778 8
13 2 -5 243.586 212.224 4
-2 13 -5 263.023 229.577 7
-4 13 -5 66.9495 175.265 16
4 -13 -5 133.551 199.584 13
13 -5 -4 85.2671 176.743 13
-4 -13 5 58.1956 220.916 3
-13 4 5 72.5987 142.457 1
-4 -13 5 229.261 223.617 1
13 -5 -4 286.83 285.128 5
13 4 -5 65.746 162.279 5
-13 -5 4 234.795 195.121 3
5 13 -4 85.7433 192.26 10
-5 13 4 189.104 273.817 10
-13 4 5 174.318 249.964 9
-13 -5 4 62.0744 217.668 9
-13 5 -4 35.0686 281.923 9
-13 4 5 626.953 347.571 8
-13 -5 4 388.453 295.29 8
5 13 -4 33.1396 159.31 4
13 4 -5 368.135 327.692 4
-13 6 5 453 297.459 16
5 13 -6 3.7478 113.88 15
-6 13 -5 79.4891 198.392 15
-13 6 5 283.65 234.906 15
-6 -13 5 303.61 216.33 6
13 6 -5 73.6129 216.823 2
13 -5 -6 122.88 138.156 12
-6 -13 5 249.119 223.193 3
-13 -5 6 70.3509 192.378 3
13 -5 -6 135.982 136.415 5
-6 -13 5 373.821 343.046 11
-13 -5 6 48.7155 192.414 1
-6 -13 5 277.319 240.854 1
-13 6 5 153.254 322.031 9
-13 -5 6 501.738 332.97 8
-13 6 5 674.811 360.106 8
13 6 -5 327.558 327.659 4
-13 6 3 314.807 259.46 16
13 6 -3 640.023 324.309 7
13 -3 -6 258.359 213.372 2
6 13 3 162.343 228.646 7
-6 13 -3 480.299 342.309 15
-6 -13 3 78.1778 99.436 14
13 -6 3 299.258 276.108 14
13 -6 3 329.601 250.759 4
-13 6 3 246.548 204.617 3
6 -13 -3 469.864 413.692 13
13 -3 -6 83.0902 198.213 12
6 -13 -3 167.532 169.945 12
-13 -3 6 18.6214 214.733 3
6 -13 -3 592.504 349.022 6
13 6 -3 429.959 197.312 12
-13 -3 6 168.235 207.451 1
6 13 3 348.257 297.225 10
-13 -3 6 309.685 336.902 9
13 -6 3 16.497 200.796 5
-13 -6 -3 480.375 333.646 1
-6 13 -3 336.973 302.703 9
-13 -3 6 173.039 230.481 8
-6 -13 3 810.232 371.638 1
6 13 3 35.1075 116.552 16
13 6 -3 630.135 443.614 4
13 -1 -6 514.425 291.578 2
6 13 1 710.356 364.032 7
1 13 -6 459.221 280.16 15
-6 13 -1 390.169 301.416 15
-13 -1 6 456.756 289.524 1
-6 -13 1 397.745 190.213 13
-13 -1 6 541.663 259.822 3
-6 -13 1 482.453 300.724 6
13 -1 -6 304.099 262.944 12
13 -1 -6 1086.73 492.501 5
6 13 1 348.091 251.249 10
13 -6 1 433.039 284.274 5
-13 -1 6 461.685 275.588 9
-13 -1 6 799.604 398.311 8
-13 -6 -1 184.519 256.2 1
-13 6 1 221.028 231.461 8
-13 -6 -1 10.65 174.058 8
-13 -1 6 304.992 188.853 16
-6 13 1 566.085 342.647 16
6 13 -1 247.832 268.417 7
-13 6 -1 219.997 225.537 16
13 1 -6 787.01 366.852 2
13 6 1 710.22 491.957 4
-6 13 1 98.8011 231.831 15
-1 -13 6 350.302 316.643 6
-13 1 6 2.27083 123.362 1
13 1 -6 366.046 257.062 12
-1 -13 6 548.478 361.03 11
13 1 -6 284.374 266.966 5
6 13 -1 664.998 334.126 2
-1 13 -6 1271.31 571.539 10
13 6 1 328.289 271.984 2
-13 1 6 349.194 315.941 9
-13 1 6 1296.91 484.916 8
13 1 -6 242.37 181.186 7
-1 13 -6 54.1396 153.933 7
-1 -13 6 370.717 232.122 1
-13 3 6 290.963 217.769 1
13 3 -6 68.8692 192.065 2
6 -13 3 440.835 294.396 6
-6 13 3 135.554 223.434 15
-6 -13 -3 189.992 210.894 6
13 -6 -3 316.431 263.625 12
6 -13 3 27.4456 170.137 11
13 -6 -3 133.866 297.462 5
6 13 -3 485.661 326.901 10
-13 -6 3 177.74 260.237 3
-13 3 6 338.729 438.166 9
-13 -6 3 112.527 198.914 9
-13 6 -3 396.923 326.651 9
13 -6 -3 219.422 169.675 4
-13 3 6 510.714 323.027 8
13 6 3 37.5146 161.673 2
-13 -6 3 230.571 255.314 8
-13 6 -3 272.505 189.732 3
-13 6 -3 3.48447 144.108 8
13 3 -6 487.63 262.312 7
-13 3 6 95.6852 159.276 16
-6 13 5 113.498 217.367 16
-5 13 -6 342.617 276.707 15
13 -6 -5 169.744 167.705 2
-6 13 5 38.7935 190.285 15
13 5 -6 86.5882 195.963 2
-5 -13 6 446.022 252.167 6
6 -13 5 278.382 296.47 14
-13 -6 5 189.714 257.072 6
13 -6 -5 109.353 148.928 13
-5 -13 6 68.8558 153.384 1
13 -6 -5 2.59734 178.733 12
-5 -13 6 0.89066 282.686 11
6 -13 5 38.9543 278.275 11
13 -6 -5 83.4732 239.577 5
13 5 -6 83.6786 186.785 5
6 13 -5 92.8488 248.167 10
-13 5 6 142.932 299.348 9
-13 -6 5 120.497 252.249 9
-5 -13 6 505.035 234.179 8
-13 5 6 26.0544 166.118 8
-13 -6 5 564.564 345.654 8
6 13 -5 194.03 179.139 4
13 5 -6 516.356 446.613 4
13 7 -4 364.162 276.229 7
-13 7 4 296.031 267.309 16
-7 13 -4 214.657 247.662 16
-7 13 -4 288.189 294.744 15
7 13 4 7.84744 125.228 7
13 -7 4 100.597 166.596 14
-7 -13 4 50.5207 263.308 6
-13 -4 7 72.3535 162.039 1
7 -13 -4 68.6423 348.605 13
-13 -4 7 144.352 201.149 3
13 7 -4 695.582 385.049 2
7 -13 -4 54.4716 168.519 12
13 7 -4 72.8923 188.494 12
7 -13 -4 189.973 216.875 6
13 7 -4 36.6322 299.463 5
-13 -4 7 164.973 226.389 9
13 -7 4 78.3751 137.441 5
-13 -4 7 174.478 233.385 8
-7 -13 4 149.415 171.078 8
13 7 -4 139.111 190.399 4
-13 7 2 236.434 236.275 16
13 7 -2 342.725 260.704 7
-7 13 -2 49.579 204.299 16
7 13 2 469.819 328.159 7
-7 13 -2 110.843 223.583 15
7 13 2 171.224 176.441 4
-13 -2 7 513.11 320.879 1
-7 -13 2 378.526 288.502 6
7 -13 -2 90.6899 322.808 13
-13 7 2 183.406 101.759 3
7 -13 -2 248.387 231.087 12
13 7 -2 50.0034 232.486 12
13 7 -2 708.064 400.228 2
-13 -7 -2 431.923 304.574 1
-7 13 -2 55.1448 156.166 10
7 13 2 79.604 179.907 10
-13 -2 7 100.587 206.184 9
13 -7 2 100.886 159.221 5
-13 7 2 108.716 198.432 9
7 13 2 85.012 171.216 5
-7 13 -2 69.358 248.642 9
-13 -2 7 141.947 212.476 8
-13 -7 -2 211.818 270.708 3
-7 -13 2 144.144 162.147 8
13 0 -7 368.6 265.822 2
-13 0 7 218.031 211.893 1
-7 13 0 294.274 294.414 16
-13 7 0 603.746 345.411 16
7 13 0 809.318 409.205 7
-13 7 0 747.317 366.238 15
13 -7 0 322.136 358.338 14
7 -13 0 245.92 225.869 12
13 0 -7 190.952 301.443 5
13 -7 0 280.686 222.347 11
-13 0 7 185.598 187.37 9
-7 -13 0 75.9965 373.826 3
-7 -13 0 377.703 211.411 8
-7 13 2 388.511 307.917 16
7 13 -2 84.1245 205.324 7
13 2 -7 11.2275 149.883 2
-13 7 -2 346.574 285.677 16
13 7 2 299.205 244.533 7
-7 13 2 404.225 325.342 15
13 -7 -2 3.6516 319.15 13
-7 -13 -2 133.266 252.221 6
13 -7 -2 106.476 212.925 12
13 2 -7 407.638 359.774 5
7 -13 2 125.239 221.879 11
13 -7 -2 255.097 270.789 5
-7 13 2 95.1709 182.189 10
-13 -7 2 194.593 284.853 3
-13 2 7 160.148 156.818 9
-7 13 2 399.242 333.244 9
13 7 2 50.6945 231.79 5
-13 2 7 315.547 270.007 8
-7 -13 -2 252.229 248.534 3
-13 -7 2 326.257 288.815 8
-7 13 4 224.266 268.985 16
-13 7 -4 33.0358 172.641 16
13 4 -7 58.3756 194.035 2
-4 -13 7 206.896 281.128 6
-7 13 4 382.083 319.985 15
7 -13 4 60.4996 167.096 14
13 -7 -4 57.1488 211.518 13
13 -7 -4 191.62 296.701 12
-7 -13 -4 310.267 345.779 6
13 4 -7 394.194 326.565 5
7 -13 4 82.3699 303.352 11
-13 7 -4 35.0618 165.653 10
-13 -7 4 171.762 195.217 3
-7 13 4 22.175 211.576 10
-13 4 7 177.365 223.705 9
-7 13 4 0.27256 226.116 9
-13 7 -4 2.27648 141.442 9
13 4 -7 158.638 252.727 4
-13 -7 4 348.802 308.898 1
7 13 -4 126.756 201.997 4
13 4 -7 454.085 269.417 7
-8 13 -3 891.281 441.851 16
-8 -13 3 100.064 194.117 1
8 13 3 292.136 273.108 7
8 13 3 614.771 458.952 4
13 -8 3 154.04 217.791 14
-8 -13 3 15.9881 237.724 6
8 -13 -3 342.946 371.832 13
8 -13 -3 81.1132 177.018 12
-13 -8 -3 2.32679 136.688 1
-8 -13 3 127.892 168.652 11
13 8 -3 54.6361 286.898 5
-13 8 3 104.6 194.661 9
-8 13 -3 45.2651 263.71 9
-13 -8 -3 96.7169 186.097 3
-8 -13 3 282.897 214.879 8
8 13 3 336.857 272.414 2
13 8 -3 14.3442 251.011 4
-8 13 -1 694.625 397.793 16
8 13 1 93.148 191.956 7
8 13 1 335.103 378.502 4
-8 13 -1 117.163 217.969 15
-13 8 1 344.475 298.24 15
13 -8 1 58.698 279.673 14
8 -13 -1 258.851 430.231 13
8 -13 -1 140.07 170.216 12
13 -8 1 524.478 249.936 11
-8 -13 1 822.727 383.375 11
-8 13 -1 33.2524 184.933 10
8 13 1 453.728 329.42 10
-8 -13 1 119.443 323.799 3
-8 13 -1 302.475 320.741 9
-13 -8 -1 4.24739 357.241 3
-8 -13 1 254.434 202.541 8
-13 -8 -1 22.5638 183.488 8
-13 -8 -1 347.02 293.428 1
8 13 -1 240.948 372.189 4
8 13 -1 333.825 293.694 7
-13 8 -1 36.603 178.631 16
-8 -13 -1 60.4926 199.432 1
-8 13 1 92.0386 225.036 15
8 -13 1 13.2765 103.258 6
-8 -13 -1 355.251 359.328 6
-8 13 1 202.758 224.096 10
13 -8 -1 435.266 271.28 5
8 13 -1 194.804 178.073 5
-8 13 1 119.641 208.611 9
-8 -13 -1 148.583 259.99 3
-8 13 3 154.143 244.979 16
8 13 -3 286.795 301.049 7
-13 8 -3 1008.68 439.582 16
-13 8 -3 192.262 241.655 15
13 8 3 0.33236 296.886 4
-8 -13 -3 22.957 233.03 6
-13 -8 3 40.9765 108.569 11
8 -13 3 31.0517 174.103 11
13 -8 -3 11.0462 143.817 5
-13 8 -3 23.6188 156.022 10
8 13 -3 119.046 162.157 10
-13 -8 3 98.7404 223.858 3
-8 13 3 113.808 239.819 9
-13 8 -3 289.631 403.123 9
-13 -8 3 79.0249 203.455 8
-13 8 -3 10.1077 136.381 3
8 13 -3 126.533 257.832 4
-14 0 0 66.9155 126.446 16
0 14 0 96.102 197.839 15
0 -14 0 575.561 247.736 1
0 -14 0 114.246 192.301 13
0 -14 0 35.5668 129.7 3
14 0 0 15.5866 256.281 5
-14 0 0 100.589 214.656 8
1 14 1 315.615 237.853 16
-1 14 1 779.428 360.516 16
1 14 -1 489.095 314.192 7
1 14 1 39.8485 168.481 7
1 14 1 154.826 230.297 4
1 14 1 244.701 221.797 15
14 -1 1 40.3281 164.97 14
14 -1 -1 24.6487 161.991 14
-1 -14 -1 60.4251 271.251 13
14 -1 -1 262.749 178.318 13
-1 -14 -1 207.776 178.713 1
1 -14 1 320.419 295.435 11
-1 14 1 590.143 330.295 10
-1 -14 1 198.212 201.844 3
1 14 1 126.025 376.689 10
14 -1 -1 77.7747 238.038 5
-14 1 1 449.536 325.456 3
14 -1 1 411.149 307.258 5
14 -1 1 114.691 176.029 2
14 1 1 110.329 181.616 5
-14 1 1 81.124 211.562 9
-14 -1 1 67.1879 201.023 9
-14 1 -1 37.6094 188.722 3
-14 1 1 115.095 215.556 8
-14 -1 -1 390.989 312.683 8
1 14 -1 195.19 227.624 4
2 14 0 84.3395 216.248 4
-14 2 0 395.204 239.988 16
14 2 0 274.301 375.888 4
14 2 0 224.58 175.881 7
14 0 -2 44.3211 112.851 14
0 -14 2 132.33 252.29 6
2 -14 0 380.089 433.678 13
-2 -14 0 54.6059 272.658 6
0 -14 -2 247.692 310.596 6
0 14 -2 102.878 301.588 10
14 2 0 415.198 285.481 2
0 14 2 230.856 332.512 10
14 0 -2 12.8249 297.108 5
14 -2 0 143.385 211.616 5
14 0 2 138.751 241.469 5
-14 2 0 201.388 294.591 9
-14 0 -2 63.7108 205.973 9
14 0 2 60.9544 149.013 2
2 14 -2 390.697 297.899 7
2 14 2 360.96 276.151 7
2 14 -2 242.23 223.907 15
-14 2 2 358.672 225.851 15
-2 14 2 117.127 213.948 15
14 -2 2 25.7688 213.59 4
14 2 2 445.404 444.555 4
2 14 2 277.88 220.68 15
2 -14 2 155.737 325.258 14
-2 -14 -2 97.5743 247.655 13
-2 -14 2 157.024 190.569 6
2 -14 -2 259.037 350.851 13
14 -2 -2 270.467 258.017 13
2 -14 2 141.009 301.027 11
-2 -14 2 245.576 233.066 3
2 14 -2 1003.69 445.802 10
14 -2 -2 210.781 342.049 5
14 2 2 58.9859 175.544 5
-2 -14 -2 62.1693 199.913 3
14 -2 2 142.607 173.151 2
-14 2 -2 129.819 165.051 1
14 -2 -2 171.774 213.643 4
-14 3 1 215.794 203.664 16
14 3 -1 49.0857 304.46 4
1 14 -3 109.768 171.156 16
3 14 1 470.975 317.227 7
-14 1 -3 1.58696 118.539 15
-14 -1 3 223.028 118.695 6
-1 14 3 245.106 223.074 4
1 -14 3 419.762 317.924 6
-1 -14 -3 130.256 124.805 13
-3 -14 1 405.77 228.079 13
14 -1 -3 260.268 226.846 2
3 -14 -1 151.741 209.019 12
-1 -14 -3 189.732 289.662 6
-3 -14 1 165.884 193.791 1
-3 -14 1 1.18378 278.739 11
-14 -1 3 213.76 161.497 3
14 -1 -3 126.152 274.748 5
3 14 1 204.925 274.349 10
-1 14 3 167.959 309.54 10
14 3 -1 40.0981 216.065 5
14 -3 1 26.2601 207.148 5
-14 -1 3 90.5564 194.391 9
-14 -3 -1 42.3955 293.85 9
14 1 3 474.7 312.439 5
-14 1 -3 7.20017 217.409 9
-14 -1 3 332.452 291.109 8
-14 -1 3 533.68 314.522 1
-14 -3 -1 86.35 217.149 8
-1 14 -3 118.29 207.145 16
-14 3 -1 210.169 199.372 16
-1 14 -3 37.9077 179.356 15
1 14 3 303.108 258.786 7
3 14 -1 127.265 181.716 15
14 3 1 273.346 197.634 7
-3 14 1 68.5358 201.419 15
-14 1 3 41.9602 116.659 15
1 14 3 364.814 253.832 15
14 -1 3 373.854 214.017 4
-1 -14 3 563.867 312.09 14
-1 -14 3 16.6793 276.611 6
1 -14 -3 229.574 163.402 13
-3 -14 -1 137.691 172.293 13
-3 -14 -1 209.578 239.665 6
-1 -14 3 246.887 169.717 3
14 1 -3 49.1456 278.801 12
3 14 -1 451.43 264.453 2
14 1 -3 58.1592 246.017 5
1 14 3 302.88 310.688 10
14 3 1 104.862 200.844 2
14 3 1 124.352 246.72 5
-3 14 1 232.466 156.654 9
-14 -3 1 211.887 221.947 9
-14 3 -1 64.9742 261.491 9
14 -1 3 342.627 451.599 5
-1 -14 3 360.955 223.282 1
-14 1 3 196.56 246.236 8
-14 -3 1 112.77 228.269 8
14 1 -3 456.901 298.308 4
-3 14 3 324.864 277.442 16
3 14 -3 582.485 336.639 7
-14 3 3 61.2974 154.046 16
-3 14 -3 437.851 320.689 15
-3 14 3 314.998 228.933 7
14 3 3 109.283 233.912 4
14 -3 3 322.329 277.974 4
3 -14 3 155.037 236.222 6
3 -14 -3 108.243 180.718 13
14 3 -3 169.721 219.269 12
14 -3 -3 253.822 344.196 12
-14 3 3 106.566 178.576 3
3 -14 3 86.2076 264.844 11
14 -3 -3 83.1414 193.244 5
-3 14 3 152.006 200.992 10
-14 3 3 41.8456 231.371 9
-14 -3 3 248.88 219.263 9
14 -3 3 466 373.15 5
14 3 3 411.549 358.571 5
-14 3 -3 305.961 414.734 9
-14 3 3 341.504 291.799 8
-14 -3 3 380.887 309.291 8
14 3 3 456.807 306.529 2
14 -3 -3 189.163 234.118 4
-14 -3 3 55.2582 195.01 1
2 14 -4 161.451 205.444 15
4 14 2 248.032 280.113 4
-2 14 4 597.245 338.565 15
14 -4 2 106.003 164.449 14
2 -14 4 209.71 303.213 6
14 -2 -4 262.758 221.507 13
-14 4 2 204.08 187.016 1
4 -14 -2 321.1 224.371 12
14 -2 -4 95.6689 298.421 12
14 4 -2 318.354 275.584 12
14 4 -2 903.046 420.419 2
2 -14 4 140.31 194.318 11
14 -2 -4 173.666 212.837 5
2 14 -4 198.348 230.946 10
-4 -14 2 168.246 144.836 3
4 14 2 339.04 334.539 10
14 4 -2 765.595 469.219 5
14 -4 2 11.827 175.185 5
-4 14 -2 97.4404 170.345 9
-14 -4 -2 296.173 245.167 9
2 14 -4 169.07 234.493 4
-14 -2 4 7.52088 168.267 8
14 -2 -4 461.2 315.386 4
-14 -4 -2 545.653 348.75 8
0 14 4 54.1422 166.654 16
-4 14 0 63.5508 149.696 7
0 14 -4 284.808 239.722 16
14 4 0 101.496 280.865 4
14 4 0 85.4083 147.773 7
-4 14 0 811.735 400.739 15
0 -14 4 7.84099 245.555 6
14 0 -4 343.18 259.492 2
-4 -14 0 109.038 130.855 13
-4 -14 0 79.5639 250.478 6
14 0 -4 113.185 196.628 12
-14 0 4 248.781 206.521 3
0 -14 4 23.2624 200.265 11
0 14 -4 194.485 304.749 10
14 4 0 72.2821 205.453 2
14 0 -4 78.7374 243.893 5
-4 14 0 114.085 252.066 10
4 14 0 8.92306 129.629 2
0 14 4 26.7048 263.967 10
14 -4 0 2.58025 192.872 5
-14 0 4 65.8201 161.706 9
-4 -14 0 538.749 290.593 1
-14 4 0 99.8484 202.225 9
-14 -4 0 9.81511 192.289 9
-14 0 4 480.506 298.457 1
-14 0 4 72.5269 198.99 8
-14 4 0 205.665 246.209 8
14 0 -4 126.62 163.272 4
-14 2 4 333.815 231.448 16
4 14 -2 257.04 263.008 7
-4 14 2 153.587 217.572 15
14 4 2 22.3501 261.635 4
-14 2 4 126.234 155.138 15
-2 -14 4 67.5743 224.276 14
-2 -14 4 58.5507 185.294 6
4 -14 2 112.245 243.006 14
4 -14 2 196.784 264.153 6
2 -14 -4 99.987 188.048 13
14 2 -4 704.742 360.633 2
-4 -14 -2 595.729 427.187 6
14 2 -4 135.735 249.895 12
2 -14 -4 93.3122 195.296 6
14 -4 -2 620.399 516.982 12
4 -14 2 179.983 253.331 11
14 2 -4 211.341 429.589 5
4 14 -2 106.613 258.715 10
-4 14 2 10.9366 168.376 10
14 -4 -2 412.088 239.98 5
2 14 4 390.77 351.671 10
-14 2 4 142.587 299.966 9
14 4 2 388.03 334.477 5
14 4 2 207.396 246.079 2
-14 -4 2 113.849 145.271 9
-14 4 -2 356.825 324.28 9
-4 -14 -2 144.246 207.914 3
-14 2 4 779.206 401.011 8
14 -4 -2 418.548 198.558 4
4 14 -2 51.6953 217.225 4
2 14 4 135.489 177.055 16
4 14 -4 335.901 272.872 7
-4 14 4 266.257 247.787 16
14 4 -4 16.6318 134.574 7
-4 14 -4 97.4405 229.943 15
4 14 4 423.485 303.775 7
-14 4 4 370.81 251.258 15
4 -14 4 338.995 223.303 6
-4 -14 4 13.1935 139.089 14
4 -14 4 97.456 258.761 14
-4 -14 4 608.034 282.667 6
14 -4 -4 421.342 255.395 2
4 -14 -4 559.978 429.999 13
14 -4 -4 370.921 331.413 13
14 4 -4 1014.08 448.79 2
-14 4 4 229.835 157.489 3
14 4 -4 410.401 356.485 12
14 -4 -4 509.631 371.463 12
4 -14 -4 71.3587 239.662 6
-4 -14 -4 190.923 305.469 6
-4 -14 4 287.535 173.158 3
4 -14 4 289.386 223.522 11
-4 -14 4 338.82 226.642 11
14 -4 -4 129.401 176.102 5
-14 -4 4 423.408 349.838 3
4 14 -4 38.4539 235.244 10
14 4 -4 422.437 382.95 5
-4 14 4 326.71 306.504 10
-4 14 4 307.867 290.985 9
-14 4 4 7.95274 330.24 9
-14 4 -4 241.74 365.117 9
14 -4 4 33.5451 231.842 5
-14 -4 4 104.67 222.949 8
14 4 -4 461.088 310.794 4
-5 14 -3 1085.08 466.641 16
-14 -5 -3 316.958 263.521 1
5 14 3 27.8577 184.247 7
-5 14 -3 556.836 367.542 15
14 -5 3 119.44 204.047 14
3 -14 5 113.594 176.03 14
14 -5 3 179.534 272.82 4
-5 -14 3 130.182 354.925 6
5 -14 -3 142.499 188.142 12
14 5 -3 388.813 298.86 2
5 -14 -3 25.5198 165.373 6
-14 5 3 83.2264 157.126 3
-14 -5 -3 238.127 251.433 6
3 -14 5 460.692 379.663 11
-14 -3 5 137.773 170.822 3
-5 -14 3 240.461 315.096 11
-5 -14 3 111.78 155.077 3
3 14 -5 424.531 380.931 10
5 14 3 213.48 236.459 10
-14 -3 5 204.853 264.64 9
14 -5 3 78.5684 238.952 5
-5 14 -3 14.0548 207.734 9
3 14 -5 32.1506 199.111 4
-14 -3 5 75.4089 201.216 8
-14 -5 -3 150.117 235.979 3
-14 -5 -3 154.009 231.702 8
-5 -14 3 37.2525 153.371 1
3 14 -5 24.0129 186.687 7
-3 14 5 318.925 273.507 16
-14 5 1 93.5574 190.198 16
14 5 -1 450.634 369.07 4
5 14 1 438.72 301.1 7
5 14 1 82.9012 133.99 15
1 -14 5 124.164 273.664 6
14 -1 -5 193.908 209.871 2
14 -5 1 126.77 263.424 14
-5 -14 1 61.2791 154.891 14
-5 -14 1 142.228 301.99 6
5 -14 -1 140.952 245.408 13
-14 -5 -1 76.8026 244.328 6
14 -1 -5 253.337 284.631 12
-14 -1 5 10.6826 177.21 3
1 -14 5 72.021 293.628 11
-5 -14 1 256.107 230.4 1
14 5 -1 214.051 254.537 2
14 -1 -5 95.3959 246.106 5
-5 -14 1 465.638 423.683 11
5 14 1 117.075 230.547 10
14 5 -1 78.3433 226.053 5
-5 -14 1 89.0312 204.681 3
5 14 1 41.1264 150.98 2
-14 -5 -1 237.452 317.789 9
-14 -5 -1 148.385 240.428 8
1 14 -5 216.635 237.952 7
-1 14 -5 106.912 142.243 2
14 5 1 153.956 179.229 7
14 5 1 92.1205 284.618 4
-5 14 1 232.215 247.443 15
14 1 -5 8.1519 158.629 2
14 -5 -1 11.7699 167.921 14
5 -14 1 63.9978 235.025 14
-5 -14 -1 13.5911 101.61 13
-5 -14 -1 256.998 227.709 1
-5 -14 -1 28.6332 270.599 6
-14 1 5 134.722 241.797 3
14 1 -5 6.66413 205.795 12
-1 -14 5 194.299 189.398 1
14 -5 -1 8.86225 255.513 12
-14 -5 1 105.816 213.821 1
-1 -14 5 155.587 274.432 11
5 -14 1 17.6626 236.815 11
14 1 -5 225.022 301.083 5
5 14 -1 282.233 247.623 2
-14 1 5 59.761 171.097 1
5 14 -1 272.545 378.88 10
14 -5 -1 38.9953 217.045 5
14 5 1 379.253 307.49 2
14 5 1 1099.61 541 5
-14 1 5 2.66615 197.926 9
-5 -14 -1 41.6147 182.05 3
-14 -5 1 53.9145 239.834 9
-14 1 5 37.8988 174 8
-14 -5 1 236.62 267.837 8
14 1 -5 40.1321 115.601 7
-3 14 -5 244.425 236.995 16
-14 5 -3 516.87 307.191 16
-5 14 3 295.027 285.162 15
5 -14 3 32.3506 209.411 6
14 5 3 9.42211 225.947 4
-3 -14 5 36.3246 245.684 6
5 -14 3 418.062 364.143 14
-3 -14 5 8.76805 141.642 3
14 -5 -3 81.0177 236.907 13
14 -5 -3 219.791 191.427 2
14 3 -5 72.0388 124.939 12
-5 -14 -3 506.128 491.614 6
-3 -14 5 227.778 379.751 11
5 -14 3 141.793 218.662 11
14 3 -5 343.7 378.626 5
-3 14 -5 239.736 441.662 10
14 -5 -3 193.05 183.732 5
-14 -5 3 95.0749 148.454 9
14 5 3 38.7193 146.393 5
-5 -14 -3 93.5406 260.839 3
14 5 3 468.575 327.7 2
-14 -5 3 14.1235 184.706 8
14 3 -5 177.627 278.707 4
-14 5 -3 125.275 210.77 8
5 14 -3 63.2351 151.609 4
-3 14 -5 189.568 211.469 7
14 6 -2 411.793 395.386 4
6 14 2 41.9155 201.232 7
14 -2 -6 18.0483 137.393 2
-6 14 -2 505.988 364.889 15
14 -6 2 162.292 242.115 14
-6 -14 2 134.409 127.684 14
6 -14 -2 113.66 282.799 13
-14 -2 6 107.414 309.549 3
14 -2 -6 277.817 268.336 12
6 -14 -2 136.262 225.959 12
-14 -6 -2 158.176 243.119 6
14 6 -2 129.715 251.533 2
-14 -2 6 397.514 284.716 1
14 -2 -6 24.1969 248.662 5
2 14 -6 193.356 270.702 10
14 6 -2 689.901 471.954 5
6 14 2 495.641 325.755 10
-14 -2 6 152.49 219.783 9
14 -6 2 176.257 210.783 5
-14 6 2 330.93 266.2 9
-6 14 -2 75.9848 230.507 9
6 14 2 88.4515 184.236 2
-14 -6 -2 278.842 378.839 3
-14 -2 6 204.331 250.858 8
-14 -6 -2 240.328 261.611 8
6 14 0 25.9408 121.077 16
-6 14 0 353.623 295.721 16
-14 6 0 598.468 341.046 16
6 14 0 72.4677 216.178 7
14 6 0 448.573 280.422 7
-14 0 6 79.6725 188.475 3
-6 -14 0 336.286 476.56 6
-14 -6 0 237.682 263.949 6
14 0 -6 114.866 235.134 12
6 -14 0 79.6317 257.675 12
0 -14 6 328.99 332.13 11
14 0 -6 248.454 458.961 5
6 -14 0 10.0417 300.597 11
0 14 -6 96.3248 293.893 10
14 6 0 666.944 392.605 2
6 14 0 183.367 254.022 10
14 -6 0 31.1638 194.005 5
14 6 0 497.501 319.309 5
-14 0 6 132.25 171.301 9
-6 -14 0 171.108 218.915 1
-14 -6 0 317.139 361.794 3
14 -6 0 41.2339 109.085 2
-14 -6 0 47.8441 255.896 9
14 0 -6 8.66664 210.812 4
-14 0 6 126.499 217.871 8
-14 6 0 174.467 229.04 8
-14 -6 0 38.9922 201.716 8
14 0 -6 235.818 172.903 7
-14 0 6 106.581 145.554 16
-6 14 2 191.424 249.572 16
6 14 -2 7.5562 202.236 7
-14 6 -2 486.16 301.985 16
14 6 2 547.205 296.311 7
14 6 2 378.584 397.137 4
-6 -14 -2 267.118 244.632 1
6 -14 2 19.8991 163.805 6
6 -14 2 192.382 223.11 14
-14 -6 2 345.021 218.88 6
14 2 -6 166.96 274.459 12
-6 -14 -2 97.2405 342.095 6
14 -6 -2 60.7926 332.822 12
14 2 -6 261.557 317.402 5
6 -14 2 122.792 248.63 11
6 14 -2 133.992 121.84 5
-2 14 -6 313.515 353.873 10
-6 14 2 239.405 261.396 10
-14 -6 2 330.261 375.488 3
-14 2 6 279.028 296.615 9
14 6 2 613.862 366.864 2
14 6 2 21.7663 181.198 5
-14 6 -2 159.161 236.17 9
-6 -14 -2 281.996 334.719 3
14 2 -6 221.181 213.853 4
-14 -6 2 1.87387 180.906 8
-14 6 -2 49.0362 177.21 8
6 14 -2 143.674 179.644 4
15 0 -1 497.245 374.263 4
-1 15 0 375.796 287.539 16
15 -1 0 263.943 252.668 4
0 15 1 403.227 245.168 4
0 15 1 161.172 217.178 7
15 0 1 128.664 264.954 4
-1 15 0 521.39 322.247 15
0 15 1 910.454 396.707 15
15 -1 0 371.106 169.716 14
-15 0 -1 24.2009 148.71 1
0 -15 1 253.673 186.757 6
1 -15 0 67.561 246.065 6
-1 -15 0 285.573 149.607 13
-1 -15 0 83.476 316.096 6
1 -15 0 364.226 244.225 13
0 -15 -1 218.442 291.795 6
0 -15 1 81.9402 178.394 11
0 15 -1 89.3367 212.104 10
-1 15 0 322.813 411.986 10
0 15 1 233.046 401.837 10
15 0 -1 123.048 252.302 5
15 -1 0 281.703 274.748 5
-15 1 0 77.5208 195.786 9
-15 1 0 445.681 285.631 1
-15 -1 0 22.7698 189.122 8
-1 15 2 1353.61 480.336 16
2 15 1 1133.81 410.532 16
1 15 -2 606.784 355.778 7
15 2 -1 1374.66 496.56 4
-2 15 -1 1474.2 507.189 16
-15 2 1 616.193 294.431 16
-1 15 2 1494.79 490.374 7
15 -2 1 1121.16 414.351 4
-15 -2 -1 5.22576 147.445 1
15 1 2 824.06 370.751 4
2 15 1 1025.95 396.448 15
-1 15 2 1344.05 484.539 15
15 -2 1 836.87 335.362 14
-15 -1 2 794.462 291.755 6
-1 -15 -2 910.122 396.737 13
15 -1 -2 743.289 368.161 13
2 -15 -1 957.358 438.323 13
2 -15 -1 931.482 350.892 12
1 -15 2 754.36 401.212 11
2 15 1 1174.82 538.312 10
-1 15 2 1945.39 626.573 10
15 -1 -2 1077.68 409.134 5
-15 2 1 903.691 346.329 3
15 2 -1 940.581 404.138 5
15 -2 1 977.616 484.234 5
15 1 2 927.108 359.642 5
-15 2 1 454.887 322.457 9
15 -2 1 680.808 321.427 2
-15 -2 -1 633.066 453.054 9
-15 1 -2 343.008 317.802 9
15 1 2 1215.98 449.179 2
-15 1 -2 332.784 298.431 3
-15 -1 2 968.906 448.725 8
-2 15 -1 1018.51 283.167 4
-15 2 1 1445.25 529.645 8
-15 -2 -1 443.453 334.963 8
15 -2 -1 952.949 378.012 4
1 15 2 1407.89 470.336 16
-15 2 -1 63.193 143.585 16
1 15 2 730.178 373.961 7
15 2 1 910.743 458.019 4
2 15 -1 744.167 342.996 15
-2 -15 -1 77.9837 146.027 1
-2 15 1 803.402 399.112 15
15 -1 2 1082.2 438.761 4
1 15 2 1400.91 470.42 15
15 -2 -1 953.59 372.163 14
2 -15 1 1148.6 323.645 6
15 1 -2 798.248 330.114 13
1 -15 -2 1423.98 541.641 13
2 -15 1 1064.99 365.101 12
15 1 -2 771.784 456.329 12
15 1 -2 859.909 392.96 2
2 15 -1 1005.3 362.129 2
-1 15 -2 868.436 435.793 10
-2 15 1 1296.28 557.362 10
1 15 2 841.191 445.635 10
15 1 -2 1203.37 511.227 5
-15 -2 1 946.822 503.084 9
-15 1 2 998.56 453.064 8
-15 -2 1 1463.91 539.726 8
-15 2 -1 1105.89 467.703 8
3 15 2 441.903 275.012 16
15 3 -2 939.792 341.33 7
-15 -2 3 554.546 335.972 1
-3 15 -2 544.493 351.754 15
-2 15 3 234.505 222.435 7
15 -3 2 584.738 321.354 4
-2 15 3 750.314 386.226 15
3 15 2 156.723 184.963 15
-3 -15 2 246.689 331.56 6
3 -15 -2 492.631 344.873 13
3 -15 -2 84.9131 166.26 12
3 -15 -2 306.774 291.148 6
15 -2 -3 390.158 270 2
-2 -15 -3 82.0352 244.354 6
15 -2 -3 353.102 280.369 12
2 -15 3 419.447 229.742 11
-3 -15 2 310.408 217.227 11
-3 -15 2 356.731 258.937 3
-3 15 -2 691.587 453.688 10
-15 -2 3 347.649 288.552 3
15 -2 -3 195.283 299.244 5
3 15 2 905.678 489.64 10
-2 15 3 307.502 340.446 10
15 3 -2 167.919 223.233 5
-15 3 2 410.537 379.26 9
15 2 3 77.4897 228.259 5
-15 2 -3 41.8441 359.097 9
-2 -15 -3 89.7191 159.688 3
-15 -3 -2 3.65857 128.217 1
-15 2 -3 270.268 310.117 3
2 15 -3 225.007 277.571 4
15 2 3 156.882 215.3 2
-15 -3 -2 364.69 308.538 8
-15 2 -3 455.798 325.966 8
0 15 -3 299.757 261.49 7
-15 0 3 81.5057 182.257 1
3 15 0 11.9226 164.92 7
-15 3 0 388.463 249.661 1
15 3 0 26.8821 117.04 7
0 15 3 299.252 245.637 7
-15 3 0 188.704 204.908 15
-3 15 0 84.2931 212.931 15
-15 0 3 287.145 198.073 6
15 0 3 232.122 311.87 4
15 -3 0 97.7421 166.2 14
0 -15 -3 157.026 163.355 13
0 -15 3 226.488 206.855 3
3 -15 0 376.164 367.733 13
-3 -15 0 376.686 360.44 6
-15 -3 0 312.833 211.34 6
0 -15 -3 60.9645 265.793 6
15 0 -3 239.415 287.472 12
15 3 0 757.89 393.177 2
15 0 -3 207.69 289.378 5
0 15 3 224.056 345.04 10
15 -3 0 296.747 324.44 5
15 3 0 147.699 219.45 5
15 -3 0 232.502 212.831 2
-3 -15 0 338.651 192.243 3
-15 0 3 154.644 283.415 9
-15 3 0 410.336 412.061 9
15 0 3 198.886 419.192 5
-15 -3 0 71.8227 253.076 9
-15 0 -3 149.387 333.484 9
-15 0 -3 109.053 219.215 8
-3 -15 0 229.524 207.862 1
15 0 -3 96.236 263.467 4
-2 15 -3 62.4498 162.508 7
-3 15 2 532.7 347.655 16
-15 2 3 10.1747 135.177 16
3 15 -2 420.721 325.204 7
15 2 -3 605.891 274.187 7
-15 2 3 771.936 348.042 1
-2 15 -3 703.164 365.553 16
-15 3 -2 27.3028 128.715 16
-2 15 -3 0.29598 151.945 15
-3 15 2 899.867 421.362 15
15 -2 3 588.1 321.832 4
-2 -15 3 457.322 334.294 14
-3 -15 -2 224.461 222.484 13
-15 -3 2 211.783 166.006 6
2 -15 -3 94.1224 192.292 13
15 2 -3 647.736 351.688 12
15 -3 -2 204.329 266.608 12
-2 -15 3 59.8889 168.662 3
3 -15 2 156.491 310.094 11
3 15 -2 65.4096 361.26 10
15 2 -3 648.876 353.953 5
-3 15 2 735.706 522.886 10
15 -3 -2 572.505 423.894 5
2 15 3 319.516 268.803 10
-15 2 3 402.671 325.508 9
15 -2 3 579.223 376.783 5
15 3 2 41.7525 190.629 2
-3 -15 -2 24.8312 160.932 3
-15 -2 -3 505.38 408.154 3
-15 -3 2 14.1193 187.056 8
-15 3 -2 274.65 276.421 8
-15 -2 -3 484.22 343.84 8
15 2 -3 350.055 304.542 4
1 15 -4 117.441 222.59 7
-1 15 4 202.535 236.037 16
-4 15 -1 307.173 286.791 16
-15 4 1 235.614 230.071 16
15 4 -1 127.357 415.368 4
1 15 -4 4.13729 129.975 16
4 15 1 301.182 285.177 7
4 15 1 54.0373 153.022 4
1 15 -4 36.4038 178.833 15
-4 15 -1 168.897 261.196 15
4 15 1 391.03 250.396 15
-1 15 4 328.358 273.515 15
1 -15 4 20.758 211.224 14
1 -15 4 61.7978 217.657 6
15 -4 1 243.451 237.091 14
15 -1 -4 39.0125 163.526 13
15 -1 -4 729.088 359.641 2
-4 -15 1 266.186 248.749 6
-4 -15 1 8.72143 230.46 13
4 -15 -1 73.7608 213.629 13
15 -1 -4 17.335 210.365 12
-1 -15 -4 113.272 265.096 6
1 -15 4 152.266 394.118 11
-15 -1 4 206.881 275.756 3
-4 -15 1 184.373 209.546 1
1 15 -4 154.309 200.749 10
15 -1 -4 397.994 319.987 5
4 15 1 226.223 391.578 10
-4 -15 1 36.0383 249.039 3
-1 15 4 71.9503 234.377 10
15 4 -1 20.8926 232.689 5
4 15 1 417.899 268.761 2
-15 -4 -1 28.3406 270.936 3
15 -4 1 77.3737 145.273 2
-15 -1 4 591.751 347.824 1
-15 -1 4 83.1206 228.103 8
15 -1 -4 81.4441 188.139 4
-15 -4 -1 307.859 301.245 8
-1 -15 -4 14.8075 150.08 3
-4 15 1 479.319 345.05 16
-15 4 -1 244.312 223.159 16
-4 15 1 91.759 163.087 7
-1 15 -4 142.364 221.106 15
-4 15 1 260.473 290.281 15
4 15 -1 230.673 209 15
-1 -15 4 268.755 354.85 6
15 -4 -1 171.084 168.928 14
4 -15 1 432.44 435.29 14
1 -15 -4 229.603 235.456 13
4 -15 1 102.055 254.16 6
-15 -4 1 116.097 161.688 6
15 1 -4 291.642 262.075 2
-4 -15 -1 224.523 277.786 6
15 1 -4 130.808 265.77 12
4 -15 1 45.3684 189.776 12
15 -4 -1 165.894 207.661 12
-15 1 4 73.4049 178.74 3
-1 -15 4 154.973 247.553 11
-15 -4 1 213.153 247.849 1
4 -15 1 207.042 203.646 11
-1 15 -4 155.619 278.817 10
4 15 -1 40.4108 219.134 10
15 -4 -1 39.7941 283.258 5
1 15 4 614.429 511.784 10
-4 -15 -1 134.065 181.763 1
-15 -4 1 231.685 335.045 3
15 4 1 632.925 373.069 2
-15 1 4 144.218 228.602 9
-4 -15 -1 145.003 159.456 3
-15 4 -1 231.078 310.595 9
15 -1 4 125.789 238.714 5
-15 1 4 200.283 253.659 8
-15 -4 1 411.307 329.694 8
-15 4 -1 22.1065 183.311 8
15 1 -4 236.91 203.573 4
15 -4 -1 4.98752 220.89 4
#BEGIN Loops that were not found in dictionaries:
loop_
_smtbx_masks_void_nr
_smtbx_masks_void_average_x
_smtbx_masks_void_average_y
_smtbx_masks_void_average_z
_smtbx_masks_void_volume
_smtbx_masks_void_count_electrons
1 -0.196 -0.912 -0.042 15420.4 496.7
#END Loops that were not found in dictionaries
