#------------------------------------------------------------------------------
#$Date: 2017-12-10 21:25:10 +0200 (Sun, 10 Dec 2017) $
#$Revision: 204138 $
#$URL: file:///home/coder/svn-repositories/cod/cif/7/22/77/7227786.cif $
#------------------------------------------------------------------------------
#
# This file is available in the Crystallography Open Database (COD),
# http://www.crystallography.net/
#
# All data on this site have been placed in the public domain by the
# contributors.
#
data_7227786
loop_
_publ_author_name
'Patyk-Ka\'zmierczak, Ewa'
'Warren, Mark R.'
'Allan, David R.'
'Katrusiak, Andrzej'
_publ_section_title
;
 Pressure inverse solubility and polymorphism of an edible
 \g-cyclodextrin-based metal-organic framework.
;
_journal_issue                   13
_journal_name_full               'Physical chemistry chemical physics : PCCP'
_journal_page_first              9086
_journal_page_last               9091
_journal_paper_doi               10.1039/c7cp00593h
_journal_volume                  19
_journal_year                    2017
_chemical_absolute_configuration rm
_chemical_formula_moiety         'C48 H80 O40, 2(KOH)'
_chemical_formula_sum            'C48 H82 K2 O42'
_chemical_formula_weight         1409.34
_chemical_name_common            '\g-cyclodextrin-metal-organic framework'
_chemical_name_systematic
'catena-((\m8-\g-Cyclodextrin)-di-potassium dihydroxide)'
_space_group_crystal_system      trigonal
_space_group_IT_number           155
_space_group_name_Hall           'R 3 2"'
_space_group_name_H-M_alt        'R 3 2 :H'
_atom_sites_solution_hydrogens   geom
_atom_sites_solution_primary     direct
_audit_creation_date             2017-01-19
_audit_creation_method
;
Olex2 1.2
(compiled 2017.01.04 svn.r3372 for OlexSys, GUI svn.r5289)
;
_cell_angle_alpha                90.0
_cell_angle_beta                 90.0
_cell_angle_gamma                120.0
_cell_formula_units_Z            18
_cell_length_a                   43.367(6)
_cell_length_b                   43.367(6)
_cell_length_c                   28.090(5)
_cell_measurement_reflns_used    2207
_cell_measurement_temperature    194.98(10)
_cell_measurement_theta_max      12.3070
_cell_measurement_theta_min      2.9330
_cell_volume                     45751(12)
_computing_cell_refinement       'CrysAlisPro 1.171.38.41 (Rigaku OD, 2015)'
_computing_data_collection       'CrysAlisPro 1.171.38.41 (Rigaku OD, 2015)'
_computing_data_reduction        'CrysAlisPro 1.171.38.41 (Rigaku OD, 2015)'
_computing_molecular_graphics    'Olex2 (Dolomanov et al., 2009)'
_computing_publication_material  'Olex2 (Dolomanov et al., 2009)'
_computing_structure_refinement  'ShelXL (Sheldrick, 2015)'
_computing_structure_solution    'ShelXS (Sheldrick, 2008)'
_diffrn_ambient_environment      'ispropanol:water mother liquor'
_diffrn_ambient_temperature      194.98(10)
_diffrn_detector                 'CCD plate'
_diffrn_detector_area_resol_mean 16.1544
_diffrn_detector_type            Eos
_diffrn_measured_fraction_theta_full 0.973
_diffrn_measured_fraction_theta_max 0.973
_diffrn_measurement_details
;
List of Runs (angles in degrees, time in seconds):

  # Type    Start    End  Width  t~exp~   \w     \q     \k     \f   Frames
--------------------------------------------------------------------------
  1  \w    -68.00  54.00   1.00   15.00    --  -18.72   0.00-150.00  122
  2  \w    -73.00  20.00   1.00   15.00    --  -18.72 -19.00  60.00   93
  3  \w    -40.00   8.00   1.00   15.00    --  -18.72  57.00  60.00   48
  4  \w    -25.00  23.00   1.00   15.00    --  -18.72 -99.00   0.00   48
;
_diffrn_measurement_device       'four-circle diffractometer'
_diffrn_measurement_device_type  'Xcalibur, Eos'
_diffrn_measurement_method       '\w scans'
_diffrn_orient_matrix_type
'CrysAlisPro convention (1999,Acta A55,543-557)'
_diffrn_orient_matrix_UB_11      0.0072561000
_diffrn_orient_matrix_UB_12      0.0127133000
_diffrn_orient_matrix_UB_13      -0.0185151000
_diffrn_orient_matrix_UB_21      -0.0159376000
_diffrn_orient_matrix_UB_22      0.0008026000
_diffrn_orient_matrix_UB_23      -0.0008858000
_diffrn_orient_matrix_UB_31      0.0070017000
_diffrn_orient_matrix_UB_32      0.0138052000
_diffrn_orient_matrix_UB_33      0.0171433000
_diffrn_radiation_monochromator  graphite
_diffrn_radiation_probe          x-ray
_diffrn_radiation_type           MoK\a
_diffrn_radiation_wavelength     0.71073
_diffrn_reflns_av_R_equivalents  0.1558
_diffrn_reflns_av_unetI/netI     0.0972
_diffrn_reflns_Laue_measured_fraction_full 0.973
_diffrn_reflns_Laue_measured_fraction_max 0.973
_diffrn_reflns_limit_h_max       28
_diffrn_reflns_limit_h_min       -28
_diffrn_reflns_limit_k_max       28
_diffrn_reflns_limit_k_min       -28
_diffrn_reflns_limit_l_max       18
_diffrn_reflns_limit_l_min       -18
_diffrn_reflns_number            21398
_diffrn_reflns_point_group_measured_fraction_full 0.975
_diffrn_reflns_point_group_measured_fraction_max 0.975
_diffrn_reflns_theta_full        13.734
_diffrn_reflns_theta_max         13.734
_diffrn_reflns_theta_min         2.773
_diffrn_source                   'fine-focus sealed X-ray tube'
_diffrn_source_type              'Enhance (Mo) X-ray Source'
_exptl_absorpt_coefficient_mu    0.160
_exptl_absorpt_correction_T_max  1.00000
_exptl_absorpt_correction_T_min  0.23992
_exptl_absorpt_correction_type   multi-scan
_exptl_absorpt_process_details
;
CrysAlisPro 1.171.38.41 (Rigaku Oxford Diffraction, 2015)
Empirical absorption correction using spherical harmonics,
 implemented in SCALE3 ABSPACK scaling algorithm.
;
_exptl_crystal_colour            'clear colourless'
_exptl_crystal_colour_lustre     clear
_exptl_crystal_colour_primary    colourless
_exptl_crystal_density_diffrn    0.920
_exptl_crystal_description       cube
_exptl_crystal_F_000             13392
_exptl_crystal_recrystallization_method
'Crystal grown from water solution by isopropanol vapour difussion method'
_exptl_crystal_size_max          0.5
_exptl_crystal_size_mid          0.48
_exptl_crystal_size_min          0.47
_refine_diff_density_max         0.345
_refine_diff_density_min         -0.301
_refine_diff_density_rms         0.055
_refine_ls_abs_structure_details
;
 Flack x determined using 791 quotients [(I+)-(I-)]/[(I+)+(I-)]
 (Parsons, Flack and Wagner, Acta Cryst. B69 (2013) 249-259).
;
_refine_ls_abs_structure_Flack   0.42(11)
_refine_ls_extinction_method     none
_refine_ls_goodness_of_fit_ref   1.283
_refine_ls_hydrogen_treatment    constr
_refine_ls_matrix_type           full
_refine_ls_number_parameters     340
_refine_ls_number_reflns         3106
_refine_ls_number_restraints     358
_refine_ls_restrained_S_all      1.476
_refine_ls_R_factor_all          0.1291
_refine_ls_R_factor_gt           0.1122
_refine_ls_shift/su_max          0.000
_refine_ls_shift/su_mean         0.000
_refine_ls_structure_factor_coef Fsqd
_refine_ls_weighting_details
'w=1/[\s^2^(Fo^2^)+(0.1621P)^2^] where P=(Fo^2^+2Fc^2^)/3'
_refine_ls_weighting_scheme      calc
_refine_ls_wR_factor_gt          0.2798
_refine_ls_wR_factor_ref         0.2938
_reflns_Friedel_coverage         0.860
_reflns_Friedel_fraction_full    0.977
_reflns_Friedel_fraction_max     0.977
_reflns_number_gt                2537
_reflns_number_total             3106
_reflns_threshold_expression     'I > 2\s(I)'
_iucr_refine_instructions_details
;

    heks.res created by SHELXL-2014/7

TITL heks in R32 #155
REM reset to R32 #155
CELL 0.71073 43.367248 43.367248 28.090187 90 90 120
ZERR 18 0.005808 0.005808 0.00499 0 0 0
LATT -3
SYMM -Y,+X-Y,+Z
SYMM +Y-X,-X,+Z
SYMM -Y+X,-Y,-Z
SYMM -X,-X+Y,-Z
SYMM +Y,+X,-Z
SFAC C H K O
UNIT 864 1440 36 756
DFIX 1.5 C64 C65
DFIX 1.5 C65 C66
DFIX 1.5 C2 C1
DFIX 1.5 C23 C24
DFIX 1.5 C23 C22
DFIX 1.5 C15 C16
DFIX 1.5 C45 C46
DFIX 1.5 0.002 C35 C36
DFIX 1.5 C64 C63
DFIX 3.5 C4 C1
DFIX 1.5 0.005 C4 C5
DFIX 1.5 C13 C14
DFIX 1.5 C13 C12
DFIX 1.5 C42 C43
DFIX 1.5 C21 C22
DFIX 1.5 0.005 C6 C5
DFIX 1.5 C72 C73
DFIX 1.5 C26 C25
DFIX 1.45 O15 C11
DFIX 2.5 C2 O5
DFIX 1.45 O5 C1
DFIX 1.45 C31 O44
DFIX 1.45 0.005 C31 O35
DFIX 3 C33 O35
DFIX 1.45 O12 C12
DFIX 1.45 O23 C23
DFIX 1.45 0.005 C26 O26
DFIX 1.45 C6 O6
DFIX 2.45 C35 O36
DFIX 1.45 O22 C22
DFIX 1.45 C72 O72
DFIX 1.45 C16 O16
DFIX 1.45 O4 C4
DFIX 1.45 0.005 O63 C63
DFIX 1.45 O43 C43
DFIX 1.5 C14 C15
DFIX 1.5 C24 C25
DFIX 1.5 C65 C64
DFIX 1.45 O14 C1
DFIX 1.45 0.01 O15 C15
DFIX 1.45 0.01 C21 O25
DFIX 1.45 0.01 O25 C25
DFIX 1.45 0.01 O44 C44
DFIX 1.45 0.01 O54 C41
DFIX 1.45 O13 C13
DFIX 1.45 C12 O12
DFIX 1.45 C22 O22
DFIX 1.45 0.01 O14 C14
DFIX 1.5 C31 C32
DFIX 1.5 C33 C32
DFIX 1.45 O32 C32
DFIX 1.45 0.01 C5 O5
DFIX 1.45 C45 O45
DFIX 1.5 C62 C61
DFIX 1.45 C62 O62
DFIX 1.5 C75 O75
DFIX 1.45 O75 C71
DFIX 1.5 C75 C76
DFIX 1.45 0.005 O76 C76
DFIX 1.5 C62 C63
DFIX 1.5 C32 C33
DFIX 1.5 C36 C35
DFIX 1.45 C61 O74
DFIX 1.5 C61 C62
DFIX 1.45 C61 O65
DFIX 1.45 0.01 O36 C36
DFIX 1.45 O75 C75
DFIX 1.45 C41 O45
DFIX 1.45 0.01 C71 O75
DFIX 1.5 C71 C72
DFIX 1.45 O73 C73
DFIX 1.5 C74 C75
DFIX 1.5 0.005 C74 C73
DFIX 1.45 O34 C21
DFIX 1.45 0.01 C21 O34
DFIX 1.5 C43 C44
DFIX 1.5 0.01 C44 C43
DFIX 1.5 0.01 C72 C71
DFIX 1.45 0.01 C71 O4
DFIX 1.5 0.002 C35 C34
DFIX 1.5 C33 C34
DFIX 1.5 C34 C35
DFIX 1.45 0.01 C34 O34
DFIX 1.45 0.01 C33 O33
DFIX 1.45 O72 C72
DFIX 1.5 0.01 C41 C42
DFIX 1.5 0.01 C34 C33
DFIX 1.5 0.01 C44 C45
DFIX 1.45 0.01 C35 O35
DFIX 1.5 C52 C53
DFIX 1.5 C54 C55
DFIX 1.5 C54 C53
DFIX 1.5 C53 C52
DFIX 1.45 O54 C54
DFIX 1.45 O52 C52
DFIX 1.45 C51 O64
DFIX 1.5 C55 C56
DFIX 1.45 0.005 O56 C56
DFIX 1.5 C56 C55
DFIX 1.5 C51 C52
DFIX 1.45 C55 O55
DFIX 1.45 0.01 O55 C51
DFIX 1.45 0.01 O55 C55
DFIX 1.45 O64 C51
DFIX 1.45 C51 O55
DFIX 3.8 C1 K2
DFIX 3.8 C12 K1
DFIX 1.45 O2 C2
DFIX 1.5 C2 C3
DFIX 1.5 0.005 C4 C3
DFIX 2.5 C5 C3
DFIX 1.45 0.01 C3 O3
DANG 2.5 C26 C24
DANG 2.5 0.01 C15 C11
DANG 2.5 0.01 C35 C31
DANG 2.5 0.01 C44 C31
DANG 2.5 0.01 C4 C71
DANG 2.5 0.01 C2 C4
DANG 2.5 0.01 C4 O5
DANG 2.5 0.02 O5 C4
DANG 2.5 0.02 O15 C12
DANG 2.5 O25 C26
DANG 2.5 0.02 C44 O45
DANG 2.5 C66 O65
DANG 2.5 C66 C64
DANG 2.5 C1 O2
DANG 2.5 0.02 O13 C14
DANG 2.5 0.02 O13 C12
DANG 2.5 C14 O15
DANG 2.5 O24 C23
DANG 2.5 C13 C15
DANG 2.5 O14 C13
DANG 2.5 O24 C25
DANG 2.5 0.01 C25 O24
DANG 2.5 O62 C61
DANG 2.5 O62 C63
DANG 2.5 C15 C13
DANG 2.5 C13 O14
DANG 2.5 O14 C15
DANG 2.5 C35 C33
DANG 2.5 C33 C31
DANG 2.5 C32 O35
DANG 2.5 C31 C35
DANG 2.5 C63 C61
DANG 2.5 C72 O75
DANG 2.5 C31 O32
DANG 2.5 C24 O23
DANG 2.5 C72 O4
DANG 2.5 0.01 C74 C76
DANG 2.5 C61 C74
DANG 2.5 0.02 O73 C74
DANG 2.5 0.02 C72 O73
DANG 2.5 0.01 C24 C11
DANG 2.5 0.02 O23 C24
DANG 2.5 0.02 O23 C22
DANG 2.5 0.01 C41 C43
DANG 2.5 0.01 O43 C42
DANG 2.5 0.01 O42 C43
DANG 2.5 0.01 O42 C41
DANG 2.5 0.01 O75 C72
DANG 2.5 C32 C34
DANG 2.5 C34 C32
DANG 2.5 O35 C34
DANG 2.5 O33 C34
DANG 2.5 0.01 C34 C21
DANG 2.45 0.01 C34 O33
DANG 2.45 0.01 O33 C32
DANG 2.5 0.01 C34 C36
DANG 2.4 0.02 O36 C35
DANG 2.5 C53 C55
DANG 2.5 0.02 C54 C41
DANG 2.5 0.02 C54 C52
DANG 2.5 0.01 C41 C54
DANG 2.5 O52 C51
DANG 2.5 O52 C53
DANG 2.5 0.01 C53 O52
DANG 2.5 0.01 C52 O55
DANG 2.5 C54 O55
DANG 2.5 O55 C56
DANG 2.5 C56 C54
DANG 2.5 O55 C54
DANG 2.5 C54 C56
DANG 2.5 C56 O55
DANG 2.5 C55 C51 C54 O55
DANG 2.5 0.01 C55 C51
DANG 2.5 C41 C45
DANG 2.5 C42 C44
DANG 2.5 C43 C45
DANG 2.5 C43 C41
DANG 2.5 C45 C41
DANG 2.5 C11 C13
DANG 2.5 C12 C14
DANG 2.5 C61 C65
DANG 2.5 C71 C75
DANG 2.5 C71 C73
DANG 2.5 C75 C73
DANG 2.5 O73 C72
DANG 2.5 C74 O73
DANG 2.5 O45 C44
DANG 2.5 O45 C42
DANG 2.5 O25 C24
DANG 2.5 O65 C64
DANG 2.5 O75 C76
DANG 2.5 O76 C75
DANG 2.5 O26 C25
DANG 2.5 C26 O25
DANG 2.5 O75 C74
DANG 2.5 C5 O4
DANG 2.5 O14 C2
DANG 2.5 C21 C25
DANG 2.5 C23 O24
DANG 2.5 C36 C34
DANG 2.5 C36 O35
DANG 2.5 C21 O22
DANG 2.5 C71 O72
DANG 2.5 C71 C4
DANG 2.5 O4 C5
DANG 2.5 O4 C72
DANG 2.5 O4 O75
DANG 2.5 C64 C62
DANG 2.5 C63 C65
DANG 2.5 C64 O65
DANG 2.5 C65 C61
DANG 2.5 C61 C63
DANG 2.5 C62 C64
DANG 2.5 C1 C14
DANG 2.5 C51 C55
DANG 2.5 O2 C1
DANG 2.5 C6 O5
DANG 2.5 C6 C4
DANG 2.5 0.01 O25 C22
DANG 2.5 0.01 C21 C23
DANG 2.5 0.01 C22 C24
DANG 2.5 0.01 C23 C25
DANG 2.5 0.01 C24 O25
DANG 2.5 0.01 C14 C1
DANG 2.5 0.01 C51 C64
DANG 2.5 C1 C3
DANG 2.5 C3 O2
DANG 2.5 O4 C3
DANG 2.5 0.01 C3 C1
DANG 2.5 O3 C2
DANG 2.5 O3 C4
DELU C44
DELU 0.01 0.001 O36
DELU O16
SIMU
RIGU
ISOR 0.001 0.00001 C44
ISOR 0.001 0.0001 C45
ISOR 0.05 0.01 O33
ISOR O36
ISOR K2 K1 K3
 
L.S. 100
PLAN  20
CONN 1 H23
CONN 1 H24
CONN 1 H25
CONN 1 H26a
CONN 1 H26b
CONN 1 H31
CONN 1 H32
CONN 1 H33
CONN 1 H34
CONN 1 H35
CONN 1 H36a
CONN 1 H36b
CONN 1 H41
CONN 1 H42
CONN 1 H43
CONN 1 H44
CONN 1 H45
CONN 1 H46a
CONN 1 H46b
CONN 1 H51
CONN 1 H52
CONN 1 H53
CONN 1 H54
CONN 1 H55
CONN 1 H56a
CONN 1 H56b
CONN 1 H62
CONN 1 H61
CONN 1 H16b
CONN 1 H21
CONN 1 H22
CONN 1 H76
CONN 1 H73a
CONN 1 H72a
CONN 1 H66
CONN 1 H63a
CONN 1 H62a
CONN 1 H56
CONN 1 H53a
CONN 1 H52a
CONN 1 H46
CONN 1 H43a
CONN 1 H42a
CONN 1 H5
CONN 1 H4
CONN 1 H3
CONN 1 H2
CONN 1 H1
CONN 1 H6b
CONN 1 H11
CONN 1 H12
CONN 1 H13
CONN 1 H14
CONN 1 H15
CONN 1 H6a
CONN 1 H16a
CONN 1 H74
CONN 1 H75
CONN 1 H76a
CONN 1 H76b
CONN 1 H2a
CONN 1 H3a
CONN 1 H6
CONN 1 H12a
CONN 1 H13a
CONN 1 H16
CONN 1 H22a
CONN 1 H23a
CONN 1 H26
CONN 1 H32a
CONN 1 H33a
CONN 1 H36
CONN 1 H63
CONN 1 H64
CONN 1 H65
CONN 1 H66a
CONN 1 H66b
CONN 1 H71
CONN 1 H72
CONN 1 H73
BOND
MORE -1
BOND $H
CONF
ABIN
fmap 2
acta 52
OMIT -6 6 6
OMIT 2 14 6
OMIT -6 15 12
OMIT -1 4 7
OMIT -4 4 7
OMIT 1 3 7
OMIT -7 7 7
OMIT -2 16 6
OMIT 0 6 0
OMIT -12 15 6
OMIT 6 9 12
OMIT 0 2 7
OMIT -8 14 5
OMIT -15 12 3
OMIT 0 0 15
OMIT 8 8 9
OMIT 8 10 7
OMIT -15 15 9
OMIT -6 18 6
OMIT -14 8 5
OMIT 0 15 0
OMIT -12 15 3
OMIT -13 16 1
OMIT 1 6 4
OMIT -17 9 4
OMIT -15 12 6
OMIT 0 23 4
OMIT -1 7 4
OMIT -20 22 6
OMIT -7 10 7
OMIT -16 11 6
OMIT -8 18 13
OMIT 9 9 0
REM <olex2.extras>
REM <HklSrc "%.\\heks.hkl">
REM </olex2.extras>
 
WGHT    0.162100
FVAR       0.22016   0.16001   0.22776
C1    1    0.744001    0.661942    0.408260    11.00000    0.14776
AFIX  13
H1    2    0.752955    0.678875    0.381727    11.00000   -1.20000
AFIX   0
C2    1    0.732559    0.674567    0.451772    11.00000    0.14754
AFIX  13
H2    2    0.716803    0.682543    0.438573    11.00000   -1.20000
AFIX   0
C3    1    0.712179    0.651124    0.488069    11.00000    0.17633
AFIX  13
H3    2    0.728411    0.643400    0.500238    11.00000   -1.20000
AFIX   0
C4    1    0.679551    0.616036    0.476585    11.00000    0.12847
AFIX  13
H4    2    0.659906    0.620079    0.468278    11.00000   -1.20000
AFIX   0
C5    1    0.688383    0.600439    0.434367    11.00000    0.15813
AFIX  13
H5    2    0.703892    0.592078    0.447333    11.00000   -1.20000
AFIX   0
C6    1    0.659771    0.568797    0.408372    11.00000    0.24524
AFIX  23
H6A   2    0.669207    0.561406    0.382224    11.00000   -1.20000
H6B   2    0.646025    0.548802    0.429449    11.00000   -1.20000
AFIX   0
C11   1    0.862364    0.666106    0.367272    11.00000    0.08996
AFIX  13
H11   2    0.882726    0.672572    0.346222    11.00000   -1.20000
AFIX   0
C12   1    0.861527    0.697994    0.383826    11.00000    0.13127
AFIX  13
H12   2    0.859052    0.708933    0.354623    11.00000   -1.20000
AFIX   0
C13   1    0.829389    0.690615    0.413398    11.00000    0.14830
AFIX  13
H13   2    0.832992    0.681725    0.443755    11.00000   -1.20000
AFIX   0
C14   1    0.798281    0.659413    0.391719    11.00000    0.08900
AFIX  13
H14   2    0.793290    0.668488    0.362504    11.00000   -1.20000
AFIX   0
C15   1    0.797772    0.626494    0.377347    11.00000    0.08855
AFIX  13
H15   2    0.801554    0.614333    0.404197    11.00000   -1.20000
AFIX   0
C16   1    0.767084    0.601488    0.346173    11.00000    0.10988
AFIX  23
H16A  2    0.767859    0.579725    0.341499    11.00000   -1.20000
H16B  2    0.744844    0.595358    0.361952    11.00000   -1.20000
AFIX   0
C21   1    0.937908    0.620774    0.459901    11.00000    0.06624
AFIX  13
H21   2    0.960350    0.620533    0.461806    11.00000   -1.20000
AFIX   0
C22   1    0.947204    0.659459    0.470047    11.00000    0.17403
AFIX  13
H22   2    0.965674    0.673068    0.446347    11.00000   -1.20000
AFIX   0
C23   1    0.919325    0.666564    0.457012    11.00000    0.20596
AFIX  13
H23   2    0.904884    0.658413    0.486034    11.00000   -1.20000
AFIX   0
C24   1    0.892134    0.643482    0.421615    11.00000    0.21970
AFIX  13
H24   2    0.906373    0.656722    0.393948    11.00000   -1.20000
AFIX   0
C25   1    0.890880    0.610451    0.408642    11.00000    0.17238
AFIX  13
H25   2    0.877525    0.594750    0.435180    11.00000   -1.20000
AFIX   0
C26   1    0.873720    0.586820    0.366041    11.00000    0.13429
AFIX  23
H26A  2    0.867728    0.562645    0.373729    11.00000   -1.20000
H26B  2    0.851840    0.586646    0.358269    11.00000   -1.20000
AFIX   0
C31   1    0.933697    0.544294    0.614710    11.00000    0.20571
AFIX  13
H31   2    0.941783    0.529385    0.630336    11.00000   -1.20000
AFIX   0
C32   1    0.960033    0.583031    0.614264    11.00000    0.21311
AFIX  13
H32   2    0.981976    0.585423    0.600809    11.00000   -1.20000
AFIX   0
C33   1    0.951526    0.607213    0.585280    11.00000    0.15407
AFIX  13
H33   2    0.932898    0.609064    0.602592    11.00000   -1.20000
AFIX   0
C34   1    0.936201    0.591406    0.537340    11.00000    0.16583
AFIX  13
H34   2    0.954997    0.590373    0.519277    11.00000   -1.20000
AFIX   0
C35   1    0.906133    0.553879    0.542887    11.00000    0.20192
AFIX  13
H35   2    0.888072    0.555510    0.561943    11.00000   -1.20000
AFIX   0
C36   1    0.888458    0.537575    0.496408    11.00000    0.24044
AFIX  23
H36A  2    0.867171    0.514813    0.502093    11.00000   -1.20000
H36B  2    0.881530    0.553017    0.480452    11.00000   -1.20000
AFIX   0
C41   1    0.837348    0.490215    0.752226    11.00000    0.09648
AFIX  13
H41   2    0.830157    0.476408    0.781825    11.00000   -1.20000
AFIX   0
C42   1    0.867286    0.526987    0.762408    11.00000    0.11091
AFIX  13
H42   2    0.884584    0.521164    0.775935    11.00000   -1.20000
AFIX   0
C43   1    0.886791    0.545432    0.716416    11.00000    0.10482
AFIX  13
H43   2    0.870610    0.552653    0.702619    11.00000   -1.20000
AFIX   0
C44   1    0.887639    0.521863    0.678484    11.00000    0.07566
AFIX  13
H44   2    0.906022    0.516283    0.688128    11.00000   -1.20000
AFIX   0
C45   1    0.854576    0.486985    0.671718    11.00000    0.08399
AFIX  13
H45   2    0.837228    0.493216    0.659487    11.00000   -1.20000
AFIX   0
C46   1    0.857981    0.465522    0.633052    11.00000    0.08156
AFIX  23
H46A  2    0.868890    0.480051    0.605062    11.00000   -1.20000
H46B  2    0.834845    0.445758    0.624365    11.00000   -1.20000
AFIX   0
C51   1    0.706236    0.466615    0.780802    11.00000    0.12936
AFIX  13
H51   2    0.683002    0.453121    0.796415    11.00000   -1.20000
AFIX   0
C52   1    0.734802    0.489395    0.817167    11.00000    0.09667
AFIX  13
H52   2    0.736645    0.473907    0.841027    11.00000   -1.20000
AFIX   0
C53   1    0.770383    0.510296    0.790863    11.00000    0.11477
AFIX  13
H53   2    0.770930    0.528440    0.769522    11.00000   -1.20000
AFIX   0
C54   1    0.778539    0.485321    0.766042    11.00000    0.04666
AFIX  13
H54   2    0.780118    0.470190    0.790711    11.00000   -1.20000
AFIX   0
C55   1    0.749738    0.460407    0.731699    11.00000    0.08747
AFIX  13
H55   2    0.747327    0.477186    0.710822    11.00000   -1.20000
AFIX   0
C56   1    0.755422    0.438303    0.697342    11.00000    0.14200
AFIX  23
H56A  2    0.734967    0.423783    0.677328    11.00000   -1.20000
H56B  2    0.776932    0.451243    0.678528    11.00000   -1.20000
AFIX   0
C61   1    0.626057    0.511441    0.692343    11.00000    0.19726
AFIX  13
H61   2    0.603152    0.510757    0.694035    11.00000   -1.20000
AFIX   0
C62   1    0.648499    0.532416    0.733948    11.00000    0.14619
AFIX  13
H62   2    0.634257    0.523441    0.763040    11.00000   -1.20000
AFIX   0
C63   1    0.680859    0.527528    0.738262    11.00000    0.17594
AFIX  13
H63   2    0.697232    0.539115    0.711609    11.00000   -1.20000
AFIX   0
C64   1    0.670125    0.489105    0.740676    11.00000    0.16527
AFIX  13
H64   2    0.655155    0.477039    0.768362    11.00000   -1.20000
AFIX   0
C65   1    0.652265    0.471977    0.693883    11.00000    0.11915
AFIX  13
H65   2    0.668154    0.485037    0.667360    11.00000   -1.20000
AFIX   0
C66   1    0.639618    0.432541    0.689027    11.00000    0.17626
AFIX  23
H66A  2    0.658787    0.427434    0.693626    11.00000   -1.20000
H66B  2    0.628089    0.423029    0.658674    11.00000   -1.20000
AFIX   0
C71   1    0.631985    0.572874    0.529172    11.00000    0.18409
AFIX  13
H71   2    0.620289    0.578632    0.503646    11.00000   -1.20000
AFIX   0
C72   1    0.624183    0.586309    0.573830    11.00000    0.19401
AFIX  13
H72   2    0.598385    0.573276    0.579059    11.00000   -1.20000
AFIX   0
C73   1    0.641666    0.580295    0.615338    11.00000    0.13426
AFIX  13
H73   2    0.667119    0.593540    0.607698    11.00000   -1.20000
AFIX   0
C74   1    0.631888    0.541936    0.612561    11.00000    0.14761
AFIX  13
H74   2    0.606103    0.528557    0.617859    11.00000   -1.20000
AFIX   0
C75   1    0.637285    0.528373    0.565317    11.00000    0.11998
AFIX  13
H75   2    0.662584    0.537869    0.558294    11.00000   -1.20000
AFIX   0
C76   1    0.616502    0.487836    0.563608    11.00000    0.16658
AFIX  23
H76A  2    0.617497    0.480683    0.531187    11.00000   -1.20000
H76B  2    0.628948    0.479245    0.583420    11.00000   -1.20000
AFIX   0
K1    3    0.893345    0.791797    0.418382    11.00000    0.07648    0.16256 =
         0.17592   -0.07890   -0.03836    0.07879
K2    3    0.666667    0.639523    0.333333    10.50000    0.45952    0.14374 =
         0.41971   -0.14091   -0.28182    0.22976
K3    3    0.973565    0.640231    0.333333    10.50000    0.20257    0.20257 =
         0.39226   -0.06794    0.06794    0.11916
O2    4    0.764974    0.707218    0.461249    11.00000   21.00000
AFIX  83
H2A   2    0.767361    0.710604    0.490068    11.00000   -1.50000
AFIX   0
O3    4    0.702733    0.663026    0.531884    11.00000   21.00000
AFIX  83
H3A   2    0.718689    0.683136    0.538681    11.00000   -1.50000
AFIX   0
O4    4    0.670323    0.594209    0.519307    11.00000   21.00000
O5    4    0.709641    0.625539    0.396872    11.00000   21.00000
O6    4    0.639093    0.585370    0.391604    11.00000   21.00000
AFIX  83
H6    2    0.618406    0.573448    0.400616    11.00000   -1.50000
AFIX   0
O12   4    0.890879    0.727101    0.409160    11.00000   21.00000
AFIX  83
H12A  2    0.897430    0.719056    0.430839    11.00000   -1.50000
AFIX   0
O13   4    0.826660    0.720971    0.426049    11.00000   21.00000
AFIX  83
H13A  2    0.805713    0.714893    0.430709    11.00000   -1.50000
AFIX   0
O14   4    0.766580    0.647954    0.421855    11.00000   21.00000
O15   4    0.828043    0.641504    0.343002    11.00000   21.00000
O16   4    0.768282    0.617371    0.300243    11.00000   21.00000
AFIX  83
H16   2    0.788354    0.625860    0.289008    11.00000   -1.50000
AFIX   0
O22   4    0.965335    0.674055    0.514298    11.00000   21.00000
AFIX  83
H22A  2    0.965986    0.692973    0.519536    11.00000   -1.50000
AFIX   0
O23   4    0.926404    0.702595    0.455654    11.00000   21.00000
AFIX  83
H23A  2    0.945059    0.715038    0.441270    11.00000   -1.50000
AFIX   0
O24   4    0.867438    0.652907    0.415219    11.00000   21.00000
O25   4    0.925307    0.611060    0.411447    11.00000   21.00000
O26   4    0.897343    0.599141    0.325152    11.00000   21.00000
AFIX  83
H26   2    0.886628    0.600594    0.301992    11.00000   -1.50000
AFIX   0
O32   4    0.969302    0.599624    0.659973    11.00000   21.00000
AFIX  83
H32A  2    0.952545    0.588898    0.678332    11.00000   -1.50000
AFIX   0
O33   4    0.981534    0.642634    0.582083    11.00000   21.00000
AFIX  83
H33A  2    0.975637    0.655492    0.568137    11.00000   -1.50000
AFIX   0
O34   4    0.918792    0.604995    0.504524    11.00000   21.00000
O35   4    0.915359    0.530606    0.569790    11.00000   21.00000
O36   4    0.912978    0.532582    0.466539    11.00000   21.00000
AFIX  83
H36   2    0.903569    0.511704    0.458146    11.00000   -1.50000
AFIX   0
O42   4    0.865557    0.546912    0.798487    11.00000   21.00000
AFIX  83
H42A  2    0.873504    0.567486    0.789407    11.00000   -1.50000
AFIX   0
O43   4    0.918409    0.579297    0.724279    11.00000   21.00000
AFIX  83
H43A  2    0.919235    0.585103    0.752236    11.00000   -1.50000
AFIX   0
O44   4    0.898911    0.539494    0.632703    11.00000   21.00000
O45   4    0.839489    0.468933    0.714967    11.00000   21.00000
O46   4    0.881317    0.452284    0.653511    11.00000   21.00000
AFIX  83
H46   2    0.888136    0.460857    0.680072    11.00000   -1.50000
AFIX   0
O52   4    0.722738    0.511510    0.839909    11.00000   21.00000
AFIX  83
H52A  2    0.738543    0.526128    0.857177    11.00000   -1.50000
AFIX   0
O53   4    0.795849    0.524607    0.825690    11.00000   21.00000
AFIX  83
H53A  2    0.805987    0.546396    0.824258    11.00000   -1.50000
AFIX   0
O54   4    0.810612    0.499274    0.739008    11.00000   21.00000
O55   4    0.715036    0.442549    0.755918    11.00000   21.00000
O56   4    0.759035    0.419415    0.737738    11.00000   21.00000
AFIX  83
H56   2    0.780107    0.425695    0.741632    11.00000   -1.50000
AFIX   0
O62   4    0.659780    0.569887    0.728862    11.00000   21.00000
AFIX  83
H62A  2    0.648682    0.575171    0.747629    11.00000   -1.50000
AFIX   0
O63   4    0.697929    0.543774    0.782905    11.00000   21.00000
AFIX  83
H63A  2    0.707444    0.533101    0.793987    11.00000   -1.50000
AFIX   0
O64   4    0.704162    0.488076    0.740493    11.00000   21.00000
O65   4    0.619499    0.475338    0.691496    11.00000   21.00000
O66   4    0.611197    0.418097    0.733475    11.00000   21.00000
AFIX  83
H66   2    0.619505    0.412277    0.755649    11.00000   -1.50000
AFIX   0
O72   4    0.635424    0.623597    0.565031    11.00000   21.00000
AFIX  83
H72A  2    0.642888    0.634924    0.589832    11.00000   -1.50000
AFIX   0
O73   4    0.639045    0.594311    0.660231    11.00000   21.00000
AFIX  83
H73A  2    0.657104    0.600041    0.675826    11.00000   -1.20000
AFIX   0
O74   4    0.647987    0.537620    0.658665    11.00000   21.00000
O75   4    0.618529    0.535176    0.525424    11.00000   21.00000
O76   4    0.579447    0.469459    0.578179    11.00000   21.00000
AFIX  83
H76   2    0.569999    0.480786    0.569319    11.00000   -1.50000
AFIX   0
 
OA    4    0.755680    0.701305    0.586092    11.00000   31.00000
OB    4    0.957596    0.706976    0.570087    11.00000   31.00000
HKLF 4
 
REM  heks in R32 #155
REM R1 =  0.1122 for    2537 Fo > 4sig(Fo)  and  0.1291 for all    3106 data
REM    340 parameters refined using    358 restraints
 
END  
     
WGHT      0.1688    589.9033 

REM Highest difference peak  0.345,  deepest hole -0.301,  1-sigma level  0.055
Q1    1   0.7283  0.4718  0.7892  11.00000  0.05    0.34
Q2    1   0.9442  0.5848  0.5436  11.00000  0.05    0.32
Q3    1   0.7066  0.6229  0.3692  11.00000  0.05    0.27
Q4    1   0.8479  0.6646  0.3751  11.00000  0.05    0.25
Q5    1   0.8661  0.5079  0.6988  11.00000  0.05    0.23
Q6    1   0.9361  0.6239  0.4402  11.00000  0.05    0.22
Q7    1   0.7720  0.7123  0.5479  11.00000  0.05    0.22
Q8    1   0.8675  0.6018  0.4168  11.00000  0.05    0.22
Q9    1   0.7435  0.6867  0.6270  11.00000  0.05    0.22
Q10   1   0.9631  0.6946  0.5927  11.00000  0.05    0.22
Q11   1   0.9002  0.6795  0.4183  11.00000  0.05    0.21
Q12   1   0.8033  0.6303  0.4049  11.00000  0.05    0.21
Q13   1   0.8681  0.7717  0.3780  11.00000  0.05    0.21
Q14   1   0.8535  0.4898  0.6987  11.00000  0.05    0.21
Q15   1   0.7268  0.5196  0.7902  11.00000  0.05    0.20
Q16   1   0.8340  0.6967  0.3472  11.00000  0.05    0.19
Q17   1   0.9372  0.7152  0.5517  11.00000  0.05    0.19
Q18   1   0.5406  0.4529  0.6036  11.00000  0.05    0.19
Q19   1   0.8861  0.5723  0.3717  11.00000  0.05    0.19
Q20   1   0.8962  0.4729  0.7158  11.00000  0.05    0.19

  REM The information below was added by Olex2.
  REM
  REM R1 = 0.1122 for 2537 Fo > 4sig(Fo) and 0.1291 for all 21657 data
  REM n/a parameters refined using n/a restraints
  REM Highest difference peak 0.34, deepest hole -0.30
  REM Mean Shift 0, Max Shift 0.000.

  REM +++ Tabular Listing of Refinement Information +++
  REM R1_all = 0.1291
  REM R1_gt = 0.1122
  REM wR_ref = 0.2938
  REM GOOF = 1.283
  REM Shift_max = 0.000
  REM Shift_mean = 0
  REM Reflections_all = 21657
  REM Reflections_gt = 2537
  REM Parameters = n/a
  REM Hole = -0.30
  REM Peak = 0.34
  REM Flack = 0.42(11)

  
;
_cod_data_source_file            c7cp00593h5.cif
_cod_data_source_block           CDMOF_b_195K
_cod_depositor_comments
'Adding full bibliography for 7227776--7227790.cif.'
_cod_original_cell_volume        45752(12)
_cod_database_code               7227786
#BEGIN Tags that were not found in dictionaries:
_shelx_shelxl_version_number     2014/7
_chemical_oxdiff_formula         'C48 H82 K2 O40'
_shelx_space_group_comment
;
The symmetry employed for this shelxl refinement is uniquely defined
by the following loop, which should always be used as a source of
symmetry information in preference to the above space-group names.
They are only intended as comments.
;
_reflns_odcompleteness_completeness 98.60
_reflns_odcompleteness_iscentric 1
_reflns_odcompleteness_theta     13.68
_olex2_refinement_description
;
1. Fixed Uiso
 At 1.2 times of:
  All C(H) groups, H73A of O73, All C(H,H) groups
 At 1.5 times of:
  H76 of O76, H3A of O3, H2A of O2, H43A of O43, H42A of O42, H36 of O36,
  H33A of O33, H32A of O32, H26 of O26, H23A of O23, H22A of O22, H16 of O16,
  H13A of O13, H12A of O12, H6 of O6, H46 of O46, H52A of O52, H53A of O53, H56
  of O56, H62A of O62, H63A of O63, H66 of O66, H72A of O72
2. Restrained distances
 C64-C65
 1.5 with sigma of 0.02
 C65-C66
 1.5 with sigma of 0.02
 C2-C1
 1.5 with sigma of 0.02
 C23-C24
 1.5 with sigma of 0.02
 C23-C22
 1.5 with sigma of 0.02
 C15-C16
 1.5 with sigma of 0.02
 C45-C46
 1.5 with sigma of 0.02
 C35-C36
 1.5 with sigma of 0.002
 C64-C63
 1.5 with sigma of 0.02
 C4-C1
 3.5 with sigma of 0.02
 C4-C5
 1.5 with sigma of 0.005
 C13-C14
 1.5 with sigma of 0.02
 C13-C12
 1.5 with sigma of 0.02
 C42-C43
 1.5 with sigma of 0.02
 C21-C22
 1.5 with sigma of 0.02
 C6-C5
 1.5 with sigma of 0.005
 C72-C73
 1.5 with sigma of 0.02
 C26-C25
 1.5 with sigma of 0.02
 O15-C11
 1.45 with sigma of 0.02
 C2-O5
 2.5 with sigma of 0.02
 O5-C1
 1.45 with sigma of 0.02
 C31-O44
 1.45 with sigma of 0.02
 C31-O35
 1.45 with sigma of 0.005
 C33-O35
 3 with sigma of 0.02
 O12-C12
 1.45 with sigma of 0.02
 O23-C23
 1.45 with sigma of 0.02
 C26-O26
 1.45 with sigma of 0.005
 C6-O6
 1.45 with sigma of 0.02
 C35-O36
 2.45 with sigma of 0.02
 O22-C22
 1.45 with sigma of 0.02
 C72-O72
 1.45 with sigma of 0.02
 C16-O16
 1.45 with sigma of 0.02
 O4-C4
 1.45 with sigma of 0.02
 O63-C63
 1.45 with sigma of 0.005
 O43-C43
 1.45 with sigma of 0.02
 C14-C15
 1.5 with sigma of 0.02
 C24-C25
 1.5 with sigma of 0.02
 C65-C64
 1.5 with sigma of 0.02
 O14-C1
 1.45 with sigma of 0.02
 O15-C15
 1.45 with sigma of 0.01
 C21-O25
 1.45 with sigma of 0.01
 O25-C25
 1.45 with sigma of 0.01
 O44-C44
 1.45 with sigma of 0.01
 O54-C41
 1.45 with sigma of 0.01
 O13-C13
 1.45 with sigma of 0.02
 C12-O12
 1.45 with sigma of 0.02
 C22-O22
 1.45 with sigma of 0.02
 O14-C14
 1.45 with sigma of 0.01
 C31-C32
 1.5 with sigma of 0.02
 C33-C32
 1.5 with sigma of 0.02
 O32-C32
 1.45 with sigma of 0.02
 C5-O5
 1.45 with sigma of 0.01
 C45-O45
 1.45 with sigma of 0.02
 C62-C61
 1.5 with sigma of 0.02
 C62-O62
 1.45 with sigma of 0.02
 C75-O75
 1.5 with sigma of 0.02
 O75-C71
 1.45 with sigma of 0.02
 C75-C76
 1.5 with sigma of 0.02
 O76-C76
 1.45 with sigma of 0.005
 C62-C63
 1.5 with sigma of 0.02
 C32-C33
 1.5 with sigma of 0.02
 C36-C35
 1.5 with sigma of 0.02
 C61-O74
 1.45 with sigma of 0.02
 C61-C62
 1.5 with sigma of 0.02
 C61-O65
 1.45 with sigma of 0.02
 O36-C36
 1.45 with sigma of 0.01
 O75-C75
 1.45 with sigma of 0.02
 C41-O45
 1.45 with sigma of 0.02
 C71-O75
 1.45 with sigma of 0.01
 C71-C72
 1.5 with sigma of 0.02
 O73-C73
 1.45 with sigma of 0.02
 C74-C75
 1.5 with sigma of 0.02
 C74-C73
 1.5 with sigma of 0.005
 O34-C21
 1.45 with sigma of 0.02
 C21-O34
 1.45 with sigma of 0.01
 C43-C44
 1.5 with sigma of 0.02
 C44-C43
 1.5 with sigma of 0.01
 C72-C71
 1.5 with sigma of 0.01
 C71-O4
 1.45 with sigma of 0.01
 C35-C34
 1.5 with sigma of 0.002
 C33-C34
 1.5 with sigma of 0.02
 C34-C35
 1.5 with sigma of 0.02
 C34-O34
 1.45 with sigma of 0.01
 C33-O33
 1.45 with sigma of 0.01
 O72-C72
 1.45 with sigma of 0.02
 C41-C42
 1.5 with sigma of 0.01
 C34-C33
 1.5 with sigma of 0.01
 C44-C45
 1.5 with sigma of 0.01
 C35-O35
 1.45 with sigma of 0.01
 C52-C53
 1.5 with sigma of 0.02
 C54-C55
 1.5 with sigma of 0.02
 C54-C53
 1.5 with sigma of 0.02
 C53-C52
 1.5 with sigma of 0.02
 O54-C54
 1.45 with sigma of 0.02
 O52-C52
 1.45 with sigma of 0.02
 C51-O64
 1.45 with sigma of 0.02
 C55-C56
 1.5 with sigma of 0.02
 O56-C56
 1.45 with sigma of 0.005
 C56-C55
 1.5 with sigma of 0.02
 C51-C52
 1.5 with sigma of 0.02
 C55-O55
 1.45 with sigma of 0.02
 O55-C51
 1.45 with sigma of 0.01
 O55-C55
 1.45 with sigma of 0.01
 O64-C51
 1.45 with sigma of 0.02
 C51-O55
 1.45 with sigma of 0.02
 C1-K2
 3.8 with sigma of 0.02
 C12-K1
 3.8 with sigma of 0.02
 O2-C2
 1.45 with sigma of 0.02
 C2-C3
 1.5 with sigma of 0.02
 C4-C3
 1.5 with sigma of 0.005
 C5-C3
 2.5 with sigma of 0.02
 C3-O3
 1.45 with sigma of 0.01
 C26-C24
 2.5 with sigma of 0.04
 C15-C11
 2.5 with sigma of 0.01
 C35-C31
 2.5 with sigma of 0.01
 C44-C31
 2.5 with sigma of 0.01
 C4-C71
 2.5 with sigma of 0.01
 C2-C4
 2.5 with sigma of 0.01
 C4-O5
 2.5 with sigma of 0.01
 O5-C4
 2.5 with sigma of 0.02
 O15-C12
 2.5 with sigma of 0.02
 O25-C26
 2.5 with sigma of 0.04
 C44-O45
 2.5 with sigma of 0.02
 C66-O65
 2.5 with sigma of 0.04
 C66-C64
 2.5 with sigma of 0.04
 C1-O2
 2.5 with sigma of 0.04
 O13-C14
 2.5 with sigma of 0.02
 O13-C12
 2.5 with sigma of 0.02
 C14-O15
 2.5 with sigma of 0.04
 O24-C23
 2.5 with sigma of 0.04
 C13-C15
 2.5 with sigma of 0.04
 O14-C13
 2.5 with sigma of 0.04
 O24-C25
 2.5 with sigma of 0.04
 C25-O24
 2.5 with sigma of 0.01
 O62-C61
 2.5 with sigma of 0.04
 O62-C63
 2.5 with sigma of 0.04
 C15-C13
 2.5 with sigma of 0.04
 C13-O14
 2.5 with sigma of 0.04
 O14-C15
 2.5 with sigma of 0.04
 C35-C33
 2.5 with sigma of 0.04
 C33-C31
 2.5 with sigma of 0.04
 C32-O35
 2.5 with sigma of 0.04
 C31-C35
 2.5 with sigma of 0.04
 C63-C61
 2.5 with sigma of 0.04
 C72-O75
 2.5 with sigma of 0.04
 C31-O32
 2.5 with sigma of 0.04
 C24-O23
 2.5 with sigma of 0.04
 C72-O4
 2.5 with sigma of 0.04
 C74-C76
 2.5 with sigma of 0.01
 C61-C74
 2.5 with sigma of 0.04
 O73-C74
 2.5 with sigma of 0.02
 C72-O73
 2.5 with sigma of 0.02
 C24-C11
 2.5 with sigma of 0.01
 O23-C24
 2.5 with sigma of 0.02
 O23-C22
 2.5 with sigma of 0.02
 C41-C43
 2.5 with sigma of 0.01
 O43-C42
 2.5 with sigma of 0.01
 O42-C43
 2.5 with sigma of 0.01
 O42-C41
 2.5 with sigma of 0.01
 O75-C72
 2.5 with sigma of 0.01
 C32-C34
 2.5 with sigma of 0.04
 C34-C32
 2.5 with sigma of 0.04
 O35-C34
 2.5 with sigma of 0.04
 O33-C34
 2.5 with sigma of 0.04
 C34-C21
 2.5 with sigma of 0.01
 C34-O33
 2.45 with sigma of 0.01
 O33-C32
 2.45 with sigma of 0.01
 C34-C36
 2.5 with sigma of 0.01
 O36-C35
 2.4 with sigma of 0.02
 C53-C55
 2.5 with sigma of 0.04
 C54-C41
 2.5 with sigma of 0.02
 C54-C52
 2.5 with sigma of 0.02
 C41-C54
 2.5 with sigma of 0.01
 O52-C51
 2.5 with sigma of 0.04
 O52-C53
 2.5 with sigma of 0.04
 C53-O52
 2.5 with sigma of 0.01
 C52-O55
 2.5 with sigma of 0.01
 C54-O55
 2.5 with sigma of 0.04
 O55-C56
 2.5 with sigma of 0.04
 C56-C54
 2.5 with sigma of 0.04
 O55-C54
 2.5 with sigma of 0.04
 C54-C56
 2.5 with sigma of 0.04
 C56-O55
 2.5 with sigma of 0.04
 C55-C51 = C54-O55
 2.5 with sigma of 0.04
 C55-C51
 2.5 with sigma of 0.01
 C41-C45
 2.5 with sigma of 0.04
 C42-C44
 2.5 with sigma of 0.04
 C43-C45
 2.5 with sigma of 0.04
 C43-C41
 2.5 with sigma of 0.04
 C45-C41
 2.5 with sigma of 0.04
 C11-C13
 2.5 with sigma of 0.04
 C12-C14
 2.5 with sigma of 0.04
 C61-C65
 2.5 with sigma of 0.04
 C71-C75
 2.5 with sigma of 0.04
 C71-C73
 2.5 with sigma of 0.04
 C75-C73
 2.5 with sigma of 0.04
 O73-C72
 2.5 with sigma of 0.04
 C74-O73
 2.5 with sigma of 0.04
 O45-C44
 2.5 with sigma of 0.04
 O45-C42
 2.5 with sigma of 0.04
 O25-C24
 2.5 with sigma of 0.04
 O65-C64
 2.5 with sigma of 0.04
 O75-C76
 2.5 with sigma of 0.04
 O76-C75
 2.5 with sigma of 0.04
 O26-C25
 2.5 with sigma of 0.04
 C26-O25
 2.5 with sigma of 0.04
 O75-C74
 2.5 with sigma of 0.04
 C5-O4
 2.5 with sigma of 0.04
 O14-C2
 2.5 with sigma of 0.04
 C21-C25
 2.5 with sigma of 0.04
 C23-O24
 2.5 with sigma of 0.04
 C36-C34
 2.5 with sigma of 0.04
 C36-O35
 2.5 with sigma of 0.04
 C21-O22
 2.5 with sigma of 0.04
 C71-O72
 2.5 with sigma of 0.04
 C71-C4
 2.5 with sigma of 0.04
 O4-C5
 2.5 with sigma of 0.04
 O4-C72
 2.5 with sigma of 0.04
 O4-O75
 2.5 with sigma of 0.04
 C64-C62
 2.5 with sigma of 0.04
 C63-C65
 2.5 with sigma of 0.04
 C64-O65
 2.5 with sigma of 0.04
 C65-C61
 2.5 with sigma of 0.04
 C61-C63
 2.5 with sigma of 0.04
 C62-C64
 2.5 with sigma of 0.04
 C1-C14
 2.5 with sigma of 0.04
 C51-C55
 2.5 with sigma of 0.04
 O2-C1
 2.5 with sigma of 0.04
 C6-O5
 2.5 with sigma of 0.04
 C6-C4
 2.5 with sigma of 0.04
 O25-C22
 2.5 with sigma of 0.01
 C21-C23
 2.5 with sigma of 0.01
 C22-C24
 2.5 with sigma of 0.01
 C23-C25
 2.5 with sigma of 0.01
 C24-O25
 2.5 with sigma of 0.01
 C14-C1
 2.5 with sigma of 0.01
 C51-C64
 2.5 with sigma of 0.01
 C1-C3
 2.5 with sigma of 0.04
 C3-O2
 2.5 with sigma of 0.04
 O4-C3
 2.5 with sigma of 0.04
 C3-C1
 2.5 with sigma of 0.01
 O3-C2
 2.5 with sigma of 0.04
 O3-C4
 2.5 with sigma of 0.04
3. Rigid bond restraints
 C44
 with sigma for 1-2 distances of 0.01 and sigma for 1-3 distances of 0.01
 O36
 with sigma for 1-2 distances of 0.01 and sigma for 1-3 distances of 0.001
 O16
 with sigma for 1-2 distances of 0.01 and sigma for 1-3 distances of 0.01
4. Uiso/Uaniso restraints and constraints
All non-hydrogen atoms have similar U: within 2A with sigma of 0.04 and sigma
for terminal atoms of 0.08
: with sigma of 0.001 and sigma for terminal atoms of 0.00001
: with sigma of 0.001 and sigma for terminal atoms of 0.0001
: with sigma of 0.05 and sigma for terminal atoms of 0.01
: with sigma of 0.1 and sigma for terminal atoms of 0.2
Uanis(K2) \\sim Ueq, Uanis(K1) \\sim Ueq, Uanis(K3) \\sim Ueq: with sigma of
0.1 and sigma for terminal atoms of 0.2
5. Rigid body (RIGU) restrains
 All non-hydrogen atoms
 with sigma for 1-2 distances of 0.004 and sigma for 1-3 distances of 0.004
6. Others
 Uiso(O2)=Uiso(O3)=Uiso(O4)=Uiso(O5)=Uiso(O6)=Uiso(O12)=Uiso(O13)=Uiso(O14)=
 Uiso(O15)=Uiso(O16)=Uiso(O22)=Uiso(O23)=Uiso(O24)=Uiso(O25)=Uiso(O26)=
 Uiso(O32)=Uiso(O33)=Uiso(O34)=Uiso(O35)=Uiso(O36)=Uiso(O42)=Uiso(O43)=
 Uiso(O44)=Uiso(O45)=Uiso(O46)=Uiso(O52)=Uiso(O53)=Uiso(O54)=Uiso(O55)=
 Uiso(O56)=Uiso(O62)=Uiso(O63)=Uiso(O64)=Uiso(O65)=Uiso(O66)=Uiso(O72)=
 Uiso(O73)=Uiso(O74)=Uiso(O75)=Uiso(O76)=FVAR(1)
 Uiso(OA)=Uiso(OB)=FVAR(2)
7.a Ternary CH refined with riding coordinates:
 C1(H1), C2(H2), C3(H3), C4(H4), C5(H5), C11(H11), C12(H12), C13(H13),
 C14(H14), C15(H15), C21(H21), C22(H22), C23(H23), C24(H24), C25(H25), C31(H31),
  C32(H32), C33(H33), C34(H34), C35(H35), C41(H41), C42(H42), C43(H43),
 C44(H44), C45(H45), C51(H51), C52(H52), C53(H53), C54(H54), C55(H55), C61(H61),
  C62(H62), C63(H63), C64(H64), C65(H65), C71(H71), C72(H72), C73(H73),
 C74(H74), C75(H75)
7.b Secondary CH2 refined with riding coordinates:
 C6(H6A,H6B), C16(H16A,H16B), C26(H26A,H26B), C36(H36A,H36B), C46(H46A,H46B),
 C56(H56A,H56B), C66(H66A,H66B), C76(H76A,H76B)
7.c Tetrahedral OH refined with riding coordinates:
 O2(H2A), O3(H3A), O6(H6), O12(H12A), O13(H13A), O16(H16), O22(H22A),
 O23(H23A), O26(H26), O32(H32A), O33(H33A), O36(H36), O42(H42A), O43(H43A),
 O46(H46), O52(H52A), O53(H53A), O56(H56), O62(H62A), O63(H63A), O66(H66),
 O72(H72A), O73(H73A), O76(H76)
;
_shelx_fab_file
;
-24 -1 -2 -15.3767 6.8188
-24 -1 1 1.4272 -0.7339
-24 -1 4 -1.0482 13.6366
-23 -3 -2 2.8309 -19.7175
-23 -3 1 8.4586 -4.2764
-23 -2 -3 6.7113 -17.7731
-23 -2 0 -44.7940 10.6285
-23 -2 3 -10.1838 11.4059
-23 -1 -4 -22.3215 -30.8049
-23 -1 -1 6.3268 1.9531
-23 -1 2 21.7446 23.3762
-23 -1 5 -34.9674 -21.9614
-22 -5 -2 -46.9427 30.6987
-22 -5 1 18.2930 9.7571
-22 -4 -3 -11.6479 50.5104
-22 -4 0 -0.6300 9.7305
-22 -4 3 -37.6836 -9.6269
-22 -3 -4 -58.7536 17.2082
-22 -3 -1 -5.8188 7.9665
-22 -3 2 14.2305 -24.9636
-22 -3 5 -8.9362 23.6793
-22 -2 -5 -59.1269 15.4720
-22 -2 -2 32.6380 -11.1872
-22 -2 1 12.4235 -3.1428
-22 -2 4 -9.5431 -16.7814
-22 -2 7 19.9331 -4.2959
-22 -1 -6 -12.1802 13.9871
-22 -1 -3 -4.2836 -8.6070
-22 -1 0 -6.0065 -24.3424
-22 -1 3 -21.3230 1.4109
-22 -1 6 12.3230 -15.7702
-21 -6 -3 6.9152 2.9930
-21 -6 0 -15.4610 45.4937
-21 -6 3 -8.0641 -32.4850
-21 -5 -4 -17.3202 -11.4370
-21 -5 -1 -13.1400 33.9771
-21 -5 2 -19.4075 -53.1993
-21 -5 5 15.4238 25.6324
-21 -4 -5 22.9206 -35.7236
-21 -4 -2 0.9001 4.1879
-21 -4 1 31.3153 -0.0494
-21 -4 4 9.9488 5.1322
-21 -4 7 -11.9325 -25.7031
-21 -3 -6 -15.7605 -32.3076
-21 -3 -3 -9.8703 13.5521
-21 -3 0 -28.3717 27.1388
-21 -3 3 -42.0147 -48.7344
-21 -3 6 -35.4650 -9.7677
-21 -2 -7 38.8969 12.7887
-21 -2 -4 10.9247 9.3670
-21 -2 -1 15.7698 -20.5190
-21 -2 2 41.3854 1.2850
-21 -2 5 -34.0406 -8.7589
-21 -2 8 23.3191 -12.1084
-21 -1 -8 51.0867 9.7294
-21 -1 -5 47.3470 58.6856
-21 -1 -2 -25.1637 1.8215
-21 -1 1 -5.1764 26.3000
-21 -1 4 -24.8670 -0.8738
-21 -1 7 -7.7652 -17.3772
-20 -8 0 -6.9147 1.2734
-20 -7 -4 -14.3195 29.2400
-20 -7 -1 -3.4756 24.1672
-20 -7 2 -14.5655 -36.8514
-20 -6 -5 28.2474 41.9659
-20 -6 -2 3.1007 13.0835
-20 -6 1 -4.2722 -21.3464
-20 -6 4 -11.0772 9.9370
-20 -5 -6 -16.3110 -32.6894
-20 -5 -3 -20.7343 25.8520
-20 -5 0 -9.4978 40.6135
-20 -5 3 -24.4050 -22.5522
-20 -5 6 -5.4964 0.4948
-20 -4 -7 -23.9865 -43.2505
-20 -4 -4 -19.4978 41.7241
-20 -4 -1 16.2203 27.0481
-20 -4 2 -17.8789 -61.1844
-20 -4 5 -6.9783 44.7741
-20 -4 8 40.6561 17.0109
-20 -3 -8 35.4735 11.8676
-20 -3 -5 -5.4908 -10.2615
-20 -3 -2 -8.3537 2.0156
-20 -3 1 14.2089 12.1277
-20 -3 4 -3.9872 -41.4127
-20 -3 7 -6.2741 -23.8022
-20 -2 -9 -2.8181 5.0082
-20 -2 -6 -61.5691 16.2787
-20 -2 -3 25.4890 67.2260
-20 -2 0 -52.2616 -21.5080
-20 -2 3 12.6093 -30.6771
-20 -2 6 23.4571 -1.4943
-20 -2 9 38.2915 51.1447
-20 -1 -10 -28.7919 4.3404
-20 -1 -7 78.6075 -7.9618
-20 -1 -4 19.5366 42.8126
-20 -1 -1 -20.0235 -37.5819
-20 -1 2 1.2879 -45.5289
-20 -1 5 -5.0327 0.9063
-20 -1 8 -20.2225 -41.5259
-19 -9 -1 0.4555 -2.1095
-19 -9 2 -53.5954 -20.0875
-19 -8 -5 12.1677 39.9296
-19 -8 -2 20.9471 3.0282
-19 -8 1 -33.1199 5.3718
-19 -8 4 5.8780 4.5784
-19 -7 -6 1.3843 24.4471
-19 -7 -3 -12.9933 20.8468
-19 -7 0 -68.4799 11.0439
-19 -7 3 -39.3056 -53.1599
-19 -7 6 7.4709 -10.9665
-19 -6 -7 7.4938 -3.2043
-19 -6 -4 4.4414 17.5426
-19 -6 -1 17.6120 4.5820
-19 -6 2 39.3541 -26.5179
-19 -6 5 2.4374 27.7988
-19 -6 8 32.8503 -21.5852
-19 -5 -8 -8.3072 20.3609
-19 -5 -5 -31.4587 -9.5282
-19 -5 -2 1.0190 -10.1757
-19 -5 1 -39.2320 -14.4068
-19 -5 4 -27.5233 -8.8003
-19 -5 7 14.8814 -29.1501
-19 -4 -9 36.5082 35.2913
-19 -4 -6 -25.3714 -69.4622
-19 -4 -3 51.8187 -60.3150
-19 -4 0 22.0958 38.7877
-19 -4 3 -8.5308 -26.3366
-19 -4 6 -25.4956 14.4369
-19 -4 9 40.7687 30.4137
-19 -3 -10 0.8868 -19.7513
-19 -3 -7 59.2144 27.9865
-19 -3 -4 2.5818 65.9740
-19 -3 -1 -37.6395 41.2833
-19 -3 2 -55.2162 28.4112
-19 -3 5 -10.4097 -6.3706
-19 -3 8 -12.7173 23.5867
-19 -2 -11 25.2218 2.4397
-19 -2 -8 27.8860 48.0842
-19 -2 -5 15.3331 11.1931
-19 -2 -2 -43.2569 -27.5842
-19 -2 1 47.4580 -15.1487
-19 -2 4 28.0794 0.9621
-19 -2 7 -16.5212 3.3646
-19 -2 10 -4.8725 16.2110
-19 -1 -9 2.4154 4.8957
-19 -1 -6 -18.2008 26.9962
-19 -1 -3 -39.9594 95.9347
-19 -1 0 -20.5624 35.3069
-19 -1 3 -30.8930 58.1378
-19 -1 6 -2.0732 34.6195
-19 -1 9 -31.4691 18.1270
-18 -10 -2 -26.0571 27.7601
-18 -10 1 -13.1169 -13.5362
-18 -9 -3 -13.3415 40.1760
-18 -9 0 -28.5452 -27.7270
-18 -9 3 -16.6686 -17.4286
-18 -8 -7 2.0629 -54.2428
-18 -8 -4 -24.5058 42.1497
-18 -8 -1 -14.2385 -37.3340
-18 -8 2 4.3378 -32.5956
-18 -8 5 3.8082 47.4623
-18 -7 -8 -24.9964 -30.5885
-18 -7 -5 -11.4320 41.1712
-18 -7 -2 -3.1688 -7.6430
-18 -7 1 35.5555 51.2539
-18 -7 4 -22.2467 7.3719
-18 -7 7 39.2817 -18.0563
-18 -6 -9 -30.5462 -26.1114
-18 -6 -6 -43.1798 -44.4825
-18 -6 -3 28.7388 15.1295
-18 -6 0 -46.7323 -24.7171
-18 -6 3 21.5560 -13.1981
-18 -6 6 23.4771 39.3951
-18 -6 9 15.3202 36.5633
-18 -5 -10 -19.4201 -33.3758
-18 -5 -7 -9.6308 -51.7669
-18 -5 -4 -51.7814 49.7411
-18 -5 -1 46.3303 54.1109
-18 -5 2 44.6995 50.4504
-18 -5 5 -33.8114 21.0240
-18 -5 8 86.2938 -38.2002
-18 -4 -11 7.1651 -16.9057
-18 -4 -8 10.8809 61.6939
-18 -4 -5 -25.8166 36.2842
-18 -4 -2 31.5837 -45.1054
-18 -4 1 5.2319 1.9003
-18 -4 4 24.5926 -50.1938
-18 -4 7 -11.6453 48.5125
-18 -4 10 -0.9683 55.1870
-18 -3 -9 -23.4526 -15.9100
-18 -3 -6 -0.9589 -23.9515
-18 -3 -3 -15.5715 8.3596
-18 -3 0 -2.3360 41.1266
-18 -3 3 1.1764 27.3379
-18 -3 6 -52.9104 -23.4643
-18 -3 9 24.2239 9.0486
-18 -2 -10 24.7866 -6.9344
-18 -2 -7 -20.3231 55.5974
-18 -2 -4 30.7943 56.6505
-18 -2 -1 -51.6317 23.1010
-18 -2 2 -20.1187 -46.7467
-18 -2 5 33.3400 -20.8009
-18 -2 8 1.2126 46.3324
-18 -2 11 11.6058 16.0768
-18 -1 -11 -20.0115 -0.4100
-18 -1 -8 4.6286 -10.7034
-18 -1 -5 11.4992 -67.7244
-18 -1 -2 -82.0796 -7.0862
-18 -1 1 6.6957 -78.4965
-18 -1 4 23.3682 -12.4903
-18 -1 7 -46.1092 27.0612
-18 -1 10 34.4213 -57.5992
-17 -11 -3 -9.2140 42.6686
-17 -11 0 -47.2404 -22.1031
-17 -11 3 -20.6860 -26.2521
-17 -10 -4 -19.0664 -9.5157
-17 -10 -1 -28.8883 -38.1346
-17 -10 2 8.8336 -10.3038
-17 -10 5 -4.5167 34.6032
-17 -9 -5 7.6269 -21.0868
-17 -9 -2 -39.4740 48.5777
-17 -9 1 -24.9454 -0.2421
-17 -9 4 -30.4765 -3.1759
-17 -9 7 -2.4631 -2.7606
-17 -8 -6 1.4748 18.1772
-17 -8 -3 9.3029 -61.5722
-17 -8 0 -11.5231 -8.0362
-17 -8 3 18.9345 -57.5179
-17 -8 6 3.7789 5.3946
-17 -7 -7 -13.7521 -22.2694
-17 -7 -4 -37.8303 25.7848
-17 -7 -1 -53.8330 4.2553
-17 -7 2 -0.2010 4.7628
-17 -7 5 22.1248 29.6322
-17 -7 8 16.6958 -13.5223
-17 -6 -8 15.0516 51.5018
-17 -6 -5 -1.3506 6.1381
-17 -6 -2 64.8513 -97.6879
-17 -6 1 59.0693 40.8834
-17 -6 4 -24.0121 -14.1318
-17 -6 7 44.2665 -17.8663
-17 -6 10 -12.0911 3.4502
-17 -5 -9 5.5927 38.0693
-17 -5 -6 -25.5923 -74.1700
-17 -5 -3 -31.1402 -2.5680
-17 -5 0 -78.2881 65.8860
-17 -5 3 1.5724 40.4712
-17 -5 6 -16.2978 11.6837
-17 -5 9 18.5782 -0.2958
-17 -4 -10 5.0629 -13.6334
-17 -4 -7 36.4719 54.8215
-17 -4 -4 -25.6557 5.1289
-17 -4 -1 78.4152 6.0320
-17 -4 2 82.5768 15.5975
-17 -4 5 -85.9870 -39.5697
-17 -4 8 49.7360 -6.6883
-17 -4 11 -34.7561 34.7224
-17 -3 -11 26.3324 -10.3698
-17 -3 -8 6.5625 9.5082
-17 -3 -5 42.3170 16.3725
-17 -3 -2 -44.9076 33.4429
-17 -3 1 -40.3632 -8.3730
-17 -3 4 56.1522 45.1831
-17 -3 7 -25.9497 44.5416
-17 -3 10 -28.0852 2.3323
-17 -2 -12 -9.9495 -12.8264
-17 -2 -9 4.6912 -36.3996
-17 -2 -6 -21.8848 10.5504
-17 -2 -3 -52.0755 -27.0298
-17 -2 0 54.7806 -21.7838
-17 -2 3 -31.5489 36.0992
-17 -2 6 13.1297 7.7710
-17 -2 9 -21.2378 -46.6596
-17 -2 12 -31.3149 1.7524
-17 -1 -13 -17.3214 -16.6668
-17 -1 -10 37.3919 -44.5315
-17 -1 -7 -5.3847 22.0013
-17 -1 -4 34.7952 21.6590
-17 -1 -1 -29.0203 25.6801
-17 -1 2 -8.6595 29.3691
-17 -1 5 48.3215 14.5004
-17 -1 8 -17.4623 52.4362
-17 -1 11 11.9787 9.1056
-16 -12 -4 -31.7473 11.5795
-16 -12 -1 -48.7532 -27.2995
-16 -12 2 35.2369 9.4540
-16 -11 -5 -5.4590 -36.2994
-16 -11 -2 -27.9992 41.7141
-16 -11 1 43.8977 36.6766
-16 -11 4 -57.0899 29.1061
-16 -10 -6 -16.5510 -29.3934
-16 -10 -3 -17.8421 23.2099
-16 -10 0 -36.5629 -63.6316
-16 -10 3 -3.7901 -36.3600
-16 -10 6 -29.2204 32.3030
-16 -9 -7 -28.4334 -15.6219
-16 -9 -4 8.5627 -37.6525
-16 -9 -1 -0.1514 31.5510
-16 -9 2 31.4708 18.3556
-16 -9 5 -19.5330 38.4301
-16 -9 8 39.5970 0.0850
-16 -8 -8 -37.3969 -3.7275
-16 -8 -5 44.0706 47.5740
-16 -8 -2 -43.8777 -46.7420
-16 -8 1 42.3362 -23.0639
-16 -8 4 1.8270 5.1577
-16 -8 7 -19.0113 48.1345
-16 -8 10 -31.4302 1.1443
-16 -7 -9 -38.4905 -22.9385
-16 -7 -6 -21.4503 -11.8053
-16 -7 -3 11.2540 -23.3369
-16 -7 0 -59.2482 60.2733
-16 -7 3 40.6908 61.2773
-16 -7 6 46.3451 -21.2648
-16 -7 9 56.3753 0.9884
-16 -6 -10 -26.6942 5.9203
-16 -6 -7 -20.0652 -20.7454
-16 -6 -4 -33.6010 84.3687
-16 -6 -1 -19.7751 -5.2578
-16 -6 2 82.0854 12.9369
-16 -6 5 -16.7012 -15.9878
-16 -6 8 0.8640 46.3509
-16 -6 11 -0.9863 9.1156
-16 -5 -11 -27.3909 -7.9950
-16 -5 -8 29.0359 11.6350
-16 -5 -5 -11.3193 15.6190
-16 -5 -2 9.9571 -12.5956
-16 -5 1 18.3203 98.2028
-16 -5 4 -10.4901 -6.6943
-16 -5 7 5.6822 -0.7086
-16 -5 10 69.3465 4.2322
-16 -4 -12 11.6929 -8.7238
-16 -4 -9 -17.3957 2.4629
-16 -4 -6 -16.5139 23.4457
-16 -4 -3 -47.7493 37.9658
-16 -4 0 -78.7302 14.5267
-16 -4 3 123.5805 -29.9677
-16 -4 6 -49.8342 4.2090
-16 -4 9 -2.0539 33.5605
-16 -4 12 9.0783 41.0885
-16 -3 -13 19.9719 -14.2661
-16 -3 -10 -6.4439 -53.3339
-16 -3 -7 -9.4186 -7.8092
-16 -3 -4 -28.1818 15.6255
-16 -3 -1 -17.5424 23.4627
-16 -3 2 37.3055 -34.7210
-16 -3 5 -55.5368 -10.1750
-16 -3 8 21.9909 -12.5511
-16 -3 11 8.7331 10.1190
-16 -2 -11 22.9606 5.1532
-16 -2 -8 23.5970 -21.6587
-16 -2 -5 50.3050 20.8884
-16 -2 -2 -53.7182 -40.1156
-16 -2 1 9.8172 -54.6385
-16 -2 4 45.4642 12.8112
-16 -2 7 39.2160 80.5675
-16 -2 10 16.9980 -12.7846
-16 -2 13 21.5567 -7.6242
-16 -1 -12 34.3354 41.4829
-16 -1 -9 26.0357 -56.5748
-16 -1 -6 -16.4962 5.3802
-16 -1 -3 1.1251 -61.5143
-16 -1 0 -34.2730 -18.0191
-16 -1 3 37.8480 -17.3509
-16 -1 6 -11.4309 21.2779
-16 -1 9 8.5961 -63.8769
-16 -1 12 28.2215 -28.8070
-15 -13 -2 -42.0347 40.6367
-15 -13 1 17.7500 26.7093
-15 -13 4 14.1198 -35.0349
-15 -12 -6 -39.0745 -3.0836
-15 -12 -3 -12.7179 -1.1910
-15 -12 0 -3.8528 -51.8758
-15 -12 3 10.1477 -29.7138
-15 -12 6 -9.8642 8.2763
-15 -11 -7 -2.8369 -19.4631
-15 -11 -4 21.4676 -14.9454
-15 -11 -1 -15.2057 -3.2981
-15 -11 2 -32.0487 37.6672
-15 -11 5 7.9467 39.0683
-15 -11 8 17.8901 24.7658
-15 -10 -8 -6.3774 12.7259
-15 -10 -5 45.0335 -30.0913
-15 -10 -2 22.7669 -14.8320
-15 -10 1 38.9568 6.2025
-15 -10 4 -22.2815 -28.4485
-15 -10 7 -32.1435 -1.9481
-15 -9 -9 -20.7821 -9.3305
-15 -9 -6 30.0052 12.4710
-15 -9 -3 5.9794 -23.0426
-15 -9 0 -69.9193 14.3231
-15 -9 3 -28.0804 -9.3819
-15 -9 6 -11.7795 3.6218
-15 -9 9 17.9969 -14.2907
-15 -8 -10 -11.6977 -9.4715
-15 -8 -7 -34.6295 53.9395
-15 -8 -4 37.3003 -0.6455
-15 -8 -1 -49.2517 1.8351
-15 -8 2 113.1800 -28.7381
-15 -8 5 -38.4516 -47.5664
-15 -8 8 -1.6893 -6.2566
-15 -8 11 -22.4784 -18.0730
-15 -7 -11 -40.7078 59.3800
-15 -7 -8 20.3639 17.2375
-15 -7 -5 9.7104 6.0956
-15 -7 -2 -25.6241 14.9954
-15 -7 1 -45.4061 -18.0546
-15 -7 4 -64.1540 37.6205
-15 -7 7 18.7432 -17.7730
-15 -7 10 10.0860 -39.1155
-15 -6 -12 -26.3857 33.4277
-15 -6 -9 24.2778 58.0231
-15 -6 -6 -42.5065 2.7123
-15 -6 -3 6.3446 -59.1508
-15 -6 0 -20.6544 51.5467
-15 -6 3 11.0144 -2.7560
-15 -6 6 -33.6959 -53.8356
-15 -6 9 52.2155 9.5713
-15 -6 12 -1.5560 -18.7627
-15 -5 -13 -7.7671 -1.6793
-15 -5 -10 -6.5516 41.5253
-15 -5 -7 18.8361 -64.8088
-15 -5 -4 -27.6155 48.5907
-15 -5 -1 28.8897 7.2981
-15 -5 2 -4.0159 -24.2244
-15 -5 5 15.0017 19.7455
-15 -5 8 13.9707 -24.0562
-15 -5 11 36.2274 -25.3780
-15 -4 -11 12.3679 -7.3289
-15 -4 -8 18.4706 3.3815
-15 -4 -5 -16.6889 36.2732
-15 -4 -2 46.9778 -46.1270
-15 -4 1 -7.4412 2.7068
-15 -4 4 -16.3790 9.5593
-15 -4 7 59.5627 -47.3147
-15 -4 10 -15.7908 -36.3076
-15 -4 13 5.4359 23.8783
-15 -3 -12 54.5107 -41.9141
-15 -3 -9 12.6393 -58.1806
-15 -3 -6 -11.4403 -4.1056
-15 -3 -3 12.7622 -16.4958
-15 -3 0 -33.6562 -29.5145
-15 -3 3 54.9580 76.2199
-15 -3 6 76.4308 -20.0787
-15 -3 9 -66.4160 -16.2687
-15 -3 12 34.6048 -0.2064
-15 -2 -13 47.8827 24.1072
-15 -2 -10 -13.4084 -55.4742
-15 -2 -7 40.2848 52.8904
-15 -2 -4 43.6352 -11.5264
-15 -2 -1 39.3874 -42.6996
-15 -2 2 10.3705 -4.0906
-15 -2 5 -40.7603 -37.7106
-15 -2 8 43.2340 -9.0674
-15 -2 11 -32.0076 -11.9407
-15 -2 14 1.8760 -8.4108
-15 -1 -14 35.4318 -20.5952
-15 -1 -11 53.7124 -7.3151
-15 -1 -8 36.9572 -46.7079
-15 -1 -5 62.7192 13.8270
-15 -1 -2 0.2314 -53.9507
-15 -1 1 -30.9398 23.1126
-15 -1 4 89.5098 -9.7326
-15 -1 7 -20.1029 104.1507
-15 -1 10 0.4783 26.5149
-15 -1 13 54.4213 -15.1776
-14 -14 -3 2.0245 -50.3620
-14 -14 0 -31.3336 0.7233
-14 -13 -4 28.2683 -42.2812
-14 -13 -1 -27.0891 59.0281
-14 -13 2 -18.2978 55.1441
-14 -13 5 11.9822 27.4245
-14 -12 -8 2.7772 24.9740
-14 -12 -5 22.7827 12.6424
-14 -12 -2 -56.9963 64.9054
-14 -12 1 -35.5414 -25.3590
-14 -12 4 21.8079 -12.5919
-14 -12 7 -31.9941 15.7487
-14 -11 -9 0.1631 13.2745
-14 -11 -6 27.4227 -14.8744
-14 -11 -3 68.7846 20.3378
-14 -11 0 -8.3801 -82.4971
-14 -11 3 -38.5290 34.2983
-14 -11 6 -25.1786 1.3551
-14 -11 9 65.6231 28.1390
-14 -10 -10 -11.1448 5.7071
-14 -10 -7 -25.7251 31.9239
-14 -10 -4 -16.1522 58.0391
-14 -10 -1 -18.0492 -78.1977
-14 -10 2 -23.9730 27.0403
-14 -10 5 -3.1448 -28.1521
-14 -10 8 4.2150 57.8038
-14 -9 -11 -2.0723 22.3339
-14 -9 -8 -17.6938 5.0391
-14 -9 -5 54.2642 19.9273
-14 -9 -2 13.3127 -34.5458
-14 -9 1 6.1974 36.2958
-14 -9 4 -44.4962 1.1453
-14 -9 7 8.1999 -0.7518
-14 -9 10 40.2351 -7.6683
-14 -8 -9 -20.8448 -54.6597
-14 -8 -6 -56.7999 52.7946
-14 -8 -3 -42.3106 -0.5830
-14 -8 0 -150.9806 -19.7230
-14 -8 3 90.9158 -2.3772
-14 -8 6 13.7730 7.8066
-14 -8 9 -38.4333 -2.9690
-14 -7 -10 -14.4502 -2.9187
-14 -7 -7 -73.1354 -32.3623
-14 -7 -4 -2.9068 -5.7905
-14 -7 -1 -37.2567 88.8430
-14 -7 2 94.5142 1.0731
-14 -7 5 -34.6242 -13.9089
-14 -7 8 32.9295 -15.6041
-14 -7 11 45.5320 -32.2234
-14 -6 -11 -46.2305 19.3296
-14 -6 -8 12.3592 -39.4958
-14 -6 -5 -15.6021 46.1045
-14 -6 -2 -28.6291 -31.4533
-14 -6 1 26.2059 22.1885
-14 -6 4 -8.8277 44.3792
-14 -6 7 -39.2459 -68.6155
-14 -6 10 15.7267 12.7398
-14 -6 13 22.1337 16.8712
-14 -5 -12 25.2326 -53.7830
-14 -5 -9 -32.2015 14.8147
-14 -5 -6 -49.8143 11.9946
-14 -5 -3 -5.5980 -30.5570
-14 -5 0 -13.0492 94.6077
-14 -5 3 23.4494 -42.7028
-14 -5 6 9.3010 -71.0237
-14 -5 9 24.5876 54.7145
-14 -5 12 54.6439 16.9770
-14 -4 -13 17.7867 -13.4924
-14 -4 -10 -39.2564 5.8015
-14 -4 -7 4.4451 -6.3169
-14 -4 -4 -27.5295 31.2044
-14 -4 -1 20.4135 1.9965
-14 -4 2 -22.4823 -12.0300
-14 -4 5 -13.4162 -24.2225
-14 -4 8 -13.9461 16.7641
-14 -4 11 9.6670 19.8197
-14 -4 14 -3.0946 25.2983
-14 -3 -14 31.0871 17.1587
-14 -3 -11 9.7240 15.7531
-14 -3 -8 23.3953 -24.0775
-14 -3 -5 -31.3195 -1.6820
-14 -3 -2 -27.8313 -2.2249
-14 -3 1 -31.5645 -45.2207
-14 -3 4 -42.9739 40.9355
-14 -3 7 -4.2309 57.7805
-14 -3 10 41.5381 2.2108
-14 -3 13 5.2001 14.9068
-14 -2 -12 10.3577 52.3592
-14 -2 -9 2.6662 -51.5446
-14 -2 -6 1.8753 70.6470
-14 -2 -3 32.7528 -18.5287
-14 -2 0 -34.2261 -37.6665
-14 -2 3 75.0956 61.7207
-14 -2 6 -63.1716 85.1387
-14 -2 9 39.6589 -14.8973
-14 -2 12 4.5894 -30.3692
-14 -1 -13 77.1525 65.9481
-14 -1 -10 -1.5180 -7.0547
-14 -1 -7 11.8678 47.7294
-14 -1 -4 -17.1579 -9.1404
-14 -1 -1 -18.7005 -0.7903
-14 -1 2 -23.4330 13.9429
-14 -1 5 -22.5272 -43.4298
-14 -1 8 -0.5295 7.9234
-14 -1 11 -30.8016 -81.3376
-14 -1 14 29.4005 11.4016
-13 -13 -6 35.3484 20.4537
-13 -13 -3 24.3533 -6.4411
-13 -13 0 -91.0894 -22.6457
-13 -12 -7 25.3423 22.2017
-13 -12 -4 20.5985 -3.6492
-13 -12 -1 -30.7877 21.6036
-13 -12 2 17.5591 58.4677
-13 -12 5 73.2410 -43.8561
-13 -12 8 29.1579 23.2432
-13 -11 -8 36.3517 52.6958
-13 -11 -5 54.2981 -13.0906
-13 -11 -2 37.2758 73.1080
-13 -11 1 13.8428 -28.3381
-13 -11 4 -13.4427 -57.4254
-13 -11 7 14.4959 13.1865
-13 -11 10 15.9850 27.6922
-13 -10 -9 11.1794 -0.7348
-13 -10 -6 6.3408 29.7512
-13 -10 -3 -0.9323 -2.7909
-13 -10 0 15.8527 -71.3424
-13 -10 3 20.0746 -20.7976
-13 -10 6 -30.5490 -42.6717
-13 -10 9 13.7368 27.1414
-13 -9 -10 -0.9952 42.9701
-13 -9 -7 -22.4862 0.4092
-13 -9 -4 -23.8496 32.5682
-13 -9 -1 18.6287 13.7702
-13 -9 2 14.0860 -8.9905
-13 -9 5 -31.1222 3.4735
-13 -9 8 -18.2797 14.4032
-13 -9 11 -5.2877 -28.0804
-13 -8 -11 -8.1172 64.9040
-13 -8 -8 -6.7743 -28.4790
-13 -8 -5 3.5095 -19.9724
-13 -8 -2 -8.6670 27.9218
-13 -8 1 -18.8881 4.6078
-13 -8 4 -81.4161 49.8048
-13 -8 7 -28.0622 -39.3594
-13 -8 10 -3.4850 -36.7027
-13 -7 -12 -2.5258 67.8067
-13 -7 -9 15.8638 23.7290
-13 -7 -6 -35.2167 -31.9812
-13 -7 -3 -17.3225 -56.7244
-13 -7 0 -29.0026 72.7508
-13 -7 3 -5.6447 -7.3117
-13 -7 6 35.4112 -87.9556
-13 -7 9 -3.8705 11.9124
-13 -7 12 27.1916 -44.3352
-13 -6 -13 32.4620 32.6576
-13 -6 -10 -45.6534 46.0047
-13 -6 -7 -77.5387 -32.6762
-13 -6 -4 18.7662 -57.8294
-13 -6 -1 75.7209 48.3011
-13 -6 2 -2.8514 -90.3737
-13 -6 5 -47.8189 28.2159
-13 -6 8 13.3874 -39.1549
-13 -6 11 25.6228 -37.2351
-13 -5 -14 -0.9180 -4.8101
-13 -5 -11 -25.6147 52.1162
-13 -5 -8 -14.0199 -50.5077
-13 -5 -5 6.0380 -57.7667
-13 -5 -2 104.1550 -7.1004
-13 -5 1 -34.5360 -16.6421
-13 -5 4 -7.0838 5.7545
-13 -5 7 87.5451 -108.4380
-13 -5 10 -11.4861 -27.1635
-13 -5 13 57.7328 32.7109
-13 -4 -12 0.7142 4.2903
-13 -4 -9 -42.2642 16.7946
-13 -4 -6 6.3343 28.6837
-13 -4 -3 75.7198 -6.4073
-13 -4 0 20.2032 -37.6905
-13 -4 3 -87.9946 52.3803
-13 -4 6 70.0478 10.5152
-13 -4 9 1.4814 -25.4815
-13 -4 12 2.5029 -24.3141
-13 -3 -13 12.4343 25.5872
-13 -3 -10 -21.5910 -17.1599
-13 -3 -7 11.6233 -23.9123
-13 -3 -4 35.7682 -12.6686
-13 -3 -1 -7.0673 -45.2237
-13 -3 2 -47.3591 22.5881
-13 -3 5 2.2459 33.3020
-13 -3 8 -22.2267 -66.3951
-13 -3 11 1.5562 18.2984
-13 -3 14 9.0502 2.2336
-13 -2 -14 -36.5154 0.7458
-13 -2 -11 -10.0127 22.4763
-13 -2 -8 67.5789 11.9283
-13 -2 -5 -1.8003 58.8034
-13 -2 -2 44.6872 -7.4816
-13 -2 1 -67.2689 -12.8748
-13 -2 4 103.7459 1.7104
-13 -2 7 -49.5214 96.0936
-13 -2 10 38.3482 -34.1574
-13 -2 13 4.4658 -6.6157
-13 -1 -15 15.7082 -1.5351
-13 -1 -12 50.8246 -32.2755
-13 -1 -9 24.0060 -41.5341
-13 -1 -6 -42.6358 27.4671
-13 -1 -3 1.6059 -52.3220
-13 -1 0 -20.1181 -16.0787
-13 -1 3 106.0833 86.2526
-13 -1 6 -68.8647 19.3129
-13 -1 9 -16.7995 64.1372
-13 -1 12 -59.1330 -21.6244
-13 -1 15 10.5189 -11.4818
-12 -12 -9 -3.1518 -9.2353
-12 -12 -6 35.2712 35.4624
-12 -12 -3 -9.2896 6.8429
-12 -12 0 -99.2462 -109.1475
-12 -11 -10 6.4206 -8.9773
-12 -11 -7 24.1627 42.8230
-12 -11 -4 -13.6877 -40.5723
-12 -11 -1 64.9266 47.8561
-12 -11 2 12.2402 64.4479
-12 -11 5 3.3225 -77.0165
-12 -11 8 35.4692 6.7904
-12 -11 11 40.9396 29.2533
-12 -10 -11 -1.7562 -32.6458
-12 -10 -8 15.3487 10.7132
-12 -10 -5 -11.6725 42.1659
-12 -10 -2 -57.5488 52.2226
-12 -10 1 24.3505 -20.9561
-12 -10 4 -39.1816 7.6892
-12 -10 7 3.6983 2.0893
-12 -10 10 -8.2381 0.4999
-12 -9 -12 -2.8718 -23.7324
-12 -9 -9 20.7782 10.9958
-12 -9 -6 -22.8558 33.9978
-12 -9 -3 11.1122 -15.9245
-12 -9 0 -33.7545 50.3662
-12 -9 3 51.7083 -27.1501
-12 -9 6 32.3369 -47.3031
-12 -9 9 -21.9304 28.1542
-12 -9 12 19.3983 15.7993
-12 -8 -13 20.7304 18.2181
-12 -8 -10 25.2870 -12.8138
-12 -8 -7 -0.0998 -71.6581
-12 -8 -4 -38.4628 3.0685
-12 -8 -1 -29.3251 66.6975
-12 -8 2 42.5854 -33.9500
-12 -8 5 50.4639 18.6390
-12 -8 8 -27.0441 31.6277
-12 -8 11 -9.0012 -30.0762
-12 -7 -14 30.1308 -22.7836
-12 -7 -11 4.6076 40.8699
-12 -7 -8 -6.6733 -63.3852
-12 -7 -5 45.4285 -12.6223
-12 -7 -2 -22.0614 -26.0872
-12 -7 1 4.3430 31.3134
-12 -7 4 30.0227 23.2981
-12 -7 7 -32.7521 -95.2249
-12 -7 10 39.8479 59.4267
-12 -7 13 -0.5212 16.8065
-12 -6 -12 10.4760 33.1708
-12 -6 -9 -9.5725 -51.5380
-12 -6 -6 16.5811 17.2442
-12 -6 -3 -25.4782 -31.5898
-12 -6 0 -4.2761 13.8563
-12 -6 3 57.7150 -79.9476
-12 -6 6 53.6515 -26.1293
-12 -6 9 -48.0017 63.6366
-12 -6 12 15.5047 16.1058
-12 -5 -13 37.0879 17.4464
-12 -5 -10 5.8935 -15.6081
-12 -5 -7 -55.3279 4.8647
-12 -5 -4 4.5904 -33.8898
-12 -5 -1 -26.2022 -6.9651
-12 -5 2 8.7933 0.2778
-12 -5 5 -11.4875 29.3575
-12 -5 8 19.1775 38.9215
-12 -5 11 -7.6536 14.7195
-12 -5 14 -18.6692 30.0477
-12 -4 -14 -33.2664 -12.3188
-12 -4 -11 -27.9403 35.5318
-12 -4 -8 -8.8033 21.9306
-12 -4 -5 -0.1763 -13.9036
-12 -4 -2 -3.9713 6.2750
-12 -4 1 30.0386 -0.7082
-12 -4 4 -41.7215 101.3521
-12 -4 7 -28.7314 39.5790
-12 -4 10 8.7887 16.8355
-12 -4 13 -12.2513 31.0153
-12 -3 -15 -0.1047 15.2312
-12 -3 -12 53.2339 22.0499
-12 -3 -9 25.2128 62.5788
-12 -3 -6 -31.5800 12.6451
-12 -3 -3 34.2038 -8.2324
-12 -3 0 -57.5077 40.7656
-12 -3 3 53.2318 44.5003
-12 -3 6 -169.5256 178.1418
-12 -3 9 73.1755 -82.7769
-12 -3 12 -39.6793 -23.9588
-12 -3 15 -2.2609 -1.3652
-12 -2 -13 -62.3535 -22.6153
-12 -2 -10 -75.5451 14.5230
-12 -2 -7 -45.6365 22.1462
-12 -2 -4 -3.2989 23.1146
-12 -2 -1 29.6651 39.6687
-12 -2 2 4.6285 26.2437
-12 -2 5 -62.8123 -2.7839
-12 -2 8 -9.5260 -49.9262
-12 -2 11 -26.2172 -36.5670
-12 -2 14 13.8680 10.9157
-12 -1 -14 -16.6275 32.8416
-12 -1 -11 34.7334 42.3685
-12 -1 -8 40.7214 4.9589
-12 -1 -5 2.6947 17.8224
-12 -1 -2 -54.8867 25.2389
-12 -1 1 13.4111 -40.1156
-12 -1 4 58.0583 6.1416
-12 -1 7 7.8950 -58.5942
-12 -1 10 23.5892 -53.0620
-12 -1 13 -25.3522 4.0170
-12 -1 16 -33.4492 1.3170
-11 -11 -12 2.7581 0.6265
-11 -11 -9 -34.4535 -19.0291
-11 -11 -6 41.7796 26.4907
-11 -11 -3 -16.0483 -30.3846
-11 -11 0 101.8903 74.4258
-11 -10 -10 11.0106 -10.6101
-11 -10 -7 1.3492 -17.9685
-11 -10 -4 1.1362 -22.8344
-11 -10 -1 6.9527 157.0611
-11 -10 2 20.0479 -12.9995
-11 -10 5 -12.0576 56.8353
-11 -10 8 -48.8684 -3.6623
-11 -10 11 30.8903 21.2128
-11 -9 -11 -29.4872 14.4295
-11 -9 -8 11.3673 16.6602
-11 -9 -5 16.5515 46.2509
-11 -9 -2 17.9150 108.8633
-11 -9 1 19.1606 28.7510
-11 -9 4 -18.7609 42.8900
-11 -9 7 -0.6809 -22.8580
-11 -9 10 -6.8639 34.4183
-11 -9 13 -10.6648 10.0384
-11 -8 -12 -24.9392 41.2603
-11 -8 -9 -15.9226 37.0272
-11 -8 -6 58.1339 -13.9912
-11 -8 -3 55.5841 -60.8736
-11 -8 0 -67.2979 56.5664
-11 -8 3 -11.0720 -11.8044
-11 -8 6 -23.0167 -0.7202
-11 -8 9 17.0937 103.1699
-11 -8 12 -15.3037 -39.7663
-11 -7 -13 -3.7847 36.0462
-11 -7 -10 -9.7515 72.5772
-11 -7 -7 4.5131 -56.7603
-11 -7 -4 2.3300 18.8965
-11 -7 -1 -17.5298 -2.8130
-11 -7 2 -35.6416 -60.5329
-11 -7 5 60.3537 -24.6900
-11 -7 8 7.2375 -15.8064
-11 -7 11 -0.0273 -4.8104
-11 -7 14 -8.4570 9.2329
-11 -6 -14 32.1767 -16.8859
-11 -6 -11 -15.5287 85.1565
-11 -6 -8 -19.8470 -11.9321
-11 -6 -5 33.4490 -36.1997
-11 -6 -2 33.5440 1.5047
-11 -6 1 -52.7262 -15.9122
-11 -6 4 25.9259 -29.1299
-11 -6 7 38.5024 -9.5028
-11 -6 10 -23.2667 -27.9748
-11 -6 13 -6.1247 0.6045
-11 -5 -15 -7.1303 47.7899
-11 -5 -12 -30.1199 26.4285
-11 -5 -9 20.7186 60.0669
-11 -5 -6 -13.3577 -63.0561
-11 -5 -3 58.0571 31.5280
-11 -5 0 -53.2638 -39.7487
-11 -5 3 20.1427 5.1060
-11 -5 6 41.9920 -35.6970
-11 -5 9 -14.3484 -3.0479
-11 -5 12 -7.6907 -28.6218
-11 -5 15 18.7782 21.8417
-11 -4 -13 -28.0853 -15.4688
-11 -4 -10 22.6214 38.5999
-11 -4 -7 -48.6781 50.9218
-11 -4 -4 47.9567 24.7411
-11 -4 -1 -55.5118 -24.8458
-11 -4 2 10.0934 -42.7631
-11 -4 5 -23.4997 109.6210
-11 -4 8 58.0477 -20.8458
-11 -4 11 8.9460 28.6984
-11 -4 14 2.5779 -12.7088
-11 -3 -14 -59.6744 -8.5550
-11 -3 -11 43.9212 25.8320
-11 -3 -8 -6.4069 13.7072
-11 -3 -5 26.0194 -47.8188
-11 -3 -2 2.7219 -23.5883
-11 -3 1 61.0066 64.9035
-11 -3 4 -20.2294 24.7047
-11 -3 7 -66.5388 99.6079
-11 -3 10 -20.5666 -60.5532
-11 -3 13 38.4652 19.5879
-11 -3 16 -10.6526 25.2650
-11 -2 -15 -35.7857 -5.7056
-11 -2 -12 42.2383 -41.2429
-11 -2 -9 -7.5271 24.7983
-11 -2 -6 16.1552 51.8902
-11 -2 -3 -36.1389 12.2141
-11 -2 0 4.5904 44.9932
-11 -2 3 9.9580 44.0571
-11 -2 6 43.1943 71.8300
-11 -2 9 6.0262 -80.4069
-11 -2 12 30.0572 18.8870
-11 -2 15 -36.0845 -22.6883
-11 -1 -16 15.4357 -19.9746
-11 -1 -13 -10.3075 -15.6458
-11 -1 -10 -32.1915 -13.2877
-11 -1 -7 8.3748 -17.9668
-11 -1 -4 -6.7769 21.2056
-11 -1 -1 19.7081 13.7383
-11 -1 2 -8.4209 -1.9691
-11 -1 5 21.2760 70.2233
-11 -1 8 -1.8652 -128.2417
-11 -1 11 11.5404 78.9122
-11 -1 14 -47.0045 -30.1566
-10 -10 -12 16.8922 9.3147
-10 -10 -9 -33.8400 -43.8208
-10 -10 -6 104.5211 102.8264
-10 -10 -3 52.5828 -68.0484
-10 -10 0 -32.6057 100.0408
-10 -9 -13 -0.4793 16.8510
-10 -9 -10 29.0573 -31.8571
-10 -9 -7 11.5435 46.3988
-10 -9 -4 15.4248 -25.9200
-10 -9 -1 -90.4685 117.1310
-10 -9 2 20.1795 46.9497
-10 -9 5 61.2852 -26.0839
-10 -9 8 -41.6423 20.9224
-10 -9 11 17.5869 47.2297
-10 -9 14 -18.5136 -9.1020
-10 -8 -14 63.4970 -19.9888
-10 -8 -11 -8.8763 -25.4969
-10 -8 -8 75.8379 -9.6785
-10 -8 -5 68.6494 11.1217
-10 -8 -2 -47.4911 3.1784
-10 -8 1 41.9830 -22.9433
-10 -8 4 46.9595 -0.7653
-10 -8 7 28.9505 -16.3932
-10 -8 10 43.7912 57.1443
-10 -8 13 -9.8993 2.3059
-10 -7 -15 37.4340 15.7510
-10 -7 -12 7.8062 -50.4604
-10 -7 -9 41.8535 52.9377
-10 -7 -6 21.8065 -4.4959
-10 -7 -3 -15.1024 -1.0731
-10 -7 0 -78.2669 5.7651
-10 -7 3 41.3141 -71.5124
-10 -7 6 -24.4710 -7.4034
-10 -7 9 -52.1807 88.3610
-10 -7 12 -20.6800 -11.0036
-10 -7 15 -40.7899 -2.5177
-10 -6 -13 -1.9930 -46.4536
-10 -6 -10 58.8961 21.6164
-10 -6 -7 27.3649 -68.2749
-10 -6 -4 -85.6272 129.0255
-10 -6 -1 -46.8443 -51.7242
-10 -6 2 -33.4522 -35.1619
-10 -6 5 42.9742 -63.1181
-10 -6 8 61.2979 42.5751
-10 -6 11 -25.1491 32.3407
-10 -6 14 -6.6640 39.5640
-10 -5 -14 36.3177 32.3117
-10 -5 -11 92.7329 22.8597
-10 -5 -8 21.8341 8.8421
-10 -5 -5 6.7160 -63.5492
-10 -5 -2 -31.5566 -45.2267
-10 -5 1 25.8392 23.3704
-10 -5 4 28.0501 59.4670
-10 -5 7 11.4442 118.9164
-10 -5 10 -8.6774 65.9706
-10 -5 13 -60.0585 3.2847
-10 -4 -15 -13.0475 19.8487
-10 -4 -12 0.4636 -71.4812
-10 -4 -9 7.7400 42.2650
-10 -4 -6 -16.9983 39.7117
-10 -4 -3 6.4586 84.8086
-10 -4 0 -6.9196 23.3455
-10 -4 3 -9.3228 -21.6995
-10 -4 6 -126.3964 108.3456
-10 -4 9 45.6844 -41.4986
-10 -4 12 2.5211 56.0942
-10 -4 15 2.2590 30.0519
-10 -3 -16 24.6876 -10.0415
-10 -3 -13 23.1638 3.3707
-10 -3 -10 20.8313 -26.8547
-10 -3 -7 14.3692 4.8702
-10 -3 -4 -43.7023 -59.8059
-10 -3 -1 -9.7366 10.1701
-10 -3 2 78.8015 7.8369
-10 -3 5 -69.8520 81.9295
-10 -3 8 91.3132 -15.3516
-10 -3 11 -40.4651 5.0125
-10 -3 14 -22.6163 10.9758
-10 -2 -14 -79.0470 -53.7960
-10 -2 -11 64.2833 8.9782
-10 -2 -8 -20.6709 -16.0904
-10 -2 -5 45.6526 50.8160
-10 -2 -2 -39.1132 40.6294
-10 -2 1 62.0738 14.1675
-10 -2 4 -106.6930 42.2952
-10 -2 7 -2.7370 -162.3649
-10 -2 10 -25.6032 -25.7708
-10 -2 13 7.3080 17.4529
-10 -2 16 -9.8784 6.2028
-10 -1 -15 6.4034 -58.7946
-10 -1 -12 58.7307 55.9622
-10 -1 -9 17.6342 -19.5874
-10 -1 -6 -45.6992 21.1386
-10 -1 -3 -22.0062 18.8658
-10 -1 0 19.9707 41.6487
-10 -1 3 42.9960 -29.1978
-10 -1 6 48.3367 -14.9609
-10 -1 9 17.0567 -131.2858
-10 -1 12 16.0290 19.1444
-10 -1 15 -33.5219 -14.7015
-9 -9 -12 -28.1243 1.9774
-9 -9 -9 -37.4030 80.0988
-9 -9 -6 31.4914 48.7060
-9 -9 -3 -17.4585 -14.6413
-9 -9 0 -16.8491 53.3877
-9 -8 -13 -3.2255 -16.0395
-9 -8 -10 -9.2215 81.0040
-9 -8 -7 -37.3232 10.3257
-9 -8 -4 -22.8530 -31.2855
-9 -8 -1 -57.4616 10.5808
-9 -8 2 -99.3638 -78.2024
-9 -8 5 -34.4904 -27.9501
-9 -8 8 -28.8042 -13.8988
-9 -8 11 75.7601 26.1739
-9 -8 14 -1.7048 -30.2606
-9 -7 -14 13.3078 8.0804
-9 -7 -11 3.0777 58.5857
-9 -7 -8 -12.6246 -46.9987
-9 -7 -5 -57.1519 -3.0767
-9 -7 -2 -35.7516 6.9945
-9 -7 1 -13.0068 -14.8319
-9 -7 4 -35.9903 -85.0552
-9 -7 7 41.8319 48.2615
-9 -7 10 -36.2557 -9.7336
-9 -7 13 3.9469 -7.4023
-9 -6 -15 13.4712 65.2997
-9 -6 -12 -0.8450 -62.4946
-9 -6 -9 -13.3322 72.2284
-9 -6 -6 -20.2250 -35.2445
-9 -6 -3 -6.8462 62.7914
-9 -6 0 -22.1917 -7.9799
-9 -6 3 -21.5091 -27.6038
-9 -6 6 15.0645 49.3437
-9 -6 9 -0.0590 -56.6235
-9 -6 12 11.1777 -25.9010
-9 -6 15 -30.4235 -22.7967
-9 -5 -16 -2.5834 24.8641
-9 -5 -13 -16.1538 10.8878
-9 -5 -10 -12.0572 -6.9413
-9 -5 -7 17.4441 -54.1612
-9 -5 -4 -32.0503 68.0918
-9 -5 -1 43.7469 -16.5741
-9 -5 2 -34.0228 -33.8374
-9 -5 5 14.1156 48.1891
-9 -5 8 99.5956 -79.7008
-9 -5 11 8.4292 136.4268
-9 -5 14 -7.3130 5.1358
-9 -4 -14 -17.1491 -15.3212
-9 -4 -11 57.2079 -34.7103
-9 -4 -8 29.2982 5.4658
-9 -4 -5 -55.6456 71.5718
-9 -4 -2 4.2642 11.5397
-9 -4 1 10.7812 74.5737
-9 -4 4 53.4306 48.5822
-9 -4 7 -46.4272 -27.5622
-9 -4 10 -30.4655 61.9159
-9 -4 13 2.9994 27.5106
-9 -4 16 7.4920 23.1635
-9 -3 -15 8.5943 -29.9219
-9 -3 -12 44.6262 23.0933
-9 -3 -9 -16.6885 -1.9031
-9 -3 -6 -23.1198 108.6915
-9 -3 -3 -11.0744 4.5528
-9 -3 0 94.4107 4.7051
-9 -3 3 -25.3606 37.5417
-9 -3 6 -71.7086 -72.9830
-9 -3 9 -2.4871 99.1264
-9 -3 12 -14.6338 -3.3329
-9 -3 15 28.7321 24.7095
-9 -2 -16 -10.8436 -18.2597
-9 -2 -13 -43.3052 27.7189
-9 -2 -10 32.1815 -10.8115
-9 -2 -7 -0.8865 50.0654
-9 -2 -4 -14.1857 -30.5303
-9 -2 -1 -47.4790 13.7349
-9 -2 2 -74.2897 5.7442
-9 -2 5 26.5235 64.5051
-9 -2 8 -36.3608 -86.2520
-9 -2 11 29.5492 38.7802
-9 -2 14 48.3623 -30.3555
-9 -2 17 -25.8813 -10.5462
-9 -1 -17 -21.8486 10.1023
-9 -1 -14 17.1399 -40.7725
-9 -1 -11 68.4145 59.2650
-9 -1 -8 -37.6449 -22.6521
-9 -1 -5 -2.5894 31.1866
-9 -1 -2 -104.3725 15.9949
-9 -1 1 -2.6286 32.5175
-9 -1 4 -78.0509 2.8932
-9 -1 7 16.3781 -28.9606
-9 -1 10 -19.4865 -29.3602
-9 -1 13 77.6838 -31.5426
-9 -1 16 -40.4520 4.6066
-8 -8 -15 7.9811 4.4421
-8 -8 -12 61.6576 -39.2944
-8 -8 -9 -32.3597 -57.0222
-8 -8 -6 31.7804 118.1186
-8 -8 -3 -85.4565 -29.5336
-8 -8 0 52.4456 -57.4888
-8 -7 -13 28.0565 -6.3039
-8 -7 -10 19.0940 -62.4169
-8 -7 -7 -22.2713 -32.4044
-8 -7 -4 -81.6465 -86.0701
-8 -7 -1 -6.5594 -22.4044
-8 -7 2 -43.4938 35.5967
-8 -7 5 -38.4888 -22.7974
-8 -7 8 -9.5605 -6.9201
-8 -7 11 28.2778 63.4521
-8 -7 14 -49.8561 -1.2771
-8 -6 -14 21.7067 2.8082
-8 -6 -11 30.9536 -63.1159
-8 -6 -8 36.6532 -43.2749
-8 -6 -5 -27.6079 21.4532
-8 -6 -2 -34.2844 50.5280
-8 -6 1 -39.8287 20.4892
-8 -6 4 -24.4516 48.3152
-8 -6 7 59.8764 1.7359
-8 -6 10 40.8792 39.1529
-8 -6 13 -38.6778 25.2171
-8 -6 16 11.3399 -20.4371
-8 -5 -15 37.0745 -14.3032
-8 -5 -12 34.9274 -64.1902
-8 -5 -9 -10.2522 -4.4777
-8 -5 -6 -25.1670 16.8309
-8 -5 -3 71.2264 -44.3753
-8 -5 0 42.2034 44.4773
-8 -5 3 72.2013 -29.3542
-8 -5 6 -56.8460 14.8276
-8 -5 9 76.3106 89.8595
-8 -5 12 -59.0435 40.6306
-8 -5 15 -21.2486 30.1857
-8 -4 -16 45.4331 9.6821
-8 -4 -13 -31.2970 -32.7086
-8 -4 -10 -13.7895 1.2873
-8 -4 -7 41.7543 -48.5104
-8 -4 -4 -18.9376 34.7296
-8 -4 -1 -36.3579 27.2616
-8 -4 2 -109.7572 -13.6246
-8 -4 5 -42.6708 -41.1292
-8 -4 8 19.7509 8.4213
-8 -4 11 -50.3419 20.1704
-8 -4 14 58.8143 66.1713
-8 -3 -17 35.6013 -28.3563
-8 -3 -14 -4.7389 -43.0702
-8 -3 -11 63.2106 59.4004
-8 -3 -8 -37.1794 -82.8178
-8 -3 -5 -26.0513 1.7832
-8 -3 -2 -150.5093 9.7828
-8 -3 1 21.5804 32.3594
-8 -3 4 -13.7222 -28.1257
-8 -3 7 6.4258 -67.1945
-8 -3 10 -34.5887 32.2343
-8 -3 13 19.9603 -15.8660
-8 -3 16 -54.5581 25.5687
-8 -2 -15 -29.7472 -35.3865
-8 -2 -12 -42.6141 95.7285
-8 -2 -9 -1.3094 -0.3633
-8 -2 -6 75.5829 61.3587
-8 -2 -3 16.6425 55.9378
-8 -2 0 27.6369 -5.3326
-8 -2 3 -56.5674 -60.7503
-8 -2 6 -93.4324 -13.4756
-8 -2 9 20.8106 -48.9416
-8 -2 12 44.2092 -32.3853
-8 -2 15 5.4043 3.4919
-8 -1 -16 -43.3227 -2.5455
-8 -1 -13 58.4554 40.2613
-8 -1 -10 -51.4782 -16.7193
-8 -1 -7 34.3869 -38.0222
-8 -1 -4 -153.6913 -9.7921
-8 -1 -1 -1.3990 48.4121
-8 -1 2 -58.3616 43.6858
-8 -1 5 -32.9098 37.5941
-8 -1 8 14.8209 -17.5311
-8 -1 11 5.8295 -54.7407
-8 -1 14 19.4292 -26.0869
-8 -1 17 -44.8549 -14.0791
-7 -7 -15 2.0550 -22.9646
-7 -7 -12 6.2635 -13.3628
-7 -7 -9 -3.1706 -10.6696
-7 -7 -6 7.8683 39.4677
-7 -7 -3 13.5830 21.0121
-7 -7 0 82.4004 -21.6321
-7 -6 -16 -6.2883 19.4723
-7 -6 -13 -28.0322 6.1503
-7 -6 -10 17.5539 52.5214
-7 -6 -7 -6.3380 37.7290
-7 -6 -4 -12.5116 -101.1009
-7 -6 -1 34.5588 17.4663
-7 -6 2 -21.7719 -46.5923
-7 -6 5 9.4820 -38.8740
-7 -6 8 -18.9983 -53.3975
-7 -6 11 48.6107 74.6475
-7 -6 14 4.0650 -14.2708
-7 -5 -17 8.5030 9.2784
-7 -5 -14 26.6569 -51.2255
-7 -5 -11 32.3237 52.2894
-7 -5 -8 -19.8914 -111.0171
-7 -5 -5 -14.9064 55.2906
-7 -5 -2 47.7498 28.6861
-7 -5 1 35.8235 85.9631
-7 -5 4 24.1760 -9.1946
-7 -5 7 9.8928 15.0644
-7 -5 10 1.6612 16.8887
-7 -5 13 41.8150 17.5241
-7 -5 16 -17.7422 8.3574
-7 -4 -15 -12.5391 28.7400
-7 -4 -12 -8.4810 0.9637
-7 -4 -9 -26.7315 72.0910
-7 -4 -6 15.6253 7.0648
-7 -4 -3 -11.7093 -60.5796
-7 -4 0 19.9057 -10.4579
-7 -4 3 51.4001 -26.8427
-7 -4 6 -32.6136 -4.8458
-7 -4 9 -34.1430 38.7731
-7 -4 12 -40.5544 -38.0412
-7 -4 15 -11.0294 24.2916
-7 -3 -16 40.3130 -1.9922
-7 -3 -13 26.6375 50.3785
-7 -3 -10 -28.9977 27.9471
-7 -3 -7 38.7051 -56.8260
-7 -3 -4 -54.2378 11.8986
-7 -3 -1 37.4692 13.0261
-7 -3 2 -162.6017 -13.6007
-7 -3 5 -46.7524 65.1787
-7 -3 8 -11.9156 -56.0948
-7 -3 11 -45.4964 -21.8142
-7 -3 14 50.9271 -21.6365
-7 -3 17 -27.0764 -1.4321
-7 -2 -17 -9.6947 -6.8058
-7 -2 -14 -20.3717 11.1672
-7 -2 -11 -86.6715 35.8884
-7 -2 -8 -8.8630 -25.6151
-7 -2 -5 46.3435 -35.4582
-7 -2 -2 -46.6207 19.6902
-7 -2 1 -75.2777 51.9794
-7 -2 4 169.7477 -17.0842
-7 -2 7 -71.0334 -33.5748
-7 -2 10 -11.2356 -41.3611
-7 -2 13 39.5783 -36.7400
-7 -2 16 33.9423 12.4119
-7 -1 -15 13.2839 -9.5981
-7 -1 -12 44.7834 53.9330
-7 -1 -9 -0.0669 14.7031
-7 -1 -6 30.2231 -60.3114
-7 -1 -3 -41.4093 36.9109
-7 -1 0 61.2091 -64.9437
-7 -1 3 58.9977 -27.9340
-7 -1 6 -9.9756 14.6654
-7 -1 9 -36.5107 35.5166
-7 -1 12 23.9614 -36.8118
-7 -1 15 37.9124 -7.1404
-6 -6 -15 6.9470 -7.9770
-6 -6 -12 -9.0362 -10.2465
-6 -6 -9 32.1402 7.3770
-6 -6 -6 24.0632 76.6832
-6 -6 -3 35.1992 -52.4836
-6 -6 0 -86.9024 -2.3053
-6 -5 -16 34.8724 33.1168
-6 -5 -13 -7.9727 -3.6687
-6 -5 -10 -21.3186 1.6625
-6 -5 -7 -46.5966 -126.9734
-6 -5 -4 -15.9672 -142.0514
-6 -5 -1 -14.4385 10.3589
-6 -5 2 -44.1915 -52.5530
-6 -5 5 24.2610 -20.2726
-6 -5 8 4.9254 24.3579
-6 -5 11 -35.9767 -13.8254
-6 -5 14 -12.9957 27.2037
-6 -5 17 -13.9175 13.7161
-6 -4 -17 44.1427 -17.9655
-6 -4 -14 -21.9802 34.4114
-6 -4 -11 -10.4197 -17.5973
-6 -4 -8 -11.1729 -43.4747
-6 -4 -5 118.2161 -57.1561
-6 -4 -2 -133.9235 96.1926
-6 -4 1 -245.4578 -0.0043
-6 -4 4 46.6586 -5.2882
-6 -4 7 14.1864 -55.2998
-6 -4 10 1.9847 -61.6072
-6 -4 13 -11.3934 -0.7026
-6 -4 16 35.7190 13.0932
-6 -3 -15 -9.3844 -9.0784
-6 -3 -12 -38.6450 13.3446
-6 -3 -9 19.7176 -17.3243
-6 -3 -6 10.7905 -59.3185
-6 -3 -3 -29.0198 129.1308
-6 -3 0 24.9750 -72.8338
-6 -3 3 39.6319 -37.2678
-6 -3 6 -63.2909 -7.7124
-6 -3 9 39.8772 -6.4241
-6 -3 12 -14.9943 -50.5041
-6 -3 15 -27.9342 3.2253
-6 -2 -16 45.5224 -2.0184
-6 -2 -13 34.1762 46.4135
-6 -2 -10 -94.5276 18.7579
-6 -2 -7 47.4036 -38.4089
-6 -2 -4 2.1498 72.3160
-6 -2 -1 -96.4400 26.2263
-6 -2 2 -85.9408 82.2093
-6 -2 5 14.2790 19.9216
-6 -2 8 -18.2378 35.7449
-6 -2 11 38.7116 -51.5869
-6 -2 14 -0.4454 3.9394
-6 -2 17 -0.1624 -15.3100
-6 -1 -17 -7.5078 -9.6706
-6 -1 -14 52.0865 1.7351
-6 -1 -11 -32.5742 33.9435
-6 -1 -8 -61.5870 31.2974
-6 -1 -5 -45.8018 -33.5929
-6 -1 -2 34.4573 67.1158
-6 -1 1 -52.3695 48.9113
-6 -1 4 128.8447 -13.4009
-6 -1 7 -61.2233 63.0180
-6 -1 10 -5.1191 -52.8975
-6 -1 13 7.5636 -2.2969
-6 -1 16 -19.5402 -21.9888
-5 -5 -15 14.8171 5.7571
-5 -5 -12 6.4500 -35.0815
-5 -5 -9 28.3795 33.1916
-5 -5 -6 41.7811 -28.3682
-5 -5 -3 -5.5147 65.7233
-5 -5 0 74.0115 -112.1642
-5 -4 -16 -0.1881 -3.1107
-5 -4 -13 -32.6483 28.6631
-5 -4 -10 -4.5020 -24.9520
-5 -4 -7 22.9918 -31.8071
-5 -4 -4 11.2339 -113.3607
-5 -4 -1 -3.9152 -102.6402
-5 -4 2 -119.4787 26.0827
-5 -4 5 43.4400 -63.5928
-5 -4 8 -31.5769 -27.2033
-5 -4 11 1.0787 -15.0895
-5 -4 14 -54.5815 -0.6277
-5 -4 17 12.5840 -27.3578
-5 -3 -17 -3.3814 -43.5695
-5 -3 -14 31.2522 -15.2990
-5 -3 -11 -19.6376 20.7652
-5 -3 -8 0.8589 -77.6830
-5 -3 -5 -59.3016 -81.4318
-5 -3 -2 63.4458 85.1539
-5 -3 1 30.7990 -10.8793
-5 -3 4 43.4488 -12.2242
-5 -3 7 -67.1385 7.6159
-5 -3 10 -5.3779 -30.0356
-5 -3 13 8.3924 -33.8976
-5 -3 16 6.7195 -23.1086
-5 -2 -18 -12.6882 -23.0818
-5 -2 -15 -14.1227 -24.5283
-5 -2 -12 40.5256 -1.6492
-5 -2 -9 -16.1763 12.7867
-5 -2 -6 -10.6672 -147.0050
-5 -2 -3 97.6810 72.8587
-5 -2 0 147.3763 -58.1618
-5 -2 3 267.1275 47.5003
-5 -2 6 -58.3931 56.4747
-5 -2 9 54.7394 -4.4919
-5 -2 12 16.4360 17.3243
-5 -2 15 16.9633 -16.7926
-5 -2 18 12.3265 17.9203
-5 -1 -16 35.9919 -63.9811
-5 -1 -13 62.0811 -40.9449
-5 -1 -10 0.1887 -0.1294
-5 -1 -7 -102.3922 -33.6753
-5 -1 -4 40.1805 -30.7072
-5 -1 -1 136.2060 0.1266
-5 -1 2 51.4607 -26.3039
-5 -1 5 -42.7429 -31.1514
-5 -1 8 -105.5146 61.9737
-5 -1 11 -22.7554 13.0336
-5 -1 14 12.2189 -19.4430
-5 -1 17 -37.7116 11.8944
-4 -4 -15 -33.0735 -1.7685
-4 -4 -12 -1.1165 38.1980
-4 -4 -9 104.9952 -15.8700
-4 -4 -6 -54.0474 -17.3888
-4 -4 -3 -18.9030 191.0028
-4 -4 0 64.1874 -57.6296
-4 -3 -16 6.3346 -6.2226
-4 -3 -13 6.2516 2.5632
-4 -3 -10 -5.3351 31.6487
-4 -3 -7 -13.0598 -106.7163
-4 -3 -4 -86.4401 88.7191
-4 -3 -1 208.3060 3.5500
-4 -3 2 40.1716 19.3298
-4 -3 5 -136.9522 -34.5356
-4 -3 8 16.6197 -60.9233
-4 -3 11 9.9821 54.8141
-4 -3 14 -65.7925 -52.7753
-4 -3 17 -51.6709 -40.0960
-4 -2 -17 -40.1339 -38.0357
-4 -2 -14 19.8213 1.9898
-4 -2 -11 2.6300 40.6457
-4 -2 -8 -41.4557 42.1789
-4 -2 -5 -155.2724 15.5139
-4 -2 -2 44.5182 130.3599
-4 -2 1 -153.3076 107.1114
-4 -2 4 -118.6628 66.3611
-4 -2 7 62.8747 78.5183
-4 -2 10 1.1945 43.5427
-4 -2 13 -12.1354 -4.6243
-4 -2 16 10.6102 7.6416
-4 -1 -18 26.9315 22.1321
-4 -1 -15 50.0188 17.4705
-4 -1 -12 -36.5381 0.3122
-4 -1 -9 81.5693 30.2539
-4 -1 -6 -52.1939 47.3384
-4 -1 -3 119.0776 34.9216
-4 -1 3 54.5723 -22.8669
-4 -1 6 1.4007 11.0510
-4 -1 9 -51.3117 -14.8742
-4 -1 12 36.6554 -5.9574
-4 -1 15 -27.9366 -11.2177
-4 -1 18 12.1919 -16.6126
-3 -3 -18 -18.4652 -20.1971
-3 -3 -15 -11.4240 -53.0299
-3 -3 -12 41.6966 31.7603
-3 -3 -9 -15.4063 -2.1019
-3 -3 -6 -62.4072 -96.4660
-3 -3 -3 -3.6136 57.4585
-3 -3 0 479.2790 15.3470
-3 -2 -16 -51.0605 -43.6426
-3 -2 -13 20.1208 -24.9708
-3 -2 -10 28.2998 -38.4061
-3 -2 -7 52.4870 -17.4427
-3 -2 -4 -50.8151 -26.4554
-3 -2 2 25.5935 -0.8417
-3 -2 5 -67.6534 -2.8555
-3 -2 8 -29.8688 39.6955
-3 -2 11 27.1629 90.2163
-3 -2 14 4.0569 -16.7781
-3 -2 17 -8.6412 0.2502
-3 -1 -17 -9.6319 -61.7694
-3 -1 -14 7.5537 -21.7604
-3 -1 -11 -19.4281 -65.5025
-3 -1 -8 -63.4639 -8.8798
-3 -1 -5 -6.5127 0.8983
-3 -1 4 147.1914 -78.7223
-3 -1 7 -63.8041 29.5955
-3 -1 10 -43.3577 61.7302
-3 -1 13 41.8489 -57.0115
-3 -1 16 -37.2036 -3.2107
-2 -2 -18 59.0539 -21.2405
-2 -2 -15 -23.7264 24.0006
-2 -2 -12 -31.1183 5.8964
-2 -2 -9 97.8692 24.1598
-2 -2 -6 -57.0770 69.2780
-2 -2 -3 -217.2880 -3.7576
-2 -1 -16 34.4286 31.7679
-2 -1 -13 -26.1809 26.2640
-2 -1 -10 32.3717 12.6803
-2 -1 -7 -6.7595 -12.7787
-2 -1 -4 122.1712 9.8941
-2 -1 5 72.1697 13.5109
-2 -1 8 -22.8533 -64.4488
-2 -1 11 6.2301 15.5185
-2 -1 14 -29.9514 -2.2271
-2 -1 17 -5.3399 -18.4825
-1 -1 -18 31.4878 -26.3539
-1 -1 -15 2.5407 -10.3924
-1 -1 -12 16.7518 -10.0399
-1 -1 -9 73.2628 -2.1661
-1 -1 -6 -27.0257 -3.9710
0 0 12 86.3663 0.0000
0 0 15 -29.4664 0.0000
0 0 18 5.6258 0.0000
1 0 -17 -0.4670 0.0000
1 0 -14 -28.1160 0.0000
1 0 -11 47.2769 -0.0000
1 0 -8 -14.9636 0.0000
1 0 -5 -211.9898 -0.0000
1 0 7 -33.2626 -0.0000
1 0 10 27.1428 0.0000
1 0 13 47.3106 0.0000
1 0 16 2.5757 0.0000
1 1 6 -27.0257 3.9710
1 1 9 73.2628 2.1661
1 1 12 16.7518 10.0399
1 1 15 2.5407 10.3924
1 1 18 31.4878 26.3539
2 0 -16 17.0572 0.0000
2 0 -13 -8.6620 0.0000
2 0 -10 50.3439 0.0000
2 0 -7 61.7142 0.0000
2 0 -4 -89.1723 0.0000
2 0 5 -68.9625 0.0000
2 0 8 27.1755 0.0000
2 0 11 -37.1908 0.0000
2 0 14 -9.3163 0.0000
2 0 17 -35.9475 0.0000
2 1 -17 -5.3399 18.4825
2 1 -14 -29.9514 2.2271
2 1 -11 6.2301 -15.5185
2 1 -8 -22.8533 64.4488
2 1 -5 72.1697 -13.5109
2 1 4 122.1712 -9.8941
2 1 7 -6.7595 12.7787
2 1 10 32.3717 -12.6803
2 1 13 -26.1809 -26.2640
2 1 16 34.4286 -31.7679
2 2 3 -217.2880 3.7576
2 2 6 -57.0770 -69.2780
2 2 9 97.8692 -24.1598
2 2 12 -31.1183 -5.8964
2 2 15 -23.7264 -24.0006
2 2 18 59.0539 21.2405
3 0 -18 79.2073 0.0000
3 0 -15 15.2081 0.0000
3 0 -12 7.8549 0.0000
3 0 -9 92.4240 0.0000
3 0 -6 -24.6067 0.0000
3 0 6 187.6514 -0.0000
3 0 9 73.5647 0.0000
3 0 12 -27.6855 0.0000
3 0 15 17.1118 0.0000
3 0 18 45.4475 0.0000
3 1 -16 -37.2036 3.2107
3 1 -13 41.8489 57.0115
3 1 -10 -43.3577 -61.7302
3 1 -7 -63.8041 -29.5955
3 1 -4 147.1914 78.7223
3 1 5 -6.5127 -0.8983
3 1 8 -63.4639 8.8798
3 1 11 -19.4281 65.5025
3 1 14 7.5537 21.7604
3 1 17 -9.6319 61.7694
3 2 -17 -8.6412 -0.2502
3 2 -14 4.0569 16.7781
3 2 -11 27.1629 -90.2163
3 2 -8 -29.8688 -39.6955
3 2 -5 -67.6534 2.8555
3 2 -2 25.5935 0.8417
3 2 4 -50.8151 26.4554
3 2 7 52.4870 17.4427
3 2 10 28.2998 38.4061
3 2 13 20.1208 24.9708
3 2 16 -51.0605 43.6426
3 3 3 -3.6136 -57.4585
3 3 6 -62.4072 96.4660
3 3 9 -15.4063 2.1019
3 3 12 41.6966 -31.7603
3 3 15 -11.4240 53.0299
3 3 18 -18.4652 20.1971
4 0 -17 -12.6185 0.0000
4 0 -14 13.1729 0.0000
4 0 -11 -34.9800 -0.0000
4 0 -8 -56.9550 0.0000
4 0 -5 26.0741 0.0000
4 0 4 -112.7869 0.0000
4 0 7 19.3425 0.0000
4 0 10 55.2351 -0.0000
4 0 13 -45.2016 0.0000
4 0 16 54.3514 -0.0000
4 1 -18 12.1919 16.6126
4 1 -15 -27.9366 11.2177
4 1 -12 36.6554 5.9574
4 1 -9 -51.3117 14.8742
4 1 -6 1.4007 -11.0510
4 1 -3 54.5723 22.8669
4 1 3 119.0776 -34.9216
4 1 6 -52.1939 -47.3384
4 1 9 81.5693 -30.2539
4 1 12 -36.5381 -0.3122
4 1 15 50.0188 -17.4705
4 1 18 26.9315 -22.1321
4 2 -16 10.6102 -7.6416
4 2 -13 -12.1354 4.6243
4 2 -10 1.1945 -43.5427
4 2 -7 62.8747 -78.5183
4 2 -4 -118.6628 -66.3611
4 2 -1 -153.3076 -107.1114
4 2 2 44.5182 -130.3599
4 2 5 -155.2724 -15.5139
4 2 8 -41.4557 -42.1789
4 2 11 2.6300 -40.6457
4 2 14 19.8213 -1.9898
4 2 17 -40.1339 38.0357
4 3 -17 -51.6709 40.0960
4 3 -14 -65.7925 52.7753
4 3 -11 9.9821 -54.8141
4 3 -8 16.6197 60.9233
4 3 -5 -136.9522 34.5356
4 3 -2 40.1716 -19.3298
4 3 1 208.3060 -3.5500
4 3 4 -86.4401 -88.7191
4 3 7 -13.0598 106.7163
4 3 10 -5.3351 -31.6487
4 3 13 6.2516 -2.5632
4 3 16 6.3346 6.2226
4 4 0 64.1874 57.6296
4 4 3 -18.9030 -191.0028
4 4 6 -54.0474 17.3888
4 4 9 104.9952 15.8700
4 4 12 -1.1165 -38.1980
4 4 15 -33.0735 1.7685
5 0 -16 57.6359 -0.0000
5 0 -13 54.4089 -0.0000
5 0 -10 17.6010 0.0000
5 0 -7 -78.9163 0.0000
5 0 -4 277.9874 0.0000
5 0 2 117.1153 0.0000
5 0 5 38.1981 0.0000
5 0 8 -67.9133 -0.0000
5 0 11 -4.4892 0.0000
5 0 14 24.0999 0.0000
5 0 17 0.4040 -0.0000
5 1 -17 -37.7116 -11.8944
5 1 -14 12.2189 19.4430
5 1 -11 -22.7554 -13.0336
5 1 -8 -105.5146 -61.9737
5 1 -5 -42.7429 31.1514
5 1 -2 51.4607 26.3039
5 1 1 136.2060 -0.1266
5 1 4 40.1805 30.7072
5 1 7 -102.3922 33.6753
5 1 10 0.1887 0.1294
5 1 13 62.0811 40.9449
5 1 16 35.9919 63.9811
5 2 -18 12.3265 -17.9203
5 2 -15 16.9633 16.7926
5 2 -12 16.4360 -17.3243
5 2 -9 54.7394 4.4919
5 2 -6 -58.3931 -56.4747
5 2 -3 267.1275 -47.5003
5 2 0 147.3763 58.1618
5 2 3 97.6810 -72.8587
5 2 6 -10.6672 147.0050
5 2 9 -16.1763 -12.7867
5 2 12 40.5256 1.6492
5 2 15 -14.1227 24.5283
5 2 18 -12.6882 23.0818
5 3 -16 6.7195 23.1086
5 3 -13 8.3924 33.8976
5 3 -10 -5.3779 30.0356
5 3 -7 -67.1385 -7.6159
5 3 -4 43.4488 12.2242
5 3 -1 30.7990 10.8793
5 3 2 63.4458 -85.1539
5 3 5 -59.3016 81.4318
5 3 8 0.8589 77.6830
5 3 11 -19.6376 -20.7652
5 3 14 31.2522 15.2990
5 3 17 -3.3814 43.5695
5 4 -17 12.5840 27.3578
5 4 -14 -54.5815 0.6277
5 4 -11 1.0787 15.0895
5 4 -8 -31.5769 27.2033
5 4 -5 43.4400 63.5928
5 4 -2 -119.4787 -26.0827
5 4 1 -3.9152 102.6402
5 4 4 11.2339 113.3607
5 4 7 22.9918 31.8071
5 4 10 -4.5020 24.9520
5 4 13 -32.6483 -28.6631
5 4 16 -0.1881 3.1107
5 5 0 74.0115 112.1642
5 5 3 -5.5147 -65.7233
5 5 6 41.7811 28.3682
5 5 9 28.3795 -33.1916
5 5 12 6.4500 35.0815
5 5 15 14.8171 -5.7571
6 0 -18 31.8852 0.0000
6 0 -15 25.6156 0.0000
6 0 -12 5.4311 -0.0000
6 0 -9 74.4726 0.0000
6 0 -6 -54.3993 0.0000
6 0 -3 114.4446 0.0000
6 0 0 -28.1013 0.0000
6 0 3 102.2149 0.0000
6 0 6 -110.9636 0.0000
6 0 9 32.7260 0.0000
6 0 12 -16.6571 0.0000
6 0 15 43.3192 -0.0000
6 0 18 34.0769 0.0000
6 1 -16 -19.5402 21.9888
6 1 -13 7.5636 2.2969
6 1 -10 -5.1191 52.8975
6 1 -7 -61.2233 -63.0180
6 1 -4 128.8447 13.4009
6 1 -1 -52.3695 -48.9113
6 1 2 34.4573 -67.1158
6 1 5 -45.8018 33.5929
6 1 8 -61.5870 -31.2974
6 1 11 -32.5742 -33.9435
6 1 14 52.0865 -1.7351
6 1 17 -7.5078 9.6706
6 2 -17 -0.1624 15.3100
6 2 -14 -0.4454 -3.9394
6 2 -11 38.7116 51.5869
6 2 -8 -18.2378 -35.7449
6 2 -5 14.2790 -19.9216
6 2 -2 -85.9408 -82.2093
6 2 1 -96.4400 -26.2263
6 2 4 2.1498 -72.3160
6 2 7 47.4036 38.4089
6 2 10 -94.5276 -18.7579
6 2 13 34.1762 -46.4135
6 2 16 45.5224 2.0184
6 3 -15 -27.9342 -3.2253
6 3 -12 -14.9943 50.5041
6 3 -9 39.8772 6.4241
6 3 -6 -63.2909 7.7124
6 3 -3 39.6319 37.2678
6 3 0 24.9750 72.8338
6 3 3 -29.0198 -129.1308
6 3 6 10.7905 59.3185
6 3 9 19.7176 17.3243
6 3 12 -38.6450 -13.3446
6 3 15 -9.3844 9.0784
6 4 -16 35.7190 -13.0932
6 4 -13 -11.3934 0.7026
6 4 -10 1.9847 61.6072
6 4 -7 14.1864 55.2998
6 4 -4 46.6586 5.2882
6 4 -1 -245.4578 0.0043
6 4 2 -133.9235 -96.1926
6 4 5 118.2161 57.1561
6 4 8 -11.1729 43.4747
6 4 11 -10.4197 17.5973
6 4 14 -21.9802 -34.4114
6 4 17 44.1427 17.9655
6 5 -17 -13.9175 -13.7161
6 5 -14 -12.9957 -27.2037
6 5 -11 -35.9767 13.8254
6 5 -8 4.9254 -24.3579
6 5 -5 24.2610 20.2726
6 5 -2 -44.1915 52.5530
6 5 1 -14.4385 -10.3589
6 5 4 -15.9672 142.0514
6 5 7 -46.5966 126.9734
6 5 10 -21.3186 -1.6625
6 5 13 -7.9727 3.6687
6 5 16 34.8724 -33.1168
6 6 0 -86.9024 2.3053
6 6 3 35.1992 52.4836
6 6 6 24.0632 -76.6832
6 6 9 32.1402 -7.3770
6 6 12 -9.0362 10.2465
6 6 15 6.9470 7.9770
7 0 -17 -0.2302 0.0000
7 0 -14 66.1537 0.0000
7 0 -11 80.5134 0.0000
7 0 -8 -51.7444 0.0000
7 0 -5 187.7186 -0.0000
7 0 -2 87.3446 0.0000
7 0 1 -7.1600 0.0000
7 0 4 53.7123 0.0000
7 0 7 -10.3562 -0.0000
7 0 10 -77.1245 -0.0000
7 0 13 44.2978 -0.0000
7 0 16 -23.5850 0.0000
7 1 -15 37.9124 7.1404
7 1 -12 23.9614 36.8118
7 1 -9 -36.5107 -35.5166
7 1 -6 -9.9756 -14.6654
7 1 -3 58.9977 27.9340
7 1 0 61.2091 64.9437
7 1 3 -41.4093 -36.9109
7 1 6 30.2231 60.3114
7 1 9 -0.0669 -14.7031
7 1 12 44.7834 -53.9330
7 1 15 13.2839 9.5981
7 2 -16 33.9423 -12.4119
7 2 -13 39.5783 36.7400
7 2 -10 -11.2356 41.3611
7 2 -7 -71.0334 33.5748
7 2 -4 169.7477 17.0842
7 2 -1 -75.2777 -51.9794
7 2 2 -46.6207 -19.6902
7 2 5 46.3435 35.4582
7 2 8 -8.8630 25.6151
7 2 11 -86.6715 -35.8884
7 2 14 -20.3717 -11.1672
7 2 17 -9.6947 6.8058
7 3 -17 -27.0764 1.4321
7 3 -14 50.9271 21.6365
7 3 -11 -45.4964 21.8142
7 3 -8 -11.9156 56.0948
7 3 -5 -46.7524 -65.1787
7 3 -2 -162.6017 13.6007
7 3 1 37.4692 -13.0261
7 3 4 -54.2378 -11.8986
7 3 7 38.7051 56.8260
7 3 10 -28.9977 -27.9471
7 3 13 26.6375 -50.3785
7 3 16 40.3130 1.9922
7 4 -15 -11.0294 -24.2916
7 4 -12 -40.5544 38.0412
7 4 -9 -34.1430 -38.7731
7 4 -6 -32.6136 4.8458
7 4 -3 51.4001 26.8427
7 4 0 19.9057 10.4579
7 4 3 -11.7093 60.5796
7 4 6 15.6253 -7.0648
7 4 9 -26.7315 -72.0910
7 4 12 -8.4810 -0.9637
7 4 15 -12.5391 -28.7400
7 5 -16 -17.7422 -8.3574
7 5 -13 41.8150 -17.5241
7 5 -10 1.6612 -16.8887
7 5 -7 9.8928 -15.0644
7 5 -4 24.1760 9.1946
7 5 -1 35.8235 -85.9631
7 5 2 47.7498 -28.6861
7 5 5 -14.9064 -55.2906
7 5 8 -19.8914 111.0171
7 5 11 32.3237 -52.2894
7 5 14 26.6569 51.2255
7 5 17 8.5030 -9.2784
7 6 -14 4.0650 14.2708
7 6 -11 48.6107 -74.6475
7 6 -8 -18.9983 53.3975
7 6 -5 9.4820 38.8740
7 6 -2 -21.7719 46.5923
7 6 1 34.5588 -17.4663
7 6 4 -12.5116 101.1009
7 6 7 -6.3380 -37.7290
7 6 10 17.5539 -52.5214
7 6 13 -28.0322 -6.1503
7 6 16 -6.2883 -19.4723
7 7 0 82.4004 21.6321
7 7 3 13.5830 -21.0121
7 7 6 7.8683 -39.4677
7 7 9 -3.1706 10.6696
7 7 12 6.2635 13.3628
7 7 15 2.0550 22.9646
8 0 -16 27.0762 0.0000
8 0 -13 35.9854 0.0000
8 0 -10 8.1360 0.0000
8 0 -7 70.5721 0.0000
8 0 -4 16.2566 0.0000
8 0 -1 -87.2416 0.0000
8 0 2 -59.9481 0.0000
8 0 5 127.8084 0.0000
8 0 8 -58.8035 0.0000
8 0 11 -16.9268 0.0000
8 0 14 -0.0459 0.0000
8 0 17 -48.7695 -0.0000
8 1 -17 -44.8549 14.0791
8 1 -14 19.4292 26.0869
8 1 -11 5.8295 54.7407
8 1 -8 14.8209 17.5311
8 1 -5 -32.9098 -37.5941
8 1 -2 -58.3616 -43.6858
8 1 1 -1.3990 -48.4121
8 1 4 -153.6913 9.7921
8 1 7 34.3869 38.0222
8 1 10 -51.4782 16.7193
8 1 13 58.4554 -40.2613
8 1 16 -43.3227 2.5455
8 2 -15 5.4043 -3.4919
8 2 -12 44.2092 32.3853
8 2 -9 20.8106 48.9416
8 2 -6 -93.4324 13.4756
8 2 -3 -56.5674 60.7503
8 2 0 27.6369 5.3326
8 2 3 16.6425 -55.9378
8 2 6 75.5829 -61.3587
8 2 9 -1.3094 0.3633
8 2 12 -42.6141 -95.7285
8 2 15 -29.7472 35.3865
8 3 -16 -54.5581 -25.5687
8 3 -13 19.9603 15.8660
8 3 -10 -34.5887 -32.2343
8 3 -7 6.4258 67.1945
8 3 -4 -13.7222 28.1257
8 3 -1 21.5804 -32.3594
8 3 2 -150.5093 -9.7828
8 3 5 -26.0513 -1.7832
8 3 8 -37.1794 82.8178
8 3 11 63.2106 -59.4004
8 3 14 -4.7389 43.0702
8 3 17 35.6013 28.3563
8 4 -14 58.8143 -66.1713
8 4 -11 -50.3419 -20.1704
8 4 -8 19.7509 -8.4213
8 4 -5 -42.6708 41.1292
8 4 -2 -109.7572 13.6246
8 4 1 -36.3579 -27.2616
8 4 4 -18.9376 -34.7296
8 4 7 41.7543 48.5104
8 4 10 -13.7895 -1.2873
8 4 13 -31.2970 32.7086
8 4 16 45.4331 -9.6821
8 5 -15 -21.2486 -30.1857
8 5 -12 -59.0435 -40.6306
8 5 -9 76.3106 -89.8595
8 5 -6 -56.8460 -14.8276
8 5 -3 72.2013 29.3542
8 5 0 42.2034 -44.4773
8 5 3 71.2264 44.3753
8 5 6 -25.1670 -16.8309
8 5 9 -10.2522 4.4777
8 5 12 34.9274 64.1902
8 5 15 37.0745 14.3032
8 6 -16 11.3399 20.4371
8 6 -13 -38.6778 -25.2171
8 6 -10 40.8792 -39.1529
8 6 -7 59.8764 -1.7359
8 6 -4 -24.4516 -48.3152
8 6 -1 -39.8287 -20.4892
8 6 2 -34.2844 -50.5280
8 6 5 -27.6079 -21.4532
8 6 8 36.6532 43.2749
8 6 11 30.9536 63.1159
8 6 14 21.7067 -2.8082
8 7 -14 -49.8561 1.2771
8 7 -11 28.2778 -63.4521
8 7 -8 -9.5605 6.9201
8 7 -5 -38.4888 22.7974
8 7 -2 -43.4938 -35.5967
8 7 1 -6.5594 22.4044
8 7 4 -81.6465 86.0701
8 7 7 -22.2713 32.4044
8 7 10 19.0940 62.4169
8 7 13 28.0565 6.3039
8 8 0 52.4456 57.4888
8 8 3 -85.4565 29.5336
8 8 6 31.7804 -118.1186
8 8 9 -32.3597 57.0222
8 8 12 61.6576 39.2944
8 8 15 7.9811 -4.4421
9 0 -15 8.2142 0.0000
9 0 -12 122.4148 0.0000
9 0 -9 -39.1836 0.0000
9 0 -6 112.9915 -0.0000
9 0 -3 112.4883 0.0000
9 0 0 33.4451 -0.0000
9 0 3 -81.7069 0.0000
9 0 6 85.4322 0.0000
9 0 9 -70.3972 0.0000
9 0 12 51.3113 0.0000
9 0 15 -87.5670 0.0000
9 1 -16 -40.4520 -4.6066
9 1 -13 77.6838 31.5426
9 1 -10 -19.4865 29.3602
9 1 -7 16.3781 28.9606
9 1 -4 -78.0509 -2.8932
9 1 -1 -2.6286 -32.5175
9 1 2 -104.3725 -15.9949
9 1 5 -2.5894 -31.1866
9 1 8 -37.6449 22.6521
9 1 11 68.4145 -59.2650
9 1 14 17.1399 40.7725
9 1 17 -21.8486 -10.1023
9 2 -17 -25.8813 10.5462
9 2 -14 48.3623 30.3555
9 2 -11 29.5492 -38.7802
9 2 -8 -36.3608 86.2520
9 2 -5 26.5235 -64.5051
9 2 -2 -74.2897 -5.7442
9 2 1 -47.4790 -13.7349
9 2 4 -14.1857 30.5303
9 2 7 -0.8865 -50.0654
9 2 10 32.1815 10.8115
9 2 13 -43.3052 -27.7189
9 2 16 -10.8436 18.2597
9 3 -15 28.7321 -24.7095
9 3 -12 -14.6338 3.3329
9 3 -9 -2.4871 -99.1264
9 3 -6 -71.7086 72.9830
9 3 -3 -25.3606 -37.5417
9 3 0 94.4107 -4.7051
9 3 3 -11.0744 -4.5528
9 3 6 -23.1198 -108.6915
9 3 9 -16.6885 1.9031
9 3 12 44.6262 -23.0933
9 3 15 8.5943 29.9219
9 4 -16 7.4920 -23.1635
9 4 -13 2.9994 -27.5106
9 4 -10 -30.4655 -61.9159
9 4 -7 -46.4272 27.5622
9 4 -4 53.4306 -48.5822
9 4 -1 10.7812 -74.5737
9 4 2 4.2642 -11.5397
9 4 5 -55.6456 -71.5718
9 4 8 29.2982 -5.4658
9 4 11 57.2079 34.7103
9 4 14 -17.1491 15.3212
9 5 -14 -7.3130 -5.1358
9 5 -11 8.4292 -136.4268
9 5 -8 99.5956 79.7008
9 5 -5 14.1156 -48.1891
9 5 -2 -34.0228 33.8374
9 5 1 43.7469 16.5741
9 5 4 -32.0503 -68.0918
9 5 7 17.4441 54.1612
9 5 10 -12.0572 6.9413
9 5 13 -16.1538 -10.8878
9 5 16 -2.5834 -24.8641
9 6 -15 -30.4235 22.7967
9 6 -12 11.1777 25.9010
9 6 -9 -0.0590 56.6235
9 6 -6 15.0645 -49.3437
9 6 -3 -21.5091 27.6038
9 6 0 -22.1917 7.9799
9 6 3 -6.8462 -62.7914
9 6 6 -20.2250 35.2445
9 6 9 -13.3322 -72.2284
9 6 12 -0.8450 62.4946
9 6 15 13.4712 -65.2997
9 7 -13 3.9469 7.4023
9 7 -10 -36.2557 9.7336
9 7 -7 41.8319 -48.2615
9 7 -4 -35.9903 85.0552
9 7 -1 -13.0068 14.8319
9 7 2 -35.7516 -6.9945
9 7 5 -57.1519 3.0767
9 7 8 -12.6246 46.9987
9 7 11 3.0777 -58.5857
9 7 14 13.3078 -8.0804
9 8 -14 -1.7048 30.2606
9 8 -11 75.7601 -26.1739
9 8 -8 -28.8042 13.8988
9 8 -5 -34.4904 27.9501
9 8 -2 -99.3638 78.2024
9 8 1 -57.4616 -10.5808
9 8 4 -22.8530 31.2855
9 8 7 -37.3232 -10.3257
9 8 10 -9.2215 -81.0040
9 8 13 -3.2255 16.0395
9 9 0 -16.8491 -53.3877
9 9 3 -17.4585 14.6413
9 9 6 31.4914 -48.7060
9 9 9 -37.4030 -80.0988
9 9 12 -28.1243 -1.9774
10 0 -17 -8.3029 -0.0000
10 0 -14 11.1953 -0.0000
10 0 -11 66.5632 -0.0000
10 0 -8 -71.0333 -0.0000
10 0 -5 -46.0426 0.0000
10 0 -2 -21.7161 0.0000
10 0 1 97.3952 0.0000
10 0 4 60.8160 0.0000
10 0 7 14.1791 0.0000
10 0 10 -51.8898 0.0000
10 0 13 -9.5067 0.0000
10 0 16 -39.0320 0.0000
10 1 -15 -33.5219 14.7015
10 1 -12 16.0290 -19.1444
10 1 -9 17.0567 131.2858
10 1 -6 48.3367 14.9609
10 1 -3 42.9960 29.1978
10 1 0 19.9707 -41.6487
10 1 3 -22.0062 -18.8658
10 1 6 -45.6992 -21.1386
10 1 9 17.6342 19.5874
10 1 12 58.7307 -55.9622
10 1 15 6.4034 58.7946
10 2 -16 -9.8784 -6.2028
10 2 -13 7.3080 -17.4529
10 2 -10 -25.6032 25.7708
10 2 -7 -2.7370 162.3649
10 2 -4 -106.6930 -42.2952
10 2 -1 62.0738 -14.1675
10 2 2 -39.1132 -40.6294
10 2 5 45.6526 -50.8160
10 2 8 -20.6709 16.0904
10 2 11 64.2833 -8.9782
10 2 14 -79.0470 53.7960
10 3 -14 -22.6163 -10.9758
10 3 -11 -40.4651 -5.0125
10 3 -8 91.3132 15.3516
10 3 -5 -69.8520 -81.9295
10 3 -2 78.8015 -7.8369
10 3 1 -9.7366 -10.1701
10 3 4 -43.7023 59.8059
10 3 7 14.3692 -4.8702
10 3 10 20.8313 26.8547
10 3 13 23.1638 -3.3707
10 3 16 24.6876 10.0415
10 4 -15 2.2590 -30.0519
10 4 -12 2.5211 -56.0942
10 4 -9 45.6844 41.4986
10 4 -6 -126.3964 -108.3456
10 4 -3 -9.3228 21.6995
10 4 0 -6.9196 -23.3455
10 4 3 6.4586 -84.8086
10 4 6 -16.9983 -39.7117
10 4 9 7.7400 -42.2650
10 4 12 0.4636 71.4812
10 4 15 -13.0475 -19.8487
10 5 -13 -60.0585 -3.2847
10 5 -10 -8.6774 -65.9706
10 5 -7 11.4442 -118.9164
10 5 -4 28.0501 -59.4670
10 5 -1 25.8392 -23.3704
10 5 2 -31.5566 45.2267
10 5 5 6.7160 63.5492
10 5 8 21.8341 -8.8421
10 5 11 92.7329 -22.8597
10 5 14 36.3177 -32.3117
10 6 -14 -6.6640 -39.5640
10 6 -11 -25.1491 -32.3407
10 6 -8 61.2979 -42.5751
10 6 -5 42.9742 63.1181
10 6 -2 -33.4522 35.1619
10 6 1 -46.8443 51.7242
10 6 4 -85.6272 -129.0255
10 6 7 27.3649 68.2749
10 6 10 58.8961 -21.6164
10 6 13 -1.9930 46.4536
10 7 -15 -40.7899 2.5177
10 7 -12 -20.6800 11.0036
10 7 -9 -52.1807 -88.3610
10 7 -6 -24.4710 7.4034
10 7 -3 41.3141 71.5124
10 7 0 -78.2669 -5.7651
10 7 3 -15.1024 1.0731
10 7 6 21.8065 4.4959
10 7 9 41.8535 -52.9377
10 7 12 7.8062 50.4604
10 7 15 37.4340 -15.7510
10 8 -13 -9.8993 -2.3059
10 8 -10 43.7912 -57.1443
10 8 -7 28.9505 16.3932
10 8 -4 46.9595 0.7653
10 8 -1 41.9830 22.9433
10 8 2 -47.4911 -3.1784
10 8 5 68.6494 -11.1217
10 8 8 75.8379 9.6785
10 8 11 -8.8763 25.4969
10 8 14 63.4970 19.9888
10 9 -14 -18.5136 9.1020
10 9 -11 17.5869 -47.2297
10 9 -8 -41.6423 -20.9224
10 9 -5 61.2852 26.0839
10 9 -2 20.1795 -46.9497
10 9 1 -90.4685 -117.1310
10 9 4 15.4248 25.9200
10 9 7 11.5435 -46.3988
10 9 10 29.0573 31.8571
10 9 13 -0.4793 -16.8510
10 10 0 -32.6057 -100.0408
10 10 3 52.5828 68.0484
10 10 6 104.5211 -102.8264
10 10 9 -33.8400 43.8208
10 10 12 16.8922 -9.3147
11 0 -16 11.4591 0.0000
11 0 -13 34.5146 0.0000
11 0 -10 64.3181 -0.0000
11 0 -7 46.8649 0.0000
11 0 -4 110.2507 0.0000
11 0 -1 -140.9891 0.0000
11 0 2 14.9140 0.0000
11 0 5 -21.8911 0.0000
11 0 8 94.7625 -0.0000
11 0 11 17.5573 0.0000
11 0 14 -35.2379 0.0000
11 1 -14 -47.0045 30.1566
11 1 -11 11.5404 -78.9122
11 1 -8 -1.8652 128.2417
11 1 -5 21.2760 -70.2233
11 1 -2 -8.4209 1.9691
11 1 1 19.7081 -13.7383
11 1 4 -6.7769 -21.2056
11 1 7 8.3748 17.9668
11 1 10 -32.1915 13.2877
11 1 13 -10.3075 15.6458
11 1 16 15.4357 19.9746
11 2 -15 -36.0845 22.6883
11 2 -12 30.0572 -18.8870
11 2 -9 6.0262 80.4069
11 2 -6 43.1943 -71.8300
11 2 -3 9.9580 -44.0571
11 2 0 4.5904 -44.9932
11 2 3 -36.1389 -12.2141
11 2 6 16.1552 -51.8902
11 2 9 -7.5271 -24.7983
11 2 12 42.2383 41.2429
11 2 15 -35.7857 5.7056
11 3 -16 -10.6526 -25.2650
11 3 -13 38.4652 -19.5879
11 3 -10 -20.5666 60.5532
11 3 -7 -66.5388 -99.6079
11 3 -4 -20.2294 -24.7047
11 3 -1 61.0066 -64.9035
11 3 2 2.7219 23.5883
11 3 5 26.0194 47.8188
11 3 8 -6.4069 -13.7072
11 3 11 43.9212 -25.8320
11 3 14 -59.6744 8.5550
11 4 -14 2.5779 12.7088
11 4 -11 8.9460 -28.6984
11 4 -8 58.0477 20.8458
11 4 -5 -23.4997 -109.6210
11 4 -2 10.0934 42.7631
11 4 1 -55.5118 24.8458
11 4 4 47.9567 -24.7411
11 4 7 -48.6781 -50.9218
11 4 10 22.6214 -38.5999
11 4 13 -28.0853 15.4688
11 5 -15 18.7782 -21.8417
11 5 -12 -7.6907 28.6218
11 5 -9 -14.3484 3.0479
11 5 -6 41.9920 35.6970
11 5 -3 20.1427 -5.1060
11 5 0 -53.2638 39.7487
11 5 3 58.0571 -31.5280
11 5 6 -13.3577 63.0561
11 5 9 20.7186 -60.0669
11 5 12 -30.1199 -26.4285
11 5 15 -7.1303 -47.7899
11 6 -13 -6.1247 -0.6045
11 6 -10 -23.2667 27.9748
11 6 -7 38.5024 9.5028
11 6 -4 25.9259 29.1299
11 6 -1 -52.7262 15.9122
11 6 2 33.5440 -1.5047
11 6 5 33.4490 36.1997
11 6 8 -19.8470 11.9321
11 6 11 -15.5287 -85.1565
11 6 14 32.1767 16.8859
11 7 -14 -8.4570 -9.2329
11 7 -11 -0.0273 4.8104
11 7 -8 7.2375 15.8064
11 7 -5 60.3537 24.6900
11 7 -2 -35.6416 60.5329
11 7 1 -17.5298 2.8130
11 7 4 2.3300 -18.8965
11 7 7 4.5131 56.7603
11 7 10 -9.7515 -72.5772
11 7 13 -3.7847 -36.0462
11 8 -12 -15.3037 39.7663
11 8 -9 17.0937 -103.1699
11 8 -6 -23.0167 0.7202
11 8 -3 -11.0720 11.8044
11 8 0 -67.2979 -56.5664
11 8 3 55.5841 60.8736
11 8 6 58.1339 13.9912
11 8 9 -15.9226 -37.0272
11 8 12 -24.9392 -41.2603
11 9 -13 -10.6648 -10.0384
11 9 -10 -6.8639 -34.4183
11 9 -7 -0.6809 22.8580
11 9 -4 -18.7609 -42.8900
11 9 -1 19.1606 -28.7510
11 9 2 17.9150 -108.8633
11 9 5 16.5515 -46.2509
11 9 8 11.3673 -16.6602
11 9 11 -29.4872 -14.4295
11 10 -11 30.8903 -21.2128
11 10 -8 -48.8684 3.6623
11 10 -5 -12.0576 -56.8353
11 10 -2 20.0479 12.9995
11 10 1 6.9527 -157.0611
11 10 4 1.1362 22.8344
11 10 7 1.3492 17.9685
11 10 10 11.0106 10.6101
11 11 0 101.8903 -74.4258
11 11 3 -16.0483 30.3846
11 11 6 41.7796 -26.4907
11 11 9 -34.4535 19.0291
11 11 12 2.7581 -0.6265
12 0 -15 -56.6450 0.0000
12 0 -12 2.7124 0.0000
12 0 -9 -0.5899 0.0000
12 0 -6 33.3462 0.0000
12 0 -3 60.9023 -0.0000
12 0 0 31.0280 0.0000
12 0 3 93.4099 -0.0000
12 0 6 -98.5270 0.0000
12 0 9 6.2066 0.0000
12 0 12 -77.4571 0.0000
12 0 15 -6.4125 0.0000
12 1 -16 -33.4492 -1.3170
12 1 -13 -25.3522 -4.0170
12 1 -10 23.5892 53.0620
12 1 -7 7.8950 58.5942
12 1 -4 58.0583 -6.1416
12 1 -1 13.4111 40.1156
12 1 2 -54.8867 -25.2389
12 1 5 2.6947 -17.8224
12 1 8 40.7214 -4.9589
12 1 11 34.7334 -42.3685
12 1 14 -16.6275 -32.8416
12 2 -14 13.8680 -10.9157
12 2 -11 -26.2172 36.5670
12 2 -8 -9.5260 49.9262
12 2 -5 -62.8123 2.7839
12 2 -2 4.6285 -26.2437
12 2 1 29.6651 -39.6687
12 2 4 -3.2989 -23.1146
12 2 7 -45.6365 -22.1462
12 2 10 -75.5451 -14.5230
12 2 13 -62.3535 22.6153
12 3 -15 -2.2609 1.3652
12 3 -12 -39.6793 23.9588
12 3 -9 73.1755 82.7769
12 3 -6 -169.5256 -178.1418
12 3 -3 53.2318 -44.5003
12 3 0 -57.5077 -40.7656
12 3 3 34.2038 8.2324
12 3 6 -31.5800 -12.6451
12 3 9 25.2128 -62.5788
12 3 12 53.2339 -22.0499
12 3 15 -0.1047 -15.2312
12 4 -13 -12.2513 -31.0153
12 4 -10 8.7887 -16.8355
12 4 -7 -28.7314 -39.5790
12 4 -4 -41.7215 -101.3521
12 4 -1 30.0386 0.7082
12 4 2 -3.9713 -6.2750
12 4 5 -0.1763 13.9036
12 4 8 -8.8033 -21.9306
12 4 11 -27.9403 -35.5318
12 4 14 -33.2664 12.3188
12 5 -14 -18.6692 -30.0477
12 5 -11 -7.6536 -14.7195
12 5 -8 19.1775 -38.9215
12 5 -5 -11.4875 -29.3575
12 5 -2 8.7933 -0.2778
12 5 1 -26.2022 6.9651
12 5 4 4.5904 33.8898
12 5 7 -55.3279 -4.8647
12 5 10 5.8935 15.6081
12 5 13 37.0879 -17.4464
12 6 -12 15.5047 -16.1058
12 6 -9 -48.0017 -63.6366
12 6 -6 53.6515 26.1293
12 6 -3 57.7150 79.9476
12 6 0 -4.2761 -13.8563
12 6 3 -25.4782 31.5898
12 6 6 16.5811 -17.2442
12 6 9 -9.5725 51.5380
12 6 12 10.4760 -33.1708
12 7 -13 -0.5212 -16.8065
12 7 -10 39.8479 -59.4267
12 7 -7 -32.7521 95.2249
12 7 -4 30.0227 -23.2981
12 7 -1 4.3430 -31.3134
12 7 2 -22.0614 26.0872
12 7 5 45.4285 12.6223
12 7 8 -6.6733 63.3852
12 7 11 4.6076 -40.8699
12 8 -11 -9.0012 30.0762
12 8 -8 -27.0441 -31.6277
12 8 -5 50.4639 -18.6390
12 8 -2 42.5854 33.9500
12 8 1 -29.3251 -66.6975
12 8 4 -38.4628 -3.0685
12 8 7 -0.0998 71.6581
12 8 10 25.2870 12.8138
12 8 13 20.7304 -18.2181
12 9 -12 19.3983 -15.7993
12 9 -9 -21.9304 -28.1542
12 9 -6 32.3369 47.3031
12 9 -3 51.7083 27.1501
12 9 0 -33.7545 -50.3662
12 9 3 11.1122 15.9245
12 9 6 -22.8558 -33.9978
12 9 9 20.7782 -10.9958
12 9 12 -2.8718 23.7324
12 10 -10 -8.2381 -0.4999
12 10 -7 3.6983 -2.0893
12 10 -4 -39.1816 -7.6892
12 10 -1 24.3505 20.9561
12 10 2 -57.5488 -52.2226
12 10 5 -11.6725 -42.1659
12 10 8 15.3487 -10.7132
12 10 11 -1.7562 32.6458
12 11 -11 40.9396 -29.2533
12 11 -8 35.4692 -6.7904
12 11 -5 3.3225 77.0165
12 11 -2 12.2402 -64.4479
12 11 1 64.9266 -47.8561
12 11 4 -13.6877 40.5723
12 11 7 24.1627 -42.8230
12 11 10 6.4206 8.9773
12 12 0 -99.2462 109.1475
12 12 3 -9.2896 -6.8429
12 12 6 35.2712 -35.4624
12 12 9 -3.1518 9.2353
13 0 -14 11.7743 0.0000
13 0 -11 16.3836 0.0000
13 0 -8 22.0925 0.0000
13 0 -5 109.8770 0.0000
13 0 -2 -39.5494 0.0000
13 0 1 -13.0916 0.0000
13 0 4 28.5242 -0.0000
13 0 7 -30.7401 -0.0000
13 0 10 -24.7819 0.0000
13 0 13 -39.4233 0.0000
13 1 -15 10.5189 11.4818
13 1 -12 -59.1330 21.6244
13 1 -9 -16.7995 -64.1372
13 1 -6 -68.8647 -19.3129
13 1 -3 106.0833 -86.2526
13 1 0 -20.1181 16.0787
13 1 3 1.6059 52.3220
13 1 6 -42.6358 -27.4671
13 1 9 24.0060 41.5341
13 1 12 50.8246 32.2755
13 1 15 15.7082 1.5351
13 2 -13 4.4658 6.6157
13 2 -10 38.3482 34.1574
13 2 -7 -49.5214 -96.0936
13 2 -4 103.7459 -1.7104
13 2 -1 -67.2689 12.8748
13 2 2 44.6872 7.4816
13 2 5 -1.8003 -58.8034
13 2 8 67.5789 -11.9283
13 2 11 -10.0127 -22.4763
13 2 14 -36.5154 -0.7458
13 3 -14 9.0502 -2.2336
13 3 -11 1.5562 -18.2984
13 3 -8 -22.2267 66.3951
13 3 -5 2.2459 -33.3020
13 3 -2 -47.3591 -22.5881
13 3 1 -7.0673 45.2237
13 3 4 35.7682 12.6686
13 3 7 11.6233 23.9123
13 3 10 -21.5910 17.1599
13 3 13 12.4343 -25.5872
13 4 -12 2.5029 24.3141
13 4 -9 1.4814 25.4815
13 4 -6 70.0478 -10.5152
13 4 -3 -87.9946 -52.3803
13 4 0 20.2032 37.6905
13 4 3 75.7198 6.4073
13 4 6 6.3343 -28.6837
13 4 9 -42.2642 -16.7946
13 4 12 0.7142 -4.2903
13 5 -13 57.7328 -32.7109
13 5 -10 -11.4861 27.1635
13 5 -7 87.5451 108.4380
13 5 -4 -7.0838 -5.7545
13 5 -1 -34.5360 16.6421
13 5 2 104.1550 7.1004
13 5 5 6.0380 57.7667
13 5 8 -14.0199 50.5077
13 5 11 -25.6147 -52.1162
13 5 14 -0.9180 4.8101
13 6 -11 25.6228 37.2351
13 6 -8 13.3874 39.1549
13 6 -5 -47.8189 -28.2159
13 6 -2 -2.8514 90.3737
13 6 1 75.7209 -48.3011
13 6 4 18.7662 57.8294
13 6 7 -77.5387 32.6762
13 6 10 -45.6534 -46.0047
13 6 13 32.4620 -32.6576
13 7 -12 27.1916 44.3352
13 7 -9 -3.8705 -11.9124
13 7 -6 35.4112 87.9556
13 7 -3 -5.6447 7.3117
13 7 0 -29.0026 -72.7508
13 7 3 -17.3225 56.7244
13 7 6 -35.2167 31.9812
13 7 9 15.8638 -23.7290
13 7 12 -2.5258 -67.8067
13 8 -10 -3.4850 36.7027
13 8 -7 -28.0622 39.3594
13 8 -4 -81.4161 -49.8048
13 8 -1 -18.8881 -4.6078
13 8 2 -8.6670 -27.9218
13 8 5 3.5095 19.9724
13 8 8 -6.7743 28.4790
13 8 11 -8.1172 -64.9040
13 9 -11 -5.2877 28.0804
13 9 -8 -18.2797 -14.4032
13 9 -5 -31.1222 -3.4735
13 9 -2 14.0860 8.9905
13 9 1 18.6287 -13.7702
13 9 4 -23.8496 -32.5682
13 9 7 -22.4862 -0.4092
13 9 10 -0.9952 -42.9701
13 10 -9 13.7368 -27.1414
13 10 -6 -30.5490 42.6717
13 10 -3 20.0746 20.7976
13 10 0 15.8527 71.3424
13 10 3 -0.9323 2.7909
13 10 6 6.3408 -29.7512
13 10 9 11.1794 0.7348
13 11 -10 15.9850 -27.6922
13 11 -7 14.4959 -13.1865
13 11 -4 -13.4427 57.4254
13 11 -1 13.8428 28.3381
13 11 2 37.2758 -73.1080
13 11 5 54.2981 13.0906
13 11 8 36.3517 -52.6958
13 12 -8 29.1579 -23.2432
13 12 -5 73.2410 43.8561
13 12 -2 17.5591 -58.4677
13 12 1 -30.7877 -21.6036
13 12 4 20.5985 3.6492
13 12 7 25.3423 -22.2017
13 13 0 -91.0894 22.6457
13 13 3 24.3533 6.4411
13 13 6 35.3484 -20.4537
14 0 -13 8.1464 0.0000
14 0 -10 23.3941 0.0000
14 0 -7 5.0683 0.0000
14 0 -4 110.4688 0.0000
14 0 -1 44.7116 0.0000
14 0 2 26.2457 0.0000
14 0 5 37.6801 -0.0000
14 0 8 -25.4378 0.0000
14 0 11 -18.1995 0.0000
14 0 14 -49.4068 0.0000
14 1 -14 29.4005 -11.4016
14 1 -11 -30.8016 81.3376
14 1 -8 -0.5295 -7.9234
14 1 -5 -22.5272 43.4298
14 1 -2 -23.4330 -13.9429
14 1 1 -18.7005 0.7903
14 1 4 -17.1579 9.1404
14 1 7 11.8678 -47.7294
14 1 10 -1.5180 7.0547
14 1 13 77.1525 -65.9481
14 2 -12 4.5894 30.3692
14 2 -9 39.6589 14.8973
14 2 -6 -63.1716 -85.1387
14 2 -3 75.0956 -61.7207
14 2 0 -34.2261 37.6665
14 2 3 32.7528 18.5287
14 2 6 1.8753 -70.6470
14 2 9 2.6662 51.5446
14 2 12 10.3577 -52.3592
14 3 -13 5.2001 -14.9068
14 3 -10 41.5381 -2.2108
14 3 -7 -4.2309 -57.7805
14 3 -4 -42.9739 -40.9355
14 3 -1 -31.5645 45.2207
14 3 2 -27.8313 2.2249
14 3 5 -31.3195 1.6820
14 3 8 23.3953 24.0775
14 3 11 9.7240 -15.7531
14 3 14 31.0871 -17.1587
14 4 -14 -3.0946 -25.2983
14 4 -11 9.6670 -19.8197
14 4 -8 -13.9461 -16.7641
14 4 -5 -13.4162 24.2225
14 4 -2 -22.4823 12.0300
14 4 1 20.4135 -1.9965
14 4 4 -27.5295 -31.2044
14 4 7 4.4451 6.3169
14 4 10 -39.2564 -5.8015
14 4 13 17.7867 13.4924
14 5 -12 54.6439 -16.9770
14 5 -9 24.5876 -54.7145
14 5 -6 9.3010 71.0237
14 5 -3 23.4494 42.7028
14 5 0 -13.0492 -94.6077
14 5 3 -5.5980 30.5570
14 5 6 -49.8143 -11.9946
14 5 9 -32.2015 -14.8147
14 5 12 25.2326 53.7830
14 6 -13 22.1337 -16.8712
14 6 -10 15.7267 -12.7398
14 6 -7 -39.2459 68.6155
14 6 -4 -8.8277 -44.3792
14 6 -1 26.2059 -22.1885
14 6 2 -28.6291 31.4533
14 6 5 -15.6021 -46.1045
14 6 8 12.3592 39.4958
14 6 11 -46.2305 -19.3296
14 7 -11 45.5320 32.2234
14 7 -8 32.9295 15.6041
14 7 -5 -34.6242 13.9089
14 7 -2 94.5142 -1.0731
14 7 1 -37.2567 -88.8430
14 7 4 -2.9068 5.7905
14 7 7 -73.1354 32.3623
14 7 10 -14.4502 2.9187
14 8 -9 -38.4333 2.9690
14 8 -6 13.7730 -7.8066
14 8 -3 90.9158 2.3772
14 8 0 -150.9806 19.7230
14 8 3 -42.3106 0.5830
14 8 6 -56.7999 -52.7946
14 8 9 -20.8448 54.6597
14 9 -10 40.2351 7.6683
14 9 -7 8.1999 0.7518
14 9 -4 -44.4962 -1.1453
14 9 -1 6.1974 -36.2958
14 9 2 13.3127 34.5458
14 9 5 54.2642 -19.9273
14 9 8 -17.6938 -5.0391
14 9 11 -2.0723 -22.3339
14 10 -8 4.2150 -57.8038
14 10 -5 -3.1448 28.1521
14 10 -2 -23.9730 -27.0403
14 10 1 -18.0492 78.1977
14 10 4 -16.1522 -58.0391
14 10 7 -25.7251 -31.9239
14 10 10 -11.1448 -5.7071
14 11 -9 65.6231 -28.1390
14 11 -6 -25.1786 -1.3551
14 11 -3 -38.5290 -34.2983
14 11 0 -8.3801 82.4971
14 11 3 68.7846 -20.3378
14 11 6 27.4227 14.8744
14 11 9 0.1631 -13.2745
14 12 -7 -31.9941 -15.7487
14 12 -4 21.8079 12.5919
14 12 -1 -35.5414 25.3590
14 12 2 -56.9963 -64.9054
14 12 5 22.7827 -12.6424
14 12 8 2.7772 -24.9740
14 13 -5 11.9822 -27.4245
14 13 -2 -18.2978 -55.1441
14 13 1 -27.0891 -59.0281
14 13 4 28.2683 42.2812
14 14 0 -31.3336 -0.7233
14 14 3 2.0245 50.3620
15 0 -12 -19.7418 0.0000
15 0 -9 7.1356 0.0000
15 0 -6 41.1897 0.0000
15 0 -3 -7.9636 0.0000
15 0 0 54.0851 -0.0000
15 0 3 23.4250 -0.0000
15 0 6 109.9604 0.0000
15 0 9 6.2992 -0.0000
15 0 12 49.2209 0.0000
15 1 -13 54.4213 15.1776
15 1 -10 0.4783 -26.5149
15 1 -7 -20.1029 -104.1507
15 1 -4 89.5098 9.7326
15 1 -1 -30.9398 -23.1126
15 1 2 0.2314 53.9507
15 1 5 62.7192 -13.8270
15 1 8 36.9572 46.7079
15 1 11 53.7124 7.3151
15 1 14 35.4318 20.5952
15 2 -14 1.8760 8.4108
15 2 -11 -32.0076 11.9407
15 2 -8 43.2340 9.0674
15 2 -5 -40.7603 37.7106
15 2 -2 10.3705 4.0906
15 2 1 39.3874 42.6996
15 2 4 43.6352 11.5264
15 2 7 40.2848 -52.8904
15 2 10 -13.4084 55.4742
15 2 13 47.8827 -24.1072
15 3 -12 34.6048 0.2064
15 3 -9 -66.4160 16.2687
15 3 -6 76.4308 20.0787
15 3 -3 54.9580 -76.2199
15 3 0 -33.6562 29.5145
15 3 3 12.7622 16.4958
15 3 6 -11.4403 4.1056
15 3 9 12.6393 58.1806
15 3 12 54.5107 41.9141
15 4 -13 5.4359 -23.8783
15 4 -10 -15.7908 36.3076
15 4 -7 59.5627 47.3147
15 4 -4 -16.3790 -9.5593
15 4 -1 -7.4412 -2.7068
15 4 2 46.9778 46.1270
15 4 5 -16.6889 -36.2732
15 4 8 18.4706 -3.3815
15 4 11 12.3679 7.3289
15 5 -11 36.2274 25.3780
15 5 -8 13.9707 24.0562
15 5 -5 15.0017 -19.7455
15 5 -2 -4.0159 24.2244
15 5 1 28.8897 -7.2981
15 5 4 -27.6155 -48.5907
15 5 7 18.8361 64.8088
15 5 10 -6.5516 -41.5253
15 5 13 -7.7671 1.6793
15 6 -12 -1.5560 18.7627
15 6 -9 52.2155 -9.5713
15 6 -6 -33.6959 53.8356
15 6 -3 11.0144 2.7560
15 6 0 -20.6544 -51.5467
15 6 3 6.3446 59.1508
15 6 6 -42.5065 -2.7123
15 6 9 24.2778 -58.0231
15 6 12 -26.3857 -33.4277
15 7 -10 10.0860 39.1155
15 7 -7 18.7432 17.7730
15 7 -4 -64.1540 -37.6205
15 7 -1 -45.4061 18.0546
15 7 2 -25.6241 -14.9954
15 7 5 9.7104 -6.0956
15 7 8 20.3639 -17.2375
15 7 11 -40.7078 -59.3800
15 8 -11 -22.4784 18.0730
15 8 -8 -1.6893 6.2566
15 8 -5 -38.4516 47.5664
15 8 -2 113.1800 28.7381
15 8 1 -49.2517 -1.8351
15 8 4 37.3003 0.6455
15 8 7 -34.6295 -53.9395
15 8 10 -11.6977 9.4715
15 9 -9 17.9969 14.2907
15 9 -6 -11.7795 -3.6218
15 9 -3 -28.0804 9.3819
15 9 0 -69.9193 -14.3231
15 9 3 5.9794 23.0426
15 9 6 30.0052 -12.4710
15 9 9 -20.7821 9.3305
15 10 -7 -32.1435 1.9481
15 10 -4 -22.2815 28.4485
15 10 -1 38.9568 -6.2025
15 10 2 22.7669 14.8320
15 10 5 45.0335 30.0913
15 10 8 -6.3774 -12.7259
15 11 -8 17.8901 -24.7658
15 11 -5 7.9467 -39.0683
15 11 -2 -32.0487 -37.6672
15 11 1 -15.2057 3.2981
15 11 4 21.4676 14.9454
15 11 7 -2.8369 19.4631
15 12 -6 -9.8642 -8.2763
15 12 -3 10.1477 29.7138
15 12 0 -3.8528 51.8758
15 12 3 -12.7179 1.1910
15 12 6 -39.0745 3.0836
15 13 -4 14.1198 35.0349
15 13 -1 17.7500 -26.7093
15 13 2 -42.0347 -40.6367
16 0 -14 50.9786 0.0000
16 0 -11 33.1894 0.0000
16 0 -8 67.9794 -0.0000
16 0 -5 56.3783 0.0000
16 0 -2 -22.8669 -0.0000
16 0 1 -8.4314 0.0000
16 0 4 133.6618 0.0000
16 0 7 46.2127 -0.0000
16 0 10 39.9555 0.0000
16 0 13 17.0778 0.0000
16 1 -12 28.2215 28.8070
16 1 -9 8.5961 63.8769
16 1 -6 -11.4309 -21.2779
16 1 -3 37.8480 17.3509
16 1 0 -34.2730 18.0191
16 1 3 1.1251 61.5143
16 1 6 -16.4962 -5.3802
16 1 9 26.0357 56.5748
16 1 12 34.3354 -41.4829
16 2 -13 21.5567 7.6242
16 2 -10 16.9980 12.7846
16 2 -7 39.2160 -80.5675
16 2 -4 45.4642 -12.8112
16 2 -1 9.8172 54.6385
16 2 2 -53.7182 40.1156
16 2 5 50.3050 -20.8884
16 2 8 23.5970 21.6587
16 2 11 22.9606 -5.1532
16 3 -11 8.7331 -10.1190
16 3 -8 21.9909 12.5511
16 3 -5 -55.5368 10.1750
16 3 -2 37.3055 34.7210
16 3 1 -17.5424 -23.4627
16 3 4 -28.1818 -15.6255
16 3 7 -9.4186 7.8092
16 3 10 -6.4439 53.3339
16 3 13 19.9719 14.2661
16 4 -12 9.0783 -41.0885
16 4 -9 -2.0539 -33.5605
16 4 -6 -49.8342 -4.2090
16 4 -3 123.5805 29.9677
16 4 0 -78.7302 -14.5267
16 4 3 -47.7493 -37.9658
16 4 6 -16.5139 -23.4457
16 4 9 -17.3957 -2.4629
16 4 12 11.6929 8.7238
16 5 -10 69.3465 -4.2322
16 5 -7 5.6822 0.7086
16 5 -4 -10.4901 6.6943
16 5 -1 18.3203 -98.2028
16 5 2 9.9571 12.5956
16 5 5 -11.3193 -15.6190
16 5 8 29.0359 -11.6350
16 5 11 -27.3909 7.9950
16 6 -11 -0.9863 -9.1156
16 6 -8 0.8640 -46.3509
16 6 -5 -16.7012 15.9878
16 6 -2 82.0854 -12.9369
16 6 1 -19.7751 5.2578
16 6 4 -33.6010 -84.3687
16 6 7 -20.0652 20.7454
16 6 10 -26.6942 -5.9203
16 7 -9 56.3753 -0.9884
16 7 -6 46.3451 21.2648
16 7 -3 40.6908 -61.2773
16 7 0 -59.2482 -60.2733
16 7 3 11.2540 23.3369
16 7 6 -21.4503 11.8053
16 7 9 -38.4905 22.9385
16 8 -7 -19.0113 -48.1345
16 8 -4 1.8270 -5.1577
16 8 -1 42.3362 23.0639
16 8 2 -43.8777 46.7420
16 8 5 44.0706 -47.5740
16 8 8 -37.3969 3.7275
16 9 -8 39.5970 -0.0850
16 9 -5 -19.5330 -38.4301
16 9 -2 31.4708 -18.3556
16 9 1 -0.1514 -31.5510
16 9 4 8.5627 37.6525
16 9 7 -28.4334 15.6219
16 10 -6 -29.2204 -32.3030
16 10 -3 -3.7901 36.3600
16 10 0 -36.5629 63.6316
16 10 3 -17.8421 -23.2099
16 10 6 -16.5510 29.3934
16 11 -4 -57.0899 -29.1061
16 11 -1 43.8977 -36.6766
16 11 2 -27.9992 -41.7141
16 11 5 -5.4590 36.2994
16 12 -2 35.2369 -9.4540
16 12 1 -48.7532 27.2995
16 12 4 -31.7473 -11.5795
17 0 -13 -2.0222 -0.0000
17 0 -10 16.1459 0.0000
17 0 -7 19.5283 0.0000
17 0 -4 55.5078 0.0000
17 0 -1 3.5616 0.0000
17 0 2 -30.1014 0.0000
17 0 5 37.2962 0.0000
17 0 8 37.3260 0.0000
17 0 11 16.7638 -0.0000
17 1 -11 11.9787 -9.1056
17 1 -8 -17.4623 -52.4362
17 1 -5 48.3215 -14.5004
17 1 -2 -8.6595 -29.3691
17 1 1 -29.0203 -25.6801
17 1 4 34.7952 -21.6590
17 1 7 -5.3847 -22.0013
17 1 10 37.3919 44.5315
17 1 13 -17.3214 16.6668
17 2 -12 -31.3149 -1.7524
17 2 -9 -21.2378 46.6596
17 2 -6 13.1297 -7.7710
17 2 -3 -31.5489 -36.0992
17 2 0 54.7806 21.7838
17 2 3 -52.0755 27.0298
17 2 6 -21.8848 -10.5504
17 2 9 4.6912 36.3996
17 2 12 -9.9495 12.8264
17 3 -10 -28.0852 -2.3323
17 3 -7 -25.9497 -44.5416
17 3 -4 56.1522 -45.1831
17 3 -1 -40.3632 8.3730
17 3 2 -44.9076 -33.4429
17 3 5 42.3170 -16.3725
17 3 8 6.5625 -9.5082
17 3 11 26.3324 10.3698
17 4 -11 -34.7561 -34.7224
17 4 -8 49.7360 6.6883
17 4 -5 -85.9870 39.5697
17 4 -2 82.5768 -15.5975
17 4 1 78.4152 -6.0320
17 4 4 -25.6557 -5.1289
17 4 7 36.4719 -54.8215
17 4 10 5.0629 13.6334
17 5 -9 18.5782 0.2958
17 5 -6 -16.2978 -11.6837
17 5 -3 1.5724 -40.4712
17 5 0 -78.2881 -65.8860
17 5 3 -31.1402 2.5680
17 5 6 -25.5923 74.1700
17 5 9 5.5927 -38.0693
17 6 -10 -12.0911 -3.4502
17 6 -7 44.2665 17.8663
17 6 -4 -24.0121 14.1318
17 6 -1 59.0693 -40.8834
17 6 2 64.8513 97.6879
17 6 5 -1.3506 -6.1381
17 6 8 15.0516 -51.5018
17 7 -8 16.6958 13.5223
17 7 -5 22.1248 -29.6322
17 7 -2 -0.2010 -4.7628
17 7 1 -53.8330 -4.2553
17 7 4 -37.8303 -25.7848
17 7 7 -13.7521 22.2694
17 8 -6 3.7789 -5.3946
17 8 -3 18.9345 57.5179
17 8 0 -11.5231 8.0362
17 8 3 9.3029 61.5722
17 8 6 1.4748 -18.1772
17 9 -7 -2.4631 2.7606
17 9 -4 -30.4765 3.1759
17 9 -1 -24.9454 0.2421
17 9 2 -39.4740 -48.5777
17 9 5 7.6269 21.0868
17 10 -5 -4.5167 -34.6032
17 10 -2 8.8336 10.3038
17 10 1 -28.8883 38.1346
17 10 4 -19.0664 9.5157
17 11 -3 -20.6860 26.2521
17 11 0 -47.2404 22.1031
17 11 3 -9.2140 -42.6686
18 0 -12 19.9830 0.0000
18 0 -9 91.2270 0.0000
18 0 -6 29.8979 0.0000
18 0 -3 64.5198 0.0000
18 0 0 -63.9301 0.0000
18 0 3 -42.0061 0.0000
18 0 6 -51.9256 -0.0000
18 0 9 37.7462 0.0000
18 0 12 -36.6847 0.0000
18 1 -10 34.4213 57.5992
18 1 -7 -46.1092 -27.0612
18 1 -4 23.3682 12.4903
18 1 -1 6.6957 78.4965
18 1 2 -82.0796 7.0862
18 1 5 11.4992 67.7244
18 1 8 4.6286 10.7034
18 1 11 -20.0115 0.4100
18 2 -11 11.6058 -16.0768
18 2 -8 1.2126 -46.3324
18 2 -5 33.3400 20.8009
18 2 -2 -20.1187 46.7467
18 2 1 -51.6317 -23.1010
18 2 4 30.7943 -56.6505
18 2 7 -20.3231 -55.5974
18 2 10 24.7866 6.9344
18 3 -9 24.2239 -9.0486
18 3 -6 -52.9104 23.4643
18 3 -3 1.1764 -27.3379
18 3 0 -2.3360 -41.1266
18 3 3 -15.5715 -8.3596
18 3 6 -0.9589 23.9515
18 3 9 -23.4526 15.9100
18 4 -10 -0.9683 -55.1870
18 4 -7 -11.6453 -48.5125
18 4 -4 24.5926 50.1938
18 4 -1 5.2319 -1.9003
18 4 2 31.5837 45.1054
18 4 5 -25.8166 -36.2842
18 4 8 10.8809 -61.6939
18 4 11 7.1651 16.9057
18 5 -8 86.2938 38.2002
18 5 -5 -33.8114 -21.0240
18 5 -2 44.6995 -50.4504
18 5 1 46.3303 -54.1109
18 5 4 -51.7814 -49.7411
18 5 7 -9.6308 51.7669
18 5 10 -19.4201 33.3758
18 6 -9 15.3202 -36.5633
18 6 -6 23.4771 -39.3951
18 6 -3 21.5560 13.1981
18 6 0 -46.7323 24.7171
18 6 3 28.7388 -15.1295
18 6 6 -43.1798 44.4825
18 6 9 -30.5462 26.1114
18 7 -7 39.2817 18.0563
18 7 -4 -22.2467 -7.3719
18 7 -1 35.5555 -51.2539
18 7 2 -3.1688 7.6430
18 7 5 -11.4320 -41.1712
18 7 8 -24.9964 30.5885
18 8 -5 3.8082 -47.4623
18 8 -2 4.3378 32.5956
18 8 1 -14.2385 37.3340
18 8 4 -24.5058 -42.1497
18 8 7 2.0629 54.2428
18 9 -3 -16.6686 17.4286
18 9 0 -28.5452 27.7270
18 9 3 -13.3415 -40.1760
18 10 -1 -13.1169 13.5362
18 10 2 -26.0571 -27.7601
19 0 -11 -28.3233 0.0000
19 0 -8 16.3092 0.0000
19 0 -5 -31.3874 0.0000
19 0 -2 37.1197 0.0000
19 0 1 37.8627 0.0000
19 0 4 -68.4128 0.0000
19 0 7 10.6496 0.0000
19 0 10 -30.6167 0.0000
19 1 -9 -31.4691 -18.1270
19 1 -6 -2.0732 -34.6195
19 1 -3 -30.8930 -58.1378
19 1 0 -20.5624 -35.3069
19 1 3 -39.9594 -95.9347
19 1 6 -18.2008 -26.9962
19 1 9 2.4154 -4.8957
19 2 -10 -4.8725 -16.2110
19 2 -7 -16.5212 -3.3646
19 2 -4 28.0794 -0.9621
19 2 -1 47.4580 15.1487
19 2 2 -43.2569 27.5842
19 2 5 15.3331 -11.1931
19 2 8 27.8860 -48.0842
19 2 11 25.2218 -2.4397
19 3 -8 -12.7173 -23.5867
19 3 -5 -10.4097 6.3706
19 3 -2 -55.2162 -28.4112
19 3 1 -37.6395 -41.2833
19 3 4 2.5818 -65.9740
19 3 7 59.2144 -27.9865
19 3 10 0.8868 19.7513
19 4 -9 40.7687 -30.4137
19 4 -6 -25.4956 -14.4369
19 4 -3 -8.5308 26.3366
19 4 0 22.0958 -38.7877
19 4 3 51.8187 60.3150
19 4 6 -25.3714 69.4622
19 4 9 36.5082 -35.2913
19 5 -7 14.8814 29.1501
19 5 -4 -27.5233 8.8003
19 5 -1 -39.2320 14.4068
19 5 2 1.0190 10.1757
19 5 5 -31.4587 9.5282
19 5 8 -8.3072 -20.3609
19 6 -8 32.8503 21.5852
19 6 -5 2.4374 -27.7988
19 6 -2 39.3541 26.5179
19 6 1 17.6120 -4.5820
19 6 4 4.4414 -17.5426
19 6 7 7.4938 3.2043
19 7 -6 7.4709 10.9665
19 7 -3 -39.3056 53.1599
19 7 0 -68.4799 -11.0439
19 7 3 -12.9933 -20.8468
19 7 6 1.3843 -24.4471
19 8 -4 5.8780 -4.5784
19 8 -1 -33.1199 -5.3718
19 8 2 20.9471 -3.0282
19 8 5 12.1677 -39.9296
19 9 -2 -53.5954 20.0875
19 9 1 0.4555 2.1095
20 0 -10 25.2035 0.0000
20 0 -7 38.5789 0.0000
20 0 -4 46.2826 -0.0000
20 0 -1 10.7227 0.0000
20 0 2 -34.1299 0.0000
20 0 5 -43.1701 0.0000
20 0 8 38.4170 -0.0000
20 0 11 -3.0753 0.0000
20 1 -8 -20.2225 41.5259
20 1 -5 -5.0327 -0.9063
20 1 -2 1.2879 45.5289
20 1 1 -20.0235 37.5819
20 1 4 19.5366 -42.8126
20 1 7 78.6075 7.9618
20 1 10 -28.7919 -4.3404
20 2 -9 38.2915 -51.1447
20 2 -6 23.4571 1.4943
20 2 -3 12.6093 30.6771
20 2 0 -52.2616 21.5080
20 2 3 25.4890 -67.2260
20 2 6 -61.5691 -16.2787
20 2 9 -2.8181 -5.0082
20 3 -7 -6.2741 23.8022
20 3 -4 -3.9872 41.4127
20 3 -1 14.2089 -12.1277
20 3 2 -8.3537 -2.0156
20 3 5 -5.4908 10.2615
20 3 8 35.4735 -11.8676
20 4 -8 40.6561 -17.0109
20 4 -5 -6.9783 -44.7741
20 4 -2 -17.8789 61.1844
20 4 1 16.2203 -27.0481
20 4 4 -19.4978 -41.7241
20 4 7 -23.9865 43.2505
20 5 -6 -5.4964 -0.4948
20 5 -3 -24.4050 22.5522
20 5 0 -9.4978 -40.6135
20 5 3 -20.7343 -25.8520
20 5 6 -16.3110 32.6894
20 6 -4 -11.0772 -9.9370
20 6 -1 -4.2722 21.3464
20 6 2 3.1007 -13.0835
20 6 5 28.2474 -41.9659
20 7 -2 -14.5655 36.8514
20 7 1 -3.4756 -24.1672
20 7 4 -14.3195 -29.2400
20 8 0 -6.9147 -1.2734
21 0 -9 -14.2439 0.0000
21 0 -6 51.0925 0.0000
21 0 -3 -14.3699 0.0000
21 0 0 4.1885 -0.0000
21 0 3 6.1066 0.0000
21 0 6 -20.5977 0.0000
21 0 9 4.4790 0.0000
21 1 -7 -7.7652 17.3772
21 1 -4 -24.8670 0.8738
21 1 -1 -5.1764 -26.3000
21 1 2 -25.1637 -1.8215
21 1 5 47.3470 -58.6856
21 1 8 51.0867 -9.7294
21 2 -8 23.3191 12.1084
21 2 -5 -34.0406 8.7589
21 2 -2 41.3854 -1.2850
21 2 1 15.7698 20.5190
21 2 4 10.9247 -9.3670
21 2 7 38.8969 -12.7887
21 3 -6 -35.4650 9.7677
21 3 -3 -42.0147 48.7344
21 3 0 -28.3717 -27.1388
21 3 3 -9.8703 -13.5521
21 3 6 -15.7605 32.3076
21 4 -7 -11.9325 25.7031
21 4 -4 9.9488 -5.1322
21 4 -1 31.3153 0.0494
21 4 2 0.9001 -4.1879
21 4 5 22.9206 35.7236
21 5 -5 15.4238 -25.6324
21 5 -2 -19.4075 53.1993
21 5 1 -13.1400 -33.9771
21 5 4 -17.3202 11.4370
21 6 -3 -8.0641 32.4850
21 6 0 -15.4610 -45.4937
21 6 3 6.9152 -2.9930
22 0 -8 7.2646 0.0000
22 0 -5 11.6800 0.0000
22 0 -2 36.5799 0.0000
22 0 1 19.2972 0.0000
22 0 4 14.8713 0.0000
22 0 7 -44.4992 0.0000
22 1 -6 12.3230 15.7702
22 1 -3 -21.3230 -1.4109
22 1 0 -6.0065 24.3424
22 1 3 -4.2836 8.6070
22 1 6 -12.1802 -13.9871
22 2 -7 19.9331 4.2959
22 2 -4 -9.5431 16.7814
22 2 -1 12.4235 3.1428
22 2 2 32.6380 11.1872
22 2 5 -59.1269 -15.4720
22 3 -5 -8.9362 -23.6793
22 3 -2 14.2305 24.9636
22 3 1 -5.8188 -7.9665
22 3 4 -58.7536 -17.2082
22 4 -3 -37.6836 9.6269
22 4 0 -0.6300 -9.7305
22 4 3 -11.6479 -50.5104
22 5 -1 18.2930 -9.7571
22 5 2 -46.9427 -30.6987
23 0 -7 9.4844 -0.0000
23 0 -4 -43.1067 0.0000
23 0 -1 30.4809 -0.0000
23 0 2 -16.8361 0.0000
23 0 5 28.3961 0.0000
23 1 -5 -34.9674 21.9614
23 1 -2 21.7446 -23.3762
23 1 1 6.3268 -1.9531
23 1 4 -22.3215 30.8049
23 2 -3 -10.1838 -11.4059
23 2 0 -44.7940 -10.6285
23 2 3 6.7113 17.7731
23 3 -1 8.4586 4.2764
23 3 2 2.8309 19.7175
24 0 -3 -21.0662 -0.0000
24 0 0 -2.8684 0.0000
24 0 3 6.1169 -0.0000
24 1 -4 -1.0482 -13.6366
24 1 -1 1.4272 0.7339
24 1 2 -15.3767 -6.8188
25 0 1 -40.8976 0.0000
0 0 0 0.0 0.0
;
_olex2_exptl_crystal_mounting_method
'Crystal coated in isopropanol:water mother liquor and mounted in a quarts capillary'
_olex2_submission_special_instructions 'No special instructions were received'
_oxdiff_exptl_absorpt_empirical_details
;
Empirical correction (ABSPACK) includes:
- Absorption correction using spherical harmonics
- Frame scaling
;
_oxdiff_exptl_absorpt_empirical_full_max 2.496
_oxdiff_exptl_absorpt_empirical_full_min 0.599
#END Tags that were not found in dictionaries
loop_
_space_group_symop_id
_space_group_symop_operation_xyz
1 'x, y, z'
2 '-y, x-y, z'
3 '-x+y, -x, z'
4 'x-y, -y, -z'
5 '-x, -x+y, -z'
6 'y, x, -z'
7 'x+2/3, y+1/3, z+1/3'
8 '-y+2/3, x-y+1/3, z+1/3'
9 '-x+y+2/3, -x+1/3, z+1/3'
10 'x-y+2/3, -y+1/3, -z+1/3'
11 '-x+2/3, -x+y+1/3, -z+1/3'
12 'y+2/3, x+1/3, -z+1/3'
13 'x+1/3, y+2/3, z+2/3'
14 '-y+1/3, x-y+2/3, z+2/3'
15 '-x+y+1/3, -x+2/3, z+2/3'
16 'x-y+1/3, -y+2/3, -z+2/3'
17 '-x+1/3, -x+y+2/3, -z+2/3'
18 'y+1/3, x+2/3, -z+2/3'
loop_
_atom_site_label
_atom_site_type_symbol
_atom_site_fract_x
_atom_site_fract_y
_atom_site_fract_z
_atom_site_U_iso_or_equiv
_atom_site_adp_type
_atom_site_occupancy
_atom_site_site_symmetry_order
_atom_site_calc_flag
_atom_site_refinement_flags_posn
_atom_site_refinement_flags_adp
_atom_site_refinement_flags_occupancy
C1 C 0.7440(5) 0.6619(8) 0.4083(8) 0.148(16) Uiso 1 1 d D U .
H1 H 0.7530 0.6789 0.3817 0.177 Uiso 1 1 calc R . .
C2 C 0.7326(8) 0.6746(6) 0.4518(10) 0.148(17) Uiso 1 1 d D U .
H2 H 0.7168 0.6825 0.4386 0.177 Uiso 1 1 calc R . .
C3 C 0.7122(8) 0.6511(7) 0.4881(9) 0.176(19) Uiso 1 1 d D U .
H3 H 0.7284 0.6434 0.5002 0.212 Uiso 1 1 calc R . .
C4 C 0.6796(7) 0.6160(6) 0.4766(9) 0.128(16) Uiso 1 1 d D U .
H4 H 0.6599 0.6201 0.4683 0.154 Uiso 1 1 calc R . .
C5 C 0.6884(9) 0.6004(6) 0.4344(10) 0.158(17) Uiso 1 1 d D U .
H5 H 0.7039 0.5921 0.4473 0.190 Uiso 1 1 calc R . .
C6 C 0.6598(10) 0.5688(9) 0.4084(17) 0.25(2) Uiso 1 1 d D U .
H6A H 0.6692 0.5614 0.3822 0.294 Uiso 1 1 calc R . .
H6B H 0.6460 0.5488 0.4294 0.294 Uiso 1 1 calc R . .
C11 C 0.8624(6) 0.6661(8) 0.3673(10) 0.090(12) Uiso 1 1 d D U .
H11 H 0.8827 0.6726 0.3462 0.108 Uiso 1 1 calc R . .
C12 C 0.8615(7) 0.6980(6) 0.3838(13) 0.131(16) Uiso 1 1 d D U .
H12 H 0.8591 0.7089 0.3546 0.158 Uiso 1 1 calc R . .
C13 C 0.8294(7) 0.6906(7) 0.4134(14) 0.148(17) Uiso 1 1 d D U .
H13 H 0.8330 0.6817 0.4438 0.178 Uiso 1 1 calc R . .
C14 C 0.7983(6) 0.6594(7) 0.3917(11) 0.089(13) Uiso 1 1 d D U .
H14 H 0.7933 0.6685 0.3625 0.107 Uiso 1 1 calc R . .
C15 C 0.7978(6) 0.6265(7) 0.3773(11) 0.089(13) Uiso 1 1 d D U .
H15 H 0.8016 0.6143 0.4042 0.106 Uiso 1 1 calc R . .
C16 C 0.7671(9) 0.6015(9) 0.3462(11) 0.110(14) Uiso 1 1 d D U .
H16A H 0.7679 0.5797 0.3415 0.132 Uiso 1 1 calc R . .
H16B H 0.7448 0.5954 0.3620 0.132 Uiso 1 1 calc R . .
C21 C 0.9379(7) 0.6208(6) 0.4599(8) 0.066(11) Uiso 1 1 d D U .
H21 H 0.9603 0.6205 0.4618 0.079 Uiso 1 1 calc R . .
C22 C 0.9472(9) 0.6595(8) 0.4700(12) 0.174(19) Uiso 1 1 d D U .
H22 H 0.9657 0.6731 0.4463 0.209 Uiso 1 1 calc R . .
C23 C 0.9193(10) 0.6666(8) 0.4570(15) 0.21(2) Uiso 1 1 d D U .
H23 H 0.9049 0.6584 0.4860 0.247 Uiso 1 1 calc R . .
C24 C 0.8921(9) 0.6435(8) 0.4216(14) 0.22(2) Uiso 1 1 d D U .
H24 H 0.9064 0.6567 0.3939 0.264 Uiso 1 1 calc R . .
C25 C 0.8909(8) 0.6105(7) 0.4086(12) 0.172(18) Uiso 1 1 d D U .
H25 H 0.8775 0.5947 0.4352 0.207 Uiso 1 1 calc R . .
C26 C 0.8737(8) 0.5868(9) 0.3660(10) 0.134(16) Uiso 1 1 d D U .
H26A H 0.8677 0.5626 0.3737 0.161 Uiso 1 1 calc R . .
H26B H 0.8518 0.5866 0.3583 0.161 Uiso 1 1 calc R . .
C31 C 0.9337(7) 0.5443(8) 0.6147(9) 0.21(2) Uiso 1 1 d D U .
H31 H 0.9418 0.5294 0.6303 0.247 Uiso 1 1 calc R . .
C32 C 0.9600(11) 0.5830(7) 0.6143(12) 0.21(2) Uiso 1 1 d D U .
H32 H 0.9820 0.5854 0.6008 0.256 Uiso 1 1 calc R . .
C33 C 0.9515(8) 0.6072(6) 0.5853(8) 0.154(17) Uiso 1 1 d D U .
H33 H 0.9329 0.6091 0.6026 0.185 Uiso 1 1 calc R . .
C34 C 0.9362(9) 0.5914(6) 0.5373(8) 0.166(18) Uiso 1 1 d D U .
H34 H 0.9550 0.5904 0.5193 0.199 Uiso 1 1 calc R . .
C35 C 0.9061(8) 0.5539(6) 0.5429(8) 0.20(2) Uiso 1 1 d D U .
H35 H 0.8881 0.5555 0.5619 0.242 Uiso 1 1 calc R . .
C36 C 0.8885(7) 0.5376(9) 0.4964(11) 0.24(3) Uiso 1 1 d D U .
H36A H 0.8672 0.5148 0.5021 0.289 Uiso 1 1 calc R . .
H36B H 0.8815 0.5530 0.4805 0.289 Uiso 1 1 calc R . .
C41 C 0.8373(5) 0.4902(5) 0.7522(9) 0.096(13) Uiso 1 1 d D U .
H41 H 0.8302 0.4764 0.7818 0.116 Uiso 1 1 calc R . .
C42 C 0.8673(7) 0.5270(6) 0.7624(9) 0.111(14) Uiso 1 1 d D U .
H42 H 0.8846 0.5212 0.7759 0.133 Uiso 1 1 calc R . .
C43 C 0.8868(8) 0.5454(6) 0.7164(8) 0.105(14) Uiso 1 1 d D U .
H43 H 0.8706 0.5527 0.7026 0.126 Uiso 1 1 calc R . .
C44 C 0.8876(7) 0.5219(7) 0.6785(9) 0.076(12) Uiso 1 1 d D U .
H44 H 0.9060 0.5163 0.6881 0.091 Uiso 1 1 calc R . .
C45 C 0.8546(8) 0.4870(7) 0.6717(9) 0.084(12) Uiso 1 1 d D U .
H45 H 0.8372 0.4932 0.6595 0.101 Uiso 1 1 calc R . .
C46 C 0.8580(9) 0.4655(8) 0.6331(11) 0.082(12) Uiso 1 1 d D U .
H46A H 0.8689 0.4801 0.6051 0.098 Uiso 1 1 calc R . .
H46B H 0.8348 0.4458 0.6244 0.098 Uiso 1 1 calc R . .
C51 C 0.7062(7) 0.4666(8) 0.7808(10) 0.129(15) Uiso 1 1 d D U .
H51 H 0.6830 0.4531 0.7964 0.155 Uiso 1 1 calc R . .
C52 C 0.7348(7) 0.4894(7) 0.8172(10) 0.097(13) Uiso 1 1 d D U .
H52 H 0.7366 0.4739 0.8410 0.116 Uiso 1 1 calc R . .
C53 C 0.7704(8) 0.5103(8) 0.7909(13) 0.115(14) Uiso 1 1 d D U .
H53 H 0.7709 0.5284 0.7695 0.138 Uiso 1 1 calc R . .
C54 C 0.7785(5) 0.4853(7) 0.7660(9) 0.047(10) Uiso 1 1 d D U .
H54 H 0.7801 0.4702 0.7907 0.056 Uiso 1 1 calc R . .
C55 C 0.7497(7) 0.4604(8) 0.7317(10) 0.087(13) Uiso 1 1 d D U .
H55 H 0.7473 0.4772 0.7108 0.105 Uiso 1 1 calc R . .
C56 C 0.7554(10) 0.4383(9) 0.6973(10) 0.142(17) Uiso 1 1 d D U .
H56A H 0.7350 0.4238 0.6773 0.170 Uiso 1 1 calc R . .
H56B H 0.7769 0.4512 0.6785 0.170 Uiso 1 1 calc R . .
C61 C 0.6261(10) 0.5114(9) 0.6923(13) 0.20(2) Uiso 1 1 d D U .
H61 H 0.6032 0.5108 0.6940 0.237 Uiso 1 1 calc R . .
C62 C 0.6485(10) 0.5324(9) 0.7339(14) 0.146(17) Uiso 1 1 d D U .
H62 H 0.6343 0.5234 0.7630 0.175 Uiso 1 1 calc R . .
C63 C 0.6809(10) 0.5275(9) 0.7383(13) 0.176(19) Uiso 1 1 d D U .
H63 H 0.6972 0.5391 0.7116 0.211 Uiso 1 1 calc R . .
C64 C 0.6701(11) 0.4891(9) 0.7407(14) 0.165(18) Uiso 1 1 d D U .
H64 H 0.6552 0.4770 0.7684 0.198 Uiso 1 1 calc R . .
C65 C 0.6523(11) 0.4720(9) 0.6939(12) 0.119(15) Uiso 1 1 d D U .
H65 H 0.6682 0.4850 0.6674 0.143 Uiso 1 1 calc R . .
C66 C 0.6396(12) 0.4325(9) 0.6890(17) 0.176(19) Uiso 1 1 d D U .
H66A H 0.6588 0.4274 0.6936 0.212 Uiso 1 1 calc R . .
H66B H 0.6281 0.4230 0.6587 0.212 Uiso 1 1 calc R . .
C71 C 0.6320(7) 0.5729(6) 0.5292(9) 0.184(19) Uiso 1 1 d D U .
H71 H 0.6203 0.5786 0.5036 0.221 Uiso 1 1 calc R . .
C72 C 0.6242(10) 0.5863(8) 0.5738(9) 0.19(2) Uiso 1 1 d D U .
H72 H 0.5984 0.5733 0.5791 0.233 Uiso 1 1 calc R . .
C73 C 0.6417(11) 0.5803(8) 0.6153(11) 0.134(16) Uiso 1 1 d D U .
H73 H 0.6671 0.5935 0.6077 0.161 Uiso 1 1 calc R . .
C74 C 0.6319(12) 0.5419(8) 0.6126(11) 0.148(17) Uiso 1 1 d D U .
H74 H 0.6061 0.5286 0.6179 0.177 Uiso 1 1 calc R . .
C75 C 0.6373(9) 0.5284(7) 0.5653(10) 0.120(15) Uiso 1 1 d D U .
H75 H 0.6626 0.5379 0.5583 0.144 Uiso 1 1 calc R . .
C76 C 0.6165(8) 0.4878(7) 0.5636(13) 0.167(19) Uiso 1 1 d D U .
H76A H 0.6175 0.4807 0.5312 0.200 Uiso 1 1 calc R . .
H76B H 0.6289 0.4792 0.5834 0.200 Uiso 1 1 calc R . .
K1 K 0.8933(2) 0.7918(3) 0.4184(4) 0.130(4) Uani 1 1 d D U .
K2 K 0.6667 0.6395(4) 0.3333 0.306(16) Uani 1 2 d DS TU P
K3 K 0.9736(5) 0.6402(5) 0.3333 0.258(12) Uani 1 2 d S TU P
O2 O 0.7650(7) 0.7072(6) 0.4612(10) 0.160(3) Uiso 1 1 d D U .
H2A H 0.7674 0.7106 0.4901 0.240 Uiso 1 1 calc R . .
O3 O 0.7027(7) 0.6630(7) 0.5319(8) 0.160(3) Uiso 1 1 d D U .
H3A H 0.7187 0.6831 0.5387 0.240 Uiso 1 1 calc R . .
O4 O 0.6703(6) 0.5942(7) 0.5193(9) 0.160(3) Uiso 1 1 d D U .
O5 O 0.7096(7) 0.6255(7) 0.3969(7) 0.160(3) Uiso 1 1 d D U .
O6 O 0.6391(8) 0.5854(8) 0.3916(11) 0.160(3) Uiso 1 1 d D U .
H6 H 0.6184 0.5734 0.4006 0.240 Uiso 1 1 calc R . .
O12 O 0.8909(7) 0.7271(7) 0.4092(10) 0.160(3) Uiso 1 1 d D U .
H12A H 0.8974 0.7191 0.4308 0.240 Uiso 1 1 calc R . .
O13 O 0.8267(7) 0.7210(7) 0.4260(10) 0.160(3) Uiso 1 1 d D U .
H13A H 0.8057 0.7149 0.4307 0.240 Uiso 1 1 calc R . .
O14 O 0.7666(6) 0.6480(7) 0.4219(9) 0.160(3) Uiso 1 1 d D U .
O15 O 0.8280(7) 0.6415(7) 0.3430(8) 0.160(3) Uiso 1 1 d D U .
O16 O 0.7683(8) 0.6174(8) 0.3002(11) 0.160(3) Uiso 1 1 d D U .
H16 H 0.7884 0.6259 0.2890 0.240 Uiso 1 1 calc R . .
O22 O 0.9653(7) 0.6741(8) 0.5143(9) 0.160(3) Uiso 1 1 d D U .
H22A H 0.9660 0.6930 0.5195 0.240 Uiso 1 1 calc R . .
O23 O 0.9264(7) 0.7026(6) 0.4557(9) 0.160(3) Uiso 1 1 d D U .
H23A H 0.9451 0.7150 0.4413 0.240 Uiso 1 1 calc R . .
O24 O 0.8674(7) 0.6529(7) 0.4152(11) 0.160(3) Uiso 1 1 d D U .
O25 O 0.9253(7) 0.6111(6) 0.4114(9) 0.160(3) Uiso 1 1 d D U .
O26 O 0.8973(8) 0.5991(7) 0.3252(10) 0.160(3) Uiso 1 1 d D U .
H26 H 0.8866 0.6006 0.3020 0.240 Uiso 1 1 calc R . .
O32 O 0.9693(8) 0.5996(7) 0.6600(10) 0.160(3) Uiso 1 1 d D U .
H32A H 0.9525 0.5889 0.6783 0.240 Uiso 1 1 calc R . .
O33 O 0.9815(7) 0.6426(5) 0.5821(9) 0.160(3) Uiso 1 1 d D U .
H33A H 0.9756 0.6555 0.5681 0.240 Uiso 1 1 calc R . .
O34 O 0.9188(7) 0.6050(8) 0.5045(10) 0.160(3) Uiso 1 1 d D U .
O35 O 0.9154(8) 0.5306(5) 0.5698(10) 0.160(3) Uiso 1 1 d D U .
O36 O 0.9130(8) 0.5326(8) 0.4665(9) 0.160(3) Uiso 1 1 d D U .
H36 H 0.9036 0.5117 0.4581 0.240 Uiso 1 1 calc R . .
O42 O 0.8656(7) 0.5469(6) 0.7985(7) 0.160(3) Uiso 1 1 d D U .
H42A H 0.8735 0.5675 0.7894 0.240 Uiso 1 1 calc R . .
O43 O 0.9184(6) 0.5793(6) 0.7243(10) 0.160(3) Uiso 1 1 d D U .
H43A H 0.9192 0.5851 0.7522 0.240 Uiso 1 1 calc R . .
O44 O 0.8989(7) 0.5395(8) 0.6327(9) 0.160(3) Uiso 1 1 d D U .
O45 O 0.8395(7) 0.4689(6) 0.7150(10) 0.160(3) Uiso 1 1 d D U .
O46 O 0.8813(8) 0.4523(8) 0.6535(10) 0.160(3) Uiso 1 1 d . U .
H46 H 0.8881 0.4609 0.6801 0.240 Uiso 1 1 calc R . .
O52 O 0.7227(7) 0.5115(7) 0.8399(9) 0.160(3) Uiso 1 1 d D U .
H52A H 0.7385 0.5261 0.8572 0.240 Uiso 1 1 calc R . .
O53 O 0.7958(8) 0.5246(8) 0.8257(11) 0.160(3) Uiso 1 1 d . U .
H53A H 0.8060 0.5464 0.8243 0.240 Uiso 1 1 calc R . .
O54 O 0.8106(7) 0.4993(8) 0.7390(10) 0.160(3) Uiso 1 1 d D U .
O55 O 0.7150(6) 0.4425(5) 0.7559(8) 0.160(3) Uiso 1 1 d D U .
O56 O 0.7590(8) 0.4194(8) 0.7377(11) 0.160(3) Uiso 1 1 d D U .
H56 H 0.7801 0.4257 0.7416 0.240 Uiso 1 1 calc R . .
O62 O 0.6598(8) 0.5699(8) 0.7289(10) 0.160(3) Uiso 1 1 d D U .
H62A H 0.6487 0.5752 0.7476 0.240 Uiso 1 1 calc R . .
O63 O 0.6979(8) 0.5438(8) 0.7829(10) 0.160(3) Uiso 1 1 d D U .
H63A H 0.7074 0.5331 0.7940 0.240 Uiso 1 1 calc R . .
O64 O 0.7042(9) 0.4881(8) 0.7405(10) 0.160(3) Uiso 1 1 d D U .
O65 O 0.6195(8) 0.4753(8) 0.6915(10) 0.160(3) Uiso 1 1 d D U .
O66 O 0.6112(8) 0.4181(8) 0.7335(10) 0.160(3) Uiso 1 1 d . U .
H66 H 0.6195 0.4123 0.7556 0.240 Uiso 1 1 calc R . .
O72 O 0.6354(8) 0.6236(7) 0.5650(10) 0.160(3) Uiso 1 1 d D U .
H72A H 0.6429 0.6349 0.5898 0.240 Uiso 1 1 calc R . .
O73 O 0.6390(8) 0.5943(7) 0.6602(9) 0.160(3) Uiso 1 1 d D U .
H73A H 0.6571 0.6000 0.6758 0.192 Uiso 1 1 calc R . .
O74 O 0.6480(8) 0.5376(8) 0.6587(12) 0.160(3) Uiso 1 1 d D U .
O75 O 0.6185(7) 0.5352(6) 0.5254(9) 0.160(3) Uiso 1 1 d D U .
O76 O 0.5794(8) 0.4695(7) 0.5782(10) 0.160(3) Uiso 1 1 d D U .
H76 H 0.5700 0.4808 0.5693 0.240 Uiso 1 1 calc R . .
OA O 0.7557(10) 0.7013(11) 0.5861(14) 0.228(12) Uiso 1 1 d . U .
OB O 0.9576(11) 0.7070(10) 0.5701(14) 0.228(12) Uiso 1 1 d . U .
loop_
_atom_site_aniso_label
_atom_site_aniso_U_11
_atom_site_aniso_U_22
_atom_site_aniso_U_33
_atom_site_aniso_U_23
_atom_site_aniso_U_13
_atom_site_aniso_U_12
K1 0.076(8) 0.163(10) 0.176(10) -0.079(8) -0.038(7) 0.079(8)
K2 0.46(4) 0.144(11) 0.42(3) -0.141(15) -0.28(3) 0.230(18)
K3 0.203(16) 0.203(16) 0.39(3) -0.068(10) 0.068(10) 0.119(18)
loop_
_atom_type_symbol
_atom_type_description
_atom_type_scat_dispersion_real
_atom_type_scat_dispersion_imag
_atom_type_scat_source
C C 0.0033 0.0016 'International Tables Vol C Tables 4.2.6.8 and 6.1.1.4'
H H 0.0000 0.0000 'International Tables Vol C Tables 4.2.6.8 and 6.1.1.4'
K K 0.2009 0.2494 'International Tables Vol C Tables 4.2.6.8 and 6.1.1.4'
O O 0.0106 0.0060 'International Tables Vol C Tables 4.2.6.8 and 6.1.1.4'
loop_
_geom_angle_atom_site_label_1
_geom_angle_atom_site_label_2
_geom_angle_atom_site_label_3
_geom_angle
_geom_angle_site_symmetry_1
_geom_angle_site_symmetry_3
C2 C1 H1 114.8 . .
C2 C1 O5 102.1(13) . .
O5 C1 H1 114.8 . .
O14 C1 H1 114.8 . .
O14 C1 C2 111(2) . .
O14 C1 O5 98(2) . .
C1 C2 H2 103.5 . .
C3 C2 C1 121.7(19) . .
C3 C2 H2 103.5 . .
C3 C2 O2 122(3) . .
O2 C2 C1 99.7(19) . .
O2 C2 H2 103.5 . .
C2 C3 H3 101.6 . .
C2 C3 C4 120.8(17) . .
C2 C3 O3 123(2) . .
C4 C3 H3 101.6 . .
O3 C3 H3 101.6 . .
O3 C3 C4 104.4(19) . .
C3 C4 H4 109.4 . .
C3 C4 C5 107.5(14) . .
C5 C4 H4 109.4 . .
O4 C4 C3 107(2) . .
O4 C4 H4 109.4 . .
O4 C4 C5 114(2) . .
C4 C5 H5 104.4 . .
C6 C5 C4 121(3) . .
C6 C5 H5 104.4 . .
O5 C5 C4 116.1(13) . .
O5 C5 H5 104.4 . .
O5 C5 C6 105(2) . .
C5 C6 H6A 112.2 . .
C5 C6 H6B 112.2 . .
H6A C6 H6B 109.8 . .
O6 C6 C5 98(3) . .
O6 C6 H6A 112.2 . .
O6 C6 H6B 112.2 . .
C12 C11 H11 111.3 . .
C12 C11 O15 109(2) . .
C12 C11 O24 99(3) . .
O15 C11 H11 111.3 . .
O15 C11 O24 115(2) . .
O24 C11 H11 111.3 . .
C11 C12 H12 104.5 . .
C11 C12 C13 115(2) . .
C13 C12 H12 104.5 . .
O12 C12 C11 123(3) . .
O12 C12 H12 104.5 . .
O12 C12 C13 103(2) . .
C12 C13 H13 104.5 . .
C14 C13 C12 107(2) . .
C14 C13 H13 104.5 . .
O13 C13 C12 116(2) . .
O13 C13 H13 104.5 . .
O13 C13 C14 119(2) . .
C13 C14 H14 105.1 . .
C15 C14 C13 124(2) . .
C15 C14 H14 105.1 . .
C15 C14 O14 106(2) . .
O14 C14 C13 110(2) . .
O14 C14 H14 105.1 . .
C14 C15 H15 112.7 . .
C14 C15 C16 116(3) . .
C14 C15 O15 99.8(19) . .
C16 C15 H15 112.7 . .
O15 C15 H15 112.7 . .
O15 C15 C16 102(3) . .
C15 C16 H16A 109.3 . .
C15 C16 H16B 109.3 . .
H16A C16 H16B 108.0 . .
O16 C16 C15 111(3) . .
O16 C16 H16A 109.3 . .
O16 C16 H16B 109.3 . .
C22 C21 H21 106.3 . .
O25 C21 H21 106.3 . .
O25 C21 C22 110.2(14) . .
O25 C21 O34 129(3) . .
O34 C21 H21 106.3 . .
O34 C21 C22 97(2) . .
C21 C22 H22 102.7 . .
C23 C22 C21 113.3(16) . .
C23 C22 H22 102.7 . .
C23 C22 O22 117(3) . .
O22 C22 C21 115(2) . .
O22 C22 H22 102.7 . .
C22 C23 H23 99.5 . .
C22 C23 C24 119.8(16) . .
C24 C23 H23 99.5 . .
O23 C23 C22 120(2) . .
O23 C23 H23 99.5 . .
O23 C23 C24 112(2) . .
C23 C24 H24 94.6 . .
C25 C24 C23 117.3(13) . .
C25 C24 H24 94.6 . .
O24 C24 C23 111.8(19) . .
O24 C24 H24 94.6 . .
O24 C24 C25 128.9(19) . .
C24 C25 H25 102.2 . .
C24 C25 C26 129(3) . .
C24 C25 O25 115.4(16) . .
C26 C25 H25 102.2 . .
O25 C25 H25 102.2 . .
O25 C25 C26 101.8(18) . .
C25 C26 H26A 109.4 . .
C25 C26 H26B 109.4 . .
H26A C26 H26B 108.0 . .
O26 C26 C25 111(2) . .
O26 C26 H26A 109.4 . .
O26 C26 H26B 109.4 . .
C32 C31 H31 115.0 . .
C32 C31 O44 108(3) . .
O35 C31 H31 115.0 . .
O35 C31 C32 114.2(19) . .
O35 C31 O44 86(2) . .
O44 C31 H31 115.0 . .
C31 C32 H32 106.2 . .
C31 C32 C33 118(2) . .
C33 C32 H32 106.2 . .
O32 C32 C31 115(3) . .
O32 C32 H32 106.2 . .
O32 C32 C33 104(3) . .
C32 C33 H33 106.7 . .
C34 C33 C32 112(2) . .
C34 C33 H33 106.7 . .
O33 C33 C32 111.8(16) . .
O33 C33 H33 106.7 . .
O33 C33 C34 112.9(14) . .
C33 C34 H34 107.2 . .
C35 C34 C33 110.3(16) . .
C35 C34 H34 107.2 . .
O34 C34 C33 125(3) . .
O34 C34 H34 107.2 . .
O34 C34 C35 99(2) . .
C34 C35 H35 105.7 . .
C36 C35 C34 112.5(10) . .
C36 C35 H35 105.7 . .
O35 C35 C34 114(2) . .
O35 C35 H35 105.7 . .
O35 C35 C36 112(2) . .
C35 C36 H36A 109.8 . .
C35 C36 H36B 109.8 . .
H36A C36 H36B 108.2 . .
O36 C36 C35 109.5(15) . .
O36 C36 H36A 109.8 . .
O36 C36 H36B 109.8 . .
C42 C41 H41 109.3 . .
C42 C41 K1 106.1(18) . 8_655
K1 C41 H41 72.6 8_655 .
O45 C41 H41 109.3 . .
O45 C41 C42 121.8(19) . .
O45 C41 K1 49.7(15) . 8_655
O45 C41 O54 108(2) . .
O54 C41 H41 109.3 . .
O54 C41 C42 98(2) . .
O54 C41 K1 153.3(17) . 8_655
C41 C42 H42 99.6 . .
C41 C42 C43 110.7(15) . .
C43 C42 H42 99.6 . .
O42 C42 C41 121.7(18) . .
O42 C42 H42 99.6 . .
O42 C42 C43 119.3(18) . .
C42 C43 H43 101.8 . .
C44 C43 C42 116.2(19) . .
C44 C43 H43 101.8 . .
O43 C43 C42 113.5(17) . .
O43 C43 H43 101.8 . .
O43 C43 C44 118(2) . .
C43 C44 H44 105.9 . .
C45 C44 C43 117(2) . .
C45 C44 H44 105.9 . .
O44 C44 C43 113(2) . .
O44 C44 H44 105.9 . .
O44 C44 C45 109(2) . .
C44 C45 H45 104.3 . .
C46 C45 C44 113(2) . .
C46 C45 H45 104.3 . .
O45 C45 C44 113.4(19) . .
O45 C45 H45 104.3 . .
O45 C45 C46 116(3) . .
C45 C46 H46A 110.8 . .
C45 C46 H46B 110.8 . .
C45 C46 O46 105(3) . .
H46A C46 H46B 108.9 . .
O46 C46 H46A 110.8 . .
O46 C46 H46B 110.8 . .
C52 C51 H51 110.3 . .
O55 C51 H51 110.3 . .
O55 C51 C52 111.5(15) . .
O55 C51 O64 102(2) . .
O64 C51 H51 110.3 . .
O64 C51 C52 113(3) . .
C51 C52 H52 109.4 . .
C51 C52 C53 108(2) . .
C51 C52 K1 155.8(14) . 10_566
C53 C52 H52 109.4 . .
C53 C52 K1 91.6(16) . 10_566
K1 C52 H52 75.5 10_566 .
O52 C52 C51 106(2) . .
O52 C52 H52 109.4 . .
O52 C52 C53 114.2(17) . .
O52 C52 K1 51.5(14) . 10_566
C52 C53 H53 112.5 . .
C54 C53 C52 110(2) . .
C54 C53 H53 112.5 . .
O53 C53 C52 106(3) . .
O53 C53 H53 112.5 . .
O53 C53 C54 104(3) . .
C53 C54 H54 106.3 . .
C53 C54 C55 114(2) . .
C55 C54 H54 106.3 . .
O54 C54 C53 119(2) . .
O54 C54 H54 106.3 . .
O54 C54 C55 104(2) . .
C54 C55 H55 101.9 . .
C56 C55 C54 122(2) . .
C56 C55 H55 101.9 . .
C56 C55 O55 115(2) . .
O55 C55 C54 110.0(17) . .
O55 C55 H55 101.9 . .
C55 C56 H56A 114.1 . .
C55 C56 H56B 114.1 . .
H56A C56 H56B 111.3 . .
O56 C56 C55 87(2) . .
O56 C56 H56A 114.1 . .
O56 C56 H56B 114.1 . .
C62 C61 H61 108.7 . .
C62 C61 K1 98(2) . 9_565
K1 C61 H61 68.2 9_565 .
O65 C61 H61 108.7 . .
O65 C61 C62 113(3) . .
O65 C61 K1 50.8(18) . 9_565
O74 C61 H61 108.7 . .
O74 C61 C62 94(3) . .
O74 C61 K1 168(2) . 9_565
O74 C61 O65 123(3) . .
C61 C62 H62 108.6 . .
C61 C62 C63 110(2) . .
C63 C62 H62 108.6 . .
O62 C62 C61 111(3) . .
O62 C62 H62 108.6 . .
O62 C62 C63 110(3) . .
C62 C63 H63 110.4 . .
C64 C63 C62 111(3) . .
C64 C63 H63 110.4 . .
O63 C63 C62 106(3) . .
O63 C63 H63 110.4 . .
O63 C63 C64 108(3) . .
C63 C64 H64 112.7 . .
C63 C64 C65 108(2) . .
C63 C64 O64 106(3) . .
C65 C64 H64 112.7 . .
O64 C64 H64 112.7 . .
O64 C64 C65 105(3) . .
C64 C65 H65 109.6 . .
C64 C65 C66 116(3) . .
C66 C65 H65 109.6 . .
O65 C65 C64 106(2) . .
O65 C65 H65 109.6 . .
O65 C65 C66 106(3) . .
C65 C66 H66A 112.1 . .
C65 C66 H66B 112.1 . .
C65 C66 O66 98(3) . .
H66A C66 H66B 109.8 . .
O66 C66 H66A 112.1 . .
O66 C66 H66B 112.1 . .
C72 C71 H71 105.6 . .
O4 C71 H71 105.6 . .
O4 C71 C72 109(2) . .
O75 C71 H71 105.6 . .
O75 C71 C72 117.6(13) . .
O75 C71 O4 113(2) . .
C71 C72 H72 108.5 . .
C73 C72 C71 111(2) . .
C73 C72 H72 108.5 . .
O72 C72 C71 106(2) . .
O72 C72 H72 108.5 . .
O72 C72 C73 114(3) . .
C72 C73 H73 104.5 . .
C72 C73 C74 106(3) . .
C74 C73 H73 104.5 . .
O73 C73 C72 118(2) . .
O73 C73 H73 104.5 . .
O73 C73 C74 119(2) . .
C73 C74 H74 104.8 . .
C73 C74 C75 118(2) . .
C73 C74 O74 101(2) . .
C75 C74 H74 104.8 . .
C75 C74 O74 122(3) . .
O74 C74 H74 104.8 . .
C74 C75 H75 111.8 . .
C74 C75 C76 111.0(19) . .
C76 C75 H75 111.8 . .
O75 C75 C74 112(3) . .
O75 C75 H75 111.8 . .
O75 C75 C76 98(2) . .
C75 C76 H76A 107.7 . .
C75 C76 H76B 107.7 . .
H76A C76 H76B 107.1 . .
O76 C76 C75 119(2) . .
O76 C76 H76A 107.7 . .
O76 C76 H76B 107.7 . .
C52 K1 C41 81.4(7) 10_566 15_664
C61 K1 C41 146.7(8) 14_654 15_664
C61 K1 C52 113.1(8) 14_654 10_566
O12 K1 C41 85.6(7) . 15_664
O12 K1 C52 128.9(8) . 10_566
O12 K1 C61 104.6(8) . 14_654
O12 K1 O13 55.8(7) . .
O12 K1 O45 90.4(8) . 15_664
O12 K1 O46 74.5(8) . 15_664
O12 K1 O53 91.1(9) . 10_566
O13 K1 C41 140.5(6) . 15_664
O13 K1 C52 114.4(8) . 10_566
O13 K1 C61 62.7(9) . 14_654
O13 K1 O53 111.2(8) . 10_566
O45 K1 C41 22.9(5) 15_664 15_664
O45 K1 C52 95.7(8) 15_664 10_566
O45 K1 C61 124.0(9) 15_664 14_654
O45 K1 O13 144.1(7) 15_664 .
O45 K1 O46 60.6(8) 15_664 15_664
O45 K1 O53 78.0(8) 15_664 10_566
O46 K1 C41 80.8(8) 15_664 15_664
O46 K1 C52 149.1(9) 15_664 10_566
O46 K1 C61 72.0(9) 15_664 14_654
O46 K1 O13 95.3(8) 15_664 .
O46 K1 O53 135.4(9) 15_664 10_566
O52 K1 C41 105.9(7) 10_566 15_664
O52 K1 C52 24.5(5) 10_566 10_566
O52 K1 C61 91.1(8) 10_566 14_654
O52 K1 O12 131.4(9) 10_566 .
O52 K1 O13 95.3(8) 10_566 .
O52 K1 O45 118.4(8) 10_566 15_664
O52 K1 O46 152.9(9) 10_566 15_664
O52 K1 O53 61.6(8) 10_566 10_566
O53 K1 C41 55.8(7) 10_566 15_664
O53 K1 C52 41.8(7) 10_566 10_566
O53 K1 C61 152.0(9) 10_566 14_654
O65 K1 C41 124.1(8) 14_654 15_664
O65 K1 C52 106.8(8) 14_654 10_566
O65 K1 C61 24.7(6) 14_654 14_654
O65 K1 O12 121.1(9) 14_654 .
O65 K1 O13 87.3(9) 14_654 .
O65 K1 O45 102.9(9) 14_654 15_664
O65 K1 O46 64.3(9) 14_654 15_664
O65 K1 O52 91.5(8) 14_654 10_566
O65 K1 O53 147.6(9) 14_654 10_566
O66 K1 C41 78.2(7) 14_654 15_664
O66 K1 C52 65.3(8) 14_654 10_566
O66 K1 C61 81.2(9) 14_654 14_654
O66 K1 O12 156.7(10) 14_654 .
O66 K1 O13 141.1(9) 14_654 .
O66 K1 O45 68.4(8) 14_654 15_664
O66 K1 O46 86.4(9) 14_654 15_664
O66 K1 O52 69.9(9) 14_654 10_566
O66 K1 O53 93.4(9) 14_654 10_566
O66 K1 O65 58.5(9) 14_654 14_654
O5 K2 O5 114.8(11) . 17_655
O5 K2 O72 112.3(7) 17_655 6_556
O5 K2 O72 82.1(6) . 6_556
O5 K2 O72 82.1(6) 17_655 14_654
O5 K2 O72 112.3(7) . 14_654
O5 K2 O73 136.1(6) . 6_556
O5 K2 O73 136.1(6) 17_655 14_654
O5 K2 O73 79.2(7) 17_655 6_556
O5 K2 O73 79.2(7) . 14_654
O6 K2 O5 58.1(9) . .
O6 K2 O5 78.8(8) . 17_655
O6 K2 O5 58.1(9) 17_655 17_655
O6 K2 O5 78.8(8) 17_655 .
O6 K2 O6 95.8(15) . 17_655
O6 K2 O72 150.8(10) . 14_654
O6 K2 O72 150.8(10) 17_655 6_556
O6 K2 O72 55.1(8) 17_655 14_654
O6 K2 O72 55.1(8) . 6_556
O6 K2 O73 135.4(9) 17_655 6_556
O6 K2 O73 87.2(9) 17_655 14_654
O6 K2 O73 87.2(9) . 6_556
O6 K2 O73 135.4(9) . 14_654
O72 K2 O72 154.1(11) 14_654 6_556
O73 K2 O72 54.8(7) 6_556 6_556
O73 K2 O72 110.8(7) 6_556 14_654
O73 K2 O72 54.8(7) 14_654 14_654
O73 K2 O72 110.8(7) 14_654 6_556
O73 K2 O73 120.8(12) 14_654 6_556
O25 K3 O25 107.9(11) . 18_545
O25 K3 O26 55.0(8) . .
O25 K3 O26 54.9(8) 18_545 18_545
O25 K3 O26 62.2(8) 18_545 .
O25 K3 O26 62.2(8) . 18_545
O25 K3 O33 146.8(7) . 15_664
O25 K3 O33 74.9(7) . 5_766
O25 K3 O33 146.8(7) 18_545 5_766
O25 K3 O33 74.9(7) 18_545 15_664
O26 K3 O26 55.5(12) . 18_545
O26 K3 O33 103.0(8) 18_545 5_766
O26 K3 O33 129.8(9) . 5_766
O26 K3 O33 129.8(9) 18_545 15_664
O26 K3 O33 103.0(8) . 15_664
O32 K3 O25 113.6(8) 15_664 18_545
O32 K3 O25 92.4(8) 15_664 .
O32 K3 O25 113.6(8) 5_766 .
O32 K3 O25 92.4(8) 5_766 18_545
O32 K3 O26 139.7(11) 15_664 18_545
O32 K3 O26 139.7(11) 5_766 .
O32 K3 O26 84.4(9) 15_664 .
O32 K3 O26 84.4(9) 5_766 18_545
O32 K3 O32 135.8(15) 15_664 5_766
O32 K3 O33 99.1(9) 5_766 15_664
O32 K3 O33 99.1(9) 15_664 5_766
O32 K3 O33 58.2(8) 15_664 15_664
O32 K3 O33 58.2(8) 5_766 5_766
O33 K3 O33 121.4(14) 15_664 5_766
C2 O2 H2A 109.5 . .
C3 O3 H3A 109.5 . .
C4 O4 C71 114.9(17) . .
C1 O5 K2 107.8(16) . .
C5 O5 C1 122.0(19) . .
C5 O5 K2 112(2) . .
C6 O6 K2 121(3) . .
C6 O6 H6 109.5 . .
K2 O6 H6 128.7 . .
C12 O12 K1 120(2) . .
C12 O12 H12A 109.5 . .
K1 O12 H12A 121.1 . .
C13 O13 K1 116.5(16) . .
C13 O13 H13A 109.5 . .
K1 O13 H13A 133.5 . .
C1 O14 C14 115.0(17) . .
C15 O15 C11 111.2(15) . .
C16 O16 H16 109.5 . .
C22 O22 H22A 109.5 . .
C23 O23 H23A 109.5 . .
C24 O24 C11 122(3) . .
C21 O25 C25 107(2) . .
C21 O25 K3 120.5(18) . .
C25 O25 K3 118(2) . .
C26 O26 K3 123.1(19) . .
C26 O26 H26 109.5 . .
K3 O26 H26 122.4 . .
C32 O32 K3 118(2) . 8_655
C32 O32 H32A 109.5 . .
K3 O32 H32A 129.6 8_655 .
C33 O33 K3 114.7(13) . 8_655
C33 O33 H33A 109.5 . .
K3 O33 H33A 121.7 8_655 .
C21 O34 C34 115.7(15) . .
C31 O35 C35 116.7(13) . .
C36 O36 H36 109.5 . .
C42 O42 H42A 109.5 . .
C43 O43 H43A 109.5 . .
C44 O44 C31 114.9(17) . .
C41 O45 K1 107.4(18) . 8_655
C45 O45 C41 116(2) . .
C45 O45 K1 113(2) . 8_655
C46 O46 K1 118.5(19) . 8_655
C46 O46 H46 109.5 . .
K1 O46 H46 37.0 8_655 .
C52 O52 K1 104.0(17) . 10_566
C52 O52 H52A 109.5 . .
K1 O52 H52A 18.1 10_566 .
C53 O53 K1 112.0(18) . 10_566
C53 O53 H53A 109.5 . .
K1 O53 H53A 79.1 10_566 .
C54 O54 C41 119.5(18) . .
C51 O55 C55 114.2(13) . .
C56 O56 H56 109.5 . .
C62 O62 H62A 109.5 . .
C63 O63 H63A 109.5 . .
C51 O64 C64 112(2) . .
C61 O65 C65 115(3) . .
C61 O65 K1 104(2) . 9_565
C65 O65 K1 121(2) . 9_565
C66 O66 K1 124(2) . 9_565
C66 O66 H66 109.5 . .
K1 O66 H66 119.2 9_565 .
C72 O72 K2 111.5(16) . 9_565
C72 O72 H72A 109.5 . .
K2 O72 H72A 18.5 9_565 .
C73 O73 K2 121.0(15) . 9_565
C73 O73 H73A 109.5 . .
K2 O73 H73A 98.0 9_565 .
C61 O74 C74 120(3) . .
C71 O75 C75 103(2) . .
C76 O76 H76 109.5 . .
loop_
_geom_bond_atom_site_label_1
_geom_bond_atom_site_label_2
_geom_bond_distance
_geom_bond_site_symmetry_2
C1 H1 0.9800 .
C1 C2 1.52(2) .
C1 O5 1.57(2) .
C1 O14 1.44(2) .
C2 H2 0.9800 .
C2 C3 1.40(2) .
C2 O2 1.44(2) .
C3 H3 0.9800 .
C3 C4 1.506(7) .
C3 O3 1.470(14) .
C4 H4 0.9800 .
C4 C5 1.507(7) .
C4 O4 1.46(2) .
C5 H5 0.9800 .
C5 C6 1.501(8) .
C5 O5 1.463(14) .
C6 H6A 0.9700 .
C6 H6B 0.9700 .
C6 O6 1.48(3) .
C11 H11 0.9800 .
C11 C12 1.48(3) .
C11 O15 1.49(2) .
C11 O24 1.52(3) .
C12 H12 0.9800 .
C12 C13 1.51(2) .
C12 O12 1.454(18) .
C13 H13 0.9800 .
C13 C14 1.48(2) .
C13 O13 1.42(2) .
C14 H14 0.9800 .
C14 C15 1.47(2) .
C14 O14 1.473(14) .
C15 H15 0.9800 .
C15 C16 1.51(2) .
C15 O15 1.491(14) .
C16 H16A 0.9700 .
C16 H16B 0.9700 .
C16 O16 1.45(2) .
C21 H21 0.9800 .
C21 C22 1.54(2) .
C21 O25 1.449(13) .
C21 O34 1.470(13) .
C22 H22 0.9800 .
C22 C23 1.44(2) .
C22 O22 1.437(18) .
C23 H23 0.9800 .
C23 C24 1.48(2) .
C23 O23 1.43(2) .
C24 H24 0.9800 .
C24 C25 1.45(2) .
C24 O24 1.34(2) .
C25 H25 0.9800 .
C25 C26 1.51(2) .
C25 O25 1.482(14) .
C26 H26A 0.9700 .
C26 H26B 0.9700 .
C26 O26 1.451(8) .
C31 H31 0.9800 .
C31 C32 1.49(2) .
C31 O35 1.451(7) .
C31 O44 1.50(2) .
C32 H32 0.9800 .
C32 C33 1.512(19) .
C32 O32 1.43(2) .
C33 H33 0.9800 .
C33 C34 1.506(13) .
C33 O33 1.436(14) .
C34 H34 0.9800 .
C34 C35 1.500(3) .
C34 O34 1.487(14) .
C35 H35 0.9800 .
C35 C36 1.500(3) .
C35 O35 1.468(14) .
C36 H36A 0.9700 .
C36 H36B 0.9700 .
C36 O36 1.453(15) .
C41 H41 0.9800 .
C41 C42 1.497(14) .
C41 K1 3.51(2) 8_655
C41 O45 1.43(2) .
C41 O54 1.446(14) .
C42 H42 0.9800 .
C42 C43 1.53(2) .
C42 O42 1.36(3) .
C43 H43 0.9800 .
C43 C44 1.490(13) .
C43 O43 1.44(2) .
C44 H44 0.9800 .
C44 C45 1.487(14) .
C44 O44 1.450(14) .
C45 H45 0.9800 .
C45 C46 1.49(2) .
C45 O45 1.42(2) .
C46 H46A 0.9700 .
C46 H46B 0.9700 .
C46 O46 1.50(3) .
C51 H51 0.9800 .
C51 C52 1.53(2) .
C51 O55 1.457(12) .
C51 O64 1.497(19) .
C52 H52 0.9800 .
C52 C53 1.533(19) .
C52 K1 3.39(2) 10_566
C52 O52 1.45(2) .
C53 H53 0.9800 .
C53 C54 1.47(2) .
C53 O53 1.37(4) .
C54 H54 0.9800 .
C54 C55 1.52(2) .
C54 O54 1.43(2) .
C55 H55 0.9800 .
C55 C56 1.465(18) .
C55 O55 1.470(12) .
C56 H56A 0.9700 .
C56 H56B 0.9700 .
C56 O56 1.453(8) .
C61 H61 0.9800 .
C61 C62 1.50(2) .
C61 K1 3.34(4) 9_565
C61 O65 1.44(2) .
C61 O74 1.42(3) .
C62 H62 0.9800 .
C62 C63 1.53(3) .
C62 O62 1.45(2) .
C63 H63 0.9800 .
C63 C64 1.49(3) .
C63 O63 1.448(8) .
C64 H64 0.9800 .
C64 C65 1.518(19) .
C64 O64 1.50(4) .
C65 H65 0.9800 .
C65 C66 1.52(2) .
C65 O65 1.50(4) .
C66 H66A 0.9700 .
C66 H66B 0.9700 .
C66 O66 1.64(5) .
C71 H71 0.9800 .
C71 C72 1.492(13) .
C71 O4 1.469(14) .
C71 O75 1.439(12) .
C72 H72 0.9800 .
C72 C73 1.48(2) .
C72 O72 1.458(19) .
C73 H73 0.9800 .
C73 C74 1.499(8) .
C73 O73 1.43(2) .
C74 H74 0.9800 .
C74 C75 1.52(2) .
C74 O74 1.53(4) .
C75 H75 0.9800 .
C75 C76 1.52(2) .
C75 O75 1.498(19) .
C76 H76A 0.9700 .
C76 H76B 0.9700 .
C76 O76 1.451(8) .
K1 C41 3.51(2) 15_664
K1 C52 3.39(2) 10_566
K1 C61 3.34(4) 14_654
K1 O12 2.77(3) .
K1 O13 2.99(3) .
K1 O45 2.80(3) 15_664
K1 O46 2.84(3) 15_664
K1 O52 2.73(3) 10_566
K1 O53 3.02(3) 10_566
K1 O65 2.68(3) 14_654
K1 O66 2.66(3) 14_654
K2 O5 2.86(3) .
K2 O5 2.86(3) 17_655
K2 O6 2.61(3) .
K2 O6 2.61(3) 17_655
K2 O72 3.37(3) 6_556
K2 O72 3.37(3) 14_654
K2 O73 3.13(3) 6_556
K2 O73 3.13(3) 14_654
K3 O25 2.85(3) .
K3 O25 2.85(3) 18_545
K3 O26 2.87(4) .
K3 O26 2.87(4) 18_545
K3 O32 2.72(3) 5_766
K3 O32 2.72(3) 15_664
K3 O33 2.91(3) 5_766
K3 O33 2.91(3) 15_664
O2 H2A 0.8200 .
O3 H3A 0.8200 .
O6 H6 0.8200 .
O12 H12A 0.8200 .
O13 H13A 0.8200 .
O16 H16 0.8200 .
O22 H22A 0.8200 .
O23 H23A 0.8200 .
O26 H26 0.8200 .
O32 K3 2.72(3) 8_655
O32 H32A 0.8200 .
O33 K3 2.91(3) 8_655
O33 H33A 0.8200 .
O36 H36 0.8200 .
O42 H42A 0.8200 .
O43 H43A 0.8200 .
O45 K1 2.80(3) 8_655
O46 K1 2.84(3) 8_655
O46 H46 0.8200 .
O52 K1 2.73(3) 10_566
O52 H52A 0.8200 .
O53 K1 3.02(3) 10_566
O53 H53A 0.8200 .
O56 H56 0.8200 .
O62 H62A 0.8200 .
O63 H63A 0.8200 .
O65 K1 2.68(3) 9_565
O66 K1 2.66(3) 9_565
O66 H66 0.8200 .
O72 K2 3.37(3) 9_565
O72 H72A 0.8200 .
O73 K2 3.13(3) 9_565
O73 H73A 0.8200 .
O76 H76 0.8200 .
loop_
_geom_torsion_atom_site_label_1
_geom_torsion_atom_site_label_2
_geom_torsion_atom_site_label_3
_geom_torsion_atom_site_label_4
_geom_torsion
_geom_torsion_site_symmetry_1
_geom_torsion_site_symmetry_4
C1 C2 C3 C4 -47(5) . .
C1 C2 C3 O3 176(3) . .
C2 C1 O5 C5 -42(3) . .
C2 C1 O5 K2 89.8(18) . .
C2 C1 O14 C14 -136(2) . .
C2 C3 C4 C5 42(4) . .
C2 C3 C4 O4 165(3) . .
C3 C4 C5 C6 -169(3) . .
C3 C4 C5 O5 -40(4) . .
C3 C4 O4 C71 140(2) . .
C4 C5 C6 O6 63(4) . .
C4 C5 O5 C1 47(4) . .
C4 C5 O5 K2 -83(3) . .
C5 C4 O4 C71 -101(3) . .
C5 C6 O6 K2 63(3) . .
C6 C5 O5 C1 -177(3) . .
C6 C5 O5 K2 53(3) . .
C11 C12 C13 C14 -39(4) . .
C11 C12 C13 O13 -175(3) . .
C11 C12 O12 K1 165(2) . .
C12 C11 O15 C15 -67(3) . .
C12 C11 O24 C24 -132(2) . .
C12 C13 C14 C15 47(4) . .
C12 C13 C14 O14 173(3) . .
C12 C13 O13 K1 -18(4) . .
C13 C12 O12 K1 -63(3) . .
C13 C14 C15 C16 -167(3) . .
C13 C14 C15 O15 -58(4) . .
C13 C14 O14 C1 95(3) . .
C14 C13 O13 K1 -148(2) . .
C14 C15 C16 O16 65(4) . .
C14 C15 O15 C11 64(3) . .
C15 C14 O14 C1 -128(3) . .
C16 C15 O15 C11 -177(2) . .
C21 C22 C23 C24 -22(6) . .
C21 C22 C23 O23 -168(3) . .
C22 C21 O25 C25 -67(3) . .
C22 C21 O25 K3 72(3) . .
C22 C21 O34 C34 -113(2) . .
C22 C23 C24 C25 12(7) . .
C22 C23 C24 O24 177(4) . .
C23 C24 C25 C26 -162(4) . .
C23 C24 C25 O25 -30(6) . .
C23 C24 O24 C11 117(4) . .
C24 C25 C26 O26 85(4) . .
C24 C25 O25 C21 57(4) . .
C24 C25 O25 K3 -82(3) . .
C25 C24 O24 C11 -80(6) . .
C25 C26 O26 K3 26(4) . .
C26 C25 O25 C21 -158(2) . .
C26 C25 O25 K3 62(3) . .
C31 C32 C33 C34 -43(4) . .
C31 C32 C33 O33 -171(3) . .
C31 C32 O32 K3 168(2) . 8_655
C32 C31 O35 C35 -38(4) . .
C32 C31 O44 C44 -113(3) . .
C32 C33 C34 C35 50(4) . .
C32 C33 C34 O34 168(3) . .
C32 C33 O33 K3 -34(3) . 8_655
C33 C32 O32 K3 -61(3) . 8_655
C33 C34 C35 C36 177(3) . .
C33 C34 C35 O35 -54(4) . .
C33 C34 O34 C21 113(3) . .
C34 C33 O33 K3 -161(2) . 8_655
C34 C35 C36 O36 68(4) . .
C34 C35 O35 C31 49(3) . .
C35 C34 O34 C21 -125(3) . .
C36 C35 O35 C31 178(2) . .
C41 C42 C43 C44 -31(4) . .
C41 C42 C43 O43 -173(3) . .
C42 C41 O45 C45 -42(4) . .
C42 C41 O45 K1 84(3) . 8_655
C42 C41 O54 C54 -119(3) . .
C42 C43 C44 C45 39(4) . .
C42 C43 C44 O44 166(3) . .
C43 C44 C45 C46 180(3) . .
C43 C44 C45 O45 -46(4) . .
C43 C44 O44 C31 115(3) . .
C44 C45 C46 O46 74(3) . .
C44 C45 O45 C41 45(4) . .
C44 C45 O45 K1 -79(3) . 8_655
C45 C44 O44 C31 -114(3) . .
C45 C46 O46 K1 35(3) . 8_655
C46 C45 O45 C41 178(3) . .
C46 C45 O45 K1 54(3) . 8_655
C51 C52 C53 C54 -57(3) . .
C51 C52 C53 O53 -169(3) . .
C51 C52 O52 K1 169.6(19) . 10_566
C52 C51 O55 C55 -57(3) . .
C52 C51 O64 C64 -112(3) . .
C52 C53 C54 C55 56(4) . .
C52 C53 C54 O54 180(3) . .
C52 C53 O53 K1 -32(3) . 10_566
C53 C52 O52 K1 -71(3) . 10_566
C53 C54 C55 C56 168(3) . .
C53 C54 C55 O55 -52(3) . .
C53 C54 O54 C41 118(3) . .
C54 C53 O53 K1 -146.7(16) . 10_566
C54 C55 C56 O56 65(3) . .
C54 C55 O55 C51 51(3) . .
C55 C54 O54 C41 -113(3) . .
C56 C55 O55 C51 -166(3) . .
C61 C62 C63 C64 -54(4) . .
C61 C62 C63 O63 -171(3) . .
C62 C61 O65 C65 -54(4) . .
C62 C61 O65 K1 82(3) . 9_565
C62 C61 O74 C74 -151(3) . .
C62 C63 C64 C65 64(4) . .
C62 C63 C64 O64 175(3) . .
C63 C64 C65 C66 179(3) . .
C63 C64 C65 O65 -63(4) . .
C63 C64 O64 C51 128(3) . .
C64 C65 C66 O66 61(4) . .
C64 C65 O65 C61 60(4) . .
C64 C65 O65 K1 -67(3) . 9_565
C65 C64 O64 C51 -119(3) . .
C65 C66 O66 K1 44(3) . 9_565
C66 C65 O65 C61 -176(3) . .
C66 C65 O65 K1 56(3) . 9_565
C71 C72 C73 C74 -50(4) . .
C71 C72 C73 O73 175(3) . .
C71 C72 O72 K2 -166.4(19) . 9_565
C72 C71 O4 C4 -114(2) . .
C72 C71 O75 C75 -62(3) . .
C72 C73 C74 C75 50(5) . .
C72 C73 C74 O74 -175(3) . .
C72 C73 O73 K2 -35(4) . 9_565
C73 C72 O72 K2 -44(3) . 9_565
C73 C74 C75 C76 -163(3) . .
C73 C74 C75 O75 -55(4) . .
C73 C74 O74 C61 123(4) . .
C74 C73 O73 K2 -164(3) . 9_565
C74 C75 C76 O76 48(4) . .
C74 C75 O75 C71 54(3) . .
C75 C74 O74 C61 -104(4) . .
C76 C75 O75 C71 170(2) . .
K1 C41 C42 C43 86(3) 8_655 .
K1 C41 C42 O42 -126(3) 8_655 .
K1 C41 O45 C45 -127(3) 8_655 .
K1 C41 O54 C54 84(4) 8_655 .
K1 C52 C53 C54 137(3) 10_566 .
K1 C52 C53 O53 26(2) 10_566 .
K1 C61 C62 C63 99(3) 9_565 .
K1 C61 C62 O62 -139(3) 9_565 .
K1 C61 O65 C65 -136(3) 9_565 .
K1 C61 O74 C74 33(14) 9_565 .
O2 C2 C3 C4 -176(3) . .
O2 C2 C3 O3 47(6) . .
O3 C3 C4 C5 -175(3) . .
O3 C3 C4 O4 -52(3) . .
O4 C4 C5 C6 73(4) . .
O4 C4 C5 O5 -159(3) . .
O4 C71 C72 C73 -65(3) . .
O4 C71 C72 O72 59(3) . .
O4 C71 O75 C75 65(3) . .
O5 C1 C2 C3 41(4) . .
O5 C1 C2 O2 179(3) . .
O5 C1 O14 C14 118(2) . .
O5 C5 C6 O6 -71(4) . .
O12 C12 C13 C14 -176(3) . .
O12 C12 C13 O13 48(4) . .
O13 C13 C14 C15 -180(3) . .
O13 C13 C14 O14 -53(4) . .
O14 C1 C2 C3 -62(4) . .
O14 C1 C2 O2 76(3) . .
O14 C1 O5 C5 71(3) . .
O14 C1 O5 K2 -157.1(13) . .
O14 C14 C15 C16 65(3) . .
O14 C14 C15 O15 173(2) . .
O15 C11 C12 C13 52(4) . .
O15 C11 C12 O12 180(3) . .
O15 C11 O24 C24 112(3) . .
O15 C15 C16 O16 -42(4) . .
O22 C22 C23 C24 -160(4) . .
O22 C22 C23 O23 54(6) . .
O23 C23 C24 C25 161(4) . .
O23 C23 C24 O24 -34(6) . .
O24 C11 C12 C13 -68(3) . .
O24 C11 C12 O12 60(4) . .
O24 C11 O15 C15 42(3) . .
O24 C24 C25 C26 35(7) . .
O24 C24 C25 O25 168(4) . .
O25 C21 C22 C23 50(4) . .
O25 C21 C22 O22 -170(3) . .
O25 C21 O34 C34 124(3) . .
O25 C25 C26 O26 -52(4) . .
O32 C32 C33 C34 -172(3) . .
O32 C32 C33 O33 60(4) . .
O33 C33 C34 C35 177(3) . .
O33 C33 C34 O34 -65(4) . .
O34 C21 C22 C23 -85(4) . .
O34 C21 C22 O22 54(4) . .
O34 C21 O25 C25 51(3) . .
O34 C21 O25 K3 -170.1(19) . .
O34 C34 C35 C36 44(3) . .
O34 C34 C35 O35 173(2) . .
O35 C31 C32 C33 36(5) . .
O35 C31 C32 O32 159(3) . .
O35 C31 O44 C44 133(2) . .
O35 C35 C36 O36 -63(3) . .
O42 C42 C43 C44 180(3) . .
O42 C42 C43 O43 38(5) . .
O43 C43 C44 C45 179(3) . .
O43 C43 C44 O44 -53(4) . .
O44 C31 C32 C33 -58(4) . .
O44 C31 C32 O32 66(4) . .
O44 C31 O35 C35 70(3) . .
O44 C44 C45 C46 51(3) . .
O44 C44 C45 O45 -175(3) . .
O45 C41 C42 C43 33(4) . .
O45 C41 C42 O42 -179(3) . .
O45 C41 O54 C54 113(3) . .
O45 C45 C46 O46 -59(3) . .
O52 C52 C53 C54 -175(3) . .
O52 C52 C53 O53 74(4) . .
O53 C53 C54 C55 169(3) . .
O53 C53 C54 O54 -68(3) . .
O54 C41 C42 C43 -84(3) . .
O54 C41 C42 O42 64(4) . .
O54 C41 O45 C45 70(3) . .
O54 C41 O45 K1 -163.2(16) . 8_655
O54 C54 C55 C56 37(4) . .
O54 C54 C55 O55 177(2) . .
O55 C51 C52 C53 58(3) . .
O55 C51 C52 K1 -159(4) . 10_566
O55 C51 C52 O52 -179(2) . .
O55 C51 O64 C64 128(2) . .
O55 C55 C56 O56 -73(3) . .
O62 C62 C63 C64 -177(3) . .
O62 C62 C63 O63 66(4) . .
O63 C63 C64 C65 -180(3) . .
O63 C63 C64 O64 -69(4) . .
O64 C51 C52 C53 -55(3) . .
O64 C51 C52 K1 88(6) . 10_566
O64 C51 C52 O52 68(3) . .
O64 C51 O55 C55 64(3) . .
O64 C64 C65 C66 67(4) . .
O64 C64 C65 O65 -176(3) . .
O65 C61 C62 C63 48(4) . .
O65 C61 C62 O62 170(3) . .
O65 C61 O74 C74 89(4) . .
O65 C65 C66 O66 -56(3) . .
O72 C72 C73 C74 -170(3) . .
O72 C72 C73 O73 55(4) . .
O73 C73 C74 C75 -176(3) . .
O73 C73 C74 O74 -41(5) . .
O74 C61 C62 C63 -81(3) . .
O74 C61 C62 O62 41(4) . .
O74 C61 O65 C65 57(4) . .
O74 C61 O65 K1 -167(3) . 9_565
O74 C74 C75 C76 71(4) . .
O74 C74 C75 O75 179(3) . .
O75 C71 C72 C73 65(4) . .
O75 C71 C72 O72 -171(3) . .
O75 C71 O4 C4 114(3) . .
O75 C75 C76 O76 -69(3) . .
loop_
_refln_index_h
_refln_index_k
_refln_index_l
_refln_F_squared_meas
_refln_F_squared_sigma
_refln_scale_group_code
0 0 12 17147.7 1276.44 1
0 0 15 368.806 227.416 1
0 0 18 343.392 314.085 1
-1 0 17 354.18 268.487 1
0 1 17 476.59 228.503 1
1 -1 17 872.299 408.077 1
-1 1 -14 145.141 40.3845 3
-1 0 14 267.346 257.158 1
0 1 14 38.0744 191.053 1
-1 0 11 2336.86 462.435 1
0 1 11 2463.43 430.917 1
-1 0 8 1740.45 334.694 1
-1 0 5 34479.6 1260.03 1
-1 1 7 717.254 248.426 1
-1 1 10 3540.67 505.099 1
-1 1 13 351.75 190.151 1
0 -1 13 137.464 199.314 1
0 -1 16 95.5777 128.693 1
1 0 16 166.687 240.218 1
-1 1 16 530.04 356.395 1
-2 1 6 1395.36 294.33 1
-2 1 9 375.051 105.913 1
-2 1 12 149.623 200.59 1
1 1 15 129.78 100.127 1
-2 1 15 721.434 356.189 1
-2 1 18 357.875 277.106 1
1 -2 18 503.645 335.617 1
1 1 18 39.266 156.208 1
-1 2 6 1576.85 282.049 1
-1 -1 6 1313.94 310.528 1
-1 -1 9 406.393 146.006 1
-1 2 9 563.884 158.427 1
-1 2 12 243.046 147.334 1
-1 -1 12 -18.3702 236.865 1
-1 2 15 444.333 240.109 1
-1 2 -15 417.476 153.828 3
-1 -1 15 266.816 219.477 1
-1 -1 18 785.285 389.145 1
-1 2 18 205.911 214.478 1
2 -1 18 547.697 307.176 1
-2 0 16 249.237 162.352 1
0 2 16 296.83 220.182 1
0 2 13 315.998 134.369 1
-2 0 13 147.87 168.817 1
-2 0 10 2093.62 421.899 1
0 2 10 1707.13 313.321 1
-2 0 7 4438.56 565.211 1
-2 0 4 2643.79 345.159 1
2 0 -4 2459.52 346.239 1
2 -2 -5 2960.75 468.074 2
-2 2 5 3289.18 399.74 1
2 -2 -5 2480.4 365.532 1
0 2 -5 2819.68 281.294 3
0 2 -8 4881.78 391.491 3
-2 2 8 4970.98 551.598 1
-2 2 11 783.424 273.077 1
0 2 -11 663.01 146.71 3
-2 2 14 27.529 166.115 1
0 -2 14 197.735 126.985 1
0 -2 17 4.02117 151.043 1
2 0 17 30.8589 151.79 1
-2 2 17 -23.6802 198.094 1
1 2 17 374.946 281.426 1
-3 1 17 277.045 242.844 1
1 2 14 -40.6319 104.66 1
-3 1 14 504.7 333.734 1
-3 1 11 975.465 283.097 1
2 1 -8 167.188 70.2864 3
-3 1 8 365.294 158.349 1
-3 1 5 977.049 245.631 1
1 -3 -5 499.828 183.672 2
2 1 -5 793.706 237.691 1
2 -3 -4 258.742 99.0186 1
-3 2 4 484.557 153.505 1
1 2 -4 415.394 102.22 3
2 -3 -4 218.351 121.802 2
-3 2 4 472.1 175.328 2
-3 2 7 5577.74 638.745 1
2 -3 -7 5032.51 680.079 2
1 2 -7 5539.78 439.179 3
-3 2 10 1226.98 309.642 1
1 2 -10 1113.15 202.418 3
1 2 -13 470.414 143.338 3
-3 2 13 -105.338 158.301 1
1 -3 16 430.608 347.871 1
-3 2 16 -204.583 236.529 1
2 -4 -3 1152.22 214.418 2
2 2 -6 5219.71 451.638 3
2 -4 -6 5058.23 602.34 2
2 -4 -6 4068.35 423.281 1
-4 2 6 5719.98 646.838 1
2 2 -9 -97.9556 91.9368 3
2 -4 -9 -100.076 313.041 2
-4 2 9 17.2388 181.788 1
2 -4 -12 635.621 245.591 2
2 2 -12 832.084 193.181 3
-4 2 12 835.156 224.336 1
2 -4 -15 972.144 553.278 2
-4 2 15 249.786 128.436 1
2 2 18 -29.0108 150.247 1
2 -4 18 237.805 241.87 1
-1 3 17 311.656 226.356 1
-2 3 -17 270.363 159.774 3
-2 -1 17 225.449 300.855 1
-1 3 14 30.4856 99.3588 1
-2 -1 14 124.424 220.224 1
-1 3 11 892.96 247.24 1
-2 -1 11 1038.71 335.003 1
-2 -1 8 570.347 228.635 1
-1 3 8 419.966 175.572 1
-2 -1 5 1330.94 293.66 1
3 -1 -5 465.704 176.397 1
-1 3 5 842.227 166.92 1
3 -1 -5 816.531 294.71 2
-1 -2 4 513.65 116.075 3
-2 3 4 366.977 113.285 1
3 -2 -4 365.665 155.01 2
3 -2 -4 367.699 146.456 1
-2 3 4 418.393 146.789 2
-1 -2 4 374.762 114.417 1
-1 -2 7 5872.95 662.742 1
3 -2 -7 5674.05 758.35 2
3 -2 -7 4418.83 579.164 1
-2 3 7 6896.25 628.061 1
-2 3 10 884.384 238.313 1
-1 -2 10 764.311 284.278 1
3 -2 -10 1062.08 386.855 2
-1 3 -13 596.042 241.331 3
-1 -2 13 -54.4766 135.318 1
3 -2 -13 795.026 520.158 2
-2 3 13 298.282 227.88 1
3 -2 -16 502.552 242.232 2
-1 -2 16 77.1596 137.312 1
-2 3 16 291.765 253.268 1
-3 3 -18 970.187 303.851 3
-3 0 18 623.629 341.958 1
3 0 -18 1478.19 742.445 2
0 3 18 750.097 326.881 1
-3 0 15 648.762 273.978 1
0 3 15 596.623 195.242 1
0 3 12 -59.5856 198.53 1
-3 0 12 82.8912 133.516 1
-3 0 9 5405.62 699.826 1
0 3 9 5191.62 549.537 1
3 0 -6 456.82 247.14 2
3 0 -6 416.43 212.085 1
-3 0 6 20.2011 100.258 1
-3 3 6 17422.6 1003.22 1
3 -3 -6 17377.2 1210.8 2
3 -3 -6 16130.4 1003.73 1
0 3 -6 15916.8 770.548 3
0 3 -9 527.929 126.301 3
-3 3 9 799.364 231.061 1
3 -3 -9 991.387 361.418 2
0 3 -12 748.13 203.604 3
-3 3 12 351.101 164.089 1
-3 3 15 2020.57 482.696 1
0 3 -15 2615.45 411.53 3
3 -3 -15 3076.72 877.557 2
0 -3 15 1729.69 461.569 1
-3 3 18 355.535 245.388 1
0 -3 18 644.289 384.071 1
0 3 -18 542.378 193.972 3
3 -3 -18 1419.66 761.519 2
1 3 16 368.235 248.632 1
-4 1 16 882.177 322.179 1
1 3 13 575.914 241.425 1
-4 1 13 227.848 202.443 1
-4 1 10 1349.21 366.064 1
1 -4 -7 809.084 273.553 2
-4 1 7 667.918 237.145 1
3 1 -4 1930.21 364.895 2
-4 1 4 2604.63 407.171 1
3 1 -4 2392.33 405.407 1
1 -4 -4 2108.25 286.917 2
1 -4 -4 2378.76 260.851 3
-4 1 4 2367.56 428.236 2
3 -4 -5 7594.39 605.914 1
-4 3 5 7649.18 779.816 2
-4 3 5 7540.65 679.254 1
3 -4 -5 7149.59 703.544 2
1 3 -5 7779.99 556.948 3
3 -4 -8 1341.32 376.953 2
-4 3 8 1520.24 325.176 1
3 -4 -8 1749.93 359.968 1
1 3 -8 2017.71 322.078 3
1 3 -11 671.757 206.225 3
-4 3 11 368.233 162.534 1
3 -4 -11 766.8 303.674 2
1 3 -14 25.1659 124.435 3
-4 3 14 409.512 285.942 1
1 -4 17 525.228 345.175 1
-4 3 17 538.059 269.295 1
2 3 17 103.233 106.774 1
-5 2 17 365.228 321.173 1
2 -5 -14 770.557 441.1 2
-5 2 14 517.003 256.393 1
-5 2 11 -177.427 270.822 1
2 -5 -11 -116.242 251.528 2
2 -5 -8 4262.81 621.127 2
3 2 -8 6036.35 579.945 3
-5 2 8 5178.46 679.094 1
3 2 -5 3005.98 397.47 3
3 2 -5 3170.63 530.72 1
2 -5 -5 2394.8 275.671 1
-5 2 5 3481.05 589.958 2
2 -5 -5 3316.29 439.871 2
-5 2 5 3881.93 554.049 1
-5 3 -2 2027.98 299.814 1
3 2 4 9461.86 496.251 1
2 3 -4 6937.78 688.407 1
3 -5 -4 7035.62 643.594 2
3 -5 -4 6727.59 506.442 1
-5 3 4 8502.47 738.799 1
2 3 -4 7514.65 581.168 3
-5 3 4 8621.12 817.365 2
2 3 -7 80.2575 123.324 3
-5 3 7 299.505 222.792 2
3 -5 -7 -97.0067 201.034 2
-5 3 7 501.152 213.051 1
3 -5 -7 408.208 201.734 1
2 3 -10 962.673 226.467 3
3 -5 -10 891.974 283.308 2
-5 3 10 669.17 312.059 1
-5 3 13 441.697 264.965 1
3 -5 -13 411.365 273.084 2
-5 3 16 530.686 310.882 1
3 -5 -16 622.591 432.01 2
3 3 -3 1849.97 363.462 1
3 3 -3 1893.36 324.874 3
-6 3 3 2316.89 447.757 2
3 -6 3 2093.3 269.41 4
-6 3 -3 2106.36 354.612 1
3 -6 -3 1826.54 288.446 2
-6 3 3 2172.43 386.032 1
3 3 6 7960.84 484.95 1
3 3 -6 9449.32 967.319 1
3 -6 -6 9459.37 840.189 2
-6 3 6 10271.3 931.644 1
-6 3 6 8866.5 965.445 2
3 -6 -6 8546.26 617.094 1
3 3 -6 9755.23 743.583 3
3 -6 -9 3055.58 565.483 2
-6 3 9 2884.04 530.423 1
3 3 -9 3101.75 440.874 3
3 3 -12 4328.34 551.537 3
-6 3 12 3637.37 653.348 1
3 -6 -12 3857.65 844.055 2
3 -6 -15 1091 575.865 2
-6 3 15 389.952 233.633 1
3 3 18 94.5521 209.925 1
3 -6 -18 -228.813 297.575 2
4 -2 -3 1576.53 349.855 2
4 -2 -6 6110.45 714.764 1
4 -2 -6 6137.52 799.734 2
-2 -2 6 4789.79 394.134 3
-2 -2 6 4732.96 600.072 1
-2 4 6 5183.72 474.602 1
4 -2 -9 267.061 215.72 2
-2 -2 9 117.108 104.96 1
4 -2 -9 -195.077 273.769 1
-2 4 9 259.662 147.364 1
-2 4 12 598.074 248.443 1
-2 -2 12 624.129 246.301 1
4 -2 -12 862.56 338.596 2
-2 -2 15 374.351 154.823 1
-2 -2 -15 467.633 140.635 3
4 -2 -15 1038.05 506.668 2
-2 4 -15 417.204 188.957 3
-2 4 15 312.657 148.763 1
-2 -2 18 234.22 292.662 1
-2 4 -18 807.727 279.286 3
-2 4 18 145.352 241.93 1
4 -2 -18 -92.684 506.629 2
-1 4 16 617.816 298.594 1
-3 -1 16 496.719 215.19 1
-1 4 13 303.447 162.477 1
-3 -1 13 747.761 289.791 1
-1 -3 -13 518.59 127.467 3
4 -1 -13 673.583 349.801 2
-3 -1 10 1021.26 244.816 1
-1 -3 -10 1184.38 209.563 3
-1 4 10 1123.61 262.969 1
4 -1 -10 1129.25 434.512 2
-3 -1 7 752.008 282.056 1
-1 -3 -7 831.818 189.623 3
-3 -1 7 795.055 153.916 3
-1 4 7 775.921 169.537 1
4 -1 -7 1079.47 348.817 1
4 -1 -7 1194.49 392.797 2
-3 -1 4 2025.87 278.948 3
-3 -1 4 1913.1 338.007 1
4 -1 -4 2267.72 402.746 1
-1 4 4 2494.03 269.255 3
-1 -3 -4 2374.1 300.121 3
4 -1 -4 2107.8 403.368 2
4 -3 -5 6846.62 762.725 2
-1 -3 5 6517.3 479.914 3
-1 -3 5 7166.32 659.469 1
-3 4 5 8139.26 608.371 1
4 -3 -5 7668.74 715.056 1
-3 4 5 8372.98 733.486 2
4 -3 -8 1649.61 393.326 2
-1 -3 8 1252.1 256.052 1
-3 4 8 1714.62 350.886 1
4 -3 -8 1813.25 370.082 1
4 -3 -11 837.922 419.409 2
-1 4 -11 607.154 187.279 3
-3 4 11 98.9932 90.1367 1
-1 -3 11 82.5476 110.163 1
-1 4 -14 381.47 200.488 3
-1 -3 14 291.15 238.282 1
4 -3 -14 660.651 425.587 2
-3 4 14 328.892 219.28 1
-1 4 -17 1067.81 299.158 3
-1 -3 17 591.837 344.055 1
-3 4 17 1360.36 517.377 1
4 -3 -17 956.525 650.997 2
-4 0 17 327.133 255.719 1
4 0 -17 303.528 407.975 2
0 4 17 167.686 211.307 1
4 0 -14 802.545 502.011 2
-4 0 14 511.059 285.16 1
0 4 14 515.352 271.293 1
-4 0 11 2555.75 532.151 1
0 4 11 1859.73 329.308 1
4 0 -11 2524.93 632.816 2
0 -4 -11 1705.55 241.931 3
-4 0 8 3005.74 500.851 1
4 0 -8 2949.59 653.484 2
0 4 8 3630.62 399.518 1
0 -4 -8 2224.43 268.766 3
-4 0 8 2420.2 270.358 3
4 0 -8 2280.63 491.654 1
4 0 -5 1159.39 318.848 2
0 -4 -5 1663.9 256.11 3
0 4 5 2102.45 295.359 3
4 0 -5 1387.48 345.617 1
-4 0 5 1692.7 374.38 1
-4 4 4 41599.6 1664.19 2
0 4 -4 38223.9 1305.25 3
-4 4 4 43753.6 1434.86 1
4 -4 -4 38547.6 1442.27 1
4 -4 -4 40174.7 1700.11 2
4 -4 -7 653.582 248.143 1
0 4 -7 920.308 201.506 3
-4 4 7 809.451 228.983 1
4 -4 -7 781.097 274.737 2
4 -4 -10 875.529 345.947 2
-4 4 10 626.474 210.467 1
0 4 -10 1084.43 230.031 3
-4 4 13 1646.73 469.197 1
0 -4 13 548.168 310.804 1
4 -4 -13 1448.93 596.454 2
0 4 -13 2378.46 421.118 3
0 4 -16 334.228 159.44 3
0 -4 16 -442.663 363.234 1
4 -4 -16 499.159 500.242 2
-4 4 16 -57.7656 186.479 1
1 -5 -18 287.901 263.125 2
1 4 18 48.8708 114.652 1
-5 1 18 450.965 292.213 1
4 1 -18 657.05 649.813 2
-5 1 15 104.409 182.888 1
1 -5 -15 162.064 300.457 2
1 4 15 60.8584 133.926 1
1 4 12 805.633 216.419 1
1 -5 -12 1034.23 399.849 2
-5 1 12 925.021 355.673 1
1 -5 -9 415.539 97.5738 3
1 -5 -9 359.268 151.07 2
-5 1 9 500.881 122.503 3
-5 1 9 499.755 215.596 1
4 1 -6 1318.45 365.002 1
1 -5 -6 1395.22 232.451 3
4 1 -6 1557.03 452.528 2
-5 1 6 2190.97 486.624 1
-5 1 6 1666.3 448.558 2
1 -5 -6 1243.32 293.366 2
-5 1 3 651.624 210.804 2
4 1 -3 610.512 222.227 1
4 1 -3 707.815 203.35 2
1 4 3 914.56 186.789 3
1 -5 -3 551.013 152.534 3
-5 1 3 420.682 164.773 1
4 1 3 593.701 148.096 1
-5 1 -3 500.728 150.214 1
4 -5 -3 482.277 142.384 1
1 4 -3 563.616 155.721 3
-5 4 3 318.832 145.062 1
-5 4 3 350.372 166.207 2
4 1 3 634.064 166.886 4
4 -5 -3 264.961 113.029 2
4 -5 -6 4452.4 541.433 1
1 4 -6 4242.59 485.293 3
-5 4 6 5794.46 751.574 2
-5 4 6 5364.06 633.762 1
4 -5 -6 4597.74 665.592 2
4 -5 -9 337.729 142.672 1
1 4 -9 501.165 176.577 3
4 -5 -9 592.931 257.441 2
-5 4 9 381.048 140.244 1
-5 4 12 1094.51 360.664 1
4 -5 -12 1326.41 464.767 2
1 4 -12 2142.49 397.288 3
1 4 -15 367.494 166.895 3
-5 4 15 476.55 296.19 1
4 -5 -15 960.383 537.83 2
-5 4 18 926.31 455.171 1
1 4 -18 253.246 134.039 3
4 -5 -18 1135.46 670.902 2
1 -5 18 130.365 190.862 1
2 4 16 210.116 127.881 1
2 -6 -16 519.589 405.192 2
-6 2 16 321.51 207.953 1
2 -6 -13 450.397 422.841 2
-6 2 13 18.1684 179.096 1
2 -6 -10 784.126 279.993 2
-6 2 10 525.888 255 1
-6 2 10 413.602 102.524 3
-6 2 7 8293.55 953.118 2
-6 2 7 8303.44 870.276 1
4 2 -7 9040.64 1010.73 1
2 -6 -7 8384.74 804.895 2
4 2 -4 2725.17 489.285 1
-6 2 4 2584.8 464.887 1
2 -6 -4 2573.06 335.498 2
-6 2 4 2536.37 465.988 2
4 2 -4 2554.93 461.588 2
4 2 -1 1817.24 329.656 1
-6 4 -1 2413.64 374.244 2
-6 2 1 2136.4 350.034 2
4 -6 -2 1394.62 256.444 2
-6 4 2 1333.26 264.562 1
4 -6 -2 1673.21 246.98 1
4 2 2 1521.65 237.884 1
-6 2 -2 2353.16 346.971 1
-6 4 2 1130.02 260.027 2
-6 2 -2 2404.51 341.845 2
4 2 2 1463.41 279.895 4
2 4 -2 1638.55 305.19 3
2 -6 2 1944.38 274.84 4
2 4 -2 1172.66 250.118 1
-6 4 5 39490.4 1698.87 1
4 2 5 39212.1 1181.13 1
2 4 -5 36078.5 1436.75 3
4 -6 -5 33956.6 1313.64 1
4 -6 -5 34416.4 1621.34 2
-6 4 5 38240.2 1889.94 2
4 -6 -8 3004.99 565.987 2
4 -6 -8 2733.99 439.247 1
-6 4 8 3473.68 569.318 1
2 4 -8 2895.78 429.677 3
-6 4 8 2636.88 538.318 2
4 -6 -11 857.673 322.973 2
-6 4 11 1161.41 323.613 1
2 4 -11 1239.12 294.03 3
-6 4 14 100.961 135.835 1
2 4 -14 610.846 243.778 3
4 -6 -14 489.556 452.969 2
-6 4 17 337.572 357.336 1
4 -6 -17 206.209 550.108 2
-7 3 17 394.835 306.682 1
3 4 17 -96.2315 117.271 1
3 -7 -17 857.889 601.579 2
3 -7 -14 270.446 182.196 2
-7 3 14 753.689 291.598 1
-7 3 11 182.407 219.88 1
3 -7 -11 138.647 186.436 2
-7 3 11 364.763 114.113 3
-7 3 8 543.104 270.26 2
3 -7 -8 438.64 140.498 1
3 -7 -8 826.399 232.059 2
-7 3 8 640.358 277.124 1
4 3 -5 9741.14 1009.16 2
3 4 5 10145.1 521.262 1
4 3 -5 10216.1 1003.17 1
-7 3 5 9546.03 994.904 2
-7 3 5 9690.57 924.407 1
3 -7 -5 9191.49 753.416 2
3 -7 -5 8697.31 548.166 1
-7 3 2 3770.56 536.807 2
4 3 -2 3120.49 487.781 1
4 3 -2 2986.59 454.472 2
3 -7 -2 2888.62 288.982 1
3 4 2 3145.76 477.066 4
-7 3 2 3583.89 494.208 1
4 -7 2 3397.73 372.524 4
3 4 2 3146.47 344.168 1
3 -7 -2 3114.26 330.729 2
-7 4 -2 3541.6 462.493 1
-7 4 -2 3120.16 460.911 2
4 -7 -1 858.398 189.191 1
3 4 -1 696.183 220.443 4
4 3 1 738.419 223.316 4
4 3 1 734.382 156.961 2
3 4 -1 771.714 210.815 3
-7 3 -1 594.1 183.464 2
3 4 -1 970.441 223.211 2
-7 3 -1 572.804 196.281 1
4 -7 -1 706.528 168.607 2
3 4 -1 681.075 220.823 1
-7 4 1 635.123 193.795 2
4 3 1 982.585 236.283 1
3 -7 1 790.286 210.361 4
-7 4 1 622.394 194.096 1
-7 4 4 2383.36 508.269 2
-7 4 4 2221.15 433.402 1
4 -7 -4 1859.93 361.832 2
3 4 -4 1839.23 396.564 1
4 3 4 3174.77 338.185 1
4 -7 -4 1659.19 278.11 1
3 4 -4 1882.97 354.986 3
-7 3 -4 1979.79 389.331 1
-7 4 7 2269.34 477.371 1
3 4 -7 1580.11 319.738 3
-7 4 7 2230.33 538.264 2
4 3 7 2869.87 342.955 1
4 -7 -7 1992.09 427.176 2
4 -7 -7 1633.78 298.342 1
4 -7 -10 1263.55 300.084 1
-7 4 10 1260.03 428.521 1
4 -7 -10 1070.86 384.714 2
-7 4 13 445.561 280.92 1
3 4 -13 1056.3 294.77 3
4 -7 -13 858.777 442.171 2
-7 4 16 538.168 315.993 1
4 -7 -16 1140.47 507.622 2
-8 4 0 68027.7 2220.19 2
4 4 0 65030.2 2204.13 4
4 4 0 66395.8 2009.51 1
-8 4 0 68260.4 2202.55 1
4 4 0 66764.6 1845.24 2
-8 4 3 5042.94 644.529 1
-8 4 3 4679.81 669.125 2
4 -8 -3 3578.82 431.721 2
-8 4 -3 3623.04 522.404 1
4 -8 -3 3586.63 373.848 1
4 4 3 4577.65 426.177 1
4 4 -3 3302.61 500.467 3
4 4 -3 3419.87 534.066 1
4 4 -3 2951.19 506.515 2
4 -8 3 3711.68 402.831 4
-8 4 -3 3391.41 499.497 2
4 4 3 4376.5 630.801 4
4 4 6 1456.53 234.636 1
4 4 -6 1093.75 410.66 1
4 4 -6 1665.31 355.322 3
-8 4 6 528.771 164.17 1
4 -8 -6 1197.94 250.848 1
-8 4 6 1329.29 351.044 2
4 -8 -6 1170.96 286.449 2
4 4 -9 5561.62 675.379 3
4 4 9 5299.62 496.876 1
-8 4 9 4200.02 770.343 2
-8 4 9 4864.92 768.263 1
4 -8 -9 4965 737.211 2
4 -8 -9 4233.63 514.285 1
-8 4 12 265.573 163.468 1
4 -8 -12 387.024 192.975 2
4 -8 -15 2.0884 287.645 2
-8 4 15 208.101 250.234 1
-3 5 -17 409.584 257.533 3
-2 -3 -17 153.966 101.836 3
-3 -2 17 126.291 318.423 1
5 -2 -17 348.183 376.84 2
-2 5 17 429.173 319.405 1
-2 5 14 567.959 234.975 1
5 -2 -14 555.359 388.186 2
-2 -3 -14 448.464 162.349 3
-3 -2 14 603.902 323.915 1
5 -2 -11 -343.273 408.935 2
-2 5 11 344.827 192.405 1
-3 -2 11 -72.8151 198.866 1
-3 -2 8 4597.24 661.045 1
5 -2 -8 4056.22 646.655 1
5 -2 -8 5790.59 894.067 2
-3 -2 8 5310.4 445.612 3
-2 5 8 4013.61 321.245 3
-2 5 8 5100.29 516.966 1
-3 -2 5 2611.65 434.491 1
-2 5 5 3461.75 331.353 1
-2 5 5 3134.01 316.909 3
-2 5 5 3570.38 436.735 2
5 -2 -5 3187.86 584.366 2
5 -2 -5 3114.09 528.351 1
-3 -2 5 3057.48 347.78 3
-3 5 -2 1997.86 273.056 4
-2 -3 4 8025.8 567.616 3
5 -3 -4 8002.65 756.098 1
5 -3 -4 8426.44 850.925 2
-3 5 4 7307.81 486.968 1
-2 -3 4 7816.87 683.145 1
-3 5 4 7445.64 652.289 2
5 -2 4 9883.76 690.208 1
5 -3 -7 389.24 186.107 2
-3 5 7 355.816 182.688 1
-2 -3 7 513.909 235.666 1
-2 -3 7 341.037 111.061 3
5 -3 -7 544.904 267.266 1
-3 5 10 852.566 203.301 1
5 -3 -10 864.563 455.683 2
-2 -3 10 287.364 117.065 1
5 -3 -10 482.636 223.04 1
-2 -3 13 141.269 254.035 1
-3 5 13 193.271 157.412 1
-2 -3 16 111.436 160.187 1
-3 5 16 107.304 119.456 1
5 -3 -16 1129.56 659.913 2
-2 5 -16 809.656 313.686 3
5 -1 -18 10.2103 356.527 2
-4 -1 18 245.267 201.709 1
-1 5 18 175.3 195.669 1
-4 -1 15 179.783 165.694 1
-1 5 15 77.6753 118.656 1
-4 -1 12 495.197 253.945 1
-1 -4 -12 636.207 148.373 3
-1 5 12 888.544 220.304 1
5 -1 -12 1386.26 549.722 2
5 -1 -9 657.821 227.9 1
5 -1 -9 236.741 153.607 2
-4 -1 9 567.349 270.409 1
-1 5 9 564.366 163.183 1
-1 -4 -9 670.044 155.724 3
-4 -1 9 622.914 158.884 3
-4 -1 6 1438.63 236.799 3
5 -1 -6 1365.95 408.739 1
-1 5 6 1970.31 267.383 1
-1 -4 -6 1584.62 273.384 3
-1 5 6 1844.08 267.811 3
-4 -1 6 1605.36 422.373 1
5 -1 -6 1998.25 509.356 2
-1 5 3 728.753 170.992 3
-4 -1 3 600.569 192.633 2
5 -1 -3 623.53 220.725 1
-4 -1 3 931.635 247.046 1
5 -1 -3 778.861 291.955 2
5 -4 3 683.129 176.724 1
-1 -4 -3 718.951 190.061 3
-4 5 3 398.108 175.917 2
-1 -4 3 486.332 135.784 3
5 -1 3 562.471 149.905 1
5 -4 -3 475.396 150.855 1
-1 5 -3 514.076 155.289 4
-4 -1 -3 335.671 97.1219 4
-1 -4 3 755.072 209.016 1
5 -4 -3 421.193 146.711 2
-4 -1 -3 500.552 141.02 1
-4 5 3 568.577 132.055 1
-1 5 -3 651.123 161.818 3
-4 5 6 4967.75 554.14 1
5 -4 -6 4788.35 616.297 1
5 -4 -6 4905.29 723.734 2
-1 -4 6 4416.66 440.495 3
-1 5 -6 4951.41 520.212 3
-4 5 6 4289.71 596.258 2
-1 -4 9 304.619 127.293 1
5 -4 -9 245.437 340.412 2
5 -4 -9 408.906 140.358 1
-4 5 9 824.056 245.511 1
-1 5 -9 582.693 196.434 3
-4 5 12 1002.74 273.999 1
-1 5 -12 1578.27 316.889 3
-1 -4 12 1063.55 283.234 1
5 -4 -12 1547.29 563.011 2
-1 -4 15 -358.363 301.068 1
-1 5 -15 567.027 260.903 3
-4 5 15 -26.0843 195.463 1
5 -4 -15 246.657 236.223 2
-1 5 -18 427.695 264.196 3
5 -4 -18 -27.8726 293.349 2
-4 5 18 625.395 364.251 1
-1 -4 18 204.91 267.703 1
5 0 -16 1409.36 674.69 2
-5 0 16 1223.02 414.553 1
0 5 16 308.458 164.209 1
0 5 13 928.244 281.67 1
5 0 -13 912.973 490.874 2
-5 0 13 721.572 271.139 1
0 -5 -13 719.095 181.85 3
-5 0 10 263.46 208.03 1
5 0 -10 523.263 229.546 1
-5 0 10 118.16 42.6177 3
0 5 10 121.949 79.6032 1
5 0 -10 62.3093 179.199 2
0 -5 -10 245.15 97.5035 3
5 0 -7 16865.3 1369.21 1
-5 0 7 15571.5 1208.27 1
0 5 7 15716.9 684.033 1
-5 0 7 16202.1 819.911 3
0 -5 -7 15720.8 832.802 3
5 0 -7 17209.5 1501.31 2
5 0 -4 18093.7 1275.29 2
5 0 -4 18021.9 1235.12 1
0 5 4 16783.2 833.989 3
0 -5 -4 15071.7 812.171 3
-5 0 4 16819.9 1162.33 2
-5 0 4 17364.4 1127.39 1
5 -5 -2 19852.4 1075.54 2
-5 5 2 20146.6 1074.83 2
-5 0 -2 27569.3 1103.27 1
-5 5 2 20331.6 942.062 1
5 -5 -2 18891 936.833 1
0 -5 2 25105.3 1037.58 4
0 5 -2 22227.4 1107.2 4
-5 0 -2 26811.6 914.451 4
0 -5 2 26521.8 1098.48 3
0 5 -2 23243.8 1083 3
-5 0 -2 27375.5 1030.06 2
5 0 5 1995.78 319.666 1
-5 5 5 1779.13 349.437 1
5 -5 -5 1347.98 287.591 1
-5 5 5 1820.35 406.55 2
0 5 -5 1361.5 269.508 3
5 -5 -5 1197.23 305.844 2
5 -5 -8 2077.05 448.354 2
5 -5 -8 1862.31 414.343 1
-5 5 8 2657.64 521.436 2
-5 5 8 2293.91 436.971 1
0 5 -8 1910.96 340.892 3
-5 5 11 2099.28 439.457 1
0 5 -11 2378.03 401.849 3
5 -5 -11 2341.81 497.482 1
5 -5 -11 2075.92 621.414 2
0 5 -14 259.092 121.214 3
0 -5 14 318.928 206.433 1
-5 5 14 252.284 244.563 1
0 5 -17 574.305 228.719 3
0 -5 17 268.327 210.143 1
5 -5 -17 952.278 675.269 2
-5 5 17 376.099 296.664 1
1 5 17 121.811 101.987 1
-6 1 17 259.459 262.337 1
5 1 -17 300.966 274.703 2
1 5 14 161.463 134.513 1
5 1 -14 127.946 318.057 2
-6 1 14 552.064 302.432 1
1 -6 -14 294.13 178.907 2
5 1 -11 2794.02 767.156 2
1 5 11 2398 370.939 1
1 -6 -11 2011.98 445.368 2
1 -6 -11 2211.8 307.63 3
-6 1 11 2275.34 495.068 1
-6 1 11 2116.55 278.059 3
1 -6 -8 355.815 100.89 3
-6 1 8 317.904 137.413 1
5 1 -8 811.389 339.107 1
1 -6 -8 742.456 227.626 2
5 1 -8 295.897 162.018 2
5 1 -5 5574.37 736.838 1
1 -6 -5 5322.71 502.281 3
-6 1 5 5875.95 770.606 2
5 1 -5 5987.53 782.714 2
1 -6 -5 5931.26 520.665 2
-6 1 5 5386.92 699.621 1
1 -6 -2 494.052 162.626 3
-6 1 2 368.844 145.399 1
1 5 2 592.903 188.018 3
5 1 -2 504.98 223.243 1
-6 1 2 570.717 208.722 2
5 1 -2 440.594 156.469 2
-6 5 -2 579.729 188.29 1
5 -6 -1 32926.1 1291.71 2
-6 5 1 32134 1401.15 2
5 1 1 32933.4 1250.15 1
5 1 1 35225.3 1311.91 4
1 -6 1 36953.5 1347.26 4
1 -6 1 37857.8 1387.64 3
1 5 -1 33405.5 1342.61 3
1 5 -1 34611.3 1445.31 4
-6 1 -1 34423.2 1361.2 1
5 -6 -1 32915.9 1198.52 1
-6 1 -1 33017.5 1313.2 2
-6 5 1 33080.6 1324.51 1
-6 1 -4 4706.2 510.268 1
5 -6 -4 3365.02 491.037 2
-6 5 4 3440.56 475.958 1
5 -6 -4 3359.01 418.218 1
5 1 4 5739.02 514.693 1
-6 1 -4 5974.98 468.235 4
1 5 -4 4425.33 525.787 3
-6 5 4 4426.03 614.961 2
1 5 -7 1808.71 328.505 3
5 -6 -7 1832.27 389.19 1
-6 5 7 1847.72 409.723 1
5 -6 -7 2162.44 478.172 2
5 1 7 1845.82 302.211 1
-6 5 7 1328.91 386.5 2
5 -6 -10 2149.73 444.04 1
5 -6 -10 2551.33 689.682 2
1 5 -10 2562.07 463.658 3
-6 5 10 2001.96 444.75 1
1 5 -13 864.743 298.803 3
-6 5 13 249.488 226.049 1
1 5 -16 397.709 215.939 3
5 -6 -16 434.796 545.774 2
1 -6 16 -214.47 262.886 1
-6 5 16 241.401 263.497 1
2 -7 -18 -21.2595 254.409 2
-7 2 18 -47.6816 239.554 1
2 5 18 43.8101 158.935 1
5 2 -18 -437.633 695.915 2
2 5 15 78.8638 137.343 1
5 2 -15 758.237 530.441 2
-7 2 15 387.052 261.872 1
2 -7 -15 -247.501 389.087 2
5 2 -12 316.307 185.181 2
-7 2 12 226.625 96.9487 3
-7 2 12 345.482 215.255 1
2 -7 -12 308.517 292.492 2
5 2 -9 5307.13 887.07 1
-7 2 9 4320.33 713.534 1
2 -7 -9 4829.9 669.859 2
-7 2 6 1119.54 379.128 2
5 2 -6 1527.06 441.711 2
-7 2 6 1879.17 461.034 1
5 2 -6 1056.26 294.313 1
2 -7 -6 869.241 243.208 2
2 -7 -3 10201.3 558.688 2
2 5 3 10986.3 827.728 3
5 -7 3 10362 558.835 4
-7 5 -3 10751.7 828.966 1
5 2 -3 10628.6 983.461 1
-7 2 3 7724.52 785.409 1
-7 2 3 8199.28 838.947 2
5 2 -3 10754.1 985.009 2
2 5 0 143.156 113.25 3
-7 5 0 413.716 174.454 2
5 2 0 215.997 161.35 1
5 2 0 333.237 124.728 4
2 -7 0 543.82 169.104 4
-7 5 0 172.483 92.4182 1
2 5 0 374.575 164.68 4
2 5 0 183.295 105.087 1
-7 2 0 296.806 153.19 1
5 -7 0 291.927 145.215 1
5 2 0 88.2117 84.92 2
-7 2 0 290.948 145.595 2
5 -7 -3 2993.46 368.21 1
-7 2 -3 3371.4 433.446 1
5 2 3 3120.17 448.648 4
-7 5 3 3614.64 536.706 2
2 -7 3 2946.4 377.576 4
5 2 3 3614.72 390.698 1
5 -7 -3 3218.78 460.617 2
-7 2 -3 3464.55 445.549 2
-7 5 3 3430.16 470.529 1
2 5 -3 3429.25 465.203 3
-7 5 6 6382.12 724.675 1
-7 5 6 6566.97 822.264 2
2 5 -6 5973.17 650.237 3
5 -7 -6 5571.36 683.838 2
5 2 6 6315.52 531.079 1
5 -7 -6 5922.48 616.701 1
5 -7 -9 774.291 282.994 2
-7 5 9 875.066 243.804 1
2 5 -9 1152.56 293.576 3
-7 5 9 897.328 315.314 2
5 -7 -9 1004.41 251.432 1
-7 5 12 -140.428 246.842 1
2 5 -12 257.613 117.673 3
-7 5 15 684.538 372.117 1
2 5 -15 1145.73 308.774 3
5 -7 -15 606.056 410.673 2
2 -7 18 492.288 285.111 1
-7 5 18 529.987 279.817 1
5 -7 -18 788.117 366.119 2
-8 3 16 709.398 369.741 1
3 -8 -16 519.521 258.66 2
5 3 -16 723.154 471.488 2
3 -8 -13 456.871 168.786 2
-8 3 13 276.538 270.031 1
-8 3 13 449.406 123.247 3
5 3 -13 134.914 333.491 2
-8 3 10 623.592 313.847 1
3 -8 -10 297.353 214.292 2
-8 3 7 3483.01 635.658 1
3 5 7 3007.74 303.748 1
-8 3 7 3623.23 674.041 2
3 -8 -7 3643.7 538.01 2
3 -8 -7 2896.68 343.407 1
5 3 -7 3768.54 686.615 1
5 3 -7 4285.51 768.829 2
-8 3 4 2417.31 520.159 1
-8 5 -4 3991.89 567.721 1
5 3 -4 2871.61 579.598 2
-8 3 4 2395.96 530.15 2
5 3 -4 2539.38 541.482 1
5 -8 4 2511.38 318.534 4
3 -8 -4 3172.46 407.323 2
-8 5 -1 10789.1 918.36 2
-8 3 1 11412.3 930.849 2
5 3 -1 10082.2 861.496 1
3 5 1 9554.89 564.3 2
3 5 1 9846.88 889.803 4
5 3 -1 10445.2 852.228 2
-8 5 -1 11805.8 905.196 1
3 5 1 8974.35 657.493 1
-8 3 1 10896.5 891.889 1
3 5 1 10370.7 859.387 3
-8 3 -2 1998.89 387.831 1
-8 3 -2 2158.91 388.331 2
3 5 -2 2362.89 408.018 1
5 3 2 2504.29 351.084 1
5 3 2 2642.33 465.382 4
3 -8 2 2862.28 401.693 4
5 -8 -2 2074.77 301.293 1
5 3 2 2391.41 298.585 2
3 5 -2 2465.55 409.982 3
5 -8 -2 2286.49 364.252 2
-8 5 2 2339.1 447.378 2
-8 5 2 2351.65 417.528 1
3 5 -2 2347.28 434.248 4
-8 5 5 5374.05 796.487 2
5 -8 -5 3953.54 460.334 1
3 5 -5 4812.22 626.611 3
5 -8 -5 4696.04 617.514 2
-8 5 5 5968.24 733.072 1
5 3 5 6489.73 542.253 1
-8 3 -5 6188.03 704.056 1
5 -8 -8 934.509 253.663 1
-8 5 8 1102.48 362.072 1
3 5 -8 1204.84 289.776 3
5 -8 -8 1011.98 302.21 2
5 3 8 1628.51 286.769 1
-8 5 8 970.404 252.195 2
5 -8 -11 71.8296 144.107 1
5 -8 -11 355.537 224.506 2
-8 5 11 308.08 193.135 1
5 -8 -14 422.359 271.83 2
3 5 -14 412.522 238.212 3
-8 5 14 334.152 188.282 1
-8 5 17 967.356 412.627 1
5 -8 -17 294.713 400.861 2
4 -9 -17 205.721 319.075 2
5 4 -17 -195.351 526.078 2
-9 4 17 -109.054 141.958 1
-9 4 14 451.415 247.107 1
-9 4 14 821.137 170.967 3
4 -9 -11 631.617 301.759 2
-9 4 11 632.099 215.004 1
4 -9 -8 140.201 117.569 1
-9 4 8 81.8594 186.954 2
4 5 8 301.181 107.412 1
-9 4 8 -35.9101 246.128 1
5 4 -8 -123.557 185.505 1
4 -9 -8 -356.759 275.076 2
4 5 5 2484.56 299.545 1
5 4 -5 2256.73 523.406 1
4 -9 -5 1826.05 367.217 2
5 4 -5 1870.06 481.091 2
-9 4 5 2824.59 559.362 1
4 -9 -5 1724.19 260.757 1
-9 4 5 2367.19 562.552 2
-9 4 2 5881.94 714.419 1
4 -9 -2 5201.12 492.868 2
4 5 2 5133.96 708.244 4
-9 5 -2 5321.29 660.562 2
4 -9 -2 4655.14 439.264 1
-9 4 2 6676.35 769.298 2
5 4 -2 5346.67 681.697 1
-9 5 -2 4852.03 636.483 1
5 -9 2 5867.9 586.458 4
5 4 -2 5194.85 648.596 2
4 5 2 5806.66 539.21 1
4 5 -1 5265.93 582.723 2
5 4 1 5195.54 487.811 2
5 4 1 5223.29 658.641 4
-9 4 -1 5898.03 720.197 2
4 5 -1 5891.44 713.721 3
-9 5 1 6017.77 730.159 2
-9 4 -1 5519.89 694.559 1
4 -9 1 6653.13 692.188 4
-9 5 1 6341.45 719.52 1
4 5 -1 5155.64 626.563 1
5 -9 -1 6813.78 586.795 1
5 4 1 5285.14 578.58 1
4 5 -1 5279.41 707.525 4
4 5 -4 2475.21 486.97 3
-9 5 4 3321.92 592.451 1
-9 4 -4 2087.96 410.722 2
5 4 4 2544.85 529.095 4
-9 4 -4 2235.84 421.283 1
4 -9 4 2914.82 414.517 4
-9 5 4 3009.8 602.012 2
4 5 -4 2164.16 438.901 1
5 4 4 2672.56 363.915 1
5 -9 -4 2138.12 402.508 2
5 -9 -4 2096.15 339.154 1
5 4 7 1040.62 214.75 1
-9 5 7 922.158 363.139 2
-9 5 7 848.219 285.208 1
4 5 -7 518.906 246.71 3
5 -9 -7 393.769 157.572 2
-9 4 -7 660.232 148.714 4
5 -9 -7 953.604 250.347 1
5 -9 -10 4740.28 764.311 2
4 5 -10 6245.57 780.95 3
-9 5 10 3682.51 699.276 1
5 -9 -10 3978.88 557.634 1
5 4 10 4013.6 458.502 1
-9 5 10 4447.52 871.566 2
5 -9 -13 1499.16 539.682 2
4 5 -13 1725.71 439.178 3
-9 5 13 1506.62 463.845 1
5 -9 -16 -23.8005 317.703 2
-9 5 16 62.1416 266.773 1
5 5 0 4035.46 544.905 1
5 5 0 4012.86 636.453 4
-10 5 0 4069.64 602.644 1
-10 5 0 4332.22 643.301 2
5 5 0 3860.21 497.002 2
-10 5 -3 4000.2 597.837 2
5 5 3 4908.75 395.05 2
5 -10 -3 3602.65 416.596 1
-10 5 3 5251.87 771.887 2
-10 5 3 5035.75 681.138 1
5 5 -3 4331.98 670.604 1
5 -10 3 4445.21 519.158 4
-10 5 -3 4224.92 629.739 1
5 5 3 5220.38 760.972 4
5 5 -3 3949.05 623.968 2
5 -10 -3 4278.19 510.539 2
5 5 3 4921.12 516.265 1
5 -10 -6 1710.29 308.552 1
5 5 -6 1636.8 513.115 1
5 5 6 2599.73 353.177 1
5 5 -6 1840.11 423.389 3
-10 5 6 1722.99 468.293 2
5 -10 -6 1662.45 401.301 2
5 5 -6 2030.59 529.443 2
-10 5 6 1573.14 458.105 1
-10 5 9 948.862 466.739 2
5 -10 -9 815.864 256.56 2
5 -10 -9 371.645 135.524 1
5 5 9 1343.92 253.733 1
-10 5 9 1327.43 454.928 1
-10 5 12 915.033 361.978 1
5 5 12 260.512 110.081 1
5 -10 -12 1016.24 446.214 2
-10 5 15 47.6773 198.492 1
-10 5 15 259.745 93.3244 3
5 -10 -15 45.5317 209.995 2
-3 -3 0 2049.57 267.16 2
-3 -3 -3 2166.08 400.342 4
6 -3 -3 1821.68 388.62 1
-3 -3 3 1706.75 287.928 3
-3 -3 3 1696.15 312.047 1
-3 6 -3 1780.81 279.962 4
-3 6 3 1802.87 290.026 2
6 -3 3 2792.25 404.5 1
6 -3 -3 2291.8 444.778 2
6 -3 -6 9647.18 1000.18 1
-3 -3 6 8741.63 634.509 3
-3 -3 6 8034.87 797.909 1
-3 6 6 8897.07 555.334 3
6 -3 -6 10571.4 1138.73 2
-3 6 6 8639.05 588.403 1
-3 6 6 10270.9 815.457 2
-3 -3 9 2084.51 444.277 1
6 -3 -9 2344.68 609.298 2
-3 6 9 3215.35 444.118 1
6 -3 -9 3224.73 606.875 1
-3 6 9 2269.6 259.134 3
-3 -3 9 2561.88 347.694 3
6 -3 -12 3933.03 739.866 1
-3 6 12 3548.02 535.842 1
6 -3 -12 5192.55 1019.74 2
-3 -3 12 2013.39 476.46 1
6 -3 -15 669.262 408.83 2
-3 -3 15 267.95 126.282 1
-3 -3 -15 237.994 159.718 3
-3 6 15 305.693 250.847 1
6 -3 -18 -342.368 512.823 2
-3 -3 18 286.704 312.031 1
-3 -3 -18 327.892 162.451 3
-3 6 -18 725.575 325.744 3
-3 6 18 417.096 163.139 1
-2 6 16 -31.9339 137.456 1
-4 -2 16 -15.5448 244.148 1
6 -2 -16 127.083 303.477 2
-2 -4 -16 131.813 135.154 3
-4 -2 13 596.56 318.929 1
-2 -4 -13 334.766 173.614 3
-2 6 13 474.026 242.91 1
6 -2 -13 527.474 434.622 2
-2 6 10 610.656 184.132 1
-4 -2 10 600.963 281.497 1
6 -2 -10 698.711 265.518 1
6 -2 -10 1140.89 501.041 2
-4 -2 10 525.931 124.971 3
-2 -4 -10 861.414 207.032 3
6 -2 -7 8182.44 933.55 1
6 -2 -7 8903.03 1081.71 2
-2 6 7 9147.03 610.032 1
-2 -4 -7 8581.99 691.483 3
-4 -2 7 8529.01 621.885 3
-2 6 7 7345.17 506.514 3
-4 -2 7 7644.91 828.06 1
-2 -4 -4 3293.03 412.813 3
-2 6 4 2686.78 327.595 3
6 -4 4 2191.13 349.139 1
-4 6 -4 2537.89 293.784 4
6 -2 -4 2974.14 521.021 1
6 -2 -4 3060.09 564.728 2
-2 6 4 2456.75 320.212 2
-4 -2 4 3376.11 417.292 3
-4 -2 4 2899.17 447.471 1
-4 -2 1 1902.05 326.713 1
-2 -4 -1 1758.24 247.556 1
-2 -4 -1 2109.4 327.658 3
-2 6 1 2097.24 320.921 3
-2 -4 -1 2140.44 341.518 4
-4 -2 1 1999.34 329.198 2
-4 -2 -2 1703.16 256.268 1
-4 -2 -2 1804.44 302.78 4
6 -2 2 1971.06 329.215 1
-2 -4 2 2303.25 336.637 3
-2 -4 2 2176.27 346.297 1
-4 6 2 1511.11 228.908 1
6 -4 -2 1316.44 274.202 1
-2 6 -2 1656.38 297.006 4
-4 6 2 1857.04 300.524 2
6 -4 -2 1340.62 301.073 2
6 -2 2 1740.81 308.915 2
6 -4 -5 38219.4 2005.62 2
-2 -4 5 37315.3 1656.06 1
-2 -4 5 38323.2 1349.08 3
-4 6 5 33001.7 1194.07 1
-4 6 5 33774.1 1539.47 2
6 -2 5 41324.5 1517.83 1
6 -4 -5 36458.6 1785 1
-2 -4 8 3304.11 415.702 3
-4 6 8 2106.27 257.061 3
-4 6 8 2817.28 430.902 1
6 -4 -8 2472.66 598.618 2
6 -4 -8 3465.55 608.12 1
-2 -4 8 3447.41 563.125 1
-2 -4 11 834.946 291.195 1
6 -4 -11 1281.01 462.638 2
-4 6 11 918.459 269.259 1
6 -4 -11 960.316 326.505 1
-2 -4 14 53.8946 140.465 1
-2 6 -14 117.28 180.708 3
-4 6 14 -153.148 226.733 1
-2 6 -17 485.175 263.576 3
6 -4 -17 169.09 380.664 2
-2 -4 17 619.339 363.314 1
-4 6 17 -33.9834 127.789 1
-1 6 17 303.323 232.626 1
-5 -1 17 359.459 264.767 1
6 -1 -17 482.234 458.138 2
-1 6 14 510.749 227.757 1
-5 -1 14 153.798 182.451 1
6 -1 -14 469.929 314.543 2
-1 -5 -14 -24.6587 97.1871 3
6 -1 -11 2605.29 646.743 1
-5 -1 11 2208.54 478.558 1
-5 -1 11 1952.43 291.948 3
-1 6 11 2395.06 376.362 1
-1 -5 -11 2177.22 335.104 3
6 -1 -11 3456.12 819.631 2
6 -1 -8 -59.6025 295.092 2
-5 -1 8 497.834 132.427 3
-1 -5 -8 322.365 97.8307 3
-1 6 8 578.055 167.373 1
-5 -1 8 595.656 243.291 1
6 -1 -8 452.944 254.662 1
-1 6 5 5461.12 495.812 3
-5 -1 5 5514.87 683.133 1
6 -1 -5 5197.81 760.898 2
6 -1 -5 6091.05 798.662 1
-1 -5 -5 5301.87 513.793 3
6 -1 -2 635.309 236.346 1
-5 -1 2 620.699 229.821 2
6 -1 -2 473.367 265.035 2
-5 -1 2 566.183 193.819 1
-1 -5 -2 566.322 168.121 3
-1 -5 -2 273.551 129.708 4
-1 6 2 320.635 108.074 3
6 -5 2 824.632 210.566 1
-5 6 1 31706.5 1152.81 1
-1 6 -1 32149.1 1328.48 3
6 -1 1 34338.2 1371.98 1
-5 -1 -1 33282.2 1268.23 1
6 -1 1 31246.2 1264.91 2
-1 -5 1 35651.2 1227.23 1
6 -5 -1 30599 1372.36 2
-5 -1 -1 32280.8 1155.97 2
-1 6 -1 34684.4 1448.88 4
-1 -5 1 38440.2 1347.17 4
-1 -5 1 35779.7 1337.37 3
-5 -1 -1 33696.7 1168.45 4
-5 6 1 33065.9 1317.98 2
6 -5 -1 32310.6 1318.01 1
-1 -5 4 6118.06 548.833 3
-5 -1 -4 5068.47 545.927 4
-5 6 4 3505.86 420.676 1
-1 6 -4 3688.66 484.846 3
6 -5 -4 3310.25 503.236 1
6 -5 -4 3678.28 573.54 2
-5 -1 -4 5089.05 468.324 1
-5 6 4 3297.66 499.482 2
6 -1 4 5061 529.445 1
6 -1 7 1776.04 328.91 1
-5 6 7 1559.34 310.617 1
-5 6 7 1984.39 410.332 2
6 -5 -7 2274.92 515.753 2
6 -5 -7 1654.15 412.008 1
-1 6 -7 1494.9 296.045 3
-5 6 10 2022.2 416.518 1
-1 -5 10 2102.09 450.618 1
6 -5 -10 2387.98 513.181 1
-1 6 -10 2783.42 482.272 3
6 -5 -10 1823.63 534.555 2
6 -5 -13 633.113 229.949 2
-1 -5 13 551.958 338.384 1
-1 6 -16 304.041 178.115 3
6 -5 -16 286.303 320.817 2
-1 -5 16 -63.3354 157.529 1
-5 6 16 301.175 249.312 1
-6 0 18 448.878 316.833 1
6 0 -18 346.475 276.724 2
0 6 18 -108.434 111.477 1
0 -6 -18 103.373 201.998 2
6 0 -15 56.8094 343.965 2
0 6 15 287.535 160.152 1
0 -6 -15 1000.07 477.549 2
-6 0 15 286.009 281.899 1
-6 0 12 409.066 268.198 1
-6 0 12 286.319 68.6958 3
0 -6 -12 522.633 151.204 3
6 0 -12 115.043 259.129 2
0 6 12 238.843 83.9009 1
0 6 9 1347.36 253.86 1
-6 0 9 1096.81 222.917 3
0 -6 -9 832.468 267.548 2
0 -6 -9 1018.87 229.312 3
-6 0 9 1268.14 482.219 1
6 0 -9 1571.76 548.617 1
0 -6 -6 746.209 232.269 2
-6 0 6 1330.92 415.237 1
-6 0 6 1133 353.059 2
6 0 -6 1133.27 471.448 2
0 6 6 1618.84 331.979 3
0 -6 -6 693.371 219.585 3
6 0 -6 824.285 408.247 1
-6 0 3 131625 3243.79 1
0 -6 -3 134724 2664.69 3
6 0 -3 128366 3468.52 2
-6 0 3 137110 3368.12 2
6 0 -3 128600 3384.86 1
0 6 3 141651 2710.23 3
-6 6 0 880.071 228.389 1
-6 6 0 876.306 251.94 2
-6 0 0 438.488 191.599 1
0 6 0 856.081 296.01 4
6 0 0 275.255 164.743 2
-6 0 0 367.887 178.84 2
6 0 0 283.667 160.22 1
0 -6 0 1173.66 290.813 4
0 -6 0 1408.85 315.738 3
6 -6 0 1329.32 311.806 2
6 -6 0 1215.27 296.781 1
0 6 0 670.167 243.85 3
6 0 3 8964.05 689.358 1
-6 0 -3 7388.36 543.417 4
0 -6 3 7789.87 656.937 3
-6 6 3 7729.92 744.793 2
-6 6 3 6997.49 613.104 1
6 -6 -3 7939.02 775.757 2
-6 0 -3 8555.35 668.529 1
6 -6 -3 7909.62 667.843 1
-6 0 -3 8205.7 614.956 2
0 6 -3 8578.23 725.152 3
6 0 3 8892.3 652.209 4
0 6 -3 8349.17 742.796 4
-6 6 6 2685.17 436.153 1
0 6 -6 1685.04 328.946 3
6 -6 -6 2664.24 443.72 1
-6 6 6 2681.83 515.149 2
6 0 6 2726.4 372.995 1
6 -6 -6 3265.66 581.539 2
-6 6 9 10539.3 980.833 1
6 -6 -9 10554.7 1246.53 2
0 6 -9 10619.3 932.856 3
6 -6 -9 8673.8 959.21 1
-6 6 9 8496.1 988.668 2
6 -6 -12 -17.2341 346.668 2
0 6 -12 331.255 212.739 3
6 -6 -12 -193.068 262.974 1
-6 6 12 -281.628 265.308 1
0 6 -15 346.361 197.525 3
6 -6 -15 337.144 366.382 2
-6 6 15 164.685 192.381 1
0 -6 15 114.194 156.128 1
0 -6 18 72.087 286.122 1
-6 6 18 1284.05 482.269 1
0 6 -18 1270.4 371.533 3
6 -6 -18 1181.03 740.179 2
1 6 16 818.738 279.661 1
6 1 -16 2068.65 799.381 2
1 -7 -16 1191.72 575.289 2
-7 1 16 865.658 407.204 1
1 6 13 152.638 91.582 1
-7 1 13 193.943 88.5199 3
-7 1 13 418.097 286.728 1
6 1 -13 254.481 363.195 2
1 -7 -13 -48.8817 307.709 2
1 6 10 1945.3 296.603 1
-7 1 10 1648.21 276.646 3
1 -7 -10 1814.53 310.858 3
6 1 -10 2462.44 679.519 2
-7 1 10 2056.23 486.795 1
6 1 -10 1904.55 519.695 1
1 -7 -10 2160.85 482.389 2
6 1 -7 725.912 323.17 1
1 -7 -7 285.342 80.4522 3
-7 1 7 450.574 166.53 2
-7 1 7 586.39 220.683 1
6 1 -7 1136.31 467.295 2
1 -7 -7 571.99 226.663 2
-7 1 4 119.893 191.257 1
-7 1 4 473.903 201.062 2
1 6 4 214.083 132.645 3
1 -7 -4 283.738 166.566 3
6 1 -4 462.063 307.933 2
6 1 -4 -206.482 262.936 1
1 6 1 3892.3 490.534 3
1 -7 -1 3770.93 457.636 3
6 1 -1 3412.68 507.414 1
6 -7 1 3934.95 473.934 1
-7 6 -1 3879.1 524.813 2
-7 1 1 3966.17 526.704 1
1 6 1 4316.28 604.982 4
6 1 -1 3562.59 498.56 2
1 -7 -1 3849.83 534.451 4
-7 6 -1 3453.77 460.967 1
-7 1 1 3753.44 521.273 2
6 -7 -2 33946.7 1358.64 1
1 -7 2 42409.1 1497.74 4
6 1 2 42918.1 1412.11 2
6 -7 -2 33456.1 1485.88 2
6 1 2 38629.6 1445.16 1
6 1 2 39458.1 1486.08 4
-7 6 2 36290 1517.31 1
1 6 -2 36598 1681.5 4
1 -7 2 42999.8 1607.96 3
-7 1 -2 39397.7 1586.56 1
1 6 -2 38027 1590.82 3
-7 6 2 33983.7 1594.56 2
-7 1 -2 40914.9 1536.69 2
6 -7 -5 4542.11 547.214 1
-7 1 -5 5177.31 601.946 1
-7 6 5 3894.58 544.057 1
6 1 5 5288.46 534.809 1
1 6 -5 4437.92 569.047 3
-7 6 5 4951.76 689.004 2
-7 1 -5 5578.71 511.282 4
6 -7 -5 4378.97 640.899 2
6 -7 -8 4584 655.075 1
1 6 -8 4789.46 617.528 3
6 1 8 5030.99 545.825 1
6 -7 -8 4057.28 689.115 2
-7 6 8 5229.51 708.931 1
-7 6 8 4587.62 733.93 2
6 -7 -11 1393.9 410.353 2
-7 6 11 1439.48 373.21 1
1 6 -11 1901.69 420.578 3
6 -7 -11 1563 391.583 1
-7 6 14 470.837 238.137 1
1 6 -14 -112.468 125.741 3
6 -7 -14 364.448 310.715 2
1 6 -17 95.5589 128.075 3
6 -7 -17 -333.938 417.117 2
-7 6 17 -134.269 168.4 1
1 -7 17 234.951 282.485 1
6 2 -17 -47.0146 394.947 2
2 6 17 289.043 196.996 1
-8 2 17 31.7401 167.909 1
2 -8 -17 -62.9671 349.359 2
6 2 -14 360.492 324.433 2
-8 2 14 582.957 145.032 3
2 6 14 335.227 169.178 1
2 -8 -14 917.711 413.992 2
-8 2 14 228.524 178.92 1
-8 2 11 2074.58 536.265 1
-8 2 11 1759.12 283.139 3
6 2 -11 2768.39 732.729 2
2 -8 -11 2054.66 477.712 2
-8 2 8 4712.39 739.532 1
6 2 -8 5397.06 935.594 2
-8 2 8 4379.49 781.691 2
2 -8 -8 4031.35 556.965 2
6 2 -8 5194.63 866.035 1
2 6 8 4184.58 338.482 1
-8 2 5 16308.7 1354.31 2
6 2 -5 18875.8 1543.75 2
2 -8 -5 13596.6 906.494 3
2 -8 -5 16928.6 887.683 2
-8 2 5 15681.7 1268.25 1
6 2 -5 16386.5 1373.97 1
-8 6 -2 1505.6 328.091 2
-8 2 2 1193.42 364.578 2
-8 6 -2 1539.49 339.065 1
2 6 2 753.983 299.829 4
6 -8 2 1695.88 288.326 4
-8 2 2 848.01 310.38 1
6 2 -2 599.658 240.69 1
2 6 2 775.29 231.855 3
2 6 2 537.424 150.333 1
6 2 -2 765.234 312.827 2
2 -8 1 8843.95 780.059 4
2 6 -1 6519.61 679.94 3
2 6 -1 6981.71 751.135 4
6 2 1 7378.02 618.748 2
6 -8 -1 6371.66 582.373 1
-8 6 1 7704.18 756.483 1
-8 6 1 7244.88 742.758 2
6 2 1 7462.3 736.1 4
6 2 1 7285.25 667.939 1
-8 2 -1 7330.93 743.32 1
6 -8 -1 6251.59 620.057 2
2 6 -1 5857.85 579.702 1
-8 2 -1 7304.16 734.377 2
6 -8 -4 2438.43 389.553 1
-8 2 -4 4075.59 371.482 4
6 2 4 2618.25 390.789 1
-8 2 -4 4189.91 550.351 1
-8 6 4 1947.2 389.644 1
-8 6 4 2351.66 504.955 2
6 2 4 2147.04 437.567 4
2 6 -4 2913.92 494.049 3
6 -8 -4 2400.15 468.355 2
-8 2 -4 3692.7 526.526 2
-8 6 7 846.443 266.511 1
6 2 7 663.495 203.783 1
6 -8 -7 540.704 201.225 1
6 -8 -7 535.826 293.77 2
-8 2 -7 421.78 136.429 4
-8 6 7 739.661 269.408 2
2 6 -7 804.593 295.902 3
6 -8 -10 1856.48 526.284 2
6 -8 -10 2161.75 437.112 1
-8 6 10 1689.51 444.548 1
2 6 -10 2196.63 451.798 3
-8 6 10 1496.71 509.63 2
6 2 10 1680.58 302.191 1
-8 6 13 847.743 406.412 1
6 -8 -13 1090.07 468.511 2
2 6 -13 761.432 306.428 3
6 -8 -16 234.325 247.341 2
-8 6 16 155.045 170.062 1
2 6 -16 292.336 221.103 3
-9 3 15 246.562 153.048 1
-9 3 15 139.47 80.4814 3
6 3 -15 443.041 316.989 2
-9 3 12 -83.957 214.902 1
6 3 -12 -167.656 420.788 2
3 -9 -12 375.672 215.158 2
6 3 -9 4187.16 880.059 2
6 3 -9 3539.18 744.073 1
-9 3 9 3203.43 626.897 1
3 -9 -9 2386.25 493.946 2
-9 3 9 2307.37 603.728 2
3 6 9 4184.43 387.521 1
-9 3 6 3527.81 648.362 2
6 3 -6 3168.54 684.272 1
6 3 -6 2997.13 632.9 2
-9 3 6 3261.61 601.426 1
3 -9 -6 3073.02 430.583 2
6 3 -3 3654.89 673.088 2
-9 3 3 2519.85 491.76 1
3 6 3 3049.33 340.868 1
6 -9 3 4151.78 449.239 4
3 6 3 2880.12 566.653 4
-9 3 3 3038.09 580.272 2
3 -9 -3 3191.79 326.363 1
3 -9 -3 3350.47 372.344 2
-9 6 -3 3687.46 536.75 1
-9 6 -3 4481.58 618.742 2
6 3 -3 2380.01 491.036 1
-9 3 0 7995.55 823.995 2
6 3 0 8002.07 722.93 2
3 6 0 6780.63 796.317 4
3 6 0 6726.69 614.453 1
6 3 0 6869.37 762.01 4
6 -9 0 7876.5 695.092 1
3 6 0 6682.99 559.432 2
6 3 0 7076.63 736.71 1
-9 6 0 7475.24 778.365 1
3 -9 0 7453.02 779.112 4
-9 3 0 6501.13 736.358 1
-9 6 0 7288.95 792.513 2
3 6 0 7237.72 748.456 3
-9 6 3 1232.71 414.536 2
6 -9 -3 740.611 207.07 1
3 6 -3 516.452 253.639 4
6 3 3 948.869 226.975 2
-9 3 -3 874.164 292.23 1
6 3 3 881.296 356.695 4
3 6 -3 771.893 296.088 1
-9 3 -3 611.465 221.003 2
6 -9 -3 814.098 255.148 2
-9 6 3 158.377 206.448 1
6 3 3 882.139 247.677 1
3 6 -3 1089.83 325.311 3
3 -9 3 872.497 252.469 4
-9 6 6 2453.69 533.329 1
3 6 -6 2266.63 464.011 3
-9 3 -6 1842.4 411.122 1
6 3 6 2714.18 388.097 1
6 -9 -6 1922.43 437.324 2
-9 3 -6 1893.56 261.949 4
6 -9 -6 1795.46 339.083 1
-9 6 6 2607.51 576.318 2
-9 6 9 1982.47 544.785 2
6 3 9 1661.96 311.136 1
3 6 -9 2663.28 528.752 3
-9 6 9 1671.89 453.584 1
6 -9 -9 1849.68 518.736 2
6 -9 -9 2390.8 459.087 1
3 6 -12 2012.32 509.786 3
-9 6 12 1377.89 420.097 1
6 3 12 1354.98 305.697 1
6 -9 -12 1392.65 401.737 1
6 -9 -12 1420.73 431.149 2
6 -9 -15 -126.094 301.118 2
3 6 -15 560.051 294.488 3
-9 6 15 836.596 376.766 1
6 4 -16 33.6269 285.618 2
-10 4 16 107.273 76.8042 3
4 -10 -16 300.231 229.326 2
-10 4 16 -465.771 303.968 1
-10 4 13 1001.16 371.455 1
4 -10 -13 667.302 245.228 2
4 -10 -10 1222.57 266.166 1
-10 4 10 1954.17 533.225 1
6 4 -10 2106.25 567.331 2
4 6 10 1645.54 268.19 1
4 -10 -10 1245.92 394.409 2
-10 4 7 2228.38 483.93 1
4 6 7 2118.38 278.399 1
4 -10 -7 1967.25 403.02 2
6 4 -7 2097.97 618.242 1
4 -10 -7 2072.57 299.409 1
6 4 -7 2783.24 665.533 2
-10 4 7 1979.81 558.141 2
4 -10 -4 2852.91 393.552 2
4 6 4 4973.23 449.386 1
6 4 -4 3249.5 626.859 2
-10 6 -4 3669.18 630.472 2
-10 4 4 5752.89 835.443 2
-10 4 4 5299.43 732.672 1
4 -10 -4 3066.77 349.74 1
6 -10 4 3443.7 432.063 4
-10 6 -4 2702.94 514.499 1
6 4 -4 3696.62 652.937 1
6 4 -1 33787.8 1693.09 2
4 6 1 31238.5 1812.49 4
-10 4 1 33699.3 1756.14 1
4 6 1 32661.7 1238.96 2
-10 4 1 37046.8 1891.86 2
6 4 -1 34372.7 1790.12 1
4 6 1 32610.2 1732.39 3
4 6 1 31162.5 1404.94 1
6 4 -1 33105.3 1858.28 4
-10 6 -1 39595.2 1897.7 1
-10 6 -1 38501.1 1893.15 2
-10 6 2 6521.5 766.251 1
6 -10 -2 6090.02 634.523 2
4 -10 2 6408.26 696.571 4
6 -10 -2 6097.17 583.727 1
6 4 2 5239.86 673.811 4
-10 4 -2 5944.45 721.228 2
4 6 -2 6029.92 822.002 4
6 4 2 5871.32 512.014 2
4 6 -2 7247.49 822.877 3
4 6 -2 6863.07 736.407 2
-10 4 -2 6319.02 763.048 1
-10 6 2 5691.48 755.322 2
4 6 -2 6549.23 747.888 1
6 4 2 7069.13 657.516 1
6 4 5 7464.14 642.557 1
-10 6 5 7343.49 955.433 2
6 -10 -5 7388.21 656.414 1
4 6 -5 7510.13 855.169 3
-10 6 5 6642.71 824.829 1
6 -10 -5 6264.11 712.637 2
4 6 -5 6389.59 866.722 1
-10 4 -5 8162.78 877.781 1
6 -10 -8 2324.8 450.319 2
-10 6 8 2660.45 552.89 1
6 -10 -8 2779.16 442.435 1
-10 6 8 2615.83 608.652 2
4 6 -8 2608.38 507.674 3
6 4 8 3486.85 453.709 1
-10 4 -8 2750.13 365.092 4
6 -10 -11 929.469 293.814 1
-10 6 11 772.603 309.275 1
6 -10 -11 343.954 263.151 2
6 4 11 764.511 209.632 1
-10 6 14 852.699 363.24 1
6 -10 -14 1764.89 576.79 2
4 6 -14 1675.72 462.075 3
6 4 14 743.207 249.393 1
-10 6 17 474.896 370.51 1
6 -10 -17 652.875 464.287 2
5 -11 -17 -65.1547 380.562 2
-11 5 17 478.565 251.974 1
6 5 -17 659.407 625.01 2
5 -11 -14 301.433 268.615 2
-11 5 14 438.752 278.475 1
5 6 14 608.582 206.802 1
6 5 -14 580.817 568.381 2
6 5 -11 1026.81 521.266 2
5 -11 -11 538.567 251.988 2
5 -11 -11 556.044 198.983 1
5 6 11 684.542 185.09 1
-11 5 11 783.972 373.369 1
6 5 -8 12847 1458.94 1
5 -11 -8 10706 1041.42 2
6 5 -8 14576.5 1590.07 2
5 -11 -8 10561.8 779.521 1
5 6 8 13410.3 807.733 1
-11 5 8 12092.3 1286.8 1
-11 5 8 11810.4 1383.72 2
5 -11 -5 2550.87 437.608 2
5 -11 -5 2620.39 354.374 1
-11 5 5 2797.04 552.711 1
6 -11 5 2231.97 346.277 4
5 6 5 2911.43 353.249 1
-11 6 -5 2038.47 426.682 1
-11 5 5 3501.37 687.748 2
6 5 -5 3685.38 692.15 1
6 5 -5 2924.32 639.967 2
5 -11 -2 4621.94 530.453 1
6 -11 2 4975.19 646.529 4
5 6 2 2664.99 415.353 1
6 5 -2 2894 556.047 1
-11 6 -2 5395.95 791.05 2
-11 5 2 4299.42 668.673 1
5 6 2 2816.38 378.083 2
6 5 -2 3033.82 556.869 2
-11 5 2 4498.9 720.865 2
5 6 2 3375.55 659.124 4
6 5 -2 2223.36 499.058 4
-11 6 -2 4963.23 793.731 1
-11 6 1 5585.95 756.889 1
-11 6 1 6315.37 799.693 2
6 5 1 5680.96 772.073 4
-11 5 -1 5975.01 756.722 2
6 -11 -1 6224.1 638.827 1
5 6 -1 6209.48 830.017 4
-11 5 -1 5635.15 768.49 1
6 5 1 6742.91 705.518 1
6 5 1 6669.31 624.71 2
5 6 -1 5947.04 703.213 1
5 6 -1 6036.5 674.686 2
5 -11 1 6428.46 744.019 4
5 6 -4 10776.4 1078.86 2
-11 6 4 11158.8 1176.85 2
6 -11 -4 11375 822.674 1
5 -11 4 11910.3 853.488 4
-11 6 4 11258.8 1090.93 1
-11 5 -4 14291.8 1196.66 1
-11 5 -4 14760.9 1223.72 2
6 -11 -4 11766.4 958.062 2
6 5 4 10437.6 1100.56 4
5 6 -4 10391.1 1080.62 1
5 6 -4 10066.9 1022.78 3
6 5 4 10484 779.995 1
6 -11 -7 617.322 273.835 2
6 -11 -7 584.681 196.987 1
5 6 -7 1082.65 417.363 1
5 6 -7 1215.13 408.414 3
-11 6 7 710.613 331.711 2
-11 6 7 456.435 258.029 1
6 5 7 841.908 225.845 1
5 6 -10 3705.55 682.328 3
-11 6 10 2332.13 603.557 1
6 -11 -10 2465.62 445.372 1
6 -11 -10 2214.75 495.055 2
6 5 10 2788.83 406.841 1
6 5 13 667.129 195.864 1
-11 6 13 1248.11 399.696 1
6 -11 -13 1550.63 543.629 2
-11 6 16 190.833 87.1503 3
6 5 16 165.351 136.63 1
-11 6 16 -122.777 218.856 1
-12 6 0 2594.35 508.869 1
-12 6 0 2127.79 487.198 2
6 6 0 2371.09 442.688 1
6 6 0 2151.07 526.369 4
6 6 0 2684.62 444.502 2
6 6 -3 3196.65 626.011 2
-12 6 -3 6018.29 849.323 2
6 -12 3 5714.07 655.153 4
6 -12 -3 4655.8 548.845 1
6 6 -3 3788.63 644.633 1
-12 6 3 4863.27 768.859 2
6 6 3 3973.4 722.814 4
6 -12 -3 4721.36 603.667 2
-12 6 -3 5177.81 813.406 1
6 6 3 3334.27 468.408 1
6 6 3 3613.84 408.012 2
-12 6 3 4727.97 739.608 1
6 6 6 6813.35 601.712 1
-12 6 -6 5645.9 796.674 1
6 6 -6 8013.4 1155.16 2
6 6 -6 5920.88 947.757 1
6 -12 -6 5951.58 602.641 1
6 -12 -6 5528.66 725.505 2
-12 6 6 7718.28 1136.77 2
-12 6 6 6521.24 927.87 1
6 -12 -9 684.515 258.476 2
-12 6 9 1552.75 487.973 1
6 -12 -9 826.805 222.67 1
6 6 9 1474.56 288.154 1
6 6 -9 1420.34 521.261 2
6 6 12 2005.5 379.838 1
6 -12 -12 1566.13 487.026 2
6 -12 -12 1862.26 416.068 1
-12 6 12 2132.91 619.374 1
6 6 -15 -266.99 621.278 2
6 -12 -15 264.064 241.042 2
6 6 15 346.272 205.361 1
-12 6 15 -328.088 310.176 1
-3 7 17 464.948 316.839 1
-3 -4 -17 196.659 104.111 3
-4 -3 17 -3.96167 186.339 1
7 -3 -17 57.8015 347.216 2
-3 -4 -14 488.558 195.74 3
7 -3 -14 1598.51 633.253 2
-3 7 14 714.494 278.791 1
-4 -3 14 946.824 361.224 1
7 -3 -11 582.359 230.307 1
-3 7 11 368.058 104.858 1
7 -3 -11 100.693 304.018 2
-4 -3 11 389.803 95.4561 3
-4 -3 11 298.629 201.085 1
-4 -3 8 563.572 252.119 1
-3 7 8 529.268 144.01 3
-4 -3 8 789.625 209.324 3
-3 7 8 708.359 197.898 1
7 -3 -8 630.743 302.779 2
7 -3 -8 494.848 293.271 1
-3 7 5 9460.18 753.858 2
-3 7 5 8636.02 506.317 1
-4 -3 5 10080.3 913.819 1
-3 7 5 9752.04 675.062 3
-4 -3 5 10235.9 756.643 3
-4 7 -5 9049.57 686.141 4
7 -3 -5 10682.3 1140.74 2
7 -3 -5 9924.35 1012.93 1
7 -4 5 10193.3 820.112 1
-3 -4 -2 3289.86 340.145 1
-4 7 -2 2975.42 404.849 4
-3 -4 -2 3240.77 466.138 3
-4 -3 2 2870.46 417.531 3
7 -3 -2 3219.42 529.426 2
-4 -3 2 2740.74 417.772 2
-3 7 2 3190.54 357.666 2
7 -3 -2 3403.58 501.04 1
-4 -3 2 3010.74 459.231 1
7 -4 2 3357.78 460.119 1
-3 -4 -2 3214.15 473.81 4
-3 -4 1 696.823 181.278 3
-4 -3 -1 720.359 149.357 2
7 -4 -1 549.597 193.443 2
7 -4 -1 743.621 222.068 1
7 -3 1 497.493 180.112 1
-3 -4 1 932.959 232.115 1
-4 -3 -1 896.663 196.794 1
7 -3 1 544.321 184.851 2
-3 7 -1 640.518 175.151 4
-4 7 1 543.437 148.124 2
-4 -3 -1 659.792 184.751 4
7 -4 -4 2155.76 445.496 1
-4 7 4 1555.07 325.096 2
-3 -4 4 2435.27 434.509 1
-4 -3 -4 3002.33 329.054 1
7 -3 4 3053.38 473.831 1
7 -4 -4 1745.25 493.155 2
-3 7 -4 1901.58 326.523 4
-4 -3 -4 2675.36 475.432 4
-3 -4 4 2430.37 363.945 3
-4 7 4 2311.69 305.765 1
-4 7 7 1841.24 267.768 3
7 -3 7 2011.06 430.443 1
7 -4 -7 2351.73 546.367 2
-4 7 7 1702.36 305.518 1
-4 7 7 1983.58 439.418 2
-3 -4 7 2021.83 337.596 3
7 -4 -7 2165.01 492.185 1
-3 -4 7 1702.41 412.673 1
-3 -4 10 1427.06 430.565 1
-4 7 10 1825.8 390.612 1
-4 7 10 1273.3 212.771 3
7 -4 -10 2213.21 613.06 1
7 -4 -10 2125.34 599.54 2
7 -4 -13 728.46 442.844 2
-4 7 13 570.624 196.516 1
-3 -4 13 1121.4 319.555 1
7 -4 -13 1055.97 489.059 1
7 -4 -16 1488.7 647.973 2
-3 7 -16 612.865 283.738 3
-4 7 16 633.396 323.596 1
-3 -4 16 703.441 340.54 1
7 -2 -18 94.6523 412.684 2
-5 -2 18 -1.72754 257.102 1
-2 7 18 -167.606 127.087 1
-2 -5 -18 186.077 127.593 3
-2 7 15 217.648 129.091 1
7 -2 -15 30.2081 216.408 2
-5 -2 15 10.0029 191.972 1
-2 -5 -15 16.6532 92.532 3
-2 7 12 52.0805 111.841 1
-2 -5 -12 1.48866 182.427 3
7 -2 -12 267.085 132.518 1
-5 -2 12 341.587 134.25 3
-5 -2 12 29.9404 159.736 1
7 -2 -9 5582.13 990.094 2
-5 -2 9 4631.13 711.4 1
-2 7 9 4164.48 424.763 3
-2 -5 -9 5133.86 571.897 3
7 -2 -9 6451.07 974.35 1
-5 -2 9 4439.42 486.425 3
-2 7 9 5015.56 502.054 1
7 -2 -6 1290.06 433.411 1
7 -2 -6 1337.9 521.387 2
-2 -5 -6 821.105 216.415 3
-2 7 6 1402.69 297.058 2
-5 -2 6 763.989 256.794 1
-2 7 6 1223.66 269.999 3
-5 -2 6 1360.42 279.427 3
-2 7 3 10673.2 741.987 3
7 -5 3 10453.9 809.624 1
-5 7 -3 10383 680.662 4
7 -2 -3 7668.56 845.294 2
-5 -2 3 12184.8 990.072 1
-5 -2 3 12141.3 976.064 2
-2 -5 -3 9876.25 784.981 3
-2 7 3 11139 608.233 2
7 -2 -3 8158.04 840.522 1
-2 -5 -3 8821.05 834.47 4
-2 7 0 299.668 158.421 4
-5 7 0 302.329 143.253 2
-5 -2 0 105.644 112.165 1
-2 -5 0 33.6739 52.6102 1
-2 7 0 127.776 139.79 3
7 -2 0 191.25 169.716 1
7 -5 0 559.259 198.764 2
-5 7 0 309.262 136.817 1
-5 -2 0 412.757 160.169 2
-2 -5 0 444.728 159.479 4
-2 -5 0 172.281 143.035 3
7 -2 0 49.9771 123.296 2
7 -5 0 330.03 171.923 1
-5 7 3 3110.27 364.492 1
-5 -2 -3 3390.47 372.526 1
7 -2 3 2818.5 281.963 4
-5 -2 -3 3224.23 411.876 4
-2 -5 3 3595.25 440.414 3
7 -2 3 3815.26 476.814 1
7 -5 -3 3791.81 570.248 2
-5 -2 -3 3089.06 319.438 2
-2 7 -3 4039.15 477.51 4
-5 7 3 3122.93 439.722 2
7 -5 -3 3559.2 496.719 1
-2 -5 3 2786.11 411.386 1
7 -5 -6 6548.33 870.042 2
-5 7 6 5305.88 660.463 2
7 -2 6 5984.22 619.121 1
-5 7 6 5343.58 523.747 1
-2 -5 6 6245.88 601.037 3
-2 -5 6 6078.02 728.49 1
7 -5 -6 5252.48 708.148 1
-2 -5 9 797.634 286.559 1
-5 7 9 1066.05 338.555 2
-5 7 9 723.07 156.09 3
-5 7 9 765.162 227.161 1
7 -5 -9 848.341 275.217 1
7 -5 -9 851.869 304.6 2
-2 7 -12 604.348 288.028 3
7 -5 -12 -166.531 236.365 1
7 -5 -12 280.374 263.163 2
-2 -5 12 321.665 212.657 1
-5 7 12 309.931 156.058 1
7 -5 -15 1219.61 503.307 2
-5 7 15 522.961 233.539 1
-2 -5 15 847.456 395.715 1
-2 7 -15 711.965 277.041 3
-2 -5 18 592.806 317.797 1
7 -5 -18 -12.0899 335.448 2
-2 7 -18 426.231 264.573 3
-5 7 18 57.6994 230.325 1
-6 -1 16 398.217 250.034 1
-1 7 16 924.903 294.211 1
7 -1 -16 1560.47 804.422 2
-1 -6 -16 1158.67 262.362 3
-6 -1 13 247.141 128.318 3
-1 7 13 165.197 145.443 1
-1 -6 -13 218.325 124.432 3
-6 -1 13 459.406 260.537 1
-1 -6 -10 1607.57 307.987 3
7 -1 -10 3040.08 734.973 2
-6 -1 10 1811.06 297.454 3
-6 -1 10 1678.9 450.071 1
7 -1 -10 3133.87 681.823 1
-1 7 10 2137.01 330.628 1
7 -1 -7 972.571 391.93 1
-1 -6 -7 681.189 161.989 3
-1 7 7 927.053 214.211 3
7 -1 -7 1188.2 444.86 2
-6 -1 7 1012.62 319.51 1
-6 -1 7 1336.45 285.119 3
-1 7 4 330.187 165.473 3
7 -1 -4 391.775 216.203 1
-6 -1 4 109.688 147.437 1
-1 -6 -4 289.366 174.016 3
-6 -1 4 347.221 217.127 2
7 -1 -4 -57.7699 196.919 2
7 -6 4 485.205 155.193 1
7 -1 -1 3573.83 513.068 2
-6 7 -1 3690.65 462.521 1
-1 -6 -1 4291.89 508.842 3
-6 7 -1 3629.77 494.133 2
7 -6 1 4228.67 507.848 1
-6 -1 1 3643.03 506.963 1
7 -1 -1 3731.18 535.341 1
-1 -6 -1 3281.31 338.405 1
-1 -6 -1 3684.69 511.021 4
-1 7 1 3510.18 465.915 3
7 -6 1 4243.07 533.167 2
-6 -1 1 4117.61 531.924 2
-6 -1 -2 40569.1 1359.95 4
-1 -6 2 42980.6 1557.68 1
7 -6 -2 32728.8 1454.88 1
7 -1 2 40572 1369.15 4
7 -6 -2 34950.8 1630.65 2
-6 -1 -2 40351.5 1503.21 1
7 -1 2 38866.4 1511.32 2
7 -1 2 39933.4 1580.97 1
-6 7 2 36111.4 1378.46 1
-1 -6 2 41195.4 1550.21 3
-1 -6 2 44233.2 1576.37 4
-6 -1 -2 41092 1418.71 2
-6 7 2 32079.7 1468.23 2
-1 7 -2 34263.7 1548.4 4
-1 7 -2 36105.2 1554.55 3
-1 7 -5 3788.17 531.776 3
-6 7 5 4846.62 659.74 2
7 -6 -5 3893.93 657.786 2
-6 -1 -5 4970.18 589.628 4
7 -1 5 5014.35 577.303 1
-6 -1 -5 4794.67 506.128 1
-6 7 5 4460.65 524.745 1
-1 -6 5 4475.08 508.153 3
7 -6 -5 4054.51 591.904 1
-6 7 8 4421.31 582.121 1
-6 7 8 4261.29 669.742 2
7 -6 -8 4018.41 759.304 2
-1 -6 8 4528.81 683.763 1
-1 7 -8 5032.65 619.218 3
7 -1 8 4958.49 582.386 1
7 -6 -8 4839.35 748.637 1
7 -6 -11 2019.7 636.503 2
-6 7 11 1468.07 401.573 1
-6 7 11 963.232 169.061 3
7 -6 -11 1248.02 366.04 1
-1 7 -11 1801.99 398.265 3
-1 -6 11 805.175 295.558 1
-6 7 14 -12.3095 196.027 1
-1 -6 14 -93.5295 192.385 1
-1 7 -14 577.152 315.718 3
7 -6 -14 451.104 366.972 2
7 -6 -17 160.806 262.438 2
-6 7 17 249.612 244.313 1
-1 -6 17 121.303 154.148 1
0 -7 -17 358.328 422.029 2
-7 0 17 -154.879 277.285 1
0 7 17 361.588 209.432 1
7 0 -17 -115.346 256.505 2
-7 0 14 226.858 106.394 3
-7 0 14 355.984 298.619 1
0 -7 -14 254.259 133.64 3
0 -7 -14 629.637 365.749 2
0 7 14 303.136 172.956 1
7 0 -14 743.579 526.814 2
-7 0 11 -21.0026 125.204 1
-7 0 11 -269.644 180.798 3
0 7 11 82.3422 102.355 1
0 -7 -11 -502.964 350.298 2
0 -7 -11 -183.592 174.134 3
0 -7 -8 4878.79 552.261 3
7 0 -8 6165.17 1020.57 2
7 0 -8 5647.29 933.996 1
0 7 8 6549.08 437.294 1
0 -7 -8 5441.78 631.805 2
-7 0 8 5948.2 874.794 1
-7 0 5 45539.8 2231.67 2
0 -7 -5 44767.7 1654.71 3
7 0 -5 46781.9 2418.22 2
0 7 5 47022 1680.46 3
7 0 -5 46440.5 2366.6 1
-7 0 5 45178.6 2131.44 1
7 0 -2 4153.54 664.648 2
0 -7 -2 7212.43 690.214 3
0 -7 -2 5095.28 649.152 4
7 -7 2 9087.32 794.408 1
7 0 -2 4053.4 660.191 1
-7 0 2 4740.8 647.626 1
0 7 2 5654.91 640.322 3
-7 0 2 4787.19 684.155 2
-7 7 -2 7014.75 695.522 1
0 7 -1 48678.3 1823.57 3
7 0 1 49646.5 1741.07 2
0 -7 1 54964 1828.98 3
0 7 -1 50192.5 2023.32 4
-7 7 1 51189 1927.57 2
7 -7 -1 49235 1853.74 2
7 -7 -1 50805.6 1764.53 1
7 0 1 50947.9 1810.25 1
-7 7 1 47817.9 1707.34 1
-7 0 -1 50299.1 1740.81 2
0 -7 1 54618.9 1815.72 4
-7 0 -1 51339.8 1831.95 1
7 -7 -4 3092.1 605.143 2
-7 0 -4 7955.21 653.067 4
0 7 -4 4404.58 657.817 3
-7 7 4 3769.32 532.734 1
-7 0 -4 7630.62 676.074 2
-7 7 4 3981.83 635.673 2
7 -7 -4 3142.84 498.287 1
-7 0 -4 8515.04 758.638 1
0 7 -4 3250.43 587.371 4
7 0 4 6782.82 723.611 1
0 -7 4 8279.92 758.65 3
7 0 4 5962.76 651.091 4
-7 7 7 127.388 99.7719 1
-7 7 7 611.794 278.89 2
0 7 -7 794.303 262.046 3
7 0 7 706.056 241.007 1
7 -7 -7 461.493 200.144 2
7 -7 -7 640.552 248.858 1
-7 7 10 1138.78 363.906 1
7 -7 -10 1791.32 443.752 1
7 0 10 1549.5 337.417 1
0 7 -10 2159.96 490.131 3
7 -7 -10 1928.87 643.315 2
-7 7 10 1138.26 430.771 2
7 -7 -13 90.7553 233.796 1
0 -7 13 111.805 211.503 1
7 -7 -13 912.245 447.586 2
-7 7 13 435.402 324.186 1
0 7 -13 965.422 357.276 3
0 7 -16 1006.24 421.302 3
7 -7 -16 727.844 463.439 2
-7 7 16 -45.2071 225.21 1
0 -7 16 737.426 329.527 1
7 1 -15 170.446 403.066 2
-8 1 15 328.906 287.567 1
1 7 15 380.53 190.475 1
-8 1 15 104.493 58.6241 3
1 -8 -15 533.751 304.042 2
-8 1 12 348.288 126.975 3
7 1 -12 223.803 240.376 2
1 -8 -12 -209.926 324.508 2
1 -8 -12 177.156 103.213 3
1 7 12 350.164 119.893 1
-8 1 12 157.756 153.525 1
7 1 -9 1442.95 498.096 1
1 7 9 1708.19 231.37 1
1 -8 -9 864.754 266.576 2
1 -8 -9 696.225 184.486 3
7 1 -9 1050.43 448.264 2
-8 1 9 2023.27 582.307 1
7 1 -6 858.556 302.419 2
-8 1 6 2024.63 571.652 2
-8 1 6 1793.35 443.521 1
1 -8 -6 1246.52 283.048 3
1 -8 -6 1161.86 262.691 2
7 1 -6 1390.34 424.319 1
1 7 3 664.427 256.886 3
7 -8 3 516.292 160.085 4
-8 1 3 324.751 240.205 2
7 1 -3 131.381 142.227 2
1 -8 -3 122.022 133.907 3
7 -8 3 63.4833 91.0099 1
-8 1 3 316.989 215.859 1
7 1 -3 599.885 263.41 1
1 -8 0 3068.04 495 4
1 7 0 1791.82 448.653 4
-8 7 0 2159.51 421.411 2
1 7 0 1685.25 379.913 3
7 -8 0 1748.12 406.709 2
7 1 0 1591.77 344.938 2
-8 1 0 1687.4 400.523 2
1 -8 0 2204.63 413.608 3
7 -8 0 1347.13 329.96 1
-8 1 0 1411.45 348.339 1
7 1 0 1509.86 343.109 1
-8 7 0 2072.92 402.743 1
-8 7 3 3202.29 540.732 2
-8 1 -3 2671.61 416.31 2
1 -8 3 2661.41 416.293 4
7 1 3 3458.15 446.013 2
1 7 -3 2643.61 447.837 3
1 7 -3 2951.09 529.488 4
7 -8 -3 2739.52 478.514 2
-8 7 3 2918.66 460.249 1
7 1 3 3326.88 461.887 1
7 -8 -3 2843.54 440.051 1
7 1 3 3144.46 480.046 4
-8 1 -3 2785.27 449.855 1
7 1 6 1174.11 278.131 1
1 7 -6 807.339 288.049 3
-8 7 6 772.418 259.583 2
7 -8 -6 600.439 213.322 1
-8 1 -6 649.001 199.325 1
-8 1 -6 1317.04 254.21 4
7 -8 -6 851.968 314.375 2
-8 7 6 735.848 282.859 1
-8 7 9 1185.9 392.987 2
1 7 -9 1811.65 457.409 3
7 -8 -9 1227.02 310.436 1
-8 7 9 907.19 292.319 1
7 -8 -9 348.203 177.436 2
7 1 9 1542.36 326.858 1
1 7 -12 951.096 340.1 3
7 -8 -12 544.59 254.537 1
-8 7 12 253.339 297.061 1
7 -8 -12 65.5947 278.606 2
7 -8 -15 622.336 372.829 2
1 7 -15 1251.99 431.137 3
-8 7 15 891.643 415.757 1
2 -9 -16 936.998 549.121 2
2 7 16 666.42 240.627 1
-9 2 16 450.812 144.777 3
-9 2 16 958.436 446.248 1
7 2 -16 691.969 444.149 2
-9 2 13 1643.81 495.374 1
2 -9 -13 1459.59 487.73 2
-9 2 13 1117.14 241.161 3
7 2 -13 1821.35 718.768 2
2 7 13 920.552 211.311 1
7 2 -10 4081.96 895.035 2
7 2 -10 3704.6 785.652 1
2 -9 -10 3960.19 619.974 2
-9 2 10 4093.14 743.147 1
7 2 -7 2819.92 661.598 2
2 -9 -7 2543.42 411.13 2
2 -9 -7 2097.84 379.852 3
-9 2 7 2702.94 644.9 1
7 2 -7 2585.7 631.509 1
-9 2 7 2867.83 620.687 2
2 7 4 39023.5 1756.36 3
7 2 -4 35759.7 2086.56 1
-9 2 4 33867.5 1870.94 1
7 2 -4 37418.1 2142.89 2
2 -9 -4 36868.3 1135.48 2
2 -9 -4 36394 1584.24 3
7 -9 4 33286.2 1085.04 4
-9 2 4 33128.3 1964.2 2
7 2 -1 5479.6 694.119 1
-9 2 1 5676.56 735.614 1
-9 7 -1 4987.87 640.383 1
2 7 1 5154.29 651.83 3
2 -9 -1 4969.69 599.369 3
2 -9 -1 4636.96 644.288 4
2 7 1 3940.39 431.276 1
7 -9 1 4951.13 598.612 1
7 2 -1 5476.33 694.274 2
-9 2 1 5096.62 685.352 2
2 7 1 5005.49 727.425 4
-9 7 -1 5616.52 713.536 2
-9 7 2 2526.01 482.093 1
2 7 -2 3547.03 594.673 4
7 2 2 3671.5 462.515 2
-9 7 2 2894.42 531.014 2
-9 2 -2 3137.07 504.977 2
-9 2 -2 3451.08 544.105 1
7 -9 -2 3325.49 523.63 2
2 7 -2 3283.82 516.016 3
2 -9 2 3237.23 479.059 4
7 2 2 2893.26 424.817 1
7 -9 -2 2958.12 451.286 1
7 2 2 3509.16 526.773 4
-9 2 -5 176.964 122.738 2
-9 7 5 -74.1498 220.539 2
7 2 5 178.453 133.754 1
2 7 -5 332.118 225.034 3
7 -9 -5 105.531 168.096 2
-9 7 5 190.098 215.253 1
7 -9 -5 218.873 142.2 1
-9 2 -5 396.186 102.576 4
-9 2 -5 211.601 175.774 1
-9 7 8 2924.05 624.144 2
7 2 8 2473.94 402.057 1
2 7 -8 3243.72 587.81 3
7 -9 -8 2666.71 473.342 1
-9 2 -8 2849.67 437.849 4
-9 7 8 2851.58 551.231 1
7 -9 -8 2404.2 522.486 2
-9 7 11 641.609 329.945 1
-9 7 11 323.658 135.557 2
7 -9 -11 794.626 414.879 2
2 7 -11 1047.61 349.104 3
7 -9 -11 427.707 236.033 1
7 2 11 635.759 205.655 1
-9 7 14 807.419 405.372 1
7 -9 -14 145.013 161.523 1
7 -9 -14 119.569 181.278 2
2 7 -14 868.521 353.69 3
-9 7 17 53.0806 222.252 1
7 -9 -17 334.027 298.415 2
2 7 -17 -118.988 211.022 3
-10 3 17 158.492 84.8898 3
-10 3 17 -298.361 323.317 1
3 7 17 250.812 166.396 1
3 -10 -17 138.208 220.008 2
7 3 -17 647.312 611.524 2
7 3 -14 1448.54 525.252 2
3 -10 -14 1424.91 466.18 2
-10 3 14 1117.66 421.219 1
-10 3 14 662.301 170.871 3
3 7 11 746.077 166.278 1
3 -10 -11 757.489 245.214 2
-10 3 11 802.72 323.786 1
7 3 -8 641.948 368.449 2
-10 3 8 772.574 433.339 2
7 3 -8 630.406 352.507 1
-10 3 8 1370.09 457.359 1
3 -10 -8 356.385 119.507 1
3 7 8 1451.98 216.903 1
3 -10 -8 577.31 225.456 2
7 3 -5 4568.52 789.165 1
7 -10 5 3432.5 374.514 4
3 -10 -5 4468.25 478.355 2
-10 3 5 5861.14 821.817 1
7 3 -5 3602.42 707.868 2
-10 3 5 5265.89 819.46 2
7 -10 2 8015.12 710.958 4
-10 3 2 7325.28 878.72 2
3 7 2 5818.52 748.933 3
-10 7 -2 7197.53 848.997 2
-10 3 2 7245.71 873.819 1
-10 7 -2 8625.75 919.97 1
3 7 2 5738.14 840.477 4
3 7 2 5792.94 537.475 1
7 3 -2 6220.42 831.189 1
7 3 -2 6153.31 810.86 2
7 -10 -1 15180.5 1070.62 2
7 3 1 14504.5 952.45 2
3 7 -1 14788.8 1226.03 4
3 -10 1 14113.5 1112.94 4
-10 3 -1 14662.7 1162.41 2
7 -10 -1 13656.3 951.64 1
-10 3 -1 13969.2 1165.63 1
-10 7 1 15687.8 1251.88 2
7 3 1 14523.8 1051.68 1
7 3 1 14108.1 1133.99 4
3 7 -1 12822.7 960.592 1
-10 7 1 14898.3 1165.76 1
3 7 -1 15268.2 1157.32 3
7 3 4 646.477 200.864 1
7 -10 -4 594.101 215.687 1
-10 3 -4 653.768 257.599 1
3 -10 4 532.172 193.818 4
7 3 4 313.311 144.191 4
-10 7 4 559.864 247.105 1
3 7 -4 802.488 309.348 3
-10 7 4 673.073 290.086 2
7 -10 -4 415.554 204.628 2
-10 3 -4 830.394 273.289 2
-10 3 -7 1036.44 224.809 4
7 -10 -7 329.935 105.35 1
-10 7 7 497.685 204.012 2
7 -10 -7 352.109 205.154 2
3 7 -7 615.399 299.014 3
-10 7 7 274.264 120.904 1
7 3 10 1213.81 283.025 1
7 -10 -10 1375.66 431.705 2
-10 7 10 1246.03 486.407 2
-10 7 10 1043.93 423.733 1
7 -10 -10 825.771 305.118 1
3 7 -13 611.453 230.766 3
7 -10 -13 680.604 424.857 2
7 3 13 259.939 90.6734 1
-10 7 13 -1.43286 210.705 1
7 -10 -13 573.263 307.015 1
7 -10 -16 274.928 289.923 2
3 7 -16 282.076 333.072 3
-10 7 16 61.3888 147.08 1
4 -11 -15 612.704 289.501 2
7 4 -15 866.83 552.299 2
-11 4 15 791.08 401.658 1
-11 4 15 206.881 88.4591 3
-11 4 12 1595.28 471.754 1
4 -11 -12 1414.24 419.838 2
4 7 12 1261.44 260.375 1
7 4 -12 2108.45 771.892 2
4 7 9 5949.69 492.453 1
4 -11 -9 6244.73 780.909 2
-11 4 9 6260.89 969.295 1
-11 4 9 6161.86 1025.73 2
4 -11 -9 4870.29 476.201 1
4 7 6 3218.18 328.085 1
-11 4 6 3806.38 748.719 2
4 -11 -6 2257.66 302.427 1
-11 4 6 3035.48 632.82 1
7 4 -6 2480.89 581.334 1
7 4 -6 2901.81 626.335 2
4 -11 -6 2694.9 434.704 2
-11 7 -3 2683.14 528.541 2
7 -11 3 2759.97 412.999 4
-11 4 3 3414.72 622.958 2
4 7 3 2422.99 363.668 1
4 -11 -3 2268.66 310.367 1
-11 7 -3 2553.29 531.96 1
4 7 3 2116.17 504.26 4
7 4 -3 2331.19 549.866 1
7 4 -3 1870.99 445.577 2
-11 4 3 2994.93 574.143 1
4 7 0 4065.26 511.364 2
7 4 0 4870.34 615.524 2
4 7 0 3351.63 601.831 4
4 -11 0 5090.75 725.472 4
-11 4 0 4525.74 683.83 1
-11 7 0 4094.84 635.955 2
4 7 0 3961.55 524.543 1
7 4 0 4077.68 695.334 4
7 4 0 4848.57 660.694 1
4 7 0 4100.6 655.542 3
7 -11 0 3908.81 556.601 1
-11 4 0 5140 757.378 2
-11 7 0 4349.99 672.663 1
7 4 3 199.78 169.867 4
7 4 3 215.454 135.686 1
7 -11 -3 462.373 189.299 1
4 7 -3 527.48 347.847 4
-11 7 3 436.936 215.25 1
-11 4 -3 315.276 245.882 2
4 7 -3 570.578 174.449 3
4 -11 3 621.789 239.982 4
7 -11 -3 676.172 289.526 2
4 7 -3 417.24 241.819 1
-11 7 3 685.577 249.659 2
-11 4 -3 40.0002 173.518 1
7 4 3 354.384 161.934 2
7 -11 -6 1607.85 320.671 1
-11 4 -6 1322.04 384.089 1
7 4 6 1841.2 335.833 1
7 -11 -6 1087.41 322.669 2
-11 7 6 1669.27 528.251 2
-11 7 6 1769.72 458.733 1
4 7 -6 1186.32 381.091 3
7 -11 -9 8976.82 889.467 1
7 -11 -9 8494.56 1040.28 2
7 4 9 9532.72 816.056 1
-11 7 9 8793.63 1081.45 1
-11 4 -9 9559.98 785.225 4
4 7 -9 10699.1 1132.13 3
-11 7 9 8414.68 1170.89 2
7 4 12 213.176 94.8174 1
7 -11 -12 274.607 109.864 1
-11 7 12 147.616 161.166 1
4 7 -12 -5.89316 156.743 3
7 -11 -12 303.473 264.503 2
-11 7 15 393.878 143.032 1
4 7 -15 351.656 258.36 3
7 4 15 421.238 163.39 1
7 -11 -15 391.239 247.012 2
5 7 16 420.016 184.951 1
-12 5 16 313.715 289.448 1
7 5 -16 903.536 640.63 2
-12 5 16 410.961 157.076 3
5 -12 -16 522.661 364.319 2
5 -12 -13 2445.85 667.956 2
7 5 -13 2783.29 858.125 2
5 7 13 1713.88 316.641 1
-12 5 13 2028.6 547.367 1
7 5 -10 3942.21 914.977 2
5 -12 -10 2770.18 557.042 2
5 -12 -10 2517.03 394.831 1
5 7 10 3386.47 422.275 1
-12 5 10 3597.77 728.06 1
5 7 7 2230.25 314.31 1
5 -12 -7 1712.26 385.877 2
7 5 -7 2090.67 528.868 1
-12 5 7 2772.61 670.996 2
7 5 -7 2056.46 590.988 2
-12 5 7 2088.98 508.702 1
5 -12 -7 2099.08 327.292 1
7 5 -4 141.933 163.961 2
5 -12 -4 393.675 175.218 2
-12 7 -4 1534.86 426.306 2
-12 5 4 1020.79 350.296 1
7 -12 4 861.95 255.592 4
7 5 -4 445.618 206.521 1
5 7 4 717.621 215.076 1
5 7 4 639.878 361.41 4
-12 7 -4 1269.13 404.803 1
-12 5 4 1119.15 415.403 2
5 -12 -4 497.578 177.101 1
7 5 -1 4612.81 688.982 1
5 7 1 4255.35 507.334 2
7 5 -1 3836.02 608.078 2
-12 5 1 5230.74 741.821 1
-12 5 1 5326.45 778.039 2
5 7 1 4207.68 573.569 1
7 5 -1 3806.58 674.397 4
5 7 1 3740.58 693.06 4
7 -12 1 5022.88 685.762 4
-12 7 -1 4911.53 756.265 2
-12 7 -1 3938.86 625.48 1
-12 7 2 684.945 323.319 1
5 7 -2 218.86 206.49 1
7 5 2 609.117 206.619 2
-12 5 -2 604.355 261.999 2
-12 7 2 -244.346 277.121 2
7 -12 -2 82.8897 99.5751 2
5 7 -2 126.232 138.941 3
7 5 2 673.557 316.679 4
5 -12 2 316.276 132.819 4
-12 5 -2 82.3338 158.053 1
7 -12 -2 224.753 108.615 1
5 7 -2 -338.985 320.059 4
5 7 -2 341.461 247.328 2
7 5 2 118.046 176.588 1
5 -12 5 286.703 159.898 4
7 5 5 194.815 159.852 4
-12 7 5 7.11196 177.101 2
-12 7 5 494.727 258.707 1
5 7 -5 -33.7944 161.247 3
7 -12 -5 219.234 149.202 1
5 7 -5 395.708 247.61 1
7 5 5 551.777 184.34 1
-12 5 -5 727.718 264.858 1
-12 5 -5 140.908 145.554 2
7 -12 -5 242.816 159.79 2
7 -12 -8 482.767 191.789 2
-12 5 -8 906.39 183.103 4
7 5 8 1636.79 357.774 1
-12 7 8 1243.25 446.388 1
7 -12 -8 1439.79 354.562 1
-12 7 8 968.258 400.078 2
7 -12 -11 1243.7 442.016 2
-12 7 11 1167.02 484.642 1
-12 5 -11 806.984 246.637 4
7 5 11 970.875 252.551 1
7 -12 -11 606.197 178.065 1
7 -12 -14 770.013 388.129 2
-12 7 14 255.246 180.471 1
7 5 14 216.119 171.889 1
7 5 17 62.8436 101.024 1
-12 7 17 176.884 80.1044 3
7 6 -14 653.959 538.233 2
6 -13 -14 89.2488 165.358 2
6 7 14 225.099 174.108 1
-13 6 14 97.9698 227.321 1
6 -13 -11 1123.59 264.884 1
7 6 -11 1617.43 641.164 2
6 -13 -11 1117.04 406.259 2
6 7 11 1510.49 287.598 1
-13 7 -11 1210.04 245.783 4
-13 6 11 1621.59 576.153 1
6 7 8 2309.07 378.234 1
-13 6 8 1361.96 506.642 1
6 -13 -8 1475.81 408.525 2
7 6 -8 868.452 386.339 2
6 -13 -8 985.141 262.8 1
6 -13 -5 11056.8 960.45 2
-13 6 5 13348.7 1448.27 2
6 7 5 12866.1 874.318 1
7 -13 5 9269.15 796.695 4
6 -13 -5 11199.2 848.312 1
-13 7 -5 11674.3 1232.1 2
6 7 5 9298.6 1170.74 4
7 6 -5 11831.8 1343.35 1
-13 7 -5 11193 1179.43 1
-13 6 5 12854.7 1333.03 1
7 6 -5 11887.7 1311.69 2
6 7 2 3654.27 455.02 2
6 7 2 3689.99 703.035 4
7 6 -2 3407.31 615.957 1
-13 7 -2 3919.07 704.061 2
-13 6 2 3861.18 649.806 1
-13 7 -2 4050.71 691.836 1
7 -13 2 3402.12 548.337 4
7 6 -2 2782.7 671.514 4
6 -13 -2 3322.5 470.474 1
6 7 2 3950.6 559.719 1
7 6 -2 4322.27 713.064 2
-13 6 2 4891.91 788.964 2
7 6 1 1361.64 358.465 1
6 7 -1 1621.91 370.455 2
6 -13 1 1105.54 323.878 4
-13 6 -1 1288.63 380.318 2
7 -13 -1 1693.12 366.267 1
-13 7 1 2021.56 477.915 1
-13 7 1 2458.25 531.66 2
6 7 -1 1092.89 272.244 4
7 6 1 1164.92 281.503 2
7 6 1 1667.76 441.505 4
-13 6 -1 1038.81 341.953 1
6 7 -1 1544.82 353.556 1
7 -13 -4 958.573 280.131 1
6 7 -4 965.799 285.089 1
7 6 4 435.786 217.884 4
6 -13 4 508.776 193.015 4
-13 6 -4 974.964 364.184 1
7 6 4 748.206 200.73 2
7 6 4 729.285 213.57 1
-13 7 4 973.878 325.427 2
-13 6 -4 661.036 318.439 2
6 7 -4 429.145 196.43 2
-13 7 4 510.767 259.492 1
7 -13 -4 908.122 305.165 2
-13 6 -7 6830.09 934.217 1
7 6 7 8130.14 697.664 1
-13 7 7 8113.13 1057.67 1
-13 7 7 6963.09 1089.95 2
6 7 -7 9322.67 1126.54 3
6 7 -7 9715.84 1270.15 1
6 7 -7 9122.44 1188.71 2
7 -13 -7 7382.55 898.559 2
7 -13 -7 7810.1 746.464 1
7 -13 -10 809.028 280.973 2
7 -13 -10 1283.21 271.349 1
-13 6 -10 652.924 152.893 4
-13 7 10 1166.5 440.412 1
7 -13 -13 2014.14 580.654 2
7 6 13 1614.62 352.28 1
7 -13 -13 1846.03 416.144 1
-13 7 13 1726.88 571.292 1
7 6 16 -319.397 184.703 1
6 7 -16 326.653 417.928 2
7 -13 -16 -237.423 404.877 2
-13 7 16 148.092 217.121 1
7 7 0 450.892 145.298 4
-14 7 0 750.469 278.424 1
7 7 0 877.534 285.012 1
-14 7 0 792.743 295.228 2
7 7 0 490.122 174.995 2
7 -14 0 220.361 173.593 4
-14 7 -3 565.351 323.247 1
-14 7 -3 620.126 311.326 2
-14 7 3 1302.61 452.724 2
7 7 -3 -283.597 239.257 4
7 7 3 95.733 115.138 1
7 7 3 599.249 340.71 4
7 -14 -3 217.534 155.798 1
-14 7 3 406.306 293.524 1
7 7 -3 220.233 155.021 1
7 7 3 231.2 149.129 2
7 -14 3 395.964 204.584 4
7 7 -3 411.7 313.575 2
7 -14 6 981.488 284.745 4
-14 7 -6 1034.92 409.244 2
7 -14 -6 647.833 268.423 2
-14 7 -6 1236.46 430.101 1
7 7 -6 641.563 384.172 2
7 7 -6 719.608 339.969 1
-14 7 6 473.534 299.511 1
-14 7 6 1249.33 505.567 2
7 -14 -6 824.167 296.105 1
7 7 6 698.269 217.484 1
7 7 9 3281.8 458.418 1
7 7 -9 5175.5 1062.78 2
-14 7 9 3636.1 784.164 1
7 -14 -9 3799.45 730.424 2
7 -14 -9 4010.01 547.001 1
-14 7 -12 321.431 125.554 4
7 -14 -12 424.884 190.418 1
7 7 12 396.725 183.925 1
-14 7 12 486.254 374.149 1
7 7 -12 -42.0138 276.979 2
7 -14 -12 74.714 243.093 2
7 -14 -15 1301.91 504.414 2
7 7 -15 1647.94 570.387 2
-14 7 15 1051.49 376.995 1
7 7 15 798.041 236.616 1
-4 -4 0 67146.5 1943.46 4
-4 -4 0 64089.3 1700.88 2
8 -4 0 69705.5 2255.66 2
-4 -4 0 69266.7 2031.45 1
-4 -4 0 68589.4 2190.42 3
8 -4 0 71415 2232.99 1
-4 -4 -3 4317.63 592.595 4
-4 8 3 3539.07 340.827 1
-4 8 -3 3709.67 486.146 4
8 -4 3 4441.81 556.014 1
-4 -4 3 3109.16 484.702 1
-4 -4 3 3295.1 457.994 3
-4 -4 -3 3945.03 394.515 1
8 -4 -3 4523.53 697.127 2
-4 8 3 3632.12 454.585 2
8 -4 -3 4031.04 607.854 1
8 -4 -6 1467.41 417.105 2
-4 -4 6 1395.05 345.796 1
-4 8 6 1110.3 287.205 2
8 -4 -6 1542.65 424.192 1
-4 8 6 1128.79 220.845 3
-4 8 6 1467.89 235.754 1
-4 -4 6 1429.66 279.977 3
8 -4 6 1803.36 357.832 1
-4 8 9 4146.59 430.277 3
-4 -4 9 4583 718.549 1
-4 8 9 5270.71 576.007 1
-4 -4 9 4606.08 532.721 3
8 -4 -9 4446.65 880.078 2
8 -4 -9 4517.95 802.342 1
8 -4 -12 424.433 300.954 1
-4 8 12 697.783 238.805 1
-4 -4 12 547.218 208.687 1
8 -4 -12 92.6335 261.299 2
-4 -4 -15 133.926 155.691 3
-4 8 15 548.032 201.183 1
8 -4 -15 190.552 271.704 2
-4 -4 15 84.9605 133.846 1
-3 -5 -16 559.872 237.375 3
8 -3 -16 398.686 493.782 2
-3 8 16 907.536 307.271 1
-5 -3 16 526.784 338.995 1
-5 -3 13 332.454 254.428 1
-3 -5 -13 441.252 202.867 3
-3 8 13 825.745 285.333 1
8 -3 -13 437.493 347.063 2
-3 8 10 401.883 58.9507 3
8 -3 -10 870.272 383.983 2
-5 -3 10 243.863 143.797 3
-3 -5 -10 276.801 135.04 3
-5 -3 10 543.043 322.217 1
-3 8 10 464.835 191.715 1
8 -3 -10 1084.53 480.591 1
-3 8 7 3455.3 481.959 2
8 -3 -7 3284.73 646.127 1
-3 8 7 3107.23 397.855 3
-3 -5 -7 3438.75 494.906 3
-5 -3 7 3455.64 457.078 3
8 -3 -7 3613.59 732.573 2
-5 -3 7 3140.03 547.383 1
-3 8 7 3324.77 344.562 1
8 -3 -4 2424.63 508.308 1
-3 -5 -4 3085.45 534.523 4
-3 -5 -4 3631.02 513.205 3
-5 -3 4 3553.23 566.3 1
8 -5 4 2736.82 445.986 1
-3 8 4 4262.18 527.456 3
-5 -3 4 3632.76 523.678 3
-5 8 -4 2750.93 384.164 4
8 -3 -4 2606.72 563.473 2
-3 8 4 2810.59 385.229 2
-5 -3 1 10080.1 803.813 2
8 -5 1 11753.3 924.541 2
-3 -5 -1 10976.9 852.988 4
8 -3 -1 10484.8 930.185 2
-3 -5 -1 10639.6 865.641 3
-5 -3 1 10183 872.733 1
-3 8 1 9832.58 657.704 2
8 -5 1 11922 900.074 1
-3 -5 -1 10147.5 700.831 1
8 -3 -1 11311.2 922.287 1
8 -3 2 2747.68 440.013 2
-3 8 -2 2622.45 431.895 4
-5 8 2 2333.21 372.477 2
8 -5 -2 2417.41 461.178 2
-3 -5 2 2545.35 407.766 3
-3 -5 2 2209.95 371.245 1
8 -3 2 2742.79 449.01 1
-5 8 2 1875.92 273.757 1
-5 -3 -2 2638.38 357.228 1
-5 -3 -2 2238.43 361.462 4
-5 -3 -2 2605.79 312.253 2
8 -5 -2 2437.21 447.955 1
-5 8 5 4283.75 572.404 2
-5 8 5 4759.43 483.787 1
8 -5 -5 4641.18 760.793 2
-5 -3 -5 5661.43 482.143 1
-5 -3 -5 5189.68 665.402 4
-3 -5 5 6118.5 637.984 3
-3 -5 5 6398.09 743.264 1
8 -5 -5 5008.28 718.433 1
-3 8 -5 4047.94 533.969 4
8 -3 5 6192.42 681.883 1
-5 8 8 768.162 207.644 1
-3 -5 8 869.284 306.59 1
8 -5 -8 235.225 244.09 2
-5 8 8 1150.45 358.925 2
-3 -5 8 1219.17 270.09 3
8 -5 -8 1186.7 347.766 1
-5 8 8 588.104 160.011 3
8 -3 8 906.883 247.005 1
-5 8 11 232.893 91.0999 3
8 -5 -11 454.404 311.852 1
-3 -5 11 361.106 172.581 1
-5 8 11 365.782 128.985 1
-5 8 14 411.422 293.768 1
-3 8 -14 329.662 263.184 3
-3 -5 14 18.0579 129.332 1
8 -5 -14 453.851 380.318 2
8 -5 -14 16.0361 202.959 1
8 -5 -17 610.924 489.662 2
-5 8 17 35.4064 115.7 1
-3 -5 17 399.959 346.039 1
-3 8 -17 612.706 282.707 3
8 -2 -17 13.2153 343.905 2
-6 -2 17 -45.831 213.683 1
-2 8 17 80.9635 184.889 1
-2 -6 -17 419.132 193.403 3
-2 8 14 480.117 227.471 1
-6 -2 14 592.049 300.676 1
8 -2 -14 200.515 349.537 2
-2 -6 -14 244.922 156.772 3
8 -2 -11 3084.52 766.769 1
8 -2 -11 2856.12 813.648 2
-6 -2 11 1713.25 464.004 1
-2 -6 -11 1640.46 306.354 3
-2 8 11 2031.69 344.815 1
-6 -2 11 1763.19 307.506 3
-2 -6 -8 4841.6 588.42 3
-6 -2 8 4318.16 523.989 3
8 -2 -8 4284.36 777.066 1
-2 8 8 4124.26 387.933 1
-6 -2 8 4828.8 760.863 1
-2 8 8 4055.74 477.39 3
8 -2 -8 4561.13 872.947 2
8 -6 5 16092.6 1113.84 1
8 -2 -5 16081.6 1475.54 2
-6 -2 5 17015.5 1094.03 3
8 -2 -5 17700.2 1471.89 1
-6 8 -5 15359.8 800.507 4
-2 8 5 16412.7 999.29 3
-2 8 5 17941 913.593 2
-6 -2 5 18218.2 1343.04 1
-2 -6 -5 16610.4 1072.45 3
-2 8 2 1126.56 207.413 2
-2 -6 -2 1132.7 345.294 4
8 -6 2 1367.67 344.334 1
-6 -2 2 785.808 308.221 2
8 -2 -2 972.243 324.963 2
-6 -2 2 963.636 302.092 1
-2 -6 -2 585.492 168.763 1
-2 -6 -2 1111.42 342.506 3
8 -2 -2 847.967 294.088 1
-2 8 2 1037.47 295.715 3
8 -2 1 7402.12 768.41 2
8 -6 -1 6644.13 727.518 2
8 -2 1 8649.99 800.416 1
-2 8 -1 7021.61 721.84 3
8 -6 -1 7063.3 716.179 1
-2 -6 1 7700.3 698.263 4
-2 -6 1 7555.4 703.349 3
-2 8 -1 7673.56 788.692 4
-6 8 1 6788.69 587.906 1
-6 -2 -1 7759.23 640.129 4
-6 -2 -1 7852.18 631.316 2
-6 -2 -1 7900.52 692.721 1
-2 -6 1 6704.13 600.055 1
-6 8 1 6805.75 680.006 2
-2 -6 4 3482.2 527.885 1
8 -6 -4 3235.28 537.411 1
-2 8 -4 2734.61 499.365 3
-6 8 4 2456.64 459.113 2
-6 -2 -4 2806.45 449.696 4
-6 8 4 2689.62 387.806 1
8 -6 -4 2216.74 494.942 2
-6 -2 -4 2978.29 417.421 1
-2 -6 4 3461.22 488.236 3
-2 8 -4 2181.19 398.029 4
-6 -2 -4 2575.22 334.063 2
8 -2 4 3147.34 373.59 4
8 -2 4 2975.78 482.36 1
-6 8 7 532.417 212.105 1
8 -6 -7 54.9888 144.843 1
-6 8 7 683.097 263.053 2
8 -6 -7 286.282 158.904 2
-2 8 -7 273.9 152.821 3
-2 -6 7 364.67 133.488 1
8 -2 7 724.076 272.38 1
-2 -6 7 389.779 155.837 3
-6 8 10 1747.62 438.072 2
-2 -6 10 1516.61 398.31 1
-2 8 -10 1751.71 423.702 3
8 -2 10 1437.28 327.374 1
-6 8 10 1526.33 332.218 1
8 -6 -10 1230.58 419.564 1
-6 8 10 1433.34 239.679 3
8 -6 -10 2260.75 549.192 2
-2 8 -13 1460.36 427.337 3
8 -6 -13 561.087 270.601 1
-6 8 13 1307.66 402.765 1
-2 -6 13 458.125 299.429 1
8 -6 -13 795.13 506.609 2
-6 8 16 -331.168 242.35 1
8 -6 -16 158.576 251.153 2
-2 -6 16 -26.1873 144.453 1
-2 8 -16 -171.859 221.157 3
-7 -1 15 491.457 364.402 1
-1 8 15 381.63 200.757 1
-1 -7 -15 540.754 205.666 3
8 -1 -15 -22.5517 312.673 2
-1 -7 -15 321.259 308.662 2
-7 -1 12 389.913 108.217 3
8 -1 -12 399.382 291.648 2
-1 8 12 257.924 128.27 1
-1 -7 -12 136.758 103.738 3
-7 -1 12 542.258 304.555 1
-1 -7 -9 578.624 167.066 3
8 -1 -9 1516.88 555.741 2
-7 -1 9 903.701 250.045 1
8 -1 -9 1381.7 484.174 1
-1 -7 -9 966.495 222.501 2
-1 8 9 1559.28 253.479 1
-7 -1 9 1052.72 250.784 3
-1 8 9 1222.98 284.211 3
-7 -1 6 1593.75 384.247 1
-1 -7 -6 1150.44 212.492 2
-7 8 -6 1087.88 206.339 4
-1 8 6 2071.85 388.993 3
8 -1 -6 480.24 253.11 1
-7 -1 6 1631.2 468.262 2
8 -1 -6 407.447 229.425 2
-1 -7 -6 1469.77 325.005 3
8 -7 3 387.351 176.53 1
8 -1 -3 89.1671 197.876 2
-7 -1 3 193.676 174.9 1
-1 -7 -3 636.785 240.249 3
8 -1 -3 563.648 324.535 1
-1 8 3 236.477 127.136 3
-1 -7 -3 89.283 157.559 4
-7 -1 3 30.6258 119.782 2
-7 -1 0 1881.36 400.451 2
8 -7 0 1289.92 334.147 1
-1 8 0 2156.91 488.03 4
8 -1 0 1319.12 375.655 2
-1 -7 0 2474.53 433.699 4
-1 -7 0 1473.81 291.052 1
-1 -7 0 1497.4 343.187 3
-7 8 0 1634.73 369.015 2
8 -7 0 1926.33 421.782 2
8 -1 0 1973.07 410.732 1
-7 8 0 1502.36 313.797 1
-1 8 0 1695.08 390.547 3
-7 -1 0 1498.14 357.619 1
-7 8 3 2756.06 407.563 1
-7 -1 -3 2877.07 395.601 4
8 -7 -3 2804.17 459.311 1
-7 -1 -3 2632.04 386.377 2
-1 8 -3 3276 516.206 3
-7 8 3 2881.98 499.761 2
-1 -7 3 3102.26 442.449 3
-1 8 -3 2613.25 452.641 4
8 -7 -3 2445.08 492.525 2
8 -1 3 2882.92 451.066 1
-7 -1 -3 3163.66 467.795 1
8 -1 3 3261.29 406.709 4
8 -1 3 3427.16 496.313 2
-7 -1 -6 1415.88 352.397 4
8 -7 -6 892.872 273.639 1
-7 8 6 914.432 247.688 1
8 -7 -6 863.199 336.837 2
-7 8 6 714.678 270.343 2
-1 -7 6 1280.18 286.692 3
-7 -1 -6 1026.6 248.818 1
8 -1 6 1137.11 322.499 1
-1 8 -6 612.587 185.231 3
-7 8 9 913.075 332.206 2
8 -7 -9 1046.71 324.348 1
-7 8 9 1023.58 305.421 1
8 -1 9 1301.31 288.951 1
8 -7 -9 1630.63 518.266 2
-1 8 -9 1028.37 365.353 3
-1 -7 9 893.682 249.713 1
-7 8 12 14.8881 105.829 1
-1 -7 12 86.434 150.121 1
-1 8 -12 1136.4 408.013 3
8 -7 -12 512.394 320.263 1
8 -7 -12 987.646 482.031 2
-1 -7 15 119.813 201.557 1
-1 8 -15 373.917 320.476 3
-7 8 15 381.124 273.637 1
8 -7 -15 841.216 375.6 1
8 -7 -15 521.437 353.38 2
0 8 16 336.278 117.728 1
-8 0 16 51.9508 224.698 1
0 -8 -16 158.35 185.248 2
8 0 -13 243.06 315.494 2
0 -8 -13 237.642 256.123 2
0 8 13 266.987 144.225 1
0 -8 -13 218.805 170.656 3
-8 0 13 573.026 331.582 1
-8 0 13 417.96 159.519 3
-8 0 10 2259.74 576.668 1
8 0 -10 2462.41 660.35 1
0 -8 -10 1625.03 382.039 2
0 8 10 2880.32 354.627 1
8 0 -10 3150.17 787.371 2
-8 0 10 2097.17 356.581 3
0 -8 -10 1441.52 333.345 3
-8 0 7 4226.87 707.434 1
0 -8 -7 3566.41 494.991 3
0 8 7 3942.26 498.24 3
8 0 -7 4529.28 812.074 1
0 -8 -7 4201.35 450.985 2
8 0 -7 3998.17 751.486 2
-8 0 7 4228.76 712.665 2
-8 0 4 54714.5 2406.26 1
0 8 4 55644.2 1991.48 3
8 0 -4 54655.7 2658.76 2
8 0 -4 53807.4 2548.08 1
8 -8 4 58318.2 2168.21 1
-8 0 4 55867.8 2464.74 2
0 -8 -4 55319.9 1960.25 3
8 -8 1 5044.88 605.991 1
-8 0 1 5905.46 707.582 2
0 8 1 5286.26 753.838 4
8 0 -1 5638.52 720.436 2
0 -8 -1 5376.49 704.297 4
-8 8 -1 5141.74 613.538 1
-8 0 1 5759.24 716.09 1
0 8 1 5728.77 679.562 3
-8 8 -1 5919.66 698.51 2
8 0 -1 5799.51 714.662 1
0 -8 -1 5663.11 634.079 3
0 8 -2 20520.2 1292.7 3
8 0 2 19058.6 1134.44 2
8 0 2 18370.4 1100.6 4
-8 0 -2 25061.1 1340.97 2
-8 8 2 19290.4 1217.25 1
0 8 -2 16726.9 1277.17 4
8 -8 -2 19461.4 1255.91 1
8 0 2 18498.5 1170.21 1
8 -8 -2 19770.2 1334.21 2
-8 8 2 17215.4 1247.74 2
-8 0 -2 24308.3 1388.67 1
-8 0 -5 2273.61 358.974 4
-8 0 -5 2810.19 436.593 1
8 0 5 2552.43 419.255 1
8 0 5 2326.69 388.591 4
0 8 -5 2667.92 539.621 4
8 -8 -5 2573.43 479.855 1
8 -8 -5 2527.91 528.411 2
-8 8 5 3586.95 594.618 2
-8 8 5 2372.52 402.605 1
-8 0 -5 2347.16 395.861 2
0 -8 5 2493.46 419.152 3
0 8 -5 3413.5 524.253 3
-8 8 8 14765.9 1375.59 2
0 8 -8 16278 1280.7 3
-8 8 8 14783.3 1163.04 1
8 0 8 14637 1038.96 1
-8 0 -8 15857.3 1201.37 4
8 -8 -8 16280.8 1557.8 2
8 -8 -8 16232.1 1359.29 1
0 8 -11 2110 495.906 3
8 -8 -11 1360.78 509.878 2
8 0 11 1457.24 351.087 1
8 -8 -11 671.59 395.98 1
-8 8 11 1101.22 447.274 2
-8 8 11 800.931 379.9 1
0 -8 14 713.318 286.01 1
-8 8 14 1062.41 399.586 1
0 8 -14 1201.67 373.868 3
8 -8 -14 905.471 420.773 2
8 -8 -14 857.027 448.034 1
0 -8 17 386.757 270.77 1
-8 8 17 111.772 209.955 1
0 8 -17 366.76 311.622 3
8 -8 -17 380.45 458.164 2
1 -9 -17 294.05 203.982 2
-9 1 17 252.474 280.823 1
1 8 17 142.203 140.38 1
8 1 -14 848.494 661.124 2
1 8 14 886.672 229.805 1
-9 1 14 636.105 356.79 1
1 -9 -14 653.29 343.432 2
-9 1 14 658.194 204.116 3
8 1 -11 256.799 267.685 2
1 -9 -11 247.617 186.444 2
1 8 11 563.592 158.752 1
-9 1 11 238.84 115.981 3
-9 1 11 106.542 141.463 1
1 -9 -11 -24.9363 188.395 3
1 -9 -8 2268.04 408.462 2
-9 1 8 2853.43 669.905 2
1 -9 -8 1660.14 356.63 3
-9 1 8 2161.52 542.937 1
8 1 -8 3201.43 750.456 1
8 1 -8 4152.67 892.75 2
1 -9 -5 382.368 114.543 2
8 1 -5 -127.733 311.086 1
1 8 5 978.555 278.465 3
8 1 -5 38.6481 291.603 2
1 -9 -5 526.353 187.629 3
-9 1 5 483.772 213.942 1
-9 1 5 746.522 234.674 2
-9 1 2 2282.37 515.522 1
1 8 2 1227.52 431.328 4
-9 8 -2 1892.89 429.025 2
1 -9 -2 1970.95 414.659 3
1 8 2 1394.69 386.719 3
-9 1 2 1846.81 485.266 2
1 -9 -2 1810.95 431.061 4
8 1 -2 1057.19 388.521 1
8 -9 2 1761.24 405.671 1
8 1 -2 934.094 371.284 2
-9 8 -2 1343.23 368.085 1
-9 1 -1 2860.47 505.06 1
8 1 1 2926.58 456.323 2
1 -9 1 3043.19 516.494 4
8 -9 -1 2870.01 493.512 2
1 8 -1 1716.38 385.274 3
-9 1 -1 2938.09 508.141 2
8 1 1 3135.44 521.648 4
-9 8 1 2403.25 532.367 2
8 -9 -1 2798.4 468.768 1
-9 8 1 1883.65 410.493 1
1 8 -1 2962.72 554.798 4
8 1 1 3060.95 498.022 1
1 -9 1 3185.07 514.676 3
8 1 4 10878.4 899.702 1
-9 8 4 9247.58 995.315 2
-9 1 -4 9326.2 684.35 4
8 -9 -4 8976.89 954.493 2
-9 1 -4 8988.82 812.974 2
-9 1 -4 9135.73 875.874 1
8 1 4 10293.3 918.477 4
-9 8 4 8585.8 873.592 1
1 8 -4 10338.5 1056.93 4
1 8 -4 10877.2 1019 3
8 -9 -4 8944.94 829.913 1
-9 8 7 7934.26 1022.43 2
8 -9 -7 7880.96 878.098 1
-9 8 7 6974.17 824.918 1
8 -9 -7 6573.82 885.197 2
1 8 -7 7878.18 878.918 3
8 1 7 7443.92 736.29 1
-9 1 -7 7062.44 694.254 4
8 -9 -10 1314.49 344.098 1
-9 8 10 1547.81 485.898 2
1 8 -10 1620.21 392.566 3
8 1 10 1356.63 338.802 1
8 -9 -10 1390.58 421.001 2
-9 8 10 1362.58 414.022 1
-9 8 13 676.874 366.41 1
8 1 13 376.492 126.681 1
8 -9 -13 967.855 450.035 2
8 -9 -13 526.176 358.991 1
8 -9 -16 636.535 364.349 2
-9 8 16 230.887 182.891 1
1 -9 16 149.28 219.511 1
1 8 -16 220.044 225.131 3
2 -10 -15 215.014 302.222 2
-10 2 15 448.774 291.814 1
-10 2 15 185.315 101.665 3
2 8 15 392.559 152.337 1
2 -10 -12 1252.91 349.474 2
8 2 -12 1845.32 766.476 2
-10 2 12 1342.43 275.395 3
2 8 12 1409.91 244.623 1
-10 2 12 1619.1 487.232 1
2 -10 -9 1133.99 311.337 3
8 2 -9 2165.45 659.965 2
-10 2 9 1529.27 509.833 2
-10 2 9 1715.48 507.355 1
8 2 -9 1498 539.779 1
2 -10 -9 1996.98 399.206 2
8 2 -6 2557.94 650.413 1
2 8 6 3322.79 537.391 3
2 -10 -6 2588.59 362.922 2
2 -10 -6 1997.25 382.27 3
-10 2 6 3452.66 673.734 1
-10 2 6 2891.54 668.856 2
8 2 -6 2907.87 670.293 2
-10 8 -3 12719.9 1153.92 2
2 8 3 7904.08 852.545 3
2 -10 -3 10962.3 922.955 3
-10 8 -3 11516.2 1030.65 1
8 2 -3 7562.53 1016.42 2
8 -10 3 11947.6 776.402 4
-10 2 3 8644.52 989.069 2
8 -10 3 12327.1 1044.28 1
8 2 -3 6803.67 931.852 1
-10 2 3 7922.59 959.665 1
8 -10 0 2024.39 439.52 1
8 2 0 1256.95 414.406 4
-10 2 0 2401.59 539.017 2
-10 8 0 2040.23 516.146 1
8 2 0 976.1 359.675 1
-10 8 0 1927.05 501.369 2
2 8 0 1085.61 398.747 3
2 -10 0 2772.46 565.76 4
8 2 0 968.275 337.5 2
-10 2 0 1728.45 493.741 1
2 8 0 1620.14 433.568 4
8 -10 -3 4498.29 597.498 1
2 8 -3 5364.6 780.11 4
-10 8 3 4892 682.22 1
-10 2 -3 5190.8 651.912 2
2 -10 3 4978.96 627.5 4
8 2 3 5652.84 630.216 1
2 8 -3 5088.48 689.073 3
8 -10 -3 5265.52 697.43 2
8 2 3 5087.22 571.069 2
-10 8 3 5130.18 757.769 2
-10 2 -3 6421.97 773.386 1
8 2 3 5482.24 681.85 4
8 2 6 6567.72 694.318 1
8 -10 -6 6646.43 872.858 2
-10 2 -6 5976.8 540.99 4
-10 8 6 7495.18 990.007 2
2 8 -6 7162.7 857.576 3
-10 8 6 6174.01 757.872 1
8 -10 -6 6188.93 727.337 1
-10 2 -6 4913.34 670.583 1
8 -10 -9 2241.45 648.488 2
2 8 -9 2565.74 559.934 3
8 -10 -9 2441.26 477.098 1
8 2 9 2293.57 442.897 1
-10 2 -9 2183.02 422.143 4
-10 8 9 1589.98 420.301 1
-10 8 9 2048.19 574.909 2
8 -10 -12 2880.17 578.895 1
8 -10 -12 2933.18 753.24 2
-10 8 12 2967.21 634.189 1
2 8 -12 4560.66 765.115 3
8 2 12 2199.91 396.087 1
2 8 -15 328.025 196.89 3
8 -10 -15 600.352 284.026 1
8 -10 -15 671.569 423.399 2
-10 8 15 628.783 401.77 1
8 2 15 -72.5093 149.586 1
3 8 16 -19.9943 167.703 1
-11 3 16 51.5909 234.076 1
-11 3 16 73.1717 106.327 3
3 -11 -16 708.459 378.786 2
8 3 -16 718.206 606.219 2
8 3 -13 488.19 528.236 2
3 8 13 345.075 104.049 1
3 -11 -13 -140.029 237.861 2
-11 3 13 468.725 287.167 1
3 8 10 3549.38 367.94 1
-11 3 10 3728.79 726.498 1
3 -11 -10 4083.93 658.637 2
8 3 -10 3315.83 802.421 2
8 3 -7 1253.11 513.045 1
-11 3 7 546.143 334.317 2
8 3 -7 1398.67 526.758 2
-11 3 7 795.793 414.46 1
3 -11 -7 573.398 169.688 2
3 8 4 3417.84 353.167 1
3 -11 -4 3223.53 372.429 2
-11 3 4 4061.68 736.07 2
8 3 -4 2573.06 602.744 1
-11 8 -4 3018.69 550.982 1
-11 8 -4 2868.11 576.65 2
3 -11 -4 3231.01 335.288 1
8 3 -4 2939.19 648.29 2
8 -11 4 3141.42 394.078 4
3 8 4 3962.49 631.258 3
-11 3 4 3825.01 660.479 1
3 8 1 4758.41 457.232 2
8 -11 1 5916.44 728.798 1
3 8 1 4547.84 683.453 3
8 3 -1 4848.94 710.388 1
3 8 1 4488.67 752.424 4
3 8 1 4627.86 522.628 1
-11 3 1 5461.14 752.033 1
-11 8 -1 5519.1 791.324 1
-11 8 -1 5027.99 761.154 2
-11 3 1 5026 723.784 2
3 -11 -1 5496.64 789.288 4
8 3 -1 5235 714.49 2
-11 3 -2 8644.71 927.164 2
-11 3 -2 9448.6 1019.31 1
3 -11 2 9084.94 895.564 4
8 -11 -2 7735.69 778.538 1
8 3 2 8937.24 950.825 4
3 8 -2 8882.29 949.89 3
-11 8 2 9489.11 1112.09 2
8 -11 -2 8749.74 886.522 2
8 3 2 9562.99 873.725 1
-11 8 2 9836.57 1003.71 1
3 8 -2 8574.89 1022.35 4
8 3 2 8993.91 780.741 2
8 3 5 8076.06 749.442 1
-11 8 5 7343.93 884.021 1
-11 3 -5 7312.73 852.14 2
8 -11 -5 7687.8 773.896 1
-11 8 5 8012.28 1024.53 2
8 -11 -5 6953.4 839.749 2
3 8 -5 8384.05 972.268 3
-11 3 -5 8009.12 879.634 1
8 3 5 7237.27 861.491 4
-11 8 8 2761.02 722.128 2
8 -11 -8 3044.44 564.364 1
8 -11 -8 2934.58 664.323 2
-11 3 -8 2721.5 399.981 4
3 8 -8 5398.81 846.357 3
8 3 8 3602.16 545.71 1
-11 8 8 3022.81 678.418 1
8 -11 -11 2084.58 650.03 2
-11 8 11 2170.57 588.929 1
8 3 11 2033.55 407.102 1
8 -11 -11 1391.59 357.176 1
-11 8 14 222.162 212.87 1
8 3 14 240.649 126.922 1
3 8 -14 -203.629 230.543 3
8 -11 -14 249.072 153.1 1
-11 8 17 -43.0341 171.545 1
3 8 -17 169.153 239.122 3
8 3 17 47.2094 85.0893 1
8 -11 -17 563.804 532.102 2
8 4 -14 -387.04 331.055 2
4 -12 -14 -239.276 359.433 2
-12 4 14 -238.636 263.057 1
4 8 14 233.326 134.782 1
-12 4 11 152.04 230.328 1
4 -12 -11 71.3341 273.411 2
4 8 11 599.739 181.216 1
8 4 -11 -128.09 425.474 2
8 4 -8 1843.62 600.628 1
4 -12 -8 1454.46 362.52 2
-12 4 8 2743.21 748.319 2
-12 4 8 2769.76 702.259 1
8 4 -8 1986.81 602.406 2
4 8 8 3544.55 334.433 1
4 -12 -8 1180.03 227.508 1
-12 4 5 1291.61 442.094 1
4 -12 -5 1398.98 311.208 2
8 4 -5 1440.71 531.484 2
8 -12 5 1424.8 297.721 4
-12 4 5 906.885 337.509 2
-12 8 -5 1329.21 369.866 1
4 8 5 752.879 195.221 1
8 4 -5 916.287 430.687 1
4 -12 -5 1380.08 251.17 1
4 8 2 34.3098 97.1857 1
-12 8 -2 269.33 160.538 2
4 8 2 -96.8779 93.2669 2
4 8 2 -118.039 150.435 4
8 4 -2 -143.749 232.843 2
8 4 -2 -481.481 355.453 1
-12 8 -2 322.596 166.097 1
8 -12 2 441.266 205.706 4
-12 4 2 167.267 251.73 1
4 8 2 415.804 268.677 3
-12 4 2 230.824 205.329 2
-12 8 1 1107.15 327.234 2
8 4 1 1164.01 348.408 4
4 -12 1 2117.86 462.647 4
8 4 1 805.402 262.454 1
8 -12 -1 1165.95 322.419 1
-12 4 -1 902.827 349.163 1
4 8 -1 430.275 224.173 4
4 8 -1 1401.02 392.055 1
4 8 -1 842.196 251.139 2
8 4 1 1016.71 273.292 2
-12 8 1 792.447 320.03 1
-12 4 -1 1128.74 375.693 2
4 8 -1 749.889 207.204 3
-12 8 4 5419.42 804.673 1
8 -12 -4 3621.8 615.134 2
8 -12 -4 3621.05 528.425 1
4 -12 4 5070.11 645.431 4
-12 4 -4 3961.61 679.909 1
8 4 4 5133.75 576.797 2
4 8 -4 4404.29 842.352 4
4 8 -4 4437.91 757.972 3
8 4 4 4586.42 772.163 4
-12 4 -4 4320.49 689.794 2
8 4 4 4493.08 608.912 1
-12 8 4 5758.82 877.747 2
4 8 -4 4998.17 769.203 1
-12 4 -7 6702.1 914.166 1
8 -12 -7 6117.55 878.596 2
-12 8 7 6642.42 1053.92 2
-12 4 -7 5821.05 502.612 4
8 4 7 7752.82 762.513 1
-12 8 7 7322.68 974.179 1
4 8 -7 7383.81 960.688 3
8 -12 -7 6112.46 732.614 1
8 -12 -10 6291.69 971.58 2
8 4 10 7065.5 768.524 1
-12 8 10 6738.69 970.359 1
4 8 -10 8743.63 1090.16 3
-12 4 -10 7911.49 773.951 4
8 -12 -10 7550.65 874.113 1
8 -12 -13 178.984 128.181 1
8 -12 -13 338.296 250.829 2
4 8 -13 -110.407 309.003 3
-12 8 13 -102.914 311.045 1
8 4 13 622.497 242.028 1
4 8 -16 156.691 226.198 3
8 4 16 425.596 190.404 1
8 -12 -16 50.3967 235.845 2
5 8 15 420.805 181.163 1
5 -13 -15 852.888 438.085 2
-13 5 15 243.234 263.958 1
8 5 -15 368.672 455.579 2
-13 5 12 925.875 488.042 1
5 8 12 913.319 243.553 1
5 -13 -12 1554.18 534.134 2
8 5 -12 1554.84 684.895 2
8 5 -9 1856.44 629.417 2
5 -13 -9 1229.04 250.202 1
-13 5 9 2673.6 649.006 1
5 8 9 2113.83 307.991 1
5 -13 -9 1530.75 380.245 2
5 -13 -6 1118.62 254.342 1
8 -13 6 747.232 225.829 4
8 5 -6 1217.71 534.575 1
5 8 6 877.354 201.055 1
-13 5 6 1499.47 520.187 2
5 -13 -6 1160.06 302.288 2
8 5 -6 487.932 181.912 2
-13 5 6 1166.88 421.538 1
-13 8 -6 1238.12 424.018 1
5 8 3 976.696 185.371 2
5 8 3 1159.58 284.013 1
-13 8 -3 1534.89 435.292 1
8 5 -3 1015.69 310.942 2
5 -13 -3 1702.34 315.879 1
-13 5 3 1970.89 490.226 2
8 5 -3 493.235 256.49 1
8 -13 3 1868.6 403.889 4
-13 8 -3 1557.13 481.636 2
5 8 3 1501.35 500.382 4
-13 5 3 2027.03 476.207 1
8 -13 0 2320.82 450.569 1
5 8 0 2231.22 421.368 1
-13 8 0 2712.02 543.066 1
8 5 0 3355.14 521.047 2
8 5 0 2097.52 454.122 1
-13 5 0 2204.43 496.88 1
5 8 0 2328.61 560.448 4
8 5 0 3303.99 695.606 4
-13 8 0 2241.63 492.468 2
5 -13 0 1967.11 456.334 4
5 8 0 2600.14 414.911 2
-13 5 0 2311.03 528.297 2
5 8 0 2698.18 564.825 3
8 5 3 3628.75 535.928 1
8 5 3 4699.56 549.021 2
5 8 -3 4777.09 766.017 3
8 5 3 3985.28 745.996 4
8 -13 -3 4057.05 563.523 1
5 8 -3 3764.03 644.578 1
5 8 -3 3612.99 591.956 2
-13 8 3 4394.6 733.012 1
-13 5 -3 4796.72 752.41 1
5 8 -3 4574.22 879.76 4
8 -13 -3 4082.56 605.755 2
-13 8 3 4270.03 780.226 2
5 -13 3 4515.93 611.257 4
-13 5 -3 4577.96 727.648 2
5 8 -6 3401.83 658.025 3
-13 8 6 3275.06 671.239 1
-13 5 -6 4153.47 749.717 2
8 -13 -6 3305.59 640.481 2
8 -13 -6 3594.16 543.889 1
-13 8 6 4065.47 834.134 2
-13 5 -6 4137.95 737.485 1
8 5 6 3569.06 523.564 1
5 8 -9 668.809 295.799 3
-13 5 -9 580.641 165.467 4
8 -13 -9 115.809 165.945 2
8 -13 -9 126.65 191.993 1
-13 8 9 626.074 259.425 1
8 5 9 998.449 284.295 1
8 -13 -12 1323.46 353.649 1
5 8 -12 1815.25 537.082 3
8 -13 -12 1283.96 530.187 2
-13 8 12 814.833 371.055 1
-13 5 -12 1445.27 359.146 4
8 5 12 1119.3 340.484 1
8 -13 -15 218.095 177.675 2
8 -13 -15 644.247 235.333 1
8 5 15 236.76 179.587 1
-14 6 16 -195.996 290.976 1
6 8 16 -48.4625 73.4443 1
6 -14 -16 290.802 340.036 2
8 6 -13 442.083 423.642 2
6 -14 -13 793.485 393.081 2
-14 8 -13 473.216 193.677 4
-14 6 13 295.78 186.101 1
6 8 13 738.017 205.417 1
6 8 10 119.909 73.6215 1
6 -14 -10 802.662 341.852 2
8 6 -10 354.148 293.916 2
6 -14 -10 272.334 99.0276 1
-14 6 10 265.833 185.166 1
-14 6 7 1399.06 506.3 1
6 8 7 1397.97 271.157 1
8 6 -7 950.053 445.933 2
6 -14 -7 1395.86 403.883 2
6 -14 -7 1193.29 269.454 1
6 8 4 2313.06 434.51 1
-14 6 4 3202.67 675.353 2
-14 6 4 3793.87 756.488 1
6 -14 -4 2831.73 486.589 2
-14 8 -4 3801.82 720.79 1
6 8 4 2206.62 286.002 2
6 8 4 1608.59 574.825 4
6 -14 -4 3055.65 454.46 1
8 -14 4 3207.68 514.799 4
-14 8 -4 3149.71 681.089 2
8 6 -4 2133.57 598.933 1
8 6 -4 2368.27 621.12 2
-14 6 1 904.39 316.508 1
-14 8 -1 1523.64 428.941 2
-14 8 -1 1446.3 453.817 1
6 8 1 1072.97 282.052 2
8 6 -1 1179.72 454.291 4
-14 6 1 869.823 303.894 2
8 -14 1 1063.37 303.792 4
6 8 1 1017.3 421.576 4
6 8 1 1146.54 337.26 1
8 6 -1 1607.92 430.025 1
8 6 -1 827.361 251.258 2
-14 8 2 1981.07 534.761 2
8 6 2 1939.63 385.053 2
6 8 -2 1332.97 322.993 1
6 8 -2 1803.88 416.868 2
6 -14 2 2782.03 565.332 4
-14 6 -2 2133.3 543.377 1
8 6 2 1025.98 343.219 4
-14 8 2 1833.31 489.197 1
8 6 2 1711.5 396.194 1
8 -14 -2 1758.64 389.416 1
6 8 -2 1759.01 561.553 4
-14 6 -2 2219.35 515.054 2
6 8 -2 1074.85 235.275 3
6 8 -5 763.666 321.347 3
8 6 5 744.267 243.121 1
6 8 -5 879.197 352.216 2
-14 6 -5 987.629 385.056 2
-14 8 5 538.895 368.305 1
8 -14 -5 865.214 261.656 1
-14 8 5 988.582 482.961 2
-14 6 -5 1480.17 497.487 1
6 8 -5 1200.92 403.311 1
8 6 5 432.856 258.636 4
8 -14 -5 840.946 294.743 2
6 -14 5 612.374 250.635 4
8 6 8 1516.24 316.33 1
-14 8 8 1420.91 507.746 1
8 -14 -8 1372.17 397.317 2
6 8 -8 1894.23 547.389 3
8 -14 -8 1513.8 363.479 1
8 -14 -11 3391.17 580.75 1
8 6 11 4302.68 590.811 1
-14 8 11 2743.28 668.291 1
8 -14 -11 3646.27 780.208 2
6 8 -11 4317.79 854.805 3
-14 6 -11 2858.49 398.481 4
8 -14 -14 1642.13 436.023 1
-14 6 -14 1342.04 378.817 4
8 -14 -14 1695.5 603.438 2
-14 8 14 1069.18 469.637 1
8 6 14 691.678 237.021 1
7 8 14 537.69 200.239 1
-15 7 14 338.298 161.077 1
7 -15 -14 532.318 241.905 2
-15 8 -14 156.011 138.428 4
8 7 -14 773.016 644.455 2
7 -15 -11 6313.4 972.833 2
7 -15 -11 5961.18 677.616 1
-15 7 11 6129.97 1041.16 1
7 8 11 6182.64 640.82 1
8 7 -11 6548.36 1385.51 2
8 7 -8 590.194 313.744 2
7 -15 -8 573.288 282.8 2
-15 7 8 1550.47 539.163 1
7 8 8 1091.97 277.397 1
7 -15 -8 756.622 266.597 1
-15 7 5 6897.96 1081.18 2
-15 7 5 5727.09 930.875 1
-15 8 -5 4306 789.245 2
-15 8 -5 4635.49 812.405 1
7 8 5 6276.13 669.492 1
8 7 -5 8290.5 1152.09 2
8 -15 5 4073.54 558.679 4
7 8 5 5711.66 954.395 4
7 -15 -5 5552.9 700.448 2
8 7 -5 7875.96 1142.49 1
7 -15 -5 5325.57 642.526 1
7 8 2 4181.84 826.136 4
8 7 -2 3798.81 824.684 4
-15 7 2 3987.11 737.202 2
8 -15 2 3551.12 596.795 4
-15 7 2 4326.11 752.638 1
8 7 -2 4336.66 772.448 1
7 8 2 4002.6 497.352 2
-15 8 -2 3386.49 651.2 1
7 8 2 4330.53 630.963 1
-15 8 -2 3466.39 656.727 2
8 7 -2 4450.88 760.245 2
7 -15 -2 2811.95 454.521 1
-15 7 -1 10949.4 1205.94 1
-15 7 -1 10855.6 1230.64 2
8 7 1 11048.7 963.714 2
7 8 -1 11910.7 1121.42 2
8 7 1 12232.8 1162.56 1
-15 8 1 10922.1 1185.51 1
8 -15 -1 8675.37 881.447 1
7 -15 1 9446.25 1015.77 4
7 8 -1 10553.3 1133.82 1
7 8 -1 11781.6 1450.98 4
-15 8 1 11617.3 1258.83 2
8 7 1 10234.5 1282.31 4
-15 8 4 3105.16 759.173 2
8 -15 -4 3051.12 510.721 1
7 -15 4 2989.15 527.339 4
-15 7 -4 3379.03 724.313 1
-15 8 4 3715.46 790.066 1
8 -15 -4 3093.97 575.602 2
-15 7 -4 2514.58 592.191 2
8 7 4 2554.04 633.524 4
7 8 -4 3144.06 802.794 4
7 8 -4 3870.12 757.467 1
7 8 -4 4351.99 895.492 2
8 7 4 3068.93 432.628 2
8 7 4 3525.9 564.633 1
7 8 -7 3616.06 835.252 2
-15 8 7 3753.14 799.057 1
8 7 7 3569 498.625 1
-15 7 -7 2413.57 624.882 1
8 -15 -7 3605.35 697.49 2
-15 7 -7 3468.07 763.179 2
8 -15 -7 3280.03 542.401 1
8 7 10 1739.44 379.429 1
7 8 -10 1833.46 600.889 2
8 -15 -10 1747.61 426.322 1
-15 8 10 1764.58 594.398 1
8 -15 -10 863.302 331.342 2
8 -15 -13 29.3576 98.1561 1
8 -15 -13 112.47 175.962 2
8 7 13 218.144 185.9 1
-15 7 -13 278.222 180.841 4
-15 8 13 409.223 349.052 1
8 8 0 8544.47 1265.06 4
8 -16 0 9502.39 1124.26 4
8 8 0 8641.29 1008.8 1
8 -16 0 9518.36 1027.46 1
8 8 0 8835.5 944.549 2
-16 8 0 8648.05 1097.78 2
-16 8 0 10695.9 1244.41 1
-16 8 3 11250.5 1363.02 2
8 8 -3 10427.1 1251.92 2
8 8 3 10795.8 1409.65 4
-16 8 -3 9765.2 1197.84 2
-16 8 3 10644.6 1237.69 1
8 8 3 10336.8 818.724 2
-16 8 -3 10069.7 1210.58 1
8 8 3 10157.4 1007.07 1
8 8 -3 10373.2 1255.93 1
8 -16 3 8356.68 924.937 4
8 -16 -3 9080.71 888.966 1
8 8 -3 10531.7 1459.04 4
8 8 -6 7380.03 1123.15 2
-16 8 6 5932.9 987.406 1
-16 8 -6 5995.23 959.179 1
-16 8 -6 6373.62 1005.43 2
8 8 6 6616.07 701.041 1
8 8 6 5189.27 956.239 4
8 -16 6 5665.82 679.644 4
8 -16 -6 6651.64 841.355 2
8 -16 -6 6959.23 771.434 1
8 8 -9 286.868 234.96 2
8 8 9 800.228 225.267 1
8 -16 -9 535.734 330.812 2
8 -16 -9 564.098 228.313 1
-16 8 9 832.148 455.965 1
-16 8 12 275.204 336.716 1
8 8 12 355.646 183.617 1
8 -16 -12 161.399 210.889 2
8 8 -12 1112.4 557.112 2
8 -16 -12 341.001 204.724 1
8 8 -15 274.669 591.192 2
8 8 15 -23.78 130.913 1
-16 8 -15 262.139 145.86 4
8 -16 -15 730.635 477.903 2
-16 8 15 391.806 375.022 1
-5 -4 17 -160.509 263.163 1
-4 9 17 279.098 203.784 1
9 -4 -17 -97.4989 252.965 2
-4 -5 -17 -32.306 177.927 3
-5 -4 14 1152.58 445.505 1
-4 9 14 1334.09 347.198 1
9 -4 -14 1465.12 662.693 2
-4 -5 -14 1611.62 369.95 3
9 -4 -11 1044.62 445.063 1
-4 9 11 720.519 185.688 1
-4 9 11 796.6 179.816 3
-4 -5 -11 940.474 248.903 3
-5 -4 11 354.135 193.579 1
-5 -4 11 576.812 175.135 3
9 -4 -11 600.32 335.136 2
9 -5 8 42.0979 126.168 1
9 -4 -8 -326.044 378.073 2
-4 9 8 -164.942 178.7 2
-4 -5 -8 4.25233 131.535 3
-4 9 8 -87.5704 98.4427 3
-5 -4 8 -46.6542 134.391 1
-5 -4 8 254.158 153.804 3
-4 9 8 219.485 121.884 1
9 -4 -8 72.6897 131.78 1
-4 9 5 1968.86 263.291 1
9 -4 -5 1098.62 367.262 1
-4 9 5 1895.57 354.713 2
-5 -4 5 2010.75 468.433 1
-4 -5 -5 1817.85 250.538 1
9 -4 -5 2034.57 556.907 2
-4 9 5 2115.38 383.672 3
-5 9 -5 1562.12 305.062 4
-5 -4 5 1727.95 367.569 3
-4 -5 -5 2165.65 434.461 4
-4 -5 -5 1646.57 357.18 3
9 -5 5 1987.76 405.47 1
9 -5 2 5347.91 660.956 1
9 -4 -2 6024.37 779.095 2
9 -5 2 5770.18 690.284 2
-4 -5 -2 5869.27 523.142 1
-5 -4 2 5868.69 716.203 1
9 -4 -2 5885.63 745.805 1
-4 -5 -2 5117.61 638.954 4
-4 -5 -2 5307.3 676.344 3
-4 9 2 5196.04 515.041 2
-5 -4 2 5038.28 634.056 3
-5 -4 2 4899.1 599.201 2
9 -4 1 6363.03 723.88 1
-5 -4 -1 5158.14 489.915 2
-4 -5 1 6221 678.932 1
-4 -5 1 6353.68 669.896 4
-5 -4 -1 5631.6 656.967 4
-5 9 1 6011.04 603.577 2
9 -4 1 5450.86 691.581 2
-5 -4 -1 4509.97 531.058 1
9 -5 -1 6489.06 765.318 2
-4 -5 1 5931.04 687.287 3
9 -5 -1 6518.61 744.872 1
-4 -5 4 2211.75 420.459 3
-5 -4 -4 2383.38 294.81 2
-5 -4 -4 2859.47 370.127 1
-5 -4 -4 2577.54 522.655 4
9 -5 -4 2351.55 555.024 2
9 -5 -4 2570.17 538.326 1
-5 9 4 2167.5 405.86 2
-4 -5 4 2113.66 422.032 1
-4 9 -4 2660.75 433.61 4
9 -4 4 3550.66 534.881 1
-5 9 4 2565.21 350.611 1
-4 -5 7 1157.85 286.933 3
-5 9 7 817.095 304.858 2
9 -4 7 1028.66 298.655 1
9 -5 -7 788.313 301.295 1
-5 9 7 735.789 175.129 1
-4 -5 7 604.073 251.88 1
9 -5 -7 687.718 258.386 2
-5 9 7 475.119 149.585 3
9 -5 -10 5234.28 930.203 1
9 -5 -10 4274.11 927.564 2
-4 -5 10 3756.87 519.083 3
-4 -5 10 4268.98 721.337 1
-5 9 10 3869.61 428.582 3
-5 9 10 4138.65 520.919 1
9 -5 -13 1172.69 505.816 2
-5 9 13 383.633 211.064 1
-4 -5 13 881.727 287.32 1
9 -5 -13 267.618 151.782 1
-5 9 13 501.71 143.512 3
-5 -4 -16 114.952 100.832 3
-5 9 16 208.626 148.399 1
-4 -5 16 161.745 153.694 1
9 -5 -16 -169.716 264.754 2
-4 9 -16 474.503 201.541 3
-3 9 15 479.111 271.177 1
9 -3 -15 399.46 400.652 2
-6 -3 15 522.468 303.199 1
-3 -6 -15 310.667 147.994 3
-6 -3 12 -68.2184 227.463 1
-3 9 12 165.316 142.629 1
-6 -3 12 236.216 135.701 3
-3 -6 -12 162.006 119.81 3
9 -3 -12 91.0131 174.85 1
-6 -3 9 3722.47 686.945 1
-3 -6 -9 2432.44 438.349 3
-3 9 9 2291.9 362.498 3
9 -3 -9 2844.05 747.966 2
-3 9 9 3012.42 388.237 1
-6 -3 9 3390.9 467.965 3
9 -3 -9 2774.38 693.584 1
-6 -3 6 3358.34 502.558 3
-3 9 6 3604.21 463.84 2
-3 9 6 2787.14 420.638 3
-6 -3 6 2968.48 545.729 1
9 -3 -6 3368.59 696.54 2
9 -3 -6 3458.26 666.396 1
9 -6 6 2943.57 489.722 1
-6 9 -6 2416.71 365.943 4
-3 -6 -6 2866.98 483.04 3
9 -3 -3 2695.8 564.753 1
-3 9 3 3568.19 403.132 2
-3 9 3 4906.64 602.386 3
9 -6 3 2980.36 516.267 1
-3 -6 -3 3756.71 619.293 4
-6 -3 3 3915.1 635.321 1
-3 -6 -3 3997.22 411.425 1
-3 -6 -3 2770.6 508.568 3
-6 -3 3 3316.28 597.529 2
9 -3 -3 2401.72 526.7 2
-6 9 0 6913.47 703.599 2
9 -3 0 7253.13 790.951 2
-3 -6 0 7236.76 662.527 1
9 -6 0 7995.5 810.06 2
-6 -3 0 7279.59 736.785 1
-3 -6 0 7809.1 775.745 3
-3 -6 0 6953.35 715.713 4
9 -3 0 7508.52 785.461 1
-3 9 0 7180.41 743.008 3
9 -6 0 7888.8 814.56 1
-6 -3 0 7717.47 687.381 2
-6 -3 -3 427.672 221.653 4
9 -3 3 151.564 171.589 1
-3 -6 3 565.371 228.861 1
9 -6 -3 1344.42 437.124 2
-6 -3 -3 821.129 245.616 1
-3 -6 3 973.281 298.445 3
-6 9 3 892.348 244.92 2
-6 -3 -3 697.377 208.259 2
-6 9 3 554.73 198.685 1
9 -6 -3 621.327 220.177 1
9 -3 3 1004.34 339.62 2
9 -3 3 1074.86 239.831 4
-3 9 -3 643.258 240.222 4
-6 -3 -6 1648.7 380.589 4
9 -6 -6 2365.75 570.253 2
9 -6 -6 1951.79 431.045 1
-6 9 6 1919.94 436.946 2
-3 9 -6 1898.95 405.732 4
-6 -3 -6 1972.98 307.543 1
-6 9 6 1954.04 326.844 1
-3 -6 6 2121.59 375.295 3
-3 -6 6 1852.51 410.181 1
9 -3 6 2487.43 474.186 1
-6 9 9 2113.35 481.765 2
-6 9 9 1968.64 369.756 1
9 -6 -9 2882.17 715.592 2
9 -6 -9 1859.03 521.181 1
-3 -6 9 1622.01 356.848 3
-3 -6 9 2483.82 579.777 1
9 -3 9 1480.51 335.452 1
-3 -6 12 1258.14 434.3 1
-6 9 12 1240.66 336.632 1
9 -6 -12 2083.98 745.685 2
9 -6 -12 1585.96 547.419 1
-3 9 -12 2138.87 536.208 3
-6 9 12 1268.22 216.025 3
-3 -6 15 198.188 273.662 1
-6 9 15 389.133 260.791 1
-3 9 -15 799.313 391.668 3
-2 -7 -16 673.282 235.472 3
-7 -2 16 423.091 319.454 1
-2 9 16 902.335 304.064 1
9 -2 -16 583.408 444.856 2
-7 -2 13 1154.4 272.461 3
-2 9 13 1214.93 281.766 1
-2 -7 -13 380.422 124.605 3
-7 -2 13 1265.7 395.203 1
-2 -7 -10 3094.19 468.314 3
-2 9 10 3592.51 404.824 1
-2 9 10 3045.35 423.413 3
9 -2 -10 5265.72 958.644 1
-7 -2 10 3648.22 492.189 3
-7 -2 10 3511.18 661.036 1
9 -2 -10 4170.95 908.101 2
-7 9 -7 2138.51 316.07 4
-7 -2 7 2787.87 577.828 1
-2 -7 -7 2152.44 416.95 3
-7 -2 7 2927.42 458.035 3
-2 9 7 2358.38 392.571 3
9 -2 -7 2393.53 658.321 1
9 -2 -7 2645.02 706.671 2
9 -2 -4 34387.1 2131.42 2
-2 9 4 39243.7 1655.09 3
-2 9 4 38640.2 1208.82 2
-7 -2 4 38764.1 2020.42 2
-2 -7 -4 36684.2 1689.78 3
-7 -2 4 38810.7 2007.1 1
9 -7 4 34961.4 1698.34 1
-2 -7 -4 34089.6 1889.03 4
9 -2 -4 33403.5 2006.46 1
-7 -2 1 5578.04 679.702 2
9 -2 -1 5932.23 773.199 2
-2 -7 -1 5057.72 511.24 1
-2 -7 -1 5431.21 669.335 4
9 -2 -1 5559.11 732.83 1
-2 9 1 5355.32 655.564 3
-2 -7 -1 5322.76 656.268 3
9 -7 1 4948.19 616.181 1
-7 -2 1 5320.43 692.154 1
9 -7 1 6363.48 732.062 2
-7 9 2 2397.46 425.052 2
-2 9 -2 3256 558.171 4
-2 -7 2 2940.77 456.856 1
9 -7 -2 3086.61 506.407 1
9 -2 2 3564.42 548.259 1
9 -7 -2 3610.5 611.718 2
-7 -2 -2 3377.15 442.891 2
-7 -2 -2 2979.62 447.716 4
-2 9 -2 2782.53 471.326 3
-7 -2 -2 3461.55 472.913 1
-7 9 2 2716.93 407.364 1
9 -2 2 3217.79 533.545 2
-2 -7 2 3224.9 495.613 3
-2 -7 2 2878.87 460.963 4
-2 -7 5 180.044 168.538 1
9 -2 5 744.841 257.906 1
9 -7 -5 -37.8755 180.639 2
-7 9 5 462.972 259.544 2
9 -2 5 166.24 76.5434 4
9 -7 -5 152.563 187.671 1
-7 -2 -5 265.579 88.1199 2
-7 -2 -5 374.288 162.006 4
-7 9 5 251.266 110.826 1
-2 9 -5 298.765 133.917 4
-7 -2 -5 -30.0858 126.124 1
-2 9 -5 18.2397 133.616 3
-2 -7 5 149.715 92.9977 3
9 -7 -8 3621.24 765.801 2
-7 9 8 3146.63 591.764 2
-7 9 8 2666.84 437.793 1
-2 -7 8 2941.56 458.583 3
9 -2 8 3029.33 504.876 1
-2 9 -8 3398.36 576.158 3
-2 -7 8 3026.16 588.2 1
9 -7 -8 3485.56 687.231 1
-2 -7 11 196.577 202.948 1
9 -7 -11 604.171 290.506 1
-7 9 11 234.775 110.868 2
9 -7 -11 600.725 203.273 2
-7 9 11 639.392 163.38 3
9 -2 11 432.625 217.196 1
-7 9 11 648.508 240.945 1
-2 9 -11 1113.03 401.23 3
9 -7 -14 1370.43 547.25 2
9 -7 -14 570.366 233.471 1
-2 -7 14 502.925 352.144 1
-2 9 -14 698.449 355.839 3
-7 9 14 635.347 286.316 1
-7 9 14 146.838 71.531 3
-7 9 17 401.302 237.951 1
-2 9 -17 180.495 260.605 3
9 -7 -17 -101.694 454.877 2
-2 -7 17 145.382 199.025 1
-8 -1 17 318.591 362.232 1
9 -1 -17 1176.38 844.217 2
-1 9 17 619.855 327.71 1
-1 -8 -17 -349.298 431.121 2
-1 -8 -17 19.5068 127.507 3
-8 -1 14 1044.45 449.212 1
9 -1 -14 589.311 613.64 2
-1 -8 -14 655.712 262.25 3
-1 -8 -14 1044.5 424.833 2
-8 -1 14 363.513 170.522 3
-1 9 14 696.483 234.156 1
9 -1 -11 268.539 349.185 2
-8 -1 11 498.688 166.243 3
-1 9 11 183.006 65.0274 1
-1 -8 -11 -272.988 310.346 2
-8 -1 11 408.5 167.77 1
-1 -8 -11 326.3 87.2055 3
-1 9 8 2269.87 391.766 3
-8 9 -8 1820.31 286.001 4
-1 -8 -8 2547.04 361.919 2
9 -1 -8 3664.35 812.23 2
-1 -8 -8 2075.31 399.682 3
-8 -1 8 2583.13 445.689 3
-8 -1 8 2444.97 545.839 1
9 -1 -8 3011.49 759.203 1
-8 -1 5 748.04 226.479 2
9 -1 -5 394.356 140.441 1
-8 -1 5 690.938 143.869 1
-1 9 5 560.826 141.337 2
9 -1 -5 419.563 278.014 2
-1 9 5 634.464 211.652 3
-1 -8 -5 567.518 219.731 3
9 -8 5 471.381 169.417 1
9 -1 -2 1047.98 420.433 1
-1 -8 -2 1613.09 438.915 4
9 -8 2 1981.51 431.623 1
-8 -1 2 2527.47 553.911 1
9 -1 -2 1120.32 386.836 2
-8 -1 2 2389.25 560.721 2
-1 -8 -2 1781.1 430.682 3
-1 9 2 1133.04 389.375 3
-1 -8 -2 1674.22 289.917 1
-1 9 -1 2371.73 458.386 3
-1 -8 1 2633.27 420.39 1
-8 9 1 2696.63 450.296 1
-8 -1 -1 3258.55 501.585 1
-8 9 1 2669.93 473.754 2
9 -8 -1 2810.16 540.721 2
9 -1 1 3014.85 538.913 1
-8 -1 -1 3196.9 469.629 2
9 -1 1 2657 486.896 2
-1 -8 1 3023.97 492.626 4
-1 9 -1 3393.6 619.131 4
9 -8 -1 2481.45 461.958 1
-1 -8 1 2261.3 428.23 3
-8 -1 -4 9460.91 790.151 2
-8 9 4 8841.99 912.49 2
9 -8 -4 8811.08 1005.51 2
-8 -1 -4 9050.9 754.791 4
-1 9 -4 9257.4 917.472 3
9 -1 4 9877.8 775.984 4
-8 -1 -4 10192.9 886.802 1
9 -8 -4 9521.23 917.841 1
9 -1 4 10779.5 928.645 1
-1 -8 4 10066.5 876.608 3
-8 9 4 9683.59 837.208 1
-1 9 -4 8877.36 948.514 4
-8 -1 -7 7366.19 824.388 4
-1 -8 7 6940.21 738.861 3
9 -8 -7 7673.94 1057.95 2
9 -1 7 7281.3 774.615 1
9 -8 -7 8253.44 961.637 1
-8 -1 -7 6650.76 699.85 1
-1 9 -7 7567.06 893.164 3
-8 9 7 7646.97 934.296 2
-8 9 7 6611.87 722.1 1
9 -8 -10 1424.01 476.692 2
-8 9 10 1589.75 410.113 1
-8 9 10 1206.56 429.23 2
-1 -8 10 1233.79 399.1 1
-1 9 -10 1972.81 512.777 3
9 -8 -10 2014.25 571.842 1
9 -1 10 961.804 276.126 1
-1 -8 13 285.208 231.94 1
9 -8 -13 791.163 404.333 1
-8 9 13 418.206 153.812 3
9 -8 -13 741.646 497.315 2
9 -1 13 302.876 206.619 1
-8 9 13 1124.72 443.897 1
-1 -8 16 293.459 228.65 1
9 -8 -16 556.895 384.96 2
-8 9 16 338.235 160.086 1
-1 9 -16 412.671 219.72 3
0 -9 -15 286.69 323.876 2
0 9 15 306.157 182.145 1
-9 0 15 127.049 214.468 1
-9 0 15 216.743 146.994 3
0 -9 -15 -223.195 113.475 3
0 9 12 1764.1 308.768 1
0 -9 -12 1874.36 443.493 2
9 0 -12 2448.95 812.186 2
-9 0 12 2058.14 596.21 1
-9 0 12 1778.53 347.522 3
0 -9 -12 2306.53 439.239 3
0 -9 -9 2279.58 387.844 2
9 0 -9 3154.89 761.635 1
0 -9 -9 1200.57 296.544 3
9 0 -9 3333.91 794.733 2
-9 0 9 2055.81 537.087 1
-9 0 6 3347.19 701.434 2
0 -9 -6 2987.04 474.561 3
9 0 -6 2529.22 660.411 1
0 9 6 3976.71 565.448 3
-9 0 6 3171.41 645.658 1
9 0 -6 3028.88 741.299 2
0 -9 -3 27520.2 892.927 1
9 -9 3 34338.4 1695.69 1
-9 0 3 28898.5 1817.19 2
0 -9 -3 27990 1759.3 4
9 0 -3 22712.5 1683.51 1
-9 0 3 27119.1 1725.59 1
0 9 3 27557.7 1521.06 3
0 -9 -3 29256.5 1543.48 3
9 0 -3 23434.3 1756.42 2
-9 0 0 171.211 158.173 1
-9 9 0 544.65 291.963 2
9 0 0 590.604 322.105 2
-9 0 0 444.675 244.001 2
0 9 0 300.333 295.521 4
9 0 0 137.578 156.235 1
0 -9 0 335.466 248.623 4
9 -9 0 492.126 305.999 2
0 -9 0 525.734 233.353 3
9 -9 0 142.899 174.858 1
-9 9 0 281.033 229.397 1
0 9 0 803.925 315.433 3
9 0 3 4032.64 528.554 2
9 0 3 4343.71 553.857 4
-9 0 -3 4295.18 537.82 2
9 0 3 3988.97 553.924 1
-9 0 -3 4294.53 593.561 1
0 9 -3 4301.41 639.685 3
9 -9 -3 4031.19 562.863 1
9 -9 -3 3767.27 642.233 2
0 9 -3 4641.63 697.129 4
-9 9 3 4645.63 599.964 1
-9 9 3 3842.83 632.529 2
0 -9 3 3427.2 518.586 4
0 -9 3 3717.18 516.884 3
-9 9 6 87.2554 146.769 1
0 9 -6 -76.226 248.082 3
-9 0 -6 275.988 154.278 2
-9 9 6 431.663 241.973 2
9 -9 -6 136.142 164.54 1
9 -9 -6 -154.392 180.066 2
-9 0 -6 240.42 147.941 4
-9 0 -6 375.89 212.951 1
-9 9 9 1663.03 442.148 2
9 0 9 2133.37 413.338 1
9 -9 -9 1933.95 472.018 1
0 9 -9 2719.86 636.755 3
9 -9 -9 2313.16 576.596 2
-9 0 -9 1868.61 430.825 4
-9 9 9 2246.42 478.928 1
9 -9 -12 1736.98 505.918 1
9 0 12 1921.9 430.289 1
0 9 -12 2452.18 592.408 3
-9 9 12 1852.91 560.214 2
9 -9 -12 1716.94 606.345 2
-9 9 12 1780.38 504.77 1
0 -9 15 1009.99 371.465 1
-9 9 15 1570.95 530.346 1
9 0 15 561.341 211.004 1
9 -9 -15 1693.94 591.277 2
9 -9 -15 1843.53 621.668 1
0 9 -15 1819.95 503.649 3
1 9 16 278.549 150.214 1
-10 1 16 177.628 146.507 1
9 1 -16 418.02 539.258 2
1 -10 -16 165.587 202.245 2
-10 1 16 105.618 91.3944 3
9 1 -13 3177.51 967.521 2
1 9 13 1999.05 318.392 1
-10 1 13 2029.08 362.365 3
-10 1 13 2296.84 588.279 1
1 -10 -13 2156.94 414.829 3
1 -10 -13 2139.74 542.234 2
1 -10 -10 553.877 214.96 3
9 1 -10 2086.5 658.943 2
1 -10 -10 1335.52 329.109 2
-10 1 10 1309.03 407.845 1
1 9 7 2999.91 517.201 3
-10 1 7 2746.9 646.768 2
9 1 -7 2198.9 630.549 2
-10 1 7 2469.01 613.427 1
1 -10 -7 2369.15 458.03 3
1 -10 -7 2424.1 358.606 2
9 1 -7 3109.98 736.101 1
9 -10 4 694.368 211.109 1
-10 1 4 567.224 296.478 2
-10 1 4 211.569 142.991 1
1 -10 -4 409.497 152.352 3
9 1 -4 214.59 217.943 2
9 -10 4 561.869 139.305 4
1 9 4 384.723 213.964 3
9 1 -4 710.163 274.782 1
9 1 -1 4449.71 673.717 1
1 -10 -1 4315.34 622.777 3
-10 1 1 4946.1 752.122 2
-10 9 -1 4672.92 693.29 2
-10 1 1 4259.32 697.196 1
1 9 1 4370.37 665.418 3
1 -10 -1 4767.56 707.763 4
1 9 1 3654.32 701.467 4
9 1 -1 3990.1 628.883 2
9 -10 1 4249.68 612.56 1
-10 9 -1 4397.68 639.977 1
9 -10 -2 1209.96 334.072 1
1 -10 2 1636.67 415.307 3
-10 1 -2 1993.99 450.228 1
1 -10 2 1671.55 406.481 4
9 -10 -2 1551.23 442.48 2
9 1 2 1945.22 412.113 2
9 1 2 1445.71 389.991 4
-10 1 -2 1743.6 379.249 2
-10 9 2 862.878 347.273 2
1 9 -2 705.324 290.809 4
9 1 2 1824.31 403.267 1
-10 9 2 1042.33 341.573 1
1 9 -2 1322.73 357.405 3
9 -10 -5 2135.05 415.137 1
-10 9 5 2254.87 441.314 1
-10 9 5 2375.57 530.574 2
9 1 5 1818.73 371.665 4
1 9 -5 2197.5 543.957 4
-10 1 -5 2140.87 437.255 1
9 1 5 2147.9 416.237 1
-10 1 -5 1955.47 327.416 4
-10 1 -5 2368.07 459.859 2
9 -10 -5 1903.05 449.313 2
1 9 -5 1959.47 476.577 3
-10 9 8 2015.98 470.594 1
9 -10 -8 2113.98 571.998 2
9 -10 -8 2427.99 528.391 1
-10 9 8 2142.41 555.118 2
9 1 8 2013.57 431.674 1
-10 1 -8 1580.64 315.364 4
1 9 -8 2386.23 576.341 3
9 -10 -11 1317.91 425.186 1
-10 9 11 1361.78 536.437 2
1 9 -11 2843.62 653.058 3
9 -10 -11 1436.83 518.028 2
9 1 11 1254.35 340.885 1
-10 9 11 1459.37 450.053 1
9 1 14 670.595 223.502 1
9 -10 -14 356.653 400.835 2
-10 9 14 454.385 268.199 1
9 -10 -14 64.2808 229.203 1
1 9 -14 523.35 215.678 3
-10 9 17 141.046 179.118 1
1 -10 17 175.266 320.233 1
9 -10 -17 375.237 428.258 2
1 9 -17 318.97 279.297 3
2 9 17 231.115 177.716 1
-11 2 17 29.1338 56.9341 3
9 2 -17 -316.687 389.85 2
2 -11 -17 555.404 436.571 2
-11 2 17 725.351 403.525 1
-11 2 14 235.965 115.62 3
-11 2 14 118.833 226.161 1
2 9 14 -86.9208 151.463 1
2 -11 -14 6.98218 232.442 2
9 2 -14 4.19532 434.238 2
2 9 11 265.668 89.0396 1
9 2 -11 380.359 386.348 2
2 9 11 551.282 144.294 1
-11 2 11 -171.965 310.265 1
2 -11 -11 454.757 216.045 2
-11 2 8 678.707 262.567 2
9 2 -8 1026.13 419.393 2
9 2 -8 1298.91 541.487 1
-11 2 8 613.374 269.057 1
2 -11 -8 835.89 262.414 2
2 -11 -8 980.531 300.787 3
2 -11 -5 3634.83 366.114 2
-11 2 5 4656.61 802.346 2
9 2 -5 4662.99 838.355 1
2 9 5 4439.4 669.037 3
-11 2 5 4586.62 783.992 1
2 -11 -5 3711.81 548.949 3
9 2 -5 5255.5 879.478 2
9 -11 5 4260.68 405.227 4
2 9 2 3358.74 714.143 4
-11 9 -2 4076.02 661.442 2
-11 2 2 4607.51 727.473 2
9 2 -2 3841.58 659.417 2
2 9 2 3831.85 612.532 3
2 -11 -2 3858.58 655.341 4
9 -11 2 3120.49 528.989 1
9 2 -2 4508.24 728.006 1
2 -11 -2 3621.03 546.594 3
-11 9 -2 3030.45 555.663 1
-11 2 2 3966 667.109 1
9 -11 -1 13007.5 1091.11 2
-11 2 -1 14806.2 1236.77 1
2 9 -1 13705.5 1178.88 3
2 -11 1 14355.2 1175.25 4
9 -11 -1 12866.9 1028.11 1
9 2 1 14539.8 1248.28 4
9 2 1 13398.6 1041.09 2
-11 2 -1 13954.5 1158.79 2
9 2 1 14293.5 1141.99 1
-11 9 1 12987.9 1198.69 2
-11 9 1 13448.5 1167.49 1
2 9 -1 12582.5 1252.97 4
9 2 4 6421.8 720.481 1
2 9 -4 4976.3 829.014 4
9 -11 -4 4135.78 646.492 2
9 -11 -4 4572.52 626.827 1
-11 2 -4 4280.41 621.874 2
-11 2 -4 4654.28 677.677 1
9 2 4 5506.32 635.147 2
2 -11 4 3517.06 526.411 4
-11 9 4 5581.48 828.04 2
2 9 -4 5603.25 781.009 3
9 2 4 5149.64 720.625 4
-11 9 4 4941.48 717.102 1
-11 9 7 2912.75 660.56 2
-11 2 -7 2218.98 358.603 4
-11 9 7 2893.35 580.969 1
9 -11 -7 3171.64 579.451 1
-11 2 -7 2088.83 452.025 1
9 -11 -7 1732.82 468.846 2
9 2 7 2626.85 481.91 1
2 9 -7 2602.54 567.561 3
-11 9 10 2839.24 686.374 2
2 9 -10 3265.51 673.829 3
-11 2 -10 2466.09 503.758 4
9 -11 -10 1908.98 456.136 1
9 2 10 2296.33 456.819 1
-11 9 10 2563.89 573.72 1
9 -11 -10 2335.96 645.972 2
9 -11 -13 450.169 386.535 2
9 -11 -13 363.044 198.046 1
9 2 13 198.352 137.591 1
-11 9 13 121.766 151.159 1
2 9 -13 182.063 227.32 3
9 2 16 430.695 196.376 1
9 -11 -16 630.111 273.776 1
9 -11 -16 566.217 417.387 2
2 9 -16 141.291 186.204 3
-11 9 16 156.518 137.96 1
3 -12 -15 35.1002 166.276 2
9 3 -15 457.13 425.496 2
3 9 15 404.906 185.974 1
3 9 15 284.222 91.8611 1
-12 3 15 258.012 145.647 1
-12 3 15 151.208 118.578 3
3 9 12 488.131 131.401 1
3 -12 -12 801.105 294.635 2
3 9 12 649.01 173.8 1
9 3 -12 981.926 561.307 2
-12 3 12 991.754 466.284 1
-12 3 9 4557.11 843.185 1
3 -12 -9 3411.54 564.183 2
9 -12 6 4620.47 484.018 4
9 3 -6 5864.94 990.056 1
3 -12 -6 5003.83 527.732 2
-12 3 6 5696.15 943.542 2
9 3 -6 5481.4 983.227 2
-12 3 6 6219.86 951.227 1
-12 3 3 2099.41 512.568 1
9 3 -3 1893.77 552.291 2
3 9 3 2272.18 508.06 3
-12 3 3 2034.17 487.145 2
9 3 -3 1772.18 479.92 1
9 -12 3 1981.28 372.243 4
9 -12 3 2226.09 489.917 1
-12 9 -3 3054.02 574.568 1
-12 9 -3 3114.29 613.004 2
3 9 3 1423.53 456.788 4
3 9 3 1502.36 272.122 1
3 9 0 536.44 262.762 3
3 -12 0 97.4099 166.702 4
9 3 0 748.441 381.73 4
-12 3 0 846.259 319.047 2
9 3 0 758.52 291.947 1
-12 9 0 638.15 199.555 1
3 9 0 455.72 202.201 4
9 3 0 1091.06 287.461 2
-12 3 0 81.2787 288.341 1
-12 9 0 588.743 274.623 2
9 -12 0 538.795 252.363 1
9 3 3 4508.93 616.609 1
3 9 -3 4304.82 671.307 3
-12 3 -3 4314.88 665.865 1
9 -12 -3 3819.98 603.833 2
3 -12 3 4152.8 587.765 4
9 3 3 5114.67 788.332 4
9 -12 -3 3696.11 561.306 1
3 9 -3 4852.78 862.356 4
-12 9 3 4698.05 773.832 2
-12 9 3 4397.47 679.439 1
-12 3 -3 3859.38 638.509 2
9 3 3 5224.91 623.485 2
3 9 -6 2066.85 553.865 3
9 -12 -6 1103.69 289.244 1
-12 9 6 875.652 374.347 2
-12 9 6 2144.72 516.648 1
9 3 6 1682.02 404.868 1
-12 3 -6 2014.02 495.423 1
9 3 6 1262.88 350.892 4
-12 3 -6 2119.67 523.049 2
9 -12 -6 1763.77 482.202 2
-12 9 9 2107.89 639.11 2
-12 3 -9 1685.01 365.044 4
3 9 -9 3124.48 649.225 3
9 -12 -9 1945.3 600.63 2
9 -12 -9 2040.45 484.625 1
-12 9 9 2233.48 556.567 1
9 3 9 1520.74 384.327 1
3 9 -12 838.504 362.878 3
-12 3 -12 872.795 295.685 4
9 -12 -12 1239.62 578.367 2
-12 9 12 990.604 413.027 1
9 3 12 946.795 289.99 1
9 -12 -12 773.315 334.434 1
9 -12 -15 418.977 285.267 1
9 -12 -15 447.903 347.013 2
3 9 -15 485.744 202.227 3
-12 9 15 366.219 294.368 1
9 3 15 38.1652 81.712 1
-13 4 16 -178.117 145.096 3
4 9 16 193.297 139.382 1
4 -13 -16 355.88 276.242 2
4 9 16 313.833 179.274 1
-13 4 16 -106.871 196.477 1
9 4 -16 -575.066 474.491 2
9 4 -13 514.279 569.476 2
4 -13 -13 546.034 262.408 2
-13 4 13 590.508 365.284 1
4 9 13 740.202 198.56 1
4 -13 -10 -6.85358 115.549 2
4 9 10 398.091 118.204 1
4 -13 -10 165.705 55.63 1
-13 4 10 248.786 139.576 1
4 -13 -7 2874.79 454.661 2
9 4 -7 3220.19 729.318 2
4 9 7 2881.93 303.947 1
-13 4 7 2796.8 650.319 1
9 4 -7 4056.88 863.799 1
4 -13 -7 2601.35 306.444 1
-13 4 7 2840.43 705.193 2
4 -13 -4 2137.58 341.968 1
-13 4 4 1711.01 500.023 1
4 9 4 1218.05 483.494 4
9 4 -4 1579.29 534.344 2
9 -13 4 2718.24 448.205 4
-13 9 -4 2427.73 543.774 1
4 9 4 1586.72 290.939 1
-13 4 4 1881.13 532.803 2
-13 9 -4 2065.53 525.703 2
9 4 -4 1326.87 530.221 1
9 4 -1 4034.69 716.391 1
4 9 1 3822.59 458.867 2
4 9 1 3670.51 745.129 4
-13 9 -1 3763.78 660.899 2
9 -13 1 3522.93 571.921 1
4 9 1 3740.54 536.076 1
-13 4 1 3843.85 676.085 2
-13 9 -1 3451.35 635.674 1
-13 4 1 4822.51 776.425 1
9 4 -1 3462.72 678.108 4
9 4 -1 4462.22 719.354 2
4 -13 -1 4341.84 717.503 4
4 9 1 3720.78 658.519 3
-13 9 2 368.855 197.14 1
-13 4 -2 320.842 198.821 2
4 9 -2 607.182 345.077 4
4 9 -2 562.106 198.391 3
9 -13 -2 461.459 210.139 1
9 4 2 450.494 311.832 4
4 9 -2 613.661 298.036 1
9 -13 -2 538.015 269.265 2
4 -13 2 590.84 273.466 4
-13 4 -2 545.235 304.767 1
9 4 2 518.942 209.37 2
-13 9 2 105.558 179.786 2
9 4 2 325.373 200.875 1
4 9 -5 378.167 263.759 3
9 4 5 -42.804 187.714 1
-13 4 -5 42.0774 196.421 1
9 4 5 305.363 257.631 4
-13 4 -5 176.731 125.026 2
-13 9 5 122.19 140.089 1
-13 9 5 445.006 318.503 2
4 9 -5 45.4558 213.895 4
4 -13 5 45.163 107.225 4
9 -13 -5 104.808 120.922 1
9 -13 -5 -222.584 279.238 2
-13 4 -8 3287.2 401.555 4
9 -13 -8 3281.56 694.443 2
9 -13 -8 3500.44 587.094 1
9 4 8 3781.2 563.421 1
-13 9 8 4284.49 775.749 1
4 9 -8 4447.38 816.176 3
-13 9 8 3448.68 788.643 2
-13 4 -8 3566.21 697.243 1
9 -13 -11 710.504 296.872 2
4 9 -11 753.783 328.608 3
9 -13 -11 806.961 238.237 1
-13 9 11 965.392 394.503 1
-13 4 -11 431.595 198.984 4
9 4 11 842.875 293.813 1
9 -13 -14 693.299 338.529 1
4 9 -14 -78.4888 205.328 3
9 -13 -14 831.761 442.821 2
9 4 14 38.3186 136.066 1
-13 9 14 905.922 421.118 1
5 9 14 245.819 140.857 1
5 -14 -14 180.909 213.279 2
-14 5 14 -176.905 226.869 1
9 5 -14 137.158 404.793 2
-14 5 11 3342.74 796.36 1
5 9 11 2869.14 363.5 1
9 5 -11 3429.08 963.079 2
5 -14 -11 3045.77 626.016 2
5 -14 -11 2121.53 312.094 1
5 -14 -8 2429.19 479.629 2
9 5 -8 2076.88 628.017 2
-14 5 8 2325.64 620.808 1
5 9 8 2007.66 287.831 1
5 -14 -8 2017.92 312.658 1
9 -14 5 687.977 227.124 4
5 -14 -5 657.189 245.183 2
5 -14 -5 861.699 227.728 1
-14 9 -5 607.327 312.018 1
-14 5 5 498.24 276.182 1
9 5 -5 483.353 395.781 2
-14 5 5 618.179 417.631 2
5 9 5 165.766 138.034 1
9 5 -5 660.833 248.914 1
-14 9 -5 694.994 373.93 2
-14 5 2 1818.52 490.958 1
9 5 -2 1816.28 553.724 1
-14 5 2 1831.47 449.156 2
9 5 -2 1383.92 407.994 2
9 -14 2 1070.14 308.677 4
9 -14 2 1586.7 430.413 1
5 9 2 1638.29 494.639 4
5 9 2 1425.03 292.97 2
5 9 2 1406.95 344.765 1
9 5 -2 1055.81 412.463 4
-14 9 -2 1904.07 512.427 2
-14 9 -2 1285.29 366.918 1
5 9 -1 5933.79 694.264 2
9 5 1 5808.73 693.605 2
-14 9 1 6680.85 951.622 2
-14 5 -1 5005.24 779.194 1
-14 5 -1 6309.99 890.903 2
5 9 -1 5140.03 708.013 1
-14 9 1 6330.77 868.757 1
5 9 -1 6545.96 1022.21 4
9 5 1 5662.92 888.303 4
9 -14 -1 4761.21 641.992 1
5 9 -1 5626.82 829.11 3
5 -14 1 4692.53 708.38 4
9 5 1 6220.97 809.551 1
5 9 -4 422.084 191.724 1
-14 9 4 527.594 295.558 1
9 5 4 415.097 149.633 2
-14 9 4 835.724 375.988 2
-14 5 -4 332.218 209.54 1
-14 5 -4 253.176 237.152 2
9 5 4 381.608 180.848 1
9 5 4 728.17 369.653 4
5 -14 4 222.043 160.04 4
9 -14 -4 416.223 203.582 2
5 9 -4 157.438 255.754 3
5 9 -4 418.83 301.22 4
9 -14 -4 639.18 261.48 1
5 9 -7 1594.11 448.21 3
-14 9 7 1317.15 462.243 1
9 -14 -7 1047.95 343.153 2
-14 9 7 1076.81 451.347 2
-14 5 -7 1571.73 470.696 2
9 -14 -7 1372.21 347.677 1
-14 5 -7 1309.37 369.508 1
9 5 7 1157.39 333.703 1
9 -14 -10 108.635 188.579 2
9 -14 -10 44.6659 152.25 1
9 5 10 -88.2196 99.7279 1
-14 5 -10 225.182 98.3167 4
-14 5 -13 282.923 220.222 4
9 -14 -13 -9.16827 212.029 2
9 -14 -13 12.3285 130.631 1
5 9 -13 10.4741 188.281 3
-14 9 13 -78.8972 194.354 1
9 5 13 306.78 195.656 1
9 -14 -16 4.34807 244.276 1
-14 9 16 41.4141 311.073 1
9 -14 -16 403.989 305.33 2
9 5 16 440.945 258.291 1
-15 9 -15 148.653 146.024 4
-15 6 15 309.758 332.917 1
9 6 -15 916.131 616.018 2
6 -15 -15 368.572 223.656 2
6 9 15 243.508 139.698 1
6 9 12 605.721 188.438 1
9 6 -12 883.501 421.817 2
-15 6 12 588.675 408.878 1
6 -15 -12 294.032 170.289 1
6 -15 -12 882.758 339.264 2
-15 6 9 231.725 177.539 1
6 -15 -9 201.217 106.716 1
6 -15 -9 627.606 289.465 2
9 6 -9 384.688 295.601 2
6 9 9 407.277 152.738 1
9 -15 6 1850.42 416.515 4
-15 9 -6 1635.6 570.494 2
9 6 -6 1760.1 522.346 2
6 -15 -6 1627.89 341.234 1
-15 6 6 2084.04 563.928 1
-15 9 -6 1568.75 449.732 1
6 -15 -6 1463.86 381.031 2
6 9 6 1827.62 338.974 1
9 6 -3 1126.6 386.442 1
9 6 -3 1047.56 393.324 2
6 9 3 1182.39 233.513 2
6 -15 -3 564.146 160.744 1
6 9 3 1122.18 454.988 4
-15 6 3 952.505 351.796 2
-15 9 -3 965.86 412.207 2
-15 9 -3 849.775 356.952 1
6 9 3 892.376 229.766 1
9 -15 3 631.519 228.08 4
-15 6 3 861.046 316.523 1
9 6 0 11270.9 1077.91 2
6 9 0 9421.28 898.718 2
-15 9 0 9515.74 1115.68 1
-15 9 0 8923.27 1107.69 2
9 6 0 10071 1323.61 4
9 6 0 9995.97 1120.99 1
-15 6 0 9995.69 1209.26 2
9 -15 0 8563 919.316 1
6 9 0 9893.71 1304.21 4
6 9 0 9570.91 1002.11 1
6 -15 0 8551.26 1029.69 4
-15 6 0 9319.19 1125.18 1
-15 9 3 2037.75 543.015 1
-15 6 -3 1996.68 503.506 2
6 9 -3 2347.71 576.25 2
-15 9 3 3132.63 741.163 2
9 6 3 2398.82 423.653 2
6 9 -3 1814.04 511.134 3
9 -15 -3 2463.02 478.05 1
6 9 -3 2929.56 777.136 4
6 -15 3 2395.32 512.759 4
-15 6 -3 1956.29 530.672 1
9 -15 -3 1790.19 410.504 2
6 9 -3 2039.47 572.627 1
9 6 3 1958.91 475.049 4
9 6 3 2362.32 494.239 1
-15 9 6 2040.73 545.841 1
9 -15 -6 2804.94 606.591 2
6 9 -6 3409.02 771.025 1
6 -15 6 1871.45 390.592 4
9 -15 -6 2393.84 496.912 1
9 6 6 2543.21 464.167 1
9 6 6 1859.49 479.931 4
-15 6 -6 2328.17 605.797 2
6 9 -6 3059.71 687.165 2
6 9 -6 2892.59 644.174 3
-15 6 -6 2642.79 637.788 1
-15 9 6 2647.18 760.98 2
-15 9 9 165.938 143.237 1
9 -15 -9 490.705 237.125 1
9 6 9 871.897 283.699 1
9 -15 -9 378.535 262.109 2
6 9 -9 825.427 358.95 3
9 -15 -12 647.869 254.454 1
9 6 12 542.938 233.999 1
9 -15 -12 285.138 163.792 2
6 9 -12 809.747 383.543 3
-15 6 -12 414.113 169.23 4
-15 9 12 533.118 347.941 1
9 -15 -15 716.285 397.143 2
9 6 15 753.711 289.069 1
-15 9 15 918.762 477.98 1
9 -15 -15 937.285 378.804 1
-15 6 -15 909.065 333.558 4
-16 7 13 277.933 164.827 1
7 -16 -13 526.393 342.716 2
9 7 -13 185.968 281.069 2
7 9 13 414.819 160.154 1
7 -16 -13 66.3623 121.136 1
7 -16 -10 1852.28 359.826 1
-16 7 10 1491.42 489.602 1
7 -16 -10 2450.62 590.349 2
7 9 10 2039.59 337.07 1
9 7 -10 1921.92 631.058 2
9 7 -7 25.4562 348.49 2
7 -16 -7 446.98 127.945 1
7 -16 -7 446.202 190.53 2
-16 7 7 597.912 330.581 1
-16 9 -7 576.37 303.312 1
9 -16 7 506.139 194.096 4
7 9 7 687.033 192.306 1
-16 7 4 6839.2 1069.23 2
7 9 4 5080.52 492.916 2
9 7 -4 5804.84 951.328 2
7 9 4 4074.64 898.555 4
9 -16 4 5245.11 696.099 4
7 -16 -4 4908.6 610.059 1
7 9 4 5241.15 649.097 1
-16 9 -4 5665.58 905.808 1
-16 7 4 6182.52 994.211 1
-16 9 -4 6069.71 984.046 2
9 7 -4 6768.31 1064.46 1
9 -16 1 2892.24 587.267 4
9 7 -1 3201.86 621.445 2
-16 7 1 3162.91 653.749 1
9 7 -1 3188.63 717.594 1
7 9 1 2980.09 500.577 2
7 9 1 3398.04 765.779 4
9 -16 1 3080.2 586.457 1
-16 9 -1 3211.67 667.965 1
-16 7 1 3383.82 720.986 2
-16 9 -1 3032.65 631.666 2
9 7 -1 2798.93 789.244 4
7 9 1 3109.36 560.651 1
7 -16 -1 2593.28 587.703 4
-16 7 -2 2293.5 594.024 2
7 9 -2 2924.94 670.195 1
7 9 -2 2180.67 642.645 4
-16 7 -2 2121.77 531.687 1
9 -16 -2 2205.34 471.831 1
7 9 -2 2394.61 571.013 2
-16 9 2 2142.4 572.388 1
9 7 2 2572.9 697.861 4
-16 9 2 2453.62 593.092 2
9 7 2 2016.84 403.982 2
7 -16 2 2313.83 499.084 4
9 7 2 2316.22 507.322 1
9 7 5 1159.34 385.334 4
7 -16 5 1158.74 332.403 4
7 9 -5 1696.61 507.99 2
-16 7 -5 1968.57 548.196 1
-16 7 -5 1381.77 443.679 2
9 7 5 1499.14 351.24 1
7 9 -5 1522.44 500.237 1
9 7 5 1803.04 354.72 2
-16 9 5 1988.53 621.141 1
9 -16 -5 1776.54 449.64 2
9 -16 -5 1729.3 403.266 1
-16 9 8 576.479 382.729 1
9 -16 -8 499.849 186.376 1
-16 7 -8 686.046 360.336 1
7 9 -8 415.708 280.491 2
9 -16 -8 404.005 270.155 2
9 7 8 490.837 147.71 1
-16 9 11 1780.29 597.245 1
7 9 -11 2407.01 745.832 2
9 -16 -11 2074.2 458.051 1
9 -16 -11 2543.91 640.552 2
9 7 11 1561.23 362.139 1
9 -16 -14 474.184 226.313 1
7 9 -14 129.465 415.444 2
9 -16 -14 243.368 320.197 2
9 7 14 506.342 220.031 1
-16 7 -14 178.695 81.1659 4
-16 9 14 268.966 263.006 1
8 -17 -14 1142.18 326.533 1
-17 8 14 714.893 351.038 1
8 -17 -14 797.011 357.611 2
8 9 14 380.055 164.381 1
9 8 -14 971.098 515.268 2
8 -17 -11 231.126 174.208 1
8 -17 -11 546.175 277.319 2
9 8 -11 214.259 300.73 2
8 9 11 631.575 213.24 1
-17 8 11 733.226 445.328 1
-17 8 8 1315.38 539.881 1
8 -17 -8 1417.02 342.798 1
9 8 -8 1670.36 576.267 2
-17 9 -8 1042.83 388.29 1
8 -17 -8 1205.08 424.43 2
8 9 8 1219.63 309.237 1
8 -17 -5 2427.36 479.635 1
8 9 5 1867.04 605.88 4
9 8 -5 2126.12 624.664 2
8 -17 -5 2369.62 526.132 2
-17 8 5 2962.06 724.231 1
8 9 5 2133.53 430.875 1
-17 9 -5 2153.54 606.962 1
8 9 5 2001.69 315.715 2
9 -17 5 2092.73 458.622 4
9 8 -2 659.014 392.931 2
8 -17 -2 1221.55 368.043 1
9 8 -2 1126.32 472.828 1
-17 8 2 2128.73 624.979 1
9 8 -2 949.793 549.536 4
8 9 2 885.451 306.76 2
-17 8 2 1844.54 589.012 2
-17 9 -2 393.953 227.992 2
-17 9 -2 414.116 171.66 1
9 -17 2 770.425 300.444 4
8 9 2 573.678 280.231 4
8 9 2 1106.37 363.35 1
8 9 -1 1663.7 506.004 2
9 8 1 1323.07 441.273 1
8 9 -1 823.68 343.005 1
8 9 -1 1323.03 480.587 4
9 8 1 1450.02 580.259 4
-17 9 1 2230.61 579.322 1
-17 9 1 2001.15 565.19 2
8 -17 1 1511.25 453.026 4
-17 8 -1 1564.91 534.102 2
9 8 1 1245.39 350.592 2
9 -17 -1 1490.95 420.537 1
-17 8 -1 1519.93 541.696 1
9 8 4 927.059 268.949 2
8 9 -4 904.023 360.366 2
9 8 4 378.322 283.402 4
9 -17 -4 807.7 304.334 1
9 8 4 592.006 219.064 1
-17 8 -4 370.355 160.578 2
-17 9 4 1204.05 479.857 1
9 -17 -4 297.487 160.774 2
8 9 -4 869.897 305.506 1
8 -17 4 298.34 163.379 4
-17 8 -4 793.397 292.175 1
9 -17 -7 800.514 312.448 1
8 9 -7 605.249 369.949 2
8 -17 7 272.141 188.266 4
9 8 7 392.133 155.287 1
-17 9 7 629.738 355.828 1
-17 8 -7 656.474 336.14 1
9 -17 -7 154.253 180.903 2
9 8 10 1095.78 293.097 1
8 9 -10 1541.7 663.991 2
-17 9 10 1062.1 481.633 1
9 -17 -10 938.189 325.764 1
9 -17 -10 1041.12 371.145 2
-17 9 13 240.446 203.355 1
8 9 -13 14.0857 261.146 2
9 8 13 -224.55 147.483 1
9 -17 -13 433.759 348.285 2
9 -17 -13 204.014 194.93 1
-18 9 0 2456.11 727.396 1
9 9 0 2210.66 582.812 1
9 9 0 2195.95 516.455 2
9 -18 0 1708.53 483.155 1
9 -18 0 2008.71 533.745 4
9 9 -3 4293.28 828.426 2
9 9 -3 4393.72 841.803 1
9 9 3 4828.14 725.588 1
-18 9 3 4498.86 871.588 1
9 -18 3 3447.41 614.357 4
9 9 3 4304.2 581.247 2
9 -18 -3 3778.26 621.442 1
9 9 3 5733.71 1113.56 4
-18 9 -3 3730.1 767.89 1
-18 9 6 936.064 403.494 1
9 9 6 365.536 202.68 1
9 9 -6 333.911 308.654 2
9 -18 -6 248.454 188.103 1
9 -18 6 87.7596 192.367 4
-18 9 -6 221.842 190.604 1
9 -18 -6 210.589 114.393 2
-18 9 9 1016.83 502.545 1
9 9 -9 485.875 474.218 2
9 -18 -9 553.777 343.781 2
9 -18 -9 499.737 215.469 1
9 9 9 652.427 221.733 1
9 9 -12 349.015 411.506 2
9 9 12 294.857 171.845 1
9 -18 -12 198.24 91.1443 1
-18 9 12 -180.204 281.725 1
9 -18 -12 235.723 164.006 2
-5 -5 0 3921.54 542.785 1
-5 -5 0 2932.71 441.916 4
-5 -5 0 3793.99 571.61 3
-5 -5 0 3793.92 458.264 2
10 -5 0 4454.55 661.573 2
10 -5 0 4588.1 658.239 1
-5 10 3 4329.03 543.022 2
-5 10 3 3957.31 412.207 1
-5 -5 3 4085.03 607.05 1
-5 -5 3 4000.43 552.81 3
-5 -5 -3 5285.44 532.299 1
-5 -5 -3 4235.25 382.783 2
10 -5 3 5015.65 651.96 1
-5 -5 -3 5348.6 707.684 3
10 -5 -3 4508.38 690.861 1
-5 -5 -3 4071.84 639.8 4
-5 10 -3 4171.1 588.956 4
10 -5 -3 5102 819.665 2
10 -5 6 1906.41 423.708 1
10 -5 -6 2052.7 585.289 2
-5 10 6 1350.7 307.623 3
-5 10 6 1924.45 402.693 2
-5 -5 6 2308.28 432.99 3
-5 -5 -6 1892.83 494.72 4
-5 -5 -6 1798.6 260.603 1
-5 10 -6 1432.22 335.123 4
10 -5 -6 2277.37 537.989 1
-5 -5 6 2101.82 493.68 1
-5 10 6 1827.5 298.7 1
-5 10 9 829.58 292.385 2
10 -5 9 646.93 278.658 1
-5 -5 9 1202.31 398.959 1
10 -5 -9 1501.6 643.073 2
10 -5 -9 1785.27 536.034 1
-5 -5 9 879.619 238.94 3
-5 10 9 907.688 240.361 3
-5 10 9 734.19 216.985 1
-5 -5 12 335.177 146.265 3
-5 10 12 526.797 152.472 3
-5 -5 12 243.986 151.874 1
-5 10 12 511.235 212.621 1
10 -5 -12 1152.6 519.038 2
10 -5 -12 694.867 365.651 1
10 -5 -15 61.7881 252.044 2
-5 -5 15 375.889 321.282 1
-5 -5 -15 -114.43 172.634 3
-5 10 15 94.9892 144.483 1
-6 -4 16 264.696 294.1 1
10 -4 -16 710.829 473.556 2
-4 10 16 120.615 194.252 1
-4 -6 -16 223.717 198.371 3
-6 -4 13 923.506 270.582 1
10 -4 -13 1710.5 717.832 2
-6 -4 13 940.346 238.597 3
-4 -6 -13 874.517 346.641 3
-4 10 13 998.614 311.553 1
-4 -6 -10 1282.19 333.659 3
-4 10 10 1390.98 281.508 1
10 -4 -10 2129.92 606.368 1
-6 -4 10 1705.28 422.308 1
10 -4 -10 1249.49 488.481 2
-4 10 10 1312.82 287.988 3
-6 -4 10 1360.45 298.715 3
-4 -6 -7 2835.58 492.187 3
10 -4 -7 1973.27 549.763 1
-4 10 7 2300.37 423.576 2
10 -4 -7 2095.26 631.921 2
-6 10 -7 2035.8 371.659 4
-4 10 7 2300.25 401.099 3
-4 10 7 1650.75 261.244 1
10 -6 7 1890.41 417.564 1
-6 -4 7 2310.91 516.362 1
-6 -4 7 2740.41 460.898 3
-6 -4 4 2802.12 470.498 3
-4 -6 -4 4758.57 727.352 4
-4 -6 -4 3664.3 591.736 3
-4 10 4 3113.12 483.484 3
10 -4 -4 4445.53 824.661 2
-4 -6 -4 3861.26 402.591 1
-6 10 -4 4554.93 603.759 4
-4 10 4 3128.02 441.223 2
10 -6 4 3907.68 568.856 1
10 -4 -4 4578.02 749.99 1
-6 -4 4 2811.32 534.004 1
-6 -4 1 35859.5 1641.16 2
-6 -4 1 33432.6 1721.15 3
10 -4 -1 37556.5 1873.39 1
-4 10 1 32934.7 1381.13 2
10 -6 1 35408.5 1727.28 1
10 -4 -1 34943.1 1875.75 2
-6 -4 1 38953 1868.23 1
10 -6 1 37835.5 1864.76 2
-4 -6 -1 35008.7 1769.63 3
-4 -6 -1 36570.7 1703.24 4
-4 -6 -1 32891 1458.52 1
-6 -4 -2 7296.35 584.84 2
10 -4 2 6496.05 756.102 2
-6 -4 -2 6535.86 634.964 1
10 -6 -2 7157.88 799.271 1
-4 10 -2 6449.32 774.502 4
10 -4 2 6168.36 715.969 1
10 -6 -2 5943.02 814.485 2
-4 -6 2 6967.42 742.373 3
-6 10 2 5887.15 554.005 1
-4 -6 2 7591.96 786.489 1
-6 -4 -2 5505.29 631.692 4
-6 10 2 5716.65 618.204 2
-4 -6 5 7943.52 801.933 3
10 -4 5 6823.01 778.555 1
-6 -4 -5 7243.36 622.812 1
10 -4 5 6087.12 456.061 4
-6 -4 -5 8407.02 927.355 4
-4 -6 5 7764.6 878.707 1
-6 10 5 7264.65 627.543 1
10 -6 -5 6974.21 946.831 1
10 -6 -5 6792.83 1006.2 2
-6 10 5 6592.42 740.451 2
-6 -4 -5 7829.94 563.016 2
-4 10 -5 7119.37 772.363 4
-6 10 8 2214.62 367.038 1
-4 -6 8 3057.62 608.204 1
-6 10 8 2688.98 516.894 2
10 -6 -8 2134.01 612.378 2
10 -6 -8 2798.17 636.68 1
-4 -6 8 2547.8 442.22 3
10 -4 8 2523.59 475.818 1
10 -4 11 741.406 278.954 1
-4 -6 11 567.248 296.884 1
-6 10 11 613.349 228.861 1
10 -6 -11 1673.68 599.353 2
10 -6 -11 1781.64 609.78 1
-4 -6 11 732.604 231.65 3
-6 10 11 307.9 115.994 3
-6 10 14 915.565 200.187 3
-4 -6 14 819.738 357.518 1
-6 10 14 1112.88 317.872 1
-4 10 -14 1812.39 462.525 3
10 -6 -14 1450.64 655.421 2
-4 10 -17 260.723 179.743 3
-4 -6 17 544.062 347.571 1
10 -6 -17 1015.05 752.88 2
-6 -4 -17 541.611 308.921 3
-6 10 17 939.975 395.29 1
-3 -7 -17 358.781 216.152 3
-7 -3 17 125.84 223.746 1
-3 10 17 334.506 145.977 1
10 -3 -17 756.484 738.148 2
-3 10 14 940.402 271.609 1
-7 -3 14 1066.15 388.247 1
-7 -3 14 701.146 220.948 3
10 -3 -14 1646.72 836.915 2
-3 -7 -14 1316.32 348.531 3
-3 -7 -11 879.141 275.734 3
-7 -3 11 437.984 153.879 1
10 -3 -11 854.389 390.464 2
-7 -3 11 681.399 191.929 3
-3 10 11 937.285 219.892 1
-3 10 11 688.339 220.635 3
-3 10 8 507.071 137.189 1
-7 10 -8 522.603 126.51 4
10 -3 -8 695.512 417.114 2
-3 10 8 644.702 252.118 2
10 -3 -8 804.914 333.536 1
-7 -3 8 881.989 289.794 3
-3 10 8 812.994 266.792 3
-7 -3 8 878.196 327.518 1
-3 -7 -8 269.698 126.647 3
10 -7 8 708.207 248.171 1
10 -3 -5 4368.52 849.03 2
-7 -3 5 4040.07 695.974 1
-3 10 5 4251.1 556.56 3
-3 -7 -5 3853.5 547.49 3
-3 -7 -5 4570.38 730.638 4
10 -7 5 4459.01 614.583 1
-3 10 5 4635.37 489.891 2
-7 10 -5 4159.19 517.667 4
10 -3 -5 5540.26 860.893 1
-7 -3 5 3899.26 562.784 3
-3 -7 -2 7653.26 898.084 4
-7 -3 2 6412.34 790.122 2
10 -3 -2 6550.34 887.209 2
-3 10 2 6828.28 585.01 2
-3 10 2 7290.25 810.745 3
10 -3 -2 6005.73 784.706 1
-3 -7 -2 6952.29 808.405 3
10 -7 2 8089.58 866.459 1
10 -7 2 7670.74 881.467 2
-3 -7 -2 6078.35 573.327 1
-7 -3 2 6997.51 899.205 1
-7 -3 -1 14882.3 960.042 2
10 -3 1 14465.1 1170.87 1
10 -7 -1 16127.8 1218.35 1
-7 10 1 13288.8 920.738 1
10 -7 -1 14435.8 1199.68 2
-7 10 1 14050.7 1054.91 2
-3 10 -1 12201.7 1118.53 4
-3 10 -1 12691.8 1081.08 3
-3 -7 1 15652.9 1155.73 3
-3 -7 1 17058.3 1120.17 4
-7 -3 -1 14233.3 1044.52 1
-7 -3 -1 13620.1 984.01 4
-3 -7 1 16344.8 1093.39 1
10 -3 1 14473.2 1164.18 2
10 -3 4 552.501 256.608 1
-7 10 4 279.306 144.081 1
10 -3 4 563.257 183.01 4
-7 10 4 654.043 245.863 2
10 -7 -4 367.322 180.649 2
-3 10 -4 188.912 219.332 4
-3 -7 4 335.446 151.832 3
-3 10 -4 643.239 245.99 3
-7 -3 -4 448.643 232.154 4
-7 -3 -4 288.503 144.483 1
-3 -7 4 968.197 315.001 1
-7 -3 -4 454.852 190.84 2
10 -7 -4 741.889 339.865 1
-3 10 -7 624.991 190.378 3
-3 -7 7 643.491 247.257 1
10 -7 -7 528.642 311.079 2
10 -7 -7 839.577 276.064 1
-3 -7 7 731.638 227.182 3
-7 10 7 547.282 280.065 2
-3 10 -7 588.474 298.814 4
10 -3 7 867.348 327.613 1
-7 -3 -7 503.377 154.089 1
-7 10 7 414.588 139.867 1
-7 -3 -7 548.933 193.691 4
-3 -7 10 1430.53 457.057 1
10 -7 -10 1709.05 537.476 2
10 -7 -10 1660.69 587.674 1
-3 -7 10 1261.03 323.109 3
-7 10 10 890.553 289.547 1
-3 10 -10 865.32 321.896 3
-7 10 10 1682.04 509.148 2
10 -3 10 972.151 323.81 1
-3 -7 13 110.193 201.348 1
10 -7 -13 166.934 175.611 1
10 -7 -13 408.719 296.062 2
-7 10 13 589.421 275.915 1
-7 10 13 394.501 148.886 3
10 -3 13 304.973 237.82 1
-3 10 -16 245.269 273.135 3
-7 10 16 653.222 387.816 1
10 -7 -16 430.883 456.665 2
-3 -7 16 338.004 245.066 1
-8 -2 15 448.372 208.626 3
-2 -8 -15 738.517 365.358 2
-2 -8 -15 260.849 241.534 3
-8 -2 15 214.318 289.807 1
-2 10 15 321.579 142.892 1
10 -2 -15 540.512 394.266 2
-8 -2 12 923.484 248.101 3
10 -2 -12 1971.32 658.025 2
-2 10 12 1407.92 277.957 1
-8 -2 12 1705.07 509.253 1
-2 -8 -12 1681.18 416.174 3
-8 -2 9 1425.73 324.09 3
-2 10 9 1899.35 372.305 3
10 -2 -9 2098.85 601.893 1
-8 -2 9 1713.15 449.594 1
10 -2 -9 2090.71 607.263 2
-2 -8 -9 1202.06 332.277 3
-2 10 6 2883.14 391.67 2
10 -2 -6 2771 728.309 2
-2 -8 -6 1896.48 378.104 3
-8 10 -6 2726.31 384.628 4
-8 -2 6 2690.27 592.76 1
-2 10 6 2236.88 417.497 3
10 -2 -6 2551.02 642.543 1
-8 -2 6 2363.1 560.296 2
10 -8 6 2799.3 507.449 1
10 -2 -3 6809.41 949.822 2
-2 10 3 10040.7 631.224 2
-8 -2 3 10057.7 1058.09 2
-2 -8 -3 9508.38 945.901 3
10 -2 -3 6812.92 884.517 1
10 -8 3 9048.24 906.319 1
-2 10 3 11043.9 966.36 3
-2 -8 -3 9305.85 1014.45 4
-8 -2 3 10569.1 1116.96 1
-2 -8 -3 9256.17 635.59 1
-2 -8 0 1974.99 459.979 1
-8 -2 0 1415.77 421.341 1
10 -8 0 2307.11 561.355 1
-2 -8 0 3300.84 574.907 4
-2 -8 0 2065.41 501.545 3
10 -2 0 1296.08 455.068 1
10 -2 0 1575.15 523.18 2
-8 -2 0 1316.05 387.135 2
-8 10 0 2402.95 450.031 1
-2 10 0 1223.34 452.569 4
-2 10 0 1140.2 423.147 3
-8 10 0 2692.38 485.523 2
10 -8 0 3018.43 604.862 2
-8 -2 -3 6114.81 641.967 2
-2 -8 3 5738.94 666.305 3
-8 -2 -3 5625.25 656.459 1
10 -2 3 5063.06 661.235 1
10 -2 3 5226.26 684.95 2
-8 10 3 4857.44 621.134 1
-8 -2 -3 5691.54 642.11 4
10 -8 -3 4892.99 761.269 2
10 -2 3 5828.5 604.136 4
-8 10 3 4499.3 646.662 2
-2 10 -3 5788.62 754.187 4
10 -8 -3 4968.77 680.903 1
-2 -8 3 5759.88 684.826 1
-2 10 -3 4995.85 682.289 3
10 -2 6 5561.28 678.638 1
-8 10 6 5311.21 611.726 1
-8 -2 -6 6490.64 649.161 2
-2 -8 6 6043.58 764.909 1
-2 -8 6 6061.9 680.617 3
-2 10 -6 7137.64 909.196 4
-8 -2 -6 5776.25 727.33 4
10 -8 -6 7548.51 927.852 1
-8 -2 -6 5791.15 636.391 1
10 -8 -6 6113.83 927.195 2
-2 10 -6 6331.27 782.799 3
-8 10 6 6166.86 810.495 2
-8 10 9 1882.19 519.033 2
-8 10 9 1868.83 388.92 1
-2 10 -9 2158.75 520.884 3
-2 -8 9 2068.3 406.341 3
10 -8 -9 1614.49 472.958 2
10 -2 9 2183.79 456.013 1
10 -8 -9 1769.03 495.187 1
-8 -2 -9 2588.42 533.738 4
-2 -8 9 1807.77 426.843 1
10 -8 -12 4001.42 860.736 1
-8 10 12 2759.47 395.653 3
10 -2 12 2136.98 441.416 1
-2 -8 12 2167.34 580.306 1
-2 10 -12 3694.21 687.19 3
-8 10 12 2754.43 563.9 1
10 -8 -12 3928.79 980.506 2
-8 10 12 2800.38 632.265 2
-8 10 15 332.926 109.18 3
-8 10 15 545.176 281.626 1
-2 10 -15 506.434 323.573 3
10 -8 -15 513.648 529.638 2
-2 -8 15 -43.402 198.846 1
-9 -1 16 124.837 206.866 1
-1 -9 -16 207.927 163.142 2
10 -1 -16 27.414 246.897 2
-1 10 16 164.118 108.677 1
-1 -9 -16 391.93 169.598 3
-9 -1 16 82.6336 93.2711 3
-9 -1 13 1914.28 577.92 1
-1 -9 -13 2488.79 541.706 2
-1 -9 -13 1780.49 399.199 3
10 -1 -13 2941.41 898.857 2
-1 10 13 2206.48 372.546 1
-9 -1 13 1627.68 353.655 3
-1 10 10 982.871 270.394 3
-1 -9 -10 993.832 264.179 2
10 -1 -10 1354.77 455.905 2
-9 -1 10 1175.08 298.917 3
-9 -1 10 684.006 271.759 1
-1 -9 -10 942.435 274.524 3
-1 10 7 2968.16 504.842 3
-9 -1 7 3212.4 693.508 2
-1 -9 -7 1948.75 415.723 3
10 -1 -7 3044.73 730.414 2
10 -1 -7 3080.47 736.965 1
-9 -1 7 2805.35 597.537 1
-9 10 -7 2285.16 333.422 4
-1 -9 -7 2721.67 321.976 2
-9 -1 4 411.421 194.784 1
10 -9 4 383.787 145.781 1
-1 -9 -4 271.537 192.382 4
-9 -1 4 590.268 291.357 2
10 -1 -4 168.293 223.721 2
-1 -9 -4 432.76 137.493 3
10 -1 -4 -337.884 381.127 1
-1 10 4 426.581 171.651 3
-9 10 -1 3720.21 616.496 2
10 -9 1 4465.3 654.506 1
-1 -9 -1 5630.66 735.676 4
-1 10 1 4530.99 644.003 3
10 -9 1 4994.01 715.233 2
-1 -9 -1 3976.13 466.276 1
-1 -9 -1 4766.9 635.94 3
-9 10 -1 4157.59 605.344 1
10 -1 -1 4116.49 703.401 2
-9 -1 1 4411.2 683.586 1
-1 10 1 4289.71 689.683 4
-9 -1 1 5219.17 730.75 2
10 -1 -1 3977.74 713.973 1
-1 -9 2 1324.74 338.778 1
10 -1 2 1818.4 416.76 2
-1 -9 2 1971.58 438.923 4
-1 10 -2 1653.4 439.1 4
10 -1 2 1847.41 445.259 1
-1 -9 2 813.099 264.82 3
10 -9 -2 1001.68 308.599 1
-9 -1 -2 1669.68 394.494 1
-9 -1 -2 1986.74 401.509 2
-9 10 2 1745.53 390.09 1
10 -9 -2 1380.19 357.708 2
-9 10 2 1395.09 383.95 2
10 -1 2 1961.47 405.624 4
-1 10 -2 2256.17 503.139 3
-1 -9 5 2106.54 405.473 3
10 -9 -5 2828.8 612.55 2
-9 -1 -5 2189.39 381.031 2
-1 10 -5 1902.96 447.384 4
-9 -1 -5 2019.53 423.804 1
10 -1 5 1888.21 346.432 4
-9 10 5 1837.24 381.327 1
10 -1 5 1841.21 422.374 1
-9 -1 -5 1927.06 371.571 4
10 -9 -5 2333.14 458.246 1
-9 10 5 2011.93 458.392 2
-1 10 -5 2914.04 546.252 3
-1 -9 8 1799.8 454.498 1
10 -9 -8 2208.43 559.713 2
-9 10 8 2590.08 618.067 2
10 -1 8 1624.92 383.883 1
-9 -1 -8 1849.57 419.635 4
10 -9 -8 1754.65 472.065 1
-9 10 8 1944.78 416.385 1
-1 10 -8 2558.36 628.956 3
-9 10 11 1457.94 505.474 2
10 -9 -11 1431.17 510.264 1
10 -1 11 1012.1 312.895 1
10 -9 -11 1626.95 556.54 2
-1 10 -11 1466.5 456.002 3
-1 -9 11 1158.43 399.209 1
-9 10 11 1390.27 406.788 1
10 -9 -14 1297.58 558.968 1
10 -9 -14 854.903 426.44 2
-9 10 14 325.441 125.356 3
-9 10 14 182.158 159.928 1
-1 10 -14 776.234 346.789 3
10 -1 14 103.768 108.675 1
-1 -9 14 671.455 206.069 1
10 -9 -17 196.594 408.532 2
-1 -9 17 55.9919 188.44 1
-9 10 17 -223.973 314.505 1
-1 10 -17 20.5943 252.401 3
-10 0 17 -21.9526 109.349 3
10 0 -17 199.584 604.252 2
0 -10 -17 357.616 235.572 2
0 10 17 292.028 178.416 1
-10 0 17 365.846 312.902 1
0 -10 -14 358.39 212.099 2
10 0 -14 925.681 590.781 2
0 10 14 165.196 97.9903 1
-10 0 14 231.911 154.657 3
0 -10 -14 254.57 169.658 3
-10 0 14 538.924 270.606 1
-10 0 11 1363.52 501.042 1
0 -10 -11 1406.32 375.716 2
10 0 -11 1863.58 717.234 2
-10 0 11 1137.64 273.218 3
0 -10 -11 1436.98 347.7 3
0 10 11 1236.41 200.961 1
-10 0 8 866.17 410.835 1
-10 0 8 379.915 240.401 2
10 0 -8 868.036 422.307 2
10 0 -8 813.046 472.746 1
0 -10 -8 800.096 202.127 2
0 10 8 477.407 228.781 3
0 -10 -8 556.724 212.168 3
0 10 5 1138.67 308.968 3
-10 0 5 1327.37 450.792 2
10 -10 5 879.156 269.363 1
10 0 -5 1005.94 408.908 2
10 0 -5 493.237 309.755 1
0 -10 -5 1216.88 341.449 3
10 -10 5 670.106 132.752 4
-10 0 5 1170.23 394.377 1
10 0 -2 7117.81 922.813 2
-10 0 2 7397.94 917.472 2
-10 10 -2 5163.18 683.126 1
-10 10 -2 6476.17 850.813 2
10 -10 2 6007.6 721.379 1
0 10 2 6517.61 764.133 3
0 -10 -2 7397.48 905.004 4
-10 0 2 7049.24 894.796 1
10 0 -2 7116.4 962.253 1
0 -10 -2 6235.66 725.329 3
10 -10 -1 3211.43 551.735 1
-10 0 -1 4155.36 620.851 2
-10 0 -1 4325.3 685.11 1
10 -10 -1 4218.32 682.341 2
0 10 -1 3667.7 686.95 4
-10 10 1 3523.8 583.468 1
10 0 1 3582.51 603.536 2
-10 10 1 3184.75 642.373 2
0 -10 1 4813 681.023 4
0 -10 1 3643.59 597.104 3
0 10 -1 3457.54 624.61 3
10 0 1 4256.51 667.69 1
-10 0 -4 3208.17 472.17 4
-10 0 -4 3363.68 581.636 1
0 10 -4 3996.9 653.501 3
10 -10 -4 2915.72 532.386 1
-10 10 4 3672.75 651.243 2
10 0 4 3562.6 560.314 1
10 -10 -4 3450.52 639.108 2
10 0 4 3218 490.119 4
0 10 -4 3336.85 644.909 4
-10 0 -4 3531.47 550.293 2
0 -10 4 4129.19 597.875 3
-10 10 4 3618.62 576.319 1
10 0 4 3093.14 504.356 2
10 -10 -7 6891.28 898.644 1
-10 0 -7 7632.77 859.462 1
10 -10 -7 6631.75 982.994 2
-10 0 -7 7546.01 793.777 4
10 0 7 7709.23 882.419 1
0 10 -7 7719.76 976.078 3
-10 10 7 6104.19 946.521 2
-10 10 7 6824.07 851.8 1
-10 10 10 1944.1 541.448 2
10 -10 -10 1450.18 415.881 2
0 10 -10 2860.32 673.909 3
-10 0 -10 2511.31 538.724 4
-10 10 10 1601.36 380.523 1
10 0 10 1776.82 423.812 1
10 -10 -10 1632.02 411.604 1
0 -10 13 475.332 238.867 1
10 -10 -13 213.712 266.673 1
10 0 13 109.936 92.2331 1
-10 10 13 265.261 234.955 1
0 10 -13 836.143 399.425 3
10 -10 -16 595.876 378.527 2
-10 10 16 305.689 290.005 1
0 10 -16 33.9983 168.955 3
0 -10 16 219.528 203.907 1
-10 10 16 31.7396 56.2697 3
1 -11 -15 313.24 277.933 2
10 1 -15 392.738 573.406 2
1 10 15 17.7496 103.181 1
-11 1 15 1.81349 223.083 1
-11 1 15 200.273 143.242 3
1 -11 -12 588.379 198.177 2
10 1 -12 827.911 513.707 2
1 10 12 453.534 133.448 1
-11 1 12 344.64 245.063 1
1 -11 -12 0.26996 204.669 3
1 10 12 367.073 105.442 1
-11 1 12 95.4115 150.273 3
10 1 -9 2534.91 823.457 2
-11 1 9 1994.59 563.98 1
1 -11 -9 1529.16 327.146 2
1 -11 -9 1253.57 325.644 3
1 10 6 1698.13 392.793 3
-11 1 6 1850.9 548.32 2
10 1 -6 1865.61 605.14 2
10 1 -6 727.753 318.846 1
1 -11 -6 899.8 187.007 2
-11 1 6 1277.8 442.263 1
1 -11 -6 876.25 283.542 3
10 -11 3 4941.69 691.768 1
1 10 3 4473.54 661.251 3
-11 10 -3 4659.82 679.85 1
-11 1 3 4407.86 749.732 2
10 1 -3 3760.26 745.552 2
-11 10 -3 4769.26 754.208 2
10 1 -3 4037.5 759.796 1
1 -11 -3 4877.53 739.353 4
-11 1 3 3979.87 669.119 1
1 -11 -3 4234.86 607.489 3
1 10 0 816.015 261.388 3
-11 10 0 1099.33 360.18 2
10 1 0 771.115 303.025 2
1 -11 0 1132.92 359.611 4
-11 1 0 859.898 257.264 1
-11 1 0 1251.44 308.931 2
1 -11 0 946.84 281.342 3
10 -11 0 1074.31 292.611 1
-11 10 0 854.219 288.784 1
10 -11 0 1049.27 332.979 2
10 1 0 815.409 287.462 1
1 10 0 732.169 295.066 4
-11 10 3 338.512 122.825 1
-11 10 3 415.608 216.709 2
10 1 3 354.257 203.827 4
10 1 3 424.171 222.423 1
-11 1 -3 931.784 306.196 2
-11 1 -3 396.086 183.475 1
1 10 -3 437.862 155.589 4
10 -11 -3 300.437 189.69 2
10 1 3 180.46 116.332 2
10 -11 -3 485.212 177.459 1
1 -11 3 418.125 203.548 4
1 -11 3 554.226 253.052 3
1 10 -3 208.321 136.686 3
10 1 6 968.31 337.423 4
10 1 6 755.587 249.92 1
1 10 -6 677.704 263.795 3
-11 1 -6 1011.33 364.238 1
-11 10 6 667.08 286.43 1
1 10 -6 1066.73 489.487 4
10 -11 -6 324.162 150.263 2
-11 1 -6 878.425 237.95 4
10 -11 -6 742.776 301.117 1
-11 1 -6 857.14 307.027 2
-11 10 6 929.057 417.485 2
-11 10 9 815.724 285.218 1
10 -11 -9 399.721 356.653 2
-11 10 9 751.163 379.023 2
10 1 9 426.925 166.953 1
10 -11 -9 1310.89 464.98 1
-11 1 -9 882.322 304.907 4
1 10 -9 967.508 333.778 3
10 -11 -12 1184.53 485.221 1
10 1 12 840.851 235.198 1
10 -11 -12 688.308 306.7 2
1 10 -12 823.333 367.361 3
-11 1 -12 699.879 319.987 4
-11 10 12 582.342 343.208 1
10 1 15 261.578 149.594 1
10 -11 -15 431.692 286.145 2
1 10 -15 252.405 257.895 3
-11 10 15 432.467 348.274 1
10 -11 -15 704.532 372.509 1
-12 2 16 655.765 430.782 1
2 10 16 397.79 174.631 1
10 2 -16 100.67 475.874 2
2 -12 -16 261.994 305.792 2
-12 2 16 175.605 127.401 3
2 10 13 267.522 114.46 1
-12 2 13 263.356 98.3932 3
2 -12 -13 252.507 213.488 2
2 10 13 232.912 103.744 1
10 2 -10 3651.2 941.631 2
-12 2 10 3093.68 725.054 1
2 -12 -10 1815.3 424.784 3
2 -12 -10 2827.15 505.151 2
-12 2 7 2668.19 648.626 1
2 -12 -7 2294.04 480.884 3
10 2 -7 3659.93 844.769 2
-12 2 7 2165.57 574.273 2
2 10 7 2854.75 532.102 3
2 -12 -7 2744.23 377.253 2
10 2 -7 3483.12 797.9 1
-12 10 -4 3075.2 627.272 2
2 10 4 2964 549.479 3
-12 2 4 3862.59 758.519 2
10 2 -4 2527.21 682.04 2
-12 10 -4 3541.53 608.233 1
10 -12 4 3240.49 418.918 4
10 2 -4 3921.33 811.052 1
10 -12 4 3217.34 556.227 1
-12 2 4 4092.9 769.347 1
2 -12 -4 2702.17 509.09 3
2 10 1 3551.42 630.451 3
10 2 -1 3675.1 669.049 2
2 10 1 3131.84 670.735 4
-12 10 -1 4875.46 764.414 1
-12 10 -1 4252.79 751.558 2
2 -12 -1 4681 667.964 3
-12 2 1 4535.85 733.503 2
-12 2 1 3866.71 724.552 1
2 -12 -1 6253.28 853.043 4
10 -12 1 4689.39 682.403 1
10 2 -1 4091.83 740.865 1
2 10 -2 2812.47 554.583 3
10 -12 -2 2540.5 471.027 1
-12 10 2 2913.78 549.28 1
-12 2 -2 2925.42 576.597 1
10 2 2 3065.44 596.46 4
-12 10 2 2510.17 563.5 2
10 2 2 3139.8 518.046 2
-12 2 -2 3040.31 553.888 2
10 2 2 2778.76 490.963 1
2 10 -2 2168.16 555.271 4
2 -12 2 3097.68 537.932 4
10 -12 -2 2688.72 541.857 2
2 10 -5 1386.14 566.814 4
-12 2 -5 995.83 309.804 2
10 -12 -5 880.003 319.337 2
10 -12 -5 1403.79 349.568 1
10 2 5 1538.28 364.496 1
-12 10 5 822.014 282.412 2
-12 10 5 954.135 404 1
2 10 -5 1139.71 403.433 3
-12 2 -5 1163.75 351.069 1
10 2 5 1551.18 437.966 4
2 10 -8 2377.6 562.177 3
-12 10 8 1992.06 553.786 2
10 -12 -8 1984.46 535.906 2
-12 10 8 2410.24 560.814 1
-12 2 -8 1859.03 479.951 1
10 -12 -8 2450.93 529.488 1
10 2 8 2412.41 470.868 1
-12 2 -8 2195.1 393.139 4
10 -12 -11 2083.72 665.3 2
10 2 11 1703.64 402.302 1
10 -12 -11 2302.28 573.332 1
-12 10 11 1751.37 517.831 1
-12 2 -11 1367.42 405.508 4
2 10 -11 2433.65 633.702 3
2 10 -14 516.319 362.066 3
10 2 14 455.133 252.016 1
10 -12 -14 672.162 306.502 1
10 -12 -14 1256.79 485.992 2
-12 10 14 539.724 280.218 1
10 3 -14 96.0293 313.86 2
3 -13 -14 413.562 302.133 2
-13 3 14 437.672 381.526 1
3 10 14 435.327 151.853 1
3 10 14 211.919 135.027 1
-13 3 11 1011.66 368.132 1
3 -13 -11 899.043 315.203 2
10 3 -11 1354.57 685.893 2
3 -13 -8 14693.8 1057.55 2
10 3 -8 14599.7 1773.17 2
-13 3 8 15433.1 1604.97 1
10 3 -5 1748.76 578.216 2
-13 3 5 2961.18 680.331 2
10 -13 5 3105.88 416.97 4
3 10 5 2727.17 523.501 3
3 -13 -5 2187.87 298.745 1
-13 3 5 2908.83 625.736 1
3 10 5 2367.83 291.512 1
10 3 -5 1551.87 547.91 1
3 10 2 1448 480.036 4
10 3 -2 1688.54 489.728 1
-13 3 2 1455.58 431.873 1
3 -13 -2 1860.38 513.258 4
-13 10 -2 818.022 329.187 2
-13 3 2 2019.46 539.399 2
-13 10 -2 2026.14 509.231 1
3 10 2 1417.67 243.324 2
10 -13 2 1607.46 444.472 1
3 10 2 950.562 323.102 3
10 3 -2 2029.08 492.488 2
3 -13 1 1269.16 393.305 4
3 10 -1 645.809 265.628 3
-13 10 1 784.528 302.384 1
10 3 1 1007.34 304.785 2
-13 3 -1 1010.14 358.463 2
3 10 -1 704.357 321.397 4
10 -13 -1 445.556 214.288 1
-13 10 1 563.129 258.076 2
-13 3 -1 775.326 339.807 1
10 -13 -1 1082.3 358.964 2
10 3 1 1073.26 340.677 1
10 3 1 797.741 309.584 4
3 10 -4 3113.66 656.852 3
3 10 -4 3334.25 672.622 4
3 -13 4 3811.39 589.333 4
10 3 4 3101.87 606.682 4
10 -13 -4 3025.48 590.286 2
-13 10 4 3431.31 701.266 2
-13 3 -4 3292.1 591.946 2
-13 10 4 3907.88 690.19 1
-13 3 -4 3635.77 689.534 1
10 3 4 3521.24 561.348 1
10 -13 -4 3246.51 560.605 1
10 3 4 3653.64 561.402 2
10 3 7 535.834 223.417 1
-13 3 -7 341.059 168.504 4
-13 10 7 736.752 323.118 1
10 -13 -7 578.811 299.545 2
3 10 -7 745.512 342.926 3
-13 3 -7 718.047 269.765 2
-13 10 7 454.378 284.376 2
10 -13 -7 499.831 234.241 1
-13 3 -7 872.691 408.306 1
-13 3 -10 1933.74 425.194 4
10 3 10 1360.83 381.082 1
-13 10 10 1516.54 498.476 1
10 -13 -10 1783.84 438.323 1
10 -13 -10 1568.07 546.424 2
3 10 -10 1996.01 561.734 3
10 -13 -13 288.469 130.403 1
-13 10 13 -20.8481 214.831 1
10 -13 -13 324.332 206.281 2
-13 3 -13 87.0046 178.558 4
3 10 -13 138.551 153.052 3
10 3 13 189.419 135.241 1
3 10 -16 1619.77 591.014 3
10 -13 -16 1079.37 615.662 2
10 -13 -16 826.402 477.283 1
10 3 16 784.104 301.459 1
-13 10 16 1070.13 466.038 1
4 10 15 685.945 207.339 1
4 10 15 228.228 126.727 1
4 -14 -15 -62.7902 299.709 2
-14 4 15 848.239 400.259 1
10 4 -15 262.865 431.673 2
10 4 -12 1195.72 636.078 2
4 -14 -12 1085.85 348.996 2
-14 4 12 1031.38 461.675 1
4 10 12 388.007 110.78 1
10 4 -9 258.073 317.545 2
4 -14 -9 391.952 122.584 2
-14 4 9 381.607 181.741 1
10 4 -6 2138.98 660.301 2
-14 4 6 2499.32 731.124 2
4 -14 -6 1292.58 261.855 1
10 -14 6 1441.77 326.471 4
4 -14 -6 1468.39 324.279 2
-14 4 6 2454.64 649.588 1
4 10 6 2183.96 298.176 1
10 4 -6 1619.44 661.23 1
10 4 -3 656.89 367.291 1
4 10 3 592.619 376.025 4
4 10 3 266.15 193.789 3
-14 4 3 405.651 282.334 1
4 10 3 523.211 191.694 1
10 4 -3 593.395 314.023 2
4 10 3 517.542 136.42 2
-14 4 3 567.721 285.233 2
10 -14 3 658.568 245.959 4
10 -14 3 341.029 267.5 1
-14 10 -3 1073.92 366.475 1
-14 10 -3 1299.37 469.202 2
4 10 0 1538.72 369.271 1
10 -14 0 2169.83 475.816 1
4 10 0 2115.43 535.288 3
-14 4 0 1968.73 494.858 2
4 10 0 1879.18 556.392 4
10 4 0 1691.4 463.343 2
4 -14 0 3279.97 678.04 4
-14 10 0 2303.33 520.299 1
10 4 0 2351.92 564.787 1
-14 10 0 1824.5 539.98 2
4 10 0 1561.97 320.867 2
10 4 0 1754.6 496.225 4
-14 4 0 1244.08 449.922 1
4 10 -3 1387.51 415.925 3
10 4 3 1745.17 488.636 4
4 -14 3 1627.82 411.879 4
10 4 3 1683.91 374.063 2
-14 4 -3 1158.76 374.941 2
-14 10 3 1260.68 455.642 2
-14 10 3 1482.68 436.556 1
4 10 -3 1955.8 576.659 4
10 4 3 1442.82 356.672 1
-14 4 -3 1087.3 359.728 1
10 -14 -3 1354.23 402.054 2
10 -14 -3 1711.33 428.501 1
-14 10 6 2241.64 559.739 1
10 4 6 2718.29 515.65 1
10 -14 -6 2527.13 502.987 1
-14 10 6 3469.27 793.935 2
-14 4 -6 1875.15 439.262 2
-14 4 -6 2550.92 571.966 1
10 -14 -6 2684.27 575.077 2
4 10 -6 2766.74 649.493 3
4 10 -6 2146.53 621.936 4
10 4 6 2669.24 611.023 4
10 4 9 918.985 267.6 1
10 -14 -9 930.299 409.453 2
10 -14 -9 1093.62 390.031 1
-14 4 -9 554.057 162.473 4
4 10 -9 746.512 342.189 3
-14 10 9 864.696 338.572 1
10 -14 -12 741.4 315.991 1
-14 10 12 541.7 232.793 1
-14 4 -12 517.207 230.763 4
10 -14 -12 607.656 322.994 2
10 4 12 472.155 234.728 1
4 10 -12 788.167 333.618 3
10 -14 -15 616.122 381.43 1
10 4 15 219.525 177.556 1
10 -14 -15 570.899 415.538 2
-14 4 -15 -34.0829 226.622 4
-14 10 15 146.98 220.6 1
4 10 -15 -175.616 251.824 3
5 -15 -13 433.597 249.209 2
5 10 13 417.725 117.402 1
-15 5 13 1284.17 565.84 1
10 5 -13 421.463 443.586 2
5 -15 -10 225.207 88.3532 1
-15 5 10 5.49788 295.273 1
10 5 -10 -247.934 414.304 2
5 -15 -10 364.548 239.261 2
5 10 10 436.833 137.449 1
5 -15 -7 1701.86 290.51 1
10 5 -7 2412.89 733.953 2
5 10 7 2401.9 333.884 1
5 -15 -7 1955.85 420.063 2
-15 5 7 2824.64 688.634 1
5 10 4 5172.85 581.634 1
-15 5 4 5872.66 997.086 2
10 5 -4 7873.91 1177.48 1
-15 5 4 5119.01 884.928 1
10 -15 4 3590.51 522.654 4
10 5 -4 8804.55 1215.28 2
5 -15 -4 3917.38 494.369 1
-15 10 -4 3386.32 713.459 2
5 10 4 3999.78 872.596 4
-15 10 -4 4111.25 727.357 1
5 10 1 1034.79 538.557 4
-15 5 1 2705.47 614.491 2
5 -15 -1 1670.29 501.18 4
-15 5 1 1876.85 519.06 1
5 10 1 1021.78 246.807 2
10 5 -1 1510.94 480.611 2
10 5 -1 1725.58 491.029 1
-15 10 -1 1913.09 514.482 2
-15 10 -1 1776.16 497.772 1
10 -15 1 1850.13 460.824 1
10 5 -1 1804.72 594.318 4
5 10 1 1015.45 405.499 3
5 10 1 1553.31 373.021 1
5 10 -2 1517.98 422.942 1
10 -15 -2 1425.2 367.239 1
-15 5 -2 1732.2 449.44 1
5 10 -2 1721.89 478.129 3
5 10 -2 1175.08 337.896 2
-15 5 -2 743.851 279.12 2
10 5 2 1205.34 338.703 2
5 10 -2 1532.42 575.295 4
5 -15 2 1217.32 383.488 4
-15 10 2 1315.04 367.257 2
10 5 2 1221.31 474.757 4
10 5 2 1415.16 356.289 1
-15 10 2 837.972 290.263 1
10 -15 -2 1032.8 303.143 2
10 -15 -5 87.9464 143.571 2
5 10 -5 620.63 340.456 3
-15 10 5 525.164 387.168 2
10 5 5 561.834 222.094 2
10 5 5 54.9384 159.779 4
-15 10 5 76.8256 164.173 1
10 5 5 832.629 331.962 1
5 -15 5 98.3787 185.976 4
10 -15 -5 358.27 232.429 1
-15 5 -5 -22.5517 125.309 2
-15 5 -5 149.486 182.853 1
5 10 -5 128.894 226.33 4
-15 10 8 892.631 394.853 1
5 10 -8 982.047 388.36 3
-15 5 -8 533.284 281.329 1
-15 5 -8 739.126 386.761 2
10 -15 -8 509.1 251.572 2
10 5 8 639.394 239.282 1
10 -15 -8 515.326 257.057 1
-15 10 11 956.934 427.05 1
-15 5 -11 395.958 184.7 4
10 -15 -11 838.59 351.742 1
10 -15 -11 1378.71 555.559 2
10 5 11 826.811 320.661 1
5 10 -11 1232.9 554.82 3
10 5 14 586.57 245.673 1
10 -15 -14 -130.027 344.698 2
5 10 -14 835.38 421.671 3
-15 10 14 598.697 267.132 1
-15 5 -14 529.358 253.224 4
10 -15 -14 1042.96 406.431 1
10 6 -14 598.787 499.377 2
6 10 14 313.44 104.137 1
6 -16 -14 441.111 227.093 2
-16 6 14 625.266 419.124 1
10 6 -11 1393.25 648.222 2
6 -16 -11 1533.07 450.03 2
6 -16 -11 1020.96 236.584 1
6 10 11 948.343 204.437 1
-16 6 11 1392.43 541.081 1
-16 6 8 1635.24 547.661 1
10 6 -8 1969.67 632.692 2
6 -16 -8 1531.92 417.386 2
6 10 8 1592.47 274.837 1
6 -16 -8 1753.9 322.616 1
10 6 -5 1402.23 553.805 2
-16 6 5 1608.68 565.922 1
6 -16 -5 1255.57 317.798 1
-16 10 -5 1159.56 529.058 2
10 6 -5 1097.37 510.064 1
10 -16 5 1233.32 348.983 4
6 10 5 1136 574.787 4
-16 10 -5 763.999 336.05 1
6 10 5 744.534 255.08 1
6 10 2 4861.11 564.402 2
-16 6 2 6462.59 1015.01 2
10 -16 2 3722.3 608.851 4
10 6 -2 5285.52 889.914 2
6 10 2 4512.08 941.873 4
6 -16 -2 5301.82 908.995 4
-16 6 2 6429.75 994.741 1
10 -16 2 4477.33 725.453 1
-16 10 -2 5169.86 859.636 1
-16 10 -2 4601.94 812.972 2
10 6 -2 5262.5 1015.62 4
6 10 2 5030.29 696.318 1
10 6 -2 5271.75 929.281 1
6 10 -1 11574.9 1081.9 2
10 6 1 11738.4 1077.53 2
-16 10 1 11282.4 1311.22 2
-16 6 -1 11440.6 1278.39 2
6 10 -1 10370.4 1224.03 3
-16 10 1 11656.8 1295.43 1
-16 6 -1 11084.6 1283.71 1
10 6 1 13006.7 1518.96 4
6 10 -1 11867 1527.89 4
6 10 -1 10776.7 1127.25 1
10 -16 -1 10503.6 1044.38 1
6 -16 1 10918.6 1176.39 4
10 6 1 12737.9 1262.86 1
-16 6 -4 1640.56 512.275 2
10 -16 -4 1402.95 384.557 1
6 10 -4 1250.2 434.1 3
6 10 -4 1376.62 477.652 2
6 10 -4 729.858 367.085 1
-16 10 4 1770.16 546.149 1
-16 10 4 1506.71 480.685 2
6 -16 4 1530.3 398.076 4
10 6 4 1817.56 395.92 2
6 10 -4 1050.84 474.382 4
10 -16 -4 1017.81 376.677 2
10 6 4 1404.63 562.351 4
10 6 4 1339.08 391.656 1
-16 6 -4 1359.86 487.295 1
6 10 -7 1203.56 458.585 3
10 -16 -7 1627.48 445.661 1
-16 10 7 1544.83 528.028 1
10 6 7 995.11 323.996 1
-16 6 -7 1161.64 439.068 2
-16 6 -7 1195.39 427.73 1
10 -16 -7 1415.43 423.551 2
-16 10 10 1747.69 594.344 1
10 -16 -10 1212.13 401.267 1
10 6 10 1485.21 422.151 1
10 -16 -10 1894.54 577.367 2
6 10 -10 2326.65 763.907 3
6 10 -13 28.4985 304.567 3
10 -16 -13 672.018 401.085 2
-16 6 -13 576.429 216.648 4
10 6 13 383.428 169.382 1
-16 10 13 577.15 340.65 1
10 -16 -13 1021.9 363.169 1
10 7 -15 584.726 424.42 2
7 -17 -15 294.71 231.864 2
7 10 15 240.677 131.306 1
-17 7 15 334.778 376.758 1
10 7 -12 446.314 375.654 2
7 -17 -12 333.49 189.071 1
7 -17 -12 500.692 319.861 2
-17 7 12 396.565 363.583 1
7 10 12 502.611 163.697 1
-17 7 9 1153.82 468.229 1
10 7 -9 1531.58 675.538 2
7 -17 -9 1089.24 260.401 1
7 10 9 883.522 228.956 1
7 -17 -9 1445.02 426.966 2
10 -17 6 623.504 226.671 4
-17 7 6 297.955 220.668 1
7 -17 -6 417.541 193.053 2
7 -17 -6 845.861 254.006 1
7 10 6 506.216 224.082 1
-17 10 -6 375.873 225.28 1
10 7 -6 699.602 397.916 2
7 -17 -3 2564.39 477.278 1
-17 10 -3 1278.36 458.489 2
7 10 3 2132.37 458.978 1
10 7 -3 3818.71 823.893 1
10 7 -3 4056.97 806.854 2
7 10 3 2585.31 813.52 4
-17 10 -3 1967.28 588.038 1
7 10 3 2663.96 409.843 2
-17 7 3 3135.24 767.583 1
10 -17 3 2050.1 475.699 4
10 7 0 7255.19 1243.43 4
10 -17 0 5140.79 756.432 1
7 10 0 6598.05 812.483 2
-17 10 0 5608.25 918.604 2
7 -17 0 4928.32 807.591 4
7 10 0 6686.43 1220.4 4
7 10 0 6893.25 925.03 1
-17 7 0 5620.44 949.315 2
-17 10 0 5857.28 917.529 1
-17 7 0 5378.89 886.198 1
10 7 0 7494.74 1013.15 1
10 7 0 7228.37 921.296 2
-17 7 -3 808.335 386.433 2
10 7 3 656.848 272.998 1
7 10 -3 786.384 309.121 2
-17 7 -3 167.551 190.944 1
10 -17 -3 593.819 232.148 1
7 10 -3 1126.36 460.225 1
10 7 3 833.29 254.657 2
10 7 3 578.501 272.388 4
-17 10 3 1068.47 389.769 1
7 -17 3 1051.16 350.357 4
7 10 -6 1929.84 541.131 3
7 10 -6 2370.36 688.567 2
10 7 6 1963.34 587.522 4
-17 7 -6 1445.21 474.019 1
-17 10 6 1735.47 519.019 1
10 -17 -6 1654.07 438.951 1
7 -17 6 1480.46 387.932 4
10 7 6 1838.19 430.364 1
10 -17 -6 2091.24 544.463 2
-17 7 -6 1066.34 384.259 2
10 -17 -9 3473.3 773.772 2
-17 10 9 3356.99 771.54 1
7 10 -9 3882.62 873.569 3
10 7 9 3518.41 547.379 1
7 10 -9 4227.34 1005.76 2
10 -17 -9 3338.57 603.939 1
-17 10 12 481.876 334.751 1
7 10 -12 390.507 318.656 2
10 7 12 -307.284 228.024 1
10 -17 -12 77.4484 136.221 1
10 -17 -12 357.38 334.252 2
10 -17 -15 404.703 226.668 1
-17 10 15 394.913 278.789 1
-17 7 -15 126.325 120.394 4
10 -17 -15 486.604 438.87 2
10 7 15 210.27 159.018 1
7 10 -15 -109.625 316.415 2
8 -18 -13 267.726 165.479 1
10 8 -13 717.492 518.69 2
8 10 13 326.732 138.498 1
-18 8 13 632.555 409.896 1
8 -18 -13 223.703 264.92 2
-18 8 10 64.7716 188.612 1
10 8 -10 200.697 297.596 2
8 -18 -10 689.455 362.72 2
8 -18 -10 592.991 226.292 1
8 10 10 336.149 161.115 1
-18 8 7 1786.02 635.286 1
10 8 -7 1961.72 697.953 2
8 10 7 1461.11 347.214 1
8 -18 -7 1403.32 350.897 1
8 -18 -7 1591.48 464.901 2
-18 10 -7 1437.13 568.018 1
10 -18 7 1161.93 348.539 4
10 8 -4 808 191.313 2
8 10 4 875.705 304.854 1
-18 10 -4 49.4116 291.931 1
-18 8 4 888.85 418.646 1
8 10 4 807.24 206.286 2
8 -18 -4 181.987 154.145 1
10 -18 4 1072.12 370.764 4
8 10 1 884.717 316.394 2
10 8 -1 1255.52 435.163 1
8 10 1 1127.5 382.583 1
10 8 -1 1352.95 412.954 2
8 -18 -1 1124.55 385.952 1
10 -18 1 1247.12 416.985 4
8 -18 -1 1165.6 420.04 4
-18 8 1 1457.18 525.524 1
10 -18 1 1191.81 375.385 1
-18 10 -1 990.431 390.321 1
-18 8 -2 1290.48 446.229 1
10 8 2 1880.23 427.772 2
8 10 -2 1790.98 528.74 1
-18 8 -2 1474.12 459.514 2
10 -18 -2 1629.2 428.278 1
8 -18 2 1464.21 465.027 4
-18 10 2 1959.86 568.845 1
8 10 -2 1536.17 497.494 2
10 8 2 1689.43 419.691 1
10 8 2 1968.76 633.484 4
-18 10 5 854.437 409.73 1
10 8 5 442.069 203.371 1
10 8 5 29.5556 196.158 4
8 -18 5 1008.09 366.997 4
8 10 -5 764.684 377.152 2
10 8 5 137.991 151.45 2
10 -18 -5 651.035 279.565 2
10 -18 -5 417.514 261.493 1
-18 8 -5 685.501 361.808 1
8 10 -8 1312.91 564.551 2
10 -18 -8 1450.63 395.705 1
-18 8 -8 1534.48 535.744 1
10 8 8 1776.32 405.625 1
10 -18 -8 2035.71 561.565 2
-18 10 8 1091.42 488.925 1
10 -18 -11 640.233 245.382 1
10 -18 -11 361.44 280.169 2
10 8 11 325.884 162.234 1
-18 10 11 13.5808 269.748 1
8 10 -11 -327.487 359.841 2
8 10 -14 373.877 548.728 2
10 -18 -14 -203.183 274.299 1
10 -18 -14 -107.564 327.565 2
-18 10 14 -80.4585 243.58 1
10 8 14 415.939 191.559 1
9 -19 -14 -4.64543 141.476 1
9 10 14 220.343 164.128 1
10 9 -14 -203.221 415.429 2
9 -19 -14 349.588 354.557 2
-19 9 14 -29.2088 171.997 1
-19 9 11 872.292 514.056 1
10 9 -11 1123.74 696.458 2
9 -19 -11 817.653 418.411 2
9 -19 -11 524.523 221.003 1
9 10 11 630.622 220.559 1
10 9 -8 1573.21 657.512 2
-19 9 8 2421.11 683.533 1
9 -19 -8 1830.89 412.994 1
9 10 8 2251 453.772 1
9 -19 -8 2148.46 588.251 2
-19 10 -8 1272.91 465.009 1
10 -19 5 477.27 255.088 4
9 -19 -5 1050.33 322.421 1
10 9 -5 375.386 188.619 2
-19 9 5 297.405 274.727 1
-19 10 -5 464.504 182.527 1
9 10 5 313.073 217.923 1
9 10 5 538.011 190.32 2
10 -19 2 404.908 224.945 4
9 10 2 576.575 330.52 1
9 10 2 825.11 231.082 2
-19 10 -2 885.724 386.67 1
10 9 -2 511.784 266.9 1
9 -19 -2 662.467 265.995 1
-19 9 2 822.862 398.165 1
10 9 -2 598.919 292.15 2
-19 10 1 2419.59 648.9 1
9 10 -1 2548.83 672.046 1
10 9 1 2316.63 610.713 1
9 10 -1 1731.53 478.48 2
-19 9 -1 2762.94 728.448 1
9 -19 1 2241.44 572.445 4
10 9 1 2293.35 517.117 2
10 -19 -1 2205.27 490.748 1
9 10 -4 844.327 423.819 2
-19 9 -4 82.9141 229.418 1
10 9 4 683.785 212.319 2
10 9 4 462.974 287.33 1
10 -19 -4 223.543 150.661 1
-19 10 4 367.281 291.525 1
9 -19 4 33.0554 124.349 4
9 10 -7 667.8 411.708 2
-19 10 7 146.253 160.786 1
9 -19 7 112.572 113.962 4
-19 9 -7 650.934 383.385 1
10 9 7 69.8683 124.243 1
10 -19 -7 359.329 173.677 1
10 -19 -7 244.785 230.118 2
-19 10 10 417.177 291.682 1
10 -19 -10 39.5546 265.824 2
10 -19 -10 336.742 246.997 1
10 9 10 389.913 163.623 1
9 10 -10 308.924 481.862 2
10 9 13 597.846 219.168 1
9 10 -13 352.718 445.244 2
10 -19 -13 605.605 325.288 1
10 -19 -13 734.216 343.966 2
-19 10 13 -106.414 362.853 1
10 -20 0 759.191 341.523 1
-20 10 0 598.75 341.482 1
10 10 0 1110.68 420.549 1
10 10 0 1341.24 375.521 2
10 -20 0 845.181 336.455 4
-20 10 3 1901.57 612.674 1
10 10 -3 962.207 452.195 2
10 10 3 1532.63 482.959 1
10 -20 3 1100.21 366.456 4
10 10 3 1048.21 288.355 2
-20 10 -3 1448 494.095 1
10 -20 -3 814.193 326.655 1
10 10 -6 3219.84 878.175 2
-20 10 -6 2220.7 687.887 1
-20 10 6 2928.07 788.958 1
10 -20 -6 2417.3 603.861 2
10 -20 6 1859.5 472.921 4
10 -20 -6 2366.19 549.496 1
10 10 6 2444.74 520.889 1
10 10 -9 282.601 212.444 2
-20 10 9 432.894 310.307 1
10 10 9 666.28 259.326 1
10 -20 -9 906.072 343.684 1
10 -20 -9 869.641 440.127 2
-20 10 -9 366.716 341.708 1
-20 10 12 842.046 479.478 1
10 10 -12 423.89 287.929 2
10 -20 -12 789.272 296.499 1
10 -20 -12 773.232 420.476 2
10 10 12 649.245 241.99 1
-6 -5 17 -251.077 228.437 1
11 -5 -17 -156.127 270.519 2
-5 11 17 203.413 247.598 1
-5 -6 -17 99.8989 167.875 3
11 -5 -14 -50.0738 314.373 2
-6 -5 14 734.177 314.039 1
-5 -6 -14 131.211 105.934 3
-5 11 14 726.97 256.201 1
-5 11 14 598.501 172.657 3
-6 -5 14 175.451 79.5732 3
-5 -6 -11 714.697 237.383 3
-5 11 11 415.159 159.144 3
11 -5 -11 339.165 312.415 2
-6 -5 11 600.214 316.162 1
11 -6 11 486.6 261.335 1
-5 11 11 534.719 154.458 1
-6 -5 11 471.131 80.0874 3
11 -5 -11 388.255 284.655 1
-5 11 8 11010.9 1014.18 2
-6 11 -8 10896.8 1037.98 4
-6 -5 8 11814.3 1009.86 3
11 -6 8 9937.12 1017.62 1
-5 11 8 10385.2 899.76 3
11 -5 -8 13814.9 1648.88 2
-5 -6 -8 12492.5 1153.74 3
11 -5 -8 10974.2 1346.65 1
-6 -5 8 10631.5 1151.97 1
-5 11 8 10327.3 712.497 1
-6 -5 5 2852.46 498.858 3
-5 -6 -5 3359.9 559.986 3
-6 -5 5 2603.58 485.456 1
-5 -6 -5 3006.08 363.323 1
11 -5 -5 3174.73 674.732 2
-5 11 5 2943.08 475.94 3
-6 11 -5 2384.96 424.973 4
-5 -6 -5 2443.06 494.551 4
-5 11 5 2531.2 308.61 1
11 -5 -5 2545.39 593.967 1
11 -6 5 2471.56 474.346 1
-5 11 5 2239.51 396.708 2
11 -6 2 3960.19 608.777 1
11 -5 -2 3945.33 689.058 1
-5 -6 -2 3033.32 478.559 1
-6 -5 2 3413.89 646.977 3
-5 -6 -2 3013.09 371.452 2
11 -5 -2 4177.04 725.457 2
-5 -6 -2 4349.97 701.969 4
-5 11 2 3843.27 510.97 2
-5 -6 -2 3128.51 630.909 3
11 -6 2 3894.32 636.052 2
-6 -5 2 4237.02 754.771 1
11 -5 1 6087.88 796.62 2
-6 -5 -1 6496.8 612.772 2
11 -6 -1 6802.7 814.114 1
11 -6 -1 6714.74 853.851 2
11 -5 1 6099.91 753.157 1
-6 11 1 5850.44 637.76 2
-6 -5 -1 6483.56 750.987 4
-6 -5 -1 7098.81 741.677 1
-6 -5 -1 6654.07 830.517 3
-5 -6 1 6503.02 757.393 3
-5 -6 1 7154.74 802.98 1
-6 -5 -4 11591.2 1112.04 4
11 -6 -4 10745.4 1238.71 2
-6 -5 -4 11579.7 714.798 2
-6 -5 -4 11320.8 859.49 1
11 -6 -4 10592.6 1143.84 1
11 -5 4 10654.3 633.75 4
-5 11 -4 11372.5 1031.15 4
-5 -6 4 12190.3 1056.76 3
-6 11 4 10139.7 720.9 1
11 -5 4 12771 1100.55 1
-6 11 4 10752.9 934.848 2
-5 -6 4 13320.6 1162.77 1
-6 -5 -7 322.236 122.869 1
-6 -5 -7 356.842 245.616 4
-5 -6 7 493.22 222.374 3
-5 -6 7 313.819 160.702 1
-6 11 7 376.018 222.305 2
11 -5 7 690.422 278.674 1
11 -6 -7 537.956 279.912 2
-5 11 -7 395.873 158.797 4
11 -6 -7 379.163 129.519 1
-6 11 7 584.434 190.478 1
-6 11 10 1890.86 336.456 1
-5 -6 10 2008.88 490.244 1
-6 11 10 2722.15 561.105 2
11 -6 -10 2684.47 605.599 2
11 -5 10 1279.4 357.334 1
11 -6 -10 3357.27 779.246 1
-5 -6 10 1867.15 357.997 3
-6 11 10 2442.78 406.382 3
-5 -6 13 1040.32 333.38 1
11 -6 -13 2279.47 805.63 2
-6 11 13 1263.72 350.011 1
-6 11 13 1493.72 293.133 3
-5 -6 13 865.115 268.776 3
-6 -5 -16 384.933 227.657 3
-5 -6 16 582.87 457.454 1
-6 11 16 547.551 231.676 1
-5 11 -16 506.264 316.762 3
-4 -7 -15 462.807 187.075 3
-7 -4 15 441.729 228.944 3
-7 -4 15 165.181 204.566 1
-4 11 15 584.429 195.459 1
11 -4 -15 -258.596 498.989 2
-4 11 12 1309.04 290.836 1
-4 11 12 1300.19 300.777 3
-7 -4 12 889.28 307.536 1
-7 -4 12 999.709 253.558 3
11 -4 -12 2330.91 845.783 2
-4 -7 -12 1278.55 375.237 3
-4 11 9 5054.79 454.526 1
-4 -7 -9 5854.6 772.407 3
-4 11 9 6248.98 731.673 2
11 -4 -9 8632.73 1335.28 2
11 -7 9 3861 613.412 1
-4 11 9 5729.49 653.292 3
-7 -4 9 5552.66 681.45 3
-7 11 -9 5419.71 691.085 4
-7 -4 9 5930.33 887.371 1
11 -4 -9 9293.55 1294.06 1
11 -4 -6 2490.68 621.725 2
11 -7 6 2745.3 517.535 1
-4 11 6 2505.31 417.398 2
-7 -4 6 2807.67 565.654 1
11 -4 -6 3720.51 736.819 1
-4 -7 -6 2626.06 495.897 3
-4 11 6 2757.59 487.86 3
-7 -4 6 3191.62 537.023 3
-4 -7 -6 2468.77 278.556 1
-4 11 6 2625.19 290.144 1
-7 11 -6 2495.18 428.064 4
-4 -7 -6 3068.78 653.322 4
11 -7 3 2919.33 501.137 1
-4 -7 -3 2229.52 464.511 3
-4 11 3 2180.2 346.997 2
-7 -4 3 2281.72 479.246 1
11 -4 -3 3123.91 677.407 2
-7 -4 3 2454.02 505.58 2
-4 11 3 2017.43 420.648 3
-4 -7 -3 2079.91 488.456 4
-4 -7 -3 2310.27 359.689 1
11 -4 -3 2664.67 594.006 1
-7 -4 3 2222.1 432.764 3
-7 11 0 4164.73 592.277 2
11 -7 0 5890.4 778.687 2
-7 -4 0 4378.44 655.925 1
11 -7 0 4848.13 683.874 1
11 -4 0 5712.25 785.767 1
-4 -7 0 5093.75 676.993 4
-7 -4 0 4613.67 589.457 2
-4 -7 0 3810.03 612.807 3
-4 -7 0 4140.98 577.458 1
11 -4 0 4909.36 720.831 2
-7 -4 -3 460.26 217.353 1
11 -7 -3 284.563 192.903 1
11 -4 3 528.309 267.113 2
-7 11 3 395.421 178.664 2
-7 -4 -3 400.22 166.038 2
-4 -7 3 657.403 292.626 1
-7 11 3 463.571 155.081 1
11 -7 -3 436.462 250.705 2
-7 -4 -3 534.398 224.086 4
-4 11 -3 304.463 162.61 4
11 -4 3 683.833 307.522 1
-4 -7 3 652.164 283.178 3
-7 -4 -6 1003.78 248.206 1
-4 -7 6 1232.83 338.759 1
11 -7 -6 922.953 392.461 2
-7 -4 -6 1053.53 301.069 4
-7 11 6 1320.63 372.91 2
11 -7 -6 1786.29 499.153 1
-4 11 -6 1249.27 350.709 4
-7 11 6 1678.64 337.557 1
-4 -7 6 1626.88 370.62 3
-7 -4 -6 1292.17 251.45 2
11 -4 6 1162.19 341.842 1
-7 11 9 7742.22 737.232 1
11 -7 -9 10534.8 1433.03 2
11 -7 -9 10192.5 1297.61 1
-4 -7 9 8626.48 846.097 3
-7 11 9 8834.03 1015.13 2
-7 -4 -9 8506.74 1099.73 4
-4 -7 9 8436.89 1059.29 1
11 -4 9 8226.58 898.435 1
11 -4 12 181.048 99.1286 1
-4 -7 12 328.568 246.105 1
11 -7 -12 342.023 238.129 1
11 -7 -12 710.238 505.936 2
-4 -7 12 78.9184 95.6487 3
-4 11 -12 405.791 354.152 3
-7 11 12 297.387 245.423 1
-7 11 12 268.185 133.078 3
-4 -7 15 746.254 422.52 1
11 -7 -15 852.522 466.904 2
-7 11 15 419.009 133.651 3
-7 11 15 715.723 326.143 1
-4 11 -15 1061.59 443.823 3
-3 -8 -16 50.1448 113.401 3
11 -3 -16 -512.958 537.759 2
-8 -3 16 104.526 320.19 1
-3 11 16 -21.0848 160.925 1
-8 -3 16 -126.418 156.045 3
-3 -8 -13 101.042 130.368 3
11 -3 -13 20.5583 290.658 2
-8 -3 13 434.121 221.756 1
-3 11 13 226.8 104.51 1
-8 -3 13 71.3915 73.515 3
-3 11 10 2991.67 318.525 1
11 -3 -10 4324.96 929.894 2
-8 -3 10 3399.13 655.856 1
-3 -8 -10 3407.67 554.611 3
-8 -3 10 3085.14 496.143 3
-3 11 10 3722.62 523.49 3
11 -3 -10 4234.88 893.752 1
-3 -8 -7 640.994 209.081 3
-3 11 7 581.968 174.481 3
11 -8 7 553.933 265.58 1
-8 -3 7 571.009 180.08 3
11 -3 -7 1122.54 448.121 2
-8 11 -7 440.944 158.701 4
11 -3 -7 1139.17 426.443 1
-8 -3 7 833.75 327.582 1
-3 11 7 649.368 239.206 2
-3 -8 -4 3144.04 545.28 3
-8 -3 4 2980.47 593.945 2
-3 11 4 3590.63 536.628 3
11 -3 -4 3479.56 730.443 2
-8 -3 4 3072.54 584.58 1
11 -8 4 3908.62 606.077 1
-3 -8 -4 3186.48 358.507 1
-3 -8 -4 2926.5 625.625 4
11 -3 -4 3892.08 751.781 1
-3 11 4 3565.13 418.5 2
11 -3 -1 5340.87 755.187 1
11 -3 -1 5503.89 788.787 2
-8 -3 1 6212.34 763.992 2
11 -8 1 4895.28 659.946 1
11 -8 1 5731.53 782.073 2
-3 -8 -1 5492.6 609.995 1
-3 -8 -1 5335.61 725.698 4
-3 11 1 5509.92 712.296 3
-3 -8 -1 5767.29 762.59 3
-8 11 -1 5190.39 743.369 2
-8 -3 1 5773.49 782.819 1
11 -3 2 9228.91 966.253 2
-8 -3 -2 9388.19 794.282 2
-8 -3 -2 8969.22 845 4
11 -8 -2 9926.4 1029.29 1
-8 11 2 8655.73 926.042 2
11 -3 2 10381.2 1037.62 1
-3 -8 2 9487.99 927.333 4
11 -8 -2 9348.22 1084.88 2
-8 11 2 8977.28 795.255 1
-3 -8 2 8728.2 867.115 1
-8 -3 -2 8718.11 854.073 1
-3 -8 2 9071.85 895.654 3
-3 11 -2 7809.47 938.292 4
-3 11 -2 8128.14 951.486 3
-8 11 5 7002.51 833.213 2
-8 -3 -5 7621.56 669.549 2
-3 11 -5 6995.01 882.742 4
11 -8 -5 7661.42 958.179 1
-8 11 5 7188.47 711.825 1
11 -3 5 6889.03 798.435 1
-8 -3 -5 7976.7 781.948 1
-8 -3 -5 7294.1 815.972 4
-3 -8 5 7449.61 865.03 1
-3 11 -5 8604.58 930.161 3
-3 -8 5 8119.15 815.048 3
11 -3 5 7245.25 613.057 4
11 -8 -5 7730.2 1026.92 2
-3 11 -8 3300.74 690.562 4
-3 11 -8 3048.77 649.861 3
11 -3 8 2454.68 468.93 1
-3 -8 8 2755.62 630.235 1
-3 -8 8 2783.74 519.238 3
-8 11 8 3083.87 667.351 2
-8 11 8 2633.89 463.457 1
11 -8 -8 3619.67 863.138 2
-8 -3 -8 2609.13 575.024 4
11 -8 -8 3059.82 723.338 1
-3 -8 11 2124.99 554.034 1
-8 11 11 1946.78 556.154 2
11 -3 11 1421.13 394.231 1
-8 11 11 1612.2 388.117 1
-3 11 -11 3024.71 683.991 3
11 -8 -11 2283.69 673.521 1
11 -8 -11 1998.81 690.226 2
-3 -8 11 2321.94 445.887 3
-3 -8 14 393 241.11 1
-8 11 14 674.595 332.572 1
11 -8 -14 78.1995 461.038 2
-8 11 14 179.954 105.905 3
-3 11 -14 370.716 254.576 3
-3 -8 17 383.153 319.599 1
-3 11 -17 883.717 419.448 3
11 -8 -17 668.591 558.611 2
-8 11 17 244.926 149.957 1
-2 -9 -17 37.037 232.466 2
11 -2 -17 176.545 487.171 2
-9 -2 17 140.786 160.552 1
-2 11 17 151.737 158.144 1
-9 -2 17 13.2498 104.23 3
-2 -9 -17 129.765 150.822 3
-9 -2 14 608.895 432.147 1
-2 11 14 330.982 156.9 1
-9 -2 14 -6.37855 108.018 3
11 -2 -14 -194.854 374.022 2
-2 -9 -14 168.597 147.331 3
-2 -9 -14 -82.5965 185.646 2
-2 11 11 398.835 231.272 3
-9 -2 11 455.617 262.409 1
11 -2 -11 506.563 387.818 2
-2 -9 -11 288.198 179.464 3
-9 -2 11 309.968 122.653 3
-2 -9 -11 444.556 218.128 2
-2 11 11 263.188 107.146 1
-2 -9 -8 1163.13 216.003 2
-2 11 8 1258.23 344.449 3
-2 -9 -8 1156.58 353.27 3
11 -9 8 1087.69 354.776 1
11 -2 -8 717.102 288.707 1
-9 -2 8 1467.53 391.101 1
-9 -2 8 1615.39 369.577 3
-9 11 -8 654.763 193.023 4
11 -2 -8 467.47 260.04 2
11 -9 5 3938.99 602.251 1
-2 11 5 4093.23 417.614 2
-2 -9 -5 3117.96 651.659 4
-9 -2 5 4136.45 720.575 2
11 -2 -5 4519.71 865.913 2
-2 -9 -5 3663.82 568.909 3
11 -2 -5 4211.82 805.009 1
-2 11 5 3767.05 576.427 3
-9 -2 5 3890.69 720.437 1
-2 -9 -2 3979.98 660.599 4
-2 -9 -2 4522.68 641.463 3
11 -2 -2 3523.98 661.713 2
-9 -2 2 3477.41 615.707 1
-9 -2 2 3732.83 613.218 2
11 -2 -2 3483.44 658.065 1
-2 11 2 3544.51 580.951 3
-2 -9 -2 3569.45 427.057 1
11 -9 2 3400.33 557.49 1
-9 -2 -1 16187.6 1130.8 2
11 -2 1 14696.5 1210.77 2
-9 11 1 13559.4 1147.6 2
11 -9 -1 14387.2 1239.57 2
11 -9 -1 14006 1169.49 1
-9 11 1 12635.4 1002.2 1
-2 -9 1 12873.2 1042.54 4
-2 11 -1 13165.3 1267.06 4
-2 -9 1 13195.1 980.578 1
11 -2 1 14539.7 1203.98 1
-2 11 -1 13961.4 1191.82 3
-2 -9 1 14514.8 1133.18 3
-9 -2 -1 14718.9 1167.68 1
-2 -9 4 4549.79 629.489 1
-9 11 4 4844.7 709.956 2
11 -9 -4 5220.98 855.014 2
11 -2 4 4994.95 697.061 1
-9 -2 -4 4662.09 618.194 1
11 -2 4 5665.86 605.863 4
-2 11 -4 4573.88 710.756 4
-9 11 4 4627.42 599.167 1
-9 -2 -4 4190.37 541.308 4
11 -9 -4 5497.78 795.389 1
-2 11 -4 5068.09 722.835 3
-2 -9 4 4479.2 608.815 3
-9 -2 -4 4857.53 583.456 2
-9 -2 -7 2049 407.038 4
-9 11 7 2632.15 581.365 2
11 -2 7 2433.06 517.825 1
11 -9 -7 3131.8 732.637 2
-9 11 7 2132.48 425.429 1
-2 -9 7 2203.04 483.456 1
-9 -2 -7 1829.58 370.002 2
-9 -2 -7 2155.94 436.386 1
-2 11 -7 2249.93 543.668 4
-2 -9 7 2052.13 400.607 3
11 -9 -7 2823.25 644.164 1
-2 11 -7 3272.03 611.965 3
-2 -9 10 1854.6 478.07 1
-9 11 10 1995.69 416.674 1
-9 11 10 2314.69 592.998 2
-9 -2 -10 2219.06 512.421 4
11 -9 -10 2524.75 676.253 2
11 -9 -10 2173.64 578.595 1
11 -2 10 2247.74 484.633 1
-2 11 -10 3250.58 686.248 3
11 -9 -13 338.431 301.129 1
-2 11 -13 -130.118 177.659 3
-2 -9 13 63.2801 150.758 1
-9 11 13 -62.4698 196.093 1
11 -2 13 250.96 106.34 1
-9 11 13 -35.5358 103.048 3
11 -9 -13 -19.8586 217.078 2
-9 11 16 191.062 84.2311 3
-2 -9 16 -161.696 275.449 1
-9 11 16 440.624 279.863 1
11 -9 -16 -170.902 423.463 2
-2 11 -16 -23.7796 286.13 3
-1 -10 -15 357.022 259.112 2
11 -1 -15 479.736 447.216 2
-1 11 15 308.665 159.493 1
-10 -1 15 15.8678 237.588 1
-1 -10 -15 409.226 236.077 3
-10 -1 15 20.236 117.865 3
-1 -10 -12 68.8131 180.213 3
-10 -1 12 303.902 251.558 1
-1 -10 -12 169.934 181.401 2
-1 11 12 325.913 109.536 1
-10 -1 12 493.539 216.436 3
11 -1 -12 376.853 344.733 2
-10 -1 9 1213.14 439.644 1
-1 -10 -9 1924.76 335.345 2
-10 -1 9 1376.87 359.361 3
-10 11 -9 999.064 212.839 4
-1 11 9 1956.13 413.311 3
-1 -10 -9 1467.05 350.12 3
-1 11 6 897.861 262.666 3
11 -1 -6 1000.06 401.658 2
-1 11 6 1007.15 203.812 2
-10 -1 6 1105.84 430.993 2
-10 -1 6 785.843 236.42 1
11 -1 -6 680.378 330.616 1
11 -10 6 1248.33 344.946 1
-1 -10 -6 1095.69 321.057 3
-10 -1 3 5390.44 803.904 2
-1 -10 -3 4334.4 712.23 4
11 -1 -3 3464.48 665.748 2
-1 -10 -3 3798.08 600.576 3
-1 11 3 4195.78 389.493 2
-1 11 3 3965.8 635.625 3
-1 -10 -3 3899.08 396.64 1
11 -10 3 3700.3 594.652 1
11 -1 -3 3710.75 712.28 1
-10 -1 3 4893.89 784.539 1
-1 -10 0 1479.68 316.663 1
-10 11 0 441.11 204.56 1
-1 11 0 1026.99 313.711 4
-10 -1 0 1811.25 426.053 2
-10 11 0 1374.71 380.747 2
-1 -10 0 1365.1 339.318 3
11 -1 0 1061.03 342.285 2
-1 -10 0 696.407 237.774 4
-10 -1 0 986.082 316.742 1
11 -10 0 1267.41 352.744 2
11 -10 0 843.145 268.57 1
-1 11 0 697.229 220.481 3
11 -1 0 1135.92 355.148 1
-1 -10 3 540.855 266.257 1
-10 11 3 452.027 196.917 1
11 -1 3 404.284 237.109 1
11 -1 3 433.073 181.833 4
11 -10 -3 196.866 158.161 1
-10 -1 -3 503.843 151.242 2
-10 11 3 162.481 232.596 2
11 -10 -3 619.811 267.596 2
-1 11 -3 1021.51 342.388 4
-10 -1 -3 384.358 217.2 1
-1 11 -3 239.845 266.564 3
-1 -10 3 39.3734 159.994 4
-1 -10 3 1113.66 329.91 3
11 -1 3 220.567 139.933 2
-1 -10 6 867.821 312.38 1
-1 11 -6 728.733 256.929 3
11 -1 6 789.506 246.766 4
-10 11 6 1227.8 361.745 2
11 -1 6 593.682 218.08 1
11 -10 -6 916.735 365.865 2
-1 11 -6 786.692 319.253 4
-1 -10 6 981.866 264.14 3
-10 -1 -6 763.179 263.845 4
-10 -1 -6 1035.92 325.535 1
11 -10 -6 1092.53 343.189 1
-10 11 6 969.309 313.246 1
-10 -1 -6 974.76 279.215 2
11 -10 -9 993.586 438.355 2
-1 -10 9 487.001 310.056 1
-10 11 9 916.141 424.018 2
-10 -1 -9 522.538 156.486 4
11 -10 -9 1271.95 446.123 1
-1 11 -9 703.683 300.653 3
-10 11 9 702.442 220.245 1
11 -1 9 717.062 285.086 1
-1 11 -12 1107.57 330.212 3
-10 11 12 659.02 298.145 1
11 -1 12 959.813 311.538 1
11 -10 -12 -54.2882 401.161 2
11 -10 -12 831.653 364.629 1
-1 -10 12 245.626 304.118 1
11 -10 -15 -0.76851 299.935 2
-1 -10 15 -140.264 208.672 1
-1 11 -15 529.773 280.721 3
-10 11 15 149.202 106.25 3
-10 11 15 668.487 361.328 1
11 0 -16 -46.1767 311.199 2
0 11 16 56.1214 93.5581 1
-11 0 16 317.448 200.837 1
-11 0 16 116.562 95.7704 3
-11 0 13 404.476 183.836 3
0 -11 -13 29.3172 123.685 2
11 0 -13 3.6064 322.517 2
0 -11 -13 39.5255 217.346 3
-11 0 13 123.229 189.494 1
0 11 13 233.358 109.48 1
11 0 -10 362.464 380.686 2
0 -11 -10 -185.017 175.155 2
-11 0 10 -262.621 299.177 1
0 -11 -10 -82.1272 139.917 3
-11 11 -10 -53.6016 90.5307 4
-11 0 7 7312.4 1091.77 2
11 0 -7 7534.25 1208.25 2
0 11 7 7894.14 870.204 3
11 0 -7 8173.62 1231.22 1
0 -11 -7 6815.22 818.164 3
-11 0 7 8181.26 1111.72 1
0 -11 -4 2975.36 640.422 4
0 -11 -4 2612.99 512.176 3
11 -11 4 3933.75 632.97 1
-11 0 4 3749.05 761.358 2
11 0 -4 3398.3 810.751 1
11 0 -4 2772.15 694.227 2
0 11 4 2814.8 551.157 3
0 -11 -4 2689.76 303.487 1
-11 0 4 2918.27 660.43 1
-11 0 1 8440.04 1071.58 1
0 -11 -1 10103.9 1083.09 4
-11 11 -1 8117.47 954.529 1
-11 0 1 7762.39 1027.79 2
11 0 -1 6517.65 942.617 2
0 -11 -1 7602.33 909.091 3
-11 11 -1 8724.35 1021.03 2
11 -11 1 9024.1 957.996 1
11 0 -1 6269.28 912.979 1
0 11 1 6977.29 874.314 3
0 11 1 7145.17 1043.21 4
11 0 2 -44.272 242.396 1
0 11 -2 288.1 193.497 3
0 -11 2 556.019 259.614 4
11 -11 -2 86.9157 245.817 2
-11 0 -2 285.751 209.73 2
-11 0 -2 93.5696 212.341 1
-11 11 2 35.767 136.571 1
-11 11 2 79.7185 190.621 2
0 -11 2 12.5115 96.1336 3
0 11 -2 356.041 221.982 4
11 0 2 254.85 150.67 4
11 -11 -2 200.203 141.655 1
11 0 2 -112.198 184.488 2
11 -11 -5 -171.047 224.336 1
11 -11 -5 225.07 229.349 2
0 11 -5 -21.204 292.504 4
-11 11 5 210.212 141.944 2
-11 0 -5 337.452 245.489 2
11 0 5 476.916 262.163 4
-11 0 -5 268.137 156.068 4
11 0 5 58.8313 170.843 1
-11 0 -5 308.069 129.812 1
0 -11 5 183.693 119.271 3
-11 11 5 353.758 217.199 1
0 11 -5 128.262 197.939 3
11 0 8 2001.32 441.954 1
11 -11 -8 2156.03 565.013 1
-11 0 -8 1944.54 451.302 1
-11 11 8 2374.35 620.693 2
-11 11 8 1207.24 340.4 1
11 -11 -8 1516.95 562.214 2
-11 0 -8 1653.21 385.499 4
0 11 -8 1944.54 454.898 3
-11 11 11 1198.14 416.715 1
-11 0 -11 549.866 172.053 4
11 -11 -11 2264.57 705.558 2
11 0 11 698.711 304.024 1
11 -11 -11 1101.23 398.716 1
0 11 -11 1822.32 583.414 3
11 -11 -14 226.859 231.379 2
11 -11 -14 837.227 378.492 1
0 11 -14 270.151 186.55 3
0 -11 14 81.8259 131.897 1
11 0 14 42.8373 183.065 1
-11 11 14 837.113 359.774 1
11 1 -14 923.016 670.018 2
1 -12 -14 1095.48 349.982 2
1 11 14 462.507 138.163 1
-12 1 14 -9.66414 265.562 1
1 11 14 266.218 109.659 1
-12 1 14 412.755 233.997 3
-12 1 11 546.395 314.761 1
1 -12 -11 269.222 103.05 2
-12 11 -11 301.781 107.619 4
1 -12 -11 -3.72904 156.433 3
-12 1 8 7150.95 1097.96 1
11 1 -8 6599.3 1163.44 2
1 -12 -8 8030.61 657.071 2
1 11 8 7971.13 923.828 3
1 -12 -8 6531.86 832.198 3
1 11 5 2204.54 506.923 3
11 1 -5 1797.89 571.707 1
11 -12 5 1609.97 437.874 1
-12 1 5 2410.74 567.294 1
-12 1 5 2482.66 649.221 2
11 1 -5 2606.82 699.309 2
11 -12 5 1469.13 259.859 4
1 -12 -5 1435.57 374.916 3
1 11 2 1273.87 365.254 3
-12 1 2 1249.27 355.003 1
1 -12 -2 1967.76 514.456 4
11 -12 2 1509.67 404.549 1
1 -12 -2 1623.26 399.042 3
1 11 2 973.611 394.534 4
11 1 -2 1012.71 365.816 2
-12 11 -2 1802.2 439.769 1
-12 1 2 1600.75 509.438 2
-12 11 -2 1767.45 520.723 2
11 1 -2 908.225 373.516 1
11 -12 -1 3130.16 626.924 2
11 1 1 3990.87 667.872 1
-12 1 -1 4404.44 710.952 2
-12 1 -1 4231.96 720.481 1
11 -12 -1 3568.37 622.443 1
-12 11 1 3708.87 641.856 1
-12 11 1 3877.76 684.626 2
1 11 -1 4709.48 878.039 4
11 1 1 3586.18 618.904 2
1 -12 1 4230.84 703.992 4
11 1 1 4643.45 787.442 4
1 -12 1 4211.86 678.578 3
1 11 -1 3588.99 636.488 3
1 11 -4 2088.9 507.817 3
11 1 4 2251.07 490.937 4
-12 1 -4 2148.57 479.516 1
1 11 -4 3223.04 710.222 4
-12 11 4 2358.24 569.781 2
11 -12 -4 2434.84 558.697 2
11 1 4 2071.4 468.397 1
-12 1 -4 2344.14 491.14 2
11 -12 -4 1936.04 448.889 1
1 -12 4 2166.38 435.877 3
11 1 4 2517.48 462.834 2
1 -12 4 1614.65 369.041 4
-12 11 4 1867.35 458.138 1
11 1 7 253.335 192.781 1
-12 11 7 269.002 226.788 2
-12 11 7 635.298 314.129 1
-12 1 -7 954.588 422.274 1
11 -12 -7 480.728 391.113 2
-12 1 -7 639.959 241.405 4
1 11 -7 540.924 402.824 4
-12 1 -7 798.373 344.963 2
11 -12 -7 14.7426 123.758 1
1 11 -7 408.707 246.811 3
-12 11 10 377.14 240.291 1
11 1 10 411.644 157.166 1
11 -12 -10 862.041 418.081 1
-12 1 -10 495.261 223.009 4
11 -12 -10 461.065 263.286 2
1 11 -10 984.283 475.397 3
-12 11 10 86.4424 148.424 2
11 -12 -13 1036.12 442.393 1
11 -12 -13 485.489 381.091 2
1 11 -13 742.138 356.576 3
11 1 13 529.144 248.412 1
-12 1 -13 1068.92 439.366 4
-12 11 13 318.589 244.756 1
11 -12 -16 371.741 442.911 2
1 11 -16 1142.63 546.375 3
1 -12 16 824.208 443.208 1
-12 11 16 313.842 191.579 1
11 -12 -16 597.482 350.891 1
11 1 16 453.796 218.853 1
2 11 15 299.012 97.4197 1
11 2 -15 900.459 507.583 2
-13 2 15 369.555 196.482 3
2 -13 -15 15.9041 149.844 2
2 11 15 132.724 99.9325 1
-13 2 15 637.982 405.894 1
-13 2 12 249.282 222.944 1
11 2 -12 621.566 537.766 2
2 -13 -12 -145.208 242.588 2
11 2 -9 2480.68 756.385 2
2 -13 -9 2005.4 367.2 2
-13 2 9 2401.99 592.759 1
2 -13 -9 1863.23 402.389 3
-13 2 6 5210.68 951.525 2
11 2 -6 6088.8 1070.07 2
2 -13 -6 5550.79 486.267 2
11 -13 6 4674.2 449.93 4
2 11 6 5012.23 765.994 3
11 2 -6 5778.44 1061.56 1
-13 2 6 5022.39 881.591 1
2 -13 -6 4455.43 702.788 3
-13 11 -3 2511.61 552.672 1
-13 2 3 2392.24 617.815 2
11 2 -3 3029.71 700.808 2
2 -13 -3 2180.92 487.942 3
11 2 -3 3294.75 776.201 1
2 -13 -3 2022 564.176 4
11 -13 3 2937.91 578.706 1
-13 11 -3 2503.98 601.476 2
2 11 3 1649.25 523.508 4
-13 2 3 2200.28 589.087 1
2 11 3 2591.69 551.742 3
2 11 0 2812.03 611.624 3
-13 11 0 2621.11 647.787 2
11 -13 0 2497.3 538.504 1
-13 2 0 3175.58 695.05 2
11 2 0 3028.59 624.101 2
2 -13 0 5099.19 834.271 4
2 11 0 2553.24 589.955 4
11 2 0 2904.51 643.727 4
-13 2 0 3712.46 738.188 1
11 2 0 3147.78 633.194 1
2 -13 0 3750.03 689.376 3
-13 11 0 2814.7 616.584 1
11 2 3 2124.07 499.435 4
-13 11 3 1857.08 507.084 1
11 -13 -3 1736.9 425.895 1
11 2 3 2552.24 501.141 1
-13 11 3 1509.6 445.043 2
2 -13 3 1831.55 420.869 4
11 -13 -3 1903.43 467.959 2
-13 2 -3 1950.64 500.503 1
2 11 -3 1954.98 514.158 4
-13 2 -3 1789.49 396.431 2
2 11 -3 2284.84 515.466 3
11 2 3 1714.72 401.402 2
-13 2 -6 647.144 305.675 1
11 -13 -6 541.845 286.01 1
11 -13 -6 593.324 322.919 2
11 2 6 1110.73 358.289 1
-13 11 6 493.094 216.274 2
-13 2 -6 1334.94 410.471 2
2 11 -6 753.531 287.907 4
-13 11 6 733.637 304.439 1
11 2 6 933.82 348.344 4
2 11 -6 1201.98 441.843 3
-13 2 -9 255.984 104.987 4
-13 11 9 353.045 242.203 1
11 -13 -9 214.837 285.337 2
11 -13 -9 170.678 161.316 1
11 2 9 300.697 193.353 1
-13 11 9 544.392 389.37 2
2 11 -9 25.8688 165.497 3
-13 11 12 952.138 391.799 1
11 -13 -12 678.448 338.607 1
11 -13 -12 764.239 471.414 2
-13 2 -12 522.856 197.62 4
11 2 12 673.662 265.418 1
2 11 -12 1164.58 492.597 3
11 -13 -15 509.579 350.488 1
-13 2 -15 50.6814 156.047 4
11 -13 -15 388.554 284.491 2
-13 11 15 992.113 409.224 1
11 2 15 816.203 305.886 1
2 11 -15 1072.52 526.081 3
-14 3 16 173.412 164.185 3
3 -14 -16 204.144 308.233 2
3 11 16 282.947 163.765 1
-14 3 16 174.182 224.119 1
3 11 16 236.632 141.517 1
11 3 -13 57.703 368.208 2
3 -14 -13 657.942 306.781 2
-14 3 13 188.531 178.8 1
11 3 -10 -389.299 388.944 2
3 -14 -10 -59.3361 187.435 2
-14 3 10 335.794 250.326 1
11 3 -7 6417.19 1209.27 2
3 -14 -7 5106.61 557.316 2
-14 3 7 5029.12 906.138 1
3 11 4 657.854 285.372 3
11 -14 4 759.014 221.32 4
-14 3 4 891.698 361.245 1
11 3 -4 947.878 392.729 2
-14 3 4 975.619 373.289 2
11 -14 4 507.399 229.015 1
-14 11 -4 600.488 301.625 1
11 3 -4 665.619 323.855 1
-14 11 -4 645.259 270.524 2
11 3 -1 1666.04 511.842 1
3 11 1 1200.02 391.17 3
3 -14 -1 1500.07 500.213 4
-14 11 -1 1112.93 377.002 2
-14 11 -1 1166.32 390.894 1
-14 3 1 1469.4 459.591 1
11 3 -1 1397.79 439.907 2
-14 3 1 1541.09 475.8 2
11 -14 1 985.529 321.031 1
3 11 1 1265.38 472.84 4
3 11 -2 -146.338 227.185 4
3 11 -2 178.064 126.575 3
11 3 2 406.994 215.045 2
11 3 2 441.07 228.893 4
11 3 2 71.1136 142.777 1
-14 11 2 394.82 271.199 1
11 -14 -2 56.8567 122.682 1
3 -14 2 311.732 198.322 4
-14 11 2 509.291 279.345 2
-14 3 -2 330.929 236.355 2
11 -14 -2 -12.3953 107.861 2
-14 3 -2 231.09 122.595 1
11 3 5 333.795 153.314 1
3 -14 5 999.809 321.727 4
-14 3 -5 529.39 265.259 1
-14 11 5 540.852 298.652 2
11 -14 -5 826.681 251.025 1
3 11 -5 1177.17 473.739 3
11 -14 -5 835.332 332.946 2
3 11 -5 1380.54 484.283 4
11 3 5 754.648 264.885 2
-14 11 5 1000.2 373.579 1
-14 3 -5 576.002 311.261 2
11 3 5 1447.74 462.927 4
3 11 -8 1520.85 535.787 3
-14 11 8 1267.95 410.268 1
-14 3 -8 810.74 228.658 4
11 3 8 1081.43 342.831 1
11 -14 -8 985.04 419.992 2
11 -14 -8 880 370.058 1
-14 3 -8 830.989 362.553 1
-14 3 -8 1096.45 380.36 2
11 3 11 1141.45 380.059 1
-14 11 11 792.636 327.644 1
3 11 -11 1307.88 455.69 3
-14 3 -11 1484.25 363.233 4
11 -14 -11 1126.56 393.782 1
11 -14 -11 1771.68 590.846 2
11 3 14 45.6124 129.559 1
3 11 -14 652.849 470.648 3
-14 3 -14 220.527 251.258 4
11 -14 -14 260.997 234.42 1
11 -14 -14 506.534 250.173 2
-14 11 14 178.248 155.787 1
4 -15 -14 478.453 294.412 2
-15 4 14 -56.7755 248.112 1
4 11 14 255.235 102.671 1
4 11 14 403.051 137.042 1
11 4 -14 47.4377 369.883 2
4 -15 -11 156.674 176.333 2
-15 4 11 157.976 291.043 1
11 4 -8 80.7421 305.251 2
-15 4 8 1129.69 486.462 1
4 -15 -8 1509.51 364.386 2
11 4 -5 1904.49 556.889 2
4 11 5 2424.91 540.227 3
-15 4 5 2208.28 629.172 1
11 4 -5 921.999 378.797 1
-15 11 -5 2108.47 534.94 1
11 -15 5 2049.38 373.028 4
4 -15 -5 1824.84 304.707 1
4 11 5 1993.97 297.98 1
-15 4 5 1509.07 512.288 2
-15 11 -5 1880.99 517.91 2
4 11 2 794.624 221.321 1
4 11 2 491.153 265.775 3
4 11 2 523.466 195.75 2
-15 11 -2 525.323 225.514 2
-15 11 -2 487.864 246.964 1
-15 4 2 704.478 329.565 1
11 4 -2 1164.07 403.175 2
11 4 -2 1042.02 418.392 1
-15 4 2 1461.2 485.466 2
4 -15 -2 944.52 399.231 4
11 -15 2 530.73 258.85 1
4 11 2 892.189 444.164 4
4 11 -1 214.766 212.939 3
4 -15 1 376.16 205.181 4
-15 11 1 239.756 222.783 1
11 4 1 303.289 213.565 2
11 -15 -1 2.47617 104.466 1
-15 4 -1 -4.49421 176.704 2
-15 11 1 327.955 247.337 2
-15 4 -1 51.9259 168.971 1
11 4 1 447.038 328.238 4
11 4 1 -13.9574 120.296 1
4 11 -1 194.497 263.86 4
11 4 4 889.705 411.192 4
-15 4 -4 305.393 200.352 2
-15 4 -4 592.223 307.703 1
-15 11 4 848.684 386.64 2
11 4 4 58.0331 187.704 1
-15 11 4 689.604 310.832 1
4 11 -4 372.137 355.59 4
4 11 -4 504.553 389.005 3
11 4 4 795.704 308.458 2
11 -15 -4 671.535 346.72 1
11 -15 -4 459.572 317.02 2
4 -15 4 575.524 198.519 4
11 -15 -7 1007.05 388.488 1
4 11 -7 1408.71 431.372 3
11 4 7 788.038 304.762 1
-15 11 7 864.504 449.24 1
11 4 7 1204.55 409.007 4
-15 4 -7 604.11 265.987 2
-15 4 -7 587.895 345.818 1
11 -15 -7 1076.37 420.009 2
11 -15 -10 588.416 293.134 1
-15 11 10 542.527 353.397 1
-15 4 -10 278.318 180.809 4
11 -15 -10 231.086 275.962 2
4 11 -10 729.308 383.2 3
11 4 10 529.729 248.874 1
-15 11 13 330.667 268.138 1
4 11 -13 540.751 327.097 3
11 -15 -13 266.84 158.151 1
11 4 13 457.302 245.653 1
-15 4 -13 264.04 156.068 4
11 -15 -13 544.942 422.383 2
11 5 -15 -414.034 703.87 2
5 -16 -15 129.18 138.165 2
5 11 15 -10.1569 57.3148 1
5 11 15 317.157 114.732 1
-16 5 15 378.826 407.266 1
11 5 -12 121.743 503.58 2
5 -16 -12 548.245 308.39 2
-16 5 12 316.312 280.575 1
11 5 -9 1250.18 524.311 2
-16 5 9 729.943 353.896 1
5 -16 -9 689.046 177.454 1
5 -16 -9 591.941 299.497 2
-16 11 -6 2671.74 609.858 1
-16 5 6 3819.84 791.993 1
5 -16 -6 3319.01 507.965 2
11 5 -6 3845.96 841.812 2
11 -16 6 2951.16 471.488 4
5 11 6 3078.64 405.794 1
5 -16 -6 3299.49 454.263 1
11 5 -3 6597.73 1079.28 1
11 5 -3 6828.26 1070.78 2
5 11 3 5293.01 500.779 2
-16 5 3 8120.91 1164.06 2
-16 5 3 8396.94 1168.28 1
11 -16 3 6142.97 901.003 1
-16 11 -3 6865.1 1083.93 2
11 -16 3 7090.88 864.325 4
5 -16 -3 9041.66 1248.04 4
5 11 3 5796.94 915.618 3
5 11 3 4891.83 971.066 4
5 11 3 4935.35 607.891 1
-16 11 -3 8351.32 1159.3 1
-16 11 0 3100.86 679.458 2
5 11 0 2972.08 563.678 1
5 11 0 2998.68 693.469 3
5 11 0 2909.71 514.971 2
5 -16 0 2631.15 625.953 4
11 5 0 2596.55 552.96 2
5 11 0 3008.28 791.622 4
11 -16 0 2375.1 534.941 1
-16 11 0 2808.84 645.754 1
-16 5 0 2923.41 705.499 2
11 5 0 2825.35 681.943 1
11 5 0 2796.78 720.049 4
-16 5 0 3491.04 727.532 1
-16 11 3 1967.15 571.108 1
5 -16 3 1584.67 430.37 4
5 11 -3 1902.16 539.561 3
5 11 -3 1626.53 563.458 4
11 -16 -3 1512.81 458.152 2
11 5 3 2158.46 618.407 4
11 -16 -3 1756.78 443.493 1
-16 5 -3 1832.99 474.602 1
11 5 3 1787.12 391.203 2
-16 5 -3 1538.53 468.98 2
-16 11 3 1743.53 633.307 2
11 5 3 1656.45 411.574 1
5 11 -6 2685.01 679.716 3
-16 5 -6 2541.41 597.548 1
11 -16 -6 2739.67 633.003 2
11 -16 -6 2375.22 508.292 1
-16 11 6 2072.51 571.41 1
-16 5 -6 2482.08 613.806 2
11 5 6 2147.72 468.405 1
11 5 6 2596.05 616.422 4
5 -16 6 1537.02 392.01 4
5 11 -9 930.87 476.171 3
-16 5 -9 569.896 331.486 2
11 5 9 550.386 235.624 1
11 -16 -9 417.744 321.553 2
-16 11 9 558.205 352.948 1
-16 5 -9 364.224 253.756 1
11 -16 -9 557.062 302.106 1
5 11 -12 224.708 321.428 3
11 -16 -12 -364.04 284.334 1
11 5 12 532.039 278.706 1
11 -16 -12 182.002 235.728 2
-16 5 -12 399.557 191.376 4
-16 11 12 581.245 305.046 1
5 11 -15 970.767 385.741 3
-16 11 15 684.281 398.701 1
11 5 15 428.241 248.373 1
11 -16 -15 183.424 266.143 2
-16 5 -15 588.255 245.476 4
11 -16 -15 93.9764 210.631 1
6 -17 -13 192.181 157.263 2
11 6 -13 -28.0293 325.095 2
-17 6 13 -209.235 223.352 1
6 11 13 190.069 97.2862 1
11 6 -10 297.476 391.357 2
6 -17 -10 263.379 110.387 1
6 11 10 484.57 153.034 1
6 -17 -10 524.1 295.065 2
-17 6 10 521.649 373.193 1
11 -17 7 297.042 174.713 4
-17 6 7 789.721 362.84 1
6 11 7 737.618 217.731 1
11 6 -7 555.2 368.447 2
6 -17 -7 492.623 228.03 1
6 -17 -7 748.229 292.569 2
6 11 4 2269.45 422.518 1
6 11 4 1924.48 288.851 2
11 -17 4 2853.52 555.828 4
-17 6 4 3624 795.382 1
-17 11 -4 3052.16 746.606 1
6 -17 -4 3283.83 530.116 1
11 6 -4 2361.85 664.075 2
-17 6 1 4348.47 855.371 1
11 6 -1 3953.59 746.844 2
6 11 1 3415.41 611.126 1
-17 11 -1 3311.87 692.851 2
11 -17 1 2839.49 578.744 1
6 11 1 4754.95 981.158 4
-17 6 1 3969.26 808.188 2
6 -17 -1 3462.03 702.254 4
11 6 -1 3715.77 858.85 4
6 11 1 3730.68 725.33 3
11 6 -1 3163.01 688.941 1
-17 11 -1 3429.05 662.312 1
6 11 1 3904.97 557.94 2
6 11 -2 615.106 335.281 1
-17 11 2 850.459 503.361 1
-17 6 -2 98.3986 172.684 1
6 11 -2 170.275 191.683 2
11 6 2 331.388 362.898 4
6 -17 2 242.708 192.223 4
11 6 2 385.117 209.403 2
11 6 2 20.1422 117.599 1
-17 11 2 221.962 154.275 2
11 -17 -2 5.59394 144.491 1
-17 6 -2 205.898 116.132 2
6 11 -2 243.742 209.777 3
6 11 -5 2820.25 691.026 2
6 -17 5 1747.51 428.113 4
11 6 5 2544.74 476.964 2
11 6 5 2845.92 739.169 4
11 6 5 2908.3 556.657 1
-17 6 -5 3069.2 698.395 2
11 -17 -5 2482.36 613.73 2
6 11 -5 2364.34 674.285 3
-17 6 -5 2946.04 682.005 1
-17 11 5 2977.52 663.006 1
11 -17 -5 2208.86 467.66 1
11 6 8 216.71 101.065 1
11 -17 -8 368.545 272.331 1
11 -17 -8 759.266 460.614 2
6 11 -8 471.863 363.768 3
-17 11 8 242.747 225.399 1
-17 6 -8 5.56454 264.308 1
6 11 -11 1628.67 533.523 3
-17 11 11 1129.85 428.079 1
11 6 11 1366.82 396.192 1
11 -17 -11 1397.13 453.511 2
11 -17 -11 2106.31 510.199 1
6 11 -14 1171.56 568.116 3
-17 6 -14 593.266 229.882 4
11 -17 -14 383.144 197.923 2
-17 11 14 1161.75 435.337 1
11 -17 -14 440.855 195.085 1
11 6 14 725.407 336.464 1
7 11 14 151.688 93.1948 1
11 7 -14 812.112 755.474 2
7 -18 -14 168.786 202.634 2
-18 7 14 462.577 343.026 1
11 7 -11 1155.41 620.743 2
-18 7 11 1179.69 516.646 1
7 11 11 962.067 222.473 1
7 -18 -11 1486.78 477.403 2
7 -18 -11 1297.53 287.984 1
11 7 -8 1552.25 546.432 2
-18 7 8 1776.62 581.965 1
7 -18 -8 1709.3 346.188 1
7 11 8 2031.46 363.129 1
7 -18 -8 2417.61 553.875 2
-18 11 -5 2739.67 687.249 1
11 -18 5 3374.45 566.292 4
11 7 -5 5499.86 1096.66 2
-18 7 5 5239.85 967.675 1
7 11 5 4315.92 599.405 1
7 -18 -5 4138.1 597.032 1
-18 7 2 8666.91 1218.31 1
7 -18 -2 7237.61 856.781 1
11 -18 2 6644.14 930.615 1
7 11 2 7817.46 779.445 2
7 11 2 6615.4 849.789 1
11 7 -2 8120.51 1196.09 1
11 -18 2 6358.22 852.471 4
-18 11 -2 7512.09 1103.25 1
7 -18 -2 7019.15 1066.14 4
11 7 -2 7324.84 1095.38 2
11 7 1 923.737 560.504 4
7 11 -1 667.792 115.302 2
11 7 1 893.557 351.414 2
7 11 -1 899.129 256.268 1
-18 11 1 754.612 409.302 1
-18 7 -1 516.342 242.812 1
11 7 1 872.738 330.631 1
7 -18 1 307.737 194.235 4
-18 7 -1 1311.36 459.255 2
11 -18 -1 328.864 110.819 1
11 7 4 1263.73 361.078 2
-18 7 -4 1504.73 497.524 1
-18 7 -4 1373.64 463.391 2
7 11 -4 1354.13 528.094 3
11 -18 -4 1241.5 417.304 1
7 -18 4 1183.17 411.674 4
-18 11 4 2160.12 652.496 1
11 7 4 1913.1 517.734 1
11 7 4 1312.52 477.48 4
7 11 -4 1730.82 571.064 1
11 -18 -4 1256.32 430.382 2
7 11 -4 1539.28 499.517 2
7 11 -7 858.996 411.717 3
7 11 -7 1063.42 520.648 2
11 7 7 359.947 155.787 4
11 -18 -7 695.652 312.364 1
7 -18 7 505.131 252.772 4
-18 11 7 465.906 257.677 1
11 -18 -7 744.81 260.325 2
11 7 7 425.613 186.964 1
-18 7 -7 397.654 142.676 1
7 11 -10 703.258 472.597 3
11 7 10 713.675 294.51 1
7 11 -10 236.093 314.011 2
11 -18 -10 530.492 262.612 1
-18 11 10 184.789 215.707 1
11 -18 -10 848.677 441.792 2
7 11 -13 708.681 537.449 2
11 -18 -13 743.663 333.365 1
-18 11 13 686.587 347.845 1
11 7 13 767.062 308.525 1
11 -18 -13 584.294 341.932 2
11 8 -12 618.863 377.25 2
8 -19 -12 26.0565 83.3383 1
8 -19 -12 358.47 157.445 2
8 11 12 204.936 136.52 1
-19 8 12 144.194 268.195 1
-19 8 9 257.073 299.822 1
8 11 9 529.782 204.97 1
11 8 -9 -148.734 257.364 2
8 -19 -9 214.24 257.506 2
8 -19 -9 333.221 217.984 1
11 8 -6 737.118 529.981 2
8 11 6 489.933 224.079 1
-19 8 6 708.143 371.658 1
8 -19 -6 682.715 241.03 1
11 -19 6 784.054 303.238 4
-19 11 -6 100.399 161.139 1
8 -19 -6 275.653 218.496 2
-19 11 -3 4721.51 902.73 1
8 11 3 4568.66 558.547 2
8 11 3 4040.9 660.941 1
11 8 -3 6135.86 1046.71 2
-19 8 3 4898.01 922.495 1
11 -19 3 4318.24 720.744 4
8 -19 -3 3439.71 583.267 1
8 11 0 5915.37 833.146 2
8 11 0 5541.48 875.437 1
11 -19 0 4608.74 750.991 1
11 8 0 5059.38 876.291 1
11 8 0 5660.5 867.423 2
8 -19 0 4743.08 810.98 4
-19 11 0 4626.35 888.092 1
-19 8 0 4745 904.053 1
8 11 -3 701.317 355.791 1
11 8 3 148.466 153.523 2
8 11 -3 220.534 195.292 2
11 -19 -3 655.231 308.086 1
8 -19 3 -100.932 203.444 4
11 8 3 300.798 171.095 1
-19 8 -3 -60.3731 306.98 1
-19 11 3 68.4281 220.767 1
11 -19 -6 1106.07 406.838 1
8 11 -6 2166.06 640.623 2
-19 11 6 1563.15 598.224 1
11 8 6 980.994 368.911 1
8 -19 6 1271.48 376.067 4
-19 8 -6 700.237 350.455 1
11 -19 -6 1266.55 421.206 2
8 11 -9 1964.91 691.599 2
-19 11 9 676.838 418.014 1
-19 8 -9 480.805 377.041 1
11 -19 -9 1516.57 542.703 2
11 8 9 1155.52 380.451 1
11 -19 -9 898.664 358.198 1
-19 11 12 649.78 365.418 1
11 8 12 402.563 208.736 1
8 11 -12 435.334 519.154 2
11 -19 -12 505.389 262.059 1
11 -19 -12 561.244 339.772 2
9 11 13 -65.7627 75.1991 1
11 9 -13 -750.33 486.812 2
9 -20 -13 35.1703 138.721 1
9 -20 -13 -15.2925 240.373 2
-20 9 13 -324.526 412.828 1
11 9 -10 -94.7949 351.11 2
9 11 10 760.785 259.07 1
9 -20 -10 1032.15 333.104 1
9 -20 -10 676.76 368.276 2
-20 9 10 867.656 442.161 1
11 9 -7 447.001 240.729 2
-20 9 7 2007.84 635.062 1
9 -20 -7 1446.68 411.052 1
-20 11 -7 1460.76 604.132 1
11 -20 7 660.012 297.203 4
9 11 7 885.861 273.607 1
9 -20 -7 1172.16 370.488 2
-20 11 -4 1827.83 512.137 1
11 9 -4 2123.4 621.663 2
9 11 4 1763.74 458.17 1
-20 9 4 2219.48 588.032 1
9 11 4 1880.56 367.972 2
11 -20 4 1495.78 427.12 4
9 -20 -4 2310.51 510.858 1
9 11 1 4618.08 741.988 2
9 11 1 4011.68 730.964 1
11 9 -1 4413.16 866.598 1
11 -20 1 2312.27 555.932 4
11 9 -1 4941.2 858.996 2
-20 11 -1 4816.51 939.637 1
9 -20 -1 3535.5 637.775 1
-20 9 1 4800.92 908.484 1
11 -20 1 3562.85 671.363 1
9 -20 -1 2766.04 656.78 4
9 11 -2 1022.93 399.683 1
11 -20 -2 842.581 340.007 1
9 11 -2 1416.61 484.644 2
11 9 2 1312.74 479.335 1
-20 9 -2 1432.63 517.784 1
11 9 2 1235.91 372.852 2
9 -20 2 1218.78 434.049 4
-20 11 2 1188.13 472.784 1
11 -20 -5 193.69 177.587 1
-20 9 -5 326.393 183.023 1
9 11 -5 537.031 262.411 2
11 -20 -5 -220.166 227.263 2
11 9 5 269.664 179.184 2
-20 11 5 912.358 446.476 1
11 9 5 51.9559 160.003 1
9 -20 5 214.422 283.616 4
-20 9 -8 1811.17 593.965 1
9 11 -8 1899.8 757.688 2
-20 11 8 1956.42 631.802 1
11 -20 -8 1463.51 440.63 1
11 9 8 1052.87 344.381 1
11 -20 -8 2274.9 674.561 2
-20 11 11 -34.3856 293.111 1
9 11 -11 5.52342 215.748 2
11 -20 -11 304.878 330.226 2
11 9 11 433.081 192.618 1
11 -20 -11 422.868 243.762 1
-21 10 11 540.788 429.788 1
10 -21 -11 523.855 252.666 1
11 10 -11 690.409 524.566 2
10 -21 -11 302.367 296.131 2
10 11 11 410.814 229.763 1
11 10 -8 144.763 264.908 2
10 -21 -8 609.044 249.589 1
10 11 8 329.287 194.494 1
-21 11 -8 394.483 325.002 1
-21 10 8 347.583 259.827 1
11 -21 8 367.645 173.903 4
10 -21 -8 404.264 189.888 2
10 11 5 4702.2 596.314 2
-21 10 5 6388.15 1127.15 1
11 10 -5 4181.94 963.018 2
11 -21 5 3267.47 640.01 4
10 -21 -5 4491.85 757.78 1
-21 11 -5 4194.51 891.429 1
10 11 5 4513.46 731.492 1
11 -21 2 1625.41 468.255 4
10 11 2 1908.16 531.969 1
-21 10 2 3067.93 731.385 1
10 11 2 2239.35 457.908 2
11 10 -2 2500.04 640.76 2
-21 11 -2 2875.6 707.629 1
10 -21 -2 1734.84 468.677 1
10 11 -1 2203.5 609.174 1
11 10 1 2147.7 544.821 1
10 11 -1 2243.32 595.766 2
11 10 1 2437.66 562.707 2
-21 11 1 2293.79 641.912 1
10 -21 1 1452.06 439.053 4
-21 10 -1 2386.01 675.523 1
11 -21 -1 1632.3 462.851 1
10 11 -4 1041.48 434.009 2
11 10 4 425.582 258.075 1
11 -21 -4 605.317 354.423 1
10 -21 4 770.215 329.961 4
11 10 4 717.065 267.43 2
-21 10 -4 67.8182 170.074 1
-21 10 -7 2069.08 682.571 1
10 11 -7 2396.24 794.074 2
-21 11 7 2131.4 706.811 1
11 10 7 2511.94 548.542 1
11 -21 -7 2804.29 624.411 1
10 -21 7 1951 453.432 4
11 -21 -7 2456.72 607.617 2
10 11 -10 1403.51 662.875 2
-21 11 10 1497.86 570.925 1
11 10 10 1251.71 337.88 1
11 -21 -10 1583.7 557.425 2
11 -21 -10 1748.57 484.434 1
11 -22 0 1343.55 423.549 1
-22 11 0 1344.55 515.767 1
11 11 0 1912.13 590.275 1
11 -22 0 1075.07 413.669 4
11 11 0 1770.61 537.076 2
11 11 -3 561.898 364.666 2
11 -22 3 416.188 252.717 4
11 11 3 811.745 308.286 2
-22 11 -3 815.507 554.379 1
-22 11 3 1531.46 643.829 1
11 -22 -3 814.394 391.474 1
11 11 3 126.216 214.027 1
-22 11 -6 902.374 515.781 1
11 11 -6 497.372 428.864 2
11 11 6 355.201 283.39 1
-22 11 6 849.661 510.533 1
11 -22 6 345.794 205.707 4
11 11 6 662.126 234.683 2
11 -22 -6 500.545 246.86 1
11 -22 -9 233.681 119.07 1
11 11 -9 -340.483 487.233 2
-22 11 9 462.595 353.307 1
11 11 9 -17.4684 102.924 1
11 -22 -9 562.569 400.871 2
-22 11 -9 378.614 229.89 1
-22 11 12 432.059 446.201 1
11 11 -12 -31.7059 326.655 2
11 -22 -12 413.411 138.717 1
11 -22 -12 361.201 338.854 2
11 11 12 407.061 197.766 1
-6 -6 0 2031.5 458.343 3
-6 -6 0 2268.09 372.152 2
-6 -6 0 1995.82 429.455 4
12 -6 0 2064.61 469.587 1
-6 -6 0 2344.36 466.409 1
12 -6 0 2154.61 491.533 2
-6 12 3 4241.85 586.424 2
-6 -6 -3 4078.66 690.706 3
-6 -6 -3 4406.58 757.049 4
12 -6 3 4624.48 685.686 1
-6 12 -3 3558.99 601.082 4
12 -6 -3 3568.88 710.036 2
-6 -6 3 4965.06 735.927 3
-6 -6 -3 4140.99 563.529 1
12 -6 3 4503.02 729.31 2
-6 -6 3 5719.22 823.432 1
-6 -6 -3 4044.9 427.117 2
12 -6 -3 4370.25 764.297 1
-6 12 6 5482.69 715.996 2
12 -6 -6 6903.23 1143.05 2
-6 -6 -6 5491.48 467.29 2
-6 -6 6 6512.86 920.674 1
-6 12 6 5372.12 530.526 1
12 -6 -6 6947.92 1094.92 1
-6 -6 -6 5799.8 558.128 1
-6 -6 6 5735.03 739.91 3
-6 12 -6 5408.37 746.186 4
12 -6 6 5590.31 790.557 1
-6 -6 -6 5640.96 859.514 4
-6 12 6 5640.38 709.446 3
-6 -6 -6 6033.7 855.236 3
-6 -6 -9 947.879 276.857 3
-6 12 9 920.601 321.98 2
-6 12 -9 709.586 157.754 4
-6 -6 9 572.188 284.819 1
12 -6 -9 1156.81 510.201 2
-6 12 9 1096.64 240.807 1
-6 -6 -9 203.874 313.567 4
12 -6 -9 1162.34 325.391 1
-6 12 9 705.194 236.771 3
12 -6 9 694.411 241.234 1
-6 -6 9 726.531 266.542 3
-6 -6 -12 2085.47 483.612 3
-6 -6 12 2075.84 562.3 1
12 -6 -12 3271.18 897.802 2
-6 12 12 1935.31 376.01 1
-6 -6 12 2180.52 462.602 3
-6 12 12 1668.21 341.083 3
-6 12 15 74.1281 91.3859 3
-6 -6 15 174.888 219.607 1
12 -6 -15 182.671 311.068 2
-6 12 15 82.847 201.661 1
-6 -6 -15 241.482 269.997 3
-5 -7 -16 360.95 214.584 3
-7 -5 16 510.935 290.32 1
-5 12 16 1023.7 320.175 1
12 -5 -16 535.737 449.72 2
-7 -5 13 1781.24 522.244 1
-5 -7 -13 1663.06 412.613 3
12 -5 -13 2698.92 951.486 2
-5 12 13 1938.17 373.052 3
-5 12 13 1988.84 380.633 1
-7 -5 13 1914.32 431.57 3
-5 -7 -10 3236.32 579.508 3
-5 12 10 2606.61 370.153 1
-5 12 10 3094.07 560.369 2
12 -5 -10 3890.6 905.749 1
-7 12 -10 3177.09 594.095 4
-7 -5 10 2996.46 625.765 1
12 -5 -10 4063.73 965.927 2
12 -7 10 2604.05 522.563 1
-5 12 10 2806.27 479.624 3
-7 -5 10 3138.49 539.632 3
-7 -5 7 1730.6 404.262 3
-5 -7 -7 1936.5 439.956 3
-5 12 7 1666.83 266.85 1
-5 12 7 1618.41 357.131 3
-5 12 7 1758.15 359.2 2
-7 -5 7 1680.64 413.622 1
12 -5 -7 2092.5 626.513 2
12 -5 -7 2671.83 649.81 1
12 -7 7 1888.53 473.305 1
-5 -7 -7 1738.62 263.889 1
-5 -7 -7 1677.11 474.439 4
-7 12 -7 2087.64 396.309 4
-7 -5 4 902.522 314.906 1
-5 -7 -4 1091.77 362.605 3
-5 -7 -4 1089.61 274.186 1
-7 -5 4 681.771 259.958 3
-5 12 4 445.902 220.177 3
12 -5 -4 549.642 326.609 2
-5 12 4 574.038 212.132 2
12 -7 4 824.396 309.766 1
-7 12 -4 991.747 299.187 4
12 -5 -4 1080.95 457.444 1
-5 -7 -4 953.772 360.072 4
-7 -5 1 4372.25 610.367 2
12 -7 1 5100.66 705.081 1
-5 12 1 4695.62 590.217 2
12 -5 -1 5064.95 776.348 2
12 -5 -1 4575.86 725.627 1
-5 -7 -1 3954.92 644.48 4
12 -7 1 4823.24 712.283 2
-5 -7 -1 4686.2 697.529 3
-7 -5 1 5072.32 732.231 3
-5 -7 -1 4710 606.122 1
-7 -5 1 4566.67 732.637 1
-5 -7 2 266.604 210.379 3
-7 12 2 37.8115 101.763 2
12 -7 -2 288.202 212.625 1
-5 -7 2 749.57 309.626 1
-7 -5 -2 53.1717 93.2608 2
12 -5 2 466.388 222.461 1
12 -5 2 372.978 195.081 2
-7 -5 -2 683.781 271.848 4
-5 12 -2 -150.778 216.686 4
-7 -5 -2 41.5378 168.629 1
12 -7 -2 876.617 326.718 2
-7 -5 -5 406.606 159.074 1
-7 -5 -5 758.143 290.163 4
-5 -7 5 640.749 296.079 1
-7 12 5 300.243 117.991 1
12 -5 5 130.415 101.966 1
-7 -5 -5 376.093 144.597 2
-7 12 5 53.5159 96.6171 2
12 -7 -5 122.075 175.237 2
12 -5 5 159.422 73.2196 4
-5 12 -5 144.555 126.845 4
12 -7 -5 323.826 215.994 1
-5 -7 5 456.018 197.092 3
-5 -7 8 1347.62 465.451 1
-7 12 8 1225.18 402.857 2
12 -7 -8 803.234 418.616 2
12 -7 -8 1231.71 464.595 1
-5 12 -8 1465.53 453.159 4
-7 12 8 1101.83 266.976 1
12 -5 8 1083.95 370.481 1
-7 -5 -8 797.33 346.948 4
-5 -7 8 1384.16 379.392 3
-7 12 11 987.206 295.822 1
-5 -7 11 1116.93 395.82 1
12 -5 11 951.489 351.288 1
-5 -7 11 1265.96 337.774 3
12 -7 -11 1630.71 502.579 1
12 -7 -11 1780.85 612.996 2
-7 12 11 807.949 224.261 3
-7 12 11 1220 407.166 2
-5 -7 14 -262.859 318.996 1
12 -7 -14 31.5525 338.785 2
-7 12 14 298.999 152.494 3
-7 12 14 352.855 176.564 1
-5 12 -14 182.185 139.233 3
12 -7 -17 296.686 344.767 2
-7 -5 -17 196.228 153.476 3
-7 12 17 760.207 315.196 1
-5 12 -17 -101.818 230.582 3
12 -4 -14 -119.473 312.214 2
-8 -4 14 158.273 129.194 3
-8 -4 14 298.875 246.931 1
-4 12 14 34.2499 89.255 1
-4 -8 -14 22.3039 116.569 3
-4 -8 -11 379.565 203.389 3
-4 12 11 446.124 147.304 1
-8 -4 11 961.936 363.392 1
-4 12 11 187.648 111.883 3
12 -4 -11 714.934 419.68 2
-8 -4 11 662.602 268.195 3
-4 -8 -8 1489.97 346.385 3
-4 12 8 1800.4 383.399 2
-4 12 8 2025.74 279.029 1
12 -4 -8 1515.18 642.951 2
12 -8 8 2809.32 584.887 1
-8 -4 8 1342.95 332.21 3
-8 12 -8 1353.58 300.297 4
-8 -4 8 1731.05 463.711 1
-4 12 8 1875.64 419.905 3
12 -4 -8 2095.47 657.498 1
-4 -8 -5 1966.44 469.618 3
12 -8 5 939.979 311.367 1
-4 -8 -5 1648.39 509.214 4
-4 -8 -5 1549.27 280.746 1
-8 -4 5 2240.03 580.697 1
12 -4 -5 524.476 223.793 2
-4 12 5 1308.93 300.364 2
-4 12 5 1167.35 359.165 3
-8 12 -5 1020 298.55 4
-8 -4 5 1272.02 360.053 3
12 -4 -5 1386.66 554.163 1
-4 -8 -2 183.77 219.107 3
-8 -4 2 347.908 225.774 2
12 -8 2 298.996 144.957 1
-4 -8 -2 113.074 112.246 1
-4 -8 -2 119.323 216.614 4
12 -4 -2 90.8028 236.536 2
-4 12 2 354.195 161.449 2
-4 12 2 46.0753 148.87 3
12 -8 2 647.73 307.377 2
-8 -4 2 532.302 362.789 1
12 -4 -2 432.543 228.925 1
-4 -8 1 626.344 146.725 3
-8 -4 -1 1051.33 283.674 4
-4 -8 1 1447.17 352.606 1
-8 -4 -1 1560.12 354.089 2
-4 12 -1 1019.48 346.051 4
12 -4 1 956.84 355.097 1
12 -4 1 1249.59 390.402 2
12 -8 -1 1370.79 402.917 2
12 -8 -1 1144.36 376.764 1
-4 -8 1 852.251 319.677 4
-4 12 -1 959.738 301.797 3
-8 12 1 1201.61 304.882 2
-8 -4 -1 1661.2 395.103 1
12 -4 4 4470.38 502.691 4
-4 12 -4 3540.61 612.404 4
-8 -4 -4 4315.11 524.515 2
12 -8 -4 5097.31 946.067 2
-8 -4 -4 4559.56 615.752 1
-4 -8 4 4335.72 678.295 3
12 -4 4 5612.86 782.683 1
-8 -4 -4 4232.93 639.27 4
-4 -8 4 4226.21 678.711 1
-8 12 4 4290.2 676.093 2
-8 12 4 4583.79 584.026 1
12 -8 -4 4612.25 788.249 1
-8 12 7 6819.73 907.743 2
12 -8 -7 6839.81 1098.86 2
12 -4 7 6603.37 857.42 1
-8 -4 -7 5649.83 595.649 2
-8 12 7 5794.5 653.062 1
-4 12 -7 6967.95 959.093 4
12 -8 -7 7390.38 1043.49 1
-8 -4 -7 6399.27 670.357 1
-8 -4 -7 6474.21 907.016 4
-4 -8 7 6075.05 760.775 3
-4 -8 7 6072.28 848.029 1
-8 12 10 6251.61 915.756 2
12 -8 -10 8478.48 1338.2 2
-8 -4 -10 5906.81 945.221 4
12 -8 -10 8011.14 1221.09 1
12 -4 10 5826.9 822.08 1
-8 12 10 5765.33 670.364 1
-4 12 -10 7770.47 1051.85 3
-4 -8 10 7324.11 1035 1
-4 -8 10 6171.39 748.426 3
12 -8 -13 309.35 333.063 2
-4 -8 13 237.331 266.559 1
-4 12 -13 668.245 308.003 3
-8 12 13 512.849 164.069 3
-8 12 13 -94.6434 220.93 1
-8 12 16 105.273 84.6323 3
-4 -8 16 -209.391 310.311 1
12 -8 -16 -244.467 420.052 2
-4 12 -16 -52.5317 202.794 3
-8 12 16 -0.86246 124.015 1
-3 -9 -15 226.699 239.997 3
-9 -3 15 662.224 271.593 3
12 -3 -15 782.34 618.39 2
-3 -9 -15 623.989 304.554 2
-9 -3 15 -308.449 261.879 1
-3 12 15 658.516 222.192 1
12 -3 -12 1380.41 670.623 2
-9 -3 12 702.706 413.775 1
-3 12 12 495.439 152.522 1
-3 12 12 827.6 310.566 3
-9 -3 12 569.652 240.587 3
-3 -9 -12 946.361 337.316 3
-3 -9 -9 3312.16 403.727 2
12 -3 -9 7334.05 1298.74 2
-9 -3 9 4892.49 852.745 1
12 -3 -9 6858.02 1225.98 1
-9 -3 9 3830.9 586.526 3
-9 12 -9 2342.35 399.102 4
-3 12 9 4032.04 618.951 3
12 -9 9 2427.5 530.037 1
-3 -9 -9 3560.57 631.437 3
-9 -3 6 5142.73 884.255 2
-3 12 6 5530.9 570.933 2
12 -3 -6 7270.58 1220.33 2
12 -3 -6 5984.22 1029.98 1
-9 -3 6 4806.32 718.611 3
-9 -3 6 4730.78 776.103 1
-9 12 -6 4924.46 596.168 4
-3 -9 -6 4698.57 822.028 4
-3 -9 -6 4454.25 703.877 3
-3 12 6 5498.62 708.252 3
12 -9 6 5118.96 760.26 1
-9 -3 3 2000.96 519.763 2
-9 -3 3 2223.45 534.859 1
12 -3 -3 1576.63 506.496 2
-3 -9 -3 2036.56 333.068 1
12 -9 3 1978.1 436.02 1
-3 -9 -3 1872.24 485.684 4
-3 12 3 2162.44 336.594 2
-3 -9 -3 1568.57 394.038 3
-3 12 3 1735.85 405.658 3
12 -3 -3 2014.32 546.044 1
12 -3 0 606.035 236.989 1
-9 12 0 386.5 183.864 1
-3 -9 0 18.3133 128.018 1
-9 -3 0 581.141 204.814 2
-3 12 0 365.863 236.372 3
-3 -9 0 331.137 204.767 4
12 -9 0 416.842 251.727 2
-3 12 0 623.05 281.329 4
-9 12 0 579.281 235.168 2
12 -3 0 501.781 179.965 2
-9 -3 0 1325.15 412.253 1
12 -9 0 411.141 134.85 1
-3 -9 0 893.993 309.465 3
-3 -9 3 3636.22 558.77 1
-9 -3 -3 4353.02 565.63 2
-9 12 3 3997.85 654.071 2
-9 -3 -3 4681.78 637.147 1
12 -3 3 5180.33 742.679 1
12 -9 -3 3504.39 676.764 1
-9 -3 -3 4191.97 569.837 4
12 -3 3 4787.5 703.394 2
12 -3 3 5400.49 634.828 4
-3 12 -3 3861.87 626.715 3
12 -9 -3 3845.85 750.725 2
-3 12 -3 4457.24 740.136 4
-9 12 3 3983.47 564.333 1
-3 -9 3 3932.1 613.632 3
12 -9 -6 1506.23 568.76 2
-3 -9 6 2011.59 513.244 1
-3 12 -6 1824.4 501.49 4
12 -3 6 1679.18 446.616 1
-9 12 6 1257.62 404.546 2
-9 -3 -6 1723.89 354.675 2
-9 -3 -6 1736.93 459.119 4
-3 12 -6 2192.27 534.886 3
-9 -3 -6 1628.83 388.958 1
12 -9 -6 1847.02 464.645 1
12 -3 6 1491.17 312.071 4
-3 -9 6 1380.98 353.572 3
-9 12 6 1572.5 385.199 1
-3 -9 9 2358.85 553.16 1
-9 12 9 1280.75 447.211 2
-3 -9 9 2076.85 450.465 3
-9 12 9 1652.4 390.101 1
12 -9 -9 2034.67 602.274 2
12 -9 -9 2034.28 576.873 1
-9 -3 -9 1817.7 488.839 4
-3 12 -9 2094.95 622.654 4
-3 12 -9 1905.49 556.492 3
12 -3 9 1227.08 364.173 1
-9 12 12 1092.08 329.641 1
-9 12 12 1639.62 522.913 2
12 -9 -12 1525.05 574.01 1
12 -9 -12 890.819 555.008 2
12 -3 12 1012.4 355.461 1
-3 12 -12 1293.36 450.181 3
-3 -9 12 803.617 362.237 1
-3 -9 15 380.561 303.363 1
-9 12 15 90.2084 203.186 1
12 -9 -15 464.347 233.106 2
-3 12 -15 1034.51 360.592 3
-9 12 15 247.272 132.336 3
12 -2 -16 -294.269 685.097 2
-10 -2 16 170.652 205.385 1
-2 -10 -16 345.396 243.332 2
-10 -2 16 221.109 151.538 3
-2 -10 -16 252.494 228.206 3
-2 12 16 40.0362 86.3941 1
-2 -10 -13 225.606 141.094 2
12 -2 -13 303.301 383.424 2
-10 -2 13 660.847 377.971 1
-2 12 13 146.601 96.1335 1
-2 -10 -13 131.71 175.99 3
-10 -2 13 506.913 222.903 3
-2 12 10 2600.45 480.745 3
-10 -2 10 2611.14 529.609 3
-2 -10 -10 2206.61 366.683 2
12 -2 -10 3418.49 936.081 2
-10 -2 10 2650.99 629.174 1
-10 12 -10 2333.21 388.665 4
-2 -10 -10 2438.92 529.33 3
12 -10 7 1886.91 488.441 1
-2 12 7 2565.2 368.363 2
-10 -2 7 2355.31 601.175 2
-10 12 -7 1585.17 297.77 4
-2 12 7 3325.82 576.903 3
12 -2 -7 3554.73 794.426 2
12 -2 -7 3596.3 857.067 1
-10 -2 7 2681.32 597.118 1
-2 -10 -7 2635.03 524.336 3
-10 -2 4 3372.08 670.277 1
-2 12 4 2776.08 345.442 2
-10 -2 4 3050.77 661.567 2
12 -10 4 2826.01 519.188 1
12 -2 -4 3311.56 717.884 2
-2 -10 -4 2403.45 580.844 4
12 -2 -4 2642.52 639.021 1
-2 -10 -4 3153.11 371.251 1
-2 12 4 2920.66 538.731 3
-2 -10 -4 2639.88 488.966 3
-2 12 1 2933.86 579.554 3
-10 -2 1 4898.59 796.095 1
-10 -2 1 4546.49 719.146 2
12 -2 -1 4319.58 745.86 1
-10 12 -1 4352.28 725.07 2
12 -10 1 5114.1 798.341 2
12 -2 -1 3376.19 694.355 2
12 -10 1 3226.7 559.121 1
-2 -10 -1 4442.37 717.402 4
-2 -10 -1 3945.59 667.623 3
-2 -10 -1 3342.5 508.305 1
12 -2 2 2765.22 547.941 2
-2 -10 2 3166.16 530.504 1
-2 12 -2 2553.64 539.731 4
-10 -2 -2 3512.93 538.394 2
-10 -2 -2 3269.42 563.327 1
12 -2 2 2752.17 574.26 1
-10 12 2 3001.15 508.33 1
12 -10 -2 2811.43 544.899 1
-2 -10 2 3014.21 535.203 4
12 -10 -2 2939.15 616.118 2
-10 12 2 2780.77 591.502 2
-2 12 -2 3234.03 619.75 3
-2 -10 2 2785.2 545.18 3
-2 -10 5 504.321 172.158 1
12 -10 -5 1526.46 449.89 1
-10 12 5 1104.08 320.08 1
-10 -2 -5 1237.15 355.966 1
-2 -10 5 799.287 255.128 3
-10 12 5 1301.38 381.132 2
-2 12 -5 1437.01 458.829 4
12 -10 -5 1127.34 431.871 2
-2 12 -5 921.9 345.485 3
-10 -2 -5 1305.26 322.192 2
12 -2 5 1489.44 344.796 4
12 -2 5 1787.31 444.989 1
-10 -2 -5 786.791 238.36 4
-2 -10 8 2113.49 512.944 1
-2 12 -8 2240.92 644.888 4
-10 -2 -8 2517.45 526.198 4
-10 -2 -8 1972.72 435.441 1
12 -10 -8 1450.1 452.535 1
-10 12 8 2553.12 604.927 2
12 -2 8 2346.6 495.018 1
12 -10 -8 1657.97 587.199 2
-2 12 -8 1972.27 508.797 3
-10 12 8 1884.95 393.676 1
-10 -2 -8 2002.65 441.204 2
-2 -10 8 1675.79 385.83 3
-10 12 11 1570.37 439.883 1
12 -2 11 1406.95 401.217 1
-2 -10 11 1833.14 557.715 1
-10 -2 -11 1599.75 538.707 4
-10 12 11 1809.98 541.609 2
12 -10 -11 1345.46 462.046 1
12 -10 -11 1587.26 521.872 2
-2 12 -11 2231.54 619.856 3
12 -10 -14 -455.78 528.275 2
-10 12 14 286.045 212.257 3
-2 12 -14 1104.6 486.439 3
-2 -10 14 -232.248 274.908 1
-10 12 14 455.361 193.336 1
-1 -11 -14 775.819 372.693 2
-1 -11 -14 386.371 132.016 3
-11 -1 14 550.011 170.242 1
-1 12 14 262.269 113.837 1
-11 -1 14 549.575 224.109 3
-11 -1 11 249.726 189.655 3
-1 12 11 762.622 285.602 3
12 -1 -11 623.285 416.81 2
-11 12 -11 443.852 175.991 4
-11 -1 11 334.203 241.701 1
-1 -11 -11 232.48 142.302 2
-1 -11 -11 10.6554 118.313 3
-1 12 8 7657.12 889.758 3
-1 -11 -8 5752.02 466.617 2
12 -1 -8 6984.26 1244.51 2
-11 -1 8 5592.41 946.651 1
-11 12 -8 7204.17 634.057 4
-1 -11 -8 6171.75 838.58 3
-11 -1 5 1383.87 440.89 2
12 -11 5 1251.5 390.403 1
12 -1 -5 1384.21 508.912 2
-1 -11 -5 1826.87 533.742 4
12 -1 -5 1805.9 556.478 1
12 -11 5 1236.17 206.195 4
-1 -11 -5 1597.75 411.332 3
-11 -1 5 1928.81 573.685 1
-1 12 5 1680.01 454.325 3
-1 -11 -2 954.568 221.71 1
-1 -11 -2 1061.07 357.898 4
-11 12 -2 1211.86 408.71 2
-11 -1 2 2146.91 543.339 2
12 -1 -2 932.323 358.34 2
12 -1 -2 1565.32 466.727 1
12 -11 2 720.269 232.518 1
-11 -1 2 1539.07 500.815 1
-1 -11 -2 959.893 308.403 3
-1 12 2 1109.92 369.897 3
-11 12 1 3790.17 637.876 1
12 -11 -1 3602.36 659.208 2
-11 -1 -1 4236.53 640.22 2
12 -1 1 3879.83 686.386 2
-11 -1 -1 3979.51 670.488 1
-1 12 -1 3991.06 755.015 4
-1 -11 1 4056.42 668.341 3
-11 12 1 3653.25 660.184 2
-1 -11 1 3300.5 510.927 1
-1 -11 1 3826.02 663.575 4
-1 12 -1 3622.42 684.045 3
12 -1 1 3561.17 659.121 1
12 -11 -1 3440 609.867 1
12 -1 4 2807.51 500.65 4
-11 12 4 2596.41 503.137 1
12 -11 -4 1982.72 471.248 1
12 -11 -4 2031.64 525.594 2
-1 -11 4 2243.97 485.59 1
12 -1 4 2130.1 457.109 1
-11 -1 -4 1785.64 359.835 4
-11 12 4 2630.06 565.061 2
-1 12 -4 2695.26 585.318 4
-11 -1 -4 2153.78 451.067 2
-11 -1 -4 2723.68 523.563 1
12 -1 4 2524.65 493.866 2
-1 -11 4 1979.31 419.09 3
-1 12 -4 2382.34 548.089 3
-1 -11 7 912.944 369.71 1
12 -11 -7 664.544 357.815 1
-11 -1 -7 540.973 311.121 1
-11 12 7 452.283 238.104 2
-11 12 7 195.707 161.205 1
12 -11 -7 604.624 272.301 2
-1 -11 7 -3.3176 150.848 3
-11 -1 -7 680.994 318.102 4
-1 12 -7 195.812 283.64 4
12 -1 7 759.987 295.098 1
-11 -1 -7 580.476 216.621 2
-1 12 -7 583.87 266.961 3
-11 12 10 744.25 327.539 1
-11 12 10 194.12 178.982 2
12 -11 -10 677.289 356.83 2
12 -11 -10 319.84 261.171 1
-1 -11 10 456.51 147.144 1
12 -1 10 647.364 245.309 1
-11 -1 -10 156.388 242.737 4
-1 12 -10 1202.7 479.422 3
-11 12 13 368.07 132.33 1
-1 12 -13 1215.47 466.597 3
12 -1 13 593.971 213.809 1
-1 -11 13 657.98 366.756 1
12 -11 -13 617.286 371.065 2
12 -11 -13 617.875 262.232 1
-11 -1 -13 677.812 452.213 4
-1 -11 16 228.912 179.223 1
-11 12 16 537.547 263.714 1
-11 12 16 641.604 203.939 3
-1 12 -16 588.948 439.797 3
-12 0 15 63.1275 137.377 3
12 0 -15 -82.1258 349.642 2
0 -12 -15 180.922 227.575 2
0 12 15 -49.2797 67.2167 1
-12 0 15 -359.722 345.078 1
0 -12 -15 379.729 238.933 3
-12 0 12 166.215 111.735 3
0 -12 -12 -565.673 332.175 3
12 0 -12 726.611 540.118 2
0 -12 -12 106.23 158.983 2
-12 0 12 400.982 362.398 1
-12 12 -12 -88.0387 72.7314 4
12 0 -9 202.478 205.552 2
0 -12 -9 251.465 123.564 2
-12 0 9 47.0438 286.489 1
0 12 9 211.414 204.237 3
0 -12 -9 245.78 174.295 3
0 12 6 3839.63 626.093 3
-12 0 6 4872.36 909.372 2
12 -12 6 3874.81 696.061 1
12 0 -6 5890.13 1047.63 2
12 0 -6 4405.54 972.094 1
-12 0 6 4396.88 820.685 1
12 -12 6 2952.86 306.343 4
0 -12 -6 3447.36 613.321 3
0 -12 -3 335.562 131.805 1
12 -12 3 890.219 346.133 1
12 0 -3 1269.91 537.921 1
-12 0 3 985.781 440.302 2
12 0 -3 623.67 402.639 2
0 -12 -3 754.458 322.186 4
-12 0 3 1119.83 470.946 1
0 12 3 944.957 345.869 3
-12 12 -3 654.435 364.151 2
0 -12 -3 555.295 217.99 3
12 0 0 10122 1095.95 2
-12 0 0 9685.97 1057.96 2
-12 12 0 9027.03 1044.69 2
-12 0 0 9400.34 1073.5 1
12 -12 0 8925.97 1007.02 2
0 12 0 9212.6 1039.24 3
0 -12 0 8013.2 948.713 4
12 -12 0 9498.83 996.558 1
0 -12 0 9029.55 961.167 3
0 12 0 8119.35 1119.29 4
-12 12 0 8554.19 966.407 1
12 0 0 9991.18 1124.99 1
0 -12 3 7.19512 149.313 3
12 0 3 69.5871 107.248 1
-12 12 3 -129.846 212.614 1
12 -12 -3 -338.983 309.686 2
0 12 -3 -99.7341 164.862 4
-12 12 3 -163.28 159.304 2
-12 0 -3 255.098 208.268 2
-12 0 -3 99.6927 207.075 1
12 0 3 -18.0104 178.618 2
12 -12 -3 95.6261 205.487 1
0 -12 3 352.171 215.365 4
12 0 3 12.9316 217.921 4
0 12 -3 140.821 183.532 3
12 0 6 332.287 217.651 1
-12 12 6 372.965 289.54 2
12 -12 -6 -254.704 244.049 2
12 0 6 -48.3596 196.33 4
-12 0 -6 494.066 264.152 2
-12 12 6 46.4602 114.176 1
0 12 -6 191.945 219.603 4
12 -12 -6 -146.692 281.983 1
-12 0 -6 318.666 243.16 1
-12 0 -6 140.097 128.346 4
0 -12 6 29.5311 128.602 3
0 12 -6 -167.675 278.252 3
-12 12 9 5141.64 945.224 2
-12 12 9 4940.07 748.917 1
-12 0 -9 4594.25 766.805 1
12 -12 -9 5123.4 967.345 2
12 0 9 4652.97 728.682 1
0 12 -9 6000.23 971.494 3
-12 0 -9 4262.39 666.246 4
12 -12 -9 5993.34 944.143 1
0 -12 12 83.7282 210.975 1
-12 12 12 192.72 192.013 1
12 -12 -12 375.474 201.25 1
12 -12 -12 442.84 264.234 2
-12 0 -12 827.191 355.925 4
12 0 12 433.475 295.788 1
0 12 -12 507.921 315.506 3
12 -12 -15 1411.52 533.645 1
12 0 15 489.175 239.402 1
-12 12 15 901.436 342.112 1
12 -12 -15 1808.44 706.33 2
0 -12 15 957.544 380.689 1
0 12 -15 1421.79 538.758 3
12 1 -16 325.095 524.552 2
1 -13 -16 355.427 244.624 2
1 12 16 53.5319 114.318 1
-13 1 16 166.521 314.98 1
1 12 16 177.721 93.9751 1
-13 1 16 165.628 171.018 3
-13 1 13 -149.338 117.352 3
12 1 -13 442.119 319.683 2
1 -13 -13 390.911 276.041 2
-13 1 13 195.355 300.896 1
1 -13 -13 231.82 173.713 3
-13 12 -13 -9.15924 81.3187 4
1 -13 -10 4265.1 532.6 2
12 1 -10 5732.96 1325.88 2
-13 1 10 4168.02 919.892 1
1 -13 -10 4149.89 699.542 3
1 -13 -7 1768.23 256.547 2
1 12 7 2417.3 538.247 3
-13 1 7 2359.41 588.9 1
1 -13 -7 2458.17 519.526 3
12 1 -4 4925.56 901.143 1
12 -13 4 4653.26 728.388 1
12 1 -4 5246.27 973.547 2
-13 1 4 4846.15 870.063 2
12 -13 4 4835.24 523.539 4
1 -13 -4 4326.66 809.285 4
-13 12 -4 5020 857.788 2
1 -13 -4 4263.03 666.61 3
1 12 4 4151.17 695.891 3
-13 1 4 4983.18 891.018 1
1 12 1 125.348 145.339 3
1 -13 -1 209.731 110.6 3
-13 1 1 13.5035 176.495 1
-13 1 1 216.301 301.444 2
1 12 1 -541.43 447.824 4
12 1 -1 587.841 317.729 2
1 -13 -1 324.094 245.93 4
-13 12 -1 -22.168 149.344 2
-13 12 -1 -25.8305 142.153 1
12 -13 1 71.6098 113.312 1
12 1 -1 200.796 137.013 1
12 -13 -2 902.918 294.485 2
-13 12 2 1156.77 365.914 1
-13 1 -2 1661.82 471.83 2
-13 12 2 1598.49 482.294 2
1 -13 2 1238.26 404.715 4
-13 1 -2 1624.29 426.516 1
1 12 -2 979.12 380.141 3
1 -13 2 1442.26 399.991 3
12 1 2 1538.22 446.889 2
12 1 2 1383.76 420.518 4
12 1 2 1616.81 421.668 1
1 12 -2 1731.4 498.45 4
12 -13 -2 1248.75 401.942 1
12 -13 -5 591.004 186.641 1
12 1 5 594.29 284.092 1
-13 1 -5 611.755 281.295 1
-13 12 5 925.165 372.675 2
-13 1 -5 413.322 222.884 2
1 12 -5 396.528 277.262 3
12 1 5 628.142 292.875 4
1 12 -5 898.099 403.348 4
-13 12 5 431.804 160.271 1
12 -13 -5 131.041 133.266 2
12 1 8 2172.64 489.111 1
-13 1 -8 2412.84 565.023 1
-13 12 8 1926.58 600.767 2
-13 12 8 2005.31 506.98 1
1 12 -8 2771.21 741.749 4
12 -13 -8 2184.53 627.692 2
-13 1 -8 1919.47 408.53 4
-13 1 -8 2334.48 581.602 2
12 -13 -8 2452.75 564.772 1
1 12 -8 2873.33 701.696 3
12 1 11 1055.59 335.136 1
12 -13 -11 2424.69 710.485 2
12 -13 -11 1646.6 524.649 1
-13 12 11 1630.5 527.61 1
-13 1 -11 1064.18 368.207 4
12 -13 -14 2258.63 652.003 1
12 -13 -14 1263.68 625.758 2
1 12 -14 1537.38 456.276 3
12 1 14 1074.67 366.553 1
-13 1 -14 995.685 308.953 4
-13 12 14 1789.39 555.682 1
-14 2 14 95.8991 154.797 3
12 2 -14 -219.029 439.723 2
2 -14 -14 -53.978 204.657 2
-14 2 14 -106.891 182.984 1
-14 12 -14 -86.5404 94.6595 4
12 2 -11 546.636 500.673 2
-14 2 11 1031.75 503.366 1
2 -14 -11 1050.82 308.382 2
2 12 8 2026.86 503.346 3
2 -14 -8 932.776 371.041 3
-14 2 8 1412.28 401.039 1
12 2 -8 1830.25 562.699 2
2 -14 -8 1259.83 268.936 2
2 12 5 353.924 216.838 3
-14 2 5 1082.45 373.87 2
12 2 -5 -91.1272 195.573 2
12 2 -5 118.61 324.695 1
2 -14 -5 963.602 205.255 1
2 -14 -5 668.065 282.775 3
12 -14 5 1027.83 228.22 4
-14 2 5 1000.15 427.342 1
12 -14 5 945.069 336.847 1
-14 12 -2 5503.27 850.51 1
-14 2 2 5381.24 874.765 2
-14 12 -2 4764.79 845.667 2
2 12 2 3395.8 780.025 4
2 -14 -2 5214.05 860.518 4
2 -14 -2 4347.41 693.823 3
12 2 -2 5643.72 921.482 2
12 2 -2 5989.05 968.398 1
-14 2 2 5349.95 928.952 1
2 12 2 4236.95 768.971 3
12 -14 2 4738.1 759.981 1
2 12 -1 715.544 390.162 3
-14 2 -1 417.665 275.222 1
2 -14 1 516.566 328.454 3
12 -14 -1 595.846 271.508 1
2 12 -1 281.77 167.979 4
-14 2 -1 781.674 324.057 2
-14 12 1 418.853 280.993 1
12 2 1 831.506 327.469 2
12 -14 -1 647.625 302.751 2
12 2 1 428.902 261.798 1
12 2 1 1069.38 483.014 4
-14 12 1 435.493 219.092 2
2 -14 1 615.831 335.906 4
2 12 -4 2646.06 637.092 3
2 12 -4 2932.05 794.158 4
2 -14 4 2112.32 468.802 4
-14 2 -4 2534.28 599.072 1
-14 2 -4 2389.12 554.468 2
12 2 4 2081.93 468.726 2
-14 12 4 1839 544.579 2
12 -14 -4 1315.5 373.15 1
12 2 4 2541.68 611.844 4
12 2 4 2289.88 499.898 1
12 -14 -4 1552.57 473.197 2
-14 12 4 2182.22 535.076 1
12 2 7 988.09 346.396 4
-14 12 7 1052.37 520.167 2
-14 2 -7 1553.76 491.435 1
12 -14 -7 1687.68 494.028 1
12 2 7 1934.18 457.63 1
-14 2 -7 1187.65 410.191 2
-14 12 7 1652.22 516.303 1
12 -14 -7 763.184 406.161 2
2 12 -7 2029.91 630.531 3
-14 2 -7 1091.26 286.751 4
2 12 -7 2355.01 722.352 4
-14 12 10 1196.13 472.824 1
12 -14 -10 1205.6 415.79 2
12 -14 -10 1051.34 365.379 1
-14 2 -10 1201.7 339.822 4
12 2 10 1119.04 400.328 1
2 12 -10 1250.93 475.308 3
2 12 -13 873.848 431.26 3
-14 12 13 937.877 413.036 1
12 -14 -13 118.704 149.096 1
12 2 13 200.172 100.291 1
12 -14 -13 567.781 414.149 2
-14 2 -13 575.792 293.489 4
-15 3 15 -26.529 146.227 3
12 3 -15 132.488 336.803 2
3 -15 -15 363.534 287.334 2
-15 3 15 407.743 388.88 1
12 3 -12 2375.95 919.846 2
3 -15 -12 2622.69 542.569 2
-15 3 12 2603.55 695.508 1
3 -15 -9 775.862 266.41 2
12 3 -9 2215.06 849.479 2
-15 3 9 1502.17 515.212 1
12 -15 6 8714.1 702.819 4
3 -15 -6 9184.91 627.154 1
3 12 6 10442.1 1201.83 3
-15 3 6 11659.6 1410.2 1
3 12 3 1342.82 531.078 3
-15 3 3 2756.43 730.423 1
3 12 3 902.492 204.262 2
-15 3 3 2962.16 734.986 2
12 3 -3 1549.81 541.221 2
-15 12 -3 1699.19 511.172 1
12 3 -3 1389.44 502.301 1
3 -15 -3 2759.39 677.014 4
12 -15 3 1928.14 513.317 1
-15 12 -3 1846.36 554.019 2
3 12 3 1333.99 574.835 4
12 -15 0 2896.51 552.057 1
3 12 0 3534.2 690.916 3
3 12 0 2893.93 699.909 4
-15 3 0 3822.32 748.25 2
12 3 0 3722.05 682.546 2
-15 3 0 3865.12 761.992 1
-15 12 0 2290.96 551.862 1
-15 12 0 3260.65 697.601 2
12 3 0 3137.45 695.704 4
12 3 0 4657.16 804.517 1
3 -15 0 2689.13 593.252 4
3 12 -3 -53.1056 195.995 3
3 12 -3 -90.5651 254.205 4
-15 3 -3 140.164 211.584 1
-15 12 3 317.238 265.387 1
-15 3 -3 186.368 120.876 2
3 -15 3 209.893 152.047 4
-15 12 3 160.905 228.009 2
12 3 3 61.2821 107.304 2
12 3 3 397.877 209.78 4
12 -15 -3 74.4538 116.854 2
12 3 3 -173.201 173.112 1
12 -15 -3 64.9566 188.652 1
12 3 6 1152.73 370.637 1
-15 12 6 959.66 450.267 1
12 -15 -6 1025.05 427.319 1
-15 12 6 813.799 470.614 2
3 12 -6 1569.97 594.714 3
12 -15 -6 712.682 453.388 2
-15 3 -6 630.907 294.115 2
-15 3 -6 813.59 264.269 1
12 3 6 803.397 371.008 4
3 12 -6 1972.51 726.758 4
3 12 -9 172.091 273.4 3
12 -15 -9 517.571 277.417 1
-15 12 9 807.597 406.279 1
-15 3 -9 530.35 347.523 1
12 -15 -9 280.694 297.507 2
12 3 9 346.193 178.688 1
-15 3 -9 240.916 174.39 4
-15 3 -9 134.743 156.397 2
-15 12 12 629.586 345.556 1
12 -15 -12 784.771 375.655 1
12 -15 -12 606.362 421.03 2
-15 3 -12 503.371 255.446 4
3 12 -12 675.498 311.718 3
12 3 12 700.421 327.383 1
12 3 15 91.6298 143.374 1
12 -15 -15 265.68 353.925 2
-15 12 15 57.6516 234.967 1
3 12 -15 384.818 253.02 3
12 -15 -15 1005.46 485.577 1
-15 3 -15 594.765 342.692 4
12 4 -13 683.604 354.686 2
4 -16 -13 90.3549 119.404 2
-16 4 13 595.737 291.625 1
12 4 -10 34.2437 356.808 2
4 -16 -10 414.343 240.638 2
-16 4 10 402.344 306.792 1
4 -16 -7 757.819 179.558 1
12 -16 7 1054.51 253.639 4
4 -16 -7 1056.88 248.889 2
-16 4 7 659.514 405.226 1
4 12 4 9525.11 1173.47 3
12 4 -4 10983.2 1420.25 2
-16 4 4 12237.3 1461.76 2
4 12 4 7862.46 1233.02 4
-16 12 -4 8747.05 1139.37 1
4 -16 -4 8277.25 732.055 1
-16 4 4 13203.4 1471.02 1
12 -16 4 8015.03 1018.76 1
4 -16 -4 8765.18 1225.49 4
12 -16 4 7792.72 809.091 4
12 4 -4 10727.2 1434.77 1
4 12 1 6330.9 1129.67 4
4 12 1 6664.79 699.286 2
12 4 -1 6452.15 981.608 2
-16 4 1 9657.96 1242.91 2
-16 12 -1 7959.65 1126.25 2
-16 4 1 8978.92 1203.56 1
12 -16 1 6791.16 892.225 1
12 4 -1 5913.26 1051.14 4
-16 12 -1 7799.7 1078.93 1
4 12 1 7744.87 1070.1 3
4 -16 -1 9209.01 1182.98 4
12 4 -1 7299.74 1067.11 1
4 12 -2 -170.547 345.527 3
12 4 2 326.505 333.359 4
4 12 -2 313.571 237.299 4
-16 12 2 351.034 252.122 1
12 -16 -2 254.186 193.251 1
-16 12 2 -143.989 277.932 2
-16 4 -2 438.712 283.548 2
12 4 2 307.993 236.979 2
4 -16 2 189.194 271.934 4
12 4 2 111.403 143.61 1
12 -16 -2 220.404 170.704 2
-16 4 -2 33.888 155.314 1
4 12 -5 3716.43 776.57 3
12 -16 -5 4454.51 733.245 1
-16 12 5 5005.78 871.719 1
12 4 5 4611.49 674.082 2
12 4 5 5145.43 923.167 4
-16 4 -5 3559.63 667.264 2
-16 4 -5 3736.13 714.234 1
4 -16 5 3417.2 602.949 4
12 -16 -5 4068.97 766.98 2
12 4 5 4539.67 705.365 1
4 12 -8 621.322 426.893 3
-16 12 8 589.288 368.508 1
-16 4 -8 433.275 266.96 1
-16 4 -8 759.01 401.907 2
12 -16 -8 920.822 420.66 2
12 4 8 761.336 316.223 1
12 -16 -8 869.988 366.852 1
4 12 -11 117.069 325.864 3
-16 12 11 531.302 283.94 1
12 -16 -11 126.57 210.558 2
12 -16 -11 39.9811 136.988 1
12 4 11 146.491 118.734 1
-16 4 -11 -188.261 210.71 4
12 4 14 188.29 177.776 1
-16 12 14 677.229 388.834 1
12 -16 -14 625.119 356.231 1
-16 4 -14 203.692 174.547 4
12 -16 -14 630.978 385.79 2
4 12 -14 159.212 378.093 3
12 5 -14 664.547 390.111 2
-17 5 14 -323.662 361.096 1
5 -17 -14 135.328 246.235 2
12 5 -11 1549.68 717.314 2
5 -17 -11 1607.73 484.194 2
-17 5 11 365.959 271.343 1
5 -17 -8 840.262 219.398 1
12 5 -8 647.621 505.882 2
5 12 8 890.584 200.172 1
-17 5 8 1615.87 592.205 1
5 -17 -8 2101.65 472.508 2
5 12 5 541.59 212.522 1
-17 5 5 478.984 182.874 1
-17 12 -5 1504.73 577.277 1
12 5 -5 820.951 302.381 2
12 -17 5 1229.34 363.062 4
5 -17 -5 1291.99 298.081 1
12 5 -2 2000.42 636.03 4
-17 12 -2 2349.38 615.579 1
5 12 2 2392.2 395.826 2
5 -17 -2 2100.77 565.627 4
12 5 -2 2709.21 648.134 2
12 5 -2 2896.59 721.312 1
-17 5 2 3237.5 805.981 1
-17 5 2 2814.07 746.738 2
12 -17 2 2314.26 564.385 1
5 12 2 2452.37 605.833 3
5 12 2 2066.41 432.026 1
-17 12 1 492.836 369.054 2
5 12 -1 276.303 351.139 3
5 -17 1 445.671 289.51 4
5 12 -1 169.474 134.382 2
-17 5 -1 134.553 131.44 1
-17 12 1 427.93 322.786 1
12 -17 -1 305.965 267.489 1
12 5 1 300.615 227.172 2
-17 5 -1 417.759 300.389 2
12 5 1 162.075 221.74 1
12 5 1 751.895 428.475 4
5 12 -4 2530.47 710.65 3
-17 5 -4 2238.7 610.582 1
5 -17 4 1901.86 456.07 4
-17 5 -4 2351.32 590.324 2
12 5 4 2586.85 572.098 1
12 -17 -4 1594.21 463.148 2
12 5 4 2538.43 682.307 4
-17 12 4 2449.04 667.014 1
12 5 4 2184.76 464.038 2
12 -17 -4 2225.59 519.581 1
12 5 7 936.561 318.047 1
12 -17 -7 504.925 253.236 1
12 5 7 389.236 220.871 4
-17 12 7 632.175 339.609 1
-17 5 -7 477.458 280.869 2
5 12 -7 510.266 414.133 3
-17 5 -7 919.184 380.665 1
12 -17 -7 579.328 298.834 2
-17 12 10 395.504 260.104 1
12 -17 -10 671.942 306.14 1
12 5 10 430.599 253.165 1
5 12 -10 -374.777 421.331 3
12 -17 -10 -77.3985 190.882 2
5 12 -13 -79.4728 436.984 3
-17 12 13 188.112 161.947 1
12 5 13 628.081 234.444 1
12 -17 -13 335.672 303.23 2
-17 5 -13 122.588 82.8596 4
12 -17 -13 618.59 342.828 1
6 -18 -12 118.734 86.1136 1
12 6 -12 583.245 266.864 2
6 -18 -12 -476.159 302.902 2
-18 6 12 301.889 439.671 1
6 12 9 1414.66 248.073 1
12 6 -9 1236.19 499.201 2
6 -18 -9 1542.39 288.486 1
6 -18 -9 2079.19 508.695 2
-18 6 9 1101.04 420.382 1
6 12 6 80.6617 120.887 1
6 -18 -6 361.174 179.778 1
-18 6 6 272.906 287.964 1
12 -18 6 363.402 191.558 4
-18 12 -6 536.776 439.116 1
12 6 -6 179 267.075 2
6 12 3 3464.61 452.256 2
6 -18 -3 4167.6 608.469 1
12 6 -3 4581.85 965.456 2
-18 6 3 4944.86 938.646 1
-18 12 -3 2943.29 697.185 1
12 -18 3 2823.4 555.35 4
6 -18 -3 3857.5 880.887 4
6 12 3 3548.88 598.742 1
6 -18 0 1348.58 520.602 4
6 12 0 1907.64 576.167 3
6 12 0 1466.19 335.439 2
12 6 0 2059.65 609.653 1
12 6 0 1394.7 448.224 2
12 -18 0 1134.14 391.962 1
-18 12 0 1549.75 521.434 1
-18 6 0 1458.18 557.286 2
6 12 0 1540.48 465.516 1
12 6 0 1630.89 615.239 4
-18 6 0 1226.56 488.964 1
6 12 -3 3585.99 768.762 3
6 12 -3 3571.58 696.43 2
12 6 3 4103.29 921.687 4
-18 6 -3 3709.67 782.733 1
12 6 3 3809.54 632.583 2
12 -18 -3 3635.55 665.061 1
-18 6 -3 2796.17 649.889 2
6 -18 3 2626.51 570.268 4
12 -18 -3 3461.72 691.392 2
-18 12 3 3745.35 779.875 1
12 6 3 3516.42 684.643 1
-18 6 -6 396.103 326.995 1
6 12 -6 327.457 283.551 3
12 -18 -6 430.714 265.507 1
-18 12 6 1313.5 531.944 1
12 6 6 756.807 331.282 4
12 -18 -6 1017.59 399.427 2
6 -18 6 668.327 330.487 4
12 6 6 660.855 336.213 1
12 6 9 1284.46 430.496 1
-18 12 9 1769.82 592.368 1
-18 6 -9 1449.43 513.975 1
12 -18 -9 1788.72 638.3 2
12 -18 -9 1837.91 505.005 1
6 12 -9 2023.26 730.963 3
-18 12 12 864.566 473.96 1
12 6 12 65.6991 158.924 1
12 -18 -12 502.241 297.872 1
12 -18 -12 362.844 344.651 2
6 12 -12 149.325 310.393 3
7 -19 -13 205.45 104.9 1
12 7 -13 270.474 313.243 2
7 12 13 140.856 97.0188 1
7 -19 -13 406.798 214.528 2
-19 7 13 535.045 397.52 1
-19 7 10 639.602 389.805 1
12 7 -10 528.781 304.705 2
7 12 10 856.414 221.499 1
7 -19 -10 957.19 377.439 2
7 -19 -10 912.82 243.001 1
-19 7 7 1256.33 549.08 1
7 12 7 1219.18 297.124 1
12 -19 7 762.502 290.032 4
-19 12 -7 1511.23 502.595 1
7 -19 -7 1067.43 351.474 2
7 -19 -7 1274.27 352.41 1
12 7 -7 408.184 358.034 2
7 12 4 524.634 252.535 1
12 7 -4 172.019 334.75 2
7 -19 -4 1296.52 324.881 1
-19 7 4 733.815 360.287 1
7 12 4 1014.22 226.511 2
-19 12 -4 1251 519.222 1
12 -19 4 972.719 369.354 4
7 12 1 346.957 246.09 1
7 -19 -1 1138.54 442.081 4
7 12 1 715.025 235.193 2
12 -19 1 820.083 314.183 1
12 7 -1 1216.95 434.681 1
12 7 -1 1081.57 408.774 2
-19 12 -1 819.92 370.912 1
-19 7 1 1013.95 450.969 1
-19 12 2 1933.42 616.722 1
7 12 -2 2019.69 629.222 3
-19 7 -2 1535.28 483.689 1
7 12 -2 2283.24 607.402 2
12 7 2 2130.06 557.059 1
12 7 2 1769.18 456.215 2
7 -19 2 1614.45 483.469 4
12 -19 -2 1807.19 461.831 1
7 12 -2 2272.41 593.154 1
7 12 -5 569.473 453.708 3
7 12 -5 843.744 298.183 2
12 7 5 -25.3929 186.086 1
12 -19 -5 -251.242 198.106 1
12 7 5 298.981 189.144 2
7 -19 5 97.13 156.284 4
12 -19 -5 112.695 123.278 2
-19 7 -5 288.011 315.253 1
-19 12 5 1066.63 504.158 1
7 12 -8 317.567 370.489 3
12 -19 -8 515.484 354.689 2
7 12 -8 367.988 354.111 2
12 -19 -8 1061.78 411.353 1
-19 12 8 860.916 487.578 1
-19 7 -8 991.375 441.28 1
12 7 8 787.521 273.242 1
7 12 -11 -408.158 399.305 3
7 12 -11 551.158 563.387 2
12 7 11 256.408 177.159 1
12 -19 -11 -34.8842 181.85 2
-19 12 11 -83.6819 228.339 1
12 -19 -11 159.722 137.188 1
12 8 -11 -186.652 586.815 2
8 12 11 90.0774 84.7168 1
-20 8 11 -222.674 315.514 1
8 -20 -11 189.406 76.9678 1
8 -20 -11 154.898 199.172 2
-20 8 8 1114.27 482.836 1
-20 12 -8 778.26 469.065 1
12 8 -8 352.574 284.524 2
8 12 8 737.305 252.306 1
8 -20 -8 795.212 257.45 1
12 -20 8 443.073 138.345 4
8 -20 -8 866.395 400.855 2
-20 12 -5 2917.09 747.661 1
8 12 5 3654.45 433.598 2
12 8 -5 4915.37 1017.81 2
-20 8 5 4624.35 939.731 1
8 -20 -5 3881.52 602.937 1
12 -20 5 3410.37 603.302 4
8 12 5 4321.89 663.66 1
-20 8 2 3719.11 851.007 1
8 12 2 3114.45 617.961 1
8 12 2 3287.47 559.463 2
12 8 -2 3336.54 769.448 2
8 -20 -2 2715.73 560.123 1
8 -20 -2 3185.84 784.223 4
12 -20 2 2732.56 612.93 4
-20 12 -2 2753.1 738.973 1
8 12 -1 3177.48 660.726 1
-20 8 -1 3746.39 850.125 1
-20 12 1 3333.56 798.926 1
8 12 -1 3385.8 721.083 2
12 -20 -1 2469.2 612.12 1
12 8 1 2617.86 562.862 2
8 -20 1 2693.61 672.173 4
12 8 1 3116.32 696.052 1
8 12 -4 15.672 146.482 2
12 -20 -4 705.996 354.909 1
12 8 4 682.548 322.331 1
12 8 4 309.526 237.447 2
8 -20 4 274.181 294.245 4
-20 12 4 365.618 205.146 1
-20 8 -4 164.118 240.593 1
8 12 -7 873.836 357.402 2
12 8 7 416.099 209.359 1
8 -20 7 581.404 285.367 4
-20 12 7 1223.96 500.324 1
12 -20 -7 698.593 347.182 2
12 -20 -7 669.171 278.56 1
-20 8 -7 571.292 377.402 1
12 8 10 -63.211 171.62 1
8 12 -10 394.406 385.51 2
-20 12 10 404.832 283.604 1
12 -20 -10 37.0018 148.124 2
12 -20 -10 -98.9045 178.559 1
-20 12 13 172.59 232.234 1
8 12 -13 361.761 533.819 2
12 8 13 -58.3567 160.589 1
12 -20 -13 106.712 163.931 1
12 -20 -13 -117.913 214.043 2
-21 9 12 711.688 261.672 1
9 -21 -12 298.036 167.91 2
9 -21 -12 183.344 166.216 1
9 12 12 454.204 174.343 1
9 -21 -9 726.472 353.827 2
-21 9 9 604.908 427.332 1
9 -21 -9 411.747 214.532 1
12 9 -9 239.468 354.363 2
9 12 9 541.786 209.811 1
9 -21 -6 394.728 221.888 1
12 -21 6 12.2873 196.912 4
9 12 6 553.469 253.977 1
12 9 -6 805.554 438.921 2
-21 12 -6 548.031 429.025 1
-21 9 6 749.266 312.978 1
12 -21 3 803.448 323.279 4
9 12 3 501.522 253.538 1
12 9 -3 340.142 303.593 2
9 12 3 854.369 261.16 2
-21 12 -3 604.818 329.434 1
-21 9 3 1149.26 448.018 1
9 -21 -3 536.719 270.987 1
-21 9 0 1617.28 561.763 1
9 12 0 2320.57 650.824 1
12 -21 0 1874.61 559.615 1
12 9 0 1428.4 480.438 1
9 12 0 1895.64 433.743 2
-21 12 0 2352.58 708.199 1
12 9 0 2180.48 575.522 2
12 -21 0 1907.52 598.911 4
9 -21 0 1800.59 542.937 4
9 12 -3 1181.84 507.493 2
12 9 3 731.424 329.369 1
-21 9 -3 156.543 173.684 1
12 9 3 519.188 234.379 2
12 -21 -3 1357.45 417.78 1
9 -21 3 639.511 270.881 4
-21 12 3 963.622 452.016 1
12 9 6 1190.85 350.778 2
12 -21 -6 1073.84 462.028 1
9 12 -6 478.232 180.486 2
-21 9 -6 768.309 394.804 1
12 9 6 972.365 374.333 1
-21 12 6 2193.33 662.529 1
9 -21 6 586.81 187.793 4
12 -21 -6 1156.65 433.692 2
12 -21 -9 303.069 194.625 1
9 12 -9 1096.3 458.318 2
12 -21 -9 839.31 406.926 2
-21 12 9 41.5314 320.198 1
-21 9 -9 872.604 512.937 1
12 9 9 229.605 202.779 1
-21 12 12 41.8965 270.239 1
9 12 -12 -438.99 404.528 2
12 -21 -12 278.801 228.362 1
12 -21 -12 -163.319 373.424 2
12 9 12 259.318 181.398 1
-22 10 10 309.187 348.009 1
12 10 -10 1008.6 571.734 2
10 12 10 715.36 259.004 1
10 -22 -10 810.085 378.037 2
10 -22 -10 1065.83 302.399 1
-22 12 -7 180.385 286.699 1
12 10 -7 325.414 412.241 2
10 12 7 990.149 312.005 1
-22 10 7 856.07 444.433 1
12 -22 7 750.958 299.23 4
10 -22 -7 1057.88 378.549 1
-22 10 4 4237.65 961.547 1
10 12 4 4191.9 596.828 2
-22 12 -4 3345.54 795.762 1
10 12 4 3964.87 712.295 1
12 10 -4 4561.68 996.854 2
12 -22 4 3528.74 671.572 4
10 -22 -4 4030.54 703.247 1
10 -22 -1 721.132 360.568 1
10 12 1 413.58 127.354 1
12 10 -1 989.255 328.951 2
10 -22 -1 701.452 411.276 4
10 12 1 766.053 178.533 2
-22 12 -1 1105.11 459.893 1
12 -22 1 428.384 190.986 4
-22 12 2 3973.13 889.772 1
12 -22 -2 2929.31 646.164 1
12 10 2 3564.55 755.162 1
-22 10 -2 2995.67 816.416 1
12 10 2 3607.92 687.876 2
10 -22 2 3115.87 667.774 4
10 12 -2 3670.02 794.435 2
10 -22 5 261.703 245.483 4
-22 10 -5 -400.338 365.861 1
12 -22 -5 557.92 284.027 1
-22 12 5 436.95 394.582 1
10 12 -5 327.262 214.682 2
12 10 5 212.441 143.145 1
12 10 5 268.501 220.996 2
10 12 -8 1028.4 596.717 2
12 -22 -8 967.776 420.078 2
12 -22 -8 899.606 418.638 1
-22 12 8 770.619 454.894 1
12 10 8 631.091 256.484 1
10 -22 8 788.609 307.123 4
-22 10 -8 650.618 414.019 1
10 12 -11 540.446 422.313 2
-22 12 11 -374.02 394.875 1
12 10 11 445.192 254.899 1
12 -22 -11 264.729 255.164 1
12 -22 -11 -588.044 445.62 2
12 11 -11 233.92 509.862 2
-23 11 11 412.748 391.947 1
11 12 11 271.847 181.65 1
11 -23 -11 336.624 360.991 2
11 -23 -11 364.346 188.524 1
-23 12 -8 538.729 333.511 1
12 11 -8 597.565 437.952 2
11 12 8 606.931 275.916 1
-23 11 8 635.96 328.857 1
11 -23 -8 919.489 310.803 1
12 -23 8 632.548 253.494 4
11 -23 -8 1490.47 560.476 2
12 11 -5 818.316 444.983 2
11 12 5 616.96 362.729 1
-23 12 -5 109.166 233.03 1
11 12 5 689.604 231.119 2
11 -23 -5 619.908 344.812 1
12 -23 5 515.802 296.667 4
-23 11 5 877.9 526.652 1
11 12 2 81.862 259.809 1
11 -23 -2 150.167 176.529 1
12 11 -2 -30.7825 250.984 2
11 12 2 105.12 141.439 2
-23 12 -2 402.411 246.976 1
11 -23 -2 399.907 401.182 4
12 -23 2 251.963 277.061 4
-23 11 2 775.527 439.075 1
-23 12 1 712.097 413.116 1
12 11 1 361.165 154.169 1
-23 11 -1 1645.49 629.169 1
11 12 -1 1149.61 492.042 2
12 11 1 696.755 385.842 2
11 -23 1 169.374 196.753 4
12 -23 -1 598.926 422.467 4
12 -23 -1 72.0385 179.293 1
-23 12 4 1195.76 415.796 1
11 12 -4 844.61 516.819 2
12 11 4 13.3009 194.541 1
11 -23 4 441.661 252.092 4
12 -23 -4 344.826 198.038 1
12 11 4 323.146 259.479 2
-23 11 -4 80.7454 182.475 1
11 12 -7 196.972 419.967 2
12 11 7 547.923 280.267 1
-23 12 7 22.4881 174.449 1
11 -23 7 180.329 109.392 4
12 -23 -7 -10.4541 220.073 2
12 -23 -7 111.582 129.434 1
-23 11 -7 84.3246 212.019 1
11 12 -10 73.4317 470.651 2
-23 12 10 78.6588 263.771 1
12 11 10 -347.211 240.291 1
12 -23 -10 186.248 203.617 2
12 -23 -10 243.468 195.937 1
-23 11 -10 607.336 262.177 1
-24 12 0 1967.96 662.958 1
12 12 0 2176.66 605.074 2
12 -24 0 1435.35 518.986 4
12 -24 -3 281.384 131.521 1
12 12 3 509.57 278.468 1
12 12 -3 403.217 342.247 2
12 -24 3 171.394 183.214 4
12 12 3 405.241 268.989 2
-24 12 -3 644.08 368.285 1
-24 12 3 56.6639 191.507 1
12 -24 -6 927.036 341.581 1
-24 12 6 343.154 189.861 1
12 12 -6 385.484 292.286 2
12 12 6 263.642 251.226 1
12 -24 6 445.604 261.687 4
12 12 6 382.207 220.931 2
-24 12 -6 202.621 249.479 1
-24 12 -9 169.608 293.625 1
12 12 -9 -209.137 323.75 2
12 -24 -9 -221.765 277.613 1
12 12 9 4.43599 153.765 1
-24 12 9 126.675 213.561 1
12 -24 -9 433.788 357.074 2
-6 13 14 183.251 87.8584 3
-6 -7 -14 333.813 250.734 3
-7 -6 14 478.051 320.568 1
13 -6 -14 744.165 608.294 2
-7 -6 14 111.999 88.6847 3
-6 13 14 78.506 96.1701 1
-6 13 11 1472.91 432.48 2
-7 -6 11 1209.02 437.187 1
-6 13 11 1293.07 286.715 1
13 -6 -11 1092.51 462.32 2
-7 13 -11 2214.11 609.016 4
-7 -6 11 906.59 304.176 3
-6 -7 -11 1436.53 403.083 3
-6 13 11 1324.21 342.413 3
-6 -7 -8 1799.05 543.491 4
-6 -7 -8 1837.91 428.994 3
-6 13 8 1522.86 335.647 1
-7 13 -8 492.237 209.716 4
-6 13 8 1169.07 378.781 2
-7 -6 8 2536.83 612.796 1
13 -7 8 1199.79 457.676 1
13 -6 -8 1593.38 494.693 1
13 -6 -8 820.239 336.962 2
-6 13 8 942.124 338.595 3
-7 -6 8 1581.38 433.945 3
-6 -7 -5 9621.48 594.394 2
13 -6 -5 12790.3 1508.29 2
-6 13 5 11770.8 1018.2 2
-6 13 5 10353.3 725.058 1
-6 -7 -5 10891.4 812.519 1
-7 13 -5 10848.6 1100.78 4
-6 -7 -5 11604.9 1238.82 4
13 -7 5 12162.9 1166.77 1
13 -6 -5 12973.7 1453.91 1
-6 13 5 11791.6 1078.3 3
-7 -6 5 10693.8 1050.98 3
-6 -7 -5 12607.3 1243.06 3
-7 -6 5 10662.2 1166.17 1
13 -7 5 8938.87 553.78 4
-6 -7 -2 3750.26 658.597 3
-6 -7 -2 3311.84 401.126 2
13 -6 -2 4065.98 735.015 1
-6 13 2 3471.98 506.929 2
-7 -6 2 3854.15 648.397 1
-6 -7 -2 3340.83 600.414 4
13 -6 -2 3852.21 724.972 2
13 -7 2 4178.01 684.143 2
-7 -6 2 4096.92 664.158 3
13 -7 2 4233.58 670.245 1
-6 -7 -2 3839.63 554.682 1
-7 -6 -1 1557.29 378.837 1
-6 -7 1 1510.89 370.378 3
-7 -6 -1 1165.53 365.825 3
-7 -6 -1 1599.08 319.317 2
13 -6 1 1661.26 412.195 1
13 -7 -1 1899.71 479.157 1
-6 -7 1 1515.8 394.962 1
13 -6 1 1920.65 441.571 2
-7 -6 -1 1326.37 406.102 4
-7 13 1 1350.33 335.162 2
13 -7 -1 2155.04 483.576 2
13 -6 4 624.389 234.971 1
-6 -7 4 885.433 308.684 1
-7 -6 -4 752.629 222.816 1
-6 -7 4 943.858 277.336 3
-7 -6 -4 644.698 196.13 2
13 -7 -4 654.743 326.607 2
-7 13 4 570.648 152.507 1
-7 13 4 649.141 241.192 2
-7 -6 -4 1098.51 386.856 4
-6 13 -4 494.732 218.695 4
13 -7 -4 679.366 303.613 1
-6 -7 7 6846.84 928.781 1
-7 13 7 7378.4 885.077 2
13 -7 -7 10312.8 1449.26 2
13 -7 -7 8230.92 1184.72 1
-7 -6 -7 6838.59 580.689 2
-6 -7 7 7952.19 906.436 3
-7 -6 -7 6996.38 664.166 1
-6 13 -7 7323.1 901.348 4
13 -6 7 6681.39 892.779 1
-7 13 7 7281.34 679.558 1
-7 -6 -7 7108.36 990.416 4
-7 13 10 1172.85 368.723 2
-6 -7 10 560.225 266.736 1
13 -7 -10 585.968 361.836 2
-7 13 10 869.718 224.578 1
-6 -7 10 1242.64 351.892 3
-6 13 -10 598.716 321.333 4
13 -6 10 672.313 197.279 1
-7 13 10 919.461 250.4 3
13 -7 -10 1277.27 410.334 1
-7 -6 -10 1224.5 329.558 4
-7 13 13 1963.12 404.955 1
-7 -6 -13 1915.1 499.332 3
-6 -7 13 1613.3 500.167 1
13 -7 -13 2712.38 918.909 2
-6 -7 13 1514.31 396.656 3
-7 13 13 1468.51 323.022 3
-7 13 16 172.746 129.654 3
-7 -6 -16 -79.6323 242.79 3
-7 13 16 -130.725 198.215 1
-6 -7 16 -45.339 222.827 1
13 -7 -16 -34.0161 242.841 2
-6 13 -16 301.501 265.086 3
-5 -8 -15 697.44 357.829 3
13 -5 -15 826.065 542.012 2
-8 -5 15 279.346 277.454 1
-8 -5 15 579.106 256.898 3
-5 13 15 576.029 233.076 1
-5 -8 -12 819.142 255.917 3
-5 13 12 689.477 219.981 1
-8 -5 12 625.244 351.682 1
-8 -5 12 394.04 123.03 3
-5 13 12 677.448 250.471 3
-8 -5 9 1630.16 394.168 3
-5 -8 -9 1632.37 407.77 3
-5 13 9 1806.05 295.962 1
13 -8 9 1229.92 381.632 1
-5 13 9 1546.22 385.156 2
-8 -5 9 1477.25 446.342 1
13 -5 -9 1601.39 553.508 2
13 -5 -9 1728.92 589.163 1
-5 -8 -9 1498.34 446.789 4
-8 13 -9 1690.63 394.351 4
-5 13 9 1951.13 397.54 3
-5 -8 -6 1228.68 399.997 4
-5 -8 -6 1324.01 433.741 3
13 -8 6 920.358 332.156 1
-8 13 -6 759.317 208.67 4
-8 -5 6 1413.91 455.935 1
-5 13 6 1144.96 307.632 2
13 -5 -6 1112.65 465.016 2
13 -5 -6 1448.33 428.197 1
-8 -5 6 1027.29 366.158 3
-5 -8 -6 1129.42 236.662 1
-5 13 6 1298.84 363.794 3
-5 -8 -3 1605.99 440.493 3
-8 -5 3 1618.5 454.187 3
-8 -5 3 1118.55 378.205 2
13 -8 3 1288.18 329.581 1
-5 -8 -3 1293.92 426.249 4
-8 -5 3 1729.17 491.325 1
13 -5 -3 1346.44 478.255 2
-5 13 3 1642.46 377.645 2
-5 -8 -3 771.398 209.452 1
-5 13 3 1392.68 414.906 3
13 -5 -3 1941.17 550.877 1
-5 -8 0 3292.4 584.911 3
-8 -5 0 3003.83 492.518 2
-8 13 0 2957.46 527.496 2
13 -5 0 2907.04 587.795 1
13 -5 0 2909.85 610.404 2
-5 -8 0 2556.6 474.64 1
13 -8 0 3291.35 642.224 2
-8 -5 0 3028.04 511.955 1
-5 -8 0 1809.98 412.156 4
13 -8 0 2982.58 567.833 1
-8 -5 -3 4703.43 531.818 2
-8 -5 -3 4354.18 593.039 1
-8 13 3 3578.25 491.831 1
13 -8 -3 3790.55 712.195 1
-8 -5 -3 3812.55 592.137 4
13 -5 3 4785.41 757.621 1
-8 13 3 3591.49 595.241 2
-5 -8 3 4360.04 678.691 3
-5 13 -3 4196.4 722.256 4
13 -5 3 4277.75 707.945 2
-5 -8 3 4898.43 725.253 1
13 -8 -3 4501.04 838.865 2
-8 -5 -6 3172.68 422.065 2
-8 -5 -6 4590.24 777.587 4
-8 13 6 3483.34 599.086 2
-8 13 6 3282.04 491.283 1
13 -8 -6 4285.35 849.122 2
-8 -5 -6 4618.81 600.799 1
13 -5 6 2919.85 375.952 4
-5 -8 6 3884.32 708.621 1
-5 13 -6 2927.86 584.155 4
-5 -8 6 3282.43 574.586 3
13 -8 -6 3236.08 713.918 1
13 -5 6 3822.26 654.454 1
13 -5 9 99.3245 110.526 1
-5 -8 9 569.354 372.924 1
-8 13 9 418.618 294.164 2
13 -8 -9 193.47 329.441 2
13 -8 -9 962.571 435.114 1
-8 13 9 279.931 101.093 1
-8 -5 -9 296.015 299.169 4
-5 13 -9 236.428 339.335 4
-5 -8 9 635.504 202.331 3
-8 13 12 1422.9 439.29 2
-5 -8 12 1161.96 344.642 3
-8 13 12 1224.44 332.233 1
-5 -8 12 1197.1 437.339 1
13 -8 -12 1743.5 693.691 2
-8 13 12 1329.07 346.618 3
-5 13 -12 1500.88 453.304 3
-5 -8 15 295.962 297.851 1
13 -8 -15 -98.7568 424.915 2
-5 13 -15 65.8667 256.832 3
-8 13 15 352.093 207.806 1
-8 13 15 256.608 143.131 3
13 -4 -16 475.113 532.789 2
-9 -4 16 226.161 303.553 1
-4 13 16 -36.0913 139.42 1
-9 -4 16 205.751 124.421 3
-4 -9 -16 299.074 246.883 3
13 -4 -13 1624.58 796.713 2
-9 -4 13 842.202 368.128 1
-4 13 13 860.612 292.223 3
-4 13 13 525.602 170.687 1
-9 -4 13 733.557 260.288 3
-4 -9 -13 834.541 366.097 3
-9 -4 10 724.895 260.676 3
-4 13 10 541.598 213.48 3
13 -4 -10 607.461 388.522 2
-9 -4 10 569.658 278.473 1
-4 -9 -10 377.091 204.453 3
-9 13 -10 506.108 101.692 4
-4 13 10 354.52 106.881 1
-4 -9 -7 2882.41 568.668 3
-9 -4 7 3278.91 568.108 3
-4 13 7 3207.73 481.342 2
-4 -9 -7 2454.78 275.162 1
-4 -9 -7 2735.95 592.169 4
-9 13 -7 2745.36 448.667 4
13 -4 -7 3961.58 869.485 2
-9 -4 7 3110.03 641.558 1
13 -4 -7 3448.08 806.12 1
13 -9 7 2577.08 529.6 1
-4 13 7 2922.94 521.97 3
-4 13 4 2069.4 374.328 2
-4 -9 -4 1878.38 462.952 3
-9 -4 4 1657.74 496.524 3
-9 -4 4 1587.56 471.088 2
13 -9 4 2108.26 477.102 1
13 -4 -4 1846.13 625.429 2
-9 -4 4 1284.98 425.108 1
-4 -9 -4 2104.32 593.445 4
13 -4 -4 2057.64 640.883 1
-4 -9 -4 2209.24 365.555 1
-4 13 4 1837.95 466.46 3
-9 -4 1 3838.77 657.062 1
13 -4 -1 4079.21 718.297 1
-9 -4 1 4257.79 639.373 2
-4 13 1 3703.66 645.101 3
13 -9 1 4327.22 680.915 1
13 -4 -1 4230.46 774.561 2
-4 -9 -1 3151.47 564.107 4
-4 -9 -1 3847.42 687.528 3
13 -9 1 4280.56 721.867 2
-9 13 -1 3886.31 635.258 2
-4 -9 -1 3917.86 571.118 1
-9 -4 -2 343.542 186.519 1
-4 13 -2 355.461 176.401 4
-4 -9 2 165.139 173.983 1
-9 -4 -2 324.848 137.901 2
-4 -9 2 457.397 246.122 3
13 -9 -2 430.767 193.792 1
13 -4 2 774.438 311.942 1
13 -4 2 316.709 163.77 2
-4 -9 2 655.024 248.333 4
-9 13 2 184.724 161.797 1
-9 -4 -2 442.378 243.035 4
-4 13 -2 600.044 264.524 3
-9 13 2 532.284 260.669 2
13 -9 -2 738.388 327.32 2
13 -4 5 -167.276 244.131 1
-4 -9 5 114.895 171.034 1
-9 13 5 456.872 250.848 2
13 -9 -5 209.471 264.16 2
-9 13 5 -373.104 230.387 1
-9 -4 -5 5.0298 81.4764 2
-4 13 -5 106.178 144.105 4
13 -4 5 137.724 95.8977 4
-4 13 -5 700.148 335.571 3
-9 -4 -5 51.6729 170.399 4
-9 -4 -5 43.4364 124.332 1
-4 -9 5 247.681 178.115 3
13 -9 -5 -71.7945 182.41 1
-9 13 8 3783.76 727.484 2
-4 13 -8 3457.11 696.724 3
-4 -9 8 3319.61 674.177 1
-9 -4 -8 3340.09 696.543 4
-9 -4 -8 3835.17 539.681 2
13 -9 -8 3975.85 883.382 2
-9 13 8 2808.11 487.037 1
-4 13 -8 3986.61 755.665 4
13 -9 -8 3469 769.555 1
13 -4 8 2807.05 552.609 1
-4 -9 8 2742.93 535.442 3
-9 -4 -8 3210.38 527.678 1
-4 -9 11 733.056 358.406 1
-9 -4 -11 773.582 343.139 4
-9 13 11 951.466 400.196 2
-9 13 11 793.013 299.07 1
13 -4 11 510.462 192.324 1
13 -9 -11 1180.83 556.815 1
13 -9 -11 1140.27 608.301 2
-4 13 -11 896.433 499.024 3
-4 -9 11 760.618 266.723 3
-9 13 14 170.407 102.162 1
-4 -9 14 376.179 291.864 1
-4 13 -14 347.569 400.556 3
13 -9 -14 373.836 365.425 2
-9 13 14 556.984 188.978 3
-3 13 14 301.366 142.773 1
-3 -10 -14 -144.363 263.606 2
13 -3 -14 298.778 384.136 2
-10 -3 14 -112.782 246.11 1
-3 -10 -14 193.552 237.256 3
-10 -3 14 406.362 226.574 3
-10 -3 11 792.177 317.252 3
-3 13 11 1004.72 277.365 3
13 -3 -11 1087.13 541.769 2
-10 -3 11 619.349 265.569 1
-10 13 -11 1130.1 319.589 4
-3 -10 -11 1048.49 295.651 2
-3 -10 -11 833.317 305.491 3
-3 13 8 14468.5 992.047 2
-3 13 8 15111.9 1254.75 3
-3 -10 -8 12233 1511.29 4
-10 13 -8 13532.4 1039.14 4
13 -3 -8 17475.1 2001.37 2
-10 -3 8 14201.1 1479.97 1
-3 -10 -8 13630.8 1269.59 3
-10 -3 8 12950.2 1192.27 3
-3 13 5 2564.35 382.134 2
-10 -3 5 1744.66 535.533 2
13 -10 5 3113.89 604.434 1
-3 -10 -5 2416.66 332.243 1
13 -3 -5 2582.8 687.844 2
-3 -10 -5 2636.31 658.879 4
-10 -3 5 1309.93 477.353 1
13 -3 -5 2122.03 627.778 1
-3 13 5 2270.16 530.587 3
-3 -10 -5 1767.67 463.478 3
-3 13 2 1511.12 400.41 3
-10 -3 2 1375.46 455.963 2
-3 -10 -2 1549.06 314.263 1
13 -10 2 1560.52 390.244 1
-3 -10 -2 1062.97 386.816 4
13 -3 -2 1423.72 474.37 2
13 -3 -2 1462.16 443.41 1
-10 -3 2 1683.98 490.518 1
-3 -10 -2 1570 424.098 3
-10 -3 -1 1316.35 365.069 1
-3 -10 1 1069.51 311.829 1
13 -3 1 1482.54 438.218 1
-10 -3 -1 1025.3 283.752 2
13 -3 1 1088.56 376.831 2
13 -10 -1 1190.95 379.64 2
-10 13 1 746.2 201.154 2
13 -10 -1 1161.06 340.327 1
-3 -10 1 696.581 290.929 4
-3 13 -1 1150.86 431.19 3
-3 13 -1 732.056 317.621 4
-3 -10 1 581.371 249.24 3
-10 13 1 1076.32 300.273 1
-10 13 4 3138.6 542.775 1
-10 -3 -4 3501.28 540.921 2
13 -3 4 3884.19 560.196 4
13 -10 -4 3573.93 710.347 1
-10 -3 -4 3733.91 607.745 1
-10 13 4 3105.69 607.416 2
-3 13 -4 3386.68 600.756 3
13 -10 -4 3698.44 795.39 2
-3 13 -4 3630.19 658.611 4
-3 -10 4 3890.18 648.681 3
13 -3 4 3586.23 630.287 2
-10 -3 -4 3278.81 536.659 4
13 -3 4 3347.61 597.712 1
-3 -10 4 4050.05 669.098 1
-10 -3 -7 527.972 230.355 2
-3 -10 7 1529.59 469.154 1
13 -3 7 502.607 308.882 1
-10 13 7 689.026 316.646 2
-10 -3 -7 830.778 330.942 4
13 -10 -7 509.594 375.78 2
-3 13 -7 168.74 253.186 3
-10 13 7 323.404 184.447 1
-3 13 -7 929.67 470.582 4
13 -10 -7 406.255 233.629 1
-3 -10 7 214.29 164.501 3
-10 -3 -7 866.467 340.165 1
-3 -10 10 1128.35 409.145 1
-10 13 10 1355.8 476.671 2
-10 13 10 1146.51 336.692 1
13 -10 -10 1855.74 694.689 2
13 -10 -10 2381.55 693.193 1
-3 13 -10 1660.89 502.89 3
-10 -3 -10 1676.7 556.713 4
13 -3 10 683.231 210.299 1
-3 13 -10 2453.97 651.657 4
-3 -10 10 1158.66 355.005 3
-10 13 13 215.804 165.271 1
-3 -10 13 -298.851 385.757 1
13 -10 -13 105.21 235.996 2
-3 13 -13 298.824 365.643 3
-10 -3 -13 -427.783 352.666 4
-3 -10 16 325.233 187.768 1
13 -10 -16 1369.07 815.32 2
-3 13 -16 1903.26 651.477 3
-10 13 16 541.6 268.648 1
-10 13 16 878.748 212.262 3
-2 -11 -15 11.7326 145.345 2
13 -2 -15 324.88 596.566 2
-11 -2 15 124.4 225.215 1
-2 13 15 343.769 142.846 1
-2 -11 -15 365.379 233.743 3
-11 -2 15 31.768 79.5782 3
-2 -11 -12 278.616 153.68 2
13 -2 -12 232.465 407.535 2
-11 13 -12 243.804 155.471 4
-11 -2 12 59.0186 209.19 1
-11 -2 12 333.04 142.724 3
-2 13 12 99.9213 93.808 3
-2 -11 -12 201.12 182.044 3
-2 13 9 2099.25 466.869 3
-11 13 -9 1285.36 262.134 4
13 -2 -9 2463.26 734.624 2
-2 -11 -9 1840.26 266.498 2
-11 -2 9 1765.02 454.559 3
-11 -2 9 2121.3 513.693 1
-2 -11 -9 1677.36 442.215 3
13 -11 6 4668.11 755.172 1
-11 -2 6 6242.84 1002.34 2
-2 13 6 5477.77 516.998 2
13 -2 -6 5759.5 1070.83 2
-2 -11 -6 5086.14 928.962 4
13 -2 -6 5628.17 1038.69 1
-2 -11 -6 5351.97 770.554 3
-2 13 6 5796.86 785.32 3
-11 -2 6 7244.7 1094.74 1
13 -2 -3 1878.16 548.314 1
-11 -2 3 2555.2 586.804 2
-2 -11 -3 2110.06 350.61 1
13 -2 -3 2456.09 655.917 2
13 -11 3 1606.68 405.832 1
-11 -2 3 2838.17 708.51 1
-2 -11 -3 2553.81 631.662 4
-2 13 3 2023.76 313.784 2
-2 -11 -3 1704.02 449.432 3
-2 13 3 2731.99 577.883 3
-2 -11 0 2938.61 612.34 4
-11 -2 0 3935.54 721.507 2
-11 13 0 3961.05 655.126 1
13 -2 0 2955.97 659.541 1
-2 -11 0 3087.65 556.574 1
-11 -2 0 3288.86 703.499 1
13 -2 0 3163 710.379 2
13 -11 0 3267.19 600.984 1
-2 13 0 2681.52 688.612 4
13 -11 0 3359.45 678.528 2
-2 13 0 3001.33 678.399 3
-2 -11 0 2480.06 559.909 3
-11 13 0 3120.87 647.658 2
13 -11 -3 1602.32 528.586 2
13 -2 3 2494.45 513.241 4
13 -2 3 1428.54 405.42 2
-2 -11 3 1508.9 383.062 1
13 -2 3 1972.88 456.193 1
13 -11 -3 2138.86 540.678 1
-11 -2 -3 2298.11 486.708 2
-11 -2 -3 2678.74 548.719 1
-2 13 -3 2121.08 540.758 4
-2 -11 3 1285.44 339.628 4
-11 13 3 2264.92 570.534 2
-11 13 3 1747.26 395.04 1
-2 13 -3 1670.41 430.046 3
-2 -11 3 1569.4 395.779 3
-2 -11 6 673.5 350.357 1
-11 13 6 841.774 297.73 1
-11 -2 -6 732.692 283.991 2
-11 13 6 516.99 245.555 2
-2 13 -6 1080.92 393.204 4
-11 -2 -6 985.039 370.931 1
13 -11 -6 1138.29 438.339 2
-11 -2 -6 717.075 230.528 4
13 -11 -6 536.43 243.044 1
13 -2 6 1434.22 406.282 1
13 -2 6 1094.29 270.573 4
-2 -11 6 922.27 321.946 3
-2 13 -6 1203.84 430.385 3
-2 -11 9 165.26 173.183 1
-11 13 9 234.868 256.053 2
13 -2 9 282.25 198.841 1
13 -11 -9 211.216 265.598 2
-11 13 9 301.938 197.277 1
-11 -2 -9 540.147 272.488 1
-11 -2 -9 160.674 227.407 4
13 -11 -9 190.199 216.787 1
-2 13 -9 642.729 403.213 4
-2 -11 9 203.389 202.182 3
-11 -2 -9 117.654 171.28 2
-2 13 -9 341.772 332.601 3
-2 -11 12 775.177 380.225 1
-11 13 12 301.873 177.25 1
13 -11 -12 867.994 333.698 1
-2 13 -12 1051.15 419.348 3
13 -11 -12 -415.509 488.826 2
-11 -2 -12 602.115 393.786 4
13 -2 12 604.807 288.67 1
-2 -11 15 677.782 321.918 1
13 -11 -15 489.717 410.685 2
-11 13 15 457.326 219.281 3
-2 13 -15 724.447 325.364 3
-11 13 15 857.54 416.116 1
-1 -12 -16 401.078 313.209 2
13 -1 -16 -373.96 462.659 2
-1 -12 -16 626.062 278.638 3
-12 -1 16 223.288 232.462 1
-1 13 16 83.4154 48.048 1
-12 -1 16 169.055 169.069 3
-12 -1 13 311.254 230.787 3
-1 -12 -13 70.7733 116.655 2
13 -1 -13 263.567 289.585 2
-12 13 -13 216.975 187.629 4
-12 -1 13 550.218 340.082 1
-1 -12 -13 239.377 146.591 3
-1 -12 -10 4164.96 485.537 2
-12 -1 10 4235.29 683.459 3
-12 -1 10 4775.03 932.586 1
-1 13 10 4612.86 715.687 3
-1 -12 -10 3883.7 673.796 3
-12 13 -10 3745.3 482.309 4
-1 13 7 1935.5 455.028 3
-12 -1 7 2508.58 651.076 1
13 -1 -7 2180.77 659.57 2
-1 -12 -7 2240.44 506.717 3
-12 -1 4 5468.63 927.982 2
-1 13 4 4420.84 431.754 2
13 -1 -4 4888.41 928.461 2
13 -12 4 3464.49 628.5 1
13 -1 -4 5012.52 952.674 1
-12 -1 4 4812.05 833.185 1
-1 -12 -4 4669.23 826.751 4
-1 -12 -4 4235.23 698.042 3
-1 -12 -4 4122.11 443.804 1
-1 13 4 4139.16 672.674 3
-12 -1 1 288.43 308.447 1
-1 -12 -1 163.354 99.431 1
-12 -1 1 114.732 137.759 2
-1 -12 -1 -58.8516 140.581 3
13 -12 1 307.932 178.254 1
-12 13 -1 226.987 185.919 1
13 -1 -1 -50.4039 171.249 2
-1 13 1 130.926 220.932 4
-1 -12 -1 392.26 302.678 4
-12 13 -1 665.696 318.783 2
13 -1 -1 161.51 224.011 1
13 -12 1 -33.2284 260.672 2
-1 13 1 -98.1093 128.621 3
-12 13 2 1448.41 433.554 1
-1 -12 2 1170.53 329.159 1
13 -1 2 1919.53 509.194 4
13 -12 -2 1528.63 441.952 1
-1 13 -2 1532.42 476.043 4
-12 -1 -2 1278.5 342.236 1
-12 -1 -2 1611.69 415.927 2
-12 13 2 1722.16 482.901 2
13 -1 2 1765.36 514.08 1
13 -1 2 1455.17 425.452 2
13 -12 -2 1421.52 437.12 2
-1 -12 2 1408.07 396.007 4
-1 -12 2 1184.98 390.28 3
-1 13 -2 1145.78 356.238 3
-1 -12 5 201.087 109.36 1
-12 13 5 559.496 247.81 1
-12 -1 -5 289.183 115.107 4
-12 -1 -5 535.308 216.957 2
-12 -1 -5 157.823 115.542 1
13 -12 -5 861.17 380.049 1
-1 -12 5 583.22 269.86 3
13 -12 -5 1048.44 454.855 2
-12 13 5 483.163 217.52 2
13 -1 5 610.974 302.768 1
13 -1 5 968.123 306.029 4
-1 13 -5 769.981 531.37 4
-1 13 -5 546.235 308.536 3
-1 -12 8 1445.89 442.659 1
13 -1 8 1835.16 472.533 1
-12 -1 -8 2030.34 474.887 4
-12 13 8 2567.59 717.612 2
13 -12 -8 3296.62 795.557 2
-12 13 8 1546 415.634 1
-1 13 -8 2549.23 698.245 4
-12 -1 -8 2284.23 512.686 1
-12 -1 -8 2370.37 533.067 2
-1 -12 8 2213.22 511.753 3
13 -12 -8 2555.59 607.73 1
-1 13 -8 2151.04 602.761 3
-1 -12 11 1206.95 445.06 1
-12 13 11 2330.81 580.994 1
13 -12 -11 1723.38 618.224 2
13 -12 -11 1463.64 524.916 1
13 -1 11 1252.11 409.66 1
-12 -1 -11 1345.17 421.908 4
-1 -12 14 111.89 271.269 1
-12 13 14 1508.84 454.419 1
-12 -1 -14 720.164 393.578 4
13 -12 -14 1592.62 621.197 2
-13 0 14 622.008 291.508 3
-13 13 -14 228.652 180.236 4
0 -13 -14 2.90945 199.723 3
13 0 -14 748.908 480.11 2
0 -13 -14 544.568 309.679 2
-13 0 14 58.0721 257.927 1
0 -13 -11 3422.23 493.081 2
13 0 -11 4329.74 1126.03 2
-13 0 11 3488.67 748.094 1
-13 13 -11 2572.5 370.156 4
0 -13 -11 2963.53 602.298 3
-13 0 8 2001.22 518.75 1
13 0 -8 1631.94 598.4 2
0 13 8 2042.38 499.503 3
0 -13 -8 1799.95 452.012 3
13 -13 5 2925.79 375.296 4
13 -13 5 2255.43 571.351 1
0 13 5 1981.22 547.01 3
-13 0 5 1365.21 512.902 2
13 0 -5 539.356 385.38 2
13 0 -5 1142.67 542.899 1
-13 0 5 1637.37 567.305 1
0 -13 -5 2261.33 538.009 3
0 -13 -5 2124.85 298.12 1
0 -13 -5 2453.25 641.945 4
-13 0 2 13191.8 1403.22 2
13 0 -2 11697.6 1379.9 2
-13 13 -2 11057.1 1178.11 1
0 13 2 8979.99 1274.69 4
-13 13 -2 11555.7 1291.61 2
0 -13 -2 12927.1 1341.19 4
13 -13 2 11516.1 1177.9 1
0 13 2 11041.1 1197.21 3
0 -13 -2 11078.4 1129.26 3
0 -13 -2 10705.8 823.905 1
13 0 -2 11584 1373.13 1
-13 0 2 13076.9 1429.97 1
0 -13 1 3279.15 639.019 4
13 -13 -1 2426.67 528.2 1
-13 13 1 3049.57 642.253 1
0 13 -1 2120.38 554.804 3
-13 0 -1 3775.39 698.125 1
-13 0 -1 3706.98 689.095 2
0 13 -1 3028.36 669.153 4
-13 13 1 2866.03 670.358 2
13 -13 -1 2567.71 584.397 2
0 -13 1 2779.37 601.873 3
13 0 1 3312.12 633.547 2
13 0 1 3350.28 681.075 1
-13 13 4 3386.25 662.284 1
13 0 4 3829.14 707.671 1
13 0 4 3829.43 690.171 2
13 -13 -4 3259.07 644.904 1
-13 13 4 3589.32 730.299 2
0 13 -4 4684.68 958.399 4
-13 0 -4 3771.89 653.338 2
-13 0 -4 4284.5 744.632 1
13 0 4 4567.92 729.837 4
13 -13 -4 4412.63 857.696 2
0 -13 4 3423 613.747 4
0 -13 4 3107.99 577.978 3
0 13 -4 3984.4 762.026 3
-13 0 -7 125.598 200.724 2
-13 0 -7 276.126 235.892 1
13 0 7 -62.3634 248.132 1
-13 13 7 451.812 373.12 2
-13 0 -7 283.638 191.458 4
13 -13 -7 387.749 399.876 2
13 0 7 285.325 159.241 4
0 13 -7 849.78 426.1 4
-13 13 7 265.047 140.077 1
0 13 -7 362.914 356.809 3
13 -13 -7 965.262 350.084 1
13 -13 -10 9193.1 1409.49 2
-13 13 10 7287.77 955.664 1
13 0 10 6480.84 891.206 1
-13 0 -10 6813.84 909.536 4
0 13 -10 8436.51 1200.19 3
13 -13 -10 8519.22 1218.73 1
0 -13 13 5218.9 921.394 1
13 -13 -13 7872.38 1435.49 2
13 -13 -13 7152.7 1150.93 1
-13 0 -13 6872.1 1099 4
13 0 13 5320.63 859.081 1
0 13 -13 8379.75 1297.7 3
-13 13 13 5137.2 875.328 1
-14 1 15 578.448 297.992 3
13 1 -15 203.379 506.34 2
1 -14 -15 85.864 143.676 2
-14 13 -15 458.74 184.88 4
-14 1 15 256.396 251.978 1
13 1 -12 1096.07 628.695 2
1 -14 -12 610.198 241.317 2
-14 1 12 921.14 508.568 1
1 -14 -12 811.234 371.239 3
1 -14 -9 5243.54 547.208 2
13 1 -9 7568.66 1398.24 2
-14 1 9 5575.89 1070.64 1
1 -14 -9 5066.55 799.259 3
1 13 9 7534.5 995.102 3
1 13 6 1286.3 429.706 3
13 1 -6 2648.5 802.897 2
13 -14 6 1400.14 263.052 4
-14 1 6 1822.77 496.419 1
1 -14 -6 1285.21 395.554 3
1 13 3 421.991 129.656 3
-14 1 3 717.419 298.883 1
-14 1 3 835.864 384.059 2
13 1 -3 837.123 329.138 2
-14 13 -3 1419.58 446.267 1
13 1 -3 980.949 467.502 1
13 -14 3 768.765 302.845 1
1 -14 -3 927.873 358.753 4
-14 13 -3 1085.99 454.522 2
1 -14 -3 541.733 247.031 3
-14 1 0 985.211 361.839 1
-14 13 0 512.967 265.849 1
-14 1 0 497.774 191.296 2
13 -14 0 525.477 264.237 1
13 1 0 949.65 351.463 2
1 -14 0 400.011 217.832 3
13 1 0 445.589 284.768 1
1 13 0 701.299 197.793 4
1 -14 0 736.405 352.975 4
-14 13 0 674.378 268.159 2
13 -14 0 797.557 339.369 2
1 13 0 447.234 153.491 3
-14 13 3 6038.92 969.962 2
-14 1 -3 6243.69 869.617 2
13 1 3 6389.89 847.496 2
1 -14 3 5433.08 739.041 4
13 -14 -3 5737.14 863.404 2
13 -14 -3 5906.56 843.367 1
1 13 -3 7898.48 1097.53 3
-14 1 -3 6078.68 871.146 1
13 1 3 6661.82 891.082 1
1 13 -3 7422.76 1188.55 4
13 1 3 6998.97 984.148 4
-14 13 3 6515.19 911.674 1
1 -14 3 5252.34 775.176 3
13 1 6 542.437 312.502 4
13 -14 -6 697.167 410.123 1
13 1 6 105.185 207.845 1
-14 13 6 309.469 264.274 2
13 -14 -6 574.396 337.187 2
1 13 -6 222.112 320.801 4
-14 1 -6 168.862 204.767 2
-14 13 6 268.228 186.684 1
-14 1 -6 628.237 318.117 1
1 13 -6 507.803 304.657 3
-14 1 -9 523.273 292.784 1
-14 1 -9 430.648 179.594 4
-14 13 9 1254.38 482.12 1
13 -14 -9 791.456 387.257 2
13 -14 -9 981.745 407.364 1
13 1 9 647.632 250.815 1
-14 1 -9 522.474 387.532 2
1 13 -9 539.978 328.399 3
-14 1 -12 504.268 248.387 4
-14 13 12 1169.35 439.267 1
13 1 12 658.32 328.221 1
13 -14 -12 955.813 399.427 1
13 -14 -12 641.477 384.147 2
1 13 -12 1275.63 537.054 3
-14 13 15 1360.07 450.733 1
13 -14 -15 1919.48 646.3 1
13 -14 -15 1692.7 736.747 2
13 1 15 707.838 329.544 1
1 -14 15 1804.25 618.26 1
-14 1 -15 1723.71 658.277 4
1 13 -15 719.799 216.582 3
13 2 -13 552.856 462.322 2
2 -15 -13 604.144 278.287 2
-15 2 13 448.544 357.833 1
13 2 -10 251.231 398.191 2
-15 2 10 249.415 398.364 1
2 -15 -10 342.954 167.631 2
2 -15 -10 138.278 105.815 3
2 13 7 1489.03 457.933 3
13 2 -7 2139.78 568.556 2
13 -15 7 1266.94 255.96 4
2 -15 -7 1533.48 391.818 3
-15 2 7 871.78 415.923 1
-15 2 4 1892.79 547.12 1
2 13 4 1189.9 399.401 3
-15 2 4 1797.86 599.797 2
13 -15 4 1725.34 509.456 1
13 2 -4 1695.52 555.338 2
-15 13 -4 2388.1 648.168 1
-15 13 -4 1683.65 542.393 2
13 -15 4 1824.72 385.879 4
2 -15 -4 1554.96 459.043 3
13 2 -4 1375.73 576.829 1
2 -15 -4 2909.81 736.997 4
13 -15 1 2452.22 579.036 1
2 13 1 2918.84 603.872 3
-15 2 1 4548.92 870.748 1
-15 2 1 3961.77 776.897 2
13 2 -1 3936.31 771.277 2
2 -15 -1 3788.11 727.444 4
-15 13 -1 3216.15 649.111 1
2 13 1 2884.7 736.149 4
-15 13 -1 2872.29 686.633 2
13 2 -1 4050.75 769.344 1
2 -15 -1 3511.22 679.729 3
2 13 -2 383.908 261.228 3
2 -15 2 174.042 194.345 4
13 -15 -2 368.11 275.658 1
-15 13 2 159.451 152.505 1
-15 2 -2 514.754 211.352 2
13 2 2 235.876 162.968 2
-15 2 -2 80.251 227.378 1
-15 13 2 280.89 177.841 2
2 13 -2 955.196 595.257 4
13 2 2 162.702 206.258 4
13 -15 -2 274.428 221.426 2
13 2 2 398.82 312.133 1
2 13 -5 386.927 325.653 3
13 2 5 1189.38 378.003 1
13 -15 -5 904.226 302.493 2
-15 2 -5 1098.5 402.176 1
13 -15 -5 555.633 260.81 1
-15 13 5 1139.66 452.106 2
13 2 5 1011.3 409.637 4
-15 2 -5 915.411 322.015 2
2 13 -5 1503.07 683.57 4
2 -15 5 465.033 272.85 4
13 2 5 1058.78 377.232 2
-15 13 5 712.518 315.628 1
-15 2 -8 1934.27 405.313 4
2 13 -8 4697.24 921.591 3
13 2 8 4084.94 713.257 1
-15 13 8 2845.67 648.63 1
-15 2 -8 2048.3 549.134 2
13 -15 -8 2831.87 780.852 2
-15 2 -8 1982.74 529.227 1
13 -15 -8 3730.47 742.606 1
-15 13 11 1356.54 460.93 1
13 -15 -11 649.554 391.03 2
13 -15 -11 913.722 348.359 1
2 13 -11 1853.27 636.322 3
13 2 11 896.052 330.81 1
-15 2 -11 1049.14 308.131 4
-15 13 14 535.175 378.982 1
13 2 14 377.428 282.715 1
13 -15 -14 -212.982 348.928 1
13 -15 -14 -719.804 565.913 2
-15 2 -14 184.596 140.204 4
2 13 -14 129.214 299.022 3
-16 3 14 571.081 445.254 1
13 3 -14 667.758 349.56 2
3 -16 -14 796.605 312.058 2
13 3 -11 1687.21 751.115 2
3 -16 -11 1141.96 329.12 2
-16 3 11 1387.38 533.877 1
13 3 -8 8742.88 1542.63 2
3 -16 -8 7054.04 687.153 2
-16 3 8 8229.19 1296.44 1
3 -16 -5 14928.1 902.172 1
13 3 -5 15619.2 1812.1 2
-16 13 -5 15175.6 1546.55 1
13 -16 5 14103.9 1034.28 4
3 -16 -5 14069 1649.86 4
3 13 5 14535.9 1476.87 3
-16 3 5 16987.2 1743.9 1
-16 3 2 4768.26 943.551 2
-16 13 -2 4045.79 875.49 2
3 13 2 3608.58 880.952 4
13 3 -2 4370.69 913.132 2
13 3 -2 3352.31 711.14 1
3 13 2 3340.74 720.983 3
3 -16 -2 6106.91 974.203 4
-16 3 2 5153.79 961.559 1
13 -16 2 4803.08 810.869 1
-16 13 -2 4603.37 891.238 1
3 -16 1 572.843 323.827 4
13 3 1 1121.04 393.303 1
13 -16 -1 709.774 351.536 1
-16 3 -1 559.856 282.161 2
-16 13 1 965.648 369.216 1
13 3 1 746.097 339.805 2
-16 13 1 642.061 317.123 2
-16 3 -1 1214.13 463.765 1
3 13 -1 825.702 308.995 4
3 13 -1 947.733 273.684 3
13 3 1 1999.66 660.069 4
13 -16 -1 1107.82 367.114 2
3 13 -4 563.648 257.815 3
-16 13 4 353.377 270.866 1
3 13 -4 710.749 348.798 4
-16 3 -4 525.579 219.366 1
13 3 4 325.528 219.865 2
13 3 4 249.545 237.375 4
-16 13 4 686.922 417.019 2
13 -16 -4 597.821 309.53 2
13 -16 -4 243.553 140.285 1
3 -16 4 569.632 283.799 4
-16 3 -4 614.081 314.423 2
13 3 4 497.355 254.41 1
13 -16 -7 9093.89 1126.67 1
13 -16 -7 9533.46 1286.36 2
-16 3 -7 7083.38 1016.23 2
-16 13 7 8928.43 1155.77 1
3 13 -7 9393.68 1309.07 3
13 3 7 7563.52 1058.75 4
-16 3 -7 7958.19 1167.03 1
13 3 7 10196.6 1103.96 1
3 13 -10 174.562 247.11 3
-16 3 -10 418.07 203.087 4
-16 13 10 341.937 233.95 1
-16 3 -10 329.824 303.722 1
13 -16 -10 591.157 324.226 2
13 -16 -10 233.348 182.09 1
13 3 10 76.4852 184.89 1
-16 3 -10 622.579 334.362 2
3 13 -13 -114.758 286.655 3
-16 13 13 70.2114 177.457 1
-16 3 -13 -103.633 213.261 4
13 -16 -13 558.519 310.042 1
13 -16 -13 420.512 366.118 2
13 3 13 310.612 205.2 1
13 4 -12 1823.78 765.959 2
4 -17 -12 1372.71 427.051 2
-17 4 12 1331.48 553.672 1
13 4 -9 253.111 237.342 2
4 -17 -9 270.333 139.892 2
-17 4 9 313.789 331.422 1
-17 4 6 3321.91 853.708 1
4 -17 -6 2533.8 386.72 1
4 13 6 2007.02 555.026 3
13 4 -6 2095.17 675.196 2
13 -17 6 2480.17 430.426 4
4 13 3 1563.33 469.34 3
4 13 3 1751.24 299.415 2
-17 4 3 2658.7 665.876 1
13 4 -3 2674.23 704.646 2
4 -17 -3 2397.84 663.539 4
-17 13 -3 1966.94 552.605 1
13 -17 3 1848.52 419.715 4
4 13 0 317.821 262.989 3
-17 4 0 728.995 401.962 2
13 4 0 559.07 245.802 2
13 4 0 634.815 397.925 1
4 -17 0 1232.15 474.674 4
13 4 0 988.081 477.625 4
-17 13 0 397.651 257.136 1
-17 4 0 435.68 343.613 1
13 -17 0 236.407 142.254 1
4 13 -3 2061.29 626.762 3
13 -17 -3 1687.31 500.313 2
13 -17 -3 1654.62 444.425 1
4 -17 3 1880.79 480.458 4
-17 4 -3 1670.25 513.465 1
-17 13 3 2286.32 601.811 1
13 4 3 2056.76 498.032 1
13 4 3 2115.17 495.461 2
-17 4 -3 1574.91 449.227 2
13 4 3 3003.6 753.946 4
4 13 -6 1093.43 482.409 3
13 4 6 1309.88 423.021 1
-17 4 -6 1323.55 423.623 1
13 4 6 1384.73 460.159 4
4 -17 6 786.959 288.496 4
13 -17 -6 1086.8 363.777 1
-17 13 6 984.934 437.761 1
13 -17 -6 712.646 417.166 2
-17 4 -6 1216.92 441.922 2
4 13 -9 630.54 447.787 3
13 -17 -9 689.438 373.689 2
13 4 9 366.891 181.688 1
-17 13 9 568.309 300.341 1
-17 4 -9 147.737 226.27 2
13 -17 -9 263.904 241.378 1
-17 4 -9 284.984 158.726 1
4 13 -12 100.131 284.293 3
-17 13 12 90.4317 220.681 1
13 -17 -12 121.422 157.132 1
13 -17 -12 146.612 208.359 2
13 4 12 60.6853 163.102 1
-17 4 -12 441.06 190.532 4
13 5 -13 413.09 673.021 2
5 -18 -13 697.441 305.964 2
-18 5 13 725.77 466.222 1
-18 5 10 1119.73 552.205 1
13 5 -10 1069.48 511.986 2
5 -18 -10 1667.9 443.014 2
-18 5 7 1732.16 637.243 1
13 5 -7 2224.42 733.392 2
13 -18 7 1894.82 375.491 4
5 -18 -7 2367.45 396.89 1
5 13 4 4642.44 893.629 3
-18 5 4 6195.1 1072.81 1
5 13 4 3233.18 346.302 2
5 -18 -4 4622.95 608.13 1
13 5 -4 5343.11 1045.39 2
-18 13 -4 3438.63 750.783 1
5 -18 -4 4729.31 980.84 4
13 -18 4 3787.24 631.046 4
5 13 1 2214.97 588.985 3
5 13 1 2765.65 495.976 2
13 5 -1 3053.59 677.996 2
13 5 -1 3347.59 774.977 1
-18 5 1 4358.88 892.243 1
13 -18 1 2569.61 585.728 1
5 -18 -1 3191.76 737.814 4
-18 13 -1 2629.75 725.463 1
5 13 -2 1197.3 496.008 3
-18 5 -2 1133.72 526.328 1
-18 13 2 1595.29 593.759 1
13 -18 -2 1528.44 466.867 1
-18 5 -2 1305.16 450.509 2
13 5 2 1251.63 376.979 2
13 5 2 2315.6 745.532 4
13 5 2 1622.21 504.887 1
5 -18 2 1012.42 362.86 4
5 13 -5 5480.01 1010.39 3
13 5 5 3844.55 662.992 2
-18 5 -5 2397.48 641.658 1
13 -18 -5 3800.19 738.516 1
13 5 5 3383.67 826.092 4
13 -18 -5 3866.05 818.348 2
5 -18 5 2596.22 553.035 4
-18 5 -5 2764.44 666.666 2
-18 13 5 3925.8 861.399 1
13 5 5 3962.01 711.17 1
5 13 -8 2110.26 629.203 3
13 5 8 1862.79 481.039 1
13 -18 -8 2609.86 591.784 1
-18 13 8 1663.16 553.411 1
13 -18 -8 2159.06 671.247 2
-18 5 -8 1545.96 547.892 1
5 13 -11 307.158 189.024 3
-18 13 11 23.2114 226.639 1
13 5 11 470.543 285.923 1
13 -18 -11 978.097 453.647 2
13 -18 -11 523.764 299.204 1
5 13 -14 44.2109 222.326 3
-18 13 14 -60.6232 230.938 1
-18 5 -14 202.191 162.33 4
13 -18 -14 -110.142 181.31 1
13 -18 -14 -61.165 444.789 2
13 5 14 411.653 277.991 1
13 6 -11 939.593 549.565 2
6 -19 -11 912.985 363.935 2
-19 6 11 891.266 477.664 1
6 13 8 934.832 229.933 1
-19 6 8 1539.97 557.593 1
13 6 -8 1449.99 642.633 2
6 -19 -8 1251.1 298.017 1
13 -19 8 994.294 314.719 4
6 -19 -8 1587.48 470.9 2
6 -19 -5 598.556 215.524 1
6 13 5 513.434 159.907 1
-19 6 5 498.249 322.171 1
13 6 -5 219.286 178.684 2
-19 13 -5 94.3207 259.303 1
13 -19 5 483.837 231.704 4
6 13 2 2040.25 509.387 1
6 13 2 2261.27 679.564 3
-19 13 -2 2537.12 659.057 1
6 13 2 2391 425.623 2
13 6 -2 2412.23 640.504 2
6 -19 -2 2658.57 673.647 4
13 -19 2 2184.75 519.679 4
6 13 -1 1495.23 526.885 3
6 13 -1 1395.31 431.578 2
-19 13 1 1688.02 565.578 1
13 6 1 1897.52 573.028 1
6 13 -1 1299.33 415.613 1
13 6 1 1188.71 415.325 2
6 -19 1 1351.77 438.381 4
-19 6 -1 1439.86 623.771 1
13 -19 -1 1218.43 394.492 1
6 13 -4 6143.87 1082.49 3
6 13 -4 5648.44 963.869 2
13 6 4 5171.14 755.614 2
-19 13 4 5677.62 959.461 1
13 -19 -4 5489.11 867.957 1
6 -19 4 4380.2 727.893 4
13 6 4 6674.16 1214.28 4
13 6 4 5780.24 890.067 1
-19 6 -4 5549.6 1014.17 1
13 -19 -4 4691.86 832.931 2
6 13 -7 215.087 232.614 3
13 -19 -7 243.913 143.944 1
-19 6 -7 429.73 379.422 1
-19 13 7 626.832 344.822 1
6 -19 7 297.273 193.124 4
13 -19 -7 313.151 262.12 2
13 6 7 -16.6635 115.148 1
6 13 -10 818.638 436.386 3
13 6 10 424.015 281.583 1
13 -19 -10 910.699 537.847 2
-19 13 10 310.685 262.375 1
-19 6 -10 566.267 386.065 1
13 -19 -10 1069.56 424.565 1
6 13 -13 670.592 496.825 3
-19 13 13 285.193 156.828 1
13 6 13 771.866 387.067 1
13 -19 -13 91.6311 177.506 1
13 -19 -13 73.8885 210.488 2
7 -20 -12 1786.59 543.422 2
7 -20 -12 933.561 216.42 1
13 7 -12 2225.56 913.759 2
-20 7 12 699.165 346.803 1
7 -20 -9 35.1336 96.9626 1
-20 7 9 227.389 301.112 1
7 13 9 35.8633 100.609 1
13 7 -9 -44.9578 367.973 2
7 -20 -9 87.7979 168.344 2
7 13 6 1890.16 393.026 1
13 -20 6 1039.69 325.509 4
-20 13 -6 1060.05 496.003 1
-20 7 6 2564.59 776.651 1
13 7 -6 2216.93 794.319 2
7 -20 -6 1140.62 351.577 1
7 13 3 4901.88 583.385 2
13 -20 3 3967.08 683.65 4
7 -20 -3 4993.86 716.638 1
7 -20 -3 4936.07 984.959 4
-20 13 -3 4304.7 846.069 1
13 7 -3 5824.06 1093.63 2
-20 7 3 6037.23 1063.11 1
7 13 3 4745.17 747.629 1
7 13 0 1648.82 456.975 2
7 13 0 1408.82 450.882 3
13 7 0 1731.19 549.748 1
13 7 0 1711.33 543.946 2
13 -20 0 1443.81 459.16 1
-20 13 0 1978.45 622.386 1
7 13 0 1688.93 455.326 1
7 -20 0 1632.78 546.416 4
-20 7 0 1700.81 547.405 1
-20 13 3 822.721 411.857 1
7 13 -3 1096.41 454.854 3
7 13 -3 1084.78 436.346 2
-20 7 -3 848.908 465.685 1
13 -20 -3 772.625 285.643 1
13 7 3 872.059 381.866 1
13 7 3 566.06 318.473 2
7 -20 3 546.26 348.717 4
7 13 -6 850.732 515.996 3
-20 7 -6 629.965 360.661 1
7 13 -6 1371.72 556.297 2
13 -20 -6 790.045 326.389 2
-20 13 6 1342.21 493.693 1
13 7 6 880.206 375.984 1
7 -20 6 748.772 310.474 4
13 7 6 709.597 334.212 2
13 -20 -6 1075.09 429.926 1
-20 7 -9 562.143 320.676 1
13 -20 -9 1323.74 447.68 1
7 13 -9 1335.49 550.04 3
7 13 -9 1019.93 536.481 2
-20 13 9 1397.66 595.817 1
13 -20 -9 973.004 449.17 2
13 7 9 1318.35 468.275 1
7 13 -12 1128.92 601.685 3
7 13 -12 510.975 477.903 2
13 7 12 654.044 274.881 1
-20 13 12 940.788 499.158 1
13 -20 -12 1296.92 489.595 1
13 -20 -12 531.458 429.328 2
8 -21 -10 372.662 165.322 1
8 13 10 686.56 214.372 1
13 8 -10 -11.0877 309.144 2
-21 8 10 110.458 251.516 1
8 -21 -10 684.068 357.701 2
8 13 7 1009.84 310.155 1
-21 8 7 1085.38 477.486 1
13 8 -7 1050.47 583.795 2
13 -21 7 479.725 279.253 4
8 -21 -7 966.485 287.607 1
-21 13 -7 733.688 456.714 1
13 -21 4 1505.5 462.875 4
8 13 4 2091.47 469.172 1
13 8 -4 2605.68 778.681 2
8 -21 -4 2197.56 493.933 1
-21 8 4 4236.78 958.163 1
8 13 4 2099.44 367.947 2
-21 13 -4 2727.92 732.829 1
8 13 1 1572.23 460.315 1
-21 8 1 2549.7 741.521 1
8 13 1 1971.8 487.988 2
13 8 -1 2992.62 723.056 2
13 -21 1 1085.36 411.783 4
-21 13 -1 1266.58 513.427 1
8 -21 -1 1607.79 586.086 4
-21 13 2 3878.95 914.104 1
-21 8 -2 2680.2 707.966 1
8 13 -2 4069.08 795.061 2
13 8 2 3131.48 699.744 1
13 8 2 2847.7 590.523 2
8 -21 2 2797.17 676.379 4
13 -21 -2 2785.76 669.231 1
8 13 -5 958.483 563.498 3
8 13 -5 1142.41 495.545 2
13 -21 -5 816.062 397.268 2
13 8 5 684.941 323.74 2
-21 13 5 1464.64 587.87 1
13 8 5 694.408 396.93 1
8 -21 5 654.55 327.627 4
-21 8 -5 916.596 495.551 1
13 -21 -5 1032.46 392.462 1
8 13 -8 971.677 498.778 3
8 13 -8 -84.216 253.677 2
-21 8 -8 443.098 309.54 1
13 -21 -8 573.487 351.554 1
-21 13 8 534.098 300.575 1
13 -21 -8 370.114 357.393 2
13 8 8 287.599 219.403 1
8 13 -11 512.513 539.114 2
-21 13 11 273.888 320.536 1
13 -21 -11 509.191 226.536 2
13 -21 -11 96.5459 183.582 1
13 8 11 442.85 186.9 1
-22 9 11 -233.46 365.686 1
13 9 -11 646.785 460.774 2
9 13 11 221.98 133.63 1
9 -22 -11 402.195 175.289 2
9 -22 -11 79.8343 99.9211 1
9 13 8 347.555 149.088 1
13 9 -8 413.082 412.371 2
-22 9 8 1034.28 587.133 1
9 -22 -8 932.394 357.925 1
13 -22 8 489.251 263.666 4
9 -22 -8 820.633 387.582 2
-22 13 -8 683.593 372.573 1
9 13 5 1941.89 456.302 1
9 13 5 1749.48 324.048 2
13 9 -5 1399.21 662.49 2
-22 9 5 2854.31 735.932 1
-22 13 -5 818.321 338.282 1
13 -22 5 1449.99 447.319 4
9 -22 -5 2407.5 493.341 1
9 13 2 379.992 187.968 1
13 9 -2 741.809 360.417 2
9 13 2 568.454 262.955 2
-22 9 2 1153.33 584.8 1
9 -22 -2 792.214 336.281 1
13 -22 2 429.063 339.342 4
9 -22 -2 620.989 406.328 4
-22 13 -2 901.417 457.51 1
-22 9 -1 6140.9 1121.17 1
9 13 -1 5406.49 896.094 2
13 -22 -1 3668.83 727.168 1
13 9 1 4496.17 767.776 2
-22 13 1 5787.05 1116.99 1
9 -22 1 4068.62 836.933 4
13 9 1 5611.97 997.154 1
9 13 -4 -43.3681 163.676 2
13 -22 -4 296.652 268.363 1
13 9 4 375.713 257.682 1
9 -22 4 -15.6804 132.391 4
13 9 4 969.898 400.058 2
-22 9 -4 -344.514 423.705 1
-22 13 4 386.183 283.849 1
9 13 -7 1101.01 493.687 2
-22 9 -7 460.132 325.205 1
13 -22 -7 1683.48 537.18 1
-22 13 7 1147.05 533.134 1
13 9 7 1116.43 417.691 1
9 -22 7 1068.71 346.677 4
13 -22 -7 1577.94 545.645 2
9 13 -10 -175.788 372.024 2
-22 13 10 408.227 306.051 1
13 9 10 594.4 266 1
13 -22 -10 31.0905 195.608 2
-22 9 -10 546.395 463.588 1
13 -22 -10 -90.3503 154.88 1
-23 13 -9 2018.97 767.002 1
10 -23 -9 1482.91 400.939 1
13 10 -9 1238.85 566.938 2
10 13 9 1101.82 289.688 1
-23 10 9 1512.93 654.963 1
10 -23 -9 1793.64 560.457 2
13 -23 6 182.771 229.785 4
-23 13 -6 360.347 276.262 1
10 -23 -6 598.926 349.997 1
10 13 6 356.113 267.263 1
13 10 -6 -462.859 382.783 2
-23 10 6 122.224 253.504 1
10 13 6 310.13 152.43 2
-23 13 -3 52.3217 316.352 1
10 13 3 307.537 242.961 1
13 10 -3 1040.01 613.42 2
10 13 3 445.281 234.818 2
10 -23 -3 54.9782 183.044 1
13 -23 3 591.496 382.379 4
-23 10 3 326.29 243.363 1
10 -23 -3 346.744 397.242 4
-23 10 0 1104.42 438.08 1
10 -23 0 82.1833 199.895 4
10 13 0 1265.07 467.87 1
10 13 0 1144.32 371.369 2
-23 13 0 696.157 430.916 1
13 10 0 1093.46 396.539 2
13 -23 0 995.678 428.245 4
10 13 -3 2142.47 697.876 2
13 10 3 1727.44 517.693 1
-23 10 -3 1390.96 592.095 1
13 10 3 1804.54 494.022 2
10 -23 3 1616.46 519.601 4
13 -23 -3 1459.75 463.663 1
-23 13 3 2046.72 615.252 1
10 13 -6 455.767 464.119 2
-23 10 -6 68.5485 196.135 1
13 10 6 536.517 264.407 1
10 -23 6 504.321 294.378 4
13 10 6 261.406 218.775 2
13 -23 -6 565.827 303.565 1
13 -23 -6 316.311 358.924 2
-23 13 6 1597.98 605.204 1
10 13 -9 559.443 456.089 2
13 -23 -9 320.29 309.39 1
-23 10 -9 583.343 357.739 1
-23 13 9 270.418 275.378 1
13 10 9 -41.9342 167.838 1
13 -23 -9 346.346 188.126 2
11 -24 -10 860.671 338.332 1
13 11 -10 425.799 350.811 2
-24 11 10 523.278 423.444 1
11 13 10 312.77 183.847 1
11 -24 -10 243.288 326.357 2
11 13 7 537.819 198.322 1
13 11 -7 47.3658 367.292 2
-24 11 7 1461.58 578.037 1
-24 13 -7 622.291 290.509 1
13 -24 7 656.758 350.056 4
11 -24 -7 595.219 306.635 1
13 -24 4 -16.6791 148.05 4
-24 13 -4 310.837 173.299 1
11 -24 -4 16.2452 140.442 1
11 13 4 187.93 207.229 1
-24 11 4 -11.7189 211.723 1
13 11 -4 85.2122 331.231 2
11 13 4 23.8693 175.681 2
-24 11 1 152.648 265.609 1
11 13 1 246.128 218.826 1
13 11 -1 633.316 381.919 2
11 13 1 108.982 160.386 2
11 -24 -1 460.637 233.498 1
-24 13 -1 341.418 322.899 1
11 -24 -1 -211.344 275.461 4
13 -24 1 193.74 259.834 4
-24 13 2 584.594 438.374 1
13 11 2 694.831 394.683 1
11 13 -2 974.198 550.924 2
11 -24 2 386.137 273.752 4
-24 11 -2 406.401 294.883 1
13 11 2 476.145 238.214 2
-24 11 -5 19.5141 184.983 1
11 13 -5 1166.14 432.5 2
13 11 5 768.325 299.365 1
13 -24 -5 566.783 258.595 1
13 11 5 1014.75 349.334 2
11 -24 5 817.744 360.664 4
-24 13 5 675.193 422.439 1
11 13 -8 65.4188 253.851 2
-24 11 -8 331.938 274.133 1
13 -24 -8 649.899 327.024 1
13 11 8 148.893 173.985 1
11 -24 8 224.811 179.688 4
-24 13 8 -132.649 436.563 1
13 -24 -8 288.003 357.819 2
13 12 -8 520.226 517.39 2
12 13 8 -60.4845 184.744 1
-25 12 8 -157.1 234.384 1
12 -25 -8 -34.8356 124.949 1
13 -25 8 127.148 208.681 4
-25 13 -8 313.543 263.598 1
12 13 5 844.011 412.438 1
13 12 -5 665.524 482.027 2
12 13 5 558.611 245.246 2
-25 13 -5 311.462 286.041 1
12 -25 -5 600.447 306.144 1
-25 12 5 803.588 474.196 1
13 -25 5 518.806 312.292 4
13 -25 2 533.386 397.251 4
13 12 -2 1125.02 481.965 2
-25 13 -2 432.335 229.669 1
12 13 2 1015.31 339.796 2
12 -25 -2 227.652 323.176 4
-25 12 2 1427.66 568.519 1
-25 13 1 3644.29 931.952 1
-25 12 -1 3003.82 862.409 1
12 13 -1 4354.97 871.626 2
13 12 1 3202.25 740.386 2
13 -25 -1 3166.63 809.259 4
12 -25 1 1481.33 524.907 4
12 13 -4 600.693 469.339 2
13 12 4 509.957 363.596 1
13 -25 -4 658.936 301.397 1
-25 13 4 797.529 422.595 1
13 12 4 -25.2482 176.163 2
12 -25 4 297.596 206.455 4
-25 12 -4 645.988 420.263 1
12 13 -7 1032.22 657.068 2
13 12 7 448.327 234.608 1
13 -25 -7 796.289 371.257 1
-25 13 7 -485.802 446.783 1
12 -25 7 141.58 166.189 4
-25 12 -7 681.201 506.896 1
13 -26 0 3467.6 818.228 4
13 13 0 6468.56 1102.55 2
-26 13 0 6386.91 1245.59 1
13 13 -3 -100.01 210.783 2
13 13 3 -118.481 226.78 2
-26 13 -3 -612.948 407.437 1
13 -26 3 519.222 352.268 4
-26 13 3 279.257 286.741 1
13 -26 -6 508.002 364.325 1
13 13 -6 -118.002 236.688 2
13 13 6 -58.9466 120.763 1
13 -26 6 495.799 304.165 4
-26 13 -6 119.736 358.012 1
13 13 6 -212.803 212.172 2
-26 13 6 634.145 432.722 1
-7 -7 0 739.26 280.024 3
-7 -7 0 745.786 221.418 2
14 -7 0 920.876 271.55 1
-7 -7 0 704.067 294.763 1
14 -7 0 576.496 191.58 2
-7 -7 0 81.5014 126.346 4
14 -7 3 425.644 116.074 1
14 -7 -3 293.171 285.944 1
-7 14 3 205.648 154.52 2
14 -7 3 415.092 264.402 2
-7 -7 -3 472.007 176.685 2
-7 -7 3 238.096 165.73 1
-7 -7 3 228.398 177.687 3
14 -7 -3 212.463 265.837 2
-7 -7 -3 215.582 182.853 1
-7 -7 -3 46.2911 188.885 3
-7 -7 -3 439.609 247.408 4
-7 -7 6 862.078 401.852 1
-7 14 6 941.369 344.149 2
14 -7 6 645.322 146.682 4
14 -7 -6 730.416 397.314 2
-7 14 6 634.437 191.076 1
-7 -7 -6 529.705 187.612 2
-7 14 -6 943.889 280.909 4
14 -7 6 1222.74 346.109 1
14 -7 -6 496.545 312.136 1
-7 -7 -6 572.973 299.315 3
-7 -7 6 420.198 251.483 3
-7 -7 -6 654.622 340.009 4
-7 -7 -6 624.559 242.231 1
-7 -7 -9 3393.15 662.034 3
-7 14 9 3572.54 680.917 2
-7 -7 9 3586.8 708.124 1
14 -7 9 2461 555.597 1
14 -7 -9 3790.5 913.735 2
-7 14 9 3182.85 468.029 1
14 -7 -9 4108.92 911.005 1
-7 -7 -9 3402.45 734.515 4
-7 14 -9 3771.29 725.081 4
-7 -7 9 3707.29 625.293 3
-7 14 9 2922.37 523.084 3
-7 -7 -12 263.422 232.266 3
-7 14 12 127.523 221.69 2
-7 -7 12 89.1479 223.625 1
-7 14 12 363.156 202.455 1
14 -7 -12 814.367 518.705 2
-7 14 -12 398.929 265.144 4
-7 -7 12 43.2825 178.226 3
-7 14 12 142.332 113.039 3
-7 14 15 1063.28 266.412 3
-7 14 15 831.133 235.032 1
-7 -7 15 971.378 471.902 1
14 -7 -15 1738.51 845.805 2
-7 -7 -15 1427.41 487.904 3
-7 -7 15 838.45 309.138 3
-6 -8 -16 190.153 242.044 3
-8 -6 16 221.316 252.871 1
14 -6 -16 451.121 518.246 2
-8 -6 16 196.028 139.401 3
-6 14 16 -39.2464 94.8516 1
-6 -8 -13 650.08 245.317 3
-6 14 13 493.498 190.934 1
-8 -6 13 130.226 322.025 1
14 -6 -13 767.19 557.958 2
-8 14 -13 450.486 409.096 4
-6 14 13 425.631 218.159 3
-8 -6 13 369.711 195.894 3
-8 14 -10 399.38 328.407 4
-6 -8 -10 444.642 214.319 3
-6 14 10 167.746 187.518 2
-6 -8 -10 761.37 410.228 4
-8 -6 10 656.756 319.867 1
-6 14 10 334.136 213.387 3
-8 -6 10 322.309 171.772 3
14 -6 -10 -64.2869 366.813 2
-6 14 10 -50.3364 140.302 1
14 -8 7 952.047 331.292 1
-6 -8 -7 1631.67 423.902 3
-8 -6 7 930.632 326.179 1
-6 14 7 1156.7 349.094 2
14 -6 -7 970.763 389.816 2
-6 -8 -7 1108.79 236.477 1
-6 14 7 1258.2 248.966 1
-6 -8 -7 926.857 376.626 4
14 -6 -7 1345.5 521.405 1
-6 -8 -7 1025.72 204.199 2
-8 14 -7 618.725 114.507 4
-6 14 7 703.425 308.526 3
-8 -6 7 843.61 314.63 3
-8 -6 4 2210.56 538.639 3
-6 -8 -4 2360.85 610.825 3
-6 -8 -4 1723.61 254.601 2
14 -8 4 3065.22 593.08 1
-8 -6 4 2671.78 652.527 1
14 -6 -4 2653.15 712.363 2
-6 -8 -4 3065.72 506.248 1
-6 14 4 2375.5 502.745 2
-6 -8 -4 2559.03 634.755 4
-6 14 4 2475.22 554.696 3
14 -6 -4 3153.75 718.686 1
-6 -8 -1 1028.37 306.699 3
-8 -6 1 1464.86 425.682 3
14 -6 -1 1814.45 466.087 2
14 -6 -1 1098.12 366.036 1
-8 -6 1 1192.2 345.012 2
-6 -8 -1 1066.04 318.931 1
-6 -8 -1 963.485 274.166 4
-8 -6 1 1582.11 460.257 1
14 -8 1 1640.55 437.32 1
14 -8 1 1149.28 324.382 2
-6 14 1 1043.59 279.555 2
-6 -8 2 1736.04 437.449 3
-8 -6 -2 1537.75 418.378 3
-8 -6 -2 1470.64 385.511 4
-8 -6 -2 2009.3 382.036 2
14 -8 -2 1757.42 489.522 1
-6 -8 2 2501.53 553.02 1
-8 14 2 1722.19 420.126 2
14 -6 2 1835.25 457.484 1
14 -8 -2 1610.7 530.81 2
14 -6 2 1948.08 511.107 2
-8 -6 -2 1972 467.672 1
14 -6 5 705.404 200.745 1
-6 -8 5 1011.17 384.573 1
-8 -6 -5 915.93 314.281 1
-8 -6 -5 1346.52 273.994 2
-8 14 5 987.146 347.752 2
14 -8 -5 880.571 426.993 2
-8 14 5 781.282 269.847 1
14 -6 5 894.409 197.084 4
-8 -6 -5 939.374 356.842 4
14 -8 -5 734.515 412.158 1
-6 14 -5 673.224 311.737 4
-6 -8 5 620.201 236.072 3
-8 -6 -8 1643.34 329.114 2
-8 14 8 1371.16 323.566 1
-6 -8 8 1304.49 370.728 1
-8 14 8 2195.02 535.566 2
14 -8 -8 2538.89 716.027 2
-8 -6 -8 1633.31 344.699 1
14 -8 -8 1502.32 527.181 1
-8 -6 -8 2084.46 576.038 4
-6 14 -8 1781.53 477.04 4
14 -6 8 1088.07 371.555 1
-6 -8 8 1720.36 433.41 3
-6 14 -11 4267.36 909.706 4
-8 14 11 3550.56 533.869 1
-8 14 11 3144.47 679.4 2
-6 -8 11 2480.17 634.111 1
-6 -8 11 2698.53 551.278 3
14 -8 -11 4515.93 1099.4 2
-8 -6 -11 3476.9 818.001 4
-8 14 11 3085.65 550.175 3
-8 -6 -14 1409.59 435.388 3
-8 14 14 1027.98 285.969 1
-6 -8 14 574.943 316.913 1
14 -8 -14 1798.84 883.27 2
-6 14 -14 1145.31 440.349 3
-6 -8 14 612.848 284.724 3
-8 14 14 1071.34 307.893 3
-5 -9 -14 198.178 216.846 3
-5 14 14 -125.557 139.234 3
-5 14 14 -43.6806 64.4891 1
-9 -5 14 377.103 315.178 1
14 -5 -14 335.798 469.485 2
-9 -5 14 -38.8188 90.7523 3
-5 -9 -11 2462.81 534.526 3
-9 -5 11 2130.76 597.412 1
14 -5 -11 2936.74 889.999 2
-5 14 11 2021.01 316.688 1
-9 14 -11 2887.91 568.213 4
-9 -5 11 2288.8 498.974 3
-5 14 11 2664.95 503.229 3
-9 -5 8 2300.38 497.253 3
-5 -9 -8 2519.96 551.119 3
-5 -9 -8 2100.55 288.862 1
-5 14 8 2453.97 487.556 2
-9 -5 8 2511.47 661.837 1
14 -5 -8 2947.37 897.598 2
-9 14 -8 1949.74 485.476 4
-5 -9 -8 2559.56 699.076 4
-5 14 8 2233.07 493.272 3
-5 14 8 1518.72 243.54 1
-5 -9 -5 425.369 249.255 3
-9 -5 5 263.318 247.07 3
-5 -9 -5 708.351 238.333 1
-5 -9 -5 791.449 395.33 4
-9 -5 5 850.384 423.955 1
14 -5 -5 1432.43 517.475 2
14 -5 -5 351.879 310.817 1
-5 14 5 577.503 274.319 2
14 -9 5 576.401 236.011 1
-5 14 5 532.351 296.888 3
-5 -9 -2 1239.38 368.815 3
14 -5 -2 1659.74 435.75 1
-5 14 2 1515.9 428.138 3
-9 -5 2 1395.14 409.331 2
14 -9 2 1697.19 452.332 2
-5 -9 -2 1724.63 370.328 1
14 -5 -2 1556.92 482.87 2
-9 -5 2 1708.74 460.265 1
14 -9 2 1873.02 458.278 1
-5 -9 -2 785.893 308.645 4
-5 14 2 1320.13 307.068 2
-9 -5 2 1415.87 396.02 3
-9 -5 -1 6419.8 724.774 2
14 -5 1 6003.28 871.944 1
14 -9 -1 6158.18 906.94 2
14 -5 1 5467.26 842.597 2
-9 14 1 6228.51 807.959 2
-5 14 -1 5360.15 824.374 3
14 -9 -1 6781.25 922.387 1
-5 -9 1 5020.47 673.411 4
-5 -9 1 5659.73 760.478 3
-5 -9 1 5193.44 705.914 1
-9 -5 -1 5916.38 771.025 1
14 -9 -4 678.825 241.531 1
-5 -9 4 385.007 219.663 1
-9 -5 -4 453.637 202.37 2
-9 -5 -4 309.459 178.358 1
14 -5 4 284.983 161.67 1
-9 14 4 562.363 300.401 2
-9 -5 -4 505.902 278.756 4
-9 14 4 167.9 104.782 1
14 -5 4 214.758 243.784 2
-5 14 -4 206.655 157.602 4
-5 -9 4 229.655 218.556 3
14 -9 -4 178.596 261.78 2
-5 -9 7 1401.57 376.92 1
-9 14 7 1135.9 303.506 1
14 -5 7 997.215 235.578 4
-9 14 7 1394.55 460.531 2
14 -5 7 916.078 335.727 1
14 -9 -7 1374.85 507.358 2
14 -9 -7 1542.49 488.488 1
-5 14 -7 1707.69 509.255 4
-9 -5 -7 1154.51 385.731 4
-9 -5 -7 1064.57 284.412 1
-9 -5 -7 1574.98 316.868 2
-5 -9 7 859.861 275.183 3
14 -5 10 422.795 281.962 1
-5 -9 10 234.899 155.315 1
-9 14 10 237.076 271.412 2
14 -9 -10 686.753 362.634 2
14 -9 -10 735.628 325.709 1
-9 14 10 106.625 95.8198 1
-9 -5 -10 800.294 186.485 4
-5 14 -10 -23.1673 238.282 4
-5 14 -10 -17.5462 168.383 3
-5 -9 10 691.751 311.45 3
-9 14 13 198.561 259.978 2
-5 -9 13 106.94 158.047 1
-9 14 13 211.967 154.174 1
14 -9 -13 527.431 567.877 2
-9 14 13 24.4131 112.354 3
-5 -9 13 23.9734 112.013 3
-5 14 -13 88.9178 179.368 3
-9 -5 -13 -428.096 342.821 4
-9 14 16 309.774 257.286 1
-5 -9 16 273.759 206.986 1
14 -9 -16 693.186 579.531 2
-5 14 -16 116.376 306.366 3
-9 14 16 197.318 131.39 3
-4 14 15 338.161 150.595 1
-4 -10 -15 615.633 253.424 2
14 -4 -15 780.807 604.357 2
-10 -4 15 153.63 211.533 1
-10 -4 15 423.961 225.338 3
-4 -10 -15 137.931 178.045 3
-4 14 12 882.913 327.383 3
14 -4 -12 1143.81 548.398 2
-10 -4 12 836.508 392.216 1
-10 -4 12 498.255 288.029 3
-10 14 -12 626.902 325.797 4
-4 14 12 713.087 165.029 1
-4 -10 -12 1404.56 416.188 3
-4 -10 -9 432.941 221.834 3
-10 -4 9 307.244 245.145 3
-4 -10 -9 -103.417 317.427 4
-4 -10 -9 286.058 113.22 2
-4 14 9 290.31 184.648 2
-10 -4 9 4.65808 358.73 1
-4 14 9 285.298 242.039 3
-10 14 -9 149.963 99.7446 4
-4 -10 -6 1220.57 399.845 3
-10 -4 6 1452.41 455.983 3
14 -10 6 1715.17 458.69 1
-4 14 6 1997.24 389.757 2
14 -4 -6 2589.06 758.857 2
-4 -10 -6 1388.16 261.339 1
-10 -4 6 1445.22 471.756 1
14 -4 -6 1810.74 560.928 1
-4 -10 -6 1435.79 494.096 4
-4 14 6 1110.42 382.914 3
-4 -10 -3 556.245 344.7 3
-4 -10 -3 761.763 347.982 4
-10 -4 3 563.28 221.508 2
14 -10 3 509.488 237.613 1
14 -4 -3 175.053 222.984 2
-4 -10 -3 692.522 208.997 1
-4 14 3 438.553 233.581 3
-4 14 3 652.732 218.987 2
14 -4 -3 577.262 401.842 1
-10 -4 3 598.527 373.552 1
14 -4 0 1595.17 465.099 1
-4 -10 0 2293.49 472.371 1
-10 -4 0 2689.05 543.054 2
-4 -10 0 1616 409.386 4
14 -4 0 1922.97 512.509 2
-10 -4 0 1876.45 553.524 1
-10 14 0 2099.18 499.075 2
14 -10 0 2062.59 491.281 2
14 -10 0 2023.39 470.871 1
-4 14 0 1619.16 491.609 3
-4 -10 0 1539.2 432.938 3
-4 -10 3 1070.89 344.122 1
14 -10 -3 1465.31 407.258 1
-10 -4 -3 1297.55 356.442 1
-10 -4 -3 1769.39 368.591 2
14 -4 3 1221.07 366.058 1
-10 14 3 1118.15 304.483 2
14 -10 -3 1829.56 517.239 2
-4 14 -3 1579.36 466.39 4
-10 14 3 1281.17 354.451 1
-10 -4 -3 1322.96 364.687 4
14 -4 3 1424.32 415.284 2
-4 14 -3 1665.7 486.131 3
-4 -10 3 942.561 260.826 3
14 -4 6 2319.53 562.297 1
-4 -10 6 1934.31 511.587 1
-10 -4 -6 2611.36 521.411 1
-10 14 6 2182.13 458.186 1
-10 -4 -6 1905.37 463.462 4
-10 14 6 2355.09 559.251 2
14 -10 -6 2586.82 765.813 2
-4 14 -6 2518.19 628.46 4
-10 -4 -6 2320.41 429.566 2
-4 14 -6 2670.68 590.28 3
14 -4 6 2733.8 440.87 4
14 -10 -6 2539.61 656.285 1
-4 -10 6 2746.3 520.549 3
-4 -10 9 713.219 298.278 1
-10 14 9 1161 473.962 2
-10 -4 -9 499.477 323.932 4
14 -10 -9 459.801 167.828 1
14 -10 -9 1202.1 492.992 2
14 -4 9 443.654 216.069 1
-10 14 9 1100.13 333.941 1
-10 -4 -9 776.581 269.067 2
-4 14 -9 871.16 432.299 4
-4 14 -9 985.986 412.494 3
-10 -4 -9 369.948 222.384 1
-4 -10 9 519.278 216.391 3
-4 -10 12 476.857 272.353 1
-10 14 12 537.667 342.529 2
-10 14 12 718.516 296.639 1
14 -10 -12 976.167 484.564 2
-4 -10 12 503.474 174.136 3
-4 14 -12 271.625 245.731 3
-10 -4 -12 825.039 484.63 4
-10 14 15 111.266 141.892 1
-4 -10 15 258.877 195.832 1
14 -10 -15 -54.4369 367.033 2
-4 14 -15 643.771 359.899 3
-10 14 15 383.527 195.312 3
-3 14 16 124.082 106.325 1
-3 -11 -16 27.293 151.746 2
14 -3 -16 72.6777 435.348 2
-11 -3 16 320.656 284.135 1
-11 -3 16 -52.2286 114.408 3
-3 -11 -16 188.052 141.973 3
-3 14 13 316.968 214.737 3
-3 -11 -13 416.503 195.457 2
-11 14 -13 355.287 246.43 4
14 -3 -13 966.249 642.882 2
-11 -3 13 222.39 208.487 1
-3 -11 -13 49.6899 220.166 3
-11 -3 13 230.087 203.325 3
-3 14 10 21.8777 151.785 3
-11 -3 10 358.235 192.091 3
-11 14 -10 468.368 205.553 4
-3 -11 -10 278.608 115.293 2
14 -3 -10 518.143 560.217 2
-11 -3 10 197.06 318.195 1
-3 -11 -10 268.794 127.27 3
-3 14 7 4320.14 529.399 2
14 -3 -7 5840.54 1200.73 2
-3 14 7 5227.57 786.549 3
-3 -11 -7 4118.6 852.513 4
-3 -11 -7 4370.95 734.432 3
-11 -3 7 5230.29 818.171 3
-11 -3 7 6142.17 988.56 1
-11 -3 4 648.567 292.934 2
14 -3 -4 923.021 379.245 2
-3 -11 -4 638.848 183.195 1
-11 -3 4 702.801 307.205 1
-3 -11 -4 262.168 232.993 4
14 -3 -4 128.168 224.972 1
-3 14 4 817.432 208.825 2
14 -11 4 859.948 363.54 1
-3 14 4 862.094 358.972 3
-3 -11 -4 415.512 220.359 3
14 -11 1 1114.89 243.332 1
-3 -11 -1 716.501 231.941 1
-11 -3 1 1242.22 372.206 2
14 -3 -1 2196.86 543.635 2
14 -3 -1 1135.75 410.595 1
-3 -11 -1 1175.4 354.793 4
-11 14 -1 1288.45 406.659 2
14 -11 1 1443.58 361.031 2
-11 -3 1 1323.16 377.171 1
-3 14 1 1390.47 457.222 3
-3 -11 -1 849.209 297.918 3
-11 14 2 96.6725 164.812 2
-3 -11 2 206.749 216.895 1
-11 -3 -2 684.003 273.756 1
14 -3 2 461.455 244.513 1
-11 -3 -2 676 236.065 2
-3 14 -2 268.026 154.576 3
14 -11 -2 130.452 140.416 1
-3 14 -2 292.979 240.451 4
14 -3 2 1031.3 400.074 2
14 -11 -2 -16.3661 166.787 2
-11 14 2 267.285 151.696 1
-3 -11 2 211.852 140.789 3
-3 -11 2 426.617 249.143 4
14 -11 -5 1398.58 423.109 1
-3 -11 5 1177.15 423.763 1
-3 14 -5 1299.86 540.473 4
-11 14 5 1010.59 374.811 1
-11 14 5 933.412 362.516 2
14 -11 -5 948.736 467.588 2
-11 -3 -5 1214.42 367.341 2
14 -3 5 714.992 302.529 1
14 -3 5 653.692 259.05 4
-11 -3 -5 438.07 244.12 4
-3 14 -5 683.097 268.041 3
-3 -11 5 1139.77 376.794 3
-11 -3 -5 1042.73 366.65 1
-3 -11 8 765.251 348.01 1
14 -3 8 950.471 353.45 1
-11 14 8 1176.38 504.418 2
-11 -3 -8 1454.75 365.371 1
14 -11 -8 1508.41 596.203 2
-11 -3 -8 1040.44 327.97 2
-11 -3 -8 808.457 308.593 4
14 -11 -8 1355.84 547.826 1
-11 14 8 1240.79 367.718 1
-3 14 -8 1950.45 691.902 4
-3 -11 8 812.584 280.956 3
-3 14 -8 1019.18 447.277 3
-3 -11 11 550.861 270.09 1
-11 14 11 1440.13 476.201 2
-11 14 11 1270.45 373.364 1
14 -11 -11 1129.35 488.491 2
14 -11 -11 515.648 298.535 1
-11 -3 -11 1559.18 537.631 4
14 -3 11 979.998 378.879 1
-3 -11 11 463.798 255.964 3
-3 14 -11 2022.17 648.479 3
-11 14 14 20.5994 152.863 1
-3 -11 14 345.081 281.79 1
-11 -3 -14 128.115 438.74 4
-11 14 14 528.379 245.351 3
-3 14 -14 71.6594 182.341 3
-2 -12 -14 -15.4835 123.865 2
14 -2 -14 367.024 253.45 2
-12 -2 14 84.5053 350.774 1
-12 14 -14 95.8026 115.231 4
-2 -12 -14 82.7656 216.502 3
-12 -2 14 321.528 233.068 3
-2 14 11 580.16 241.679 3
-12 -2 11 664.169 254.178 3
-2 -12 -11 886.998 224.59 2
14 -2 -11 326.79 276.227 2
-12 -2 11 883.909 334.392 1
-12 14 -11 1277.79 336.216 4
-2 -12 -11 1071.19 382.276 3
-2 14 8 1205.17 379.626 3
-2 14 8 1483.8 281.689 2
14 -2 -8 2247.88 738.045 2
-12 -2 8 1327.07 423.299 1
-2 -12 -8 722.907 314.19 4
-2 -12 -8 1092.83 397.001 3
-12 -2 5 742.38 353.451 2
14 -12 5 350.787 198.642 1
14 -2 -5 427.236 312.045 2
-2 14 5 1032.54 228.406 2
-2 -12 -5 1218.27 426.752 4
14 -2 -5 843.762 462.176 1
-2 -12 -5 842.056 214.147 1
-12 -2 5 753.24 379.454 1
-2 -12 -5 1038.84 378.962 3
-2 14 5 397.107 198.199 3
-12 -2 2 5490.48 907.005 2
-2 -12 -2 5195.49 882.161 4
14 -2 -2 5243.68 920.039 2
14 -12 2 4445.74 757.312 1
-2 14 2 4716.73 782.436 3
-2 -12 -2 4344.31 698.399 3
-12 14 -2 4228.13 752.081 2
-2 -12 -2 4069.52 518.709 1
-12 -2 2 5581.08 925.01 1
14 -2 -2 5697.6 954.781 1
14 -12 -1 798.977 374.363 2
-2 -12 1 359.291 176.855 1
14 -12 -1 379.287 235.651 1
-12 14 1 230.995 120.056 1
14 -2 1 74.6439 139.965 1
-12 -2 -1 615.891 256.296 1
-12 -2 -1 672.289 327.26 2
14 -2 1 792.557 342.523 2
-2 14 -1 383.335 290.483 4
-12 14 1 667.262 362.727 2
-2 -12 1 697.389 289.359 4
-2 14 -1 606.658 325.314 3
-2 -12 1 1003.97 401.648 3
-2 -12 4 1560.47 409.955 1
-2 14 -4 2222.54 613.093 3
14 -12 -4 2573.56 613.814 1
14 -2 4 2172.24 524.108 1
-12 14 4 2271.91 582.952 2
-12 -2 -4 1760.22 418.761 4
-12 -2 -4 1813.6 408.096 2
-12 14 4 1976.68 455.877 1
-2 14 -4 2227.25 601.484 4
14 -2 4 2551.06 509.113 4
-12 -2 -4 2516.96 542.574 1
14 -2 4 1855.11 488.708 2
-2 -12 4 1641.96 432.261 3
14 -12 -4 2658.25 713.672 2
-2 -12 7 1103.24 421.788 1
14 -2 7 1232.42 332.963 4
-12 14 7 1905.27 561.596 2
14 -12 -7 1393.89 529.43 2
-2 -12 7 1188.62 388.892 3
-12 -2 -7 1060.07 357.995 2
-12 -2 -7 960.113 348.013 1
14 -12 -7 1718.22 521.277 1
14 -2 7 1523.1 438.919 1
-2 14 -7 1500.62 566.079 3
-12 14 7 1180.62 423.262 1
-12 -2 -7 849.536 293.888 4
-2 14 -7 2251.88 690.677 4
-2 -12 10 1286.19 473.682 1
-12 14 10 720.406 371.886 2
14 -2 10 430.44 233.112 1
14 -12 -10 964.458 361.248 2
-12 14 10 1049.51 381.31 1
-12 -2 -10 1110.58 396.058 4
14 -12 -10 1238.47 462.901 1
-2 14 -10 2409.76 747.81 4
-12 -2 -10 1123.19 388.153 2
-2 14 -10 1377.85 590.669 3
-2 -12 13 482.82 319.77 1
-12 14 13 470.087 296.283 1
14 -12 -13 597.185 470.404 2
-12 -2 -13 315.73 207.047 4
-2 14 -13 1209.34 507.989 3
-1 -13 -15 246.014 265.96 2
14 -1 -15 932.202 585.86 2
-13 -1 15 401.107 397.392 1
-13 14 -15 692.675 292.977 4
-1 -13 -15 626.632 245.418 3
-13 -1 15 210.284 173.585 3
-13 -1 12 301.57 110.227 3
-1 14 12 617.473 289.081 3
14 -1 -12 360.617 429.273 2
-1 -13 -12 414.064 171.681 2
-13 14 -12 259.518 139.08 4
-13 -1 12 355.627 188.13 1
-1 -13 -12 336.661 248.32 3
-1 -13 -9 5966.18 890.87 3
14 -1 -9 5832.92 1252.93 2
-1 14 9 6297.24 867.702 3
-13 -1 9 6121.33 1048.94 1
-1 14 6 1470.03 413.607 3
-1 -13 -6 982.048 449.741 4
14 -13 6 684.099 164.998 4
-13 -1 6 1352.27 504.715 1
-1 -13 -6 1040.72 412.333 3
-1 -13 -3 811.81 204.682 1
-13 -1 3 1350.56 449.145 2
14 -1 -3 979.185 366.188 2
14 -1 -3 1578.35 571.884 1
-1 -13 -3 993.1 399.395 4
-1 14 3 567.726 243.708 3
-13 -1 3 809.239 196.745 1
-13 14 -3 932.269 390.183 2
-1 -13 -3 665.397 191.712 3
14 -13 3 661.15 289.607 1
-13 -1 0 285.027 146.449 1
14 -13 0 706.429 283.478 1
-13 14 0 894.493 373.955 1
-13 -1 0 443.328 227.487 2
14 -1 0 762.551 387.836 2
-1 14 0 104.881 159.714 4
-1 -13 0 266.299 126.51 4
-13 14 0 861.888 342.573 2
14 -13 0 272.771 184.379 2
-1 -13 0 616.026 279.604 3
14 -1 0 633.745 352.6 1
-1 -13 0 148.594 102.971 1
-1 14 0 449.783 285.189 3
14 -1 3 6397.73 910.43 1
-13 -1 -3 7644.33 903.269 2
-13 14 3 5626.14 915.851 2
14 -13 -3 6310.06 1023.36 2
14 -13 -3 6659.49 961.636 1
14 -1 3 7021.84 938.445 2
-13 -1 -3 6243.14 866.42 1
-1 14 -3 7827.92 1147.91 4
14 -1 3 8195 1039.84 4
-1 -13 3 5106 753.914 4
-1 -13 3 6403.66 874.561 3
-13 14 3 6234.81 867.268 1
-1 14 -3 6469.99 933.108 3
-1 -13 3 6236.88 813.882 1
-1 -13 6 141.448 132.434 1
14 -13 -6 529.996 291.614 1
-13 14 6 504.199 245.893 2
-13 -1 -6 352.935 222.591 1
-13 14 6 316.827 227.213 1
14 -1 6 731.351 329.794 1
-13 -1 -6 393.968 243.453 2
14 -13 -6 467.057 403.375 2
-1 14 -6 902.166 485.192 4
14 -1 6 86.0183 177.886 4
-13 -1 -6 194.789 135.67 4
-1 -13 6 230.411 153.312 3
-1 14 -6 646.939 375.289 3
-1 -13 9 416.489 227.587 1
14 -1 9 1173.28 421.396 1
-13 14 9 827.545 387.311 2
-13 -1 -9 619.822 251.258 1
14 -13 -9 1248.79 558.859 2
-13 14 9 766.323 322.416 1
-13 -1 -9 609.751 211.367 4
-13 -1 -9 449.793 233.971 2
14 -13 -9 1344.48 594.667 1
-1 -13 12 679.77 319.375 1
-13 14 12 715.802 316.598 1
14 -1 12 440.979 293.406 1
14 -13 -12 1164.5 509.891 1
14 -13 -12 1206.6 527.138 2
-13 -1 -12 624.93 321.746 4
-1 14 -12 286.48 232.967 3
-1 -13 15 1128.22 497.736 1
-13 14 15 1170.18 417.778 1
-13 -1 -15 1037.21 535.191 4
14 -13 -15 1930.6 746.452 2
-1 14 -15 2875.37 785.128 3
14 0 -13 838.005 254.227 2
0 -14 -13 428.908 187.08 2
-14 0 13 834.559 364.023 1
-14 0 13 743.049 322.625 3
-14 14 -13 466.417 136.163 4
0 -14 -13 521.694 230.44 3
0 14 10 1656.73 460.544 3
14 0 -10 1449.11 590.889 2
0 -14 -10 924.519 217.667 2
-14 0 10 744.108 399.216 1
0 -14 -10 1460.99 451.93 3
0 14 7 689.26 276.055 3
14 0 -7 541.66 393.229 2
-14 0 7 777.86 369.725 1
0 -14 -7 -70.6671 355.111 4
14 -14 7 486.396 133.473 4
0 -14 -7 470.707 265.421 3
0 14 4 3155.85 605.395 3
0 14 4 2885.96 330.716 2
-14 0 4 3640.09 791.265 2
14 0 -4 4868.41 985.366 2
14 -14 4 2670.47 602.09 1
14 0 -4 4371.51 902.821 1
0 -14 -4 3991.18 849.175 4
-14 0 4 3392.61 767.837 1
0 -14 -4 2890.18 539.497 3
-14 14 -4 3210.78 712.689 2
0 -14 -4 3534.87 427.535 1
0 -14 -1 6.79083 104.412 1
-14 14 -1 471.127 249.021 2
-14 0 1 112.01 200.875 1
-14 14 -1 624.26 283.015 1
-14 0 1 363.278 292.085 2
14 0 -1 429.461 337.184 2
14 -14 1 630.602 277.938 1
0 -14 -1 527.748 294.447 4
14 0 -1 326.514 263.508 1
0 -14 -1 257.851 259.951 3
0 14 1 555.636 398.336 4
0 14 1 230.229 162.241 3
14 0 2 2345.49 554.081 1
0 14 -2 2377.65 688.632 4
-14 0 -2 2798.22 576.48 2
-14 0 -2 2824.61 628.752 1
14 -14 -2 2065.43 533.163 1
-14 14 2 1888.45 548.707 2
14 -14 -2 2388.11 600.961 2
14 0 2 2727.01 610.842 2
0 -14 2 1760.65 465.158 4
0 -14 2 2287.84 506.524 3
-14 14 2 2027.34 529.758 1
14 0 2 3374.26 748.212 4
0 14 -2 2719.98 609.87 3
-14 14 5 470.611 226.681 1
-14 0 -5 612.622 313.421 1
14 -14 -5 -182.283 302.443 2
14 -14 -5 651.625 368.882 1
14 0 5 432.427 247.111 1
14 0 5 274.653 177.588 4
-14 14 5 709.438 395.375 2
-14 0 -5 578.901 348.467 2
0 -14 5 396.583 228.443 3
0 14 -5 390.465 222.484 4
14 0 5 490.569 311.226 2
0 14 -5 8.99659 280.971 3
0 14 -8 9814.79 1353.19 3
-14 14 8 7668.74 1196.93 2
14 -14 -8 8991.78 1346.19 2
-14 0 -8 7661.23 973.795 2
-14 14 8 7824.2 1018.59 1
14 0 8 7764.17 1029.04 1
-14 0 -8 5842.13 740.943 4
0 14 -8 9213.21 1466.68 4
-14 0 -8 7720.97 1055.47 1
14 -14 -8 8407.07 1172.63 1
14 0 11 388.281 239.573 1
0 -14 11 589.941 278.757 1
-14 14 11 350.91 243.924 1
14 -14 -11 903.83 481.932 2
-14 0 -11 360.935 177.168 4
14 -14 -11 746.132 349.848 1
0 14 -11 403.698 267.979 3
0 -14 14 1808.75 560.469 1
-14 14 14 2152.34 559.051 1
-14 0 -14 2934.17 702.97 4
14 -14 -14 3075.87 958.002 2
0 14 -14 2386.63 735.286 3
-15 1 14 175.345 194.544 3
14 1 -14 -663.827 746.16 2
1 -15 -14 342.172 211.57 2
-15 1 14 154.425 423.207 1
14 1 -11 654.855 275.212 2
1 -15 -11 480.189 185.804 2
-15 1 11 354.563 277.897 1
1 -15 -11 287.642 183.355 3
1 14 8 2281.23 589.108 3
14 1 -8 737.562 369.059 2
1 -15 -8 1496.72 470.611 3
-15 1 8 1716.91 638.198 1
1 -15 -5 4092.17 432.57 1
14 1 -5 4368.23 991.689 2
1 -15 -5 5622.28 1080.36 4
14 -15 5 5127.54 577.277 4
1 14 5 5487.19 912.684 3
1 -15 -5 4409.25 778.78 3
-15 1 5 5446.9 1024.2 1
1 14 2 1612.61 526.814 3
14 -15 2 759.96 308.897 1
-15 1 2 2574.79 719.943 1
1 -15 -2 2040.56 546.118 4
-15 1 2 2727.49 764.614 2
14 1 -2 1684.55 569.259 2
14 1 -2 712.178 317.027 1
-15 14 -2 1239.85 511.582 2
1 14 2 926.359 473.799 4
1 -15 -2 1482.96 470.091 3
-15 14 -2 1160.05 457.653 1
14 -15 -1 1113.95 381.407 1
-15 14 1 1023.5 309.323 2
1 -15 1 979.967 390.316 4
-15 1 -1 1099.4 406.43 2
-15 1 -1 1115.17 447.24 1
14 1 1 624.922 262.695 2
-15 14 1 696.565 290.58 1
1 14 -1 932.055 405.448 4
14 1 1 1141.46 451.971 4
14 1 1 1522.61 486.041 1
1 -15 1 679.357 343.875 3
14 -15 -1 521.944 222.445 2
1 14 -1 885.678 467.649 3
14 -15 -4 1421.64 438.562 2
-15 1 -4 2284.8 591.617 1
14 1 4 1732.55 486.154 1
-15 14 4 1893.88 572.609 1
14 1 4 1588.32 432.441 2
-15 14 4 1718.03 676.64 2
14 -15 -4 1574.17 469.77 1
-15 1 -4 1275.66 410.239 2
14 1 4 1839.27 559.554 4
1 -15 4 1286.71 376.417 4
1 14 -4 1939.37 654.374 4
1 -15 4 1407.27 407.155 3
1 14 -4 1332.18 457.517 3
-15 1 -7 1923.67 562.631 1
-15 1 -7 1115.4 400.923 2
14 -15 -7 1882.36 581.355 1
14 1 7 2320.9 585.4 1
14 -15 -7 1804.22 622.781 2
14 1 7 1120.89 396.903 4
-15 14 7 1439.56 503.06 1
1 14 -7 1873.03 658.891 3
-15 1 -10 931.672 455.056 1
-15 14 10 796.043 380.348 1
14 -15 -10 593.209 258.558 2
14 -15 -10 555.372 393.824 1
14 1 10 542.095 313.235 1
-15 1 -10 303.333 297.102 2
1 14 -10 693.957 354.627 3
-15 1 -10 592.069 286.217 4
14 1 13 807.368 405.489 1
-15 14 13 602.931 357.4 1
14 -15 -13 784.733 456.203 1
14 -15 -13 750.727 538.97 2
-15 1 -13 681.747 361.455 4
1 14 -13 863.43 375.172 3
14 2 -12 -481.934 309.675 2
-16 2 12 386.072 355.073 1
2 -16 -12 -17.3995 130.426 2
2 14 9 982.176 414.273 3
14 2 -9 164.714 340.075 2
2 -16 -9 906.049 231.041 2
-16 2 9 1552.56 591.28 1
2 -16 -9 938.487 400.194 3
2 14 6 1310.58 391.421 3
14 2 -6 1875.81 653.195 2
2 -16 -6 1217.72 227.394 1
2 -16 -6 1052.11 355.401 4
2 -16 -6 1037.44 326.403 3
-16 2 6 1630.55 544.676 1
14 -16 6 1610.04 321.647 4
2 14 3 1814.18 506.529 3
-16 2 3 2104.39 562.173 1
-16 14 -3 1727.03 525.953 1
-16 2 3 2481.99 692.009 2
14 2 -3 2638.23 683.378 2
2 -16 -3 2091.88 588.502 4
2 -16 -3 1417.2 405.297 3
2 14 0 2747.07 638.675 3
-16 14 0 2874.36 666.193 1
-16 2 0 2426.66 599.318 1
-16 2 0 3325.34 702.854 2
14 2 0 3218 717.906 1
14 2 0 3340.57 718.921 2
14 -16 0 2654.32 629.693 1
2 -16 0 2190.55 559.29 4
-16 14 0 2058.35 574.856 2
14 2 0 1855.78 557.95 4
2 -16 0 2597.37 588.711 3
2 14 0 2485.15 698.374 4
2 14 -3 382.485 234.037 3
14 2 3 621.313 378.329 4
14 2 3 586.452 236.482 2
-16 14 3 354.382 226.286 1
2 14 -3 485.466 170.313 4
-16 14 3 1046.31 428.112 2
-16 2 -3 494.771 260.435 2
2 -16 3 154.927 153.587 4
14 -16 -3 517.725 311.118 1
-16 2 -3 692.537 319.463 1
14 -16 -3 637.788 211.281 2
14 2 3 693.802 260.087 1
2 14 -6 2263.99 679.96 3
14 2 6 2680.5 587.36 1
14 -16 -6 2425.68 580.461 1
14 -16 -6 2437.6 661.275 2
-16 2 -6 2352.09 556.644 1
14 2 6 3329.39 703.443 4
-16 14 6 2595.53 637.641 1
-16 2 -6 2216.57 569.795 2
2 14 -9 1169.64 497.034 3
-16 2 -9 884.475 342.455 1
-16 2 -9 761.37 272.488 4
-16 14 9 1262.74 446.524 1
14 2 9 1046.6 375.777 1
14 -16 -9 1617.63 589.18 2
-16 2 -9 621.841 313.075 2
14 -16 -9 1326.47 424.784 1
-16 14 12 926.935 389.774 1
14 -16 -12 1098.44 429.747 1
14 -16 -12 987.231 396.334 2
-16 2 -12 625.188 269.696 4
2 14 -12 1595.02 583.949 3
14 2 12 704.487 334.198 1
14 3 -13 1357.38 602.831 2
3 -17 -13 1637.68 454.369 2
-17 3 13 828.842 541.968 1
14 3 -10 693.301 562.771 2
3 -17 -10 593.926 228.261 2
-17 3 10 -20.4834 173.642 1
14 3 -7 3640.94 1003.3 2
3 14 7 4767.35 889.594 3
3 -17 -7 3389.14 396.387 1
14 -17 7 4058.6 510.738 4
-17 3 7 3914.3 906.594 1
3 14 4 428.288 253.157 3
-17 3 4 1119.13 512.03 1
3 -17 -4 1555.98 552.919 4
14 3 -4 2003.73 681.336 2
14 -17 4 884.416 276.468 4
-17 14 -4 1007.22 480.298 1
3 14 1 -83.0866 179.051 3
14 -17 1 187.087 173.954 1
-17 14 -1 206.727 227.563 1
-17 3 1 643.091 404.203 1
-17 3 1 219.241 206.125 2
14 3 -1 58.2373 158.131 2
14 3 -1 -106.44 148.543 1
14 -17 -2 977.877 319.839 1
14 3 2 1776.44 646.842 4
-17 14 2 1188.82 446.339 1
-17 3 -2 1659.84 519.546 2
14 3 2 1426.04 457.638 2
14 3 2 1703.9 503.759 1
3 -17 2 872.333 314.568 4
3 14 -2 1251.13 424.754 3
-17 3 -2 1155.88 474.494 1
14 -17 -2 1062.65 422.776 2
3 14 -5 2122.43 630.053 3
14 3 5 2035.25 555.755 1
14 3 5 2274.05 683.606 4
3 -17 5 1319.55 432.337 4
-17 3 -5 1581.83 474.482 1
14 -17 -5 1896.52 545.192 1
14 -17 -5 1882.1 573.716 2
14 3 5 1877.31 514.577 2
-17 3 -5 2180.76 577.907 2
-17 14 5 1169.29 414.083 1
3 14 -8 394.674 242.167 3
14 -17 -8 143.795 192.829 1
-17 3 -8 276.628 224.792 1
14 3 8 256.291 212.103 1
14 3 8 432.082 323.123 4
-17 3 -8 695.718 327.789 2
-17 14 8 104.377 280.797 1
14 -17 -8 314.668 194.471 2
3 14 -11 1437.73 616.61 3
14 -17 -11 1569.31 534.588 1
-17 14 11 1160.49 494.158 1
14 -17 -11 839.445 470.783 2
-17 3 -11 522.519 189.596 4
14 3 11 843.363 408.676 1
3 14 -14 927.741 468.399 3
-17 14 14 270.055 300.169 1
14 -17 -14 616.918 377.355 1
14 -17 -14 885.113 512.339 2
-17 3 -14 482.918 274.673 4
14 3 14 236.108 187.001 1
14 4 -14 348.909 506.902 2
4 -18 -14 160.637 206.591 2
-18 4 14 139.451 222.961 1
4 -18 -11 835.978 322.195 2
14 4 -11 233.497 318.111 2
-18 4 11 40.2005 267.562 1
4 -18 -8 189.583 107.335 1
14 4 -8 -1.483 298.555 2
14 -18 8 538.781 217.276 4
-18 4 8 532.79 428.033 1
4 -18 -5 463.402 141.914 1
4 14 5 491.588 316.521 3
-18 4 5 651.17 332.359 1
14 4 -5 1514.22 603.672 2
-18 14 -5 1367.46 502.628 1
4 -18 -5 -15.0458 289.185 4
14 -18 5 460.647 223.574 4
4 14 2 89.8368 214.149 3
4 14 2 572.245 173.614 2
-18 4 2 921.499 493.823 1
14 4 -2 336.371 211.529 2
-18 14 -2 302.25 177.423 1
4 14 -1 2463.18 636.508 3
-18 4 -1 2851.33 711.249 2
14 4 1 1763.58 509.326 2
14 -18 -1 1383.06 443.594 1
-18 4 -1 2855.9 822.033 1
4 -18 1 1991.82 583.067 4
14 4 1 2945.29 815.427 4
-18 14 1 2144.38 645.989 1
14 4 1 2352.75 601.589 1
4 14 -4 2037.4 594.657 3
-18 14 4 2455.39 673.986 1
-18 4 -4 2214.7 701.695 1
4 -18 4 1558.32 440.962 4
-18 4 -4 2927.21 674.237 2
14 4 4 2676.27 731.151 4
14 -18 -4 2114.52 632.06 2
14 -18 -4 1911.17 508.46 1
14 4 4 3176.78 684.531 1
14 4 4 2216.51 565.871 2
4 14 -7 952.88 533.69 3
14 4 7 649.395 364.267 1
-18 4 -7 495.863 183.275 1
14 -18 -7 847.75 393.777 1
14 -18 -7 426.016 212.297 2
14 4 7 680.948 313.111 4
-18 14 7 555.007 416.55 1
-18 4 -7 551.739 225.618 2
14 4 10 1699.52 497.144 1
-18 14 10 1517.3 528.034 1
14 -18 -10 1771.5 613.85 2
14 -18 -10 1623.33 528.803 1
-18 4 -10 2144.91 671.031 1
4 14 -10 1964.74 659.238 3
4 14 -13 -49.8415 367.556 3
14 4 13 86.4557 158.895 1
-18 14 13 -8.66243 232.418 1
14 -18 -13 83.921 157.645 1
14 -18 -13 -207.396 444.168 2
-18 4 -13 13.2277 151.315 4
14 5 -12 311.077 263.717 2
-19 5 12 509.116 346.78 1
5 -19 -12 734.687 340.171 2
5 -19 -9 -82.5164 149.656 2
5 -19 -9 293.03 125.648 1
-19 5 9 450.773 257.349 1
-19 5 6 549.98 385.759 1
14 5 -6 957.831 561.639 2
5 -19 -6 616.33 243.413 1
14 -19 6 635.108 236.063 4
-19 14 -6 273.806 163.246 1
5 14 3 852.525 451.244 3
5 14 3 541.627 152.943 2
-19 5 3 1897.38 651.693 1
14 5 -3 1016.6 370.997 2
14 -19 3 707.552 303.576 4
5 -19 -3 1762.74 577.447 4
-19 14 -3 487.07 288.593 1
-19 14 0 -85.4794 229.868 1
14 -19 0 103.526 134.04 1
5 14 0 287.168 184.473 3
5 14 0 -40.4249 188.224 2
14 5 0 412.01 288.685 2
14 5 0 277.973 241.253 1
-19 5 0 -193.604 335.131 1
5 -19 0 98.6116 288.12 4
5 14 -3 3674.48 867.791 3
-19 5 -3 2805.67 741.449 1
14 -19 -3 2496.37 611.423 1
-19 14 3 3139.82 768.341 1
5 -19 3 1493.32 486.618 4
14 5 3 3166.1 692.313 2
14 5 3 2503.7 623.7 1
14 5 3 4355.26 1023.99 4
14 -19 -3 2174.69 666.644 2
-19 14 6 301.237 196.803 1
5 14 -6 376.369 276.558 3
14 -19 -6 319.795 205.914 2
14 -19 -6 98.9035 186.878 1
5 -19 6 303.097 227.789 4
14 5 6 120.443 112.808 2
-19 5 -6 -292.702 337.108 1
14 5 6 -66.9294 144.85 1
14 5 6 171.14 271.906 4
5 14 -9 435.459 497.063 3
14 5 9 25.2171 191.5 1
-19 5 -9 219.968 231.518 1
14 -19 -9 561.384 411.253 2
-19 14 9 108.417 290.631 1
14 -19 -9 160.82 265.782 1
5 14 -12 -340.227 541.347 3
-19 14 12 10.7116 174.495 1
14 5 12 92.8332 195.396 1
14 -19 -12 561.646 478.858 2
14 -19 -12 312.353 159.537 1
14 6 -13 -239.976 410.763 2
6 -20 -13 266.311 240.666 2
-20 6 13 106.771 271.746 1
-20 6 10 64.2937 247.868 1
14 6 -10 -2.99197 312.977 2
6 -20 -10 89.9961 80.2979 1
6 -20 -10 205.234 212.775 2
-20 6 7 839.909 307.02 1
14 6 -7 1848.16 723.497 2
14 -20 7 1023.5 314.329 4
6 -20 -7 1240.2 314.233 1
6 14 4 2.6123 131.051 1
-20 14 -4 62.747 268.233 1
14 -20 4 342.032 246.242 4
-20 6 4 896.751 468.204 1
14 6 -4 530.402 328.461 2
6 -20 -4 195.065 156.186 1
6 14 4 106.589 103.589 2
6 -20 -4 556.706 417.074 4
6 14 1 298.387 259.622 3
6 14 1 1285.45 356.706 2
14 6 -1 1150.55 368.912 2
-20 14 -1 387.245 378.329 1
6 -20 -1 1053.13 453.327 4
-20 6 1 1297.9 524.83 1
6 14 -2 8444.89 1110.95 2
14 6 2 8054.51 1038.9 2
14 -20 -2 7064.23 1027.07 1
-20 6 -2 8108.78 1269.97 1
-20 14 2 7627.74 1215.44 1
6 14 -2 7648.91 1232.06 3
6 -20 2 5783.64 967.976 4
14 6 2 8175.19 1166.2 1
14 -20 -5 266.399 210.768 1
6 14 -5 -359.723 416.857 3
6 -20 5 225.264 193.759 4
14 6 5 48.5132 159.851 2
-20 6 -5 483.809 324.954 1
14 6 5 -10.9294 145.31 1
14 -20 -5 -381.194 384.12 2
-20 14 5 410.761 350.137 1
14 -20 -8 419.872 280.962 1
6 14 -8 -292.956 427.412 3
14 -20 -8 341.023 277.868 2
-20 14 8 112.171 164.809 1
-20 6 -8 -247.806 260.844 1
14 6 8 507.7 328.707 1
6 14 -11 576.278 413.87 3
14 6 11 296.247 214.96 1
-20 14 11 217.02 226.908 1
14 -20 -11 -32.0824 246.163 2
14 -20 -11 573.403 291.579 1
-21 7 11 229.034 263.702 1
7 14 11 654.539 155.868 1
14 7 -11 918.633 630.711 2
7 -21 -11 604.145 176.003 1
7 -21 -11 1528.61 500.927 2
7 14 8 532.097 195.643 1
-21 7 8 584.047 512.156 1
14 7 -8 385.637 397.796 2
7 -21 -8 529.023 199.853 1
14 -21 8 448.128 182.677 4
14 7 -5 4252.22 1091.46 2
-21 7 5 4468.76 982.907 1
-21 14 -5 3432.58 799.607 1
14 -21 5 3111.01 601.829 4
7 -21 -5 4083.33 630.834 1
7 14 5 4178.85 633.133 1
7 14 2 663.849 267.863 1
-21 14 -2 1197.57 429.097 1
7 14 2 943.618 281.063 2
14 7 -2 839.273 459.762 2
-21 7 2 740.328 460.905 1
7 -21 -2 732.46 382.34 4
14 -21 2 996.665 419.887 4
7 14 -1 1215 441.179 1
7 14 -1 1433.92 551.769 3
7 14 -1 1249.57 426.855 2
-21 14 1 2052.59 700.185 1
14 7 1 1441.07 476.812 1
14 7 1 1120.83 380.644 2
7 -21 1 1073.67 463.195 4
14 -21 -1 1313.33 456.224 1
-21 7 -1 2196.85 797.376 1
7 14 -4 1954.05 721.154 3
14 -21 -4 1294.5 474.778 1
7 14 -4 1444.78 493.877 2
-21 7 -4 1275.38 488.56 1
14 7 4 1251.41 426.956 1
14 7 4 1357.69 439.841 2
14 -21 -4 1168.13 416.312 2
7 -21 4 637.771 338.357 4
-21 14 4 1735.95 611.682 1
7 14 -7 776.302 498.376 3
7 14 -7 824.59 540.976 2
14 7 7 406.83 239.071 1
-21 7 -7 123.237 187.302 1
14 -21 -7 693.833 311.824 1
14 -21 -7 256.015 311.912 2
7 -21 7 20.1344 110.121 4
-21 14 7 709.201 321.989 1
7 14 -10 234.816 206.418 3
7 14 -10 -34.685 331.647 2
-21 14 10 536.181 392.268 1
14 -21 -10 -24.0598 193.939 2
-21 7 -10 856.851 576.693 1
14 -21 -10 144.883 236.715 1
14 7 10 458.868 272.636 1
8 14 9 653.39 225.999 1
-22 8 9 345.795 319.087 1
8 -22 -9 416.28 237.41 1
14 8 -9 1024.48 694.876 2
8 -22 -9 1006.27 435.187 2
8 14 6 1138.52 365.216 1
14 8 -6 776.029 210.997 2
8 -22 -6 994.668 318.319 1
-22 8 6 714.904 385.62 1
14 -22 6 687.909 204.844 4
-22 14 -6 560.339 338.436 1
8 14 3 1332.1 434.712 1
14 -22 3 1271.25 449.846 4
-22 14 -3 1266.67 610.491 1
14 8 -3 1684.38 600.863 2
8 14 3 1803.72 382.367 2
8 -22 -3 2090.16 519.081 1
-22 8 3 2980.84 787.459 1
8 -22 -3 1941.31 705.626 4
8 14 0 3055.46 697.016 1
8 14 0 3123.81 636.153 2
14 8 0 3268.17 699.801 2
-22 14 0 2919.1 797.427 1
8 -22 0 2118.06 565.577 4
-22 8 0 3790.68 991.474 1
-22 14 3 729.539 455.566 1
8 14 -3 354.236 400.607 3
8 14 -3 550.032 333.601 2
-22 8 -3 112.905 196.29 1
14 -22 -3 762.466 298.149 1
14 8 3 466.527 175.666 1
14 8 3 538.282 275.064 2
8 -22 3 158.868 187.005 4
8 14 -6 417.95 502.193 3
-22 8 -6 -29.7091 370.251 1
8 14 -6 703.914 468.136 2
8 -22 6 268.575 173.95 4
14 -22 -6 647.794 349.148 1
-22 14 6 360.326 265.694 1
14 8 6 349.766 238.463 1
14 8 6 589.742 270.853 2
14 -22 -6 483.909 214.312 2
8 14 -9 73.3249 272.765 3
14 -22 -9 452.944 328.074 1
8 14 -9 579.261 591.975 2
-22 14 9 526.758 500.366 1
-22 8 -9 691.656 462.915 1
14 8 9 617.491 287.437 1
14 -22 -9 460.518 207.226 2
9 14 10 -170.518 188.652 1
-23 9 10 350.544 176.054 1
14 9 -10 -157.532 468.015 2
9 -23 -10 159.465 259.659 2
9 -23 -10 -51.6354 128.833 1
9 14 7 -27.8196 103.918 1
9 -23 -7 81.1048 101.83 1
14 9 -7 238.26 237.769 2
-23 9 7 459.478 467.514 1
-23 14 -7 -261.284 345.794 1
14 -23 7 122.277 136.234 4
9 14 4 515.249 249.348 1
9 -23 -4 1034.06 378.997 1
14 9 -4 615.913 346.178 2
9 -23 -4 753.542 517.618 4
-23 14 -4 785.1 531.504 1
9 14 4 687.269 227.553 2
14 -23 4 963.7 434.983 4
-23 9 4 1782.73 667.304 1
9 14 1 604.131 345.957 1
9 14 1 689.138 221.335 2
14 9 -1 361.865 228.644 2
9 -23 -1 900.858 453.328 4
14 -23 1 801.485 358.386 4
-23 14 -1 980.534 474.748 1
-23 9 1 998.156 538.356 1
9 -23 2 171.44 167.015 4
-23 14 2 696.263 412.365 1
9 14 -2 80.0663 220.383 2
-23 9 -2 326.5 303.623 1
14 9 2 421.508 311.145 2
14 -23 -5 596.824 376.438 1
9 14 -5 237.271 286.04 2
14 9 5 422.038 274.502 1
14 9 5 388.387 277.604 2
9 -23 5 99.3959 153.848 4
-23 14 5 581.147 342.441 1
-23 9 -5 910.449 449.086 1
-23 9 -8 -182.166 263.637 1
9 14 -8 441.692 495.657 2
14 -23 -8 560.606 342.022 1
-23 14 8 434.414 385.887 1
14 9 8 479.439 266.651 1
14 -23 -8 -45.6599 312.186 2
9 -23 8 292.471 219.066 4
9 14 -11 224.665 480.879 2
14 -23 -11 246.174 244.483 1
-23 14 11 374.383 382.682 1
14 -23 -11 -9.19517 271.834 2
14 9 11 91.9271 117.322 1
-24 14 -8 281.468 235.248 1
10 14 8 570.885 293.236 1
14 10 -8 -85.6505 465.47 2
-24 10 8 266.733 456.558 1
10 -24 -8 179.818 113.72 1
14 -24 8 128.601 140.996 4
10 14 5 346.136 175.321 1
14 10 -5 -353.474 407.199 2
-24 10 5 251.673 240.28 1
10 14 5 312.191 175.693 2
10 -24 -5 872.98 344.977 1
14 -24 5 219.46 155.58 4
-24 14 -5 -96.0595 291.587 1
10 14 2 -66.7146 176.686 1
14 10 -2 126.211 217.022 2
10 14 2 38.2909 163.88 2
10 -24 -2 9.22041 341.728 4
-24 14 -2 323.006 380.355 1
10 -24 -2 608.611 347.546 1
14 -24 2 698.366 373.84 4
-24 10 2 80.3715 231.022 1
-24 10 -1 684.439 417.476 1
10 14 -1 333.434 194.89 2
-24 14 1 34.0531 281.815 1
14 10 1 -16.5706 149.927 2
10 -24 1 664.719 357.799 4
10 14 -4 2047.33 688.697 2
14 -24 -4 1897.14 563.519 1
14 10 4 822.345 320.081 1
14 10 4 1692.72 438.693 2
-24 10 -4 1951.23 637.788 1
10 -24 4 1222.38 444.511 4
-24 14 4 1384.47 627.917 1
10 14 -7 870.932 613.102 2
-24 10 -7 93.0365 374.695 1
10 -24 7 97.8792 133.015 4
14 10 7 222.077 292.283 1
14 -24 -7 -110.419 140.41 1
-24 14 7 568.488 475.152 1
14 -24 -7 69.7612 370.448 2
14 -24 -10 165.45 245.734 1
-24 10 -10 816.99 452.55 1
10 14 -10 -510.609 390.728 2
-24 14 10 390.656 272.85 1
14 10 10 303.588 228.504 1
14 -24 -10 -331.817 285.107 2
11 14 9 563.874 255.925 1
14 11 -9 100.987 355.515 2
11 -25 -9 274.553 230.21 1
-25 11 9 72.247 292.113 1
-25 14 -9 46.4047 241.649 1
14 -25 9 302.651 224.45 4
-25 14 -6 331.163 272.503 1
11 14 6 -48.0247 147.406 1
11 -25 -6 17.4852 157.929 1
14 11 -6 486.684 471.378 2
-25 11 6 929.469 532.433 1
14 -25 6 349.552 266.612 4
11 14 6 176.042 136.114 2
-25 14 -3 -20.8092 302.081 1
11 -25 -3 -493.65 443.523 4
11 14 3 150.733 252.527 1
14 11 -3 268.688 373.713 2
11 -25 -3 -204.608 259.807 1
11 14 3 276.993 246.468 2
14 -25 3 156.843 136.638 4
-25 11 3 320.237 280.688 1
11 14 0 564.009 333.502 2
-25 14 0 1371.4 571.015 1
14 11 0 803.089 261.653 2
11 -25 0 851.24 464.361 4
14 -25 0 643.22 383.347 4
11 14 -3 424.179 376.934 2
14 11 3 439.468 264.293 2
-25 11 -3 693.192 446.029 1
-25 14 3 693.732 447.809 1
11 -25 3 255.015 258.722 4
11 14 -6 102.371 298.41 2
-25 11 -6 288.915 385.497 1
14 11 6 449.225 254.219 1
-25 14 6 348.396 171.773 1
11 -25 6 212.623 169.319 4
14 11 6 150.022 118.365 2
14 -25 -6 642.934 431.799 1
11 14 -9 947.85 532.04 2
14 -25 -9 243.885 264.925 1
14 11 9 -31.7902 129.58 1
-25 14 9 328.704 374.964 1
14 -25 -9 315.312 291.814 2
-25 11 -9 203.979 216.105 1
12 14 7 307.78 234.766 1
14 12 -7 62.8351 390.042 2
-26 14 -7 170.573 282.897 1
14 -26 7 270.301 301.118 4
-26 12 7 760.561 354.252 1
12 -26 -7 557.881 376.087 1
-26 14 -4 669.361 373.131 1
12 14 4 501.631 346.409 1
14 12 -4 767.151 405.738 2
12 14 4 656.563 215.729 2
14 -26 4 374.197 284.723 4
-26 12 4 365.368 487.133 1
12 -26 -4 -108.697 116.939 1
-26 12 1 864.591 380.563 1
14 12 -1 -43.5488 211.51 2
12 14 1 330.289 284.686 2
12 -26 -1 305.479 288.949 4
-26 14 -1 275.228 364.968 1
14 -26 1 -280.287 196.454 4
-26 14 2 933.734 472.256 1
12 14 -2 810.189 448.713 2
12 -26 2 194.669 167.514 4
-26 12 -2 353.025 322.601 1
14 12 2 1129.33 479.696 2
-26 12 -5 64.6904 224.535 1
14 -26 -5 8.77439 296.121 1
12 14 -5 -40.1476 342.396 2
14 12 5 570.856 324.551 1
14 12 5 239.801 144.64 2
12 -26 5 251.066 271.207 4
-26 14 5 453.642 390.579 1
12 14 -8 309.317 346 2
-26 12 -8 -570.894 432.306 1
14 12 8 -142.253 164.033 1
14 -26 -8 32.9812 232.367 1
12 -26 8 369.232 249.105 4
14 -26 -8 -444.465 426.51 2
-26 14 8 535.794 253.526 1
13 14 5 556.432 296.578 2
14 -27 5 15.6797 189.899 4
13 14 5 397.651 301.395 1
14 13 -5 626.36 604.58 2
-27 14 -5 175.924 450.835 1
13 -27 -5 551.289 141.675 1
-27 13 5 510.407 336.381 1
-27 13 2 1228.78 617.365 1
-27 14 -2 1382.45 682.007 1
14 -27 2 768.943 382.698 4
14 13 -2 1337.75 621.24 2
13 14 2 863.051 402.513 2
13 -27 -2 148.993 272.598 4
14 -27 -1 869.791 460.886 4
-27 14 1 1381.62 620.973 1
13 14 -1 1291.37 646.247 2
13 -27 1 943.204 527.585 4
-27 13 -1 612.417 490.662 1
14 13 1 1257.64 426.381 2
13 14 -4 -36.0884 361.035 2
14 13 4 348.459 267.64 2
13 -27 4 7.91756 255.01 4
-27 14 4 670.505 440.44 1
-27 13 -4 421.046 319.511 1
-28 14 0 3075.24 940.264 1
14 14 0 3177.96 880.751 2
14 -28 0 2298.48 702.173 4
-28 14 3 682.073 490.874 1
14 14 -3 781.389 638.182 2
14 14 3 156.511 242.34 2
14 -28 3 627.67 399.22 4
-28 14 -3 343.057 318.109 1
14 -28 -3 560.718 338.093 4
-7 -8 -14 528.36 288.802 3
-8 -7 14 -251.413 327.457 1
-7 15 14 -21.8138 99.5776 1
15 -7 -14 307.782 268.123 2
-8 15 -14 513.04 321.499 4
-8 -7 14 268.579 142.551 3
-7 15 14 240.522 187.424 3
-7 -8 -11 6497.09 1206.65 4
-7 15 11 5914.08 881.003 2
15 -7 -11 7929.51 1550.8 2
-7 15 11 6008.66 640.401 1
-8 15 -11 6122.56 957 4
-7 15 11 5635.56 761.99 3
-8 -7 11 5625.44 805.87 3
-7 -8 -11 7494.8 1064.33 3
-8 -7 11 6594.9 1086.11 1
-7 -8 -8 1024.71 363.887 3
-7 -8 -8 1407.41 311.346 1
-8 15 -8 604.311 280.345 4
-8 -7 8 664.619 371.293 1
-7 15 8 627.333 344.502 2
15 -7 -8 845.724 338.814 2
-7 -8 -8 1474.92 286.813 2
-7 15 8 360.912 230.846 3
-7 15 8 887.043 246.637 1
-7 -8 -8 1220.81 503.733 4
-8 -7 8 832.728 280.644 3
-7 -8 -5 5469.31 478.633 2
15 -7 -5 7533.8 1188.56 2
-7 15 5 6422.37 808.35 2
-7 -8 -5 5439.9 641.05 1
-8 15 -5 4861.46 793.647 4
-7 -8 -5 5022.8 835.862 4
15 -8 5 4788.7 755.972 1
-7 15 5 5665.12 791.167 3
-8 -7 5 5447.26 810.286 3
-7 -8 -5 5983.27 898.437 3
-8 -7 5 5556 904.081 1
15 -7 -5 7833.35 1175.71 1
-8 -7 2 3617 650.682 3
-7 -8 -2 3804.7 651.098 3
-7 -8 -2 4154.27 488.842 2
15 -7 -2 3449.14 706.286 1
-7 15 2 3672.98 587.908 2
-8 -7 2 3697.42 696.34 1
-7 -8 -2 3668.61 571.114 1
-7 -8 -2 2775.55 539.504 4
15 -8 2 3563.96 669.566 1
15 -8 2 3235.26 661.553 2
15 -7 -2 4211.81 849.558 2
-8 -7 -1 10864 909.292 2
15 -8 -1 12779.3 1358.84 1
15 -8 -1 12887.2 1390.52 2
15 -7 1 11596.7 1222.18 1
15 -7 1 11457.4 1240.12 2
-8 15 1 8615.86 931.018 2
-8 -7 -1 7827.34 893.409 4
-7 -8 1 9630.96 1064.9 3
-8 -7 -1 11118.8 1185.74 3
-7 -8 1 10246.1 1074.69 1
-8 -7 -1 11567.7 1101.6 1
15 -8 -4 3465.64 850.627 1
-7 -8 4 2731.79 602.595 3
15 -7 4 3038.21 593.523 1
-8 -7 -4 2745.8 603.547 3
-8 -7 -4 2668.9 405.173 2
-8 -7 -4 2408.05 471.086 1
-7 -8 4 3245.3 695.209 1
15 -8 -4 4041.48 925.725 2
-8 15 4 2844.78 558.462 2
-7 15 -4 2176.26 466.105 4
-8 -7 -4 2679.13 595.47 4
-8 -7 -7 3172.72 688.383 3
-8 -7 -7 2899.77 418.175 2
-7 -8 7 3326.7 729.662 1
15 -8 -7 3663.61 884.376 1
-8 15 7 3116.54 623.263 2
15 -8 -7 4495.45 995.198 2
15 -7 7 2474.58 576.004 1
15 -7 7 1575.36 235.092 4
-8 -7 -7 3033 510.738 1
-8 -7 -7 2757.02 678.756 4
-7 15 -7 1897.38 544.105 4
-7 -8 7 3144.29 632.828 3
-8 15 7 2802.78 451.685 1
-8 -7 -10 2118.84 569.38 3
-8 15 10 1792.13 578.411 2
-7 -8 10 1565.56 553.539 1
15 -8 -10 2983.56 891.017 2
-7 15 -10 1483.31 538.706 4
-8 -7 -10 1497.94 561.663 4
-8 15 10 1741.88 448.607 3
-8 15 10 1179.09 303.072 1
-7 -8 10 1296 403.215 3
-8 -7 -13 8.25824 199.529 3
-8 15 13 519.185 255.242 2
-7 -8 13 252.387 181.02 1
15 -8 -13 731.366 436.757 2
-8 15 13 137.164 126.186 1
-8 -7 -13 348.631 250.839 4
-7 15 -13 427.049 231.267 4
-7 -8 13 236.886 210.188 3
-8 15 13 386.745 212.54 3
-6 -9 -15 24.1619 184.622 3
-6 15 15 -66.9809 112.345 3
-6 15 15 203.406 144.55 1
-9 -6 15 486.727 363.346 1
15 -6 -15 -323.688 344.979 2
-9 15 -15 550.885 231.258 4
-9 -6 15 -25.4093 155.984 3
-6 -9 -12 969.513 405.124 3
-9 -6 12 1004.61 363.836 1
15 -6 -12 1055.18 629.208 2
-6 15 12 486.391 186.261 3
-6 15 12 494.824 182.831 1
-9 15 -12 791.091 273.971 4
-9 -6 12 479.23 280.522 3
-9 -6 9 309.339 139.091 3
-6 15 9 384.328 141.555 1
-6 -9 -9 477.304 142.308 3
-6 15 9 187.259 144.692 2
-9 -6 9 159.871 162.333 1
15 -6 -9 143.241 215.045 2
-9 15 -9 211.841 206.972 4
-6 -9 -9 249.816 81.011 2
-6 15 9 343.913 213.951 3
-6 -9 -9 307.404 198.645 4
-9 -6 6 1116.94 342.017 3
-6 -9 -6 1011.63 387.946 3
15 -9 6 1449.55 465.879 1
-9 -6 6 992.853 368.661 1
-6 15 6 1786.93 437.038 2
15 -6 -6 1734.86 602.215 2
-6 -9 -6 1309.2 291.935 1
-6 -9 -6 1964.42 607.044 4
15 -6 -6 1817.19 603.035 1
-9 15 -6 1319.12 384.041 4
-6 15 6 1325.51 410.682 3
-6 -9 -3 1164.97 398.613 3
-9 -6 3 696.085 331.19 3
15 -9 3 1135.78 387.781 1
-9 -6 3 1329.31 409.765 2
15 -6 -3 915.284 398.204 1
-9 -6 3 1129.77 417.549 1
15 -6 -3 1773.56 496.933 2
-6 15 3 958.681 307.891 2
-6 -9 -3 967.663 275.276 1
-6 -9 -3 961.478 338.243 4
-6 15 3 1125.14 418.379 3
15 -9 3 964.356 325.013 2
-9 -6 0 8719.09 907.351 2
15 -6 0 11983.6 1318.35 1
15 -6 0 11132.7 1282.09 2
15 -9 0 11638.4 1259.79 2
15 -9 0 10314.3 1147.93 1
-9 15 0 9611.52 1055.3 2
-6 -9 0 7782.36 881.632 4
-6 -9 0 8597.35 1000.47 3
-9 -6 0 9186.02 1095.01 3
-6 -9 0 9754.01 996.868 1
-9 -6 0 9924.19 1098.98 1
-6 -9 3 1958.28 517.085 3
-9 -6 -3 2173.05 452.011 1
15 -9 -3 3267.9 727.138 1
-6 -9 3 2060.11 536.501 1
15 -6 3 2782.01 596.892 1
-9 -6 -3 2378.42 436.028 2
-6 15 -3 1563.28 509.255 4
15 -9 -3 2854.51 693.621 2
-9 -6 -3 1644.89 398.903 4
-9 15 3 2452.16 502.203 2
15 -6 3 2624.44 607.404 2
-9 15 6 1781.3 362.379 1
15 -6 6 1989.12 497.982 1
-6 -9 6 1902.27 504.077 1
-9 15 6 2568.43 558.202 2
15 -9 -6 2972.12 828.647 2
-9 -6 -6 2687.37 434.968 2
-6 -9 6 2705.16 574.476 3
15 -6 6 2057.18 320.826 4
15 -9 -6 2922.25 692.954 1
-9 -6 -6 2121.21 544.68 4
-6 15 -6 2488.49 616.262 4
-9 -6 -6 2127.33 432.938 1
-9 15 9 633.92 265.447 1
-9 -6 -9 666.388 395.339 4
-6 -9 9 497.891 292.283 1
-9 15 9 555.266 306.845 2
-9 -6 -9 596.383 218.175 1
15 -9 -9 698.069 455.901 2
-6 15 -9 947.239 471.482 4
-9 -6 -9 801.394 258.776 2
-6 -9 9 580.097 263.626 3
-9 15 12 295.97 262.002 2
-6 -9 12 389.568 247.124 1
-9 15 12 546.771 240.959 1
-9 -6 -12 204.362 232.621 4
-6 15 -12 998.911 383.534 4
-6 15 -12 346.213 274.799 3
-9 15 12 237.45 207.806 3
-6 -9 12 284.914 214.34 3
-9 -6 -15 979.349 398.583 3
-9 15 15 788.735 238.561 1
-6 -9 15 267.768 256.936 1
15 -9 -15 1619.18 825.27 2
-6 15 -15 787.938 347.773 3
-9 15 15 802.532 285.623 3
-5 15 13 756.62 274.484 3
15 -5 -13 236.731 466.757 2
-10 -5 13 393.835 270.819 1
-5 15 13 436.016 136.99 1
-10 15 -13 573.444 219.735 4
-10 -5 13 243.159 160.018 3
-5 -10 -13 696.379 352.34 3
-10 -5 10 156.781 166.453 3
-5 -10 -10 127.974 208.031 3
-5 15 10 326.889 216.903 2
-5 15 10 198.311 90.6979 1
15 -5 -10 413.465 367.402 2
-10 -5 10 804.284 332.604 1
-5 -10 -10 24.8905 195.089 4
-10 15 -10 322.858 216.65 4
-5 15 10 168.294 123.694 3
-5 -10 -7 1511.39 422.386 3
-10 -5 7 1933.66 509.958 3
-5 -10 -7 1851.84 304.346 1
-5 15 7 2152.83 455.169 2
15 -5 -7 2262.72 758.583 2
-10 -5 7 2346.35 576.089 1
-10 15 -7 1784.93 407.774 4
-5 -10 -7 2442.1 693.317 4
-5 15 7 1753.92 457.438 3
-5 -10 -4 3798.99 693.233 3
-10 -5 4 4825.22 828.436 2
15 -5 -4 7805.89 1205.46 2
-5 15 4 4384.43 607.172 2
15 -10 4 3138.08 641.929 1
-5 -10 -4 3399.08 660.289 4
-5 15 4 4833.97 768.146 3
-10 -5 4 4765.91 781.42 3
-10 -5 4 5494.87 901.904 1
-5 -10 -4 4776.68 579.285 1
15 -5 -4 6612.39 1073.18 1
15 -5 -1 2478.49 644.537 1
-10 -5 1 1768.38 448.229 2
-5 -10 -1 1502.69 394.682 1
-5 15 1 2107.82 610.445 3
-5 -10 -1 1706.55 458.356 3
-10 -5 1 1774.28 537.813 1
15 -5 -1 1746.88 575.051 2
-5 -10 -1 1783.91 472.726 4
15 -10 1 2803.96 614.363 2
-10 15 -1 1792.58 512.523 2
15 -10 1 2577.07 515.688 1
-10 -5 -2 1629.58 399.959 1
-5 -10 2 1299.68 368.695 1
-10 -5 -2 969.6 309.986 4
-10 -5 -2 1301.8 322.926 2
15 -10 -2 1899.97 531.904 1
15 -10 -2 2070.55 581.697 2
15 -5 2 1395.29 425.74 1
-10 15 2 1749.34 428.499 2
15 -5 2 1302.25 455.8 2
-5 -10 2 434.139 138.401 4
-5 15 -2 863.556 366.961 4
-5 15 -2 1273.62 405.418 3
-10 15 2 1407.86 386.753 1
-5 -10 2 1316.25 363.363 3
15 -10 -5 306.633 301.723 1
-10 15 5 234.019 128.492 1
-5 -10 5 13.9659 149.811 1
-10 -5 -5 322.602 235.21 2
-10 15 5 211.485 257.54 2
15 -10 -5 481.242 399.005 2
-5 15 -5 209.383 187.345 4
-10 -5 -5 167.213 153.678 4
15 -5 5 -117.572 131.935 4
-10 -5 -5 308.377 210.154 1
-5 15 -5 451.178 380.495 3
15 -5 5 305.329 225.163 1
-5 -10 5 332.808 182.661 3
-10 -5 -8 585.33 229.514 1
-10 15 8 355.377 156.975 1
-5 -10 8 270.193 173.704 1
-10 15 8 579.886 308.68 2
15 -5 8 433.093 319.27 1
15 -10 -8 344.315 311.156 2
-10 -5 -8 645.444 305.253 4
-5 15 -8 1134.53 489.564 4
-10 -5 -8 444.058 146.37 2
15 -10 -8 387.048 175.289 1
-5 15 -8 850.972 468.108 3
-5 -10 8 528.523 277.205 3
-5 -10 11 546.551 264.916 1
-10 15 11 1453.39 570.081 2
15 -10 -11 1574.96 606.144 2
-10 -5 -11 769.277 445.399 4
-10 15 11 808.104 315.311 1
-5 15 -11 926.204 438.979 4
-5 15 -11 1028.91 494.587 3
-5 -10 11 903.629 369.767 3
-5 -10 14 517.036 334.984 1
-10 15 14 432.419 220 1
15 -10 -14 17.3726 372.89 2
-10 -5 -14 322.023 403.393 4
-5 15 -14 419.377 423.058 3
-10 15 14 734.775 322.888 3
-4 15 14 844.563 333.785 3
-4 -11 -14 295.483 197.643 2
15 -4 -14 -22.6457 470.236 2
-11 -4 14 33.1445 188.714 1
-4 15 14 217.941 83.3809 1
-11 15 -14 297.959 316.959 4
-11 -4 14 418.361 240.377 3
-4 -11 -14 563.336 313.846 3
-4 15 11 588.209 276.894 3
-11 -4 11 460.884 212.466 3
-4 -11 -11 498.331 181.52 2
15 -4 -11 418.13 443.591 2
-11 15 -11 317.944 138.832 4
-11 -4 11 174.741 197.336 1
-4 -11 -11 477.619 342.52 3
-11 -4 8 1222.05 390.344 3
-4 15 8 1368.1 344.448 2
15 -4 -8 1725.22 759.946 2
-11 -4 8 562.42 280.626 1
-4 -11 -8 738.871 304.19 4
-4 15 8 1417.71 437.392 3
-11 15 -8 1018.62 348.07 4
-4 -11 -8 1749.58 531.475 3
-11 -4 5 1844.89 531.01 2
15 -4 -5 1573.65 522.238 2
-4 15 5 2018.25 340.652 2
-11 -4 5 1864.02 563.277 1
15 -4 -5 1143.34 456.584 1
-4 -11 -5 1725.11 507.226 4
15 -11 5 2052.26 519.237 1
-4 -11 -5 1789.47 308.428 1
-4 15 5 2361.97 541.685 3
-4 -11 -5 1411.4 376.271 3
15 -11 2 342.846 107.541 1
-11 -4 2 512.085 317.552 2
-4 15 2 729.065 233.574 2
-4 -11 -2 962.345 327.295 1
15 -4 -2 971.083 439.835 2
-4 -11 -2 557.644 256.703 4
-11 -4 2 1149.19 425.474 1
-4 15 2 986.841 376.627 3
15 -11 2 919.951 259.544 2
15 -4 -2 1232.34 513.104 1
-4 -11 -2 448.219 302.038 3
-11 -4 -1 370.059 236.695 1
-11 15 1 515.355 264.54 1
-4 -11 1 406.032 270.242 1
15 -4 1 204.08 169.554 1
-11 -4 -1 426.426 227.975 2
-4 15 -1 -468.453 451.752 4
15 -11 -1 276.452 233.227 1
15 -4 1 385.439 268.991 2
-11 15 1 246.582 139.864 2
15 -11 -1 523.391 314.731 2
-4 -11 1 -86.9916 207.775 4
-4 15 -1 29.6945 178.496 3
-4 -11 1 71.8246 238.174 3
15 -4 4 185.145 172.624 2
-4 -11 4 670.82 297.048 1
15 -11 -4 484.289 298.117 1
-11 15 4 326.084 177.329 1
-11 -4 -4 542.461 288.887 2
-11 -4 -4 648.518 287.378 1
-11 15 4 348.26 257.998 2
15 -11 -4 582.969 405.15 2
15 -4 4 547.35 275.187 1
-4 15 -4 466.998 289.553 4
-11 -4 -4 289.016 219.664 4
15 -4 4 681.594 243.231 4
-4 15 -4 475.252 304.881 3
-4 -11 4 271.227 139.965 3
15 -4 7 964.548 250.07 4
-4 -11 7 647.107 306.363 1
-11 15 7 954.099 340.307 1
-11 15 7 539.585 221.585 2
15 -11 -7 1526.7 582.094 2
-11 -4 -7 848.009 301.178 1
-4 15 -7 1127.75 589.667 4
-11 -4 -7 650.799 238.753 2
-11 -4 -7 267.757 133.632 4
15 -4 7 1239.92 452.184 1
15 -11 -7 1134.52 506.385 1
-4 15 -7 849.647 437.888 3
-4 -11 7 919.156 348.695 3
-4 -11 10 202.068 219.879 1
-11 15 10 354.614 302.283 2
15 -11 -10 787.192 339.3 2
15 -4 10 285.466 232.819 1
15 -11 -10 83.1288 160.432 1
-11 15 10 542.95 227.059 1
-11 -4 -10 161.918 185.093 4
-4 15 -10 920.608 458.918 4
-4 -11 10 151.866 168.757 3
-4 15 -10 637.605 456.083 3
-11 -4 -10 96.6216 174.632 2
-4 -11 13 254.79 181.921 1
-11 15 13 415.203 236.959 1
15 -11 -13 409.793 337.918 2
-11 -4 -13 469.772 251.122 4
-4 15 -13 740.927 432.424 4
-4 15 -13 176.34 331.661 3
-3 -12 -15 173.316 187.159 2
15 -3 -15 436.057 353.87 2
-12 -3 15 406.381 269.238 1
-3 15 15 119.969 70.1725 1
-12 15 -15 -138.679 214.444 4
-3 -12 -15 -170.889 160.603 3
-12 -3 15 245.423 200.45 3
-12 -3 12 1904.02 486.64 3
-3 15 12 2847.32 616 3
-3 -12 -12 1749.86 346.631 2
15 -3 -12 2681.62 947.406 2
-12 -3 12 2313.97 677.085 1
-12 15 -12 2692.35 516.272 4
-3 -12 -12 1751.51 518.375 3
-12 -3 9 646.176 307.425 3
-3 15 9 1082.12 294.489 2
15 -3 -9 942.648 621.308 2
-12 -3 9 940.956 431.283 1
-12 15 -9 537.789 269.784 4
-3 -12 -9 285.323 288.831 4
-3 -12 -9 395.974 190.007 3
-3 15 9 1232.66 387.215 3
-12 -3 6 10631.2 1320.44 2
-3 15 6 10389.5 781.634 2
15 -3 -6 13552.8 1758.4 2
-3 15 6 11784.5 1237.32 3
-3 -12 -6 10969.9 1214 3
-3 -12 -6 9643.67 1329.3 4
-12 -3 6 11625.4 1429.52 1
-3 -12 -6 8622.05 593.734 1
-12 -3 3 1845.11 550.003 1
-12 -3 3 2073.59 583.905 2
-3 -12 -3 1939.37 394.662 1
-3 -12 -3 2352.74 578.599 4
-3 15 3 1476.09 311.727 2
15 -3 -3 2435.02 717.27 2
15 -12 3 2414.88 553.775 1
15 -3 -3 2037.81 652.099 1
-3 15 3 1170.25 421.114 3
-3 -12 -3 1708.15 499.047 3
-12 -3 0 3395.23 663.012 1
15 -3 0 3282.61 714.527 1
-12 -3 0 4191.34 721.97 2
-3 -12 0 2591.83 476.647 1
-12 15 0 2725.82 547.707 1
-3 15 0 2391.19 608.705 4
-3 -12 0 2519.46 514.448 4
15 -3 0 3666.09 742.049 2
-12 15 0 2721.75 612.264 2
15 -12 0 3125.73 681.361 2
-3 15 0 2810.44 620.573 3
-3 -12 0 2769.43 539.332 3
15 -12 0 2598.12 571.019 1
-3 -12 3 165.833 230.516 1
-12 15 3 124.519 155.882 1
15 -3 3 36.7576 152.564 1
15 -12 -3 333.553 213.389 1
-12 -3 -3 83.7966 154.831 2
-12 -3 -3 79.9625 215.186 1
-12 15 3 548.874 252.852 2
-3 15 -3 155.797 184.232 4
15 -12 -3 99.3078 154.892 2
15 -3 3 -20.1806 176.45 2
15 -3 3 326.052 253.115 4
-3 -12 3 514.871 290.435 4
-3 15 -3 476.48 274.769 3
-3 -12 3 353.542 270.653 3
15 -3 6 925.41 305.888 4
15 -12 -6 1083.12 498.158 1
-12 -3 -6 730.837 335.878 2
-3 -12 6 598.517 300.415 1
-12 -3 -6 862.491 378.878 1
-12 15 6 820.707 395.335 1
-12 15 6 616.073 424.243 2
15 -12 -6 1542.5 582.579 2
-3 15 -6 236.183 194.668 3
-3 15 -6 768.017 405.381 4
-12 -3 -6 486.349 241.99 4
15 -3 6 700.204 317.391 1
-3 -12 6 661.63 303.241 3
-12 -3 -9 561.58 313.638 1
-3 -12 9 415.488 251.991 1
15 -3 9 411.218 251.561 1
-12 15 9 423.919 259.131 2
15 -12 -9 278.395 333.559 2
-3 -12 9 491.34 271.522 3
15 -12 -9 244.911 323.517 1
-12 -3 -9 272.748 240.362 4
-12 15 9 470.06 273.445 1
-3 15 -9 181.5 277.032 4
-12 -3 -9 137.3 237.585 2
-3 15 -9 312.572 275.883 3
-3 -12 12 662.887 343.897 1
-12 15 12 786.149 333.547 1
15 -12 -12 -315.016 447.846 2
-12 -3 -12 865.538 377.928 4
-3 15 -12 915.224 478.467 3
-3 15 -12 1546.04 619.679 4
-3 -12 15 -80.5393 297.287 1
-12 15 15 470.761 247.202 1
-12 -3 -15 565.998 414.527 4
15 -12 -15 561.394 605.445 2
-12 15 15 98.2628 152.273 3
-3 15 -15 600.201 484.061 3
-13 -2 13 176.57 203.951 3
-2 15 13 706.962 286.667 3
-2 -13 -13 812.542 234.208 2
15 -2 -13 878.225 560.323 2
-2 -13 -13 475.001 335.685 3
-13 -2 13 520.336 387.609 1
-13 15 -13 261.625 86.4846 4
-2 15 10 504.64 302.973 3
-13 -2 10 179.926 170.088 3
15 -2 -10 776.003 532.39 2
-13 -2 10 81.4976 185.181 1
-2 -13 -10 138.846 195.181 3
-2 15 7 1583.36 278.662 2
15 -2 -7 1003.63 536.902 2
-2 -13 -7 1515.99 551.098 4
-13 -2 7 1296.64 443.972 1
-2 -13 -7 1159.04 326.653 3
-2 15 7 1737.36 466.34 3
15 -13 4 1226.47 437.145 1
-13 -2 4 1511.94 524.87 2
-2 -13 -4 1351.85 299.006 1
15 -2 -4 2091.89 734.217 2
15 -2 -4 1519.77 561.111 1
-2 -13 -4 1999.63 564.595 4
-13 -2 4 2100.41 649.149 1
-2 15 4 2036.7 356.727 2
-2 -13 -4 1467.78 435.923 3
-2 15 4 1047.64 393.94 3
-13 -2 1 3303.76 742.223 1
-13 15 -1 3919.74 730.17 1
-13 -2 1 4414.84 812.178 2
-2 -13 -1 2997.44 499.902 1
15 -13 1 2529.61 511.697 1
15 -2 -1 4343.03 843.749 2
-2 -13 -1 3763.61 734.321 4
-13 15 -1 3795.44 770.279 2
15 -2 -1 3834.13 803.035 1
15 -13 1 3628.54 704.381 2
-2 -13 -1 3592.1 671.86 3
-2 15 1 2837.76 667.523 3
-2 -13 2 365.063 230.795 1
15 -2 2 341.116 330.603 1
-13 -2 -2 356.111 170.952 1
-13 -2 -2 15.6884 231.498 2
-13 15 2 243.606 184.339 1
-2 15 -2 245.547 322.599 4
15 -13 -2 294.001 304.281 1
15 -2 2 462.259 243.001 2
15 -13 -2 231.993 233.327 2
-2 -13 2 96.7154 121.154 4
-13 15 2 603.389 332.945 2
-2 -13 2 265.393 204.963 3
-2 15 -2 544.247 344.847 3
-13 -2 -5 522.394 294.081 1
-2 -13 5 506.982 301.278 1
15 -13 -5 939.74 423.058 1
-13 15 5 821.869 352.945 1
-13 15 5 769.501 369.661 2
15 -2 5 1006.69 416.289 1
-13 -2 -5 378.714 139.15 2
15 -2 5 978.44 334.26 4
-13 -2 -5 499.228 290.749 4
-2 15 -5 417.862 236.083 4
-2 -13 5 981.573 327.957 3
15 -13 -5 1503.94 568.568 2
15 -2 5 1163.2 456.905 2
-2 15 -5 421.726 321.271 3
-2 -13 8 2627.59 654.289 1
-13 -2 -8 2469.77 538.82 1
-13 15 8 2468.85 714.973 2
15 -13 -8 3268.22 852.809 2
-13 -2 -8 2696.51 559.238 2
-2 15 -8 3274.52 935.526 4
-13 -2 -8 1884.27 449.726 4
15 -13 -8 3785.39 844.683 1
-13 15 8 2632.53 600.688 1
-2 -13 8 2565.67 569.198 3
15 -2 8 2539.33 632.948 1
-2 15 -8 3716.53 870.627 3
-2 -13 11 1414.25 519.986 1
15 -2 11 1486.12 462.165 1
15 -13 -11 1864.57 636.875 2
-13 15 11 1008.84 351.866 1
15 -13 -11 2043.87 712.167 1
-13 -2 -11 1351.15 490.47 4
-13 -2 -11 1142.33 384.072 2
-2 15 -11 1326.61 535.538 3
-2 -13 14 74.269 181.771 1
-13 15 14 270.903 150.419 1
15 -13 -14 488.995 490.571 2
-13 -2 -14 -242.781 454.733 4
-2 15 -14 616.722 211.531 3
-14 -1 14 -322.262 219.564 3
15 -1 -14 641.997 575.078 2
-1 -14 -14 296.903 162.917 2
-14 -1 14 -183.782 366.924 1
-14 15 -14 246.509 210.488 4
-1 -14 -14 -127.429 247.817 3
-1 15 11 518.925 231.245 3
-14 -1 11 491.427 304.386 3
15 -1 -11 798.824 676.405 2
-1 -14 -11 825.526 219.949 2
-14 -1 11 1002.9 513.557 1
-1 -14 -11 527.087 301.216 3
-1 15 8 1853.92 492.274 3
-14 -1 8 1215.58 506.907 1
15 -1 -8 1701.7 639.684 2
-1 -14 -8 1349.59 631.917 4
-1 -14 -8 1501.17 507.334 3
-1 15 5 3267.15 384.799 2
-14 -1 5 3403.53 816.141 2
15 -1 -5 3744.91 905.902 2
-1 -14 -5 5732.88 1072.67 4
-14 -1 5 3330.96 768.7 1
-1 -14 -5 5044.75 831.84 3
-1 15 5 4612.66 862.996 3
-1 -14 -5 5245.72 519.936 1
-14 -1 2 1190.54 398.265 1
-1 -14 -2 1814.75 406.133 1
-1 -14 -2 3406.58 741.939 4
-14 -1 2 2103.11 607.974 2
-14 15 -2 2621.97 650.573 1
15 -1 -2 2036.51 697.99 2
15 -14 2 2584.72 607.519 1
15 -1 -2 1726.18 686.367 1
-14 15 -2 2080.88 605.671 2
-1 -14 -2 1569.79 511.732 3
-1 15 2 1060.58 474.874 3
-1 -14 1 1248.35 333.194 1
-14 -1 -1 1505.03 458.943 1
-14 -1 -1 1324.83 452.394 2
-14 15 1 1021.38 453.845 2
15 -1 1 1177.76 419.584 2
-1 15 -1 1486.99 567.085 4
-1 -14 1 1227.75 383.988 4
-14 15 1 807.871 319.1 1
15 -14 -1 803.621 353.176 2
-1 -14 1 532.706 239.119 3
-1 15 -1 1168.85 453.263 3
15 -14 -1 750.671 307.709 1
15 -1 1 698.893 363.262 1
-1 -14 4 1619.4 444.718 1
15 -1 4 1835.24 541.118 1
-1 -14 4 1490.01 417.563 4
15 -14 -4 1746.94 552.642 1
-14 15 4 1566.91 509.349 2
-14 -1 -4 2174.05 506.223 2
-14 15 4 1026.28 367.305 1
15 -1 4 2161.72 503.111 4
15 -1 4 1532.19 472.231 2
-1 15 -4 2028.09 562.891 4
-14 -1 -4 1088.37 373.652 1
-1 -14 4 1145.91 391.77 3
15 -14 -4 2322.04 693.517 2
-1 15 -4 1815.87 588.932 3
15 -14 -7 1596.78 519.638 1
-1 -14 7 1746.33 514.686 1
-14 -1 -7 1069.04 347.877 4
-14 15 7 991.598 392.384 2
-14 -1 -7 1219.12 372.047 2
15 -14 -7 1446.85 528.223 2
15 -1 7 1274.11 366.975 4
-14 -1 -7 1420.75 395.826 1
15 -1 7 1594.09 501.323 1
-1 15 -7 2323.15 749.837 3
-1 15 -7 3216.28 955.976 4
-14 15 7 978.748 418.406 1
15 -1 10 1082.86 377.649 1
-1 -14 10 793.806 435.807 1
-14 -1 -10 448.981 326.301 1
15 -14 -10 1471.11 667.821 2
-14 15 10 500.224 289.359 1
-14 -1 -10 586.097 222.314 4
15 -14 -10 652.772 334.34 1
-14 -1 -10 647.17 338.041 2
-1 15 -10 1582.17 532.507 3
-1 -14 13 411.116 198.371 1
-14 15 13 813.263 304.951 1
15 -14 -13 834.938 501.26 2
-14 -1 -13 221.631 237.75 4
-1 15 -13 592.245 280.863 3
15 0 -12 516.99 512.375 2
0 -15 -12 490.786 174.912 2
-15 0 12 247.226 365.002 1
0 -15 -12 612.984 326.325 3
0 15 9 2303.39 584.298 3
15 0 -9 3441.42 1172.22 2
-15 0 9 2072.14 646.589 1
0 -15 -9 1835.17 529.457 3
0 -15 -6 386.19 135.97 1
15 0 -6 -227.298 418.486 2
0 -15 -6 168.507 208.313 4
15 -15 6 783.111 181.663 4
0 15 6 662.729 276.185 3
-15 0 6 835.003 449.023 1
0 -15 -6 635.805 338.562 3
0 15 3 3502.48 668.296 3
-15 0 3 4786.15 845.164 1
-15 0 3 5028.92 918.252 2
15 0 -3 4537.02 924.4 2
0 -15 -3 3480.94 798.215 4
0 -15 -3 4104.45 707.685 3
0 -15 -3 3870.3 485.553 1
0 -15 0 794.702 297.486 4
15 -15 0 610.465 262.051 1
-15 0 0 603.189 302.533 1
-15 0 0 1524.66 470.37 2
0 15 0 1255.43 578.812 4
15 0 0 1557.63 485.792 2
-15 15 0 1384.42 434.109 2
15 0 0 1567.1 496.191 1
0 -15 0 617.466 298.418 3
15 -15 0 1400.9 495.337 2
-15 15 0 1221.11 425.993 1
0 15 0 763.921 211.595 3
15 0 3 4500.89 854.35 1
0 -15 3 1690.51 446.161 4
-15 0 -3 2315.56 558.479 2
15 -15 -3 2156.99 538.812 1
-15 15 3 2245.59 542.853 1
-15 0 -3 2212.98 509.848 1
15 0 3 2751.78 689.535 2
15 0 3 4054.55 868.561 4
15 -15 -3 2266.12 613.52 2
-15 15 3 2292.27 616.144 2
0 15 -3 3109.06 873.721 4
0 15 -3 2778.63 655.121 3
15 -15 -6 4617.5 897.581 1
-15 15 6 3569.95 699.181 1
-15 15 6 4844.77 964.991 2
15 0 6 4579.03 793.655 1
-15 0 -6 3794.06 706.434 2
-15 0 -6 4345.94 808.421 1
15 0 6 5025.42 837.367 4
15 -15 -6 4746.84 964.769 2
0 15 -6 4649.19 1019.59 4
0 15 -6 4331.19 893.703 3
-15 0 -9 1419.22 375.941 1
15 -15 -9 967.938 507.169 2
15 0 9 1390.94 454.339 1
-15 0 -9 722.808 267.993 4
-15 15 9 1180.42 440.548 1
-15 0 -9 1492.18 483.909 2
15 -15 -9 1233.09 502.891 1
0 15 -9 1542.03 530.556 3
0 -15 12 335.059 266.453 1
15 0 12 548.109 247.448 1
-15 15 12 585.01 279.999 1
15 -15 -12 374.421 260.844 2
15 -15 -12 691.556 403.62 1
-15 0 -12 582.635 370.812 4
-15 0 -12 314.448 180.122 2
0 15 -12 901.183 468.311 3
15 1 -13 1691.9 892.624 2
1 -16 -13 874.848 275.685 2
-16 1 13 967.214 418.366 1
1 -16 -13 821.244 400.961 3
1 15 10 2073.23 580.067 3
15 1 -10 2581.37 917.094 2
1 -16 -10 1499.39 301.801 2
-16 1 10 1330.55 526.895 1
1 -16 -10 1237.14 406.463 3
1 15 7 3957.27 744.229 3
15 1 -7 4418.08 1183.28 2
15 -16 7 2911.83 378.227 4
1 -16 -7 3927.18 940.231 4
-16 1 7 4896.13 994.193 1
1 -16 -7 3359.87 676.951 3
-16 1 4 4272.52 892.872 1
1 15 4 3448.09 720.502 3
1 15 4 2579.5 311.078 2
15 1 -4 3687.73 891.728 2
1 -16 -4 3853.05 866.84 4
1 -16 -4 3264.15 670.933 3
1 -16 -4 3243.04 421.04 1
1 15 1 755.932 412.931 3
15 -16 1 465.933 290.624 1
-16 15 -1 536.911 324.721 1
-16 1 1 1038.53 553.253 1
-16 1 1 1100.63 508.287 2
15 1 -1 694.013 379.662 2
1 -16 -1 2486.16 672.633 4
1 -16 -1 379.012 315.147 3
15 1 -1 1184.52 556.598 1
-16 1 -2 629.19 362.955 2
15 1 2 468.979 241.721 2
-16 15 2 33.9665 255.091 2
1 -16 2 170.633 297.163 4
15 1 2 758.914 398.907 4
15 -16 -2 479.228 373.173 2
-16 15 2 504.178 273.747 1
15 1 2 1175.41 470.626 1
-16 1 -2 946.971 431.849 1
15 -16 -2 279.416 165.315 1
1 15 -2 620.076 346.337 3
-16 15 5 1646 565.199 1
15 1 5 1563.3 475.595 1
-16 1 -5 1707.59 552.986 1
15 -16 -5 1442.85 474.072 1
15 1 5 2189.7 654.829 4
-16 1 -5 1790.43 557.158 2
15 -16 -5 1834.98 662.456 2
1 -16 5 1016.3 345.929 4
15 1 5 1636.1 488.088 2
1 15 -5 2302.65 664.677 3
-16 1 -8 568.942 358.666 1
15 1 8 785.042 356.537 1
15 1 8 731.521 332.129 4
-16 15 8 5.40447 193.194 1
-16 1 -8 618.698 347.7 2
-16 1 -8 281.75 136.308 4
15 -16 -8 1099.5 552.057 2
15 -16 -8 304.591 135.001 1
1 15 -8 634.179 410.949 3
-16 15 11 1284.16 498.534 1
15 -16 -11 1317.59 538.259 2
15 -16 -11 2216.6 680.257 1
-16 1 -11 956.729 274.063 4
15 1 11 907.811 407.053 1
-16 1 -11 1339.13 503.147 2
1 15 -11 2331.91 831.31 3
1 -16 14 420.056 279.097 1
-16 1 -14 68.2086 261.773 4
-16 15 14 392.996 344.053 1
15 -16 -14 399.974 377.03 2
1 15 -14 168.563 340.293 3
15 2 -14 93.6448 334.24 2
2 -17 -14 361.348 207.863 2
-17 2 14 109.53 196.8 1
15 2 -11 304.143 336.79 2
2 -17 -11 25.31 80.5305 2
-17 2 11 -152.463 311.618 1
2 15 8 1055.51 409.968 3
15 2 -8 1010.03 647.107 2
-17 2 8 175.943 181.97 1
2 -17 -8 1387.31 500.663 3
-17 2 5 3322.23 816.893 1
2 15 5 3061.1 678.841 3
15 2 -5 4110.52 1003.17 2
2 -17 -5 3145.45 868.743 4
15 -17 5 2315.81 412.685 4
2 15 2 2602.73 632.811 3
-17 2 2 3540.05 794.63 1
-17 15 -2 2927.85 678.755 1
-17 2 2 3385.44 779.891 2
15 2 -2 3416.15 761.776 2
2 -17 -2 2763.81 712.705 4
2 15 -1 2637.03 655.56 3
15 -17 -1 1772.86 480.931 1
-17 2 -1 2601.63 632.753 2
-17 2 -1 2101.15 555.652 1
15 2 1 2197.74 592.679 2
2 -17 1 1705.87 483.922 4
15 2 1 2740.02 641.864 1
15 2 1 3508.26 918.51 4
15 -17 -1 1784.73 504.821 2
-17 15 1 2029.62 570.758 1
15 2 4 389.763 271.853 1
2 15 -4 1475.36 569.616 3
-17 2 -4 298.561 160.834 1
15 2 4 349.584 244.037 2
-17 15 4 138.211 134.065 1
15 -17 -4 649.052 383.783 2
-17 2 -4 279.023 201.143 2
15 -17 -4 564.423 372.632 1
15 2 4 1348.48 625.204 4
2 -17 4 -24.0772 167.59 4
2 15 -7 653.873 517.091 3
15 -17 -7 314.749 201.003 1
15 2 7 617.711 367.558 1
-17 2 -7 213.898 138.413 2
-17 15 7 48.384 180.651 1
15 2 7 2.54962 257.427 4
15 -17 -7 77.292 204.965 2
-17 2 -7 317.927 268.165 1
2 15 -10 766.25 363.47 3
-17 2 -10 316.617 295.706 1
-17 15 10 634.221 400.712 1
15 2 10 303.11 245.535 1
15 -17 -10 -110.495 220.608 2
15 -17 -10 508.282 325.017 1
-17 2 -10 -171.243 253.233 2
-17 2 -10 -239.024 178.443 4
2 15 -13 620.214 246.302 3
-17 15 13 395.727 314.83 1
15 -17 -13 525.403 322.478 1
15 -17 -13 227.856 403.621 2
15 2 13 276.642 131.44 1
-17 2 -13 204.644 293.71 4
15 3 -12 611.568 578.502 2
3 -18 -12 907.751 349.973 2
-18 3 12 902.288 547.977 1
15 3 -9 296.121 397.628 2
-18 3 9 516.986 403.223 1
-18 3 6 1162.58 530.728 1
3 15 6 1106.73 448.225 3
3 -18 -6 1303.81 277.127 1
15 3 -6 573.864 369.217 2
3 -18 -6 1316.38 650.024 4
15 -18 6 1211.16 302.453 4
3 15 3 2209.71 622.917 3
3 15 3 1744.37 310.807 2
15 3 -3 1645.69 571.184 2
3 -18 -3 2899.68 722.017 4
-18 15 -3 2069.05 608.127 1
3 15 0 1393.71 506.549 3
-18 15 0 781.639 369.292 1
-18 3 0 2243.31 638.601 2
15 3 0 1266.07 407.923 2
-18 3 0 2090.13 653.304 1
3 -18 0 1138.26 430.28 4
15 3 0 1870.29 527.911 1
15 -18 0 1557.04 467.272 1
15 3 0 1107.37 521.545 4
3 15 -3 3109.81 769.792 3
-18 15 3 3229.57 735.966 1
15 3 3 3176.91 655.315 2
-18 3 -3 3437.22 796.645 2
15 3 3 3631.6 911.321 4
3 -18 3 2453.42 541.862 4
15 3 3 2936.75 661.368 1
15 -18 -3 2418.29 645.572 2
15 -18 -3 2746.54 637.14 1
-18 3 -3 3349.84 722.458 1
3 15 -6 584.329 439.48 3
15 3 6 761.121 272.096 1
15 -18 -6 -57.7548 223.033 1
15 3 6 359.863 263.858 4
-18 3 -6 21.6707 230.813 1
15 -18 -6 544.39 400.716 2
-18 3 -6 482.355 319.744 2
3 -18 6 325.628 247.988 4
15 3 6 271.97 207.451 2
-18 15 6 651.893 338.591 1
3 15 -9 1684.41 644.085 3
-18 15 9 1489.51 516.504 1
15 3 9 1712.86 504.87 1
-18 3 -9 948.485 425.261 1
15 -18 -9 519.974 241.467 2
15 -18 -9 1669.8 576.6 1
3 15 -12 811.139 302.226 3
15 3 12 537.324 263.16 1
-18 15 12 961.348 426.764 1
15 -18 -12 391.302 426.741 2
15 -18 -12 841.082 417.622 1
-18 3 -12 953.095 327.454 4
4 -19 -13 318.428 153.924 2
15 4 -13 -37.0153 307.142 2
-19 4 13 352.153 334.684 1
15 4 -10 313.443 592.351 2
4 -19 -10 797.323 297.77 2
-19 4 10 -402.476 423.806 1
-19 4 7 465.373 367.623 1
4 -19 -7 295.122 134.598 1
15 4 -7 342.245 445.638 2
15 -19 7 91.6578 143.811 4
4 15 4 104.093 302.391 3
-19 15 -4 -36.1165 275.261 1
4 -19 -4 279.864 169.074 4
-19 4 4 298.929 192.496 1
15 -19 4 -41.3044 136.918 4
4 15 4 86.1867 52.3813 2
15 4 -4 54.9556 301.404 2
4 15 1 -267.673 274.747 3
4 15 1 279.498 98.7568 2
-19 15 -1 93.9336 151.432 1
15 4 -1 314.334 337.906 2
-19 4 1 707.452 477.05 1
4 -19 -1 102.508 193.934 4
4 15 -2 2599.56 747.694 3
15 -19 -2 1487.75 459.955 1
-19 15 2 1951.38 616.192 1
15 4 2 2482.47 602.453 1
4 -19 2 1576.4 469.888 4
15 4 2 1741.05 502.83 2
-19 4 -2 3232.43 834.399 1
15 -19 -2 1607.53 467.92 2
-19 15 5 1139.46 522.176 1
4 15 -5 820.775 439.033 3
4 -19 5 439.152 243.436 4
-19 4 -5 374.335 203.769 1
15 4 5 911.155 374.474 1
15 4 5 620.654 334.405 4
15 -19 -5 359.033 208.208 2
15 4 5 856.652 385.607 2
15 -19 -5 648.625 355.448 1
15 -19 -8 509.144 182.668 2
4 15 -8 487.714 364.075 3
15 -19 -8 -95.6589 244.415 1
15 4 8 356.335 245.837 1
15 4 8 66.9016 244.252 4
-19 4 -8 559.915 326.772 1
-19 15 8 349.609 341.09 1
4 15 -11 794.563 539.285 3
15 4 11 879.417 381.991 1
-19 15 11 869.224 433.452 1
15 -19 -11 284.18 200.965 2
-19 4 -11 -106.682 376.246 1
15 -19 -11 533.856 397.377 1
15 5 -11 45.7075 275.67 2
5 -20 -11 647.912 314.697 2
-20 5 11 663.835 379.95 1
15 5 -8 749.568 443.173 2
5 -20 -8 510.89 214.631 1
15 -20 8 652.988 248.044 4
5 15 5 830.012 390.462 3
-20 5 5 867.857 398.811 1
15 5 -5 1371.43 655.449 2
-20 15 -5 1481.58 622.809 1
15 -20 5 1063.24 331.914 4
5 -20 -5 1102.72 481.612 4
5 -20 -5 1004.31 310.461 1
5 15 2 580.264 184.772 3
5 15 2 942.325 275.505 2
15 5 -2 688.025 326.828 2
-20 5 2 1008.02 441.939 1
-20 15 -2 977.52 342.28 1
5 -20 -2 978.485 300.773 4
5 15 -1 86.0316 190.328 3
5 15 -1 468.441 300.443 2
-20 15 1 438.278 323.601 1
15 5 1 282.055 214.794 2
15 5 1 114.422 208.111 1
15 -20 -1 230.875 134.158 1
5 -20 1 726.625 364.949 4
-20 5 -1 265.758 417.531 1
5 15 -4 -51.6844 391.401 3
-20 15 4 198.038 307.033 1
-20 5 -4 814.773 536.043 1
15 -20 -4 203.31 327.646 1
15 5 4 430.086 269.193 2
15 5 4 504.259 381.944 1
5 -20 4 215.744 199.55 4
15 -20 -4 576.875 336.912 2
5 15 -7 811.202 487.469 3
-20 5 -7 456.378 372.048 1
15 -20 -7 831.223 399.847 1
15 -20 -7 282.999 235.243 2
-20 15 7 951.076 475.431 1
15 5 7 608.813 319.838 1
5 15 -10 596.931 327.527 3
15 5 10 -290.978 251.109 1
-20 5 -10 190.38 314.954 1
-20 15 10 576.573 348.625 1
15 -20 -10 440.224 284.454 2
15 -20 -10 72.8768 172.691 1
5 15 -13 1553.74 738.204 3
15 6 -12 1014.58 585.077 2
6 -21 -12 815.907 324.524 2
-21 6 12 -408.444 481.136 1
-21 6 9 524.555 443.462 1
6 -21 -9 562.188 182.661 1
15 6 -9 939.621 650.733 2
-21 6 6 1959.04 622.593 1
-21 15 -6 671.748 448.476 1
15 6 -6 1097.34 564.285 2
15 -21 6 885.229 327.78 4
6 -21 -6 1585.73 369.102 1
6 15 3 2265.38 707.972 3
6 15 3 2440.45 428.064 2
15 6 -3 2135.61 729.538 2
15 -21 3 1818.95 504.772 4
6 -21 -3 2898.14 746.567 4
-21 15 -3 2011.78 551.855 1
6 15 0 973.796 377.134 3
6 15 0 1068.77 348.842 2
15 6 0 1171.85 471.576 2
6 -21 0 502.162 326.756 4
-21 15 0 749.683 427.478 1
-21 6 0 2050.95 688.573 1
6 15 -3 891.521 324.546 3
6 15 -3 518.71 307.603 2
-21 6 -3 123.167 211.461 1
15 -21 -3 261.299 277.571 1
-21 15 3 94.8469 156.126 1
6 -21 3 -227.192 243.952 4
15 6 3 343.754 269.544 2
15 6 3 -26.9845 271.332 1
6 -21 6 65.1625 212.295 4
6 15 -6 362.255 360.655 3
15 6 6 309.388 230.974 1
15 -21 -6 -322.97 266.662 1
15 -21 -6 -261.832 342.377 2
15 6 6 376.865 323.029 2
-21 15 6 64.7559 218.951 1
-21 6 -6 -62.5587 204.333 1
6 15 -9 634.759 485.684 3
15 -21 -9 358.75 302.174 1
-21 6 -9 -519.639 414.963 1
-21 15 9 882.499 505.938 1
15 -21 -9 206.732 287.753 2
15 6 9 355.545 208.23 1
6 15 -12 1014.38 529.51 3
15 6 12 583.549 297.658 1
-21 15 12 -97.1048 357.873 1
15 -21 -12 651.631 398.902 2
15 -21 -12 437.589 231.424 1
-22 7 10 -81.1332 374.368 1
15 7 -10 299.068 434.663 2
7 -22 -10 104.487 99.797 1
7 -22 -10 1057.89 460.01 2
7 -22 -7 2174.45 477.94 1
-22 7 7 1247.27 598.66 1
15 7 -7 1259.67 677.483 2
-22 15 -7 1185.39 557.728 1
15 -22 7 911.731 316.064 4
7 15 4 688.285 300.672 1
7 -22 -4 817.933 327.072 1
15 7 -4 278.053 330.383 2
-22 7 4 926.074 473.937 1
7 15 4 352.72 136.332 2
15 -22 4 774.763 348.582 4
7 -22 -4 1276.04 644.151 4
-22 15 -4 902.384 473.111 1
7 15 1 1065.71 483.406 3
7 15 1 1253.7 395.861 2
7 -22 -1 817.508 426.43 4
15 7 -1 1155.46 423.911 2
-22 7 1 1922.17 654.244 1
-22 15 -1 434.555 305.98 1
7 15 -2 1535.67 558.347 3
-22 7 -2 1200.8 563.739 1
7 15 -2 1474.5 516.235 2
-22 15 2 1128.94 527.139 1
15 7 2 1083.43 400.097 2
7 -22 2 379.879 272.325 4
7 15 -5 807.014 433.391 3
7 15 -5 240.825 327.221 2
15 7 5 754.643 363.78 1
-22 7 -5 -131.57 298.969 1
7 -22 5 448.208 280.982 4
15 7 5 586.335 337.456 2
15 -22 -5 440.644 381.197 1
15 -22 -5 339.607 155.12 2
-22 15 5 531.14 286.018 1
7 15 -8 -158.153 389.889 2
-22 15 8 679.436 318.208 1
15 -22 -8 184.418 233.539 1
-22 7 -8 97.8205 208.268 1
15 -22 -8 435.353 370.152 2
7 15 -8 67.4179 438.074 3
15 7 8 455.861 293.886 1
15 7 11 966.244 331.931 1
7 15 -11 563.616 353.51 3
7 15 -11 425.717 357.049 2
-22 7 -11 731.442 427.737 1
-22 15 11 1101.32 491.848 1
15 -22 -11 824.492 532.693 2
15 -22 -11 1105.87 437.161 1
8 15 11 313.245 127.647 1
-23 8 11 355.174 428.896 1
15 8 -11 -151.307 344.924 2
8 -23 -11 3.32431 97.3584 1
8 -23 -11 38.4839 180.821 2
8 15 8 118.846 182.929 1
-23 8 8 199.119 342.726 1
15 8 -8 -439.742 579.291 2
8 -23 -8 -175.473 186.548 1
15 -23 8 46.5318 116.945 4
-23 15 -8 -116.589 244.348 1
8 -23 -5 419.308 246.976 1
8 15 5 639.595 237.61 1
8 15 5 491.786 173.436 2
-23 15 -5 -11.8729 300.319 1
15 8 -5 1102.83 561.75 2
-23 8 5 624.816 450.147 1
8 -23 -5 822.574 409.208 4
15 -23 5 515.828 320.94 4
8 15 2 87.7728 200.327 1
-23 15 -2 -190.932 424.171 1
8 15 2 130.7 183.297 2
15 8 -2 785.165 323.781 2
15 -23 2 185.162 224.876 4
-23 8 2 570.184 424.796 1
8 -23 -2 349.727 212.567 4
-23 8 -1 606.263 449.575 1
8 15 -1 1079.1 438.074 2
-23 15 1 625.086 358.71 1
15 8 1 923.116 401.563 2
8 -23 1 864.689 428.548 4
-23 15 4 1759 638.328 1
8 15 -4 1537.81 651.715 3
15 -23 -4 709.654 344.049 1
8 15 -4 1162.55 621.641 2
-23 8 -4 1253.99 521.824 1
15 8 4 875.326 432.837 1
15 8 4 730.922 376.467 2
8 -23 4 733.329 405.726 4
8 15 -7 530.741 426.518 3
8 15 -7 -199.856 253.15 2
-23 8 -7 -99.3698 264.569 1
15 -23 -7 -212.098 229.836 1
15 8 7 143.374 220.928 1
-23 15 7 -90.3472 266.049 1
8 -23 7 187.052 180.987 4
15 -23 -7 321.039 243.485 2
8 15 -10 494.499 396.327 3
8 15 -10 101.069 300.578 2
-23 8 -10 817.875 467.192 1
-23 15 10 463.7 344.957 1
15 -23 -10 -116.579 182.343 2
15 8 10 594.65 307.686 1
15 -23 -10 414.721 325.956 1
9 15 9 231.966 154.148 1
-24 9 9 312.083 288.742 1
15 9 -9 -151.769 356.567 2
9 -24 -9 307.168 224.068 1
15 -24 9 -163.191 149.422 4
9 15 6 274.217 219.635 1
15 9 -6 -89.4025 307.863 2
9 -24 -6 192.578 169.381 1
15 -24 6 53.383 185.319 4
-24 9 6 234.818 291.865 1
-24 15 -6 42.6571 331.278 1
9 15 3 179.166 197.228 1
9 -24 -3 191.489 163.498 1
-24 15 -3 649.37 478.645 1
15 9 -3 428.397 190.154 2
9 15 3 103.963 112.348 2
9 -24 -3 -292.932 204.487 4
15 -24 3 322.025 282.78 4
-24 9 3 -39.5398 266.731 1
9 15 0 1147.46 374.438 2
15 9 0 1187.93 478.139 2
-24 15 0 1175.26 516.931 1
9 -24 0 714.65 391.317 4
-24 9 0 724.653 444.089 1
-24 15 3 588.863 366.23 1
9 15 -3 1050.56 486.939 2
-24 9 -3 338.674 220.202 1
15 9 3 478.66 138.309 2
9 -24 3 524.811 367.656 4
-24 9 -6 382.35 385.333 1
15 -24 -6 173.907 143.858 1
9 15 -6 648.28 463.427 2
15 9 6 507.069 380.233 1
9 -24 6 118.137 135.104 4
15 9 6 1082.7 441.664 2
-24 15 6 793.854 336.013 1
15 -24 -6 409.944 316.287 2
9 15 -9 370.125 438.363 2
15 9 9 98.2801 172.803 1
15 -24 -9 -30.3758 268.771 1
-24 9 -9 -42.2774 189.18 1
-24 15 9 -68.0898 216.168 1
15 -24 -9 192.327 185.813 2
-25 15 -7 863.118 499.554 1
10 15 7 426.73 284.937 1
15 10 -7 -348.481 245.942 2
-25 10 7 974.947 638.349 1
15 -25 7 73.1238 156.554 4
10 -25 -7 1080.27 421.065 1
10 15 4 207.77 304.244 1
10 -25 -4 -179.715 170.337 1
15 10 -4 215.107 375.539 2
-25 15 -4 256.502 265.88 1
10 15 4 253.338 167.326 2
10 -25 -4 -219.873 289.756 4
-25 10 4 681.499 466.263 1
15 -25 4 567.847 343.811 4
10 15 1 167.287 132.906 2
15 10 -1 641.843 328.614 2
15 -25 1 422.52 306.762 4
10 -25 -1 497.074 428.732 4
-25 15 -1 948.891 592.408 1
-25 10 1 986.451 398.349 1
-25 15 2 2001.83 694.779 1
10 15 -2 1778.55 681.401 2
-25 10 -2 2011.86 729.037 1
15 10 2 1336.65 475.134 2
10 -25 2 872.41 363.933 4
15 -25 -5 58.0059 145.863 1
10 15 -5 431.164 334.5 2
15 10 5 505.57 396.635 1
15 10 5 263.239 187.905 2
10 -25 5 765.428 322.589 4
-25 10 -5 86.8439 207.095 1
-25 15 5 394.275 285.819 1
10 15 -8 -189.674 375.208 2
15 -25 -8 9.82583 175.255 1
15 10 8 422.78 298.202 1
-25 15 8 262.892 305.857 1
10 -25 8 -270.983 173.465 4
15 -25 -8 -30.4707 270.922 2
-25 10 -8 -89.3878 230.292 1
11 15 8 342.09 255.496 1
-26 15 -8 411.248 400.474 1
15 11 -8 -219.004 347.773 2
-26 11 8 933.809 574.471 1
11 -26 -8 446.584 309.735 1
15 -26 8 658.137 303.279 4
11 15 5 344.488 243.971 1
15 11 -5 -132.516 242.727 2
11 -26 -5 1041.96 439.017 1
-26 11 5 781.991 495.888 1
11 15 5 896.591 325.796 2
-26 15 -5 613.894 413.068 1
15 -26 5 554.793 337.436 4
15 11 -2 1645.51 708.458 2
11 15 2 1692.97 485.881 2
11 -26 -2 1315.03 566.019 4
15 -26 2 1517.82 550.048 4
-26 15 -2 587.674 179.113 1
-26 11 2 1682.7 626.518 1
-26 11 -1 1113.5 470.767 1
15 -26 -1 1006.75 446.463 4
11 15 -1 1580.39 618.806 2
-26 15 1 771.43 489.676 1
15 11 1 1059.39 429.632 2
11 -26 1 1348.62 561.59 4
-26 15 4 751.515 416.336 1
15 11 4 881.935 459.727 2
11 15 -4 1186.75 475.46 2
-26 11 -4 1514.73 645.182 1
11 -26 4 850.817 408.178 4
-26 15 7 284.901 301.847 1
11 15 -7 -192.94 299.796 2
15 11 7 321.817 282.978 1
-26 11 -7 243.352 332.751 1
15 -26 -7 382.365 367.748 1
11 -26 7 86.6472 124.34 4
12 15 6 -58.7726 265.749 1
12 -27 -6 354.208 355.719 1
15 12 -6 316.367 282.777 2
-27 12 6 -227.08 214.222 1
15 -27 6 -173.369 145.365 4
12 15 6 -199.02 181.301 2
-27 15 -6 330.291 437.044 1
15 12 -3 -419.635 569.839 2
15 -27 3 287.852 267.971 4
12 15 3 114.927 195.852 2
12 -27 -3 -363.179 572.139 4
-27 15 -3 138.915 315.759 1
-27 12 3 390.9 427.531 1
-27 12 0 1507.73 639.178 1
12 15 0 470.103 345.493 2
12 -27 0 279.24 225.446 4
15 12 0 204.124 321.162 2
-27 15 0 684.768 355.529 1
15 -27 0 88.1301 355.341 4
-27 15 3 674.029 522.48 1
12 15 -3 126.493 321.67 2
15 12 3 363.9 290.614 2
-27 12 -3 378.203 414.9 1
12 -27 3 586.414 358.404 4
12 15 -6 719.38 561.029 2
-27 12 -6 711.291 557.006 1
15 12 6 1209.31 492.999 1
-27 15 6 1152.6 660.092 1
15 12 6 828.898 333.405 2
12 -27 6 51.8166 185.645 4
15 -27 -6 1146.46 564.981 1
-28 15 -4 -65.1715 419.615 1
15 13 -4 94.4036 242.261 2
13 15 4 754.542 366.636 2
15 -28 4 385.423 395.39 4
-28 13 4 30.3417 352.026 1
13 -28 -4 484.294 473.197 4
15 13 -1 -157.146 281.69 2
13 15 1 -24.3527 313.229 2
-28 15 -1 439.6 417.598 1
13 -28 -1 -157.927 178.785 4
15 -28 1 119.935 249.65 4
-28 15 2 1205.03 589.143 1
13 15 -2 1572.16 670.009 2
15 13 2 1393.59 511.93 2
-28 13 -2 1347.04 597.943 1
15 -28 -2 601.161 533.152 4
13 -28 2 1055.5 402.114 4
16 -8 0 10441 1206.67 1
16 -8 0 10249.7 1199.87 2
-8 -8 0 7753.47 932.457 4
-8 -8 0 8496.68 1094.59 3
-8 -8 0 9348.96 1085.92 1
-8 -8 -3 10534.6 810.845 2
16 -8 -3 11338.7 1440.26 2
16 -8 -3 11395.3 1364.5 1
-8 16 3 10327.9 1048.29 2
16 -8 3 9431.95 1178.96 2
16 -8 3 10561.5 1203.51 1
-8 -8 -3 8552.7 1006.75 4
-8 -8 3 8670.24 1057.7 3
-8 -8 -3 10055.7 1177.75 3
-8 -8 3 9860.81 1191.9 1
-8 -8 -3 10377.4 1001.96 1
-8 -8 -6 6562.44 576.277 2
-8 16 6 6810.91 871.076 2
16 -8 -6 7448.77 1220.76 2
-8 16 6 5670.45 615.781 1
-8 -8 -6 6716.99 743.631 1
-8 16 -6 7069.79 1017.63 4
-8 -8 -6 5509.73 923.48 4
16 -8 6 6410.49 544.879 4
16 -8 6 5213.56 841.123 1
-8 -8 6 5906.05 839.646 3
-8 -8 -6 6264.79 949.791 3
-8 -8 6 5814.85 889.728 1
16 -8 -6 6876.81 1131.85 1
-8 -8 -9 249.638 132.638 2
-8 -8 -9 -335.65 406.516 3
-8 -8 9 364.072 283.357 1
-8 16 9 309.738 177.625 2
16 -8 -9 784.781 497.18 2
-8 -8 -9 169.225 207.227 4
-8 16 9 788.915 255.445 1
-8 16 -9 508.263 300.815 4
-8 -8 -9 317.898 172.385 1
-8 16 9 169.874 160.633 3
-8 -8 9 384.141 173.784 3
-8 -8 -12 32.7807 273.389 3
-8 16 12 453.804 275.339 2
-8 -8 12 206.364 231.065 1
16 -8 -12 75.6974 294.376 2
-8 -8 -12 -367.084 418.969 4
-8 16 12 247.535 123.289 1
-8 16 12 567.585 289.887 3
-8 -8 12 81.7172 122.476 3
-8 -8 -15 108.089 236.97 3
-8 -8 15 125.962 235.339 1
-8 16 15 527.205 207.948 1
16 -8 -15 483.547 422.385 2
-8 -8 15 687.918 293.489 3
-8 16 15 241.924 97.4665 3
-7 -9 -13 258.007 192.58 3
-9 -7 13 422.615 283.35 1
16 -7 -13 510.201 446.717 2
-9 16 -13 -214.227 225.466 4
-7 -9 -13 -361.441 565.677 4
-7 16 13 414.515 176.526 1
-9 -7 13 845.761 377.295 3
-7 16 13 375.664 204.564 3
-7 -9 -10 2242.61 587.384 3
-7 16 10 2345.99 580.443 2
-7 -9 -10 2421.67 392.451 2
-9 -7 10 2122.18 613.835 1
16 -7 -10 2835.74 956.894 2
-9 16 -10 2454.02 567.199 4
-7 -9 -10 2163.88 653.951 4
-7 16 10 1754.59 338.978 1
-7 16 10 1872.84 457.258 3
-9 -7 10 1235.66 402.577 3
-7 -9 -7 656.656 209.037 1
-9 -7 7 615.339 227.906 3
-7 -9 -7 618.143 241.26 3
-9 -7 7 605.936 221.826 1
-7 16 7 453.865 162.027 2
16 -7 -7 585.07 323.59 2
-9 16 -7 757.619 328.309 4
-7 -9 -7 764.381 378.881 4
-7 16 7 661.5 267.813 3
-7 -9 -4 4878.24 459.532 2
16 -7 -4 6309.95 1132.99 2
-7 16 4 5564.02 745.573 2
16 -9 4 5435.42 854.577 1
-7 -9 -4 4629.77 824.234 4
-7 16 4 5235.99 815.511 3
-9 -7 4 5857.17 865.663 3
-7 -9 -4 5402.54 862.386 3
-9 -7 4 5099.69 872.545 1
16 -7 -4 6129.46 1018.17 1
-7 -9 -4 5811.32 701.101 1
-7 -9 -1 3108.21 677.653 3
-9 -7 1 2379.23 560.443 3
-9 -7 1 3175.08 585.59 2
16 -7 -1 3980.76 814.389 1
-7 -9 -1 3007.97 577.328 1
-9 -7 1 2942.33 624.189 1
16 -7 -1 3108.99 725.546 2
16 -9 1 3457.8 660.452 1
-7 -9 -1 1888.71 488.819 4
16 -9 1 3658.37 730.221 2
-7 16 1 3510.43 573.916 2
-7 -9 2 2371.75 546.393 3
-9 -7 -2 2852.6 590.74 3
-9 -7 -2 2160.89 427.503 2
16 -9 -2 3037 712.495 1
-7 -9 2 2429.25 527.055 1
-9 16 2 2748.29 572.975 2
16 -9 -2 3846.83 827.447 2
-9 -7 -2 1338.61 359.467 4
16 -7 2 2748.83 661.276 2
16 -7 2 2280.77 574.071 1
-9 -7 -2 2819.22 551.453 1
16 -7 5 1340.67 410.205 1
-9 -7 -5 1167.44 377.792 3
-7 -9 5 1787.52 523.675 1
-9 -7 -5 1907.5 354.392 2
-9 -7 -5 1644.34 396.947 1
-9 16 5 1477.56 408.428 2
16 -9 -5 1371.04 533.923 2
-7 16 -5 1080.33 264.508 4
-9 -7 -5 1169.23 378.782 4
16 -7 5 2242.05 402.059 4
-9 16 5 1489.04 339.493 1
16 -9 -5 1335.94 457.012 1
-7 -9 5 1287.5 384.688 3
-7 -9 8 593.232 282.335 1
-9 16 8 361.206 149.424 2
16 -9 -8 797.331 447.748 2
-9 -7 -8 394.408 170.49 2
-9 16 8 365.689 142.934 1
-9 -7 -8 259.482 205.642 4
-7 16 -8 646.647 349.089 4
-9 -7 -8 1153.68 326.461 1
-7 -9 8 858.824 299.255 3
-9 -7 -11 1307.23 409.624 3
-9 16 11 1956.91 585.704 2
-7 -9 11 1378.62 466.161 1
16 -9 -11 2422.38 877.321 2
-9 -7 -11 1260.29 445.49 4
-7 16 -11 3016.04 856.383 4
-9 16 11 1794.54 385.514 1
-9 16 11 1780.49 465.755 3
-7 -9 11 1572.26 417.957 3
-9 -7 -14 832.435 436.155 3
-9 16 14 273.154 230.71 2
-7 -9 14 21.5798 182.09 1
16 -9 -14 452.396 585.656 2
-9 16 14 282.124 173.603 1
-9 -7 -14 725.62 478.275 4
-7 16 -14 187.307 341.862 4
-7 16 -14 438.917 277.195 3
-7 -9 14 333.732 292.107 3
-9 16 14 518.764 220.153 3
-6 -10 -14 356.685 318.702 3
-6 16 14 698.225 307.132 3
-10 16 -14 885.813 510.172 4
-10 -6 14 522.673 423.231 1
16 -6 -14 217.666 283.751 2
-6 16 14 549.672 207.296 1
-10 -6 14 890.576 323.844 3
-6 -10 -11 796.48 331.771 3
-6 16 11 1448.21 448.193 2
-10 -6 11 1136.6 506.643 1
16 -6 -11 925.716 660.393 2
-6 -10 -11 2089.97 669.814 4
-6 16 11 1071.15 237.044 1
-10 16 -11 1587.09 473.575 4
-6 16 11 1158.33 378.664 3
-10 -6 11 1058.55 372.035 3
-10 -6 8 1854.26 500.414 3
-6 -10 -8 1801.26 494.476 3
-6 16 8 1400.29 372.2 2
-10 -6 8 1330.98 454.611 1
16 -6 -8 1399.91 629.332 2
-6 -10 -8 1317.82 498.62 4
-6 -10 -8 1667.89 289.991 1
-10 16 -8 1616.93 467.078 4
-6 16 8 1680.15 459.731 3
-6 -10 -5 829.248 354.091 3
-10 -6 5 778.51 246.255 3
-6 -10 -5 849.463 232.345 1
-10 -6 5 827.698 374.159 1
16 -6 -5 533.218 336.158 2
-6 16 5 1244.06 349.875 2
-6 -10 -5 847.655 439.092 4
-6 16 5 1604.41 445.567 3
-10 -6 2 4780.14 767.049 2
16 -6 -2 6747.49 1097.27 2
-6 16 2 5079.69 678.94 2
16 -10 2 5677.58 895.154 2
16 -10 2 5653.23 843.31 1
-6 -10 -2 4624.56 767.082 4
-6 16 2 4940.88 839.539 3
-6 -10 -2 5281.07 835.753 3
-10 -6 2 4763.9 809.631 3
-6 -10 -2 5152.04 737.33 1
-10 -6 2 5346.31 881.15 1
16 -6 -2 6966.77 1048.92 1
-10 -6 -1 10937.9 1023.38 2
16 -6 1 12052.2 1345.82 1
16 -10 -1 12021.6 1323.48 1
16 -10 -1 12383.2 1376.5 2
16 -6 1 11909.5 1344.73 2
-10 16 1 9934.02 1101.54 2
-6 -10 1 7977.22 928.17 4
-6 16 -1 11507.1 1309.93 3
-6 -10 1 10494.9 1152.34 3
-6 -10 1 10996 1124.35 1
-10 -6 -1 11541.4 1184.84 1
16 -10 -4 1172.79 366.441 1
-6 -10 4 1013.67 389.873 1
-10 -6 -4 1869.51 478.092 1
-10 -6 -4 1383.85 353.864 2
16 -10 -4 1416.36 590.699 2
-6 16 -4 1342.35 445.222 4
-10 -6 -4 704.482 331.789 4
-10 16 4 1225.83 343.361 1
16 -6 4 1665.92 514.792 1
-10 16 4 836.208 357.196 2
16 -6 4 1782.98 492.907 2
-6 -10 4 828.612 341.332 3
16 -6 7 828.869 210.863 4
16 -6 7 1085.08 406.097 1
-6 -10 7 1085.42 441.318 1
-10 -6 -7 1103.36 360.395 1
-10 16 7 1237.92 394.916 2
16 -10 -7 1652.88 658.31 2
-10 -6 -7 869.396 262.943 2
-6 16 -7 925.542 410.394 4
-10 -6 -7 953.672 410.232 4
-10 16 7 1033.55 303.777 1
16 -10 -7 1298.44 499.122 1
-6 -10 7 980.516 354.847 3
-6 16 -10 1639.13 632.241 4
-6 -10 10 1702.56 449.84 1
-10 16 10 1773.24 643.511 2
16 -10 -10 1713.72 626.027 2
-10 -6 -10 1069.87 559.362 4
-10 -6 -10 1698.04 419.844 2
-6 16 -10 1186.55 501.884 3
-6 -10 10 1408.67 426.616 3
-10 16 10 1655.12 452.017 1
-10 16 13 692.599 315.132 2
-6 -10 13 88.3758 256.62 1
16 -10 -13 311.755 393.739 2
-10 -6 -13 705.452 458.328 4
-10 16 13 532.132 226.378 1
-6 16 -13 887.688 591.372 4
-6 16 -13 32.0587 222.383 3
-10 16 13 508.199 283.474 3
-6 -10 13 91.4246 103.164 3
-5 16 15 105.908 134.671 3
-5 -11 -15 410.185 255.404 2
16 -5 -15 57.8726 329.311 2
-11 -5 15 162.653 307.122 1
-11 16 -15 502.509 220.215 4
-5 16 15 194.795 77.2467 1
-11 -5 15 424.864 243.061 3
-5 -11 -15 575.727 248.712 3
-5 16 12 366.311 130.77 1
-5 -11 -12 805.859 258.49 2
16 -5 -12 608.038 568.585 2
-11 -5 12 256.451 190.882 1
-11 16 -12 682.09 306.074 4
-11 -5 12 404.293 259.844 3
-5 -11 -12 550.62 272.481 3
-5 16 12 886.553 348.531 3
-5 -11 -9 30.2272 141.482 3
-5 -11 -9 -21.3469 302.206 4
-11 -5 9 675.555 266.987 3
-5 16 9 269.683 196.109 2
16 -5 -9 510.886 466.167 2
-11 -5 9 370.519 283.541 1
-11 16 -9 619.365 335.129 4
-5 16 9 851.853 360.431 3
-5 -11 -6 3302.77 717.831 3
-11 -5 6 3258.64 662.969 3
-5 -11 -6 3126.15 423.58 1
-5 16 6 3635.64 557.353 2
16 -5 -6 3574.62 894.499 2
-11 -5 6 3183.23 675.346 1
-5 -11 -6 3447.02 795.617 4
-5 16 6 3094.11 645.14 3
-11 -5 3 6678.07 966.96 2
16 -5 -3 7734.34 1186.43 2
-5 16 3 6399.34 764.964 2
16 -11 3 6125.87 912.431 1
-5 -11 -3 6052.04 950.9 4
-5 16 3 6820.12 995.663 3
-5 -11 -3 6730.87 972.243 3
-5 -11 -3 6805.76 770.583 1
-11 -5 3 7870.13 1134.67 1
16 -5 -3 6646.89 1094.14 1
16 -5 0 3317.75 724.653 1
-11 -5 0 3174.58 606.826 2
-5 -11 0 2576.67 510.978 1
16 -5 0 2968.64 701.83 2
16 -11 0 3295.27 686.516 1
-5 -11 0 2462.25 539.644 4
16 -11 0 3425.9 717.367 2
-11 16 0 3143.88 630.366 2
-5 16 0 2953.84 676.22 3
-11 -5 0 2688.44 663 1
-5 -11 0 2756.35 588.142 3
-5 -11 3 1571.93 391.856 1
-11 -5 -3 2075.12 491.187 1
16 -11 -3 1442.63 456.174 1
-5 16 -3 2320.16 661.933 4
-11 -5 -3 1893.82 418.561 2
16 -5 3 1095.93 412.927 1
-11 16 3 1729.31 528.82 2
16 -11 -3 1305.56 511.812 2
-11 -5 -3 1228.55 378.839 4
16 -5 3 1875.32 520.019 2
-11 16 3 1364.77 366.838 1
-5 16 -3 1447.13 444.678 3
-5 -11 3 1210.04 332.169 3
-5 16 -6 2049.37 603.746 4
-5 -11 6 2436.11 582.813 1
-11 16 6 1894.28 541.727 2
-11 -5 -6 2098.16 406.348 2
16 -11 -6 2903.38 814.698 2
16 -5 6 2132.86 378.489 4
-11 -5 -6 1115.91 337.832 4
-11 16 6 1497.91 393.829 1
-5 16 -6 2733.77 668.868 3
16 -5 6 1740.2 488.243 1
-5 -11 6 1525.91 464.371 3
16 -11 -6 2571.09 674.148 1
-11 -5 -6 1984.18 456.843 1
-11 16 9 646.03 232.637 1
-5 -11 9 -161.458 282.915 1
-11 16 9 154.778 211.578 2
16 -11 -9 6.2158 367.335 2
-11 -5 -9 307.215 248.563 1
-11 -5 -9 -61.3139 262.46 4
-5 16 -9 627.9 523.233 4
-11 -5 -9 176.563 137.944 2
-5 16 -9 561.434 344.43 3
-5 -11 9 405.414 229.581 3
-5 -11 12 191.756 198.613 1
-11 16 12 459.234 335.993 2
16 -11 -12 266.779 350.678 2
-11 16 12 127.174 145.814 1
-11 -5 -12 102.048 171.261 4
-5 16 -12 -22.2098 407.918 4
-5 -11 12 -260.842 298.473 3
-5 16 -12 -52.164 331.396 3
-11 -5 -15 413.265 538.614 4
-5 -11 15 248.536 302.953 1
-11 16 15 499.119 277.829 1
16 -11 -15 665.793 649.396 2
-5 16 -15 565.16 497.115 3
-11 16 15 811.257 323.227 3
-4 16 13 626.738 251.803 3
-4 -12 -13 327.846 154.513 2
16 -4 -13 -614.635 694.288 2
-12 -4 13 -226.636 470.922 1
-12 16 -13 -3.06256 236.466 4
-4 -12 -13 320.09 291.702 3
-12 -4 13 119.451 110.279 3
-12 -4 10 266.199 171.392 3
-4 16 10 548.991 226.816 2
16 -4 -10 57.3081 249.064 2
-12 16 -10 11.4634 135.516 4
-12 -4 10 73.3186 207.849 1
-4 -12 -10 158.73 162.586 3
-4 16 10 274.084 209.089 3
-12 -4 7 915.523 387.666 3
-4 -12 -7 759.774 182.227 1
-4 16 7 932.009 267.803 2
16 -4 -7 1127.43 466.814 2
-12 -4 7 844.857 326.791 1
-4 -12 -7 1186.63 491.44 4
-4 16 7 940.931 369.967 3
-4 -12 -7 1358.53 501.243 3
-12 -4 4 9479.47 1197.1 2
16 -4 -4 13008.6 1621.45 2
-4 16 4 10042.7 866.861 2
-4 -12 -4 8736.55 1162.46 4
-4 16 4 10454 1207.54 3
-4 -12 -4 9336.98 1139.55 3
-4 -12 -4 9582.62 833.46 1
-12 -4 4 9552.79 1209.88 1
-12 -4 1 7239.11 980.273 2
16 -4 -1 9362.92 1289.33 2
-12 16 -1 7199.13 1040.47 2
16 -12 1 8028.1 1114.26 2
16 -12 1 8884.49 1101.85 1
-4 16 1 6829.74 1072.48 3
-4 -12 -1 7010.68 1047.64 3
-4 -12 -1 6520.91 926.021 4
-4 -12 -1 6961.33 844 1
-12 -4 1 7464.3 1068.6 1
16 -4 -1 8762.46 1226.56 1
-4 -12 2 343.916 105.312 1
-12 -4 -2 353.302 279.114 1
16 -4 2 136.097 123.332 1
-12 -4 -2 350.415 247.156 2
16 -12 -2 127.815 212.584 1
-4 16 -2 -114.295 248.178 4
-12 16 2 321.713 326.49 2
16 -12 -2 528.529 305.948 2
16 -4 2 124.043 130 2
-4 -12 2 504.923 232.93 4
-4 16 -2 140.167 241.283 3
-12 16 2 -126.356 245.324 1
-4 -12 2 196.494 107.298 3
16 -12 -5 3710.32 820.494 1
-12 -4 -5 4524.12 664.06 2
-4 -12 5 3993.66 716.188 1
16 -4 5 4373.25 807.727 1
16 -12 -5 4206.13 910.965 2
-12 16 5 4090.11 796.342 2
16 -4 5 5336.26 763.768 4
-4 16 -5 5303.6 997.796 4
-12 -4 -5 3005.87 590.172 4
-12 -4 -5 4140.61 700.64 1
-4 16 -5 4314.49 848.068 3
-4 -12 5 3253.77 627.48 3
-12 16 5 3545.21 625.536 1
16 -4 8 702.906 296.321 1
-4 -12 8 557.071 329.896 1
-12 16 8 569.658 223.057 1
-12 16 8 1158.54 484.747 2
16 -12 -8 989.581 546.357 2
-12 -4 -8 348.912 232.882 2
-12 -4 -8 317.048 147.452 4
-4 16 -8 1814.09 699.359 4
16 -12 -8 903.074 464.707 1
-4 16 -8 1659.38 683.919 3
-4 -12 8 294.251 259.897 3
-12 -4 -8 649.327 283.79 1
-4 -12 11 153.006 199.43 1
-12 16 11 305.518 293.292 2
-12 -4 -11 406.239 322.797 4
16 -12 -11 -339.22 486.569 2
-12 16 11 -11.3837 195.894 1
-4 16 -11 730.197 551.835 4
-12 -4 -11 -305.289 171.321 2
-4 16 -11 766.093 414.625 3
-4 -12 14 -84.0916 170.452 1
-12 16 14 318.899 211.45 1
16 -12 -14 678.077 554.117 2
-12 -4 -14 198.468 373.373 4
-12 16 14 679.424 343.852 3
-4 16 -14 1155.4 558.505 3
-13 -3 14 437.046 206.024 3
-3 16 14 866.197 329.734 3
-3 -13 -14 906.521 324.383 2
16 -3 -14 1324.94 755.252 2
-13 -3 14 419.478 302.293 1
-13 16 -14 374.024 240.354 4
-3 -13 -14 820.66 445.903 3
-3 16 11 1340.64 402.04 3
-13 -3 11 1045.79 414.51 3
16 -3 -11 1523.41 801.626 2
-3 -13 -11 596.459 158.33 2
-13 -3 11 1835.33 629.018 1
-13 16 -11 1120.25 367.436 4
-3 -13 -11 593.06 354.189 3
-3 16 8 7097.47 692.561 2
16 -3 -8 8440.71 1560.4 2
-3 -13 -8 7387.52 1278.42 4
-3 -13 -8 7709.97 1079.89 3
-3 16 8 7685.19 1043.96 3
-13 -3 8 5909.77 903.778 3
-13 -3 8 7564.02 1223.76 1
-13 -3 5 12838.4 1500.17 2
16 -3 -5 14356.7 1785.94 2
-3 16 5 16472.5 1031.43 2
-3 -13 -5 14768.4 1643.34 4
-3 16 5 16169.1 1528.69 3
-3 -13 -5 13975.8 1432.5 3
-3 -13 -5 14658.2 936.265 1
-13 -3 5 14897.1 1640.14 1
-13 -3 2 4090.11 844.132 2
-3 -13 -2 2930.33 521.48 1
16 -13 2 3995.09 734.386 1
-13 16 -2 4244.55 848.248 2
16 -3 -2 3759.22 858.859 2
-3 -13 -2 4813.97 851.344 4
16 -3 -2 4233.63 893.289 1
-13 -3 2 4372.04 888.617 1
-3 16 2 3940.37 809.946 3
-3 -13 -2 2979.39 692.272 3
16 -3 1 1670.82 556.87 1
-13 16 1 876.347 288.335 1
-3 -13 1 988.684 336.892 1
-13 -3 -1 1296.09 397.486 1
-13 -3 -1 1082.91 433.634 2
-3 16 -1 542.442 360.304 4
-13 16 1 841.57 354.977 2
-3 -13 1 1218.31 408.717 4
16 -13 -1 1554.99 478.967 1
16 -13 -1 1740.84 529.935 2
-3 16 -1 1080.66 399.782 3
-3 -13 1 968.038 372.426 3
16 -3 1 1267.17 476.724 2
-13 16 4 -136.097 239.904 1
-3 -13 4 320.935 210.771 1
16 -13 -4 230.883 236.448 1
16 -3 4 751.685 332.847 1
-13 -3 -4 387.52 137.6 2
-13 16 4 731.346 415.155 2
-3 16 -4 590.513 412.583 4
16 -13 -4 629.818 334.652 2
16 -3 4 720.092 380.874 4
-13 -3 -4 596.836 240.713 4
16 -3 4 876.21 360.262 2
-13 -3 -4 582.878 272.498 1
-3 16 -4 302.228 308.703 3
-3 -13 4 102.8 118.444 3
-13 16 7 7788.69 1196.44 2
16 -13 -7 9226.62 1387.4 2
-13 -3 -7 8157.2 979.444 2
16 -3 7 7654.62 1059.11 1
-13 16 7 7573.86 961.909 1
16 -3 7 8643.69 941.149 4
-13 -3 -7 5867.61 815.642 4
-13 -3 -7 8507.23 1040.26 1
-3 16 -7 11443 1606.76 4
-3 16 -7 9837.5 1296.67 3
-3 -13 7 7317.34 1046.58 1
16 -13 -7 10204.4 1387.27 1
-3 -13 10 470.927 318.738 1
16 -13 -10 535.41 281.761 2
-13 -3 -10 791.398 393.067 4
-13 16 10 455.091 270.794 1
-3 16 -10 865.5 510.089 4
-13 -3 -10 676.179 314.915 2
-13 -3 -10 469.875 250.181 1
-3 16 -10 236.738 187.162 3
-3 -13 13 -284.633 358.788 1
-13 16 13 50.5197 149.444 1
16 -13 -13 707.778 468.632 2
-13 -3 -13 -438.04 453.62 4
-3 16 -13 806.01 577.809 3
-14 -2 12 78.5556 149.721 3
-2 16 12 645.982 291.229 3
16 -2 -12 184.645 460.23 2
-2 -14 -12 19.0736 58.2859 2
-14 -2 12 297.352 428.398 1
-14 16 -12 375.599 189.18 4
-2 -14 -12 -68.3234 257.529 3
-2 16 9 906.479 383.16 3
16 -2 -9 1094.96 593.921 2
-2 -14 -9 828.363 284.268 4
-14 -2 9 718.019 441.049 1
-2 -14 -9 1040.8 394.179 3
-2 16 6 1428.42 270.4 2
16 -2 -6 958.987 386.366 2
16 -14 6 925.356 191 4
-2 -14 -6 474.881 217.694 4
-2 -14 -6 1272.47 236.473 1
-14 -2 6 1599.64 525.842 1
-2 -14 -6 1936.22 529.059 3
-2 16 6 1372.78 391.735 3
-2 -14 -3 1910.61 391.867 1
-14 -2 3 2272.26 556.473 2
16 -2 -3 2795.08 791.884 2
-2 -14 -3 1837.8 588.701 4
-2 16 3 1681.38 326.033 2
-14 -2 3 1588.83 502.265 1
-2 -14 -3 2245.42 530.158 3
-2 16 3 1538.83 502.357 3
16 -14 0 3011.32 639.679 1
-2 -14 0 2191.85 450.088 1
-14 -2 0 3171.86 734.921 1
-14 16 0 2383.95 535.508 1
-14 -2 0 3263.44 683.928 2
16 -2 0 3092.63 711.895 2
-2 16 0 2026.14 573.591 4
-2 -14 0 2039.96 511.14 4
-14 16 0 3131.44 691.074 2
16 -14 0 2666.15 679.588 2
-2 -14 0 2419.33 556.615 3
-2 16 0 2006.31 535.6 3
16 -2 0 3152.41 725.641 1
-2 -14 3 432.798 203.401 1
-14 16 3 331.495 219.863 1
16 -2 3 354.254 130.569 1
-14 -2 -3 558.72 254.911 2
16 -14 -3 478.701 255.042 1
-14 -2 -3 981.62 373.706 1
-14 16 3 472.958 309.498 2
-2 16 -3 680.49 285.286 4
16 -2 3 506.726 211.987 4
-2 -14 3 340.992 123.499 4
16 -2 3 512.094 337.561 2
-2 16 -3 764.92 278.737 3
16 -14 -3 -12.3797 283.047 2
-2 -14 6 1567.92 439.78 1
16 -14 -6 2202.84 662.429 1
-14 -2 -6 2694.59 619.16 1
-14 16 6 2327.89 587.751 1
-14 16 6 2062.56 627.615 2
16 -2 6 2867.93 658.13 1
16 -2 6 2731.72 571.655 4
-2 16 -6 2739.23 773.237 4
-14 -2 -6 2349.93 553.586 2
-14 -2 -6 1135.89 324.584 4
-2 16 -6 1720.04 531.746 3
16 -14 -6 2728.24 750.465 2
-2 -14 9 1171.92 449.518 1
16 -14 -9 1164.68 569.172 2
-14 -2 -9 1056.26 353.693 4
-14 -2 -9 1472.03 523.481 1
-14 -2 -9 1166.82 408.102 2
16 -14 -9 1198.34 569.138 1
-14 16 9 1101.4 427.106 1
16 -2 9 760.555 377.025 1
-2 16 -9 914.5 448.871 3
-2 -14 12 945.644 492.2 1
16 -14 -12 1193.16 625.844 2
-14 16 12 1220.29 399.164 1
-14 -2 -12 1051.73 450.655 4
-14 -2 -12 809.952 389.93 2
-2 16 -12 1476.8 558.978 3
-15 -1 13 108.126 163.62 3
16 -1 -13 835.97 389.742 2
-1 -15 -13 575.193 196.946 2
-15 -1 13 323.65 274.144 1
-1 -15 -13 1026.09 407.918 3
-1 16 10 1096.75 374.208 3
16 -1 -10 827.705 522.51 2
-15 -1 10 1959.98 734.596 1
-1 -15 -10 1240.91 443.325 3
-1 16 7 3712.96 726.223 3
16 -1 -7 5457.23 1330.28 2
-15 -1 7 4431.02 1006.2 1
-1 -15 -7 4737.76 1079.89 4
-1 -15 -7 3879.44 779.271 3
-1 16 4 2863.53 381.083 2
-15 -1 4 3007.06 711.633 2
16 -1 -4 3317.24 813.068 2
-1 -15 -4 3846.67 802.354 4
-15 -1 4 3615.58 782.461 1
-1 -15 -4 2930.49 619.749 3
-1 -15 -4 3476.98 463.751 1
-1 16 4 3524.99 724.739 3
-1 -15 -1 759.299 308.21 1
-15 -1 1 900.811 512.155 1
16 -15 1 710.514 352.732 1
-15 -1 1 1105.4 542.819 2
16 -1 -1 1067.75 475.363 2
-1 -15 -1 792.609 369.388 4
-15 16 -1 273.404 264.446 1
-15 16 -1 178.924 310.798 2
16 -1 -1 1425.32 574.024 1
-1 16 1 346.396 233.746 3
-1 -15 2 569.253 287.241 1
16 -1 2 475.203 324.947 1
-15 16 2 569.116 253.31 2
-15 16 2 490.099 365.202 1
-15 -1 -2 1148.73 429.739 2
-15 -1 -2 409.042 237.594 1
-1 -15 2 623.825 311.139 4
-1 16 -2 580.449 348.277 4
16 -1 2 865.84 423.865 2
16 -15 -2 1374.76 526.888 1
16 -1 2 489.368 398.199 4
16 -15 -2 673.342 417.294 2
-1 16 -2 938.427 468.236 3
-1 -15 5 1501.91 471.937 1
-15 -1 -5 1468.6 487.195 1
16 -15 -5 2283.62 679.674 1
16 -1 5 1908.53 624.562 1
-15 16 5 1090.31 339.594 1
-15 16 5 1434.68 420.205 2
-15 -1 -5 1407.53 403.43 2
16 -15 -5 3352.9 852.005 2
16 -1 5 2282.29 620.987 4
16 -1 5 1891.85 552.119 2
-1 16 -5 2421.76 819.971 3
-1 -15 8 314.506 303.107 1
-15 -1 -8 139.054 200.03 1
16 -1 8 520.053 299.601 4
16 -15 -8 83.4291 236.644 2
16 -1 8 762.89 401.819 1
-15 -1 -8 751.318 348.763 2
-15 -1 -8 54.002 204.684 4
16 -15 -8 507.797 241.466 1
-15 16 8 261.572 126.55 1
-1 16 -8 974.271 498.915 3
-1 -15 11 1556.28 529.135 1
-15 -1 -11 1067.91 439.451 4
16 -15 -11 893.12 494.927 2
-15 16 11 1775.43 545.445 1
-15 -1 -11 1684.69 520.118 2
-1 16 -11 1759.14 709.104 3
-1 -15 14 425.834 281.543 1
-15 -1 -14 825.782 514.801 4
-15 16 14 508.275 329.053 1
16 -15 -14 359.998 304.042 2
-1 16 -14 617.307 477.386 3
-16 0 14 213.831 205.814 3
16 0 -14 982.271 748.72 2
0 -16 -14 45.8472 108.826 2
-16 0 14 624.449 555.062 1
0 -16 -14 249.095 150.231 3
0 16 11 464.947 259.065 3
16 0 -11 2.66424 252.819 2
-16 0 11 522.302 352.397 1
0 -16 -11 226.976 121.916 2
0 -16 -11 168.327 259.859 3
16 0 -8 6246.03 1343.3 2
0 -16 -8 6796.79 1309.72 4
0 -16 -8 6432.2 1006.37 3
0 16 8 6148.29 954.7 3
-16 0 8 6658.25 1136.88 1
0 16 5 369.51 229.667 3
0 -16 -5 648.779 193.01 1
16 0 -5 114.782 187.841 2
0 -16 -5 358.689 179.895 4
-16 0 5 238.776 276.717 1
0 -16 -2 837.296 403.44 1
-16 16 -2 1227.27 612.644 1
-16 0 2 1323.95 592.608 1
-16 0 2 1092.45 585.057 2
16 0 -2 646.832 461.12 2
0 16 2 718.526 460.999 3
0 -16 1 2177.59 519.58 1
16 -16 -1 2956.89 677.208 1
-16 0 -1 3016.45 742.871 1
-16 0 -1 3530.88 759.059 2
-16 16 1 3091.54 678.622 1
0 -16 1 2683.91 643.155 4
16 0 1 3307.85 790.891 2
16 -16 -1 3196.07 771.139 2
16 0 1 3532.57 818.138 1
0 16 -1 2440.57 712.582 3
16 0 4 13315.5 1429.3 1
-16 0 -4 12971.4 1372.64 2
16 -16 -4 12628 1401.2 1
16 -16 -4 11976.5 1493.35 2
16 0 4 13964.8 1415.21 2
-16 0 -4 13456.1 1433.9 1
16 0 4 17420.9 1768.16 4
0 -16 4 10139.8 1104.42 4
-16 16 4 11890.2 1321.01 1
0 16 -4 13873.8 1546.15 3
-16 16 7 253.393 264.431 1
16 -16 -7 296.437 325.585 1
16 0 7 40.9048 188.91 1
-16 0 -7 263.59 259.479 2
16 -16 -7 249.367 296.113 2
-16 0 -7 348.837 307.132 1
16 0 7 428.385 384.669 4
0 16 -7 413.063 386.816 3
0 -16 10 -42.9811 266.616 1
16 -16 -10 530.29 337.426 2
-16 0 -10 366.493 315.623 1
-16 16 10 430.696 266.858 1
16 -16 -10 165.088 311.539 1
16 0 10 -207.087 279.584 1
-16 0 -10 -44.8321 104.485 4
-16 0 -10 183.042 296.221 2
0 16 -10 122.333 225.589 3
0 -16 13 215.869 256.152 1
-16 16 13 -67.9138 194.721 1
16 -16 -13 -81.6567 314.97 2
-16 0 -13 359.312 140.883 4
0 16 -13 240.509 249.069 3
16 1 -12 -92.8766 450.673 2
1 -17 -12 114.073 154.86 2
-17 1 12 189.951 341.803 1
1 -17 -12 16.0034 174.586 3
1 16 9 1451.59 480.954 3
16 1 -9 846.185 637.185 2
-17 1 9 578.931 284.285 1
1 16 6 5144.19 914.162 3
16 1 -6 6546.63 1326.88 2
1 -17 -6 6765.74 1254.21 4
16 -17 6 5840.52 613.973 4
1 -17 -6 5691.73 528.509 1
-17 1 6 6922.18 1201.68 1
1 16 3 388.663 210.978 3
-17 1 3 209.176 185.562 1
16 1 -3 897.982 454.252 2
1 -17 -3 410.254 256.049 4
-17 16 -3 222.385 189.134 1
1 16 0 2112.71 629.518 3
-17 1 0 2404.33 734.116 1
-17 1 0 2680.1 701.99 2
16 1 0 1905.08 581.22 2
-17 16 0 1956.69 599.281 1
1 -17 0 1717.98 516.403 4
1 -17 3 534.138 294.133 4
-17 1 -3 851.339 408.424 2
-17 16 3 484.201 164.918 1
16 1 3 1044.71 417.694 2
16 1 3 1322.62 573.137 4
16 -17 -3 748.338 394.62 1
16 -17 -3 1335.95 553.094 2
-17 1 -3 1106.48 495.092 1
16 1 3 1062.48 443.83 1
1 16 -3 1044.46 494.492 3
-17 16 6 770.328 406.317 1
16 1 6 1413.81 494.975 1
16 -17 -6 952.425 402.639 1
-17 1 -6 1091.39 489.318 1
-17 1 -6 820.765 326.069 2
16 1 6 1299.44 449.774 4
16 -17 -6 1947.39 636.192 2
1 16 -6 1728.8 598.105 3
16 1 9 67.2696 188.591 1
16 -17 -9 85.7654 200.893 2
-17 16 9 617.07 344.28 1
-17 1 -9 549.857 310.426 1
-17 1 -9 633.626 309.354 2
-17 1 -9 510.115 237.216 4
16 -17 -9 618.119 386.841 1
1 16 -9 196.518 308.092 3
-17 16 12 852.617 480.285 1
16 -17 -12 443.236 262.26 2
16 -17 -12 575.304 247.499 1
-17 1 -12 214.431 128.124 4
16 1 12 249.717 152.95 1
1 16 -12 753.821 513.232 3
-18 2 13 465.981 383.952 1
16 2 -13 909.173 477.286 2
2 -18 -13 239.973 155.175 2
-18 2 10 457.659 338.381 1
2 -18 -10 694.916 221.008 2
2 16 7 1739.81 516.466 3
2 -18 -7 1351 235.652 1
16 2 -7 1750.53 712.029 2
2 -18 -7 1696.75 279.676 1
16 -18 7 1788.32 323.996 4
2 -18 -7 1384.93 557.67 4
-18 2 7 1742.13 616.119 1
2 16 4 61.1721 176.334 3
-18 2 4 950.36 396.631 1
16 2 -4 -128.599 301.167 2
2 -18 -4 1179.79 496.483 4
-18 16 -4 733.294 430.923 1
2 16 1 1354.46 504.681 3
-18 2 1 1468.84 529.107 1
16 2 -1 1574.67 514.753 2
2 -18 -1 1448.32 477.472 4
-18 16 -1 1028.87 431.678 1
2 16 -2 3375.52 805.608 3
16 -18 -2 2669.08 622.381 1
-18 2 -2 2879.64 681.761 2
16 2 2 2616.47 647.073 2
-18 2 -2 2752.15 700.113 1
2 -18 2 2132.33 532.445 4
16 2 2 3771.03 921.285 4
-18 16 2 2626.64 668.565 1
16 2 2 2096.97 613.641 1
16 -18 -2 2134.31 643.119 2
2 16 -5 505.825 422.911 3
16 2 5 886.07 392.737 1
-18 16 5 1109.81 484.776 1
-18 2 -5 578.609 249.525 1
16 -18 -5 118.502 248.952 1
-18 2 -5 627.935 375.544 2
16 2 5 959.145 464.151 4
16 -18 -5 908.553 466.44 2
2 -18 5 275.71 238.109 4
16 2 5 550.681 326.225 2
2 16 -8 101.392 170.604 3
16 -18 -8 -6.47237 181.747 1
-18 2 -8 -43.2432 136.3 1
16 2 8 183.389 227.132 1
-18 2 -8 31.367 132.121 2
16 2 8 88.7514 250.034 4
16 -18 -8 575.278 413.696 2
-18 16 8 67.7547 251.606 1
2 16 -11 901.19 490.836 3
-18 2 -11 389.943 316.855 1
16 -18 -11 567.484 270.738 1
-18 16 11 787.697 405.284 1
16 2 11 337.457 223.174 1
16 -18 -11 396.433 312.95 2
-18 2 -11 751.409 276.038 4
16 3 -11 906.38 261.671 2
3 -19 -11 1147.71 327.568 2
-19 3 11 792.784 533.411 1
3 -19 -8 409.553 114.414 1
3 16 8 261.694 263.493 3
16 3 -8 503.069 555.779 2
3 -19 -8 520.309 151.951 1
16 -19 8 450.818 182.668 4
-19 3 8 298.972 357.722 1
3 16 5 635.214 353.425 3
-19 3 5 -211.036 310.613 1
16 3 -5 114.537 259.371 2
16 -19 5 3.70823 159.972 4
3 -19 -5 554.429 329.784 4
-19 16 -5 440.767 311.001 1
3 16 2 -42.4399 199.822 3
-19 16 -2 253.918 263.493 1
-19 3 2 401.169 299.295 1
16 3 -2 -73.4605 198.094 2
3 -19 -2 392.399 308.465 4
3 16 -1 2120.62 690.702 3
3 -19 1 1686.31 574.045 4
16 3 1 2408.17 673.957 2
-19 3 -1 2527.85 837.359 1
-19 16 1 2042.49 629.854 1
3 16 -4 1573.66 611.938 3
-19 3 -4 1050.79 415.8 1
-19 16 4 1536.25 545.574 1
-19 3 -4 1306.39 405.879 2
16 3 4 925.252 359.566 4
16 3 4 1637.32 499.273 2
16 -19 -4 1313.07 488.289 1
3 -19 4 1069.8 391.406 4
16 -19 -4 981.509 428.374 2
16 3 4 1133.15 440.586 1
3 16 -7 336.8 390.612 3
16 3 7 -101.624 186.698 1
16 -19 -7 316.706 362.901 1
16 -19 -7 -69.2531 263.406 2
16 3 7 283.532 180.273 4
-19 3 -7 -159.925 292.307 1
-19 16 7 170.148 261.422 1
3 16 -10 665.556 454.039 3
16 3 10 193.712 206.582 1
-19 16 10 588.737 308.203 1
16 -19 -10 666.999 416.249 2
-19 3 -10 240.457 234.834 1
16 -19 -10 347.513 231.07 1
3 16 -13 1048.15 510.297 3
-19 16 13 1259.06 524.787 1
16 -19 -13 1330.64 514.293 1
16 -19 -13 1130.12 567.841 2
16 3 13 457.317 230.134 1
-19 3 -13 642.937 313.575 4
16 4 -12 1052.91 472.737 2
4 -20 -12 1270.56 390.677 2
-20 4 12 604.555 410.081 1
16 4 -9 348.831 358.79 2
-20 4 9 882.032 418.844 1
4 16 6 270.111 325.533 3
-20 4 6 560.283 530.377 1
4 -20 -6 531.658 207.416 1
16 4 -6 -34.6117 290.405 2
4 -20 -6 368.646 346.707 4
16 -20 6 340.914 137.296 4
4 16 3 2609.07 716.539 3
4 16 3 2233.1 384.237 2
-20 4 3 3993.31 911.273 1
-20 16 -3 1502.62 552.177 1
16 4 -3 2830.35 795.51 2
4 -20 -3 2300.27 704.537 4
4 16 0 -169.153 163.466 3
-20 16 0 259.045 337.691 1
16 4 0 535.22 328.919 2
-20 4 0 836.524 421.985 1
4 -20 0 791.352 406.319 4
16 -20 -3 376.783 257.014 1
-20 4 -3 1066.5 505.916 1
4 16 -3 861.661 490.501 3
-20 16 3 734.869 458.972 1
16 4 3 524.937 275.329 2
16 4 3 587.324 245.483 1
4 -20 3 1064.59 442.793 4
16 -20 -3 172.209 163.338 2
4 16 -6 74.3767 353.653 3
16 -20 -6 268.352 180.416 1
-20 4 -6 25.865 213.307 1
16 -20 -6 237.215 266.111 2
4 -20 6 -209.991 286.267 4
16 4 6 581.93 325.955 2
16 4 6 -307.099 286.704 1
-20 16 6 630.076 368.244 1
16 -20 -9 608.902 419.558 1
4 16 -9 860.579 507.902 3
16 4 9 1306.19 428.042 1
16 -20 -9 1280.67 631.889 2
-20 16 9 865.865 418.398 1
-20 4 -9 832.905 490.862 1
4 16 -12 -129.216 349.906 3
16 4 12 155.9 189.305 1
-20 16 12 545.212 348.555 1
16 -20 -12 679.12 620.013 2
16 -20 -12 284.489 315.109 1
16 5 -10 19.8592 304.598 2
-21 5 10 -288.049 283.897 1
-21 5 7 1238.28 525.251 1
5 -21 -7 1766.25 374.251 1
16 5 -7 1436.63 702.011 2
16 -21 7 1178.87 359.32 4
5 16 4 599.418 359.081 3
5 16 4 403.066 153.455 2
16 5 -4 1254.75 700.702 2
16 -21 4 779.257 311.737 4
-21 16 -4 611.502 367.814 1
5 16 1 1604.97 606.482 3
5 16 1 1880.61 423.177 2
-21 16 -1 937.05 432.054 1
16 5 -1 1117.97 517.451 2
-21 5 1 2013.04 617.763 1
5 -21 -1 1133.35 456.191 4
5 16 -2 203.611 206.924 3
-21 16 2 278.733 255.794 1
5 -21 2 231.459 207.094 4
16 5 2 396.701 196.258 2
-21 5 -2 216.402 168.878 1
5 16 -5 467.472 243.05 3
-21 16 5 276.836 180.307 1
-21 5 -5 -46.9083 151.636 1
16 -21 -5 298.926 232.799 1
5 -21 5 15.26 192.999 4
16 5 5 574.913 296.898 2
16 5 5 346.942 225.434 1
16 -21 -5 147.059 276.38 2
5 16 -8 381.204 426.926 3
16 -21 -8 8.14489 156.791 1
-21 5 -8 231.319 348.418 1
16 -21 -8 -398.054 408.911 2
-21 16 8 269.056 266.107 1
16 5 8 -45.0333 191.679 1
5 16 -11 381.732 381.046 3
-21 5 -11 491.375 301.52 1
16 5 11 1544.73 507.154 1
-21 16 11 567.402 296.273 1
16 -21 -11 837.247 409.642 2
16 -21 -11 625.884 367.013 1
-22 6 11 132.363 184.658 1
16 6 -11 282.052 458.238 2
6 -22 -11 304.533 316.986 2
-22 6 8 591.898 522.32 1
16 6 -8 258.561 277.183 2
6 -22 -8 993.77 293.656 1
16 -22 8 847.51 271.6 4
-22 16 -5 116.452 195.756 1
6 -22 -5 409.741 236.071 1
-22 6 5 362.814 453.552 1
16 6 -5 -302.191 441.096 2
6 -22 -5 16.9209 258.471 4
16 -22 5 156.949 264.741 4
6 -22 -2 2971.8 781.97 4
6 16 2 1768.07 580.292 3
6 16 2 1800.88 429.381 2
-22 16 -2 1870.55 674.49 1
16 6 -2 2058.25 722.059 2
-22 6 2 3092.81 842.048 1
6 16 -1 -351.061 324.161 3
6 16 -1 -29.3491 175.21 2
-22 16 1 96.7385 198.418 1
16 6 1 164.9 307.873 2
6 -22 1 198.116 199.624 4
-22 6 -1 809.507 384.11 1
6 16 -4 285.056 326.906 3
6 16 -4 544.767 416.994 2
-22 16 4 690.237 396.753 1
-22 6 -4 -56.3148 299.194 1
16 6 4 -53.9933 192.415 1
6 -22 4 513.653 260.692 4
16 -22 -4 245.434 221.818 2
16 6 4 1044.29 407.438 2
16 -22 -4 803.298 424.047 1
6 16 -7 -20.7737 207.016 3
-22 6 -7 217.063 282.777 1
16 -22 -7 158.509 281.096 1
16 -22 -7 469.831 379.216 2
6 -22 7 -1.27353 124.198 4
16 6 7 607.676 363.385 1
-22 16 7 1080.98 547.639 1
16 6 10 558.183 324.19 1
6 16 -10 240.789 301.168 3
-22 16 10 193.633 157.125 1
16 -22 -10 231.856 412.464 2
-22 6 -10 313.614 311.301 1
16 -22 -10 262.065 205.267 1
16 -23 9 636.05 289.782 4
-23 7 9 507.155 466.235 1
7 -23 -9 723.31 270.446 1
16 7 -9 365.838 302.06 2
7 -23 -6 1667.58 723.104 4
-23 7 6 202.601 249.906 1
16 7 -6 901.467 596.445 2
-23 16 -6 259.628 375.376 1
7 -23 -6 1056.71 357.785 1
16 -23 6 533.116 285.986 4
7 16 3 1403.99 368.487 2
16 7 -3 1565.52 595.932 2
-23 7 3 1961.39 700.103 1
16 -23 3 1602.67 480.308 4
7 -23 -3 1948.27 680.787 4
-23 16 -3 1183.57 436.303 1
7 16 0 539.53 257.364 3
7 16 0 987.843 379.195 2
16 7 0 1408.51 494.81 2
7 -23 0 1069.94 503.863 4
-23 16 0 1683.41 678.825 1
-23 7 0 1397.64 625.842 1
7 16 -3 443.927 301.151 3
7 16 -3 426.186 237.471 2
-23 7 -3 340.75 277.042 1
-23 16 3 -4.55151 262.188 1
7 -23 3 -37.485 162.579 4
16 7 3 454.214 209.03 2
16 -23 -6 360.304 325.003 1
7 16 -6 602.978 601.239 3
7 16 -6 303.001 369.923 2
16 7 6 47.7135 236.609 1
7 -23 6 -71.8767 120.126 4
16 7 6 214.47 192.414 2
16 -23 -6 650.257 485.99 2
-23 7 -6 445.065 443.486 1
-23 16 6 140.06 267.398 1
-23 7 -9 332.295 345.461 1
7 16 -9 823.654 640.922 3
7 16 -9 666.713 350.815 2
16 -23 -9 710.236 410.811 1
16 -23 -9 680.26 457.285 2
16 7 9 27.6075 296.555 1
-23 16 9 302.756 377.613 1
8 -24 -7 1207.54 360.365 1
-24 8 7 377.336 180.921 1
16 8 -7 336.085 485.598 2
-24 16 -7 1290.27 543.775 1
16 -24 7 645.801 278.887 4
8 16 4 570.33 277.661 1
16 8 -4 873.151 591.21 2
8 16 4 643.622 207.735 2
-24 8 4 1256.58 467.266 1
8 -24 -4 541.289 429.778 4
-24 16 -4 337.301 373.568 1
8 -24 -4 1334.06 451.931 1
16 -24 4 453.804 236.294 4
8 16 1 286.979 309.264 2
16 8 -1 251.725 331.905 2
8 -24 -1 362.292 355.546 4
-24 8 1 709.474 483.283 1
-24 16 -1 -17.2409 199.492 1
8 16 -2 417.896 228.361 3
-24 8 -2 602.331 376.505 1
8 16 -2 875.023 359.586 2
-24 16 2 211.731 158.699 1
16 8 2 -256.42 320.573 2
8 -24 2 259.613 195.016 4
-24 16 5 1813.82 644.319 1
8 16 -5 1621.11 791.469 3
8 16 -5 1030.39 415.059 2
-24 8 -5 1195.88 534.631 1
16 8 5 1298.59 428.709 2
8 -24 5 973.777 375.233 4
16 -24 -5 1249.27 537.31 2
8 16 -8 299.155 453.049 3
8 16 -8 387.787 392.411 2
16 -24 -8 1107.14 531.091 1
-24 8 -8 352.51 339.075 1
16 8 8 531.809 308.352 1
-24 16 8 513.147 444.749 1
16 -24 -8 544.014 446.227 2
8 -24 8 318.593 197.483 4
-25 16 -8 230.018 294.103 1
9 16 8 855.558 282.749 1
16 9 -8 -424.852 459.406 2
-25 9 8 332.122 313.425 1
9 -25 -8 594.534 262.069 1
16 -25 8 26.7376 167.972 4
9 16 5 -211.811 281.958 1
-25 16 -5 706.759 505.526 1
16 9 -5 131.475 306.825 2
-25 9 5 404.15 471.691 1
9 16 5 246.547 118.389 2
9 -25 -5 735.08 534.059 4
16 -25 5 559.823 282.448 4
9 -25 -5 76.4053 105.292 1
9 16 2 542.613 387.643 1
-25 16 -2 -529.052 475.632 1
9 -25 -2 -318.552 410.079 4
9 16 2 287.276 238.939 2
16 9 -2 -111.97 299.327 2
16 -25 2 209.118 171.898 4
-25 9 2 261.025 225.703 1
9 -25 -2 -176.906 208.388 1
-25 9 -1 649.653 529.222 1
9 16 -1 1115.32 458.778 2
-25 16 1 1015.48 516.96 1
16 9 1 1305.98 520.272 2
9 -25 1 871.537 423.784 4
-25 16 4 915.17 481.074 1
9 16 -4 149.379 316.462 2
-25 9 -4 530.214 406.115 1
16 9 4 227.703 287.913 2
9 -25 4 97.5165 196.212 4
9 16 -7 417.968 249.135 2
-25 9 -7 267.411 385.58 1
16 -25 -7 -65.0769 245.495 1
16 9 7 -90.6861 185.618 1
9 -25 7 -52.8069 214.826 4
-25 16 7 102.934 262.968 1
16 -25 -7 190.879 225.615 2
10 16 6 -225.338 257.526 1
16 10 -6 197.321 232.264 2
16 -26 6 347.041 252.487 4
10 -26 -6 536.867 329.876 1
-26 16 -6 275.795 266.586 1
-26 10 6 230.676 425.229 1
10 16 6 157.766 113.883 2
10 16 3 491.781 327.246 1
-26 16 -3 789.292 441.6 1
16 10 -3 383.334 365.448 2
10 16 3 545.888 228.464 2
16 -26 3 577.537 264.146 4
10 -26 -3 614.822 461.845 4
-26 10 3 224.373 198.814 1
10 -26 -3 759.302 421.49 1
-26 10 0 635.253 316.828 1
10 16 0 268.189 224.449 2
16 10 0 126.711 313.262 2
16 -26 0 624.521 395.718 4
-26 16 0 574.251 397.307 1
10 -26 0 -88.8784 361.979 4
-26 16 3 101.354 267.561 1
10 16 -3 846.271 631.546 2
-26 10 -3 611.281 446.438 1
16 10 3 833.717 379.619 2
10 -26 3 496.376 313.304 4
-26 10 -6 -386.393 227.56 1
10 16 -6 788.84 591.853 2
10 -26 6 29.432 126.94 4
16 10 6 292.905 292.438 2
-26 16 6 187.756 299.596 1
11 16 4 731.256 410.103 1
11 -27 -4 307.668 218.553 1
16 11 -4 511.243 426.752 2
-27 16 -4 1275.64 594.957 1
11 16 4 1089.46 362.975 2
11 -27 -4 1031.7 594.027 4
16 -27 4 737.567 325.051 4
-27 11 4 1200.33 588.854 1
16 -27 1 896.873 395.208 4
11 16 1 1961.54 513.904 2
16 11 -1 1624.06 575.032 2
11 -27 -1 865.767 462.695 4
-27 16 -1 2147.82 728.786 1
-27 11 1 1921.97 661.818 1
11 16 -2 743.205 455.827 2
-27 16 2 276.483 283.357 1
-27 11 -2 691.601 509.585 1
16 11 2 649.734 336.472 2
11 -27 2 580.462 353.426 4
11 16 -5 81.0909 250.186 2
16 11 5 710.16 411.389 2
11 -27 5 42.4607 213.827 4
-27 11 -5 610.978 566.632 1
-27 16 5 204.327 336.349 1
16 12 -2 -28.8247 235.687 2
12 16 2 152.309 223.629 2
12 -28 -2 727.398 326.396 4
16 -28 2 424.696 296.83 4
-28 16 -2 83.7225 410.036 1
-28 12 2 -171.509 333.431 1
-28 12 -1 813.492 464.561 1
12 16 -1 734.176 408.996 2
-28 16 1 739.454 305.351 1
16 12 1 1135.83 534.365 2
16 -28 -1 68.5108 191.785 4
12 -28 1 933.045 464.64 4
-28 16 4 -452.294 378.051 1
12 16 -4 1018.62 559.03 2
16 12 4 700.288 404.798 2
12 -28 4 55.6966 139.383 4
-28 12 -4 -78.2853 335.51 1
-8 -9 -14 185.274 239.563 3
-9 -8 14 672.109 497.02 1
17 -8 -14 586.446 607.254 2
-8 -9 -14 473.079 340.125 4
-8 17 14 598.26 229.429 1
-9 17 -14 1183.68 450.764 4
-9 -8 14 651.861 306.138 3
-8 17 14 409.923 194.523 3
-8 -9 -11 287.601 280.59 3
-8 17 11 641.318 349.185 2
-9 -8 11 892.79 430.24 1
-8 17 11 488.275 220.79 1
17 -8 -11 962.139 563.97 2
-8 -9 -11 871.582 431.583 4
-9 17 -11 763.322 381.975 4
-8 -9 -11 553.023 215.02 2
-8 17 11 420.151 287.032 3
-9 -8 11 34.9322 138.887 3
-8 17 8 1501.88 326.108 1
-8 -9 -8 1281.26 482.952 3
-9 -8 8 1128.78 449.943 1
-8 17 8 1104.75 385.474 2
-8 -9 -8 1411.11 341.796 1
17 -8 -8 567.565 442.012 2
-8 -9 -8 856.807 207.373 2
-9 17 -8 1033.7 409.085 4
-8 -9 -8 1120.08 523.458 4
-8 17 8 1117.49 400.514 3
-9 -8 8 1234.07 394.965 3
-9 -8 5 2225.3 578.465 3
-8 -9 -5 1848.22 454.847 3
-8 -9 -5 1955 310.495 2
-8 -9 -5 2174.9 443.969 1
-9 -8 5 2203.34 634.635 1
17 -8 -5 2421.36 763.107 2
-8 17 5 2548.81 546.758 2
-9 17 -5 1175.24 468.081 4
-8 17 5 1694.24 440.978 3
-8 -9 -5 2321.46 606.291 4
-9 -8 2 760.027 326.184 3
-8 -9 -2 862.776 371.551 3
-8 -9 -2 1023.31 299.353 2
17 -8 -2 1749.3 567.876 1
-9 -8 2 1111.99 481.179 1
17 -8 -2 1256.85 539.482 2
-8 -9 -2 750.84 360.243 1
17 -9 2 1656.21 448.467 1
-8 -9 -2 1119.68 415.649 4
-8 17 2 2216.17 518.406 2
17 -9 2 1318.88 455.116 2
-8 -9 1 1097.42 391.109 3
-9 -8 -1 1316.55 442.969 3
-9 -8 -1 1096.38 327.288 2
17 -9 -1 3178.75 730.599 1
-9 -8 -1 1065.49 413.529 4
-8 -9 1 695.059 299.286 1
17 -8 1 2746.62 637.697 1
-9 -8 -1 1298.09 403.412 1
17 -8 1 3232.94 739.355 2
17 -9 -1 2961.05 746.469 2
-9 17 1 2045.45 493.147 2
-8 -9 4 606.782 326.513 3
-9 -8 -4 169.508 221.85 3
-9 -8 -4 529.346 212.783 1
-9 -8 -4 546.749 250.281 2
-8 17 -4 331.539 272.485 4
-8 -9 4 931.088 352.982 1
17 -9 -4 1439.62 552.984 2
-9 -8 -4 39.1445 228.558 4
-9 17 4 805.329 347.932 2
-9 -8 -7 325.285 107.743 1
-9 -8 -7 554.411 260.994 3
-8 -9 7 269.24 277.398 1
-9 17 7 170.175 143.621 2
-9 -8 -7 358.445 152.993 2
17 -9 -7 158.021 247.658 2
-8 17 -7 384.377 208.182 4
17 -8 7 454.828 163.921 4
-9 17 7 398.453 173.354 1
-9 -8 -7 308.579 359.826 4
-8 -9 7 180.859 131.889 3
-9 -8 -10 1030.06 408.205 3
-8 -9 10 771.324 359.242 1
-9 17 10 1222.86 458.355 2
-9 17 10 822.053 255.168 1
17 -9 -10 616.308 382.943 2
-9 -8 -10 452.377 371.049 4
-8 17 -10 1462.38 621.038 4
-9 -8 -10 1142.61 291.766 2
-9 17 10 700.437 302.456 3
-8 -9 10 577.135 298.943 3
-9 -8 -13 -13.2139 173.201 3
-9 17 13 272.657 267.973 2
-8 -9 13 342.951 176.889 1
17 -9 -13 -172.697 400.969 2
-9 -8 -13 164.257 303.096 4
-8 17 -13 -102.119 322.721 4
-9 17 13 -16.8478 137.137 1
-9 17 13 17.5395 121.467 3
-7 17 15 615.596 250.719 3
-7 -10 -15 146.29 211.064 3
-10 -7 15 170.397 246.149 1
17 -7 -15 -189.543 577.541 2
-7 17 15 -59.6151 114.297 1
-10 17 -15 372.61 270.772 4
-10 -7 15 347.973 269.753 3
-7 -10 -12 251.016 226.231 3
-10 17 -12 841.023 369.925 4
-7 17 12 836.517 370.1 2
-10 -7 12 513.3 381.558 1
17 -7 -12 713.901 658.176 2
-7 17 12 666.889 211.181 1
-7 -10 -12 333.752 382.175 4
-7 17 12 433.479 269.596 3
-10 -7 12 406.213 220.211 3
-10 -7 9 960.129 332.375 3
-7 -10 -9 1147.14 433.598 3
-7 17 9 1186.9 447.698 2
-10 -7 9 1230.83 520.234 1
17 -7 -9 1090.7 575.423 2
-7 17 9 892.221 218.167 1
-7 -10 -9 640.824 171.486 2
-7 -10 -9 1479.88 528.333 4
-10 17 -9 1297.62 399.64 4
-7 -10 -9 1202.24 284.644 1
-7 17 9 1076.36 400.197 3
-10 -7 6 586.835 241.427 3
-7 -10 -6 654.197 338.618 3
-7 -10 -6 721.172 203.607 1
-10 -7 6 360.397 263.954 1
-7 17 6 621.202 251.23 2
17 -7 -6 226.819 174.637 2
-7 -10 -6 345.089 247.705 4
-7 17 6 1192.8 405.33 3
-7 -10 -3 2088.97 600.649 3
-10 -7 3 2332.77 591.565 3
-10 -7 3 2455.52 614.379 1
17 -7 -3 3529.18 886.851 2
-7 17 3 2654.96 555.44 2
-7 -10 -3 1906.42 539.362 4
-7 -10 -3 2413.52 507.786 1
-7 17 3 1731.23 480.811 3
17 -10 3 2386.86 606.895 2
-10 -7 0 6333.51 815.404 2
17 -7 0 6219.29 997.424 1
17 -7 0 6664.14 1029.86 2
17 -10 0 5614.1 921.065 1
17 -10 0 6112.08 980.51 2
-10 17 0 6742.96 923.233 2
-7 -10 0 4655.38 709.77 4
-7 -10 0 5912.15 885.539 3
-10 -7 0 5900.03 916.267 3
-7 -10 0 6216.26 842.937 1
-10 -7 0 6185.22 881.994 1
-7 -10 3 854.764 264.106 3
-10 -7 -3 643.04 240.412 3
-10 -7 -3 993.353 306.168 1
17 -10 -3 360.957 245.041 1
-10 -7 -3 1240.09 326.089 2
-7 -10 3 755.947 357.829 1
17 -7 3 816.644 351.918 1
-7 17 -3 906.871 342.343 4
17 -10 -3 836.426 482.867 2
-10 17 3 1015.97 361.592 2
-10 -7 -3 419.503 179.492 4
17 -7 3 820.498 439.154 2
-7 -10 6 1904.68 547.781 1
-10 -7 -6 1415.43 320.215 2
-10 17 6 1465.88 476.965 2
17 -10 -6 1992.4 666.058 2
-7 17 -6 1388.47 528.466 4
17 -7 6 1878.14 379.181 4
-10 -7 -6 1129.65 389.423 4
-10 -7 -6 1633.63 390.118 1
-10 17 6 1303.02 353.385 1
-7 -10 6 1536.34 509.959 3
-10 -7 -9 3424.79 544.071 2
-7 -10 9 2853.01 693.318 1
-10 -7 -9 2714.53 516.965 1
-10 17 9 2867.13 692.713 2
17 -10 -9 3261.88 924.673 2
-10 17 9 3342.68 572.601 1
-10 -7 -9 2303.09 640.206 4
-7 17 -9 3819.18 858.825 4
-10 17 12 -28.107 180.954 2
-7 -10 12 -108.847 166.931 1
-7 17 -12 283.442 272.113 3
17 -10 -12 23.807 470.924 2
-10 -7 -12 -163.417 388.472 4
-7 17 -12 685.261 278.44 4
-10 17 12 -246.135 157.387 1
-10 17 12 376.535 255.447 3
-7 -10 15 360.884 286.042 1
17 -10 -15 141.306 354.081 2
-10 17 15 -23.9228 123.065 1
-10 -7 -15 485.922 411.793 4
-7 17 -15 475.664 623.048 4
-7 17 -15 134.945 328.79 3
-10 17 15 394.321 265.286 3
-6 -11 -13 346.551 283.48 3
17 -6 -13 318.254 449.93 2
-11 -6 13 119.148 273.305 1
-6 17 13 236.516 113.504 1
-6 -11 -13 -104.208 445.663 4
-11 17 -13 68.5772 285.625 4
-11 -6 13 17.6799 95.6391 3
-6 17 13 723.19 316.444 3
-11 -6 10 365.801 206.318 3
-6 -11 -10 437.216 298.81 3
-6 17 10 567.46 241.794 2
-11 -6 10 201.559 227.757 1
17 -6 -10 888.158 643.593 2
-6 -11 -10 300.348 344.678 4
-11 17 -10 802.768 387.016 4
-6 17 10 598.456 250.058 3
-6 -11 -7 633.447 308.991 3
-11 -6 7 308.612 219.142 3
-6 -11 -7 392.893 294.471 4
-6 17 7 879.824 344.538 2
17 -6 -7 1190.84 564.117 2
-11 -6 7 187.607 260.783 1
-6 -11 -7 253.283 148.305 1
-6 17 7 841.33 401.108 3
-6 -11 -4 1829.55 527.791 3
-11 -6 4 1832.01 516.303 3
-11 -6 4 2395.51 604.24 2
17 -6 -4 2654.4 771.116 2
-11 -6 4 2809.39 726.379 1
-6 17 4 2623.08 523.792 2
-6 -11 -4 2999.65 726.702 4
-6 -11 -4 2131.46 427.098 1
-6 17 4 2539.84 620.906 3
-6 -11 -1 3198.77 619.935 3
17 -6 -1 3989.52 801.674 1
-11 -6 1 3371.41 667.892 2
-6 -11 -1 3732.22 617.032 1
17 -6 -1 4170.29 839.194 2
-11 -6 1 3176.39 673.193 1
-6 -11 -1 2486.14 503.286 4
17 -11 1 2835.59 632.661 1
17 -11 1 3264.61 647.565 2
-6 17 1 3891.2 770.433 3
-11 17 -1 3118.19 674.926 2
-11 -6 -2 117.104 204.22 1
-11 -6 -2 319.982 213.898 2
-6 -11 2 334.722 226.848 1
17 -11 -2 762.899 390.557 1
17 -6 2 552.874 359.591 1
17 -11 -2 575.356 343.474 2
-11 17 2 671.556 328.337 2
17 -6 2 874.622 399.72 2
-11 -6 -2 -154.739 173.993 4
-6 17 -2 -127.088 326.898 3
-6 -11 2 6.01559 234.053 3
17 -11 -5 2225.91 641.311 1
-6 -11 5 2768.18 609.922 1
-11 -6 -5 2524.7 448.913 2
-11 17 5 2303.15 634.919 2
-6 17 -5 2553.45 701.886 4
-11 -6 -5 2354.4 500.612 1
17 -11 -5 2850.8 797.283 2
-11 -6 -5 2165.91 502.695 4
17 -6 5 3258.82 555.448 4
17 -6 5 2809.01 659.302 1
-6 17 -5 3129.56 689.434 3
-11 17 5 2787.09 537.758 1
-6 -11 5 2656.85 607.979 3
-6 -11 8 340.495 252.416 1
17 -6 8 318.288 146.439 4
-11 17 8 367.111 184.772 2
17 -11 -8 -112.535 359.607 2
-11 17 8 673.585 266.744 1
-11 -6 -8 768.823 333.625 2
-6 17 -8 214.599 266.203 4
-11 -6 -8 696.963 317.21 4
-6 17 -8 -46.1316 243.425 3
-11 -6 -8 652.29 311.607 1
-6 -11 11 1292.52 459.005 1
-11 17 11 1447.86 497.337 2
17 -11 -11 1513.56 544.385 2
-11 -6 -11 1751.89 632.344 4
-6 17 -11 3139.6 849.09 4
-11 -6 -11 2422.45 531.191 2
-6 17 -11 2161.99 683.077 3
-11 17 11 1961.1 477.795 1
-6 -11 14 527.64 377.371 1
17 -11 -14 1440.49 661.645 2
-11 17 14 768.908 298.804 1
-11 -6 -14 110.052 270.786 4
-6 17 -14 1144.27 632.822 4
-6 17 -14 1231.22 496.163 3
-11 17 14 928.334 371.009 3
-5 17 14 244.449 185.974 3
-5 -12 -14 -24.5491 129.052 2
17 -5 -14 -61.687 684.533 2
-12 -5 14 344.928 402.426 1
-12 17 -14 -14.7769 247.387 4
-12 -5 14 385.187 283.746 3
-5 -12 -14 544.965 361.033 3
-12 -5 11 1476.09 467.305 3
-5 17 11 2051.48 472.794 2
-5 -12 -11 1002.6 197.567 2
17 -5 -11 786.676 717.414 2
-12 -5 11 1175.14 471.781 1
-12 17 -11 732.011 294.496 4
-5 -12 -11 1292.62 613.083 4
-5 17 11 1534.84 468.841 3
-5 -12 -11 2007.28 598.798 3
-12 -5 8 1226.58 406.194 3
-5 17 8 1219.5 387.103 2
-5 -12 -8 1337.64 256.051 1
17 -5 -8 1268.77 679.406 2
-12 -5 8 1447.73 569.966 1
-5 -12 -8 1796.68 622.176 4
-5 17 8 695.986 414.274 3
-5 -12 -8 1389.42 483.588 3
-12 -5 5 1122.73 383.112 3
-12 -5 5 567.499 317.421 2
-12 -5 5 766.938 431.385 1
17 -5 -5 443.837 325.236 2
-5 17 5 634.984 208.83 2
-5 -12 -5 1218.9 449.294 4
-5 -12 -5 990.578 282.847 1
-5 17 5 1008.21 470.02 3
-5 -12 -5 969.617 425.265 3
-12 -5 2 2376.44 572.952 2
-5 -12 -2 1892.59 438.544 1
17 -5 -2 3067.61 779.311 2
-5 -12 -2 2226.54 550.231 4
-12 -5 2 2657.42 650.295 1
-5 17 2 1967.36 459.317 2
17 -12 2 2343.15 648.078 2
-5 17 2 2901.46 649.167 3
-12 17 -2 2608.6 650.299 2
-5 -12 -2 2013.54 524.232 3
-12 -5 -1 146.404 133.494 1
17 -5 1 949.741 476.065 1
-5 -12 1 208.384 155.013 1
-12 -5 -1 196.999 189.653 2
17 -12 -1 314.449 253.476 1
17 -5 1 1028.23 433.832 2
-12 17 1 -12.988 184.053 2
17 -12 -1 306.29 324.9 2
-5 -12 1 -14.826 182.699 4
-5 17 -1 174.711 204.012 3
-5 -12 1 -317.443 413.932 3
-12 17 4 1879.07 452.842 1
-5 -12 4 2414.8 560.077 1
17 -12 -4 2155.56 636.581 1
-12 -5 -4 2593.54 537.246 2
-12 -5 -4 1964.06 434.802 1
17 -5 4 1282.67 509.699 1
-12 17 4 2123.54 592.369 2
-5 17 -4 1937.22 563.466 4
-12 -5 -4 1376.06 389.654 4
17 -5 4 2376.03 521.767 4
17 -5 4 2346.58 654.374 2
-5 17 -4 1402.85 534.283 3
17 -12 -4 2818.1 754.558 2
-5 -12 7 189.901 202.601 1
-12 -5 -7 843.887 374.087 4
-12 -5 -7 686.554 291.763 1
-12 17 7 787.055 363.98 2
17 -12 -7 776.436 450.132 2
-12 -5 -7 808.576 290.209 2
-12 17 7 716.936 267.652 1
17 -5 7 401.759 185.479 4
-5 17 -7 515.423 363.137 4
-5 17 -7 317.646 371.396 3
-12 17 10 783.812 330.598 1
-5 -12 10 559.266 387.913 1
-12 17 10 491.313 327.27 2
-12 -5 -10 586.874 345.422 1
17 -12 -10 64.6979 206.645 2
-12 -5 -10 406.434 240.741 4
-5 17 -10 -89.4844 308.714 4
-12 -5 -10 613.504 323.489 2
-5 17 -10 762.464 335.712 3
-5 -12 13 251.534 330.474 1
17 -12 -13 -449.103 476.874 2
-12 17 13 216.712 180.422 1
-12 17 13 322.896 193.899 3
-5 17 -13 596.718 413.012 3
-12 -5 -13 175.562 340.888 4
-4 17 12 1395.22 440.366 3
-13 -4 12 1214.21 375.707 3
-4 -13 -12 848.302 211.029 2
17 -4 -12 1343.85 732.797 2
-13 -4 12 694.889 415.803 1
-4 -13 -12 1463.57 742.55 4
-13 17 -12 1563.93 436.258 4
-4 -13 -12 1564.77 492.477 3
-13 -4 9 224.942 287.562 3
-4 17 9 250.83 174.044 2
17 -4 -9 311.165 444.892 2
-13 -4 9 257.4 267.396 1
-4 -13 -9 -388.821 471.159 4
-4 -13 -9 -83.851 192.943 3
-4 17 9 -56.842 199.938 3
17 -4 -6 2597.87 814.667 2
-4 17 6 2541.36 440.341 2
-13 -4 6 2005.09 639.688 1
-4 -13 -6 2229.76 633.958 4
-4 17 6 2114.6 585.973 3
-4 -13 -6 1562.08 479.694 3
-4 -13 -6 1962.99 333.536 1
-13 -4 3 1872 536.324 2
-4 -13 -3 2668.5 479.554 1
17 -4 -3 2655.73 679.747 2
-4 -13 -3 1914.44 519.825 4
-13 -4 3 1935.5 575.335 1
-4 17 3 1984.37 408.264 2
-4 17 3 2354.57 562.06 3
-4 -13 -3 2358.02 570.407 3
-13 -4 0 988.042 457.446 1
17 -4 0 543.657 340.491 1
-4 -13 0 209.81 144.838 1
-13 -4 0 607.317 354.536 2
17 -4 0 1213.05 534.159 2
-4 -13 0 684.362 360.537 4
-13 17 0 707.663 354.459 2
17 -13 0 835.333 421.233 2
17 -13 0 286.767 149.998 1
-4 17 0 735.947 260.016 3
-13 17 3 2006.72 492.59 1
-4 -13 3 1648.03 400.89 1
17 -4 3 1608.34 523.365 1
-13 -4 -3 2205.43 467.957 1
17 -13 -3 2051.41 602.474 1
-13 -4 -3 2058.2 479.78 2
-4 17 -3 1715.2 612.652 4
17 -13 -3 2025.44 648.772 2
-13 17 3 1505.52 493.86 2
17 -4 3 1904.85 484.801 2
-4 -13 3 1366.46 384.774 4
-4 17 -3 1795.15 505.516 3
-13 -4 -6 980.636 366.609 1
17 -13 -6 1053.99 412.016 1
-4 -13 6 741.738 333.5 1
-13 17 6 1106.39 442.61 2
-13 -4 -6 975.7 359.993 2
17 -13 -6 1085.11 501.355 2
17 -4 6 1625.39 442.062 4
17 -4 6 1458.33 481.635 1
-4 17 -6 1241.2 593.133 4
-13 17 6 800.802 292.429 1
-13 -4 -6 359.53 189.131 4
-4 17 -6 1238.45 467.983 3
-13 17 9 479.465 221.635 1
-4 -13 9 307.498 177.057 1
-13 -4 -9 74.2218 187.508 1
-13 17 9 605.29 398.82 2
17 -13 -9 875.599 414.696 2
-13 -4 -9 249.36 230.103 2
-13 -4 -9 387.386 234.459 4
-4 17 -9 1413.88 734.424 4
-4 17 -9 566 486.981 3
-4 -13 12 -251.92 357.352 1
17 -13 -12 62.0279 265.022 2
-13 -4 -12 331.832 395.164 4
-13 17 12 -221.341 240.83 1
-13 -4 -12 244.693 223.604 2
-4 17 -12 356.056 271.582 3
-14 -3 13 785.915 322.536 3
-3 17 13 1059.18 372.883 3
17 -3 -13 1494.53 836.55 2
-3 -14 -13 1067.1 250.528 2
-14 -3 13 1142.4 531.568 1
-14 17 -13 1951.8 480.751 4
-3 -14 -13 1331.47 467.397 3
-3 17 10 185.494 133.455 3
-14 -3 10 250.796 141.467 3
17 -3 -10 874.416 524.493 2
-14 -3 10 -67.7966 275.822 1
-3 -14 -10 100.64 447.42 4
-3 -14 -10 201.768 137.419 3
-3 -14 -7 3252.01 381.481 1
-3 17 7 3405.93 464.185 2
17 -3 -7 4097.3 1055.35 2
-3 -14 -7 5277.4 1157.1 4
-14 -3 7 4028.97 899.307 1
-3 -14 -7 3064.45 680.34 3
-3 17 7 4127.12 797.511 3
-14 -3 4 1173.26 473.672 2
-3 -14 -4 892.443 253.747 1
17 -3 -4 2080.75 768.135 2
-3 -14 -4 1928.8 656.898 4
-3 17 4 1139.1 300.852 2
-14 -3 4 757.307 346.905 1
-3 17 4 1215.02 431.709 3
-14 -3 1 -146.453 207.146 1
-3 -14 -1 189.518 211.175 1
-3 -14 -1 438.043 307.332 4
-14 -3 1 148.407 164.726 2
17 -3 -1 449.286 330.189 2
-14 17 -1 491.04 349.003 2
17 -14 1 530.406 216.201 2
-3 17 1 -48.4652 242.236 3
17 -3 2 1585.81 514.294 2
-3 -14 2 1309.79 360.195 1
17 -3 2 754.567 360.712 1
-14 17 2 2095.06 518.453 1
-14 -3 -2 1630.5 506.702 1
-14 -3 -2 1639.3 433.219 2
17 -14 -2 2026.4 642.324 1
-3 17 -2 1329.86 486.395 4
-14 17 2 1322.33 437.508 2
17 -14 -2 1755.88 592.989 2
-3 -14 2 1317.53 431.477 4
-3 17 -2 1083.44 418.37 3
17 -3 5 2944.36 665.032 4
-3 -14 5 1516.57 439.593 1
17 -14 -5 1728.11 546.738 1
17 -3 5 2150.63 580.447 1
-14 -3 -5 1961.18 461.114 2
-14 17 5 2103.09 646.667 2
17 -14 -5 2662.81 765.334 2
-3 17 -5 2689.83 807.045 4
-14 -3 -5 1532.2 388.118 4
-14 17 5 2146.87 559.454 1
-14 -3 -5 2315.06 582.343 1
17 -3 5 1853.29 520.961 2
-3 17 -5 2390.62 605.945 3
-3 -14 8 464.294 374.462 1
-14 17 8 453.053 275.727 1
-14 17 8 299.082 260.628 2
17 -14 -8 610.066 352.905 2
17 -3 8 362.816 216.158 4
-14 -3 -8 23.4306 191.335 2
-3 17 -8 817.514 405.208 4
-14 -3 -8 479.886 248.922 4
-14 -3 -8 469.666 308.033 1
-3 17 -8 594.347 511.532 3
-3 -14 11 930.429 443.895 1
-14 -3 -11 342.7 213.039 1
17 -14 -11 1118.29 469.125 2
-14 -3 -11 749.186 301.153 4
-14 17 11 1256.08 460.7 1
-14 -3 -11 299.898 137.52 2
-3 17 -11 1112.41 430.373 3
-3 -14 14 -108.555 183.24 1
-14 17 14 -71.0615 111.188 1
17 -14 -14 -7.2231 344.527 2
-14 -3 -14 -430.791 426.32 4
-3 17 -14 114.404 366.064 3
-15 -2 14 71.1688 221.131 3
17 -2 -14 188.305 447.596 2
-2 -15 -14 570.01 223.194 2
-15 -2 14 461.356 381.633 1
-15 17 -14 165.551 123.05 4
-2 -15 -14 389.46 348.192 3
-2 17 11 288.238 213.061 3
17 -2 -11 242.886 427.429 2
-15 -2 11 20.8542 290.81 1
-2 -15 -11 115.4 293.291 4
-2 -15 -11 264.909 263.98 3
-2 17 8 1258.56 460.198 3
-2 17 8 1061.02 232.398 2
17 -2 -8 171.81 357.265 2
-2 -15 -8 707.409 513.233 4
-15 -2 8 693.399 431.43 1
-2 17 5 3309.16 447.117 2
17 -2 -5 2993.4 856.193 2
-2 -15 -5 3445.66 845.292 4
-15 -2 5 2932.8 792.666 1
-2 -15 -5 2957.93 426.474 1
-2 17 5 3173.18 724.199 3
-2 -15 -2 2737.24 490.548 1
-15 -2 2 3427.8 793.331 2
17 -2 -2 3954.46 867.291 2
-2 -15 -2 3142.43 728.097 4
-2 17 2 3094.38 722.164 3
-15 -2 2 3702.24 881.399 1
-2 -15 1 2131.35 504.716 1
-15 17 1 2463.66 641.671 2
-15 -2 -1 2979.73 705.494 1
-15 -2 -1 2909.37 644.774 2
-15 17 1 2463.78 569.176 1
17 -2 1 2061.09 527.18 2
-2 -15 1 2058.82 519.022 4
17 -15 -1 2305.93 653.857 2
-2 17 -1 2159.48 647.619 3
-2 -15 4 300.176 227.492 1
17 -2 4 516.499 382.156 1
17 -15 -4 169.63 247.943 1
-15 -2 -4 585.986 283.433 2
-15 17 4 497.102 353.691 2
17 -15 -4 823.119 454.568 2
-15 -2 -4 99.2709 211.349 1
17 -2 4 637.997 290.963 4
-2 -15 4 467.196 203.473 4
17 -2 4 729.827 400.656 2
-2 17 -4 238.478 346.09 3
-15 17 4 370.721 304.924 1
17 -15 -7 586.903 434.384 1
-2 -15 7 381.749 230.68 1
-15 17 7 533.232 223.733 1
-15 -2 -7 351.259 319.01 1
17 -2 7 666.022 337.639 1
17 -15 -7 820.702 509.425 2
-15 -2 -7 445.125 260.439 2
17 -2 7 537.867 293.622 4
-15 -2 -7 116.775 107.503 4
-2 17 -7 309.811 182.84 3
-2 -15 10 309.381 284.082 1
-15 -2 -10 158.224 252.887 1
17 -15 -10 444.23 344.038 2
-15 -2 -10 -186.67 270.455 4
-15 -2 -10 476.985 237.67 2
-15 17 10 345.367 285.695 1
-2 17 -10 1125.55 493.19 3
-2 -15 13 -17.2474 212.426 1
17 -15 -13 171.768 249.336 2
-15 17 13 468.219 261.449 1
-15 -2 -13 525.172 387.69 4
-15 -2 -13 401.327 325.311 2
-2 17 -13 176.643 273.712 3
-1 17 12 586.419 379.272 3
17 -1 -12 -46.7632 308.395 2
-1 -16 -12 103.646 80.3564 2
-16 -1 12 268.722 234.331 1
-1 17 9 726.229 367.177 3
17 -1 -9 1290.39 698.783 2
-1 -16 -9 696.933 552.505 4
-16 -1 9 409.813 287.454 1
-1 17 6 4264.72 415.41 2
17 -1 -6 6811.86 1341.46 2
17 -16 6 4906.56 512.711 4
-1 -16 -6 6135.33 1201.91 4
-1 17 6 6039.34 967.692 3
-1 -16 -6 5179.44 530.638 1
-16 -1 6 6316.38 1127.52 1
-1 -16 -3 262.132 142.205 1
-1 -16 -3 347.237 307.88 4
-16 -1 3 433.72 310.046 2
17 -1 -3 565.722 364.874 2
-1 17 3 201.793 155.236 3
-16 -1 3 -336.088 394.581 1
-1 -16 0 1888.54 476.723 1
-16 -1 0 2312.63 669.777 1
-16 -1 0 1967.93 567.554 2
-16 17 0 1644.16 459.256 1
17 -16 0 2219.61 644.98 2
-1 -16 0 1581.04 508.836 4
17 -1 0 1818.62 628.373 2
-1 17 0 1650.76 463.44 3
-1 -16 3 287.12 180.88 1
-16 17 3 729.801 325.944 1
17 -1 3 1000.55 411.787 1
-16 -1 -3 1169.14 386.012 2
17 -16 -3 899.906 421.621 1
-16 -1 -3 782.391 378.966 1
17 -1 3 1121.72 457.828 2
17 -16 -3 691.103 356.586 2
17 -1 3 1698.9 708.403 4
-1 -16 3 489.081 252.357 4
-1 17 -3 1387.26 526.452 3
-1 -16 6 794.726 356.571 1
17 -16 -6 1167.38 506.676 1
-16 -1 -6 1078.31 494.656 1
-16 17 6 1043.05 441.77 1
17 -1 6 878.624 393.386 1
-16 -1 -6 1101.47 409.026 2
17 -1 6 1164 482.906 4
17 -16 -6 582.598 390.995 2
-1 17 -6 1707.45 584.131 3
-16 -1 -9 440.7 321.441 2
-1 -16 9 895.24 383.57 1
-16 -1 -9 413.493 272.698 1
-16 -1 -9 725.031 346.822 4
17 -16 -9 777.427 440.23 2
-16 17 9 720.039 350.127 1
-1 17 -9 753.268 523.529 3
-1 -16 12 624.028 398.237 1
17 -16 -12 210.029 315.204 2
-16 17 12 -71.9382 262.012 1
-16 -1 -12 379.059 292.323 4
-16 -1 -12 755.51 372.565 2
-1 17 -12 312.958 194.234 3
17 0 -13 443.04 317.404 2
0 -17 -13 -118.364 167.31 2
-17 0 13 317.657 361.665 1
0 17 10 160.198 206.778 3
17 0 -10 -182.335 282.787 2
-17 0 10 157.299 188.215 1
0 17 7 898.583 342.888 3
17 0 -7 1560.54 776.211 2
0 -17 -7 936.873 187.32 1
0 -17 -7 1244.86 506.892 4
17 -17 7 964.354 228.526 4
-17 0 7 576.316 337.299 1
0 17 4 -117.452 240.694 3
0 -17 -4 636.705 218.685 1
17 0 -4 809.716 553.519 2
0 -17 -4 790.833 468.653 4
0 17 4 517.284 163.98 2
-17 0 4 734.33 420.263 1
0 -17 -1 546.67 278.552 1
-17 0 1 781.59 377.582 1
-17 0 1 865.387 503.769 2
17 0 -1 270.724 161.843 2
0 -17 -1 906.953 365.283 4
-17 17 -1 1048.52 464.879 1
0 17 1 525.176 368.709 3
0 -17 2 1284.19 381.347 1
-17 17 2 1434.77 484.984 1
-17 0 -2 1460.09 513.184 2
-17 0 -2 2045.81 637.096 1
0 -17 2 1107.06 411.015 4
17 0 2 1974.92 691.142 4
17 0 2 1619.08 536.268 2
17 -17 -2 1575.46 523.465 2
0 17 -2 1715.66 628.692 3
-17 0 -5 274.692 269.608 1
17 0 5 407.72 364.378 1
17 -17 -5 672.362 387.103 1
-17 17 5 48.8178 156.085 1
-17 0 -5 314.883 293.786 2
17 0 5 -139.958 288.86 4
17 -17 -5 143.371 352.207 2
0 -17 5 460.269 261.367 4
17 0 5 25.889 192.881 2
0 17 -5 589.846 332.645 3
-17 0 -8 -191.018 343.491 1
17 -17 -8 464.31 389.976 1
0 -17 8 404.734 279.797 1
17 0 8 551.627 318.033 1
17 0 8 -267.34 225.166 4
17 -17 -8 761.103 470.283 2
-17 0 -8 69.0241 290.3 2
0 17 -8 296.705 196.125 3
-17 17 8 221.893 227.03 1
0 -17 11 235.635 323.288 1
-17 0 -11 48.234 240.118 1
17 -17 -11 -186.61 386.322 2
-17 17 11 286.487 242.433 1
-17 0 -11 -141.492 150.196 4
-17 0 -11 103.934 158.761 2
0 17 -11 -372.757 236.661 3
1 17 11 208.158 132.633 3
17 1 -11 483.324 611.899 2
-18 1 11 -290.705 336.573 1
1 -18 -11 375.099 150.85 2
1 17 8 1612.8 488.936 3
17 1 -8 1794.76 638.298 2
17 -18 8 1195.14 258.776 4
1 -18 -8 1660.97 671.252 4
-18 1 8 2078.78 615.524 1
-18 1 5 745.274 410.391 1
1 17 5 448.465 390.88 3
1 -18 -5 1371.27 311.645 1
17 1 -5 761.98 506.773 2
17 -18 5 997.099 281.257 4
1 -18 -5 734.114 441.303 4
1 17 2 688.28 350.389 3
-18 17 -2 525.567 372.889 1
-18 1 2 695.282 399.077 1
17 1 -2 319.736 227.708 2
1 -18 -2 521.806 344.998 4
1 17 -1 1480.2 585.621 3
-18 17 1 1618.5 497.605 1
-18 1 -1 3852.24 902.333 2
-18 1 -1 2386.42 810.794 1
17 1 1 2163.03 615.846 2
1 -18 1 1686.1 476.796 4
17 1 1 2437.3 738.081 4
17 -18 -1 2052.91 656.883 2
17 1 4 -83.1736 220.447 1
-18 17 4 149.23 272.188 1
-18 1 -4 -123.055 191.997 2
17 -18 -4 268.849 222.472 1
17 1 4 367.788 348.871 4
17 1 4 344.229 258.861 2
17 -18 -4 81.1635 189.329 2
1 -18 4 238.232 214.713 4
-18 1 -4 226.478 244.705 1
1 17 -4 192.165 284.418 3
-18 17 7 362.095 286.809 1
17 -18 -7 986.845 409.104 1
17 1 7 570.704 399.065 1
-18 1 -7 536.61 385.146 2
-18 1 -7 317.03 234.286 1
17 -18 -7 725.643 475.834 2
1 17 -7 716.27 475.699 3
17 1 7 1352.56 521.546 4
-18 1 -10 203.173 188.093 1
17 -18 -10 825.83 464.457 2
-18 17 10 704.341 306.675 1
-18 1 -10 364.14 258.439 2
-18 1 -10 148.542 225.747 4
1 17 -10 459.874 408.046 3
1 -18 13 669.993 371.815 1
-18 17 13 649.97 400.179 1
17 -18 -13 41.654 412.188 2
-18 1 -13 640.279 258.85 4
1 17 -13 765.722 277.847 3
17 2 -12 285.623 356.141 2
2 -19 -12 283.374 182.295 2
-19 2 12 153.157 176.962 1
2 17 9 426.188 330.338 3
17 2 -9 891.271 295.13 2
2 -19 -9 166.59 338.766 4
-19 2 9 297.251 272.424 1
-19 2 6 28.8473 332.925 1
2 -19 -6 265.458 140.746 1
2 17 6 758.651 365.015 3
17 2 -6 226.439 211.787 2
2 -19 -6 -157.359 306.573 4
17 -19 6 120.492 133.438 4
2 17 3 1151.49 537.778 3
-19 2 3 1628.23 519.944 1
2 -19 -3 1014.93 507.964 4
17 2 -3 1818.29 676.406 2
-19 17 -3 226.096 193.224 1
2 17 0 934.92 427.9 3
-19 2 0 1040.88 413.806 1
-19 17 0 911.69 389.968 1
17 2 0 762.886 238.42 2
2 -19 0 378.937 218.098 4
2 17 -3 1071.74 615.185 3
-19 2 -3 288.595 215.858 2
-19 17 3 792.154 383.518 1
17 2 3 781.231 412.334 2
17 2 3 717.227 504.376 4
2 -19 3 729.728 324.509 4
17 -19 -3 716.217 324.49 2
-19 2 -3 600.323 415.444 1
2 17 -6 26.9228 193.957 3
17 2 6 187.646 278.76 1
-19 17 6 60.938 218.568 1
17 -19 -6 177.131 188.224 1
-19 2 -6 -169.577 398.553 1
-19 2 -6 -279.475 274.044 2
17 2 6 340.879 433.533 4
17 -19 -6 466.087 458.026 2
2 -19 6 200.446 140.205 4
17 2 6 151.52 230.063 2
2 17 -9 226.487 327.764 3
17 2 9 505.386 308.772 1
17 2 9 456.254 411.089 4
-19 2 -9 305.279 359.918 1
17 -19 -9 1185.92 552.582 2
-19 17 9 607.43 345.422 1
17 -19 -9 550.539 293.524 1
2 17 -12 199.413 239.061 3
-19 17 12 533.495 333.491 1
17 -19 -12 257.133 234.46 2
-19 2 -12 339.217 185.047 4
17 3 -10 706.143 462.726 2
-20 3 10 811.78 451.554 1
3 -20 -7 464.204 158.635 1
-20 3 7 279.825 436.953 1
3 17 7 125.631 288.104 3
17 3 -7 977.833 704.092 2
3 -20 -7 509.744 476.653 4
17 -20 7 125.026 107.21 4
3 -20 -7 545.775 179.068 1
3 17 4 353.713 321.997 3
-20 3 4 1411.08 552.905 1
3 17 4 842.925 210.113 2
-20 17 -4 1250.4 512.884 1
17 3 -4 927.584 447.414 2
17 -20 4 537.776 272.1 4
3 -20 -4 1188.21 454.644 4
3 17 1 224.337 200.833 3
3 -20 -1 409.592 233.818 4
-20 3 1 986.364 446.969 1
17 3 -1 825.508 407.357 2
-20 17 -1 416.317 304.681 1
3 17 -2 1330.16 516.05 3
3 -20 2 1218.15 449.748 4
17 3 2 1715.55 546.516 2
-20 17 2 899.391 419.927 1
-20 3 -2 1172.6 535.792 1
17 -20 -2 1143.38 430.671 2
3 17 -5 14.2246 259.627 3
-20 17 5 203.659 345.504 1
-20 3 -5 257.554 377.398 1
17 -20 -5 214.974 336.469 2
3 -20 5 -89.2552 239.428 4
17 3 5 395.975 313.802 2
17 3 5 489.696 328.002 1
3 17 -8 860.121 500.224 3
17 3 8 797.178 469.48 4
17 -20 -8 1035.47 473.404 1
17 3 8 359.406 261.84 1
-20 3 -8 287.305 222.44 1
17 -20 -8 835.062 544.641 2
-20 17 8 793.708 426.535 1
3 17 -11 949.554 594.094 3
17 3 11 92.4466 202.606 1
-20 3 -11 561.325 468.5 1
-20 17 11 644.43 355.1 1
17 -20 -11 1094.39 592.935 2
17 4 -11 -9.9297 283.65 2
-21 4 11 -523.234 639.491 1
-21 4 8 -172.014 263.68 1
17 4 -8 222.133 422.133 2
4 -21 -8 399.974 563.486 4
17 -21 8 907.519 271.843 4
4 -21 -8 367.355 175.186 1
4 17 5 1417.82 567.186 3
-21 17 -5 1024.56 391.798 1
-21 4 5 1734.69 647.636 1
17 4 -5 1839.92 736.492 2
4 -21 -5 1599.72 586.125 4
17 -21 5 1085.01 341.614 4
4 17 2 4211.58 917.552 3
4 17 2 4862.19 631.381 2
-21 4 2 5300.81 1094.38 1
17 4 -2 4228.37 955.935 2
4 -21 -2 4439.32 940.408 4
-21 17 -2 4323.53 941.851 1
4 17 -1 748.473 354.046 3
17 4 1 815.879 329.876 2
4 -21 1 377.477 283.671 4
-21 4 -1 1229.84 575.413 1
-21 17 1 523.81 152.664 1
4 17 -4 277.843 284.565 3
-21 4 -4 -427.461 445.557 1
-21 17 4 353.074 366.089 1
17 4 4 97.8408 148.229 2
4 -21 4 155.662 255.294 4
17 -21 -4 203.276 298.654 2
4 17 -7 1557.48 771.67 3
17 -21 -7 663.002 416.254 1
17 -21 -7 1249.34 575.252 2
-21 4 -7 773.313 440.11 1
-21 17 7 1035.25 518.993 1
17 4 7 895.639 435.132 1
4 17 -10 -196.539 258.525 3
17 4 10 -430.434 349.047 1
-21 4 -10 302.126 269.142 1
17 -21 -10 653.93 477.397 2
-21 17 10 128.184 273.222 1
17 -21 -10 116.266 211.881 1
-22 5 9 1163.02 648.988 1
5 -22 -9 703.31 200.124 1
17 5 -9 471.876 437.614 2
17 -22 9 635.512 267.578 4
5 17 6 2120.95 698.368 3
5 -22 -6 1690.49 397.822 1
-22 5 6 2330.22 782.072 1
17 5 -6 1625.91 664.491 2
-22 17 -6 759.966 423.557 1
5 -22 -6 2068.22 756.978 4
17 -22 6 1267.94 364.58 4
5 17 3 2027.26 658.281 3
-22 17 -3 1177.87 492.711 1
5 17 3 1231.92 310.287 2
-22 5 3 2930.96 854.004 1
17 5 -3 1446.26 643.062 2
5 -22 -3 1587.04 631.696 4
17 -22 3 986.968 367.749 4
-22 17 0 302.557 282.366 1
5 17 0 347.522 187.708 3
5 17 0 356.847 222.33 2
17 5 0 76.4604 283.271 2
5 -22 0 537.196 309.914 4
-22 5 0 637.913 444.021 1
5 17 -3 260.549 218.923 3
-22 5 -3 1015.54 453.907 1
-22 17 3 639.553 373.94 1
5 -22 3 575.889 348.188 4
17 -22 -3 3.13846 149.666 2
17 5 3 395.42 152.883 2
-22 17 6 1367.04 479.913 1
5 17 -6 576.304 349.955 3
-22 5 -6 602.431 385.29 1
5 -22 6 574.225 295.88 4
17 -22 -6 855.25 453.379 2
17 5 6 770.543 351.359 2
17 5 9 550.836 293.741 1
5 17 -9 381.772 488.69 3
17 -22 -9 685.042 493.184 1
17 -22 -9 1456.61 645.261 2
-22 17 9 862.857 484.694 1
-22 5 -9 821.903 375.935 1
-23 6 10 114.013 224.587 1
17 6 -10 -164.029 410.385 2
6 -23 -10 83.3049 83.022 1
-23 6 7 137.183 212.127 1
6 -23 -7 165.99 121.913 1
17 6 -7 -485.874 506.297 2
6 -23 -7 33.9921 368.372 4
17 -23 7 334.331 244.361 4
6 17 4 -66.9139 284.452 3
6 17 4 480.008 183.441 2
-23 6 4 840.237 523.241 1
17 6 -4 721.346 534.238 2
-23 17 -4 298.355 432.715 1
6 -23 -4 575.444 271.553 1
17 -23 4 -16.4807 111.667 4
6 -23 -4 691.885 428.096 4
6 17 1 870.442 582.951 3
-23 17 -1 569.245 214.679 1
6 17 1 1277.28 405.82 2
17 6 -1 1334.12 511.866 2
6 -23 -1 1082.98 495.441 4
-23 6 1 875.269 524.192 1
6 17 -2 -246.412 430.799 3
6 17 -2 571.046 321.143 2
-23 17 2 595.616 483.244 1
17 6 2 -70.7382 286.165 2
6 -23 2 12.0028 183.601 4
6 17 -5 38.8801 434.578 3
-23 17 5 579.23 328.904 1
-23 6 -5 467.893 361.791 1
6 -23 5 -10.0539 221.15 4
17 6 5 204.762 132.145 2
17 -23 -5 442.742 469.608 2
6 17 -8 92.9001 357.67 3
17 -23 -8 114.984 207.057 1
-23 6 -8 85.1408 311.609 1
17 -23 -8 284.583 385.012 2
-23 17 8 223.953 234.932 1
17 6 8 -486.883 300.105 1
-24 7 8 1694.94 726.882 1
17 7 -8 1265.07 539.798 2
17 -24 8 1025.18 334.359 4
7 -24 -8 1572.87 415.928 1
17 7 -5 -16.9193 393.089 2
-24 7 5 408.874 223.593 1
7 -24 -5 559.066 214.565 1
7 17 5 47.1846 66.0683 2
7 -24 -5 199.744 263.338 4
17 -24 5 365.704 327.541 4
-24 17 -5 203.74 336.891 1
-24 7 2 53.3817 236.249 1
7 17 2 -305.921 220.033 3
7 17 2 445.855 276.842 2
-24 17 -2 102.817 314.764 1
17 7 -2 51.5856 243.646 2
17 -24 2 -302.314 303.809 4
7 -24 -2 442.988 391.509 4
7 17 -1 873.39 445.593 3
7 17 -1 963.214 429.413 2
17 7 1 810.309 358.272 2
-24 17 1 1425.24 644.635 1
7 -24 1 764.626 366.594 4
-24 7 -1 1751.79 708.196 1
7 17 -4 780.418 402.302 3
7 17 -4 1028.47 416.202 2
-24 17 4 1014.85 475.881 1
-24 7 -4 1341.86 648.731 1
7 -24 4 575.398 274.862 4
17 7 4 541.142 334.222 2
7 17 -7 478.07 469.839 3
-24 7 -7 365.529 289.098 1
7 17 -7 191.235 377.562 2
7 -24 7 12.1212 215.522 4
17 -24 -7 570.152 366.715 2
-24 17 7 608.024 341.088 1
-25 17 -6 98.831 351.495 1
17 8 -6 310.524 417.146 2
-25 8 6 1527.79 654.991 1
8 -25 -6 468.281 349.148 4
8 -25 -6 1337.48 461.722 1
17 -25 6 967.864 378.459 4
8 -25 -3 -53.9276 173.957 1
8 17 3 316.995 189.575 2
17 8 -3 72.1278 357.054 2
-25 17 -3 -39.9263 314.986 1
17 -25 3 48.809 163.184 4
8 -25 -3 428.76 336.029 4
-25 8 3 523.931 308.468 1
8 17 0 603.034 360.731 2
17 8 0 -141.213 413.463 2
8 -25 0 357.916 329.322 4
-25 17 0 619.31 461.397 1
-25 8 0 425.409 337.081 1
8 17 -3 419.321 456.116 3
8 17 -3 -353.595 404.315 2
-25 8 -3 -29.5849 370.41 1
-25 17 3 543.771 435.582 1
8 -25 3 -172.83 217.975 4
17 8 3 -125.545 143.354 2
8 17 -6 949.488 611.703 3
8 17 -6 439.011 381.403 2
8 -25 6 311.676 309.229 4
17 8 6 769.744 416.71 2
17 -25 -6 303.771 298.627 2
-25 8 -6 632.402 479.522 1
-25 17 6 348.146 230.554 1
9 -26 -7 382.016 245.761 1
17 9 -7 587.679 540.794 2
-26 9 7 527.187 476.681 1
17 -26 7 510.189 308.809 4
-26 17 -7 -163.757 365.797 1
9 17 4 -35.6282 195.016 1
17 9 -4 320.22 267.236 2
9 17 4 -56.0309 178.901 2
-26 9 4 338.561 414.316 1
9 -26 -4 206.877 317.241 4
17 -26 4 44.3136 173.166 4
9 -26 -4 -46.2054 123.892 1
-26 17 -4 571.153 370.593 1
9 17 1 775.328 347.941 2
17 9 -1 -458.282 342.249 2
9 -26 -1 -68.7472 242.895 4
17 -26 1 -2.79507 229.459 4
-26 9 1 115.219 378.878 1
-26 17 -1 569.954 450.654 1
-26 9 -2 397.485 286.359 1
9 17 -2 739.761 463.165 2
-26 17 2 -163.308 247.979 1
17 9 2 -105.587 278.048 2
9 -26 2 285.813 263.331 4
-26 17 5 68.9017 247.474 1
9 17 -5 541.623 453.137 2
-26 9 -5 -494.23 285.699 1
17 9 5 834.284 406.819 2
9 -26 5 45.1947 253.855 4
17 -27 5 468.647 269.096 4
10 17 5 870.067 408.565 1
-27 17 -5 -366.627 498.301 1
17 10 -5 91.7948 337.017 2
-27 10 5 382.957 376.959 1
10 -27 -5 685.742 466.928 4
10 17 5 290.554 210.828 2
10 -27 -5 -23.4623 188.242 1
-27 17 -2 549.561 330.803 1
10 17 2 454.079 194.336 2
17 10 -2 545.742 424.007 2
17 -27 2 -250.452 361.694 4
10 -27 -2 444.012 335.065 4
-27 10 2 310.106 320.356 1
-27 10 -1 616.455 497.281 1
10 17 -1 -96.828 279.549 2
17 10 1 259.435 210.206 2
-27 17 1 -47.7401 189.218 1
10 -27 1 142.681 155.514 4
-27 17 4 624.525 397.454 1
10 17 -4 419.668 222.034 2
17 10 4 575.84 390.48 2
-27 10 -4 442.716 316.159 1
10 -27 4 703.173 384.674 4
-28 17 -3 1018.31 580.972 1
-28 11 3 888.117 492.509 1
17 11 -3 909.576 625.275 2
11 17 3 1186.07 473.859 2
11 -28 -3 952.956 579.696 4
17 -28 3 745.33 337.855 4
-28 11 0 995.967 523.087 1
11 17 0 1702.25 596.207 2
17 11 0 638.64 386.846 2
17 -28 0 391.567 389.029 4
-28 17 0 1179.54 559.171 1
11 -28 0 754.088 382.594 4
-28 17 3 -110.954 234.708 1
11 17 -3 473.431 515.631 2
17 11 3 251.121 166.028 2
11 -28 3 6.67286 176.802 4
-9 -9 0 2881.72 638.349 1
18 -9 0 2669.71 684.279 2
-9 -9 0 1403.83 405.295 4
-9 18 0 1856.81 526.986 2
-9 -9 -3 4510.74 559.111 2
18 -9 -3 6296.86 1169.64 2
-9 -9 3 3600.12 764.686 1
-9 18 3 4376.88 703.3 2
-9 -9 -3 2566.63 562.888 4
18 -9 3 4797.93 894.338 2
-9 -9 -3 4442.89 692.905 1
-9 -9 -6 304.78 166.212 2
-9 -9 6 427.962 299.121 1
-9 18 6 120.923 147.928 2
18 -9 -6 839.084 507.975 2
-9 -9 -6 -22.3461 161.359 1
-9 18 -6 487.704 299.175 4
-9 -9 -6 285.025 312.436 4
18 -9 6 443.333 158.741 4
-9 18 6 488.563 266.84 3
-9 -9 -9 316.322 135.359 1
-9 -9 9 426.756 331.101 1
-9 18 9 358.745 370.485 2
-9 18 9 533.138 256.008 1
18 -9 -9 762.882 649.744 2
-9 -9 -9 1004.69 274.663 2
-9 -9 -9 703.18 318.04 4
-9 18 9 514.655 246.313 3
-9 18 -9 192.193 256.254 4
-9 18 12 339.243 216.373 2
-9 18 12 -67.1486 102.835 1
-9 -9 12 453.414 396.917 1
18 -9 -12 96.3524 250.364 2
-9 -9 -12 66.5806 304.203 4
-9 18 -12 311.267 229.665 4
-9 -9 -12 445.322 189.845 2
-9 18 12 197.408 119.359 3
-8 18 13 682.154 339.264 2
-8 18 13 383.771 218.293 1
-10 -8 13 734.381 451.531 1
18 -8 -13 657.464 625.154 2
-8 -10 -13 522.567 552.732 4
-10 18 -13 804.911 340.313 4
-8 18 13 423.581 202.613 3
-8 18 10 525.977 308.112 2
-10 -8 10 511.561 442.936 1
18 -8 -10 -50.3665 444.207 2
-8 -10 -10 645.456 204.601 2
-10 18 -10 369.663 403.884 4
-8 -10 -10 627.798 282.161 4
-8 18 10 216.901 160.671 1
-8 18 10 108.552 171.008 3
-8 -10 -7 925.116 194.968 2
-10 -8 7 1524.26 532.546 1
-8 18 7 984.446 383.521 2
18 -8 -7 1379.12 710.54 2
-10 18 -7 1061.96 387.392 4
-8 -10 -7 1022.48 435.711 4
18 -10 7 685.802 168.373 4
-8 -10 -7 1444.86 354.937 1
-8 18 7 1124.64 458.746 3
-10 -8 4 181.338 165.616 1
-8 18 4 430.318 197.362 2
-8 -10 -4 423.015 201.636 4
-8 18 4 592.083 305.831 3
-8 -10 -4 892.247 305.256 1
-10 -8 1 1214.05 394.589 2
-8 -10 -1 1098.17 347.97 1
-10 -8 1 1027.09 438.18 1
18 -8 -1 1432.63 605.742 2
-8 -10 -1 714.917 262.74 4
18 -10 1 1725.52 618.188 2
-8 18 1 910.554 342.717 2
-10 -8 -2 1879.8 387.719 2
-8 -10 2 1558.28 496.558 1
18 -10 -2 2648.23 753.577 2
-10 18 2 1834.48 460.162 2
-10 -8 -2 1302.34 400.285 4
18 -8 2 1520.42 528.045 2
-10 -8 -2 1776.62 479.312 1
-10 -8 -5 526.05 213.261 2
-8 -10 5 101.509 167.329 1
-10 -8 -5 512.383 265.412 1
-10 18 5 652.873 312.912 2
-8 18 -5 312.05 197.128 4
-10 -8 -5 163.345 199.477 4
-8 -10 8 1607.65 558.009 1
-10 -8 -8 1172.38 317.548 1
-10 18 8 1393.58 362.018 1
-10 18 8 1439.97 430.863 2
18 -10 -8 1370.45 600.522 2
-10 -8 -8 1493.6 348.568 2
18 -8 8 1173.15 240.119 4
-8 18 -8 1155.25 436.393 4
-10 -8 -8 1132.52 500.86 4
-10 18 11 575.122 298.985 2
-8 -10 11 602.911 387.797 1
-10 18 11 521.805 243.433 1
18 -10 -11 164.619 244.976 2
-10 -8 -11 875.313 532.562 4
-8 18 -11 490.908 221.949 4
-10 -8 -11 762.939 283.472 2
-10 18 11 183.479 202.325 3
-8 -10 14 119.862 157.743 1
18 -10 -14 906.748 730.532 2
-10 -8 -14 1097.6 722.468 4
-8 18 -14 61.1758 392.701 4
-8 18 -14 315.038 315.005 3
-10 18 14 100.747 156.475 1
-10 18 14 532.15 314.568 3
-11 -7 14 368.408 358.09 1
18 -7 -14 521.192 480.068 2
-7 18 14 126.873 110.834 1
-7 -11 -14 47.8096 317.652 4
-11 18 -14 380.478 349.155 4
-7 18 14 604.983 256.386 3
-7 18 11 850.92 211.509 1
-7 18 11 1909.38 506.558 2
-11 -7 11 1255.09 523.304 1
18 -7 -11 1349.99 770.914 2
-7 -11 -11 1607.15 662.245 4
-7 -11 -11 1175.72 256.38 2
-11 18 -11 2284.39 633.165 4
-7 18 11 1439.01 452.017 3
-7 -11 -8 1493.14 326.107 1
-7 18 8 2087.82 519.703 2
-11 -7 8 1711.92 528.26 1
18 -7 -8 2192.62 815.903 2
-11 18 -8 1389.06 470.171 4
-7 -11 -8 1427.65 585.714 4
-7 18 8 1726.14 477.179 3
-7 18 5 4280.32 714.57 2
-7 -11 -5 4047.91 819.633 4
-11 -7 5 4134.68 820.079 1
18 -7 -5 4520.56 1028.99 2
-7 18 5 3886.54 795.477 3
-7 -11 -5 3996.97 593.065 1
-11 -7 2 7102.45 964.379 2
18 -7 -2 8105.19 1249.68 2
-7 18 2 8568.26 956.669 2
18 -11 2 8211.9 1129.09 2
-7 -11 -2 5777.16 868.25 4
-7 18 2 7303.48 1028.46 3
-7 -11 -2 7515.29 915.64 1
-11 -7 2 8790.71 1203.03 1
-11 -7 -1 1307.32 397.14 2
-7 -11 1 669.029 347.289 1
18 -11 -1 1248.69 488.338 2
18 -7 1 1512.79 515.132 2
-11 18 1 889.751 266.263 2
-7 -11 1 170.078 151.488 4
-7 18 -1 1301.22 469.166 3
-11 -7 -1 1390.35 465.375 1
-11 -7 -4 1734.08 471.433 1
-7 -11 4 1165.26 394.72 1
-11 -7 -4 1811.81 416.351 2
-7 18 -4 1187.55 525.801 4
-11 18 4 1308.93 471.909 2
18 -11 -4 1282.52 465.172 2
-11 -7 -4 839.385 306.469 4
18 -7 4 1415.07 469.509 2
-11 -7 -7 1169.79 371.253 1
-7 -11 7 869.268 400.143 1
-11 18 7 600.878 252.46 1
-11 18 7 787.622 393.692 2
-11 -7 -7 665.153 243.738 2
18 -11 -7 1009.74 521.798 2
-7 18 -7 1973.4 733.423 4
18 -7 7 863.096 241.755 4
-11 -7 -7 472.532 191.902 4
-11 -7 -10 648.784 228.354 1
-7 -11 10 235.825 364.479 1
-11 18 10 244.934 214.006 2
-11 18 10 331.138 169.62 1
18 -11 -10 312.785 333.952 2
-11 -7 -10 646.803 411.514 4
-7 18 -10 765.128 521.492 4
-7 18 -10 466.597 331.703 3
-11 -7 -10 554.704 254.708 2
-7 -11 13 199.381 215.942 1
18 -11 -13 1542.7 721.425 2
-7 18 -13 1437.11 687.54 4
-11 -7 -13 666.459 447.099 4
-11 18 13 692.412 316.339 1
-7 18 -13 1180.31 535.212 3
-11 -7 -13 681.205 244.363 2
-11 18 13 1223.3 463.819 3
-6 18 12 -275.753 165.348 2
-6 -12 -12 39.7031 79.0394 2
18 -6 -12 -260.077 543.389 2
-12 -6 12 -18.8728 323.423 1
-6 -12 -12 704.381 401.952 4
-12 18 -12 -188.055 322.573 4
-6 -12 -12 -281.886 152.186 2
-6 18 12 368.352 200.516 3
-6 18 9 1804.52 488.948 2
18 -6 -9 1881.33 828.14 2
-12 -6 9 1489.62 556.409 1
-6 -12 -9 1268.91 249.504 1
-12 18 -9 2010.07 551.411 4
-6 -12 -9 1548.52 593.191 4
-6 18 9 1507.42 454.189 3
-6 -12 -6 23.1871 116.162 1
18 -6 -6 182.368 292.712 2
-6 18 6 28.3288 133.376 2
-12 -6 6 329.402 404.302 1
-6 -12 -6 547.724 459.516 4
-6 18 6 250.543 283.295 3
-12 -6 3 3338 655.35 2
18 -6 -3 5460.38 1042.37 2
-12 -6 3 2680.26 659.61 1
-6 -12 -3 3398.07 723.199 4
-6 18 3 3259.46 550.909 2
-6 18 3 3595.88 751.745 3
-6 -12 -3 4066.6 645.074 1
-12 -6 0 1440.09 449.841 2
-6 -12 0 1462.49 394.914 1
18 -6 0 1503.98 577.296 2
-6 -12 0 930.066 368.049 4
18 -12 0 1927.98 596.532 2
-12 18 0 1373.63 427.761 2
-12 -6 0 2077.3 605.154 1
-6 18 0 1182.73 488.587 3
-12 -6 -3 3839.16 695.894 1
-6 -12 3 2873.3 639.97 1
-12 -6 -3 3642.98 609.117 2
-6 18 -3 3484.04 757.204 4
-12 18 3 3589.29 758.693 2
18 -12 -3 3250.67 820 2
-12 18 3 3299.14 602.211 1
-12 -6 -3 1907.43 470.328 4
18 -6 3 2858.32 701.522 2
-6 18 -3 3722.5 828.333 3
-6 -12 6 718.66 380.279 1
-12 18 6 110.183 161.547 1
-12 -6 -6 453.164 250.389 2
-12 18 6 564.513 387.412 2
18 -12 -6 1238.24 668.144 2
18 -6 6 627.463 285.302 4
-12 -6 -6 675.675 300.002 4
-12 -6 -6 672.892 328.03 1
-6 18 -6 1055.97 529.195 3
-6 18 -6 207.852 231.171 4
-12 -6 -9 1702.86 522.37 1
-6 -12 9 2036.09 658.514 1
-12 18 9 1732.28 546.91 2
-12 18 9 1509.6 470.059 1
18 -12 -9 1146.68 578.886 2
-12 -6 -9 1787.38 493.739 2
-12 -6 -9 1226.99 483.335 4
-6 18 -9 2359 848.168 4
-6 18 -9 1904.58 653.671 3
-6 -12 12 -248.858 302.286 1
18 -12 -12 -101.099 355.133 2
-12 -6 -12 156.59 406.546 4
-6 18 -12 169.464 240.794 4
-12 -6 -12 517.18 303.084 2
-6 18 -12 -54.4616 299.193 3
-12 18 12 337.038 264.233 1
-5 18 13 644.143 310.263 3
-5 -13 -13 510.089 196.688 2
18 -5 -13 925.292 408.069 2
-13 -5 13 674.535 432.288 1
-5 -13 -13 459.906 315.032 4
-13 18 -13 588.78 321.186 4
-5 18 10 1119.62 342.774 2
18 -5 -10 1629.18 839.035 2
-13 -5 10 1300.29 578.492 1
-13 18 -10 1130.11 387.573 4
-5 -13 -10 1145.51 618.215 4
-5 18 10 1026.18 460.739 3
-5 18 7 2264.77 459.1 2
-5 -13 -7 2111.98 359.674 1
18 -5 -7 1517.81 631.922 2
-13 -5 7 2334.05 733.624 1
-5 -13 -7 1526.86 667.565 4
-5 18 7 2269.34 592.485 3
-13 -5 4 4186.22 816.525 2
-5 18 4 5342.55 704.742 2
18 -5 -4 6105.91 1195.81 2
-13 -5 4 4472.04 898.283 1
-5 -13 -4 3652.83 795.355 4
-5 18 4 4528.2 834.781 3
-5 -13 -4 4193.2 623.147 1
-13 -5 1 2809.18 653.329 2
-5 -13 -1 2662.48 569.658 1
18 -5 -1 2583.88 736.364 2
-5 -13 -1 3030.8 680.061 4
-13 18 -1 2640.25 644.991 2
18 -13 1 3651.51 778.291 2
-13 -5 1 3544.47 776.64 1
-5 18 1 2515.26 724.569 3
-13 18 2 1172.79 396.272 1
-13 -5 -2 2084.91 502.206 1
-5 -13 2 1604.86 391.763 1
-13 -5 -2 2093.8 518.741 2
-5 18 -2 1304.88 471.452 4
18 -13 -2 1882.23 624.142 2
18 -5 2 1797.85 596.047 2
-13 18 2 1076.02 459.155 2
-5 -13 2 862.205 332.006 4
-5 18 -2 1252.12 471.866 3
-5 -13 5 3666.26 734.923 1
-13 -5 -5 3115.89 586.167 2
-13 18 5 3143.53 622.569 1
-13 18 5 3012.15 743.985 2
18 -13 -5 5436.33 1106.59 2
-5 18 -5 3469.69 848.983 4
-13 -5 -5 2890.89 611.343 1
18 -5 5 3550.26 671.7 4
-13 -5 -5 2039.29 483.225 4
-5 18 -5 3231.28 764.556 3
18 -5 5 3187.36 777.799 2
-5 -13 8 1231.68 426.018 1
-13 18 8 1740.89 609.477 2
-13 18 8 1596.12 484.302 1
18 -13 -8 1428.06 593.53 2
-13 -5 -8 1642.45 448.549 1
-13 -5 -8 1416.64 393.444 2
18 -5 8 951.571 271.859 4
-5 18 -8 1590.5 542.941 4
-13 -5 -8 1307.3 436.241 4
-5 18 -8 1647.02 552.534 3
-13 -5 -11 955.161 408.486 4
-5 -13 11 518.049 255.89 1
-13 -5 -11 595.89 364.093 1
18 -13 -11 648.124 486.724 2
-13 -5 -11 55.6842 118.971 2
-5 18 -11 73.7016 208.146 3
-13 18 11 911.913 409.325 1
-5 -13 14 286.366 249.769 1
18 -13 -14 -369.194 498.381 2
-13 18 14 299.972 193.901 1
-13 -5 -14 -161.774 299.534 4
-13 18 14 523.933 362.785 3
-5 18 -14 994.965 496.281 3
-4 18 14 136.671 220.018 3
-4 -14 -14 -89.3789 151.774 2
18 -4 -14 284.395 558.607 2
-14 -4 14 -88.4089 202.605 1
-14 18 -14 -167.193 319.746 4
-4 18 11 322.438 211.964 3
18 -4 -11 734.572 516.483 2
-14 -4 11 -432.096 391.243 1
-4 -14 -11 201.553 360.311 4
-4 -14 -8 157.515 98.5877 1
-4 18 8 435.423 222.906 2
-14 -4 8 400.459 408.616 1
18 -4 -8 197.795 271.076 2
-4 -14 -8 705.042 502.837 4
-4 18 8 271.375 149.769 3
18 -4 -5 499.399 369.129 2
-4 18 5 890.454 261.393 2
-4 -14 -5 897.621 278.372 1
-4 -14 -5 500.694 236.871 4
-14 -4 5 267.444 312.784 1
-4 18 5 484.706 314.892 3
-14 -4 2 626.501 332.679 2
-4 -14 -2 698.947 271.1 1
18 -4 -2 1212.93 503.969 2
-4 -14 -2 762.034 258.475 4
-14 -4 2 1346.65 473.725 1
18 -14 2 873.908 346.169 2
-4 18 2 141.558 263.395 3
-4 -14 1 1938.41 515.502 4
-14 18 1 2177.45 547.101 1
-14 -4 -1 2612.26 660.044 1
-4 -14 1 2009.01 499.757 1
-14 -4 -1 2459.49 618.724 2
18 -4 1 3143.12 788.748 2
-14 18 1 2482.03 648.621 2
18 -14 -1 2451.63 718.386 2
-4 18 -1 2431.92 719.937 3
-4 -14 4 1589.86 467.286 1
-14 -4 -4 2182.72 554.182 2
-14 18 4 1889.79 526.666 1
-14 -4 -4 2278.76 578.129 1
-14 18 4 1959.14 594.709 2
-4 18 -4 2237.43 682.999 4
18 -14 -4 3169.29 813.704 2
18 -4 4 4135.2 886.705 4
18 -4 4 2504.79 672.38 2
-4 18 -4 2739.37 747.795 3
-4 18 -7 633.258 293.89 4
-4 -14 7 557.546 235.757 1
-14 -4 -7 420.722 185.907 1
-14 18 7 805.744 390.518 2
-14 -4 -7 774.379 339.982 2
18 -14 -7 546.096 437.709 2
-14 18 7 506.019 273.082 1
18 -4 7 974.963 420.523 4
-14 -4 -7 585.463 269.636 4
-4 18 -7 119.494 168.922 3
-14 18 10 1646.41 477.027 1
-4 -14 10 976.737 483.375 1
18 -14 -10 1655.23 641.286 2
-14 -4 -10 958.51 418.745 4
-14 -4 -10 2056.78 562.631 2
-14 -4 -10 1549.56 510.486 1
-4 18 -10 2043.67 694.9 3
-4 -14 13 117.023 209.124 1
18 -14 -13 340.319 324.104 2
-14 18 13 549.149 295.596 1
-14 -4 -13 137.613 342.493 4
-14 -4 -13 123.354 240.841 2
-4 18 -13 300.813 291.747 3
-3 18 12 134.783 146.177 3
18 -3 -12 235.638 336.258 2
-15 -3 12 447.288 409.709 1
-3 -15 -12 350.676 485.817 4
-3 18 9 723.508 415.777 3
-3 18 9 628.44 228.537 2
18 -3 -9 743.057 562.18 2
-15 -3 9 907.802 481.651 1
-3 -15 -9 1336.62 648.894 4
18 -3 -6 399.967 472.299 2
-3 18 6 1315.86 291.799 2
-3 -15 -6 1086.41 256.918 1
-15 -3 6 1066 442.161 1
-3 -15 -6 396.539 324.642 4
-3 18 6 1309.51 477.568 3
-15 -3 3 3044.43 750.204 2
-3 -15 -3 2196.53 453.884 1
18 -3 -3 1933.83 693.572 2
-3 -15 -3 2364.19 655.084 4
-3 18 3 2030.94 420.941 2
-15 -3 3 1814.03 606.483 1
-3 18 3 2450.34 628.243 3
-15 -3 0 1533.18 559.114 1
-3 -15 0 1175.33 332.899 1
-15 -3 0 1779.74 512.042 2
-15 18 0 1393.33 446.769 1
18 -3 0 2108 622.629 2
-3 -15 0 1714.81 525.639 4
18 -15 0 2053.22 633.167 2
-3 18 0 2162.86 626.685 3
-3 -15 3 2890.86 612.649 1
-15 -3 -3 3867.51 734.907 2
-15 -3 -3 3568.88 743.893 1
-15 18 3 2529.34 675.477 2
18 -15 -3 3371.02 833.274 2
-15 18 3 2685.86 629.904 1
18 -3 3 3110.09 722.476 2
18 -3 3 4284.92 887.052 4
-3 -15 3 2125.23 533.174 4
-3 18 -3 3159.22 775.009 3
-15 -3 -6 163.167 153.971 1
-3 -15 6 -26.192 161.369 1
-15 -3 -6 582.557 287.839 2
18 -15 -6 808.152 481.957 2
-15 18 6 211.56 180.719 1
18 -3 6 520.887 308.148 4
-15 -3 -6 121.868 175.379 4
-3 18 -6 542.556 444.658 3
-3 -15 9 692.991 328.528 1
-15 18 9 1262.23 415.869 1
-15 -3 -9 1081.84 408.014 1
18 -15 -9 1547.84 688.296 2
-15 -3 -9 1334.01 454.893 2
-15 -3 -9 864.398 330.206 4
-3 18 -9 1722.24 616.553 3
-3 -15 12 102.465 139.407 1
18 -15 -12 1032.97 577.487 2
-15 -3 -12 389.327 294.481 4
-15 18 12 642.637 401.55 1
-15 -3 -12 505.204 283.898 2
-3 18 -12 351.951 203.652 3
-2 18 13 326.816 266.89 3
18 -2 -13 411.458 575.641 2
-2 -16 -13 72.7702 87.7025 2
-16 -2 13 470.859 386.368 1
-2 18 10 1116.99 439.289 3
18 -2 -10 274.503 245.869 2
-2 -16 -10 418.911 344.54 4
-16 -2 10 109.174 286.846 1
-2 18 7 1423.94 463.449 3
-2 18 7 2048.3 312.088 2
18 -2 -7 2187.08 786.931 2
-2 -16 -7 2444.19 749.634 4
18 -16 7 1283.85 231.6 4
-16 -2 7 1383.83 520.346 1
-2 -16 -7 1633.74 261.962 1
18 -2 -4 1048.36 510.313 2
-2 18 4 552.721 193.334 2
-16 -2 4 971.261 516.396 1
-2 18 4 72.5022 205.98 3
-2 -16 -4 1235.55 520.834 4
-16 -2 1 1666.4 658.11 1
-2 -16 -1 1290.72 375.678 1
-16 18 -1 1366.01 493.638 1
-16 -2 1 1835.87 535.962 2
18 -2 -1 1904.88 611.133 2
-2 -16 -1 995.466 439.383 4
18 -16 1 1256.09 463.237 2
-2 18 1 1515.75 513.188 3
-2 -16 2 2845.85 578.693 1
-16 -2 -2 3165.23 721.1 2
-16 -2 -2 2482.18 652.753 1
18 -2 2 3239.36 749.611 2
-2 -16 2 1570.9 420.316 4
18 -16 -2 4178.93 898.987 2
-16 18 2 1742.17 530.118 1
-2 18 -2 2733.79 736.825 3
-2 -16 5 93.4151 173.232 1
-16 -2 -5 313.248 282.895 2
18 -16 -5 829.095 473.672 2
18 -2 5 742.163 450.35 4
-16 18 5 719.587 352.4 1
18 -2 5 122.697 208.562 2
-16 -2 -5 942.932 471.41 1
-2 18 -5 516.501 365.057 3
-2 -16 8 52.5046 247.665 1
-16 18 8 -34.6037 122.57 1
18 -2 8 156.113 221.74 4
18 -16 -8 383.207 393.004 2
-16 -2 -8 -120.612 222.565 2
-16 -2 -8 108.866 286.884 1
-16 -2 -8 16.0639 115.239 4
-2 18 -8 284.068 353.048 3
-16 -2 -11 399.027 260.664 1
-2 -16 11 311.383 263.009 1
18 -16 -11 251.479 196.976 2
-16 -2 -11 376.647 222.876 4
-16 -2 -11 861.771 352.637 2
-16 18 11 576.694 262.996 1
-2 18 -11 634.155 243.037 3
-1 18 11 937.695 454.742 3
18 -1 -11 475.166 550.748 2
-1 -17 -11 227.84 547.324 4
-17 -1 11 16.4219 335.529 1
-1 18 8 1899.72 558.743 3
18 -1 -8 1892.43 837.661 2
-1 -17 -8 2180.48 768.705 4
18 -17 8 1041.08 203.758 4
-17 -1 8 1853.8 660.075 1
-1 18 5 625.908 375.897 3
-1 -17 -5 921.541 264.088 1
18 -1 -5 829.781 534.519 2
-1 18 5 577.626 198.301 2
-1 -17 -5 1227.11 544.357 4
-17 -1 5 386.85 358.81 1
-17 -1 2 1092.83 448.876 1
-1 -17 -2 455.833 218.112 1
18 -1 -2 544.86 273.13 2
-1 -17 -2 479.71 267.935 4
-17 18 -2 940.671 430.374 1
-1 18 2 267.935 339.347 3
-17 18 1 1142.63 419.861 1
-1 -17 1 970.411 377.022 1
-17 -1 -1 1923.53 616.842 1
-17 -1 -1 2377.18 636.289 2
18 -1 1 3312.09 841.134 2
-1 -17 1 1785.25 556.922 4
18 -17 -1 2501.63 733.926 2
-1 18 -1 952.786 404.684 3
-1 -17 4 530.633 334.246 1
-17 -1 -4 681.582 396.503 2
18 -17 -4 -103.142 345.773 2
18 -1 4 207.751 373.653 4
18 -1 4 245.038 244.759 2
-1 -17 4 614.299 321.172 4
-17 -1 -4 263.086 152.387 1
-17 18 4 127.406 240.794 1
-1 18 -4 75.3418 247.964 3
-1 -17 7 180.144 259.5 1
-17 18 7 608.591 343.004 1
-17 -1 -7 43.9448 132.896 1
-17 -1 -7 158.983 156.672 2
18 -17 -7 427.317 326.689 2
18 -1 7 332.552 253.442 4
-1 18 -7 20.8616 251.293 3
-1 -17 10 226.798 219.401 1
18 -17 -10 723.016 419.672 2
-17 -1 -10 303.732 234.828 2
-17 -1 -10 423.229 257.988 4
-17 18 10 677.729 379.159 1
-17 -1 -10 580.404 306.951 1
-1 18 -10 664.118 329.724 3
-1 -17 13 356.333 202.214 1
18 -17 -13 1873.36 746.858 2
-17 18 13 604.901 310.51 1
-17 -1 -13 924.04 418.764 4
-1 18 -13 952.823 556.354 3
0 18 12 140.746 229.476 3
18 0 -12 212.633 472.969 2
-18 0 12 -79.0263 194.57 1
0 18 9 2011.05 587.741 3
18 0 -9 1795.8 841.015 2
0 -18 -9 1720.44 724.169 4
-18 0 9 1379.73 592.287 1
0 18 6 1232.93 521.171 3
0 -18 -6 980.858 227.585 1
18 0 -6 1626.96 779.936 2
18 -18 6 631.45 226.138 4
0 -18 -6 1700.87 617.091 4
-18 0 6 1036.53 558.683 1
0 18 3 1302.45 417.929 3
0 -18 -3 1499 380.028 1
-18 0 3 2509.42 740.299 1
18 0 -3 2180.19 697.437 2
0 -18 -3 2130.47 696.218 4
0 -18 0 888.259 316.566 1
-18 18 0 839.265 400.35 1
-18 0 0 1143.57 513.692 1
-18 0 0 1495.44 543.354 2
18 0 0 1307.13 513.964 2
0 -18 0 851.174 353.052 4
18 -18 0 1351.26 601.467 2
0 18 0 1485.43 538.844 3
0 -18 3 943.2 374.141 1
-18 18 3 927.987 383.906 1
-18 0 -3 1293.41 463.616 2
-18 0 -3 1142.96 518.284 1
18 0 3 1598.33 515.259 2
18 0 3 1302.54 559.907 4
0 -18 3 984.754 430.639 4
18 -18 -3 1181.71 555.148 2
0 18 -3 1607.9 684.633 3
0 -18 6 736.54 360.594 1
-18 0 -6 754.678 354.618 1
-18 18 6 388.345 308.542 1
-18 0 -6 697.356 433.987 2
18 0 6 933.076 504.763 4
18 -18 -6 497.169 366.858 2
18 0 6 431.388 316.314 2
0 18 -6 1011.21 656.177 3
0 -18 9 345.754 274.363 1
-18 0 -9 457.653 292.21 1
18 0 9 596.557 268.233 4
18 -18 -9 276.047 242.917 2
-18 0 -9 766.052 422.658 2
-18 0 -9 491.017 217.607 4
-18 18 9 547.562 255.91 1
0 18 -9 662.331 448.76 3
0 -18 12 520.948 375.447 1
18 -18 -12 157.364 254.369 2
-18 18 12 436.363 267.333 1
-18 0 -12 466.835 263.393 4
0 18 -12 748.473 555.588 3
1 18 10 362.623 397.708 3
18 1 -10 1159.33 575.104 2
1 -19 -10 376.536 472.934 4
-19 1 10 614.459 439.932 1
1 18 7 680.954 286.24 3
1 -19 -7 462.764 151.484 1
1 -19 -7 634.583 193.978 1
18 1 -7 407.893 623.559 2
1 -19 -7 878.419 484.599 4
18 -19 7 552.261 176.363 4
-19 1 7 247.509 272.055 1
1 18 4 719.177 335.684 3
1 -19 -4 577.587 243.364 1
-19 1 4 616.938 438.906 1
18 1 -4 1012.47 527.551 2
1 -19 -4 1349.73 536.083 4
1 18 1 556.075 382.815 3
-19 1 1 756.91 475.081 1
-19 18 -1 963.209 414.588 1
18 1 -1 858.553 477.682 2
1 -19 -1 602.03 335.46 4
1 18 -2 449.437 332.804 3
-19 18 2 248.496 297.014 1
-19 1 -2 323.066 194.343 2
-19 1 -2 590.35 298.702 1
18 1 2 14.93 139.979 2
1 -19 2 700.107 284.081 4
18 -19 -2 556.351 334.61 2
-19 1 -5 255.102 194.007 1
-19 18 5 486.924 336.415 1
-19 1 -5 334.634 256.655 2
18 1 5 781.969 454.16 4
18 -19 -5 926.136 435.871 2
1 -19 5 -140.227 223.12 4
18 1 5 468.585 268.73 2
1 18 -5 914.809 449.341 3
-19 18 8 1033.07 506.118 1
18 1 8 707.443 280.038 4
-19 1 -8 450.054 275.97 2
18 -19 -8 1166.62 560.699 2
-19 1 -8 623 339.406 1
1 18 -8 1124.33 636.334 3
18 -19 -11 323.145 379.129 2
-19 18 11 311.542 269.937 1
-19 1 -11 407.21 192.53 4
-19 1 -11 483.625 441.183 1
1 18 -11 1125.12 525.789 3
18 2 -11 84.8377 412.315 2
-20 2 11 -167.487 485.916 1
2 18 8 -289.812 306.531 3
2 -20 -8 190.449 88.4021 1
2 -20 -8 382.917 118.503 1
18 2 -8 410.003 280.053 2
2 -20 -8 431.55 498.324 4
18 -20 8 145.291 84.5658 4
-20 2 8 90.2975 432.411 1
2 -20 -5 637.02 238.86 1
2 18 5 1519.52 581.023 3
-20 2 5 698.931 481.312 1
18 2 -5 977.182 558.773 2
18 -20 5 635.908 297.311 4
2 -20 -5 489.904 246.071 4
2 18 2 2743.04 746.904 3
-20 2 2 3367.93 877.267 1
18 2 -2 3142.7 816.632 2
2 -20 -2 2528.29 717.493 4
-20 18 -2 2242.13 626.726 1
2 18 -1 698.312 438.376 3
-20 18 1 403.27 308.355 1
-20 2 -1 210.345 176.292 1
18 2 1 487.856 286.836 2
2 -20 1 175.063 193.307 4
2 18 -4 471.874 460.691 3
-20 2 -4 644.295 380.421 1
-20 18 4 -123.908 250.821 1
18 2 4 438.737 144.483 2
2 -20 4 55.0738 111.368 4
18 -20 -4 264.97 385.961 2
2 18 -7 1566.95 651.038 3
-20 18 7 1043.28 483.032 1
18 2 7 469.425 447.239 4
-20 2 -7 865.744 508.845 1
18 -20 -7 695.021 499.346 2
2 18 -10 726.181 487.245 3
-20 2 -10 511.702 398.246 1
18 -20 -10 754.26 407.849 2
-20 18 10 389.998 276.084 1
3 18 9 303.407 296.962 3
18 3 -9 583.395 650.26 2
3 -21 -9 0.91376 270.412 4
-21 3 9 -166.299 226.921 1
3 18 6 770.373 403.707 3
-21 3 6 973.971 508.291 1
18 3 -6 850.558 738.733 2
3 -21 -6 1609.8 362.949 1
3 -21 -6 1237.74 635.306 4
18 -21 6 808.789 270.805 4
3 18 3 533.384 372.626 3
-21 18 -3 -37.5255 235.409 1
3 18 3 518.992 178.797 2
-21 3 3 786.145 394.762 1
18 3 -3 535.167 449.637 2
3 -21 -3 942.077 419.195 4
3 18 0 1941.54 634.485 3
-21 18 0 1553.74 492.298 1
-21 3 0 1374.9 607.863 1
18 3 0 1765.93 581.551 2
3 -21 0 1054.32 432.333 4
3 18 -3 1025.22 613.614 3
-21 18 3 980.378 431.91 1
18 3 3 1417.89 501.379 2
3 -21 3 1121.17 457.143 4
18 -21 -3 461.948 345.985 2
-21 3 -3 992.054 307.462 1
3 18 -6 1338.27 547.435 3
-21 18 6 1781.79 597.792 1
-21 3 -6 1499.83 570.752 1
18 -21 -6 1819.41 619.055 2
3 -21 6 886.093 451.408 4
18 3 6 1461.85 519.602 2
3 18 -9 1567.6 738.355 3
-21 3 -9 1148.91 491.094 1
18 -21 -9 1023.01 501.792 2
-21 18 9 978.862 467.631 1
18 4 -10 766.733 679.233 2
-22 4 10 -176.347 405.505 1
4 18 7 76.4646 291.929 3
-22 4 7 -242.095 370.468 1
18 4 -7 139.496 302.553 2
4 -22 -7 476.196 375.922 4
18 -22 7 285.305 176.277 4
4 -22 -7 375.841 177.337 1
4 18 4 931.381 408.147 3
4 18 4 640.821 209.462 2
-22 4 4 1126.94 574.702 1
18 4 -4 1297.2 594.868 2
-22 18 -4 791.017 382.269 1
18 -22 4 1141.19 378.709 4
4 -22 -4 1005.37 555.1 4
4 18 1 -260.774 349.85 3
18 4 -1 1097.34 556.045 2
-22 4 1 1174.41 534.778 1
4 -22 -1 416.547 260.861 4
-22 18 -1 391.814 271.605 1
4 18 -2 532.267 373.896 3
18 4 2 378.863 222.899 2
4 -22 2 40.0927 241.461 4
-22 18 2 401.463 213.028 1
-22 4 -2 1206.36 630.646 1
4 18 -5 1659.31 685.799 3
-22 18 5 1293.86 496.769 1
-22 4 -5 1350.63 621.645 1
4 -22 5 752.703 307.247 4
18 4 5 2219.91 645.276 2
18 -22 -5 2142.71 679.922 2
4 18 -8 1715.98 815.653 3
-22 4 -8 1185.69 424.468 1
18 -22 -8 2004.92 757.164 2
-22 18 8 1385.17 567.425 1
4 18 -11 287.677 433.155 3
-23 5 8 1679.02 717.072 1
18 5 -8 588.922 385.501 2
5 -23 -8 1523.79 670.226 4
18 -23 8 589.412 232.063 4
5 -23 -8 1153.2 288.246 1
5 18 5 406.373 301.161 3
-23 18 -5 683.084 303.897 1
-23 5 5 1140.62 518.615 1
18 5 -5 754.244 335.615 2
5 -23 -5 827.096 573.044 4
18 -23 5 651.836 302.359 4
5 -23 -5 944.132 324.731 1
5 18 2 -170.484 300.653 3
5 18 2 352.759 176.108 2
18 5 -2 322.294 421.219 2
-23 5 2 802.552 416.67 1
-23 18 -2 26.2438 315.782 1
5 -23 -2 648.567 423.086 4
5 18 -1 1158.48 588.302 3
5 18 -1 1106.99 386.94 2
18 5 1 1129.03 538.713 2
5 -23 1 836.103 388.417 4
-23 5 -1 1409.66 625.949 1
-23 18 1 931.656 434.397 1
5 18 -4 455.491 345.247 3
-23 5 -4 1141.39 572.551 1
-23 18 4 754.53 356.122 1
18 5 4 96.0304 185.384 2
5 -23 4 272.377 167.581 4
18 -23 -4 407.802 409.526 2
-23 18 7 2067.66 725.672 1
5 18 -7 1747.68 660.701 3
18 -23 -7 2017.86 708.452 2
5 -23 7 1882.54 568.37 4
-23 5 -7 2618.67 726.829 1
5 18 -10 -273.873 433.991 3
-23 5 -10 -73.0769 398.197 1
18 -23 -10 123.274 368.767 2
-23 18 10 296.66 354.707 1
-24 6 9 -345.769 321.113 1
18 6 -9 -271.265 383.448 2
6 -24 -9 240.835 160.678 1
18 -24 9 -45.4743 140.348 4
6 -24 -6 892.678 323.036 1
-24 6 6 1379.25 647.716 1
18 6 -6 1313.03 657.747 2
6 -24 -6 1162.18 605.588 4
18 -24 6 843.881 303.895 4
-24 18 -6 263.964 209.536 1
-24 18 -3 376.268 354.29 1
6 18 3 205.855 225.047 3
6 18 3 544.62 251.79 2
18 6 -3 216.933 222.726 2
-24 6 3 675.717 520.161 1
18 -24 3 390.179 323.577 4
6 -24 -3 390.293 407.596 4
-24 18 0 979.379 571.423 1
6 18 0 900.9 561.129 3
6 18 0 835.283 393.696 2
18 6 0 1063.46 507.7 2
6 -24 0 1209.66 547.115 4
-24 6 0 1253.53 589.915 1
6 18 -3 395.863 396.966 3
-24 6 -3 541.14 400.724 1
6 18 -3 318.112 317.819 2
-24 18 3 928.594 518.55 1
18 6 3 391.542 304.159 2
6 -24 3 152.761 280.722 4
6 18 -6 573.933 390.606 3
-24 18 6 916.182 456.682 1
-24 6 -6 867.902 446.477 1
6 -24 6 908.75 354.779 4
18 6 6 1437.47 570.388 2
18 -24 -6 603.52 361.512 2
6 18 -9 653.503 482.885 3
-24 6 -9 -261.156 301.367 1
18 -24 -9 1062.51 689.181 2
-24 18 9 412.821 415.4 1
-25 7 7 527.572 462.905 1
7 -25 -7 -58.9142 152.003 1
18 7 -7 -100.389 520.765 2
7 -25 -7 -250.813 434.265 4
18 -25 7 318.068 217.452 4
-25 18 -7 30.119 272.965 1
-25 18 -4 -198.256 351.277 1
18 7 -4 -178.309 249.568 2
7 18 4 -75.4843 163.973 2
-25 7 4 180.493 276.584 1
7 -25 -4 775.917 366.531 4
18 -25 4 -171.579 243.194 4
7 -25 -4 -206.2 169.776 1
7 18 1 543.066 206.298 3
-25 18 -1 1291.52 551.289 1
7 18 1 939.833 319.818 2
18 7 -1 569.399 304.817 2
7 -25 -1 1111.25 494.995 4
-25 7 1 1225.86 568.639 1
-25 7 -2 223.33 190.345 1
7 18 -2 21.3602 293.828 3
7 18 -2 462.104 373.807 2
-25 18 2 408.913 193.093 1
18 7 2 92.8563 198.44 2
7 -25 2 630.236 368.789 4
7 18 -5 1190.66 706.096 3
7 18 -5 323.392 304.288 2
-25 18 5 726.402 517.38 1
-25 7 -5 1011.56 575.12 1
18 7 5 751.61 463.513 2
7 -25 5 771.198 365.999 4
18 -25 -5 681.394 427.751 2
7 18 -8 114.392 394.363 3
7 18 -8 1023.57 588.563 2
-25 7 -8 172.024 222.967 1
18 -25 -8 604.465 406.515 2
-25 18 8 -99.3855 279.913 1
8 -26 -5 460.026 352.761 4
8 -26 -5 546.013 297.009 1
18 8 -5 359.802 364.581 2
-26 8 5 1080.57 560.872 1
8 18 5 -8.60861 62.5841 2
-26 18 -5 -121.868 351 1
18 -26 5 440.326 313.138 4
8 18 2 554.983 311.361 2
-26 18 -2 676.65 545.148 1
18 8 -2 529.718 477.462 2
8 -26 -2 787.716 533.654 4
-26 8 2 1049.86 604.999 1
18 -26 2 163.12 154.137 4
-26 8 -1 390.481 378.514 1
8 18 -1 -200.822 219.49 3
8 18 -1 570.116 305.442 2
18 8 1 -143.74 336.85 2
8 -26 1 82.0228 180.772 4
-26 18 1 -251.412 329.148 1
8 18 -4 687.501 501.063 3
8 18 -4 -64.4597 202.286 2
-26 18 4 -200.862 395.509 1
-26 8 -4 82.3296 213.707 1
18 8 4 187.264 351.641 2
8 -26 4 104.302 206.991 4
8 18 -7 1198.03 782.402 3
-26 8 -7 618.239 409.948 1
8 18 -7 781.614 443.248 2
8 -26 7 107.964 193.768 4
18 -26 -7 890.651 493.245 2
-26 18 7 621.611 431.335 1
9 18 3 776.997 312.54 2
-27 9 3 1235.33 639.66 1
18 9 -3 1420.83 567.275 2
-27 18 -3 731.99 411.408 1
18 -27 3 477.779 279.19 4
9 -27 -3 867.197 571.408 4
9 -27 -3 1018.24 397.283 1
9 18 0 785.778 439.585 2
18 9 0 821.342 443.864 2
9 -27 0 259.9 322.262 4
-27 18 0 209.271 236.753 1
-27 9 0 703.06 424.562 1
9 18 -3 937.069 541.762 2
-27 9 -3 57.3087 329.403 1
-27 18 3 119.891 322.71 1
18 9 3 365.758 274.186 2
9 -27 3 -310.551 362.875 4
10 18 1 902.304 410.789 2
18 10 -1 966.182 601.807 2
18 -28 1 154.72 194.7 4
10 -28 -1 936.624 442.743 4
-28 10 1 1030.43 599.12 1
-28 18 -1 465.25 281.801 1
10 18 -2 30.8755 287.504 2
-28 10 -2 214.717 338.325 1
-28 18 2 247.739 425.865 1
18 10 2 548.445 380.633 2
10 -28 2 164.608 258.027 4
-9 19 14 906.639 402.639 2
-9 19 14 355.345 155.705 1
-10 -9 14 65.8295 288.919 1
19 -9 -14 -117.166 597.514 2
-10 19 -14 471.523 359.158 4
-9 -10 -14 -20.6646 232.866 4
-9 19 14 705.686 328.009 3
-9 19 11 299.008 156.217 1
-9 19 11 550.369 274.931 2
-10 -9 11 388.088 191.812 1
19 -9 -11 646.425 373.881 2
-9 -10 -11 923.463 615.475 4
-10 19 -11 739.915 373.487 4
-9 19 11 1085.85 406.387 3
-9 -10 -11 878.804 248.71 2
-9 -10 -8 1623.67 395.809 1
-10 -9 8 1291.64 481.678 1
-9 -10 -8 1117.38 239.931 2
-9 19 8 1949.92 504.818 2
19 -9 -8 1696.23 810.789 2
-10 19 -8 1516.97 492.428 4
-9 -10 -8 1193.7 549.631 4
-9 19 8 1380.27 498.414 3
-9 -10 -5 728.524 205.74 2
-9 -10 -5 839.263 307.54 1
-10 -9 5 637.551 304.436 1
19 -9 -5 665.419 401.762 2
-9 19 5 474.632 158.05 2
-9 -10 -5 101.389 187.752 4
-9 19 5 -57.513 295.573 3
-10 -9 2 657.663 307.281 1
-9 -10 -2 584.62 289.955 1
-9 -10 -2 301.293 157.278 4
-9 19 2 926.978 350.599 2
19 -10 2 923.209 425.97 2
-10 -9 -1 2463.87 523.125 2
-9 -10 1 1808.36 481.929 1
19 -10 -1 3581.63 840.894 2
-10 -9 -1 2047.8 507.439 1
19 -9 1 3352.68 824.44 2
-10 -9 -1 1562.67 470.037 4
-10 19 1 3045.01 660.931 2
-10 -9 -4 505.691 201.296 1
-10 -9 -4 353.805 132.445 2
-9 -10 4 421.602 222.191 1
19 -10 -4 1065.48 420.165 2
-10 19 4 318.533 205.113 2
-10 -9 -4 355.366 225.71 4
19 -9 4 323.397 220.914 2
-9 -10 7 210.462 187.001 1
-10 -9 -7 305.62 143.303 2
-10 19 7 701.92 297.17 2
-10 19 7 88.3963 96.9582 1
19 -10 -7 665.086 374.737 2
-9 19 -7 -187.178 198.893 4
19 -9 7 114.949 77.2807 4
-10 -9 -7 178.143 181.128 4
-10 -9 -7 -19.9145 167.732 1
-10 19 10 495.397 225.538 1
-9 -10 10 42.0523 309.653 1
-10 19 10 521.285 319.82 2
19 -10 -10 343.225 448.318 2
-10 -9 -10 103.349 84.6338 2
-10 -9 -10 439.181 454.445 4
-10 -9 -10 146.19 163.717 1
-9 19 -10 -241.871 293.091 4
-10 19 10 475.789 297.147 3
-10 19 13 283.198 182.615 2
-10 19 13 353.662 186.327 1
-9 -10 13 926.718 522.919 1
19 -10 -13 -337.542 511.391 2
-10 -9 -13 716.634 533.517 4
-9 19 -13 880.181 550.29 4
-10 -9 -13 27.483 140.312 2
-10 19 13 278.797 206.941 3
-8 19 12 623.508 341.204 2
-11 -8 12 6.66444 256.784 1
19 -8 -12 267.014 447.302 2
-8 19 12 70.8476 72.7704 1
-8 -11 -12 -157.518 349.439 4
-11 19 -12 -244.012 313.816 4
-8 -11 -12 274.382 161.045 2
-8 19 12 291.358 180.668 3
-8 19 9 74.9018 279.922 2
-11 -8 9 411.487 343.977 1
19 -8 -9 -32.5303 267.28 2
-11 19 -9 514.772 296.501 4
-8 -11 -9 3.35484 210.309 4
-8 -11 -9 333.468 178.784 1
-8 19 9 314.599 227.591 3
-8 -11 -6 479.414 204.09 1
-11 -8 6 205.73 202.237 1
-8 19 6 362.643 247.852 2
19 -8 -6 342.516 315.942 2
-8 -11 -6 565.81 365.38 4
-8 19 6 497.18 302.542 3
-11 -8 3 5339.6 909.504 1
19 -8 -3 6263.21 1147.71 2
-8 19 3 3682.8 654.108 2
-8 -11 -3 2772.56 641.781 4
-8 19 3 4130.92 803.279 3
19 -11 3 4481.32 897.672 2
-8 -11 -3 4639.08 741.697 1
-11 -8 0 5177.05 765.641 2
19 -8 0 6180.21 1082.48 2
-11 19 0 5648.69 907.232 2
19 -11 0 4532.38 894.98 2
-8 -11 0 3471.39 650.601 4
-8 -11 0 5178.91 820.696 1
-11 -8 0 5854.46 908.01 1
-11 -8 -3 558.674 311.232 1
-11 -8 -3 520.348 239.919 2
-8 -11 3 241.474 197.626 1
19 -11 -3 341.396 291.24 2
-11 19 3 149.878 119.923 2
-11 -8 -3 58.5176 231.152 4
19 -8 3 575.135 360.891 2
-11 19 6 1040.43 338.896 1
-8 -11 6 1061.58 349.378 1
-11 -8 -6 1185.27 326.418 2
-11 19 6 1260.97 356.245 2
19 -11 -6 1954.13 766.454 2
-8 19 -6 1483.25 639.103 4
-11 -8 -6 1550.53 406.998 1
-11 -8 -6 603.206 239.592 4
19 -8 6 1742.56 396.379 4
-11 19 9 1229.14 413.824 1
-8 -11 9 929.436 428.871 1
-11 19 9 1357.19 561.617 2
-8 19 -9 1365.23 630.285 4
19 -11 -9 696.779 545.967 2
-11 -8 -9 917.197 305.352 2
-11 -8 -9 591.022 247.397 4
-11 -8 -9 776.947 323.262 1
-11 19 12 161.642 218.08 2
-11 19 12 172.829 227.919 1
-8 -11 12 104.944 167.674 1
19 -11 -12 -189.712 404.742 2
-11 -8 -12 922.173 486.195 4
-8 19 -12 84.6609 383.505 4
-11 -8 -12 -0.82944 151.956 2
-8 19 -12 705.49 511.124 3
-11 19 12 -48.9181 142.94 3
-7 -12 -13 7.44636 86.1672 2
-7 19 13 300.131 118.183 1
-12 -7 13 411.344 340.098 1
19 -7 -13 289.069 521.393 2
-7 -12 -13 506.751 389.576 4
-12 19 -13 -46.9457 293.888 4
-7 -12 -13 703.898 258.149 2
-7 19 13 774.453 342.996 3
-7 19 10 1050.09 383.391 2
-12 -7 10 771.86 443.678 1
19 -7 -10 1098.49 652.804 2
-12 19 -10 930.36 360.848 4
-7 -12 -10 1190.59 545.712 4
-7 19 10 1091.16 434.019 3
-7 19 7 721.386 281.669 2
19 -7 -7 1501.17 656.32 2
-12 -7 7 1186.33 481.787 1
-7 -12 -7 1073.15 303.522 1
-7 -12 -7 637.788 354.994 4
-7 19 7 1003.81 423.564 3
-12 -7 4 1003.67 345.449 2
19 -7 -4 1677.51 664.15 2
-12 -7 4 1222.53 566.456 1
-7 19 4 919.603 338.662 2
-7 -12 -4 1119.72 413.595 4
-7 -12 -4 1229.1 355.935 1
-7 19 4 793.001 302.527 3
-12 -7 1 1017.1 382.349 2
-7 -12 -1 757.289 307.399 1
19 -7 -1 1102.01 507.53 2
-12 -7 1 639.974 295.058 1
-7 -12 -1 306.591 192.771 4
19 -12 1 1594.38 542.392 2
-7 19 1 385.355 216.592 3
-12 19 -1 888.531 415.585 2
-12 -7 -2 2610.03 603.234 1
-12 -7 -2 2098 482.546 2
-7 -12 2 1962.12 541.246 1
19 -12 -2 3473.71 881.305 2
-12 19 2 1627.52 534.952 2
19 -7 2 2796.85 685.687 2
-7 19 -2 2111.87 641.271 3
-12 19 5 104.268 180.38 1
-7 -12 5 390.7 294.385 1
-12 -7 -5 216.753 230.249 2
-12 -7 -5 209.197 178.075 1
-12 19 5 313.569 251.35 2
19 -12 -5 707.877 543.273 2
-7 19 -5 -128.567 326.089 4
-12 -7 -5 2.88386 195.244 4
19 -7 5 303.723 263.334 4
-7 19 -5 540.058 403.108 3
-12 19 8 606.421 308.766 1
-7 -12 8 897.502 433.692 1
-12 -7 -8 434.307 198.718 1
-12 19 8 1035.87 443.155 2
-12 -7 -8 923.706 295.864 2
19 -12 -8 1219.35 556.239 2
19 -7 8 652.057 259.936 4
-7 19 -8 926.454 535.784 4
-12 -7 -8 352.744 274.616 4
-7 19 -8 992.595 511.245 3
-12 -7 -11 237.072 197.305 1
-7 19 -11 114.103 293.044 4
-7 -12 11 -16.1452 202.595 1
-12 19 11 346.134 284.892 2
-12 19 11 17.4522 187.908 1
19 -12 -11 786.294 551.498 2
-12 -7 -11 -141.552 313.583 4
-12 -7 -11 218.642 147.247 2
-7 19 -11 662.195 433.616 3
-12 -7 -14 207.884 456.435 4
-12 -7 -14 87.8174 186.59 2
-7 19 -14 623.24 472.701 3
-12 19 14 216.119 180.619 3
-6 19 11 1090.76 370.924 2
19 -6 -11 600.9 635.774 2
-13 -6 11 753.96 372.686 1
-13 19 -11 767.528 322.066 4
-6 -13 -11 172.869 381.018 4
-6 19 11 1457.38 522.942 3
-6 19 8 1119.64 395.644 2
19 -6 -8 864.101 539.933 2
-13 -6 8 1571.4 667.011 1
-6 -13 -8 1844.45 724.642 4
-6 -13 -8 1401.68 320.325 1
-6 19 8 1242 522.34 3
19 -6 -5 223.706 308.583 2
-6 19 5 429.182 258.187 2
-13 -6 5 535.825 333.649 1
-6 -13 -5 477.855 307.263 4
-6 -13 -5 366.097 185.778 1
-6 19 5 520.762 327.797 3
-13 -6 2 2953.53 696.195 2
-6 -13 -2 2795.15 594.13 1
19 -6 -2 3239.18 860.768 2
-6 -13 -2 2519.86 621.523 4
-13 -6 2 2523.22 715.093 1
-6 19 2 2810.09 542.877 2
19 -13 2 3619.81 766.233 2
-6 19 2 3158.86 733.969 3
-13 -6 -1 1734.7 536.114 1
-13 -6 -1 2055.6 539.86 2
-6 -13 1 1289.96 446.418 1
19 -6 1 1998.7 615.487 2
-13 19 1 1402.33 457.655 2
19 -13 -1 1600.35 570.478 2
-6 -13 1 569.523 240.821 4
-6 19 -1 1721.24 552.336 3
-13 -6 -4 7381.75 936.105 2
-13 19 4 5466.39 974.958 2
-13 19 4 5454.94 827.437 1
-13 -6 -4 5478.71 882.763 1
19 -13 -4 6412.04 1202.85 2
19 -6 4 6739.73 1106.73 2
-6 19 -4 6412.37 1185.75 4
-13 -6 -4 3893.89 709.251 4
-6 19 -4 5694.89 1072.93 3
-6 -13 4 5164.34 869.357 1
-13 -6 -7 74.1861 132.819 1
-13 19 7 201.361 141.783 1
-6 -13 7 -70.4345 291.074 1
-13 19 7 48.0393 213.761 2
-13 -6 -7 662.91 279.508 2
19 -13 -7 53.7313 251.106 2
-6 19 -7 -319.42 513.697 4
19 -6 7 264.379 209.248 4
-13 -6 -7 298.885 174.032 4
-6 19 -7 453.525 330.089 3
-6 -13 10 636.975 317.013 1
-13 19 10 328.023 278.766 2
-13 19 10 822.917 323.937 1
19 -13 -10 1084.69 553.391 2
-13 -6 -10 356.953 241.966 1
-13 -6 -10 590.66 239.274 2
-13 -6 -10 561.828 376.076 4
-6 19 -10 938.423 439.385 3
-6 19 -10 544.144 465.185 4
-6 -13 13 518.499 332.781 1
19 -13 -13 -185.585 297.08 2
-13 -6 -13 574.477 418.548 4
-13 -6 -13 307.067 137.562 2
-13 19 13 516.669 310.738 3
-6 19 -13 1293.42 601.372 3
-13 19 13 705.857 319.946 1
-5 19 12 893.628 385.838 3
19 -5 -12 1531.53 811.355 2
-14 -5 12 894.153 483.994 1
-14 19 -12 333.745 237.928 4
-5 -14 -12 695.896 575.083 4
-5 -14 -9 392.695 482.951 4
-5 19 9 -131.429 116.916 2
19 -5 -9 224.297 313.926 2
-14 -5 9 240.49 343.098 1
-5 19 9 348.597 139.281 3
19 -5 -6 510.64 400.412 2
-5 19 6 382.574 218.851 2
-14 -5 6 751.263 464.902 1
-5 -14 -6 -11.6606 271.012 4
-5 19 6 656.965 334.812 3
-5 -14 -6 305.789 151.132 1
-14 -5 3 848.237 390.681 2
-5 -14 -3 403.207 168.849 1
19 -5 -3 751.965 374.429 2
-5 -14 -3 726.224 440.935 4
-14 -5 3 1348.98 564.979 1
-5 19 3 527.663 225.095 2
-5 19 3 332.176 264.986 3
-14 -5 0 12.0315 214.485 1
-14 -5 0 -18.0091 238.873 2
-5 -14 0 303.831 212.43 1
19 -5 0 365.575 359.741 2
-5 -14 0 356.395 238.469 4
-14 19 0 69.1531 170.266 2
19 -14 0 -138.294 219.83 2
-5 19 0 185.759 238.626 3
-14 19 3 3107.63 668.258 1
-5 -14 3 2725.01 635.133 1
-14 -5 -3 3293.29 720.533 1
-14 -5 -3 3359.6 689.213 2
-14 19 3 2752.54 796.657 2
19 -14 -3 4149.13 969.016 2
19 -5 3 2417.02 692.916 2
-5 19 -3 2999.87 768.36 3
-5 -14 6 120.256 227.011 1
-14 19 6 -110.16 255.412 1
-14 -5 -6 0.69004 121.239 2
-14 19 6 736.087 428.617 2
19 -14 -6 -87.3676 316.429 2
-5 19 -6 -425.064 516.035 4
19 -5 6 6.62044 130.73 4
-14 -5 -6 -66.8292 257.243 4
-5 19 -6 387.305 175.935 3
-14 -5 -6 -3.95125 136.612 1
-5 -14 9 -54.8982 299.802 1
-14 19 9 375.687 252.661 1
19 -14 -9 6.62574 198.793 2
-14 -5 -9 456.41 256.361 2
-14 -5 -9 171.624 275.231 4
-5 19 -9 227.021 210.729 3
-14 -5 -9 324.092 202.644 1
-5 -14 12 438.034 298.303 1
19 -14 -12 45.4234 238.684 2
-14 -5 -12 230.8 365.118 4
-14 -5 -12 505.466 360.571 2
-5 19 -12 -222.279 336.244 3
-14 19 12 241.987 193.643 1
-4 19 13 324.337 302.026 3
19 -4 -13 611.737 466.751 2
-15 -4 13 115.986 241.821 1
-15 19 -13 32.1208 182.441 4
-4 -15 -13 -204.449 345.587 4
-4 19 10 844.515 284.22 2
19 -4 -10 559.892 476.295 2
-15 -4 10 175.329 253.373 1
-4 -15 -10 763.534 444.405 4
-4 19 10 221.238 130.758 3
-4 -15 -7 225.627 122.511 1
-4 19 7 325.304 175.262 2
19 -4 -7 326.53 347.426 2
-4 -15 -7 -0.31066 201.191 4
-15 -4 7 268.425 327.082 1
-4 19 7 384.519 371.795 3
-4 -15 -4 184.708 325.638 4
-4 -15 -4 193.522 160.723 1
19 -4 -4 427.207 414.574 2
-4 19 4 -142.315 116.3 2
-15 -4 4 -101.869 237.243 1
-4 19 4 -69.9578 278.552 3
-15 -4 1 237.885 196.174 2
-4 -15 -1 156.321 106.113 1
19 -4 -1 365.599 258.348 2
-4 -15 -1 237.8 129.542 4
19 -15 1 227.474 337.96 2
-4 19 1 29.4288 266.474 3
-15 -4 1 204.071 176.409 1
-4 -15 2 2305.35 586.373 1
-15 19 2 2176.57 545.854 1
-15 -4 -2 2837.26 702.236 1
-15 -4 -2 2554.31 654.514 2
19 -4 2 3275.15 817.129 2
19 -15 -2 2567.91 747.252 2
-4 -15 2 1285.41 393.184 4
-4 19 -2 1724.37 589.653 3
-4 -15 5 463.046 247.484 1
-15 19 5 578.679 312.833 1
-15 -4 -5 895.257 329.414 2
19 -15 -5 -25.2068 217.025 2
19 -4 5 838.989 434.016 4
-15 -4 -5 1116.12 468.262 1
-15 -4 -5 563.403 320.077 4
19 -4 5 424.275 362.68 2
-4 19 -5 846.016 387.497 3
-4 -15 8 29.6513 202.489 1
-15 19 8 192.22 251.443 1
-15 -4 -8 153.537 185.823 1
-15 -4 -8 425.829 348.427 2
19 -4 8 -0.17103 133.856 4
-15 -4 -8 239.175 250.489 4
19 -15 -8 -166.872 362.176 2
-4 19 -8 302.783 324.045 3
-15 19 11 776.277 339.275 1
-4 -15 11 399.217 431.078 1
19 -15 -11 695.164 546.179 2
-15 -4 -11 318.535 264.098 1
-15 -4 -11 403.174 307.251 4
-15 -4 -11 753.34 317.931 2
-4 19 -11 1196.6 606.922 3
-3 19 11 880.939 442.321 3
19 -3 -11 693.975 563.52 2
-16 -3 11 128.944 207.01 1
-3 -16 -11 1077.97 674.903 4
-3 19 8 238.979 127.978 2
19 -3 -8 399.957 512.371 2
-3 -16 -8 79.3214 296.009 4
-16 -3 8 355.553 259.514 1
-3 19 8 267.781 299.35 3
19 -3 -5 1024.76 592.501 2
-3 -16 -5 412.006 219.918 1
-3 -16 -5 -5.02787 271.333 4
-3 19 5 203.793 149.238 2
-16 -3 5 414.497 323.746 1
-3 19 5 470.535 312.387 3
-3 -16 -2 279.638 209.078 1
-16 -3 2 99.9649 196.584 2
19 -3 -2 -407.165 365.603 2
-3 -16 -2 -128.737 275.456 4
-3 19 2 521.863 290.627 3
-16 -3 2 510.732 411.922 1
-3 -16 1 1432.55 482.902 1
-16 -3 -1 3403.37 862.687 1
-16 -3 -1 2893 731.616 2
-16 19 1 2321.54 647.708 1
19 -3 1 2684.29 869.025 2
-3 -16 1 1728.99 529.69 4
19 -16 -1 2476.41 762.146 2
-3 19 -1 2110.74 726 3
-3 -16 4 1111.05 441.634 1
-16 19 4 714.394 316.764 1
-16 -3 -4 1699.35 535.196 2
-16 -3 -4 1874.22 587.298 1
19 -16 -4 1458.74 571.445 2
19 -3 4 2055.97 631.181 4
19 -3 4 1360.86 539.809 2
-3 19 -4 1735.14 586.979 3
-3 -16 7 -227.699 283.053 1
-16 -3 -7 56.9156 200.711 1
-16 -3 -7 248.477 224.443 2
-16 19 7 70.2828 127.264 1
19 -16 -7 -186.167 430.215 2
19 -3 7 295.513 153.087 4
-16 -3 -7 -9.40289 149.257 4
-3 19 -7 131.46 217.897 3
-16 19 10 206.602 289.433 1
-3 -16 10 471.35 290.21 1
19 -16 -10 707.569 431.633 2
-16 -3 -10 585.46 329.198 2
-16 -3 -10 -12.9125 129.175 4
-16 -3 -10 528.065 312.264 1
-3 19 -10 772.016 482.224 3
-3 -16 13 1511.84 592.067 1
19 -16 -13 1423.37 658.079 2
-16 -3 -13 996.293 518.965 4
-16 19 13 989.893 391.532 1
-16 -3 -13 1316.87 526.908 2
-3 19 -13 924.635 455.725 3
-2 19 12 4.40298 243.168 3
19 -2 -12 169.57 508.032 2
-2 -17 -12 126.169 323.122 4
-17 -2 12 84.9898 290.17 1
-2 19 9 60.663 227.201 3
19 -2 -9 439.512 545.788 2
-2 -17 -9 194.703 259.045 4
-17 -2 9 43.3269 271.764 1
19 -2 -6 83.9535 244.762 2
-2 19 6 304.346 151.205 2
-2 -17 -6 221.771 130.707 1
-2 -17 -6 203.239 340.925 4
-17 -2 6 219.701 304.24 1
-2 19 6 389.866 335.291 3
-2 -17 -3 910.072 276.694 1
19 -2 -3 1111.75 506.166 2
-2 -17 -3 723.275 425.256 4
-2 19 3 680.776 387.281 3
-17 -2 3 1359.55 562.414 1
-2 -17 0 895.576 315.929 1
-17 -2 0 1369.16 532.021 1
-17 -2 0 894.714 375.348 2
19 -2 0 634.412 366.015 2
-2 -17 0 718.3 372.613 4
-17 19 0 400.977 218.557 1
19 -17 0 905.731 467.345 2
-2 19 0 731.113 378.13 3
-2 -17 3 719.801 344.275 1
-17 -2 -3 1062.64 450.857 2
-17 19 3 582.785 336.729 1
-17 -2 -3 728.383 418.103 1
19 -2 3 1069.14 458.856 2
19 -17 -3 889.472 418.312 2
19 -2 3 1382.41 613.298 4
-2 -17 3 724.19 381.395 4
-2 19 -3 391.444 428.645 3
-2 -17 6 54.2704 249.238 1
-17 -2 -6 -183.074 188.914 1
-17 -2 -6 39.3564 184.289 2
-17 19 6 -428.616 392.403 1
19 -17 -6 252.843 400.042 2
19 -2 6 341.812 320.079 4
-2 19 -6 357.512 301.28 3
-2 -17 9 554.833 299.685 1
-17 -2 -9 676.52 381.478 1
-17 19 9 285.323 211.694 1
19 -17 -9 991.53 582.601 2
19 -2 9 421.5 158.444 4
-17 -2 -9 286.409 277.111 2
-17 -2 -9 101.714 177.623 4
-2 19 -9 686.675 499.961 3
-2 -17 12 308.33 149.73 1
-17 -2 -12 66.1917 153.525 1
19 -17 -12 -178.763 449.991 2
-17 -2 -12 -35.5139 174.932 4
-17 -2 -12 409.249 197.52 2
-17 19 12 406.019 341.489 1
-2 19 -12 74.414 411.261 3
-1 19 10 1023.72 442.405 3
19 -1 -10 1145.58 718.678 2
-1 -18 -10 -129.558 398.248 4
-18 -1 10 -100.349 259.041 1
-1 19 7 911.2 393.905 3
19 -1 -7 1119.79 667.778 2
-1 -18 -7 549.961 159.75 1
-1 -18 -7 1007.57 477.663 4
19 -18 7 594.937 187.279 4
-18 -1 7 840.267 538.994 1
-1 -18 -4 825.854 297.178 1
19 -1 -4 1252.23 679.385 2
-1 -18 -4 979.755 490.892 4
-1 19 4 1002.36 250.95 2
-18 -1 4 1628.29 682.018 1
-1 19 4 665.173 349.425 3
-18 19 -1 496.906 345.766 1
-1 -18 -1 807.421 335.316 1
-18 -1 1 1379.2 625.83 1
19 -1 -1 753.637 419.865 2
-1 -18 -1 831.75 393.285 4
-1 19 1 895.776 488.103 3
-1 -18 2 284.965 157.709 1
-18 -1 -2 429.273 211.124 2
-18 -1 -2 -43.2603 425.988 1
-18 19 2 387.903 315.337 1
19 -1 2 593.613 308.08 2
-1 -18 2 260.268 236.801 4
19 -1 2 717.702 568.422 4
19 -18 -2 456.193 172.249 2
-1 19 -2 309.537 312.416 3
-1 -18 5 431.949 328.571 1
-18 -1 -5 632.721 351.152 2
19 -1 5 248.789 182.602 4
19 -18 -5 242.448 345.646 2
-18 19 5 483.255 336.462 1
19 -1 5 219.604 179.828 2
-1 19 -5 659.916 376.22 3
-18 -1 -5 731.354 410.456 1
-1 -18 8 851.225 416.077 1
-18 19 8 500.135 329.77 1
-18 -1 -8 588.41 397.09 2
19 -1 8 526.209 349.377 4
19 -18 -8 1065.33 615.954 2
-18 -1 -8 407.784 179.781 1
-1 19 -8 1572.18 700.166 3
-1 -18 11 952.718 419.111 1
-18 -1 -11 310.842 260.456 1
19 -18 -11 252.912 258.917 2
-18 -1 -11 710.229 350.614 2
-18 -1 -11 530.914 307.315 4
-18 19 11 639.908 357.406 1
-1 19 -11 1513.02 711.496 3
0 19 11 28.0567 304.947 3
19 0 -11 -313.279 564.614 2
0 -19 -11 586.72 658.365 4
-19 0 11 -54.5699 277.39 1
0 19 8 108.775 161.145 3
19 0 -8 536.329 533.018 2
0 -19 -8 194.778 229.652 4
19 -19 8 181.112 95.0112 4
-19 0 8 468.697 437.289 1
-19 0 5 576.405 341.523 1
0 19 5 743.965 408.047 3
0 -19 -5 597.695 242.739 1
19 0 -5 879.07 564.339 2
0 -19 -5 225.675 181.125 4
0 19 5 320.591 136.979 2
0 19 2 16.788 271.427 3
0 -19 -2 -140.938 228.555 1
-19 0 2 200.779 350.821 1
-19 19 -2 260.999 147.752 1
19 0 -2 405.131 194.267 2
0 -19 -2 -211.788 286.926 4
0 -19 1 142.94 114.12 1
-19 0 -1 384.194 251.217 1
19 0 1 563.66 312.799 2
0 -19 1 262.441 164.567 4
-19 19 1 453.524 328.604 1
19 -19 -1 165.536 238.691 2
0 19 -1 -188.835 174.584 3
0 -19 4 1245.46 467.514 1
-19 0 -4 1326.63 485.434 2
19 0 4 1962.5 763.281 4
19 0 4 1588.9 539.319 2
19 -19 -4 1424.65 558.409 2
0 -19 4 1060.83 366.891 4
-19 19 4 892.81 420.421 1
-19 0 -4 1455.12 458.413 1
0 19 -4 1848.95 640.12 3
0 -19 7 3446.46 693.412 1
-19 0 -7 5826.37 1034.92 2
-19 19 7 4012.9 872.878 1
-19 0 -7 4981.03 996.551 1
19 0 7 5698.18 1114.36 4
19 -19 -7 5445.94 1137.89 2
0 19 -7 5576.89 1174.19 3
0 -19 10 615.082 364.847 1
19 -19 -10 812.653 506.563 2
-19 0 -10 227.987 286.398 1
-19 0 -10 -113.237 245.656 4
-19 19 10 924.993 440.432 1
0 19 -10 362.749 441.329 3
1 19 9 203.748 232.283 3
19 1 -9 260.268 435.892 2
1 -20 -9 423.426 440.372 4
-20 1 9 965.934 470.546 1
-20 1 6 -76.119 200.964 1
1 19 6 642.439 435.134 3
1 -20 -6 166.348 143.071 1
19 1 -6 61.5517 279.461 2
19 -20 6 95.3644 91.7459 4
1 -20 -6 223.869 237.304 4
1 19 3 2399.02 712.347 3
1 -20 -3 1905.22 442.27 1
-20 1 3 2389.12 757.052 1
-20 19 -3 1558.51 551.2 1
19 1 -3 3985.13 970.343 2
1 -20 -3 3126.11 773.429 4
1 19 0 613.5 255.695 3
-20 19 0 1217.13 445.836 1
-20 1 0 1737.47 626.589 1
19 1 0 1042.14 448.133 2
1 -20 0 602.15 411.314 4
1 19 -3 1820.71 694.265 3
19 1 3 1401.44 466.268 2
1 -20 3 300.082 240.973 4
-20 1 -3 1888.01 602.794 1
19 -20 -3 816.643 414.621 2
-20 19 3 972.315 464.248 1
-20 1 -6 2384.04 734.777 1
-20 19 6 2096.95 685.816 1
19 1 6 1418.53 634.507 4
19 -20 -6 2024.22 754.697 2
19 1 6 1991.17 653.16 2
1 19 -6 1811.52 678.935 3
-20 19 9 36.0302 186.92 1
-20 1 -9 -118.692 283.613 1
19 1 9 407.929 160.708 4
19 -20 -9 195.472 343.418 2
1 19 -9 176.709 207.756 3
2 19 10 292.273 343.583 3
19 2 -10 -75.6321 305.049 2
2 -21 -10 -139.194 313.302 4
-21 2 10 837.022 508.518 1
-21 2 7 744.737 521.465 1
2 19 7 32.4246 236.176 3
2 -21 -7 492.989 194.626 1
19 2 -7 442.105 259.109 2
2 -21 -7 641.88 309.097 4
19 -21 7 575.687 235.154 4
2 -21 -7 319.152 131.673 1
2 -21 -4 127.872 86.626 1
2 19 4 198.249 248.368 3
-21 2 4 197.624 212.588 1
19 2 -4 -113.237 333.858 2
2 -21 -4 200.776 268.152 4
-21 19 -4 487.163 317.468 1
2 19 1 962.526 510.364 3
-21 19 -1 788.313 493.376 1
-21 2 1 1480.09 590.662 1
19 2 -1 958.645 441.805 2
2 -21 -1 691.168 356.947 4
2 19 -2 220.249 362.452 3
-21 19 2 56.89 157.667 1
19 2 2 551.394 339.909 2
-21 2 -2 288.955 408.03 1
2 -21 2 302.694 171.375 4
19 -21 -2 220.793 214.176 2
2 19 -5 2609.99 788.655 3
-21 2 -5 2122.58 776.82 1
-21 19 5 1118.87 522.855 1
19 -21 -5 1047.38 559.371 2
2 -21 5 851.436 354.821 4
19 2 5 1505.01 667.863 2
2 19 -8 1032.89 595.748 3
-21 19 8 547.34 398.712 1
19 -21 -8 -88.4713 198.784 2
-21 2 -8 318.776 268.458 1
2 19 -11 891.269 489.638 3
-21 2 -11 -118.7 254.478 1
19 -21 -11 -157.669 412.655 2
-21 19 11 117.862 195.208 1
-22 3 8 1056.47 598.854 1
3 19 8 1448.69 564.717 3
3 -22 -8 644.45 179.958 1
3 -22 -8 895.233 251.8 1
19 3 -8 197.167 330.792 2
3 -22 -8 811.622 674.234 4
19 -22 8 851.444 289.985 4
3 19 5 863.544 490.626 3
-22 3 5 377.611 305.195 1
19 3 -5 1141.3 586.012 2
19 -22 5 31.217 111.117 4
3 -22 -5 408.365 405.339 4
3 19 2 859.581 428.629 3
-22 3 2 1451.95 592.113 1
-22 19 -2 782.354 288.308 1
19 3 -2 1575.14 724.461 2
3 -22 -2 842.544 467.048 4
3 19 -1 932.635 553.495 3
-22 19 1 294.441 329.899 1
19 3 1 1176.03 546.821 2
-22 3 -1 1187.66 492.452 1
3 -22 1 545.48 374.732 4
3 19 -4 693.578 362.486 3
-22 3 -4 1833.12 744.9 1
-22 19 4 1315.82 509.206 1
19 3 4 1920.65 610.319 2
3 -22 4 1138.05 439.353 4
19 -22 -4 1256.31 608.279 2
3 19 -7 1862.73 764.966 3
-22 19 7 839.756 469.879 1
-22 3 -7 1145.35 576.863 1
19 -22 -7 1306.1 670.019 2
3 19 -10 1584.11 692.662 3
19 -22 -10 284.434 428.664 2
-22 3 -10 549.193 488.608 1
-22 19 10 614.243 379.163 1
-23 4 9 521.614 546.076 1
4 -23 -9 356.01 129.96 1
19 4 -9 409.672 647.127 2
4 -23 -9 312.532 128.313 1
4 -23 -9 417.335 524.465 4
19 -23 9 201.804 108.219 4
4 -23 -6 837.814 300.385 1
4 19 6 401.006 408.117 3
-23 4 6 16.7323 326.726 1
19 4 -6 -12.881 272.659 2
4 -23 -6 2.70792 364.857 4
19 -23 6 82.7569 126.823 4
4 19 3 225.619 368.886 3
4 19 3 -310.737 214.14 2
-23 4 3 609.668 486.687 1
19 4 -3 306.792 260.033 2
4 -23 -3 -405.96 380.352 4
-23 19 -3 162.24 224.542 1
4 19 0 452.944 354.971 3
-23 19 0 120.283 212.579 1
19 4 0 521.579 373.954 2
-23 4 0 1316.75 568.018 1
4 -23 0 201.57 214.155 4
-23 4 -3 449.325 403.256 1
4 19 -3 34.5619 212.505 3
-23 19 3 -120.827 167.392 1
19 4 3 676.463 309.269 2
4 -23 3 -99.9816 164.862 4
19 -23 -3 206.679 300.263 2
4 19 -6 1687.96 648.359 3
-23 19 6 887.97 463.872 1
-23 4 -6 822.584 518.845 1
4 -23 6 457.113 329.145 4
19 -23 -6 1198.01 586.648 2
19 4 6 1194 611.206 2
4 19 -9 1431.67 790.051 3
-23 4 -9 841.643 487.204 1
19 -23 -9 617.771 505.951 2
-23 19 9 809.191 477.076 1
-24 5 7 1055.94 666.587 1
19 5 -7 702.269 548.776 2
5 -24 -7 1172.26 683.5 4
19 -24 7 694.875 282.08 4
5 -24 -7 854.861 280.892 1
5 19 4 134.805 256.582 3
-24 19 -4 29.6397 291.828 1
5 19 4 151.071 82.5567 2
-24 5 4 806.703 433.618 1
19 5 -4 390.922 313.607 2
19 -24 4 176.012 212.55 4
5 -24 -4 327.047 373.094 4
5 19 1 133.754 192.49 3
5 19 1 -161.338 117.732 2
19 5 -1 546.522 346.043 2
-24 19 -1 -88.7502 278.215 1
-24 5 1 664.086 406.503 1
5 -24 -1 -37.5591 170.231 4
5 19 -2 174.479 269.85 3
19 5 2 -87.5253 327.58 2
5 -24 2 301.958 335.177 4
-24 19 2 737.782 515.29 1
-24 5 -2 257.157 396.216 1
5 19 -5 70.1952 265.285 3
-24 19 5 829.778 560.77 1
-24 5 -5 1053.72 635.182 1
5 -24 5 22.1544 151.707 4
19 5 5 877.489 470.673 2
19 -24 -5 733.283 490.666 2
-24 19 8 415.929 408.587 1
5 19 -8 390.751 291.688 3
-24 5 -8 328.075 345.498 1
19 -24 -8 -48.1407 338.497 2
6 -25 -8 580.547 243.406 1
-25 6 8 265.121 374.502 1
19 6 -8 -331.806 497.672 2
6 -25 -8 30.359 576.102 4
19 -25 8 -156.604 212.396 4
6 -25 -5 910.992 269.702 1
-25 6 5 1147.21 554.787 1
19 6 -5 760.097 519.689 2
6 19 5 655.805 179.384 2
-25 19 -5 382.107 175.19 1
6 -25 -5 1089.11 510.101 4
19 -25 5 810.133 358.56 4
6 19 2 -3.47266 240.119 3
6 19 2 733.763 359.534 2
19 6 -2 847.735 533.068 2
-25 6 2 705.024 489.555 1
6 -25 -2 124.602 220.568 4
-25 19 -2 63.7266 215.65 1
6 19 -1 290.871 382.911 3
6 19 -1 267.412 191.605 2
19 6 1 578.319 414.589 2
6 -25 1 243.296 255.583 4
-25 6 -1 855.492 462.845 1
-25 19 1 -140.898 347.383 1
6 19 -4 602.875 403.698 3
6 19 -4 1008.06 431.756 2
-25 6 -4 887.803 504.304 1
-25 19 4 97.6613 332.915 1
19 6 4 923.299 523.784 2
6 -25 4 564.161 399.955 4
19 -25 -4 548.789 337.663 2
6 19 -7 424.851 547.858 3
-25 19 7 456.861 433.943 1
6 -25 7 402.258 302.976 4
19 -25 -7 509.275 320.519 2
-25 6 -7 306.568 359.325 1
7 -26 -6 282.774 209.081 1
-26 19 -6 896.599 618.405 1
-26 7 6 615.222 391.655 1
19 7 -6 409.85 368.675 2
7 -26 -6 1268.34 692.035 4
19 -26 6 206.085 124.349 4
7 -26 -3 562.047 405.396 4
7 19 3 758.036 245.931 2
19 7 -3 359.529 411.195 2
-26 7 3 1291.69 631.459 1
19 -26 3 234.016 158.308 4
-26 19 -3 280.82 213.997 1
-26 19 0 345.434 366.574 1
7 19 0 128.968 303.256 3
7 19 0 77.3913 232.512 2
19 7 0 570.032 484.302 2
7 -26 0 -66.7191 357.415 4
-26 7 0 544.311 412.088 1
7 19 -3 1603.82 695.997 3
7 19 -3 1409.04 479.096 2
-26 7 -3 2048.48 780.492 1
-26 19 3 484.59 420.647 1
19 7 3 1125.03 531.806 2
7 -26 3 706.014 332.865 4
7 19 -6 747.136 592.935 3
7 19 -6 100.269 303.968 2
-26 19 6 31.5655 265.644 1
-26 7 -6 171.867 242.181 1
7 -26 6 224.035 246.342 4
19 7 6 568.323 503.258 2
19 -26 -6 576.648 425.172 2
-27 19 -4 134.563 226.472 1
8 -27 -4 794.428 368.308 1
19 8 -4 533.65 377.307 2
8 19 4 34.981 107.534 2
-27 8 4 288.679 358.145 1
8 -27 -4 400.63 464.62 4
19 -27 4 117.133 195.938 4
-27 19 -1 621.369 408.771 1
8 19 1 497.125 325.944 2
19 8 -1 149.254 227.785 2
8 -27 -1 99.4167 193.849 4
-27 8 1 34.1385 249.143 1
8 19 -2 101.82 343.2 3
-27 8 -2 48.878 230.313 1
8 19 -2 456.848 320.842 2
19 8 2 479.994 379.714 2
-27 19 2 278.878 246.935 1
8 -27 2 704.972 356.059 4
8 19 -5 294.752 435.823 3
8 19 -5 -196.391 222.522 2
-27 19 5 6.7807 206.601 1
-27 8 -5 617.685 399.378 1
19 8 5 29.1539 160.278 2
8 -27 5 -145.232 143.221 4
9 19 2 580.225 352.384 2
-28 19 -2 394.649 251.448 1
19 9 -2 508.471 229.687 2
9 -28 -2 -437.155 428.78 4
-28 9 2 664.476 442.368 1
19 -28 2 763.284 469.749 4
-28 9 -1 210.227 345.196 1
9 19 -1 915.266 488.988 2
19 9 1 518.023 355.79 2
-28 19 1 534.11 478.471 1
9 -28 1 -236.55 234.75 4
-10 -10 0 1012.95 393.617 1
20 -10 0 1476.18 588.267 2
-10 20 0 1290.83 426.896 2
-10 -10 -3 1080.43 270.541 2
-10 -10 3 1136.5 433.595 1
20 -10 -3 1896.34 755.515 2
-10 20 3 1387.78 451.581 2
-10 -10 -3 831.484 316.86 4
20 -10 3 1267.26 475.192 2
-10 -10 -3 1291.34 403.567 1
-10 -10 -6 1836.78 352.195 2
-10 -10 6 2085.37 634.612 1
-10 -10 -6 2016.66 481.806 1
-10 20 6 2662.82 665.997 2
20 -10 -6 2952.82 932.781 2
-10 20 -6 1539.31 526.166 4
-10 -10 -6 1538.06 446.495 4
-10 20 6 2826.89 682.407 3
-10 -10 9 505.004 417.741 1
-10 20 9 466.835 329.686 2
-10 -10 -9 329.303 162.236 2
20 -10 -9 228.268 328.312 2
-10 -10 -9 464.169 225.861 1
-10 20 -9 1040.55 479.452 4
-10 -10 -9 289.767 243.093 4
-10 20 9 607.369 234.46 1
-10 20 9 271.063 190.273 3
-10 20 12 851.11 417.771 2
-10 -10 12 88.3585 262.447 1
20 -10 -12 619.976 580.569 2
-10 -10 -12 828.854 630.022 4
-10 20 -12 1319.82 646.734 4
-10 -10 -12 670.958 279.725 2
-10 20 12 713.292 373.223 3
-10 20 12 831.267 267.073 1
-9 20 13 103.631 151.526 1
-9 20 13 -225.648 211.525 2
-11 -9 13 52.6016 209.207 1
20 -9 -13 -262.186 456.436 2
-9 -11 -13 504.108 471.175 4
-11 20 -13 12.2496 301.139 4
-9 -11 -13 -105.105 156.552 2
-9 20 13 126.279 269.493 3
-9 20 10 1296.13 450.216 2
-11 -9 10 105.805 161.082 1
20 -9 -10 159.636 615.881 2
-9 -11 -10 659.952 188.757 2
-9 -11 -10 747.869 264.409 1
-11 20 -10 1081.22 472.661 4
-9 -11 -10 1027.89 530.347 4
-9 20 10 865.012 364.325 3
-9 -11 -7 693.773 168.336 2
-11 -9 7 466.006 190.605 1
-9 20 7 1041.65 355.303 2
20 -9 -7 1177.14 645.494 2
-9 -11 -7 755.169 266.161 1
-9 -11 -7 863.081 414.188 4
20 -11 7 1157.31 269.466 4
-9 20 7 533.761 355.372 3
-11 -9 4 2114.06 606.326 1
20 -9 -4 2459.62 764.89 2
-9 20 4 2266.63 527.72 2
-9 -11 -4 1565.55 465.956 4
-9 20 4 1649.17 507.017 3
-9 -11 -4 1449.73 360.159 1
-11 -9 1 4731.79 871.647 1
20 -9 -1 5330.65 1051.32 2
-9 -11 -1 2670.63 592.714 4
20 -11 1 5281.78 1020.71 2
-9 20 1 4210.13 750.795 2
-11 20 -1 3820.03 815.174 2
-9 -11 -1 4776.83 851.37 1
-11 -9 -2 1564.91 398.435 2
-9 -11 2 1282.62 411.409 1
20 -11 -2 1360.75 490.729 2
-11 20 2 1227.97 491.288 2
-11 -9 -2 585.548 312.306 4
20 -9 2 882.043 482.96 2
-11 -9 -2 917.374 369.043 1
-11 -9 -5 396.173 167.842 2
-11 -9 -5 440.301 291.817 1
-9 -11 5 142.148 327.837 1
-11 20 5 -78.1637 178.584 2
-9 20 -5 4.09257 282.281 4
20 -11 -5 418.824 453.368 2
-11 -9 -5 -50.8965 261.982 4
-11 -9 -8 1050.57 314.441 1
-9 -11 8 1270.8 494.355 1
-11 20 8 882.386 447.4 2
-11 -9 -8 1316.14 336.405 2
-11 20 8 1233.05 362.415 1
20 -11 -8 1061.4 581.473 2
20 -9 8 1145.33 252.623 4
-9 20 -8 1881.71 581.452 4
-11 -9 -8 1310.91 531.441 4
-11 20 11 322.395 303.244 2
-9 -11 11 238.649 248.287 1
20 -11 -11 10.9201 247.068 2
-11 -9 -11 132.83 113.452 2
-11 -9 -11 -83.2517 266.47 4
-9 20 -11 78.5984 196.01 4
-11 -9 -11 323.724 224.447 1
-11 20 11 690.297 375.425 3
-11 20 11 823.95 279.337 1
-8 20 11 -32.4407 139.446 2
-12 -8 11 205.24 275.926 1
20 -8 -11 24.2315 454.871 2
-12 20 -11 -188.145 176.972 4
-8 -12 -11 -237.842 466.263 4
-8 20 11 331.709 334.274 3
-8 20 8 1150.3 356.149 2
-12 -8 8 354.917 235.876 1
20 -8 -8 -97.0945 485.029 2
-8 -12 -8 795.939 512.865 4
-8 20 8 1066.66 444.066 3
-8 -12 -8 679.363 207.112 1
-8 20 5 4953.91 815.415 2
-12 -8 5 3319.08 746.369 1
20 -8 -5 5260.41 1193.84 2
-8 -12 -5 3351.51 750.331 4
-8 20 5 3183.43 710.213 3
-8 -12 -5 4346.72 646.08 1
-12 -8 2 3542.77 699.731 2
20 -8 -2 5260.61 1115.34 2
-8 -12 -2 2994.21 659.785 1
-12 -8 2 3902.01 856.256 1
-8 -12 -2 2684.86 624.763 4
-8 20 2 2640.22 584.66 2
-8 20 2 3454.75 753.8 3
20 -12 2 3186.08 776.702 2
-12 -8 -1 2370.02 536.515 2
-8 -12 1 2889.1 681.272 1
20 -12 -1 3992.66 881.853 2
20 -8 1 3958.1 875.96 2
-12 20 1 2614.41 650.216 2
-8 -12 1 2186.78 558.801 4
-8 20 -1 2923.32 703.698 3
-12 -8 -1 2562.69 685.657 1
-12 -8 -4 587.944 328.338 1
-12 -8 -4 626.364 312.976 2
-8 -12 4 390.107 270.71 1
-8 20 -4 661.024 309.457 4
-12 20 4 294.028 174.457 2
20 -12 -4 433.875 237.145 2
-12 -8 -4 140.726 131.822 4
-8 20 -4 703.255 406.236 3
20 -8 4 370.898 249.309 2
-8 -12 7 486.301 324.583 1
-12 20 7 767.815 318.344 1
-12 -8 -7 1049.56 331.282 2
-12 20 7 356.265 250.568 2
20 -12 -7 948.463 532.733 2
-8 20 -7 1312.74 472.73 4
20 -8 7 832.668 280.556 4
-12 -8 -7 507.036 279.491 4
-8 20 -7 741.131 529.319 3
-12 -8 -7 906.362 340.143 1
-8 -12 10 -59.2333 260.95 1
-12 -8 -10 63.5403 176.007 1
-12 20 10 -105.095 302.449 2
20 -12 -10 -517.988 575.193 2
-12 -8 -10 -225.612 224.759 2
-8 20 -10 -179.329 390.538 4
-12 -8 -10 -295.575 295.377 4
-8 20 -10 566.13 378.769 3
-12 20 10 -99.6981 146.853 1
-12 20 13 5.91615 127.937 1
-8 -12 13 -328.525 183.085 1
20 -12 -13 397.59 413.657 2
-12 -8 -13 657.296 506.328 4
-8 20 -13 740.507 481.958 4
-12 -8 -13 -124.781 315.476 2
-8 20 -13 386.487 333.526 3
-12 20 13 153.519 197.167 3
-7 20 12 1851.4 500.181 2
20 -7 -12 2047.95 918.42 2
-13 -7 12 692.733 489.03 1
-13 20 -12 1386.54 561.53 4
-7 -13 -12 2284.36 760.244 4
-7 20 12 1443.84 497.817 3
-7 20 9 170.658 234.018 2
20 -7 -9 465.934 438.506 2
-13 -7 9 323.427 248.006 1
-7 -13 -9 329.953 178.227 1
-7 -13 -9 -15.8127 220.23 4
-7 20 9 415.353 254.141 3
-7 -13 -6 1913.08 419.551 1
20 -7 -6 2034.8 778.04 2
-7 20 6 1750.37 456.834 2
-13 -7 6 1492.8 614.029 1
-7 -13 -6 1108.13 593.642 4
-7 20 6 1951.47 584.009 3
-13 -7 3 4466.69 860.486 2
20 -7 -3 7063.92 1277.48 2
-7 20 3 5187.23 789.406 2
-13 -7 3 4111.53 908.217 1
-7 -13 -3 4230.76 847.161 4
-7 20 3 6151.47 1022.9 3
20 -13 3 5248.16 1027.43 2
-7 -13 -3 5040.37 772.172 1
-13 -7 0 1805.5 499.019 2
-7 -13 0 1030.54 397.902 1
20 -7 0 2027.48 660.533 2
-7 -13 0 1117.15 417.023 4
20 -13 0 1791.99 555.537 2
-13 20 0 891.016 338.836 2
-7 20 0 1648.54 535.513 3
-13 -7 0 1669.42 534.744 1
-13 -7 -3 1033.35 417.957 1
-13 -7 -3 671.619 295.867 2
-7 -13 3 1125.88 434.975 1
-13 20 3 465.922 324.894 2
20 -13 -3 1234.61 481.862 2
-13 -7 -3 867.209 337.078 4
20 -7 3 896.759 454.321 2
-7 20 -3 742.739 448.805 3
-7 -13 6 866.254 430.543 1
-13 20 6 768.084 384.706 1
-13 -7 -6 706.763 339.804 2
-13 20 6 978.312 492.682 2
20 -13 -6 1800.56 718.024 2
-7 20 -6 482.891 246.855 4
-13 -7 -6 1239.17 432.419 1
20 -7 6 711.768 322.689 4
-13 -7 -6 286.279 245.278 4
-7 20 -6 638.988 355.685 3
-7 -13 9 1088.38 421.187 1
-13 20 9 1584.21 568.157 2
20 -13 -9 702.35 473.263 2
-13 -7 -9 945.36 315.295 2
-7 20 -9 1279.4 570.173 4
-13 -7 -9 1009.36 338.61 1
-13 -7 -9 614.552 363.659 4
-7 20 -9 970.149 482.003 3
-13 20 9 975.055 363.265 1
-7 -13 12 257.629 236.895 1
-13 20 12 1099.5 380.857 1
20 -13 -12 862.077 489.72 2
-13 -7 -12 964.812 503.109 4
-13 -7 -12 620.561 314.333 2
-13 20 12 459.629 370.44 3
-7 20 -12 962.882 481.716 3
-6 20 13 409.039 213.601 3
20 -6 -13 475.328 455.429 2
-14 -6 13 652.691 469.846 1
-14 20 -13 899.199 423.508 4
-6 -14 -13 -146.641 443.731 4
-6 20 10 356.446 288.681 2
20 -6 -10 349.328 603.813 2
-14 -6 10 530.463 424.895 1
-6 -14 -10 623.1 416.408 4
-6 20 10 74.2587 280.299 3
-6 -14 -7 1213.68 318.463 1
-6 20 7 1296.79 388.595 2
20 -6 -7 1588.21 560.255 2
-14 -6 7 754.044 380.677 1
-6 -14 -7 1122.64 449.107 4
-6 20 7 803.548 331.375 3
20 -6 -4 466.164 231.333 2
-6 -14 -4 91.6862 109.663 1
-6 20 4 431.754 231.959 2
-14 -6 4 69.073 242.676 1
-6 -14 -4 286.064 338.278 4
-6 20 4 87.3582 143.428 3
-14 -6 1 985.174 405.374 2
-6 -14 -1 854.419 350.558 1
20 -6 -1 1815.16 643.678 2
-6 -14 -1 992.695 424.278 4
20 -14 1 1569.27 552.088 2
-14 -6 1 816.298 324.19 1
-6 20 1 581.312 235.535 3
-14 -6 -2 9375.1 1236.78 1
-14 -6 -2 8231.62 1052.68 2
-14 20 2 6978.17 1101.61 2
20 -14 -2 8404.92 1343.16 2
20 -6 2 8358.48 1332.86 2
-6 -14 2 4778.29 796.878 4
-6 20 -2 7983.93 1304.58 3
-6 -14 2 7290.06 1017.27 1
-6 -14 5 124.404 330.245 1
-14 20 5 199.685 173.908 1
-14 -6 -5 471.563 292.397 2
-14 20 5 90.9088 142.19 2
-14 -6 -5 82.9171 194.364 1
20 -14 -5 338.723 322.361 2
20 -6 5 550.514 411.817 4
-14 -6 -5 -154.306 251.768 4
-6 20 -5 148.458 353.419 3
20 -6 5 836.356 477.015 2
-14 20 8 564.082 276.335 1
-6 -14 8 290.807 276.351 1
-14 -6 -8 185.591 178.896 1
-14 20 8 453.453 343.567 2
-14 -6 -8 11.007 135.587 2
20 -14 -8 346.941 327.209 2
20 -6 8 -71.1154 110.068 4
-14 -6 -8 76.6388 156.224 4
-6 20 -8 36.7818 201.185 3
-6 -14 11 -162.946 296.08 1
-14 -6 -11 708.556 359.601 1
-14 20 11 653.767 298.022 1
20 -14 -11 700.321 461.934 2
-14 -6 -11 519.732 240.362 2
-14 -6 -11 288.723 183.326 4
-6 20 -11 561.474 485.113 3
-5 20 11 377.973 216.291 2
20 -5 -11 488.35 454.074 2
-15 -5 11 193.304 173.677 1
-5 -15 -11 569.455 487.487 4
-5 20 11 838.589 448.401 3
-5 20 8 382.595 211.395 2
20 -5 -8 1130.69 663.358 2
-15 -5 8 345.185 317.708 1
-5 -15 -8 558.005 193.97 1
-5 -15 -8 594.289 512.879 4
-5 20 8 200.469 251.614 3
20 -5 -5 1653.51 728.609 2
-5 20 5 1372.54 411.908 2
-5 -15 -5 996.025 569.353 4
-5 -15 -5 1243.95 350.647 1
-15 -5 5 1108.56 500.891 1
-5 20 5 1519.38 530.922 3
-15 -5 2 726.309 340.318 2
-5 -15 -2 539.59 244.101 1
20 -5 -2 1260.09 631.703 2
-5 -15 -2 633.37 386.894 4
-15 -5 2 1029.08 453.561 1
20 -15 2 1452.16 569.371 2
-5 20 2 1396.46 481.575 3
-15 -5 -1 359.14 387.186 1
-5 -15 1 423.653 277.932 1
-15 -5 -1 475.685 313.824 2
20 -5 1 224.469 276.992 2
-5 -15 1 128.472 178.795 4
20 -15 -1 1053.81 586.247 2
-5 20 -1 347.764 390.472 3
-5 -15 4 45.2279 132.889 1
-15 20 4 226.134 260.32 1
-15 -5 -4 395.421 263.3 2
-15 -5 -4 221.199 234.033 1
20 -15 -4 183.943 282.409 2
20 -5 4 677.246 441.897 4
20 -5 4 -36.1294 262.981 2
-5 20 -4 962.743 476.479 3
-15 20 7 632.875 304.452 1
-15 -5 -7 283.276 287.493 1
-5 -15 7 705.766 382.398 1
-15 -5 -7 771.4 373.334 2
20 -15 -7 1079.14 568.204 2
20 -5 7 376.183 317.81 4
-15 -5 -7 576.755 338.971 4
-5 20 -7 557.391 442.938 3
-5 -15 10 287.149 202.782 1
-15 -5 -10 -30.7998 243.373 1
-15 20 10 676.433 379.216 1
20 -15 -10 537.006 510.15 2
-15 -5 -10 475.903 269.497 2
-15 -5 -10 780.97 485.668 4
-5 20 -10 554.949 521.94 3
-15 -5 -13 266.669 298.087 4
-15 -5 -13 1048.56 464.423 2
-5 20 -13 34.6956 332.257 3
-4 20 12 1216.2 431.547 3
-16 -4 12 371.587 415.843 1
-4 -16 -12 405.558 469.035 4
-4 20 9 518.201 213.636 2
20 -4 -9 815.169 503.772 2
-16 -4 9 971.949 484.686 1
-4 -16 -9 1200.58 610.684 4
-4 20 9 1045.37 485.148 3
20 -4 -6 417.806 397.566 2
-4 20 6 714.877 281.965 2
-4 -16 -6 639.804 551.964 4
-16 -4 6 -231.567 358.518 1
-4 -16 -6 412.426 216.966 1
-4 20 6 283.759 186.149 3
-4 -16 -3 2079.39 506.94 1
20 -4 -3 2831.94 892.757 2
-4 -16 -3 2447.25 697.645 4
-4 20 3 1739.73 431.731 2
-16 -4 3 2367.33 662.571 1
-4 20 3 2692.14 748.712 3
-16 -4 0 992.482 397.355 1
-4 -16 0 222.097 231.367 1
-16 -4 0 871.678 357.25 2
20 -4 0 254.513 312.087 2
-4 -16 0 -132.106 169.087 4
20 -16 0 724.367 379.765 2
-4 20 0 315.186 159.818 3
-4 -16 3 467.404 141.398 1
-16 -4 -3 885.454 332.201 2
-16 -4 -3 1234.59 484.943 1
-16 20 3 802.132 387.844 1
20 -16 -3 1393.33 557.913 2
20 -4 3 1767.35 589.123 2
-4 -16 3 276.134 134.965 4
-4 20 -3 938.22 442.448 3
-16 20 6 221.168 283.275 1
-4 -16 6 180.949 210.624 1
-16 -4 -6 512.327 378.538 2
20 -16 -6 656.374 523.22 2
20 -4 6 540.754 283.418 4
-16 -4 -6 191.158 177.956 4
-4 20 -6 290.986 278.632 3
-16 -4 -6 93.4814 140.32 1
-4 -16 9 1141.34 482 1
-16 20 9 1017.98 449.862 1
20 -16 -9 627.533 510.243 2
20 -4 9 175.336 166.864 4
-16 -4 -9 473.459 314.816 2
-16 -4 -9 337.484 245.851 4
-16 -4 -9 303.501 325.417 1
-4 20 -9 560.998 484.528 3
-16 20 12 60.1967 156.162 1
-4 -16 12 155.984 207.488 1
20 -16 -12 485.862 369.035 2
-16 -4 -12 280.214 323.784 4
-16 -4 -12 -39.444 267.085 2
-16 -4 -12 -132.306 288.762 1
-4 20 -12 294.826 570.886 3
-3 20 10 1211.72 452.61 3
20 -3 -10 1243.14 723.819 2
-3 -17 -10 1416.95 739.549 4
-17 -3 10 660.078 384.754 1
-3 20 7 569.422 239.437 2
20 -3 -7 399.081 416.54 2
20 -17 7 293.437 123.501 4
-3 -17 -7 996.945 567.178 4
-17 -3 7 244.734 379.506 1
-3 -17 -7 354.941 142.29 1
-3 20 7 604.299 412.599 3
-3 -17 -4 949.141 295.116 1
20 -3 -4 855.335 563.107 2
-3 -17 -4 1205.99 505.413 4
-3 20 4 632.933 194.267 2
-17 -3 4 1520.53 657.243 1
-3 20 4 1526.11 598.927 3
-17 -3 1 1272.32 501.716 1
-3 -17 -1 536.035 285.502 1
-17 -3 1 778.887 368.293 2
20 -3 -1 858.039 358.549 2
-3 -17 -1 802.992 348.446 4
20 -17 1 893.23 502.602 2
-3 20 1 339.991 293.659 3
-3 -17 2 795.01 316.23 1
-17 -3 -2 1067.86 535.359 1
-17 -3 -2 1478.51 497.547 2
-17 20 2 1032.92 413.195 1
20 -3 2 1300.51 492.187 2
-3 -17 2 1074.87 367.372 4
20 -17 -2 1530.81 621.579 2
-3 20 -2 1559.78 613.755 3
-3 -17 5 182.327 126.296 1
-17 20 5 65.3 204.263 1
-17 -3 -5 292.606 330.393 2
20 -17 -5 474.65 486.104 2
20 -3 5 450.734 409.229 4
-17 -3 -5 337.838 316.406 1
20 -3 5 213.686 337.705 2
-3 20 -5 25.129 183.363 3
-3 -17 8 103.729 201.771 1
-17 20 8 179.313 204.307 1
-17 -3 -8 -3.41261 209.055 1
-17 -3 -8 253.35 213.74 2
20 -17 -8 -59.7098 260.52 2
20 -3 8 216.47 166.275 4
-17 -3 -8 270.942 196.341 4
-3 20 -8 434.981 402.533 3
-17 20 11 69.5342 192.41 1
-3 -17 11 235.008 285.83 1
-17 -3 -11 218.793 246.26 1
20 -17 -11 336.263 283.639 2
-17 -3 -11 748.743 393.662 2
-17 -3 -11 158.501 150.894 4
-3 20 -11 532.851 277.693 3
-2 20 11 -26.137 187.925 3
20 -2 -11 101.4 335.677 2
-2 -18 -11 210.513 450.31 4
-18 -2 11 452.335 332.008 1
-2 20 8 962.88 488.268 3
-2 -18 -8 258.583 106.004 1
-2 20 8 145.603 62.4884 2
20 -2 -8 590.755 524.161 2
-2 -18 -8 34.4889 391.548 4
20 -18 8 258.697 118.235 4
-18 -2 8 33.2358 258.202 1
-2 -18 -5 1342.89 356.756 1
20 -2 -5 620.169 501.306 2
-2 20 5 1140.78 310.97 2
-2 -18 -5 1221.76 521.275 4
-18 -2 5 921.615 444.961 1
-2 20 5 459.849 188.357 3
-18 -2 2 2529.82 712.325 1
-2 -18 -2 2038.14 465.859 1
20 -2 -2 2674.21 780.413 2
-2 -18 -2 1900.09 601.871 4
-2 20 2 2184.52 689.483 3
-2 -18 1 -310.374 280.762 1
-18 -2 -1 311.414 373.385 1
-18 -2 -1 406.685 287.8 2
20 -2 1 489.643 284.845 2
-2 -18 1 -92.8163 169.459 4
-18 20 1 -26.1571 152.002 1
20 -18 -1 -387.857 394.116 2
-2 20 -1 215.881 293.028 3
-2 -18 4 219.146 293.154 1
-18 20 4 115.255 259.752 1
-18 -2 -4 -7.83767 287.823 2
-18 -2 -4 -492.997 396.751 1
20 -18 -4 530.214 350.349 2
20 -2 4 799.021 480.562 4
20 -2 4 801.411 380.437 2
-2 -18 4 141.629 143.317 4
-2 20 -4 437.737 359.388 3
-2 -18 7 890.074 400.729 1
-18 -2 -7 414.88 340.931 1
-18 -2 -7 846.826 415.79 2
-18 20 7 491.186 277.267 1
20 -18 -7 1184.92 590.361 2
20 -2 7 1299.17 500.419 4
-2 20 -7 465.119 337.956 3
-2 -18 10 518.945 446.121 1
-18 20 10 729.336 390.623 1
-18 -2 -10 430.701 290.856 1
20 -18 -10 258.788 404.338 2
-18 -2 -10 85.9482 244.647 2
-18 -2 -10 -35.3802 200.973 4
-2 20 -10 505.036 476.885 3
-1 20 9 604.075 292.829 3
20 -1 -9 739.468 574.586 2
-1 -19 -9 828.022 651.756 4
-19 -1 9 -43.4082 242.012 1
-1 20 6 233.255 270.949 3
-1 -19 -6 292.163 161.582 1
-1 20 6 244.901 121.505 2
20 -19 6 210.927 150.725 4
-1 -19 -6 -199.186 411.126 4
-19 -1 6 600.197 466.8 1
-19 -1 3 3037.44 778.747 1
-1 -19 -3 2391.88 492.413 1
20 -1 -3 2061.46 733.501 2
-1 -19 -3 1841.14 573.93 4
-1 20 3 2072.78 705.128 3
-19 20 0 1140.95 427.213 1
-1 -19 0 716.38 293.174 1
-19 -1 0 1437.05 522.962 1
20 -1 0 768.214 389.934 2
-1 -19 0 427.872 302.316 4
20 -19 0 1355.28 555.239 2
-1 20 0 470.229 375.449 3
-1 -19 3 907.856 369.91 1
-19 20 3 1454.47 524.76 1
-19 -1 -3 1713.55 556.666 2
-19 -1 -3 1039.33 445.477 1
20 -1 3 1548.11 565.872 2
20 -1 3 1600.51 616.242 4
-1 -19 3 774.801 356.408 4
20 -19 -3 1092.17 510.166 2
-1 20 -3 1236.35 591.513 3
-1 -19 6 1661.75 547.099 1
-19 -1 -6 839.58 477.967 1
-19 -1 -6 1575.23 615.295 2
20 -1 6 1972.44 666.258 4
20 -19 -6 2707.13 848.32 2
20 -1 6 1515.26 626.581 2
-19 20 6 1375.62 524.801 1
-19 -1 -9 303.393 323.953 1
-1 -19 9 162.948 343.714 1
-19 20 9 565.051 400.993 1
20 -1 9 814.887 412.532 4
20 -19 -9 811.187 595.779 2
-19 -1 -9 702.885 433.184 2
-1 20 -9 640.161 477.534 3
0 20 10 705.617 447.771 3
20 0 -10 1160.87 834.736 2
0 -20 -10 941.921 533.75 4
-20 0 10 -21.9324 347.984 1
0 20 7 1404.38 577.056 3
0 -20 -7 912.205 243.127 1
20 0 -7 1675.35 774.863 2
0 -20 -7 570.038 300.798 4
20 -20 7 729.172 233.364 4
-20 0 7 1369.6 673.481 1
0 20 4 120.63 259.62 3
-20 0 4 792.038 549.468 1
0 -20 -4 510.428 253.205 1
20 0 -4 620.529 482.979 2
0 -20 -4 230.558 354.361 4
0 20 4 485.687 186.253 2
0 20 1 259.522 374.731 3
0 -20 -1 265.167 175.956 1
-20 0 1 737.034 419.12 1
-20 20 -1 324.208 312.663 1
20 0 -1 17.871 243.111 2
0 -20 -1 -289.087 367.661 4
0 -20 2 270.583 256.334 1
-20 20 2 653.878 389.9 1
-20 0 -2 202.86 210.889 1
20 0 2 637.918 397.622 2
0 -20 2 371.388 322.842 4
20 -20 -2 955.655 485.541 2
0 20 -2 680.944 452.177 3
-20 0 -5 7290.14 1219.28 2
20 -20 -5 6818.44 1275.87 2
20 0 5 7335.19 1232.8 2
-20 0 -5 6330.45 1181 1
-20 20 5 6200.5 1093.56 1
0 -20 5 4043.04 763.64 4
0 20 -5 7433.94 1370.9 3
0 -20 5 5350.3 903.624 1
0 -20 8 916.311 447.569 1
-20 20 8 833.109 415.257 1
20 0 8 1110.3 499.55 4
20 -20 -8 331.47 388.421 2
-20 0 -8 559.023 398.663 1
0 20 -8 156.966 398.275 3
0 -20 11 35.9 178.323 1
-20 0 -11 111.48 308.073 1
20 -20 -11 -265.794 506.113 2
-20 0 -11 -70.8734 157.207 4
-20 20 11 385.022 364.37 1
0 20 -11 813.667 615.982 3
1 20 8 731.763 379.624 3
20 1 -8 1120.2 676.279 2
1 -21 -8 512.427 153.786 1
1 -21 -8 1329.37 585.653 4
20 -21 8 485.844 208.499 4
1 -21 -8 597.899 171.495 1
-21 1 8 930.079 462.63 1
1 20 5 350.493 200.806 3
-21 1 5 665.62 422.695 1
1 -21 -5 548.339 228.332 1
20 1 -5 171.189 387.568 2
1 -21 -5 58.7282 221.222 4
1 20 5 268.409 156.053 2
1 20 2 1197.94 524.898 3
1 -21 -2 804.024 330.02 1
-21 1 2 1405.5 678.081 1
20 1 -2 1870.24 695.182 2
1 -21 -2 1001.41 445.136 4
-21 20 -2 1789.93 616.738 1
1 -21 1 532.088 298.372 1
1 20 -1 -32.3637 289.795 3
-21 1 -1 258.183 294.415 1
20 1 1 -39.4488 266.574 2
-21 20 1 349.238 353.059 1
1 -21 1 150.028 221.12 4
20 -21 -1 389.971 430.48 2
1 20 -4 1056.67 586.388 3
20 1 4 113.359 290.028 2
1 -21 4 -12.2615 168.606 4
20 -21 -4 213.824 283.156 2
-21 20 4 447.507 299.752 1
-21 1 -4 1143.7 598.205 1
-21 20 7 431.567 267.445 1
-21 1 -7 325.458 362.158 1
20 -21 -7 648.923 521.343 2
1 20 -7 625.089 386.36 3
1 20 -10 480.314 429.952 3
-21 20 10 105.493 248.009 1
1 -21 10 128.101 225.125 1
-21 1 -10 221.327 242.081 1
20 -21 -10 -106.454 294.359 2
2 20 9 400.346 309.267 3
20 2 -9 580.373 582.044 2
2 -22 -9 510.303 579.321 4
20 -22 9 113.079 119.901 4
-22 2 9 416.083 373.506 1
2 20 6 382.065 361.754 3
2 -22 -6 712.862 278.87 1
-22 2 6 567.101 416.892 1
20 2 -6 587.472 445.508 2
20 -22 6 294.094 205.73 4
2 -22 -6 668.498 439.515 4
2 -22 -3 216.351 183.39 1
2 20 3 -325.059 376.697 3
-22 20 -3 458.911 263.384 1
-22 2 3 647.494 493.187 1
20 2 -3 -208.451 334.765 2
2 -22 -3 769.446 418.742 4
2 20 0 -25.5575 264.243 3
-22 2 0 93.7875 189.289 1
20 2 0 146.747 213.088 2
2 -22 0 45.723 176.077 4
-22 20 0 -215.827 274.407 1
2 20 -3 633.562 485.179 3
20 2 3 713.31 417.969 2
2 -22 3 92.3429 146.791 4
-22 2 -3 197.26 322.674 1
20 -22 -3 358.742 323.814 2
-22 20 3 473.588 329.92 1
2 20 -6 733.627 561.638 3
-22 2 -6 570.693 485.207 1
-22 20 6 1125.95 520.673 1
20 -22 -6 308.416 384.42 2
2 -22 6 529.551 272.727 4
20 2 6 794.837 312.448 2
2 20 -9 -34.5999 269.738 3
-22 20 9 143.55 302.571 1
-22 2 -9 -66.6951 332.469 1
20 -22 -9 110.494 334.061 2
3 -23 -7 1547.12 325.462 1
3 20 7 2163.36 740.953 3
-23 3 7 2257.16 793.199 1
20 3 -7 3167.43 1140.95 2
3 -23 -7 1354.5 328.141 1
3 -23 -7 2729.31 960.778 4
20 -23 7 1054.19 315.156 4
3 20 4 -101.104 261.585 3
3 20 4 229.634 141.68 2
-23 3 4 479.306 354.521 1
20 3 -4 -275.914 285.227 2
3 -23 -4 683.224 404.016 4
-23 20 -4 -241.79 397.043 1
3 20 1 1120.69 518.661 3
-23 20 -1 607.111 337.938 1
-23 3 1 1296.98 611.825 1
20 3 -1 762.974 538.2 2
3 -23 -1 846.487 516.875 4
3 20 -2 -9.8297 277.764 3
-23 20 2 -88.8863 259.375 1
20 3 2 472.323 295.983 2
3 -23 2 105.545 256.208 4
3 20 -5 -165.756 346.41 3
-23 3 -5 -32.1441 380.988 1
-23 20 5 -222.832 323.159 1
3 -23 5 -150.708 203.819 4
20 3 5 435.716 338.786 2
20 -23 -5 592.965 398.78 2
3 20 -8 1075.79 507.036 3
-23 20 8 882.574 447.977 1
20 -23 -8 1982.96 775.406 2
-23 3 -8 1135.08 479.286 1
4 -24 -8 390.796 191.748 1
4 20 8 391.014 289.704 3
-24 4 8 -309.178 409.971 1
4 -24 -8 746.401 256.435 1
20 4 -8 269.866 273.646 2
4 -24 -8 730.958 505.244 4
20 -24 8 249.409 161.85 4
4 20 5 446.809 430.945 3
-24 20 -5 15.4746 189.638 1
-24 4 5 201.314 442.879 1
20 4 -5 112.601 235.26 2
20 -24 5 -73.2549 163.268 4
4 -24 -5 227.862 293.177 4
4 20 2 326.93 357.759 3
4 20 2 314.544 216.59 2
-24 20 -2 487.096 324.456 1
-24 4 2 657.431 405.954 1
20 4 -2 -119.538 283.979 2
4 -24 -2 318.497 384.061 4
4 20 -1 1127.57 450.074 3
-24 20 1 886.005 419.785 1
20 4 1 372.273 365.612 2
4 -24 1 765.125 407.401 4
-24 4 -1 996.12 553.259 1
4 20 -4 878.664 414.204 3
-24 4 -4 1304 497.803 1
-24 20 4 1145.97 591.742 1
20 4 4 1085.4 513.85 2
4 -24 4 649.607 344.729 4
20 -24 -4 602.844 351.373 2
4 20 -7 407.456 417.236 3
-24 20 7 334.928 321.916 1
-24 4 -7 310.718 295.838 1
20 -24 -7 566.66 459.438 2
4 -24 7 89.2287 126.691 4
5 20 6 -73.0027 366.958 3
-25 5 6 602.419 411.78 1
20 5 -6 322.366 487.895 2
5 -25 -6 194.294 412.264 4
20 -25 6 344.705 247.683 4
5 -25 -6 213.132 170.168 1
5 20 3 319.689 346.317 3
5 20 3 544.983 250.262 2
-25 5 3 564.601 437.476 1
20 5 -3 -82.9458 208.775 2
-25 20 -3 -468.034 433.716 1
5 -25 -3 215.449 299.305 4
5 20 0 520.318 396.889 3
5 20 0 96.0336 131.977 2
-25 20 0 220.448 299.774 1
20 5 0 428.587 301.145 2
5 -25 0 135.035 313.538 4
-25 5 0 215.384 201.574 1
-25 5 -3 395.431 392.189 1
5 20 -3 761.129 460.726 3
20 5 3 551.028 398.936 2
-25 20 3 712.932 534.329 1
5 -25 3 -4.9887 199.279 4
5 20 -6 504.938 412.015 3
-25 20 6 703.194 421.036 1
-25 5 -6 531.871 419.343 1
5 -25 6 110.009 131.412 4
20 5 6 288.5 259.76 2
20 -25 -6 -446.004 346.81 2
6 20 4 -169.985 354.095 3
6 20 4 122.551 141.579 2
20 6 -4 711.17 633.438 2
-26 6 4 -84.5817 265.937 1
20 -26 4 233.824 216.152 4
6 -26 -4 221.031 398.745 4
-26 20 -4 -519.524 414.888 1
6 20 1 187.59 315.182 3
6 20 1 628.504 307.359 2
20 6 -1 729.399 484.92 2
-26 20 -1 303.725 365.248 1
-26 6 1 1085.48 595.586 1
6 -26 -1 671.78 520.804 4
-26 6 -2 600.767 225.702 1
6 20 -2 627.46 451.499 3
6 20 -2 278.009 169.283 2
20 6 2 428.047 365.703 2
6 -26 2 160.313 261.486 4
-26 20 2 485.18 423.896 1
6 20 -5 471.299 547.505 3
-26 20 5 392.754 421.22 1
-26 6 -5 659.501 555.954 1
20 6 5 314.441 376.197 2
6 -26 5 354.07 317.181 4
20 -26 -5 -30.8049 255.044 2
7 20 2 374.044 455.609 3
7 20 2 573.84 319.929 2
20 7 -2 -369.285 200.405 2
20 -27 2 166.402 231.623 4
-27 7 2 346.036 416.26 1
7 -27 -2 -79.635 181.563 4
-27 20 -2 -714.66 477.507 1
7 20 -1 1040.35 560.857 3
7 20 -1 470.424 198.565 2
20 7 1 226.904 347.508 2
7 -27 1 104.742 320.655 4
-27 7 -1 1130.72 660.721 1
-27 20 1 806.604 454.923 1
7 20 -4 374.784 452.371 3
7 20 -4 391.889 283.281 2
-27 7 -4 80.1868 279.467 1
-27 20 4 -181.406 257.556 1
20 7 4 -4.93142 275.029 2
7 -27 4 67.0445 199.116 4
-28 20 0 290.366 386.34 1
8 20 0 -136.79 396.233 3
8 20 0 175.86 196.15 2
20 8 0 95.814 281.185 2
8 -28 0 -766.274 423.431 4
-28 8 0 974.091 520.911 1
-10 21 11 80.9275 167.255 2
-11 -10 11 -76.3844 260.729 1
-10 21 11 454.107 190.835 1
21 -10 -11 342.654 409.736 2
-10 -11 -11 17.5658 91.8299 2
-10 -11 -11 485.51 198.721 1
-11 21 -11 266.98 341.333 4
-10 -11 -11 545.427 402.363 4
-10 21 11 285.752 285.085 3
-11 21 -8 997.76 475.16 4
-10 -11 -8 234.836 79.4916 2
-11 -10 8 536.961 313.702 1
-10 21 8 594.272 290.342 2
21 -10 -8 144.36 241.104 2
21 -11 8 323.641 137.609 4
-10 -11 -8 661.653 386.96 4
-10 21 8 719.763 456.666 3
-10 -11 -8 464.054 220.118 1
-10 -11 -5 4294.44 707.458 1
-10 -11 -5 4170.78 515.675 2
-10 21 5 5399.15 909.336 2
-11 -10 5 4473.76 916.156 1
21 -10 -5 5899.05 1301.78 2
-10 -11 -5 3060.29 727.632 4
-10 21 5 3793.89 799.325 3
-11 -10 2 2356.35 591.66 1
21 -10 -2 3501.23 925.669 2
-10 21 2 2664.48 653.408 2
-10 -11 -2 2357.06 587.341 4
-10 -11 -2 2123.14 578.251 1
21 -11 2 3814.64 891.139 2
-10 -11 1 2723.43 665.189 1
21 -11 -1 2984.9 806.322 2
-11 -10 -1 2377.33 618.678 1
21 -10 1 2394.05 714.458 2
-11 -10 -1 1407.18 463.851 4
-11 21 1 1586.13 464.033 2
-11 -10 -4 780.587 315.767 1
-11 -10 -4 386.292 195.357 2
-10 -11 4 737.182 389.83 1
21 -11 -4 1940.64 750.641 2
-11 21 4 535.706 259.398 2
-11 -10 -4 1185.5 479.834 4
21 -10 4 1078.81 527.822 2
-11 -10 -7 2723.91 439.039 2
-10 -11 7 1704.42 588.383 1
-11 21 7 2361.09 620.208 2
21 -11 -7 2329.72 797.468 2
-10 21 -7 2193.44 694.877 4
-11 -10 -7 2632.55 554.738 1
-11 -10 -7 1903.47 574.96 4
21 -10 7 3023.64 508.055 4
-11 21 7 2432.16 624.333 3
-11 -10 -10 1264.29 398.397 1
-11 21 10 1093.08 347.236 1
-11 21 10 861.424 435.165 2
-10 -11 10 993.921 373.102 1
-11 -10 -10 622.917 195.037 2
21 -11 -10 946.542 587.138 2
-10 21 -10 1603.24 683.719 4
-11 -10 -10 791.182 342.136 4
-11 21 10 1141.79 420.824 3
-9 21 12 478.322 203.135 2
-12 -9 12 -137.968 197.473 1
21 -9 -12 369.932 346.587 2
-9 -12 -12 137.022 132.094 2
-12 21 -12 173.296 342.665 4
-9 -12 -12 722.532 661.687 4
-9 21 12 228.717 254.18 3
-9 -12 -9 528.686 217.329 1
-9 21 9 438.152 299.813 2
-12 -9 9 437.949 351.796 1
21 -9 -9 321.375 370.228 2
-12 21 -9 692.086 434.963 4
-9 -12 -9 333.053 187 4
-9 21 9 -7.96451 234.625 3
-9 -12 -6 619.87 230.409 1
-12 -9 6 499.545 360.396 1
-9 21 6 830.934 396.06 2
21 -9 -6 456.183 354.831 2
-9 -12 -6 281.839 172.129 4
-9 21 6 453.69 360.643 3
-12 -9 3 892.035 444.537 1
21 -9 -3 982.772 427.626 2
-9 21 3 790.578 330.669 2
-9 -12 -3 573.973 375.357 4
-9 -12 -3 789.125 292.68 1
-9 21 3 1215.57 502.034 3
21 -12 3 1217.82 544.799 2
-12 -9 0 1668.56 440.53 2
-9 -12 0 2212.05 605.016 1
21 -9 0 2746.83 808.102 2
-12 -9 0 1456.21 498.152 1
21 -12 0 3392.69 895.795 2
-9 -12 0 1413.79 462.755 4
-9 21 0 1403.87 503.658 3
-12 21 0 1967.27 573.285 2
-12 -9 -3 926.369 343.176 1
-12 -9 -3 905.516 312.805 2
-9 -12 3 865.214 389.011 1
21 -12 -3 1448.82 652.208 2
-12 21 3 800.209 418.8 2
-12 -9 -3 949.534 384.819 4
21 -9 3 694.608 401.913 2
-12 -9 -6 1202.94 344.234 2
-9 -12 6 1302.81 435.414 1
-12 21 6 1602.45 572.172 2
-12 -9 -6 1490.31 463.501 1
21 -12 -6 1752.39 689.48 2
-9 21 -6 1773.61 607.718 4
-12 -9 -6 1124.59 473.403 4
21 -9 6 1321.87 443.179 4
-9 -12 9 790.331 398.586 1
-12 21 9 275.186 250.937 2
-12 -9 -9 271.21 144.969 2
-12 -9 -9 484.505 318.213 1
21 -12 -9 250.019 385.222 2
-9 21 -9 143.659 443.037 4
-12 -9 -9 314.404 412.25 4
-12 21 9 430.313 306.441 3
-12 21 9 632.777 289.102 1
-12 21 12 423.665 376.572 2
-9 -12 12 141.179 203.692 1
21 -12 -12 289.694 428.806 2
-12 -9 -12 239.458 265.591 2
-12 -9 -12 597.717 527.59 4
-9 21 -12 21.3353 329.69 4
-12 21 12 180.74 199.86 1
-9 21 -12 111.511 298.414 3
-12 21 12 -71.8319 362.354 3
-8 21 10 795.228 364.045 2
-8 -13 -10 461.75 198.874 1
-13 -8 10 636.317 385.887 1
21 -8 -10 1224.58 701.05 2
-13 21 -10 562.413 403.384 4
-8 -13 -10 830.877 400.496 4
-8 21 10 -171.716 182.953 3
-8 -13 -7 370.824 177.968 1
-8 21 7 306.615 226.251 2
21 -8 -7 804.376 516.296 2
-13 -8 7 359.03 315.066 1
-8 -13 -7 451.159 462.932 4
-8 21 7 1273.08 535.114 3
21 -8 -4 3494.14 981.946 2
-13 -8 4 2460.11 754.817 1
-8 21 4 2723.46 608.172 2
-8 -13 -4 2028.88 585.508 4
-8 -13 -4 1881.9 487.899 1
-8 21 4 2877.05 717.525 3
-13 -8 1 2249.81 585.598 2
-8 -13 -1 1695.54 505.164 1
21 -8 -1 3344.53 897.172 2
-13 -8 1 2627.4 697.865 1
-8 -13 -1 1477.59 524.937 4
21 -13 1 2636.34 764.512 2
-8 21 1 1853.82 577.759 3
-8 21 1 1641.54 482.625 2
-13 -8 -2 2851.84 721.469 1
-13 -8 -2 2711.81 578.335 2
-8 -13 2 3123.46 757.742 1
21 -13 -2 5305 1095.37 2
-13 21 2 2611.29 696.129 2
21 -8 2 2497.19 705.843 2
-8 21 -2 2539.48 793.79 3
-8 -13 5 870.656 427.219 1
-13 -8 -5 1033.18 369.595 2
-13 -8 -5 1050.84 414.736 1
-13 21 5 242.907 195.73 2
-8 21 -5 822.524 381.094 4
21 -13 -5 909.481 553.923 2
-13 -8 -5 548.575 309.004 4
-8 21 -5 833.84 515.606 3
-13 -8 -8 526.383 260.813 1
-8 -13 8 232.05 266.027 1
-13 21 8 282.883 313.649 2
-13 -8 -8 549.661 291.836 2
21 -13 -8 -113.664 403.061 2
-8 21 -8 -69.3034 324.36 4
21 -8 8 165.155 151.568 4
-13 -8 -8 722.88 437.934 4
-8 21 -8 768.955 487.036 3
-13 21 8 443.849 271.26 1
-8 -13 11 22.7219 260.666 1
21 -13 -11 -44.9359 274.855 2
-13 -8 -11 239.023 137.69 2
-13 -8 -11 -194.175 287.517 4
-13 21 11 8.91258 136.053 1
-13 21 11 391.404 274.983 3
-8 21 -11 62.9537 304.308 3
-13 -8 -11 485.937 306.133 1
-7 21 11 1026.44 367.087 2
21 -7 -11 1206.98 620.504 2
-14 -7 11 1506.99 576.295 1
-7 -14 -11 1268.08 608.733 4
-7 21 11 701.369 400.387 3
-7 21 8 167.191 156.746 2
21 -7 -8 228.958 224.572 2
-14 -7 8 191.834 181.681 1
-7 -14 -8 324.381 338.832 4
-7 -14 -8 417.768 156.375 1
-7 21 8 503.025 311.991 3
-7 21 5 4690.32 789.448 2
21 -7 -5 4956.64 1183.43 2
-14 -7 5 3141.89 841.467 1
-7 -14 -5 3258.44 812.524 4
-7 21 5 4304.72 856.712 3
-7 -14 -5 4090.22 670.656 1
-14 -7 2 288.751 203.634 2
-7 -14 -2 962.331 361.098 1
21 -7 -2 923.651 473.587 2
-7 -14 -2 576.238 241.898 4
-14 -7 2 915.321 504.49 1
-7 21 2 811.226 333.461 2
21 -14 2 1965.56 739.552 2
-7 21 2 872.199 429.948 3
-14 -7 -1 1766.93 590.63 1
-14 -7 -1 1567.12 506.816 2
-7 -14 1 1291.48 499.194 1
21 -7 1 2444.09 741.48 2
21 -14 -1 1772.76 659.329 2
-7 -14 1 856.206 386.379 4
-7 21 -1 1196.19 517.401 3
-7 -14 4 1717.19 549.962 1
-14 -7 -4 1425.71 445.348 2
-14 -7 -4 1229.17 444.492 1
-14 21 4 1256.37 459.882 2
21 -14 -4 1887.39 674.326 2
-14 -7 -4 563.555 223.872 4
21 -7 4 1153.45 505.561 2
-7 21 -4 768.934 468.144 3
-7 -14 7 198.218 181.163 1
-14 -7 -7 612.928 289.793 2
-14 21 7 412.643 279.173 2
21 -14 -7 1212.79 626.48 2
21 -7 7 868.605 324.345 4
-14 -7 -7 113.613 216.475 4
-14 21 7 49.0463 113.975 1
-7 21 -7 1024.89 533.775 3
-14 -7 -7 543.342 341.035 1
-14 -7 -10 -67.8356 178.729 1
-7 -14 10 309.226 312.6 1
21 -14 -10 414.8 320.429 2
-14 -7 -10 106.008 217.415 2
-14 -7 -10 -126.505 262.953 4
-14 21 10 -151.911 251.225 1
-7 21 -10 268.684 318.251 3
-6 21 12 244.326 187.328 2
21 -6 -12 5.12964 441.696 2
-15 -6 12 395.889 371.643 1
-6 -15 -12 436.029 313.93 4
-6 21 12 347.737 146.029 3
-6 -15 -9 278.109 153.476 1
-6 21 9 391.895 226.174 2
21 -6 -9 -11.1403 302.952 2
-15 -6 9 19.3798 223.128 1
-6 -15 -9 223.61 276.558 4
-6 21 9 352.671 270.673 3
21 -6 -6 1784.21 740.002 2
-6 21 6 1346.11 381.263 2
-15 -6 6 963.487 418.504 1
-6 -15 -6 1177.38 455.893 4
-6 21 6 1314.65 493.832 3
-6 -15 -6 1374.24 362.525 1
-6 -15 -3 2861.97 586.522 1
21 -6 -3 3348.83 933.688 2
-6 -15 -3 1861.45 621.48 4
-6 21 3 2141.76 494.743 2
-15 -6 3 2315.9 682.564 1
-6 21 3 2742.38 772.507 3
-15 -6 0 1149.13 410.117 2
-6 -15 0 1266.16 488.519 1
21 -6 0 974.768 499.824 2
-6 -15 0 818.419 315.865 4
21 -15 0 1117.06 520.185 2
-6 21 0 1038.91 456.775 3
-15 -6 0 1381.8 570.117 1
-6 -15 3 179.518 204.061 1
-15 -6 -3 438.265 342.059 1
-15 -6 -3 374.431 300.576 2
-15 21 3 235.965 196.117 1
21 -15 -3 656.399 396.161 2
21 -6 3 588.917 384.053 2
-6 21 -3 641.42 426.999 3
-6 -15 6 -162.739 227.713 1
-15 -6 -6 266.998 236.443 2
21 -15 -6 838.99 503.143 2
21 -6 6 182.905 201.077 4
-15 -6 -6 345.645 291.797 4
-15 -6 -6 140.026 242.565 1
-6 21 -6 155.754 194.865 3
-15 21 6 416.786 332.246 1
-6 -15 9 -117.422 194.546 1
-15 -6 -9 479.543 213.381 2
21 -15 -9 363.672 291.66 2
21 -6 9 84.4897 138.027 4
-15 -6 -9 537.641 309.92 1
-15 -6 -9 -197.736 383.181 4
-15 21 9 713.464 386.824 1
-6 21 -9 476.499 341.15 3
-6 -15 12 603.208 364.219 1
-15 21 12 628.862 304.936 1
-15 -6 -12 880.034 424.598 1
21 -15 -12 805.682 595.196 2
-15 -6 -12 576.563 289.524 2
-15 -6 -12 398.644 369.747 4
-6 21 -12 1155.3 521.285 3
-5 21 10 51.7953 141.71 2
21 -5 -10 339.227 308.688 2
-16 -5 10 72.5386 165.177 1
-5 21 10 417.082 232.759 3
-5 -16 -7 1007.1 270.156 1
-5 21 7 1594.29 395.35 2
21 -5 -7 1676.59 774.341 2
-5 -16 -7 1483.3 635.724 4
-16 -5 7 347.827 309.287 1
-5 21 7 840.984 441.305 3
-5 -16 -4 1013.4 369.36 1
21 -5 -4 1311.04 719.973 2
-5 -16 -4 869.462 512.585 4
-5 21 4 991.97 353.997 2
-16 -5 4 1315.19 508.993 1
-5 21 4 1068.66 522.019 3
-16 -5 1 1888.77 625.039 2
-5 -16 -1 1619.06 453.891 1
21 -5 -1 1896 646.032 2
-5 -16 -1 1420.1 464.522 4
21 -16 1 1713.73 593.45 2
-5 21 1 1680.74 570.694 3
-16 -5 1 1787.58 545.4 1
-5 -16 2 239.656 278.664 1
-16 -5 -2 -46.0696 325.575 1
-16 -5 -2 305.104 279.869 2
-16 21 2 199.309 204.242 1
21 -5 2 229.231 330.557 2
21 -16 -2 210.459 244.314 2
-5 -16 2 370.967 295.745 4
-5 21 -2 143.841 277.155 3
-5 -16 5 -181.66 311.613 1
-16 -5 -5 123.867 234.131 2
-16 -5 -5 -232.901 138.369 1
21 -16 -5 366.529 214.748 2
21 -5 5 52.931 222.71 4
21 -5 5 40.4012 159.393 2
-5 21 -5 108.206 246.031 3
-16 21 5 -161.126 297.52 1
-5 -16 8 16.9976 209.559 1
-16 -5 -8 6.53483 207.276 1
-16 -5 -8 477.649 277.305 2
21 -16 -8 18.3858 239.127 2
21 -5 8 651.161 327.271 4
-16 -5 -8 -44.4143 200.841 4
-5 21 -8 254.79 352.654 3
-16 21 8 384.587 316.496 1
-5 -16 11 789.498 465.161 1
-16 21 11 798.667 381.989 1
21 -16 -11 365.42 305.859 2
-16 -5 -11 771.821 488.194 2
-16 -5 -11 1123.71 451.42 4
-16 -5 -11 737.169 404.551 1
-5 21 -11 805.611 502.023 3
-4 21 11 65.1406 149.328 3
21 -4 -11 291.056 275.157 2
-17 -4 11 25.8505 204.232 1
-4 -17 -11 -374.232 527.473 4
-4 21 8 137.807 113.415 2
-4 -17 -8 262.753 120.975 1
21 -4 -8 492.556 511.748 2
-4 -17 -8 394.095 342.806 4
-17 -4 8 373.786 211.289 1
-4 21 8 558.964 198.534 3
21 -4 -5 1314.89 666.192 2
-4 -17 -5 1215.86 337.684 1
-4 21 5 1282.97 344.664 2
-4 -17 -5 1429.45 594.031 4
-17 -4 5 1040.72 526.361 1
-4 21 5 1285.8 561.638 3
21 -4 -2 5653.6 1186.16 2
-4 -17 -2 3642.62 773.857 4
-4 -17 -2 4213.95 706.882 1
-4 21 2 4442.73 942.931 3
-17 -4 2 5131.14 1050.71 1
-4 -17 1 631.338 384.386 1
-17 -4 -1 401.322 308.572 1
-17 -4 -1 1016.49 505.915 2
21 -4 1 1143.77 560.612 2
-4 -17 1 996.999 470.818 4
21 -17 -1 911.375 385.058 2
-17 21 1 -36.7416 247.644 1
-4 21 -1 1232.04 497.493 3
-17 21 4 755.56 411.144 1
-4 -17 4 256.949 169.016 1
-17 -4 -4 245.526 175.118 2
-17 -4 -4 434.1 370.501 1
21 -17 -4 963.946 641.322 2
21 -4 4 125.888 333.619 4
21 -4 4 -125.431 270.477 2
-4 21 -4 309.296 319.639 3
-4 -17 7 508.959 288.367 1
-17 -4 -7 1546.26 551.84 1
-17 -4 -7 1146.66 446.687 2
21 -17 -7 1044.96 481.287 2
21 -4 7 1352.42 509.663 4
-17 -4 -7 794.975 387.364 4
-4 21 -7 1325.8 639.877 3
-17 21 7 1291.76 506.906 1
-4 -17 10 381.71 275.379 1
-17 -4 -10 565.064 329.153 1
-17 21 10 226.665 214.358 1
21 -17 -10 62.5362 202.517 2
-17 -4 -10 -160.353 295.925 2
-17 -4 -10 284.372 174.863 4
-4 21 -10 88.0115 223.741 3
-3 21 9 804.63 434.443 3
-3 21 9 695.488 197.69 2
21 -3 -9 765.559 580.446 2
-3 -18 -9 1139.27 734.519 4
-18 -3 9 605.775 469.351 1
21 -3 -6 923.324 596.586 2
-3 21 6 1496.45 331.552 2
-3 -18 -6 1501.47 373.451 1
-3 -18 -6 2631.78 830.477 4
-18 -3 6 811.779 452.794 1
-3 21 6 993.763 450.681 3
-3 -18 -3 547.758 256.828 1
21 -3 -3 787.345 419.135 2
-3 -18 -3 474.461 365.018 4
-3 21 3 534.797 256.45 2
-3 21 3 166.721 217.139 3
-18 -3 3 517.584 357.782 1
-3 -18 0 697.016 286.206 1
-18 -3 0 1683.95 612.553 1
-18 21 0 955.161 437.244 1
-18 -3 0 1745.97 614.68 2
21 -3 0 1615.39 651.907 2
-3 -18 0 1166.57 380.88 4
21 -18 0 2016.65 714.316 2
-3 21 0 1103.62 390.357 3
-3 -18 3 517.607 319.336 1
-18 21 3 1144.37 409.735 1
-18 -3 -3 1073.02 443.704 2
-18 -3 -3 1372.59 493.154 1
21 -3 3 1026.6 490.547 2
21 -18 -3 878.336 481.865 2
21 -3 3 1723.51 680.103 4
-3 -18 3 1079.3 384.948 4
-3 21 -3 942.7 471.882 3
-18 -3 -6 1568.67 558.441 1
-18 21 6 1219.78 513.469 1
-3 -18 6 640.881 412.632 1
-18 -3 -6 1451.82 579.589 2
21 -18 -6 910.1 487.169 2
21 -3 6 2570.56 844.306 4
21 -3 6 1695.98 598.808 2
-3 21 -6 1865.38 739.419 3
-3 -18 9 472.664 260.889 1
-18 21 9 825.309 415.24 1
-18 -3 -9 1424.39 583.759 2
21 -18 -9 1736.25 745.396 2
21 -3 9 1326.63 435.009 4
-18 -3 -9 699.938 314.045 4
-18 -3 -9 1167.15 522.225 1
-3 21 -9 1545.1 645.087 3
-2 21 10 285.096 289.618 3
21 -2 -10 -472.068 429.429 2
-2 -19 -10 594.371 572.219 4
-19 -2 10 264.445 350.061 1
-2 21 7 40.5401 250.985 3
-2 21 7 168.994 106.243 2
21 -2 -7 -66.8255 490.429 2
21 -19 7 391.125 143.464 4
-2 -19 -7 422.468 159.884 1
-2 -19 -7 790.182 476.693 4
-19 -2 7 542.83 347.889 1
-2 -19 -4 556.715 233.141 1
21 -2 -4 573.976 424.052 2
-2 -19 -4 626.608 436.381 4
-2 21 4 138.357 103.517 2
-2 21 4 408.288 373.742 3
-19 -2 4 659.781 507.719 1
-2 -19 -1 645.835 276.695 1
-19 -2 1 1427.55 635.675 1
-19 21 -1 534.415 245.954 1
21 -2 -1 408.506 430.827 2
-2 -19 -1 455.531 378.722 4
-2 21 1 618.259 398.731 3
-2 -19 2 51.8435 121.051 1
-19 21 2 764.43 373.717 1
-19 -2 -2 366.764 346.874 2
-19 -2 -2 101.868 159.978 1
21 -2 2 189.688 168.864 2
-2 -19 2 157.093 145.358 4
21 -19 -2 335.807 375.54 2
-2 21 -2 202.249 228.743 3
-2 -19 5 1555.3 526.046 1
-19 21 5 1283.93 566.939 1
-19 -2 -5 1518.63 642.866 2
21 -2 5 1070.1 589.331 4
21 -19 -5 1494.71 626.611 2
21 -2 5 895.279 448.33 2
-19 -2 -5 2476.79 818.576 1
-2 21 -5 1602.93 731.142 3
-2 -19 8 456.697 363.063 1
-19 21 8 397.585 297.978 1
-19 -2 -8 597.81 397.226 1
-19 -2 -8 527.825 337.908 2
21 -2 8 648.912 411.738 4
21 -19 -8 441.004 443.931 2
-2 21 -8 655.752 490.514 3
-2 -19 11 615.253 455.023 1
-19 21 11 617.476 417.339 1
21 -19 -11 264.252 427.69 2
-19 -2 -11 -272.753 192.86 2
-19 -2 -11 -289.198 269.568 4
-19 -2 -11 293.642 286.821 1
-2 21 -11 361.9 437.109 3
-1 21 8 1154.15 462.06 3
21 -1 -8 617.639 265.721 2
-1 -20 -8 745.402 462.203 4
21 -20 8 775.722 211.818 4
-1 -20 -8 440.998 145.695 1
-20 -1 8 1377.03 633.766 1
-1 21 5 122.191 204.989 3
-1 -20 -5 447.538 247.777 1
21 -1 -5 438.914 219.542 2
-1 -20 -5 753.715 376.37 4
-1 21 5 202.886 156.476 2
-20 -1 5 -95.1695 288.121 1
-1 -20 -2 1247.24 413.4 1
-20 -1 2 1893.27 600.548 1
21 -1 -2 1436.72 701.857 2
-1 -20 -2 1066.9 489.602 4
-1 21 2 983.207 463.747 3
-1 -20 1 -39.6672 177.641 1
-20 -1 -1 271.284 209.215 1
-20 21 1 660.487 368.658 1
21 -1 1 644.72 457.744 2
-1 -20 1 310.919 217.061 4
21 -20 -1 865.538 509.847 2
-1 21 -1 340.312 370.159 3
-1 -20 4 106.07 277.9 1
-20 21 4 930.15 449.018 1
21 -20 -4 905.987 533.574 2
21 -1 4 1231.27 597.451 2
-1 -20 4 219.513 246.06 4
-20 -1 -4 629.084 402.872 1
-1 21 -4 894.411 602.777 3
-1 -20 7 542.643 329.289 1
-20 -1 -7 439.579 401.681 1
-20 -1 -7 816.722 467.974 2
-20 21 7 618.487 444.213 1
21 -1 7 1178.11 675.223 4
21 -20 -7 757.484 556.347 2
-1 21 -7 1155.28 577.896 3
-1 -20 10 604.272 421.149 1
-20 21 10 55.9582 343.922 1
-20 -1 -10 83.2347 266.694 1
21 -1 10 292.861 322.444 4
21 -20 -10 369.399 445.663 2
-1 21 -10 -142.973 258.353 3
0 21 9 126.507 340.227 3
21 0 -9 -87.0223 369.909 2
0 -21 -9 109.072 356.003 4
21 -21 9 151.245 124.089 4
-21 0 9 -5.92046 322.338 1
-21 0 6 -113.843 353.873 1
0 21 6 1027.93 535.207 3
0 -21 -6 537.408 226.791 1
21 0 -6 283.275 328.382 2
21 -21 6 256.727 193.168 4
0 -21 -6 651.844 516.462 4
0 21 3 -556.171 307.399 3
0 -21 -3 589.708 258.146 1
-21 0 3 359.434 242.96 1
21 0 -3 428.54 287.784 2
0 -21 -3 542.209 426.124 4
0 21 0 79.066 310.29 3
0 -21 0 212.836 201.753 1
-21 0 0 729.269 503.558 1
21 0 0 269.185 341.393 2
-21 21 0 113.51 240.113 1
0 -21 0 62.4176 163.861 4
0 -21 3 266.575 322.606 1
-21 21 3 342.224 284.898 1
-21 0 -3 691.29 416.724 1
21 0 3 360.997 413.735 2
0 -21 3 -204.164 256.189 4
21 -21 -3 104.469 334.425 2
0 21 -3 496.054 499.606 3
0 -21 6 -253.175 320.744 1
-21 0 -6 311.281 315.749 1
-21 21 6 354.034 417.05 1
21 -21 -6 567.394 449.678 2
21 0 6 482.951 343.497 2
0 21 -6 342.762 490.622 3
-21 0 -9 1227.04 603.386 1
0 -21 9 962.846 464.152 1
-21 21 9 1584.96 606 1
21 0 9 1397.5 665.112 4
21 -21 -9 1690.69 784.561 2
0 21 -9 1732.13 784.927 3
-22 1 7 799.959 618.039 1
1 21 7 349.728 401.605 3
1 -22 -7 404.355 193.516 1
21 1 -7 977.737 751.956 2
1 -22 -7 1463.77 715.817 4
21 -22 7 309.991 147.746 4
1 21 4 105.737 265.654 3
1 -22 -4 351.532 216.38 1
-22 1 4 142.334 264.812 1
1 -22 -4 64.1274 359.237 4
1 21 1 682.562 400.402 3
1 -22 -1 328.411 212.034 1
-22 1 1 1168.09 577.034 1
21 1 -1 484.816 303.532 2
1 -22 -1 298.72 157.506 4
-22 21 -1 757.073 475.612 1
1 21 -2 1028.97 607.048 3
1 -22 2 1102.23 393.971 1
-22 21 2 1078.46 523.781 1
-22 1 -2 1166.32 488.335 1
21 1 2 833.813 494.915 2
1 -22 2 1422.11 490.376 4
21 -22 -2 769.919 430.2 2
1 21 -5 965.369 515.897 3
1 -22 5 347.692 284.672 1
-22 1 -5 1004.79 569.12 1
-22 21 5 813.305 521.935 1
21 -22 -5 1310.62 593.523 2
1 -22 5 728.902 344.808 4
21 1 5 1290.67 499.724 2
1 21 -8 1380.62 657.67 3
1 -22 8 1882.38 625.186 1
-22 21 8 1292.85 605.945 1
21 -22 -8 1776.16 765.434 2
-22 1 -8 1744.99 705.808 1
-23 2 8 561.849 418.453 1
2 21 8 -200.381 258.516 3
2 -23 -8 318.328 137.508 1
21 2 -8 -190.859 376.78 2
2 -23 -8 417.597 560.994 4
21 -23 8 102.308 139.639 4
2 -23 -8 261.106 140.268 1
2 21 5 468.625 390.262 3
2 -23 -5 684.459 271.8 1
-23 2 5 545.991 468.294 1
2 21 5 142.363 56.9765 2
21 2 -5 677.624 474.583 2
21 -23 5 295.176 170.921 4
2 -23 -5 84.7699 403.521 4
2 21 5 261.983 145.859 2
2 -23 -2 498.258 251.006 1
2 21 2 137.094 215.417 3
-23 21 -2 -257.233 184.336 1
-23 2 2 -191.522 412.007 1
21 2 -2 97.6762 206.996 2
2 -23 -2 238.461 230.748 4
2 21 -1 383.581 245.916 3
-23 21 1 222.765 171.733 1
-23 2 -1 453.569 304.237 1
21 2 1 439.363 421.341 2
2 -23 1 -55.9794 258.988 4
-23 2 -4 359.751 241.746 1
2 21 -4 698.665 481.651 3
21 2 4 216.925 313.137 2
2 -23 4 239.36 266.591 4
21 -23 -4 166.146 270.084 2
-23 21 4 -23.06 205.436 1
2 21 -7 51.4661 393.249 3
-23 21 7 715.41 439.194 1
-23 2 -7 713.651 464.355 1
21 -23 -7 1137.62 669.402 2
3 -24 -6 433.517 241.68 1
3 21 6 674.273 538.969 3
-24 3 6 276.467 482.81 1
21 3 -6 -250.686 328.168 2
21 -24 6 991.58 368.28 4
3 -24 -6 709.495 561.283 4
3 21 3 789.775 463.442 3
3 21 3 933.709 275.629 2
-24 3 3 409.434 352.386 1
21 3 -3 330.409 441.909 2
-24 21 -3 769.385 427.441 1
3 -24 -3 869.626 479.225 4
3 21 0 117.193 248.659 3
21 3 0 -148.078 266.817 2
-24 3 0 433.833 183.021 1
3 -24 0 538.565 363.985 4
-24 21 0 405.586 422.615 1
3 21 -3 2093.67 799.77 3
21 3 3 1883.5 663.359 2
3 -24 3 999.996 428.061 4
21 -24 -3 2054.52 681.079 2
-24 3 -3 1723.89 554.004 1
-24 21 3 2119.83 749.814 1
3 21 -6 804.87 449.091 3
-24 3 -6 564.61 331.464 1
-24 21 6 1019.01 534.64 1
3 -24 6 11.673 146.629 4
21 -24 -6 1391.52 599.311 2
21 3 6 337.707 432.763 2
4 21 7 313.186 307.926 3
4 -25 -7 746.803 526.077 4
4 21 4 501.172 516.98 3
-25 21 -4 -549.392 290.348 1
4 21 4 369.039 201.361 2
-25 4 4 1059.81 567.998 1
21 4 -4 698.966 523.944 2
21 -25 4 430.995 275.282 4
4 -25 -4 297.644 210.374 4
4 21 1 239.832 240.472 3
4 21 1 180.449 138.017 2
21 4 -1 223.756 409.305 2
-25 4 1 36.0656 449.112 1
4 -25 -1 -165.46 185.939 4
-25 21 -1 -269.219 251.309 1
4 21 -2 430.725 459.107 3
-25 21 2 688.167 453.316 1
21 4 2 142.563 300.97 2
4 -25 2 86.7341 152.037 4
-25 4 -2 529.15 339.976 1
4 21 -5 974.852 594.393 3
-25 4 -5 1050.88 543.214 1
-25 21 5 2379.17 804.543 1
4 -25 5 1013 452.516 4
21 4 5 721.103 510.231 2
21 -25 -5 671.398 357.148 2
-26 21 -5 -105.489 260.591 1
5 21 5 438.944 603.588 3
-26 5 5 -146.077 284.939 1
5 21 5 75.9079 89.6844 2
21 5 -5 -287.412 538.176 2
21 -26 5 -296.432 185.211 4
5 -26 -5 534.981 390.164 4
5 21 2 1199.43 534.592 3
-26 21 -2 157.541 248.887 1
5 21 2 264.452 166.302 2
21 5 -2 1077.75 532.823 2
-26 5 2 717.598 396.796 1
5 -26 -2 545.321 388.049 4
5 21 -1 932.45 602.946 3
5 21 -1 698.906 290.761 2
-26 21 1 316.85 238.781 1
21 5 1 861.226 527.208 2
5 -26 1 464.93 268.718 4
-26 5 -1 940.837 440.168 1
5 21 -4 372.358 465.854 3
-26 5 -4 61.7477 339.889 1
-26 21 4 34.7025 304.531 1
21 5 4 649.794 344.973 2
5 -26 4 -384.549 331.88 4
21 -26 -4 605.814 460.434 2
6 21 3 481.47 426.439 3
6 21 3 259.83 253.468 2
-27 21 -3 227.31 235.757 1
21 6 -3 681.315 579.946 2
-27 6 3 347.964 217.69 1
21 -27 3 159.222 231.491 4
6 -27 -3 532.927 529.938 4
6 21 0 -160.124 445.595 3
6 21 0 167.029 179.194 2
-27 21 0 549.761 447.505 1
21 6 0 712.542 424.341 2
6 -27 0 161.009 169.797 4
-27 6 0 496.278 323.248 1
6 21 -3 692.036 583.702 3
-27 6 -3 -112.576 290.299 1
6 21 -3 92.9958 289.285 2
21 6 3 659.268 579.693 2
6 -27 3 -51.2555 276.284 4
-27 21 3 -79.0137 323.034 1
-11 -11 0 1266.19 419.257 1
22 -11 0 1898.9 624.736 2
-11 22 0 1562.39 519.998 2
-11 -11 3 471.205 322.029 1
22 -11 -3 722.214 564.451 2
-11 22 3 217.172 166.577 2
-11 -11 -3 531.807 251.603 4
22 -11 3 1442.23 608.507 2
-11 -11 -3 992.128 443.497 1
-11 -11 -6 519.379 178.002 2
-11 -11 -6 330.084 240.79 1
-11 -11 6 1007.55 501.592 1
-11 22 6 621.095 274.761 2
22 -11 -6 56.853 270.682 2
-11 -11 -6 813.178 422.448 4
-11 22 6 566.327 295.539 3
-11 -11 -9 234.056 233.37 1
-11 -11 -9 105.415 93.592 2
-11 -11 9 568.303 385.722 1
-11 22 9 73.9705 205.586 2
22 -11 -9 -505.565 535.212 2
-11 22 -9 27.0379 286.683 4
-11 -11 -9 -123.852 311.162 4
-11 22 9 452.419 279.692 3
-11 22 12 1233.53 524.524 2
-11 -11 12 184.86 320.573 1
22 -11 -12 787.367 578.103 2
-11 -11 -12 531.036 247.186 2
-11 22 -12 1410.25 655.09 4
-11 -11 -12 325.46 329.693 4
-11 22 12 636.489 223.601 1
-11 22 12 411.654 303.53 3
-10 22 10 613.142 350.032 2
-12 -10 10 518.076 289.103 1
22 -10 -10 853.008 606.518 2
-12 22 -10 1460.98 729.391 4
-10 -12 -10 253.816 380.056 4
-10 -12 -10 939.764 289.594 1
-10 22 10 139.501 206.008 3
-10 -12 -7 595.806 164.041 2
-12 -10 7 154.851 203.976 1
-10 22 7 1037.07 449.589 2
-10 -12 -7 488.055 206.417 1
22 -10 -7 924.544 553.258 2
-10 -12 -7 643.621 396.358 4
22 -12 7 761.806 269.868 4
-10 22 7 1016.03 491.569 3
-12 -10 4 3343.39 757.805 1
22 -10 -4 3834.46 1074.95 2
-10 22 4 4269.7 837.133 2
-10 -12 -4 2999.5 718.974 4
-10 22 4 2862.73 711.486 3
-10 -12 -4 4332.28 741.276 1
-10 -12 -1 707.967 322.126 1
-12 -10 1 522.623 353.859 1
22 -10 -1 859.91 502.174 2
-10 -12 -1 578.077 275.694 4
22 -12 1 1482.99 608.553 2
-10 22 1 564.362 250.141 2
-12 -10 -2 3210.78 571.404 2
-10 -12 2 3486.19 787.965 1
22 -12 -2 5083.36 1075.19 2
-12 22 2 4332.4 882.415 2
-12 -10 -2 2774.95 615.406 4
22 -10 2 4710.08 981.574 2
-12 -10 -2 3666.87 751.362 1
-12 -10 -5 276.986 137.114 2
-12 -10 -5 676.366 385.96 1
-10 -12 5 -139.376 236.287 1
-12 22 5 510.024 379.43 2
22 -12 -5 1185.66 598.347 2
-12 -10 -5 -19.778 144.788 4
-12 -10 -8 758.385 245.682 2
-10 -12 8 41.4066 275.266 1
-12 22 8 655.358 408.943 2
22 -12 -8 591.53 471.782 2
-10 22 -8 1311.54 608.788 4
22 -10 8 1221.55 327.184 4
-12 -10 -8 457.809 270.202 4
-12 22 8 1261.84 460.496 3
-12 -10 -8 846.464 389.668 1
-12 22 11 172.981 216.295 2
-10 -12 11 153.876 304.242 1
22 -12 -11 1171.58 779.034 2
-12 -10 -11 -47.677 168.958 2
-10 22 -11 619.142 478.462 4
-12 22 11 282.696 205.804 1
-12 -10 -11 123.806 340.259 4
-12 -10 -11 493.647 287.209 1
-12 22 11 484.428 304.363 3
-9 22 11 5.1413 136.793 2
-13 -9 11 -148.699 288.083 1
22 -9 -11 -144.477 401.263 2
-13 22 -11 842.599 530.972 4
-9 -13 -11 -62.6888 327.167 4
-9 22 11 636.927 396.506 3
-9 22 8 1077.28 446.517 2
-13 -9 8 2.82735 226.957 1
22 -9 -8 1008.37 595.803 2
-9 -13 -8 864.616 441.944 4
-9 -13 -8 908.294 283.365 1
-9 22 8 693.436 339.491 3
-9 -13 -5 2462.87 535.6 1
-13 -9 5 2073.01 657.2 1
22 -9 -5 2483.69 829.582 2
-9 22 5 2735.79 674.374 2
-9 -13 -5 1469.16 546.303 4
-9 22 5 1739.99 585.482 3
-13 -9 2 793.283 325.502 2
22 -9 -2 1499.98 583.7 2
-9 -13 -2 491.063 293.837 1
-13 -9 2 779.126 426.044 1
-9 -13 -2 402.103 188.72 4
-9 22 2 674.688 277.362 2
22 -13 2 1099.42 544.704 2
-9 22 2 683.901 388.288 3
-13 -9 -1 4682.17 776.529 2
-9 -13 1 4241.91 820.001 1
22 -13 -1 6176.93 1140.55 2
22 -9 1 5374.28 1083.92 2
-9 22 -1 4623.33 964.664 3
-13 -9 -1 5239.04 933.831 1
-13 -9 -4 582.033 351.611 1
-13 -9 -4 240.548 159.854 2
-9 -13 4 64.8038 288.048 1
-13 22 4 6.65669 217.701 2
22 -13 -4 332.93 420.059 2
-13 -9 -4 597.244 383.193 4
-9 22 -4 -298.047 413.388 3
22 -9 4 703.483 415.34 2
-13 22 7 1118.18 387.518 1
-9 -13 7 961.351 471.943 1
-13 -9 -7 1103.99 376.167 2
-13 22 7 861.669 406.771 2
22 -13 -7 937.825 526.774 2
22 -9 7 910.989 380.053 4
-13 -9 -7 933.827 371.768 4
-13 -9 -7 1044.82 431.976 1
-9 22 -7 912.399 491.419 3
-9 -13 10 -191.597 396.864 1
-13 22 10 158.448 337.834 2
-13 -9 -10 168.795 128.185 2
22 -13 -10 284.725 376.811 2
-13 22 10 104.985 166.653 1
-13 -9 -10 436.326 296.501 4
-13 22 10 -463.644 411.863 3
-9 22 -10 -204.218 371.132 3
-13 -9 -10 409.125 308.887 1
-8 -14 -9 601.419 236.368 1
-8 22 9 -26.1637 199.154 2
22 -8 -9 174.033 262.731 2
-14 -8 9 305.434 290.139 1
-8 -14 -9 136.84 216.487 4
-8 22 9 617.721 376.521 3
-8 -14 -6 884.646 301.109 1
22 -8 -6 351.208 413.886 2
-8 22 6 1348.24 464.808 2
-14 -8 6 314.447 191.015 1
-8 -14 -6 656.955 397.351 4
-8 22 6 587.781 402.163 3
22 -8 -3 1965.45 762.526 2
-8 -14 -3 1902.52 498.103 1
-14 -8 3 1832.1 594.115 1
-8 -14 -3 1856.54 557.108 4
-8 22 3 1767.82 444.49 2
-8 22 3 1167.07 459.554 3
22 -14 3 2496.66 757.29 2
-14 -8 0 2909.34 658.948 2
-8 -14 0 2886.2 675.39 1
22 -8 0 3707.15 967.883 2
-8 -14 0 1959.8 581.417 4
22 -14 0 3656.75 888.062 2
-8 22 0 2677.6 824.62 3
-14 -8 0 2559.5 682.48 1
-14 -8 -3 526.4 225.072 1
-14 -8 -3 522.959 270.495 2
-8 -14 3 69.7635 229.967 1
22 -14 -3 1272.19 605.577 2
22 -8 3 348.201 317.085 2
-8 22 -3 437.317 310.971 3
-8 -14 6 28.2582 169.792 1
-14 -8 -6 565.534 281.946 2
-14 22 6 785.702 417.424 2
22 -14 -6 1271.77 674.553 2
-14 -8 -6 970.511 406.469 1
22 -8 6 515.348 169.822 4
-14 -8 -6 198.894 223.914 4
-14 22 6 755.96 337.749 1
-8 22 -6 -22.8285 256.108 3
-8 -14 9 706.424 308.459 1
-14 -8 -9 535.247 261.836 1
-14 -8 -9 556.478 265.962 2
22 -14 -9 474.938 368.926 2
-14 22 9 578.587 292.219 1
22 -8 9 270.427 111.894 4
-14 -8 -9 -230.869 272.446 4
-8 22 -9 842.351 512.758 3
-7 -15 -10 183.463 110.489 1
-7 22 10 219.616 132.016 2
22 -7 -10 13.9061 626.426 2
-15 -7 10 141.486 229.423 1
-7 -15 -10 -109.161 386.634 4
-7 22 10 192.779 173.445 3
-7 -15 -7 1665.03 389.125 1
-7 22 7 1822.2 515.905 2
22 -7 -7 2335.38 960.709 2
-15 -7 7 1468.63 603.676 1
-7 -15 -7 1936.24 690.084 4
-7 22 7 1074.45 535.653 3
22 -7 -4 574.19 497.822 2
-7 -15 -4 642.137 276.126 1
-7 22 4 983.936 354.97 2
-15 -7 4 302.368 395.794 1
-7 -15 -4 1.51412 170.431 4
-7 22 4 210.876 231.046 3
-15 -7 1 980.456 404.326 2
-7 -15 -1 1087.2 408.122 1
22 -7 -1 1266.5 589.263 2
-7 -15 -1 661.206 379.43 4
22 -15 1 882.642 462.528 2
-15 -7 1 1791.18 643.236 1
-7 22 1 1022.4 404.48 3
-15 -7 -2 1211.71 550.933 1
-15 -7 -2 477.113 293.932 2
-7 -15 2 990.577 454.77 1
22 -15 -2 1401.02 653.712 2
22 -7 2 876.099 539.721 2
-7 -15 2 554.104 337.477 4
-7 22 -2 468.234 347.189 3
-7 -15 5 546.229 335.309 1
-15 -7 -5 175.582 202.04 2
-15 -7 -5 205.999 280.333 1
22 -15 -5 875.397 594.485 2
-15 22 5 476.819 318.567 1
22 -7 5 714.86 373.612 4
-15 -7 -5 327.031 259.429 4
-7 22 -5 104.088 205.117 3
22 -7 5 592.226 516.912 2
-15 -7 -8 264.55 237.641 1
-7 -15 8 -319.244 328.252 1
-15 -7 -8 919.016 435.61 2
-15 22 8 248.905 139.877 1
22 -15 -8 770.642 683.007 2
22 -7 8 67.6333 116.971 4
-15 -7 -8 34.2141 173.492 4
-7 22 -8 316.913 589.858 3
-7 -15 11 555.328 260.149 1
22 -15 -11 577.985 461.181 2
-15 -7 -11 1076.96 437.487 2
-15 -7 -11 577.859 363.655 1
-15 -7 -11 412.589 357.098 4
-15 22 11 654.475 360.366 1
-7 22 -11 796.046 561.579 3
-6 22 11 393.943 251.41 2
22 -6 -11 -262.617 583.478 2
-16 -6 11 468.701 407.916 1
-6 -16 -11 516.186 649.667 4
-6 22 11 112.117 174.321 3
-6 22 8 1049.69 331.493 2
-6 -16 -8 819.809 217.245 1
22 -6 -8 1221.44 770.922 2
-16 -6 8 641.548 418.18 1
-6 -16 -8 791.737 485.989 4
-6 22 8 999.914 433.203 3
22 -6 -5 506.395 389.279 2
-6 22 5 32.7408 151.802 2
-6 -16 -5 98.403 303.043 4
-16 -6 5 -10.7746 223.519 1
-6 -16 -5 110.035 176.109 1
-6 22 5 47.7034 314.752 3
-6 -16 -2 1618.67 456.899 1
22 -6 -2 3245.62 964.509 2
-6 -16 -2 1607.09 500.313 4
-6 22 2 1370.8 434.727 2
-16 -6 2 2404.33 764.294 1
22 -16 2 2836.37 864.927 2
-6 22 2 1985.8 677.461 3
-16 -6 -1 177.952 198.903 1
-16 -6 -1 70.3878 182.351 2
-6 -16 1 264.279 257.497 1
22 -6 1 897.437 507.852 2
-6 -16 1 296.467 236.796 4
22 -16 -1 -227.633 257.753 2
-6 22 -1 38.5749 278 3
-6 -16 4 401.257 158.653 1
-16 -6 -4 339.355 201.227 2
-16 -6 -4 413.465 320.556 1
-16 22 4 255.351 129.472 1
22 -16 -4 316.847 331.885 2
22 -6 4 966.851 560.56 4
22 -6 4 280.841 399.625 2
-6 22 -4 528.143 380.358 3
-16 -6 -7 151.717 205.833 1
-6 -16 7 87.6852 247.969 1
-16 -6 -7 58.4178 126.368 2
-16 22 7 313.053 274.464 1
22 -16 -7 727.161 648.807 2
22 -6 7 620.161 306.124 4
-16 -6 -7 331.741 306.607 4
-6 22 -7 476.692 502.134 3
-16 -6 -10 456.993 336.13 1
-6 -16 10 -321.557 238.583 1
22 -16 -10 873.354 607.119 2
-16 -6 -10 -128.028 202.708 2
-16 -6 -10 50.6402 203.844 4
-16 22 10 763.245 423.567 1
-6 22 -10 652.652 459.483 3
-5 -17 -9 576.936 179.176 1
-5 22 9 1071.55 299.283 2
22 -5 -9 1096.74 693.692 2
-5 -17 -9 1005 540.213 4
-17 -5 9 922.191 504.237 1
-5 22 9 569.216 300.03 3
22 -5 -6 1727.61 672.224 2
-5 22 6 1956.41 482.27 2
-5 -17 -6 1587.07 666.823 4
-17 -5 6 1488.4 645.973 1
-5 -17 -6 1972.88 404.916 1
-5 22 6 1340.27 518.145 3
-5 -17 -3 1675.64 445.19 1
22 -5 -3 2402.19 823.808 2
-5 -17 -3 1539.91 607.097 4
-5 22 3 1098.77 361.317 2
-17 -5 3 1605.77 666.873 1
-5 22 3 1331.95 447.211 3
-17 -5 0 90.8338 195.036 1
-17 -5 0 572.302 299.104 2
-5 -17 0 530.894 283.559 1
22 -5 0 398.533 375.132 2
-5 -17 0 208.078 150.918 4
22 -17 0 479.224 379.697 2
-5 22 0 436.574 351.433 3
-5 -17 3 482.821 247.056 1
-17 -5 -3 958.143 407.222 2
-17 -5 -3 938.206 434.149 1
-17 22 3 588.433 368.209 1
22 -17 -3 454.135 355.106 2
22 -5 3 686.541 406.032 2
-5 -17 3 277.683 223.377 4
-5 22 -3 437.692 337.167 3
-5 -17 6 642.228 383.794 1
-17 -5 -6 584.938 267.237 2
-17 22 6 1079.5 487.853 1
22 -17 -6 560.691 446.295 2
22 -5 6 1334.6 585.574 4
-17 -5 -6 465.332 329.763 1
-5 22 -6 971.708 551.061 3
-5 -17 9 463.274 337.306 1
-17 -5 -9 1266.33 505.594 2
22 -17 -9 1677.84 769.546 2
22 -5 9 770.572 381.508 4
-17 -5 -9 383.469 173.536 1
-17 -5 -9 667.524 369.251 4
-17 22 9 521.65 344.007 1
-5 22 -9 1162.74 694.491 3
-4 22 10 411.127 372.911 3
-4 22 10 351.05 178.285 2
22 -4 -10 220.73 493.763 2
-4 -18 -10 170.1 335.502 4
-18 -4 10 510.362 372.712 1
-4 22 7 131.841 122.203 2
22 -4 -7 -302.792 326.352 2
-4 -18 -7 407.058 498.486 4
-18 -4 7 -302.338 277.793 1
-4 -18 -7 487.97 204.852 1
-4 22 7 47.5262 258.924 3
-4 -18 -4 1372.41 410.654 1
22 -4 -4 841.025 380.307 2
-4 -18 -4 831.069 368.579 4
-4 22 4 938.046 251.836 2
-18 -4 4 651.635 440.742 1
-4 22 4 308.791 289.105 3
-18 -4 1 813.109 448.495 1
-4 -18 -1 446.605 250.487 1
22 -4 -1 748.837 480.298 2
-4 -18 -1 185.579 267.758 4
22 -18 1 606.069 306.831 2
-4 22 1 87.192 369.558 3
-4 -18 2 71.0976 179.63 1
-18 -4 -2 464.47 363.183 1
-18 -4 -2 334.105 305.029 2
22 -4 2 606.85 416.133 2
-4 -18 2 -92.9516 262.958 4
22 -18 -2 422.55 344.521 2
-18 22 2 303.511 277.688 1
-4 22 -2 656.718 558.482 3
-4 -18 5 1280.55 392.279 1
-18 -4 -5 1120.48 503.575 2
22 -18 -5 2266.58 900.883 2
-18 22 5 1046.17 399.156 1
22 -4 5 2926.47 981.177 4
-18 -4 -5 1707.75 588.525 1
22 -4 5 1686.15 673.249 2
-4 22 -5 1912.48 758.904 3
-4 -18 8 939.368 334.738 1
-18 -4 -8 1022.84 508.519 1
-18 -4 -8 1246 483.082 2
22 -18 -8 1767.05 830.391 2
22 -4 8 716.367 313.049 4
-18 -4 -8 520.318 255.254 4
-18 22 8 1509.36 590.368 1
-4 22 -8 1219.54 615.681 3
-18 -4 -11 444.655 333.332 2
-18 -4 -11 258.758 321.862 4
-4 22 -11 1178.29 653.88 3
-3 22 8 1025.66 466.307 3
-3 -19 -8 792.702 208.937 1
-3 22 8 626.341 187.49 2
22 -3 -8 1557.28 813.341 2
-3 -19 -8 1133.83 596.088 4
22 -19 8 547.446 164.919 4
-19 -3 8 986.562 433.86 1
-3 -19 -5 722.947 298.325 1
22 -3 -5 85.1236 233.664 2
-3 22 5 607.562 188.142 2
-3 -19 -5 771.861 525.993 4
-19 -3 5 -208.376 314.578 1
-3 22 5 717.103 382.925 3
-19 -3 2 1447.02 631.632 1
-3 -19 -2 921.294 281.85 1
22 -3 -2 1069.02 526.83 2
-3 -19 -2 166.571 193.272 4
-3 22 2 1247.61 541.184 3
-19 22 1 497.008 230.143 1
-3 -19 1 309.683 188.001 1
-19 -3 -1 299.898 159.461 1
22 -3 1 852.91 491.195 2
-3 -19 1 217.612 145.272 4
22 -19 -1 382.825 344.309 2
-3 -19 4 1271.87 474.086 1
-19 -3 -4 1728.92 599.892 2
-19 -3 -4 2161.94 693.423 1
22 -19 -4 1981.97 681.759 2
22 -3 4 2271.81 858.091 4
22 -3 4 1665.37 697.624 2
-3 -19 4 614.496 278.126 4
-19 22 4 1144.68 511.646 1
-3 22 -4 1778.99 670.06 3
-3 -19 7 556.119 348.729 1
-19 -3 -7 579.12 361.688 1
-19 -3 -7 637.365 398.578 2
22 -19 -7 1406.71 736.577 2
22 -3 7 965.257 527.444 4
-19 22 7 760.636 423.278 1
-3 22 -7 955.401 626.556 3
-3 -19 10 710.163 430.704 1
-19 -3 -10 153.705 398.22 1
-19 22 10 729.524 433.29 1
22 -3 10 854.936 346.476 4
-19 -3 -10 888.911 432.639 2
22 -19 -10 607.276 579.653 2
-19 -3 -10 1277.69 472.788 4
-3 22 -10 679.775 515.01 3
-2 22 9 114.799 189.752 3
22 -2 -9 876.378 629.239 2
-2 -20 -9 23.4281 278.071 4
-20 -2 9 323.946 292.151 1
-2 22 6 527.586 482.081 3
-2 -20 -6 368.41 198.839 1
22 -2 -6 28.8611 416.854 2
-2 22 6 466.91 204.983 2
-2 -20 -6 907.125 559.468 4
-20 -2 6 198.515 222.641 1
-20 -2 3 -175.341 330.923 1
-2 -20 -3 161.211 145.243 1
-2 -20 -3 113.122 304.001 4
-2 22 3 254.405 289.556 3
-2 -20 0 327.372 203.342 1
-20 -2 0 581.545 426.698 1
-20 22 0 -137.768 232.535 1
22 -2 0 780.457 525.442 2
-2 -20 0 134.818 165.351 4
22 -20 0 23.7941 383.658 2
-2 22 0 387.923 276.666 3
-2 -20 3 288.55 237.242 1
-20 -2 -3 745.118 433.632 1
22 -2 3 629.732 512.075 2
-2 -20 3 279.994 216.024 4
22 -20 -3 1598.56 704.747 2
-20 22 3 408.325 332.964 1
-2 22 -3 217.907 200.619 3
-20 22 6 616.339 397.176 1
-20 -2 -6 1043.09 435.431 1
-2 -20 6 916.91 282.351 1
-20 -2 -6 1199.34 517.037 2
22 -2 6 1202.11 623.596 4
22 -20 -6 857.946 487.939 2
22 -2 6 1277.04 533.596 2
-2 22 -6 466.092 472.575 3
-2 -20 9 -198.71 279.719 1
-20 22 9 719.15 373.045 1
-20 -2 -9 69.8881 157.942 2
22 -2 9 473.715 367.053 4
22 -20 -9 376.185 358.068 2
-20 -2 -9 145.566 318.511 1
-2 22 -9 966.027 592.625 3
-1 22 7 -35.3254 184.815 3
22 -1 -7 287.115 404.326 2
-1 -21 -7 162.779 122.755 1
22 -21 7 125.519 117.477 4
-21 -1 7 468.708 432.257 1
-1 22 4 -114.602 360.244 3
-21 -1 4 -104.521 229.851 1
-1 -21 -4 192.907 183.591 1
22 -1 -4 -157.579 299.014 2
-1 -21 -4 561.188 499.129 4
-1 22 4 314.858 131.029 2
-1 -21 -1 285.767 237.247 1
-21 -1 1 755.566 511.23 1
22 -1 -1 580.716 426.65 2
-1 -21 -1 494.268 343.182 4
-21 22 -1 338.607 214.074 1
-1 22 1 580.439 500.094 3
-21 22 2 990.643 502.132 1
-1 -21 2 893.262 414.638 1
-21 -1 -2 1715.72 639.537 1
22 -1 2 1265.79 618.231 2
-1 -21 2 974.302 446.246 4
22 -21 -2 1207.42 560.442 2
-1 22 -2 824.209 437.947 3
-1 -21 5 461.874 246.204 1
-21 22 5 372.968 304.787 1
22 -21 -5 1050.39 548.832 2
-1 -21 5 696.715 299.133 4
22 -1 5 1314.5 557.481 2
-21 -1 -5 1206.98 535.667 1
-1 22 -5 930.848 504.851 3
-1 -21 8 982.281 446.579 1
-21 22 8 1291.97 568.387 1
-21 -1 -8 1323.28 603.67 1
22 -1 8 1505.9 632.695 4
22 -21 -8 2344.24 851.1 2
-1 22 -8 2376.31 904.038 3
0 22 8 -180.139 271.787 3
0 -22 -8 180.399 125.438 1
22 0 -8 -171.502 283.671 2
0 -22 -8 92.8021 88.5257 1
0 -22 -8 298.392 403.244 4
22 -22 8 91.5311 125.319 4
-22 0 8 427.55 198.76 1
0 22 5 -264.071 393.267 3
-22 0 5 -67.8344 367.082 1
0 -22 -5 376.38 226.824 1
22 0 -5 848.188 656.025 2
0 -22 -5 286.704 546.043 4
0 22 5 30.2209 88.2184 2
0 22 2 312.427 300.087 3
0 -22 -2 335.126 226.22 1
-22 0 2 726.496 395.04 1
22 0 -2 626.306 315.739 2
0 -22 -2 720.822 404.024 4
-22 22 -2 235.226 294.234 1
0 22 -1 2363.54 715.406 3
0 -22 1 1447.82 444.066 1
-22 22 1 1695.67 614.103 1
-22 0 -1 2303.89 768.056 1
22 0 1 1421.61 581.577 2
0 -22 1 1231.16 480.612 4
22 -22 -1 1976.52 704.764 2
0 -22 4 671.087 353.021 1
-22 22 4 936.654 499.27 1
22 0 4 1312.13 579.224 2
0 -22 4 1088.47 485.438 4
22 -22 -4 612.484 411.145 2
-22 0 -4 1467.75 639.838 1
0 22 -4 616.178 571.736 3
0 -22 7 421.728 322.65 1
-22 0 -7 652.759 292.135 1
-22 22 7 1522.73 582.575 1
22 -22 -7 1081.24 558.863 2
0 22 -7 763.898 667.365 3
1 22 6 198.579 402.885 3
-23 1 6 315.661 414.834 1
1 -23 -6 138.288 141.22 1
22 1 -6 1356.67 830.27 2
22 -23 6 142.817 216.574 4
1 -23 -6 375.974 365.69 4
1 22 3 523.763 321.765 3
1 -23 -3 315.171 175.089 1
-23 1 3 554.246 474.447 1
-23 22 -3 591.871 414.201 1
22 1 -3 972.441 597.281 2
1 -23 -3 -166.556 213.201 4
1 22 0 -84.2761 360.919 3
1 -23 0 392.149 272.07 1
-23 22 0 339.357 397.028 1
-23 1 0 857.408 600.298 1
22 1 0 286.6 181.671 2
1 -23 0 558.291 412.985 4
1 22 -3 1651.68 712.207 3
1 -23 3 1033.37 486.048 1
-23 22 3 1403.51 536.435 1
22 1 3 1712.62 720.962 2
1 -23 3 1305.23 532.96 4
-23 1 -3 1979.85 691.264 1
22 -23 -3 1474.21 551.512 2
1 22 -6 1186.28 649.618 3
1 -23 6 985.37 496.857 1
-23 1 -6 535.766 393.559 1
-23 22 6 290.448 289.527 1
22 -23 -6 360.518 439.49 2
1 -23 6 632.343 372.374 4
22 1 6 474.878 266.782 2
2 22 7 318.553 258.253 3
-24 2 7 565.318 517.243 1
2 -24 -7 149.287 139.488 1
22 2 -7 -242.795 455.964 2
2 -24 -7 46.1338 101.388 1
2 -24 -7 776.464 568.794 4
22 -24 7 281.29 202.259 4
2 22 4 512.573 440.43 3
2 -24 -4 255.029 222.434 1
-24 2 4 334.141 350.738 1
22 2 -4 311.359 246.66 2
2 -24 -4 442.331 459.928 4
2 -24 -1 387.788 252.57 1
2 22 1 162.197 335.748 3
-24 2 1 431.425 362.16 1
22 2 -1 -256.921 305.817 2
-24 22 -1 380.366 336.478 1
2 -24 -1 87.9879 174.937 4
2 22 -2 483.031 494.33 3
-24 22 2 35.233 308.828 1
22 2 2 216.554 341.07 2
-24 2 -2 958.28 504.057 1
2 -24 2 321.181 383.759 4
22 -24 -2 325.674 468.046 2
2 22 -5 2018.16 764.319 3
-24 2 -5 1154.08 600.229 1
-24 22 5 894.446 463.474 1
2 -24 5 371.024 285.414 4
22 2 5 1271.19 589.258 2
22 -24 -5 1930.27 777.248 2
3 -25 -5 -62.6002 131.559 1
3 22 5 -424.368 361.687 3
-25 3 5 150.576 216.004 1
3 22 5 129.503 108.323 2
22 -25 5 159.437 223.193 4
3 -25 -5 513.394 376.628 4
3 22 5 184.144 108.261 2
3 22 2 469.931 379.287 3
-25 3 2 325.094 287.218 1
22 3 -2 -6.32635 386.781 2
3 -25 -2 99.5112 220.536 4
-25 22 -2 -233.85 386.195 1
3 22 -1 789.427 644.042 3
-25 22 1 148.24 434.23 1
22 3 1 606.508 421.885 2
-25 3 -1 549.439 558.015 1
3 -25 1 483.187 350.973 4
3 22 -4 820.268 492.257 3
-25 3 -4 908.104 571.87 1
22 3 4 843.943 494.242 2
3 -25 4 125.957 203.991 4
-25 22 4 218.63 398.244 1
22 -25 -4 578.142 451.055 2
4 22 3 82.2531 338.041 3
4 22 3 518.546 277.519 2
-26 22 -3 -285.609 293.696 1
-26 4 3 221.319 398.106 1
22 4 -3 451.583 371.834 2
4 -26 -3 100.741 316.247 4
4 22 0 461.216 472.532 3
-26 4 0 -327.289 318.976 1
4 -26 0 88.2641 223.833 4
-26 22 0 306.058 213.065 1
4 22 -3 1153.12 662.824 3
22 4 3 386.846 251.621 2
4 -26 3 66.8989 245.571 4
-26 22 3 826.374 534.453 1
-26 4 -3 298.333 399.23 1
5 22 1 -457.934 552.579 3
5 22 1 411.88 298.25 2
22 5 -1 24.6421 193.594 2
-27 5 1 978.281 533.387 1
5 -27 -1 415.77 387.245 4
-27 22 -1 -317.284 363.201 1
5 22 -2 682.884 620.968 3
5 22 -2 88.0766 194.812 2
22 5 2 608.283 397.457 2
5 -27 2 432.572 390.744 4
-11 23 11 983.704 423.162 2
-11 -12 -11 377.648 139.276 2
-12 -11 11 341.168 329.564 1
23 -11 -11 415.481 517.693 2
-11 -12 -11 427.293 265.444 1
-12 23 -11 1202.6 594 4
-11 -12 -11 826.354 592.587 4
-11 23 11 761.117 385.939 3
-11 -12 -8 718.11 196.576 2
-12 -11 8 859.996 511.97 1
-11 23 8 1241.85 474.315 2
23 -11 -8 249.921 328.324 2
23 -12 8 666.067 229.589 4
-11 -12 -8 530.647 356.452 4
-11 -12 -8 634.962 322.091 1
-11 23 8 279.53 180.546 3
-11 -12 -5 341.838 293.401 1
-12 -11 5 904.342 449.041 1
-11 23 5 598.649 375.836 2
23 -11 -5 207.664 332.169 2
-11 -12 -5 385.448 354.176 4
-11 23 5 282.435 244.44 3
-12 -11 2 376.085 394.373 1
23 -11 -2 698.25 407.734 2
-11 23 2 462.174 311.55 2
-11 -12 -2 -40.794 258.059 4
-11 -12 -2 35.8537 176.513 1
23 -12 2 543.292 349.866 2
-11 -12 1 657.329 308.64 1
23 -12 -1 738.063 412.658 2
23 -11 1 -138.712 219.047 2
-12 -11 -1 427.267 161.704 1
-12 23 1 762.503 356.976 2
-12 -11 -4 427.721 273.862 1
-12 -11 -4 212.277 183.054 2
-11 -12 4 199.943 273.045 1
23 -12 -4 938.353 476.878 2
-12 23 4 490.971 246.639 2
-12 -11 -4 460.555 261.928 4
-12 -11 -7 281.546 70.3607 2
-11 -12 7 243.207 188.681 1
-12 23 7 573.357 381.41 2
23 -12 -7 64.4483 229.563 2
-12 -11 -7 551.127 306.95 1
-12 -11 -7 -276.652 244.795 4
23 -11 7 130.965 173.344 4
-12 23 7 37.0825 161.613 3
-12 23 10 329.855 212.615 2
-11 -12 10 63.7076 246.895 1
-12 -11 -10 30.0568 64.5547 2
23 -12 -10 8.93067 467.471 2
-11 23 -10 531.327 240.374 4
-12 -11 -10 198.036 174.818 1
-12 -11 -10 455.217 364.922 4
-12 23 10 73.7051 249.122 3
-10 -13 -9 1466.39 423.97 1
-10 23 9 2085.93 603.48 2
-13 -10 9 1123.09 460.041 1
23 -10 -9 1371.61 740.87 2
-10 -13 -9 701.379 387.602 4
-10 23 9 1101.17 456.09 3
-10 -13 -6 599.015 309.74 1
-13 -10 6 238.348 240.88 1
-10 23 6 683.588 338.281 2
23 -10 -6 651.12 618.45 2
-10 -13 -6 208.438 318.55 4
-10 23 6 -32.867 338.162 3
-13 -10 3 76.9767 251.538 1
23 -10 -3 713 468.591 2
-10 23 3 407.019 322.988 2
-10 -13 -3 386.645 321.31 4
-10 -13 -3 149.099 246.282 1
-10 23 3 -68.7244 238.154 3
23 -13 3 923.055 470.898 2
-13 -10 0 676.543 292.867 2
-10 -13 0 687.765 323.243 1
23 -10 0 1092.66 513.975 2
23 -13 0 997.316 503.635 2
-13 -10 0 735.785 341.971 1
-10 -13 0 176.236 216.008 4
-10 23 0 955.328 396.993 3
-10 23 0 1267.22 454.078 2
-13 -10 -3 1719.59 548.148 1
-13 -10 -3 1885.66 488.875 2
-10 -13 3 1976.78 624.079 1
23 -13 -3 2395.98 744.118 2
-13 23 3 1845.05 601.354 2
-13 -10 -3 1028.39 400.574 4
23 -10 3 1428.12 574.214 2
-13 -10 -6 662.053 257.486 2
-10 -13 6 177.118 275.704 1
-13 -10 -6 220.842 124.545 1
-13 23 6 206.192 225.664 2
-13 -10 -6 180.751 251.699 4
23 -10 6 714.868 450.653 4
-13 -10 -9 350.702 268.286 1
-10 -13 9 -4.18085 257.053 1
-13 23 9 305.992 179.597 1
-13 -10 -9 212.411 113.783 2
-13 23 9 423.504 341.39 2
23 -13 -9 -265.882 328.258 2
23 -10 9 119.269 102.97 4
-13 -10 -9 84.5014 286.568 4
-10 23 -9 116.52 263.094 3
-13 23 9 336.309 253.778 3
-9 23 10 227.392 163.741 2
-14 -9 10 164.176 212.746 1
23 -9 -10 -32.0966 324.969 2
-9 -14 -10 -711.672 466.25 4
-9 -14 -10 -17.0397 148.289 1
-9 23 10 194.176 310.678 3
-9 -14 -7 -7.32508 137.426 1
-9 23 7 427.216 130.28 2
23 -9 -7 209.617 287.324 2
-14 -9 7 154.147 283.613 1
-9 -14 -7 -274.336 261.153 4
-9 23 7 513.978 325.464 3
23 -9 -4 1286.17 644.861 2
-14 -9 4 -158.781 326.775 1
-9 23 4 1131.06 423.023 2
-9 -14 -4 476.135 289.287 4
-9 -14 -4 265.246 236.77 1
-9 23 4 247.094 340.791 3
-14 -9 1 714.554 322.247 2
-9 -14 -1 643.67 414.493 1
23 -9 -1 293.159 272.838 2
-9 -14 -1 841.121 355.486 4
-14 -9 1 308.676 209.001 1
23 -14 1 576.307 465.433 2
-9 23 1 65.8031 204.694 3
-9 23 1 617.678 288.693 2
-14 -9 -2 499.857 338.403 1
-14 -9 -2 551.559 280.049 2
-9 -14 2 145.44 167.659 1
23 -14 -2 908.398 548.764 2
23 -9 2 802.511 463.203 2
-9 23 -2 667.949 425.901 3
-14 -9 -5 697.835 328.571 2
-9 -14 5 -4.941 282.709 1
-14 -9 -5 891.548 419.099 1
23 -14 -5 1269.8 655.577 2
-14 -9 -5 430.93 303.775 4
-9 23 -5 -346.42 319.611 3
23 -9 5 804.399 517.914 2
-14 -9 -8 704.67 392.05 1
-14 23 8 599.706 305.513 1
-9 -14 8 236.37 258.943 1
-14 -9 -8 358.952 271.925 2
23 -14 -8 630.561 595.836 2
23 -9 8 260.279 180.103 4
-14 -9 -8 23.318 300.926 4
-9 23 -8 257.866 332.087 3
-9 -14 11 -31.5169 222.705 1
-14 23 11 18.3856 145.565 1
-14 -9 -11 198.557 264.188 1
-14 -9 -11 136.454 165.061 2
23 -14 -11 -209.546 441.017 2
-14 -9 -11 -594.333 395.411 4
-14 23 11 337.31 381.275 3
-9 23 -11 -338.143 481.191 3
-8 23 11 -190.572 176.107 2
23 -8 -11 -68.4064 309.649 2
-8 -15 -11 -767.226 572.83 4
-8 23 11 346.591 323.481 3
-8 23 8 -25.9016 115.27 2
23 -8 -8 -4.51272 408.884 2
-8 -15 -8 178.095 171.616 1
-15 -8 8 -12.7835 371.101 1
-8 -15 -8 92.5435 217.117 4
-8 23 8 79.9477 250.326 3
23 -8 -5 484.853 419.851 2
-8 23 5 886.713 307.32 2
-15 -8 5 181.245 309.548 1
-8 -15 -5 1019.42 460.475 4
-8 -15 -5 179.707 151.535 1
-8 23 5 101.971 218.384 3
-15 -8 2 231.836 161.432 2
-8 -15 -2 398.748 278.359 1
23 -8 -2 784.273 449.823 2
-8 -15 -2 866.418 383.479 4
-15 -8 2 184.708 328.067 1
-8 23 2 850.702 358.574 2
23 -15 2 662.899 465.2 2
-8 23 2 621.983 416.128 3
-15 -8 -1 922.809 373.829 1
-15 -8 -1 816.402 365.656 2
-8 -15 1 756.979 377.075 1
23 -8 1 787.133 491.235 2
23 -15 -1 832.82 448.665 2
-8 -15 1 620.041 339.59 4
-8 23 -1 1134.82 539.944 3
-15 -8 -4 1114.23 319.031 2
-15 -8 -4 977.946 421.383 1
-8 -15 4 1299.01 574.984 1
23 -15 -4 1893.01 670.296 2
-15 -8 -4 1052.11 428.374 4
23 -8 4 1407.68 591.099 2
-8 23 -4 926.984 430.19 3
-8 -15 7 49.3872 162.437 1
-15 -8 -7 381.022 192.869 2
23 -15 -7 626.691 450.702 2
23 -8 7 -113.06 206.856 4
-15 -8 -7 70.9743 222.954 4
-15 -8 -7 358.413 320.357 1
-8 23 -7 -229.58 207.86 3
-15 23 7 3.82421 143.138 1
-8 -15 10 634.762 331.289 1
-15 23 10 828.285 393.891 1
-15 -8 -10 300.431 216.956 2
23 -15 -10 867.206 682.308 2
-15 -8 -10 71.3227 154.412 4
-15 -8 -10 516.369 321.262 1
-8 23 -10 561.648 549.541 3
-7 23 9 663.606 270.483 2
23 -7 -9 -57.7537 348.261 2
-16 -7 9 254.88 294.324 1
-7 -16 -9 448.069 385.472 4
-7 23 9 875.775 551.074 3
-7 -16 -9 599.194 256.436 1
23 -7 -6 425.909 520.091 2
-7 23 6 729.101 325.811 2
-16 -7 6 243.41 257.276 1
-7 -16 -6 325.03 389.039 4
-7 23 6 848.703 457.994 3
-7 -16 -6 401.446 227.57 1
-7 -16 -3 967.245 392.848 1
23 -7 -3 1908.06 719.107 2
-7 -16 -3 1203.23 492.692 4
-7 23 3 1589.43 502.874 2
-16 -7 3 1828.92 617.665 1
-7 23 3 967.216 393.612 3
-16 -7 0 875.045 396.055 1
-16 -7 0 1455.05 544.739 2
-7 -16 0 981.126 448.249 1
23 -7 0 1477.52 687.356 2
-7 -16 0 335.786 285.607 4
23 -16 0 1541.65 606.251 2
-7 23 0 610.483 446.327 3
-16 -7 -3 619.843 348.463 1
-16 -7 -3 596.129 222.224 2
-7 -16 3 433.473 347.701 1
23 -16 -3 667.966 516.421 2
23 -7 3 960.979 589.966 2
-7 23 -3 124.372 210.194 3
-7 -16 6 -266.337 385.102 1
-16 -7 -6 91.8188 197.535 2
23 -16 -6 171.963 311.319 2
-16 -7 -6 387.914 234.608 1
23 -7 6 79.3783 213.665 4
-16 -7 -6 -76.2523 209.092 4
-16 23 6 274.13 239.416 1
-7 23 -6 78.216 212.511 3
-7 -16 9 66.2237 199.511 1
-16 23 9 205.188 233.486 1
-16 -7 -9 723.27 346.808 1
-16 -7 -9 509.845 236.401 2
23 -16 -9 -4.32515 300.997 2
23 -7 9 95.8823 142.676 4
-16 -7 -9 -232.149 207.918 4
-7 23 -9 584.815 486.769 3
-6 23 10 152.529 116.102 2
23 -6 -10 590.008 589.925 2
-17 -6 10 349.62 287.625 1
-6 -17 -10 -119.456 347.301 4
-6 23 10 -180.564 190.859 3
-6 -17 -7 -0.23505 121.281 1
-6 23 7 539.873 271.096 2
23 -6 -7 117.012 482.941 2
-6 -17 -7 102.312 196.892 4
-17 -6 7 85.6376 220.648 1
-6 23 7 -178.143 263.826 3
23 -6 -4 122.644 286.023 2
-6 -17 -4 714.587 349.876 1
-6 -17 -4 75.8581 256.486 4
-6 23 4 950.332 390.381 2
-17 -6 4 576.202 421.318 1
-6 23 4 433.033 314.025 3
-6 -17 -1 830.051 357.167 1
23 -6 -1 1597.89 645.259 2
-6 -17 -1 775.389 457.765 4
23 -17 1 1394.75 649.094 2
-6 23 1 623.989 311.785 3
-17 -6 1 459.686 327.053 1
-17 -6 -2 346.223 254.12 1
-6 -17 2 216.943 153.747 1
-17 -6 -2 438.455 323.047 2
23 -6 2 48.748 193.815 2
23 -17 -2 269.884 313.489 2
-6 -17 2 258.373 165.347 4
-6 23 -2 -46.5001 322.711 3
-6 -17 5 545.785 258.803 1
-17 -6 -5 1070.53 451.934 2
-17 -6 -5 433.617 359.965 1
23 -17 -5 324.869 257.665 2
23 -6 5 -79.1908 389.501 4
23 -6 5 -93.6325 349.922 2
-17 23 5 522.345 376.951 1
-6 23 -5 220.375 218.719 3
-6 -17 8 304.631 312.422 1
-17 -6 -8 183.567 159.645 1
-17 23 8 -80.1962 162.478 1
-17 -6 -8 173.119 307.264 2
23 -17 -8 1110.16 647.864 2
23 -6 8 200.689 259.596 4
-17 -6 -8 -109.721 235.551 4
-6 23 -8 490.145 475.351 3
-5 -18 -8 814.837 243.775 1
-5 23 8 767.253 284.54 2
23 -5 -8 666.128 479.13 2
-5 -18 -8 1487.5 747.193 4
-18 -5 8 66.2745 190.137 1
-5 23 8 854.803 500.974 3
23 -5 -5 1497.48 731.2 2
-5 -18 -5 415.776 200.509 1
-5 23 5 1054.57 377.419 2
-5 -18 -5 725.276 444.241 4
-18 -5 5 876.547 477.702 1
-5 23 5 207.504 308.409 3
-5 -18 -2 256.787 173.332 1
23 -5 -2 588.647 501.657 2
-5 -18 -2 -125.15 259.615 4
-5 23 2 118.998 268.406 3
-18 -5 2 581.758 383.681 1
-18 -5 -1 1299.4 498.726 1
-5 -18 1 1124.99 410.741 1
-18 -5 -1 1757.63 586.163 2
23 -5 1 1444 656.493 2
-5 -18 1 1484.46 470.666 4
23 -18 -1 1782.28 739.665 2
-5 23 -1 1271.27 606.057 3
-5 -18 4 457.638 368.615 1
-18 -5 -4 1028.19 441.524 2
-18 -5 -4 617.411 399.011 1
23 -18 -4 423.801 405.639 2
23 -5 4 1169.36 649.378 4
23 -5 4 194.988 217.671 2
-5 23 -4 189.316 444.717 3
-18 23 4 256.02 224.978 1
-18 -5 -7 2348.16 700.973 1
-5 -18 7 1302.71 470.537 1
-18 23 7 2680.55 702.135 1
-18 -5 -7 2101.55 624.108 2
23 -18 -7 2650.25 918.931 2
23 -5 7 3097.06 852.028 4
-18 -5 -7 1153.97 425.901 4
-5 23 -7 3403.94 1037.48 3
-5 -18 10 385.163 223.358 1
-18 -5 -10 119.951 227.208 2
23 -5 10 424.734 278.631 4
23 -18 -10 692.455 474.239 2
-18 23 10 652.096 460.818 1
-18 -5 -10 -219.074 282.821 4
-5 23 -10 -53.6663 369.952 3
-18 -5 -10 414.743 279.444 1
-4 23 9 620.161 339.292 3
-4 23 9 553.719 220.451 2
23 -4 -9 622.56 278.309 2
-4 -19 -9 223.335 223.326 4
-4 -19 -9 263.699 121.628 1
-19 -4 9 406.196 390.657 1
23 -4 -6 -122.586 449.299 2
-4 23 6 309.488 208.01 2
-4 -19 -6 444.855 216.279 1
-4 -19 -6 227.08 357.243 4
-19 -4 6 -86.3043 452.241 1
-4 23 6 251.391 277.282 3
-4 -19 -3 843.472 351.918 1
23 -4 -3 602.565 282.31 2
-4 -19 -3 -40.3359 296.118 4
-4 23 3 -109.521 214.385 2
-4 23 3 -61.0905 230.969 3
-19 -4 3 -481.897 440.421 1
-19 -4 0 887.506 441.816 1
-4 -19 0 110.89 129.448 1
23 -4 0 457.741 278.282 2
-4 -19 0 41.179 189.229 4
23 -19 0 843.454 524.728 2
-4 23 0 614.485 548.125 3
-19 23 3 -37.4085 138.256 1
-4 -19 3 238.594 184.794 1
-19 -4 -3 517.592 346.043 2
-19 -4 -3 713.45 428.198 1
23 -4 3 280.433 383.862 2
23 -19 -3 406.721 417.165 2
23 -4 3 1003.87 502.587 4
-4 -19 3 16.8301 170.852 4
-4 23 -3 182.565 312.842 3
-4 -19 6 689.056 354.97 1
-19 -4 -6 1032.26 374.279 2
-19 23 6 1682.82 609.584 1
23 -19 -6 923.599 547.104 2
23 -4 6 887.278 280.348 4
23 -4 6 698.519 467.501 2
-19 -4 -6 1852.8 694.994 1
-4 23 -6 1451.07 743.165 3
-4 -19 9 368.802 312.329 1
-19 -4 -9 526.342 238.293 2
-19 -4 -9 617.028 376.669 1
23 -4 9 1039.9 482.456 4
23 -19 -9 891.888 531.263 2
-19 23 9 105.929 187.65 1
-19 -4 -9 604.547 460.277 4
-4 23 -9 689.528 537.391 3
-3 23 7 1036.03 507.039 3
-3 23 7 1187.43 315.56 2
23 -3 -7 2463.67 1006.56 2
23 -20 7 770.545 210.257 4
-3 -20 -7 1088.38 699.834 4
-3 -20 -7 1280.26 318.581 1
-20 -3 7 2089.54 767.385 1
-3 -20 -4 292.776 117.608 1
23 -3 -4 665.646 649.044 2
-3 -20 -4 -21.0555 178.067 4
-3 23 4 513.905 259.176 2
-3 23 4 -112.615 173.937 3
-20 -3 4 213.756 384.901 1
-20 -3 1 1559.77 567.216 1
-3 -20 -1 582.249 327.944 1
23 -3 -1 711.848 512.859 2
-3 -20 -1 664.608 466.162 4
-3 23 1 1023.44 513.053 3
-3 -20 2 198.088 258.141 1
-20 23 2 344.709 359.551 1
-20 -3 -2 855.644 488.965 1
23 -3 2 1155.83 593.138 2
-3 -20 2 6.26334 262.598 4
23 -20 -2 283.231 201.988 2
-3 23 -2 597.119 365.979 3
-3 -20 5 534.334 286.46 1
-20 -3 -5 274.383 179.46 2
-20 23 5 252.584 294.889 1
23 -3 5 737.823 717.54 4
23 -20 -5 242.956 356.543 2
-20 -3 -5 420.952 242.608 1
23 -3 5 859.683 554.282 2
-3 23 -5 768.748 417.291 3
-3 -20 8 -2.3516 293.725 1
-20 -3 -8 921.105 469.592 1
-20 -3 -8 475.97 380.705 2
23 -3 8 673.981 440.839 4
23 -20 -8 1188.47 698.804 2
-20 23 8 451.848 347.245 1
-3 23 -8 598.824 403.397 3
-2 23 8 653.11 479.035 3
23 -2 -8 -546.781 620.638 2
-2 -21 -8 622.772 447.926 4
23 -21 8 74.4314 77.1112 4
-2 -21 -8 251.668 131.389 1
-21 -2 8 -585.687 393.498 1
-2 23 5 428.236 339.799 3
-2 -21 -5 328.476 178.594 1
23 -2 -5 609.887 447.924 2
-2 23 5 613.408 226.951 2
-2 -21 -5 58.9668 204.55 4
-21 -2 5 421.314 405.366 1
-21 -2 2 637.442 451.5 1
-2 -21 -2 -43.293 108.718 1
23 -2 -2 400.008 424.885 2
-2 -21 -2 -83.227 289.175 4
-2 23 2 -623.029 448.218 3
-2 -21 1 93.7582 159.812 1
-21 23 1 246.058 292.677 1
-21 -2 -1 576.242 251.279 1
23 -2 1 423.013 331.18 2
-2 -21 1 118.187 160.707 4
23 -21 -1 826.579 496.154 2
-2 23 -1 -317.139 215.183 3
-2 -21 4 574.855 333.306 1
-21 23 4 225.905 356.533 1
-21 -2 -4 1078.31 463.111 1
23 -21 -4 -76.2808 384.675 2
23 -2 4 509.393 231.519 2
-2 -21 4 137.879 275.473 4
-2 23 -4 1035.51 641.262 3
-2 -21 7 449.884 277.674 1
-21 -2 -7 448.04 495.034 1
23 -2 7 490.702 488.072 4
23 -21 -7 867.927 686.215 2
-21 23 7 465.614 417.132 1
-2 23 -7 799.721 569.493 3
-22 -1 6 56.6685 309.019 1
-1 23 6 -162.605 290.165 3
-1 -22 -6 370.35 212.697 1
23 -1 -6 -191.482 542.256 2
-1 23 6 91.072 94.9119 2
-1 -22 -6 612.007 510.23 4
-1 23 3 124.358 247.838 3
-22 -1 3 1235.55 564.588 1
-1 -22 -3 546.77 260.135 1
23 -1 -3 135.912 228.956 2
-1 -22 -3 568.305 405.497 4
-1 -22 0 74.7813 170.48 1
-22 -1 0 529.205 460.414 1
-22 23 0 655.542 488.239 1
23 -1 0 707.422 475.99 2
-1 -22 0 535.095 367.054 4
-1 23 0 -213.823 338.468 3
-1 -22 3 1564.96 562.644 1
-22 -1 -3 1818.77 601.66 1
23 -1 3 2232.69 725.11 2
-1 -22 3 1229.58 412.461 4
-22 23 3 1272.55 524.467 1
23 -22 -3 1908 727.546 2
-1 23 -3 2086.49 780.311 3
-22 23 6 1098.03 522.888 1
-1 -22 6 389.097 256.269 1
-22 -1 -6 345.398 345.211 1
23 -22 -6 677.734 533.253 2
23 -1 6 1134.95 594.877 2
-1 23 -6 485.879 550.955 3
-23 0 7 -548.167 356.659 1
0 23 7 497.64 297.604 3
0 -23 -7 281.943 166.726 1
23 0 -7 751.734 520.282 2
23 -23 7 293.404 134.045 4
0 -23 -7 -158.603 217.486 4
0 23 4 167.608 325.328 3
-23 0 4 43.391 232.666 1
0 -23 -4 26.0499 119.421 1
23 0 -4 -549.761 444.495 2
0 -23 -4 126.555 335.443 4
0 23 4 437.583 222.319 2
-23 23 -1 396.948 305.105 1
0 23 1 160.408 410.648 3
0 -23 -1 266.821 223.069 1
-23 0 1 113.863 246.431 1
23 0 -1 192.745 297.134 2
0 -23 -1 509.707 336.936 4
0 23 -2 288.753 516.601 3
0 -23 2 -7.58605 124.931 1
-23 0 -2 839.23 440.605 1
23 0 2 1135.17 637.184 2
0 -23 2 642.972 429.402 4
23 -23 -2 454.647 448.089 2
-23 23 2 162.129 332.637 1
-23 0 -5 1352.99 553.507 1
0 -23 5 1337.48 466.251 1
-23 23 5 1538.86 639.741 1
23 -23 -5 1645.89 695.302 2
0 -23 5 751.915 356.052 4
23 0 5 2234.32 768.425 2
0 23 -5 1706.61 783.106 3
1 23 5 758.586 561.137 3
1 -24 -5 130.082 159.237 1
-24 1 5 301.782 314.155 1
23 1 -5 -57.2773 395.601 2
1 -24 -5 92.8698 256.417 4
1 23 5 82.8759 143.246 2
1 23 2 553.694 397.883 3
1 -24 -2 -96.4234 212.997 1
-24 1 2 148.08 264.437 1
-24 23 -2 248.925 259.456 1
23 1 -2 417.541 334.552 2
1 -24 -2 -59.6522 187.614 4
1 23 -1 -388.502 336.845 3
1 -24 1 264.305 222.885 1
-24 23 1 289.769 371.983 1
-24 1 -1 54.5007 308.457 1
23 1 1 390.126 327.577 2
1 -24 1 -170.195 302.071 4
1 23 -4 -342.741 262.114 3
1 -24 4 247.555 241.664 1
-24 23 4 179.301 319.165 1
23 1 4 319.745 246.332 2
1 -24 4 -6.77028 175.762 4
23 -24 -4 625.672 544.81 2
-24 1 -4 789.556 409.155 1
2 23 3 -57.9182 276.374 3
2 -25 -3 22.9662 189.434 1
-25 23 -3 144.243 370.152 1
-25 2 3 -99.0232 421.817 1
23 2 -3 -93.7991 259.497 2
2 -25 -3 -13.2057 248.186 4
2 -25 0 130.391 184.849 1
2 23 0 555.833 492.635 3
-25 23 0 44.1782 167.173 1
-25 2 0 150.383 379.877 1
23 2 0 328.051 380.377 2
2 -25 0 291.658 289.347 4
2 -25 3 227.202 140.949 1
2 23 -3 -387.561 425.724 3
-25 23 3 64.3027 327.053 1
23 2 3 -20.75 247.943 2
2 -25 3 91.2266 166.227 4
-25 2 -3 131.22 400.54 1
23 -25 -3 930.392 581.706 2
3 23 1 55.3656 264.174 3
-26 3 1 446.538 469.808 1
-26 23 -1 399.331 415.624 1
23 3 -1 364.138 289.096 2
3 -26 -1 293.049 341.047 4
3 23 -2 352.165 470.738 3
-26 23 2 312.115 304.985 1
23 3 2 517.722 325.336 2
3 -26 2 734.466 450.015 4
-26 3 -2 267.979 276.051 1
-12 -12 0 2392.43 629.557 1
24 -12 0 1919.84 629.282 2
-12 -12 3 243.63 196.725 1
24 -12 -3 1081.31 593.413 2
-12 24 3 269.699 245.287 2
-12 -12 -3 -154.952 299.3 4
24 -12 3 593.567 403.359 2
-12 -12 -3 293.006 198.827 1
-12 -12 -6 350.433 158.651 2
-12 -12 -6 444.78 242.129 1
-12 -12 6 -41.448 298.408 1
-12 24 6 663.541 404.576 2
24 -12 -6 768.773 611.461 2
-12 -12 -6 550.096 361.941 4
-12 24 6 -201.915 183.114 3
-12 -12 -9 98.3063 205.038 1
-12 -12 -9 -47.0329 75.5016 2
-12 24 9 6.77469 204.94 2
-12 -12 9 272.094 378.307 1
24 -12 -9 -119.643 384.762 2
-12 24 -9 280.89 607.441 4
24 -12 9 200.245 109.562 4
-12 -12 -9 384.123 207.3 4
-12 24 9 119.029 192.41 3
-11 24 10 463.78 342.072 2
-13 -11 10 215.934 259.098 1
-11 -13 -10 880.744 385.954 1
24 -11 -10 742.629 726.953 2
-13 24 -10 745.049 355.223 4
-11 -13 -10 513.984 360.987 4
-11 24 10 614.707 398.92 3
-11 -13 -7 449.062 276.091 1
-13 -11 7 140.728 269.486 1
-11 24 7 921.433 388.177 2
24 -11 -7 648.83 553.762 2
-11 -13 -7 840.163 524.57 4
24 -13 7 696.374 300.805 4
-11 24 7 508.679 307.8 3
-13 -11 4 100.53 269.466 1
24 -11 -4 377.99 411.885 2
-11 24 4 418.722 332.172 2
-11 -13 -4 245.579 354.262 4
-11 24 4 -1.71287 320.942 3
-11 -13 -4 67.409 128.004 1
-11 -13 -1 249.289 176.952 1
-13 -11 1 503.695 436.876 1
24 -11 -1 269.92 174.43 2
-11 -13 -1 -46.8102 151.026 4
24 -13 1 113.113 338.259 2
-11 24 1 325.148 278.402 2
-11 24 1 140.244 183.861 3
-13 -11 -2 388.64 183.93 2
-11 -13 2 784.532 436.566 1
24 -13 -2 957.398 503.578 2
-13 -11 -2 518.871 200.178 4
24 -11 2 612.707 454.691 2
-13 -11 -2 700.64 343.641 1
-13 -11 -5 701.946 254.96 2
-13 -11 -5 989.633 399.686 1
-11 -13 5 820.627 422.1 1
-13 24 5 110.404 297.213 2
24 -13 -5 1361.78 706.912 2
-13 -11 -5 720.126 371.706 4
-13 -11 -8 194.02 162.886 2
-11 -13 8 317.498 281.201 1
-13 24 8 549.344 296.278 2
24 -13 -8 487.341 497.22 2
24 -11 8 556.821 274.194 4
-13 -11 -8 281.01 198.435 4
-13 24 8 -162.08 225.817 3
-13 -11 -8 167.325 152.086 1
-10 24 8 854.362 453.169 2
-14 -10 8 133.381 359.8 1
24 -10 -8 822.048 618.973 2
-10 -14 -8 279.72 129.233 1
-10 -14 -8 451.166 324.551 4
24 -14 8 363.104 165.318 4
-10 24 8 -214.095 163.413 3
-10 -14 -5 246.198 247.708 1
-14 -10 5 78.5187 212.858 1
24 -10 -5 377.209 436.109 2
-10 24 5 18.2754 188.929 2
-10 -14 -5 486.795 307.253 4
-10 24 5 407.406 247.998 3
24 -10 -2 -195.619 237.273 2
-10 -14 -2 576.729 283.219 1
-14 -10 2 761.29 434.854 1
-10 -14 -2 654.159 338.135 4
-10 24 2 534.179 272.148 2
24 -14 2 846.637 534.571 2
-10 24 2 -101.729 298.237 3
-14 -10 -1 304.586 113.297 2
-10 -14 1 696.493 333.525 1
24 -14 -1 557.67 437.32 2
24 -10 1 49.8739 214.09 2
-10 24 -1 164.396 312.823 3
-14 -10 -1 274.7 209.193 1
-14 -10 -4 1784.01 440.317 2
-14 -10 -4 1919.63 623.948 1
-10 -14 4 1453.34 533.885 1
24 -14 -4 1494.26 658.328 2
-14 -10 -4 1288.5 518.405 4
-10 24 -4 1727.58 728.292 3
24 -10 4 1570.93 632.692 2
-14 -10 -7 221.321 263.421 2
-10 -14 7 642.037 404.031 1
24 -14 -7 324.593 264.475 2
-14 -10 -7 -167.452 346.658 1
24 -10 7 351.678 244.319 4
-14 -10 -7 25.9204 169.048 4
-10 24 -7 478.012 335.956 3
-10 -14 10 -168.039 171.076 1
-14 -10 -10 -83.2479 183.843 2
24 -14 -10 -725.342 715.524 2
-14 -10 -10 261.166 256.402 1
-14 24 10 -11.7705 143.23 1
-14 -10 -10 290.566 315.986 4
-14 24 10 22.648 183.107 3
-10 24 -10 -164.576 282.27 3
-9 24 9 354.015 250.623 2
24 -9 -9 513.177 444.686 2
-15 -9 9 -69.7165 179.563 1
-9 -15 -9 -41.6541 278.2 4
-9 24 9 950.661 531.144 3
-9 -15 -9 353.759 215.573 1
-9 -15 -6 -8.58877 205.663 1
-9 24 6 127.123 128.73 2
24 -9 -6 -23.8109 331.035 2
-15 -9 6 126.791 229.615 1
-9 -15 -6 61.648 179.273 4
-9 24 6 337.034 355.603 3
24 -9 -3 -261.614 410.546 2
-9 -15 -3 40.7724 199.225 1
-15 -9 3 -49.4017 227.976 1
-9 24 3 166.506 144.066 2
-9 -15 -3 560.5 333.177 4
-9 24 3 52.3869 175.116 3
24 -15 3 161.336 208.324 2
-15 -9 0 1070.99 446.597 2
-9 -15 0 1129.45 479.262 1
24 -9 0 1678.11 628.793 2
-9 -15 0 464.115 269.924 4
24 -15 0 611.31 439.536 2
-9 24 0 1083.51 529.65 3
-15 -9 0 1186.42 522.196 1
-15 -9 -3 904.245 409.147 1
-15 -9 -3 974.778 422.978 2
-9 -15 3 569.269 334.716 1
24 -15 -3 1475.06 678.833 2
24 -9 3 502.447 473.918 2
-9 24 -3 520.835 392.948 3
-15 -9 -6 -5.83399 184.531 2
-9 -15 6 421.593 295.799 1
-15 -9 -6 331.11 284.862 1
24 -15 -6 992.916 542.035 2
24 -9 6 636.177 509.115 4
-15 -9 -6 304.215 304.106 4
-9 24 -6 435.748 383.624 3
-15 -9 -9 -302.553 253.917 1
-9 -15 9 -2.26167 215.424 1
-15 -9 -9 365.659 217.421 2
-15 24 9 288.832 270.047 1
24 -15 -9 700.009 548.043 2
24 -9 9 462.033 221.31 4
-15 -9 -9 -11.9892 196.568 4
-9 24 -9 73.6806 372.407 3
-8 24 10 -80.52 156.393 2
-8 -16 -10 30.4188 215.737 4
-8 24 10 -23.1816 219.406 3
-8 -16 -7 279.103 128.593 1
-8 24 7 1226.84 430.915 2
24 -8 -7 628.511 475.576 2
-16 -8 7 456.956 218.934 1
-8 -16 -7 549.777 435.514 4
-8 24 7 864.835 465.859 3
24 -8 -4 1485.07 634.81 2
-8 24 4 1203.51 389.942 2
-16 -8 4 1202.37 492.849 1
-8 -16 -4 799.034 325.666 1
-8 -16 -4 387.115 290.676 4
-8 24 4 222.368 163.756 3
-16 -8 1 242.988 184.942 2
-8 -16 -1 -169.057 267.507 1
24 -8 -1 264.589 355.433 2
-8 -16 -1 -351.068 310.395 4
24 -16 1 -174.095 246.626 2
-8 24 1 -30.9994 206.049 2
-8 24 1 -301.474 419.22 3
-16 -8 1 475.369 345.457 1
-16 -8 -2 455.923 266.665 1
-16 -8 -2 30.0573 194.318 2
-8 -16 2 -76.9753 306.56 1
24 -16 -2 591.631 464.484 2
24 -8 2 656.376 456.233 2
-8 24 -2 -154.808 322.183 3
-8 -16 5 756.452 421.203 1
-16 -8 -5 1422.31 457.186 2
-16 -8 -5 1276.09 528.68 1
24 -16 -5 1830.59 812.348 2
24 -8 5 1659.55 708.972 4
-16 -8 -5 901.695 365.951 4
-8 24 -5 1056.92 613.738 3
24 -8 5 1346.1 573.84 2
-16 -8 -8 278.936 284.659 1
-8 -16 8 557.242 361.159 1
-16 -8 -8 1024.79 489.664 2
-16 24 8 453.29 257.118 1
24 -16 -8 850.641 446.88 2
24 -8 8 467.157 284.381 4
-16 -8 -8 443.864 164.127 4
-8 24 -8 599.633 388.1 3
-7 -17 -8 1372.92 364.227 1
-7 24 8 1835.65 461.665 2
24 -7 -8 2286.21 1113 2
-17 -7 8 1420.63 624.289 1
-7 -17 -8 1661.12 670.44 4
-7 24 8 1191.61 463.348 3
24 -7 -5 224.738 436.106 2
-7 24 5 848.03 361.857 2
-7 -17 -5 533.344 457.017 4
-17 -7 5 163.886 247.325 1
-7 -17 -5 274.265 176.351 1
-7 24 5 768.682 496.841 3
-7 -17 -2 -265.196 334.99 1
24 -7 -2 16.8566 195.35 2
-7 -17 -2 322.462 225.441 4
-7 24 2 347.699 244.677 2
-17 -7 2 383.179 252.232 1
24 -17 2 -188.142 347.026 2
-7 24 2 664.947 435.75 3
-17 -7 -1 827.858 476.348 1
-17 -7 -1 1327.4 427.759 2
-7 -17 1 1249.86 486.368 1
24 -7 1 1740.86 709.806 2
-7 -17 1 280.8 234.637 4
24 -17 -1 1344.92 633.633 2
-7 24 -1 1275.15 575.044 3
-7 -17 4 1010.11 371.711 1
-17 -7 -4 816.752 362.093 2
-17 -7 -4 70.1091 173.726 1
24 -17 -4 812.951 511.818 2
24 -7 4 1237.96 583.926 2
-7 24 -4 987.926 459.696 3
-7 -17 7 531.753 332.31 1
-17 24 7 73.288 160.38 1
-17 -7 -7 603.195 321.354 2
24 -17 -7 1136.24 716.178 2
24 -7 7 251.261 201.521 4
-17 -7 -7 728.014 405.913 4
-7 24 -7 743.85 498.107 3
-17 -7 -7 783.85 416.645 1
-6 24 9 201.53 148.913 2
24 -6 -9 370.863 504.994 2
-18 -6 9 163.904 276.741 1
-6 -18 -9 574.474 269.981 4
-6 -18 -9 265.789 166.049 1
-6 24 9 398.963 366.949 3
24 -6 -6 1521.5 691.614 2
-6 24 6 1710.38 513.77 2
-6 -18 -6 610.86 417.755 4
-18 -6 6 1358.68 605.148 1
-6 -18 -6 1220.31 356.952 1
-6 24 6 1374.9 507.921 3
-6 -18 -3 343.613 253.424 1
24 -6 -3 -618.636 534.478 2
-6 -18 -3 -309.77 388.107 4
-6 24 3 387.343 258.615 2
-18 -6 3 817.15 481.872 1
-6 24 3 541.444 259.221 3
-18 -6 0 1346.2 563.571 1
-6 -18 0 551.788 410.398 1
24 -6 0 1500.9 714.028 2
-6 -18 0 493.442 342.153 4
24 -18 0 876.614 499.854 2
-6 24 0 574.078 437.713 3
-6 -18 3 408.888 294.066 1
-18 -6 -3 218.062 168.395 2
-18 -6 -3 116.625 170.62 1
24 -18 -3 390.944 216.892 2
24 -6 3 281.731 188.306 2
-6 24 -3 143.85 294.894 3
-6 -18 6 839.628 410.766 1
-18 24 6 1053.77 531.916 1
-18 -6 -6 1359.95 515.384 2
24 -18 -6 1299.05 675.091 2
24 -6 6 1995.38 716.725 4
-18 -6 -6 914.454 503.727 1
-6 24 -6 1102.77 630.038 3
-6 -18 9 552.255 381.443 1
-18 24 9 66.3838 157.615 1
-18 -6 -9 493.318 278.53 1
-18 -6 -9 503.255 252.501 2
24 -18 -9 224.427 554.959 2
24 -6 9 409.124 219.351 4
-18 -6 -9 404.982 282.774 4
-6 24 -9 547.078 582.241 3
-5 24 7 983.655 373.457 2
24 -5 -7 835.322 572.074 2
-5 -19 -7 393.767 397.423 4
-19 -5 7 476.919 455.28 1
-5 -19 -7 578.02 260.03 1
-5 24 7 1496.66 619.446 3
-5 -19 -4 245.512 148.414 1
24 -5 -4 -310.149 529.924 2
-5 -19 -4 -114.882 209.456 4
-5 24 4 347.453 212.742 2
-19 -5 4 -180.17 221.554 1
-5 24 4 -44.011 204.805 3
-19 -5 1 -77.7384 267.497 1
-5 -19 -1 346.555 219.594 1
24 -5 -1 132.139 353.209 2
-5 -19 -1 -145.357 167.506 4
24 -19 1 704.66 394.415 2
-5 24 1 207.586 416.321 3
-5 -19 2 19.8499 227.491 1
-19 -5 -2 1070.74 442.27 2
-19 -5 -2 954.397 536.522 1
24 -5 2 806.552 480.276 2
-5 -19 2 125.765 147.92 4
24 -19 -2 604.123 433.532 2
-5 24 -2 244.719 429.298 3
-5 -19 5 638.96 368.53 1
-19 -5 -5 -89.5761 225.531 2
-19 24 5 185.895 189.032 1
-19 -5 -5 517.336 399.271 1
24 -19 -5 1051.13 735.171 2
24 -5 5 985.971 694.058 4
24 -5 5 603.518 440.773 2
-5 24 -5 679.185 541.368 3
-5 -19 8 182.612 292.654 1
-19 -5 -8 310.237 182.236 1
-19 24 8 436.568 303.396 1
-19 -5 -8 12.9166 231.829 2
24 -19 -8 634.177 518.748 2
24 -5 8 341.027 202.942 4
-19 -5 -8 370.485 335.358 4
-5 24 -8 656.756 435.243 3
-4 -20 -8 329.341 173.168 1
-4 24 8 240.835 168.881 2
24 -4 -8 221.269 253.314 2
24 -20 8 208.293 112.363 4
-4 -20 -8 582.381 440.884 4
-20 -4 8 -438.939 438.972 1
-4 24 8 -227.239 382.535 3
-4 -20 -5 1008.17 374.619 1
24 -4 -5 118.295 399.578 2
-4 24 5 -21.664 203.137 2
-4 -20 -5 230.892 279.663 4
-20 -4 5 -329.019 419.853 1
-4 24 5 627.665 506.676 3
-20 -4 2 -100.909 328.399 1
-4 -20 -2 115.691 162.361 1
24 -4 -2 -76.2551 341.783 2
-4 -20 -2 -96.2843 292.358 4
-4 24 2 -125.62 369.856 3
-4 -20 1 67.4132 240.176 1
-20 -4 -1 1233.91 573.176 1
24 -4 1 620.264 492.075 2
-4 -20 1 803.335 368.931 4
24 -20 -1 1073.71 544.659 2
-4 24 -1 684.847 485.234 3
-4 -20 4 941.213 424.465 1
-20 -4 -4 1351.89 473.187 2
-20 24 4 1053.53 519.091 1
-20 -4 -4 994.124 548.359 1
24 -20 -4 571.987 287.82 2
24 -4 4 821.509 483.727 2
-4 24 -4 746.389 524.786 3
-20 -4 -7 156.274 303.849 1
-4 -20 7 199.348 164.872 1
-20 24 7 519.185 349.205 1
-20 -4 -7 158.369 327.907 2
24 -4 7 537.478 346.406 4
24 -20 -7 393.783 389.458 2
-4 24 -7 270.848 368.267 3
24 -3 -6 220.005 407.052 2
-3 -21 -6 492.908 261.549 1
-3 24 6 -34.2316 187.482 2
-3 -21 -6 1178.04 582.446 4
-21 -3 6 690.834 462.066 1
-3 24 6 101.289 284.107 3
-21 -3 3 672.949 508.645 1
-3 -21 -3 1106.83 366.252 1
24 -3 -3 1015.59 595.076 2
-3 -21 -3 1116.86 486.348 4
-3 24 3 367.338 354.786 3
-3 -21 0 450.545 330.823 1
-21 -3 0 485.698 433.226 1
24 -3 0 311.939 182.5 2
-3 -21 0 104.484 288.602 4
24 -21 0 794.76 517.84 2
-3 24 0 621.001 520.005 3
-3 -21 3 1975.12 569.004 1
-21 -3 -3 2915.84 796.195 1
-21 24 3 2512.19 736.215 1
24 -3 3 2111.31 740.887 2
-3 -21 3 1039.13 411.706 4
24 -21 -3 2479.18 797.875 2
-3 24 -3 2055.91 706.632 3
-3 -21 6 86.1041 164.104 1
-21 24 6 226.453 210.727 1
24 -21 -6 736.851 631.113 2
24 -3 6 821.823 489.859 2
-3 24 -6 756.411 508.789 3
-21 -3 -6 784.563 536.724 1
-2 24 7 -249.221 329.159 3
-2 24 7 77.0003 74.7011 2
24 -2 -7 -637.75 499.682 2
-2 -22 -7 366.247 188.514 1
24 -22 7 233.71 143.87 4
-2 -22 -7 29.5011 342.197 4
-22 -2 7 -650.456 453.474 1
-2 24 4 281.816 296.666 3
-22 -2 4 -163.254 475.339 1
-2 -22 -4 -146.97 144.09 1
24 -2 -4 39.9286 236.542 2
-2 -22 -4 415.37 486.948 4
-2 24 4 202.305 146.995 2
-2 -22 -1 511.265 280.469 1
-22 -2 1 -89.859 230.228 1
24 -2 -1 68.7496 267.651 2
-2 -22 -1 -127.416 170.587 4
-2 24 1 283.181 322.992 3
-2 -22 2 126.313 230.454 1
-22 -2 -2 780.013 188.146 1
24 -2 2 500.727 463.2 2
-2 -22 2 199.01 183.957 4
-22 24 2 32.1071 321.586 1
24 -22 -2 1006.24 616.445 2
-2 24 -2 629.81 641.753 3
-2 -22 5 1225.39 574.612 1
-22 24 5 1092.77 442.655 1
24 -22 -5 849.572 561.617 2
24 -2 5 1460.35 613.798 2
-22 -2 -5 1845.09 726.275 1
-2 24 -5 990.232 488.989 3
-1 24 5 -131.956 335.282 3
-23 -1 5 144.588 225.208 1
-1 -23 -5 286.647 205.031 1
24 -1 -5 -33.9559 291.682 2
-1 -23 -5 433.527 213.678 4
-1 24 5 24.963 97.9553 2
-1 24 2 133.299 245.645 3
-1 -23 -2 342.777 250.5 1
-23 -1 2 596.503 465.415 1
24 -1 -2 -531.889 552.499 2
-1 -23 -2 190.816 288.42 4
-23 24 1 247.384 230.989 1
-1 -23 1 26.6207 145.499 1
-23 -1 -1 3.29264 330.935 1
24 -1 1 528.158 533.801 2
-1 -23 1 -70.3582 286.133 4
24 -23 -1 748.004 548.924 2
-1 24 -1 242.709 308.854 3
-1 -23 4 524.208 406.935 1
-23 24 4 497.313 458.041 1
24 -1 4 299.413 277.596 2
-1 -23 4 50.494 197.743 4
-23 -1 -4 395.976 501.086 1
24 -23 -4 217.758 383.784 2
-1 24 -4 478.486 566.147 3
0 24 3 201.362 252.818 3
0 -24 -3 111.966 194.387 1
-24 0 3 473.351 281.067 1
24 0 -3 90.9677 284.17 2
0 -24 -3 -217.814 265.508 4
0 24 0 -91.4844 271.837 3
0 -24 0 184.335 157.394 1
-24 24 0 -230.361 417.389 1
-24 0 0 -125.21 225.653 1
24 0 0 -438.311 440.558 2
0 -24 0 453.16 338.613 4
0 24 -3 360.586 447.41 3
0 -24 3 -57.0611 171.772 1
24 0 3 85.6756 286.91 2
-24 24 3 475.901 397.882 1
-24 0 -3 395.716 327.319 1
0 -24 3 -42.5913 195.517 4
24 -24 -3 -72.6608 340.569 2
1 -25 -4 -180.692 420.418 4
1 24 1 229.687 400.017 3
1 -25 -1 -114.768 214.562 1
-25 1 1 -82.1666 202.594 1
-25 24 -1 505.836 323.558 1
24 1 -1 226.251 325.867 2
1 -25 -1 450.762 381.754 4
1 24 -2 -109.82 310.848 3
1 -25 2 52.2287 245.622 1
24 1 2 526.597 188.524 2
-25 1 -2 498.412 303.447 1
1 -25 2 -239.146 297.01 4
-25 24 2 332.576 293.958 1
24 -25 -2 32.1221 278.724 2
-12 25 8 695.37 370.61 2
-13 -12 8 202.746 258.046 1
25 -12 -8 -225.543 448.204 2
25 -13 8 1.13719 128.711 4
-12 -13 -8 -116.409 254.814 1
-12 -13 -8 132.199 276.327 4
-12 25 8 492.647 316.392 3
-12 -13 -5 464.877 235.959 1
-13 -12 5 375.889 291.841 1
-12 25 5 -73.7564 254.223 2
25 -12 -5 1098.2 537.76 2
-12 -13 -5 594.496 357.124 4
-12 25 5 897.311 448.293 3
-13 -12 2 109.577 224.49 1
25 -12 -2 651.873 517.261 2
-12 -13 -2 445.003 347.03 4
-12 -13 -2 997.864 416.741 1
25 -13 2 881.77 532.658 2
-12 -13 1 3794.03 830.047 1
25 -13 -1 5541.29 1188.3 2
25 -12 1 2822.73 792.679 2
-13 -12 -1 3511.98 803.422 1
-13 -12 -4 783.237 387.24 1
-12 -13 4 229.812 292.043 1
25 -13 -4 778.735 578.895 2
-13 -12 -4 33.4161 180.678 4
25 -12 4 1214.77 536.753 2
-13 -12 -7 372.645 147.044 2
-12 -13 7 346.254 270.538 1
-13 25 7 1017.41 544.581 2
-13 -12 -7 375.007 297.534 1
25 -13 -7 -73.6349 629.656 2
-13 -12 -7 115.479 301.798 4
25 -12 7 466.92 282.414 4
-13 25 7 -464.221 401.722 3
-11 25 9 1068.98 506.423 2
-14 -11 9 868.109 576.122 1
25 -11 -9 739.167 777.552 2
-11 -14 -9 825.852 508.228 4
-11 25 9 679.35 553.858 3
-11 -14 -9 561.698 343.345 1
-11 -14 -6 714.157 358.521 1
-14 -11 6 450.145 294.067 1
-11 25 6 477.169 350.333 2
25 -11 -6 719.955 577.833 2
-11 -14 -6 247.059 328.003 4
-11 25 6 595.693 484.371 3
-14 -11 3 188.287 201.322 1
25 -11 -3 228.27 337.633 2
-11 25 3 221.216 229.035 2
-11 -14 -3 -16.0655 214.763 4
-11 -14 -3 534.53 309.531 1
-11 25 3 -46.6785 204.448 3
25 -14 3 655.876 481.342 2
-11 -14 0 1285.49 525.425 1
25 -11 0 3270.1 960.929 2
25 -14 0 1931.89 707.715 2
-14 -11 0 1576.73 611.502 1
-11 25 0 1041.61 498.199 3
-14 -11 -3 834.361 424.291 1
-14 -11 -3 741.623 354.771 2
-11 -14 3 626.305 453.117 1
25 -14 -3 1162.1 671.018 2
-14 -11 -3 372.038 288.876 4
-11 25 -3 694.837 528.026 3
25 -11 3 803.49 469.426 2
-14 -11 -6 426.906 240.763 2
-11 -14 6 346.803 245.797 1
-14 -11 -6 650.706 392.465 1
25 -14 -6 490.363 495.791 2
-14 -11 -6 591.745 360.24 4
-11 25 -6 300.829 509.479 3
-14 -11 -9 124.531 277.668 1
-14 -11 -9 65.4707 88.3375 2
-11 -14 9 88.3596 284.997 1
25 -14 -9 822.52 724.999 2
25 -11 9 -58.0823 105.052 4
-14 -11 -9 26.3915 175.587 4
-11 25 -9 335.717 294.892 3
-14 25 9 414.716 377.894 3
-10 -15 -7 285.728 229.401 1
-10 25 7 -26.7499 140.749 2
25 -10 -7 565.364 418.99 2
-15 -10 7 304.174 397.618 1
-10 -15 -7 636.186 402.845 4
-10 25 7 648.557 320.909 3
25 -10 -4 644.319 488.642 2
-15 -10 4 -28.751 296.666 1
-10 25 4 338.786 243.246 2
-10 -15 -4 427.028 245.182 4
-10 -15 -4 278.841 231.772 1
-10 25 4 621.646 469.353 3
-15 -10 1 72.64 233.834 2
-10 -15 -1 246.851 211.237 1
25 -10 -1 671.282 512.411 2
-10 -15 -1 103.807 152.974 4
-15 -10 1 688.333 383.153 1
25 -15 1 218.202 262.645 2
-10 25 1 -374.954 325.633 2
-10 25 1 -190.938 385.955 3
-15 -10 -2 1258.95 499.204 1
-15 -10 -2 1531.02 508.304 2
-10 -15 2 821.642 351.817 1
25 -15 -2 2109.93 772.147 2
25 -10 2 1229.47 634.128 2
-10 25 -2 646.977 312.521 3
-15 -10 -5 230.052 214.255 2
-15 -10 -5 495.638 389.666 1
-10 -15 5 476.31 376.342 1
25 -15 -5 -13.1843 201.9 2
-15 -10 -5 150.003 306.788 4
-10 25 -5 -40.6097 314.375 3
25 -10 5 264.131 388.934 2
-15 -10 -8 115.981 101.943 2
-10 -15 8 208.183 184.72 1
25 -15 -8 770.366 520.032 2
25 -10 8 290.84 312.59 4
-15 -10 -8 -121.125 257.65 4
-10 25 -8 117.957 319.174 3
-15 -10 -8 479.497 233.081 1
-9 25 8 431.468 322.557 2
-9 -16 -8 402.222 180.366 1
25 -9 -8 555.427 458.051 2
-16 -9 8 408.091 378.403 1
-9 -16 -8 129.533 253.174 4
25 -16 8 517.858 213.093 4
-9 25 8 317.174 216.523 3
25 -9 -5 65.3631 389.934 2
-9 25 5 15.5111 216.248 2
-16 -9 5 -14.5286 204.026 1
-9 -16 -5 -289.257 345.478 4
-9 25 5 -224.378 326.807 3
-9 -16 -5 205.969 245.341 1
-9 -16 -2 273.074 304.356 1
25 -9 -2 -67.272 228.063 2
-9 -16 -2 -113.181 197.263 4
-16 -9 2 135.808 302.342 1
-9 25 2 -259.833 255.243 2
25 -16 2 706.946 473.288 2
-9 25 2 254.59 321.44 3
-16 -9 -1 1275.77 556.366 1
-16 -9 -1 1116.36 434.573 2
-9 -16 1 1402.91 512.027 1
25 -9 1 1413.89 635.363 2
25 -16 -1 976.746 582.132 2
-9 -16 1 587.866 364.488 4
-9 25 -1 1129.77 618.295 3
-16 -9 -4 131.502 131.128 2
-16 -9 -4 276.873 274.084 1
-9 -16 4 271.664 263.318 1
25 -16 -4 725.797 585.659 2
25 -9 4 77.4777 190.883 2
-9 25 -4 548.233 372.136 3
-9 -16 7 336.615 383.348 1
-16 -9 -7 192.334 137.33 2
25 -16 -7 471.598 379.277 2
25 -9 7 716.875 492.562 4
-16 -9 -7 61.0155 169.421 4
-16 -9 -7 929.471 501.805 1
-9 25 -7 175.375 462.361 3
25 -8 -6 900.242 609.709 2
-8 25 6 1106.97 498.396 2
-17 -8 6 1179.72 574.234 1
-8 -17 -6 878.889 487.491 4
-8 25 6 576.461 267.788 3
-8 -17 -6 614.83 212.694 1
25 -8 -3 1040.29 556.507 2
-8 -17 -3 311.239 272.025 1
-8 -17 -3 2.06396 213.368 4
-8 25 3 68.0149 214.949 2
-17 -8 3 671.36 438.095 1
-8 25 3 186.696 323.304 3
-17 -8 0 5.15307 274.97 1
-17 -8 0 459.479 331.909 2
-8 -17 0 -113.016 234.963 1
25 -8 0 1255.36 494.476 2
-8 -17 0 342.504 352.128 4
25 -17 0 741.115 385.234 2
-8 25 0 615.247 499.527 3
-17 -8 -3 377.798 301.016 2
-17 -8 -3 721.229 436.627 1
-8 -17 3 43.5231 267.586 1
25 -17 -3 -314.146 499.04 2
25 -8 3 -35.774 224.282 2
-8 25 -3 -580.096 497.813 3
-8 -17 6 483.822 263.491 1
-17 -8 -6 340.637 240.583 2
-17 -8 -6 534.282 396.424 1
25 -17 -6 365.327 388.04 2
-17 25 6 1186.26 493.105 1
25 -8 6 869.01 596.014 4
-17 -8 -6 504.968 331.319 4
-8 25 -6 687.093 329.391 3
-7 -18 -7 276.542 201.072 1
-7 25 7 273.876 298.824 2
25 -7 -7 -255.851 453.053 2
-7 -18 -7 615.164 481.127 4
-18 -7 7 45.2576 193.24 1
-7 25 7 53.6763 292.793 3
25 -7 -4 88.5798 262.981 2
-7 -18 -4 669.694 309.138 1
-7 25 4 72.0621 122.183 2
-7 -18 -4 35.6055 211.541 4
-18 -7 4 639.044 489.867 1
-7 25 4 -187.951 249.748 3
-7 -18 -1 1073.47 407.444 1
25 -7 -1 784.989 489.92 2
-7 -18 -1 819.908 446.243 4
25 -18 1 756.23 453.492 2
-7 25 1 1421.66 518.448 3
-18 -7 1 1375.93 567.703 1
-18 -7 -2 83.0095 368.336 1
-18 -7 -2 283.063 232.95 2
-7 -18 2 -68.6762 265.495 1
25 -7 2 294.431 239.503 2
25 -18 -2 160.829 250.452 2
-7 -18 2 134.216 140.551 4
-7 25 -2 171.573 396.72 3
-7 -18 5 1000.82 489.396 1
-18 -7 -5 885.297 458.766 2
-18 25 5 962.849 408.997 1
-18 -7 -5 900.548 488.462 1
25 -18 -5 1067.23 553.127 2
25 -7 5 954.8 532.083 4
25 -7 5 614.617 330.003 2
-7 25 -5 977.653 724.044 3
-18 25 8 -172.825 272.845 1
-18 -7 -8 159.683 220.726 1
-7 -18 8 120.828 187.22 1
-18 -7 -8 -136.376 315.193 2
25 -18 -8 181.935 423.827 2
25 -7 8 701.695 400.215 4
-18 -7 -8 -278.2 307.64 4
-7 25 -8 91.3688 281.709 3
-6 -19 -8 256.272 162.697 1
-6 25 8 349.118 200.66 2
25 -6 -8 211.848 363.959 2
25 -19 8 -34.02 62.1848 4
-6 -19 -8 246.376 343.101 4
-6 25 8 -91.6955 347.175 3
25 -6 -5 1068.86 707.187 2
-6 25 5 1123.97 366.733 2
-6 -19 -5 410.295 221.135 1
-6 -19 -5 907.332 389.131 4
-19 -6 5 282.799 191.238 1
-6 25 5 665.819 376.852 3
-6 -19 -2 598.945 317.234 1
25 -6 -2 662.742 310.952 2
-6 -19 -2 365.625 285.639 4
-6 25 2 260.11 165.757 2
-6 25 2 188.508 297.146 3
-19 -6 2 351.379 371.316 1
-19 -6 -1 723.27 489.713 1
-6 -19 1 -268.363 134.344 1
25 -6 1 533.504 429.516 2
-6 -19 1 67.8071 176.66 4
25 -19 -1 -98.6722 218.525 2
-6 25 -1 -78.6615 252.659 3
-6 -19 4 535.649 158.449 1
-19 -6 -4 1086.32 486.14 2
-19 25 4 485.763 295.932 1
-19 -6 -4 831.243 491.13 1
25 -19 -4 438.815 316.02 2
25 -6 4 495.274 519.381 2
-6 25 -4 441.164 195.869 3
-19 25 7 486.738 296.195 1
-6 -19 7 410.077 212.217 1
-19 -6 -7 -29.6915 190.07 2
25 -19 -7 672.014 535.694 2
25 -6 7 358.11 336.539 4
-6 25 -7 1015.44 672.069 3
-19 -6 -7 471.633 440.224 1
25 -5 -6 346.941 470.803 2
-5 25 6 589.891 218.586 2
-5 -20 -6 105.865 142.323 1
-5 -20 -6 162.29 229.154 4
-20 -5 6 294.109 235.278 1
-5 25 6 450.643 333.097 3
-5 -20 -3 137.363 210.518 1
25 -5 -3 128.13 373.007 2
-5 -20 -3 70.6787 202.525 4
-5 25 3 370.01 197.463 2
-5 25 3 484.808 384.203 3
-20 -5 3 61.5666 221.205 1
-20 -5 0 185.268 316.289 1
-5 -20 0 336.299 281.935 1
25 -5 0 767.101 513.932 2
-5 -20 0 143.758 288.51 4
25 -20 0 231.224 172.385 2
-5 25 0 63.9866 348.57 3
-5 -20 3 386.677 355.998 1
-20 -5 -3 884.593 419.698 1
-20 25 3 -60.6778 215.181 1
25 -5 3 862.586 368.813 2
25 -20 -3 189.316 233.301 2
-5 -20 3 328.861 231.643 4
-5 25 -3 139.3 218.119 3
-20 25 6 -55.7472 278.044 1
-5 -20 6 7.02964 228.429 1
-20 -5 -6 -152.952 147.612 2
25 -20 -6 667.623 407.054 2
25 -5 6 1169.87 835.443 4
-20 -5 -6 -190.206 271.337 1
25 -5 6 567.592 467.591 2
-5 25 -6 519.37 417.598 3
-4 -21 -7 303.65 255.687 4
-4 25 7 -159.662 283.107 3
-4 -21 -4 258.519 231.968 1
25 -4 -4 590.161 436.762 2
-4 -21 -4 918.903 542.205 4
-4 25 4 468.247 245.947 2
-4 25 4 207.431 283.091 3
-21 -4 4 401.021 450.155 1
-21 -4 1 -19.5842 262.905 1
-4 -21 -1 210.684 215.418 1
25 -4 -1 811.913 484.364 2
-4 -21 -1 -55.4548 198.023 4
-4 25 1 342.78 404.551 3
-4 -21 2 106.014 203.249 1
-21 -4 -2 758.574 530.63 1
-21 25 2 184.851 291.093 1
25 -4 2 112.968 326.185 2
-4 -21 2 192.063 264.605 4
25 -21 -2 712.715 496.393 2
-4 25 -2 487.998 470.533 3
-4 -21 5 753.581 435.522 1
-21 25 5 1135.31 530.017 1
25 -21 -5 1833.3 785.245 2
-21 -4 -5 1328.53 628.192 1
25 -4 5 1935.08 760.934 2
-4 25 -5 1458.8 792.988 3
-22 -3 5 432.818 273.498 1
-3 -22 -5 189.875 215.261 1
25 -3 -5 140.99 413.02 2
-3 25 5 -301.604 325.465 2
-3 -22 -5 106.933 203.285 4
-3 25 5 160.078 295.46 3
-22 -3 2 498.944 372.247 1
-3 -22 -2 265.397 160.314 1
25 -3 -2 352.451 400.432 2
-3 -22 -2 -203.479 167.409 4
-22 25 1 734.741 541.595 1
-3 -22 1 473.46 350.675 1
-22 -3 -1 682.427 399.23 1
25 -3 1 297.829 176.922 2
-3 -22 1 429.614 264.367 4
25 -22 -1 -31.3179 247.996 2
-3 25 -1 1134.03 663.487 3
-3 -22 4 527.569 366.415 1
-22 25 4 356.24 387.247 1
-22 -3 -4 1211.89 627.8 1
25 -22 -4 555.691 363.273 2
25 -3 4 1242.91 629.752 2
-3 -22 4 1017.02 429.079 4
-3 25 -4 426.294 434.075 3
-23 -2 3 -449.637 524.448 1
-2 -23 -3 -20.4792 127.217 1
25 -2 -3 470.027 487.385 2
-2 -23 -3 25.3568 174.154 4
-2 25 3 114.221 340.159 3
-2 -23 0 -87.0924 235.507 1
-23 -2 0 678.951 525.955 1
25 -2 0 -492.431 510.167 2
-2 -23 0 -529.653 425.109 4
-23 25 0 -118.814 255.26 1
-2 25 0 64.9576 266.916 3
-2 -23 3 360.729 349.931 1
-23 25 3 417.555 450.459 1
-23 -2 -3 823.851 462.5 1
25 -2 3 -105.182 185.879 2
-2 -23 3 7.7603 182.284 4
25 -23 -3 641.857 293.353 2
-2 25 -3 -117.564 380.54 3
-1 -24 -4 201.962 333.912 4
-1 25 1 143.509 485.748 3
-1 -24 -1 -271.66 252.021 1
-24 -1 1 -399.694 421.583 1
25 -1 -1 -20.7723 453.94 2
-24 25 -1 431.506 324.954 1
-1 -24 -1 -69.9573 262.296 4
-1 -24 2 344.899 337.777 1
-24 25 2 99.5185 267.052 1
-24 -1 -2 -129.362 391.626 1
25 -1 2 191.416 300.464 2
-1 -24 2 501.172 427.917 4
25 -24 -2 1076.27 634.751 2
-1 25 -2 578.084 537.77 3
0 25 -1 -464.091 472.807 3
25 0 1 75.1944 380.219 2
0 -25 1 -181.198 296.626 4
26 -13 0 6689.64 1390.76 2
-13 -13 0 6994.28 1166.56 1
-13 -13 3 339.089 315.907 1
26 -13 -3 482.036 503.885 2
-13 -13 -3 -4.45894 216.95 4
26 -13 3 381.066 395.058 2
-13 -13 -3 350.595 259.945 1
-13 -13 -6 -349.887 273.541 1
-13 -13 6 440.912 389.79 1
-13 26 6 -193.857 359.125 2
26 -13 -6 424.182 414.319 2
-13 -13 -6 252.198 217.995 4
-13 26 6 -144.722 199.77 3
-12 -14 -7 -277.326 261.665 1
-12 26 7 338.676 276.069 2
-14 -12 7 -194.27 251.489 1
26 -12 -7 -321.922 287.534 2
-12 26 7 -262.046 324.311 3
-12 -14 -4 254.638 293.605 1
-14 -12 4 480.409 432.673 1
26 -12 -4 614.75 386.603 2
-12 26 4 514.444 406.94 2
-12 -14 -4 668.509 296.407 4
-12 26 4 273.477 223.42 3
26 -14 4 422.796 443.202 2
-12 -14 -1 149.297 270.778 1
-14 -12 1 334.461 200.078 1
26 -12 -1 758.825 472.964 2
-12 -14 -1 191.236 195.813 4
26 -14 1 195.073 244.922 2
-12 26 1 -119.647 221.848 3
-12 -14 2 925.832 461.016 1
26 -14 -2 1215.9 649.882 2
26 -12 2 1370.48 584.54 2
-14 -12 -2 277.351 276.767 1
-14 -12 -5 357.688 228.966 2
-14 -12 -5 201.102 244.183 1
-12 -14 5 -12.9235 170.229 1
-14 -12 -5 395.794 336.751 4
-14 -12 -8 -79.7309 88.8019 2
-12 -14 8 550.407 332.722 1
26 -14 -8 -363.653 387.702 2
26 -12 8 -153.726 163.826 4
-14 -12 -8 -42.8204 185.068 4
-14 -12 -8 63.9061 193.627 1
-14 26 8 -367.614 311.593 3
-11 26 8 687.817 374.312 2
26 -11 -8 -19.2817 363.173 2
-11 -15 -8 299.581 198.223 1
-11 -15 -8 -442.339 491.853 4
26 -15 8 328.323 182.993 4
-11 26 8 152.931 240.804 3
-11 -15 -5 939.395 402.977 1
26 -11 -5 1570.05 683.528 2
-15 -11 5 381.698 304.941 1
-11 26 5 919.786 481.548 2
-11 -15 -5 923.909 512.846 4
-11 26 5 747.596 349.536 3
26 -11 -2 1247.1 569.411 2
-15 -11 2 1318.13 562.207 1
-11 -15 -2 1650.83 556.068 1
-11 -15 -2 1171.23 475.222 4
26 -15 2 2019.14 764.019 2
-11 26 2 1711.76 661.868 3
-15 -11 -1 1104.97 414.316 2
-11 -15 1 1485.35 613.483 1
26 -15 -1 1898.96 763.426 2
26 -11 1 1233.43 601.725 2
-11 26 -1 631.308 442.464 3
-15 -11 -1 1420.69 586.844 1
-15 -11 -4 1200.17 390.751 2
-15 -11 -4 1158.34 405.302 1
-11 -15 4 1274.66 596.609 1
26 -15 -4 765.449 605.004 2
-15 -11 -4 696.544 349.268 4
-11 26 -4 944.765 541.56 3
26 -11 4 623.013 360.468 2
-15 -11 -7 694.967 296.2 2
-11 -15 7 640.073 389.435 1
26 -15 -7 200.303 378.676 2
-15 -11 -7 886.009 417.42 1
26 -11 7 101.192 314.233 4
-15 -11 -7 396.224 345.264 4
-11 26 -7 -336.211 571.086 3
-10 -16 -6 -88.9353 129.398 1
-10 26 6 -517.485 265.429 2
26 -10 -6 -530.123 485.009 2
-16 -10 6 63.5758 240.805 1
-10 -16 -6 -251.333 349.059 4
-10 26 6 45.3366 221.534 3
26 -10 -3 749.879 525.456 2
-16 -10 3 603.388 427.924 1
-10 -16 -3 576.841 323.028 1
-10 26 3 597.297 339.993 2
-10 -16 -3 208.284 292.575 4
-10 26 3 372.59 266.207 3
26 -16 3 528.898 371.933 2
-16 -10 0 553.244 195.704 2
-10 -16 0 176.983 170.235 1
26 -10 0 1085.18 587.799 2
-10 -16 0 271.592 331.317 4
26 -16 0 1212.9 611.399 2
-10 26 0 155.44 195.73 3
-16 -10 0 642.97 407.462 1
-16 -10 -3 334.953 300.727 1
-16 -10 -3 497.269 207.236 2
-10 -16 3 1089.4 497.944 1
26 -16 -3 914.846 522.019 2
26 -10 3 286.632 181.607 2
-10 26 -3 475.132 421.344 3
-16 -10 -6 481.601 326.293 2
-10 -16 6 772.661 458.613 1
-16 -10 -6 16.4149 267.079 1
26 -16 -6 77.744 315.504 2
26 -10 6 -519.768 725.431 4
-16 -10 -6 -348.868 406.365 4
-10 26 -6 521.123 442.072 3
-9 -17 -7 248.733 205.328 1
-9 26 7 329.743 276.981 2
26 -9 -7 157.178 302.674 2
-17 -9 7 286.58 397.703 1
-9 -17 -7 213.042 235.185 4
-9 26 7 320.538 347.17 3
26 -9 -4 -459.342 564.93 2
-9 26 4 171.843 291.725 2
-17 -9 4 -416.047 497.657 1
-9 -17 -4 89.7762 217.197 4
-9 -17 -4 -53.7532 204.925 1
-9 26 4 152.447 187.374 3
-9 -17 -1 -94.5292 162.511 1
26 -9 -1 142.205 251.797 2
-9 -17 -1 484.976 282.716 4
26 -17 1 -3.125 301.231 2
-9 26 1 -78.2082 248.97 2
-9 26 1 -337.408 434.222 3
-17 -9 1 268.504 414.388 1
-17 -9 -2 418.794 479.624 1
-17 -9 -2 176.686 264.091 2
-9 -17 2 75.2261 168.694 1
26 -17 -2 -156.556 282.923 2
26 -9 2 245.18 316.794 2
-9 26 -2 -127.893 378.244 3
-17 -9 -5 487.12 338.193 2
-9 -17 5 163.352 209.311 1
-17 -9 -5 -192.435 252.436 1
26 -17 -5 388.001 400.615 2
26 -9 5 347.272 447.566 4
-17 -9 -5 27.42 217.045 4
-9 26 -5 -321.799 486.592 3
26 -9 5 40.6942 203.885 2
26 -8 -5 406.963 440.059 2
-8 26 5 -189.396 246.859 2
-8 -18 -5 986.685 508.929 4
-18 -8 5 405.261 396.691 1
-8 -18 -5 117.896 189.119 1
-8 26 5 182.412 213.814 3
-8 -18 -2 70.3572 173.904 1
26 -8 -2 1117.31 559.74 2
-8 -18 -2 37.7539 256.233 4
-8 26 2 623.866 395.152 2
26 -18 2 1389.97 640.934 2
-8 26 2 648.554 403.078 3
-18 -8 2 554.606 448.444 1
-18 -8 -1 140.806 281.711 1
-18 -8 -1 -0.96861 185.661 2
-8 -18 1 630.232 320.547 1
26 -8 1 766.424 534.067 2
-8 -18 1 -157.074 275.233 4
26 -18 -1 342.042 235.047 2
-8 26 -1 581.326 566.009 3
-18 -8 -4 138.674 266.739 2
-8 -18 4 220.484 238.264 1
-18 -8 -4 120.389 157.873 1
26 -18 -4 509.065 348.517 2
26 -8 4 872.654 533.615 2
-8 26 -4 539.617 465.223 3
-8 -18 7 -186.109 298.105 1
-18 -8 -7 175.537 132.536 2
26 -18 -7 918.581 573.593 2
-18 26 7 525.129 338.26 1
26 -8 7 624.787 408.093 4
-18 -8 -7 248.16 291.754 4
-18 -8 -7 306.155 257.2 1
-8 26 -7 77.0486 270.002 3
26 -7 -6 898.677 539.783 2
-7 26 6 -14.1399 261.377 2
-7 -19 -6 280.665 344.948 4
-19 -7 6 -31.7092 317.982 1
-7 -19 -6 123.504 186.551 1
-7 26 6 613.498 390.756 3
-7 -19 -3 931.978 455.798 1
26 -7 -3 157.886 215.227 2
-7 -19 -3 546.342 380.298 4
-7 26 3 242.175 218.565 2
-19 -7 3 350.035 309.308 1
-7 26 3 206.764 451.004 3
-19 -7 0 482.744 352.805 1
-7 -19 0 -75.2921 259.899 1
26 -7 0 498.27 452.038 2
-7 -19 0 569.887 412.499 4
26 -19 0 788.436 460.777 2
-7 26 0 366.185 454.098 3
-19 -7 -3 768.746 507.328 2
-7 -19 3 1791.56 636.184 1
-19 -7 -3 1358.06 558.022 1
26 -19 -3 1622.52 713.628 2
26 -7 3 1924.96 752.382 2
-7 26 -3 876.829 417.52 3
-7 -19 6 278.2 217.63 1
-19 -7 -6 110.967 257.251 2
-19 26 6 721.999 460.683 1
26 -19 -6 999.234 598.27 2
-19 -7 -6 724.006 533.75 1
26 -7 6 784.347 644.448 4
-7 26 -6 212.741 311.205 3
-6 -20 -4 286.669 276.932 1
26 -6 -4 790.834 605.488 2
-6 -20 -4 7.87134 176.799 4
-6 26 4 82.8882 183.101 2
-20 -6 4 94.9908 346.245 1
-6 26 4 570.352 386.999 3
-20 -6 1 991.071 502.225 1
-6 -20 -1 1083.57 445.087 1
26 -6 -1 1192.36 611.84 2
-6 -20 -1 753.055 327.761 4
26 -20 1 -46.3386 266.76 2
-6 26 1 59.2806 327.985 3
-6 -20 2 593.479 310.385 1
-20 -6 -2 830.239 392.727 1
26 -6 2 378.895 210.998 2
-6 -20 2 331.283 256.783 4
26 -20 -2 628.095 518.62 2
-6 26 -2 -96.7234 394.907 3
-6 -20 5 179.293 246.643 1
-20 -6 -5 718.157 447.819 2
-20 26 5 473.539 347.967 1
-20 -6 -5 144.309 318.285 1
26 -20 -5 366.597 288.079 2
26 -6 5 736.284 783.779 4
26 -6 5 776.446 512.182 2
-6 26 -5 330.414 495.263 3
26 -5 -5 -528.574 421.717 2
-5 -21 -5 368.132 213.954 1
-5 26 5 80.7621 224.648 2
-5 -21 -5 -224.584 407.909 4
-21 -5 5 -196.993 403.568 1
-5 26 5 211.083 230.302 3
-21 -5 2 -268.88 430.099 1
-5 -21 -2 373.238 257.81 1
26 -5 -2 576.29 456.468 2
-5 -21 -2 -5.32523 221.95 4
-5 26 2 20.0405 291.318 3
-5 -21 1 426.596 271.093 1
-21 -5 -1 814.179 445.257 1
26 -5 1 454.086 377.383 2
-5 -21 1 392.029 304.95 4
26 -21 -1 996.756 620.393 2
-5 26 -1 1418.09 633.381 3
-5 -21 4 -77.3282 234.921 1
-21 -5 -4 969.601 531.97 1
-21 26 4 523.942 242.085 1
26 -21 -4 54.8182 277.013 2
26 -5 4 243.948 272.638 2
-5 26 -4 -256.752 456.097 3
-22 -4 3 274.668 211.182 1
-4 -22 -3 286.229 170.35 1
26 -4 -3 -255.044 406.066 2
-4 -22 -3 -161.928 349.433 4
-4 26 3 100.751 163 2
-4 26 3 153.246 287.977 3
-4 -22 0 -137.957 150.355 1
-22 -4 0 129.148 253.98 1
26 -4 0 -236.058 272.879 2
-4 -22 0 -281.879 325.113 4
26 -22 0 719.387 556.407 2
-4 26 0 -266.774 415.365 3
-4 -22 3 403.888 375.512 1
-22 -4 -3 -91.7689 339.525 1
26 -4 3 549.172 357.604 2
-22 26 3 -204.343 249.251 1
-4 -22 3 234.903 200.699 4
26 -22 -3 423.981 409.731 2
-4 26 -3 -306.048 279.546 3
-3 -23 -1 -332.074 336.524 1
-23 -3 1 -91.4195 255.438 1
26 -3 -1 194.576 409.469 2
-3 -23 -1 99.4984 237.34 4
-3 26 1 171.391 240.31 3
-3 -23 2 42.506 166.165 1
-23 -3 -2 623.725 435.419 1
26 -3 2 950.527 626.498 2
-3 -23 2 -273.883 355.027 4
26 -23 -2 532.608 573.226 2
-3 26 -2 488.026 365.611 3
-23 26 2 626.015 382.413 1
-13 -14 -5 544.286 331.127 1
-14 -13 5 147.904 345.218 1
27 -13 -5 977.361 632.742 2
-13 -14 -5 56.4366 168.819 4
-13 27 5 95.2134 263.563 3
-14 -13 2 907.702 464.334 1
27 -13 -2 1275.13 730.968 2
-13 -14 -2 414.462 262.162 4
-13 27 2 1084.66 584.01 3
27 -14 2 799.425 540.726 2
-13 -14 -2 465.852 266.971 1
-13 -14 1 1344.52 484.926 1
27 -14 -1 2392.4 834.522 2
27 -13 1 1209.38 518.466 2
-14 -13 -1 1368.24 636.175 1
-14 -13 -4 366.287 271.996 1
-13 -14 4 -246.06 319.757 1
27 -14 -4 91.4632 434.758 2
-14 -13 -4 658.691 441.495 4
27 -13 4 243.421 366.781 2
-12 -15 -6 340.922 324.527 1
-12 27 6 -214.816 223.532 2
-15 -12 6 -281.207 387.868 1
27 -12 -6 444.991 485.129 2
-12 -15 -6 -283.006 322.9 4
-12 27 6 -149.16 297.311 3
-15 -12 3 -107.888 246.771 1
27 -12 -3 -58.6557 266.67 2
-12 -15 -3 655.29 364.937 4
-12 27 3 388.799 338.673 3
-12 -15 -3 287.57 268.997 1
27 -15 3 593.931 470.891 2
-12 -15 0 449.645 356.601 1
27 -12 0 1763.53 654.605 2
27 -15 0 1257.81 657.956 2
-15 -12 0 802.657 491.853 1
-12 27 0 222.653 249.832 3
-15 -12 -3 -264.302 301.56 1
-15 -12 -3 529.135 299.826 2
-12 -15 3 234.347 283.599 1
27 -15 -3 206.193 269.919 2
-15 -12 -3 410.495 288.27 4
-12 27 -3 624.679 447.933 3
27 -12 3 46.6979 227.798 2
-15 -12 -6 531.093 248.248 2
-15 -12 -6 0.93878 248.972 1
-12 -15 6 104.961 325.003 1
27 -15 -6 169.166 347.078 2
-15 -12 -6 49.3022 246.452 4
-12 27 -6 520.363 667.888 3
27 -11 -4 751.37 448.657 2
-11 27 4 962.324 424.546 2
-16 -11 4 646.4 424.272 1
-11 -16 -4 565.19 344.909 4
-11 27 4 1078.94 457.086 3
-11 -16 -4 545.078 367.033 1
-11 -16 -1 1480.97 493.152 1
27 -11 -1 1680.99 654.144 2
-11 -16 -1 1109.45 512.393 4
-16 -11 1 1451.71 643.211 1
27 -16 1 1559.17 700.781 2
-11 27 1 1385.39 614.332 3
-16 -11 -2 605.622 385.504 1
-16 -11 -2 714.708 312.912 2
-11 -16 2 962.931 579.485 1
27 -16 -2 172.13 204.836 2
27 -11 2 634.883 447.848 2
-11 27 -2 488.497 251.231 3
-16 -11 -5 471.686 257.048 2
-16 -11 -5 191.922 195.95 1
-11 -16 5 356.509 359.728 1
27 -16 -5 906.963 556.02 2
-16 -11 -5 -86.4053 179.535 4
-11 27 -5 868.563 655.464 3
27 -11 5 272.605 402.998 2
27 -10 -5 649.393 613.325 2
-10 27 5 465.825 336.161 2
-17 -10 5 176.122 259.887 1
-10 -17 -5 417.21 465.576 4
-10 27 5 -76.118 207.957 3
-10 -17 -5 463.007 381.34 1
-10 -17 -2 390.604 249.365 1
27 -10 -2 160.76 227.701 2
-10 -17 -2 515.16 394.935 4
-10 27 2 655.747 295.711 2
-17 -10 2 -281.982 357.317 1
27 -17 2 243 310.082 2
-10 27 2 620.564 494.811 3
-17 -10 -1 678.552 399.999 1
-17 -10 -1 606.983 377.102 2
-10 -17 1 -46.324 336.412 1
27 -10 1 860.899 630.289 2
27 -17 -1 128.958 289.471 2
-10 27 -1 3.95696 222.852 3
-17 -10 -4 712.593 369.658 2
-17 -10 -4 746.697 397.412 1
-10 -17 4 588.108 408.141 1
27 -17 -4 656.685 451.373 2
27 -10 4 988.019 577.575 2
-10 27 -4 1430.69 724.475 3
27 -9 -3 1416.14 765.786 2
-9 -18 -3 974.451 402.638 1
-9 -18 -3 559.943 346.539 4
-9 27 3 548.48 362.568 2
-18 -9 3 995.623 614.009 1
-9 27 3 693.005 409.192 3
-18 -9 0 451.573 456.76 1
-9 -18 0 755.716 434.437 1
27 -9 0 1571.75 708.917 2
-9 -18 0 612.303 428.102 4
27 -18 0 543.238 466.838 2
-9 27 0 850.27 529.836 3
-18 -9 -3 473.612 306.045 2
-18 -9 -3 359.747 327.615 1
-9 -18 3 291.977 312.511 1
27 -18 -3 757.683 495.301 2
27 -9 3 -73.0386 325.195 2
-9 27 -3 -138.257 393.32 3
27 -8 -4 -401.885 529.106 2
-8 -19 -4 313.822 315.277 1
-8 27 4 221.635 328.083 2
-8 -19 -4 630.234 410.577 4
-19 -8 4 -18.6258 275.357 1
-8 27 4 -165.705 316.055 3
-19 -8 1 -273.272 364.605 1
-8 -19 -1 -396.852 319.644 1
27 -8 -1 993.8 593.667 2
-8 -19 -1 335.487 324.691 4
27 -19 1 -175.612 312.541 2
-8 27 1 442.027 277.201 2
-8 27 1 175.778 355.049 3
-19 -8 -2 257.554 304.473 1
-19 -8 -2 425.842 318.821 2
-8 -19 2 591.677 330.75 1
27 -8 2 738.064 392.88 2
27 -19 -2 -380.844 445.318 2
-8 27 -2 888.068 580.998 3
-19 -8 -5 181.672 342.271 2
-8 -19 5 -97.8563 169.607 1
-19 -8 -5 341.779 372.93 1
27 -19 -5 -33.5753 383.205 2
27 -8 5 -176.478 489.253 4
27 -8 5 101.086 386.231 2
-8 27 -5 167.512 338.842 3
-20 -7 2 521.938 506.32 1
-7 -20 -2 42.5123 225.771 1
27 -7 -2 849.329 642.854 2
-7 -20 -2 323.712 339.708 4
-7 27 2 323.202 231.009 2
-7 27 2 858.328 583.016 3
-20 -7 -1 370.8 410.649 1
-7 -20 1 617.872 338.021 1
27 -7 1 151.384 194.014 2
-7 -20 1 14.4156 200.438 4
27 -20 -1 678.056 523.6 2
-7 27 -1 537.802 373.622 3
-7 -20 4 -170.872 228.545 1
-20 -7 -4 306.638 308.313 2
-20 -7 -4 250.136 222.198 1
27 -20 -4 670.647 393.58 2
27 -7 4 395.214 437.331 2
-7 27 -4 2.77716 217.38 3
-21 -6 3 -20.0918 476.057 1
-6 -21 -3 456.482 309.401 1
27 -6 -3 1301.43 723.688 2
-6 -21 -3 -1.18126 280.752 4
-6 27 3 373.482 398.305 2
-6 27 3 355.113 381.115 3
-21 -6 0 402.269 256.867 1
-6 -21 0 641.865 305.124 1
27 -6 0 457.225 441.48 2
-6 -21 0 -99.9293 292.615 4
27 -21 0 629.21 475.492 2
-6 27 0 -21.1788 368.142 3
-6 -21 3 -273.751 355.44 1
-21 -6 -3 433.932 475.961 1
27 -6 3 235.764 345.596 2
27 -21 -3 289.112 405.082 2
-6 -21 3 -155.647 228.307 4
-6 27 -3 260.404 343.857 3
-22 -5 1 490.527 437.41 1
-5 -22 -1 620.184 379.287 1
27 -5 -1 477.772 458.191 2
-5 -22 -1 -312.204 236.63 4
-5 27 1 379.72 516.853 3
27 -5 2 177.334 365.352 2
-5 -22 2 907.793 374.202 4
27 -22 -2 893.56 554.34 2
-5 27 -2 215.817 266.494 3
-14 -14 0 2608.23 812.652 1
28 -14 0 2624.64 940.429 2
-14 -14 3 192.369 293.923 1
28 -14 -3 917.802 619.873 2
-14 -14 -3 754.371 474.508 4
-14 28 3 619.178 453.385 3
28 -14 3 575.542 576.802 2
-14 -14 -3 253.128 364.323 1
-13 -15 -4 647.172 395.147 1
-15 -13 4 563.218 473.349 1
28 -13 -4 604.876 631.257 2
-13 -15 -4 -195.835 235.168 4
-13 28 4 23.6033 264.828 3
28 -15 4 761.307 419.924 2
28 -13 -1 537.742 610.674 2
-15 -13 1 118.713 346.726 1
-13 -15 -1 207.236 263.784 1
28 -15 1 282.707 313.936 2
-13 28 1 210.661 201.721 3
-13 -15 2 919.186 468.196 1
28 -15 -2 1698.44 792.057 2
28 -13 2 1236.04 633.899 2
-13 28 -2 1208.13 518.326 3
-15 -13 -2 1264.65 544.913 1
28 -12 -2 370.641 442.047 2
-16 -12 2 395.567 279.361 1
-12 -16 -2 288.647 405.185 1
-12 -16 -2 -275.98 383.796 4
-12 28 2 -846.127 531.167 3
28 -16 2 321.237 365.552 2
-12 -16 1 874.344 369.386 1
28 -16 -1 650.461 465.202 2
28 -12 1 788.892 404.626 2
-12 28 -1 107.031 276.196 3
-16 -12 -1 732.81 419.783 1
-16 -12 -4 457.181 245.14 2
-16 -12 -4 660.352 455.252 1
-12 -16 4 756.476 505.149 1
28 -16 -4 766.491 588.547 2
-16 -12 -4 379.77 251.637 4
-12 28 -4 169.213 523.524 3
28 -12 4 953.881 544.985 2
28 -11 -3 501.988 674.251 2
-17 -11 3 688.751 382.518 1
-11 -17 -3 912.33 489.045 4
-11 -17 -3 1041.93 507.611 1
-11 28 3 834.034 456.386 3
28 -17 3 -99.1917 280.666 2
-11 -17 0 756.141 356.332 1
28 -11 0 814.653 376.131 2
-11 -17 0 598.222 311.991 4
28 -17 0 1612.86 617.106 2
-11 28 0 223.096 202.6 3
-17 -11 0 721.453 388.297 1
-17 -11 -3 268.485 348.205 1
-17 -11 -3 428.803 351.562 2
-11 -17 3 753.112 471.325 1
28 -17 -3 614.873 421.248 2
28 -11 3 415.308 521.081 2
-11 28 -3 -262.029 307.526 3
-10 -18 -1 1290.14 491.835 1
28 -10 -1 1254.95 725.838 2
-10 -18 -1 451.909 284.694 4
28 -18 1 814.8 477.962 2
-10 28 1 44.9913 430.138 3
-18 -10 1 793.707 554.15 1
-18 -10 -2 161.452 432.579 1
-18 -10 -2 342.007 260.875 2
-10 -18 2 329.968 283.896 1
28 -18 -2 365.609 434.598 2
28 -10 2 10.2062 358.814 2
-10 28 -2 47.3258 292.824 3
-9 -19 -2 293.908 321.45 1
28 -9 -2 279.919 227.734 2
-9 -19 -2 545.158 449.182 4
-9 28 2 344.094 244.369 2
28 -19 2 875.245 587.159 2
-9 28 2 -578.558 547.232 3
-19 -9 2 904.577 569.701 1
-19 -9 -1 590.793 432.531 1
-9 -19 1 131.43 230.966 1
28 -9 1 -150.507 329.561 2
-9 -19 1 179.951 211.579 4
28 -19 -1 272.821 259.067 2
-9 28 -1 390.072 393.955 3
-20 -8 0 117.692 253.714 1
-8 -20 0 126.399 187.638 1
28 -8 0 438.975 414.246 2
-8 -20 0 -507.114 261.529 4
28 -20 0 84.8139 243.032 2
-8 28 0 163.044 315.063 3
#BEGIN Loops that were not found in dictionaries:
loop_
_smtbx_masks_void_nr
_smtbx_masks_void_average_x
_smtbx_masks_void_average_y
_smtbx_masks_void_average_z
_smtbx_masks_void_volume
_smtbx_masks_void_count_electrons
1 -0.076 -0.374 -0.108 21275.4 1582.4
#END Loops that were not found in dictionaries
