#------------------------------------------------------------------------------
#$Date: 2017-12-10 21:25:10 +0200 (Sun, 10 Dec 2017) $
#$Revision: 204138 $
#$URL: file:///home/coder/svn-repositories/cod/cif/7/22/77/7227783.cif $
#------------------------------------------------------------------------------
#
# This file is available in the Crystallography Open Database (COD),
# http://www.crystallography.net/
#
# All data on this site have been placed in the public domain by the
# contributors.
#
data_7227783
loop_
_publ_author_name
'Patyk-Ka\'zmierczak, Ewa'
'Warren, Mark R.'
'Allan, David R.'
'Katrusiak, Andrzej'
_publ_section_title
;
 Pressure inverse solubility and polymorphism of an edible
 \g-cyclodextrin-based metal-organic framework.
;
_journal_issue                   13
_journal_name_full               'Physical chemistry chemical physics : PCCP'
_journal_page_first              9086
_journal_page_last               9091
_journal_paper_doi               10.1039/c7cp00593h
_journal_volume                  19
_journal_year                    2017
_chemical_absolute_configuration rm
_chemical_formula_moiety         'C48 H80 O40, 2(KOH)'
_chemical_formula_sum            'C48 H82 K2 O42'
_chemical_formula_weight         1409.34
_chemical_name_common            '\g-cyclodextrin-metal-organic framework'
_chemical_name_systematic
'catena-((\m8-\g-Cyclodextrin)-di-potassium dihydroxide)'
_space_group_crystal_system      cubic
_space_group_IT_number           211
_space_group_name_Hall           'I 4 2 3'
_space_group_name_H-M_alt        'I 4 3 2'
_atom_sites_solution_hydrogens   geom
_atom_sites_solution_primary     direct
_audit_creation_date             2017-01-18
_audit_creation_method
;
Olex2 1.2
(compiled 2017.01.04 svn.r3372 for OlexSys, GUI svn.r5289)
;
_cell_angle_alpha                90.0
_cell_angle_beta                 90.0
_cell_angle_gamma                90.0
_cell_formula_units_Z            12
_cell_length_a                   30.968(6)
_cell_length_b                   30.968(6)
_cell_length_c                   30.968(6)
_cell_measurement_reflns_used    361
_cell_measurement_temperature    295
_cell_measurement_theta_max      8.8520
_cell_measurement_theta_min      4.6780
_cell_volume                     29699(10)
_computing_cell_refinement       'CrysAlisPro 1.171.38.41 (Rigaku OD, 2015)'
_computing_data_collection       'CrysAlisPro 1.171.38.41 (Rigaku OD, 2015)'
_computing_data_reduction        'CrysAlisPro 1.171.38.41 (Rigaku OD, 2015)'
_computing_molecular_graphics    'Olex2 (Dolomanov et al., 2009)'
_computing_publication_material  'Olex2 (Dolomanov et al., 2009)'
_computing_structure_refinement  'ShelXL (Sheldrick, 2015)'
_computing_structure_solution    'ShelXS (Sheldrick, 2008)'
_diffrn_ambient_environment      'diamond-anvil cell'
_diffrn_ambient_pressure         990000
_diffrn_ambient_temperature      295
_diffrn_detector                 'CCD plate'
_diffrn_detector_area_resol_mean 16.2413
_diffrn_detector_type            Eos
_diffrn_measured_fraction_theta_full 0.732
_diffrn_measured_fraction_theta_max 0.729
_diffrn_measurement_details
;
List of Runs (angles in degrees, time in seconds):

  # Type    Start    End  Width  t~exp~   \w     \q     \k     \f   Frames
--------------------------------------------------------------------------
  1  \f    -35.00  19.75   0.75   20.00   0.00 -30.00   0.00    --    73
  2  \f    140.00 200.00   0.75   20.00   0.00 -30.00   0.00    --    80
  3  \f    160.00 217.00   0.75   20.00   0.00  30.00   0.00    --    76
  4  \f    -20.00  34.75   0.75   20.00   0.00  30.00   0.00    --    73
  5  \w    -24.00  24.00   0.75   20.00    --   30.00  39.46 -12.90   64
  6  \w    -24.00  24.00   0.75   20.00    --   30.00  39.46 167.10   64
  7  \w    -50.00  10.00   0.75   20.00    --  -30.00  39.46 167.10   80
  8  \w    -50.00  10.00   0.75   20.00    --  -30.00  39.46 -12.90   80
  9  \w    -64.00  -8.50   0.75   20.00    --  -30.00  81.40 -28.90   74
 10  \w    -64.00  -8.50   0.75   20.00    --  -30.00  81.40 151.10   74
 11  \w    -19.00   8.00   0.75   20.00    --   30.00  81.40 151.10   36
 12  \w    -19.00   8.00   0.75   20.00    --   30.00  81.40 -28.90   36
 13  \w    -43.00 -21.25   0.75   20.00    --   30.00 134.60 -56.90   29
 14  \w    -43.00 -21.25   0.75   20.00    --   30.00 134.60 123.10   29
 15  \w    -90.00 -36.00   0.75   20.00    --  -30.00 134.60 123.10   72
 16  \w    -90.00 -36.00   0.75   20.00    --  -30.00 134.60 -56.90   72
;
_diffrn_measurement_device       'four-circle diffractometer'
_diffrn_measurement_device_type  'Xcalibur, Eos'
_diffrn_measurement_method       '\w and \f scans'
_diffrn_orient_matrix_type
'CrysAlisPro convention (1999,Acta A55,543-557)'
_diffrn_orient_matrix_UB_11      0.0027204000
_diffrn_orient_matrix_UB_12      0.0015446000
_diffrn_orient_matrix_UB_13      0.0226885000
_diffrn_orient_matrix_UB_21      0.0189117000
_diffrn_orient_matrix_UB_22      0.0125009000
_diffrn_orient_matrix_UB_23      -0.0033111000
_diffrn_orient_matrix_UB_31      -0.0126269000
_diffrn_orient_matrix_UB_32      0.0191002000
_diffrn_orient_matrix_UB_33      0.0002382000
_diffrn_radiation_monochromator  graphite
_diffrn_radiation_probe          x-ray
_diffrn_radiation_type           MoK\a
_diffrn_radiation_wavelength     0.71073
_diffrn_reflns_av_R_equivalents  0.2967
_diffrn_reflns_av_unetI/netI     0.0867
_diffrn_reflns_Laue_measured_fraction_full 0.732
_diffrn_reflns_Laue_measured_fraction_max 0.729
_diffrn_reflns_limit_h_max       15
_diffrn_reflns_limit_h_min       -15
_diffrn_reflns_limit_k_max       15
_diffrn_reflns_limit_k_min       -15
_diffrn_reflns_limit_l_max       7
_diffrn_reflns_limit_l_min       -7
_diffrn_reflns_number            7547
_diffrn_reflns_point_group_measured_fraction_full 0.783
_diffrn_reflns_point_group_measured_fraction_max 0.781
_diffrn_reflns_theta_full        10.197
_diffrn_reflns_theta_max         10.197
_diffrn_reflns_theta_min         4.837
_diffrn_source                   'fine-focus sealed X-ray tube'
_diffrn_source_type              'Enhance (Mo) X-ray Source'
_exptl_absorpt_coefficient_mu    0.164
_exptl_absorpt_correction_T_max  1.00000
_exptl_absorpt_correction_T_min  0.67886
_exptl_absorpt_correction_type   multi-scan
_exptl_absorpt_process_details
;
CrysAlisPro 1.171.38.41 (Rigaku Oxford Diffraction, 2015)
Empirical absorption correction using spherical harmonics,
 implemented in SCALE3 ABSPACK scaling algorithm.
;
_exptl_crystal_colour            'clear colourless'
_exptl_crystal_colour_lustre     clear
_exptl_crystal_colour_primary    colourless
_exptl_crystal_density_diffrn    0.945
_exptl_crystal_description       plate
_exptl_crystal_F_000             8928
_exptl_crystal_recrystallization_method
'Compressed crystal that was grown in situ from methano:water solution in the diamond-anvil cell at 0.1 GPa.'
_exptl_crystal_size_max          0.17
_exptl_crystal_size_mid          0.16
_exptl_crystal_size_min          0.1
_refine_diff_density_max         0.107
_refine_diff_density_min         -0.092
_refine_diff_density_rms         0.024
_refine_ls_abs_structure_details
;
 Flack x determined using 89 quotients [(I+)-(I-)]/[(I+)+(I-)]
 (Parsons, Flack and Wagner, Acta Cryst. B69 (2013) 249-259).
;
_refine_ls_abs_structure_Flack   0.8(4)
_refine_ls_extinction_method     none
_refine_ls_goodness_of_fit_ref   1.174
_refine_ls_hydrogen_treatment    constr
_refine_ls_matrix_type           full
_refine_ls_number_parameters     75
_refine_ls_number_reflns         264
_refine_ls_number_restraints     75
_refine_ls_restrained_S_all      1.786
_refine_ls_R_factor_all          0.0869
_refine_ls_R_factor_gt           0.0865
_refine_ls_shift/su_max          0.000
_refine_ls_shift/su_mean         0.000
_refine_ls_structure_factor_coef Fsqd
_refine_ls_weighting_details
'w=1/[\s^2^(Fo^2^)+(0.2000P)^2^] where P=(Fo^2^+2Fc^2^)/3'
_refine_ls_weighting_scheme      calc
_refine_ls_wR_factor_gt          0.2315
_refine_ls_wR_factor_ref         0.2326
_reflns_Friedel_coverage         0.610
_reflns_Friedel_fraction_full    0.884
_reflns_Friedel_fraction_max     0.885
_reflns_number_gt                260
_reflns_number_total             264
_reflns_threshold_expression     'I > 2\s(I)'
_iucr_refine_instructions_details
;

    1.res created by SHELXL-2014/7

TITL 1 in I432 #211
REM reset to I432 #211
CELL 0.71073 30.967945 30.967945 30.967945 90 90 90
ZERR 12 0.006393 0.006393 0.006393 0 0 0
LATT -2
SYMM -Y,+X,+Z
SYMM -X,-Y,+Z
SYMM +Y,-X,+Z
SYMM +X,-Z,+Y
SYMM +X,-Y,-Z
SYMM +X,+Z,-Y
SYMM +Z,+Y,-X
SYMM -X,+Y,-Z
SYMM -Z,+Y,+X
SYMM +Z,+X,+Y
SYMM +Y,+Z,+X
SYMM -Y,-Z,+X
SYMM +Z,-X,-Y
SYMM -Y,+Z,-X
SYMM -Z,-X,+Y
SYMM -Z,+X,-Y
SYMM +Y,-Z,-X
SYMM +Y,+X,-Z
SYMM -Y,-X,-Z
SYMM -X,+Z,+Y
SYMM -X,-Z,-Y
SYMM +Z,-Y,+X
SYMM -Z,-Y,-X
SFAC C H K O
UNIT 576 960 24 504
DFIX 1.45 0.002 C14 O14
DFIX 1.5 C14 C13
DFIX 2.2 O2 C3
DFIX 1.45 0.002 C11 O4
DFIX 3 C11 C14
DFIX 1.45 0.002 C4 O4
DFIX 1.5 0.002 C4 C3
DFIX 2 C12 O4
DFIX 1.5 C12 C13
DFIX 1.5 0.002 C12 C11
DFIX 1.5 0.002 C2 C3
DFIX 1.45 0.002 C2 O2
DFIX 2.8 C1 C4
DFIX 1.5 0.002 C2 C1
DFIX 1.45 0.002 O3 C3
DFIX 2.3 C2 O3
DFIX 1.5 0.002 C16 C15
DFIX 1.5 0.002 C14 C15
DFIX 2.4 O14 C15
DFIX 3 C12 C15
DFIX 3 C15 C12
DFIX 1.5 0.002 C6 C5
DFIX 1.5 0.002 C4 C5
DFIX 3 C2 C5
DFIX 3 C5 C2
DFIX 2.3 0.002 C5 C1
DFIX 1.5 C5 C4
DFIX 1.5 C3 C4
DFIX 1.45 O4 C4
DFIX 1.45 0.002 C16 O16
DFIX 1.45 0.002 C6 O6
DFIX 1.45 0.002 O13 C13
DFIX 1.45 C12 O12
DFIX 2.5 O5 C6
DFIX 2.2 O15 C16
DFIX 3 O5 C3
DFIX 3 O15 C13
DFIX 1.45 0.002 O15 C11
DFIX 1.45 0.002 O5 C1
DFIX 1.45 0.002 O15 C15
DFIX 1.45 0.002 O5 C5
DANG 2.5 C13 O14
DANG 2.4 0.02 C11 C13
DANG 2.5 C11 C4
DANG 2.4 0.02 C12 C14
DANG 2.5 O2 C3
DANG 2.5 0.02 C4 C2
DANG 2.5 O4 C3
DANG 2.5 O4 C12
DANG 2.5 0.02 C3 C1
DANG 2.5 O2 C1
DANG 2.4 0.02 C13 C15
DANG 2.5 O14 C15
DANG 2.4 0.02 C15 C11
DANG 2.5 0.02 C5 C3
DANG 2.5 O4 C5
DANG 2.5 0.02 C1 C5
DANG 2.5 C4 C11
DANG 2.5 C2 C4
DANG 2.5 C5 O6
DANG 2.5 O13 C14
DANG 2.5 O13 C12
DANG 2.5 O12 C11
DANG 2.4 0.02 C14 O15
DANG 2.5 0.02 O5 C4
DANG 2.4 0.02 O15 C12
DANG 2.5 0.02 C2 O5
DANG 2.5 O4 O15
DANG 2.5 C4 O5
ISOR K1
 
L.S. 100
PLAN  5
TEMP 21.85
CONN 1 H16
CONN 4 H6b
CONN 4 C16
CONN 1 H16a
CONN 4 O6
BOND
MORE -1
BOND $H
CONF
ABIN
fmap 2
acta 52
OMIT 0 0 14
OMIT 0 0 10
OMIT 0 1 15
OMIT 0 3 9
OMIT 6 8 10
OMIT 6 10 10
OMIT 0 9 11
OMIT 0 4 14
OMIT 0 1 13
OMIT 0 5 7
OMIT -2 5 9
OMIT 2 7 7
OMIT 0 5 13
OMIT 4 4 6
OMIT -2 8 12
OMIT 0 5 9
OMIT 0 3 11
OMIT 0 6 6
OMIT 2 2 14
OMIT -1 2 13
OMIT 2 6 6
OMIT 4 9 9
OMIT 0 6 12
OMIT 4 4 8
OMIT 3 3 12
OMIT 3 6 7
REM <olex2.extras>
REM <HklSrc "%.\\1.hkl">
REM </olex2.extras>
 
WGHT    0.200000
FVAR       0.17394   0.20235   0.23786
C1    1    0.851086    0.681935    0.634765    11.00000   21.00000
AFIX  13
H1    2    0.845681    0.712922    0.631298    11.00000   -1.20000
AFIX   0
C2    1    0.892568    0.675472    0.658958    11.00000   21.00000
AFIX  13
H2A   2    0.890642    0.688719    0.687633    11.00000   -1.20000
AFIX   0
C3    1    0.900367    0.627836    0.663070    11.00000   21.00000
AFIX  13
H3A   2    0.906579    0.620467    0.632928    11.00000   -1.20000
AFIX   0
C4    1    0.860809    0.600926    0.670635    11.00000   21.00000
AFIX  13
H4    2    0.853273    0.609310    0.700205    11.00000   -1.20000
AFIX   0
C5    1    0.821152    0.614885    0.646551    11.00000   21.00000
AFIX  13
H5    2    0.825627    0.607414    0.616127    11.00000   -1.20000
AFIX   0
C6    1    0.785249    0.586820    0.662981    11.00000   21.00000
AFIX  23
H6A   2    0.762812    0.585004    0.641201    11.00000   -1.20000
H6B   2    0.796226    0.557903    0.667924    11.00000   -1.20000
AFIX   0
C11   1    0.865398    0.534383    0.717382    11.00000   21.00000
AFIX  13
H11   2    0.867230    0.554993    0.741326    11.00000   -1.20000
AFIX   0
C12   1    0.906719    0.509320    0.714115    11.00000   21.00000
AFIX  13
H12A  2    0.908831    0.495299    0.742407    11.00000   -1.20000
AFIX   0
C13   1    0.902490    0.471661    0.683452    11.00000   21.00000
AFIX  13
H13A  2    0.899266    0.484147    0.654553    11.00000   -1.20000
AFIX   0
C14   1    0.862208    0.445337    0.691446    11.00000   21.00000
AFIX  13
H14   2    0.864691    0.432671    0.720340    11.00000   -1.20000
AFIX   0
C15   1    0.822586    0.473206    0.691107    11.00000   21.00000
AFIX  13
H15   2    0.822142    0.486924    0.662593    11.00000   -1.20000
AFIX   0
C16   1    0.776476    0.461886    0.700743    11.00000   21.00000
AFIX  23
H16A  2    0.759181    0.487996    0.700198    11.00000   -1.20000
H16B  2    0.765721    0.442780    0.678373    11.00000   -1.20000
AFIX   0
K1    3    0.809012    0.500000    0.809012    10.50000    0.23306    0.46291 =
         0.23306    0.02670    0.01771   -0.02670
O2    4    0.931992    0.688961    0.637570    11.00000   31.00000
AFIX  83
H2    2    0.951147    0.671338    0.642434    11.00000   -1.50000
AFIX   0
O3    4    0.943147    0.623979    0.681660    11.00000   31.00000
AFIX  83
H3    2    0.942444    0.607019    0.701982    11.00000   -1.50000
AFIX   0
O4    4    0.873737    0.556348    0.676885    11.00000   31.00000
O5    4    0.811590    0.660698    0.648221    11.00000   31.00000
O6    4    0.766797    0.603285    0.702750    11.00000   31.00000
AFIX  83
H6    2    0.786078    0.607183    0.720476    11.00000   -1.50000
AFIX   0
O12   4    0.946768    0.533076    0.711109    11.00000   31.00000
AFIX  83
H12   2    0.965682    0.517298    0.701389    11.00000   -1.50000
AFIX   0
O13   4    0.940265    0.444050    0.681587    11.00000   31.00000
AFIX  83
H13   2    0.938563    0.428178    0.660460    11.00000   -1.50000
AFIX   0
O14   4    0.856865    0.410126    0.661040    11.00000   31.00000
O15   4    0.826752    0.508313    0.721819    11.00000   31.00000
O16   4    0.771484    0.441061    0.742391    11.00000   31.00000
AFIX  83
H16   2    0.769844    0.459490    0.761334    11.00000   -1.50000
AFIX   0
 
OA    4    0.975072    0.475072    0.750000    10.50000   31.00000
HKLF 4
 
REM  1 in I432 #211
REM R1 =  0.0865 for     260 Fo > 4sig(Fo)  and  0.0869 for all     264 data
REM     75 parameters refined using     75 restraints
 
END  
     
WGHT      0.1515    127.4687 

REM Highest difference peak  0.107,  deepest hole -0.092,  1-sigma level  0.024
Q1    1   0.9087  0.5000  0.5000  10.25000  0.05    0.11
Q2    1   0.9186  0.5000  0.5000  10.25000  0.05    0.10
Q3    1   0.5000  0.5000  0.5000  10.04167  0.05    0.10
Q4    1   0.7875  0.5000  0.5000  10.25000  0.05    0.09
Q5    1   0.7981  0.5000  0.7981  10.50000  0.05    0.09

  REM The information below was added by Olex2.
  REM
  REM R1 = 0.0865 for 260 Fo > 4sig(Fo) and 0.0869 for all 8307 data
  REM n/a parameters refined using n/a restraints
  REM Highest difference peak 0.11, deepest hole -0.09
  REM Mean Shift 0, Max Shift 0.000.

  REM +++ Tabular Listing of Refinement Information +++
  REM R1_all = 0.0869
  REM R1_gt = 0.0865
  REM wR_ref = 0.2326
  REM GOOF = 1.174
  REM Shift_max = 0.000
  REM Shift_mean = 0
  REM Reflections_all = 8307
  REM Reflections_gt = 260
  REM Parameters = n/a
  REM Hole = -0.09
  REM Peak = 0.11
  REM Flack = 0.8(4)

  
;
_cod_data_source_file            c7cp00593h3.cif
_cod_data_source_block           CDMOF_a_0_99GPa
_cod_depositor_comments
'Adding full bibliography for 7227776--7227790.cif.'
_cod_original_cell_volume        29699(11)
_cod_database_code               7227783
#BEGIN Tags that were not found in dictionaries:
_shelx_shelxl_version_number     2014/7
_chemical_oxdiff_formula         'C48 H82 K2 O40'
_shelx_space_group_comment
;
The symmetry employed for this shelxl refinement is uniquely defined
by the following loop, which should always be used as a source of
symmetry information in preference to the above space-group names.
They are only intended as comments.
;
_reflns_odcompleteness_completeness 82.74
_reflns_odcompleteness_iscentric 1
_reflns_odcompleteness_theta     10.18
_olex2_refinement_description
;
1. Fixed Uiso
 At 1.2 times of:
  All C(H) groups, All C(H,H) groups
 At 1.5 times of:
  All O(H) groups
2. Restrained distances
 C14-O14
 1.45 with sigma of 0.002
 C14-C13
 1.5 with sigma of 0.02
 O2-C3
 2.2 with sigma of 0.02
 C11-O4
 1.45 with sigma of 0.002
 C11-C14
 3 with sigma of 0.02
 C4-O4
 1.45 with sigma of 0.002
 C4-C3
 1.5 with sigma of 0.002
 C12-O4
 2 with sigma of 0.02
 C12-C13
 1.5 with sigma of 0.02
 C12-C11
 1.5 with sigma of 0.002
 C2-C3
 1.5 with sigma of 0.002
 C2-O2
 1.45 with sigma of 0.002
 C1-C4
 2.8 with sigma of 0.02
 C2-C1
 1.5 with sigma of 0.002
 O3-C3
 1.45 with sigma of 0.002
 C2-O3
 2.3 with sigma of 0.02
 C16-C15
 1.5 with sigma of 0.002
 C14-C15
 1.5 with sigma of 0.002
 O14-C15
 2.4 with sigma of 0.02
 C12-C15
 3 with sigma of 0.02
 C15-C12
 3 with sigma of 0.02
 C6-C5
 1.5 with sigma of 0.002
 C4-C5
 1.5 with sigma of 0.002
 C2-C5
 3 with sigma of 0.02
 C5-C2
 3 with sigma of 0.02
 C5-C1
 2.3 with sigma of 0.002
 C5-C4
 1.5 with sigma of 0.02
 C3-C4
 1.5 with sigma of 0.02
 O4-C4
 1.45 with sigma of 0.02
 C16-O16
 1.45 with sigma of 0.002
 C6-O6
 1.45 with sigma of 0.002
 O13-C13
 1.45 with sigma of 0.002
 C12-O12
 1.45 with sigma of 0.02
 O5-C6
 2.5 with sigma of 0.02
 O15-C16
 2.2 with sigma of 0.02
 O5-C3
 3 with sigma of 0.02
 O15-C13
 3 with sigma of 0.02
 O15-C11
 1.45 with sigma of 0.002
 O5-C1
 1.45 with sigma of 0.002
 O15-C15
 1.45 with sigma of 0.002
 O5-C5
 1.45 with sigma of 0.002
 C13-O14
 2.5 with sigma of 0.04
 C11-C13
 2.4 with sigma of 0.02
 C11-C4
 2.5 with sigma of 0.04
 C12-C14
 2.4 with sigma of 0.02
 O2-C3
 2.5 with sigma of 0.04
 C4-C2
 2.5 with sigma of 0.02
 O4-C3
 2.5 with sigma of 0.04
 O4-C12
 2.5 with sigma of 0.04
 C3-C1
 2.5 with sigma of 0.02
 O2-C1
 2.5 with sigma of 0.04
 C13-C15
 2.4 with sigma of 0.02
 O14-C15
 2.5 with sigma of 0.04
 C15-C11
 2.4 with sigma of 0.02
 C5-C3
 2.5 with sigma of 0.02
 O4-C5
 2.5 with sigma of 0.04
 C1-C5
 2.5 with sigma of 0.02
 C4-C11
 2.5 with sigma of 0.04
 C2-C4
 2.5 with sigma of 0.04
 C5-O6
 2.5 with sigma of 0.04
 O13-C14
 2.5 with sigma of 0.04
 O13-C12
 2.5 with sigma of 0.04
 O12-C11
 2.5 with sigma of 0.04
 C14-O15
 2.4 with sigma of 0.02
 O5-C4
 2.5 with sigma of 0.02
 O15-C12
 2.4 with sigma of 0.02
 C2-O5
 2.5 with sigma of 0.02
 O4-O15
 2.5 with sigma of 0.04
 C4-O5
 2.5 with sigma of 0.04
3. Uiso/Uaniso restraints and constraints
Uanis(K1) \\sim Ueq: with sigma of 0.1 and sigma for terminal atoms of 0.2
4. Others
 Uiso(C1)=Uiso(C2)=Uiso(C3)=Uiso(C4)=Uiso(C5)=Uiso(C6)=Uiso(C11)=Uiso(C12)=
 Uiso(C13)=Uiso(C14)=Uiso(C15)=Uiso(C16)=FVAR(1)
 Uiso(O2)=Uiso(O3)=Uiso(O4)=Uiso(O5)=Uiso(O6)=Uiso(O12)=Uiso(O13)=Uiso(O14)=
 Uiso(O15)=Uiso(O16)=Uiso(OA)=FVAR(2)
5.a Ternary CH refined with riding coordinates:
 C1(H1), C2(H2A), C3(H3A), C4(H4), C5(H5), C11(H11), C12(H12A), C13(H13A),
 C14(H14), C15(H15)
5.b Secondary CH2 refined with riding coordinates:
 C6(H6A,H6B), C16(H16A,H16B)
5.c Tetrahedral OH refined with riding coordinates:
 O2(H2), O3(H3), O6(H6), O12(H12), O13(H13), O16(H16)
;
_shelx_fab_file
;
-7 -11 -8 -4.0078 -14.0535
-7 -10 -9 -27.2167 2.5122
-7 -9 -8 18.4985 -11.2204
-6 -11 -9 -0.1554 11.4458
-6 -11 -7 4.0711 2.7117
-6 -9 -7 -22.3918 2.6154
-5 -13 -6 -13.6586 8.0134
-5 -12 -7 -3.8064 12.0509
-5 -11 -8 0.7995 -2.6923
-5 -11 -6 5.5237 -9.9600
-5 -10 -9 -17.5206 9.8855
-5 -10 -7 32.5202 -17.7778
-5 -9 -8 -17.7161 -22.4045
-5 -9 -6 47.0622 -15.2528
-5 -8 -7 36.5051 -2.2593
-5 -7 -6 -35.7089 7.4447
-4 -13 -7 -23.0010 -22.1480
-4 -13 -5 -21.3199 -12.8275
-4 -12 -8 -21.4695 -20.1360
-4 -12 -6 -20.5415 -11.4705
-4 -11 -9 -12.8253 -10.8713
-4 -11 -7 -26.6220 -30.2244
-4 -11 -5 12.4765 -33.5603
-4 -10 -8 -25.3970 -34.5105
-4 -10 -6 22.2479 -55.5630
-4 -9 -7 11.0720 -46.9094
-4 -9 -5 -20.0305 -20.7365
-4 -8 -6 -19.1409 -0.3015
-4 -7 -5 23.4867 7.0719
-3 -14 -5 -1.6795 -6.2575
-3 -13 -6 -27.2680 -7.6938
-3 -13 -4 38.5107 14.6074
-3 -12 -9 0.5249 19.1751
-3 -12 -7 -10.9183 3.1812
-3 -12 -5 -8.6391 -2.5761
-3 -11 -10 8.8981 -2.6882
-3 -11 -8 -30.0190 2.1159
-3 -11 -6 -2.1204 16.9957
-3 -11 -4 -37.5644 19.6575
-3 -10 -9 -10.4768 -9.1544
-3 -10 -7 8.4816 -22.3928
-3 -10 -5 32.1697 23.0782
-3 -9 -8 13.4773 -20.4411
-3 -9 -6 -51.1915 25.5234
-3 -9 -4 -10.0066 78.3324
-3 -8 -7 0.8698 -10.5860
-3 -8 -5 -87.5540 54.9708
-3 -7 -4 -1.4839 77.5758
-3 -6 -5 -94.9864 3.5045
-2 -15 -3 18.9115 22.5615
-2 -14 -6 6.4662 9.9062
-2 -14 -4 16.5640 35.6726
-2 -13 -7 13.5385 -3.1235
-2 -13 -5 19.0266 3.9924
-2 -13 -3 42.6101 30.9644
-2 -12 -8 2.0836 28.6901
-2 -12 -6 -7.9351 -7.3444
-2 -12 -4 9.4305 7.3339
-2 -11 -9 5.4562 -1.6750
-2 -11 -7 -24.0503 16.7577
-2 -11 -5 -18.2043 -13.1908
-2 -11 -3 -6.6886 -36.4957
-2 -10 -8 -22.8498 -30.8360
-2 -10 -6 17.3391 41.2293
-2 -10 -4 46.4405 -0.4971
-2 -9 -7 74.5200 -33.8062
-2 -9 -5 -30.6634 71.8601
-2 -9 -3 23.1781 -9.2508
-2 -8 -6 -30.4782 1.9760
-2 -8 -4 8.9318 109.9162
-2 -7 -5 -0.7585 10.4344
-2 -7 -3 6.1221 34.5212
-2 -6 -4 46.0950 -2.1370
-1 -15 -2 -47.2843 -6.4890
-1 -14 -5 -9.4500 7.1368
-1 -14 -3 -3.9779 10.5209
-1 -13 -8 2.8428 8.9717
-1 -13 -6 8.5964 -10.1244
-1 -13 -4 -13.0910 4.5426
-1 -13 -2 -31.8955 -16.9719
-1 -12 -9 12.1593 8.4977
-1 -12 -7 -15.2630 19.0029
-1 -12 -5 -37.4581 -39.0120
-1 -12 -3 -1.6872 -34.4235
-1 -11 -10 -3.4082 -4.0558
-1 -11 -8 -18.6830 26.7905
-1 -11 -6 -42.9945 11.1148
-1 -11 -4 9.6368 -59.3337
-1 -11 -2 -48.3802 -38.5432
-1 -10 -9 -38.9128 -13.6526
-1 -10 -7 -6.2186 9.9178
-1 -10 -5 -16.3307 -1.3169
-1 -10 -3 57.0345 -65.0477
-1 -9 -8 -52.0262 -29.1587
-1 -9 -6 60.3835 36.9269
-1 -9 -4 63.7279 50.3027
-1 -9 -2 30.5846 -15.6215
-1 -8 -7 16.4795 -48.7044
-1 -8 -5 -68.8700 59.4727
-1 -8 -3 -38.9197 40.6515
-1 -7 -6 -11.6228 -20.6203
-1 -7 -4 101.7048 67.8211
-1 -7 -2 -18.8083 48.7522
-1 -6 -5 -94.1065 -42.3288
0 7 3 -22.9341 0.0000
0 7 7 148.4334 -0.0000
0 8 2 -115.7118 0.0000
0 8 4 2.7135 -0.0000
0 8 6 24.9524 -0.0000
0 8 8 -24.7171 0.0000
0 9 1 68.0102 -0.0000
0 9 7 71.8946 -0.0000
0 9 9 19.4013 0.0000
0 10 2 64.3295 -0.0000
0 10 4 38.0817 -0.0000
0 10 6 21.7603 -0.0000
0 10 8 -19.9133 0.0000
0 10 10 7.4415 -0.0000
0 11 1 -55.2370 0.0000
0 11 5 -81.8419 0.0000
0 11 7 -12.1305 0.0000
0 12 0 35.3488 -0.0000
0 12 2 -38.6000 0.0000
0 12 4 -12.7880 0.0000
0 12 8 -11.6953 0.0000
0 13 3 23.2425 -0.0000
0 13 7 -25.5453 0.0000
0 14 2 -28.5061 0.0000
0 14 6 -30.1641 0.0000
1 6 5 -94.1065 42.3288
1 7 2 -18.8083 -48.7522
1 7 4 101.7048 -67.8211
1 7 6 -11.6228 20.6203
1 8 3 -38.9197 -40.6515
1 8 5 -68.8700 -59.4727
1 8 7 16.4795 48.7044
1 9 2 30.5846 15.6215
1 9 4 63.7279 -50.3027
1 9 6 60.3835 -36.9269
1 9 8 -52.0262 29.1587
1 10 1 -7.2858 -0.0000
1 10 3 57.0345 65.0477
1 10 5 -16.3307 1.3169
1 10 7 -6.2186 -9.9178
1 10 9 -38.9128 13.6526
1 11 2 -48.3802 38.5432
1 11 4 9.6368 59.3337
1 11 6 -42.9945 -11.1148
1 11 8 -18.6830 -26.7905
1 11 10 -3.4082 4.0558
1 12 1 -83.3903 -0.0000
1 12 3 -1.6872 34.4235
1 12 5 -37.4581 39.0120
1 12 7 -15.2630 -19.0029
1 12 9 12.1593 -8.4977
1 13 4 -13.0910 -4.5426
1 13 6 8.5964 10.1244
1 13 8 2.8428 -8.9717
1 14 1 -26.4205 0.0000
1 14 3 -3.9779 -10.5209
1 14 5 -9.4500 -7.1368
1 15 2 -47.2843 6.4890
2 5 5 -25.2841 0.0000
2 6 4 46.0950 2.1370
2 7 3 6.1221 -34.5212
2 7 5 -0.7585 -10.4344
2 8 2 -9.2730 -0.0000
2 8 4 8.9318 -109.9162
2 8 6 -30.4782 -1.9760
2 8 8 4.1533 -0.0000
2 9 3 23.1781 9.2508
2 9 7 74.5200 33.8062
2 9 9 -0.8674 -0.0000
2 10 2 -14.2981 0.0000
2 10 4 46.4405 0.4971
2 10 6 17.3391 -41.2293
2 10 8 -22.8498 30.8360
2 10 10 -7.6355 -0.0000
2 11 3 -6.6886 36.4957
2 11 5 -18.2043 13.1908
2 11 7 -24.0503 -16.7577
2 11 9 5.4562 1.6750
2 12 2 -19.6906 0.0000
2 12 4 9.4305 -7.3339
2 12 6 -7.9351 7.3444
2 13 3 42.6101 -30.9644
2 13 5 19.0266 -3.9924
2 13 7 13.5385 3.1235
2 14 4 16.5640 -35.6726
2 14 6 6.4662 -9.9062
2 15 3 18.9115 -22.5615
3 6 3 -66.6585 -0.0000
3 6 5 -94.9864 -3.5045
3 7 4 -1.4839 -77.5758
3 7 6 -25.1302 -36.4346
3 8 3 -35.9721 0.0000
3 8 5 -87.5540 -54.9708
3 8 7 0.8698 10.5860
3 9 4 -10.0066 -78.3324
3 9 6 -51.1915 -25.5234
3 9 8 13.4773 20.4411
3 10 3 11.4264 -0.0000
3 10 5 32.1697 -23.0782
3 10 7 8.4816 22.3928
3 10 9 -10.4768 9.1544
3 11 4 -37.5644 -19.6575
3 11 6 -2.1204 -16.9957
3 11 8 -30.0190 -2.1159
3 11 10 8.8981 2.6882
3 12 5 -8.6391 2.5761
3 12 9 0.5249 -19.1751
3 13 4 38.5107 -14.6074
3 13 6 -27.2680 7.6938
3 14 3 40.1070 0.0000
3 14 5 -1.6795 6.2575
4 5 5 24.6542 -0.0000
4 6 6 -30.4964 0.0000
4 7 5 23.4867 -7.0719
4 7 7 18.5273 0.0000
4 8 6 -19.1409 0.3015
4 8 8 -7.6668 -0.0000
4 9 5 -20.0305 20.7365
4 9 7 11.0720 46.9094
4 10 4 28.0436 0.0000
4 10 6 22.2479 55.5630
4 10 8 -25.3970 34.5105
4 10 10 -19.9856 -0.0000
4 11 5 12.4765 33.5603
4 11 7 -26.6220 30.2244
4 11 9 -12.8253 10.8713
4 12 4 0.8819 0.0000
4 12 6 -20.5415 11.4705
4 12 8 -21.4695 20.1360
4 13 5 -21.3199 12.8275
4 13 7 -23.0010 22.1480
4 14 4 20.1744 0.0000
5 6 5 20.9171 -0.0000
5 7 6 -35.7089 -7.4447
5 8 5 35.0784 0.0000
5 8 7 36.5051 2.2593
5 9 6 47.0622 15.2528
5 9 8 -17.7161 22.4045
5 10 5 126.6997 0.0000
5 10 7 32.5202 17.7778
5 10 9 -17.5206 -9.8855
5 11 6 5.5237 9.9600
5 11 8 0.7995 2.6923
5 12 5 21.4280 -0.0000
5 12 7 -3.8064 -12.0509
5 13 6 -13.6586 -8.0134
6 7 7 -43.1329 0.0000
6 8 6 -32.1803 0.0000
6 8 8 -1.8396 0.0000
6 9 7 -22.3918 -2.6154
6 9 9 0.9536 0.0000
6 10 6 36.0003 -0.0000
6 10 8 -7.4126 8.9713
6 11 7 4.0711 -2.7117
6 11 9 -0.1554 -11.4458
6 12 6 -16.0008 0.0000
7 9 8 18.4985 11.2204
7 10 7 6.1452 0.0000
7 10 9 -27.2167 -2.5122
7 11 8 -4.0078 14.0535
0 0 0 0.0 0.0
;
_olex2_exptl_crystal_mounting_method 'Diamond-anvil cell'
_olex2_submission_special_instructions 'No special instructions were received'
_oxdiff_exptl_absorpt_empirical_details
;
Empirical correction (ABSPACK) includes:
- Absorption correction using spherical harmonics
- Frame scaling
;
_oxdiff_exptl_absorpt_empirical_full_max 1.000
_oxdiff_exptl_absorpt_empirical_full_min 1.000
#END Tags that were not found in dictionaries
loop_
_space_group_symop_id
_space_group_symop_operation_xyz
1 'x, y, z'
2 '-y, x, z'
3 '-x, -y, z'
4 'y, -x, z'
5 'x, -z, y'
6 'x, -y, -z'
7 'x, z, -y'
8 'z, y, -x'
9 '-x, y, -z'
10 '-z, y, x'
11 'z, x, y'
12 'y, z, x'
13 '-y, -z, x'
14 'z, -x, -y'
15 '-y, z, -x'
16 '-z, -x, y'
17 '-z, x, -y'
18 'y, -z, -x'
19 'y, x, -z'
20 '-y, -x, -z'
21 '-x, z, y'
22 '-x, -z, -y'
23 'z, -y, x'
24 '-z, -y, -x'
25 'x+1/2, y+1/2, z+1/2'
26 '-y+1/2, x+1/2, z+1/2'
27 '-x+1/2, -y+1/2, z+1/2'
28 'y+1/2, -x+1/2, z+1/2'
29 'x+1/2, -z+1/2, y+1/2'
30 'x+1/2, -y+1/2, -z+1/2'
31 'x+1/2, z+1/2, -y+1/2'
32 'z+1/2, y+1/2, -x+1/2'
33 '-x+1/2, y+1/2, -z+1/2'
34 '-z+1/2, y+1/2, x+1/2'
35 'z+1/2, x+1/2, y+1/2'
36 'y+1/2, z+1/2, x+1/2'
37 '-y+1/2, -z+1/2, x+1/2'
38 'z+1/2, -x+1/2, -y+1/2'
39 '-y+1/2, z+1/2, -x+1/2'
40 '-z+1/2, -x+1/2, y+1/2'
41 '-z+1/2, x+1/2, -y+1/2'
42 'y+1/2, -z+1/2, -x+1/2'
43 'y+1/2, x+1/2, -z+1/2'
44 '-y+1/2, -x+1/2, -z+1/2'
45 '-x+1/2, z+1/2, y+1/2'
46 '-x+1/2, -z+1/2, -y+1/2'
47 'z+1/2, -y+1/2, x+1/2'
48 '-z+1/2, -y+1/2, -x+1/2'
loop_
_atom_site_label
_atom_site_type_symbol
_atom_site_fract_x
_atom_site_fract_y
_atom_site_fract_z
_atom_site_U_iso_or_equiv
_atom_site_adp_type
_atom_site_occupancy
_atom_site_site_symmetry_order
_atom_site_calc_flag
_atom_site_refinement_flags_posn
_atom_site_refinement_flags_adp
_atom_site_refinement_flags_occupancy
C1 C 0.8511(10) 0.6819(9) 0.6348(13) 0.202(14) Uiso 1 1 d D . .
H1 H 0.8457 0.7129 0.6313 0.243 Uiso 1 1 calc R . .
C2 C 0.8926(9) 0.6755(8) 0.6590(13) 0.202(14) Uiso 1 1 d D . .
H2A H 0.8906 0.6887 0.6876 0.243 Uiso 1 1 calc R . .
C3 C 0.9004(8) 0.6278(8) 0.6631(15) 0.202(14) Uiso 1 1 d D . .
H3A H 0.9066 0.6205 0.6329 0.243 Uiso 1 1 calc R . .
C4 C 0.8608(9) 0.6009(9) 0.6706(13) 0.202(14) Uiso 1 1 d D . .
H4 H 0.8533 0.6093 0.7002 0.243 Uiso 1 1 calc R . .
C5 C 0.8212(8) 0.6149(9) 0.6466(13) 0.202(14) Uiso 1 1 d D . .
H5 H 0.8256 0.6074 0.6161 0.243 Uiso 1 1 calc R . .
C6 C 0.7852(14) 0.5868(12) 0.6630(16) 0.202(14) Uiso 1 1 d D . .
H6A H 0.7628 0.5850 0.6412 0.243 Uiso 1 1 calc R . .
H6B H 0.7962 0.5579 0.6679 0.243 Uiso 1 1 calc R . .
C11 C 0.8654(10) 0.5344(8) 0.7174(11) 0.202(14) Uiso 1 1 d D . .
H11 H 0.8672 0.5550 0.7413 0.243 Uiso 1 1 calc R . .
C12 C 0.9067(9) 0.5093(10) 0.7141(16) 0.202(14) Uiso 1 1 d D . .
H12A H 0.9088 0.4953 0.7424 0.243 Uiso 1 1 calc R . .
C13 C 0.9025(9) 0.4717(13) 0.6835(16) 0.202(14) Uiso 1 1 d D . .
H13A H 0.8993 0.4841 0.6546 0.243 Uiso 1 1 calc R . .
C14 C 0.8622(10) 0.4453(10) 0.6914(14) 0.202(14) Uiso 1 1 d D . .
H14 H 0.8647 0.4327 0.7203 0.243 Uiso 1 1 calc R . .
C15 C 0.8226(8) 0.4732(11) 0.6911(13) 0.202(14) Uiso 1 1 d D . .
H15 H 0.8221 0.4869 0.6626 0.243 Uiso 1 1 calc R . .
C16 C 0.7765(10) 0.4619(17) 0.7007(15) 0.202(14) Uiso 1 1 d D . .
H16A H 0.7592 0.4880 0.7002 0.243 Uiso 1 1 calc R . .
H16B H 0.7657 0.4428 0.6784 0.243 Uiso 1 1 calc R . .
K1 K 0.8090(5) 0.5000 0.8090(5) 0.310(19) Uani 1 2 d S TU P
O2 O 0.9320(10) 0.6890(11) 0.6376(14) 0.238(11) Uiso 1 1 d D . .
H2 H 0.9511 0.6713 0.6424 0.357 Uiso 1 1 calc R . .
O3 O 0.9431(9) 0.6240(10) 0.6817(12) 0.238(11) Uiso 1 1 d D . .
H3 H 0.9424 0.6070 0.7020 0.357 Uiso 1 1 calc R . .
O4 O 0.8737(12) 0.5563(9) 0.6769(12) 0.238(11) Uiso 1 1 d D . .
O5 O 0.8116(8) 0.6607(9) 0.6482(11) 0.238(11) Uiso 1 1 d D . .
O6 O 0.7668(13) 0.6033(13) 0.7028(14) 0.238(11) Uiso 1 1 d D . .
H6 H 0.7861 0.6072 0.7205 0.357 Uiso 1 1 calc R . .
O12 O 0.9468(11) 0.5331(13) 0.7111(14) 0.238(11) Uiso 1 1 d D . .
H12 H 0.9657 0.5173 0.7014 0.357 Uiso 1 1 calc R . .
O13 O 0.9403(10) 0.4441(12) 0.6816(12) 0.238(11) Uiso 1 1 d D . .
H13 H 0.9386 0.4282 0.6605 0.357 Uiso 1 1 calc R . .
O14 O 0.8569(13) 0.4101(11) 0.6610(11) 0.238(11) Uiso 1 1 d D . .
O15 O 0.8268(9) 0.5083(9) 0.7218(10) 0.238(11) Uiso 1 1 d D . .
O16 O 0.7715(13) 0.4411(13) 0.7424(15) 0.238(11) Uiso 1 1 d D . .
H16 H 0.7698 0.4595 0.7613 0.357 Uiso 1 1 calc R . .
OA O 0.9751(12) 0.4751(12) 0.7500 0.238(11) Uiso 1 2 d S T P
loop_
_atom_site_aniso_label
_atom_site_aniso_U_11
_atom_site_aniso_U_22
_atom_site_aniso_U_33
_atom_site_aniso_U_23
_atom_site_aniso_U_13
_atom_site_aniso_U_12
K1 0.23(2) 0.46(4) 0.23(2) 0.03(2) 0.02(2) -0.03(2)
loop_
_atom_type_symbol
_atom_type_description
_atom_type_scat_dispersion_real
_atom_type_scat_dispersion_imag
_atom_type_scat_source
C C 0.0033 0.0016 'International Tables Vol C Tables 4.2.6.8 and 6.1.1.4'
H H 0.0000 0.0000 'International Tables Vol C Tables 4.2.6.8 and 6.1.1.4'
K K 0.2009 0.2494 'International Tables Vol C Tables 4.2.6.8 and 6.1.1.4'
O O 0.0106 0.0060 'International Tables Vol C Tables 4.2.6.8 and 6.1.1.4'
loop_
_geom_angle_atom_site_label_1
_geom_angle_atom_site_label_2
_geom_angle_atom_site_label_3
_geom_angle
_geom_angle_site_symmetry_1
_geom_angle_site_symmetry_3
C2 C1 H1 109.4 . .
C2 C1 O14 107(3) . 7_556
O5 C1 H1 109.4 . .
O5 C1 C2 121.2(18) . .
O5 C1 O14 100(3) . 7_556
O14 C1 H1 109.4 7_556 .
C1 C2 H2A 110.2 . .
C1 C2 K1 159.3(16) . 42_566
C3 C2 C1 108.1(14) . .
C3 C2 H2A 110.2 . .
C3 C2 K1 87.6(11) . 42_566
K1 C2 H2A 75.2 42_566 .
O2 C2 C1 117(3) . .
O2 C2 H2A 110.2 . .
O2 C2 C3 100.7(16) . .
O2 C2 K1 44.8(18) . 42_566
C2 C3 H3A 100.4 . .
C4 C3 C2 115.3(14) . .
C4 C3 H3A 100.4 . .
O3 C3 C2 105.2(17) . .
O3 C3 H3A 100.4 . .
O3 C3 C4 130(3) . .
C3 C4 H4 101.1 . .
C3 C4 C5 115.5(15) . .
C5 C4 H4 101.1 . .
O4 C4 C3 109(2) . .
O4 C4 H4 101.1 . .
O4 C4 C5 125(3) . .
C4 C5 H5 107.1 . .
C6 C5 C4 106(3) . .
C6 C5 H5 107.1 . .
O5 C5 C4 115.5(16) . .
O5 C5 H5 107.1 . .
O5 C5 C6 114(2) . .
C5 C6 H6A 109.2 . .
C5 C6 H6B 109.2 . .
H6A C6 H6B 107.9 . .
O6 C6 C5 112(3) . .
O6 C6 H6A 109.2 . .
O6 C6 H6B 109.2 . .
C12 C11 H11 109.8 . .
C12 C11 K1 109(2) . .
K1 C11 H11 67.3 . .
O4 C11 H11 109.8 . .
O4 C11 C12 91.9(15) . .
O4 C11 K1 159(2) . .
O4 C11 O15 119(3) . .
O15 C11 H11 109.8 . .
O15 C11 C12 115.0(15) . .
O15 C11 K1 48.8(16) . .
C11 C12 H12A 103.1 . .
C11 C12 C13 111.6(16) . .
C13 C12 H12A 103.1 . .
O12 C12 C11 118(3) . .
O12 C12 H12A 103.1 . .
O12 C12 C13 115(4) . .
C12 C13 H13A 106.2 . .
C12 C13 C14 113(2) . .
C14 C13 H13A 106.2 . .
O13 C13 C12 114(3) . .
O13 C13 H13A 106.2 . .
O13 C13 C14 111(3) . .
C13 C14 H14 107.5 . .
C15 C14 C13 111.3(19) . .
C15 C14 H14 107.5 . .
O14 C14 C13 113(3) . .
O14 C14 H14 107.5 . .
O14 C14 C15 109.6(18) . .
C14 C15 H15 105.5 . .
C14 C15 C16 130(4) . .
C16 C15 H15 105.5 . .
O15 C15 C14 110.7(16) . .
O15 C15 H15 105.5 . .
O15 C15 C16 97.4(17) . .
C15 C16 H16A 109.1 . .
C15 C16 H16B 109.1 . .
H16A C16 H16B 107.8 . .
O16 C16 C15 112(4) . .
O16 C16 H16A 109.1 . .
O16 C16 H16B 109.1 . .
C2 K1 C2 145.4(13) 44_666 41_646
C11 K1 C2 105.0(7) 23_565 44_666
C11 K1 C2 105.0(7) . 41_646
C11 K1 C2 82.7(8) . 44_666
C11 K1 C2 82.7(8) 23_565 41_646
C11 K1 C11 154.5(14) . 23_565
O2 K1 C2 130.9(13) 41_646 44_666
O2 K1 C2 130.9(13) 44_666 41_646
O2 K1 C2 22.4(5) 44_666 44_666
O2 K1 C2 22.4(5) 41_646 41_646
O2 K1 C11 87.1(8) 44_666 23_565
O2 K1 C11 104.5(9) 44_666 .
O2 K1 C11 104.5(9) 41_646 23_565
O2 K1 C11 87.1(8) 41_646 .
O2 K1 O2 126.1(19) 44_666 41_646
O2 K1 O3 92.0(12) 44_666 41_646
O2 K1 O3 92.0(12) 41_646 44_666
O2 K1 O3 53.9(9) 41_646 41_646
O2 K1 O3 53.9(9) 44_666 44_666
O2 K1 O15 121.6(10) 44_666 .
O2 K1 O15 88.5(9) 44_666 23_565
O2 K1 O15 88.5(9) 41_646 .
O2 K1 O15 121.6(10) 41_646 23_565
O2 K1 O16 156.2(14) 44_666 .
O2 K1 O16 77.1(11) 44_666 23_565
O2 K1 O16 77.1(11) 41_646 .
O2 K1 O16 156.2(14) 41_646 23_565
O3 K1 C2 112.4(10) 44_666 41_646
O3 K1 C2 41.9(6) 41_646 41_646
O3 K1 C2 112.4(10) 41_646 44_666
O3 K1 C2 41.9(6) 44_666 44_666
O3 K1 C11 139.3(9) 44_666 23_565
O3 K1 C11 139.3(9) 41_646 .
O3 K1 C11 60.7(10) 41_646 23_565
O3 K1 C11 60.7(10) 44_666 .
O3 K1 O3 104.7(18) 44_666 41_646
O3 K1 O15 141.1(8) 44_666 23_565
O3 K1 O15 83.8(11) 41_646 23_565
O3 K1 O15 83.8(11) 44_666 .
O3 K1 O15 141.1(8) 41_646 .
O3 K1 O16 139.5(12) 44_666 .
O3 K1 O16 99.9(11) 44_666 23_565
O3 K1 O16 99.9(11) 41_646 .
O3 K1 O16 139.5(12) 41_646 23_565
O15 K1 C2 99.5(7) 23_565 44_666
O15 K1 C2 99.2(9) 23_565 41_646
O15 K1 C2 99.5(7) . 41_646
O15 K1 C2 99.2(9) . 44_666
O15 K1 C11 132.6(13) 23_565 .
O15 K1 C11 132.6(13) . 23_565
O15 K1 C11 23.2(4) . .
O15 K1 C11 23.2(4) 23_565 23_565
O15 K1 O15 113.3(15) . 23_565
O15 K1 O16 72.6(12) . 23_565
O15 K1 O16 57.4(12) 23_565 23_565
O15 K1 O16 57.4(12) . .
O15 K1 O16 72.6(12) 23_565 .
O16 K1 C2 145.9(12) . 44_666
O16 K1 C2 68.0(9) . 41_646
O16 K1 C2 145.9(12) 23_565 41_646
O16 K1 C2 68.0(9) 23_565 44_666
O16 K1 C11 81.0(11) . 23_565
O16 K1 C11 79.6(11) 23_565 23_565
O16 K1 C11 81.0(11) 23_565 .
O16 K1 C11 79.6(11) . .
O16 K1 O16 80.6(16) 23_565 .
C2 O2 K1 113(2) . 42_566
C2 O2 H2 109.5 . .
K1 O2 H2 48.2 42_566 .
C3 O3 K1 124.6(17) . 42_566
C3 O3 H3 109.5 . .
K1 O3 H3 114.9 42_566 .
C11 O4 C4 121(3) . .
C1 O5 C5 105.1(3) . .
C6 O6 H6 109.5 . .
C12 O12 H12 109.5 . .
C13 O13 H13 109.5 . .
C14 O14 C1 115(3) . 5_565
C11 O15 K1 108(2) . .
C15 O15 C11 115.4(17) . .
C15 O15 K1 124(2) . .
C16 O16 K1 108(3) . .
C16 O16 H16 109.5 . .
K1 O16 H16 26.6 . .
loop_
_geom_bond_atom_site_label_1
_geom_bond_atom_site_label_2
_geom_bond_distance
_geom_bond_site_symmetry_2
C1 H1 0.9800 .
C1 C2 1.501(3) .
C1 O5 1.450(3) .
C1 O14 1.54(5) 7_556
C2 H2A 0.9800 .
C2 C3 1.500(3) .
C2 K1 3.50(3) 42_566
C2 O2 1.450(3) .
C3 H3A 0.9800 .
C3 C4 1.500(3) .
C3 O3 1.449(3) .
C4 H4 0.9800 .
C4 C5 1.500(3) .
C4 O4 1.450(3) .
C5 H5 0.9800 .
C5 C6 1.500(3) .
C5 O5 1.450(3) .
C6 H6A 0.9700 .
C6 H6B 0.9700 .
C6 O6 1.450(3) .
C11 H11 0.9800 .
C11 C12 1.500(3) .
C11 K1 3.50(3) .
C11 O4 1.450(3) .
C11 O15 1.450(3) .
C12 H12A 0.9800 .
C12 C13 1.51(3) .
C12 O12 1.45(3) .
C13 H13A 0.9800 .
C13 C14 1.51(3) .
C13 O13 1.450(3) .
C14 H14 0.9800 .
C14 C15 1.500(3) .
C14 O14 1.450(3) .
C15 H15 0.9800 .
C15 C16 1.500(3) .
C15 O15 1.450(3) .
C16 H16A 0.9700 .
C16 H16B 0.9700 .
C16 O16 1.450(3) .
K1 C2 3.50(3) 44_666
K1 C2 3.50(3) 41_646
K1 C11 3.50(3) 23_565
K1 O2 2.68(4) 44_666
K1 O2 2.68(4) 41_646
K1 O3 2.74(3) 41_646
K1 O3 2.74(3) 44_666
K1 O15 2.77(4) 23_565
K1 O15 2.77(4) .
K1 O16 2.99(5) 23_565
K1 O16 2.99(5) .
O2 K1 2.68(4) 42_566
O2 H2 0.8200 .
O3 K1 2.74(3) 42_566
O3 H3 0.8200 .
O6 H6 0.8200 .
O12 H12 0.8200 .
O13 H13 0.8200 .
O14 C1 1.54(5) 5_565
O16 H16 0.8200 .
loop_
_geom_torsion_atom_site_label_1
_geom_torsion_atom_site_label_2
_geom_torsion_atom_site_label_3
_geom_torsion_atom_site_label_4
_geom_torsion
_geom_torsion_site_symmetry_1
_geom_torsion_site_symmetry_4
C1 C2 C3 C4 -38(4) . .
C1 C2 C3 O3 173(3) . .
C1 C2 O2 K1 168(2) . 42_566
C2 C1 O5 C5 -59(3) . .
C2 C3 C4 C5 38(5) . .
C2 C3 C4 O4 -176(3) . .
C2 C3 O3 K1 -10(4) . 42_566
C3 C2 O2 K1 -75(2) . 42_566
C3 C4 C5 C6 -174(3) . .
C3 C4 C5 O5 -47(4) . .
C3 C4 O4 C11 117(4) . .
C4 C3 O3 K1 -154(3) . 42_566
C4 C5 C6 O6 84(4) . .
C4 C5 O5 C1 53(3) . .
C5 C4 O4 C11 -100(4) . .
C6 C5 O5 C1 175(3) . .
C11 C12 C13 C14 -48(4) . .
C11 C12 C13 O13 -175(3) . .
C12 C11 O4 C4 -145(3) . .
C12 C11 O15 C15 -49(4) . .
C12 C11 O15 K1 94(3) . .
C12 C13 C14 C15 54(4) . .
C12 C13 C14 O14 178(3) . .
C13 C14 C15 C16 -175(3) . .
C13 C14 C15 O15 -55(4) . .
C13 C14 O14 C1 126(4) . 5_565
C14 C15 C16 O16 54(4) . .
C14 C15 O15 C11 53(4) . .
C14 C15 O15 K1 -83(3) . .
C15 C14 O14 C1 -110(4) . 5_565
C15 C16 O16 K1 56(4) . .
C16 C15 O15 C11 -169(3) . .
C16 C15 O15 K1 55(4) . .
K1 C2 C3 C4 156(3) 42_566 .
K1 C2 C3 O3 7(3) 42_566 .
K1 C11 C12 C13 97(3) . .
K1 C11 C12 O12 -125(4) . .
K1 C11 O4 C4 45(8) . .
K1 C11 O15 C15 -143(3) . .
O2 C2 C3 C4 -161(3) . .
O2 C2 C3 O3 50(4) . .
O3 C3 C4 C5 178(4) . .
O3 C3 C4 O4 -36(6) . .
O4 C4 C5 C6 47(4) . .
O4 C4 C5 O5 173(3) . .
O4 C11 C12 C13 -79(3) . .
O4 C11 C12 O12 58(5) . .
O4 C11 O15 C15 59(3) . .
O4 C11 O15 K1 -159(2) . .
O5 C1 C2 C3 52(4) . .
O5 C1 C2 K1 -170(5) . 42_566
O5 C1 C2 O2 165(3) . .
O5 C5 C6 O6 -44(5) . .
O12 C12 C13 C14 174(4) . .
O12 C12 C13 O13 46(5) . .
O13 C13 C14 C15 -177(3) . .
O13 C13 C14 O14 -53(4) . .
O14 C1 C2 C3 -61(3) 7_556 .
O14 C1 C2 K1 77(6) 7_556 42_566
O14 C1 C2 O2 52(3) 7_556 .
O14 C1 O5 C5 58(3) 7_556 .
O14 C14 C15 C16 59(5) . .
O14 C14 C15 O15 179(3) . .
O15 C11 C12 C13 45(4) . .
O15 C11 C12 O12 -178(4) . .
O15 C11 O4 C4 95(4) . .
O15 C15 C16 O16 -72(5) . .
loop_
_refln_index_h
_refln_index_k
_refln_index_l
_refln_F_squared_meas
_refln_F_squared_sigma
_refln_scale_group_code
5 5 2 2787.48 431.45 4
-5 -5 -2 1338.15 300.15 3
-5 -5 4 201.32 155.04 1
-5 -5 4 237.97 108.88 6
5 5 -4 153.57 73.03 4
-3 -6 3 12.45 92.94 6
3 -6 3 38.9 84.85 14
6 3 -3 38.59 25.99 4
3 -6 -3 7.11 46.49 13
-6 -3 3 9.1 64.93 3
6 -3 -3 40.66 56.75 12
6 4 -2 264.37 117.82 4
-4 -6 2 283.08 119.03 6
4 -6 -2 228.12 122.04 13
-6 -2 4 131.91 67.53 3
-6 -4 -2 74.04 77.57 3
6 2 -4 159.38 113.68 5
6 -4 -2 235.79 123.7 12
4 -6 2 234.31 120.18 14
-6 -4 2 489.19 176.3 3
6 4 2 70.15 41.16 4
6 2 -4 243.26 156.34 4
-2 -6 4 205.79 113.55 6
6 4 -4 2585.56 418.82 5
6 4 -4 2048.33 402.3 2
-4 -6 4 2235.42 427.1 6
6 4 -4 2163.11 413.88 4
4 6 -4 2353.16 429.97 7
-6 -4 4 2410.13 415.88 6
-6 -4 4 2429.64 449.85 1
6 -4 -4 2248.9 418.89 12
4 6 -4 2354.92 412.4 4
-5 -6 3 2230.71 405.86 6
-6 5 3 2460.13 445.79 9
6 5 -3 2383.73 438.11 2
5 -6 -3 2152.59 410.53 12
-5 -6 3 2392.27 433.35 3
-5 -6 3 2416.67 437.32 1
6 5 -3 2716.23 465.68 4
5 -6 -3 1721.18 365.92 13
-5 6 -3 1381.97 336.88 15
-5 6 -3 1619.23 352.5 16
6 -5 3 1848.43 377.84 14
-6 -5 -1 486.19 164.71 6
6 -5 1 1006.75 268.28 14
6 5 -1 1087.67 276.7 4
-5 -6 1 1056.21 279.26 3
5 6 1 839.53 248.11 4
-5 -6 1 982.78 269.03 6
-6 -5 -1 543.11 238.55 3
5 -6 -1 1100.59 279.89 12
-6 -5 1 817.39 249.08 3
5 -6 1 984.93 274.62 14
-6 -5 1 899.72 242.06 6
5 6 -1 1001.75 268.62 4
6 5 1 754.57 230.78 4
6 -5 -1 957.66 268.66 12
-6 -5 3 2403.26 419.64 6
5 6 -3 2332.55 431.33 7
6 -5 -3 2320.86 429.96 12
5 6 -3 2517.56 445.36 4
6 -5 -3 2017.94 392.65 13
-6 5 -3 1373.53 325.1 15
-6 -5 3 2571.18 460.65 3
-5 6 3 2058.5 402.18 15
-6 -5 3 2293.93 444.88 1
-5 6 3 2214.31 424.07 16
-6 5 -3 1484.52 335.79 16
5 -6 3 1991.35 406.76 14
-6 -5 5 454.66 229.79 3
6 5 -5 563.11 233.63 7
6 5 -5 395.05 200.05 4
5 6 -5 440.21 187.46 7
-6 -6 0 119.12 120.2 3
-6 -6 0 80.19 115.73 6
6 6 0 98.6 113.27 7
6 6 0 21.64 96.65 2
-6 6 0 1.14 56.74 16
-6 6 0 41.75 45.57 15
6 6 0 41.3 127.69 4
-6 -6 0 2.78 51.41 1
-6 6 -2 1142.71 283.26 9
-6 6 -2 1563.59 342.65 16
-6 6 -2 1108.96 293.8 15
6 6 2 1040.6 283.31 7
6 -6 2 1550.65 340.55 14
-6 6 4 351.4 190.92 15
6 6 -4 382.99 191.81 2
6 6 -4 312.99 127.71 5
6 6 -4 514.07 216.1 7
6 6 -4 516.24 232.65 4
-6 -6 4 454.26 215.44 3
6 -6 -4 286.73 107.57 13
6 -6 -4 481.33 156.75 12
-6 -6 4 341.3 189.22 1
-6 6 4 379.46 169.96 9
-6 6 4 454.67 196.48 16
-6 -6 4 321.77 122.33 6
-2 -7 1 864.64 240.53 6
1 -7 2 598.23 201.53 11
7 -1 -2 796.33 240.66 5
-7 -2 -1 470.16 173.63 3
-1 -7 2 751.58 219.18 11
7 1 -2 771.94 215.58 5
-2 -7 -1 431.35 156.54 6
7 2 1 546.2 183.94 5
2 -7 1 1041.74 276.06 11
7 3 -2 776.6 219.02 5
7 -2 -3 637.51 218.91 5
3 -7 -2 569.49 209.25 13
7 -2 -3 779.07 241.48 12
7 3 -2 797.83 223.96 4
2 -7 3 634.26 214.71 14
-7 -2 3 671.9 213.6 3
-3 -7 2 565.19 201.51 11
-3 -7 2 620.15 209.18 6
0 -7 3 1337.78 310.13 11
-3 -7 0 1063.25 265.37 6
7 3 0 1250.65 287.37 5
7 3 0 1599.13 327.65 4
-7 -3 0 1027 254.87 3
7 2 -3 882.93 250.1 5
-2 -7 3 822.88 247.37 6
2 -7 -3 676.11 234.5 13
7 2 -3 801.43 229.04 4
3 -7 2 828.7 253.29 11
-2 -7 3 533.76 208.27 11
-7 -3 2 531.64 174.4 3
7 3 2 407.26 167.39 4
3 -7 2 515.37 205.78 14
4 -7 -3 169.98 124.03 13
7 -3 -4 170.83 141.97 5
3 7 -4 257.88 83.31 4
-7 -3 4 55.61 46.19 1
7 4 -3 232.82 164.54 4
-7 -3 4 225.05 129.43 8
-4 -7 3 300.81 138.92 6
-4 -7 3 207.02 76.24 3
4 -7 -3 74.76 104.84 12
-7 -3 4 97.89 108.75 3
-4 7 -3 48.96 30.08 15
7 4 -3 144.97 72.82 2
-4 -7 3 157.24 88.96 11
7 -3 -4 267.6 141.17 12
7 4 -3 222.6 151.69 5
-4 7 -3 191.17 152.07 16
7 4 -1 1965.75 379.42 5
7 -1 -4 2110.89 381.94 12
-4 7 -1 2124.12 409.98 15
7 4 -1 2154.85 405.9 2
7 -4 1 1891.56 363.63 14
7 -1 -4 2014.82 388.68 5
-4 -7 1 2093.57 383.29 3
4 7 1 1688.51 363.65 7
7 4 -1 2155.09 416.5 4
-7 -4 -1 1121.86 285.52 3
4 7 1 2150.3 378.74 4
-4 7 -1 2043.67 379.02 16
-7 -1 4 2045.18 394.27 8
-7 -4 -1 964.15 258.17 1
-4 -7 1 2102.66 395.53 6
-7 4 1 2430.35 436.17 9
-7 -1 4 2028.1 385.64 3
4 -7 -1 2078.25 403.13 13
1 -7 4 2062.27 393.7 11
7 1 -4 2009.99 370.64 4
4 -7 1 2157.9 412.12 11
7 -4 -1 2207.84 400.55 12
-7 4 -1 1510.98 347.89 9
-7 -4 1 2247.29 427.17 1
-4 7 1 2164.18 402.26 16
4 -7 1 2122.74 394.6 14
7 4 1 1756.83 353.86 4
-1 -7 4 1761.16 375.74 11
7 4 1 1671.46 337.07 5
4 7 -1 2102.54 398.84 7
7 1 -4 2138.91 400.59 5
7 4 1 1813.19 371.81 2
-4 7 1 2024.72 419.48 15
-7 -4 1 2104.74 393.07 3
4 7 -1 2295.99 389.04 4
-4 -7 -1 824.18 277.55 6
-1 -7 4 1862.43 376.51 6
-4 -7 -1 978.91 267.35 3
-7 -4 3 71.04 25.43 1
-7 3 4 229.94 145.55 9
-3 -7 4 78.3 79.3 3
-4 7 3 105.91 91.32 16
7 3 -4 103.82 53.92 2
-7 -4 3 287.69 180.41 3
7 -4 -3 218.17 97.12 5
-4 7 3 245.05 137.89 15
4 7 -3 64.22 53.43 7
-7 -4 3 86 49.2 6
4 7 -3 278.82 78.2 4
-7 4 -3 33.86 107.85 16
7 3 -4 204.75 136.3 4
4 -7 3 116.94 19.81 11
-7 4 -3 158.47 122.42 9
7 3 -4 156.09 95.15 5
4 -7 3 230.59 133.83 14
7 -4 -3 86.13 43.14 13
-7 5 4 626.92 226.1 9
7 5 -4 572.82 219.31 5
-7 5 4 614.24 246.48 16
-5 -7 4 420.08 167.54 6
-5 -7 4 585.68 243.36 3
5 -7 -4 404.68 211.12 13
4 7 -5 447.88 196.99 7
-5 -7 4 606.46 238.16 1
7 5 -4 645.5 263.69 4
7 5 -4 460.17 184.94 7
7 5 -4 655.41 284.69 2
-7 -4 5 344.49 199.88 3
-5 -7 4 372.94 162.96 11
-7 5 4 434.74 193.53 15
-7 5 2 301.02 191.17 15
7 5 -2 473.16 237.74 4
7 5 -2 208.08 173.47 5
7 -5 2 175.75 127.94 14
7 5 -2 487.99 238.21 2
5 -7 -2 46.6 68.67 12
-7 5 2 45.7 92.65 9
-7 5 2 2.84 65.31 16
5 -7 -2 181.91 144.47 13
-7 -5 -2 19.09 73.65 1
-7 -5 -2 6.18 47.56 3
-5 7 -2 103.21 88.36 15
-5 -7 2 181.89 120.65 1
-5 -7 0 633.8 226.26 1
-7 -5 0 478.34 209.76 1
-7 5 0 1020.2 289.42 16
7 5 0 1209.07 287.17 5
-5 -7 0 771.43 235.39 6
5 7 0 953.84 269.07 4
-7 -5 0 746.04 256.59 6
5 7 0 1294.66 316.55 7
7 5 0 1053.83 292.77 4
7 5 0 808.9 250.5 2
-7 5 0 1119.2 280.69 9
-5 -7 0 678.29 211.81 3
-7 -5 0 705.94 228.95 3
5 7 -2 255 115.5 2
-5 7 2 65.87 72.62 16
-7 5 -2 202.3 126.6 16
5 -7 2 108.29 91.49 11
-5 -7 -2 221.84 105.55 1
-7 5 -2 303.23 144.72 15
7 -5 -2 188.9 149.47 12
7 5 2 62.91 12.26 4
-7 5 -2 126.3 97.38 9
7 -5 -2 1.81 88.78 13
7 5 2 160.52 140.66 2
-5 7 2 120.08 62.9 15
7 -5 -4 429.25 214.26 13
-7 -5 4 555.85 175.13 8
-5 7 4 631.52 237.55 16
7 -5 -4 590.04 191.92 12
-7 -5 4 558.22 223.43 3
5 7 -4 449.37 200 4
-5 7 4 437.96 221.11 15
-7 -5 4 508.61 213.17 1
5 7 -4 378.93 116.13 2
-4 -7 5 356.32 196.7 6
5 7 -4 630.62 270.41 7
-7 -5 4 767.95 281.02 6
-6 -7 5 373.87 218.3 3
7 6 -5 485.47 219.4 4
-6 -7 5 494.19 230.46 6
-6 -7 5 554.97 254.71 1
7 6 -5 310.36 191.96 7
7 6 -5 492.51 197.72 2
-6 -7 5 582.21 205.84 8
-6 -7 3 490.9 223.01 1
-6 7 -3 366.06 171.76 16
-6 7 -3 481.08 221.25 15
-7 6 3 656.24 252.75 15
-7 -6 -3 40.05 42.8 3
-6 -7 3 353.46 214.65 6
-6 -7 3 384.63 198.75 3
7 6 -3 577.43 197.57 5
6 -7 -3 311.52 162.18 13
-7 6 3 573.93 200.07 16
-6 7 -3 412.8 190.08 10
-6 7 -3 221.06 161.06 9
-7 6 3 471.11 190.45 9
7 -6 3 485.32 224.4 14
7 6 -3 567.3 209.82 7
7 6 -3 727.3 266.28 4
7 6 -3 784.79 286.5 2
-6 -7 3 421.07 161.67 11
-7 6 1 1015.25 286.22 9
-6 -7 1 552.5 198.58 1
-7 6 1 851.56 262.57 15
-6 -7 1 798.97 267.46 6
-6 7 -1 1075.25 326.01 16
-6 7 -1 638.49 231.9 15
7 6 -1 891.96 239.3 5
6 -7 -1 912.79 282.4 12
7 -6 1 687.96 243.28 14
-7 6 1 925.47 277.63 16
6 7 1 619.33 262.77 2
7 6 -1 1049.12 298 7
6 7 1 822.42 278.01 4
-6 7 -1 716.97 252.65 9
-6 -7 1 947.14 296.42 3
-7 -6 -1 393.97 192.95 1
7 6 -1 858.55 277.19 4
6 7 1 780.23 269.64 7
6 7 -1 803.32 269.56 4
-7 6 -1 897.88 273.8 15
-7 -6 1 407.88 204.86 1
7 -6 -1 1042.36 313.73 12
-6 7 1 1018.69 279.93 9
6 7 -1 823.78 290.96 7
6 7 -1 973.33 287.83 2
-7 -6 1 480 198.43 6
-7 6 -1 764.12 272.93 9
-6 -7 -1 361 188.28 1
7 6 1 857.63 267.65 4
6 -7 1 892.35 266.81 14
-6 7 1 954.55 278.37 15
7 6 1 656.89 241.96 2
-7 6 -1 857.23 275.21 16
6 -7 1 748.88 236.7 11
7 6 1 642.31 233.4 7
-7 -6 1 747.17 224.44 3
-6 -7 -1 229.32 161.81 3
-7 6 -3 390.98 162.26 15
-7 -6 3 773.18 274.33 1
-7 6 -3 239.68 197.84 16
6 7 -3 637.67 226.65 4
-7 -6 3 657.07 211.15 8
6 7 -3 455.84 203 7
7 -6 -3 537.25 187.41 5
-7 6 -3 311.57 184.21 9
6 7 -3 563.18 228.17 2
6 -7 3 506.21 187.5 14
6 -7 3 465.52 168.72 11
7 -6 -3 915.34 298.01 12
6 7 -3 533.42 181.88 5
7 -6 -3 377.71 152.71 13
-7 -6 3 445.55 186.9 3
-7 -6 3 482.84 181.85 6
-6 7 3 700.5 269.8 15
-7 -6 5 423.92 176.18 3
-7 -6 5 393.21 240.97 1
6 7 -5 563.23 247.76 2
6 7 -5 391.6 206.38 4
-7 -6 5 374.05 180.29 8
-7 -6 5 441.4 220.73 6
6 7 -5 441.4 203.96 7
-7 -7 0 997.45 332.91 3
7 7 0 949.83 263.54 5
-7 7 0 869.58 289.7 15
-7 7 0 922.59 272.22 9
-7 7 0 1037.09 327.99 16
7 7 0 1031.65 324.32 7
-7 -7 2 301.59 158.34 6
7 7 -2 218.43 136.31 4
-7 7 -2 119.01 107.44 15
-7 7 2 149.16 52.02 16
7 7 -2 160.71 145.6 5
7 -7 2 41.64 101.11 14
-7 -7 -2 35.12 64.49 3
7 7 2 151.51 163.36 4
-7 -7 2 165.51 123.65 3
7 -7 -2 120.55 80.13 12
-7 7 2 13.86 53.51 15
-7 7 -2 214.92 149.03 16
-7 7 2 67.7 54.64 9
7 -7 -2 120.14 107.32 13
7 7 -2 384.2 218.05 2
-7 -7 -2 151.46 138.13 6
-7 -7 2 102.68 94.65 1
-7 7 -2 12.31 124.8 9
7 7 2 187.56 116.18 2
7 7 2 146.77 193.19 7
7 7 -2 276.69 144.32 7
7 -7 2 302.64 155.49 11
-7 7 4 3.13 113.92 9
-7 -7 4 57 129.28 6
7 7 -4 73.3 98.18 4
-7 -7 4 30.23 12.56 11
7 -7 -4 92.27 91.62 13
-7 -7 4 29.05 32.17 1
-7 7 4 252.39 156.41 15
-7 7 -4 157.66 186.4 15
-7 7 -4 43.32 147.95 16
7 -7 4 55.91 140.63 14
7 -7 -4 19.84 148.88 12
-7 7 4 19.29 77.43 16
7 7 -4 44.41 6.42 7
7 7 -4 42 60.63 5
7 7 -6 1121.96 344.77 7
7 7 -6 871.7 316.7 4
7 7 -6 661.81 289.47 2
-7 -7 6 440.71 235.94 1
-7 -7 6 747.47 287.39 3
8 0 -2 3733.16 543.36 5
-2 8 0 3616.06 537.55 10
-8 -2 0 2780.85 483.26 8
0 8 -2 3606.48 553.95 10
0 8 2 3039.18 485.66 10
-2 -8 0 3004.75 478.45 6
8 0 -2 3803.93 525.7 12
0 -8 2 3933.94 539.54 11
8 2 0 3659.21 530.66 5
8 -2 -2 474.19 207.76 12
-2 -8 2 157.34 105.91 11
8 2 2 97.72 51.39 4
-8 -2 2 135.33 82.49 8
-8 -2 2 227.83 101.12 3
8 2 2 104.65 77.63 2
2 8 -2 162.09 101.55 10
-2 -8 2 23.75 74.79 6
8 2 -2 95.48 132.97 4
2 -8 2 273.7 143.75 14
2 8 2 160.47 90.03 10
2 8 -2 312.5 139.4 7
8 -2 -2 208.4 119.74 5
-2 8 -2 249.15 137.84 10
-2 8 -2 111.66 110.75 15
-8 -2 -2 113.71 81.35 3
-8 2 2 302.23 154.34 8
2 -8 2 338.1 168.55 11
-8 2 2 223.61 96.37 9
-8 -2 -2 176.32 115.03 8
8 2 -2 338.92 180.61 2
8 2 -2 454.69 201.94 5
-8 2 -2 43.09 111 9
3 8 1 350.01 209.9 7
-8 -1 3 426.36 183.22 3
1 -8 3 179.29 124.27 14
8 3 -1 457.13 192.79 2
8 -1 -3 320.9 141.13 12
-8 -3 -1 182.16 120.14 8
-8 -3 -1 145.25 123.82 3
1 -8 3 394.11 180.91 11
-3 8 -1 402.23 169.72 16
3 -8 -1 366.26 168.01 13
-3 8 -1 558.67 198.1 15
-1 8 3 184.21 98.18 15
-3 8 -1 457.11 175.98 10
1 -8 3 253.99 136.05 6
-8 -3 -1 193.85 100.35 1
-3 -8 1 242.07 123.91 6
3 8 1 327.72 146.85 4
-8 -1 3 434.75 174.17 8
-8 3 1 390.41 150.08 9
8 3 -1 242.09 37.27 4
8 3 -1 309.6 85.37 5
8 -3 1 396.97 171.84 5
1 8 -3 346.55 172.93 7
1 8 -3 387.39 159.6 10
8 -3 -1 345.87 138.06 5
-3 8 1 639.77 247.1 16
-3 8 1 509.78 211.83 15
8 3 1 286.31 142.05 5
8 3 1 383.27 174.74 2
3 -8 1 331.24 172.26 11
-8 -3 1 247.33 183.93 1
-1 -8 3 379.07 180.19 11
-8 -3 1 442.29 194.03 8
-1 8 -3 336.91 154.52 10
3 8 -1 439.22 151.51 4
8 1 -3 367.68 177.61 4
1 8 3 165.04 142.34 10
3 8 -1 414.8 168.78 7
-8 3 -1 315.58 150.8 9
-3 8 1 206.81 108.74 10
8 1 -3 337.46 161.96 12
8 1 -3 404.85 153.77 5
-8 -3 1 338.01 113.76 3
8 3 1 428.6 162.43 4
-1 -8 3 286.84 123.26 6
-3 -8 -1 209.34 152.17 6
8 3 -3 3017.71 487.62 2
-8 3 3 2990.92 479.89 8
8 3 -3 2618.34 473.28 4
8 -3 -3 2578.37 416.75 13
-3 8 3 2933.26 513.15 16
-3 8 -3 2365.74 440.96 10
3 -8 -3 2120.61 440.06 13
3 8 -3 2760.53 489.61 7
8 -3 -3 3131.2 526.19 12
8 -3 -3 3351.5 526.32 5
-3 -8 3 2992.77 463.06 3
-3 -8 3 2773.93 475.47 11
-3 8 3 1881.89 384.4 10
3 8 -3 2659.84 454.56 10
3 8 -3 3512.84 514.63 4
-3 8 -3 2288.19 438.69 16
-8 -3 3 3550.04 547.55 3
-8 3 -3 1204.62 333.18 9
-3 8 3 2721.8 494.69 15
8 3 -3 3249.4 519.75 5
3 -8 3 2897.11 504.88 11
-8 3 3 3340.65 536.43 9
-3 -8 3 2669.52 482.67 6
-3 8 -3 2446.3 454.86 15
-8 -4 -2 591.89 238.15 8
4 -8 -2 2329.54 444.3 13
2 8 -4 2005.3 416.59 10
2 -8 4 2612.14 506.83 11
2 8 -4 2287.71 447.25 7
-8 -2 4 2069.81 417.42 3
4 8 2 1783.66 401.28 7
8 4 -2 3260.06 549.38 2
4 -8 -2 2430.95 415.36 12
-4 -8 2 2904.55 473.52 1
-8 -4 -2 960.37 296.2 1
-8 -2 4 2444.03 462.52 8
4 8 2 1905.39 387.7 10
-4 8 -2 2057.43 405.01 10
-4 8 -2 2432.71 429.35 16
8 4 -2 2817.84 500.65 5
-8 4 2 2707.85 497.21 9
8 -2 -4 2285.34 457.33 12
8 -4 2 2127.58 399.68 14
4 8 2 1727.22 350.96 4
-4 8 -2 1938.56 422.53 15
8 -2 -4 2532.67 474.31 5
8 4 -2 2932.65 517.01 4
8 -4 0 324.2 136.44 5
0 -8 4 461.82 213.34 6
-8 0 4 436.78 184.45 8
4 8 0 410.64 184.41 7
-4 -8 0 151.84 52.38 3
4 8 0 373.95 167.71 4
0 8 -4 397.74 181.14 10
0 -8 4 423.47 206.25 11
8 4 0 390.26 135.11 4
-8 -4 0 150.7 99.49 1
-8 -4 0 400.94 199.65 8
-8 -4 0 223 120.61 6
8 4 0 436.64 198.13 2
8 0 -4 372.2 177.36 5
-8 0 4 334.01 155.91 9
-8 0 4 194.08 116.86 3
-4 -8 0 277.63 181.29 6
8 0 -4 373.97 179.27 4
0 8 -4 264.57 122.66 7
8 4 0 398.4 160.61 5
-8 -4 0 303.26 167.91 3
8 0 -4 238.19 128.52 12
-8 4 0 269.09 109.5 9
-8 -4 2 2836.36 489.73 1
-4 8 2 2558.88 474.74 15
-8 4 -2 2037.55 390.48 16
-2 -8 4 2200.78 460.37 11
-8 2 4 2341.61 462.66 8
4 -8 2 2726.38 484.11 11
-8 -4 2 2956.59 510.16 3
-8 4 -2 1834.07 379.44 15
-4 -8 -2 442.36 175.11 1
-2 8 -4 1954.96 440.48 10
4 8 -2 2341.1 426.6 10
8 2 -4 2660.12 494.1 5
-8 -4 2 2715.36 473.86 8
8 4 2 1557.03 367.54 4
-8 4 -2 1545.73 357.06 9
-8 2 4 2864.39 498.71 9
4 -8 2 2055.88 429.52 14
8 2 -4 2018.55 365.96 12
8 2 -4 2863.38 497.53 4
-4 8 2 1995.91 382.91 10
8 2 -4 2598.59 468.93 2
8 4 -4 1265.36 311.83 7
-8 -4 4 1630.34 384.38 8
4 8 -4 1432.22 348.56 2
8 -4 -4 942.87 273.33 13
8 -4 -4 939.93 275.69 12
4 8 -4 1336.91 328.41 10
4 -8 4 1314.85 340.92 11
-8 -4 4 1433.76 372.88 3
-8 4 4 1454.93 357.05 16
-4 -8 4 1588.02 390.25 6
4 -8 4 1110.19 331.01 14
8 4 -4 1478.06 375.48 4
8 -4 -4 1182.71 323.96 5
-4 8 -4 1266.67 325.38 16
-8 4 4 1112.35 298.28 15
8 4 -4 1433.21 363.6 5
-8 -4 4 1491.58 378.54 1
4 8 -4 1316.94 337.39 4
4 8 -4 1298.4 346.99 7
-4 -8 4 1599.13 366.34 3
-4 -8 4 1507.66 380.31 1
-8 4 4 1577.59 394.32 9
8 4 -4 1320.43 343.19 2
-4 8 4 1150.97 325.5 15
-8 -4 4 1132.66 309.96 6
4 -8 -4 881.54 271.15 13
-4 -8 4 1179.3 308.92 11
-8 5 3 2277.3 445.75 9
-8 5 3 1642.74 373.5 15
8 -3 -5 1780.82 418.27 12
8 5 -3 2761.07 481.54 7
-5 -8 3 2378.04 438.26 3
-5 -8 3 2113.76 403.97 11
8 -5 3 1819.11 412.33 14
-5 8 -3 1812.33 418.63 15
-8 -5 -3 271.28 194.91 3
-5 8 -3 1847.48 415.26 16
5 8 3 1252.92 342.01 7
8 5 -3 2473.59 507.92 4
3 8 -5 2245.05 471.61 7
-8 -3 5 1933.71 417.61 1
-8 -3 5 2441.76 470.63 8
8 5 -3 2352.33 438.76 5
-5 -8 3 2522.14 468.57 1
5 -8 -3 2324.59 435.46 12
-8 -3 5 2137.27 452.69 3
-5 -8 3 2472.19 500.67 6
-5 8 -3 1753.07 389.23 10
8 5 -3 2345.84 456.24 2
-8 5 3 2137.12 404.99 8
5 -8 -3 1634.11 406.24 13
-8 5 3 2529.81 458.43 16
5 8 1 1367.55 349.35 7
-8 -1 5 1426.16 360.47 8
8 -1 -5 1650.51 386.68 5
-5 8 -1 1488.89 382.83 16
8 5 -1 1838.65 414.89 2
5 8 1 1571.89 357.03 2
5 -8 -1 1753.97 361.6 12
8 5 -1 1785.48 406.19 4
8 -5 1 1394.18 326.27 14
-8 -5 -1 810.43 285.69 1
8 5 -1 1664.58 401.04 5
8 -5 1 1813.53 362.72 5
5 8 1 1557.29 358.17 4
-8 -5 1 1452.01 356.02 3
8 5 1 1444.55 341.44 2
5 -8 1 1260.63 330.17 14
-5 8 1 1477.63 374.38 16
-8 -5 1 958.08 268.07 8
8 1 -5 1494.63 369.28 5
-5 8 1 1193.53 310.63 10
-8 -5 1 1439.2 364.14 1
5 -8 1 1791.44 371.04 11
-8 5 -1 1404.41 319.12 15
-5 -8 -1 981.32 303.54 6
-8 1 5 1204.01 348.57 8
8 5 1 1334.21 331.69 5
-5 8 1 1600.43 378.43 15
-8 5 -1 1395.59 348.52 16
-5 -8 -1 817.83 272.87 3
-5 8 1 1914.21 378.28 9
-8 -5 1 1471.7 329.76 6
-5 -8 -1 860.81 264.19 1
5 8 -3 2299.7 458.27 4
8 -5 -3 2577.12 499.67 12
-3 -8 5 2252.6 466.95 6
8 -5 -3 2204.41 430.97 5
8 3 -5 2337.12 452.41 5
-5 8 3 2479.79 479.91 15
-8 -5 3 2444.41 483.36 3
5 8 -3 2278.63 426.04 10
-8 5 -3 1161.47 317.97 15
-8 -5 3 2186.12 432.21 6
-8 -5 3 2428.5 484.6 1
-8 -5 3 2615.81 474.53 8
8 3 -5 2191.05 450.05 4
8 3 -5 2145.54 451.71 2
8 -5 -3 2340.17 433.25 13
5 8 -3 2640.91 490.11 2
5 -8 3 2443.41 461.66 11
-8 5 -3 1766.84 394.39 16
-5 8 3 2021.21 408.85 9
-5 8 3 1514.02 332.04 10
5 8 -3 2224.41 455.8 7
5 -8 3 1780.89 446.37 14
8 5 -5 913.49 290.13 7
-8 -5 5 735.45 271.5 6
-8 -5 5 689.01 288.33 1
8 5 -5 896.74 309.78 2
8 5 -5 818.67 292.22 4
-8 -5 5 666.07 227.13 8
-5 -8 5 722.72 239.33 6
-8 5 5 623.52 268.65 9
-8 -5 5 666.16 246.9 3
8 5 -5 904.8 301.67 5
8 6 -4 12.41 56.93 7
6 -8 -4 54.8 87.39 13
-6 -8 4 103.4 127.99 6
8 6 -4 108.09 41.8 5
-6 8 -4 40.4 79.33 16
-6 -8 4 14.17 14.4 1
-8 6 4 60.24 79.28 8
-6 8 -4 65.84 87.08 15
6 -8 -4 78.15 129.07 12
-8 6 4 247.74 175.69 9
-8 6 4 63.48 64.78 15
-8 6 4 133.57 128.91 16
-6 8 -4 139.99 152.54 10
-6 -8 4 22.45 48.86 3
8 6 -4 101.46 55.56 4
-6 -8 4 10.41 129.44 11
8 6 -4 186.97 133.44 2
8 6 -2 786.81 261.29 4
-6 8 -2 680.47 215.55 10
-8 6 2 626.71 221.13 9
-6 -8 2 872.21 299.94 1
-8 6 2 919.57 299.15 15
6 8 2 487.98 212.93 10
-6 -8 2 1014.58 307.01 6
6 -8 -2 846.21 289.91 13
-8 -6 -2 265.84 160 1
8 6 -2 1071.13 316.87 7
6 -8 -2 860.51 270.9 12
8 6 -2 899.38 300.11 2
6 8 2 450.86 190.29 2
8 -6 2 1029.85 292.52 14
6 8 2 670.63 261.25 7
-6 8 -2 607.86 236.32 16
-8 -6 -2 194.93 123.99 8
8 -6 2 877.6 250.13 5
-6 8 -2 576.22 218.19 9
-6 8 -2 564.83 230.76 15
-6 -8 2 964.35 332.89 3
-8 6 2 830.67 281.65 16
8 6 -2 974.45 268.77 5
-8 -6 -2 272 210.62 3
6 8 2 559.66 238.66 4
8 -6 0 136.2 134.1 5
-6 8 0 146.86 210.7 15
-8 6 0 68.49 33.71 16
-6 8 0 121.42 79.48 16
-6 8 0 248.82 179.18 10
-6 -8 0 218.52 170.22 1
-8 6 0 94.83 78.07 9
6 8 0 141.35 150.78 7
6 -8 0 74.61 108.97 11
6 8 0 225.09 197.38 2
-8 6 0 137.97 114.99 15
-6 -8 0 127.13 137.37 6
-8 -6 0 91.43 59.08 8
6 8 0 36.11 100.91 4
-6 8 0 44.08 146.35 9
-6 -8 0 148.84 106.71 3
-6 8 2 552.13 206.99 10
-6 8 2 610.05 247.09 9
6 8 -2 862.86 296.98 2
6 8 -2 957.54 301.69 4
8 -6 -2 862.37 278.97 5
8 6 2 606.22 212.11 4
-8 -6 2 902.03 308.26 1
-6 8 2 814.52 265.79 16
-8 -6 2 711.68 268.04 3
-8 6 -2 452.77 207.86 16
8 6 2 353.66 167.93 7
-6 8 2 783.84 295.22 15
8 6 2 420.57 186.88 2
6 -8 2 721.49 282.04 14
-6 -8 -2 305.76 179.62 3
-8 6 -2 446.55 189.07 15
6 -8 2 815.59 266.38 11
8 -6 -2 727.88 273.24 13
-8 -6 2 850.76 236.98 8
6 8 -2 727.73 227.5 7
-8 -6 2 732.17 234.83 6
-8 6 -2 723.19 271.93 9
8 -6 -2 993.17 316.39 12
-6 8 4 11.86 32.61 15
8 -6 -4 149 47.26 12
6 8 -4 15.74 123.22 4
8 -6 -4 76.24 77.22 13
-6 8 4 53.38 90.09 16
-8 -6 4 0.41 36.09 6
-8 -6 4 82.31 98.66 3
6 8 -4 104.85 129.8 10
-8 -6 4 119.23 129.51 1
6 8 -4 93.79 48.52 2
6 8 -4 99.41 78.04 5
6 8 -4 90.66 53.86 7
-8 -6 4 23.89 74.5 8
6 -8 4 84.1 137.04 14
-6 8 4 70.32 77.3 9
6 8 -6 461.92 222.43 2
-8 -6 6 596.74 272.37 1
-6 -8 6 537.06 240.3 6
6 8 -6 336.75 220.07 7
-6 -8 6 305.59 166.97 1
8 6 -6 340.61 197.54 7
8 6 -6 546.79 266.73 4
-8 -6 6 637.32 277.51 3
8 6 -6 417.92 151.95 2
8 7 -5 14.39 24.46 5
7 -8 -5 51.61 52.77 13
-7 -8 5 223.08 183.42 1
-7 -8 5 30.21 56.8 8
-8 7 5 140.62 154.2 16
-8 7 5 103.06 155.88 9
-7 -8 5 35.89 128.34 6
8 7 -5 60.75 88.07 4
-7 -8 5 113.87 167.99 3
8 7 -5 52.11 133.68 7
8 7 -5 1.61 83.48 2
7 -8 -3 224.17 130 12
-7 -8 3 155.19 58.74 3
8 7 -3 299.1 135.02 2
-8 -7 -3 116.88 101.47 3
7 8 3 180.57 133.73 4
7 -8 -3 188.31 76.43 13
-7 8 -3 245.81 168.59 16
-8 -7 -3 63.37 96.23 1
-7 -8 3 154.46 103.01 1
-8 7 3 277.32 148.15 8
-7 8 -3 96.17 48.91 15
-8 7 3 400.04 206.58 15
-7 -8 3 282 175.49 11
-7 8 -3 277.39 174.14 9
8 -7 3 178.2 165.88 14
-8 7 3 293.65 158.79 16
8 7 -3 91.88 108.26 7
8 7 -3 415.43 255.98 4
7 8 3 162.33 157.44 7
-8 7 3 251.66 201.59 9
-7 -8 3 209.41 118.61 8
-7 8 -3 37.56 82.86 10
7 8 3 246.25 150.84 2
8 7 -3 210.7 124.09 5
7 8 1 2149.76 471.91 2
-7 -8 1 1890.6 435.86 6
-8 7 1 2655.06 502.72 16
7 8 1 2235.6 418.55 5
-8 -7 -1 776.16 291.03 1
7 8 1 2287.19 484.4 4
8 7 -1 2936.22 538.41 4
8 -7 1 2816.6 440.85 5
7 -8 -1 2961.93 547 12
-8 7 1 2466.2 509.9 15
-7 8 -1 2010.93 442.23 9
8 -7 1 2520.58 419.67 11
-8 7 1 2486.02 505.57 9
-7 8 -1 1845.23 381.83 10
-7 -8 1 2006.64 437.11 1
-7 8 -1 2601.71 523.06 16
-8 -7 -1 1080.94 353.07 3
-7 8 -1 1924.46 454.14 15
-8 -7 -1 596.51 216.49 8
8 7 -1 2549.02 503.78 7
7 8 1 2553.53 521.78 7
8 7 -1 2636.27 474.53 5
8 -7 1 1846.34 439.82 14
-7 -8 1 1868.66 434.43 3
-8 -7 -1 761.95 313.15 6
8 7 -1 2362.46 492.89 2
-7 -8 -1 1153.47 343.43 1
-8 -7 1 2138.38 447.09 3
7 8 -1 2552.12 496.46 7
-7 8 1 2125.4 469.12 15
-7 -8 -1 1413.78 389.07 6
-7 8 1 2227.84 409.94 10
8 -7 -1 2659.01 520.49 12
-8 7 -1 2272.24 482.49 9
7 8 -1 2977.43 467.04 5
7 -8 1 2668.57 468.64 11
-8 7 -1 2370.38 491.6 16
7 -8 1 2125.48 467.25 14
8 7 1 2455.66 444.89 5
7 8 -1 2378.91 505.8 4
8 7 1 2308.21 485.76 2
7 8 -1 2383.67 489.32 2
-8 -7 1 2255.02 441.94 8
8 7 1 2113.32 457.28 7
-7 -8 -1 1186.39 347.46 3
8 7 1 2422.66 486.16 4
-8 -7 1 1962.85 434.44 6
8 -7 -1 2739.35 435.36 5
-8 7 -1 1854.75 425.27 15
-7 8 1 2705.92 507.73 9
-7 8 1 2776.52 532.41 16
8 7 3 152.33 164.41 2
-7 -8 -3 10.22 149.47 1
7 -8 3 66.29 90.7 11
8 -7 -3 267.68 142.98 12
7 8 -3 201.1 135.11 10
-8 7 -3 2.58 59.44 9
7 8 -3 39.97 120.45 4
-7 8 3 249.38 171.38 15
8 7 3 383.25 177.91 4
7 8 -3 488.76 197.65 2
-7 -8 -3 32.53 65.71 3
-7 8 3 90.02 115.72 16
7 -8 3 265.29 126.49 14
-8 -7 3 376.56 246.76 3
-8 7 -3 338.78 239.07 16
7 8 -3 130.37 75.18 5
-8 -7 3 115.11 75.16 11
-8 7 -3 173.94 150.72 15
-8 -7 3 240.8 71.71 8
8 -7 -3 255.53 128.13 5
8 -7 -3 208.2 142.04 13
-7 8 3 234.75 150.34 9
-8 7 -3 202.65 129.94 10
7 8 -3 298.61 218.43 7
-8 -7 3 228.56 167.78 1
-7 8 3 150.12 98.58 10
7 8 -5 33.67 114.44 4
-8 -7 5 51.89 68.36 6
7 8 -5 92.06 142.57 2
-7 8 5 125.13 125.56 9
-8 -7 5 18.63 79.65 8
8 -7 -5 96.18 111.6 13
7 8 -5 51.69 83.71 10
-8 -7 5 329.07 254.38 3
8 -7 -5 43.1 111.26 12
-7 8 5 0.37 101.27 16
7 8 -5 45.94 45.79 7
-8 -7 5 43.2 72.03 1
-7 8 5 3.92 92.97 15
8 -8 0 2869.51 451.2 5
-8 -8 0 1565.18 413.64 1
-8 -8 0 1591.14 382.35 8
-8 8 0 2873.13 550.8 15
8 8 0 3220.2 567.62 4
-8 8 0 2911.93 547.74 16
8 -8 0 2955.17 476.77 11
-8 -8 0 1646.51 419 3
-8 -8 0 2106.66 509.85 6
-8 8 0 2858.56 537.62 9
8 8 0 3042.92 553.84 2
-8 8 0 2602.02 462.24 10
8 8 0 2758.39 536.91 7
8 8 0 2811.22 484.07 5
8 8 -2 3437.35 550.54 5
8 8 2 2519.11 506.57 7
-8 8 2 2338.22 425.48 10
8 8 2 2929.93 567.02 2
8 -8 2 3351.9 530.22 11
-8 -8 -2 535.49 287.27 3
8 -8 -2 3190.25 586.23 13
8 -8 2 3288.49 612.74 14
8 -8 2 3141.72 464.14 5
-8 8 2 3708.03 625.86 16
-8 8 -2 1975.17 461.73 15
-8 -8 -2 889.22 340.98 1
-8 -8 2 2606.99 539.16 3
8 8 -2 3120.25 565.88 7
-8 -8 2 3266.69 624.9 6
-8 8 2 3022.38 553.54 9
-8 8 2 3236.49 573.6 15
-8 8 -2 2177.02 495.37 9
-8 -8 2 3056.33 526.82 8
-8 8 -2 2762.78 573.5 16
-8 -8 2 2651.25 452.48 11
-8 -8 -2 845.18 285.52 6
-8 -8 2 3061.33 589.66 1
8 8 -2 3882.17 679.99 4
-8 8 -2 2589.65 475.16 10
8 8 2 2386.18 489.78 4
8 -8 -2 3229.11 493.05 5
8 -8 -2 3669.93 625 12
-8 -8 4 4.99 56.01 11
-8 -8 4 34.8 92.54 3
8 -8 -4 2.56 87.52 12
8 8 -4 59.12 113.83 5
-8 -8 4 59.54 118.15 6
-8 -8 4 5.38 82.05 1
-8 8 -4 144.98 65.62 16
8 8 -4 2.51 114.83 4
8 -8 4 33.87 56.02 14
-8 8 4 129.77 123.99 16
-8 8 -4 118.5 131.95 10
-8 8 -4 6.9 143.42 15
-8 8 4 14.96 139.49 15
8 8 -4 93 125.6 2
-8 8 4 137.13 199.71 9
-8 -8 4 19.19 30.76 8
8 -8 -4 114.36 81.5 13
-8 8 4 55.56 49.5 8
-8 8 -4 114.27 168.96 9
8 8 -4 88.21 194.02 7
8 8 -4 23.17 20.74 10
-8 -8 6 115.14 111.41 1
-8 -8 6 86.24 55.29 6
-8 -8 6 3.19 33.03 8
8 8 -6 59.82 125.92 4
8 8 -6 20.45 93.93 2
8 8 -6 95.71 146.49 7
8 8 -6 93.08 37.05 10
-8 -8 6 101.59 98.94 3
-1 9 0 490.99 181.13 15
-1 9 0 543.94 205.54 10
1 -9 0 676.99 203.3 6
9 0 -1 697.09 205.54 4
0 -9 -1 439.43 180.72 6
1 9 0 732.7 243.51 10
0 -9 -1 339.95 181.71 13
0 9 1 593.65 227.74 10
9 -1 0 640.36 217.6 5
-9 0 -1 269.69 172 3
9 1 0 518.21 184.99 2
-9 1 0 569.34 235.14 9
0 -9 1 613.25 216.43 11
-9 0 -1 442.67 186.1 9
-9 -1 0 473.29 191.3 3
9 1 0 684.58 208.29 5
-9 1 0 410.21 164.61 8
-9 -1 0 451.08 233.73 8
-9 1 0 456.67 180.81 3
-9 0 -1 276.43 155.6 8
0 -9 1 583.46 218.97 6
0 9 -1 813.79 266.36 7
1 9 0 692.63 244.61 7
-1 -9 0 595.26 237.09 6
9 1 0 609.33 190.13 4
-1 9 2 1278.11 343.95 16
9 2 -1 1449.66 352.89 5
9 2 -1 1231.26 316.87 2
-2 9 -1 1163.97 337.96 15
-9 1 -2 272.52 182.98 8
2 -9 -1 1150.82 310.12 13
-9 -1 2 1063.07 277.85 3
-1 -9 -2 668.93 255.53 13
1 -9 2 1029.91 298.02 11
9 1 2 639.71 226.27 4
-1 9 2 881.53 286.58 10
-9 2 1 1198.23 326.45 8
-1 -9 -2 539.95 216.48 6
-9 2 1 1123.91 318.22 9
1 -9 2 1323.1 326 6
9 2 -1 1264.64 318.65 4
-1 9 2 1216.64 331.96 15
-9 1 -2 528.63 236.26 9
2 9 1 902.61 276.63 7
9 1 2 582.31 213.62 2
-9 -1 2 1392.24 343.51 1
-9 -2 -1 667.25 240.14 3
1 9 -2 1103.12 282.3 7
1 9 -2 1105.37 340.82 10
-2 9 -1 1232 339.44 16
-9 -2 -1 505.1 232.73 8
-9 1 -2 427.02 168.65 3
9 -1 -2 1361.39 339.03 5
-9 -1 2 932.68 286.96 8
2 9 1 1145.37 313.76 10
-2 9 -1 1111.52 339.17 10
1 -9 2 964.73 273.18 14
-9 -2 -1 651.98 248.49 1
9 -2 1 845.37 257.08 5
-1 9 -2 1227.36 337.02 10
-2 9 1 1192.64 299.86 15
9 1 -2 1235.31 301.52 12
1 -9 -2 831.39 253.99 13
-1 9 -2 1072 284.91 15
-9 1 2 1122.93 266.33 3
-2 9 1 1568.09 353.55 16
1 9 2 1224.65 331.69 10
-9 1 2 1316.94 337.64 9
2 -9 1 1254.07 307.67 6
9 2 1 1032.26 288.51 2
-9 -2 1 1022.08 288.12 8
9 1 -2 946.01 264.98 4
9 2 1 952.7 293.97 4
9 1 -2 1429.61 361.05 5
9 2 1 1278.72 331.03 5
2 9 -1 1114.99 314.78 7
-2 -9 -1 511.55 218.09 6
2 9 -1 1091.76 323.01 10
-9 2 -1 770.48 257.56 9
-9 -1 -2 263.74 176.4 3
-1 9 -2 983.73 260.34 16
-1 -9 2 1000.77 291.86 11
-9 -1 -2 330.4 170.49 8
-9 -1 -2 431.72 201.92 9
9 -2 -1 1312.68 339.65 5
-1 -9 2 930.95 273.14 14
-9 -2 1 1114.59 289.67 1
-9 -2 1 1097.02 319.22 3
-1 -9 2 1311.95 332.82 6
-9 -1 -2 333.01 175.14 1
-2 9 1 961.32 278.91 10
9 1 -2 1362.45 334.38 2
3 9 2 55.08 110.48 7
2 -9 3 100.4 128.75 11
2 9 -3 72.05 84.01 4
3 -9 -2 113.56 153.63 13
-9 -3 -2 41.88 47.29 1
-9 3 2 80.36 117.12 9
-9 -2 3 124.43 72.82 3
9 -3 2 122.12 105.11 14
9 -3 2 27.85 61.88 5
2 -9 3 4.93 71.85 14
-9 -3 -2 4.07 89.16 8
9 3 -2 61.58 89.75 12
-2 9 3 124.64 76.92 15
-3 -9 2 135.03 57.89 6
-2 9 3 14.07 10.35 16
2 9 -3 23.31 41.1 10
-9 -2 3 124.17 138.4 8
-9 2 -3 101.98 150.4 8
9 3 -2 8.98 127.71 5
9 -2 -3 146.44 116.32 5
-2 9 3 182.5 151.42 10
9 -2 -3 121.08 90.13 13
-3 -9 2 13.23 37.5 3
3 9 2 89.79 115.53 10
-9 3 2 166.86 173.04 8
-3 9 -2 66.88 114.44 15
2 9 -3 113.45 108.06 7
9 3 -2 189.4 164.81 4
9 -2 -3 79.85 98.88 12
-3 -9 2 138.48 115.25 11
-9 -3 -2 8.89 64.71 3
3 9 2 8.29 45.93 4
9 3 -2 162.01 135.53 2
2 -9 3 30.65 22.89 6
-9 -2 3 56.75 81.17 1
-3 9 -2 64.19 78.12 10
-3 9 -2 5.86 22.15 16
-3 9 0 431.98 206.62 15
3 9 0 371.52 206.78 7
-9 0 3 275.07 147.31 9
0 -9 3 139.38 139.58 11
9 3 0 275.66 168.84 5
-3 9 0 280.8 153.89 10
0 9 3 62.94 59.2 16
9 0 -3 311.14 164.13 4
0 9 3 161.48 101.44 10
0 9 -3 394.88 212.65 10
9 3 0 159.21 167.24 2
-9 -3 0 336.23 176.17 8
-9 -3 0 341.86 154.91 3
-9 0 -3 224.79 219.6 8
9 3 0 289.64 135.98 4
-9 3 0 334.79 182.19 9
0 9 -3 542.43 195.61 7
-3 9 0 418.28 176.79 16
-9 0 3 416.83 192.67 8
3 9 0 290.36 166.96 10
0 -9 3 285.4 158.24 6
9 0 -3 395.62 141.62 12
0 9 3 238.51 139.58 15
-9 -3 0 239.86 166.63 1
0 -9 3 172.28 96.05 14
9 0 -3 405.21 194.35 5
-9 0 3 361.43 178.1 3
9 0 -3 381.64 174.62 2
3 9 -2 54.71 46.31 4
9 2 -3 20.05 163.82 5
2 9 3 26.64 113.66 10
-9 -3 2 92.15 89.34 1
-9 2 3 9.93 22.29 3
-9 3 -2 26.97 107.58 9
-9 2 3 87.41 18.19 9
9 2 -3 3.55 79.84 2
9 2 -3 10.26 78.23 12
-2 -9 3 52.47 103.4 3
-2 9 -3 9.33 72.16 16
-9 3 -2 18.22 81.94 16
-9 -3 2 92.3 107.65 8
2 9 3 114.06 44.53 7
3 9 -2 31.09 85.09 10
9 2 -3 50.43 100.45 4
-2 -9 3 14.4 103.17 6
9 3 2 9.03 101.9 4
-3 -9 -2 62.75 78.06 6
-9 -3 2 111.74 81.06 6
-3 9 2 40.06 81.73 10
9 -3 -2 156.72 105.24 12
2 -9 -3 70.28 67.93 13
-2 9 -3 142.73 137.44 10
-2 9 -3 16.03 37.37 15
3 9 -2 3.93 98.85 7
-9 -3 2 97.85 92.02 3
9 -3 -2 92.61 92.86 13
-9 3 -2 104.99 143.07 8
-3 -9 -2 51.49 72.38 3
9 -3 -2 127.5 153.32 5
-2 -9 3 86.04 135.74 11
-9 2 3 67.77 22.08 8
-9 4 3 71.57 91.12 8
-9 -4 -3 74.94 71.49 1
3 9 -4 178.44 139.38 10
-9 4 3 70.68 43.39 15
-4 -9 3 195.37 156.07 3
9 4 -3 157.42 160.13 4
-3 9 4 68.66 129.25 15
-9 -3 4 138.59 113.95 3
4 -9 -3 61.43 78.84 13
-4 9 -3 53.5 120.08 10
-4 -9 3 159.6 147.23 11
-9 4 3 32.42 89.39 9
-9 -3 4 177.26 110.35 8
9 4 -3 0.54 109.01 2
9 -3 -4 62.32 82.33 5
4 -9 -3 27.97 118.73 12
9 4 -3 0.78 116.16 7
9 -4 3 141.07 116.88 14
9 -3 -4 45.82 50.99 13
4 9 3 24.87 129.2 7
3 -9 4 64.13 125.86 11
4 9 3 116.82 97.24 4
-3 9 4 227.22 164.08 16
-9 4 3 131.58 49.16 16
3 9 -4 116.79 37.46 2
-4 -9 3 4.93 87.88 1
9 4 -3 94.79 118.5 5
3 9 -4 219.48 165.72 4
-9 -4 -3 73.46 56.78 3
-4 9 -3 17.8 70.26 15
3 -9 4 155.89 160.74 14
-9 -3 4 5.14 69.7 6
-4 -9 3 119.36 87.5 6
9 -3 -4 13.65 79.37 12
3 9 -4 276.42 178.22 7
-4 9 -3 190.86 127.4 16
-9 -4 -1 416.89 210.82 3
9 -4 1 1689.36 369.08 5
-9 -1 4 1603.37 350.93 9
1 -9 4 1585.6 368.29 6
9 -1 -4 1505.51 387.43 5
-4 -9 1 1461.51 340.69 3
9 -4 1 1138.92 303.38 14
-9 -4 -1 748.2 267.2 8
1 9 -4 1450 378.82 7
1 -9 4 1404.24 383.59 11
4 9 1 1097.87 300.96 2
4 -9 -1 1306.57 339.99 13
-9 4 1 1217.23 282.96 8
9 -1 -4 1247.87 331.22 12
-9 -1 4 1201.4 340.12 8
4 9 1 1469.08 358.55 10
-9 -4 -1 532.19 181.71 6
-9 4 1 947.59 237.42 16
9 4 -1 1585.21 372.81 5
9 -1 -4 1298.71 311.87 2
-4 9 -1 1116.34 299.37 10
-4 -9 1 1009.47 314.8 1
-9 4 1 1264.21 325.53 15
9 -1 -4 1297.5 307.22 4
-9 -1 4 984.97 279.79 3
-4 9 -1 1273.25 351.71 15
-9 -4 -1 256.04 138.53 1
9 4 -1 1129.71 338.08 4
4 9 1 1099.67 306.2 7
-9 -1 4 1390.11 344.34 1
4 -9 -1 1554.93 348.45 12
-9 4 1 1209.44 344.79 9
1 -9 4 1173.13 328.43 14
4 9 1 1297.43 316.88 4
-4 9 -1 1485.05 370.81 16
9 1 -4 1243.47 354.47 5
-4 -9 -1 478.1 200.18 1
-4 -9 -1 745.21 288.88 6
9 1 -4 1689.24 387.61 2
9 1 -4 1321.98 327.74 12
-1 -9 4 1270.67 340.69 6
9 4 1 925.25 278.32 2
4 9 -1 1438.35 349.7 7
4 9 -1 1333.53 332.57 2
-1 9 -4 1314.63 403.83 10
-9 1 4 1330.81 328.48 3
-4 9 1 1401.71 363.79 15
4 9 -1 1221.41 322.83 10
-1 9 -4 439.82 190.97 16
-1 -9 4 1173.45 326.35 11
-9 4 -1 1207.97 331.04 9
-9 4 -1 1402.38 335.78 16
-4 9 1 1737.69 400.23 16
-4 9 1 1405.32 372.2 10
-9 4 -1 744.59 224.71 8
9 -4 -1 1109.85 276.39 5
-9 1 4 1189.28 343.7 8
4 9 -1 1569.39 348.18 4
9 4 1 1476 367.15 5
9 1 -4 1537.46 383.76 4
-9 1 4 1426.6 354.51 9
-1 9 -4 914.47 286.19 15
-9 4 -1 1044.58 297.27 15
4 -9 1 1464 359.04 11
-4 -9 -1 941.85 283.94 3
-1 9 -4 1258.37 314.27 7
4 9 -3 116.25 103.52 10
4 9 -3 171.5 106.82 4
4 9 -3 21.35 111.05 7
-9 4 -3 51.74 40.54 15
9 4 3 23.87 45.87 4
9 3 -4 129.32 167.57 2
-9 -4 3 169.62 120.68 1
-3 -9 4 58.5 87.15 3
9 -4 -3 73.78 109.35 13
-9 -4 3 52.75 33.07 6
4 9 -3 55.64 64.73 2
-4 9 3 81.49 38.42 10
-3 9 -4 71.86 27.59 10
-9 3 4 135.95 109.74 16
9 -4 -3 152.02 129.86 5
-9 -4 3 110.25 143.66 8
-9 4 -3 9.07 164.25 9
-4 -9 -3 190.57 115.05 3
4 -9 3 119.39 131.31 14
-4 9 3 252.86 163.27 16
-9 -4 3 91.42 113.43 3
9 3 -4 315.8 191.24 4
-4 9 3 113.35 92.8 15
-3 9 -4 40.34 149.66 16
-9 3 4 13.09 20.7 9
9 -4 -3 202.44 173.06 12
9 3 -4 163.73 132.35 12
9 4 3 177.61 90.44 2
-3 -9 4 164.1 157.53 11
-3 9 -4 1.04 29.29 15
-9 3 4 17.83 70.42 8
9 3 -4 25.2 68.64 5
-3 -9 4 224.35 138.88 6
3 -9 -4 36.92 72.58 13
4 -9 3 109.13 75.96 11
-4 9 3 55.28 84.32 9
-3 -9 4 56.32 109.89 1
-9 4 -3 57.7 99.22 16
-5 -9 4 84.99 76.29 11
-9 -4 5 71.21 86.25 1
4 9 -5 22.27 92.15 4
-5 -9 4 58.34 82.51 1
-5 -9 4 94.86 118.35 3
-5 -9 4 179.68 163.95 6
9 5 -4 31.21 114.35 7
-5 9 -4 45.31 163.4 16
5 -9 -4 117.02 149.33 13
9 -4 -5 70.32 110.95 12
-9 -4 5 5.55 89.27 3
-9 5 4 19.94 27.74 15
9 5 -4 41.48 107.73 4
-9 -4 5 52.09 141.26 8
-9 5 4 53.06 18.99 8
9 5 -4 23.11 10.56 5
4 9 -5 50.56 122.71 10
4 9 -5 91.27 48.14 2
9 5 -4 41.48 118 2
-9 5 4 137.16 114.19 16
-5 9 -4 54.39 146.56 15
-5 9 -4 39.93 90.32 10
4 9 -5 119.23 111.36 7
-9 5 4 12.01 33.84 9
9 5 -2 137.68 176.24 2
9 -2 -5 85 79.15 12
-9 -5 -2 90.02 150.68 8
-9 -2 5 162.11 101.4 1
5 9 2 157.88 118.55 4
-5 -9 2 98.02 68.23 11
-5 9 -2 125.37 156.03 16
-5 9 -2 125.16 91.49 9
5 -9 -2 85.34 165.38 13
-5 -9 2 87.07 76.74 1
-5 -9 2 136.7 129.92 3
9 5 -2 45.27 109.17 4
2 9 -5 117.29 137.99 10
9 5 -2 20.9 122.79 5
-9 -2 5 139.76 102.59 3
5 -9 -2 22.51 134.06 12
-9 -2 5 30.73 90.78 8
-5 9 -2 79.72 84.17 10
-9 -5 -2 25.5 43.78 1
5 9 2 135.05 135.07 2
-5 -9 2 95.03 129.35 6
-9 -5 -2 133.93 146.99 3
-9 5 2 30.26 55.21 15
9 -2 -5 3.98 108.66 5
2 9 -5 133.18 123.86 7
-9 5 2 84.5 42.24 8
9 -5 2 1.98 78.77 14
-9 5 2 84.63 143.87 9
9 5 -2 133.19 127.68 7
9 -5 2 94.63 70.1 5
-9 5 2 29.38 54.24 16
-5 9 -2 4.73 130.18 15
-9 0 5 324.64 205.89 8
-5 -9 0 12.18 61.16 1
-5 9 0 308.58 146.47 9
-5 -9 0 157.6 123.62 3
-5 9 0 331.18 201.92 10
5 9 0 257.9 127.31 2
5 9 0 376.37 186.06 4
-5 9 0 310.99 149.74 15
9 5 0 305.92 131.8 7
9 0 -5 564.76 268.2 5
5 9 0 303.49 152.9 7
-9 5 0 242.94 184.8 9
-9 0 5 382.97 184.91 9
9 -5 0 306.85 130.85 5
-9 5 0 343.77 171.23 8
-9 5 0 46.65 72.89 15
0 -9 5 130.91 120.3 11
-5 9 0 357.94 144.05 16
5 9 0 210.06 143.06 10
-9 5 0 347 163.56 16
-9 2 5 18.02 47.58 9
-5 9 2 73.44 81.47 15
-2 -9 5 32.02 15.11 6
-5 -9 -2 80.93 72.28 1
-9 5 -2 28.38 64.33 9
9 5 2 67.16 71.92 2
-5 -9 -2 33.24 91.75 3
-9 5 -2 34.5 160.55 15
5 9 -2 55.96 130.88 2
-2 -9 5 33.56 80.87 11
5 -9 2 39.45 20.86 11
9 -5 -2 107.78 124.41 12
-9 -5 2 133.5 137.99 1
-9 -5 2 2.92 97.11 8
9 2 -5 1.21 92.61 5
-9 5 -2 82.42 81.07 8
9 -5 -2 34.96 128.48 5
-9 -5 2 62.09 148.22 3
5 -9 2 379.17 215.89 14
-9 -5 2 0.19 49.92 6
5 9 -2 22.98 44.74 7
9 -5 -2 45.68 60.24 13
-5 9 2 71.04 69.7 9
9 2 -5 35.73 126.95 4
9 5 2 94.3 93.86 7
5 9 -2 44.34 95.45 4
-9 2 5 26.14 117.09 8
9 2 -5 102.63 149.42 2
-9 5 -2 42.45 66.79 16
9 5 2 91.15 126.63 4
5 9 -2 141.69 103.9 10
-5 -9 -2 168.07 122.95 6
-5 9 4 131.97 107.05 16
-9 4 5 54.3 67.52 8
-9 -5 4 37.11 66.18 6
9 -5 -4 89.72 171.58 12
-4 -9 5 165.96 132.62 11
-9 -5 4 118.66 99.23 3
9 4 -5 23.73 96.06 7
9 4 -5 139.86 179.97 4
-4 -9 5 43.7 87.5 3
-5 9 4 66.37 104.47 15
5 -9 4 103.44 155.08 14
9 -5 -4 72.15 62.84 5
9 4 -5 168.76 99.2 2
5 9 -4 10.01 37.09 10
5 -9 4 116.29 128.03 11
-4 -9 5 14.06 32.19 1
9 4 -5 51.16 117.51 5
5 9 -4 9.21 126.13 4
-5 9 4 6.11 41.53 9
5 9 -4 4.9 51.77 7
-9 4 5 73.64 94.47 9
5 9 -4 16.36 67.82 2
9 -5 -4 21.56 72.68 13
-4 -9 5 76.44 157.66 6
-6 -9 5 17.35 18.45 11
9 6 -5 10.13 170.87 7
-6 -9 5 8.65 62.71 1
6 -9 -5 330.09 175.79 13
-9 6 5 27.64 56.85 9
5 9 -6 6.83 115.39 7
9 6 -5 242.26 192.03 2
9 6 -5 43.81 52.93 4
9 6 -5 145.04 153.46 5
-9 -5 6 214.88 138.68 8
-6 -9 5 42.59 87.81 8
-6 -9 5 12.19 156.16 6
-9 6 5 22.34 11.37 8
-9 6 5 27.95 98.55 16
-9 -5 6 257.99 149.37 1
-6 -9 5 157.89 142.24 3
-9 -5 6 7.83 116.54 3
6 -9 -3 194.99 153.22 13
-9 6 3 347.46 182 16
-6 9 -3 20.1 70.3 10
6 -9 -3 349.43 150.16 12
-6 -9 3 304.37 193.55 6
-9 -6 -3 12.62 123.83 3
-6 -9 3 370.24 193.82 1
9 -6 3 408.2 193.39 14
-6 9 -3 196.44 167.93 15
6 9 3 25.24 124.71 7
-9 6 3 312.27 149.94 9
-6 9 -3 56.18 48.58 9
-6 9 -3 73.49 42.78 16
-9 -6 -3 66.92 164.46 1
-9 6 3 347.7 186.67 8
-9 6 3 341.17 203.12 15
6 9 3 165.02 114.57 4
-6 -9 3 277.26 151.7 11
-6 -9 1 132.2 30.44 3
-9 -6 -1 222.68 167.67 3
-6 -9 1 68.93 72.83 1
-9 -6 -1 121 94.85 8
-9 6 1 327.05 141.86 15
6 9 1 192.77 126.42 2
-6 9 -1 122.16 85.26 10
6 9 1 154.96 117.6 4
9 6 -1 171.74 70.23 2
9 6 -1 217.97 89.72 5
9 6 -1 277.6 190.46 7
-6 -9 1 243.81 175.54 6
-6 9 -1 208.66 151.47 9
-6 9 -1 384.12 220.39 15
-9 6 1 160.63 69.78 16
6 9 1 35.56 68.03 7
-9 -6 -1 82.94 155.85 1
-9 -6 -1 146.1 94.62 6
-9 6 1 311.18 146.13 8
9 6 -1 256.1 198.56 4
6 -9 -1 321.63 214.09 12
-6 9 -1 343.69 204.39 16
-9 6 1 362.36 223.35 9
9 -6 -1 183.98 72.1 12
6 9 -1 335.99 207.2 7
9 6 1 207.13 133.67 4
6 -9 1 167.17 191.63 14
-6 9 1 341.68 144.89 15
-6 -9 -1 336.3 210.4 6
9 6 1 84.42 30.92 7
-9 -6 1 237.18 134.47 6
6 9 -1 244.47 147.32 4
9 6 1 243.67 141.41 2
-6 9 1 189.81 86.81 16
-9 6 -1 86.44 89.43 15
6 -9 1 128.21 92.48 11
6 9 -1 257.27 145.19 10
-9 -6 1 228.92 151.02 8
-6 9 1 237.33 72.5 9
-6 9 1 23.13 69.91 10
-6 -9 -1 83.09 80.37 3
9 6 1 173.57 115.99 5
-9 -6 1 186.66 92.7 3
9 -6 -1 173.33 121.39 5
6 9 -1 258.59 114.86 2
-6 -9 -1 216.31 157.67 1
-9 6 -1 40.63 130.97 9
-9 6 -1 202.89 183.95 16
-9 -6 1 329.5 217.18 1
9 -6 -3 239.04 158.56 13
6 9 -3 297.46 148.16 5
9 6 3 224.61 120.46 4
9 -6 -3 227.24 151.94 12
-9 6 -3 381.99 218.7 9
6 -9 3 329.76 233.76 14
-6 9 3 199.76 129.78 9
6 9 -3 325.41 155.58 2
-6 9 3 405.84 217.94 16
-9 6 -3 287.35 168.18 16
9 6 3 9.46 55.32 2
-6 -9 -3 118.32 134.77 3
6 -9 3 246.66 139.79 11
-6 9 3 179.1 165.41 10
6 9 -3 131.3 83.48 7
6 9 -3 315.37 206.38 4
-6 9 3 102.63 76.9 15
-9 6 -3 4.55 75.56 15
9 -6 -3 232.52 147.74 5
6 9 -3 324.67 188.43 10
-9 -6 5 76.86 103.7 6
9 5 -6 143.64 107.7 2
6 9 -5 142.49 176.81 7
9 5 -6 67.46 176.91 4
-9 -6 5 87.49 70.42 3
9 -6 -5 65.83 28.59 12
-9 -6 5 28.35 26.37 8
6 9 -5 55.33 82.47 10
-5 -9 6 8.71 95.13 6
9 5 -6 193.35 178.87 7
6 9 -5 143.53 60.71 2
-9 -6 5 74.8 96.59 1
-7 -9 6 64.83 77.45 6
9 7 -6 258.34 238.56 4
-7 -9 6 97.24 176.89 3
-7 -9 6 15.6 91.38 8
9 7 -6 152.44 165.57 2
-7 -9 6 262.38 195.74 1
9 7 -6 18.84 62.54 7
-9 7 4 710.55 292.75 9
-9 7 4 418.96 208.48 16
7 -9 -4 384.48 234.97 13
-9 7 4 344.87 169.29 15
-7 -9 4 256.45 208.59 6
-7 -9 4 615.01 279.5 3
-7 9 -4 430.18 226.08 10
9 7 -4 622.64 259.74 7
9 7 -4 656.13 263.69 5
9 7 -4 638.71 286.47 2
-7 -9 4 471.69 179.58 11
-7 9 -4 479.41 193.7 16
9 7 -4 587.21 265.05 4
7 -9 -4 722.38 281.2 12
-9 7 4 510.15 210.67 8
-7 -9 4 611.36 248.24 8
-7 9 -4 428.59 225.24 15
-7 -9 4 573.38 257.74 1
9 -7 4 429.97 206.07 14
7 9 2 476.7 245.14 4
9 -7 2 345.46 201.28 14
7 -9 -2 220.11 112.76 12
-7 -9 2 291.93 170.09 11
-7 9 -2 454.01 226.59 10
-9 -7 -2 149.15 153.46 6
9 7 -2 448.41 255.8 4
-7 9 -2 385.33 156.19 15
9 -7 2 311.56 166.59 5
9 7 -2 284.19 169.13 2
7 9 2 286.2 170.65 7
-7 -9 2 399.07 189.72 3
-9 7 2 289.7 154.41 9
-7 9 -2 242.33 202.53 16
-9 -7 -2 64.27 70.36 8
9 7 -2 508.18 239.41 7
7 9 2 375.18 200.72 2
-7 9 -2 78.33 112.79 9
7 9 2 228.5 124.69 10
-7 -9 2 176.09 141.07 1
-9 -7 -2 60.72 53.48 3
7 -9 -2 234.04 173.9 13
9 7 -2 349.9 195.49 5
-9 7 2 496.28 203.78 8
-9 7 2 327.11 170.85 15
-9 -7 -2 141.9 71.52 1
-9 7 2 320.21 142.22 16
9 -7 2 487.73 209.31 11
-7 -9 2 344.11 264.69 6
-7 9 0 1145.75 334.18 15
9 -7 0 1358.76 302.11 11
7 9 0 1218.97 350.37 4
7 9 0 1420.97 370.41 2
9 -7 0 1934.28 401.64 5
7 9 0 1506.67 440.25 7
9 7 0 1380.84 368.39 7
-7 -9 0 1100.24 344.98 6
-9 7 0 1057.53 248.3 8
7 9 0 1514.72 336.54 5
-7 9 0 1239.82 340.65 10
9 7 0 1357.58 382.94 2
9 7 0 1193.41 356.67 4
-7 9 0 1270.91 402.76 16
7 -9 0 1142.72 301.31 11
9 7 0 1550.7 387.35 5
7 9 0 1486.64 370.13 10
-7 -9 0 1103.09 322.33 3
9 -7 -2 409.51 213.19 12
9 -7 -2 337.87 191.09 5
-9 7 -2 276.81 147.26 16
-7 9 2 358.2 215.32 9
9 7 2 135.59 42.87 5
9 7 2 256.65 104.35 2
9 -7 -2 487.17 228.15 13
-9 7 -2 42.57 65.67 8
7 9 -2 386.49 237.92 4
7 9 -2 306.45 182.03 2
7 9 -2 170.79 66.13 5
-7 -9 -2 45.14 149.76 3
-7 9 2 483.3 232.44 15
-7 -9 -2 58.58 133.04 1
9 7 2 134.75 66.73 4
-9 -7 2 472.08 245.75 1
-9 -7 2 508.54 212.71 6
9 7 2 155.03 41.32 7
-9 7 -2 140.8 129.51 9
-9 -7 2 220.48 143.67 3
7 9 -2 371.11 208.2 10
-9 -7 2 262.22 133.73 8
-7 9 2 278.98 144.47 16
7 -9 2 277.77 219.13 14
-9 7 -2 87.42 70 15
7 9 -2 485.12 243.43 7
7 -9 2 337.31 188.64 11
-7 -9 -2 24.13 127.33 6
-9 7 -4 194.06 152.21 15
-9 -7 4 532.17 275.62 1
7 -9 4 397.44 228.49 14
-7 9 4 503.03 230.23 15
-9 -7 4 526.32 214.58 6
-7 9 4 468.3 231.78 16
9 -7 -4 531.85 253.06 12
7 9 -4 494.81 208.48 7
7 9 -4 387.93 151.87 10
9 -7 -4 441.43 192.26 5
9 -7 -4 529.79 282.84 13
-9 -7 4 615.74 240.89 3
-7 9 4 737.92 268.49 9
-9 -7 4 405.44 192.45 8
7 9 -4 655.27 260.16 2
-9 7 -4 149.66 101.79 9
7 9 -4 479.21 175.57 5
7 9 -4 385.49 170.57 4
-9 7 -4 375.6 195.08 16
-9 -7 6 10.84 91.43 1
-9 -7 6 127.47 162.62 8
-9 -7 6 73.58 76.57 3
-9 -7 6 0.63 36.08 6
7 9 -6 117.5 188.85 4
7 9 -6 238.03 214.48 2
7 9 -6 374.76 338.67 7
7 9 -6 82.64 135.13 10
-8 -9 7 39.5 181.47 1
9 8 -7 194.39 172.38 4
9 8 -7 40.95 81.09 2
9 8 -5 388.02 207.78 10
9 8 -5 483.83 256.79 4
-8 -9 5 312.71 165.07 1
9 8 -5 456.2 242.99 5
9 8 -5 318.07 233.73 2
8 -9 -5 212.75 160.67 13
-8 -9 5 150.87 112.62 6
-8 -9 5 143.35 109.67 8
8 -9 -5 336.44 202.68 12
-9 8 5 409.58 222.25 9
-9 8 5 270.06 149.41 8
9 8 -5 250.08 162.79 7
-9 8 5 87.55 69.41 15
-9 8 5 328.27 195.44 16
8 -9 -3 114.52 21.6 13
-9 8 3 19.02 81.95 9
-8 -9 3 217.33 227.89 6
9 -8 3 64.32 28.39 5
8 9 3 5.85 68.94 2
8 9 3 27.76 135.71 7
-8 9 -3 3.3 41.47 10
8 -9 -3 150.84 134.94 12
-8 -9 3 4.76 181.91 3
-9 8 3 78.34 43.8 10
-9 -8 -3 126.77 65.85 3
-8 -9 3 61.69 59.88 1
-9 -8 -3 148.53 177.39 1
9 8 -3 95.64 88.68 5
9 8 -3 5.51 52.42 10
9 8 -3 25.18 150.08 7
-9 8 3 143.75 72.86 15
8 -9 -3 12.72 74.69 5
-8 9 -3 56.83 133.08 9
-9 8 3 281.84 258.23 16
-8 -9 3 137.52 93.16 11
-9 8 3 51.37 48.21 8
-8 -9 3 42.64 81.4 8
-8 9 -3 59.1 150.76 15
9 8 -3 174.3 163.28 4
9 8 -3 137.06 173.79 2
9 -8 3 2.18 103.5 14
8 9 3 45.71 47.81 4
-8 9 -3 184.57 88.77 16
8 9 1 632.95 234.93 2
-8 -9 1 349.16 253.89 1
9 8 -1 619.07 318.57 7
-8 9 -1 359.02 236.3 15
8 -9 -1 571.51 187.52 5
-8 9 -1 418.4 181.33 9
8 9 1 414.77 205.22 7
-9 -8 -1 105.6 78.84 3
-8 -9 1 578.31 241.63 3
-9 -8 -1 14.02 81.01 6
8 -9 -1 401.97 148.11 12
9 -8 1 666.91 207 11
-8 9 -1 489.01 218.84 10
8 9 1 698.31 247.09 4
-8 -9 1 439.65 231.79 6
-9 8 1 416.71 157.17 15
9 -8 1 198.19 32.74 14
-9 8 1 353.37 219.81 9
8 9 1 464.73 197.75 5
-9 8 1 641.27 262.7 16
-9 8 1 350.2 139.12 8
9 8 -1 570.2 220.44 4
-9 -8 -1 116.3 66.02 1
9 8 -1 546.8 236.52 5
9 -8 1 460.23 136.49 5
-9 -8 -1 169.57 104.64 8
9 8 -1 636.13 305.8 2
-8 9 -1 429.42 234.78 16
8 9 1 639.66 253.74 10
8 9 -1 385.12 200.73 7
8 -9 1 634.22 291.96 14
-8 -9 -1 16.66 156.37 6
9 -8 -1 604.34 272.07 12
-9 -8 1 526.12 252.42 6
-9 8 -1 185.01 171.27 15
-9 8 -1 320.67 145.08 8
-8 9 1 258.61 152.08 10
-8 -9 -1 31.84 80.04 8
9 8 1 437.02 176.62 5
9 8 1 529.82 286.05 2
-9 -8 1 226.82 175.07 3
8 9 -1 334.68 151.79 10
-9 8 -1 629.13 313.46 16
9 8 1 402.34 233.76 4
-8 9 1 190.52 89.86 15
-8 -9 -1 159.04 122.07 3
-9 8 -1 456.55 218 9
9 -8 -1 589.55 200.54 5
8 -9 1 481.01 196.35 11
9 8 1 540.43 264.26 7
8 9 -1 671.59 216.65 2
-8 9 1 614.61 245.49 9
-8 -9 -1 130.91 144.06 1
-9 8 -1 418.32 156.51 10
8 9 -1 479 263.83 4
-8 9 1 594.42 250.21 16
-9 -8 1 352.84 150.61 11
-9 -8 1 513.87 267.64 1
-8 9 3 37.4 82.83 10
-9 8 -3 169.52 128.61 10
-8 9 3 153.86 149.23 15
9 8 3 221.93 177.32 4
-9 -8 3 77.17 59.06 11
-8 9 3 16.64 103.36 16
9 -8 -3 176.82 76.04 5
9 -8 -3 40.31 51.1 12
-8 -9 -3 32.91 72.96 1
-9 -8 3 173.44 189.25 3
-9 -8 3 241.04 222.69 1
8 9 -3 68.4 42.02 10
8 9 -3 240.38 198.6 7
-9 8 -3 31.51 169.78 15
-9 -8 3 71.6 179.16 6
8 9 -3 63.87 64.09 2
8 9 -3 221.66 194.32 5
9 -8 -3 56.7 91.94 13
-9 8 -3 99 51.95 9
-9 8 -3 112.6 58.69 16
9 8 3 156.22 202.74 2
-8 -9 -3 177.46 188.61 3
-9 -8 3 314.73 211.02 8
8 -9 3 78.8 68.73 11
8 -9 3 230.99 53.36 14
9 8 3 61.78 139.58 7
8 9 -3 7.17 58.19 4
-9 -8 5 250.43 231.75 1
9 -8 -5 288.61 146.74 13
8 9 -5 205.51 120.42 10
-8 9 5 170.2 111.95 15
-9 -8 5 519.46 300.96 6
-8 9 5 469.65 234.92 9
8 9 -5 323.07 193.87 5
8 9 -5 535.46 267.22 7
-8 9 5 75.4 135.43 16
9 -8 -5 242.06 141.44 12
-9 -8 5 297.8 202.95 8
8 9 -5 374.88 203.37 4
8 9 -5 152.4 149.55 2
-9 -8 7 55.01 132.8 3
-9 -8 7 176.83 266.28 1
-9 9 0 1330.67 407.65 15
9 -9 0 1502.87 371.55 11
9 -9 0 1958.7 395.5 5
-9 9 0 1231.81 416.65 9
-9 -9 0 887.34 333.49 1
-9 9 0 895.94 291.49 16
9 9 0 1332.21 351.11 10
-9 9 0 1403.2 341.09 10
-9 -9 0 1213.67 412.49 3
9 9 0 1483.63 408.37 2
9 9 0 1646.64 455.93 4
9 9 0 1584.55 437.75 7
-9 -9 0 726.48 290.38 8
-9 9 0 873.3 274.83 8
9 9 -2 86.91 138.71 5
9 9 2 298.65 242.61 7
9 9 2 498.52 262.24 4
9 9 -2 404.23 218.88 2
9 -9 2 303.17 157.5 14
-9 9 2 196.39 134.07 8
-9 9 -2 33.85 174.29 10
9 9 2 254.04 174.05 5
9 9 -2 399.19 209.65 10
9 -9 2 35.49 50.84 11
-9 -9 2 29.96 96.79 3
-9 9 -2 52.79 45.52 8
-9 -9 2 304.46 196.01 11
9 9 2 2.28 54.12 2
-9 9 2 366.89 262.13 9
9 9 -2 213.67 187.67 7
-9 -9 -2 176.86 235.98 1
9 9 -2 410.43 262.21 4
-9 -9 2 318.73 243.09 6
9 -9 -2 94.03 128.59 5
-9 -9 -2 78.19 139.72 6
-9 -9 2 423.38 232.88 1
-9 9 -2 304.73 153.99 15
9 -9 2 201.29 132.6 5
-9 -9 2 282.99 220.87 8
-9 9 -2 40 103.48 16
-9 9 -2 24.27 96.48 9
-9 -9 -2 66.11 91.73 3
-9 9 -4 41.22 63.03 15
9 -9 -4 286.83 157.15 13
-9 -9 4 343.55 150.55 11
9 9 -4 180.45 79.9 5
-9 9 4 211.32 173.66 15
-9 -9 4 52.44 65.91 3
-9 9 -4 99.14 132.52 10
9 -9 -4 438.67 204.88 12
-9 9 4 416.49 195.09 8
9 9 -4 355.78 140.71 10
-9 9 4 237.52 181.43 9
9 9 -4 196.54 173.69 7
9 9 -4 164.25 161.05 2
-9 9 -4 223.59 184.87 9
-9 -9 4 213.33 189.16 1
9 -9 4 265.78 206.99 14
-9 -9 4 180.88 66.24 8
9 9 -4 321.27 206.48 4
-9 -9 4 266.09 171.58 6
-9 9 4 178 82.81 16
-9 9 -4 42.02 104.88 16
-9 -9 6 57.78 55.59 1
-9 -9 6 33.47 45.81 3
9 9 -6 40.71 42.54 7
9 9 -6 9.7 137.93 10
-9 -9 6 106 148.69 6
-9 -9 6 146.49 160.69 8
9 9 -6 141.79 141.14 4
9 9 -6 9.95 135.1 2
0 10 0 980.91 295.67 10
0 10 0 1065.58 285.68 15
0 10 0 1091.41 309.83 7
-10 0 0 947.74 292.54 9
-10 0 0 719.47 260.16 3
-10 0 0 822.44 294.07 8
0 10 0 1459.71 336.86 16
0 -10 0 781.44 239.51 6
10 0 0 984.06 326.72 5
10 0 0 1126.36 296.9 4
10 0 0 923.79 276.64 2
-1 -10 1 1208.4 312.15 6
-1 10 1 856.64 274.75 7
1 10 1 734.44 232.63 15
1 10 -1 838.52 272.23 7
-10 1 -1 457.7 199.11 3
-10 1 1 790.54 274.79 9
10 -1 1 951.68 340.29 5
1 10 1 668.74 254.03 7
-1 10 1 1108.63 304.46 16
1 10 1 980.19 312.7 10
1 10 -1 733.93 293.07 10
-10 1 -1 683.35 257.59 9
10 1 1 714.64 257.01 2
-10 1 -1 451.35 208.4 8
10 -1 1 729.2 232.63 4
10 1 1 853.22 244.93 4
-10 1 1 956.1 279.39 3
-1 10 1 900.67 277.08 15
10 -1 -1 859.06 230.97 2
1 -10 -1 952.58 286.29 6
-10 1 1 800.47 279.12 8
-1 -10 -1 512.81 226.32 6
10 -1 1 587.74 184.64 2
-10 -1 -1 522.21 280.37 8
10 1 1 714.84 238.09 5
10 -1 -1 830.91 230.45 4
-1 -10 -1 621.62 265.07 13
1 -10 -1 790.43 283.39 13
0 10 -2 1881.98 390.99 7
10 0 2 1434.05 320 4
0 -10 -2 1488.8 369.51 13
-10 0 2 2557.35 464.63 3
10 0 -2 2380.71 489.65 5
-2 -10 0 1740.59 405.65 6
-10 2 0 2005.82 449.84 9
-10 0 -2 1421.07 361.61 9
10 0 2 1058.35 293 2
-10 0 2 2183.87 417.57 1
0 10 2 2105.7 413.57 16
0 -10 -2 881.39 263.94 6
10 2 0 2461.78 483.32 4
2 10 0 1969.88 449.26 10
-10 -2 0 1760.97 381.41 9
0 10 -2 2122.19 451.86 10
0 10 -2 2289.22 430.43 15
10 0 -2 1903.03 421.06 2
-10 2 0 1604.71 324.62 3
0 -10 2 1959.03 408.57 6
2 10 0 2094.59 405.75 4
10 0 2 1828.62 445.13 5
-10 -2 0 1635.98 415.69 3
-10 0 2 2094.02 428.74 9
0 10 2 1997.65 423.01 15
0 -10 2 2397.36 480.48 11
-10 -2 0 1522.3 402.78 8
0 -10 2 1678.32 377.63 14
-10 0 2 1885.5 429.07 8
10 2 0 2450.06 480.62 2
-2 -10 0 2047.14 402.61 13
-10 2 0 1433.44 350.98 8
10 0 -2 2375.52 429.68 4
-10 0 -2 374.23 164.92 1
-10 0 -2 910.12 296.94 8
0 10 2 1743.85 420.15 10
10 -2 0 2214.66 455.34 5
10 2 0 2050.61 438.24 5
10 0 -2 2200.39 443.1 12
0 10 -2 1768.76 394.26 16
10 -2 2 151.24 110.29 14
-2 10 -2 88.52 43.5 10
-2 10 2 229.56 149.5 15
10 2 -2 85.07 76.01 2
-10 2 -2 92.08 134.91 3
2 -10 2 207.84 126.58 14
-2 10 -2 203.44 136.44 7
-2 -10 2 90.33 77.55 11
10 2 -2 147.78 60.83 4
2 -10 2 104.82 49.62 6
10 -2 -2 161.18 156 5
-2 -10 -2 34.85 36.02 13
2 10 -2 126.42 80.76 10
2 -10 -2 276.8 82.55 13
2 -10 -2 40.42 74.42 6
-2 -10 2 51.35 96.57 14
10 2 -2 148.78 100.28 12
2 10 2 11.49 100.95 4
2 10 2 65.35 88.46 10
-2 -10 2 77.91 50.46 3
-10 -2 2 202.81 147.12 3
-10 2 2 10.66 52.88 8
-2 10 -2 122.04 132.77 16
-10 -2 2 182.79 173.67 9
-2 -10 2 27 64.59 6
10 -2 -2 146.65 89.34 13
2 10 2 17.51 83.38 7
2 -10 2 177.16 170.64 11
-2 10 -2 197.4 137.08 15
10 2 -2 201.47 160.98 5
-10 2 2 252.2 178.69 3
-10 -2 -2 134.34 134.92 3
10 2 2 193.97 95.75 2
-10 2 2 233.05 202.63 9
10 -2 2 216.95 130.04 5
-10 -2 -2 36.48 71.53 9
-2 -10 -2 120.09 126.61 3
2 10 -2 78.06 111.5 4
10 -2 2 49.11 75.95 4
-2 10 2 201.95 152.18 10
-10 2 -2 2.82 121.07 8
-10 2 -2 35.43 23.12 9
-2 -10 -2 5.49 104.13 6
2 10 -2 355.3 172.51 7
10 -2 -2 165.92 134.6 4
3 -10 -1 1302.44 345.75 13
3 -10 -1 1264.68 309.22 6
3 10 1 939.87 283.65 7
-3 10 -1 1424.27 387.73 10
-3 10 -1 1794.06 428.72 15
-10 -1 3 1557.99 378.68 3
3 10 1 1282.4 303.97 4
-10 -1 3 1481.63 353.32 9
10 -3 1 1100.28 281.6 14
-10 3 1 1301.69 269.86 3
10 3 -1 1309.9 362.03 4
-10 1 -3 469.98 218.78 9
10 3 -1 1324.65 347.61 2
-3 -10 1 1523.62 354.91 3
3 10 1 1377.05 370.32 10
10 -1 -3 1356.48 356.11 12
3 -10 -1 1487.69 337.83 12
10 -3 1 1428.58 350.29 5
-1 10 3 1324.23 349.65 16
-10 -3 -1 607.46 213.18 8
10 -1 -3 1251.04 356.55 5
1 10 -3 1552.23 333.09 15
-10 3 1 1169.25 331.88 9
10 3 -1 1736.06 417.23 5
1 10 -3 1224.75 285.98 4
-10 -3 -1 651.88 278.63 3
-3 10 -1 1274.29 372.82 16
-1 10 3 1426.81 357.3 15
-10 -1 3 1364.29 382.49 8
10 -1 -3 1302.32 312.94 4
-10 -3 -1 873.45 304.6 1
-10 3 1 1360.62 370.91 8
-3 -10 1 842.05 250.49 1
1 10 -3 1434.41 385.56 10
-10 1 -3 149.61 136.8 8
-3 -10 1 1363.95 382.08 6
-10 3 1 1381.07 347.95 16
10 -1 -3 1459.17 347.05 2
1 10 -3 1570.39 372.39 7
-3 10 1 1400.11 348.91 10
1 10 3 527.86 192.48 7
-1 -10 3 1602.34 381.12 6
-1 10 -3 1168.34 352.67 10
1 -10 -3 886.67 319.11 13
10 3 1 1488.02 390.46 4
-10 -3 1 1581.43 318.53 6
10 1 -3 1385.62 359.88 2
-10 1 3 1257.51 313.31 3
10 1 -3 1407.68 355.12 4
-3 -10 -1 489.47 213.76 1
3 -10 1 1465.94 333.75 6
-10 3 -1 836.89 236.62 15
3 -10 1 1633.98 399.65 11
10 1 -3 1526.72 415.14 5
-1 -10 3 1411.1 375.32 11
-10 3 -1 853.94 288.28 16
-1 10 -3 1192.78 336.3 15
-3 10 1 1602.2 411.38 15
10 3 1 1215.95 336.82 2
-10 -3 1 1278.74 356.12 3
3 10 -1 1399.1 389.44 10
-10 1 3 1296.16 314.25 1
3 10 -1 1397 340.3 4
10 -3 -1 1413.23 339.01 5
-10 3 -1 905.14 264.97 3
-10 1 3 1549.04 379.74 9
10 3 1 1346.6 367.64 5
-3 -10 -1 913.76 294.95 6
-10 3 -1 920 326.25 9
-3 -10 -1 485.93 205.88 3
10 1 -3 1507.44 344.54 12
-10 1 3 1545.37 391.33 8
-10 -1 -3 148.7 170.34 3
1 10 3 1155.02 341.36 10
-10 -3 1 1364.11 348.65 8
-10 -3 1 1032.26 296.71 1
1 10 3 1433.75 341.41 16
-1 10 -3 1150.41 303.78 16
-10 -1 -3 469.1 206.26 8
-3 10 1 1563.02 386.17 16
-1 10 -3 1547.25 376.3 7
3 10 -1 1410.96 329.69 7
-10 3 3 2736.47 528.24 9
10 -3 -3 2808.32 554.58 12
-3 -10 3 2633.5 509.6 6
10 -3 -3 2121.79 415.03 13
10 3 -3 2875.06 554.14 2
3 10 3 1499.12 331.57 4
10 -3 -3 2693.07 514.89 5
10 3 -3 3072.11 594.92 5
-10 -3 3 3247.88 580.45 3
10 3 -3 2659.23 467.69 12
3 -10 3 1941.6 450.92 14
3 -10 3 2996.97 561.92 11
-3 -10 3 2468.98 511.44 11
-3 10 -3 2875.82 548.26 10
3 10 3 2089.43 474.52 10
-3 -10 3 1693.35 331.63 14
3 10 -3 2389.82 483.33 10
-10 -3 -3 300.51 208.7 8
-3 10 3 1829.26 431.73 10
-10 -3 3 3017.6 484.56 9
10 3 -3 2907.35 574.3 4
10 3 3 1299.67 340.26 4
-10 3 3 3011.37 490.1 16
-3 10 -3 2105.37 470.1 15
-3 10 3 2588.87 573.49 16
-10 -3 -3 453.06 214.12 3
-10 3 -3 995.9 297.78 15
-10 3 3 3266.91 553.41 8
-10 -3 3 2971.56 529.01 8
3 10 3 1593.41 389.79 7
3 10 -3 3023.06 508.14 2
-3 -10 3 2904.33 489.01 1
-10 -3 3 3130.68 550.53 1
3 10 -3 3045.47 501.87 4
-10 3 -3 457.85 192.77 8
-3 10 -3 2927.45 484.47 7
3 10 -3 3136.86 585.9 7
3 -10 -3 2107.94 460.66 13
-3 10 -3 2562.42 525.44 16
3 -10 3 2594.21 447.12 6
-10 3 -3 944.36 322.4 9
-3 -10 3 2765.6 484.15 3
2 -10 4 346.07 156.41 14
10 -4 2 558.02 218.31 14
-4 10 -2 257.42 145.3 16
-4 10 -2 532.08 252.71 15
2 -10 4 349.08 222.18 11
-4 -10 2 527.74 213.41 11
-10 4 2 415.53 213.78 15
10 4 -2 354.48 165.35 2
10 -2 -4 569.56 258.08 12
4 10 2 485.55 218.03 10
4 10 2 298.06 172.48 7
4 -10 -2 624.37 227.56 12
-4 -10 2 567.39 238.49 6
10 -2 -4 498.25 247.62 5
10 4 -2 422.25 183.46 12
-4 10 -2 559.16 219.39 10
-4 -10 2 330.47 147.75 1
-10 -4 -2 137.04 73.68 1
-10 -4 -2 172.16 155.85 8
-10 4 2 431.07 202.64 16
-2 10 4 140.76 92.43 10
10 -2 -4 491.44 196.41 2
-10 4 2 526.42 196.35 9
-2 10 4 375.91 230.35 16
10 4 -2 465.16 240.93 5
10 -4 2 416.6 214.53 5
-10 -4 -2 269.54 179.77 3
10 -2 -4 399.61 183.73 4
4 10 2 249.28 140.78 2
2 10 -4 355.99 208.28 10
-10 4 2 635.21 272.97 8
2 10 -4 565.07 216.95 2
-10 -2 4 437.9 177.62 9
10 4 -2 262.39 177.93 4
2 10 -4 462.22 217.49 7
10 4 -2 366.76 147.84 7
2 -10 4 496.43 222.07 6
2 10 -4 462.08 192.05 4
4 10 2 541.17 235.3 4
2 10 -4 332.62 181.06 15
-4 -10 2 348.15 129.38 3
-10 4 0 1041.27 274.79 15
0 10 -4 1029.33 361.58 10
-10 0 4 1099.49 331.09 1
4 10 0 1274.39 358.91 7
10 4 0 1050.67 326.68 5
4 10 0 879.7 244.08 2
10 -4 0 1034.98 303.39 5
10 0 -4 1026.88 328.6 12
0 -10 4 927.74 307.67 6
-4 -10 0 882.05 295.46 3
-10 0 4 1110.35 317.32 3
0 10 -4 1038.84 334.13 7
4 -10 0 1083.87 285.53 12
10 -4 0 1019.2 293.5 14
-4 -10 0 532.23 215.63 1
-10 4 0 1011.11 289.48 16
-10 -4 0 664.83 279.45 1
-10 -4 0 748.03 244.46 6
10 4 0 1333.38 401.63 2
0 -10 4 845.59 296.44 11
-10 0 4 1044.7 341.4 8
-4 10 0 1151.52 325.98 10
10 0 -4 1029.33 308.81 5
-4 10 0 1165.78 348.09 16
-4 -10 0 845.14 295.11 6
4 10 0 1068.37 328.43 10
-10 -4 0 960.11 328.3 3
-10 0 4 1048.11 305.31 9
-4 10 0 983 288.52 15
4 10 0 1162.08 318.3 4
10 0 -4 796.04 255.77 4
-10 4 0 798.16 270.58 8
-10 -4 0 816.4 278.26 8
0 -10 4 983.67 307.45 14
0 10 -4 429.11 155.91 16
0 10 -4 707.33 257.85 15
10 0 -4 1025.79 294.78 2
10 4 0 993.89 334 4
10 4 2 561 213.01 2
-10 2 4 355.74 178.35 3
10 2 -4 349.9 136.1 12
-2 10 -4 353.22 162.58 16
-10 4 -2 478.57 215.75 16
4 -10 2 518.22 207.96 6
-10 2 4 560.25 220.06 9
-10 4 -2 345.21 188.11 9
-2 -10 4 263.71 120.97 3
-10 -4 2 559.85 224.51 6
-4 10 2 343.36 194.02 10
-4 -10 -2 218.6 149.9 6
10 4 2 439.96 235.9 4
4 -10 2 510.92 242.49 11
-2 10 -4 267.76 184.46 10
10 4 2 309.57 193.79 5
4 10 -2 633.28 225.76 2
10 2 -4 536.03 260.24 4
10 2 -4 640.13 272.54 5
-10 -4 2 429.56 225.67 1
-10 2 4 592.3 213.6 1
-10 -4 2 576.09 246.09 3
10 -4 -2 411.83 148.27 12
-10 4 -2 146.12 115.9 15
10 -4 -2 694.66 264.42 13
-4 -10 -2 373.88 214.14 3
-2 10 -4 216.13 124.82 15
-10 -4 2 389.11 207.92 8
-10 2 4 619.35 258.3 8
10 -4 -2 338.44 184.88 5
4 10 -2 296.13 141.53 7
4 10 -2 521.41 217.25 4
-10 4 -2 53.93 52.44 8
-2 -10 4 516.56 199.29 1
-4 10 2 422.54 201.57 9
4 -10 2 468.62 225.94 14
4 10 -2 328.63 189.25 10
-2 -10 4 429.26 232.41 11
-2 -10 4 430.78 228.42 6
10 -4 -4 44.75 131.67 12
-4 10 -4 135.62 180.17 16
-4 -10 4 13.85 78.34 6
-4 -10 4 149.79 151.7 1
4 -10 4 1.42 156.19 14
-4 10 4 23.62 44.92 9
-4 -10 4 77.12 44.27 3
4 10 -4 19.77 136.35 7
-4 10 -4 117.5 129.69 15
-10 -4 4 202.85 175.11 3
4 10 -4 91.31 94.76 10
-10 4 4 15.02 77.9 8
4 -10 4 46.98 132.2 11
-4 10 -4 123.42 80.56 10
10 4 -4 45.25 110.5 5
10 4 -4 100.11 158.23 2
10 4 -4 16.1 88.23 7
-10 4 4 33.44 88.78 9
-4 -10 4 50.14 29.1 11
-4 10 4 30.46 119.11 10
10 -4 -4 42.5 99.65 5
-10 -4 4 41.94 45.43 9
-10 4 4 340.43 172.63 15
4 10 -4 8.37 85.79 4
10 4 -4 106.13 175.61 4
-4 10 4 152.68 192.45 15
-4 10 4 112.75 174.46 16
-10 -4 4 22.86 106.64 6
4 10 -4 18.53 56.5 2
4 -10 -4 120.68 50.12 13
-4 10 -4 44.49 35.04 7
10 4 -4 41.63 94.98 12
10 -4 -4 39.19 78.81 13
5 10 3 735.64 268.52 4
-5 10 -3 646.2 295.34 15
5 -10 -3 898.46 287.68 12
10 5 -3 687.66 230.76 12
-5 -10 3 416.51 181.45 3
5 10 3 634.75 259.1 7
-5 -10 3 403.94 176.79 1
-10 -3 5 573.3 239.02 1
-5 -10 3 729.02 259.17 11
10 -3 -5 866.4 301.94 5
5 -10 -3 343.41 132.71 13
-5 10 -3 633.25 288.16 10
3 10 -5 908.06 347.47 7
10 5 -3 622.74 212.29 5
3 -10 5 424.77 233.68 11
-10 5 3 835.39 307.28 9
-10 5 3 589.99 213.43 16
-10 -3 5 643.27 220.39 3
-10 -3 5 658.2 219.56 9
3 10 -5 428.9 228.07 10
10 -3 -5 453.7 88.16 12
10 -5 3 663.89 269.22 14
-5 10 -3 273.12 119.1 9
3 10 -5 856.13 273.36 2
10 5 -3 588.86 244.82 4
10 5 -3 688.85 265.89 7
-10 -5 -3 84.57 97.26 1
-5 10 -3 825.83 281.48 16
-10 5 3 551.62 236.92 15
-5 -10 3 521.16 245.91 6
-10 -1 5 299.54 243.3 8
-5 10 -1 470.54 258.66 10
-10 -1 5 239.89 174.37 3
1 -10 5 93.57 155.35 11
5 10 1 68.52 70.46 4
-10 -5 -1 136.88 72.93 6
10 5 -1 149.14 74.25 5
5 10 1 179.66 169.4 10
10 -1 -5 41.36 52 5
-5 10 -1 129.96 114 16
-5 -10 1 114.03 119.25 3
5 10 1 139.27 126.36 2
-10 5 1 220.57 176.25 16
10 5 -1 1.88 121.09 4
-10 -1 5 168.22 137.91 9
-10 -5 -1 139.79 62.57 3
5 -10 -1 254.59 191.77 13
10 -5 1 255.51 130.23 5
-10 5 1 27.5 99.42 9
-5 10 -1 110.25 70.87 9
-5 -10 1 49.96 98.41 6
-10 -5 -1 92.28 115.44 1
10 5 -1 193.7 122.56 7
10 -1 -5 214.23 158.75 12
10 -1 -5 160.15 135.04 2
1 10 -5 21.62 76.17 10
-10 5 1 106.83 48.94 8
5 10 1 33.02 66.38 7
-10 -5 -1 174.31 170.74 8
-10 -1 5 21.79 131.76 1
5 -10 -1 233.55 154.54 12
-5 -10 1 62.1 51.04 1
10 5 -1 292.95 211.93 2
1 10 -5 59.59 60.2 7
-10 5 1 152.91 136.47 15
-5 10 -1 25.56 147.22 15
10 -5 1 219.6 165.93 14
-10 5 -1 182.14 153.15 16
10 5 1 61.58 159.06 4
-5 10 1 199.97 168.63 9
-1 10 -5 302.58 215.57 10
-10 5 -1 259.32 175.49 15
10 1 -5 66.59 106.77 5
-1 -10 5 69.97 102.46 6
5 -10 1 4.35 88.18 11
5 10 -1 346.44 184.61 2
5 10 -1 62.1 95.01 7
-5 10 1 16.82 100.27 16
10 1 -5 121.54 79.66 12
10 -5 -1 333.46 180.8 5
-1 -10 5 262.37 193.85 11
-5 10 1 146.61 139.08 10
-10 1 5 196.76 157.64 9
-10 -5 1 84.41 106.37 3
5 10 -1 83.21 90.89 10
-10 -5 1 53.41 150.32 8
-10 5 -1 167.04 143.22 9
-5 -10 -1 89.39 88.51 3
10 1 -5 227.88 171.87 4
-10 1 5 382.25 195.24 8
-5 -10 -1 534.06 247.41 6
-10 -5 1 73.57 120.74 1
10 5 1 74.09 27.31 7
-10 -5 1 88.63 125.19 6
10 1 -5 124.43 123.07 2
-10 1 5 68.74 102.11 1
-10 5 -1 131.78 109.91 8
-1 10 -5 103.91 121.18 7
5 10 -1 251.66 191.16 4
10 5 1 82.02 80.03 5
5 -10 1 29.2 61.43 14
-5 -10 -1 116.8 127.38 1
-5 10 1 242.73 161.26 15
10 5 1 82.64 124.86 2
-3 -10 5 526.29 247.64 11
5 10 -3 790.32 319.57 7
-3 10 -5 410.95 209.27 15
-5 10 3 655.65 302.01 15
-5 -10 -3 146.98 42.78 3
-3 -10 5 677.98 270.95 6
10 -5 -3 622.93 215.03 5
5 -10 3 500.66 224.3 14
10 -5 -3 575.48 227.93 12
-10 3 5 665.3 217.27 16
10 3 -5 445.61 156.34 4
10 3 -5 620.35 236.57 7
10 5 3 593.49 257.52 4
5 -10 3 758.35 263.25 11
-10 5 -3 588.75 265.59 9
10 3 -5 667.92 272.95 5
5 10 -3 694.38 269.69 10
-10 3 5 516.65 267.43 9
-5 10 3 476.19 184.28 9
-3 -10 5 586.26 224.4 1
-10 3 5 790.76 289.87 8
10 5 3 730.47 283.07 2
5 10 -3 697.83 267.12 4
-5 10 3 972.32 346.58 16
-10 -5 3 709.16 243.89 6
10 3 -5 455.36 200.6 2
-3 10 -5 541.14 287.86 10
5 10 -3 844.46 324.83 2
-10 5 -3 93.87 117.33 8
-10 5 -3 651.54 255.6 16
10 -5 -3 752.02 284.3 13
-5 10 3 498.8 212.97 10
-5 -10 5 639.25 267.34 11
-10 -5 5 480.18 188.5 6
-10 -5 5 565.54 211.15 1
10 -5 -5 678.19 302.97 12
-5 10 -5 534.7 293.03 15
5 10 -5 858.6 331.07 7
-5 -10 5 506.07 243.83 6
-10 5 5 833.29 281.25 16
-10 -5 5 800.76 233.02 9
-5 -10 5 583.95 246.22 1
10 -5 -5 668.89 268.34 5
10 5 -5 958.32 327.24 7
-10 5 5 814.7 327.85 9
-10 -5 5 629.67 263.36 3
5 10 -5 922.4 314.07 4
-10 -5 5 887.38 288.15 8
10 5 -5 587.38 263.87 4
-5 -10 5 474.5 208.4 3
5 10 -5 880.94 307.56 2
10 5 -5 710.98 284.79 2
10 5 -5 811.57 294.02 5
-6 -10 4 616.32 295.16 3
-10 -4 6 370.16 184.96 3
-10 6 4 581.76 221.13 16
-10 6 4 532.52 204.15 15
6 -10 -4 569.94 300.02 13
-6 -10 4 328.99 146.33 1
10 6 -4 820.51 326.91 7
6 -10 -4 517.57 223.52 12
4 10 -6 468.03 247.93 10
-6 10 -4 302.27 234.94 10
4 10 -6 545.92 248.26 7
-6 -10 4 402.61 188.24 6
-6 10 -4 391.74 201.22 15
-10 6 4 872.9 365.37 9
10 6 -4 336.83 180.02 5
-10 -4 6 437.45 272.33 8
-10 6 4 500.9 187.32 8
-6 10 -4 194.69 108.37 16
10 6 -4 564.64 237.41 4
10 6 -4 343.4 160.72 2
-10 -4 6 413.02 147.42 1
6 -10 -2 1206.75 379.07 13
-6 -10 2 1251.7 348.23 3
-6 -10 2 851.75 277.13 11
-6 -10 2 745.98 300.58 6
10 -6 2 1162.88 373.3 14
6 10 2 1174.01 382.63 4
6 -10 -2 1071.55 319.4 12
-10 -2 6 919.88 392.37 1
6 10 2 1197.37 373.44 7
-6 10 -2 1342.28 377.54 10
10 6 -2 961.12 303.03 7
-10 -6 -2 315.81 216.26 1
10 6 -2 1554.55 395.28 5
10 6 -2 1447.03 413.94 2
6 10 2 1143.25 325.73 10
10 -6 2 1230.06 334.7 5
-6 -10 2 1313.51 387.39 1
6 10 2 930.69 301.76 2
-10 -6 -2 616.36 308.48 3
-10 -2 6 1348.11 412.78 8
-6 10 -2 1068.02 366.69 15
-10 -6 -2 294.28 166.17 8
10 6 -2 1246.04 361.86 4
-6 10 -2 1384.32 405.88 16
-6 -10 0 417.39 169.55 6
6 -10 0 1244.38 323.75 12
-6 -10 0 490.2 198.7 1
6 10 0 630.97 246.15 10
6 10 0 835.47 310.66 2
-10 6 0 1082.04 330.35 16
-10 -6 0 549.61 271.74 3
6 10 0 1138.44 374.06 7
10 0 -6 691.56 273.5 5
10 -6 0 1020.9 312.18 5
-6 10 0 652.95 236.9 10
-6 -10 0 581.83 242.43 3
-6 10 0 1003.45 308.21 9
-10 6 0 616.98 271.05 9
-6 10 0 1083.16 352.89 15
-10 0 6 835.41 313.96 8
-10 -6 0 543.56 263.34 6
-10 6 0 925.61 271.39 8
-6 10 0 868.61 315.76 16
10 6 0 981.71 278.81 5
6 10 0 1217.84 362.57 4
10 6 0 859.8 305.79 4
-10 6 0 973.76 334.53 15
6 10 -2 1102.38 366.27 7
-10 6 -2 1162.64 370.61 16
6 -10 2 1154.62 337.91 14
6 10 -2 1455.34 309.83 5
10 2 -6 1274.69 381.65 5
-6 -10 -2 205.24 150.63 1
10 6 2 1114.4 362.13 4
-6 10 2 1244.98 406.5 15
-10 -6 2 1273.84 317.38 6
6 -10 2 1499.18 389.78 11
-6 -10 -2 498.88 239.13 6
6 10 -2 1061.68 335.71 10
-6 10 2 917.07 315.88 10
-10 -6 2 1123.49 352.38 3
10 6 2 846.47 273.09 2
10 2 -6 1396.57 377.17 2
-6 10 2 1257.11 320.39 9
10 6 2 725.26 279.62 7
-10 -6 2 1205.33 365.71 1
10 6 2 932.48 344.14 5
-10 6 -2 702.15 288.47 15
-10 -6 2 1303.2 364.58 8
-6 10 2 1244.72 386.79 16
6 10 -2 1312.28 409.82 4
-10 6 -2 425.85 228.95 8
6 10 -2 1558.83 415.33 2
6 -10 4 581.56 250.36 11
-10 6 -4 392.73 201.07 15
-6 10 4 481.93 224.15 15
-10 -6 4 403.14 216.66 6
-10 -6 4 421.3 200.67 3
-10 -6 4 455.52 233.27 1
10 -6 -4 987.35 317.89 12
6 -10 4 385.57 221.19 14
10 4 -6 623.26 291.91 5
-6 10 4 240.66 74.16 9
10 -6 -4 483.47 216.92 5
-4 -10 6 526.94 236.54 6
6 10 -4 346.56 203.85 2
-6 10 4 770.12 318.74 16
6 10 -4 507.37 238.72 7
10 4 -6 504.74 271.83 2
-10 6 -4 454.06 294.61 9
10 4 -6 564.31 289.57 4
-10 -6 4 700.78 244.47 8
6 10 -4 583.74 242.11 4
6 10 -4 478.74 222.52 10
10 4 -6 417.23 182.58 7
-6 10 4 209.46 127.17 10
10 -6 -4 246.12 118.18 13
-6 -10 6 1117.31 369.23 3
-6 -10 6 1214.52 382.62 1
10 6 -6 1236.61 405.11 5
-10 -6 6 794.69 317.22 1
10 -6 -6 1007.03 360.39 12
-10 -6 6 986.22 362.82 3
10 6 -6 1262.84 409.5 4
6 10 -6 1125.3 354.26 4
-10 -6 6 1110.28 349.55 8
-10 6 6 1146.02 394.92 9
6 10 -6 1418.91 417.13 2
10 6 -6 1148.67 386.89 2
10 6 -6 1399.13 409.33 7
6 10 -6 1079.61 393.33 7
6 10 -6 1043.02 316.28 10
-6 -10 6 1000.1 360.5 6
10 7 -5 336.5 194.03 5
-7 -10 5 166.81 112.05 3
-10 7 5 382.36 173.52 15
-7 -10 5 71.54 32.76 6
7 -10 -5 305.72 43.25 13
10 7 -5 564.38 243.42 7
-7 -10 5 312.9 186.31 11
-7 10 -5 234.8 158.62 16
-7 -10 5 335.65 125.22 8
-10 7 5 296.35 172.67 9
-10 7 5 486.56 256.37 16
-7 10 -5 438.42 246.43 15
-7 -10 5 289.63 191.1 1
-10 7 5 584 198.96 8
10 7 -5 493.79 244.18 4
10 7 -5 514.38 274.33 2
10 7 -3 87.68 54.12 2
7 -10 -3 2.14 58.02 12
-7 10 -3 279.79 231.65 16
10 -7 3 77.31 144.08 14
-10 7 3 232.84 184.46 15
-7 -10 3 104.55 117.49 6
-7 -10 3 238.32 153.76 3
-7 -10 3 12.42 12.24 11
-10 -7 -3 58.58 90.03 1
-10 7 3 300.29 203.83 9
-7 10 -3 6.02 114.81 10
7 10 3 138.8 198.9 4
10 7 -3 134.94 136.5 5
7 10 3 199.68 223.05 7
7 -10 -3 248.19 212.74 13
-10 7 3 76.9 135.36 16
10 -7 3 23.16 117.66 5
-7 10 -3 273.94 186.93 9
7 10 3 161.54 165.81 2
-10 -7 -3 30.04 89.07 3
-10 7 3 110.05 113.76 8
-7 -10 3 105.11 112.05 8
-7 -10 3 44.32 154.51 1
10 7 -3 142.92 239.93 4
-7 10 -3 319.01 264.39 15
10 7 -3 45.8 121.52 7
10 7 -1 87.25 120.26 7
7 10 1 0.13 130.28 7
7 -10 -1 54.74 92.95 12
10 7 -1 143.38 204.12 4
-7 10 -1 319.13 186.84 9
-7 10 -1 112.97 178.11 16
-7 -10 1 127.47 133.24 6
-10 -7 -1 31.42 105.1 3
-10 -7 -1 180.25 105.91 6
-10 7 1 16.12 132.96 16
10 -7 1 48.28 86.29 11
-10 7 1 21.46 77.61 15
-7 10 -1 58.84 59.39 10
10 -7 1 78.25 101.92 5
7 10 1 26.28 142.56 2
7 10 1 70.24 150.17 10
10 7 -1 6.48 124.42 5
7 10 1 3.17 72.26 5
-10 7 1 207.42 216.6 9
10 7 -1 185.7 190.51 2
-10 -7 -1 223.83 231.87 1
-10 7 1 52.31 135.28 8
-10 -7 -1 226.4 226.66 8
10 -7 1 46.5 165.91 14
-7 -10 1 84.77 137.69 1
7 10 1 268.35 186.8 4
-7 10 -1 210.56 122.96 15
10 7 1 173.76 161.91 4
-10 7 -1 42.17 140.38 15
-10 7 -1 198.76 175.9 9
-7 10 1 8.07 163.42 9
7 10 -1 117.17 165.18 2
10 7 1 7.78 21.87 7
10 -7 -1 99.57 165.95 12
10 -7 -1 34.27 80.34 11
-7 10 1 477.91 252.77 10
10 -7 -1 113.42 55.69 5
10 7 1 92.98 198.49 2
-7 -10 -1 159.81 144.35 6
-7 -10 -1 137.6 210.47 3
10 7 1 36.17 111.67 5
-10 -7 1 217.26 179.68 1
-7 10 1 122.56 92.76 15
-10 -7 1 297.89 206.07 6
7 -10 1 11.56 29.14 11
-10 -7 1 115.81 134.14 8
-10 7 -1 99.12 25.62 8
7 -10 1 286.63 227.99 14
-7 -10 -1 6.36 98.65 8
7 10 -1 199.32 132.89 4
-7 -10 -1 126.05 149.7 1
-10 7 -1 194.22 225.31 16
-10 -7 1 132.4 78.23 3
7 -10 3 125.05 140.26 11
-10 -7 3 24.99 122.52 1
-10 7 -3 319.91 205.24 15
10 7 3 209.2 231.72 4
-7 10 3 190.93 125.53 15
-7 -10 -3 44.19 128.92 1
7 10 -3 429.84 215.99 7
-10 7 -3 32.72 96.48 16
10 -7 -3 170.85 122.36 12
-10 -7 3 109.6 100.96 11
-10 -7 3 61.75 141.5 3
10 -7 -3 67.12 76.77 13
7 -10 3 42.99 126.82 14
10 -7 -3 15.22 75.84 5
7 10 -3 222.87 151.64 10
-7 -10 -3 2.42 126.89 6
-7 10 3 23.85 78.22 16
-10 7 -3 95.87 113.58 10
-7 10 3 176.77 116.01 10
-10 -7 3 6.7 47.11 6
7 10 -3 80.15 85.49 5
-7 10 3 65.79 56.91 9
-10 7 -3 387.15 303.34 9
-7 -10 -3 115.21 20.92 3
7 10 -3 387.76 238 2
-10 -7 3 154.9 143.29 8
7 10 -3 125.95 167.35 4
10 7 3 274.25 272.68 2
-10 -7 5 460.57 250.5 1
7 -10 5 284.94 159.78 14
-10 -7 5 541.29 268.71 3
-7 10 5 505.44 243.85 15
10 -7 -5 267.36 188.77 12
10 -7 -5 374.79 218.72 13
7 10 -5 296.81 126.85 10
7 10 -5 321.99 191.01 7
-7 10 5 429.94 251.75 9
-10 -7 5 279.13 175.27 8
7 10 -5 369.34 171.64 4
-10 -7 5 353.76 240.09 6
-7 10 5 395.49 281.6 16
7 10 -5 498.59 224.24 2
10 7 -7 81.88 73.07 4
10 7 -7 530.5 302.54 2
-10 -7 7 114.01 98.8 3
-10 -7 7 219.78 191.69 1
10 7 -7 377.22 235.88 7
-8 -10 6 6.85 76.41 6
-10 8 6 64.26 173.96 9
-8 -10 6 484.88 233.82 3
10 8 -6 297.8 159.5 5
10 8 -6 171.33 139.95 10
10 8 -6 359.61 238.42 4
-8 -10 6 331.35 150.91 8
-8 -10 6 260.92 179.19 1
10 8 -6 272.1 203.65 2
10 8 -6 321.44 231.66 7
-10 8 6 265.13 10.45 16
10 8 -4 1097.53 374.54 2
-8 10 -4 729.81 263.81 16
10 8 -4 1298.8 386.39 5
10 -8 4 825.99 245.82 14
-8 -10 4 790.84 375.22 6
10 8 -4 1010.73 359.27 7
8 -10 -4 996.4 328.33 12
-8 -10 4 1211.03 420.46 3
10 8 -4 962.78 260.96 10
-8 -10 4 1027.32 345.88 1
8 -10 -4 979.76 346.05 13
-8 10 -4 468.71 315.41 10
-8 10 -4 464.23 213.54 15
-8 10 -4 436.74 227.12 9
-10 8 4 1090.2 302.79 8
-8 -10 4 1146.77 316.76 8
10 8 -4 1090.23 393.62 4
-10 8 4 1291.57 414.65 16
-10 8 4 1100.76 396.38 9
8 -10 -2 446.05 227.45 12
-10 8 2 449.67 208.27 15
-8 10 -2 429.09 251.85 16
10 8 -2 392.6 233.88 2
10 8 -2 11.25 161.44 7
-8 -10 2 78.34 88.65 6
8 10 2 91.6 47.98 7
10 8 -2 235.46 165.91 5
-10 8 2 407.67 155.08 16
10 -8 2 347.76 181.24 11
-8 -10 2 246.13 136.95 11
-8 -10 2 186.13 141.04 3
8 -10 -2 141.96 61.96 5
-10 -8 -2 39.75 134.97 1
-10 -8 -2 79 155.13 6
-8 10 -2 510.7 294.21 10
-10 8 2 117.3 78.27 10
8 10 2 103.52 72.25 10
8 -10 -2 197.86 257.19 13
8 10 2 65.5 89.95 2
-8 10 -2 127.08 205.53 9
-10 8 2 296.81 193.26 9
10 -8 2 235.93 44.39 5
10 -8 2 521.54 268.57 14
-10 -8 -2 80.57 88.95 3
-8 -10 2 225.67 180.88 1
-10 8 2 155.3 52.1 8
-8 -10 2 288.89 128.15 8
-10 -8 -2 315.69 228.55 8
10 8 -2 134.1 106.73 4
8 10 2 232.81 138.7 4
8 10 2 341.95 196.08 5
-8 10 -2 155.35 170.23 15
10 8 0 206.35 113.03 5
-8 10 0 293.49 83.72 16
10 -8 0 378.47 155.89 11
8 -10 0 233.1 140.84 11
-10 -8 0 127.02 169.27 3
-10 -8 0 326.39 126.21 8
-8 -10 0 185.22 164.32 8
-10 -8 0 227.07 171.85 6
-10 -8 2 356.04 191.65 6
-10 -8 2 143.75 137.72 8
-10 8 -2 308.48 250.32 15
-10 -8 2 178.28 206.53 1
10 8 2 188.25 71.24 4
-8 10 2 318.19 209.81 15
8 -10 2 534.71 225.42 11
8 -10 2 218.41 171.87 14
-8 -10 -2 35.38 116.5 6
-8 10 2 261.47 129.73 16
-10 -8 2 8.36 68.34 11
-10 -8 2 28.56 170.91 3
10 -8 -2 304.18 124.95 5
8 10 -2 49.82 174.29 2
8 10 -2 25.77 81.34 10
10 8 2 460.46 305.95 2
-8 10 2 338.12 234.76 9
10 -8 -2 183.82 32 13
10 8 2 375.53 194.93 7
-8 -10 -2 88.03 37.35 3
-10 8 -2 235.96 134.96 10
10 8 2 236.69 137.59 5
-10 8 -2 34.44 84.69 9
-8 -10 -2 15.85 80.19 1
8 10 -2 77.79 120.84 5
8 10 -2 220.86 188.94 4
-10 8 -2 27.58 78.42 16
-10 8 -2 134.15 35.95 8
10 -8 -2 250.88 118.32 12
8 10 -2 144.41 102.66 7
-8 10 4 1274.3 311.3 8
-8 10 4 1023.69 389.57 16
-10 -8 4 1196.64 380.14 6
10 -8 -4 1236.97 419.31 12
-10 -8 4 1073.04 370.01 3
8 10 -4 1173.07 320.19 5
8 10 -4 969.63 345.52 7
-10 -8 4 1283.41 437.07 1
8 10 -4 1028.95 369.6 2
10 -8 -4 1229.63 344.76 5
-10 8 -4 458.1 247.25 10
8 10 -4 1178.53 368.61 10
8 -10 4 797.1 343.8 14
-8 10 4 1165.16 408.73 9
-10 -8 4 600.26 196.46 11
-10 8 -4 583.6 225.3 16
-10 8 -4 555.26 305.04 9
-8 10 4 1136.07 334.36 15
-10 -8 4 983.85 348 8
8 10 -4 1601.66 438.43 4
-10 -8 6 120.95 97.83 6
-10 -8 6 327.72 192.89 3
8 10 -6 35.01 144.57 2
10 -8 -6 56.45 147.72 12
8 10 -6 28.94 72.09 10
-10 -8 6 166.22 163.63 8
8 10 -6 287.88 138.61 4
8 10 -6 435.08 233.39 7
-10 -8 6 166.76 92.55 1
10 9 -7 132.5 105.8 2
-9 -10 7 11.26 15.66 6
-9 -10 7 44.89 214.27 3
-9 -10 7 73.17 151.31 8
-9 -10 7 47.26 119.78 1
10 9 -7 203.91 162.84 4
10 9 -7 46.58 21.04 7
10 9 -5 386.8 196.73 10
-9 10 -5 204.44 186.93 16
-9 -10 5 505.17 313.58 6
10 9 -5 268.9 203.56 7
-9 -10 5 556.1 310.57 1
9 -10 -5 263.99 172.06 12
-9 -10 5 325.02 150.01 11
-9 -10 5 400.39 251.39 3
10 9 -5 167.8 94.62 5
10 9 -5 252.7 261.64 2
-9 10 -5 322.05 220.69 15
-10 9 5 353.76 225.69 9
9 -10 -5 172.74 139.06 13
-10 9 5 369.12 207.61 8
-9 -10 5 314.06 149.73 8
10 9 -5 139.52 73.52 4
-10 9 5 473.1 245.33 16
-10 9 5 309.93 222.88 15
10 -9 3 369.33 226.98 5
-9 10 -3 255.51 190.37 15
-9 10 -3 288.16 125.77 10
9 10 3 238.23 150.69 4
9 -10 -3 494.38 272.01 12
10 9 -3 512.99 290.15 2
10 -9 3 373.08 221.8 14
9 -10 -3 419.07 253.32 13
-10 9 3 287.44 163.08 15
10 9 -3 367.56 241.69 7
9 10 3 352.48 208.45 7
-10 -9 -3 77.02 91.77 6
9 -10 -3 276.93 140.35 5
10 9 -3 223.38 145.37 10
10 9 -3 605.82 291.53 5
-9 -10 3 353.25 245.5 1
-10 9 3 546.24 297.5 9
-9 10 -3 391.84 234.13 9
-10 -9 -3 74.56 51.45 3
9 10 3 419.26 200.05 2
-10 9 3 329.01 206.94 10
-10 9 3 547.39 312.29 16
-9 -10 3 342.08 202.92 11
-10 9 3 549.62 222.96 8
-9 10 -3 354.01 260.26 16
-9 -10 3 406.87 226 3
-9 -10 3 212.98 82.64 8
-9 -10 3 327.35 192.76 6
10 9 -3 589.81 337.76 4
-10 -9 -3 274.57 311.89 1
10 9 -1 344.98 209.14 5
-9 -10 1 224.62 189.9 6
9 10 1 445.61 251.62 7
-9 -10 1 202.58 195.97 1
-10 9 1 6.79 48.47 15
9 10 1 318.28 261.85 4
10 9 -1 313.6 152.8 10
10 9 -1 543.08 293.97 2
-9 -10 1 486.07 259.45 11
-10 -9 -1 532.2 295.94 6
9 -10 -1 433.21 289.35 12
-10 9 1 384.36 209.11 16
10 9 -1 329.07 178.77 7
10 -9 1 90.96 75.84 11
-9 -10 1 251.63 255.41 3
9 10 1 188.26 208.82 2
-10 9 1 227.26 109.34 10
9 10 1 339.24 172.32 10
-10 -9 -1 1.58 142.19 3
9 10 1 159.93 71.19 5
-10 9 1 376.18 245.08 9
-9 10 -1 184.24 172.15 9
-10 9 1 273.62 128.7 8
10 -9 1 319.2 162.97 5
-10 -9 -1 231.61 150.99 1
-9 -10 1 374.74 246.11 8
-9 10 -1 212.72 127.61 8
-9 10 -1 308.62 218.09 10
-10 -9 -1 67.75 60.39 8
10 9 -1 471.43 260.39 4
-9 10 -1 333.86 258.17 16
10 -9 1 178.17 78.96 14
9 10 -1 394.7 255.84 7
-10 9 -1 339.52 246.31 10
-10 -9 1 382.64 273.01 1
9 10 -1 230.9 226.94 2
9 -10 1 211.28 147.95 14
-10 -9 1 337.36 206.01 6
-9 -10 -1 767.47 377.57 6
9 -10 1 311.8 204.75 11
-10 -9 1 195.47 105.76 3
10 9 1 87.97 117.02 2
-9 10 1 379.89 214.49 10
9 10 -1 382.33 194.5 10
9 10 -1 268.74 142.27 5
10 9 1 201.16 132.43 10
9 -10 1 427.45 185.12 5
-9 -10 -1 302.06 249.11 3
10 -9 -1 354.61 184.79 5
-9 10 1 576.84 331.01 9
10 -9 -1 499.1 239.12 11
-9 10 1 77.96 122.61 16
-10 9 -1 325.13 206.67 9
-9 10 1 444.74 209.18 8
-10 -9 1 189.58 120.26 8
10 -9 -1 657.43 301.22 12
-10 9 -1 27.39 55.35 8
-9 10 1 258.19 200.53 15
-9 -10 -1 137.66 78.21 8
-9 -10 -1 223.11 176.11 1
9 10 -1 628.66 296.19 4
-10 9 -1 271.24 232.66 15
-10 9 -1 135.7 114.76 16
10 9 3 133.9 99.82 7
10 -9 -3 385.37 259.22 13
-9 10 3 546.5 279.31 15
-10 9 -3 415.53 195.69 10
-9 -10 -3 6.12 103.71 6
9 10 -3 409.97 207.62 10
10 -9 -3 455.82 260.59 12
9 -10 3 548.02 264.71 11
-10 -9 3 333.41 167.15 3
10 9 3 102.92 200.44 4
10 -9 -3 475.1 229.21 5
9 10 -3 431.92 265.46 7
9 10 -3 515.74 273.2 5
9 -10 3 668.57 327.33 14
-9 10 3 562.32 343.51 16
-9 10 3 198.35 173.6 10
-10 -9 3 320.94 194.43 1
-10 9 -3 179.53 151.5 9
-9 10 3 321.9 213.96 9
9 10 -3 773.96 352.49 2
9 -10 3 324.78 169.69 5
-10 9 -3 430.21 271.27 16
-10 9 -3 463.59 304.11 15
-9 -10 -3 240.99 216.23 3
10 9 3 194.84 174.21 2
-9 10 3 222.12 142.69 8
-10 -9 3 261.46 145.09 6
-10 -9 3 546.8 219.97 8
-9 -10 -3 233.98 222.14 1
9 10 -3 690.3 359.85 4
9 10 -5 396.33 117.18 2
-10 -9 5 462.13 269.7 1
-9 10 5 249.93 176.94 15
9 -10 5 24.76 103.15 14
10 -9 -5 235.53 155.69 13
-9 10 5 227.56 199.12 16
10 -9 -5 387.3 213.6 12
-10 -9 5 378.97 205.91 3
9 10 -5 322.11 191.81 5
9 10 -5 265.32 79.99 10
9 10 -5 182.39 145.96 7
-10 -9 5 324.98 199.49 8
-9 10 5 328.87 236.2 9
-10 -9 5 265.23 271.69 6
9 10 -5 539.04 216.43 4
-9 10 5 310.84 174.69 8
-10 -9 7 27.6 78.84 6
9 10 -7 207.17 143.43 10
9 10 -7 205.69 157.29 4
-10 -9 7 151.91 160.28 3
-10 -9 7 49.31 80.46 8
9 10 -7 91.98 230.91 2
9 10 -7 18.73 68.79 7
-10 -9 7 16.89 162.05 1
-10 -10 0 3.26 132.73 1
-10 -10 0 88.88 137.5 6
10 10 0 125.47 156.24 2
10 -10 0 124 113.17 11
-10 10 0 34.64 59.85 10
-10 -10 0 90.43 147.61 3
10 -10 0 82.18 125.98 5
10 10 0 89.01 136.26 5
-10 10 0 290.84 191.38 9
-10 10 0 166.96 219.57 16
-10 10 0 90.27 44.49 15
10 10 0 22.12 127.91 10
-10 10 0 133.09 152.74 8
-10 -10 0 222.13 208.67 8
10 10 0 285.42 275.31 7
10 10 0 36.32 133.63 4
10 10 2 292.53 204.06 7
-10 10 -2 271.09 198.1 15
-10 -10 -2 245.31 279.01 6
-10 -10 2 244.36 186.8 11
10 -10 -2 250.28 182.38 13
10 10 -2 266.62 114.51 10
10 10 -2 215.6 127.35 5
10 10 2 291.22 215.13 2
10 -10 2 279.63 118.94 5
-10 -10 2 84.41 176.9 6
10 -10 2 244.25 153.29 11
-10 10 -4 897.26 375.47 16
-10 10 4 1026.84 374.84 15
10 10 -4 1477.25 456.3 7
-10 -10 4 1017.99 406.37 6
10 10 -4 1073.68 374.28 2
10 -10 4 1000.17 374.92 14
10 -10 -4 1180.56 438.38 13
-10 10 4 1347.43 461.87 16
10 -10 -4 998.35 377.22 12
-10 -10 4 916.5 311.89 11
-10 10 -4 689.63 319.14 15
-10 10 -4 858.55 311.91 10
10 10 -4 1180.32 360.92 10
-10 10 4 1252.21 397.77 9
-10 10 -4 455.35 291.98 9
-10 10 4 1432.73 378.39 8
-10 -10 4 1148.98 385.39 3
-10 -10 4 1608.95 413.02 8
10 10 -4 1530.32 483.27 4
-10 -10 4 921.53 404.22 1
10 -10 -6 57.58 20.43 13
-10 -10 6 15.05 141.29 3
-10 -10 6 94.46 184.63 6
-10 -10 6 178.47 130.86 1
10 10 -6 8.77 169.02 10
-10 10 6 28.62 85.48 9
10 10 -6 335.8 241.46 4
-10 -10 6 221.35 175.73 8
10 10 -6 357.66 280.06 2
-10 10 6 189.5 189 16
10 10 -6 193.55 172.37 7
-1 11 0 291.5 153.18 15
-1 11 0 429.75 189.68 7
1 11 0 286.08 191.14 7
0 11 -1 340.99 151.49 15
0 11 1 392.06 195.49 15
11 0 1 406.36 202.14 4
-11 0 -1 59.1 118.08 1
1 11 0 346.45 164.39 4
11 1 0 269.56 151.28 2
0 11 -1 548.71 243.11 7
11 0 -1 247.11 68.79 2
0 -11 1 536.74 206.54 6
-1 -11 0 288.82 137.99 13
0 -11 -1 277.67 139.36 6
1 11 0 428.86 170.6 15
0 -11 1 386.59 230.49 11
-11 0 1 197.09 71.58 3
0 11 1 360.58 215.06 7
0 11 -1 360.45 203.28 10
1 11 0 347.74 177.2 16
1 11 0 363.4 206.65 10
0 11 1 297.54 202.97 10
-11 1 0 790.03 303.97 3
-11 -1 0 251.54 195.65 3
11 0 1 361.34 153.2 2
11 0 -1 468.56 212.95 5
11 1 0 370.36 211.91 5
11 0 1 251.45 202.31 5
-11 0 1 478.42 219.88 9
-11 -1 0 435.99 215.33 9
-1 -11 0 342.21 168.79 6
-11 0 -1 246.99 161.87 9
11 1 0 327.02 201.02 4
1 -11 0 402.25 231.9 6
0 -11 -1 367.21 132.57 13
-11 0 -1 133.31 124.03 3
-11 0 1 191.07 135.69 8
-11 -1 0 170.38 91 8
-11 0 -1 98.8 165.92 8
-1 11 0 246.15 150.33 10
11 0 -1 555.42 228.41 4
-11 0 1 478.09 169.74 1
0 11 1 196.27 116.58 16
-1 11 0 639.1 261.49 16
0 11 -1 404.09 211.3 16
2 11 1 1043.68 325.97 7
-1 -11 -2 926.26 308.56 13
1 11 -2 1143.88 305.49 15
11 -2 1 1406.41 352.56 14
1 -11 2 1394.97 363.2 6
11 -1 -2 1475.71 310.25 13
11 2 -1 1438.55 373.15 2
-2 -11 1 983.98 313.58 6
2 11 1 1072.22 278.09 4
11 -1 -2 1313.1 368.75 12
-11 -2 -1 601.37 205.26 6
-11 -1 2 1601.97 403.54 3
1 -11 2 1450.22 403.09 11
-2 -11 1 1384.39 344.93 3
-11 2 1 1453.51 328.57 3
1 -11 2 962.26 296.89 14
1 11 -2 1433.13 398.25 10
-2 11 -1 1710.31 407.28 10
-2 11 -1 1463.92 351.64 7
-1 11 2 1186.36 373.84 10
11 -1 -2 1467.19 406 5
-1 11 2 1338.35 368.71 16
2 11 1 1565 405.71 10
11 -2 1 660.68 216.84 2
-11 -1 2 1236.53 331.14 1
-11 -2 -1 396.27 236.56 3
11 -2 1 1583.95 394.97 5
-2 11 -1 1556.33 386.48 15
-11 -1 2 1268.75 347.15 9
-11 2 1 995.61 358.28 9
11 2 -1 1322.99 360.15 5
11 1 2 844.21 339.67 5
-11 1 -2 178.4 97.08 1
-11 -2 -1 735.94 245.96 9
-11 1 -2 531.18 230.13 9
-11 1 -2 470.04 186.13 3
2 11 1 1393.1 322.35 16
-1 11 2 1385.44 347.1 15
-1 -11 -2 514.58 191.59 6
-11 -1 2 1424.42 400.51 8
1 11 -2 1412.6 311.93 4
-11 2 1 951.66 320.38 8
11 -1 -2 1234.64 345.81 4
-11 -2 -1 541.21 262.81 8
-2 11 -1 1398.79 368.03 16
-11 1 -2 497.15 233.87 8
2 11 1 1166.76 304.51 15
-1 11 2 725.83 235.79 7
11 2 -1 1877.57 432.67 4
-2 -11 1 931.38 267.09 1
2 -11 -1 1197.78 323.57 13
11 -2 1 1443.72 309.07 4
1 11 -2 1599.9 413.49 7
11 -1 -2 1263.46 347.43 2
1 11 -2 813.73 281.8 16
-2 11 1 1183.35 318.86 7
1 -11 -2 765.95 275.58 13
-11 -2 1 1088.94 253.68 6
-1 -11 2 763.85 262.92 14
1 11 2 904.97 275.48 15
-2 -11 -1 612.2 278.06 13
11 -2 -1 1440.05 334.1 2
2 11 -1 1517.21 356.65 15
11 1 -2 1689.86 390.5 12
-2 -11 -1 691.19 273.57 6
1 -11 -2 745.75 284.77 6
-11 1 2 1413.16 332.66 3
-1 11 -2 1342.02 361.21 15
-1 -11 2 1351.12 384.14 11
2 -11 1 1150.32 360.19 11
-2 -11 -1 299.92 151.85 1
11 -2 -1 1588.45 410.93 5
-1 11 -2 1610.15 419.04 10
-11 1 2 1489.29 343.21 1
2 11 -1 1138.16 349.32 10
11 2 1 1001.62 312.66 2
-2 11 1 1059.99 348.42 10
1 11 2 1009.28 333.71 10
11 1 -2 1322.44 372.27 5
2 11 -1 1238.25 380.18 7
-11 -1 -2 231.34 146.44 1
-2 11 1 1727.2 404.01 16
-2 -11 -1 859.5 273.46 3
-11 2 -1 854.75 274.86 3
-11 1 2 1262.38 357.37 9
11 2 1 1198.14 366.87 5
-11 -2 1 1498.04 396.63 3
-11 -2 1 1056.98 290.24 9
-11 2 -1 993.22 284.63 16
11 -1 2 1312.77 375.47 5
1 11 2 1357.1 340.8 16
-11 2 -1 884.47 312 9
-1 11 -2 1555.39 364.38 7
11 -1 2 1283.8 344.88 4
-11 -1 -2 492.13 249.04 3
2 -11 1 1507.98 354.77 6
11 -1 2 758.62 246.93 2
-1 -11 2 1269.16 362.17 6
1 11 2 1171.89 265.73 4
-11 1 2 1254.12 380.96 8
-11 -2 1 1162.71 372.78 8
-11 2 -1 689.75 299.82 8
-11 -1 -2 658.06 296.42 8
2 11 -1 1569.04 353.36 4
11 -2 -1 1328.16 296.27 4
-11 -2 1 999.17 310.82 1
11 1 -2 1530.54 377.79 4
1 11 2 774.2 271.89 7
-1 11 -2 1273.31 362.73 16
11 -2 -3 165.41 15.73 2
-3 -11 2 127.04 128.39 11
11 3 -2 162.31 78.32 12
-3 11 -2 5.81 128.15 15
11 2 3 33.17 65.65 4
2 -11 3 68.98 95.6 14
2 -11 3 112.88 31.33 6
3 11 2 151.91 123.2 7
-11 3 2 148.99 117.86 15
-11 3 2 121.81 85.15 16
-2 11 3 267.7 184.8 15
3 11 2 45.23 50.75 15
11 3 -2 66.98 33.98 2
-11 -2 3 238.1 150.64 6
-3 -11 2 101.84 135.91 14
11 -2 -3 79.16 10.77 13
3 -11 -2 35.52 59.13 13
3 -11 -2 220.57 140.37 12
11 -2 -3 250.58 152.94 12
-11 -2 3 111.84 114.83 3
-3 -11 2 155.39 74.23 3
3 -11 -2 97.19 113.37 6
-3 -11 2 23.37 98.81 6
-11 -2 3 91.2 42.93 1
2 11 -3 256.29 156.02 16
11 3 -2 8.29 59.75 7
2 11 -3 60.77 129.92 10
-3 11 -2 42.25 132.52 10
11 -2 -3 190.45 92.82 5
11 -3 2 164.4 147.87 14
3 11 2 119.71 78.44 10
11 3 -2 180.38 170.83 5
-2 11 3 106.86 76.67 10
-2 11 3 77.32 77.61 16
11 -3 2 170.01 139.75 4
-11 3 2 292.85 143.84 3
-11 -2 3 24.68 171.01 9
2 -11 3 41.45 102.14 11
-11 3 2 160.71 176.58 9
2 11 -3 1.06 114.11 7
2 11 -3 50.04 78 15
11 -3 2 87.54 133.25 5
-11 2 -3 62.61 84.73 15
-11 -3 -2 49.11 122.76 3
-11 2 -3 89.85 62.31 9
-11 -3 -2 13.06 75.51 9
3 11 2 140.86 85.52 2
-3 -11 2 105.31 67.55 1
2 11 -3 89.52 81.88 4
-11 2 -3 137.09 79.36 3
-11 -2 3 33.31 47.36 8
11 -2 -3 189.74 96.74 4
-11 3 2 209.71 139.77 8
-11 -3 -2 16.28 53.41 1
-11 -3 -2 10.97 113.87 8
11 3 -2 180.57 181.49 4
-11 2 -3 99.27 93.5 8
2 11 -3 131.92 119.03 2
3 11 2 191.3 76.03 4
-3 11 -2 167.59 80.53 7
-3 11 -2 6.57 42.2 16
0 11 -3 8.61 54.18 16
-11 3 0 39.88 108.83 15
11 -3 0 54.17 38.07 14
0 11 3 68.34 68.06 7
11 3 0 19.9 66.11 2
0 -11 3 88.1 114.84 6
0 -11 -3 77.45 92.22 13
-3 11 0 97.76 172.97 10
-3 -11 0 76.43 29.18 13
11 3 0 23.33 89.31 4
-3 -11 0 13.16 64.49 6
0 11 -3 269.66 243.61 7
11 0 -3 11.19 82.38 12
3 -11 0 50.75 48.55 6
0 -11 3 92 163.57 11
3 11 0 51.48 88.46 2
0 11 -3 111 132.66 10
-3 -11 0 249.71 174.71 1
-11 3 0 76.91 111.05 3
11 0 -3 81.7 171.44 5
3 11 0 108.6 141.6 10
-11 -3 0 18.52 106.1 3
-3 11 0 70.43 78.62 16
11 -3 0 48.1 133.57 5
-3 -11 0 102.99 140.44 3
11 3 0 36.4 91.05 5
-11 0 3 109.65 129.1 9
11 0 3 47.22 42 4
0 11 3 11.45 117.51 15
-11 3 0 15.17 124.02 9
-11 -3 0 8.31 112.8 9
3 -11 0 15.36 96.51 12
0 11 -3 4.93 44.98 4
3 11 0 47.49 70.06 4
-11 0 -3 72.89 156.57 9
-11 0 -3 0.83 130.51 3
-11 0 3 41.91 17.56 8
-11 0 3 29.66 59 1
11 0 -3 91.86 133.77 4
0 11 -3 232.92 143.9 15
-11 3 0 169.63 180.62 8
-11 -3 0 7.47 174.69 8
-11 0 3 16.58 118.1 3
-11 0 -3 167.39 207.13 8
-3 11 0 52.61 24.33 7
11 -3 0 20.87 108.02 4
11 0 -3 26.9 118.8 2
-3 11 0 159.16 168.39 15
0 11 3 45.84 87.74 16
-11 3 0 12.6 86.94 16
11 2 -3 70.9 116.13 2
3 11 -2 280.37 161.51 2
-3 11 2 110.34 122.85 15
3 -11 2 230.91 132.35 6
-2 -11 3 203.51 188.78 11
-11 -3 2 105.37 113.03 6
2 -11 -3 31.98 96.76 13
-2 -11 3 300.23 159.65 3
-2 -11 3 236.98 177.07 1
-2 11 -3 203.81 183.58 16
11 -3 -2 74.89 123.75 13
-11 2 3 135.09 151.18 3
11 2 -3 220.52 143.97 12
11 -3 -2 274.48 217.52 12
-3 -11 -2 25.06 72.8 6
-11 3 -2 94.59 104.14 16
3 -11 2 194.16 111.75 11
-11 -3 2 173.91 191.13 3
-2 -11 3 125.02 161.41 6
11 -2 3 65.13 76.74 4
3 -11 2 120.17 95.07 14
3 11 -2 117.83 69.83 10
11 -3 -2 108.4 116.06 5
-3 11 2 94.38 132.59 10
11 -3 -2 190.18 98.71 2
2 11 3 189.54 172.76 10
11 3 2 9.87 110.77 4
3 11 -2 193.57 163.5 7
-11 2 3 201.83 144.94 16
-11 2 3 215.68 156.16 9
-11 -3 2 70.73 142.73 1
11 3 2 119.29 114.39 2
-2 11 -3 148.45 110.66 10
-11 -3 2 272.06 176.32 9
11 3 2 109.08 32.63 5
-3 -11 -2 35.66 96.9 1
-3 -11 -2 72.28 69.12 3
-11 3 -2 37.68 73.69 9
-2 11 -3 112.9 113.61 15
-11 3 -2 48.65 104.84 3
-11 -2 -3 110.84 124.66 3
-11 2 3 11.3 171.25 8
-11 -3 2 298.9 137.7 8
-11 3 -2 106.71 164.28 15
-11 2 3 255.65 161.25 1
11 -3 -2 91.33 52.61 4
-3 11 2 74.36 96.46 7
11 2 -3 162.84 53.74 4
3 11 -2 109.76 16.63 4
-11 3 -2 99.76 124.45 8
-11 -2 -3 33.87 153.44 8
-2 11 -3 187.97 143.99 7
2 11 3 25.22 120.98 16
-3 11 2 83.95 145.54 16
11 2 -3 173.61 43.88 5
-3 11 4 146.29 154.19 16
-11 4 3 266.28 153.98 16
3 11 -4 135.75 156.45 15
-4 11 -3 195.11 161.1 15
11 -3 -4 155.33 99.28 13
4 11 3 96.7 67.34 7
3 11 -4 39.53 41.42 10
3 11 -4 129.74 114.66 7
-11 4 3 310.32 221.34 15
3 -11 4 127.6 137.22 14
-11 -4 -3 56.65 121.87 1
-11 -3 4 249.96 198.63 1
-4 -11 3 119.87 162.39 6
4 11 3 96.15 50.78 4
4 -11 -3 194.2 158.25 13
-11 4 3 457.08 192.54 3
4 -11 -3 204.32 119.76 12
-11 -3 4 247.28 131.79 3
-4 -11 3 118.9 92.21 11
11 4 -3 143.69 136.41 12
-4 -11 3 108 154.79 1
-4 -11 3 45.5 132.51 3
3 -11 4 308.74 205.14 11
4 -11 -3 19.79 91.25 6
11 4 -3 383.15 198.33 7
-4 11 -3 36.65 83.31 7
-4 11 -3 231.65 163.92 10
-4 11 -3 101.46 131.09 9
11 -4 3 10.01 48.8 4
11 -3 -4 19.58 123.71 5
11 4 -3 303.29 168.51 5
11 4 -3 190.55 149.21 2
-4 -11 3 78.84 33.93 14
4 11 3 252.35 184.75 10
-3 11 4 197.9 178.67 10
-11 4 3 239.63 188.07 9
-4 11 -3 63 82.07 16
-3 11 4 95.06 140.23 15
11 -3 -4 241.83 126.39 4
3 11 -4 358.86 184.74 4
-11 -4 -3 17.08 117.26 3
-11 -3 4 341.55 170.41 9
-11 -3 4 184.83 217.53 8
-11 4 3 315.97 161.54 8
-11 -3 4 77.41 73.14 6
11 4 -3 261.36 172.11 4
11 -3 -4 244.85 182.76 12
-11 -4 -3 175.64 195.65 8
11 -3 -4 174.27 119.86 2
3 11 -4 169.53 138.22 2
4 11 1 142.56 29.17 4
1 11 -4 70.97 48.59 16
11 4 -1 94.45 80.81 7
1 11 -4 278.34 182.15 15
-4 11 -1 491.85 292.48 15
1 -11 4 469.08 245.07 6
-11 -1 4 699.44 281.48 1
4 -11 -1 191.72 134.85 13
1 -11 4 192.01 103.12 14
11 -4 1 307.68 136.63 14
11 4 -1 346.5 70.29 5
-11 -1 4 322.7 189.33 3
11 4 -1 436.59 202.05 2
4 11 1 130.92 178.3 7
-11 4 1 439.24 211.69 15
1 11 -4 395.49 175.13 10
1 11 -4 532.51 279.35 7
4 -11 -1 613.78 213.02 12
-11 -4 -1 112.73 79.72 6
1 -11 4 74.91 19.95 11
-11 4 1 176.36 58.36 3
-4 -11 1 318.65 149.14 3
-11 -4 -1 332.2 240.96 3
4 -11 -1 203.28 109.56 6
4 11 1 435.41 232.05 10
-4 -11 1 284.99 187.57 1
4 11 1 601.03 233.85 2
-4 11 -1 370.36 232.48 10
-1 11 4 374.51 242.96 10
-4 11 -1 230.84 126.58 16
-11 -1 4 186.29 88.71 9
-4 -11 1 286.22 159.79 14
11 -4 1 267.79 140.53 5
-11 4 1 302.81 181 9
-4 11 -1 224.65 63.1 9
11 -1 -4 343.54 182.25 4
-11 -1 4 530.37 278.23 8
-11 4 1 248.4 202.4 8
-11 -4 -1 98.57 133.3 1
-11 -4 -1 52.63 100.1 8
11 -1 -4 348.85 152.44 2
11 4 -1 265.96 145.97 4
-4 -11 1 299.99 214.98 6
-11 4 1 348.89 189.18 16
-11 4 -1 240.35 170.41 16
-1 11 -4 565.5 241.72 15
11 4 1 335.04 199.9 4
-1 -11 4 200.61 76.14 6
4 -11 1 449.31 173.54 6
-11 1 4 345.66 143.99 3
11 1 -4 317.32 131.96 2
4 11 -1 269.77 150.49 2
-11 -4 1 415.23 227.84 6
11 1 -4 290.99 104.14 12
-4 -11 -1 141.81 126.46 6
-4 11 1 402.38 209.15 16
11 4 1 324.64 186.69 2
-4 -11 -1 47.09 73.65 3
-1 11 -4 160.83 112.63 10
11 1 -4 445.65 238.17 5
-11 -4 1 390.99 215.32 3
4 11 -1 288.72 208.31 10
-4 11 1 133.81 128.73 10
11 -4 -1 463.24 215.04 5
-11 4 -1 132.74 56.22 3
-4 11 1 621.06 261.4 9
11 4 1 195.58 124.19 5
-11 -4 1 279.08 132.57 9
-11 4 -1 478.9 278.49 9
-1 -11 4 535.59 216.13 1
-11 -4 1 212.83 32.6 1
-11 1 4 297.41 175.15 1
-4 -11 -1 1.29 97.94 1
4 -11 1 286.84 200.03 11
11 1 -4 365.96 161.13 4
4 11 -1 265.41 120.11 7
-11 -4 1 174.05 107.92 8
-11 4 -1 214.45 108.06 8
4 11 -1 387.59 193.86 4
-1 11 -4 343.58 181.87 7
-11 4 -1 109.01 33.18 15
-1 -11 4 376.45 207.96 11
-4 11 1 463.64 224.06 15
11 4 1 343.69 197.74 7
-1 -11 4 333.27 228.44 14
-11 4 -3 29.25 97.27 16
-11 -4 3 75.77 98.71 6
4 11 -3 119.62 120.52 7
11 4 3 184.51 36.46 4
-3 11 -4 36.99 17.32 15
4 -11 3 213.86 172.26 6
-11 3 4 167.28 79.31 15
11 3 -4 187.74 99.55 7
-11 3 4 173.5 102.04 16
-3 -11 4 157.99 205.19 6
-11 3 4 48.14 90.51 3
-3 -11 4 220.7 142.21 3
-11 -4 3 148 125.04 1
3 -11 -4 14.81 119.87 13
11 -4 -3 65.85 17.62 13
11 -4 -3 323.16 216.66 12
-11 -4 3 101.14 105.73 3
-3 -11 4 17.29 89.03 11
4 -11 3 270.3 250.75 14
4 -11 3 275.44 182 11
-4 -11 -3 139.68 137.02 6
-3 11 -4 58.72 62.82 10
4 11 -3 149.86 28.82 10
11 -4 -3 183.99 235.91 5
11 3 -4 341.77 264.16 5
-11 3 4 138.8 125.6 9
-11 -4 3 207.75 177.05 9
-11 4 -3 62.06 61.43 15
-3 11 -4 243.44 207.62 16
-11 4 -3 163.69 182.62 9
11 -4 -3 352.59 143.46 4
-4 -11 -3 72.85 36.33 3
11 4 3 278.48 218.54 2
-11 3 4 0.49 89.27 8
-11 3 4 299.38 164.4 1
-11 4 -3 108.47 104.01 3
-11 -4 3 319.06 233.09 8
11 3 -4 301.48 224.87 4
4 11 -3 55.72 32.01 4
11 3 -4 247.07 189.57 12
-11 4 -3 33.2 51.78 8
-3 11 -4 430.76 197.79 7
-4 11 3 20.87 69.9 16
11 3 -4 217.8 201.77 2
4 11 -3 135.77 38.52 2
-3 -11 4 232.69 132.81 1
4 11 -5 255.57 136.22 15
-5 11 -4 372.48 242.05 15
-11 -4 5 538.65 277.65 1
-11 5 4 278.15 186.23 15
4 11 -5 379.66 187.62 7
-5 -11 4 512.19 256.21 1
4 -11 5 548.14 279.77 11
-5 -11 4 317.9 136.79 3
-5 -11 4 483.08 262.97 11
11 -4 -5 316.7 179.97 5
4 11 -5 354.67 183.76 10
11 5 -4 685.66 266.86 7
-5 11 -4 392.48 205.34 10
11 5 -4 707.02 312.75 5
-5 -11 4 685.26 333.55 6
-11 -4 5 593.35 265.57 9
-11 5 4 505.13 280.15 9
-5 11 -4 273.87 208.88 16
4 11 -5 613.64 277.39 4
-11 -4 5 424.56 208.88 8
-11 5 4 540.17 287.94 8
4 -11 5 317.32 186.81 14
11 -4 -5 553.09 209.52 2
4 11 -5 687.1 288.68 2
-11 -4 5 388.66 174.72 3
-5 11 -4 536.55 203.61 7
11 5 -4 738.76 305.24 2
11 -4 -5 751 301.45 12
-11 5 4 367.78 150.12 16
-11 -4 5 345.54 207.76 6
5 11 2 894.78 294 7
5 -11 -2 1153.32 332.44 12
-11 5 2 879.42 285.46 15
-5 -11 2 1029.21 335.12 3
11 -5 2 836.62 298.75 14
11 5 -2 924.91 275.19 2
-11 5 2 1238.87 278.61 3
5 -11 -2 750.57 273.89 13
11 -2 -5 1175.84 393.39 12
11 5 -2 1189.82 309.78 12
5 -11 -2 784.84 201.58 6
2 -11 5 1178.41 389.06 11
-11 -5 -2 143.44 102.97 6
-5 -11 2 928.33 301.76 11
11 -2 -5 954.88 364.94 5
2 11 -5 832.93 308.11 10
-5 11 -2 686.75 258.86 15
-5 11 -2 816.86 297.65 10
11 5 -2 834.77 269.56 7
5 11 2 812.99 266.07 4
11 5 -2 1051.93 346.69 5
5 11 2 810.35 279.92 10
-11 -5 -2 100.58 117.94 1
-5 -11 2 914.62 367.19 6
-11 5 2 731.52 282.26 9
11 -5 2 782.57 266.59 5
-5 -11 2 1201.18 359.41 1
5 11 2 670.61 268.47 2
-11 -5 -2 309.95 253.9 3
-5 11 -2 689.99 249.57 9
-11 5 2 1194.38 342.72 8
2 11 -5 816.8 274.39 2
11 -2 -5 969.31 292 2
-11 -5 -2 200.86 125.05 8
-11 -2 5 893.02 315.88 3
2 11 -5 826.07 300.2 7
-11 5 2 1024.85 320.35 16
-5 11 -2 784.69 292.46 16
0 11 -5 1335.92 366.78 15
-5 11 0 1668.54 451.75 15
-11 0 5 1840.84 430.1 3
11 -5 0 1538.73 382.89 14
5 11 0 1819.73 453.9 7
-5 11 0 1925.05 467.72 16
11 0 -5 1540.33 423.58 12
-5 -11 0 1071.76 386.33 6
5 -11 0 1747.18 367.44 12
0 -11 5 1707.58 448.72 11
5 11 0 1592.01 394.08 2
5 -11 0 1975.24 384.46 6
-5 -11 0 1057.64 311.01 1
0 11 -5 1180.86 423.36 10
11 0 -5 2028.65 489.96 5
-11 5 0 1398.33 358.21 15
-5 11 0 1610.35 438.85 10
-5 -11 0 1295.67 367.14 3
5 11 0 1830.97 451.29 10
-11 -5 0 1219.94 341.44 3
11 -5 0 1957.37 478.61 5
-11 0 5 1472.09 377.75 9
11 5 0 1881.67 450.99 5
-5 11 0 1853.37 390.15 9
-11 5 0 1611.67 433.77 9
-11 -5 0 997.42 293.81 9
11 0 -5 1840.68 423.98 4
-11 0 5 1606.95 436.25 8
-11 5 0 1425.29 394.55 8
-11 -5 0 1600.93 419.71 8
11 0 -5 2123.26 491.85 2
0 11 -5 1712.22 440.2 7
11 5 0 1695.77 451.31 4
-11 0 5 1052.48 316.47 1
5 11 0 2030.57 444.68 4
-11 5 0 1593.53 399.93 16
0 -11 5 1693.99 438.25 6
11 5 0 1516.6 364.8 7
-11 5 -2 681.85 279.31 16
-2 11 -5 620.77 266 15
11 5 2 773.9 307.36 4
-5 11 2 1214.43 390.23 16
-2 -11 5 978.32 359.47 6
-11 5 -2 554.41 238.42 15
5 -11 2 714.34 225.83 6
5 -11 2 659.28 294.49 14
11 -5 -2 821.06 224.93 13
-5 -11 -2 201.79 161.73 1
11 -5 -2 1012.77 339.93 12
-5 -11 -2 343.1 143.89 6
-2 -11 5 1074.79 380.85 11
5 11 -2 976.78 379.87 7
-11 -5 2 1058.34 338.82 3
-2 11 -5 705.58 402.55 10
11 2 -5 1002.37 345.57 5
5 11 -2 951.34 335.55 10
-5 11 2 1079.43 327.87 15
11 -5 -2 1313.05 377.8 5
-11 2 5 1376.75 412.76 9
11 5 2 784.46 270.22 2
-5 11 2 1473.3 370.75 9
-11 -5 2 988.53 283.37 9
-5 -11 -2 360.69 177.71 3
11 5 2 837.24 310.98 5
-11 -5 2 961.75 308.38 1
-11 5 -2 532 180.92 3
-11 2 5 1131.58 368.96 8
-11 -5 2 806.48 282.84 6
11 2 -5 1215.02 385.76 4
-11 -5 2 738.63 255.41 8
-5 11 2 867.78 285.56 10
-2 -11 5 783.55 262.86 1
5 11 -2 1111.63 336.91 2
5 11 -2 1238.35 338.06 4
-11 2 5 773.2 312.51 1
-11 5 -2 307.99 176.86 8
11 5 2 550.68 239.56 7
-2 11 -5 935.93 321.47 7
11 2 -5 901.36 234.67 7
-11 2 5 1075.24 299.29 16
-11 5 -4 175.34 153.83 15
-11 -5 4 609.39 284.77 3
-4 -11 5 401.49 256.93 6
-4 -11 5 412.07 194.12 3
5 -11 4 426.18 241.59 14
-11 -5 4 644.23 315.48 1
11 -5 -4 445.93 193.09 13
-4 -11 5 355.13 176.73 11
5 -11 4 596.15 273.21 11
11 -5 -4 550.83 254.64 5
11 4 -5 445.83 207.36 5
5 11 -4 494.62 237.55 10
-5 11 4 412.86 254.38 16
-5 11 4 496.49 238.51 9
-11 4 5 307.25 187.51 9
-4 11 -5 471.45 217.35 10
-11 -5 4 603.61 223.28 9
-4 11 -5 443.37 224.59 16
5 11 -4 460.2 228.69 7
-11 5 -4 19.51 112 9
11 -5 -4 524.62 260.1 12
-11 4 5 440.05 247.63 8
11 4 -5 641.2 308.95 4
-11 -5 4 728.95 357.14 8
5 11 -4 765.76 310.95 4
-11 -5 4 557.98 264.48 6
11 4 -5 684.45 278.47 2
11 4 -5 411.3 204.65 7
-11 4 5 500.15 207.01 16
-4 11 -5 487.43 253.9 15
5 11 -4 672.45 291.52 2
-4 -11 5 463.48 191.55 1
-6 -11 5 815.47 343.41 1
6 -11 -5 488.32 266.95 13
11 -5 -6 670.49 293.64 12
-6 -11 5 513.79 195.34 11
-11 6 5 639.01 284.79 15
11 6 -5 982.81 373.2 5
5 11 -6 706.99 281.44 10
-11 -5 6 646.11 236.08 9
-11 -5 6 604.93 281.6 1
-6 -11 5 585.81 185.02 8
-11 -5 6 674.33 268.26 8
-11 6 5 682.23 239.7 8
11 6 -5 913.41 361.84 4
-6 -11 5 451.07 243.94 3
5 11 -6 683.94 266.33 2
-6 -11 5 729.35 322.58 6
5 11 -6 574.4 306.13 7
11 6 -5 772.3 326.63 7
11 6 -5 583.13 266.09 2
11 6 -3 19.69 156.1 2
6 11 3 142.11 139.22 7
-11 6 3 49.04 160.4 15
11 -6 3 116.52 82.72 14
-11 -3 6 43.15 71.26 3
-6 -11 3 111.53 152.24 6
6 -11 -3 13.96 151.76 13
-11 -6 -3 72.91 92.7 1
11 -3 -6 75.83 56.52 12
6 -11 -3 42.63 52.93 12
11 6 -3 118.96 110.41 12
6 -11 -3 87.39 124.01 6
-6 -11 3 28.91 115.77 11
11 -3 -6 152.63 115.18 5
3 11 -6 58 72.29 10
-6 -11 3 39.04 60.73 3
-6 -11 3 151.19 146.08 1
-6 11 -3 102.72 97.66 10
-6 11 -3 106.83 148.69 15
11 6 -3 90.92 196.2 5
-11 6 3 27.32 113.27 9
6 11 3 56.59 153.72 4
11 -6 3 44.5 42.82 5
-6 11 -3 63.04 78.88 9
-11 -3 6 107.65 136.17 8
-11 6 3 8.85 123.7 8
11 6 -3 209.37 198.51 4
-11 6 3 199 171.16 16
-11 -3 6 41.57 97.27 9
3 11 -6 62.04 152.87 7
-11 -3 6 77.07 135.59 1
-6 11 -3 152.02 166.08 16
11 6 -3 58.52 54.23 7
11 6 -1 130.53 137.2 7
-6 -11 1 392.22 248.47 1
6 11 1 469.86 300.85 7
-6 11 -1 126.07 100.89 15
11 -6 1 173.68 63.18 14
6 -11 -1 434.94 316.66 13
-6 -11 1 124.45 188.67 6
11 6 -1 300.27 211.52 2
6 11 1 155.84 113.19 4
6 -11 -1 284.55 221.23 12
11 -1 -6 68.72 126.38 5
-6 -11 1 384.75 269.77 3
6 11 1 250.47 158.9 2
6 11 1 312.18 216.52 10
11 6 -1 198.7 177.4 5
-11 -1 6 20.7 38.39 9
-6 11 -1 415.13 161.96 10
-11 6 1 195.77 214.6 15
-11 -6 -1 255.15 248.01 3
11 -6 1 216.29 160.04 5
6 11 1 231.33 138.07 5
-11 6 1 46.06 153.36 9
-11 -6 -1 364.53 231.51 6
-6 11 -1 96.14 163.09 9
-11 -1 6 180.54 182.99 8
-11 -6 -1 323.58 244.77 1
11 -1 -6 226.29 166.9 2
-11 6 1 127.38 133.67 8
-11 -1 6 153.81 154.1 1
-11 -6 -1 111.56 116.89 8
11 6 -1 68.31 89.61 4
-11 6 1 249.66 120.09 16
-6 11 -1 270.69 191.31 16
11 6 1 7.71 105.1 4
-11 -6 1 438.12 240.41 1
-6 -11 -1 19.75 86.93 1
-6 11 1 73.08 58.36 10
-6 11 1 191.06 129.84 15
6 -11 1 470.97 315.26 14
6 11 -1 122.55 104.63 7
-11 -6 1 356.87 212.89 6
-11 6 -1 337.33 236.77 16
-11 6 -1 366.06 204.07 15
-6 -11 -1 262.89 266.22 6
11 -6 -1 170.02 192.52 12
6 11 -1 286.36 151.83 10
6 -11 1 122.47 90.42 11
11 6 1 256.19 179.46 2
-11 -6 1 158.1 125.61 3
11 6 1 325.42 215.91 7
11 1 -6 96.6 62.47 5
6 11 -1 239.6 106.13 5
11 -6 -1 312.96 195.76 5
-11 1 6 297.31 206.38 9
-6 -11 -1 15.85 88.37 3
11 6 1 389.4 231.19 5
-6 11 1 390.46 203.63 9
-11 6 -1 5.63 161.25 9
-11 1 6 267.89 185.42 8
-11 1 6 38.66 116.24 1
11 1 -6 30.48 91.69 2
-11 -6 1 343.58 235.57 8
6 11 -1 18.74 65.65 2
-11 6 -1 274.46 172.13 8
6 11 -1 238.79 180.59 4
-11 6 -3 35.7 169.62 15
-6 11 3 72.08 106.22 15
6 -11 3 74.35 185.59 14
-11 -6 3 69.21 120.24 6
11 -6 -3 142.33 164.68 13
-11 -6 3 12.94 106.26 3
11 -6 -3 140.06 147.84 12
6 -11 3 60.52 38.51 11
-6 -11 -3 16.39 111.39 6
6 11 -3 73.12 171.04 2
11 3 -6 77.82 133.64 5
-11 6 -3 28.69 122.35 16
11 -6 -3 17.16 55.65 5
6 11 -3 48.78 70.17 10
-6 11 3 101.43 232.26 16
-11 -6 3 26.12 85.79 1
-6 11 3 8.23 127.32 10
-11 3 6 18.68 45.78 9
6 11 -3 40.61 108.6 5
-6 11 3 66.65 96.65 9
-3 -11 6 55.6 80.65 6
-11 6 -3 196.18 195.62 9
11 6 3 29.44 141.42 2
11 3 -6 48.06 98.61 4
-6 -11 -3 211.51 234.39 3
-11 3 6 154.41 167.29 8
-11 -6 3 62.57 86.2 8
6 11 -3 8.69 103.26 4
11 3 -6 63.2 64.43 2
-11 6 -3 52.46 68.19 8
11 3 -6 20.02 46.83 7
11 6 3 238.64 208.64 4
6 11 -3 45.81 60.84 7
-5 -11 6 599.7 261.02 6
-6 11 5 403.95 222.74 15
-11 -6 5 872.73 292.11 6
-11 -6 5 552.11 286.58 1
11 -6 -5 491.19 259.34 13
-11 -6 5 656.65 334.76 3
11 -6 -5 537.22 321.05 12
11 -6 -5 601.08 235.55 5
11 5 -6 705.31 268.59 5
6 11 -5 827.01 335.81 10
-6 11 5 812.37 333.12 9
-11 5 6 683.1 321.3 9
-11 -6 5 654.08 227.01 9
-11 5 6 507.16 240.47 8
11 5 -6 499.11 220.75 4
6 11 -5 695.74 269.93 7
6 11 -5 351.76 208.96 4
-11 -6 5 431.5 218.8 8
11 -6 -5 670.42 229 2
11 5 -6 702.42 320.93 2
-5 -11 6 524.35 211.89 1
11 5 -6 587.39 215.49 7
6 11 -5 604.82 273.87 2
-6 11 5 458.82 251.34 16
-11 7 6 243.75 104.54 16
-7 -11 6 323.85 218.14 1
-7 -11 6 349.71 228.75 6
-11 -6 7 179.38 22.9 3
11 7 -6 225.68 149.49 5
11 7 -6 386.81 181.44 10
-11 7 6 394.89 124.45 9
-7 -11 6 158.75 139.26 3
-11 7 6 327.36 212.04 8
-7 -11 6 266.92 102.08 8
-11 -6 7 443.63 262.97 8
11 7 -6 180.72 78.58 4
11 7 -6 489.47 194.13 2
6 11 -7 313.42 162.77 7
-11 -6 7 269.1 213.97 1
11 7 -6 240.91 194.69 7
-7 11 -4 317.96 278.3 16
11 7 -4 201.13 258.02 2
-7 11 -4 340.64 273.64 15
-7 -11 4 116.16 100.74 6
-11 7 4 46.72 108.05 15
11 -7 4 43.86 121.03 14
7 -11 -4 312.27 245.18 13
7 -11 -4 195.03 147.41 12
-7 -11 4 64.2 123.44 3
-7 -11 4 107.8 165.46 1
-7 -11 4 47.83 65.26 11
-7 11 -4 25.29 140.64 10
11 7 -4 171.06 170.55 5
-11 7 4 154.76 203.5 9
-7 11 -4 87.46 180.67 9
-11 7 4 113.97 124.93 8
-7 -11 4 78.18 90.14 8
11 7 -4 264.06 272.47 4
-11 7 4 175.37 141.36 16
11 7 -4 302.79 262.46 7
7 11 2 374.38 228.44 4
-7 11 -2 395.3 246.73 15
11 7 -2 140.91 173.05 7
11 -7 2 89.6 142.38 14
11 7 -2 522.29 261.65 2
-11 7 2 496.34 234.92 15
7 -11 -2 376.08 128.6 13
7 -11 -2 109.35 129.78 12
11 7 -2 418.45 192.19 12
-11 -7 -2 146.52 71.81 6
-7 11 -2 8.58 205.79 16
-7 -11 2 513.03 216.72 3
-7 -11 2 375.06 225.86 11
-11 -7 -2 214.43 66.8 1
-7 11 -2 306.79 149.88 10
11 7 -2 467.1 217.62 5
7 11 2 299.64 168.89 10
7 11 2 241.25 145 7
-11 7 2 569.18 277.37 9
7 11 2 291.43 246.52 2
11 -7 2 308.1 196.91 5
-11 -7 -2 56.38 172.79 3
7 11 2 425.7 186.11 5
-7 11 -2 320 169.11 9
-7 -11 2 357.51 214.93 1
-11 7 2 664.21 275.54 8
-7 -11 2 202.69 131.23 8
-7 -11 2 440.83 243.26 6
-11 -7 -2 166.86 181.26 8
11 7 -2 345.1 92.98 4
-11 7 2 780.02 306.23 16
7 11 0 2007.53 505.56 7
-7 -11 0 1180.49 415.97 6
-11 7 0 1582.82 413.38 15
11 -7 0 1858.48 473.13 14
-11 -7 0 1008.36 268.04 6
11 -7 0 2223.07 405.61 11
-11 -7 0 1146.52 382.7 1
7 11 0 2068.31 462.03 2
-7 -11 0 972.25 316.95 1
7 11 0 1935.48 474.79 4
-7 -11 0 1101.78 332.06 3
7 11 0 2205.23 498.5 10
11 -7 0 2119.65 463.23 5
11 7 0 2343.42 515.56 5
-11 7 0 1818.35 427.68 8
-7 -11 0 716.06 267.87 8
-11 7 0 1722.62 450.41 16
11 7 0 2143.17 543.61 4
11 7 2 516.25 247.28 7
-7 11 2 569.58 315.28 15
-11 7 -2 180.32 101.09 15
7 -11 2 411.41 183.25 14
7 11 -2 211.99 34.23 2
-11 -7 2 429.42 232.67 6
-11 7 -2 113.9 156.73 16
11 -7 -2 120.53 252.9 13
11 -7 -2 358.69 160.66 12
-7 -11 -2 145.68 222.92 6
7 -11 2 393.87 212.12 11
-11 -7 2 99.43 148.27 3
-11 7 -2 255.93 142.42 10
7 11 -2 567.65 190.89 5
7 11 -2 525.08 182.92 10
11 -7 -2 215.28 73.13 5
-7 11 2 663.67 260.26 10
11 7 2 443.17 234.93 2
-7 11 2 625.32 294.68 9
-7 -11 -2 24.05 79.02 3
11 7 2 413.36 192.61 5
-11 -7 2 18 118.76 1
-11 -7 2 304.43 228.92 8
7 11 -2 553.21 247.68 4
-11 7 -2 192.34 140.14 8
-7 -11 -2 106.62 80.02 1
11 7 2 631.02 298.21 4
7 11 -2 312.82 158.65 7
7 11 -4 10.61 134.75 2
7 -11 4 188.71 193.14 14
-11 7 -4 115.25 174 16
7 11 -4 43.68 35.79 5
-7 11 4 55.21 125.69 15
-11 -7 4 157.53 161.47 6
11 -7 -4 161.08 231.94 13
-7 11 4 159.41 176.05 16
7 11 -4 338.04 277.35 7
11 -7 -4 384.77 289.71 12
7 -11 4 53.93 88.02 11
-11 -7 4 89.41 67.27 1
11 -7 -4 68.07 104.14 5
7 11 -4 214.47 164.54 10
-11 -7 4 116.41 202.49 3
-7 11 4 154.27 151.89 10
-7 11 4 65.94 201.46 9
-11 7 -4 84.36 84.85 15
-11 7 -4 225.39 160.1 9
-11 -7 4 56.8 88.63 8
7 11 -4 77.45 173.03 4
-11 -7 6 383.53 162.45 1
-6 -11 7 274.55 201.7 6
-11 -7 6 366.42 190.91 6
11 -7 -6 235.66 121.16 12
-11 -7 6 427.66 264.83 3
7 11 -6 66.67 128 10
-11 -7 6 170.46 18.82 9
7 11 -6 476.24 279.46 7
11 6 -7 456.32 309.8 4
7 11 -6 268.25 164.24 4
-11 -7 6 276.18 173.8 8
11 6 -7 284.31 171.32 2
7 11 -6 155.32 219.51 2
11 6 -7 300.58 148 7
-8 -11 7 75.39 164.46 6
-8 -11 7 32.68 92.37 3
11 8 -7 121.02 141.94 4
-8 -11 7 112.56 108.9 8
11 8 -7 94.31 140.04 2
11 8 -7 182.24 89.57 7
-8 -11 7 57.95 65.29 1
-8 11 -5 826.16 343.94 15
8 -11 -5 483.33 263.39 13
-8 -11 5 1087.32 408.04 1
-8 -11 5 1253.42 422.43 3
8 -11 -5 908.28 334.76 12
-8 -11 5 875.45 326.63 11
11 8 -5 946.61 280.46 10
-11 8 5 1044.15 354.71 9
-8 -11 5 503.66 225.17 6
-11 8 5 1099.3 345.52 8
-8 -11 5 1266.01 360.02 8
11 8 -5 1214.8 391.6 4
-11 8 5 504.06 210.94 15
-11 8 5 926.01 370.93 16
-8 11 -5 605.76 314.57 16
11 8 -5 936.74 330.84 7
11 8 -5 1407.96 471.79 2
-8 11 -3 295.9 199.97 16
8 -11 -3 54.12 69.92 12
-11 8 3 110.34 156.25 15
-8 11 -3 270.8 195.17 15
-8 -11 3 78.88 138.47 6
8 -11 -3 94.34 244.81 13
-8 -11 3 75.7 111.76 3
-11 -8 -3 114.47 138.12 6
-8 -11 3 69.51 75.28 11
-8 11 -3 35.89 82.24 10
11 8 -3 217.97 155.08 5
-8 -11 3 302.51 195.21 1
-11 8 3 108.76 105.38 10
-11 8 3 78.18 114.13 9
-11 8 3 29.36 75.92 16
11 -8 3 175.51 159.88 5
-11 -8 -3 197.11 256.56 3
-8 11 -3 16.68 83.22 9
8 11 3 26.89 112.67 2
-11 8 3 42.75 70.97 8
-8 -11 3 119.66 78.72 8
-11 -8 -3 201.68 194.7 1
8 11 3 12.69 91.63 7
11 8 -3 372.85 233.07 4
11 8 -3 96.08 196.13 2
11 -8 3 28.68 161.22 14
11 8 -3 50.28 9.75 7
-11 8 1 580.51 308.22 15
-8 -11 1 30.65 138.02 1
8 11 1 19.75 61.01 7
11 -8 1 272.43 169.11 14
-8 -11 1 117.26 183.1 6
8 -11 -1 491.35 287.91 12
-11 -8 -1 47.35 33.37 6
11 -8 1 132.33 145.84 11
8 -11 -1 292.58 246.82 13
-8 -11 1 1.79 95.97 3
-8 11 -1 224.63 198.08 10
8 11 1 54.68 154.95 2
-11 8 1 91.52 167.84 10
8 11 1 54.93 116.3 10
-11 -8 -1 241.68 204.34 3
11 -8 1 39.65 114.98 5
8 11 1 46.72 82.71 5
-11 8 1 79.49 161.49 9
-8 11 -1 383.15 319.82 9
-11 8 1 92.32 123.47 8
-11 -8 -1 51.86 171.84 1
-8 -11 1 10.37 53.26 8
-11 -8 -1 137.7 234.06 8
-11 8 1 397.24 208.17 16
-8 11 -1 293.58 217.14 16
8 11 1 88.43 107.92 4
11 8 1 207.29 179.25 4
8 11 -1 252.08 218.33 7
-11 8 -1 187.23 199.86 15
8 -11 1 353.18 294.93 14
8 11 -1 321.47 218.9 2
-8 -11 -1 17.52 53.77 6
11 -8 -1 8.86 18.55 12
8 -11 1 201.17 210.4 11
11 -8 -1 265.89 187.67 11
11 8 1 61.02 158.1 7
-11 8 -1 111.26 99.24 10
8 11 -1 57.97 68.69 10
-8 11 1 563.7 286.45 10
11 -8 -1 154.84 168.08 5
8 11 -1 101.7 38.78 5
-8 -11 -1 8.27 129.76 3
11 8 1 97.64 155.3 5
-8 11 1 51.38 55.55 9
-11 8 -1 431.67 296.85 9
-8 11 1 210.35 289.87 15
-11 8 -1 98.35 127.24 16
-11 8 -1 251.64 200.18 8
-8 -11 -1 75.68 102.56 8
8 11 -1 117.21 133.31 4
-8 -11 -1 222.61 203.35 1
11 8 1 132.92 196.33 2
-8 11 1 266.02 279.24 16
-11 8 -3 47.74 127.14 16
-11 8 -3 348.76 214.26 15
11 8 3 49.52 91.96 4
11 -8 -3 312.95 247.27 13
-8 11 3 230.84 180.34 15
8 -11 3 167.76 132.72 14
-11 -8 3 25.3 143.77 6
-8 -11 -3 200.68 176.29 1
8 11 -3 64.41 87.74 2
-11 -8 3 33.86 113.45 11
8 -11 3 28.15 115.68 11
-8 -11 -3 145.2 195.12 6
-11 -8 3 99.78 134.75 3
-11 8 -3 336.74 172.06 10
11 -8 -3 34.97 84.73 5
8 11 -3 91.14 146.8 5
8 11 -3 78.71 120.64 10
-8 11 3 65.68 103.5 10
-11 -8 3 89.97 127.14 1
-8 11 3 132.07 181.14 9
8 -11 3 91.82 33.95 5
-11 8 -3 185.7 178.97 9
-8 -11 -3 299.11 191.97 3
11 8 3 240.42 170.21 2
-11 -8 3 86.78 80.42 8
8 11 -3 61.62 91.55 4
11 -8 -3 75.83 120.22 12
-8 11 3 264.8 212.55 16
8 11 -3 52.92 132.1 7
-8 11 5 923.7 360.83 15
8 -11 5 835.86 384.02 14
-11 -8 5 920.82 347.41 6
8 11 -5 664.66 319.5 2
11 -8 -5 591.33 324.01 13
-11 -8 5 1131.53 424.98 1
-11 -8 5 1180.15 445.61 3
8 11 -5 860.9 358.89 7
11 -8 -5 916.02 358.16 12
8 11 -5 1065.58 382.75 10
-8 11 5 828.44 319.11 9
-8 11 5 976.61 266.34 8
-11 -8 5 1110.66 366.81 8
8 11 -5 912.39 364.08 4
-8 11 5 1067.01 391.3 16
-11 -8 7 117.44 153.31 1
-11 -8 7 190.76 251.86 3
8 11 -7 120.34 174.85 10
8 11 -7 138.65 80.24 4
-11 -8 7 247.55 189.16 8
8 11 -7 191.03 147.23 2
8 11 -7 240.93 201.72 7
-9 -11 6 178.8 179.01 1
9 -11 -6 24.11 60.81 13
-9 -11 6 281.79 192.92 3
11 9 -6 173.66 100.69 2
11 9 -6 78.77 169.86 5
11 9 -6 17.87 60.97 10
-11 9 6 199.99 162.52 16
-11 9 6 121.98 59.74 9
-11 9 6 86.04 113.85 8
-9 -11 6 81.4 57.22 8
11 9 -6 41.12 75.62 7
-11 9 4 390.1 242.41 15
11 -9 4 306.02 126.3 14
-9 11 -4 202.5 144.98 15
-9 -11 4 108.19 38.33 6
-9 -11 4 418.04 302.79 3
11 9 -4 462.69 195.07 2
-9 -11 4 363.37 137.88 11
-9 -11 4 315.25 187.03 1
-9 11 -4 264.86 181.44 10
11 9 -4 306.62 205.04 5
11 9 -4 98.9 73.34 10
-11 9 4 181.62 145.19 9
-9 11 -4 146.26 101.09 9
9 -11 -4 260.22 160.86 12
-11 9 4 562.01 268 8
-9 -11 4 194.75 164.38 8
11 9 -4 370.5 202.26 4
9 -11 -4 522.5 291.16 13
-11 9 4 202.23 258.38 16
11 9 -4 346.58 179.82 7
-9 11 -4 253.18 265.77 16
11 9 -2 211.55 126.54 7
9 11 2 104 96.34 4
-9 11 -2 421.51 281.21 15
9 11 2 6.79 163.5 7
-11 9 2 105.19 201.17 15
11 -9 2 246.94 262.66 14
9 -11 -2 96.12 72.05 13
-11 -9 -2 228.1 232.66 6
11 -9 2 7.43 39.64 11
-9 -11 2 105.61 236.35 3
9 -11 -2 41.39 46.48 5
-9 11 -2 4 117.95 10
-11 -9 -2 73.13 132.83 1
11 9 -2 100.32 109.46 10
11 9 -2 35.56 53.36 5
-11 9 2 188.64 174.23 10
-9 -11 2 37.78 145.41 11
9 11 2 293.55 174.79 10
9 11 2 65.94 253.74 2
11 -9 2 7.53 73.63 5
-11 9 2 223.4 268.48 9
-11 -9 -2 89.9 125.62 3
9 11 2 62.64 112.76 5
-9 11 -2 20.53 144.21 9
-11 9 2 159.19 172.24 8
-9 -11 2 129.9 159 8
11 9 -2 157.38 171.2 2
-9 -11 2 115.52 89.77 1
11 9 -2 30.05 57.38 4
-11 -9 -2 8.82 77.2 8
-9 -11 2 204.02 205.22 6
9 -11 -2 130.7 147.19 12
-11 9 2 98.84 188.62 16
-9 11 -2 51.69 168.1 16
-11 9 0 255.71 154.89 15
-9 11 0 248.06 167.04 15
11 -9 0 304.54 227.86 14
-9 -11 0 28.07 52.78 6
-11 -9 0 247.66 147.37 6
9 -11 0 445.09 194.22 12
11 -9 0 455.91 161.88 11
11 9 0 242.94 71.35 2
9 11 0 392.47 224.32 2
9 -11 0 280.68 197.04 11
-11 9 0 408.51 162.19 10
-11 -9 0 343.35 197.01 1
-11 9 0 193.56 83.27 16
-9 -11 0 41.63 195.66 1
-9 11 0 305.03 54.78 10
-9 -11 0 389.21 263.48 3
9 -11 0 343.96 131.85 5
-11 -9 0 155.75 69.15 3
9 11 0 490.86 215.19 10
11 -9 0 459.1 207.73 5
11 9 0 293.33 152.79 10
9 11 0 283.03 126.99 5
11 9 0 432.37 238.22 5
9 11 0 245.65 193.01 4
-9 11 0 179.69 184.52 9
-11 9 0 284.15 184.29 9
-11 9 0 201.44 100.66 8
-11 -9 0 200.3 200.52 8
-9 -11 0 38.73 122.81 8
11 9 0 150.74 225.2 4
9 11 0 363.93 244 7
-9 11 0 363.21 280.81 16
-11 9 -2 15.48 141.03 16
-11 9 -2 398.81 287.6 15
9 11 -2 87.86 22.43 7
11 9 2 23.8 124.28 7
-9 11 2 301.11 225.16 16
-9 11 2 222.35 207.9 15
9 -11 2 78.38 190 14
9 11 -2 283.43 223.03 2
11 9 2 295.64 246.84 4
-11 -9 2 238.87 138.66 6
11 -9 -2 48.64 160.01 13
11 -9 -2 194.61 206.15 12
-9 -11 -2 392.99 291.2 6
9 -11 2 55.21 155.92 11
-11 -9 2 13.55 41.95 11
-11 -9 2 184.16 201.34 3
-11 9 -2 76.71 76.25 10
11 -9 -2 149.02 144.17 5
9 11 -2 34.44 89.5 10
9 11 -2 125.53 139.69 5
-9 11 2 6.51 43.68 10
11 9 2 40.46 105.34 2
9 -11 2 7.1 93.34 5
-9 11 2 49.21 141.59 9
-9 -11 -2 302.39 308.46 3
11 9 2 41.75 108.85 5
-11 9 -2 155.28 242.84 9
-9 -11 -2 36.33 70.46 1
-9 11 2 95.88 131.53 8
-11 -9 2 77.84 208.67 8
-11 -9 2 77.3 135.5 1
9 11 -2 61.11 113.82 4
-11 9 -2 210.28 97.27 8
-11 9 -4 252.09 230.07 16
-11 9 -4 311.47 207.41 15
9 11 -4 315.33 248.29 2
9 -11 4 489.49 307.91 14
-9 11 4 341.22 268.64 15
-11 -9 4 305.02 245.5 6
11 -9 -4 426.7 229.5 13
11 -9 -4 262.35 212.4 12
-11 -9 4 516.11 322.3 3
9 -11 4 277.95 239.58 11
-11 -9 4 190.18 152.96 11
11 -9 -4 267.8 192.69 5
-11 9 -4 316.32 203.79 10
9 11 -4 213.3 130.49 5
-11 -9 4 395.48 220.47 1
9 11 -4 391.77 264.15 10
-9 11 4 354.71 232.44 10
-9 11 4 186.18 145.35 9
-11 9 -4 108.7 194.85 9
-9 11 4 434.68 250.92 8
-11 -9 4 306.56 219.91 8
9 11 -4 177.62 73.39 4
-9 11 4 247.79 100.61 16
9 11 -4 373.44 246.43 7
9 11 -6 189.44 227.92 2
-11 -9 6 19.42 86.88 1
11 -9 -6 8.69 76.36 12
9 11 -6 98.13 40.02 10
-9 11 6 51.74 81.33 9
-11 -9 6 271.12 238.15 8
-9 11 6 93.61 168.82 16
9 11 -6 20.88 164.88 7
-10 11 -3 224.13 208.42 16
10 11 3 298.24 196.36 4
-10 11 -3 43.32 93.69 15
10 11 3 67.91 56.09 7
-11 10 3 74.71 141.58 15
11 -10 3 139.72 205.98 14
-10 -11 3 32.61 198.56 6
11 10 -3 204.34 277.34 2
10 -11 -3 1.61 148.73 13
10 -11 -3 5.64 214.75 12
11 -10 3 68.46 16.6 11
-10 -11 3 230.14 228.53 3
-11 -10 -3 157.29 80.13 6
-10 -11 3 171.16 158.35 11
10 -11 -3 30.93 162.04 5
-10 11 -3 97.13 117.96 10
11 10 -3 3.31 99.76 10
-11 10 3 93.81 118.67 10
-11 10 3 5.83 87.69 9
11 -10 3 17.25 108.21 5
-10 -11 3 466.23 275.26 1
-11 -10 -3 158.28 225.34 3
10 11 3 180.73 135.45 5
-10 11 -3 50.5 73.74 9
10 11 3 140.79 127.22 2
-11 -10 -3 6.6 170.42 1
-11 10 3 105.44 49.59 8
-10 -11 3 88.49 28.03 8
11 10 -3 2.59 64.06 5
11 10 -3 371.78 269.89 4
-11 10 3 179.32 179.75 16
11 10 -3 218 199.19 7
11 10 -1 80.53 147.75 7
-10 11 -1 46.98 212.37 15
-11 10 1 19.92 79.1 15
-10 -11 1 146.38 62.11 1
-10 -11 1 162.09 135.85 6
11 10 -1 46.67 115.45 2
-11 -10 -1 124.64 210.42 6
11 -10 1 182.91 83.75 11
10 -11 -1 23.07 182.11 11
-10 -11 1 117.11 174.83 11
-10 -11 1 37.47 148.27 3
10 -11 -1 79.89 100.18 5
-10 11 -1 31.51 140.89 10
10 11 1 103.31 150.56 4
10 11 1 168.65 60.99 2
-11 10 1 9.79 23.39 10
11 10 -1 114.17 97.44 10
10 11 1 143.47 108.55 10
11 10 -1 150.06 167.38 5
-11 -10 -1 34.92 152.07 3
11 -10 1 2.11 103.13 5
-11 10 1 10.58 152.11 16
10 11 1 111.3 33.85 5
-11 10 1 228.49 218.83 9
-10 11 -1 223.15 224.87 9
10 -11 -1 60.21 150.44 12
10 11 1 27.95 43.61 7
-11 10 1 37.87 61.63 8
-10 -11 1 73.22 90.24 8
-10 11 -1 70.62 63.75 8
-11 -10 -1 34.1 40.8 8
11 -10 1 216.85 242.75 14
11 10 -1 95.17 202.83 4
-11 -10 -1 84.82 19.39 1
-10 11 -1 133.94 211.48 16
-11 10 -1 163.28 181.48 16
-10 -11 -1 50.48 26.88 1
10 11 -1 82.03 141.01 7
-11 10 -1 85.59 146.27 15
-10 11 1 71.95 70.62 15
-11 -10 1 154.53 250.32 1
-10 11 1 84.78 122.76 16
-11 -10 1 70.26 151.31 6
-10 -11 -1 45.46 128.18 6
10 11 -1 178.05 119.7 2
11 -10 -1 219.44 186.78 12
10 -11 1 209.34 136.19 11
11 -10 -1 215.92 172.14 11
-11 -10 1 18.87 79.53 3
-11 10 -1 166.6 142.71 10
11 -10 -1 78.05 135.08 5
11 10 1 39.02 181.91 2
-10 11 1 193.29 102.74 10
10 11 -1 47.46 80.39 10
10 11 -1 172.09 155.28 5
10 -11 1 30.39 70.75 5
-10 -11 -1 40.35 162.33 3
11 10 1 135.75 111.79 10
11 10 1 74.13 101.97 5
11 10 1 340.13 246.11 7
-10 11 1 302.46 241.3 9
-11 10 -1 77.35 260.04 9
-10 11 1 144.56 105.51 8
10 -11 1 9.96 125.44 14
-11 10 -1 51.47 82.65 8
-10 -11 -1 40.47 126.93 8
10 11 -1 138.04 150.93 4
11 10 1 348.37 275.51 4
-11 10 -3 198.39 58.67 16
11 10 3 100.01 160.34 4
11 10 3 69.22 101.72 7
-10 11 3 81.38 179.94 15
10 11 -3 169.45 227.2 2
10 -11 3 40.08 128.11 14
-11 -10 3 105.03 189.59 6
11 -10 -3 69.46 123.52 12
10 -11 3 16.2 162.23 11
-10 -11 -3 165.18 227.53 6
-11 -10 3 121.11 211.63 3
-11 -10 3 82.62 90.52 11
11 -10 -3 18.69 78.22 5
-11 10 -3 115.48 90.25 10
10 11 -3 73.03 37.6 5
10 11 -3 56.77 56.33 10
-10 11 3 163.88 235.96 16
-10 11 3 108.31 160.67 10
10 11 -3 152.01 191.61 7
-10 11 3 6.41 85.47 9
10 -11 3 73.15 113.8 5
-11 -10 3 271.82 244.8 1
-10 -11 -3 45.71 133.78 3
-11 10 -3 71.78 189.72 15
11 10 3 131.54 198.64 5
11 10 3 108.94 132.76 2
-11 10 -3 0.63 51.81 9
-10 11 3 75.02 50.3 8
-11 -10 3 241.48 133.9 8
10 11 -3 46.38 141.87 4
11 -10 -3 268.41 147.7 13
-10 -11 -3 243.16 213.07 1
0 12 0 27.3 99.13 7
0 -12 0 2.73 63.29 13
12 0 0 125.74 39.45 2
-12 0 0 177.85 155.08 1
0 12 0 88.72 97.52 10
-12 0 0 81.45 35.91 3
12 0 0 198.58 113.87 5
-12 0 0 234.35 164.57 9
-12 0 0 38.37 132.85 8
12 0 0 115.78 135.06 4
12 -1 1 218.92 113.85 4
1 12 -1 186.02 186.88 7
12 1 1 158.07 33.04 4
-12 1 1 69.82 83.53 1
1 12 1 247.56 117.92 7
-1 12 1 347.5 237.88 7
-1 12 -1 257.41 94.28 15
1 12 -1 310.58 156.3 15
-1 12 1 430.6 218.71 15
12 -1 1 326.07 173.8 14
-1 -12 -1 511.79 235.07 13
1 -12 1 157.14 108.44 6
1 -12 -1 209.26 78 13
-1 -12 1 318.29 178.52 6
12 1 -1 299.38 178.5 2
12 -1 -1 404.03 166.49 2
1 -12 -1 47.3 102.68 6
-1 -12 -1 610.48 282.87 6
-12 1 -1 320.48 168.19 1
1 -12 1 188.13 156.41 11
-1 -12 1 8.57 33.18 11
-1 -12 1 320.27 146.81 3
-12 1 1 280.36 163.48 3
-12 -1 1 277.57 221.9 3
12 -1 -1 174.71 63.03 14
-1 12 -1 262.58 138.32 10
1 12 -1 201.91 79.44 10
-1 12 1 184.57 134.26 10
1 12 1 388.69 222.82 10
12 1 1 331.6 160.48 2
12 -1 1 228.26 77.99 2
-1 -12 -1 351.33 137.37 3
12 -1 -1 511.39 266.41 5
12 1 -1 713.23 304.1 5
-12 1 -1 262.22 155.74 3
-12 -1 -1 135.47 79.42 3
12 -1 1 221.4 189.09 5
12 1 1 357.26 187.8 5
-1 12 -1 523.05 201.77 7
-12 1 1 411 191.25 9
-12 -1 1 323.61 223.02 9
-12 1 -1 298.46 112.6 9
-12 -1 -1 148.49 160.84 9
-12 -1 1 563.95 287.86 1
-12 1 1 328.38 212.38 8
-12 -1 1 158.62 234.77 8
-12 1 -1 215.94 218.51 8
-12 -1 -1 92.64 75.13 8
1 12 -1 479.5 196.7 4
12 -1 -1 319.19 151.82 4
12 1 -1 318.74 168.72 4
-1 12 -1 422.4 199.07 16
-1 12 1 171.37 180.58 16
-12 -1 -1 297.95 100.9 1
1 12 -1 386.84 183 16
1 12 1 436.39 161.78 4
-12 2 0 35.31 85.21 16
12 -2 0 155.54 136.82 4
2 12 0 179.76 160.68 7
-2 12 0 83.22 112.72 15
0 12 -2 78.83 150.31 15
-12 2 0 173.44 115.26 15
2 12 0 85.98 105.54 15
0 12 2 181.27 150.12 15
12 0 -2 25.05 55.12 2
12 -2 0 25.6 63.59 14
0 -12 2 21.41 115.07 14
0 -12 2 213.78 149.95 6
0 -12 -2 202.8 183.19 13
12 0 2 37.06 56.11 4
-2 -12 0 27.67 118.67 13
2 -12 0 61.99 140.13 6
-2 -12 0 118.04 191.77 6
-12 -2 0 114.32 67.6 6
12 0 -2 23.69 174.62 12
0 -12 -2 56.56 66.79 6
-12 0 2 88.68 75.83 3
12 2 0 0.35 36.74 2
0 -12 2 79.44 106.75 11
-12 -2 0 60.85 154.65 1
2 12 0 13.39 67.94 2
12 -2 0 56.22 124.56 2
0 12 -2 88.38 135.16 10
-2 -12 0 147.69 200.67 3
-12 2 0 71.25 141.55 3
-2 12 0 60.83 53.94 10
2 12 0 207.93 169.22 10
-2 12 0 65.14 101.72 7
12 -2 0 300.05 163.89 5
-12 -2 0 98.49 62.22 3
0 12 2 11.05 141.41 10
12 0 -2 60.97 170.89 5
-12 0 -2 101.02 127.92 1
-2 -12 0 27.89 89.75 1
-2 12 0 120.13 90.29 16
-12 2 0 55.69 130.28 1
12 2 0 163.63 139.73 5
0 12 2 40.69 98.22 7
-12 0 2 35.8 151.06 9
12 0 2 28.86 71.92 5
-12 0 2 47.32 101.3 1
-12 2 0 1.25 107.95 9
-12 -2 0 56.31 60.69 9
-12 0 -2 9.86 74.66 3
12 0 2 79.72 108.77 2
-12 0 -2 113.81 152.27 9
0 12 -2 201.29 187.81 16
0 12 2 230.47 185.52 16
0 12 -2 23.97 20.97 4
0 12 2 122.76 111.07 4
-12 0 2 191.94 253.13 8
-12 2 0 3.12 120.24 8
-12 -2 0 40.76 99.08 8
12 0 -2 125.72 100.02 4
-12 0 -2 146.03 161.94 8
2 12 0 19.68 119.38 4
12 2 0 41.89 156.81 4
2 12 0 1.4 151.09 16
0 12 -2 12.06 127.35 7
-2 12 -2 214.4 41.61 16
-12 2 -2 153.2 102.96 16
-12 2 -2 5.23 29.29 15
2 12 2 146.05 87.48 4
12 2 2 133.4 37.63 4
-2 -12 2 338.61 257.28 11
12 -2 2 81.81 17.64 4
2 12 2 199.29 128.56 7
-2 12 -2 433.77 206.35 15
2 12 -2 222.61 147.72 15
-2 12 2 14.49 74.83 7
-12 -2 -2 47.24 100.95 1
2 12 2 120.97 119.28 16
-2 12 2 257.31 160.6 15
2 12 2 354.98 168.81 15
2 12 -2 353.08 157.13 2
-2 12 -2 0.42 52.61 7
12 -2 -2 281.35 155.75 2
-2 -12 2 213.21 173.33 6
12 2 -2 137.69 107.88 2
2 -12 2 281.42 188.34 14
2 -12 2 345.77 232.85 6
-12 -2 2 418.86 199.4 6
-2 -12 -2 164.51 72.43 13
2 -12 -2 179.63 105.09 13
12 -2 -2 229.96 139.86 13
-2 -12 2 114 47.27 3
12 2 -2 153.57 129.91 12
12 -2 -2 193.96 97.83 12
2 -12 -2 344.82 202.91 6
-12 2 2 417.26 209.78 3
-2 -12 -2 55.73 92.18 6
-2 -12 2 145.6 100.47 14
-12 2 -2 39.98 49.43 1
2 -12 2 381.85 242.66 11
-12 -2 2 172.25 153.86 3
-2 12 -2 331.63 62.17 10
2 12 -2 180.7 128.59 10
2 12 -2 249.87 133.19 7
-12 2 2 56.67 61.39 15
12 -2 -2 77.28 120.15 5
-2 12 2 0.64 140.21 10
2 12 2 123.83 80.23 10
12 2 -2 553.74 259.5 5
-2 -12 2 579.14 238.36 1
-12 2 2 56.7 89.55 9
-12 -2 2 152.92 166.56 9
12 2 2 54.63 127.93 2
12 -2 2 366.84 249.85 5
-2 -12 -2 38.59 138.54 3
12 2 2 38.4 100 5
-12 -2 -2 56.08 114.62 3
-12 2 2 11.08 64.01 1
-12 2 -2 125 130.23 3
-12 -2 2 41.8 26.2 1
-12 -2 -2 13.39 100.51 9
12 -2 2 185.16 87.75 2
-12 -2 2 111.96 159.51 8
2 12 -2 433.01 178.8 4
12 -2 -2 556.05 240.51 4
-12 2 -2 11.24 86.6 8
-12 -2 -2 246.56 212.26 8
12 2 -2 123.23 148.1 4
-2 12 2 218.84 110.96 16
-12 2 2 153.99 114.54 16
2 12 -2 150.43 91.76 16
1 12 -3 447.42 245.48 16
-12 1 -3 11.64 96.76 15
-3 -12 1 268.86 166.98 1
12 3 -1 393.75 204.76 7
12 -1 -3 769.82 294.57 2
3 12 1 228.03 173.17 7
1 -12 3 584.74 252.43 6
1 12 -3 621.07 263.55 15
-3 12 -1 333.5 215.54 15
-1 12 3 259.6 107.62 7
12 1 3 363.07 224.33 4
3 12 1 496.58 208.28 15
-1 12 3 531.11 264.13 15
-12 -1 3 449.9 170.53 6
1 -12 3 383.63 179.67 14
-12 3 1 218.59 123.94 15
-1 -12 -3 163.75 145.7 13
12 -1 -3 440.7 166.13 13
-3 -12 1 509.35 284.14 6
3 -12 -1 462.85 228.18 13
12 3 -1 417.13 171.67 2
3 -12 -1 684.81 258.21 6
3 -12 -1 422.63 189.43 12
12 -1 -3 696.67 287.97 12
-12 -1 3 299.4 168.56 3
-12 -3 -1 370.47 202.03 6
-1 -12 -3 254.84 230.01 6
-3 -12 1 469.42 199.67 3
-12 -1 3 581.17 277.74 1
1 12 -3 321.07 219.73 10
-3 12 -1 622.32 287.69 10
12 -1 -3 509.15 258.9 5
3 12 1 712.82 293.11 10
-1 12 3 513.03 286.64 10
3 12 1 555.65 248.72 2
12 3 -1 599.89 287.9 5
12 -3 1 667.8 237.53 14
-12 -3 -1 315.63 212.82 3
-12 3 1 367.01 183.81 1
12 -3 1 682.81 266.64 5
-12 -1 3 494.77 231.79 9
12 -3 1 306.04 157.32 2
-12 3 1 832.71 346.67 9
-1 12 3 686.38 308.84 16
-12 -3 -1 425.86 232.54 9
1 12 -3 559.94 221.5 4
-12 1 -3 113.56 152.21 3
-3 12 -1 551.83 242.38 7
-12 -1 3 493.08 266.77 8
12 -1 -3 586.06 208.7 4
-12 3 1 442.35 195.51 8
-12 -3 -1 188.21 64.1 8
-12 1 -3 42.68 85.06 8
12 3 -1 566.42 260.03 4
-12 -3 -1 232.7 227.13 1
1 12 -3 608.61 270.3 7
-3 12 -1 342.67 207.82 16
3 12 1 749.67 228.34 4
12 -3 1 630.53 203.93 4
-1 12 -3 502.47 241.23 16
12 3 1 854.15 313.89 4
-12 3 -1 446.18 192.62 16
3 12 -1 323.18 205.78 7
-12 -3 1 431.28 212.69 1
12 3 1 267.26 162.19 7
-3 12 1 528.83 270.23 15
12 -1 3 376.02 224.78 4
1 12 3 467.63 156.99 4
1 12 3 390.21 174.27 15
-3 12 1 268.03 174.06 7
-1 -12 3 302.35 205.89 14
-1 12 -3 373.16 224.03 15
-1 -12 3 409.35 225.5 6
1 -12 -3 484.1 238.46 13
3 -12 1 660.04 240.08 6
-3 -12 -1 462.63 204.95 13
-12 -3 1 450.4 196.65 6
-1 -12 3 717.24 241.1 1
-12 1 3 520.73 203.72 3
12 1 -3 960.04 328.77 12
-3 -12 -1 450.96 278.31 6
12 1 -3 382.92 163.79 2
1 -12 -3 367.9 188.69 6
-3 -12 -1 174.11 71.35 1
-1 -12 3 518.31 250.17 11
-12 1 3 638.35 244.83 1
3 -12 1 270.82 231.94 11
-1 12 -3 690.29 318.65 10
-12 -3 1 437.65 226.39 3
12 3 1 476.32 187.95 2
12 1 -3 563.8 289.75 5
-3 12 1 382.13 217.95 10
1 12 3 274.75 171.9 10
12 -3 -1 376.13 190.72 5
-3 -12 -1 402.35 213.71 3
-12 3 -1 443.17 223.51 3
-12 1 3 356.73 172.87 9
-3 12 1 569.39 224.09 9
12 3 1 565.78 287.1 5
-1 -12 3 416.83 170.83 3
-12 -3 1 300.93 174.79 9
-12 3 -1 500.22 288.05 9
12 -1 3 433.76 230.49 5
1 12 3 608.34 268.41 16
-12 -1 -3 166.33 226.87 3
-12 1 3 612.45 263.14 8
-1 12 -3 620.55 285.76 7
-12 -3 1 221.5 188.66 8
1 12 3 320.46 158.93 7
12 1 -3 606.34 292.3 4
-12 3 -1 444.12 217.4 8
12 -3 -1 529.12 207.25 4
3 12 -1 452.62 185.7 4
-12 -1 -3 87.67 166.56 8
-12 3 -1 162.31 146.64 1
3 12 -1 443.88 117.71 16
3 12 -3 381.71 210.42 2
12 -3 -3 648.26 234.66 2
-3 12 -3 358.78 243.12 15
3 12 -3 386.21 176.2 15
3 12 3 281.37 178.26 7
12 -3 3 330.13 206.69 4
-3 12 3 299.3 169.93 15
3 -12 3 441.87 152.36 6
-12 -3 3 325.01 106.33 6
3 -12 3 463.35 274.59 14
-3 -12 3 568.26 276.11 6
3 -12 -3 480.15 258.12 13
3 12 -3 302.49 152.64 16
-12 3 3 657.68 239.18 3
12 3 3 274.53 167.71 4
-3 -12 3 428.66 196.75 3
12 3 -3 789.4 311.66 12
12 -3 -3 378.29 275.39 12
-12 -3 3 577.11 267.92 3
3 -12 -3 167.58 164.4 6
-3 -12 3 569.7 235.85 1
3 -12 3 382.69 202.52 11
-12 3 3 555.9 252.05 1
-3 -12 3 353.65 241.32 11
12 3 -3 724.04 302.36 2
-3 12 -3 655.47 319.26 10
3 12 -3 530.11 274.63 10
-12 -3 3 664.41 286.13 1
12 -3 -3 496.79 240.56 5
12 3 -3 815.62 338.33 5
-3 12 3 407.94 211.1 10
-3 12 -3 327.07 194.78 16
3 12 3 262.23 180.9 10
-12 3 3 547.38 215.47 15
-12 3 3 430.22 214.18 9
-12 -3 3 614.04 245.49 9
12 -3 3 104.99 138.59 5
-12 3 -3 169.6 193.14 9
-12 3 -3 140.55 156.82 3
12 3 3 329.68 187.11 2
12 -3 -3 581.88 222.69 4
-12 3 3 477.15 272.99 8
3 12 -3 539.43 202.26 4
-12 -3 3 466.51 228.26 8
-12 -3 -3 147.32 133.4 1
12 3 -3 677.76 318.94 4
3 12 -3 482.98 253.1 7
-12 3 -3 259.08 196.02 8
-12 -3 -3 176.06 211.54 8
3 12 3 254.49 193.46 16
-3 12 3 639.29 259.48 16
-3 12 -3 276.87 165.01 7
-12 3 3 540.85 179.45 16
12 -3 -3 208.82 99.46 13
-3 -12 3 261.17 132.36 14
12 3 -3 478.71 245.87 7
12 4 -2 27.12 71.13 7
2 12 -4 102.96 122.09 16
4 12 2 21.83 81.52 4
2 12 -4 44.3 93.48 15
12 -4 2 120.66 110.35 4
4 12 2 83.61 116.11 7
-4 12 -2 23.79 105.81 15
4 12 2 91.27 51.06 16
-12 4 2 37.68 38.14 15
-12 -2 4 61.92 63.15 6
2 -12 4 54.25 85.67 6
-2 12 4 36.02 55.43 15
12 -4 2 52.82 87.3 14
2 -12 4 319.68 195.96 14
-4 -12 2 218.14 196.54 14
12 4 -2 14.61 41.48 2
12 -2 -4 61.25 32.06 13
-4 -12 2 194.04 191.61 6
4 -12 -2 80.44 14.69 13
4 -12 -2 45.76 70.48 6
12 4 -2 155.82 121.03 12
-12 -2 4 260.47 204.41 1
4 -12 -2 62.79 85.87 12
-12 4 2 57.65 131.75 3
12 -2 -4 74.87 104.75 12
-4 -12 2 58.45 70.44 3
2 -12 4 7.6 99.51 11
-12 -4 -2 148.64 160.97 6
-4 -12 2 6 132.94 11
-4 12 -2 42.98 80.26 7
-12 -2 4 56.25 114.44 3
2 12 -4 130.6 200.5 10
12 -2 -4 38.73 17.21 5
-4 12 -2 178.94 64.65 10
4 12 2 66.22 89.26 10
12 4 -2 346.49 236.73 5
-12 -2 4 126.34 114.83 9
-12 4 2 84.03 102.95 9
12 -4 2 191.57 244.94 5
-12 -4 -2 70.17 125.9 3
-12 -4 -2 73.59 126.36 1
-4 12 -2 268.2 185.96 9
4 12 2 104.78 173.53 2
-4 -12 2 29.59 86.55 1
2 12 -4 21.38 86.92 4
12 -2 -4 24.73 62.16 4
-12 -2 4 87 169.54 8
-12 4 2 81.69 60.45 8
-12 -4 -2 140.28 105.33 8
12 4 -2 35.72 16.65 4
2 12 -4 205.86 139.97 2
2 12 -4 53.73 116.43 7
12 -2 -4 38.62 185.96 2
-2 12 4 100.13 93.99 16
-12 4 2 26.79 69.39 16
0 12 -4 320.72 178.68 16
-4 12 0 597.42 162.65 7
4 12 0 498.64 248.74 7
0 12 -4 651.74 276.48 15
0 -12 4 637.81 224.4 1
0 12 -4 571.41 272.19 10
12 4 0 514.37 212.29 7
4 12 0 572.32 215.1 15
0 -12 4 454.31 267.28 6
0 -12 4 497.2 229.16 14
12 -4 0 572.84 199.8 14
-4 -12 0 552.32 247.01 13
-12 0 4 494.73 198.48 3
4 -12 0 782.51 265.95 6
-12 -4 0 449.16 213.37 6
12 0 -4 560.08 218.34 12
12 4 0 712.55 295.25 4
4 -12 0 817.73 265.09 12
-4 12 0 817.24 345.77 15
0 -12 4 494.61 278.54 11
12 4 0 1043.37 345.48 2
-12 -4 0 315.73 247.34 1
4 12 0 603.2 246.1 2
-12 4 0 616.12 206.35 3
12 0 -4 802.63 310.62 5
-12 4 0 428.52 192.32 15
12 0 -4 823.61 304.59 2
-4 -12 0 592.47 267.78 3
-4 12 0 601.64 272.21 10
12 -4 0 410.88 157.31 2
4 12 0 492.27 290.13 10
-4 -12 0 486.11 242.69 1
-12 -4 0 400.42 219.57 3
-12 0 4 618.19 236.03 1
0 12 4 445.31 233.12 10
12 -4 0 572.87 213.49 5
-4 -12 0 784.39 343.4 6
12 4 0 389.87 236.04 5
-12 0 4 675.22 243.13 9
-4 12 0 855.8 293.61 9
-12 4 0 456.62 257.22 9
-12 -4 0 476.56 200.36 9
-12 0 4 956.25 356.27 8
12 0 -4 920.26 322.15 4
-12 4 0 307.21 131.56 8
-12 -4 0 338.34 164.47 8
12 -4 0 759.48 217.55 4
0 12 -4 165.29 92.6 7
4 12 0 687.2 232.2 4
-4 12 0 899.69 356.62 16
-12 4 0 326.36 114.29 16
4 12 -2 91.08 208.4 7
-2 12 -4 56.6 114.55 16
-12 4 -2 107.13 169.28 15
12 4 2 277.29 146.93 4
4 12 -2 88.29 95.99 15
-4 12 2 111.4 133.99 7
-2 -12 4 74.75 110.29 1
-4 12 2 168.31 149.12 15
-12 2 4 44.41 132.59 15
-2 -12 4 12.46 41.03 14
-12 2 4 112.21 121.58 1
-2 -12 4 111.55 140.85 3
-2 -12 4 50.29 156.16 6
4 -12 2 92.43 96.1 6
12 -4 -2 107.46 94.97 2
4 -12 2 130.01 113.23 14
-12 2 4 104.62 45.07 3
2 -12 -4 16.89 9.26 13
-12 -4 2 2.97 104.71 6
12 -4 -2 18.12 77.65 13
12 2 -4 38.76 98.61 12
12 -4 -2 226.46 140.86 12
-4 -12 -2 187.91 177.18 6
-2 -12 4 329.19 197.04 11
4 -12 2 275.07 215.28 11
-12 -4 2 13.54 150.73 3
-2 12 -4 128.43 163.1 10
12 2 -4 122.25 130.25 5
4 12 -2 199.78 133.45 10
12 -4 -2 10.63 107.41 5
-4 12 2 134.53 162.47 10
12 2 -4 207.11 122.12 7
2 12 4 93.7 161.2 10
-12 2 4 70.45 227.05 9
-4 12 2 86.54 119.96 9
12 4 2 70.43 118.71 2
-12 -4 2 108.53 147.6 9
-4 -12 -2 37.38 28.02 3
12 4 2 25.26 91.62 5
-12 4 -2 114.63 80.76 3
-12 4 -2 19.52 161.15 9
-12 -4 2 76.76 111.84 1
-4 -12 -2 27.28 66.57 1
-12 2 4 52.83 65.1 8
12 2 -4 96.19 88.3 4
12 -4 -2 172.45 163.27 4
-12 -4 2 165.5 150.41 8
-12 4 -2 40.34 138.03 16
4 12 -2 51.05 59.59 4
4 12 -2 48.34 83.76 2
-12 4 -2 153.87 184.24 8
-2 12 -4 241.66 139.62 7
-12 2 4 75.54 155.71 16
-4 12 2 24.22 86.31 16
12 2 -4 31.28 49.33 2
12 4 -4 592.95 193.22 2
-12 -4 4 515.72 263.15 1
-4 12 -4 151.64 149.29 15
4 12 -4 410.15 179.91 15
-12 4 4 222.72 176.91 15
-4 12 4 256.82 174.09 15
-12 4 4 551.06 189.24 1
-12 -4 4 460.07 219.71 6
4 -12 4 1.23 159.05 14
-4 -12 4 356.44 252.42 6
-4 12 -4 53.95 187.66 16
4 -12 -4 202.35 58.61 13
12 -4 -4 282.71 107.85 13
-4 -12 4 426.89 247.11 3
-12 -4 4 389.38 125.43 3
12 -4 -4 345.86 168.46 12
4 -12 4 204.76 111.59 11
-4 -12 4 337.78 174.22 11
-4 12 -4 385.94 210.4 10
4 12 -4 221.17 82.18 10
12 -4 -4 451.25 215.31 5
12 4 -4 198.73 256.04 5
-4 12 -4 225.99 59.37 7
-4 12 4 249 198.14 10
-4 12 4 421.37 171.67 9
-12 4 4 192.13 37.58 9
-12 -4 4 471.66 222.16 9
-12 4 -4 83.03 101.05 9
-12 4 4 403.42 184.56 16
4 12 -4 309.09 180.71 4
-12 4 4 597.48 285.85 8
-12 -4 4 528.79 301.52 8
12 4 -4 40 227.03 4
4 12 -4 442.19 192.21 7
-4 -12 4 348.23 166.39 1
-4 12 4 336.53 151.65 16
12 -4 -4 369.01 165.18 2
12 4 -4 325.39 127.38 7
4 12 -4 633.63 263.85 2
-5 12 -3 232.5 292.32 16
-5 12 -3 170.84 114.16 15
5 12 3 61.99 118.29 4
12 -5 3 120.17 61.82 4
-12 -3 5 244.53 29.36 1
12 -5 3 127.53 156.73 14
-5 -12 3 113.86 112.5 14
-12 5 3 363.72 152.4 3
5 12 3 243.65 176.21 7
-5 -12 3 308.07 201.99 6
-12 -3 5 24.71 99.35 3
5 -12 -3 20.13 103.51 12
12 -3 -5 218.94 166.99 12
-12 -5 -3 25.54 195.51 1
-5 -12 3 43.78 82.9 3
-5 -12 3 334.61 174.19 11
12 -3 -5 145.24 229.28 5
3 12 -5 60.99 119.82 10
-5 12 -3 53.15 107.74 10
-5 -12 3 180.62 56.68 1
12 5 -3 159.11 59.1 5
5 12 3 276.94 181.55 10
3 12 -5 156.48 100.11 15
-12 -3 5 184.94 123.62 9
-12 5 3 497.57 239.13 9
12 -5 3 146.65 116.94 5
-5 12 -3 17.84 165.24 9
-12 -5 -3 117.97 246.79 3
-12 -3 5 254.19 171.35 8
-12 5 3 757.2 303.08 8
12 5 -3 73.88 219.24 4
3 -12 5 215.06 85.77 14
12 -3 -5 434.84 192.71 2
3 12 -5 310.62 171.74 2
-12 -5 -3 290.27 229.47 8
5 12 3 134.11 97.54 16
3 12 -5 334.53 211.25 7
-5 12 -3 225.28 110.42 7
-12 5 3 286.67 187.33 16
12 5 -3 68.89 219.66 7
-5 12 -1 291.77 136.78 7
1 12 -5 119.75 133.71 15
5 12 1 343 185.77 7
-5 -12 1 368.45 230.03 1
-12 -1 5 421.57 234.19 1
-12 5 1 106.47 61.48 15
1 -12 5 310.44 155.29 6
-5 -12 1 287.31 162.1 14
-12 -1 5 448.77 194.49 3
5 -12 -1 66.36 173.16 13
5 -12 -1 392.57 144.52 6
12 -1 -5 515.19 217.84 12
12 5 -1 680.14 298.93 2
-12 5 1 622.8 207.76 3
5 -12 -1 358.24 136.1 12
-12 -5 -1 105.56 138.21 6
-5 12 -1 207.58 141.45 15
1 -12 5 542.41 293.34 11
-5 -12 1 387.84 175.44 3
1 12 -5 568.09 271.03 10
12 -1 -5 353.88 193.01 5
-5 12 -1 352.82 246.57 10
5 12 1 496.43 267.82 10
5 12 1 845.42 251.59 2
-12 -1 5 566.08 277.71 9
-12 -5 -1 249.59 130.74 3
12 -5 1 314.78 179.25 5
-12 5 1 395.77 213.42 9
-12 -5 -1 73.12 38.34 9
12 -1 -5 304.8 178.24 4
-12 -1 5 705.48 291.96 8
1 12 -5 522.84 194.68 2
-12 5 1 335.17 220.25 8
-12 -5 -1 114.6 85.05 8
-5 -12 1 291.05 236.04 6
-12 -5 -1 183.3 127.11 1
12 -1 -5 334.4 145.32 2
12 5 -1 606.76 317.21 4
1 12 -5 522.59 206.33 7
12 5 -1 480.18 212.54 7
-12 5 1 480.16 214.18 16
-5 12 -1 469.95 235.23 16
5 12 1 380.05 150.11 4
12 5 1 289.68 217.49 4
-1 12 -5 404.93 206.88 15
-12 -5 1 287.77 175.45 1
-5 12 1 350.32 211.05 16
-5 12 1 251.51 142.25 7
-12 5 -1 505.22 278.41 15
12 5 1 290.47 160.31 7
-5 12 1 520.63 241.87 15
-1 -12 5 525.96 251.91 6
-12 1 5 303.82 147.68 3
5 -12 1 208.12 81.92 6
-5 -12 -1 184.6 105.21 1
5 -12 1 435.08 220.12 14
-12 -5 1 472.97 176.51 6
12 1 -5 649.47 268.99 12
5 12 -1 609.45 290.42 2
-5 -12 -1 403.68 182.56 6
5 12 -1 661.83 269.86 7
-1 -12 5 447.8 279.56 11
5 -12 1 441.65 191.11 11
-1 12 -5 433.83 218.77 10
12 1 -5 525.05 271.88 5
-12 -5 1 184.03 83.24 3
12 5 1 594.88 277.46 2
5 12 -1 950.91 324.99 10
-5 12 1 261.34 179.66 10
-12 5 -1 412.37 162.03 3
12 -5 -1 594.48 326.44 5
-5 -12 -1 264.98 139.99 3
-12 1 5 337.39 193.51 9
12 5 1 356.33 201.82 5
-5 12 1 374.18 165.33 9
-12 5 -1 123.27 165.99 9
12 1 -5 405.51 200.84 4
-12 -5 1 51.94 103.94 8
-12 5 -1 272.34 159.82 16
-12 5 -1 100.39 63.86 8
-1 -12 5 476.01 182.44 1
-12 1 5 443.3 219.69 1
5 12 -1 528.57 261.92 4
12 1 -5 494.4 186.21 2
-1 12 -5 551.52 221.29 7
-12 1 5 516.66 191.26 16
-12 5 -3 40.08 76.41 15
5 12 -3 212.91 161.92 2
12 5 3 9.34 68.05 4
5 12 -3 56.06 42.46 7
-5 12 3 291.21 203.28 15
-3 -12 5 136.31 83.36 6
-12 5 -3 133.94 102.87 16
5 -12 3 469.58 236.63 14
12 -5 -3 146.92 139.3 13
5 -12 3 135.47 66.7 6
12 3 -5 228.8 73.63 12
-3 -12 5 276.83 160.01 1
12 -5 -3 242.97 129.48 12
-12 -5 3 394.83 253.44 3
-3 -12 5 269.65 171.47 11
-5 -12 -3 142.76 161.49 6
5 -12 3 248.39 135.46 11
-3 12 -5 111.76 164.37 10
12 3 -5 39.3 131.96 5
5 12 -3 193.09 175.51 10
12 -5 -3 261 122.35 5
-12 -5 3 42.41 88.78 1
-3 12 -5 195.91 142.05 15
-5 12 3 247.47 144.04 10
-12 3 5 128.9 135.74 16
-12 3 5 25.17 196.1 9
-5 12 3 428.08 197.99 9
-12 -5 3 107.78 107.91 9
-12 5 -3 49.74 100.27 9
-5 -12 -3 89.78 127.33 3
12 5 3 68.92 67.49 2
12 -5 -3 242.18 90.23 4
-12 3 5 148.2 135.91 8
12 3 -5 72.8 47.15 4
-12 -5 3 69.27 131.45 8
5 12 -3 245.46 180.36 4
-3 12 -5 126.86 144.96 7
12 3 -5 152.42 139.56 7
12 3 -5 34.54 219.29 2
-5 12 3 250.01 49.63 16
-12 3 5 215.26 191.43 1
-5 12 -5 9.02 160.22 16
5 12 -5 317.91 181.08 15
-5 12 -5 514.77 298.35 15
-5 -12 5 113.37 89.88 1
-5 12 5 53.55 26.05 15
-12 5 5 143.91 58.42 15
5 -12 5 93.72 111.05 14
-5 -12 5 118.25 119.86 6
-5 -12 5 52.91 38.34 3
5 -12 -5 45.26 90.16 13
12 -5 -5 205.73 187.77 12
5 -12 5 23.07 164.85 11
-5 -12 5 137.74 158.17 11
12 -5 -5 129.26 116.44 5
-5 12 -5 118.47 100.84 10
5 12 -5 126.5 88.61 10
12 5 -5 546.63 339.97 5
-12 5 5 145.53 133.79 9
-12 -5 5 154.07 73.69 9
5 12 -5 190.8 60.04 4
-12 5 5 309.96 173.87 8
12 5 -5 573.36 320.86 4
12 -5 -5 97.32 89.88 2
12 -5 -5 27.58 85.24 13
-5 12 -5 346.94 214.97 7
-12 5 5 215.32 165.24 1
5 12 -5 192.48 155.94 2
-5 12 5 140.89 132.16 16
-12 5 5 0.62 79.13 16
5 12 -5 311.58 192.47 7
-12 -5 5 50.25 92.55 3
-6 12 -4 28.92 253.49 16
-12 -4 6 192.98 175.6 1
12 6 -4 253.99 175.39 2
-12 6 4 18.14 39.34 15
-6 -12 4 99.28 14.11 1
-12 -4 6 205.75 122.5 3
-6 -12 4 24.08 106.41 6
6 -12 -4 115.75 122.91 13
-6 -12 4 106.47 60.03 3
6 -12 -4 21.87 157.46 12
12 -4 -6 234.41 174.39 12
12 6 -4 326.55 215.25 12
-6 -12 4 139.32 173.72 11
12 -4 -6 14.1 54.91 5
-6 12 -4 33.53 134.84 15
4 12 -6 110.56 74.95 10
-6 12 -4 200.39 214.44 10
12 6 -4 20.59 152.62 5
-12 -4 6 184.01 99.49 9
-12 6 4 69.31 91.09 9
12 6 -4 211.98 143.66 7
-12 -4 6 74.21 212.4 8
-12 6 4 86.56 57.21 8
12 -4 -6 76.61 114.37 2
12 6 -4 210.25 234.9 4
4 12 -6 160.05 217.87 2
-6 12 -4 88.52 146.09 7
4 12 -6 19.21 164.99 7
-12 6 4 73.09 19.26 16
12 6 -2 543.45 289.29 7
6 12 2 556.83 271.82 4
-6 12 -2 452.36 309.09 15
6 12 2 435.92 248.78 7
-12 6 2 434.49 241.62 15
12 -6 2 363.11 224.27 14
-12 -2 6 584.15 288.27 3
12 6 -2 819.39 435.36 2
-12 6 2 331.68 138.29 3
-6 -12 2 515.85 283.3 6
6 -12 -2 767.44 360.85 13
12 -2 -6 681.8 350.66 12
6 -12 -2 830.65 366.02 12
6 -12 -2 1020.15 321.33 6
12 6 -2 535.18 228.31 12
-12 -6 -2 276.08 157.52 6
-6 -12 2 407.84 182.15 3
-6 -12 2 574.95 278.71 11
12 -2 -6 439.48 237.94 5
2 12 -6 581.93 292.41 10
-6 12 -2 829.01 406.83 10
12 6 -2 396.95 170.92 5
6 12 2 496.04 267.44 10
-12 -2 6 477.47 260.13 9
-6 12 -2 974.48 478.06 16
-12 6 2 913.79 387.01 9
12 -6 2 756.14 252.14 5
-12 -6 -2 1218.11 479.75 3
6 12 2 514.61 272.86 2
6 12 2 654.84 241.96 5
-12 -2 6 485.2 296.89 8
-6 -12 2 301.23 144.99 1
-12 6 2 638.68 236.47 8
12 -2 -6 530.16 222.75 2
-12 -6 -2 557.67 287.41 8
12 6 -2 685.31 318.75 4
2 12 -6 309.86 163.09 7
-12 -2 6 436.08 259.83 1
-12 6 2 460.65 262.14 16
-6 12 -2 286.79 190.43 7
12 6 0 275 225.32 7
-12 6 0 164.12 188.69 15
-6 12 0 339.56 244.9 15
12 -6 0 23.73 145.32 14
6 -12 0 70.22 45.21 6
12 0 -6 130.2 45.98 12
-6 -12 0 133.48 123.23 6
-12 -6 0 301.87 259.06 6
6 -12 0 69.78 116.14 12
0 -12 6 63.29 182.18 11
6 12 0 87.18 142.23 2
-12 -6 0 115.13 176.75 1
6 -12 0 37.52 72.82 11
12 0 -6 102.9 22.14 5
-12 6 0 241.26 131.94 3
0 12 -6 55.94 70.43 10
-6 -12 0 30.98 144.29 1
-6 12 0 43.04 70.43 10
-6 -12 0 10.37 112.78 3
6 12 0 116.83 45.86 10
-12 -6 0 8.33 39.91 3
12 -6 0 113.22 23.54 5
6 12 0 65.77 41.92 5
-12 0 6 79.56 60.01 9
12 6 0 14.14 45.71 5
-6 12 0 15.51 113.65 9
-12 6 0 174.58 183.15 9
-12 0 6 141.18 131.73 8
12 0 -6 16.66 96.08 2
-12 6 0 89.44 122.63 8
-12 0 6 101.11 148.97 1
0 12 -6 218.92 178.57 7
6 12 0 106.9 111.35 4
12 6 0 25.84 145.53 4
-6 12 0 133.5 263.67 16
-12 6 0 15.77 132.87 16
6 12 0 36.45 111.7 7
12 6 2 422.48 259.6 4
-12 6 -2 364.33 201.13 15
12 6 2 575.4 279.06 7
-6 12 2 567.87 255.67 15
-2 -12 6 587.58 357.27 6
6 -12 2 415.64 180.51 6
-6 -12 -2 243.24 222.96 1
6 12 -2 530.22 277.5 2
-12 -6 2 593.53 311.58 6
12 -6 -2 758.54 422.77 12
-6 -12 -2 402.96 327.93 6
-2 -12 6 355.28 186.01 11
6 -12 2 710.93 305.15 11
12 2 -6 579.83 286.19 5
-12 -6 2 586.19 312.01 3
6 12 -2 697.94 252.15 5
6 12 -2 492.75 294.21 10
12 -6 -2 710.55 283.04 5
-6 12 2 509.27 239.72 10
-12 2 6 546.47 233.92 9
12 6 2 327.74 221.9 2
-6 12 2 644.53 304.95 9
-6 -12 -2 191.02 182.48 3
-12 6 -2 304.57 158.52 3
-12 -6 2 434.93 174.91 9
12 6 2 277.15 209.84 5
-12 6 -2 540.5 289.46 9
12 2 -6 565.24 299.26 4
-12 2 6 792.79 324.42 8
-12 6 -2 499.34 282 16
-12 -6 2 385.43 253.52 1
-12 -6 2 455.82 268.83 8
-12 2 6 598.51 310.51 1
12 2 -6 561.92 252.09 2
6 12 -2 752.35 341.49 4
-12 6 -2 159.63 161.51 8
6 -12 2 329.35 265.34 14
12 2 -6 471.12 204.31 7
-12 2 6 432.1 175.88 16
12 -6 -2 558.01 222.28 13
-6 12 2 644.2 356.62 16
6 12 -2 944.41 438.5 7
6 12 -4 157.73 158.8 2
-12 6 -4 192.56 221.98 15
-6 12 4 114.96 146.19 15
-4 -12 6 100.78 110.35 6
-6 12 4 167.49 207.85 16
6 -12 4 303.69 218.22 14
-12 -6 4 50.34 43.36 6
12 -6 -4 53.82 50.05 13
12 -6 -4 31.79 190.5 12
-12 -6 4 79.68 104.67 3
-4 -12 6 94.78 7.2 11
6 -12 4 130.45 129.09 11
-12 -6 4 174.46 171.15 1
12 4 -6 300.85 208.72 5
12 -6 -4 108.78 159.59 5
6 12 -4 54.47 114.9 10
-12 4 6 240.46 201.12 9
-6 12 4 163.01 73.31 9
-12 -6 4 251.51 170.47 9
12 -6 -4 183.49 119.22 2
-12 6 -4 15.99 73.64 9
-12 4 6 66.27 166.73 8
12 4 -6 190.79 137.4 4
-12 -6 4 35.71 85.51 8
6 12 -4 70.47 112.16 4
-12 4 6 11.36 109.3 1
12 4 -6 100.33 179.7 2
-4 -12 6 23.4 75.41 1
12 4 -6 349.57 206.62 7
-12 4 6 156.71 71.8 16
6 12 -4 3 147.31 7
-6 -12 6 144.19 137.31 1
6 12 -6 61.81 59.88 15
-12 -6 6 156.27 210.98 1
-12 -6 6 72.32 154.53 6
-6 -12 6 93.35 216.47 6
-6 -12 6 98.29 59.73 3
-12 -6 6 17.01 167.27 3
12 -6 -6 18.05 178.76 12
-6 -12 6 216.42 143.51 11
12 6 -6 93.99 34.59 5
6 12 -6 30.56 103.47 10
-12 -6 6 44.68 83.08 9
-12 6 6 1.58 171.79 9
6 12 -6 158.26 158.58 4
-6 -12 6 113.04 78.14 8
-12 6 6 15.59 172.38 8
12 6 -6 18.77 44.04 4
-12 -6 6 97.5 129.27 8
6 12 -6 58.98 133.15 7
6 12 -6 306.1 216.34 2
12 6 -6 44.49 207.56 2
12 6 -6 23.88 41.16 7
-12 6 6 50.89 133.66 16
-7 12 -5 196.42 291.09 16
-7 12 -5 61.8 145.04 15
-12 7 5 67.91 49.77 15
-12 -5 7 24.62 126.3 3
-7 -12 5 94.44 141.28 6
7 -12 -5 326.63 282.42 13
-7 -12 5 331.51 240.15 1
-7 -12 5 16.71 35.81 11
-7 12 -5 245.12 248.12 10
12 7 -5 72.52 97.96 5
-12 7 5 1.43 58.18 9
-12 -5 7 10.96 103.99 8
-12 7 5 42.05 25.69 8
-7 -12 5 8.13 136.54 8
12 7 -5 521.91 380.01 4
5 12 -7 181.12 153.21 7
-12 7 5 134.44 146.59 16
-12 -5 7 112.26 93.93 1
12 7 -5 55.14 152.94 7
12 7 -5 123.29 147.35 2
-7 12 -3 340.03 223.35 16
-7 12 -3 176.63 276.92 15
7 12 3 132.11 178.45 7
-12 7 3 64.29 124.46 15
12 7 -3 110.74 158.7 2
12 -7 3 120.08 123.07 14
-7 -12 3 284.6 230.21 6
7 -12 -3 240.07 325.86 13
12 7 -3 151.52 86.4 12
7 -12 -3 121.04 157.45 12
-7 -12 3 220.66 137.21 3
7 -12 -3 139.37 81.95 6
-7 -12 3 308.56 186.73 11
7 12 3 152.22 166.79 4
-7 12 -3 246.7 229.01 10
12 7 -3 68.55 117.03 5
-7 -12 3 59.79 190.52 1
-12 7 3 45.67 71.23 9
12 -7 3 1.35 132.77 5
-7 12 -3 167.27 223.7 9
-12 -7 -3 204.39 211 1
-12 -3 7 87.71 15.54 8
7 12 3 91.93 41.81 2
-12 7 3 162.28 75.22 8
-7 -12 3 93 65.12 8
12 7 -3 179.54 281.35 4
-12 -3 7 32.25 160.88 1
-7 12 -3 134.59 58.14 7
-12 7 3 26.55 35.79 16
12 7 -3 96.94 223.68 7
12 7 -1 202.39 147.94 7
7 12 1 166.68 72.47 7
-7 12 -1 162.02 148.96 15
-7 -12 1 431.82 263.11 1
12 -7 1 111.71 61.86 14
7 -12 -1 75.69 126.16 13
-7 -12 1 49.55 113.44 6
7 -12 -1 32.34 117.42 12
-12 -7 -1 371.56 381.26 6
12 -7 1 88.44 84.04 11
-7 -12 1 60.08 147.58 3
-7 12 -1 7.52 72.96 10
7 12 1 222.09 180.46 2
7 12 1 58.56 150.26 10
-12 -7 -1 1252.73 466.37 3
12 -7 1 123.83 109.15 5
7 12 1 245.57 128.61 5
-7 12 -1 109.56 97.75 9
-12 7 1 125.46 97.61 8
-7 -12 1 160.45 148.37 8
-12 -7 -1 1375.33 495.45 8
-12 -7 -1 971.87 526.15 1
-12 7 1 79.21 147.32 16
-7 12 -1 233.45 184.71 16
7 12 1 172.75 112.21 4
7 12 -1 27.23 176.4 7
-12 7 -1 92.56 131.27 15
12 7 1 631.36 383.23 7
-12 -7 1 179.46 206.48 1
-7 12 1 200.58 222.9 15
-7 -12 -1 36.84 82.59 1
7 -12 1 265.15 162.35 6
7 -12 1 72.89 65.09 14
7 12 -1 254 180.51 2
-7 -12 -1 135.49 86.56 6
12 -7 -1 82.81 75.44 11
7 -12 1 68.63 112.18 11
12 7 1 688.03 453.84 2
7 12 -1 268.83 214.92 10
-7 12 1 82.1 169.33 10
7 12 -1 227.85 126.32 5
12 -7 -1 75.65 173.58 5
-7 -12 -1 166.05 148.75 3
12 7 1 815.47 433.87 5
-7 12 1 80.02 144.84 9
-12 7 -1 31.62 130.96 9
12 7 1 1497.14 596.5 4
-7 12 1 202.59 176.84 16
-12 7 -1 142.32 168.22 8
7 12 -1 192.53 209.28 4
-12 7 -1 73.97 24.86 16
-5 -12 7 17.6 144.88 6
-7 12 5 79.98 145.39 15
-12 -7 5 345.67 246.45 6
12 -7 -5 157.05 120.57 13
-12 -7 5 233.08 256.66 3
-12 -7 5 340.69 345.05 1
12 -7 -5 201.1 69.93 12
12 5 -7 290.76 267.54 5
12 -7 -5 105.9 133.36 5
7 12 -5 264.2 222.32 10
-7 12 5 192.53 176.26 9
-12 -7 5 1.66 138.57 9
7 -12 5 150.46 219.19 14
12 5 -7 142.06 202.22 4
7 12 -5 10.29 100.04 4
-12 -7 5 270.84 237.19 8
12 -7 -5 6.15 52.72 2
12 5 -7 143.43 225.61 2
12 5 -7 133.45 24.11 7
-7 12 5 65.62 106.31 16
7 12 -5 144.47 128.69 7
7 12 -5 94.86 107.12 2
-8 12 -4 45.2 178.84 16
-8 12 -4 122.61 137.92 15
12 8 -4 44.32 4.8 2
-12 8 4 74.64 143.25 15
12 -8 4 149.27 51.42 14
-8 -12 4 327.63 225 6
8 -12 -4 22.86 140.88 13
8 -12 -4 49.78 135.72 12
-8 -12 4 68.01 225.41 3
8 -12 -4 23.26 42.84 6
-8 -12 4 167.27 121.13 11
-8 -12 4 62.41 129.13 1
-8 12 -4 122.72 17.92 10
12 8 -4 27.09 123.97 5
12 8 -4 9.05 37.58 10
-12 8 4 152.37 187.96 9
12 -8 4 157.21 163.25 5
-8 12 -4 24.5 130.48 9
-12 8 4 114.77 129.61 8
-8 -12 4 150.17 121.08 8
12 8 -4 83.04 143.24 4
-8 12 -4 60.01 94.09 7
-12 8 4 238.53 298.1 16
12 8 -4 194.45 220.75 7
12 8 -2 169.48 229.84 7
8 12 2 13.2 213.24 4
-8 12 -2 466.98 284.03 15
8 12 2 191.57 62.06 7
-12 8 2 19.5 117.98 15
12 8 -2 250.34 193.84 2
-8 -12 2 85.98 196.26 6
8 -12 -2 248.95 202.9 13
12 8 -2 125.29 122.18 12
8 -12 -2 99.91 115.03 12
-12 -8 -2 194.88 154.37 6
-8 -12 2 72.81 163.79 3
-8 -12 2 2.4 70.11 11
-12 -8 -2 89.18 104.51 1
-8 12 -2 137.49 194.6 10
12 8 -2 106 161.63 5
-12 8 2 84.86 99.86 10
8 12 2 259.12 190.63 10
-12 -8 -2 69.64 110.3 3
8 12 2 144.56 178.48 2
-12 8 2 10.4 56.24 9
8 12 2 21.42 14.92 5
-8 12 -2 469.75 270.68 9
-12 8 2 117.52 154.19 8
-8 -12 2 2.02 35.46 8
-8 -12 2 3.17 15.46 1
-12 -8 -2 256.74 176.7 8
12 8 -2 135.83 222.85 4
-12 8 2 135.88 148.88 16
-8 12 -2 221.8 100.16 16
12 8 0 180.32 111.83 7
-8 12 0 316.56 182.31 15
8 12 0 527.01 270.47 7
12 -8 0 570.06 252.25 14
8 -12 0 686.16 322.93 12
12 -8 0 602.28 222.06 11
12 8 0 377.1 156.98 2
8 12 0 795.75 356.61 2
8 -12 0 487.19 268.68 11
-8 12 0 664.69 287.67 10
-12 8 0 337.72 132.4 10
-8 -12 0 272.87 220.1 1
8 12 0 163.66 55.08 10
12 -8 0 595.08 258.89 5
12 8 0 441.4 226.11 5
-8 12 0 513.66 222.35 9
-12 8 0 534.96 268.77 9
-12 8 0 261.34 204.09 8
-12 -8 0 148.41 168.83 8
-8 -12 0 129.56 99.56 8
12 8 0 491.8 267.56 4
-8 12 0 371.51 279.37 16
-12 8 0 340.9 279.99 16
12 8 2 120.46 72.17 4
12 8 2 192.35 132.54 7
-8 12 2 118.25 234.05 15
8 -12 2 157 252.85 14
8 12 -2 304.87 271.6 7
8 12 -2 239.87 44.16 2
-12 -8 2 4.98 153.88 6
12 -8 -2 404.76 235.54 13
12 -8 -2 315.65 286.72 12
-8 -12 -2 147.79 55.1 6
8 -12 2 118.38 159.25 11
-12 -8 2 179.24 165.37 11
-12 -8 2 280.44 312.19 3
12 -8 -2 144.17 104.22 5
8 12 -2 132.17 20.64 5
8 12 -2 201.17 168.07 10
-8 12 2 14.31 57.99 10
12 8 2 213.9 284.69 2
-8 -12 -2 187.54 227.41 3
-8 12 2 126.68 147.67 9
12 8 2 25.54 76.06 5
-12 -8 2 47.96 148.67 8
-12 -8 2 29.85 156.04 1
8 12 -2 151.25 239.89 4
-12 8 -2 239.38 203.15 8
-8 -12 -2 247.97 259.38 1
-8 12 2 154.23 231.9 16
-12 8 -4 83.19 34.01 16
-12 8 -4 106.77 119.72 15
8 12 -4 184.75 144.08 2
-8 12 4 415.81 243.48 15
8 -12 4 51.97 31.04 14
-12 -8 4 27.48 125.34 6
12 -8 -4 111.61 94.31 13
12 -8 -4 76.95 77.24 12
-12 -8 4 156.3 212.72 3
8 -12 4 11.01 112.21 11
8 12 -4 3.88 93.91 5
-12 8 -4 61.02 122.69 10
12 -8 -4 68.72 45.17 5
-12 -8 4 246.26 191.56 1
8 12 -4 30.77 132.05 10
-8 12 4 24.28 141.72 10
-8 12 4 33.84 71.54 9
-12 -8 4 2.57 72.68 9
8 12 -4 63.72 105.41 7
-8 12 4 176.96 141.45 8
-12 -8 4 289.68 261.66 8
8 12 -4 144.53 221.38 4
-8 12 4 164.11 180.28 16
-9 12 -3 7.27 178.5 16
12 9 -3 43.02 69.09 7
9 12 3 132.6 118.52 4
-9 12 -3 181.22 217.44 15
-12 9 3 0.77 169.86 15
12 -9 3 183.19 134.72 14
-9 -12 3 124.95 102.85 6
9 -12 -3 60.53 74.27 13
12 9 -3 239.32 140.34 12
9 -12 -3 432.04 272.25 12
-9 -12 3 279.12 148.94 3
-9 -12 3 145.66 63.09 11
-9 12 -3 142.57 80.75 10
12 9 -3 205.79 165.08 5
12 9 -3 31.51 65.39 10
-12 9 3 132.31 109.32 10
12 9 -3 140.44 53.25 2
-12 9 3 115.48 111 9
12 -9 3 116.77 155.31 5
-12 -9 -3 157.01 201.39 1
-12 -9 -3 287.27 313.27 3
-9 -12 3 273.08 243.67 1
-9 12 -3 135.67 171.3 9
9 12 3 102.97 226.62 2
-12 9 3 280.24 208.17 8
-9 -12 3 9.96 175.75 8
12 9 -3 81 108.6 4
-12 9 3 156.65 146.1 16
9 12 3 211.47 200.87 7
12 9 -1 122.4 90.69 7
9 12 1 548.09 266.67 7
-9 12 -1 214.66 194.41 15
-12 9 1 25.24 164.72 15
12 -9 1 329.18 187.32 14
-9 -12 1 395.89 233.53 1
-9 -12 1 0.97 81.89 6
9 -12 -1 300.6 179.86 13
-12 -9 -1 118.44 202.26 6
12 9 -1 623.89 236.72 12
9 -12 -1 316.68 248.19 12
12 9 -1 449.89 314.69 2
12 -9 1 323.88 186.72 11
-9 -12 1 435.79 247.18 11
9 -12 -1 99.73 87.35 5
-9 -12 1 313.9 250.58 3
-9 12 -1 468.99 233.31 10
-12 9 1 210.43 137.88 10
9 12 1 388.24 265.28 2
12 9 -1 310.13 153.2 10
9 12 1 205.67 189.91 10
-12 -9 -1 155.25 216.59 3
12 -9 1 574.84 284.32 5
9 12 1 166.29 139.47 5
-12 9 1 259.24 183.06 9
-9 12 -1 62.23 223.73 9
-12 9 1 308.71 181.86 8
-9 -12 1 132.22 114.13 8
-12 -9 -1 221.58 175.74 8
-12 -9 -1 335.06 233.34 1
-12 9 1 104.45 139.61 16
9 12 1 508.12 289.06 4
-9 12 -1 488.5 307.54 16
9 12 -1 318.07 166.24 7
12 9 1 244.09 130.28 7
-9 -12 -1 25.8 74.39 1
-12 9 -1 258.16 218.53 15
-9 12 1 102.56 74.99 15
-12 -9 1 282.7 249.34 1
9 -12 1 420.55 311.58 14
-12 -9 1 335.32 226.19 6
-9 -12 -1 45.3 52.77 6
9 12 -1 316.33 228.86 2
12 -9 -1 412.01 269.03 12
9 -12 1 417.91 249.01 11
12 -9 -1 249.74 140.97 11
-12 -9 1 245.1 141.73 11
-12 -9 1 219.28 191.85 3
-12 9 -1 159.18 17.26 10
12 9 1 781.85 410.36 2
12 -9 -1 303.08 161.97 5
-9 12 1 170.49 76.69 10
9 12 -1 80.46 74.8 10
9 -12 1 443.31 196.18 5
9 12 -1 511.62 206.04 5
-9 -12 -1 208.11 146.21 3
12 9 1 253.37 188.42 5
-9 12 1 184.83 98.52 9
-12 9 -1 198.38 64.02 9
-9 12 1 321.63 125.06 8
-12 9 -1 92.04 62.13 8
-9 -12 -1 3.54 57.51 8
9 12 -1 149.98 150.41 4
-9 12 1 189.28 223.46 16
12 9 1 501.92 310.31 4
-12 9 -1 225.97 228.94 16
-12 9 -3 45.58 64.4 15
12 9 3 277.23 253.95 4
12 9 3 100.8 191.18 7
-9 12 3 69.6 39.7 15
9 12 -3 454.1 285.01 2
9 -12 3 40.48 127.2 14
-12 -9 3 104.48 31.87 6
12 -9 -3 204.44 271.82 13
-12 9 -3 194.95 167.75 16
12 -9 -3 258.14 159.72 12
9 -12 3 213.69 202.15 11
-12 -9 3 324.22 165.8 11
-12 -9 3 613.68 359.13 3
-12 9 -3 148.92 86.76 10
12 -9 -3 66.02 159.34 5
9 12 -3 245.14 169.55 5
9 12 -3 51.85 140.77 10
-9 -12 -3 8.82 161.41 1
-9 12 3 56.15 150.57 10
-9 12 3 67.86 152.6 9
9 -12 3 62.77 65.55 5
-9 12 3 146.15 206.78 16
-9 -12 -3 218.69 155.21 3
12 9 3 319.16 185.2 5
12 9 3 336.35 277.91 2
-12 -9 3 69.31 142.73 1
-12 9 -3 259.03 230.8 9
-9 12 3 307.01 191.13 8
-12 -9 3 229.75 229.03 8
9 12 -3 180.7 238.44 4
9 12 -3 277.4 245.12 7
-13 1 0 96.79 126.72 16
0 13 -1 23.3 84.05 7
1 13 0 27.13 166.44 7
0 13 1 184.04 165.86 7
0 13 -1 101.79 104.86 15
-13 0 1 62.66 151.56 1
-1 13 0 0.86 26.48 15
1 13 0 27.43 84.71 15
0 13 1 275.09 140.12 15
13 -1 0 106.65 109.49 14
0 -13 -1 81.55 46.71 13
0 -13 1 4.57 89.32 6
-1 -13 0 148.26 172.88 13
13 0 -1 66.8 118.94 13
1 -13 0 55.61 195.45 13
1 -13 0 45.88 114.83 6
-1 -13 0 41.73 109.65 6
-13 -1 0 12.13 104.82 6
-13 0 -1 132.54 127.8 1
0 -13 -1 14.28 72.26 6
13 0 -1 80.08 60.76 2
13 1 0 89.42 188.74 2
0 -13 1 64.45 92.59 11
13 -1 0 101.29 224.65 2
-13 0 1 91.29 113.9 3
-1 -13 0 150.61 166.75 3
0 13 -1 15.81 75.69 10
-13 -1 0 102.78 104.27 1
0 13 1 197.44 129.63 4
-13 1 0 76.37 11.38 3
-1 13 0 43.78 72.38 10
1 13 0 32.92 112.62 10
-13 -1 0 99.09 101.85 3
0 13 1 80.28 48.41 10
13 0 1 19.52 97.5 2
-1 13 0 5.17 114.64 16
13 0 -1 56.66 40.12 5
-13 0 -1 74.49 102.43 3
-13 1 0 61.31 177.86 1
13 -1 0 54.64 202.72 5
13 1 0 34.04 123.44 5
13 0 1 44.68 70.31 5
-13 0 1 14.85 119.28 9
-13 1 0 63.61 112.29 9
-13 -1 0 122.22 145.9 9
-13 0 -1 59.87 151.34 9
-13 0 1 58.66 129.67 8
0 13 -1 155.17 136.11 4
-13 1 0 137.69 223.96 8
-13 -1 0 104.48 159.4 8
-1 -13 0 160.27 169.21 1
-13 0 -1 116.69 158.96 8
13 0 -1 22.66 52.19 4
1 13 0 73.47 148.65 4
13 -1 0 48.07 89.22 4
13 1 0 52.63 116.34 4
0 13 1 29.1 114.75 16
1 13 0 31.16 44.98 16
0 13 -1 94.6 233.82 16
13 0 1 28.39 115.66 4
-2 13 -1 767.01 272.1 7
13 1 2 995.75 303.12 4
2 13 1 855.39 336.89 7
1 13 -2 1133.71 337.53 15
-2 13 -1 718.13 262.17 15
-13 -2 -1 148.14 83.84 1
2 13 1 1373.32 357.23 15
-1 13 2 1095.59 367.32 15
-2 -13 1 837.85 275.21 1
13 -2 1 904.48 264.54 14
-13 1 -2 239.85 166.71 1
-13 -1 2 1019.77 239.51 6
1 -13 2 829.95 350.44 14
-13 2 1 801.52 290.64 1
13 -1 -2 707.83 186.96 2
1 -13 2 1101.8 351.68 6
-1 -13 -2 1231.4 376.52 13
13 -1 -2 1006.58 249.94 13
2 -13 -1 633.95 222.61 13
-2 -13 1 949.81 297.99 6
2 13 1 1165.17 333.41 4
2 -13 -1 846.97 221.06 12
2 -13 -1 729.5 242.11 6
13 2 -1 879.44 304.78 2
-13 -2 -1 288.56 123.18 6
13 -1 -2 784.51 276.7 12
-1 -13 -2 57.77 147.05 6
-2 -13 1 1326.94 305.53 3
-13 -1 2 719.12 231.87 3
1 -13 2 770.38 240.65 11
-2 -13 1 779.94 340.23 11
-13 2 1 820.62 254.97 3
1 13 -2 622.24 241.44 10
-2 13 -1 1016.62 325.81 10
2 13 1 1020.7 354.49 10
13 -1 -2 705.55 338.24 5
-13 -2 -1 83.6 121.04 3
13 -2 1 561.96 187.79 2
13 -2 1 772.94 249.49 5
2 13 1 594.75 175.36 2
-13 2 1 1009.59 364.04 9
13 1 2 589.66 271.34 5
-13 1 -2 299.54 93 3
13 1 2 726.08 269.77 2
-13 -2 -1 287.83 80.47 9
-13 -1 2 1343.47 412.87 1
1 13 -2 1420.63 346.16 4
-13 -1 2 775.19 358.95 8
-13 2 1 1110.36 376.31 8
-13 -2 -1 696.79 283.8 8
-13 1 -2 407.03 253.5 8
13 2 -1 939.18 309.49 4
2 13 1 1065.42 320.29 16
-2 13 -1 1185.4 368.37 16
-13 2 1 1114.39 299.81 16
13 -2 1 1032.54 289.23 4
1 13 -2 967.14 285.92 16
13 2 1 944.52 312.23 4
2 13 -1 1193.64 353.29 7
-13 2 -1 780.54 243.2 16
1 13 2 1373.93 321.61 4
13 -1 2 866.23 285.02 4
-2 13 1 988.64 297.77 7
-13 2 -1 687.81 229.24 15
1 13 2 973.23 333.19 7
2 13 -1 1081.54 336.57 15
-2 13 1 1036.5 307.5 15
1 13 2 1156.34 361.92 15
-1 -13 2 464.22 202.86 14
13 -2 -1 878.21 227.12 14
13 1 -2 823.75 305.84 2
-1 -13 2 1379.81 396.86 6
2 -13 1 1012.95 309.92 6
-2 -13 -1 463.9 276.16 13
1 -13 -2 724.62 365.16 13
-1 -13 2 997.82 292.54 3
2 13 -1 984.52 298.33 2
13 -2 -1 903.42 276.73 2
2 -13 1 1206.94 286.91 12
13 1 -2 1003.28 345.06 12
-13 1 2 949.11 314.83 3
-1 -13 2 837.63 324.49 11
2 -13 1 933.19 360.99 11
-13 -2 1 701.17 235.32 3
-1 13 -2 809.57 320.7 10
2 13 -1 504.21 237.69 10
-2 13 1 1105.32 352.59 10
13 2 1 1197.4 374.78 2
1 13 2 997.6 375.17 10
-2 -13 -1 654.21 207.63 3
13 1 -2 976.59 389.7 5
13 -2 -1 986.92 310.99 5
-13 2 -1 542.21 180.62 3
13 2 1 866.19 325.45 5
-13 1 2 922.51 355.19 9
13 -1 2 821.38 342.5 5
-13 -1 -2 208.24 127.22 3
-13 -2 1 688.15 221.58 9
-13 2 -1 582.91 288.25 9
-13 -1 -2 421.96 226.01 9
13 -1 2 730.91 302.71 2
-1 -13 2 965.07 285.32 1
-1 13 -2 1299.85 275.52 4
-13 1 2 1087.85 331.85 1
-13 1 2 998.46 307.91 8
-13 -2 1 672.6 298.63 8
-13 2 -1 460.07 181.38 8
-13 -1 -2 240.19 169.56 8
13 1 -2 1206.68 356.41 4
-2 -13 -1 420.45 187.07 1
-1 13 -2 1293.06 366.1 15
1 13 2 1069.63 344.95 16
-2 13 1 849.3 353.01 16
-13 1 2 996.92 243.63 16
2 13 -1 946.72 249.07 16
-1 13 -2 1166.14 324.34 7
-1 13 -2 898.75 304.68 16
2 13 -3 610.19 249.96 16
13 3 -2 566.77 226.9 7
3 13 2 668.5 247.88 4
-13 2 -3 316.42 183.72 15
13 -3 2 656.76 266.62 4
2 13 -3 775.17 303.72 2
-13 -2 3 542.89 189.48 6
2 13 -3 671.18 292.21 15
3 13 2 280.69 213.21 7
-3 13 -2 447.04 274.07 15
13 -2 -3 666.63 270.05 2
13 2 3 313.32 188.2 4
-2 13 3 110.02 166.39 7
-13 3 2 404.8 237.3 15
3 13 2 757.32 267.82 15
2 -13 3 720.78 315.14 6
2 -13 3 642.8 306.19 14
-2 13 3 447.33 333.23 16
-3 -13 2 228.95 167.29 14
13 -2 -3 456.72 231.09 13
-3 -13 2 807.31 340.8 6
3 -13 -2 572.79 260.8 13
3 -13 -2 512.33 221.94 12
13 -2 -3 645.12 267.11 12
3 -13 -2 979.91 387.26 6
-13 3 2 430.87 198.21 3
13 3 -2 437.73 288.93 12
-3 -13 2 495.63 254.41 3
-13 -2 3 644.93 326.04 3
-2 -13 -3 49.71 165.71 6
2 -13 3 937.44 343.05 11
-3 -13 2 664.93 342.41 11
2 13 -3 433.41 246.01 10
-3 13 -2 669.3 276.82 10
13 -2 -3 823.08 350.26 5
-3 13 -2 755.1 334.81 7
-13 -2 3 698.87 298.46 1
3 13 2 705.22 294.77 10
-2 13 3 961.96 387.29 10
13 3 -2 496.31 173.5 5
-2 13 3 541.75 215.94 9
-13 -2 3 729.25 272.5 9
-13 3 2 564.83 282.87 9
13 -3 2 299.29 166.13 5
-13 -3 -2 637.11 401.36 3
13 2 3 252.63 172.02 5
-3 13 -2 457.42 220.17 9
-13 2 -3 236.48 184.14 9
-13 -3 -2 9.78 142.99 9
-2 -13 -3 81.88 109.8 3
-13 2 -3 309.51 179.16 3
3 13 2 339.37 173.31 2
-3 -13 2 350.9 170.19 1
2 13 -3 557.88 221.8 4
13 2 3 331.69 106.56 2
-13 -2 3 620.13 329.69 8
13 -2 -3 595.99 252.5 4
-13 3 2 512.65 236.37 1
-13 3 2 456.39 205.83 8
-13 -3 -2 2.16 54.73 1
-13 -3 -2 64.55 204.26 8
13 3 -2 266.88 226.46 4
-13 2 -3 11.14 88.92 8
3 13 2 322.16 211.68 16
2 13 -3 569.54 328.79 7
-13 3 2 585.07 211.87 16
-3 13 -2 495.75 220.99 16
0 13 -3 1507.31 421.64 16
-13 0 -3 560.82 189.32 15
3 13 0 1841.16 464.92 7
-3 13 0 2017.14 407.99 7
0 13 -3 1772.76 432.55 15
13 3 0 1278.49 335.42 7
-13 3 0 1787.95 412.62 15
-3 13 0 2485.22 521.15 15
13 0 -3 1908.5 466.58 2
13 0 3 1333.02 368.91 4
0 13 3 1113.29 359.04 7
0 13 3 1423.79 309.37 4
3 13 0 2247.69 453.82 15
0 13 3 2220.64 508.51 15
0 -13 3 1796.39 372.3 3
0 -13 3 1691.93 474.25 14
13 -3 0 2347 488.48 14
0 -13 3 1840.07 461.76 6
13 0 -3 1397.32 333.18 13
-3 -13 0 1957.91 419.57 13
3 -13 0 2159.08 423.55 6
-3 -13 0 1317.58 427.82 6
-13 -3 0 1820.54 400.55 6
3 -13 0 2262.48 418.4 12
13 0 -3 1798.24 483.06 12
-13 0 3 1848.44 433.85 3
0 -13 -3 390.76 170.95 6
0 -13 3 2199.05 543.67 11
13 3 0 2483.82 548.54 2
3 13 0 1829.08 406.13 2
-13 -3 0 925.3 293.12 1
0 13 -3 1747.64 500.93 10
13 -3 0 1703.03 403.72 2
-3 -13 0 1899.21 420.93 3
-3 13 0 1980.42 506.29 10
13 0 -3 2054.4 511.44 5
-13 0 3 2300.22 476.35 1
3 13 0 1901.23 550.5 10
-13 -3 0 1241.43 394.4 3
0 13 3 1295.26 425.6 10
13 -3 0 2125.49 514.68 5
13 3 0 2174.85 527.82 5
-3 -13 0 798.26 261.77 1
-13 0 3 1872.65 478.47 9
-3 13 0 1953.97 386.06 9
-13 3 0 1501.23 455.48 9
-13 -3 0 1340.97 367.18 9
13 0 3 1804.57 509.17 5
0 13 -3 2116.7 397.51 4
-13 0 -3 525.1 267.72 9
13 3 0 1803.22 470.5 4
-13 0 -3 191.66 218.99 3
-13 0 3 2234.44 561.32 8
0 -13 3 2194.67 417.06 1
-13 3 0 958.25 293.82 1
13 0 -3 2142.93 465.2 4
-13 -3 0 877.96 319.68 8
-13 0 -3 557.61 274.58 8
3 13 0 2557.36 488.25 4
13 -3 0 2793.65 484.89 4
0 13 3 2298.6 516.13 16
0 13 -3 2650.02 559.99 7
3 13 0 2157.35 444.91 16
-3 13 0 1541.47 386.82 16
-13 3 0 1803.67 389.88 16
-2 13 -3 153.22 150.02 16
-13 3 -2 479.62 225.41 16
13 3 2 455.21 251.89 4
-13 3 -2 408.44 227.42 15
-2 13 -3 495.63 295.16 15
2 13 3 349.66 222.12 7
2 13 3 481.76 188.23 4
13 -2 3 268.88 158.22 4
13 2 -3 395.27 168.07 7
13 2 -3 235.85 249.47 2
-3 13 2 527.13 265.89 15
-13 2 3 237.5 158.69 15
-2 -13 3 316.64 118.85 14
3 -13 2 558.19 223.41 6
3 13 -2 603.76 308.36 2
3 -13 2 543.48 293.46 14
-2 -13 3 746.35 331.92 6
13 -3 -2 594.28 233.74 2
-3 -13 -2 151.1 112.9 13
-13 -3 2 673.79 256.36 6
2 -13 -3 66.02 113.89 13
-2 -13 3 647.95 220.64 3
13 -3 -2 710.14 290.37 13
-13 2 3 837.05 313.27 3
13 2 -3 658.65 210.36 12
13 -3 -2 602.51 295.77 12
-3 -13 -2 492.94 322.76 6
2 -13 -3 409.7 272.43 6
-2 -13 3 549.06 309.06 11
3 -13 2 560.34 315.96 11
-13 -3 2 445.74 259.28 3
-2 -13 3 473.09 127.73 1
-2 13 -3 968.81 382.75 10
3 13 -2 771.4 321.95 10
-13 2 3 505.69 229.85 1
13 2 -3 266.27 172.76 5
13 -3 -2 841.64 321.27 5
-3 13 2 572.24 241.05 10
2 13 3 665.69 292.13 10
2 13 3 561.62 225.7 16
-3 13 2 569.83 195.89 9
-13 2 3 721.72 312.96 9
13 3 2 239.72 200.62 2
-3 -13 -2 149.81 112.11 1
-3 -13 -2 593.77 299.81 3
-13 3 -2 420.7 216.72 3
-13 -3 2 440.54 200.4 9
13 3 2 438.77 220.07 5
13 -2 3 427.36 223.17 5
-13 3 -2 645.17 359.14 9
-13 -2 -3 76.06 227.32 3
-13 2 3 799.09 336.24 8
-13 -3 2 400.1 206.93 8
13 -3 -2 708.33 257.76 4
3 13 -2 582.62 224.88 4
13 2 -3 592.33 273.35 4
-13 3 -2 44.32 131.05 8
-13 -2 -3 45.04 124.51 8
-3 13 2 594.46 234.17 7
3 13 -2 531.78 239.2 15
-3 13 2 666.37 313.03 16
-2 13 -3 611.28 239.25 7
-13 2 3 578.29 259.41 16
-13 -2 -3 189.96 178.09 1
3 13 -2 674.95 368.53 7
3 13 -2 442.74 190.46 16
-4 13 -3 173.52 208.99 16
3 13 -4 48.55 110.65 16
3 13 -4 155.36 149.89 15
-4 13 -3 0.57 166.02 15
4 13 3 171.86 88.14 4
4 13 3 72.32 168.51 7
-13 4 3 30.36 72.42 15
13 4 -3 123.16 174.28 2
3 -13 4 26.09 88.92 6
-3 13 4 246.65 172.1 15
-4 -13 3 68.98 102.6 14
3 -13 4 95.3 120.26 14
-4 -13 3 263.29 215.17 6
13 -3 -4 198.22 222.11 13
-13 4 3 71.54 72.51 3
4 -13 -3 111.68 26.38 13
-4 -13 3 31.85 87.71 3
-13 -3 4 10.16 108.12 3
13 -3 -4 63.71 101.06 12
13 4 -3 310.97 262.52 12
4 -13 -3 251.99 178.59 6
-13 -3 4 86.06 91.28 1
3 -13 4 122.63 168.52 11
-4 -13 3 26.55 110.27 11
3 13 -4 69.3 135.28 10
-4 13 -3 2.03 208.46 10
13 -3 -4 13.83 138.61 5
13 4 -3 455.99 262.68 5
-13 4 3 271.35 215.84 1
-4 -13 3 5.59 99.59 1
4 13 3 0.14 47.83 10
-3 13 4 165.31 206.14 10
-3 13 4 79.75 27.09 9
-13 -4 -3 99.16 54.31 1
-13 -3 4 54.11 53.45 9
-13 4 3 15.05 52.52 9
13 -4 3 12.52 48.1 5
-13 -4 -3 169.71 262.15 3
-4 13 -3 31.52 180.47 9
-13 3 -4 143.71 133.28 9
13 -3 -4 92.64 116.56 4
3 13 -4 100.83 138.81 4
-13 -3 4 277.9 229.99 8
-13 4 3 47.33 28.41 8
13 4 -3 407 326.25 4
-13 -4 -3 14.73 35.53 8
13 4 -3 462.89 265.63 7
4 13 3 25.26 81.41 16
-3 13 4 92.64 165.54 16
3 13 -4 161.41 209.96 7
-4 13 -3 21.84 32.52 7
-13 4 3 7.69 50.69 16
3 13 -4 94.86 129.58 2
13 -3 -4 20.7 57.41 2
13 -1 -4 214.29 229.36 2
-4 13 -1 610.58 392.59 7
1 13 -4 71.11 124.67 16
13 4 -1 660.83 319.21 7
4 13 1 79.41 93.86 7
1 13 -4 318.61 198.19 15
-4 13 -1 1110.77 491.58 15
-13 4 1 98.84 99.4 15
4 13 1 201.22 127.71 15
-4 -13 1 288.65 191.15 1
-1 13 4 87.1 169.98 15
1 -13 4 360.07 203.5 6
1 -13 4 108.42 215.78 14
13 -4 1 84.31 29.52 14
-4 -13 1 88.94 79.81 13
-4 -13 1 75.85 244.3 6
-13 -1 4 324.89 234.02 3
4 -13 -1 1750.61 454.23 6
13 4 -1 198.44 252.79 2
4 -13 -1 1087.14 371.18 12
13 -1 -4 138.45 149.97 12
-13 -1 4 265.01 182.1 1
-13 -4 -1 364.74 268.55 6
-13 4 1 173.59 161.44 1
1 -13 4 149.23 159.8 11
-13 4 1 506.26 256.8 3
-4 -13 1 359.07 296.67 3
1 13 -4 280.33 295.88 10
13 -1 -4 23.6 220.58 5
4 13 1 58.62 69.88 10
13 -4 1 229.67 127.59 4
-1 13 4 216.41 173.69 10
4 13 1 78.17 98.4 2
13 4 -1 510.98 288.42 5
-13 -4 -1 689.51 392.23 3
13 -4 1 15.33 91.39 5
-13 -1 4 177.3 108.38 9
-13 4 1 349.56 275.99 9
1 13 -4 245.5 208.53 2
13 -4 1 139.11 158.81 2
-1 13 4 105.6 206.58 16
13 -1 -4 241.1 158.3 4
-13 -1 4 236.54 207.25 8
-13 -4 -1 686.06 357.8 1
-13 4 1 37.28 121.3 8
-13 -4 -1 432.21 333.81 8
13 4 -1 356.78 221.57 4
4 13 1 173.33 187.58 16
4 13 1 277.61 183.97 4
-13 4 1 249.75 148.5 16
-13 4 -1 289.36 229.86 16
4 13 -1 385.38 304.03 7
-1 13 -4 294.5 237.16 16
13 1 -4 360.58 327.53 2
-1 13 -4 203.55 188.87 15
-4 13 1 364.15 251.82 7
-13 4 -1 172.03 237.59 15
-13 -4 1 440.97 326.22 1
13 4 1 257.56 207.76 7
4 13 -1 341.19 204.1 15
-4 13 1 203.93 230.4 15
-1 -13 4 159.28 114.76 1
-1 -13 4 67.72 96.92 14
-1 -13 4 357.96 264.28 6
13 -4 -1 284.46 231.87 14
4 -13 1 211.65 237.18 6
-4 -13 -1 188.37 164.44 13
-13 1 4 167.31 189.59 3
-13 -4 1 469.75 179.53 6
-13 1 4 298.41 198.97 1
13 1 -4 744.02 336.04 12
4 13 -1 411.36 234.11 2
-4 -13 -1 278.42 284.85 6
-4 -13 -1 366.81 181.21 1
4 -13 1 403.13 241.89 12
13 -4 -1 147.81 100.9 2
-1 -13 4 70.97 176.02 11
4 -13 1 499.26 361.15 11
-1 13 -4 134.46 196.57 10
-13 -4 1 393.09 298.14 3
-13 4 -1 259.9 164.53 1
13 1 -4 302.93 277.5 5
4 13 -1 465.78 281.22 10
13 4 1 415.64 250.02 2
-4 13 1 667.05 324.68 10
-13 4 -1 121.73 119.86 3
13 -4 -1 378.13 282.7 5
-4 -13 -1 116.03 111.16 3
1 13 4 186.02 156.04 10
-13 1 4 144.8 105.9 9
-4 13 1 262.68 245.73 9
-13 -4 1 272.37 206.7 9
-13 4 -1 503.17 290.31 9
-13 1 4 37.41 65.36 8
13 1 -4 332.72 274.29 4
-13 -4 1 394.44 287.95 8
-13 4 -1 354.5 209.77 8
13 -4 -1 299.97 177.98 4
4 13 -1 74.72 156.31 4
1 13 4 219.95 184.63 16
-1 13 -4 574.83 290.11 7
-13 1 4 230.67 163.6 16
-4 13 1 235.65 251.38 16
4 13 -1 208.99 186.59 16
13 4 1 238.38 166.37 4
-3 13 -4 179.26 202.84 16
4 13 -3 257.33 169.06 16
13 3 -4 34.52 97.27 2
-13 4 -3 64.41 132.45 15
-3 13 -4 138.69 271.95 15
4 13 -3 33.83 118.55 15
13 4 3 145.54 210.78 4
4 13 -3 104.7 115.73 2
13 -4 -3 35.18 186.75 2
-4 13 3 240.79 222.61 15
-13 3 4 35.79 90.23 15
4 -13 3 136.31 169.91 6
-3 -13 4 60.98 108.7 14
4 -13 3 34.37 137.73 14
-3 -13 4 59.05 171.17 6
-13 -4 3 35.65 90.62 6
-13 3 4 62.47 71.34 3
-3 -13 4 59.18 130.62 3
3 -13 -4 67.75 189.95 13
13 -4 -3 115.32 134.54 13
-3 -13 4 293.41 216.62 1
-13 3 4 7.01 99.41 1
13 3 -4 199.69 174.63 12
13 -4 -3 126.08 125.88 12
-13 -4 3 153.75 282 3
-4 -13 -3 296.92 311.07 6
-3 -13 4 159.33 175.1 11
4 -13 3 392.6 224.77 11
-3 13 -4 738.14 310.94 10
4 13 -3 14.44 124.9 10
13 3 -4 109.3 281.56 5
13 -4 -3 150.75 224.84 5
-4 13 3 186.67 177.79 10
3 13 4 4.62 137.08 10
-13 -4 3 8.16 152.04 1
-4 13 3 160 151.18 9
-13 3 4 166.76 163.19 9
-13 -4 3 194.79 162.4 9
13 4 3 56.98 91.64 5
-13 4 -3 26.4 93.14 9
-4 -13 -3 48.14 147.01 3
-13 4 -3 8.54 129.49 3
13 4 3 59.71 156.31 2
13 -4 -3 83.18 94.02 4
-13 3 4 261.35 231.55 8
-13 -4 3 96.39 205.49 8
4 13 -3 20.68 96.2 4
13 3 -4 3.8 46.25 4
-13 4 -3 21.98 141.31 8
-3 13 -4 32.79 142.74 7
-4 13 3 291.08 194.13 16
-13 3 4 120.13 99.67 16
13 3 -4 439.93 248.21 7
4 13 -3 193.44 182.79 7
4 13 -5 88.54 126.55 15
-5 13 -4 382.3 310.44 15
13 5 -4 251.56 189.48 2
5 13 4 74 67.18 7
-13 -4 5 41.48 110.94 6
-4 13 5 70.79 83.64 15
4 -13 5 7.58 75.33 14
-5 -13 4 112.95 49.82 6
5 -13 -4 278.09 227.24 13
-5 -13 4 28.58 73.76 3
-13 -4 5 125 210.06 1
-13 -4 5 218.32 192.9 3
-13 5 4 13.39 24.64 1
13 5 -4 9.88 60.99 12
13 -4 -5 236.71 186.27 12
-5 -13 4 113.43 178.1 1
4 -13 5 65.21 174.27 11
5 -13 -4 231.5 189.21 6
-5 -13 4 228.02 214.87 11
-5 13 -4 8.3 62.88 16
13 -4 -5 16.81 157.77 5
4 13 -5 254.82 213.9 10
-5 13 -4 77.19 169.12 10
13 5 -4 7.9 42.08 5
-13 -4 5 154.05 206.78 9
-13 5 4 8.06 89.96 9
4 13 -5 111.81 67.2 4
-13 -4 5 253.15 174.3 8
-13 5 4 125.63 65.88 8
13 5 -4 98.69 163.04 4
13 -4 -5 47.64 111.44 2
4 13 -5 20.95 83.51 2
-4 13 5 137.74 198.71 16
-5 13 -4 167.83 194.32 7
4 13 -5 52.11 109.73 7
-13 5 4 66.3 53.3 16
13 5 -4 61.53 104.48 7
13 5 -2 383.93 74.43 7
5 13 2 526.35 249.44 4
13 -5 2 384.48 165.4 4
2 13 -5 192.53 183.85 15
5 13 2 270.1 192.41 7
-5 13 -2 47.18 188.43 15
-13 5 2 469.74 256.73 15
2 -13 5 354.87 227.53 14
13 -5 2 325.63 168.06 14
-13 -2 5 580.8 266.3 1
-5 -13 2 273.1 148.31 14
-13 -2 5 474.69 207.01 3
-5 -13 2 275.75 205.57 6
5 -13 -2 194.1 358.2 13
-13 5 2 626.53 213.41 3
13 -2 -5 582.84 265.14 12
5 -13 -2 338.04 109.05 12
5 -13 -2 83.05 215.66 6
2 13 -5 204.19 81.34 7
13 5 -2 59.87 67.19 12
-13 -5 -2 172.1 181.87 6
2 -13 5 248.35 176.16 11
-5 -13 2 535.33 269.76 3
-5 -13 2 589.42 285.21 11
2 13 -5 156.77 136.15 10
13 -2 -5 336.2 161.93 5
5 13 2 99.6 43.04 10
13 5 -2 256.59 146.17 5
-13 -2 5 573.87 268.36 9
-13 -5 -2 218.53 265.38 1
13 -5 2 277.78 218.29 5
-13 5 2 544.88 318.5 9
-13 -5 -2 315.43 205.49 3
5 13 2 313.16 220.67 2
-5 13 -2 65.64 233.95 9
13 -2 -5 506.49 222.54 4
-13 -2 5 381.92 237.74 8
-5 -13 2 371.73 245.96 1
-13 5 2 390.75 228.8 8
-13 -5 -2 220.79 267.13 8
2 13 -5 418.71 228.35 2
13 5 -2 58.63 224.04 4
13 -2 -5 576.45 231.69 2
5 13 2 502.8 170.75 16
-13 5 2 294.35 104.79 16
-5 13 -2 127.3 224.29 7
5 13 0 400.3 246.61 7
-5 13 0 435.32 162.71 7
0 13 -5 252.85 161.34 15
13 5 0 579.93 253.32 7
-13 5 0 401.13 208.3 15
-5 13 0 662.14 362.37 15
5 13 0 261.28 131.68 15
0 -13 5 153.58 90.97 6
13 -5 0 515.1 166.06 14
-13 0 5 322.45 187.34 3
-5 -13 0 225.86 103.86 13
5 -13 0 598.56 286.07 6
-5 -13 0 279.45 183.52 6
0 -13 5 674.12 349.27 11
13 5 0 417.3 271.9 2
5 13 0 178.13 125.69 2
-13 5 0 422.57 175.71 3
13 0 -5 460.29 335.35 5
-5 -13 0 208.68 144.47 3
-5 13 0 762.37 360.91 10
5 13 0 815.57 358.29 10
13 -5 0 402.69 183 2
-5 -13 0 218.26 114.7 1
13 -5 0 480.81 319.18 5
13 5 0 347.56 207.03 5
-13 0 5 461.28 227.97 9
-5 13 0 647.28 279.69 9
-13 5 0 232.75 163.89 9
-13 -5 0 533.44 253.81 9
13 0 -5 682 305.49 4
-13 0 5 614.55 329.46 8
0 13 -5 398.23 217.73 2
-13 5 0 196.38 159.97 8
0 -13 5 354.54 213.09 1
13 -5 0 518.16 202.9 4
0 13 -5 316.44 201.88 7
13 0 -5 410.61 233.5 2
-13 0 5 468.99 172.76 16
5 13 0 464.7 234.94 4
13 5 0 607.53 226.95 4
-5 13 0 474.16 333.89 16
-13 5 0 123.73 109.22 16
5 13 -2 256.01 79.44 7
-2 -13 5 491.79 248.07 1
-13 5 -2 507.36 253.75 16
-2 13 -5 38.17 168.68 16
13 5 2 132.8 145.42 4
-2 13 -5 300.59 186.72 15
-13 5 -2 191.14 58.93 15
-13 2 5 521.95 253.26 1
5 13 -2 399.67 151.79 15
-5 13 2 313.81 88.85 7
-5 13 2 560.54 289.74 15
-2 -13 5 416.78 216.7 6
-13 2 5 402.98 167.88 3
5 -13 2 203.54 60.25 6
5 -13 2 127.74 114.62 14
5 13 -2 384.47 196.15 2
-13 -5 2 367.23 161.18 6
13 -5 -2 228.96 99.9 2
13 2 -5 284.95 170.83 12
13 -5 -2 297.46 53.38 12
-5 -13 -2 167.14 228.46 6
-2 -13 5 334.69 268.17 11
5 -13 2 308.18 174.27 11
-13 -5 2 569.92 263.93 3
-2 13 -5 290.32 187.06 10
13 2 -5 168.57 66.58 5
-5 -13 -2 45.43 93.11 1
5 13 -2 429.43 143.76 10
13 -5 -2 242.74 109 5
-5 13 2 412.41 202.02 10
13 5 2 130.39 120.67 2
-13 2 5 726.26 299.46 9
-5 13 2 378.5 182.53 9
-5 -13 -2 49.12 108.79 3
-13 5 -2 259.73 115.85 3
13 5 2 350.44 201.57 5
-13 -5 2 423.67 212.94 9
-13 5 -2 154.45 161.35 9
-13 2 5 383.38 198.9 8
13 2 -5 268.99 160.95 4
13 -5 -2 485.72 195.63 4
-13 -5 2 167.44 137.48 1
-13 -5 2 307.66 152.73 8
5 13 -2 411.91 201.55 4
-13 5 -2 83.97 67.76 8
-2 13 -5 351.71 119.11 7
13 2 -5 176.13 101.13 7
-13 2 5 532.53 250.65 16
13 2 -5 444.79 181.46 2
-5 13 2 285.97 173.88 16
-4 13 -5 68.64 227.75 16
5 13 -4 114.65 130.63 2
-13 5 -4 31.04 91.21 15
-4 13 -5 105.48 169.52 15
-13 4 5 18.08 89.69 1
5 13 -4 45.4 76.5 15
-4 -13 5 47.98 99.63 1
-5 13 4 205.73 179.58 15
-4 -13 5 132.87 228.54 6
5 -13 4 113.67 248.49 14
-13 -5 4 245.68 196.07 6
-4 -13 5 300.43 217.27 3
4 -13 -5 33.08 89.94 13
13 -5 -4 91.91 86.61 13
13 4 -5 182.22 216.47 12
13 -5 -4 136.91 210.89 12
-13 -5 4 190.69 128.79 3
-4 -13 5 132.67 236.14 11
5 -13 4 192.03 213.56 11
-5 -13 -4 203.06 269.02 6
-13 -5 4 65.76 160.28 1
-4 13 -5 109.07 68.52 10
13 4 -5 14.72 61.79 5
13 -5 -4 24.32 138.6 5
5 13 -4 143.8 160.84 10
-5 13 4 162.19 160.33 10
-5 13 4 118.77 135.7 9
-13 4 5 53.1 131 9
-13 5 -4 268.75 228.42 9
-13 4 5 139.15 182.45 8
5 13 -4 8.01 27.48 4
13 4 -5 221.88 247.74 4
-13 -5 4 176.63 128.86 8
-4 13 -5 31.87 94.31 7
-13 4 5 32.56 107.35 16
-5 13 4 127.15 161.11 16
13 4 -5 71.11 139.03 7
5 13 -4 152.78 166.09 7
13 -5 -4 116.45 125.72 2
13 4 -5 119.27 162.15 2
13 6 -5 224.61 47.94 2
-6 13 -5 201.62 177.69 16
5 13 -6 44.18 63.34 15
-13 6 5 157.7 94.03 1
-6 13 -5 129.5 174.07 15
-13 6 5 90.26 104.2 15
-13 -5 6 266.61 281.36 1
-6 -13 5 342.54 257.24 6
6 -13 -5 158.15 259.12 13
-13 -5 6 505.15 326.74 3
-6 -13 5 223.8 199.13 1
13 -5 -6 351.25 305.5 12
-6 -13 5 91.37 101.81 11
13 -5 -6 113.46 98.69 5
-6 13 -5 63.31 224.88 10
5 13 -6 199.13 178.09 10
13 6 -5 303.1 195.06 5
-13 -5 6 156.17 151.58 9
-13 6 5 95.22 87.79 9
-6 -13 5 375.26 158.32 8
-13 -5 6 234.63 227.35 8
-13 6 5 281.65 181.27 8
13 6 -5 244.53 93.3 4
13 -5 -6 407.69 191.69 2
5 13 -6 319.83 288.6 2
-6 13 -5 186.47 137.1 7
5 13 -6 58.82 74.52 7
-13 6 5 155.98 172.72 16
13 6 -5 30.86 64.13 7
-6 13 -3 483.55 252.07 16
-6 13 -3 341.15 270.77 15
6 13 3 249.71 155.54 4
-13 -3 6 501.25 307.18 1
6 13 3 231.59 157.63 7
13 -6 3 265.71 133.64 4
-13 6 3 194.82 165.18 15
13 6 -3 430.54 320.54 2
-13 6 3 258.75 148.13 3
-6 -13 3 81.51 66.79 14
13 -6 3 244.11 148.48 14
-13 -3 6 314.56 258.23 3
-6 -13 3 278.61 257.35 6
13 -3 -6 255.52 206.54 12
6 -13 -3 385.74 170.96 12
-6 -13 3 304.91 72.91 3
6 -13 -3 187.34 95.11 6
-6 -13 3 274.57 194.36 11
13 -3 -6 349.33 200.96 5
-6 13 -3 492.49 240.95 10
13 6 -3 454.04 250.32 5
6 13 3 301.61 230.04 10
-13 -3 6 213.43 154.95 9
-6 -13 3 463.69 241.79 1
-13 6 3 49.89 133.77 9
13 -6 3 332.69 181.74 5
-13 -6 -3 34.32 89.43 3
-6 13 -3 303.31 198.72 9
-13 -3 6 492.38 291.18 8
-13 6 3 374.53 231.19 8
13 -3 -6 313.75 211.02 2
13 6 -3 189.74 125.21 4
-13 -6 -3 251.78 214.78 1
-13 -6 -3 86.47 126.75 8
6 13 3 335.06 192.18 16
-6 13 -3 359.27 138.69 7
-13 6 3 380.68 219.21 16
13 6 -3 553.28 265.37 7
-6 13 -1 381.37 139.07 7
-13 -1 6 541.78 286.25 1
1 13 -6 12.32 94.5 15
6 13 1 640.06 315.32 7
-6 13 -1 486.69 329.63 15
-13 -1 6 276.42 110.32 3
13 -6 1 605.76 270.33 14
-6 -13 1 522.39 263.92 1
-6 -13 1 229.83 126.29 14
-6 -13 1 223.51 160.91 13
6 -13 -1 639.56 268.94 6
-6 -13 1 539.01 293.65 6
6 -13 -1 548.13 305 13
13 -1 -6 534.98 271.05 12
-6 13 -1 441.5 141.57 16
6 -13 -1 664.53 251.09 12
-13 -6 -1 417.33 219.92 6
-13 6 1 612.8 208.15 3
13 -1 -6 816.84 350.57 5
-6 -13 1 404.19 224.56 3
1 13 -6 369.51 317.13 10
-6 13 -1 400.55 261.94 10
6 13 1 608.24 260.88 10
6 13 1 538.8 244.32 2
-13 -6 -1 544.1 356.7 3
-13 -1 6 528.45 239.52 9
13 -6 1 490.92 242.02 5
6 13 1 602.75 198.85 5
-13 6 1 203.94 80.46 9
-6 13 -1 472.77 222.21 9
-13 -6 -1 137.13 120.76 9
-13 -1 6 636.19 272.44 8
-13 6 1 718.07 335.9 8
-13 -6 -1 122.59 161.63 8
1 13 -6 477.41 230.96 7
-13 -1 6 517.28 192.44 16
-13 -6 -1 319.22 276.01 1
6 13 1 751.1 304.43 4
-13 6 1 571.69 305.78 16
-13 6 -1 822.98 331.82 16
6 13 -1 749.74 404.69 7
-6 13 1 422.29 198.37 7
-13 6 -1 497.96 264.19 15
13 6 1 241.92 109.68 7
-6 13 1 212.21 131.48 15
-13 -6 1 217.69 117.76 1
-1 -13 6 485.11 258.37 6
6 -13 1 347.95 150.26 6
6 -13 1 424.91 306.69 14
-6 -13 -1 68.01 85.35 1
13 1 -6 293.26 129.15 12
-6 -13 -1 110.96 131.24 6
6 13 -1 798.35 350.71 2
-1 -13 6 340.96 163.19 11
6 -13 1 741.92 337.25 11
13 1 -6 1052.63 423.92 5
-1 13 -6 70.82 263.3 10
13 6 1 540.87 259.37 2
6 13 -1 443.66 172.52 5
-13 6 -1 603.51 209.3 3
-6 13 1 499.72 211.54 10
-6 -13 -1 406.63 293.98 3
-13 1 6 605.4 310.45 9
13 6 1 461.07 238.58 5
-6 13 1 415.96 202.15 9
-13 6 -1 486.61 276.74 9
13 1 -6 638.13 276.6 4
-13 1 6 532 196.3 8
-1 -13 6 613.12 233.54 1
-13 6 -1 454 222.13 8
6 13 -1 972.7 339.47 4
13 1 -6 626.35 244.71 7
-13 1 6 476.4 187.53 16
-13 1 6 258.9 138.92 1
-6 13 1 366.89 214.73 16
13 6 1 779.63 340.06 4
-13 6 -3 428.39 249.28 16
-13 6 -3 275.59 245.47 15
13 6 3 306.77 199.95 4
13 -6 -3 261.14 147.75 2
-6 13 3 376.19 249.69 15
6 13 -3 550.19 269.07 2
6 -13 3 356.19 255.39 14
-13 -6 3 390.12 242.92 6
13 -6 -3 381.44 214.23 13
13 -6 -3 396.02 271.51 12
-6 -13 -3 219.02 150.94 6
-13 -6 3 134.95 156.19 3
6 -13 3 256.21 225.86 11
6 13 -3 200.56 114.01 5
13 3 -6 504.29 291.75 5
6 13 -3 367.24 255.82 10
13 -6 -3 677.02 298.92 5
-6 13 3 545.58 292.94 10
-13 3 6 282.19 195.64 9
-6 13 3 228.97 173.82 9
-13 -6 3 151.16 138.37 9
-13 -6 3 195.02 175.55 1
13 6 3 267.54 173.65 5
-6 -13 -3 23.47 161.85 3
-13 6 -3 380.64 216.45 9
13 -6 -3 398.53 184.51 4
-13 6 -3 191.69 163.53 3
13 3 -6 377.63 306.28 4
-13 3 6 81.44 142.89 8
-13 -6 3 247.58 229.9 8
6 13 -3 403.85 222.68 4
-13 6 -3 132.56 191.96 8
13 3 -6 427.08 221.84 2
-13 3 6 471.74 218.15 1
13 3 -6 299.06 139.71 7
-13 3 6 436.13 222.23 16
6 13 -3 611.64 350.48 7
-5 -13 6 79.84 104.77 1
6 13 -5 362.58 178.27 15
-6 13 5 180.37 121.63 15
-5 -13 6 144.29 60.82 6
-13 -6 5 74.53 133.51 6
6 -13 5 222.5 103.39 14
13 -6 -5 62.12 159.5 13
-13 -6 5 98.65 159.96 3
13 -6 -5 190.58 173.48 12
-13 -6 5 363.35 283.43 1
-5 -13 6 263.21 185.35 11
6 -13 5 93.29 124.76 11
13 -6 -5 247.53 238.58 5
-5 13 -6 233.8 198.5 10
13 5 -6 468.05 263.4 5
6 13 -5 603.83 308.01 10
-6 13 5 240.9 218.32 9
-13 5 6 340.96 240.54 9
-13 -6 5 205.54 185.52 9
-5 -13 6 269.37 177.47 8
-13 5 6 57.23 115.33 8
6 13 -5 139.95 201.21 4
13 5 -6 146.16 68.71 4
-13 -6 5 232.79 192.08 8
-13 5 6 360.47 222.6 1
13 -6 -5 170.01 95.97 2
13 5 -6 242.23 174.3 7
-13 5 6 358.02 225.44 16
-6 13 5 205.98 218.15 16
13 5 -6 151.15 34.74 2
6 13 -5 16.99 31.53 7
6 13 -5 447.4 233.47 2
-7 13 -4 62.76 82.21 15
13 7 -4 158.44 239.52 2
7 13 4 80.87 163.76 7
-13 7 4 12.86 153.06 15
-13 -4 7 35.81 147.92 3
-7 -13 4 57.32 24.66 6
7 -13 -4 44.41 164.52 13
7 -13 -4 53.51 150.37 12
13 7 -4 71.7 34.24 12
-7 -13 4 117.56 140.96 3
7 -13 -4 112 142.84 6
-7 13 -4 53.28 66.56 16
-7 -13 4 349.15 249.81 11
4 13 -7 246.04 243.47 10
-7 -13 4 192.94 201.44 1
-7 13 -4 210.22 208.11 10
13 7 -4 110.68 195.84 5
-13 -4 7 47.73 61.56 9
-13 7 4 134.5 82.8 9
13 -7 4 224.86 128.29 5
-7 13 -4 17.31 59.93 9
-13 -4 7 165.47 233.56 8
-13 7 4 73.81 105.76 8
-7 -13 4 30.98 147.81 8
13 7 -4 251.88 206.04 4
4 13 -7 186.24 197.38 7
-7 13 -4 74.31 38.25 7
-13 7 4 157.21 217.99 16
13 7 -4 35.13 110.76 7
-13 -4 7 176.76 221.49 1
7 13 2 58.2 188.09 4
13 7 -2 208.66 121.91 7
-7 13 -2 54.06 69.94 15
7 13 2 264.28 245.95 7
-13 7 2 70.08 108.19 15
-7 -13 2 150.7 118.74 14
13 -7 2 66.56 168.71 14
-13 7 2 326.75 130.21 3
13 7 -2 192.73 89.49 2
-7 -13 2 261.79 144.23 6
7 -13 -2 71.02 195.73 13
7 -13 -2 210.73 101.3 6
7 -13 -2 304.46 170.53 12
13 7 -2 176.75 165.67 12
-13 -7 -2 163.54 176.91 6
-7 -13 2 252.88 181 3
-7 -13 2 305.67 194.58 11
-7 13 -2 274.94 223.65 10
-13 -7 -2 185.34 83.33 1
13 7 -2 347.47 197.78 5
7 13 2 110.09 85.82 10
-13 -2 7 173.84 176.8 9
-13 -7 -2 32.49 104.32 3
-13 7 2 270.88 231.89 9
7 13 2 121.91 55.54 2
7 13 2 271.5 182.25 5
-7 13 -2 73.93 84.21 9
-13 -2 7 100.89 18.47 8
-13 7 2 183.53 116.46 8
-7 -13 2 132.33 97.99 8
-13 -7 -2 341.94 248.41 8
13 7 -2 32.91 153.09 4
-7 -13 2 275 149.52 1
-13 -2 7 212.23 180.43 1
-13 7 2 59.39 103.99 16
-7 13 -2 159.96 172.5 7
-7 13 -2 240.59 112.15 16
7 13 0 345.92 217.78 7
-7 13 0 3.07 84.02 7
-13 7 0 369.1 150.6 15
-7 13 0 371.65 142.65 15
13 -7 0 240.84 239.56 14
7 -13 0 209.58 153.68 6
-7 -13 0 89.87 147.15 6
-13 -7 0 137.3 141.65 6
7 -13 0 426.75 251.44 12
13 -7 0 246.61 119.75 11
-13 7 0 361.65 143.97 3
13 0 -7 259.8 238.59 5
7 -13 0 232.18 212.04 11
7 13 0 233.2 120.56 2
-7 -13 0 94.78 42.76 3
-7 13 0 264.33 157 10
7 13 0 479.96 265.66 10
-7 -13 0 251.86 235.75 1
13 -7 0 220.38 183.99 5
7 13 0 367.7 190.87 5
-13 0 7 404.03 288.86 9
-7 13 0 345.43 219.67 9
-13 7 0 304 284.27 9
-13 0 7 121.87 71.58 8
13 0 -7 160.79 110.31 2
-13 7 0 392.18 246.86 8
-13 0 7 298.35 183.31 1
-7 -13 0 24.67 25.61 8
7 13 0 288.39 185.26 4
13 7 0 565.95 456.59 4
-7 13 0 490.44 291.27 16
-13 7 0 406.46 264.24 16
7 13 -2 129.09 118.92 7
-13 7 -2 360.23 248.97 16
13 7 2 340.08 235.46 4
13 7 2 583.63 269.33 7
-7 13 2 396.44 234.35 15
-7 -13 -2 128.03 73.55 1
7 -13 2 336.02 178.96 6
7 -13 2 367.75 219.53 14
-13 -7 2 74.53 171.67 6
7 13 -2 380.58 216.18 2
13 -7 -2 130.37 122.97 13
13 -7 -2 90.16 46.63 12
-7 -13 -2 342.32 233.28 6
7 -13 2 244.1 188.54 11
13 2 -7 58.07 157.38 5
13 -7 -2 342.56 163.77 11
-13 -7 2 323.07 207.57 3
7 13 -2 296.17 145.63 5
7 13 -2 297.38 255.39 10
13 -7 -2 374.61 223.38 5
-7 13 2 155.77 28.07 10
-13 2 7 181.55 118.3 9
13 7 2 110.81 129.64 2
-13 7 -2 25.16 68.42 3
-7 -13 -2 135.87 161.3 3
-7 13 2 190.09 100.98 9
13 7 2 73.32 68.47 5
-13 -7 2 122.14 163.65 9
-13 2 7 426.96 266.9 8
-13 -7 2 137.81 36.56 8
13 2 -7 186.54 129.15 2
7 13 -2 498.56 302.09 4
-13 7 -2 95.9 205.51 8
-13 -7 2 293.42 181.69 1
-7 13 2 399.11 217.35 16
-13 7 -4 13.87 77.33 16
-13 7 -4 31.68 162.88 15
7 13 -4 93.95 87.16 2
-4 -13 7 56.84 189.64 6
-7 13 4 134.41 206.13 15
7 -13 4 38.67 106.43 14
-13 -7 4 68.12 78.75 6
13 -7 -4 98.13 127.43 13
13 -7 -4 72.05 187.35 12
-13 -7 4 67.97 148.53 3
7 -13 4 93.59 158.77 11
-7 -13 -4 342.03 283.36 6
13 4 -7 90.24 95.52 5
-13 7 -4 10 78.64 10
13 -7 -4 181.1 211.59 5
7 13 -4 76.76 201.21 10
-13 -7 4 138.07 223.56 1
-7 13 4 162.84 191.78 10
-13 4 7 176.51 238.79 9
-7 13 4 153.31 160.82 9
-13 -7 4 76.48 97.85 9
-13 7 -4 214.46 195.04 9
13 4 -7 6.57 99.56 4
-13 -7 4 217.45 217.89 8
7 13 -4 95.11 203.12 4
13 4 -7 27.96 57.08 2
13 4 -7 11.14 118.75 7
-7 13 4 247.53 221.76 16
7 13 -4 22.92 94.06 7
8 13 1 107.96 36.94 7
-8 13 -1 72.49 38.93 15
13 -8 1 102.83 81.93 14
8 -13 -1 274.48 182.5 6
-8 -13 1 235.35 262.75 1
-8 -13 1 72.2 67.02 6
8 -13 -1 82.52 53.49 13
-13 -8 -1 51.1 63.3 6
8 -13 -1 122.9 45.36 12
13 -8 1 82.68 26.2 11
-8 -13 1 141.72 198.72 11
-8 -13 1 162.32 174.53 3
-8 13 -1 162.79 217.82 10
-13 8 1 167.97 64.37 10
8 13 1 350.39 292.07 2
8 13 1 2.06 17.82 10
-13 -8 -1 22.35 108.32 3
13 -8 1 71.95 136.05 5
8 13 1 159.74 172.79 5
-13 8 1 217.02 84.13 9
-8 13 -1 38.89 153.25 9
-8 -13 1 44.55 106.42 8
-13 -8 -1 114.85 69.31 8
8 13 1 157.97 265.54 4
-8 13 -1 26.86 154.5 16
-13 -8 -1 189.14 132.03 1
8 13 -1 123.62 112.99 7
-13 8 -1 328.47 169.26 15
13 8 1 100.35 109.36 7
-8 13 1 63.46 178.76 15
8 -13 1 164.8 17.1 6
-8 -13 -1 377.62 253.57 1
8 -13 1 315.97 220.6 14
-8 -13 -1 75.05 113.08 6
8 13 -1 360.12 174.89 2
13 -8 -1 228.63 228.06 12
13 -8 -1 71.41 108.87 11
8 -13 1 184.36 194.26 11
-13 8 -1 77.66 116.43 10
13 8 1 340.12 280.55 2
8 13 -1 226.23 154.21 10
-8 13 1 83.2 149.15 10
13 -8 -1 51.8 157.04 5
8 13 -1 171.47 155.99 5
-8 -13 -1 99.74 51.81 3
13 8 1 200.72 147.57 5
-8 13 1 249.31 162.27 9
-13 8 -1 49.86 152.27 9
-13 8 -1 38.53 93.8 8
8 13 -1 475.84 252.08 4
-8 13 1 43.63 44.93 16
13 8 1 17.43 170.54 4
-13 8 -1 214.9 228.63 16
-14 0 0 36.23 77 16
0 14 0 292.65 206.83 7
0 14 0 177.46 174.38 15
14 0 0 84.51 83.79 14
0 -14 0 173.59 247.98 13
0 -14 0 146.54 103.07 6
0 -14 0 82.4 49.14 1
0 -14 0 105.07 129.68 3
14 0 0 7.46 194.2 2
-14 0 0 51.76 165.21 3
0 14 0 639.47 291.07 10
14 0 0 81.75 162.59 5
-14 0 0 5.1 74.66 1
-14 0 0 40.09 210.52 9
-14 0 0 122.87 163.78 8
0 14 0 27.35 34.12 4
14 0 0 2.11 127.78 4
1 14 -1 161.03 155.86 7
1 14 1 129.86 114.36 7
-1 14 1 162.12 98.46 7
-1 14 -1 186.17 206.86 15
-1 14 1 339.3 252.54 15
1 14 1 165.29 168.89 15
-14 -1 -1 136.02 219.82 1
-1 -14 -1 154.99 73.06 13
-14 1 1 136.9 142.26 1
1 -14 -1 278.99 210 13
14 -1 -1 123.76 82.99 13
1 -14 -1 314.55 314.48 6
-1 -14 1 124.04 143.94 1
14 -1 -1 117.92 60.37 2
1 -14 1 102.18 210.04 11
-1 -14 1 110.36 64.02 11
-14 1 1 103.53 125.2 3
-14 -1 1 465.23 232.52 3
-1 14 -1 318.51 267.94 10
1 14 -1 103.66 114.49 10
-1 14 1 144.07 260.17 10
1 14 1 186.97 198.09 10
14 -1 -1 176.68 216.81 5
14 -1 1 142.36 179.46 2
14 -1 1 123.57 61.07 5
14 1 1 106.89 95.53 5
-1 -14 -1 109.87 97.88 1
-14 -1 1 112.05 159.28 9
-14 -1 -1 178.56 224.34 9
-14 1 1 223.46 197.39 8
-14 -1 1 339.29 271.42 8
-14 1 -1 139.52 212.56 8
14 1 -1 107.15 120.01 4
-1 14 1 388.98 142.99 4
1 14 1 138.3 95.95 4
-1 14 1 131.77 199.44 16
14 1 1 262.23 189.72 4
-14 1 1 109.85 100.28 16
2 14 0 151.78 163.76 7
14 0 2 196.61 242.13 4
-2 14 0 169.23 187.41 7
-14 2 0 194.76 162.98 15
14 2 0 263.63 190.35 7
2 14 0 117.74 115.14 15
0 -14 2 114.69 136.78 14
14 0 -2 175.51 134.47 14
14 0 -2 230.59 229.09 2
14 0 -2 129.22 129.73 13
-2 -14 0 133.22 209.65 13
2 -14 0 256.02 207.14 6
2 -14 0 155.02 296.05 13
2 -14 0 114.88 139.48 12
14 0 -2 128.18 208.44 12
-14 0 -2 193.26 154.11 6
0 -14 2 141.45 172.18 11
14 -2 0 184.72 238.09 2
0 14 -2 158.79 262.51 10
-14 -2 0 128.8 118.17 3
0 14 2 116.12 245.7 10
14 0 -2 274.01 288.63 5
14 2 0 105.98 176.74 5
-14 0 -2 145.76 160.02 3
-14 0 -2 115.8 198.23 9
0 14 -2 225.56 161.73 4
0 -14 2 121.92 71.92 1
-14 2 0 120.34 247.84 8
-14 0 -2 130.32 178.02 8
2 14 0 147.46 171.75 16
-2 14 0 248.89 275.37 16
0 14 -2 173.87 143.04 16
0 14 -2 124.02 230.57 7
2 14 2 45.81 140.5 4
14 2 -2 79.13 144.67 7
14 -2 2 111.94 70.43 4
14 2 2 17.95 61.38 4
-14 2 -2 6.63 90.91 15
2 14 2 118.13 110.21 7
-2 14 -2 116.36 146.32 15
-2 14 2 25.65 107.68 7
2 14 -2 3.08 83.39 15
-14 2 2 30 54.13 15
-14 -2 -2 3.04 57.32 1
-2 14 2 155.37 167.86 15
2 14 2 120.13 65.45 15
-2 -14 2 77.28 169.26 14
2 -14 2 23.77 92.48 14
-14 -2 2 57.16 86.22 6
2 -14 2 70.44 23.85 6
2 14 -2 78.6 46.6 2
-2 -14 -2 69.83 54.29 13
-2 -14 2 26 107.67 6
14 2 -2 213.61 46.6 2
2 -14 -2 86.08 66.52 13
14 -2 -2 41.3 125.41 2
14 -2 -2 4.55 116.53 13
-2 -14 2 5.22 67.68 3
2 -14 -2 23.74 90.08 6
-2 -14 -2 215.54 87.43 6
14 2 -2 118.09 132.76 12
14 -2 -2 162.43 177.29 12
-14 2 2 158.69 186.41 3
-14 -2 -2 95.6 21.36 6
-14 -2 2 111.39 194.79 3
2 -14 2 203.82 204.34 11
-2 -14 2 42.9 98.73 11
-2 14 -2 51.88 76.96 10
2 14 -2 43.16 69.06 10
-2 14 2 120.32 200.85 10
2 14 2 162.95 192.2 10
14 2 -2 346.85 279.87 5
-2 -14 -2 53.9 46.07 3
-2 14 2 214.65 186.32 9
-14 2 -2 4.41 111.96 3
-14 -2 -2 230.63 236.63 3
14 -2 2 80.4 45.77 5
-14 2 2 3.51 72.01 9
14 2 2 175.64 241.41 5
-14 -2 2 108.71 148.99 9
14 2 2 41.17 120.28 2
-14 2 -2 17.19 100.22 9
-14 -2 -2 70.06 106.22 9
14 -2 2 64.51 92.25 2
-14 2 2 70.36 105.62 8
2 14 -2 31.41 73.69 4
-14 -2 2 305.38 231.08 8
-2 -14 2 45.51 92.23 1
14 -2 -2 149.98 145.37 4
-14 2 -2 149.26 227.96 8
-14 -2 2 53.56 151.23 1
-14 -2 -2 99.66 168.79 8
14 2 -2 203.6 204.27 4
-14 2 2 165.65 158.94 1
2 14 2 92.78 61.05 16
-2 14 2 81.89 179.9 16
-14 2 -2 86.3 112.14 1
-14 2 2 52.8 94.42 16
-2 14 -2 120.93 103.55 7
-2 14 -2 251.21 209.71 16
2 14 -2 7.07 109.31 7
2 14 -2 14.47 171.48 16
1 14 -3 165.74 82.11 16
-3 14 -1 1.53 146.12 7
-14 1 -3 311.59 183.02 15
3 14 1 292.03 208.26 7
14 3 -1 83.01 76.65 7
1 14 -3 308.37 214.26 15
1 14 -3 405.51 179.32 2
-3 14 -1 340.94 217.66 15
-14 3 1 55.89 31.23 15
-1 14 3 192.43 82.28 7
3 14 1 319.83 161.93 15
-14 -3 -1 32.61 46.84 1
14 -1 -3 219.17 192.08 2
-1 14 3 466.46 256.15 15
-14 -1 3 298.96 139.56 6
14 -3 1 193 106.75 14
1 -14 3 321.26 262.92 14
1 -14 3 416.19 208.75 6
-3 -14 1 146.83 102.88 14
-1 -14 -3 234.18 104.98 13
14 -1 -3 262.75 119.19 13
3 -14 -1 315.43 165.96 13
-3 -14 1 189.25 213.53 6
-3 -14 1 211.41 40.49 13
-3 -14 1 383.66 225.24 1
3 -14 -1 258.93 125.59 6
3 -14 -1 398.63 194.71 12
14 -1 -3 476.7 259.87 12
-14 -3 -1 198.46 58.22 6
14 3 -1 307.89 258.22 2
-14 -1 3 245.09 249.4 3
-14 3 1 133.54 119.26 1
-1 -14 -3 89.01 133.37 6
1 -14 3 456.91 273.21 11
-3 -14 1 408.93 189.66 3
-14 3 1 371.26 160.45 3
-3 -14 1 71.37 177.33 11
1 14 -3 485.48 285.96 10
-3 14 -1 310.63 179.72 10
14 -1 -3 339.18 301.46 5
3 14 1 277.22 192.85 10
-1 14 3 250.63 218.34 10
14 3 -1 173.41 131.06 5
-14 -3 -1 316.61 244.64 3
-14 -1 3 308.87 249.9 1
14 -3 1 334.35 268.65 5
3 14 1 132.28 152.54 2
-14 -1 3 352.95 230.96 9
-14 3 1 219.38 152.99 9
14 1 3 145.29 56.57 5
-3 14 -1 142.75 89.34 9
-1 -14 -3 88.22 92.29 3
-14 -3 -1 108.2 149.1 9
-14 1 -3 123.43 218.01 3
-14 1 -3 273.99 37.74 9
1 14 -3 334.93 177.87 4
-14 -1 3 200.69 195.46 8
14 -1 -3 314.96 235.56 4
-14 3 1 257.47 187.32 8
-14 -3 -1 92.6 136.18 8
-14 1 -3 227.63 232.34 8
14 3 -1 476.18 254.67 4
-1 14 3 261.49 210.87 16
3 14 1 84.8 131.98 16
3 14 1 298.27 117.71 4
14 -3 1 286.97 176.05 4
1 14 -3 540.7 329.49 7
-14 3 1 218.77 169.97 16
-1 14 -3 197.54 222.4 16
-14 3 -1 24.26 47.52 16
3 14 -1 240.79 235.28 7
-3 14 1 294.14 173.13 7
-1 14 -3 271.28 207.59 15
-14 3 -1 264.43 197.29 15
1 14 3 184.4 137.63 4
14 -1 3 210.44 161.83 4
1 14 3 143.6 202.3 7
3 14 -1 406.63 209.88 15
-3 14 1 296.26 182.65 15
14 3 1 183.55 20.48 7
-14 1 3 220.22 170.39 15
14 1 -3 166.28 140.52 2
1 14 3 220.47 175.57 15
-14 -3 1 415.2 276.76 1
-1 -14 3 210.36 145.74 14
14 -3 -1 319.72 167.3 14
-1 -14 3 121.37 95.5 6
-1 -14 3 259.59 177.38 3
3 -14 1 133.04 128.32 14
14 1 -3 249.53 124.92 13
1 -14 -3 327.56 176.29 13
3 -14 1 253.64 119.89 6
-3 -14 -1 193.9 55.85 13
-14 -3 1 187.66 159.49 6
-14 1 3 483.09 179.35 3
-3 -14 -1 251.89 222.04 6
14 1 -3 124.5 16.84 12
3 -14 1 283.94 136.29 12
3 14 -1 248.97 132.96 2
1 -14 -3 148.87 170.89 6
14 -3 -1 72.48 141.58 2
-1 -14 3 421.68 275.99 11
3 -14 1 120.25 116.04 11
-14 -3 1 414.36 258.02 3
-1 14 -3 371.69 210.88 10
-1 -14 3 273.79 164.61 1
3 14 -1 359.72 216.2 10
14 1 -3 245.34 238.92 5
-3 14 1 251.99 211.37 10
-3 -14 -1 148.4 192.76 3
14 3 1 400.02 248.51 2
-14 3 -1 485.12 245.98 3
1 14 3 536.82 310.09 10
14 -3 -1 497.14 288.8 5
-14 1 3 606.41 285.15 1
14 3 1 390.03 288.07 5
-14 1 3 249.76 209.13 9
-3 14 1 314.1 146.88 9
-14 -3 1 144.82 57.99 9
14 -1 3 67.2 81.98 5
-14 3 -1 165.17 181.97 9
-3 -14 -1 37.76 102 1
-14 1 3 255.1 98.78 8
-14 -3 1 162.82 99.01 8
14 1 -3 503.14 269.2 4
-14 3 -1 56.3 144.76 8
3 14 -1 358.21 198.67 4
14 -3 -1 269.53 147.73 4
1 14 3 390.67 253.62 16
-3 14 1 35.85 157.26 16
-14 1 3 314.39 196.59 16
-1 14 -3 426.38 179.61 7
3 14 -1 16.63 120.07 16
14 3 1 325.01 120.88 4
-3 14 -3 423.06 305.98 16
14 3 -3 62.78 151.53 7
3 14 -3 124.95 118.15 16
-14 3 -3 51.07 112.72 15
-3 14 -3 64.77 54.94 15
3 14 -3 86.77 40.03 15
14 3 3 150.62 170.51 4
14 -3 3 185 167.59 4
3 14 -3 89.39 141.34 2
-3 14 3 189.4 184.64 7
-14 3 3 114.35 53.08 15
-3 14 3 56.8 129.67 15
14 -3 -3 86.86 64.71 2
14 3 -3 12.31 144.19 2
3 -14 3 150.61 209.19 6
-3 -14 3 14.24 103.52 14
-14 -3 3 52.11 159.24 6
3 -14 3 136.28 186.64 14
-3 -14 3 47.73 50.35 6
3 -14 -3 117.28 268.28 13
14 -3 -3 30.2 123.49 13
-3 -14 3 108.69 136.3 3
-14 3 3 96.95 134.41 3
14 3 -3 108.25 198.37 12
14 -3 -3 112 156.23 12
3 -14 -3 243.96 176.38 6
-14 -3 3 25.98 141.95 3
3 -14 3 418.7 240.34 11
-3 -14 3 290.3 218.95 11
-14 -3 -3 90.56 81.6 1
-3 14 -3 57.43 99.7 10
3 14 -3 7.14 151.69 10
14 -3 -3 103.95 120.25 5
14 3 -3 148.5 106.05 5
-3 14 3 44.61 143.03 10
-3 -14 3 142.89 183.49 1
-3 14 3 62.9 137.93 9
-14 3 3 60.81 120.79 1
-14 3 3 84.83 149.62 9
-14 -3 3 279.75 182.24 1
-14 -3 3 9.81 29.35 9
14 -3 3 13.17 87.14 5
14 3 3 289.59 267.68 5
-14 -3 -3 68.97 151.18 3
-14 3 -3 43.06 10.64 3
-14 3 -3 70.71 171.31 9
14 3 3 122.85 110.41 2
3 14 -3 43.19 68.7 4
14 -3 -3 147.14 143.64 4
-14 3 3 20.07 85.02 8
-14 -3 3 199.94 176.54 8
14 3 -3 13.51 69.52 4
-14 3 -3 304.78 201.49 8
-14 -3 -3 144.83 132.44 8
-3 14 3 319.07 221.21 16
-14 3 3 246.15 193.62 16
-3 14 -3 68.39 154.13 7
3 14 -3 89.83 116.32 7
2 14 -4 282 145 2
4 14 2 445.97 221.75 4
14 -4 2 168.35 113.95 4
2 14 -4 260.05 244.26 16
14 4 -2 374.89 210.22 7
14 -2 -4 383.43 247.35 2
2 14 -4 55.45 39.89 15
4 14 2 10.29 150.81 7
-4 14 -2 362.18 245.58 15
-14 4 2 27.81 73.79 15
-14 -2 4 136.06 57.2 6
-2 14 4 73.32 114.92 15
2 -14 4 255.15 213.99 6
14 -4 2 199.29 149.22 14
2 -14 4 116.06 103.12 14
-4 -14 2 95.54 183.7 14
14 -2 -4 146.93 167.75 13
-4 -14 2 220.84 216.82 6
4 -14 -2 454.83 310.43 13
4 -14 -2 191.27 153.92 12
-14 -2 4 484.72 305 3
-14 4 2 291.95 121.65 3
4 -14 -2 135.11 157.24 6
14 -2 -4 635.04 301.47 12
14 4 -2 174.4 179.07 12
-4 -14 2 106.31 105.47 3
-14 -4 -2 85.92 57.02 6
2 -14 4 480.38 290.17 11
-2 -14 -4 226.43 115.84 6
-14 -2 4 147.72 157.94 1
-4 -14 2 302.82 213.23 11
2 14 -4 293.46 160.89 10
14 -2 -4 334.06 247.12 5
-4 14 -2 182.79 194.56 10
4 14 2 256.89 174.13 10
14 4 -2 675.82 353.31 5
-2 14 4 223.92 214.51 10
-2 14 4 270.78 141.86 9
-14 -2 4 55.96 165.84 9
-14 -4 -2 36 225.36 3
14 -4 2 326 228 5
-14 4 2 74.92 133.46 9
2 14 -4 223.53 164.6 4
4 14 2 9.54 95.88 2
14 -2 -4 473.53 210.54 4
-14 -2 4 310.9 174.96 8
-14 -4 -2 113.64 168.15 1
-14 4 2 269.78 212.55 8
-14 -4 -2 124.1 88.96 8
14 4 -2 88.76 90.4 4
-4 -14 2 433.13 247.29 1
-2 14 4 457.04 308.02 16
4 14 2 111.6 109.39 16
2 14 -4 99.45 94.94 7
-14 4 2 328.51 178.92 1
-14 4 2 36.85 123.64 16
-4 14 -2 320.16 193.68 7
-4 14 -2 139.42 155.48 16
4 14 0 108.27 148.78 7
-4 14 0 178.98 61.34 7
14 0 -4 151.94 173.36 2
0 14 -4 281.49 239.85 15
14 4 0 115.4 143.04 7
-14 4 0 190.6 166.04 15
4 14 0 129.83 98.48 15
0 -14 4 114.06 142.28 6
14 -4 0 379.52 268.03 14
-4 -14 0 146.78 135.07 13
4 -14 0 207.49 95.98 6
0 -14 4 173.14 154.86 11
-14 0 4 150.3 142.37 1
4 14 0 238.44 200.89 2
-14 4 0 107.95 142.41 3
0 14 -4 118.25 161.64 10
-4 -14 0 204.89 122.64 3
-4 14 0 109.35 170.74 10
-14 -4 0 113.71 147.89 3
14 -4 0 214.44 124.6 2
14 -4 0 162.62 115.79 5
14 4 0 316.49 265.79 5
-4 14 0 226.13 160.65 9
-14 4 0 580.67 311.46 9
-14 -4 0 101.09 173.88 9
-14 0 4 177.03 195.92 8
0 14 4 211.54 230.46 16
-14 4 0 274.21 204.11 16
4 14 -2 374.64 206.32 16
4 14 -2 113.6 108.4 7
-2 14 -4 345.95 163.68 16
-14 4 -2 51.24 59.58 16
14 4 2 134.1 96.1 4
14 2 -4 249.78 162.78 2
-2 14 -4 264.49 192.23 15
-14 4 -2 122.69 87.73 15
-4 14 2 133.41 141.37 7
4 14 -2 90.13 118.91 15
-4 14 2 222.28 207.19 15
-14 2 4 181.02 110.41 15
-2 -14 4 234.01 113.3 14
-2 -14 4 241.61 129.19 3
-2 -14 4 476.82 253.24 6
4 -14 2 218.93 148.58 6
4 -14 2 375.01 230.5 14
2 -14 -4 34.1 164.4 13
-14 -4 2 128.22 97.11 6
-14 2 4 141.15 107 3
4 14 -2 277.38 188.5 2
14 -4 -2 360.46 241.9 13
14 -4 -2 283.07 175.52 2
-2 -14 4 465.44 235.9 1
14 2 -4 298.44 201.17 12
-4 -14 -2 209.85 23.17 6
14 -4 -2 539.28 338.89 12
2 -14 -4 36.52 111.55 6
-14 2 4 266.49 164.47 1
-2 -14 4 126.08 167.55 11
4 -14 2 317.87 204.26 11
-14 -4 2 353.34 290.43 3
-2 14 -4 303.98 257.24 10
-4 -14 -2 58.6 90.83 1
14 2 -4 441.67 307.1 5
4 14 -2 286.98 214.77 10
14 -4 -2 228.23 233.88 5
-4 14 2 399.27 219.66 10
2 14 4 177.49 189.66 10
-4 -14 -2 83.98 214.98 3
-14 4 -2 277.07 192.27 3
-14 2 4 86.65 163.83 9
-4 14 2 346.68 202.31 9
14 4 2 238.18 201.96 2
14 4 2 315.96 255.39 5
-14 -4 2 264.26 166.71 9
-14 4 -2 203.21 94.81 9
-14 2 4 218.1 228.87 8
14 2 -4 220.52 233.86 4
14 -4 -2 146.99 84.01 4
-14 -4 2 14.71 64.21 8
4 14 -2 437.98 236.18 4
-14 4 -2 157.11 162.42 8
-14 -4 2 184.13 102.7 1
2 14 4 317.25 142.1 16
-2 14 -4 370.75 226.67 7
-14 2 4 126.93 122.79 16
-4 14 2 68.62 89.94 16
14 2 -4 210.83 143.2 7
-4 14 -4 456.78 247.81 16
4 14 -4 373.85 231.62 16
14 -4 -4 368.6 155.98 2
-14 4 -4 75.12 71.77 15
4 14 -4 687.71 293.24 2
-4 14 -4 187.82 149.08 15
4 14 -4 265.23 165.13 15
14 4 -4 122.53 134.01 2
4 14 4 230 173.62 7
4 -14 4 573.74 299.56 6
-4 14 4 584.43 322.74 15
-4 -14 4 198.88 146.41 14
-14 -4 4 460.39 242.9 6
4 -14 4 372.3 242.1 14
-14 4 4 454.92 246.3 3
-4 -14 4 676.45 291.41 6
4 -14 -4 369.33 225.86 13
14 -4 -4 364.83 202.19 13
-4 -14 4 136.53 58.24 3
14 4 -4 462.31 219.03 12
-14 -4 4 762.5 373.42 3
14 -4 -4 285.2 213.45 12
-14 4 4 468.56 214.97 1
4 -14 -4 291.96 123.22 6
4 -14 4 496.38 291.84 11
-4 -14 -4 178.39 163.22 6
-4 -14 4 564.38 284.07 11
-4 -14 4 372.52 153.32 1
-4 14 -4 561.87 287.42 10
4 14 -4 642.88 284 10
14 -4 -4 804.17 357.89 5
-14 -4 4 482.18 225.01 1
14 4 -4 43.09 185.84 5
-4 14 4 69.85 177.74 10
4 14 4 30.48 188.94 10
-4 14 4 416.46 192.35 9
-14 4 4 552.48 307.07 9
-14 -4 4 341.11 165.25 9
14 -4 4 145.25 152.26 5
-14 4 -4 16.74 175.81 9
14 -4 -4 479.68 182.88 4
4 14 -4 524.42 260.66 4
-14 4 4 418.83 253.93 8
-14 -4 4 729.8 332.82 8
14 4 -4 283.62 144.64 4
-4 14 4 451.2 251.63 16
-14 4 4 355.75 196.84 16
4 14 -4 352.25 237.7 7
14 4 -4 236.4 75.78 7
-5 14 -3 62.84 114.66 16
14 5 -3 102.39 85.94 7
3 14 -5 77.04 111.47 15
5 14 3 163.25 199.95 4
-5 14 -3 138.63 215.6 15
14 -5 3 75.13 79.01 4
5 14 3 123.18 210.44 7
-14 5 3 31.54 73.12 15
-14 -5 -3 17.74 134.59 1
14 -5 3 155.86 36.96 14
3 -14 5 95.92 165.58 14
-5 -14 3 117.28 157.43 14
14 5 -3 61.27 84.66 2
-14 5 3 75.99 12.92 3
-5 -14 3 42.82 9.69 6
5 -14 -3 203.04 206.77 13
-14 -3 5 197.25 177.47 3
5 -14 -3 101.71 154.91 12
-14 -3 5 138.45 138.45 1
14 -3 -5 184.37 201.29 12
-5 -14 3 29.38 104.76 3
14 5 -3 124.94 111.26 12
5 -14 -3 20.17 75.69 6
3 -14 5 55.38 129.27 11
-14 -5 -3 14.22 37.47 6
-5 -14 3 181.89 229.64 11
14 -3 -5 410.42 255.42 5
3 14 -5 103.94 129.56 10
-5 14 -3 6.76 133.27 10
14 5 -3 211.59 149.91 5
5 14 3 153.67 200.67 10
-14 -3 5 163.05 171.46 9
-14 5 3 31.56 107.33 9
-5 -14 3 162.45 73.1 1
-14 5 3 77.2 123.68 1
14 -5 3 275.82 215.74 5
-14 -5 -3 23.17 45.44 3
3 14 -5 111.55 143.59 4
-5 14 -3 4.44 109.26 9
-14 -3 5 22.21 115.66 8
-14 5 3 27.68 64.71 8
14 5 -3 131.66 154.99 4
-14 -5 -3 98.08 92.17 8
-3 14 5 142.22 146.02 16
5 14 3 135.86 30.86 16
3 14 -5 181.63 197.17 2
3 14 -5 6.51 127.45 7
-14 5 3 185.09 126.4 16
-5 14 -3 191.89 128.89 7
-5 14 -1 35.74 115.02 7
-14 -5 -1 100.18 139.1 1
1 14 -5 0.13 102.11 15
5 14 1 81.87 119.41 7
-5 14 -1 93.9 133 15
-14 5 1 102.54 126.19 15
1 -14 5 63.85 153.17 6
5 14 1 29.33 115.86 15
14 -5 1 216.39 141.06 14
-5 -14 1 125.9 118.48 14
-14 -1 5 36.97 146.17 3
-14 -1 5 97.72 43.27 1
-5 -14 1 88.29 112.61 13
-5 -14 1 29.41 68.13 6
5 -14 -1 276.33 295.12 13
-5 -14 1 30.06 99.75 1
5 -14 -1 200.74 166.19 6
14 -1 -5 29.64 97.04 12
5 -14 -1 201.67 199.67 12
-14 -5 -1 190.47 117.56 6
14 5 -1 146.56 22.67 2
-14 5 1 25.82 97.06 3
1 -14 5 63.48 130 11
-5 -14 1 50.38 39.31 11
-5 -14 1 92.57 175.32 3
1 14 -5 114.85 105.94 10
14 -1 -5 242.86 220.75 5
-5 14 -1 21.88 184.04 10
5 14 1 166.67 96.45 10
-14 5 1 96.79 123.12 1
5 14 1 38.52 112.73 2
14 5 -1 57.41 209.04 5
-14 -5 -1 256.8 146.07 3
14 -5 1 88.23 82.51 5
-14 -1 5 366.68 235.88 9
-14 5 1 25.45 82.13 9
-5 14 -1 9.27 99.7 9
-14 -5 -1 38.36 131.76 9
14 -1 -5 50.63 105.08 4
14 -5 1 77.5 20.46 2
-14 -1 5 114.94 95.94 8
-14 5 1 44.26 146.87 8
-14 -5 -1 17.97 105.16 8
1 14 -5 58.23 96.31 2
14 5 -1 28.77 84.88 4
1 -14 5 129.51 99.25 1
1 14 -5 39.13 6.29 7
14 -5 1 47.13 53.54 4
5 14 1 12.76 24.88 16
5 14 1 77.08 132.31 4
14 -1 -5 80.9 147.78 2
-5 14 -1 154.29 238.16 16
-14 5 1 55.8 78.17 16
-14 5 -1 121.16 161.38 16
5 14 -1 142.89 230.52 7
-1 14 -5 98.11 211.14 16
-1 -14 5 50.46 120.38 1
-1 14 -5 20.35 81.53 15
-5 14 1 33.66 43.87 7
-14 5 -1 79.68 134.68 15
14 5 1 221.45 196.06 7
-5 14 1 58.15 100.79 15
5 14 -1 245.88 160.32 15
-1 -14 5 147.08 107.35 6
-14 1 5 17.92 103.61 3
-14 1 5 45.05 151.26 1
5 -14 1 26.43 50.27 6
14 -5 -1 152.22 208.86 14
5 -14 1 87.21 68.3 14
-5 -14 -1 147.53 143.85 13
-14 -5 1 117.68 33.69 1
-14 -5 1 134.31 96.8 6
-14 5 -1 31.57 46.66 1
14 1 -5 103.35 134.61 12
-5 -14 -1 132.11 179.37 6
5 -14 1 53.64 55.49 12
14 -5 -1 150.78 135.02 12
5 14 -1 74.69 162.28 2
-1 -14 5 123.93 155.23 11
-5 -14 -1 4.45 142.59 1
5 -14 1 85.26 55.27 11
14 -5 -1 14.52 60.48 2
-1 14 -5 82.02 56.86 10
-14 -5 1 95.22 50.6 3
14 1 -5 64.83 65.69 5
5 14 -1 47.29 173.42 10
-14 5 -1 55.75 21.34 3
-5 14 1 191.25 146.68 10
14 5 1 25.78 29.6 2
-5 -14 -1 32.48 156.84 3
14 -5 -1 33.12 78.33 5
-14 1 5 96.9 102.31 9
14 5 1 116.91 90.33 5
-5 14 1 120.25 154.51 9
-14 -5 1 96.45 60.45 9
-14 5 -1 9.15 153.32 9
14 1 -5 142.27 166.75 4
-14 1 5 136.35 194.15 8
-14 -5 1 148.43 49.63 8
14 -5 -1 63.65 71.35 4
-1 14 -5 126.17 140.14 2
-14 5 -1 128.97 247.93 8
5 14 -1 183.71 150.21 4
-1 14 -5 210.68 171.78 7
14 1 -5 6.76 78.53 7
-14 1 5 32.63 100.26 16
-5 14 1 170.24 120.83 16
14 1 -5 394.53 248.83 2
14 5 1 102.78 155.44 4
5 14 -1 51.82 89.06 16
14 3 -5 122.46 119.34 2
5 14 -3 59.83 95.69 16
-3 14 -5 131.03 119.17 16
-14 5 -3 62.74 36.99 16
-3 14 -5 11.06 73.15 15
-14 5 -3 122.15 215.21 15
14 5 3 13.92 127.84 4
5 14 -3 49.72 41.52 15
-5 14 3 187.24 217.24 15
5 -14 3 119.92 102.33 6
-3 -14 5 79.29 106.05 3
5 14 -3 44.98 51.65 2
14 -5 -3 13.68 54.96 2
-3 -14 5 159.57 182.83 6
5 -14 3 202.9 138.74 14
-14 -5 3 66.9 151.32 6
14 -5 -3 39.1 124.94 13
14 3 -5 51.9 134.58 12
14 -5 -3 102.99 208.03 12
-5 -14 -3 112.91 221.86 6
-14 -5 3 50.23 124.83 3
-3 -14 5 86.08 137.56 11
5 -14 3 131.41 90.5 11
-3 14 -5 13.98 78.34 10
14 3 -5 61.45 151.09 5
5 14 -3 145.51 191.86 10
14 -5 -3 170.17 235.83 5
-5 14 3 52.2 178.02 10
-5 14 3 40.87 168.15 9
-14 -5 3 84.44 85.14 9
-5 -14 -3 31.19 143.43 3
14 5 3 224.58 164.72 5
-14 -5 3 190.52 301.73 1
-14 5 -3 206.71 207.82 3
-14 5 -3 90.25 164.94 9
14 5 3 110.67 141.17 2
14 -5 -3 170.77 138.56 4
14 3 -5 89.13 45.52 4
-14 -5 3 210.88 306.67 8
5 14 -3 2.11 43.01 4
-14 5 -3 339.28 204.85 8
-3 14 -5 133.21 132.14 7
-5 14 3 115.27 277.87 16
14 3 -5 51.64 91.27 7
5 14 -3 63.79 76.05 7
14 -6 2 263.88 88.96 4
14 6 -2 432.58 221.88 7
6 14 2 287.57 274.14 7
-6 14 -2 3.09 181.74 15
-14 6 2 122.05 14.17 1
-14 6 2 461.02 248.65 15
-14 -2 6 270.05 218.12 1
14 -6 2 176.73 144.18 14
-6 -14 2 250.82 117.29 14
-14 -2 6 316.61 257.99 3
-6 -14 2 194.25 164.22 6
-14 6 2 316.26 179.07 3
6 -14 -2 129.93 130.95 13
14 6 -2 289.35 219.98 2
-6 -14 2 178.51 119.23 13
14 -2 -6 12.63 143.37 12
6 -14 -2 228.69 182.03 6
6 -14 -2 299.94 204.53 12
14 6 -2 545.78 254.51 12
-6 -14 2 188.4 240.54 3
-6 -14 2 123.59 137.03 11
14 -2 -6 422.7 267.48 5
2 14 -6 85.48 147.02 10
-6 14 -2 192.31 69.17 10
14 6 -2 152.69 163.84 5
6 14 2 200.55 241.73 10
-14 -2 6 147.49 171.31 9
14 -6 2 325.33 190.52 5
-14 -6 -2 198.76 183.37 1
-14 6 2 105.74 120.35 9
6 14 2 266.89 166.97 5
6 14 2 85.91 165.63 2
-6 14 -2 174.15 143.78 9
-14 -2 6 331.02 254.5 8
-14 6 2 21.83 191.5 8
-14 -6 -2 221.32 186.87 8
14 6 -2 281.89 186.01 4
14 -2 -6 189.09 190.79 2
-6 -14 2 53.06 146.38 1
6 14 2 391.01 191.85 16
-14 6 2 41.33 57.46 16
-6 14 -2 333.09 181.68 7
-6 14 -2 292.24 100.17 16
0 14 -6 129.11 235.04 15
6 14 0 338.76 311.63 7
-6 14 0 49.07 108.51 7
14 6 0 24.18 69.36 7
-14 0 6 8.75 142.48 1
-14 6 0 16.41 88.56 15
-6 14 0 35.1 118.95 15
0 -14 6 69 174.29 6
6 14 0 3.53 86.84 15
-14 0 6 64.35 52.48 3
14 -6 0 175.92 225.24 14
-6 -14 0 53.73 53.75 13
6 -14 0 69.66 58.14 6
14 0 -6 103.77 246.76 12
-6 -14 0 175.89 214.29 6
-14 -6 0 291.77 200.71 6
6 -14 0 90.3 49.41 12
0 -14 6 166.04 227.65 11
-14 6 0 21.48 38.32 3
14 6 0 118.98 33.25 2
6 -14 0 98.47 219.63 11
6 14 0 9.12 33.68 2
14 0 -6 155.13 168.38 5
0 14 -6 337.78 221.83 10
-6 -14 0 31.43 79.57 3
-6 14 0 0.92 63.65 10
6 14 0 114.82 89.19 10
-14 -6 0 86.75 84.79 1
6 14 0 50.32 41.68 5
14 -6 0 16.15 56.45 5
14 6 0 11.45 88.93 5
-14 0 6 5.33 123.23 9
14 -6 0 138.51 147.56 2
-6 -14 0 183.19 161.26 1
-6 14 0 62.19 37.27 9
-14 6 0 108.62 66.02 9
14 0 -6 58.83 224.39 4
-14 0 6 54.67 196.36 8
0 -14 6 77.05 107.84 1
-14 6 0 282.91 233.12 8
-14 -6 0 342.69 211.51 8
14 -6 0 125.71 116.85 4
14 0 -6 194 173.31 2
14 0 -6 100.37 133.6 7
0 14 -6 86.45 152.25 7
-14 0 6 225.38 131.44 16
6 14 0 162.07 279.41 4
6 14 0 146.34 70.22 16
-6 14 0 63.11 89.79 16
-14 6 0 85.51 141.15 16
6 14 -2 64.78 108.89 16
6 14 -2 462.83 257.04 7
-14 6 -2 182.59 230.91 16
14 6 2 535.74 268.21 4
-14 2 6 26.05 103.02 1
-2 14 -6 687.95 386.64 15
-14 6 -2 460.22 278.91 15
6 14 -2 251.82 148.88 15
-6 14 2 123.45 126.29 7
-6 14 2 187.98 31.97 15
6 -14 2 168.77 78.09 6
6 -14 2 47.56 82 14
6 14 -2 302.95 217 2
14 -6 -2 131.59 194.67 13
14 2 -6 460.91 260.57 12
14 -6 -2 313.52 145.96 2
14 -6 -2 216.6 44.54 12
-2 -14 6 46.37 27.73 11
6 -14 2 71.35 151.92 11
-6 -14 -2 177.62 199.11 1
14 2 -6 427 291.26 5
-2 14 -6 518.66 359.73 10
6 14 -2 248.78 118.98 5
6 14 -2 67.43 66.62 10
14 -6 -2 94.96 52.03 5
-6 14 2 150.43 76.78 10
-14 6 -2 184.5 84.07 3
-14 2 6 144.83 133.28 9
-6 -14 -2 215.76 106.55 3
14 6 2 58.87 81.88 2
-6 14 2 261.74 204.48 9
14 6 2 194.86 186.32 5
-14 -6 2 272.21 144.56 9
-14 6 -2 265.18 258.32 9
14 2 -6 111.66 114.44 4
-14 2 6 461.16 309.81 8
14 -6 -2 89.03 118.38 4
-14 -6 2 292.54 174.04 8
6 14 -2 279.74 91.96 4
-14 6 -2 146.12 177.26 8
-2 14 -6 676.19 377.34 7
14 2 -6 285.04 180.08 7
14 2 -6 128.51 142.31 2
-14 -6 2 153.99 123.97 1
-14 2 6 171.48 219.03 16
-2 -14 6 348.62 221.77 1
-6 14 2 516.2 242.51 16
0 15 -1 100.13 65.65 7
1 15 0 433.45 203.49 7
-1 15 0 108.43 168.56 7
0 15 1 369.98 209.11 7
-15 0 -1 129.29 112.9 15
-1 15 0 176.87 207.11 15
0 15 1 236.54 174.84 15
15 -1 0 190.39 88.27 14
15 0 -1 252.03 137.03 14
0 -15 1 191.26 144.64 14
-15 0 1 116.51 31.14 6
0 -15 1 323.47 250.44 6
-1 -15 0 224.29 102.45 13
15 0 -1 434.01 218 13
-1 -15 0 35.6 99.82 6
-1 -15 0 20.81 34.69 1
1 -15 0 188.07 111.35 12
0 -15 -1 102.28 69.81 6
0 -15 1 217.04 121.01 3
-15 0 1 157.57 175.88 1
15 0 -1 220.62 211.52 2
-15 0 -1 116.25 131.42 1
-1 -15 0 119.92 103.81 3
15 -1 0 173.4 179.04 2
0 15 -1 198.85 195.34 10
1 15 0 227.94 198.39 10
1 15 0 145.67 157.05 2
15 0 -1 598.13 339.91 5
15 0 1 100.33 104.88 2
15 -1 0 159.98 238.79 5
15 1 0 129.36 105.99 5
15 0 1 256.07 259.11 5
-15 0 1 170.38 162.51 9
-15 1 0 253.29 176.59 9
-15 0 -1 394.56 291.75 9
-15 1 0 249.61 93.56 1
0 15 -1 163.41 96.46 4
-15 1 0 291.41 218.63 8
-15 0 -1 72.71 146.83 8
-1 15 0 161.17 74.7 4
1 15 0 208.64 148.75 4
0 15 1 378.92 191.17 4
15 1 0 115.63 130.86 4
0 15 1 138.47 96.53 16
1 15 0 206.97 147.34 16
0 15 -1 368.75 250.38 16
1 15 -2 1108.08 397.27 7
1 -15 2 1165.98 306.88 1
-2 15 -1 887.19 283.02 7
15 1 2 923.75 349.36 4
-15 1 -2 584.21 225.85 15
2 15 1 846.2 382.82 7
15 2 -1 799.94 272.09 7
-1 15 2 1081.04 402.69 7
1 15 -2 1120.28 381.55 15
-2 15 -1 1205.14 386.5 15
-15 2 1 573.12 245.57 15
2 15 1 1164.19 383.58 15
-1 15 2 1111.4 395.72 15
15 -2 1 764.23 280.58 14
1 -15 2 1020.32 260.02 3
1 -15 2 594.05 313.98 14
15 -1 -2 1035.62 276.45 14
-2 -15 1 517.63 274.99 14
1 -15 2 1163.61 384.89 6
-1 -15 -2 800.84 252.93 13
-15 -2 -1 650.66 312.55 1
-15 1 -2 132.83 166.78 1
15 -1 -2 863.54 242.16 13
2 -15 -1 964.07 438.5 13
-2 -15 1 1258.71 439.8 6
1 15 -2 969.18 331.1 2
-2 -15 1 754.75 361.21 13
15 -1 -2 1047.07 374.75 2
2 -15 -1 974.18 277.53 12
2 -15 -1 846.52 314.31 6
-15 -2 -1 469.53 219.54 6
-1 -15 -2 536.36 333.23 6
15 2 -1 831.34 278.38 2
-15 1 -2 260.66 112.7 6
-2 -15 1 622.14 207.65 3
-15 2 1 736.16 286.01 1
-15 -1 2 981.14 394.58 3
-2 -15 1 593.4 247.41 1
1 -15 2 892.14 387.31 11
-2 -15 1 798.3 348.46 11
1 15 -2 740.25 333.51 10
-2 15 -1 936.16 399.2 10
2 15 1 1014.27 402.71 10
-1 15 2 757.26 333.43 10
15 -1 -2 961.57 354.11 5
-15 -2 -1 185.67 187.83 3
15 2 -1 754.24 363 5
-1 -15 -2 434.23 172.79 3
-15 1 -2 639.79 285.62 3
15 -2 1 760.93 278.02 2
15 1 2 1532.11 491.79 5
-15 2 1 987.11 405.13 9
2 15 1 574.19 254.88 2
15 1 2 789.28 298.29 2
-15 -2 -1 419.67 209.96 9
-15 1 -2 463.51 274.4 9
-2 15 -1 1025.53 246.13 4
-15 -1 2 991.64 387.48 8
-15 2 1 946.81 368.68 8
-15 -2 -1 91.25 148.97 8
-15 1 -2 370.2 233.62 8
15 2 -1 1093.77 355.92 4
-15 -1 2 1088.28 393.91 1
2 15 1 1099.33 340.45 4
-1 15 2 976.43 319.77 16
2 15 1 779.31 325.4 16
-1 15 2 1316.37 308.16 4
-2 15 -1 782.41 339.64 16
1 15 -2 1062.27 365.44 16
-15 2 1 629.15 241.79 16
15 -1 2 1200.35 383.76 4
-15 2 -1 655.27 280.12 16
2 15 -1 1311.26 472.17 7
15 1 -2 724.79 245.76 7
-2 15 1 779.23 269.19 7
-15 2 -1 549.62 220.64 15
1 15 2 814.93 384.61 7
-1 15 -2 1052.33 394.7 15
2 15 -1 1204.25 375.32 15
-2 15 1 986.91 369.2 15
-15 1 2 478.25 218.05 15
1 15 2 941.36 326 15
15 -2 -1 805.35 268.54 14
-1 -15 2 781.35 312.34 14
2 -15 1 654.56 305.02 14
-1 -15 2 791.38 404.8 6
2 -15 1 1184.88 390.78 6
15 1 -2 780.59 249.92 13
-2 -15 -1 356.85 172.68 13
1 -15 -2 825.33 320.37 13
15 1 -2 940.39 384.94 2
-1 -15 2 1121.66 313.96 3
15 -2 -1 990.39 353.77 13
-15 -2 1 662.79 302.48 1
-2 -15 -1 508.33 238.5 6
2 -15 1 1206.8 323.6 12
15 1 -2 837.26 349.66 12
-2 -15 -1 120.95 138.32 1
-15 -1 -2 395.79 156.2 6
-15 1 2 1145.71 374.8 3
-15 -1 -2 327.24 200.45 1
15 -2 -1 1102.83 367.23 2
2 15 -1 961.68 294.15 2
-1 -15 2 1172.51 440.64 11
2 -15 1 1028.82 424.14 11
-15 -2 1 681.92 362.98 3
-1 15 -2 798.03 338.98 10
2 15 -1 1158.11 441.79 10
-2 -15 -1 735.29 235.2 3
-2 15 1 1242.21 454.88 10
-15 2 -1 350.87 145.22 3
1 15 2 859.73 363.26 10
15 1 -2 881.86 364.37 5
15 2 1 1218.13 406.45 2
15 -2 -1 1011.51 372.8 5
1 -15 -2 660.93 229.13 3
15 2 1 1366.35 506.45 5
-15 -1 -2 490.02 273.91 3
15 -1 2 779.24 335.98 5
-2 15 1 1183.54 323.3 9
-15 1 2 895.71 360.99 9
-15 -2 1 1021.85 375.75 9
-15 2 -1 811.96 352.32 9
-15 -1 -2 156.11 104.84 9
15 -1 2 590.87 220.22 2
-1 15 -2 1101.2 282.65 4
-15 2 -1 385.47 224.33 1
-15 1 2 590.28 294.08 8
-15 -2 1 951.22 388.19 8
-15 2 -1 616.62 307 8
2 15 -1 1262.48 337.2 4
-15 -1 -2 405.23 245.97 8
15 1 -2 1181.8 380.76 4
1 15 2 917.34 418.84 16
-2 15 1 1040.17 307.84 16
-1 -15 2 819.85 293.96 1
15 2 1 498.01 217.84 4
-15 1 2 962.13 326.57 16
-1 15 -2 815.26 296.87 16
-15 1 2 840.38 310.95 1
1 15 2 1343.96 340.25 4
-1 15 -2 1021.53 366.01 7
3 15 2 276.79 153.85 4
2 15 -3 372.7 212.95 16
15 -3 2 461.57 219.15 4
15 3 -2 133.59 130.17 7
-15 2 -3 39.8 73.7 15
-2 15 3 150.94 103.82 4
15 2 3 304.81 196.17 4
3 15 2 13.31 83.58 7
2 15 -3 202.88 129.96 15
-3 15 -2 392.05 220.73 15
-2 15 3 7.09 87.3 7
-15 3 2 100.24 113.63 15
-2 15 3 286.89 199.54 15
3 15 2 237.31 143.18 15
2 15 -3 529.3 183.13 2
15 -3 2 175.25 231.47 14
15 -2 -3 384.4 218.44 2
2 -15 3 204.17 98.28 6
2 -15 3 134.22 257.99 14
-3 -15 2 142.58 157.42 14
15 -2 -3 187.89 117.96 13
3 -15 -2 232.74 104.17 13
15 3 -2 257.63 108.39 2
3 -15 -2 265.35 162.39 12
3 -15 -2 242.29 218.1 6
-3 -15 2 445.17 216.1 3
15 -2 -3 163.47 169.31 12
15 3 -2 453.77 282.45 12
2 -15 3 241.76 180.24 11
2 15 -3 465.63 291.11 10
-3 15 -2 314.43 73.72 10
15 -2 -3 215 115.75 5
3 15 2 447.3 220.86 10
-2 15 3 295.94 240.54 10
15 3 -2 38.31 30.96 5
-2 15 3 461.74 243.16 9
15 -3 2 189.01 150.18 5
15 2 3 304.81 274.85 5
-3 15 -2 263.95 194.6 9
-15 -2 3 308.24 214.45 1
2 15 -3 292.96 184.12 4
15 2 3 462.38 325.72 2
-15 -2 3 449.9 242.13 8
15 -2 -3 410.55 205.07 4
-15 3 2 95.69 107.37 8
-15 -3 -2 198.88 174.35 8
15 3 -2 295.54 217.04 4
-15 2 -3 232.79 175.85 8
-2 15 3 105.29 92.45 16
3 15 2 369.55 226.7 16
-15 3 2 249.95 234.74 16
2 15 -3 175.32 122.9 7
-3 -15 2 293.94 185.31 1
-3 15 -2 327.54 223.9 16
-3 15 -2 250.9 108.74 7
-2 15 -3 502.83 283.98 16
3 15 -2 200.46 125.09 7
15 2 -3 60.44 146.67 7
15 3 2 471.34 311.45 4
2 15 3 221.77 77.45 4
-15 3 -2 137.44 89.02 15
-2 15 -3 493.87 245.31 15
-3 15 2 199.64 122.75 7
3 15 -2 224.46 103.51 15
2 15 3 249.16 137.99 7
-3 15 2 582.04 285.73 15
-2 -15 3 317.8 151.01 14
15 2 -3 124.05 76.18 2
3 -15 2 35.41 122.99 14
3 -15 2 127.44 118.44 6
-2 -15 3 278.57 163.38 6
-3 -15 -2 31.35 157.05 13
2 -15 -3 475.98 269.11 13
-2 -15 3 329.33 195.89 3
15 -3 -2 266.37 138.88 13
3 15 -2 137.87 91.37 2
15 -3 -2 290.38 97.69 2
15 -3 -2 390.59 208.98 12
3 -15 2 369.18 242.91 11
-2 15 -3 438.95 254.82 10
3 15 -2 465.19 292.97 10
15 2 -3 247.43 52.15 5
15 -3 -2 245.16 160.41 5
-3 15 2 206.93 139.63 10
2 15 3 248.47 204.8 10
-3 15 2 358.3 175.7 9
-2 -15 3 158.18 150.77 1
15 3 2 367.96 286.28 5
15 3 2 44.14 153.15 2
15 -2 3 138.42 126.19 5
-15 2 3 223.07 183.37 1
-15 2 3 415.65 313.02 8
-15 -3 2 15.37 46.94 8
3 15 -2 324.63 207.54 4
15 -3 -2 323.63 194.25 4
15 2 -3 245.19 156.16 4
-15 3 -2 116.71 141.46 8
-15 -2 -3 123.25 128.5 8
2 15 3 604.48 296.01 16
-15 -3 2 292.85 238.93 1
-3 15 2 159.44 102.96 16
-15 2 3 158.85 155.58 16
-2 15 -3 509.59 244.75 7
3 15 -2 451.82 221.24 16
-15 -2 -3 102.61 103.54 1
0 0 0 0 0 0
-2 14 0 464.43 238 15
-2 -14 0 266.22 287.1 6
-2 14 0 939.47 353.84 10
-14 -2 0 401.95 337.73 8
14 2 0 319.97 279.23 4
10 8 0 478.15 238.68 7
-10 8 0 447.55 186.24 15
-10 8 0 363.32 116.8 16
8 10 0 521.21 247.09 2
-10 8 0 499.02 186.88 10
-8 10 0 623.37 263.03 10
10 -8 0 730.66 286.93 5
8 10 0 526.99 188.3 5
8 10 0 704.51 325.7 4
-8 10 0 476.79 159.68 9
-10 8 0 452.51 224.08 9
8 10 0 449.32 221.91 10
-10 8 0 377.17 121.16 8
10 8 0 409.58 222.18 4
8 10 0 466.21 294.3 7
-8 -10 0 68.18 89.58 1
-8 -10 0 36.93 57.44 3
-8 -10 0 44.11 76.86 6
-1 14 -1 57.77 132.44 7
-14 1 -1 58.5 112.39 16
-14 1 -1 29.69 136.01 15
1 14 -1 75.09 67.35 15
-14 1 1 21.73 55.97 15
14 -1 1 15.19 67.65 14
14 -1 -1 68.86 112.41 14
-14 -1 1 94.57 92.53 1
-14 -1 1 42.71 119.66 6
1 -14 1 61.12 117.02 6
-1 -14 1 19.97 188.44 6
14 1 -1 36.78 136.49 13
-1 -14 -1 64.48 201.26 6
-14 -1 -1 88.82 76.17 6
14 1 -1 26.05 197.45 2
-1 -14 1 17.44 79.36 3
1 14 -1 78.11 122.97 2
-14 1 -1 38.76 135.22 1
-1 -14 -1 12.7 196.26 3
14 1 1 15.57 161.9 2
-14 1 -1 93.03 161.09 3
14 1 -1 34.28 154.96 5
-14 -1 -1 54.53 161.96 3
-14 1 1 22.12 169.52 9
1 14 1 9.55 97.99 2
-14 1 -1 77.07 46.48 9
-1 14 -1 84.26 63.69 4
1 14 -1 90.56 115.31 4
-14 -1 -1 76.7 125.53 8
14 -1 -1 83.47 87.72 4
1 14 1 68.7 197.77 16
14 -1 1 21.49 90.2 4
-1 14 -1 53.6 44.95 16
1 14 -1 23.88 176.96 16
7 -7 0 1178.78 278.56 11
-7 -7 0 627.99 251.42 6
7 7 0 1145.81 343.47 4
7 7 0 1243.05 353.52 2
-7 -7 0 716.4 271.99 1
10 -10 2 739.24 320.99 14
-10 -10 2 140.31 144.72 8
-10 10 -2 355.22 250.73 16
-10 10 2 326.52 187.63 16
10 -10 -2 555.1 284.55 12
-10 10 2 353.77 172.24 10
-10 10 2 379.82 157.04 8
10 10 -2 353.54 246.63 4
10 10 2 453.63 233 4
10 -10 -2 405.06 157.98 5
-10 10 2 493.84 242.08 15
-10 10 2 455.5 229.13 9
-10 10 -2 522.16 256.06 10
10 10 -2 493.6 269.05 7
10 10 -2 106.66 71.59 2
-10 -10 2 16.5 80.61 3
-10 -10 -2 18.99 72.75 1
-10 -10 2 226.17 91.73 1
-10 -10 -2 14.73 93.62 3
10 10 2 119.34 96.12 5
-10 10 -2 185.47 44.79 9
-10 10 -2 15.29 72.54 8
-3 -12 -3 11.92 96.62 6
-12 -3 -3 169.95 56.01 3
-3 -12 -3 56.07 39.32 3
-12 3 -3 38.08 81.84 15
-14 2 0 69.94 137.96 16
0 14 2 33.89 30.24 4
-14 0 -2 5.72 63.96 15
0 14 2 78.73 177.92 7
0 14 -2 73.4 173.85 15
0 14 2 28.32 75.04 15
14 -2 0 7.38 16.83 14
0 -14 2 15.67 42.38 6
0 -14 -2 11.58 75.36 13
0 -14 2 63.02 66.56 3
-14 -2 0 58.61 87.21 6
0 -14 -2 14.09 96.39 6
-14 0 2 6.5 254.3 3
14 2 0 76.16 39.61 2
-2 -14 0 87.91 154.11 3
2 14 0 36.61 98.42 2
-14 2 0 35.24 130.77 3
2 14 0 96.57 108.78 10
-14 0 -2 33.85 194.06 1
-14 -2 0 27.99 91.45 1
14 -2 0 61.13 152.58 5
0 -14 -2 16.88 93.76 3
14 0 2 23.43 124.65 5
-14 0 2 45.03 128.15 9
-14 2 0 34.81 106.38 9
-14 -2 0 32.57 60.13 9
14 0 2 51.13 61.64 2
-14 2 0 68.77 138.59 1
-14 0 2 80.34 213.89 8
-14 0 2 9.86 87.86 1
14 0 -2 97.64 189.32 4
-2 -14 0 78.79 158.31 1
2 14 0 44.6 152.19 4
14 -2 0 20.99 105.04 4
0 14 2 12.95 130.09 16
6 6 -2 1966.92 398.91 7
6 6 -2 1962.54 389.09 2
0 14 -4 71.61 146.37 16
-4 14 0 14.51 111.67 15
0 -14 4 42.29 108.76 14
-14 4 0 60.17 140.47 1
0 -14 4 31.23 48.69 1
-14 0 4 18.17 65.47 3
-4 -14 0 1.08 164.34 6
-14 -4 0 8.51 53.86 6
14 0 -4 40.38 73.39 12
4 -14 0 41.64 105.54 12
0 -14 -4 87.76 67.02 6
14 4 0 38.97 57.05 2
14 0 -4 17.58 110.84 5
4 14 0 42.86 120.43 10
-14 -4 0 9.22 44.07 1
0 14 4 24.85 84.11 10
-14 0 4 97.62 160.4 9
-4 -14 0 52.84 69.66 1
14 0 -4 28.31 136.59 4
-14 4 0 83.88 113.47 8
-14 -4 0 23.45 187.82 8
14 -4 0 89.35 95.27 4
4 14 0 15.41 40.7 4
14 4 0 44.04 130.64 4
-14 0 4 65.86 39.8 16
0 14 -4 76.7 71.45 2
0 14 -4 11.52 112.66 7
4 14 0 60.49 106.6 16
-4 14 0 92.21 195.99 16
5 10 -5 380.58 176.59 10
-5 10 -5 330.93 242.69 10
-9 7 0 965.68 301.97 15
-9 -7 0 736.07 281.43 6
-7 -9 0 758.7 274.61 1
-9 -7 0 906.43 350.98 3
-9 -7 0 670.35 238.82 1
-9 -7 0 905.02 294.29 8
5 -13 0 1009.98 366.12 12
-13 -5 0 2.38 125.24 6
0 13 -5 86.4 195.28 10
-13 -5 0 54.87 154.97 3
-15 0 1 59.6 57.4 16
-15 1 0 43.82 93.8 16
-15 1 0 50.79 105.46 15
0 15 -1 12.83 91.28 15
-15 0 1 227.97 156.85 15
15 1 0 80.15 107.38 7
0 -15 -1 28.76 87.47 13
1 -15 0 92.32 70.81 6
1 -15 0 79.08 274.44 13
-15 -1 0 33.77 108.9 6
-15 0 -1 25.82 61.45 6
0 -15 1 63.08 176.24 11
-15 0 1 2.04 124.95 3
15 1 0 43.67 86.02 2
0 -15 -1 72.2 51.84 3
-15 1 0 85 120.65 3
-15 -1 0 12.61 89.41 3
-1 15 0 57.31 104.85 10
0 -15 1 74.79 128.07 1
0 15 1 73.85 171 10
-15 0 -1 59.38 88.37 3
-15 -1 0 33.05 183.6 1
-15 -1 0 89.45 112.5 9
-15 0 1 89.59 40.71 8
-15 -1 0 90.33 93.29 8
15 0 -1 0.27 164.95 4
15 -1 0 78.96 46.43 4
-1 15 0 71.23 132.02 16
15 0 1 38.39 39.36 4
#BEGIN Loops that were not found in dictionaries:
loop_
_smtbx_masks_void_nr
_smtbx_masks_void_average_x
_smtbx_masks_void_average_y
_smtbx_masks_void_average_z
_smtbx_masks_void_volume
_smtbx_masks_void_count_electrons
1 0.065 -0.190 -0.048 14122.9 808.2
#END Loops that were not found in dictionaries
