#------------------------------------------------------------------------------
#$Date: 2017-12-10 21:25:10 +0200 (Sun, 10 Dec 2017) $
#$Revision: 204138 $
#$URL: file:///home/coder/svn-repositories/cod/cif/7/22/77/7227790.cif $
#------------------------------------------------------------------------------
#
# This file is available in the Crystallography Open Database (COD),
# http://www.crystallography.net/
#
# All data on this site have been placed in the public domain by the
# contributors.
#
data_7227790
loop_
_publ_author_name
'Patyk-Ka\'zmierczak, Ewa'
'Warren, Mark R.'
'Allan, David R.'
'Katrusiak, Andrzej'
_publ_section_title
;
 Pressure inverse solubility and polymorphism of an edible
 \g-cyclodextrin-based metal-organic framework.
;
_journal_issue                   13
_journal_name_full               'Physical chemistry chemical physics : PCCP'
_journal_page_first              9086
_journal_page_last               9091
_journal_paper_doi               10.1039/c7cp00593h
_journal_volume                  19
_journal_year                    2017
_chemical_absolute_configuration rm
_chemical_formula_moiety         'C48 H80 O40, 2(KOH)'
_chemical_formula_sum            'C48 H82 K2 O42'
_chemical_formula_weight         1409.34
_chemical_name_common            '\g-cyclodextrin-metal-organic framework'
_chemical_name_systematic
'catena-((\m8-\g-Cyclodextrin)-di-potassium dihydroxide)'
_space_group_crystal_system      cubic
_space_group_IT_number           211
_space_group_name_Hall           'I 4 2 3'
_space_group_name_H-M_alt        'I 4 3 2'
_symmetry_space_group_name_Hall  'I 4 2 3'
_symmetry_space_group_name_H-M   'I 4 3 2'
_atom_sites_solution_hydrogens   geom
_atom_sites_solution_primary     direct
_audit_creation_date             2017-01-18
_audit_creation_method
;
Olex2 1.2
(compiled 2017.01.04 svn.r3372 for OlexSys, GUI svn.r5289)
;
_cell_angle_alpha                90.0
_cell_angle_beta                 90.0
_cell_angle_gamma                90.0
_cell_formula_units_Z            12
_cell_length_a                   31.2093(7)
_cell_length_b                   31.2093(7)
_cell_length_c                   31.2093(7)
_cell_measurement_reflns_used    3924
_cell_measurement_temperature    295.01(10)
_cell_measurement_theta_max      13.0770
_cell_measurement_theta_min      3.1630
_cell_volume                     30398.5(12)
_computing_cell_refinement       'CrysAlisPro 1.171.38.41 (Rigaku OD, 2015)'
_computing_data_collection       'CrysAlisPro 1.171.38.41 (Rigaku OD, 2015)'
_computing_data_reduction        'CrysAlisPro 1.171.38.41 (Rigaku OD, 2015)'
_computing_molecular_graphics    'Olex2 (Dolomanov et al., 2009)'
_computing_publication_material  'Olex2 (Dolomanov et al., 2009)'
_computing_structure_refinement  'ShelXL (Sheldrick, 2015)'
_computing_structure_solution    'ShelXS (Sheldrick, 2008)'
_diffrn_ambient_environment      'ispropanol:water mother liquor'
_diffrn_ambient_temperature      295.01(10)
_diffrn_detector                 'CCD plate'
_diffrn_detector_area_resol_mean 16.1544
_diffrn_detector_type            Eos
_diffrn_measured_fraction_theta_full 0.881
_diffrn_measured_fraction_theta_max 0.881
_diffrn_measurement_details
;
List of Runs (angles in degrees, time in seconds):

  # Type    Start    End  Width  t~exp~   \w     \q     \k     \f   Frames
--------------------------------------------------------------------------
  1  \w    -68.00  54.00   1.00   15.00    --  -18.72   0.00-150.00  122
  2  \w    -73.00  20.00   1.00   15.00    --  -18.72 -19.00  60.00   93
  3  \w    -40.00   8.00   1.00   15.00    --  -18.72  57.00  60.00   48
  4  \w    -25.00  23.00   1.00   15.00    --  -18.72 -99.00   0.00   48
;
_diffrn_measurement_device       'four-circle diffractometer'
_diffrn_measurement_device_type  'Xcalibur, Eos'
_diffrn_measurement_method       '\w scans'
_diffrn_orient_matrix_type
'CrysAlisPro convention (1999,Acta A55,543-557)'
_diffrn_orient_matrix_UB_11      -0.0147819000
_diffrn_orient_matrix_UB_12      -0.0169933000
_diffrn_orient_matrix_UB_13      -0.0030520000
_diffrn_orient_matrix_UB_21      -0.0171295000
_diffrn_orient_matrix_UB_22      0.0149371000
_diffrn_orient_matrix_UB_23      -0.0001549000
_diffrn_orient_matrix_UB_31      0.0021342000
_diffrn_orient_matrix_UB_32      0.0022125000
_diffrn_orient_matrix_UB_33      -0.0225166000
_diffrn_radiation_monochromator  graphite
_diffrn_radiation_probe          x-ray
_diffrn_radiation_type           MoK\a
_diffrn_radiation_wavelength     0.71073
_diffrn_reflns_av_R_equivalents  0.0938
_diffrn_reflns_av_unetI/netI     0.0227
_diffrn_reflns_Laue_measured_fraction_full 0.881
_diffrn_reflns_Laue_measured_fraction_max 0.881
_diffrn_reflns_limit_h_max       20
_diffrn_reflns_limit_h_min       -20
_diffrn_reflns_limit_k_max       20
_diffrn_reflns_limit_k_min       -20
_diffrn_reflns_limit_l_max       20
_diffrn_reflns_limit_l_min       -20
_diffrn_reflns_number            19855
_diffrn_reflns_point_group_measured_fraction_full 0.905
_diffrn_reflns_point_group_measured_fraction_max 0.905
_diffrn_reflns_theta_full        13.690
_diffrn_reflns_theta_max         13.690
_diffrn_reflns_theta_min         2.769
_diffrn_source                   'fine-focus sealed X-ray tube'
_diffrn_source_type              'Enhance (Mo) X-ray Source'
_exptl_absorpt_coefficient_mu    0.161
_exptl_absorpt_correction_T_max  1.00000
_exptl_absorpt_correction_T_min  0.65227
_exptl_absorpt_correction_type   multi-scan
_exptl_absorpt_process_details
;
CrysAlisPro 1.171.38.41 (Rigaku Oxford Diffraction, 2015)
Empirical absorption correction using spherical harmonics,
 implemented in SCALE3 ABSPACK scaling algorithm.
;
_exptl_crystal_colour            'clear colourless'
_exptl_crystal_colour_lustre     clear
_exptl_crystal_colour_primary    colourless
_exptl_crystal_density_diffrn    0.924
_exptl_crystal_description       cube
_exptl_crystal_F_000             8928
_exptl_crystal_recrystallization_method
'Crystal grown from water solution by isopropanol vapour difussion method'
_exptl_crystal_size_max          0.5
_exptl_crystal_size_mid          0.48
_exptl_crystal_size_min          0.47
_refine_diff_density_max         0.141
_refine_diff_density_min         -0.118
_refine_diff_density_rms         0.027
_refine_ls_abs_structure_details
;
 Flack x determined using 243 quotients [(I+)-(I-)]/[(I+)+(I-)]
 (Parsons, Flack and Wagner, Acta Cryst. B69 (2013) 249-259).
;
_refine_ls_abs_structure_Flack   0.05(7)
_refine_ls_extinction_method     none
_refine_ls_goodness_of_fit_ref   1.092
_refine_ls_hydrogen_treatment    constr
_refine_ls_matrix_type           full
_refine_ls_number_parameters     93
_refine_ls_number_reflns         725
_refine_ls_number_restraints     10
_refine_ls_restrained_S_all      1.131
_refine_ls_R_factor_all          0.0522
_refine_ls_R_factor_gt           0.0485
_refine_ls_shift/su_max          0.000
_refine_ls_shift/su_mean         0.000
_refine_ls_structure_factor_coef Fsqd
_refine_ls_weighting_details
'w=1/[\s^2^(Fo^2^)+(0.0863P)^2^+47.2516P] where P=(Fo^2^+2Fc^2^)/3'
_refine_ls_weighting_scheme      calc
_refine_ls_wR_factor_gt          0.1296
_refine_ls_wR_factor_ref         0.1326
_reflns_Friedel_coverage         0.637
_reflns_Friedel_fraction_full    0.946
_reflns_Friedel_fraction_max     0.946
_reflns_number_gt                663
_reflns_number_total             725
_reflns_threshold_expression     'I > 2\s(I)'
_iucr_refine_instructions_details
;

    cubic2.res created by SHELXL-2014/7

TITL cubic2 in I432 #211
REM reset to I432 #211
CELL 0.71073 31.209316 31.209316 31.209316 90 90 90
ZERR 12 0.000727 0.000727 0.000727 0 0 0
LATT -2
SYMM -Y,+X,+Z
SYMM -X,-Y,+Z
SYMM +Y,-X,+Z
SYMM +X,-Z,+Y
SYMM +X,-Y,-Z
SYMM +X,+Z,-Y
SYMM +Z,+Y,-X
SYMM -X,+Y,-Z
SYMM -Z,+Y,+X
SYMM +Z,+X,+Y
SYMM +Y,+Z,+X
SYMM -Y,-Z,+X
SYMM +Z,-X,-Y
SYMM -Y,+Z,-X
SYMM -Z,-X,+Y
SYMM -Z,+X,-Y
SYMM +Y,-Z,-X
SYMM +Y,+X,-Z
SYMM -Y,-X,-Z
SYMM -X,+Z,+Y
SYMM -X,-Z,-Y
SYMM +Z,-Y,+X
SYMM -Z,-Y,-X
SFAC H C O K
UNIT 984 576 504 24
DFIX 1.5 C4 C3
DFIX 1.5 C5 C6
DFIX 1.45 C11 O4
DFIX 1.45 O4 C4
DFIX 1.45 C1 O5
DFIX 1.5 C1 C2
DFIX 1.5 C11 C12
DFIX 1.45 O13 C13
DFIX 1.5 0.01 C12 C11
DANG 2.5 C11 C4
 
L.S. 100
PLAN  20
BOND
MORE -1
BOND $H
CONF
fmap 2 53
acta 52
ABIN
OMIT 4 5 5
OMIT 10 10 12
OMIT 2 2 4
OMIT 1 3 4
OMIT -1 3 4
OMIT 2 6 6
OMIT 3 3 12
OMIT 0 1 5
OMIT 5 5 12
OMIT 0 10 18
OMIT 2 4 4
OMIT 4 13 13
OMIT 0 5 7
OMIT 6 14 14
OMIT 3 3 8
OMIT 0 5 5
OMIT 0 2 4
OMIT 1 3 12
OMIT 2 2 6
OMIT 0 9 13
OMIT -1 3 12
OMIT 5 5 14
OMIT 0 3 11
OMIT -4 5 17
OMIT 4 5 17
OMIT 4 10 12
OMIT -4 10 12
OMIT 0 1 11
OMIT 6 6 18
OMIT 2 3 5
OMIT 8 10 10
OMIT 0 2 6
OMIT 1 1 6
OMIT -2 3 5
OMIT 0 4 6
OMIT -7 12 13
OMIT 1 9 16
OMIT -1 9 16
OMIT 0 9 17
OMIT 1 1 12
OMIT 0 1 19
OMIT 7 12 13
OMIT 4 4 10
OMIT -7 10 11
OMIT -2 4 6
OMIT -3 13 14
OMIT 0 0 18
OMIT 2 4 6
OMIT 4 8 12
OMIT 7 7 14
OMIT 6 9 9
OMIT -5 12 13
OMIT 0 8 10
OMIT -1 10 17
OMIT 1 10 17
OMIT 2 3 19
OMIT 0 2 16
OMIT 5 5 6
OMIT 7 10 11
OMIT 0 0 16
OMIT 4 4 12
OMIT -2 3 19
OMIT 0 7 17
OMIT 3 7 10
OMIT 0 4 8
OMIT 0 7 19
REM <olex2.extras>
REM <HklSrc "%.\\cubic2.hkl">
REM </olex2.extras>
 
WGHT    0.086300   47.251598
FVAR       0.40543   0.14478
C1    2    0.848846    0.680216    0.627362    11.00000    0.08168
AFIX  13
H1    1    0.842511    0.710937    0.625928    11.00000   -1.20000
AFIX   0
C2    2    0.886118    0.677016    0.654816    11.00000    0.09572
AFIX  13
H2    1    0.880489    0.691392    0.682159    11.00000   -1.20000
AFIX   0
C3    2    0.896284    0.629650    0.662670    11.00000    0.10214
AFIX  13
H3    1    0.903167    0.618953    0.633961    11.00000   -1.20000
AFIX   0
C4    2    0.857998    0.603744    0.675071    11.00000    0.07155
AFIX  13
H4    1    0.852188    0.612766    0.704582    11.00000   -1.20000
AFIX   0
C5    2    0.818511    0.616156    0.651546    11.00000    0.12135
AFIX  13
H5    1    0.824007    0.605031    0.622701    11.00000   -1.20000
AFIX   0
C6    2    0.773525    0.597725    0.661787    11.00000    0.11926
AFIX  23
H6A   1    0.752157    0.609053    0.642266    11.00000   -1.20000
H6B   1    0.773518    0.566703    0.659882    11.00000   -1.20000
AFIX   0
C11   2    0.857678    0.536452    0.718922    11.00000    0.10333
AFIX  13
H11   1    0.857092    0.558266    0.741500    11.00000   -1.20000
AFIX   0
C12   2    0.898988    0.514490    0.722088    11.00000    0.08694
AFIX  13
H12   1    0.900124    0.502216    0.750969    11.00000   -1.20000
AFIX   0
C13   2    0.898850    0.475117    0.690076    11.00000    0.07402
AFIX  13
H13   1    0.898914    0.484669    0.660163    11.00000   -1.20000
AFIX   0
C14   2    0.859279    0.452241    0.700660    11.00000    0.08314
AFIX  13
H14   1    0.860700    0.440696    0.729827    11.00000   -1.20000
AFIX   0
C15   2    0.820106    0.477395    0.694815    11.00000    0.08205
AFIX  13
H15   1    0.818725    0.487495    0.665115    11.00000   -1.20000
AFIX   0
C16   2    0.778935    0.453798    0.705522    11.00000    0.10423
AFIX  23
H16A  1    0.754759    0.472702    0.700607    11.00000   -1.20000
H16B  1    0.775949    0.429355    0.686558    11.00000   -1.20000
AFIX   0
K1    4    0.810226    0.500000    0.810226    10.50000    0.09607    0.14178 =
         0.09607    0.00998    0.04338   -0.00998
O2    3    0.926444    0.694200    0.635381    11.00000   21.00000
AFIX  83
H2A   1    0.943900    0.674735    0.632782    11.00000   -1.50000
AFIX   0
O3    3    0.935025    0.621159    0.686674    11.00000   21.00000
AFIX  83
H3A   1    0.934680    0.596369    0.695374    11.00000   -1.50000
AFIX   0
O4    3    0.860143    0.559161    0.677892    11.00000    0.09005
O5    3    0.812994    0.662221    0.643809    11.00000   21.00000
O6    3    0.765636    0.611208    0.703766    11.00000   21.00000
AFIX  83
H6    1    0.774559    0.593115    0.720599    11.00000   -1.50000
AFIX   0
O12   3    0.939299    0.537318    0.716136    11.00000    0.13826
AFIX  83
H12A  1    0.958549    0.520041    0.711525    11.00000   -1.50000
AFIX   0
O13   3    0.938206    0.449911    0.700449    11.00000    0.10659
AFIX  83
H13A  1    0.931321    0.426010    0.708914    11.00000   -1.50000
AFIX   0
O14   3    0.856346    0.415781    0.667815    11.00000    0.09382
O15   3    0.821935    0.513469    0.722795    11.00000    0.08571
O16   3    0.778175    0.440245    0.746193    11.00000    0.13009
AFIX  83
H16   1    0.782002    0.414259    0.746838    11.00000   -1.50000
AFIX   0
OA    3    1.000000    0.500000    0.664294    10.50000    0.17781
HKLF 4
 
REM  cubic2 in I432 #211
REM R1 =  0.0485 for     663 Fo > 4sig(Fo)  and  0.0522 for all     725 data
REM     93 parameters refined using     10 restraints
 
END  
     
WGHT      0.0861     54.6941 

REM Highest difference peak  0.141,  deepest hole -0.118,  1-sigma level  0.027
Q1    1   1.0000  0.6410  0.6410  10.50000  0.05    0.14
Q2    1   0.7826  0.4565  0.7961  11.00000  0.05    0.13
Q3    1   0.8154  0.6405  0.6408  11.00000  0.05    0.11
Q4    1   0.8585  0.6831  0.6768  11.00000  0.05    0.11
Q5    1   0.7861  0.4618  0.7880  11.00000  0.05    0.11
Q6    1   0.9778  0.5602  0.6822  11.00000  0.05    0.10
Q7    1   0.9623  0.5474  0.6803  11.00000  0.05    0.10
Q8    1   0.8201  0.5617  0.6817  11.00000  0.05    0.09
Q9    1   0.8486  0.5855  0.6648  11.00000  0.05    0.09
Q10   1   0.8978  0.4111  0.6822  11.00000  0.05    0.09
Q11   1   0.6600  0.5000  0.6600  10.50000  0.05    0.09
Q12   1   1.0108  0.5560  0.6584  11.00000  0.05    0.08
Q13   1   0.8429  0.6731  0.6662  11.00000  0.05    0.08
Q14   1   0.8646  0.4996  0.7133  11.00000  0.05    0.08
Q15   1   0.8151  0.5647  0.6945  11.00000  0.05    0.08
Q16   1   1.0030  0.5374  0.6440  11.00000  0.05    0.08
Q17   1   0.9954  0.5558  0.6643  11.00000  0.05    0.08
Q18   1   0.8585  0.6913  0.6948  11.00000  0.05    0.08
Q19   1   0.9684  0.4460  0.6575  11.00000  0.05    0.08
Q20   1   0.8806  0.5149  0.7137  11.00000  0.05    0.08

  REM The information below was added by Olex2.
  REM
  REM R1 = 0.0485 for 663 Fo > 4sig(Fo) and 0.0522 for all 21815 data
  REM n/a parameters refined using n/a restraints
  REM Highest difference peak 0.14, deepest hole -0.12
  REM Mean Shift 0, Max Shift 0.000.

  REM +++ Tabular Listing of Refinement Information +++
  REM R1_all = 0.0522
  REM R1_gt = 0.0485
  REM wR_ref = 0.1326
  REM GOOF = 1.092
  REM Shift_max = 0.000
  REM Shift_mean = 0
  REM Reflections_all = 21815
  REM Reflections_gt = 663
  REM Parameters = n/a
  REM Hole = -0.12
  REM Peak = 0.14
  REM Flack = 0.05(7)

  
;
_cod_data_source_file            c7cp00593h5.cif
_cod_data_source_block           CDMOF_a_295K
_cod_depositor_comments
'Adding full bibliography for 7227776--7227790.cif.'
_cod_original_cell_volume        30399(1)
_cod_database_code               7227790
#BEGIN Tags that were not found in dictionaries:
_shelx_shelxl_version_number     2014/7
_chemical_oxdiff_formula         'C48 H82 K2 O40'
_shelx_space_group_comment
;
The symmetry employed for this shelxl refinement is uniquely defined
by the following loop, which should always be used as a source of
symmetry information in preference to the above space-group names.
They are only intended as comments.
;
_olex2_refinement_description
;
1. Fixed Uiso
 At 1.2 times of:
  All C(H) groups, All C(H,H) groups
 At 1.5 times of:
  All O(H) groups
2. Restrained distances
 C4-C3
 1.5 with sigma of 0.02
 C5-C6
 1.5 with sigma of 0.02
 C11-O4
 1.45 with sigma of 0.02
 O4-C4
 1.45 with sigma of 0.02
 C1-O5
 1.45 with sigma of 0.02
 C1-C2
 1.5 with sigma of 0.02
 C11-C12
 1.5 with sigma of 0.02
 O13-C13
 1.45 with sigma of 0.02
 C12-C11
 1.5 with sigma of 0.01
 C11-C4
 2.5 with sigma of 0.04
3. Others
 Uiso(O2)=Uiso(O3)=Uiso(O5)=Uiso(O6)=FVAR(1)
4.a Ternary CH refined with riding coordinates:
 C1(H1), C2(H2), C3(H3), C4(H4), C5(H5), C11(H11), C12(H12), C13(H13),
 C14(H14), C15(H15)
4.b Secondary CH2 refined with riding coordinates:
 C6(H6A,H6B), C16(H16A,H16B)
4.c Tetrahedral OH refined with riding coordinates:
 O2(H2A), O3(H3A), O6(H6), O12(H12A), O13(H13A), O16(H16)
;
_shelx_fab_file
;
-10 -13 -11 6.7387 7.3173
-9 -15 -10 -7.4809 4.9753
-9 -14 -11 4.9417 13.4857
-9 -13 -12 -2.1011 8.8696
-9 -13 -10 -0.9705 13.6873
-9 -12 -11 -17.3148 19.2062
-9 -11 -10 -3.9998 16.4494
-8 -16 -10 -9.2329 -7.1652
-8 -15 -11 -9.5324 -2.8069
-8 -15 -9 -15.5714 2.1994
-8 -14 -12 -11.7887 5.4970
-8 -14 -10 -8.2284 6.3754
-8 -13 -11 -5.0809 16.7473
-8 -13 -9 -15.3986 -0.6199
-8 -12 -10 -1.8844 19.6590
-8 -11 -9 11.9338 -6.3054
-7 -17 -8 7.3129 6.7657
-7 -16 -11 11.1940 -3.5774
-7 -16 -9 -1.3799 0.3313
-7 -15 -12 0.1423 1.5485
-7 -15 -10 3.2550 -13.4345
-7 -15 -8 -12.4835 6.0404
-7 -14 -13 -2.8271 0.6416
-7 -14 -11 -7.7409 0.2018
-7 -14 -9 -3.4754 -4.6212
-7 -13 -10 -4.8857 7.6116
-7 -13 -8 -1.9505 4.0852
-7 -12 -11 -19.9785 -13.7414
-7 -12 -9 -24.2254 -12.0041
-7 -11 -8 -0.7801 12.6866
-7 -10 -9 -19.1382 -21.7621
-7 -9 -8 12.3516 7.8762
-6 -18 -8 11.3166 -0.8342
-6 -17 -9 0.7550 5.8228
-6 -17 -7 19.3191 -2.1187
-6 -16 -10 2.3092 -17.8112
-6 -16 -8 6.0723 -7.9238
-6 -15 -13 -4.3801 -1.6200
-6 -15 -11 4.5393 -12.2097
-6 -15 -9 5.3648 -12.2434
-6 -15 -7 2.0762 -11.9897
-6 -14 -12 -9.4112 -3.2867
-6 -14 -10 3.1802 -11.5743
-6 -14 -8 -6.8423 -2.9550
-6 -13 -11 -0.1480 -29.0009
-6 -13 -9 20.7927 -12.7283
-6 -13 -7 11.2622 6.5222
-6 -12 -10 6.7295 -23.4241
-6 -12 -8 3.2298 20.4076
-6 -11 -9 12.6620 -26.0602
-6 -11 -7 7.9487 17.3491
-6 -10 -8 -22.7639 3.1742
-6 -9 -7 -9.9416 -8.8542
-5 -19 -6 -20.1239 -6.5843
-5 -18 -9 -6.0271 -1.3935
-5 -18 -7 -7.8373 -7.5776
-5 -17 -10 -5.3475 -3.4634
-5 -17 -8 3.7830 3.4646
-5 -17 -6 23.7341 4.9925
-5 -16 -11 -5.2450 -4.2670
-5 -16 -9 -8.5266 -15.0176
-5 -16 -7 4.4301 -24.5538
-5 -15 -12 4.6654 -9.4127
-5 -15 -10 2.8816 -12.5045
-5 -15 -8 4.1592 2.5548
-5 -15 -6 -12.6026 -18.0456
-5 -14 -13 -7.9578 4.7384
-5 -14 -11 -1.0648 -10.8350
-5 -14 -9 -17.1376 -6.7456
-5 -14 -7 -26.0381 -30.4497
-5 -13 -12 4.7710 5.7733
-5 -13 -10 5.4055 -18.7892
-5 -13 -8 1.1174 18.9870
-5 -13 -6 10.4735 -18.6147
-5 -12 -11 -17.4092 -8.2422
-5 -12 -9 -5.7039 -6.1267
-5 -12 -7 16.5649 -2.1319
-5 -11 -10 0.6044 -8.8390
-5 -11 -8 9.6832 13.2755
-5 -11 -6 12.2114 -21.1342
-5 -10 -9 5.9243 0.6105
-5 -10 -7 -35.9898 -5.0953
-5 -9 -8 -0.3601 4.4115
-5 -9 -6 13.1286 -14.4284
-5 -8 -7 28.5737 -7.0959
-5 -7 -6 0.2604 19.2499
-4 -19 -7 -4.5221 16.1727
-4 -19 -5 -6.6250 10.4613
-4 -18 -8 1.5474 5.5705
-4 -18 -6 -1.5913 11.6890
-4 -17 -11 -10.6600 3.7231
-4 -17 -9 2.5268 14.3010
-4 -17 -7 17.1604 5.1557
-4 -16 -12 3.8446 -8.1278
-4 -16 -10 -2.4192 -1.5305
-4 -16 -8 1.8940 7.1645
-4 -16 -6 -6.4412 3.5760
-4 -15 -13 17.5845 -9.5566
-4 -15 -11 11.8671 -19.6850
-4 -15 -9 2.5043 3.7538
-4 -15 -7 3.3727 -0.9886
-4 -15 -5 17.7804 2.6589
-4 -14 -12 9.7944 21.2648
-4 -14 -10 -7.0997 4.5035
-4 -14 -8 -5.8884 23.1648
-4 -14 -6 -0.8085 -30.8345
-4 -13 -11 35.1937 4.0658
-4 -13 -9 16.3081 -8.9258
-4 -13 -7 14.5242 12.8855
-4 -13 -5 7.2184 11.7861
-4 -12 -6 26.4856 -23.7888
-4 -11 -9 56.4088 13.0527
-4 -11 -7 14.2083 -8.7163
-4 -11 -5 19.8778 21.1712
-4 -10 -8 0.4996 12.0556
-4 -10 -6 -9.5090 -52.8137
-4 -9 -7 -10.8901 -4.6806
-4 -9 -5 4.0042 -6.4373
-4 -8 -6 78.2208 5.6611
-4 -7 -5 -2.9187 7.5857
-3 -19 -6 -8.5063 4.0093
-3 -19 -4 -15.6795 -8.6707
-3 -18 -9 0.0700 -10.7808
-3 -18 -7 -0.3498 -5.2596
-3 -18 -5 -4.7444 17.1234
-3 -17 -10 -2.6217 -2.2402
-3 -17 -8 10.8068 6.3045
-3 -17 -6 0.2395 3.8612
-3 -17 -4 -1.1371 39.8669
-3 -16 -11 3.5485 -17.6348
-3 -16 -9 -11.5476 -0.6315
-3 -16 -7 -19.3124 -27.1952
-3 -16 -5 22.9995 18.5201
-3 -15 -14 -11.7182 -3.7555
-3 -15 -12 2.4394 -13.9028
-3 -15 -10 -8.4223 -13.0209
-3 -15 -8 -4.1454 10.8222
-3 -15 -6 3.2862 27.8465
-3 -15 -4 -10.9780 17.6704
-3 -14 -13 -11.2917 0.9420
-3 -14 -11 -12.6549 21.8333
-3 -14 -9 -31.5802 -7.4226
-3 -14 -7 -11.0566 -39.4777
-3 -14 -5 -0.1625 -12.6916
-3 -13 -12 -18.4745 16.5555
-3 -13 -10 -1.7498 1.1283
-3 -13 -8 -5.6789 19.8089
-3 -13 -6 -23.2194 -17.0800
-3 -13 -4 -55.6880 36.9301
-3 -12 -11 -12.5744 29.1667
-3 -12 -9 26.6951 18.4484
-3 -12 -7 -12.0793 0.3904
-3 -12 -5 11.7733 -5.8833
-3 -11 -10 18.6274 -9.4236
-3 -11 -8 21.0796 2.3890
-3 -11 -6 -16.2759 -9.3138
-3 -11 -4 -9.3280 32.3706
-3 -10 -9 15.2400 48.5607
-3 -10 -5 -72.2942 24.6505
-3 -9 -8 18.3016 -10.9280
-3 -9 -6 -12.6107 3.3134
-3 -9 -4 -37.1058 4.8264
-3 -8 -7 -10.2137 14.6046
-3 -8 -5 -12.6589 -4.5924
-3 -7 -6 23.9400 27.6387
-3 -7 -4 -29.9706 -26.7316
-3 -6 -5 -49.2171 -28.6561
-3 -5 -4 29.3403 -12.6730
-2 -20 -4 -4.3552 -9.2136
-2 -19 -7 6.0846 -9.7519
-2 -19 -5 7.4017 12.1065
-2 -18 -10 -6.1653 5.4514
-2 -18 -8 -0.7709 -18.2898
-2 -18 -6 -1.4605 -14.7185
-2 -18 -4 -2.1433 16.8876
-2 -17 -11 0.9592 4.6806
-2 -17 -9 -12.6894 -8.7215
-2 -17 -7 7.3588 -19.9457
-2 -17 -5 34.3402 16.0845
-2 -17 -3 -19.2859 21.7941
-2 -16 -12 7.5778 6.2269
-2 -16 -10 -32.4597 -11.3343
-2 -16 -8 -0.7338 -4.3530
-2 -16 -6 3.7661 9.7425
-2 -16 -4 -8.3844 28.7446
-2 -15 -13 7.8444 -13.0842
-2 -15 -11 -14.5316 -8.3247
-2 -15 -9 -20.4722 -23.0378
-2 -15 -7 9.4463 12.5570
-2 -15 -5 30.8249 45.6990
-2 -15 -3 -20.0419 -13.0560
-2 -14 -12 -16.7253 17.1624
-2 -14 -10 -16.7505 19.9034
-2 -14 -8 -8.9825 5.4715
-2 -14 -6 22.0249 -0.1070
-2 -14 -4 5.1785 14.1257
-2 -13 -11 -15.7830 4.6763
-2 -13 -9 -8.3855 9.3044
-2 -13 -7 -12.5374 -3.7208
-2 -13 -5 -15.9900 32.0458
-2 -13 -3 -44.8952 5.3111
-2 -12 -10 -20.0028 8.6770
-2 -12 -8 24.0066 33.6466
-2 -12 -6 18.2893 -32.2710
-2 -12 -4 -7.0954 14.7366
-2 -11 -9 -6.7248 -6.1183
-2 -11 -7 13.1987 25.9433
-2 -11 -5 -9.1849 26.3015
-2 -11 -3 6.9226 -15.5119
-2 -10 -8 -17.4837 -15.9578
-2 -10 -6 9.3880 -10.5556
-2 -10 -4 1.4101 -30.1736
-2 -9 -7 -18.9291 -21.2065
-2 -9 -5 -14.0806 24.6852
-2 -9 -3 -0.0572 -28.4361
-2 -8 -6 21.3744 -19.9503
-2 -8 -4 40.3194 -32.4126
-2 -7 -5 24.4166 -29.2561
-2 -7 -3 -11.6292 5.9671
-1 -20 -5 3.2223 2.6124
-1 -20 -3 10.4609 -9.3377
-1 -19 -8 2.3214 1.5415
-1 -19 -6 6.2619 -5.7693
-1 -19 -4 -1.8101 4.4831
-1 -19 -2 -13.1741 -14.5234
-1 -18 -9 -11.2958 9.7046
-1 -18 -7 -13.2277 -23.8897
-1 -18 -5 11.9910 10.9697
-1 -18 -3 -13.3936 0.7500
-1 -17 -8 -12.4455 -10.6991
-1 -17 -6 -4.9143 11.3269
-1 -17 -4 5.4318 5.0125
-1 -17 -2 -11.6127 8.1555
-1 -16 -13 14.7228 0.1258
-1 -16 -11 8.6574 12.8197
-1 -16 -7 -36.1813 9.1484
-1 -16 -5 -13.0575 11.0810
-1 -16 -3 -5.8744 -8.8748
-1 -15 -14 1.6227 -6.7753
-1 -15 -12 1.3248 7.2233
-1 -15 -10 -24.3416 -15.0311
-1 -15 -8 11.6895 19.4658
-1 -15 -6 3.0121 26.0566
-1 -15 -4 -5.9098 31.7188
-1 -15 -2 -27.5320 -25.6334
-1 -14 -13 10.0174 -3.9670
-1 -14 -11 3.7198 9.6914
-1 -14 -9 -16.1292 2.4180
-1 -14 -7 -13.7508 -3.5568
-1 -14 -5 14.2901 -9.1427
-1 -14 -3 21.1742 -23.6877
-1 -13 -12 5.7249 -8.4297
-1 -13 -10 -21.9218 9.8164
-1 -13 -8 -24.0858 3.0314
-1 -13 -6 -10.0407 3.8132
-1 -13 -4 -17.2169 2.3099
-1 -13 -2 -47.2273 -5.7950
-1 -12 -11 16.4497 -4.3870
-1 -12 -9 -13.8859 28.3607
-1 -12 -7 9.0549 -27.4045
-1 -12 -5 -2.3852 -1.8289
-1 -11 -10 0.0616 -43.4528
-1 -11 -8 7.9156 5.1230
-1 -11 -6 5.0898 -7.3917
-1 -11 -4 0.2887 -11.2157
-1 -11 -2 -36.9826 -19.6818
-1 -10 -9 20.9142 -19.7795
-1 -10 -7 -12.7073 24.3167
-1 -10 -5 -42.3281 -25.8362
-1 -10 -3 33.3383 -38.9370
-1 -9 -8 13.6875 -49.3659
-1 -9 -6 -0.2213 5.7734
-1 -9 -4 3.3720 -17.0123
-1 -9 -2 1.4382 -8.8909
-1 -8 -7 -25.4011 -33.9197
-1 -8 -5 -39.8003 10.7740
-1 -8 -3 28.7375 -8.6286
-1 -7 -6 -44.2840 -20.0470
-1 -7 -4 -34.0586 4.9444
-1 -7 -2 -27.9358 11.7535
-1 -6 -5 -83.9427 -42.6921
-1 -6 -3 -54.2784 38.7475
-1 -5 -4 -49.9747 -16.9020
-1 -5 -2 -14.5252 32.9439
0 4 4 86.2509 -0.0000
0 5 3 -12.5631 -0.0000
0 6 0 22.8903 0.0000
0 6 6 -100.8466 -0.0000
0 7 1 21.4053 -0.0000
0 7 3 -60.8984 0.0000
0 7 7 -52.4653 0.0000
0 8 0 -46.4715 0.0000
0 8 2 -45.5582 0.0000
0 8 6 13.2586 -0.0000
0 8 8 -6.2953 0.0000
0 9 1 -25.4177 0.0000
0 9 3 16.2214 0.0000
0 9 5 -14.3073 0.0000
0 9 7 -1.3079 0.0000
0 9 9 21.6285 -0.0000
0 10 0 -25.9508 -0.0000
0 10 2 -31.6313 0.0000
0 10 4 -9.4961 -0.0000
0 10 6 -7.0728 -0.0000
0 10 10 -14.6974 -0.0000
0 11 5 -7.6942 0.0000
0 11 7 12.8036 -0.0000
0 11 9 6.7955 -0.0000
0 11 11 -9.9731 -0.0000
0 12 0 51.5880 0.0000
0 12 2 12.5445 0.0000
0 12 4 41.1070 -0.0000
0 12 6 29.3708 0.0000
0 12 8 -9.6945 -0.0000
0 12 10 6.7069 0.0000
0 12 12 -0.5844 0.0000
0 13 1 -19.7854 -0.0000
0 13 3 33.9148 0.0000
0 13 5 -16.9454 0.0000
0 13 7 -12.4705 0.0000
0 13 11 10.7311 0.0000
0 13 13 3.6858 -0.0000
0 14 0 12.9978 -0.0000
0 14 2 15.2459 0.0000
0 14 4 -11.5233 0.0000
0 14 6 17.0099 0.0000
0 14 8 36.1460 0.0000
0 14 10 -24.1554 0.0000
0 14 12 15.8274 0.0000
0 14 14 -0.2304 0.0000
0 15 1 -23.0991 0.0000
0 15 3 -5.4432 -0.0000
0 15 5 -10.3395 -0.0000
0 15 7 5.3690 0.0000
0 15 9 6.3448 0.0000
0 15 11 -6.3234 -0.0000
0 15 13 -0.2485 -0.0000
0 16 4 -7.0212 0.0000
0 16 6 -27.3134 -0.0000
0 16 8 2.5845 0.0000
0 16 10 1.0323 -0.0000
0 16 12 5.0691 0.0000
0 17 1 -6.2960 -0.0000
0 17 3 -3.7254 -0.0000
0 17 5 17.1253 -0.0000
0 17 11 4.4510 0.0000
0 18 2 12.7405 0.0000
0 18 4 -3.6180 -0.0000
0 18 6 1.1692 -0.0000
0 18 8 0.5798 0.0000
0 19 3 -2.4475 0.0000
0 19 5 15.3916 -0.0000
0 20 0 2.6570 0.0000
0 20 2 2.1705 0.0000
0 20 4 -2.7968 -0.0000
1 4 1 31.7884 -0.0000
1 5 2 -14.5252 -32.9439
1 5 4 -49.9747 16.9020
1 6 3 -54.2784 -38.7475
1 6 5 -83.9427 42.6921
1 7 2 -27.9358 -11.7535
1 7 4 -34.0586 -4.9444
1 7 6 -44.2840 20.0470
1 8 1 110.4868 0.0000
1 8 3 28.7375 8.6286
1 8 5 -39.8003 -10.7740
1 8 7 -25.4011 33.9197
1 9 2 1.4382 8.8909
1 9 4 3.3720 17.0123
1 9 6 -0.2213 -5.7734
1 9 8 13.6875 49.3659
1 10 1 76.1537 -0.0000
1 10 3 33.3383 38.9370
1 10 5 -42.3281 25.8362
1 10 7 -12.7073 -24.3167
1 10 9 20.9142 19.7795
1 11 2 -36.9826 19.6818
1 11 4 0.2887 11.2157
1 11 6 5.0898 7.3917
1 11 8 7.9156 -5.1230
1 11 10 0.0616 43.4528
1 12 5 -2.3852 1.8289
1 12 7 9.0549 27.4045
1 12 9 -13.8859 -28.3607
1 12 11 16.4497 4.3870
1 13 2 -47.2273 5.7950
1 13 4 -17.2169 -2.3099
1 13 6 -10.0407 -3.8132
1 13 8 -24.0858 -3.0314
1 13 10 -21.9218 -9.8164
1 13 12 5.7249 8.4297
1 14 1 -3.0901 -0.0000
1 14 3 21.1742 23.6877
1 14 5 14.2901 9.1427
1 14 7 -13.7508 3.5568
1 14 9 -16.1292 -2.4180
1 14 11 3.7198 -9.6914
1 14 13 10.0174 3.9670
1 15 2 -27.5320 25.6334
1 15 4 -5.9098 -31.7188
1 15 6 3.0121 -26.0566
1 15 8 11.6895 -19.4658
1 15 10 -24.3416 15.0311
1 15 12 1.3248 -7.2233
1 15 14 1.6227 6.7753
1 16 1 -11.3380 -0.0000
1 16 3 -5.8744 8.8748
1 16 5 -13.0575 -11.0810
1 16 7 -36.1813 -9.1484
1 16 11 8.6574 -12.8197
1 16 13 14.7228 -0.1258
1 17 2 -11.6127 -8.1555
1 17 4 5.4318 -5.0125
1 17 6 -4.9143 -11.3269
1 17 8 -12.4455 10.6991
1 18 1 3.1637 -0.0000
1 18 3 -13.3936 -0.7500
1 18 5 11.9910 -10.9697
1 18 7 -13.2277 23.8897
1 18 9 -11.2958 -9.7046
1 19 2 -13.1741 14.5234
1 19 4 -1.8101 -4.4831
1 19 6 6.2619 5.7693
1 19 8 2.3214 -1.5415
1 20 1 -4.0556 -0.0000
1 20 3 10.4609 9.3377
1 20 5 3.2223 -2.6124
2 3 3 28.7616 0.0000
2 5 5 28.9865 -0.0000
2 7 3 -11.6292 -5.9671
2 7 5 24.4166 29.2561
2 7 7 -13.1014 -0.0000
2 8 2 -4.9871 0.0000
2 8 4 40.3194 32.4126
2 8 6 21.3744 19.9503
2 8 8 19.8867 0.0000
2 9 3 -0.0572 28.4361
2 9 5 -14.0806 -24.6852
2 9 7 -18.9291 21.2065
2 9 9 -0.4886 -0.0000
2 10 2 0.5022 0.0000
2 10 4 1.4101 30.1736
2 10 6 9.3880 10.5556
2 10 8 -17.4837 15.9578
2 10 10 -1.4107 0.0000
2 11 3 6.9226 15.5119
2 11 5 -9.1849 -26.3015
2 11 7 13.1987 -25.9433
2 11 9 -6.7248 6.1183
2 11 11 15.5499 -0.0000
2 12 2 -19.3825 0.0000
2 12 4 -7.0954 -14.7366
2 12 6 18.2893 32.2710
2 12 8 24.0066 -33.6466
2 12 10 -20.0028 -8.6770
2 12 12 -6.0627 0.0000
2 13 3 -44.8952 -5.3111
2 13 5 -15.9900 -32.0458
2 13 7 -12.5374 3.7208
2 13 9 -8.3855 -9.3044
2 13 11 -15.7830 -4.6763
2 13 13 5.4548 -0.0000
2 14 2 -50.0841 -0.0000
2 14 4 5.1785 -14.1257
2 14 6 22.0249 0.1070
2 14 8 -8.9825 -5.4715
2 14 10 -16.7505 -19.9034
2 14 12 -16.7253 -17.1624
2 14 14 0.0160 0.0000
2 15 3 -20.0419 13.0560
2 15 5 30.8249 -45.6990
2 15 7 9.4463 -12.5570
2 15 9 -20.4722 23.0378
2 15 11 -14.5316 8.3247
2 15 13 7.8444 13.0842
2 16 2 -2.6890 -0.0000
2 16 4 -8.3844 -28.7446
2 16 6 3.7661 -9.7425
2 16 8 -0.7338 4.3530
2 16 10 -32.4597 11.3343
2 16 12 7.5778 -6.2269
2 17 3 -19.2859 -21.7941
2 17 5 34.3402 -16.0845
2 17 7 7.3588 19.9457
2 17 9 -12.6894 8.7215
2 17 11 0.9592 -4.6806
2 18 2 -15.4255 0.0000
2 18 4 -2.1433 -16.8876
2 18 6 -1.4605 14.7185
2 18 8 -0.7709 18.2898
2 18 10 -6.1653 -5.4514
2 19 5 7.4017 -12.1065
2 19 7 6.0846 9.7519
2 20 2 10.2630 0.0000
2 20 4 -4.3552 9.2136
3 4 3 29.7816 -0.0000
3 5 4 29.3403 12.6730
3 6 3 13.0822 0.0000
3 6 5 -49.2171 28.6561
3 7 4 -29.9706 26.7316
3 7 6 23.9400 -27.6387
3 8 5 -12.6589 4.5924
3 8 7 -10.2137 -14.6046
3 9 4 -37.1058 -4.8264
3 9 6 -12.6107 -3.3134
3 9 8 18.3016 10.9280
3 10 3 3.1379 0.0000
3 10 5 -72.2942 -24.6505
3 10 7 -3.9746 17.9370
3 10 9 15.2400 -48.5607
3 11 4 -9.3280 -32.3706
3 11 6 -16.2759 9.3138
3 11 8 21.0796 -2.3890
3 11 10 18.6274 9.4236
3 12 5 11.7733 5.8833
3 12 7 -12.0793 -0.3904
3 12 9 26.6951 -18.4484
3 12 11 -12.5744 -29.1667
3 13 4 -55.6880 -36.9301
3 13 6 -23.2194 17.0800
3 13 8 -5.6789 -19.8089
3 13 10 -1.7498 -1.1283
3 13 12 -18.4745 -16.5555
3 14 3 4.5839 0.0000
3 14 5 -0.1625 12.6916
3 14 7 -11.0566 39.4777
3 14 9 -31.5802 7.4226
3 14 11 -12.6549 -21.8333
3 15 4 -10.9780 -17.6704
3 15 6 3.2862 -27.8465
3 15 8 -4.1454 -10.8222
3 15 10 -8.4223 13.0209
3 15 12 2.4394 13.9028
3 15 14 -11.7182 3.7555
3 16 3 -34.5049 0.0000
3 16 5 22.9995 -18.5201
3 16 7 -19.3124 27.1952
3 16 9 -11.5476 0.6315
3 16 11 3.5485 17.6348
3 17 4 -1.1371 -39.8669
3 17 6 0.2395 -3.8612
3 17 8 10.8068 -6.3045
3 17 10 -2.6217 2.2402
3 18 3 -24.6849 -0.0000
3 18 5 -4.7444 -17.1234
3 18 7 -0.3498 5.2596
3 18 9 0.0700 10.7808
3 19 4 -15.6795 8.6707
3 19 6 -8.5063 -4.0093
3 20 3 4.6877 0.0000
4 4 4 14.6193 0.0000
4 6 4 28.8666 -0.0000
4 6 6 -12.9678 -0.0000
4 7 5 -2.9187 -7.5857
4 7 7 5.2834 -0.0000
4 8 4 7.3865 0.0000
4 8 6 78.2208 -5.6611
4 8 8 -22.9976 0.0000
4 9 5 4.0042 6.4373
4 9 7 -10.8901 4.6806
4 9 9 12.2628 0.0000
4 10 6 -9.5090 52.8137
4 10 8 0.4996 -12.0556
4 10 10 7.7702 0.0000
4 11 5 19.8778 -21.1712
4 11 7 14.2083 8.7163
4 11 9 56.4088 -13.0527
4 11 11 15.6251 -0.0000
4 12 6 26.4856 23.7888
4 12 8 22.6771 -21.0711
4 12 12 -4.7320 0.0000
4 13 5 7.2184 -11.7861
4 13 7 14.5242 -12.8855
4 13 9 16.3081 8.9258
4 13 11 35.1937 -4.0658
4 14 4 -8.2085 -0.0000
4 14 6 -0.8085 30.8345
4 14 8 -5.8884 -23.1648
4 14 10 -7.0997 -4.5035
4 14 12 9.7944 -21.2648
4 14 14 -8.1513 -0.0000
4 15 5 17.7804 -2.6589
4 15 7 3.3727 0.9886
4 15 9 2.5043 -3.7538
4 15 11 11.8671 19.6850
4 15 13 17.5845 9.5566
4 16 4 6.2573 0.0000
4 16 6 -6.4412 -3.5760
4 16 8 1.8940 -7.1645
4 16 10 -2.4192 1.5305
4 16 12 3.8446 8.1278
4 17 7 17.1604 -5.1557
4 17 9 2.5268 -14.3010
4 17 11 -10.6600 -3.7231
4 18 4 -12.0130 -0.0000
4 18 6 -1.5913 -11.6890
4 18 8 1.5474 -5.5705
4 19 5 -6.6250 -10.4613
4 19 7 -4.5221 -16.1727
4 20 4 3.7710 0.0000
5 7 6 0.2604 -19.2499
5 8 5 7.9603 -0.0000
5 8 7 28.5737 7.0959
5 9 6 13.1286 14.4284
5 9 8 -0.3601 -4.4115
5 10 5 20.3195 -0.0000
5 10 7 -35.9898 5.0953
5 10 9 5.9243 -0.6105
5 11 6 12.2114 21.1342
5 11 8 9.6832 -13.2755
5 11 10 0.6044 8.8390
5 12 7 16.5649 2.1319
5 12 9 -5.7039 6.1267
5 12 11 -17.4092 8.2422
5 13 6 10.4735 18.6147
5 13 8 1.1174 -18.9870
5 13 10 5.4055 18.7892
5 14 7 -26.0381 30.4497
5 14 9 -17.1376 6.7456
5 14 11 -1.0648 10.8350
5 14 13 -7.9578 -4.7384
5 15 6 -12.6026 18.0456
5 15 8 4.1592 -2.5548
5 15 10 2.8816 12.5045
5 15 12 4.6654 9.4127
5 16 5 9.2440 0.0000
5 16 7 4.4301 24.5538
5 16 9 -8.5266 15.0176
5 16 11 -5.2450 4.2670
5 17 6 23.7341 -4.9925
5 17 8 3.7830 -3.4646
5 17 10 -5.3475 3.4634
5 18 5 11.8354 0.0000
5 18 7 -7.8373 7.5776
5 18 9 -6.0271 1.3935
5 19 6 -20.1239 6.5843
6 6 6 15.5278 -0.0000
6 7 7 -3.2611 0.0000
6 8 6 -35.1730 0.0000
6 8 8 -26.0567 -0.0000
6 9 7 -9.9416 8.8542
6 10 6 -34.2636 0.0000
6 10 8 -22.7639 -3.1742
6 10 10 -4.6328 0.0000
6 11 7 7.9487 -17.3491
6 11 9 12.6620 26.0602
6 11 11 15.8564 -0.0000
6 12 6 21.3182 -0.0000
6 12 8 3.2298 -20.4076
6 12 10 6.7295 23.4241
6 12 12 -11.0521 0.0000
6 13 7 11.2622 -6.5222
6 13 9 20.7927 12.7283
6 13 11 -0.1480 29.0009
6 13 13 9.1128 0.0000
6 14 6 -22.2283 0.0000
6 14 8 -6.8423 2.9550
6 14 10 3.1802 11.5743
6 14 12 -9.4112 3.2867
6 15 7 2.0762 11.9897
6 15 9 5.3648 12.2434
6 15 11 4.5393 12.2097
6 15 13 -4.3801 1.6200
6 16 6 3.4200 -0.0000
6 16 8 6.0723 7.9238
6 16 10 2.3092 17.8112
6 17 7 19.3191 2.1187
6 17 9 0.7550 -5.8228
6 18 8 11.3166 0.8342
7 8 7 15.3856 -0.0000
7 9 8 12.3516 -7.8762
7 10 7 -27.6420 -0.0000
7 10 9 -19.1382 21.7621
7 11 8 -0.7801 -12.6866
7 12 7 -12.4663 0.0000
7 12 9 -24.2254 12.0041
7 12 11 -19.9785 13.7414
7 13 8 -1.9505 -4.0852
7 13 10 -4.8857 -7.6116
7 14 9 -3.4754 4.6212
7 14 11 -7.7409 -0.2018
7 14 13 -2.8271 -0.6416
7 15 8 -12.4835 -6.0404
7 15 10 3.2550 13.4345
7 15 12 0.1423 -1.5485
7 16 7 1.7841 0.0000
7 16 9 -1.3799 -0.3313
7 16 11 11.1940 3.5774
7 17 8 7.3129 -6.7657
7 18 7 -6.6044 -0.0000
8 8 8 21.2783 -0.0000
8 9 9 10.0410 -0.0000
8 10 8 -8.2424 -0.0000
8 11 9 11.9338 6.3054
8 11 11 -8.8175 0.0000
8 12 8 12.5333 -0.0000
8 12 10 -1.8844 -19.6590
8 12 12 -6.2345 0.0000
8 13 9 -15.3986 0.6199
8 13 11 -5.0809 -16.7473
8 13 13 -5.1890 0.0000
8 14 8 -31.0329 0.0000
8 14 10 -8.2284 -6.3754
8 14 12 -11.7887 -5.4970
8 15 9 -15.5714 -2.1994
8 15 11 -9.5324 2.8069
8 16 8 -5.2179 -0.0000
8 16 10 -9.2329 7.1652
9 10 9 -16.3622 0.0000
9 11 10 -3.9998 -16.4494
9 12 9 -4.8113 -0.0000
9 12 11 -17.3148 -19.2062
9 13 10 -0.9705 -13.6873
9 13 12 -2.1011 -8.8696
9 14 9 -13.4174 -0.0000
9 14 11 4.9417 -13.4857
9 15 10 -7.4809 -4.9753
9 16 9 8.1436 -0.0000
10 10 10 10.0977 0.0000
10 11 11 -7.4418 0.0000
10 12 12 2.8153 0.0000
10 13 11 6.7387 -7.3173
10 14 10 0.6195 0.0000
11 12 11 -6.6859 -0.0000
12 12 12 15.0367 0.0000
0 0 0 0.0 0.0
;
_olex2_exptl_crystal_mounting_method
'Crystal coated in isopropanol:water mother liquor and mounted in a quarts capillary'
_olex2_submission_special_instructions 'No special instructions were received'
_oxdiff_exptl_absorpt_empirical_details
;
Empirical correction (ABSPACK) includes:
- Absorption correction using spherical harmonics
- Frame scaling
;
_oxdiff_exptl_absorpt_empirical_full_max 1.406
_oxdiff_exptl_absorpt_empirical_full_min 0.832
#END Tags that were not found in dictionaries
loop_
_space_group_symop_id
_space_group_symop_operation_xyz
1 'x, y, z'
2 '-y, x, z'
3 '-x, -y, z'
4 'y, -x, z'
5 'x, -z, y'
6 'x, -y, -z'
7 'x, z, -y'
8 'z, y, -x'
9 '-x, y, -z'
10 '-z, y, x'
11 'z, x, y'
12 'y, z, x'
13 '-y, -z, x'
14 'z, -x, -y'
15 '-y, z, -x'
16 '-z, -x, y'
17 '-z, x, -y'
18 'y, -z, -x'
19 'y, x, -z'
20 '-y, -x, -z'
21 '-x, z, y'
22 '-x, -z, -y'
23 'z, -y, x'
24 '-z, -y, -x'
25 'x+1/2, y+1/2, z+1/2'
26 '-y+1/2, x+1/2, z+1/2'
27 '-x+1/2, -y+1/2, z+1/2'
28 'y+1/2, -x+1/2, z+1/2'
29 'x+1/2, -z+1/2, y+1/2'
30 'x+1/2, -y+1/2, -z+1/2'
31 'x+1/2, z+1/2, -y+1/2'
32 'z+1/2, y+1/2, -x+1/2'
33 '-x+1/2, y+1/2, -z+1/2'
34 '-z+1/2, y+1/2, x+1/2'
35 'z+1/2, x+1/2, y+1/2'
36 'y+1/2, z+1/2, x+1/2'
37 '-y+1/2, -z+1/2, x+1/2'
38 'z+1/2, -x+1/2, -y+1/2'
39 '-y+1/2, z+1/2, -x+1/2'
40 '-z+1/2, -x+1/2, y+1/2'
41 '-z+1/2, x+1/2, -y+1/2'
42 'y+1/2, -z+1/2, -x+1/2'
43 'y+1/2, x+1/2, -z+1/2'
44 '-y+1/2, -x+1/2, -z+1/2'
45 '-x+1/2, z+1/2, y+1/2'
46 '-x+1/2, -z+1/2, -y+1/2'
47 'z+1/2, -y+1/2, x+1/2'
48 '-z+1/2, -y+1/2, -x+1/2'
loop_
_atom_site_label
_atom_site_type_symbol
_atom_site_fract_x
_atom_site_fract_y
_atom_site_fract_z
_atom_site_U_iso_or_equiv
_atom_site_adp_type
_atom_site_occupancy
_atom_site_site_symmetry_order
_atom_site_calc_flag
_atom_site_refinement_flags_posn
_atom_site_refinement_flags_adp
_atom_site_refinement_flags_occupancy
C1 C 0.8488(5) 0.6802(6) 0.6274(5) 0.082(6) Uiso 1 1 d D . .
H1 H 0.8425 0.7109 0.6259 0.098 Uiso 1 1 calc R . .
C2 C 0.8861(5) 0.6770(5) 0.6548(5) 0.096(6) Uiso 1 1 d D . .
H2 H 0.8805 0.6914 0.6822 0.115 Uiso 1 1 calc R . .
C3 C 0.8963(6) 0.6296(5) 0.6627(5) 0.102(7) Uiso 1 1 d D . .
H3 H 0.9032 0.6190 0.6340 0.123 Uiso 1 1 calc R . .
C4 C 0.8580(5) 0.6037(5) 0.6751(5) 0.072(5) Uiso 1 1 d D . .
H4 H 0.8522 0.6128 0.7046 0.086 Uiso 1 1 calc R . .
C5 C 0.8185(6) 0.6162(6) 0.6515(6) 0.121(7) Uiso 1 1 d D . .
H5 H 0.8240 0.6050 0.6227 0.146 Uiso 1 1 calc R . .
C6 C 0.7735(5) 0.5977(6) 0.6618(6) 0.119(7) Uiso 1 1 d D . .
H6A H 0.7522 0.6091 0.6423 0.143 Uiso 1 1 calc R . .
H6B H 0.7735 0.5667 0.6599 0.143 Uiso 1 1 calc R . .
C11 C 0.8577(5) 0.5365(6) 0.7189(5) 0.103(6) Uiso 1 1 d D . .
H11 H 0.8571 0.5583 0.7415 0.124 Uiso 1 1 calc R . .
C12 C 0.8990(5) 0.5145(5) 0.7221(5) 0.087(6) Uiso 1 1 d D . .
H12 H 0.9001 0.5022 0.7510 0.104 Uiso 1 1 calc R . .
C13 C 0.8989(5) 0.4751(4) 0.6901(5) 0.074(5) Uiso 1 1 d D . .
H13 H 0.8989 0.4847 0.6602 0.089 Uiso 1 1 calc R . .
C14 C 0.8593(5) 0.4522(5) 0.7007(5) 0.083(5) Uiso 1 1 d . . .
H14 H 0.8607 0.4407 0.7298 0.100 Uiso 1 1 calc R . .
C15 C 0.8201(5) 0.4774(5) 0.6948(5) 0.082(6) Uiso 1 1 d . . .
H15 H 0.8187 0.4875 0.6651 0.098 Uiso 1 1 calc R . .
C16 C 0.7789(5) 0.4538(5) 0.7055(5) 0.104(6) Uiso 1 1 d . . .
H16A H 0.7548 0.4727 0.7006 0.125 Uiso 1 1 calc R . .
H16B H 0.7759 0.4294 0.6866 0.125 Uiso 1 1 calc R . .
K1 K 0.81023(12) 0.5000 0.81023(12) 0.111(2) Uani 1 2 d S T P
O2 O 0.9264(4) 0.6942(4) 0.6354(4) 0.145(3) Uiso 1 1 d . . .
H2A H 0.9439 0.6747 0.6328 0.217 Uiso 1 1 calc R . .
O3 O 0.9350(4) 0.6212(4) 0.6867(4) 0.145(3) Uiso 1 1 d . . .
H3A H 0.9347 0.5964 0.6954 0.217 Uiso 1 1 calc R . .
O4 O 0.8601(3) 0.5592(4) 0.6779(3) 0.090(4) Uiso 1 1 d D . .
O5 O 0.8130(4) 0.6622(4) 0.6438(4) 0.145(3) Uiso 1 1 d D . .
O6 O 0.7656(4) 0.6112(4) 0.7038(4) 0.145(3) Uiso 1 1 d . . .
H6 H 0.7746 0.5931 0.7206 0.217 Uiso 1 1 calc R . .
O12 O 0.9393(4) 0.5373(4) 0.7161(4) 0.138(5) Uiso 1 1 d . . .
H12A H 0.9585 0.5200 0.7115 0.207 Uiso 1 1 calc R . .
O13 O 0.9382(3) 0.4499(3) 0.7004(3) 0.107(4) Uiso 1 1 d D . .
H13A H 0.9313 0.4260 0.7089 0.160 Uiso 1 1 calc R . .
O14 O 0.8563(3) 0.4158(4) 0.6678(3) 0.094(4) Uiso 1 1 d . . .
O15 O 0.8219(3) 0.5135(3) 0.7228(3) 0.086(4) Uiso 1 1 d . . .
O16 O 0.7782(3) 0.4402(4) 0.7462(4) 0.130(5) Uiso 1 1 d . . .
H16 H 0.7820 0.4143 0.7468 0.195 Uiso 1 1 calc R . .
OA O 1.0000 0.5000 0.6643(6) 0.178(7) Uiso 1 2 d S T P
loop_
_atom_site_aniso_label
_atom_site_aniso_U_11
_atom_site_aniso_U_22
_atom_site_aniso_U_33
_atom_site_aniso_U_23
_atom_site_aniso_U_13
_atom_site_aniso_U_12
K1 0.096(3) 0.142(5) 0.096(3) 0.010(3) 0.043(4) -0.010(3)
loop_
_atom_type_symbol
_atom_type_description
_atom_type_scat_dispersion_real
_atom_type_scat_dispersion_imag
_atom_type_scat_source
H H 0.0000 0.0000 'International Tables Vol C Tables 4.2.6.8 and 6.1.1.4'
C C 0.0033 0.0016 'International Tables Vol C Tables 4.2.6.8 and 6.1.1.4'
O O 0.0106 0.0060 'International Tables Vol C Tables 4.2.6.8 and 6.1.1.4'
K K 0.2009 0.2494 'International Tables Vol C Tables 4.2.6.8 and 6.1.1.4'
loop_
_geom_angle_atom_site_label_1
_geom_angle_atom_site_label_2
_geom_angle_atom_site_label_3
_geom_angle
_geom_angle_site_symmetry_1
_geom_angle_site_symmetry_3
C2 C1 H1 104.9 . .
O5 C1 H1 104.9 . .
O5 C1 C2 114.3(15) . .
O5 C1 O14 112.5(14) . 7_556
O14 C1 H1 104.9 7_556 .
O14 C1 C2 114.2(14) 7_556 .
C1 C2 H2 109.9 . .
C1 C2 C3 109.1(15) . .
C1 C2 O2 114.3(14) . .
C3 C2 H2 109.9 . .
O2 C2 H2 109.9 . .
O2 C2 C3 103.7(13) . .
C2 C3 H3 103.2 . .
C4 C3 C2 113.5(15) . .
C4 C3 H3 103.2 . .
O3 C3 C2 115.6(14) . .
O3 C3 H3 103.2 . .
O3 C3 C4 115.8(13) . .
C3 C4 H4 103.7 . .
C5 C4 C3 113.2(14) . .
C5 C4 H4 103.7 . .
O4 C4 C3 121.2(14) . .
O4 C4 H4 103.7 . .
O4 C4 C5 109.3(14) . .
C4 C5 H5 102.5 . .
C4 C5 C6 123.5(15) . .
C6 C5 H5 102.5 . .
O5 C5 C4 115.7(15) . .
O5 C5 H5 102.5 . .
O5 C5 C6 106.9(16) . .
C5 C6 H6A 111.0 . .
C5 C6 H6B 111.0 . .
H6A C6 H6B 109.0 . .
O6 C6 C5 103.9(14) . .
O6 C6 H6A 111.0 . .
O6 C6 H6B 111.0 . .
C12 C11 H11 107.1 . .
C12 C11 K1 99.8(10) . .
C12 C11 O4 103.8(13) . .
K1 C11 H11 67.8 . .
O4 C11 H11 107.1 . .
O4 C11 K1 156.2(9) . .
O15 C11 H11 107.1 . .
O15 C11 C12 118.7(15) . .
O15 C11 K1 51.7(8) . .
O15 C11 O4 112.6(13) . .
C11 C12 H12 106.1 . .
C11 C12 C13 108.6(14) . .
C11 C12 O12 121.5(14) . .
C13 C12 H12 106.1 . .
O12 C12 H12 106.1 . .
O12 C12 C13 107.5(12) . .
C12 C13 H13 111.4 . .
C14 C13 C12 103.8(13) . .
C14 C13 H13 111.4 . .
C14 C13 O13 112.8(12) . .
O13 C13 C12 105.6(11) . .
O13 C13 H13 111.4 . .
C13 C14 H14 110.5 . .
C13 C14 O14 105.1(12) . .
C15 C14 C13 114.5(14) . .
C15 C14 H14 110.5 . .
C15 C14 O14 105.3(13) . .
O14 C14 H14 110.5 . .
C14 C15 H15 109.1 . .
C14 C15 C16 114.8(14) . .
C16 C15 H15 109.1 . .
O15 C15 C14 108.3(14) . .
O15 C15 H15 109.1 . .
O15 C15 C16 106.4(14) . .
C15 C16 H16A 109.2 . .
C15 C16 H16B 109.2 . .
H16A C16 H16B 107.9 . .
O16 C16 C15 112.2(14) . .
O16 C16 H16A 109.2 . .
O16 C16 H16B 109.2 . .
C11 K1 C11 147.0(6) . 23_565
O2 K1 C11 104.5(4) 41_646 23_565
O2 K1 C11 88.3(4) 44_666 23_565
O2 K1 C11 88.3(4) 41_646 .
O2 K1 C11 104.5(4) 44_666 .
O2 K1 O2 134.6(6) 44_666 41_646
O2 K1 O3 57.6(3) 41_646 41_646
O2 K1 O3 57.6(3) 44_666 44_666
O2 K1 O3 97.0(4) 44_666 41_646
O2 K1 O3 97.0(4) 41_646 44_666
O2 K1 O16 154.9(4) 41_646 23_565
O2 K1 O16 69.9(3) 44_666 23_565
O2 K1 O16 154.9(4) 44_666 .
O2 K1 O16 69.9(3) 41_646 .
O3 K1 C11 145.3(4) 41_646 .
O3 K1 C11 58.8(4) 41_646 23_565
O3 K1 C11 145.3(4) 44_666 23_565
O3 K1 C11 58.8(4) 44_666 .
O3 K1 O3 115.1(5) 44_666 41_646
O15 K1 C11 22.0(3) . .
O15 K1 C11 125.9(4) . 23_565
O15 K1 C11 125.9(4) 23_565 .
O15 K1 C11 22.0(3) 23_565 23_565
O15 K1 O2 117.8(3) . 44_666
O15 K1 O2 117.8(3) 23_565 41_646
O15 K1 O2 89.8(3) . 41_646
O15 K1 O2 89.8(3) 23_565 44_666
O15 K1 O3 144.1(4) . 41_646
O15 K1 O3 80.4(3) 23_565 41_646
O15 K1 O3 80.4(3) . 44_666
O15 K1 O3 144.1(4) 23_565 44_666
O15 K1 O15 106.3(5) . 23_565
O15 K1 O16 69.9(3) 23_565 .
O15 K1 O16 57.9(3) 23_565 23_565
O15 K1 O16 69.9(3) . 23_565
O15 K1 O16 57.9(3) . .
O16 K1 C11 78.3(3) . 23_565
O16 K1 C11 77.8(4) 23_565 23_565
O16 K1 C11 77.8(4) . .
O16 K1 C11 78.3(3) 23_565 .
O16 K1 O3 135.4(3) . 44_666
O16 K1 O3 94.0(3) 23_565 44_666
O16 K1 O3 135.4(3) 23_565 41_646
O16 K1 O3 94.0(3) . 41_646
O16 K1 O16 86.5(5) 23_565 .
C2 O2 K1 114.7(8) . 42_566
C2 O2 H2A 109.5 . .
K1 O2 H2A 59.3 42_566 .
C3 O3 K1 117.3(9) . 42_566
C3 O3 H3A 109.5 . .
K1 O3 H3A 133.1 42_566 .
C4 O4 C11 122.3(12) . .
C1 O5 C5 111.8(14) . .
C6 O6 H6 109.5 . .
C12 O12 H12A 109.5 . .
C13 O13 H13A 109.5 . .
C1 O14 C14 122.1(12) 5_565 .
C11 O15 C15 113.8(14) . .
C11 O15 K1 106.3(10) . .
C15 O15 K1 118.4(8) . .
C16 O16 K1 116.3(10) . .
C16 O16 H16 109.5 . .
K1 O16 H16 124.5 . .
loop_
_geom_bond_atom_site_label_1
_geom_bond_atom_site_label_2
_geom_bond_distance
_geom_bond_site_symmetry_2
C1 H1 0.9800 .
C1 C2 1.448(14) .
C1 O5 1.353(13) .
C1 O14 1.420(15) 7_556
C2 H2 0.9800 .
C2 C3 1.532(18) .
C2 O2 1.496(16) .
C3 H3 0.9800 .
C3 C4 1.494(15) .
C3 O3 1.447(16) .
C4 H4 0.9800 .
C4 C5 1.486(18) .
C4 O4 1.396(13) .
C5 H5 0.9800 .
C5 C6 1.551(17) .
C5 O5 1.468(18) .
C6 H6A 0.9700 .
C6 H6B 0.9700 .
C6 O6 1.398(16) .
C11 H11 0.9800 .
C11 C12 1.463(11) .
C11 K1 3.407(16) .
C11 O4 1.466(14) .
C11 O15 1.332(15) .
C12 H12 0.9800 .
C12 C13 1.584(15) .
C12 O12 1.458(15) .
C13 H13 0.9800 .
C13 C14 1.464(17) .
C13 O13 1.494(13) .
C14 H14 0.9800 .
C14 C15 1.464(17) .
C14 O14 1.534(16) .
C15 H15 0.9800 .
C15 C16 1.518(17) .
C15 O15 1.426(14) .
C16 H16A 0.9700 .
C16 H16B 0.9700 .
C16 O16 1.338(15) .
K1 C11 3.407(17) 23_565
K1 O2 2.859(12) 44_666
K1 O2 2.859(12) 41_646
K1 O3 2.951(12) 41_646
K1 O3 2.951(12) 44_666
K1 O15 2.785(10) .
K1 O15 2.785(11) 23_565
K1 O16 2.911(11) .
K1 O16 2.911(11) 23_565
O2 K1 2.858(12) 42_566
O2 H2A 0.8200 .
O3 K1 2.951(12) 42_566
O3 H3A 0.8200 .
O6 H6 0.8200 .
O12 H12A 0.8200 .
O13 H13A 0.8200 .
O14 C1 1.420(15) 5_565
O16 H16 0.8200 .
loop_
_geom_torsion_atom_site_label_1
_geom_torsion_atom_site_label_2
_geom_torsion_atom_site_label_3
_geom_torsion_atom_site_label_4
_geom_torsion
_geom_torsion_site_symmetry_1
_geom_torsion_site_symmetry_4
C1 C2 C3 C4 -47.8(19) . .
C1 C2 C3 O3 174.9(14) . .
C1 C2 O2 K1 178.8(11) . 42_566
C2 C1 O5 C5 -61(2) . .
C2 C3 C4 C5 39(2) . .
C2 C3 C4 O4 171.4(14) . .
C2 C3 O3 K1 -20.4(18) . 42_566
C3 C2 O2 K1 -62.6(13) . 42_566
C3 C4 C5 C6 -173.2(16) . .
C3 C4 C5 O5 -38(2) . .
C3 C4 O4 C11 110.5(17) . .
C4 C3 O3 K1 -156.6(10) . 42_566
C4 C5 C6 O6 63(2) . .
C4 C5 O5 C1 49(2) . .
C5 C4 O4 C11 -115.0(15) . .
C6 C5 O5 C1 -169.3(13) . .
C11 C12 C13 C14 -51.3(16) . .
C11 C12 C13 O13 -170.2(12) . .
C12 C11 O4 C4 -118.0(14) . .
C12 C11 O15 C15 -52.7(19) . .
C12 C11 O15 K1 79.4(16) . .
C12 C13 C14 C15 60.6(17) . .
C12 C13 C14 O14 175.7(11) . .
C13 C14 C15 C16 179.7(14) . .
C13 C14 C15 O15 -61.6(18) . .
C13 C14 O14 C1 129.8(14) . 5_565
C14 C15 C16 O16 59(2) . .
C14 C15 O15 C11 52.8(16) . .
C14 C15 O15 K1 -73.1(14) . .
C15 C14 O14 C1 -108.9(15) . 5_565
C15 C16 O16 K1 42.0(17) . .
C16 C15 O15 C11 176.6(12) . .
C16 C15 O15 K1 50.7(14) . .
K1 C11 C12 C13 103.2(10) . .
K1 C11 C12 O12 -131.4(13) . .
K1 C11 O4 C4 69(3) . .
K1 C11 O15 C15 -132.1(12) . .
O2 C2 C3 C4 -169.9(13) . .
O2 C2 C3 O3 52.8(17) . .
O3 C3 C4 C5 175.7(15) . .
O3 C3 C4 O4 -51(2) . .
O4 C4 C5 C6 48(2) . .
O4 C4 C5 O5 -176.6(13) . .
O4 C11 C12 C13 -74.1(16) . .
O4 C11 C12 O12 51(2) . .
O4 C11 O15 C15 68.8(16) . .
O4 C11 O15 K1 -159.2(10) . .
O5 C1 C2 C3 60.5(19) . .
O5 C1 C2 O2 176.0(14) . .
O5 C5 C6 O6 -75.6(16) . .
O12 C12 C13 C14 175.5(12) . .
O12 C12 C13 O13 56.6(14) . .
O13 C13 C14 C15 174.4(13) . .
O13 C13 C14 O14 -70.4(15) . .
O14 C1 C2 C3 -71.1(19) 7_556 .
O14 C1 C2 O2 44(2) 7_556 .
O14 C1 O5 C5 71.5(17) 7_556 .
O14 C14 C15 C16 64.7(18) . .
O14 C14 C15 O15 -176.6(11) . .
O15 C11 C12 C13 51.7(19) . .
O15 C11 C12 O12 177.1(14) . .
O15 C11 O4 C4 112.4(16) . .
O15 C15 C16 O16 -60.5(17) . .
loop_
_refln_index_h
_refln_index_k
_refln_index_l
_refln_F_squared_meas
_refln_F_squared_sigma
_refln_scale_group_code
3 -3 2 60177.9 1934.07 1
3 3 2 55413.1 1913.39 3
-3 -2 -3 55294.7 1936.47 4
3 -3 -2 56174 1906.77 2
-3 2 3 54518.3 1872.36 1
3 -2 3 53149.5 1900.64 2
3 3 2 54808 1905.38 4
2 -3 3 54093.2 1907.79 2
2 -3 -3 57240 1898.96 4
2 -3 3 57569 1878.27 1
2 3 3 54275.2 1928.98 3
3 -3 2 57025.9 1951.04 2
-2 3 3 49635 1869.52 1
-3 3 -2 56152.4 1928.13 1
-2 -3 -3 55983.2 1948.82 4
-3 -2 -3 55640.7 1937.37 3
-3 2 3 57922.5 1839.05 4
-2 3 -3 57163.4 1925.22 2
-3 3 -2 59032.5 1961.49 2
3 -3 -2 58232 1926.7 1
-2 -3 -3 54259 1927.18 3
-2 3 3 54385 1852.67 2
-3 -3 -2 55762.2 1917.38 4
2 3 3 57643.7 1940.45 4
-2 3 3 57227.1 1901.2 4
-3 -3 -2 55943.1 1915.95 3
3 -2 3 56055.6 1885.5 1
-3 3 2 54253.4 1914.37 1
-3 3 2 56230.1 1912.88 2
-3 2 -3 54234.7 1883.2 1
2 3 3 53591.1 1885.99 1
3 2 3 57402 1931.8 4
-3 2 -3 56145.9 1918.71 2
-3 2 3 58260.3 1869.61 2
-4 1 1 3280.98 259.344 1
-1 -1 4 3691.62 211.519 3
-4 -1 -1 3366.24 215.029 4
-1 1 4 3471.41 278.907 4
0 4 2 3274.34 256.002 2
0 -4 2 3235.95 268.225 2
0 4 2 2990.79 255.812 1
0 2 4 2713.75 189.306 1
-2 -4 0 2972.82 208.574 3
0 -4 2 3270.74 243.785 1
0 -2 4 2970.88 206.993 2
0 2 4 3297.69 282.087 4
0 2 4 2933.29 255.838 3
-2 -4 -2 2460.78 235.323 3
4 2 2 2586.83 228.688 4
2 4 2 2931.94 262.059 1
-2 -4 2 3177.08 260.92 1
-2 2 -4 2893.16 213.855 1
2 -4 -2 2608.08 239.824 2
2 -2 -4 2855.55 247.233 4
2 4 -2 3093.55 252.931 1
-2 -4 -2 2738.18 257.54 1
-4 2 2 3473.09 275.968 2
4 -2 -2 2740.12 250.953 2
2 -4 2 3172.49 280.452 2
-4 2 2 2605.22 248.374 1
2 -4 2 3128.94 266.17 1
-2 4 2 2720.28 255.608 1
-2 4 2 2534.48 242.732 2
2 -4 -2 2690.02 254.029 1
2 -2 4 2976.03 216.338 1
4 -2 -2 3027.12 260.331 1
4 -2 2 2812.7 258.382 1
2 -2 4 2658.76 230.397 2
-2 2 -4 2788.88 232.518 2
-4 -2 -2 2757.39 235.891 4
2 4 2 2459.48 245.823 3
-2 4 -2 2995.65 277.815 2
2 2 4 3068.43 295.436 4
4 -2 2 2992.36 272.45 2
-2 -2 -4 3067.44 272.505 3
2 -2 -4 2740.81 210.029 1
-2 2 4 2405.93 204.065 1
-4 2 -2 2936.46 262.816 1
2 2 4 3105.99 271.058 3
-2 2 4 3126.22 257.182 4
-2 4 -2 2846.66 258.162 1
-4 2 -2 2859.33 268.019 2
-2 -2 -4 2869.29 288.262 4
-1 4 3 -97.8905 97.3946 1
1 -3 -4 126.479 65.1905 2
-1 -3 4 176.304 69.7765 1
3 -4 -1 13.1953 98.1046 1
-4 3 1 49.8325 98.7318 2
-3 1 4 76.1314 75.4155 1
-1 3 -4 64.9536 80.4113 1
1 -4 3 24.8881 85.8499 2
-3 -1 -4 127.22 115.518 3
3 -1 4 115.888 85.862 2
1 3 4 89.9263 108.805 4
4 -1 -3 261.959 114.057 1
1 4 -3 199.751 118.101 2
-4 1 -3 262.676 117.8 1
1 -4 3 126.294 84.5276 1
-1 -3 4 114.145 90.9785 2
3 -4 -1 -71.1801 92.0676 2
-3 -4 1 165.372 69.3086 3
-1 -4 -3 179.234 107.15 1
-4 -3 -1 199.417 90.7909 3
4 -3 1 241.481 122.315 1
-1 4 3 -1.64612 76.0313 2
-4 1 -3 43.5485 104.539 2
-1 -4 -3 28.918 85.5666 2
1 4 -3 31.8407 78.4226 1
4 -3 1 7.16446 88.4017 2
4 1 3 295.412 129.641 4
-4 3 1 20.9982 100.734 1
-1 -4 -3 142.629 108.236 4
1 -3 -4 27.3273 110.39 4
-1 -4 -3 130.432 101.585 3
1 -3 -4 40.6386 77.6755 1
-3 1 4 43.4807 78.6751 4
-3 4 -1 60.973 112.789 2
-3 -1 -4 -6.7645 115.308 4
3 -1 4 130.846 82.9307 1
1 3 4 215.629 95.2181 1
3 4 1 17.9876 77.8288 3
-3 4 -1 133.38 103.555 1
-1 3 -4 66.3416 86.8137 2
1 3 4 -13.5746 89.0079 3
4 -3 -1 289.851 127.842 1
1 4 3 -18.515 89.3242 1
-1 -3 -4 255.067 134.732 4
3 4 -1 83.491 65.7044 3
1 3 -4 70.9696 96.1795 2
-3 4 1 -58.4823 97.6246 2
1 -4 -3 87.2601 80.5132 2
-1 3 4 206.719 113.323 4
-3 4 1 10.8517 95.2901 1
3 4 -1 244.066 115.847 1
1 -3 4 94.0716 70.6963 1
-3 -4 -1 -30.1409 75.2909 3
3 -1 -4 210.513 85.3551 1
-1 -3 -4 -0.81793 77.4909 1
-4 -1 -3 98.0152 105.825 4
-1 3 4 60.2233 74.3694 1
-3 1 -4 86.5551 85.0928 2
-4 3 -1 43.2942 109.937 1
3 1 4 44.8671 106.592 4
1 -4 -3 131.529 87.9403 1
-4 3 -1 119.911 106.902 2
-1 -4 3 166.402 99.9035 2
1 -3 4 181.332 94.6591 2
-1 -3 -4 -49.9064 102.434 3
-4 1 3 194.368 95.367 1
4 -1 3 183.725 101.077 1
-1 -4 3 96.5538 75.7453 1
-1 4 -3 165.748 99.4394 1
1 3 -4 118.822 78.0512 1
3 -1 -4 -9.2891 89.4155 4
4 -3 -1 81.7281 98.2798 2
-1 4 -3 106.888 106.563 2
1 -4 -3 -18.949 123.014 4
3 -4 1 272.201 120.764 1
-3 1 -4 182.107 86.2635 1
1 4 3 341.815 115.076 3
3 -4 1 122.221 103.359 2
-1 3 4 97.3093 68.9146 2
3 -4 -3 85455.3 2788.64 1
3 3 4 79901.7 2803.74 4
4 -3 3 82878.8 2812.2 2
-3 -4 -3 82554.7 2824.34 4
-4 3 3 81389 2779.41 1
-3 3 -4 80080.4 2737.24 1
4 -3 -3 87488.9 2690.11 4
4 3 3 86037.1 2820.81 3
3 -3 -4 85491.3 2749.06 4
3 -3 4 82966.5 2731.52 1
-4 3 -3 81289 2792.39 1
-3 3 4 86254 2739.6 4
4 3 3 81998 2764.57 4
-4 -3 -3 82374.2 2807.15 3
3 -4 3 84140 2819.86 2
-4 3 3 85062.4 2777.59 2
-3 3 -4 87575.1 2809.01 2
-3 -3 -4 80416.3 2820.09 3
4 -3 -3 85345.1 2782.17 1
3 4 -3 89449.4 2758.38 1
4 -3 3 86548.6 2794.27 1
-3 4 -3 80945.7 2780.7 1
3 4 3 80832.4 2801.01 4
-3 4 -3 88619 2844.49 2
-3 3 4 77982.2 2722.55 1
3 4 3 80051.1 2778.13 1
3 -3 4 83724.4 2787.37 2
3 -4 -3 81232.8 2745.12 2
3 4 3 85872.7 2817.18 3
-3 -4 -3 77808.3 2785.64 3
-4 -3 -3 81420.6 2790.17 4
3 3 4 80959.7 2808.33 3
3 -3 -4 84717.1 2741.32 1
3 -3 -4 84514.9 2703.07 2
-3 -3 -4 80363.3 2828.24 4
-3 4 3 82470 2763.45 2
4 -3 -3 83740.1 2759.26 2
-4 3 -3 84979.4 2839.07 2
-3 4 3 77980.8 2768.5 1
-3 3 4 82895.1 2705.43 2
3 -4 3 86165.8 2780.86 1
-4 4 0 96842.2 3177.13 1
0 -4 -4 93349 3073.54 1
0 -4 -4 85258.3 2989.72 2
0 4 4 86249.7 3006.42 2
-4 -4 0 95989.4 3031.93 3
0 4 -4 99397.7 3045.57 1
0 -4 4 101501 3037.03 1
4 -4 0 93883.5 3158.78 2
0 -4 4 99760.4 3111.83 2
0 4 4 84651.7 3046.86 1
-4 4 0 98552.4 3189.39 2
0 4 -4 103490 3120.7 2
0 -4 -4 93416.3 3159.14 4
4 0 -4 98531.4 3031.73 1
0 4 4 96821.7 3179.71 3
4 -4 0 96610.3 3161 1
0 4 4 95551.5 3154.64 4
-4 4 2 14465.6 733.483 2
2 4 4 13902.7 696.328 1
-4 2 -4 13382.5 708.561 2
-2 4 -4 15968.1 743.24 2
-4 2 -4 13525.2 683.28 1
-4 -2 -4 14171 763.199 4
-4 2 4 15417.6 650.612 4
-2 -4 4 16120.1 732.734 2
-2 -4 -4 14277.1 742.038 3
2 -4 -4 15676.4 705.702 1
2 4 -4 16647.4 682.842 1
-2 -4 -4 15076.1 718.765 1
-2 4 4 14390.3 659.993 2
2 -4 -4 14302.8 651.958 2
2 -4 4 15854.4 690.355 1
4 -2 4 13261.3 696.114 2
4 -4 -2 15999.3 759.562 1
4 -4 -2 14377 723.277 2
4 -2 -4 16069.4 670.609 4
-4 4 -2 14727 768.167 2
4 -4 2 15026.7 739.566 1
-4 -4 -2 15097 736.217 4
4 -2 -4 14606.5 684.779 1
2 4 4 13769.8 744.553 4
-2 4 -4 14414.8 686.41 1
4 -2 4 13930.3 679.685 1
-4 -4 -2 14963.9 716.557 3
-4 -2 -4 14169.8 748.654 3
2 4 4 15760.8 769.539 3
4 4 2 14993.7 721.96 3
-4 4 -2 15391.2 758.348 1
-2 4 4 13393.2 685.358 1
-2 4 4 14187 724.315 4
-4 2 4 15032.4 676.77 2
-4 4 2 13940.8 736.068 1
4 -4 2 14037.8 743.687 2
2 -4 4 14976.9 730.608 2
-2 -4 -4 14842.1 770.698 4
4 2 4 14909.1 749.214 4
2 -4 -4 15703.3 738.835 4
-4 2 4 13904.2 675.117 1
-2 -4 4 18129.2 691.517 1
4 4 4 56657.2 2090.97 4
4 -4 4 60158.1 2077.52 1
-4 -4 -4 54817.3 2111.99 4
4 4 4 57700.7 2124.1 3
4 -4 -4 56075.5 2028.46 2
-4 4 4 57509.4 2054.06 2
4 -4 -4 58362.6 2020.1 4
-4 4 -4 61879 2153.09 2
-4 4 -4 58999.3 2093.39 1
-4 4 4 55140.7 2068.44 1
-4 -4 -4 54757.7 2102.97 3
4 -4 -4 59511.3 2074.14 1
4 -4 4 60109.7 2130.57 2
0 1 5 619.662 127.748 3
1 -5 0 839.122 165.89 1
0 -5 1 476.68 129.526 2
0 -5 1 793.826 153.604 1
1 -5 0 704.691 144.76 2
0 5 -1 846.602 162.645 1
5 -1 0 648.066 137.744 1
0 1 -5 633.486 113.279 3
0 -5 -1 528.59 135.721 1
-1 5 0 502.159 130.894 2
-1 -5 0 731.562 156.959 2
-1 0 -5 716.45 146.851 3
1 0 5 448.603 119.547 3
1 0 -5 419.585 107.556 3
1 5 0 463.706 149.023 2
5 0 -1 371.488 109.872 1
0 1 5 579.571 154.441 4
-1 5 0 501.694 143.003 1
0 -1 -5 453.761 128.819 3
-1 0 5 558.477 112.548 3
0 5 1 339.556 128.064 2
0 -1 5 526.203 108.35 3
-5 1 0 596.454 138.524 1
1 5 0 649.37 152.323 1
0 5 1 393.757 118.185 1
-1 -5 0 492.797 128.548 1
0 -5 -1 528.711 133.036 2
0 5 -1 491.504 152.023 2
1 5 -2 4347.43 334.756 1
-5 1 -2 4377.58 364.449 2
-1 -2 5 4795.7 255.756 3
5 -2 1 4619.51 365.106 2
-2 5 -1 4377.15 350.38 1
2 -1 5 3928.02 267.965 2
-2 5 -1 4512.72 360.358 2
2 5 1 4460.9 320.888 3
1 5 -2 5515.96 395.32 2
5 1 2 4626.3 302.772 4
-1 2 -5 4364.83 284.616 2
-1 5 2 4266.99 334.075 2
2 -5 -1 4405.11 345.218 2
2 5 1 4094.13 346.53 1
-1 -5 -2 4544.79 362.352 1
-2 -5 1 4657.91 362.513 1
1 -5 2 4884.54 364.122 2
-5 2 1 5049.47 369.936 2
1 2 5 4367.82 378.664 4
1 -2 -5 5278.44 401.409 4
-5 2 1 4664.05 362.19 1
-1 -5 -2 3969.78 328.715 2
-5 -2 -1 4566.76 287.961 4
-1 -2 5 4622.58 274.605 2
5 -1 -2 4603.14 341.91 1
2 -5 -1 4653.76 356.095 1
1 2 5 4147.57 336.537 3
2 -1 5 4486.33 258.368 1
-1 5 2 4359.29 342.758 1
1 2 5 4253.03 267.359 1
1 -2 -5 4277.03 257.341 1
5 -2 1 4757.42 367.25 1
-2 1 5 4908.95 360.622 4
1 -5 2 4746.46 342.072 1
-2 -1 -5 4332.28 345.378 3
-5 1 -2 4269.88 342.746 1
-2 -5 1 4582.41 358.984 2
1 -2 5 4145.26 281.598 2
2 1 5 4215.5 347.086 3
-2 -1 5 4370.21 270.065 3
5 -2 -1 4473.99 348.375 1
2 -5 1 4494.71 343.471 1
-5 1 2 4537.33 338.094 1
5 -1 2 4526.97 345.215 1
-5 2 -1 4439.59 350.217 1
2 -5 1 4244.04 351.054 2
1 2 -5 5015.64 262.799 3
-2 5 1 3990.01 347.661 1
5 2 1 4384.34 277.376 4
-5 2 -1 4794.8 377.536 2
-1 2 5 4579.66 359.218 4
-2 -5 -1 4248.83 305.132 3
-1 2 5 3797.57 320.397 3
2 5 -1 4379.66 347.179 1
2 1 5 3818.18 351.207 4
1 5 2 4244.31 346.138 1
1 -5 -2 3841.25 311.567 2
-2 5 1 4377.45 351.016 2
-2 1 -5 3945.68 270.237 2
-1 -5 2 4440.19 356.964 2
1 5 2 4723.12 350.633 3
1 -5 -2 4418.35 345.135 1
-1 5 -2 4816.17 366.109 2
-1 2 5 3730.98 243.967 1
-1 -5 2 4479.53 330.053 1
-5 -1 -2 4313.9 303.035 4
-2 -5 -1 4190.5 346.346 1
-1 -2 -5 3949.76 362.393 4
-1 -2 -5 4390.4 344.1 3
-1 5 -2 4372.91 339.293 1
2 5 -1 4483.06 265.592 3
5 -2 -3 5022.57 377.348 1
-5 2 -3 4556.5 365.948 1
-3 2 5 4422.2 350.849 4
-2 5 3 3451.12 328.846 1
2 3 5 3768.21 348.831 3
2 -5 3 3650.76 344.311 2
-5 3 2 4340.83 367.389 1
5 -2 -3 4644.39 261.404 4
3 -2 5 3961.51 315.055 2
5 -3 2 4427.69 378.78 2
3 -2 5 4129.51 295.411 1
-3 -2 -5 4080.98 371.787 3
2 -3 -5 3595.98 280.87 1
-3 5 -2 4238.09 380.381 2
-5 -3 -2 3473.46 317.878 4
-2 -5 -3 3580.65 337.983 1
-5 2 -3 4657.09 387.575 2
2 -5 3 4634.58 351.166 1
-3 -2 -5 3788.59 394.445 4
2 -3 -5 3314.83 241.623 2
5 -3 2 4240.57 357.419 1
-2 5 3 3591.92 321.445 2
2 -3 -5 4078.25 363.552 4
-3 5 -2 4141.93 363.174 1
2 3 5 3830.68 374.414 4
-2 -5 -3 3445.85 330.372 3
-3 2 5 3526.2 271.985 1
3 5 2 4005.84 352.901 1
3 -5 -2 4086.08 345.573 2
3 -5 -2 4138.95 355.09 1
2 5 -3 4130.69 342.128 1
2 3 5 4437.97 314.221 1
-2 3 -5 3521.41 276.518 1
-2 -5 -3 4096.03 384.282 4
3 5 2 3857.51 336.489 3
5 2 3 4799.37 355.556 4
-5 3 2 4412.32 364.192 2
-2 3 -5 3839.59 324.299 2
-3 2 5 4396.66 275.895 2
0 -5 3 15675.2 708.264 1
0 -3 -5 15070.7 750.397 3
-5 3 0 16763.7 800.028 2
0 5 3 13439.7 710.732 1
5 0 -3 16533.5 720.236 1
3 5 0 15480.1 763.488 1
0 -5 -3 14455.8 688.42 2
-3 5 0 15236.9 762.102 1
0 3 5 16003 778.252 4
0 -3 -5 13594.5 637.203 1
0 3 5 13596.3 631.729 1
3 5 0 15394.9 664.676 3
5 -3 0 16761.7 784.335 2
0 5 3 15221.4 711.378 2
0 -3 -5 15288.7 799.871 4
0 -3 5 15919 681.932 2
0 5 -3 14914.3 708.993 1
3 0 -5 15268.6 604.263 1
0 -5 3 14713.8 738.822 2
-3 0 -5 14098.3 652.536 2
0 -5 -3 14873.3 729.779 1
0 3 5 16275.3 775.428 3
-3 -5 0 15405.2 654.526 3
0 5 -3 15854 759.428 2
0 3 -5 16369.4 682.035 2
-5 3 0 15372.2 766.027 1
3 -5 0 15133.8 757.646 2
0 -3 5 16049.7 605.947 1
3 -5 0 15661.6 760.291 1
0 3 -5 15048.3 602.347 1
5 -3 0 16907.4 783.215 1
-3 5 0 15213.7 771.856 2
-5 2 3 5279.72 382.758 2
-3 5 2 3909.77 350.242 2
-3 5 2 3911.27 352.445 1
2 -3 5 3681.91 272.978 1
-5 3 -2 4563.5 400.846 2
-2 5 -3 3634.84 331.755 1
3 -2 -5 4317.82 293.963 1
5 3 2 4221.52 326.217 4
2 5 3 3625.15 342.032 1
-5 3 -2 4274.82 382.033 1
-3 2 -5 4135.71 330.244 2
3 2 5 3891.29 381.066 4
-2 3 5 3712.82 286.28 1
-2 -5 3 4063.76 327.736 1
5 -3 -2 4336.35 361.989 2
2 -3 5 3619.32 314.441 2
3 -2 -5 4439.13 356.511 4
-2 5 -3 3878.98 357.74 2
-5 -2 -3 4469.74 352.27 4
5 -2 3 4068.72 362.013 2
2 -5 -3 3817.12 333.923 1
-3 2 -5 3554.38 286.438 1
3 2 5 4247.39 376.836 3
3 -5 2 4261.45 354.832 1
3 5 -2 4555.64 366.002 1
2 5 3 4337.01 361.482 3
-2 3 5 3865.47 341.938 4
-2 -3 -5 4133.54 377.017 3
5 -2 3 4839.87 368.058 1
-2 -5 3 4133.73 355.731 2
3 -5 2 4010.94 363.661 2
2 3 -5 4463.7 267.545 1
2 -5 -3 3491.85 309.631 2
-2 3 5 3468.83 247.468 2
-2 -3 -5 3105.44 341.007 4
5 -3 -2 4606.13 375.258 1
-3 -5 -2 3852.24 323.021 3
-5 2 3 5048.52 374.188 1
-4 5 -3 3921.8 394.841 1
-4 -3 -5 3163.81 397.424 4
5 -3 -4 4549.68 382.211 2
5 -4 3 4585.44 433.712 2
-3 4 -5 4266.34 387.537 2
-5 -4 -3 4170.87 391.584 3
-5 4 3 3992.79 391.323 1
3 -4 -5 4404.39 387.609 4
-5 3 -4 4387.18 398.412 1
5 3 4 3823.23 384.051 4
3 -5 4 3676.13 351.993 1
4 -3 5 4365.39 385.452 2
4 -3 5 3733.15 343.291 1
4 5 3 4661.12 408.066 3
-5 3 -4 4246.92 414.328 2
-3 -5 -4 3405.61 395.828 4
-5 -4 -3 4047.17 400.163 4
3 4 5 3867.18 355.99 1
5 -3 -4 4054.57 379.187 1
-3 4 -5 4370.65 363.445 1
3 -4 -5 4227.38 350.846 1
5 -4 3 4039.45 385.75 1
-4 3 5 4107.63 355.039 4
-4 3 5 4394.56 352.884 1
-3 5 4 3552.09 352.558 1
3 -5 4 3533.95 388.551 2
-4 -3 -5 4078.29 408.365 3
-4 3 5 4251.05 340.648 2
5 -3 -4 4400.63 313.251 4
3 5 -4 4411.04 360.804 1
3 -4 -5 3821.45 314.073 2
-3 -5 -4 3916.82 386.227 3
3 4 5 3599.51 403.019 4
-5 4 3 4514.88 401.007 2
-3 5 4 3875.88 350.605 2
3 4 5 4327.95 416.021 3
4 -5 -3 4618.89 392.678 2
4 -5 -3 4068.11 395.392 1
-4 5 -3 4030.6 418.045 2
1 -4 -5 9703.38 495.15 2
-1 -5 -4 9751.94 606.81 3
4 -1 5 11368 573.178 1
-1 -4 5 12781.4 540.616 1
1 4 5 9644.97 550.091 1
5 -4 1 12018.8 658.722 1
-4 -5 1 11543.1 512.32 3
5 -1 -4 10614.3 583.301 1
1 -5 4 11955.8 590.385 1
-5 4 1 10385.3 636.944 1
1 -5 4 10912 630.322 2
-1 -5 -4 11272.6 621.418 1
5 1 4 10504 608.621 4
-4 -1 -5 10565.5 638 3
-4 1 5 11376.9 574.352 4
4 -5 -1 11705.8 657.559 2
-1 5 4 10049.2 587.118 1
-1 -4 5 12124.6 599.278 2
-5 -4 -1 10343.5 573.255 3
1 -4 -5 10761.7 648.219 4
5 -4 1 11305.4 659.497 2
1 5 -4 13028.8 666.573 2
1 -4 -5 9752.77 547.975 1
-4 5 -1 12104 690.478 2
-4 5 -1 11226.1 656.897 1
1 5 -4 11232.9 579.28 1
-1 5 4 10426.6 560.228 2
-1 4 -5 11747.3 603.212 2
-4 1 5 11011.3 536.304 1
-1 4 -5 10865.1 541.313 1
1 4 5 10267.8 641.609 4
1 4 5 11063.3 653.457 3
-1 -5 -4 10146.1 561.72 2
-5 4 1 10538.1 639.208 2
-5 1 -4 10997.9 629.079 2
4 -5 -1 11806.2 662.549 1
4 5 1 12040.5 601.199 3
-1 -5 -4 10439.6 676.233 4
-4 1 -5 10801.2 590.584 2
-1 4 5 10381.2 627.402 4
-1 5 -4 11591.9 630.576 2
-1 -4 -5 9970.88 617.156 3
4 -5 1 11223.3 641.351 1
-4 5 1 10901.8 642.844 1
1 -5 -4 10652.4 590.575 1
-1 4 5 9968.55 499.524 2
-1 -4 -5 10770.4 665.314 4
5 -4 -1 10595.8 638.624 2
-1 -5 4 11812.8 629.885 2
4 5 -1 10830.1 504.85 3
-1 -5 4 12157.4 579.442 1
1 -5 -4 11606.6 661.777 4
-4 -5 -1 10749.5 573.095 3
1 4 -5 11639.8 530.12 1
-1 -4 -5 9430.55 500.999 2
-1 4 5 9353.97 537.961 1
-1 -4 -5 10579.2 572.469 1
1 5 4 11773 663.027 3
-5 1 4 10700.1 569.475 1
-1 5 -4 10692.9 580.236 1
4 1 5 9960.14 623.871 4
1 -4 5 11200.8 600.489 2
5 -4 -1 11283.6 641.239 1
-4 5 1 11096.9 648.815 2
4 -1 -5 10952.3 538.785 1
1 -5 -4 9587.05 533.253 2
-5 4 -1 10864.8 648.58 2
5 -1 4 10459.2 590.361 1
1 5 4 9420.62 583.261 1
-5 4 -1 11944.5 673.468 1
1 -4 5 11921 543.353 1
4 -5 1 11892.6 669.704 2
1 4 -5 12197.4 606.029 2
-5 1 4 11824.3 509.84 4
4 -3 -5 4526.19 374.37 4
-5 -3 -4 4055.15 416.353 3
-5 4 -3 4151.51 404.896 2
-5 3 4 3832.34 349.329 2
3 -5 -4 3878.75 344.555 2
-4 3 -5 3418.81 343.444 1
-3 4 5 3434.2 305.273 2
-4 -5 -3 3642.59 402.414 4
4 -3 -5 4404.67 363.441 1
3 4 -5 4468.22 329.374 1
4 -5 3 4745.05 400.505 1
5 4 3 3850.68 382.598 4
3 -4 5 4159.4 383.881 2
-5 4 -3 4139.64 405.469 1
-3 5 -4 3935.85 375.003 1
-4 3 -5 4217.23 390.086 2
4 3 5 4361.55 428.698 4
-4 5 3 3865.53 371.483 2
-3 4 5 3966.41 351.212 1
3 -4 5 4490.57 352.883 1
4 3 5 3691.59 376 3
-3 5 -4 3914.58 401.03 2
3 -5 -4 4030.64 368.124 1
5 -3 4 3668.43 352.675 1
5 -4 -3 4584.44 409.835 1
3 5 4 3595.51 382.462 3
-4 5 3 3551.8 385.108 1
-3 -4 -5 4202.89 427.07 4
3 5 4 3095.56 408.634 4
-5 3 4 3889.43 384.788 1
-3 -4 -5 4278.15 419.006 3
3 5 4 3710.16 372.834 1
3 -5 -4 4048.3 387.639 4
-3 4 5 4075.91 386.853 4
5 -4 -3 4567.52 389.624 2
4 -5 3 3932.95 397.392 2
-5 -3 -4 4706.56 427.779 4
5 -3 4 3063.26 352.34 2
-4 -5 -3 3634.3 364.053 3
4 -3 -5 4103.77 340.244 2
4 5 -3 4036.42 371.89 1
0 5 5 1546.22 283.318 4
5 0 -5 2025.35 235.258 1
0 -5 -5 1229.76 194.643 2
0 5 5 1289.3 230.883 1
0 -5 5 1597.84 217.068 1
0 -5 -5 1762.56 257.244 1
0 5 5 1565.27 208.542 2
-5 -5 0 1511.23 211.085 3
0 -5 5 1502.56 250.778 2
-5 5 0 1675.87 276.702 2
0 5 5 1598.13 280.69 3
-5 5 0 1921.01 319.334 1
0 5 -5 1234.99 204.356 1
5 -5 0 1924.02 302.649 1
5 -5 0 1748.96 293.184 2
0 -5 -5 2129.36 343.533 4
0 5 -5 1508.85 252.842 2
5 5 2 20297 961.585 3
-5 5 2 20428.1 1016.47 1
5 -2 -5 21579.2 898.178 4
-2 5 5 18726.9 917.169 1
-2 -5 -5 20363.3 1016.81 3
-2 5 5 21054.4 1004.29 4
-5 5 2 20209.6 1001.76 2
-5 -5 2 22046.6 813.402 3
2 -5 -5 19806.2 877.839 2
-5 2 5 19280.2 898.973 1
2 5 5 22187.9 1046.77 4
-5 -2 -5 18428.5 999.661 4
5 -2 5 20919.2 971.086 2
5 -5 2 21860.6 1014.75 1
-2 5 -5 22616.4 1010.71 2
-5 2 5 21647.8 926.255 2
2 5 -5 22922.6 919.272 1
5 -5 -2 21414.9 1006.76 1
5 -2 -5 19488 911.028 1
-5 2 -5 20272.9 979.102 2
-2 -5 5 22733.8 904.517 1
-5 5 -2 22299.4 1055.53 2
-2 -5 -5 19631.6 1029.79 4
5 -5 -2 20504.7 992.66 2
2 -5 -5 21532 1019.86 4
2 5 5 19377.9 989.505 3
-5 2 5 22070.9 882.307 4
5 -2 5 20236 939.17 1
-2 -5 5 22862.2 979.55 2
2 -5 5 22337.1 930.641 1
-5 -5 -2 19171.5 975.174 4
2 5 5 19786.5 943.126 1
2 -5 5 20984.3 995.331 2
-5 2 -5 19190 924.503 1
-5 5 -2 21099.8 1023.4 1
-5 -2 -5 19706.5 1004.34 3
-2 5 5 19511 885.296 2
-2 -5 -5 19774.2 949.252 1
5 -5 2 20481.8 1024.87 2
-2 5 -5 20515.4 926.019 1
-5 -5 -2 20598.8 948.494 3
5 2 5 20492.7 1004.24 4
2 -5 -5 20365.4 932.161 1
-5 5 4 891.368 238.595 1
5 -4 -5 1012.57 240.333 4
-5 4 5 1478.73 266.283 1
5 -5 -4 1493.3 288.128 1
-4 5 5 1065.41 236.078 2
5 4 5 1124.57 274.409 3
5 -5 -4 1399.97 267.644 4
5 -5 4 1160.68 284.348 2
4 5 5 1487.3 333.549 4
-5 -4 -5 1302.26 300.788 4
5 -4 -5 1401.21 241.858 2
-5 5 4 947.676 241.951 2
-5 -5 -4 1069.88 263.764 4
-5 4 -5 917.685 237.286 1
4 -5 -5 1000.77 236.739 1
4 5 -5 1745.67 243.312 1
-4 -5 -5 956.284 266.209 3
-4 5 -5 1606.3 307.395 2
5 5 4 1410.28 317.181 4
5 -4 -5 1324.81 257.035 1
5 -4 5 1050.35 262.884 2
4 -5 5 1703.69 265.861 1
-5 4 5 1657.01 268.852 2
-4 5 5 1122.57 253.538 1
-4 5 -5 928.244 248.135 1
-5 5 -4 1215.77 268.778 1
4 -5 -5 1640.77 296.186 4
5 5 4 1391.66 296.562 3
-4 -5 -5 1098.14 311.273 4
-5 -5 -4 1391.95 268.761 3
4 5 5 1057.84 286.826 3
5 -4 5 1234.75 247.186 1
5 4 5 1131.47 280.174 4
-5 4 5 1313.57 258.743 4
4 -5 -5 1378.32 244.868 2
5 -5 4 1310.38 260.87 1
5 -5 -4 1148.85 244.989 2
4 5 5 1228.05 273.151 1
-5 -4 -5 1235.4 297.806 3
-5 5 -4 1354.35 280.059 2
4 -5 5 1228.24 278.664 2
-5 4 -5 850.787 255.263 2
6 0 0 207313 6207.28 1
0 6 0 182381 6197.29 1
0 -6 0 190328 6191.14 1
0 6 0 197295 6230.79 2
0 0 6 201071 6113.25 3
0 -6 0 191634 6200.27 2
0 0 -6 208009 6138.19 3
1 -1 6 14872 679.708 3
-1 1 -6 13267.9 559.966 2
6 1 1 14619.9 583.69 4
-1 -1 6 14739.9 630.077 3
1 6 1 13893.2 741.469 2
1 6 1 13010 720.861 1
1 1 -6 15269.8 647.646 3
-6 1 1 14046.5 721.74 1
-1 1 6 13950.3 741.989 4
-1 6 -1 14271.4 762.182 2
-6 -1 -1 13918.1 593.378 4
-1 6 1 13421.9 726.667 1
-1 6 1 13330.4 728.003 2
1 6 -1 14945.3 771.004 2
1 -1 -6 13411.2 677.81 3
-1 -6 -1 13473.1 725.651 1
-1 6 -1 15107.6 752.223 1
-1 1 6 14283.8 684.392 3
1 -6 1 14067.3 725.226 1
1 -6 1 13445.4 737.164 2
-1 -6 -1 14001.5 726.526 2
1 1 6 14538.9 711.64 3
-6 1 -1 13513.9 719.402 1
-1 -6 1 13566.3 735.576 2
6 -1 1 14752.3 741.183 1
1 6 -1 14313.1 735.857 1
1 -6 -1 13222.3 706.685 2
-1 1 -6 15586.5 692.129 3
1 -1 6 13240 560.982 2
6 -1 -1 15897.4 759.066 1
-1 -6 1 14102.9 728.377 1
1 -6 -1 14061.1 732.88 1
1 1 6 13870.9 767.598 4
-1 -1 -6 14835.7 730.913 3
0 6 -2 2311.33 266.866 1
0 -6 -2 2561.68 295.386 1
-2 0 -6 2320.58 271.126 3
-2 6 0 2548.64 300.399 1
2 -6 0 2096.68 287.409 1
0 6 -2 2413.94 301.462 2
6 0 -2 2494.56 283.299 1
-6 2 0 2559.18 312.141 2
0 6 2 2338.74 275.293 2
0 2 6 2034.86 300.149 4
2 6 0 2493.78 244.767 3
0 6 2 1670.35 258.965 1
0 -6 -2 2128.47 264.633 2
0 2 -6 2921.84 240.687 3
-2 6 0 2805.8 325.38 2
0 -2 -6 2246.43 268.698 3
2 -6 0 2433.84 283.563 2
0 -6 2 2603.85 304.933 2
0 -2 6 2812.28 216.256 2
2 0 6 2226.04 259.008 3
0 -6 2 2414.99 265.77 1
-2 0 -6 2150.42 188.886 2
-2 -6 0 2661 308.636 2
2 6 0 1920.29 278.76 1
0 -2 -6 2753.5 337.699 4
0 -2 -6 2204.48 186.163 1
6 -2 0 2758.24 309.51 1
0 2 -6 2620.77 209.414 2
-2 -6 0 2492.55 302.13 1
-2 0 6 2279.34 238.267 3
-6 2 0 2607.71 297.147 1
-6 -2 0 1854.21 193.151 4
6 0 2 2406.34 219.314 4
0 2 6 2382.06 284.393 3
0 2 6 2124.87 179.97 1
2 -2 6 5862.8 330.628 1
6 2 2 6559.78 390.477 4
6 -2 -2 6242.98 451.478 1
-2 -6 2 6435.93 479.282 2
-2 -6 2 6217.89 454.458 1
2 -6 2 5449.19 446.301 2
-2 2 -6 5376.18 325.908 1
2 -6 -2 6507.63 467.03 1
-2 -2 -6 5570.14 446.121 3
2 -2 -6 6299.48 483.775 4
-6 2 -2 5965.31 449.412 1
-2 -6 -2 6108.24 455.977 2
2 6 2 5969.87 468.117 1
-2 2 -6 5538.3 370.029 2
2 -6 2 6471.87 456.525 1
2 2 6 6196.11 499.909 4
-2 -2 6 6424.02 329.476 3
2 -6 -2 6098.82 447.801 2
-2 6 -2 6198.33 485.189 2
-2 2 6 6024.6 458.537 4
-2 6 2 5824.46 459.005 1
2 2 6 5501.63 437.246 3
-6 2 2 5816.46 434.162 1
-2 6 -2 5737.81 446.236 1
-6 2 -2 6321.88 492.719 2
-2 6 2 5363.92 437.605 2
-6 2 2 7194.67 491.585 2
-2 -6 -2 5820.65 421.08 3
-6 -2 -2 6192.1 398.11 4
-2 2 6 5384.97 323.132 1
2 6 2 5579.15 434.163 3
2 -2 -6 6017.19 339.896 1
2 6 -2 5889.5 443.385 1
6 -2 2 6484.51 466.124 1
-2 -6 -2 6580.08 476.536 1
-2 -2 -6 5548.19 487.721 4
2 -2 6 5460.98 365.638 2
1 -6 3 7718.79 501.586 1
3 -6 -1 7760.17 529.924 1
-3 -6 1 7007.9 390.914 3
3 6 1 7527.64 537.808 1
3 -1 6 7744.02 433.25 2
6 1 3 7718.89 472.192 4
-3 -1 -6 6745.38 508.75 3
1 -3 -6 7037.56 405.297 1
-3 6 -1 7577.48 547.857 2
-1 -3 6 7869.81 432.925 2
-1 3 -6 7084.25 384.878 1
-1 -6 -3 6434.84 472.815 2
1 -6 3 6797.01 505.822 2
-3 -6 1 8319.11 541.263 1
-3 6 -1 7347.01 533.711 1
1 -3 -6 7567.32 548.773 4
1 3 6 7490.75 529.511 3
1 6 -3 7963.86 513.139 1
-1 -3 6 8484.38 368.429 1
-1 3 -6 8039.6 449.565 2
-6 1 -3 8104.98 554.244 2
-1 6 3 6901.9 502.071 1
1 3 6 7635.13 565.278 4
6 -1 -3 7671.66 501.258 1
-6 3 1 7543.55 520.279 1
3 -1 6 7826.71 416.598 1
3 6 1 8225.44 485.123 3
1 6 -3 8024.23 549.665 2
-6 -3 -1 6950.48 434.622 4
1 3 6 6689.8 409.523 1
-1 -6 -3 7569.31 532.488 1
-6 3 1 8181.4 550.709 2
6 -3 1 7607.36 530.619 2
-3 1 6 7424.33 382.582 1
-1 6 3 7392.19 495.26 2
3 -6 -1 7743.08 521.105 2
6 -3 1 7850.43 530.729 1
-3 1 6 8425.27 519.144 4
6 -3 -1 7546.42 523.444 1
3 -6 1 7450.87 536.043 2
-1 -6 3 8204.15 500.493 1
3 6 -1 7246.88 519.452 1
3 1 6 7426.88 523.152 3
1 -6 -3 6415.81 462.436 2
1 3 -6 8075.35 385.067 3
-1 -6 3 8029.82 536.652 2
-1 -3 -6 6685.45 549.918 4
-6 1 3 7875.49 504.909 1
1 3 -6 8717.76 459.025 2
-1 3 6 8186.61 551.821 4
-1 3 6 6310.8 389.301 1
-1 6 -3 7419.61 495.359 1
-6 3 -1 7480.75 526.528 1
1 3 -6 7693.68 364.836 1
-1 -3 -6 7654.05 526.576 3
6 -1 3 7870.7 516.27 1
-1 3 6 6853.64 500.695 3
1 -3 6 7237.14 378.542 1
1 6 3 7288.01 516.579 1
6 -3 -1 7461.71 525.739 2
3 -1 -6 7923.74 394.251 1
-1 6 -3 8000.5 540.074 2
-1 -3 -6 6881.67 411.785 1
3 -6 1 7724.95 527.668 1
3 6 -1 7846.2 413.46 3
-3 6 1 7935.77 552.576 1
-3 -6 -1 6941.74 450.606 3
1 -3 6 7704.93 454.932 2
-3 1 -6 7473.81 442.279 2
-3 -6 -1 8120.25 549.179 1
-6 3 -1 8592.76 571.967 2
-3 6 1 8246.4 548.503 2
1 6 3 7009.71 509.77 3
3 1 6 6152.83 514.664 4
1 -6 -3 7591.51 511.463 1
6 -3 -3 382.755 145.394 4
-6 3 -3 945.161 269.948 2
-3 6 -3 762.189 250.821 2
6 -3 3 196.78 214.469 2
-6 3 3 518.045 213.459 2
3 6 -3 476.775 215.551 1
-3 3 6 497.714 142.566 2
3 -3 -6 361.668 130.107 2
-3 -6 -3 141.472 156.177 3
-3 6 -3 399.666 216.639 1
-3 3 6 158.23 190.756 4
3 -3 -6 649.037 243.638 4
3 -6 3 586.189 218.923 1
3 3 6 652.312 275.954 4
-3 -3 -6 67.7084 212.203 4
6 -3 -3 445.738 202.645 1
-3 3 -6 584.247 170.79 1
-3 -3 -6 372.221 209.344 3
-3 -6 -3 311.123 221.573 1
3 -6 3 518.246 234.328 2
6 -3 3 312.072 198.774 1
-6 -3 -3 365.721 222.387 4
6 -3 -3 633.522 216.833 2
6 3 3 879.335 240.254 4
-6 3 -3 250.211 204.238 1
3 6 3 1022.38 269.087 1
3 6 3 383.979 201.418 3
-3 3 -6 404.977 181.383 2
3 -6 -3 401.754 235.553 1
-3 -6 3 599.491 214.941 1
-3 3 6 400.594 156.634 1
-3 6 3 346.058 210.436 1
3 -3 -6 94.979 139.254 1
3 -3 6 511.926 164.232 1
3 -3 6 438.142 175.608 2
3 3 6 360.688 177.694 3
3 -6 -3 328.128 186.475 2
-6 3 3 573.66 218.603 1
-3 6 3 -33.7332 163.421 2
6 -4 2 2896.45 354.917 1
6 2 4 2394.39 323.472 4
-2 4 -6 2227.51 294.726 2
6 -2 -4 3036.23 247.686 4
4 6 2 2645.17 318.795 3
-2 -6 -4 2675.6 344.663 1
-4 6 -2 3256.88 392.591 2
-6 4 2 3098.86 371.054 2
4 -6 -2 2457.45 334.494 1
-4 2 6 2867.05 327.989 4
4 -2 6 2830.34 280.957 1
-2 -6 -4 2441.85 325.972 3
-4 6 -2 3141.62 381.07 1
-2 6 4 2679.63 332.89 1
2 -6 4 2622.58 314.861 1
-2 -4 6 2853.89 302.054 2
-4 -2 -6 2780.36 383.346 4
-6 4 2 2083.73 325.738 1
2 -4 -6 3370.38 368.186 4
-2 4 -6 2685.27 278.34 1
-4 2 6 2578.69 246.352 2
-6 2 -4 2537.18 343.654 2
6 -2 -4 2462.13 319.531 1
2 -4 -6 2693.65 290.882 1
2 4 6 2278.94 278.728 1
-6 2 -4 2738.17 329.642 1
4 -2 6 2565.05 303.281 2
2 -4 -6 2373.93 231.631 2
6 -4 2 2578.97 369.306 2
-4 -2 -6 2406.25 332.911 3
2 6 -4 3046.95 327.647 1
4 6 2 2990.42 352.715 1
2 4 6 3223.3 396.528 4
2 -6 4 2366.56 337.759 2
-2 -6 -4 3111.44 350.726 2
4 -6 -2 2232.19 326.019 2
-4 -6 2 2772.11 215.007 3
-4 2 6 2526.05 265.846 1
-6 -4 -2 2801.05 335.538 3
-6 -4 -2 2725.82 324.914 4
-2 -6 -4 2614.46 381.995 4
2 4 6 2606.56 337.918 3
-2 6 4 2380.8 298.07 2
0 -4 6 73569.2 2249.7 1
-6 4 0 70228.7 2509.24 2
0 4 6 61548.6 2285.49 1
6 -4 0 69981.1 2473.81 1
-4 6 0 70680.4 2512.06 2
-4 0 -6 64352.1 2319.11 2
0 -6 -4 70376.6 2500.47 4
0 4 -6 69829.8 2252.77 1
4 0 -6 68875 2246.34 1
0 4 6 67773.6 2470.69 4
4 6 0 67851.4 2461.88 1
0 4 6 62241 2425.01 3
0 6 4 66464.5 2372.27 2
6 -4 0 72814.6 2498.94 2
0 -6 -4 64588.3 2394.88 1
0 -4 -6 70409.9 2518.51 4
-4 -6 0 69691.5 2308.25 3
4 6 0 69222.7 2320.75 3
4 -6 0 68839.7 2479.13 2
0 4 -6 74298.5 2361.79 2
-4 6 0 67664.3 2483.5 1
0 -4 6 72110 2361.56 2
-6 4 0 69685.2 2498.4 1
0 -6 4 74586.6 2391.86 1
0 -4 -6 67423.4 2314.45 1
0 6 4 69236.1 2497 3
6 0 -4 71976.8 2382.76 1
0 6 4 62570.6 2403.21 1
0 -4 -6 60093.6 2192.09 2
0 -6 4 71208 2452.23 2
0 6 -4 71245.7 2461.21 2
0 -6 -4 64774 2338.96 2
4 -6 0 73846.7 2493.54 1
0 6 -4 69912.4 2397.69 1
0 -4 -6 68459.9 2463.53 3
-4 2 -6 2607.1 272.197 1
2 -6 -4 2136.59 286.184 2
4 -2 -6 2344.07 257.248 1
2 6 4 2668.77 331.646 1
-6 4 -2 2770.88 375.939 2
-2 6 -4 2440.11 328.33 1
2 -6 -4 2548.22 324.736 1
2 4 -6 2967.55 259.714 1
2 -4 6 2722.88 313.907 2
2 -4 6 2333.04 252.075 1
-2 6 -4 2950.18 346.369 2
6 -4 -2 2736.41 338.749 2
-4 6 2 2734.19 352.259 2
4 -6 2 2768.85 363.453 2
-6 -2 -4 2523.89 331.802 4
4 2 6 2646.94 371.22 4
-4 2 -6 2536.34 299.498 2
-2 -6 4 2560.53 326.574 2
-2 -6 4 2937.83 306.752 1
-2 -4 -6 2387.02 332.25 3
-2 4 6 2348.34 275.521 1
-4 6 2 2214.98 324.077 1
6 -4 -2 3014.27 349.552 1
4 2 6 2821.68 351.424 3
-6 2 4 3245.66 251.252 4
-6 2 4 3062.2 323.117 1
-2 -4 -6 2615.38 388.405 4
-2 4 6 2589.76 336.634 4
4 6 -2 2705.68 222.066 3
4 -2 -6 2917.25 316.556 4
4 6 -2 2691.47 334.116 1
-4 -6 -2 2512.09 290.478 3
-6 2 4 3253.25 343.907 2
-6 4 -2 2778.74 364.869 1
4 -6 2 2506.74 333.405 1
-2 4 6 2672.14 248.932 2
6 -2 4 2788.69 325.464 1
2 6 4 2589.98 340.365 3
4 -4 -6 8941.03 578.292 4
-4 -4 -6 7903.19 630.989 4
-6 4 -4 8303.94 603.821 1
-4 4 6 7395.77 516.861 1
4 -6 -4 7849.63 568.27 1
6 -4 -4 7923.08 557.737 2
-4 4 -6 7899 543.919 1
-6 -4 -4 7916.18 589.401 3
-6 4 -4 8939.35 630.426 2
4 -4 -6 8302.77 490.46 2
-4 -4 -6 8170.57 612.229 3
6 4 4 7677.38 564.873 4
-4 4 -6 7855.1 575.699 2
-4 -6 -4 9478.13 670.267 4
4 -4 6 8834.95 536.849 1
-4 4 6 9111.83 565.627 4
6 -4 -4 8763.48 486.844 4
4 6 -4 8886.8 576.652 1
6 -4 4 8395.73 588.814 1
-6 4 4 8768.57 588.919 2
4 -4 -6 8408.94 535.891 1
-4 6 -4 8827.92 610.563 1
4 6 4 8536.24 597.753 1
-4 4 6 8172.38 499.491 2
-6 -4 -4 7688.23 576.196 4
-4 -6 -4 8235.32 594.299 3
-6 4 4 8147.29 589.269 1
-4 6 -4 8342.22 621.394 2
4 -6 4 7574.39 548.452 1
4 4 6 7693.25 619.838 4
4 -6 4 7734.63 604.75 2
4 -4 6 8219.28 584.81 2
4 4 6 8834.12 615.727 3
-4 6 4 7448.83 567.691 1
-4 6 4 8614.44 578.764 2
6 -4 -4 7806.25 558.986 1
6 -4 4 8424.94 614.749 2
4 6 4 8352.59 597.521 3
4 -6 -4 8265.16 564.394 2
3 5 6 21327.3 1022.17 1
-5 -3 -6 22141.6 1155.91 4
-5 3 6 23856.6 996.603 2
-5 -3 -6 22450 1129.16 3
-6 5 3 22265.5 1093.8 2
-6 3 -5 22847.4 1112.84 2
6 -3 -5 23977.2 962.505 4
6 -5 3 23820.5 1113.9 1
6 3 5 22660.4 1074.28 4
-6 -5 -3 22060 1068.32 3
5 -3 6 21758.7 1009.89 1
3 -5 -6 23571.2 1092.91 4
6 -5 3 23476.3 1147.39 2
-5 6 -3 23138.9 1128.88 1
3 -6 5 25505.6 1068.19 1
3 -5 -6 21698.4 958.075 2
3 6 -5 24123 1036.82 1
6 -3 -5 23001.1 1057.76 1
-3 6 5 23093.1 1036.07 2
-6 5 3 21219.8 1098.05 1
-5 -6 3 23093 832.677 3
-5 3 6 22817.7 991.698 4
3 5 6 22259.2 1133.87 3
-6 -5 -3 22668 1070.1 4
-3 -6 -5 22110.5 1107.48 3
5 -6 -3 22336.9 1093.13 1
5 6 3 23271.9 1088.58 3
-3 5 -6 22336.3 1016.15 1
3 -5 -6 22449 1014.24 1
-6 3 -5 20757.1 1046.63 1
-5 3 6 21987.9 1008.53 1
3 -6 5 21537.8 1099.53 2
-3 6 5 20728.7 1047.07 1
-3 5 -6 24447.4 1103.36 2
-5 6 -3 24209.5 1169.44 2
3 5 6 23788.7 1164.18 4
-3 -6 -5 21888 1146 4
5 -6 -3 23527.4 1092.59 2
-3 -5 6 24406.4 1056.6 2
5 -3 6 20639.3 1027.39 2
1 -5 -6 8931.46 549.259 1
1 5 6 8333.62 615.174 3
-1 -6 -5 8416.91 653.186 4
5 6 1 8167.1 534.034 3
-1 5 -6 8924.03 521.193 1
1 -5 -6 8186.19 628.018 4
-1 6 5 7371.39 552.714 1
6 -1 -5 9310.96 558.621 1
6 1 5 8033.69 587.457 4
-5 1 6 9145.16 544.096 4
-1 5 -6 9652.29 584.437 2
-6 1 -5 8636.65 600.071 2
1 5 6 9483.51 656.7 4
-5 6 -1 9227.21 650.381 2
-1 6 5 8780.77 537.345 2
-1 -6 -5 7264.64 570.239 3
1 -5 -6 8130.26 469.507 2
1 6 -5 10230.9 629.86 2
-6 5 1 9023.66 639.205 1
1 -6 5 9068.92 611.783 2
-5 -6 1 9256.19 484.722 3
-5 1 6 9349.01 518.089 1
-5 6 -1 8679.65 626.431 1
6 -5 1 9143.41 651.73 2
1 5 6 8118.55 539.625 1
-6 -5 -1 9850.16 578.415 3
-1 -5 6 9642.29 582.044 2
5 -1 6 8930.52 537.611 1
1 -6 5 9991.27 565.992 1
-1 -6 -5 8989.66 594.495 1
5 -6 -1 7969.87 600.703 2
-5 -1 -6 9047.7 625.458 3
6 -5 1 10258.4 652.375 1
-6 5 1 9166.57 640.57 2
-1 -6 -5 7415.72 517.636 2
-1 -5 6 9580.14 503.721 1
5 -6 -1 9737.97 642.036 1
1 6 -5 9102.26 550.923 1
-5 6 1 9587.87 649.71 2
1 6 5 9170.07 651.777 3
-1 5 6 8776.01 628.974 4
5 -6 1 9801.4 655.251 1
1 6 5 7731.33 567.916 1
-1 -5 -6 9655.13 677.78 4
-5 6 1 9475.87 667.647 1
6 -1 5 9180.44 577.954 1
1 5 -6 9586.95 583.363 2
1 -6 -5 8189.9 514.855 2
-5 -6 -1 9240.74 549.68 3
5 1 6 8371.24 616.49 4
-6 5 -1 7905.87 615.967 2
-1 5 6 7443.48 461.415 2
-6 1 5 10012.1 491.035 4
5 -6 1 8973.32 636.069 2
-5 1 -6 9015.29 574.249 2
-6 5 -1 9366.74 652.974 1
1 -6 -5 8970.64 644.778 4
1 -5 6 9605.55 517.716 1
-1 5 6 7803.82 529.289 1
6 -5 -1 9607.85 633.457 1
1 -5 6 9547.63 597.832 2
-1 -6 5 9274.94 598.088 2
6 -5 -1 9247.95 626.559 2
-1 -5 -6 8402.48 622.334 3
1 5 -6 8942.24 503.359 1
-1 6 -5 10006.6 624.326 2
-1 5 6 8888.44 635.355 3
1 -6 -5 8923.26 581.149 1
-1 6 -5 9213.7 558.021 1
-1 -5 -6 7948.17 481.607 2
-6 1 5 9241.35 552.45 1
-1 -5 -6 8977.09 554.132 1
-1 -6 5 10168.4 555.916 1
5 -1 -6 9021.63 516.611 1
-5 3 -6 23256.1 1080.41 2
-6 -3 -5 20184.6 1079.57 3
5 -6 3 22854.7 1079.67 1
3 -5 6 23419.8 997.948 1
3 -6 -5 22038.9 1069.87 4
6 -3 5 23271.7 1061.32 1
-5 6 3 21355.7 1089.44 1
5 -3 -6 23735.1 1025.33 4
-6 3 5 22335.9 1029.81 2
-3 5 6 21179.3 953.926 2
-6 3 5 21929.2 1038.02 1
6 -5 -3 22679.3 1081.07 2
3 6 5 22294.2 1097.6 3
-3 -5 -6 20878.6 1098.25 3
3 6 5 21296.7 1060.46 1
3 6 5 21816 1112.65 4
-6 -3 -5 21957.2 1093.02 4
-6 5 -3 22053.2 1108.62 1
-6 5 -3 23295 1153.07 2
-3 5 6 20064.4 1002.33 1
-5 -6 -3 21315.4 1096.45 4
5 6 -3 22772.1 1058.62 1
-3 5 6 24008 1087.42 4
-3 6 -5 22263.6 1045.3 1
-5 -6 -3 22540.1 1066.13 3
5 3 6 21945.9 1117.06 4
-5 3 -6 21004.4 1013.69 1
6 -3 5 22578.6 1082.83 2
-3 -6 5 24600.7 1091.38 2
3 5 -6 23370.7 962.966 1
3 -6 -5 22619.9 1044.44 1
6 -5 -3 22956.4 1098.13 1
-3 -6 5 25190 1032.05 1
5 -6 3 22362.2 1125.25 2
3 -6 -5 21482.6 1001.23 2
3 -5 6 22132.5 1077.26 2
-5 6 3 21920 1086 2
5 -3 -6 21776.2 990.293 1
-6 3 5 23212.9 933.987 4
-3 -5 -6 20659.1 1126.52 4
-3 6 -5 23593.3 1112.29 2
-6 5 -5 -348.785 219.15 1
5 5 6 159.037 199.332 3
5 6 5 272.509 218.245 4
5 5 6 -12.2676 198.756 4
5 -6 5 150.969 153.72 1
-6 5 5 -284.905 222.983 1
-6 5 5 13.1792 166.448 2
6 -5 5 -109.209 165.031 1
-5 5 -6 -306.476 226.913 2
5 -6 -5 -73.1916 169.737 1
-5 5 6 -191.287 196.752 4
-5 -6 -5 -277.227 241.712 4
-5 6 5 -306.903 179.899 2
6 -5 -5 189.456 172.368 4
5 6 5 -87.8198 182.274 3
6 -5 5 -42.8353 172.073 2
5 -5 6 -118.567 166.489 1
-5 5 6 58.2962 139.3 2
-6 5 -5 213.58 221.221 2
-5 5 -6 146.12 191.724 1
-5 -6 -5 107.682 170.746 3
-5 -5 -6 -524.077 244.419 4
5 -6 -5 -117.163 156.544 2
6 -5 -5 124.886 164.45 1
-6 -5 -5 184.091 185.059 3
5 -5 -6 -7.52631 152.862 2
-5 6 -5 13.4398 194.528 1
5 6 -5 21.8144 158.169 1
-6 -5 -5 -102.911 224.644 4
5 -6 -5 -44.4252 181.01 4
6 5 5 260.132 219.018 4
5 -5 -6 116.154 171.214 4
-5 6 5 -262.952 196.677 1
5 -6 5 -497.552 213.836 2
-5 -5 -6 -93.7681 180.581 3
5 -5 -6 58.724 156.116 1
-5 6 -5 74.8853 192.212 2
-5 5 6 -66.8029 173.191 1
6 5 5 122.619 196.595 3
5 -5 6 79.1567 179.154 2
5 6 5 -153.016 208.759 1
6 -5 -5 -224.867 181.18 2
0 6 6 5714.28 420.934 2
0 6 -6 7682.93 529.799 2
0 6 6 6053.38 476.477 1
6 -6 0 6848.15 545.142 1
0 6 -6 6931.15 467.568 1
-6 6 0 6448.63 556.781 1
-6 -6 0 6333.2 435.98 3
0 -6 6 7532.8 462.109 1
6 0 -6 6477.54 438.209 1
6 -6 0 6092.88 535.507 2
-6 6 0 5991.14 533.263 2
0 -6 -6 5933.94 546.098 4
0 -6 -6 5926.59 411.698 2
0 -6 -6 6176.19 489.468 1
0 6 6 7035.02 573.914 4
0 6 6 5908.01 528.502 3
0 -6 6 7187.53 531.112 2
2 -6 6 1908.84 298.129 2
6 6 2 2099.45 305.036 3
2 -6 -6 2367.79 350.838 4
-2 -6 -6 1968.58 295.052 1
-6 2 6 1412.93 236.443 1
2 6 6 1718.53 272.325 1
-2 -6 -6 1827.97 306.67 3
-2 -6 -6 2269.09 375.741 4
6 2 6 2122.67 342.81 4
-6 6 2 1779.69 299.029 2
6 -2 -6 2362.4 264.56 4
-6 -2 -6 2258.78 334.339 3
-6 2 6 2133.68 253.404 4
2 -6 -6 1732.73 240.731 2
2 6 -6 2055.17 271.738 1
-2 -6 6 2298.26 258.96 1
2 -6 -6 2127.95 292.8 1
-6 -2 -6 2362.65 357.999 4
2 6 6 1717.94 310.624 3
-2 6 -6 2325.83 318.409 2
6 -6 -2 2100.21 321.501 1
-2 6 -6 1795.3 263.228 1
-2 6 6 1456.13 305.35 4
6 -6 -2 1953.94 337.398 2
-6 -6 2 2293.92 225.339 3
-2 6 6 945.368 226.513 1
-6 2 6 2433.97 277.261 2
-6 2 -6 1754.16 293.276 2
6 -2 6 1700.92 261.474 1
-2 6 6 2120.94 264.457 2
-6 6 -2 1679.01 303.903 2
-2 -6 6 2463.75 316.117 2
2 6 6 2751.99 400.708 4
-6 6 -2 1954.62 331.254 1
6 -6 2 2394.54 320.918 1
-6 2 -6 1719.8 281.411 1
6 -2 -6 2023.38 285.953 1
-6 -6 -2 1844.16 275.859 3
2 -6 6 2527.39 299.272 1
-6 6 2 1696.96 316.478 1
6 -6 2 2015.12 323.872 2
-2 -6 -6 1758.35 245.689 2
-6 4 6 10372.5 594.123 4
-6 4 6 10011.1 630.563 2
4 6 -6 10180.4 602.798 1
6 6 4 9430.67 663.448 3
6 -6 -4 10397.8 669.127 2
4 -6 6 10576.5 643.107 1
-6 -4 -6 10024.5 728.968 4
-4 6 6 9724.09 610.384 2
6 -4 6 10059.4 671.036 2
6 -6 4 9426.71 683.244 2
-6 4 6 9106.43 623.592 1
-4 -6 -6 9099.37 680.819 3
-6 4 -6 8705.7 630.582 1
6 -4 -6 9536.8 624.703 1
4 6 6 9923.61 711.547 4
-6 4 -6 9642.42 688.989 2
-4 6 -6 9925.87 650.075 1
4 6 6 8626.96 616.344 1
6 -6 -4 9607.3 657.658 1
-6 -6 -4 9585.93 687.366 4
-6 6 4 9984.07 683.562 2
-6 -6 -4 9554.66 657.266 3
-4 6 -6 9834.53 683.266 2
4 6 6 9934.62 703.944 3
-6 6 4 8989.56 668 1
-6 6 -4 9620.44 688.892 1
6 -4 6 9787.45 637.234 1
-4 6 6 8438.65 627.803 1
6 4 6 9262.13 675.51 4
4 -6 6 9683.79 691.803 2
6 -6 4 9884.82 670.88 1
-4 -6 -6 8421.62 697.881 4
4 -6 -6 8927.79 632.389 4
4 -6 -6 9810.34 613.772 2
-6 -4 -6 8333.71 664.815 3
6 -4 -6 9107.96 603.052 2
4 -6 -6 10034 638.686 1
6 -4 -6 10336.9 594.166 4
-6 6 -4 10784 731.704 2
-6 6 6 130.544 151.446 2
6 -6 6 149.381 185.261 2
-6 -6 -6 449.886 205.874 3
-6 6 -6 302.174 189.666 1
6 -6 -6 377.368 178.62 1
6 -6 6 63.4082 170.967 1
-6 6 -6 109.543 191.009 2
-6 6 6 334.005 205.157 1
6 6 6 508.35 240.295 4
-6 -6 -6 75.3795 210.487 4
6 -6 -6 307.709 163.342 2
6 6 6 238.137 205.987 3
6 -6 -6 894.303 242.336 4
7 0 -1 655.127 210.955 1
1 0 7 356.688 181.718 3
0 1 7 107.119 182.961 4
0 7 1 359.617 191.836 1
-1 -7 0 419.1 208.63 2
1 7 0 341.349 215.44 1
1 0 -7 622.982 184.537 3
7 0 1 713.643 224.612 1
-1 7 0 662.439 225.813 1
0 1 -7 454.357 169.072 3
1 -7 0 367.58 216.716 2
0 7 -1 404.179 219.61 1
1 -7 0 427.623 188.224 1
0 -7 -1 203.419 165.526 2
0 -7 1 131.284 164.294 2
0 7 -1 372.975 204.568 2
0 -7 -1 546.106 219.558 1
-1 0 7 564.492 170.498 3
7 0 1 370.716 121.201 4
0 7 1 175.09 187.435 2
-1 0 -7 340.431 172.279 3
7 -1 0 652.12 223.716 1
-1 7 0 719.266 252.338 2
0 -7 1 826.804 226.033 1
-1 -7 0 220.701 168.927 1
0 1 7 142.325 141.046 3
0 -1 -7 436.504 184.922 3
1 7 0 207.64 191.16 2
0 -1 7 175.241 122.905 3
7 1 2 5598.69 366.292 4
-1 -2 7 5398.19 322.578 2
-2 -1 -7 5363.02 470.4 3
7 -2 1 4671.77 428.844 1
1 -2 -7 4987.98 294.322 1
-1 7 2 4722.86 449.23 1
1 2 7 6006.06 521.829 4
-1 2 -7 5266.54 385.238 3
-1 7 2 5193.06 450.384 2
-2 -7 1 6238.29 478.363 1
-2 1 7 5397.13 406.469 3
2 -7 -1 5462.9 461.045 2
-2 7 -1 6413.99 519.434 2
1 7 -2 5771.62 472.435 1
1 -7 2 6054.54 468.151 1
-7 -2 -1 5309.24 351.093 4
-1 -7 -2 4776.92 437.133 2
7 -1 -2 5858.88 462.547 1
1 7 -2 5234.95 476.541 2
1 -7 2 5796.47 485.132 2
1 2 7 5002.07 430.453 3
2 -1 7 5448.79 331.973 2
-1 -7 -2 5801.9 477.912 1
1 -2 -7 4759.23 471.189 4
2 7 1 5605.96 420.817 3
-7 2 1 6089.4 498.365 2
2 -1 7 5001.06 294.962 1
2 -7 -1 5300.4 462.326 1
1 2 7 5034.51 310.487 1
-2 7 -1 5630.09 494.897 1
-2 -7 1 6012.18 499.769 2
-7 2 1 5906.32 471.873 1
-1 -2 7 5426.28 343.424 3
-2 1 7 5016.3 449.763 4
-1 2 -7 5576.78 339.659 2
2 7 1 5037.44 471.309 1
-7 2 -1 6508.33 530.623 2
1 7 2 4890.69 458.316 1
-2 -1 7 5650.57 370.242 3
1 2 -7 5874.47 369.47 3
-1 -7 2 5361.93 456.584 1
-7 2 -1 5395.4 474.293 1
7 -1 2 5039.21 440.187 1
-1 2 7 6065.47 505.567 4
1 -2 7 5509.4 349.574 2
1 7 2 5420.71 464.471 2
-1 2 7 5380.48 429.332 3
-1 7 -2 6178.4 498.549 2
1 -7 -2 5269.01 459.22 1
2 7 -1 5154.78 459.625 1
2 -7 1 5969.61 472.256 1
-2 7 1 5235.59 475.416 1
7 -2 -1 5635.23 470.398 1
-2 7 1 4926.76 463.185 2
-7 1 2 6122.24 469.118 1
-1 -2 -7 5447.07 459.686 3
-2 -7 -1 5644.46 475.877 2
1 -7 -2 4998.35 432.425 2
7 2 1 5746.15 357.567 4
-2 -7 -1 6058.91 497.371 1
2 1 7 5101.7 432.624 3
2 7 -1 5695.98 371.934 3
-7 -1 -2 5362.73 376.023 4
2 -7 1 5212.32 462.177 2
-1 2 7 4653.45 290.217 1
-1 -7 2 5895.38 485.059 2
-2 1 -7 5522.73 431.514 3
-1 -2 -7 4581.3 472.248 4
-2 1 -7 5256.84 342.583 2
2 1 7 4973.34 482.448 4
-1 7 -2 4903.4 444.262 1
1 7 2 5626.58 455.672 3
2 -7 3 6873.77 511.453 1
3 -7 -2 6434.58 514.911 1
2 3 7 5631.39 533.393 4
2 -3 -7 6100.01 384.402 1
-7 2 -3 6692.99 559.694 2
-7 2 -3 6579.43 521.165 1
-2 -3 7 7070.52 352.489 3
2 3 7 6105.92 510.679 3
2 7 -3 6148.52 493.644 1
2 -7 3 6685.08 534.302 2
2 -3 -7 5818.04 320.233 2
-2 3 -7 6880.66 450.354 2
3 -2 7 6233.01 422.375 2
-3 2 7 6099.95 337.589 2
-3 2 7 6314.49 516.964 4
-3 7 -2 6590.07 540.66 1
-3 2 7 6551.58 386.675 1
-3 -2 -7 6667.02 545.924 3
-3 -2 -7 5505.15 534.607 4
3 -7 -2 6488.19 517.067 2
-3 -7 2 6282.66 512.278 2
-2 -7 -3 6458.9 505.855 3
7 -3 2 6914.27 549.807 2
-3 7 -2 6639.36 541.271 2
-7 -3 -2 6023.64 440.426 4
3 7 2 6854.37 499.231 3
-7 3 2 6496.87 524.105 1
-2 -3 7 7102.77 422.343 2
7 -3 2 6013.05 509.999 1
-3 -7 2 7510.6 549.751 1
-7 3 2 6171.82 520.024 2
3 7 2 6585.96 532.117 1
2 -3 -7 6421.41 547.949 4
-2 7 3 6636.49 525.335 1
-2 -7 -3 6361.52 524.584 1
2 3 7 6010.86 403.938 1
-2 -7 -3 6608.21 501.924 2
7 -2 -3 6537.89 507.138 1
-2 7 3 6053.04 494.011 2
7 2 3 6369.17 445.699 4
-2 3 -7 6118.41 376.145 1
3 -2 7 5668.7 377.036 1
0 -3 -7 17314.5 952.051 4
3 -7 0 17268.4 894.826 2
0 -7 3 19245.1 930.4 2
3 7 0 17564.9 918.855 1
0 -3 -7 16628.5 880.292 3
-7 3 0 16680.2 892.303 1
7 -3 0 16620.4 900.138 2
0 3 7 15122.6 693.297 1
0 -7 -3 15440 837.55 2
7 0 -3 16763.7 836.482 1
-3 -7 0 18576.1 927.75 1
-3 0 -7 17716 880.393 3
0 7 3 15290.7 859.644 1
-3 0 -7 15270 707.466 2
-7 3 0 18263.5 937.192 2
0 3 7 16781.3 933.866 4
0 7 -3 18613.5 930.651 2
-3 7 0 17055.4 914.175 2
0 -7 3 19110.1 875.16 1
0 7 3 17842.8 885.882 2
0 -3 -7 15025 696.821 1
-3 -7 0 16192.3 758.122 3
0 3 -7 18279.3 749.034 3
7 0 3 16331.8 764.975 4
7 -3 0 16957.9 886.606 1
0 -3 7 17114.9 639.198 1
-3 7 0 16890.8 913.822 1
0 3 -7 14949.9 631.043 1
0 3 -7 17029.9 737.904 2
0 -7 -3 16750.3 878.814 1
0 3 7 15816.1 856.305 3
3 7 0 17928 787.628 3
3 0 -7 15862.6 641.119 1
3 -7 0 17286.3 884.86 1
0 7 -3 17601.2 881.786 1
0 -3 7 17326.1 750.864 2
-2 3 7 5132.83 310.391 2
-2 7 -3 6756.55 529.463 1
2 3 -7 6578.44 334.532 1
3 -7 2 6132.72 528.066 2
-7 2 3 7037.79 516.7 1
7 3 2 6122.33 435.297 4
-3 7 2 6729.78 532.985 2
-7 2 3 7176.63 539.862 2
3 7 -2 6452.21 367.616 3
2 7 3 5935.22 485.654 3
-3 2 -7 5667.72 373.209 1
-3 -7 -2 6234.19 530.914 1
3 2 7 5581.82 541.669 4
-2 -3 -7 5283.99 552.105 4
-2 3 7 6189.44 389.724 1
2 -7 -3 6592.47 508.024 1
2 -3 7 5713.16 366.697 1
-2 -3 -7 5985.73 512.731 3
-2 -7 3 6390.25 520.662 2
-3 7 2 5981.36 525.092 1
-2 3 7 6240.93 511.295 3
-2 -7 3 7036.74 504.956 1
7 -2 3 6704.75 508.039 1
-7 3 -2 7106.25 554.4 2
2 3 -7 7048.57 365.076 3
-3 -2 7 6962.96 377.971 3
3 7 -2 6336.23 523.351 1
7 -3 -2 6620.96 521.043 1
3 -2 -7 6945.44 524.187 4
-7 -2 -3 6445.38 462.692 4
2 7 3 5984.81 513.916 1
-3 2 -7 6352.55 437.659 2
3 -7 2 6651.61 512.182 1
-2 3 7 6457.27 542.588 4
-7 3 -2 5827.21 516.992 1
2 -7 -3 5833.4 472.113 2
-3 -7 -2 6594.36 473.842 3
3 2 7 5828.2 500.869 3
-2 7 -3 6079 524.041 2
3 -2 -7 6083.63 370.873 1
2 -3 7 6355.16 438.868 2
-7 4 3 1985.24 325.163 1
4 7 3 1235.06 273.37 1
-7 4 3 2498.36 346.063 2
7 3 4 1298.2 275.277 4
-7 -4 -3 1735.79 288.033 3
-3 4 -7 1741 240.06 1
4 -3 7 1760.92 272.525 2
-4 -3 -7 1597.23 301.727 3
3 -4 -7 1795.96 310.661 4
3 4 7 1771.79 347.264 4
3 -4 -7 1782.36 206.487 2
-3 -7 -4 1711.49 343.488 4
3 -7 4 1432.07 277.785 1
-7 -4 -3 1560.77 285.044 4
-4 3 7 1738.04 244.67 1
4 -7 -3 1630.7 279.125 2
3 4 7 1746.21 260.932 1
-4 -3 -7 1266.78 315.091 4
4 7 3 1705.32 263.775 3
-3 4 -7 1490.37 256.589 2
7 -3 -4 1464.75 264.761 1
7 -4 3 1554.12 308.917 2
-3 -7 -4 1726.61 279.956 1
3 4 7 1896.79 299.685 3
-3 7 4 1401.25 285.062 1
-3 7 4 1736.43 272.961 2
3 7 -4 1564.47 259.162 1
-4 3 7 1440.16 204.61 2
3 -7 4 1468.57 279.571 2
-4 3 7 1821.26 294.512 4
7 -4 3 1891.95 312.682 1
4 -3 7 1384.29 223.014 1
-7 3 -4 1692.41 298.148 1
4 -7 -3 1871.24 306.215 1
-7 3 -4 1214.37 291.472 2
-3 -7 -4 1458.01 268.155 3
-4 7 -3 1141.58 266.061 2
3 -4 -7 1607.22 233.539 1
7 -3 -4 1712.22 196.514 4
-4 7 -3 1563.05 283.412 1
4 -7 -1 9311.74 633.408 1
-4 1 7 9854.44 611.456 4
1 7 -4 9180.48 593.065 1
1 4 7 8046.32 499.857 1
-4 -1 -7 8612.31 621.794 3
4 -7 -1 9523.79 636.243 2
-4 7 -1 10167.4 683.348 2
-1 4 -7 9316.89 547.673 2
7 -1 -4 9454.52 600.044 1
4 1 -7 8933.01 447.233 1
1 -4 -7 8615.99 430.432 2
1 -4 -7 9514.78 680.887 4
1 -7 4 10005.1 600.922 1
1 4 7 8090.13 604.89 3
4 7 1 9101.84 643.889 1
-7 4 1 9125.44 644.82 1
7 1 4 9133.27 574.935 4
-1 -7 -4 9145.86 588.316 2
-1 -7 -4 9124.85 626.234 1
1 7 -4 10604.2 683.258 2
1 -4 -7 8784.04 509.78 1
4 -1 7 9159.2 511.024 1
-1 4 -7 8363.36 469.307 1
1 4 7 7686.28 623.286 4
-7 4 1 10161.9 682.796 2
-7 1 -4 10242.6 684.677 2
-1 7 4 8003.32 587.689 1
7 -4 1 9083.03 645.921 2
-7 -4 -1 9885.57 568.687 4
-4 -7 1 8924.12 481.414 3
-4 1 7 9405.46 482.096 1
4 7 1 9602.7 575.976 3
-1 -4 7 9900.14 458.804 1
-1 7 4 8048.76 570.102 2
-4 7 -1 8992.14 653.848 1
7 -4 1 8974.97 619.616 1
-1 -4 7 9763.95 548.328 2
1 -7 4 8365.81 615.591 2
-1 -7 -4 8110.78 636.131 4
-4 -7 -1 9543.39 552.262 3
1 -7 -4 9222.65 572.961 2
1 4 -7 10280.3 458.231 3
-1 4 7 7359.91 484.689 1
-1 -7 4 9582.01 593.121 1
-7 1 4 8889.29 585.628 1
1 -4 7 10034.1 485.466 1
-1 4 7 8907.8 633.312 3
-7 4 -1 9577.47 658.834 2
1 4 -7 9450.86 462.46 1
4 7 -1 9476.15 503.844 3
-4 7 1 8891.15 653.784 1
-1 -7 4 8705.67 626.782 2
-1 7 -4 9880.61 658.18 2
4 -7 1 9098.7 639.941 2
1 -7 -4 8936.17 611.149 1
1 4 -7 9953.1 550.849 2
1 -4 7 9399.11 559.535 2
-1 -4 -7 9572.99 679.068 4
-4 1 -7 8946.4 538.457 2
4 -1 -7 9447.31 486.231 1
4 -7 1 8636.27 617.178 1
1 7 4 7699.93 592.322 1
-1 4 7 8266.83 424.026 2
-7 4 -1 8346.23 630.064 1
-1 7 -4 8053.81 576.747 1
1 7 4 9196.01 638.594 3
-1 -4 -7 8565.8 511.926 1
7 -1 4 8878.24 598.74 1
-1 4 7 9663.69 656.605 4
4 7 -1 9794.72 653.851 1
4 1 7 8482.36 652.765 4
7 -4 -1 8201.59 620.016 2
-7 1 4 9338.69 411.002 4
-1 -4 -7 7606.9 595.275 3
7 -4 -1 9708.77 643.585 1
-4 7 1 8936.23 648.897 2
-1 -4 -7 8076.67 438.149 2
-3 7 -4 2321.56 342.735 2
-4 3 -7 1584.28 267.309 2
-3 7 -4 1684.27 309.75 1
-7 -3 -4 1448.55 279.782 4
-4 -7 -3 1846.4 294.509 3
-4 7 3 1241.59 271.43 1
-4 -3 7 1616.78 171.065 3
-7 4 -3 1228.46 288.04 2
4 -7 3 1821.45 301.266 1
7 4 3 1362.97 263.425 4
-4 3 -7 1481.62 231.27 1
3 -7 -4 1914.43 304.136 1
4 3 7 1879.86 309.989 3
-7 4 -3 1637.86 320.275 1
3 7 4 1160.54 270.349 1
7 -4 -3 1431.46 281.476 1
-3 4 7 1793.52 259.04 1
-3 -4 -7 2152.89 326.262 3
-3 -4 -7 1454.83 354.883 4
7 -3 4 1839.28 301.352 1
4 -3 -7 1763.2 297.247 4
7 -4 -3 1503.78 276.122 2
-3 4 7 1622.33 204.279 2
4 7 -3 1768.17 279.956 1
4 3 7 1093.82 308.168 4
4 7 -3 1468.47 156.03 3
4 -7 3 1877.37 322.517 2
-4 7 3 1577.09 296.701 2
7 -3 4 1605.99 298.585 2
4 -3 -7 1456.35 223.935 1
3 7 4 1848.21 323.499 3
-3 4 7 1387.51 291.296 4
3 -7 -4 1586.33 270.153 2
3 4 -7 1801.68 208.957 1
-3 -7 4 2108.67 303.929 1
3 -4 7 1421.98 265.342 2
-7 3 4 2098.55 303.673 2
-3 -7 4 1256.49 263.722 2
-7 3 4 1926.04 304.979 1
3 -4 7 2028.14 247.16 1
4 5 7 6579.43 607.221 4
5 -7 -4 7217.85 562.994 2
-7 5 4 7525.92 595.96 1
4 5 7 6669.41 593.472 3
4 -5 -7 7389.13 570.104 4
5 -4 7 7674.51 524.996 1
-7 5 4 7652.64 582.816 2
-7 -5 -4 6769.18 556.262 4
-5 4 7 7472.9 500.173 2
-7 4 -5 7466.26 612.277 2
-5 4 7 6833.14 513.872 1
7 -5 4 8164.39 599.383 1
4 -5 -7 7090.57 479.509 2
4 -7 5 7937.42 582.219 1
7 -5 4 7214.57 591.722 2
-7 -5 -4 8102.28 595.311 3
7 -4 -5 8390.9 592.783 1
5 -4 7 6764.49 544.745 2
5 -7 -4 8118 599.899 1
-5 7 -4 7896.88 630.132 2
4 7 -5 6566.92 508.8 1
-4 7 5 6719.7 559.838 1
7 -4 -5 7188.58 463.002 4
-5 7 -4 6847.49 585.608 1
-4 5 -7 8063.25 591.424 2
-4 -7 -5 6996.85 609.041 4
5 7 4 7379.74 591.358 3
-5 -4 -7 6555.75 608.501 4
-4 7 5 7163.09 562.46 2
5 7 4 6943 577.52 1
4 -7 5 7274.28 595.404 2
-5 -4 -7 6787.57 599.309 3
4 5 7 6940.39 521.073 1
4 -5 -7 8015.01 538.698 1
-5 4 7 6933.01 519.931 4
7 4 5 7387.69 563.321 4
-4 5 -7 7288.49 528.666 1
-7 4 -5 7352.62 584.917 1
-4 -7 -5 6738.06 564.963 3
2 -5 -7 1207.84 221.303 1
-2 7 5 867.92 229.374 2
2 -5 -7 668.481 146.595 2
-7 -5 -2 528.415 215.481 4
-5 2 7 765.901 227.35 4
-2 -7 -5 833.25 226.888 1
7 2 5 980.875 249.542 4
-5 2 7 1068.8 184.469 2
-7 5 2 759.496 238.223 2
-7 2 -5 850.943 229.239 1
-5 -7 2 954.887 151.467 3
-2 -7 -5 1187.69 320.065 4
7 -2 -5 1106.15 165.724 4
5 -7 -2 743.248 229.668 2
-2 5 -7 784.006 193.022 1
5 -2 7 1016.11 210.621 2
-2 -5 7 1019.38 226.412 2
2 5 7 1055.15 305.895 4
5 7 2 769.223 199.838 3
5 7 2 1166.19 270.558 1
5 -2 7 687.113 191.822 1
5 -7 -2 412.255 201.824 1
-5 -2 -7 922.574 252.292 3
7 -2 -5 1017.11 233.775 1
2 -5 -7 385.318 240.226 4
-5 7 -2 1100.7 275.787 1
-2 -7 -5 453.536 174.791 2
-2 7 5 864.921 236.013 1
-2 5 -7 829.517 212.436 2
7 -5 2 609.5 224.239 1
2 7 -5 678.368 209.836 1
-7 5 2 776.167 255.49 1
2 5 7 347.002 186.845 3
2 5 7 629.098 192.738 1
7 -5 2 850.787 244.634 2
-5 -2 -7 533.604 209.313 4
2 -7 5 576.983 203.559 2
-2 -5 7 587.959 144.44 1
-7 -5 -2 591.076 193.389 3
-5 2 7 747.809 178.361 1
2 -7 5 510.559 170.613 1
-2 -7 -5 1509.82 293.615 3
-7 2 -5 1021.17 259.111 2
-5 7 -2 886.157 258.051 2
0 5 7 5874.34 442.988 1
0 -7 -5 6084.03 463.534 2
0 -7 5 7054.35 547.76 2
0 -7 -5 6031.92 579.82 4
0 5 -7 6700.96 426.197 1
0 5 7 6358.77 578.853 4
5 7 0 7788.03 584.183 1
7 -5 0 6503.2 547.369 2
0 -5 -7 6069.22 458.553 1
5 0 -7 7332.98 435.459 1
7 0 5 7221.8 519.114 4
0 -5 7 7590.33 511.385 2
7 -5 0 7562.36 571.305 1
0 -5 -7 6154.86 381.334 2
0 7 5 6089.62 521.101 1
-5 0 -7 7027.21 488.981 2
-7 5 0 6385.15 563.408 1
0 7 5 6595.1 501.369 2
-5 7 0 6806.22 580.035 1
0 -7 -5 6012.58 524.956 1
5 -7 0 7422.01 571.755 1
7 0 -5 7162.19 499.192 1
0 5 7 6355.94 549.665 3
0 7 -5 6820.22 496.548 1
0 -7 5 7858.69 509.917 1
0 7 5 6837.28 588.173 3
0 7 -5 7205.97 548.981 2
-7 5 0 7534.99 594.061 2
5 -7 0 7611.92 583.539 2
-5 -7 0 7213.84 454.589 3
0 -5 -7 7114.34 585.615 4
-5 7 0 8176.58 618.84 2
5 7 0 7128.48 472.381 3
0 -5 7 7725.49 426.937 1
0 5 -7 7562.84 501.08 2
-7 5 -2 1041.76 259.778 2
-2 5 7 642.009 165.201 2
2 7 5 499.62 211.517 1
2 -7 -5 660.758 268.95 4
-5 2 -7 428.128 183.835 2
-2 7 -5 867.565 247.776 1
7 -2 5 902.357 216.896 1
-2 5 7 786.374 265.259 4
-2 -7 5 950.746 220.824 1
5 -2 -7 795.435 199.155 1
7 -5 -2 756.985 242.852 2
-5 7 2 1096.74 268.366 2
2 -7 -5 907.653 221.486 1
2 5 -7 1194.43 197.188 1
5 7 -2 987.617 252.329 1
-2 -5 -7 961.748 305.14 4
-7 2 5 805.613 157.12 4
-2 -5 -7 771.056 248.083 3
-7 -2 -5 1165.99 251.176 4
2 -5 7 740.842 172.905 1
2 -7 -5 697.117 195.457 2
-7 5 -2 309.028 222.365 1
-2 5 7 786.244 205.698 1
5 2 7 973.849 293.822 4
2 -5 7 522.419 203.946 2
-5 7 2 743.809 251.324 1
5 7 -2 572.391 135.479 3
7 -5 -2 703.191 235.348 1
-5 -7 -2 834.163 198.731 3
2 7 5 1140.1 259.181 3
5 -7 2 937.397 258.946 1
-2 -7 5 806.273 233.708 2
-7 2 5 859.568 216.677 1
-2 7 -5 783.511 236.005 2
5 -7 2 693.972 237.261 2
7 -5 -4 7509.02 475.335 4
-5 -7 -4 6751.58 589.806 4
5 7 -4 6626.86 529.215 1
-4 5 7 6695.77 519.634 1
5 -4 -7 7906.43 569.731 4
5 -7 4 8353.93 604.635 1
4 -5 7 6937.69 498.052 1
5 -4 -7 8187.15 537.857 1
5 -7 4 7351.69 610.68 2
-4 -5 -7 6637.18 620.67 4
-7 5 -4 7496 624.221 2
-7 5 -4 8059.44 622.57 1
-4 5 7 7300.53 492.811 2
5 -4 -7 7149.26 478.297 2
-7 4 5 7973.61 577.434 2
7 -5 -4 7965.44 595.637 1
4 7 5 7175.79 580.252 1
5 4 7 6786.65 600.036 4
-7 4 5 7711.94 582.769 1
-5 -7 -4 7458.93 586.984 3
4 -7 -5 7561.36 575.599 1
7 -4 5 6445.1 559.929 2
7 5 4 7428.1 566.154 4
-4 5 7 7242.86 550.771 4
-4 -5 -7 6405.43 569.613 3
4 -5 7 7275.92 576.013 2
7 -4 5 7844.56 577.557 1
-4 7 -5 7433.25 573.788 1
5 4 7 6795.51 585.655 3
4 7 5 7663.56 609.439 3
-4 7 -5 7216.65 600.792 2
-5 4 -7 6924.5 553.436 2
-5 4 -7 6822.19 511.222 1
4 -7 -5 7253.02 545.243 2
4 5 -7 7112.06 460.941 1
4 -7 -5 6968.74 560.638 4
-5 7 4 6595.65 568.37 1
7 -5 -4 7687.1 588.144 2
-5 7 4 7074.46 569.592 2
-7 -4 -5 7244.68 586.11 4
-7 -4 -5 7366.33 592.386 3
-7 6 5 4935.29 488.261 2
-5 7 6 4251.65 429.646 2
7 -6 5 4332.48 449.227 1
6 7 5 3894.43 438.421 3
7 -5 -6 4256.61 388.526 4
5 -6 -7 4332.02 420.128 1
6 -5 7 3730.79 425.96 2
-7 5 -6 4099.98 449.679 1
-6 5 7 4083.99 431.019 1
-5 -7 -6 3628 488.566 4
5 7 -6 3983.43 396.409 1
-5 6 -7 3868.61 462.874 2
-7 -6 -5 3719.24 453.167 4
7 5 6 3256.35 423.297 4
-6 7 -5 4235.84 457.719 1
5 -7 6 4554.99 444.497 1
-6 -5 -7 3784.28 475.041 4
7 -5 -6 4683.18 449.975 1
5 -7 6 3574.85 445.894 2
-6 5 7 3516.75 367.967 2
7 -5 -6 4126.71 414.497 2
5 -6 -7 4203.21 393.633 2
6 -7 -5 4734.31 470.261 1
5 6 7 4041.16 431.913 1
-7 5 -6 4286.37 486.057 2
5 -6 -7 4869.08 457.11 4
6 -7 -5 3739.95 397.793 4
6 7 5 3250.92 402.629 1
-6 -5 -7 3715.05 462.397 3
-5 7 6 4021.58 441.579 1
-7 6 5 3819.94 446.192 1
5 6 7 4351.63 488.293 4
6 -5 7 3958.54 406.756 1
-6 5 7 4246.72 392.327 4
7 -6 5 4093.44 469.703 2
5 6 7 4393.75 482.922 3
-7 -6 -5 4454.38 473.88 3
-5 -7 -6 3535.86 432.4 3
6 -7 -5 3682.7 413.698 2
-6 7 -5 4780.44 519.73 2
-5 6 -7 4453.72 441.892 1
7 -6 3 2134.87 348.643 1
3 -6 -7 2083.03 343.465 4
7 -6 3 1589.1 311.8 2
-3 7 6 2096.25 312.467 2
-3 -6 7 1967.79 296.848 2
6 -7 -3 1793.47 301.283 2
3 -7 6 2167.57 301.045 1
-6 7 -3 2204.61 372.465 2
3 6 7 1905.63 366.783 4
-3 7 6 1442.31 278.099 1
-3 -7 -6 1618.38 346.492 4
-3 -7 -6 2204.16 319.558 1
6 -3 7 1637.8 285.728 2
-7 3 -6 1219.38 287.951 2
-6 -3 -7 1644.62 320.123 3
3 6 7 2017.13 296.855 1
-7 -6 -3 1778.32 319.061 4
-3 6 -7 1830.39 273.424 1
7 -3 -6 2081.85 301.622 1
-7 3 -6 1699.83 288.265 1
6 -3 7 2707.46 324.9 1
3 -7 6 1788.88 311.283 2
7 3 6 1639.66 308.776 4
-6 -7 3 2205.77 201.497 3
6 7 3 1926.61 306.314 3
-6 3 7 1813.79 257.629 2
-6 -3 -7 1782.77 348.156 4
-3 6 -7 2414.64 323.483 2
-3 -7 -6 1777.22 310.006 3
6 -7 -3 1859.73 311.902 1
-7 6 3 1819.81 333.227 2
-6 3 7 2185.89 287.652 1
3 -6 -7 2024.31 292.681 1
7 -3 -6 1933.85 257.038 4
3 -6 -7 1770.1 251.073 2
-7 -6 -3 2360.98 324.535 3
3 6 7 2530.17 364.125 3
-6 7 -3 2008.37 346.378 1
-7 6 3 1985.92 341.912 1
3 7 -6 2078.1 290.33 1
-6 3 7 1897.87 271.966 4
-7 6 1 1153.53 286.892 1
-1 -7 -6 1605.27 286.025 1
7 -6 1 1256.48 301.63 2
-7 -6 -1 1602.54 260.221 3
6 -1 7 1518.94 248.938 1
-1 -6 7 1967.24 236.868 1
-1 -7 -6 1790.19 345.764 4
7 1 6 1077.83 271.149 4
6 7 1 1766.29 270.884 3
7 -6 1 1443.46 276.252 1
1 -7 6 1822.69 268.403 1
1 -6 -7 1424.46 242.756 1
-6 7 -1 1386.93 306.028 2
7 -1 -6 1459.45 260.866 1
1 7 -6 1717.14 302.534 2
-6 -7 1 1906.07 225.654 3
-1 -7 -6 1334.48 239.983 2
-1 6 -7 1781.44 283.005 2
1 -7 6 2134.59 324.866 2
1 -6 -7 1707.93 217.718 2
1 -6 -7 1866.36 348.828 4
1 7 -6 1528.74 249.877 1
-6 7 -1 1528.05 309.265 1
-1 7 6 1882.43 307.909 1
-1 -6 7 1393.76 264.266 2
-6 1 7 1338.1 220.462 1
1 6 7 950.431 282.155 4
-6 1 7 1740.97 259.563 4
1 6 7 1545.28 267.803 1
6 -7 -1 1679.72 310.487 1
-7 1 -6 1568.42 300.345 2
1 6 7 1040.24 246.752 3
6 1 -7 1456.04 211.544 1
-1 7 6 1253.52 221.366 2
6 -7 -1 1584 278.714 2
-7 6 1 1591.81 295.249 2
-1 6 -7 1774.78 251.747 1
1 -6 7 1369.88 222.95 1
6 -7 1 1555.9 302.406 2
-6 1 -7 2081.5 299.764 2
1 6 -7 1589.8 268.546 2
1 -7 -6 1081.6 297.386 4
7 -1 6 1350.64 267.039 1
1 7 6 1208.96 254.69 1
1 -7 -6 1570.36 242.763 2
-1 6 7 1386.89 300.23 4
-1 -7 6 1819.25 251.892 1
-1 -7 6 1265.52 258.843 2
-1 -6 -7 1213.54 272.437 3
-1 6 7 1007.13 227.221 1
-1 -6 -7 1603.42 225.455 2
-7 1 6 1543.38 216.495 4
-7 1 6 1740.59 262.155 1
6 -1 -7 1629.79 243.997 1
-1 -6 -7 1070.98 242.613 1
-1 6 7 1373.08 304.09 3
1 6 -7 1244.37 214.486 1
-7 6 -1 1788.44 325.259 2
1 -6 7 1819.68 298.976 2
1 7 6 1284.28 301.017 3
-6 7 1 1328.94 300.67 1
7 1 -6 1622.66 245.229 1
-6 -7 -1 1536.68 232.715 3
1 -7 -6 1591.8 269.384 1
-7 6 -1 835.063 249.672 1
6 -7 1 1989.23 321.603 1
-1 6 7 1495.1 220.147 2
7 -6 -1 1414.91 266.535 1
7 -6 -1 1607.66 298.206 2
-1 -6 -7 1411.92 309.001 4
-7 -6 1 1469.28 220.624 3
-6 7 1 1059.3 273.158 2
6 1 7 904.089 272.406 4
-1 7 -6 1213.08 241.007 1
-1 7 -6 1745.33 312.972 2
-7 -3 -6 1422.44 303.602 3
-7 3 6 1833.4 282.347 2
3 -7 -6 1845.75 287.268 1
6 -7 3 2264.2 362.224 2
7 -3 6 1784.67 289.251 1
-6 3 -7 1841.45 284.249 1
6 3 7 1818.73 331.342 4
6 -3 -7 2163.65 288.931 4
-3 7 -6 1636.22 281.271 1
3 -7 -6 1791.15 275.826 2
3 -7 -6 1916.36 317.936 4
7 -3 6 1485.03 291.242 2
3 7 6 1387.95 277.392 3
3 -6 7 1755.72 293.707 2
-3 6 7 1721.75 323.603 4
3 -6 7 1960.72 267.646 1
3 7 6 1849.82 361.796 4
-7 -3 -6 1359.92 301.969 4
-7 6 -3 1762.52 324.171 2
-3 6 7 1774.46 282.814 1
-6 -7 -3 1566.51 270.596 3
-3 -7 6 2351.88 291.538 1
3 6 -7 2243.69 273.392 1
-6 7 3 1503.47 327.215 1
-3 -7 6 2166.38 309.211 2
3 7 6 1420.21 283.798 1
7 -6 -3 2189.78 346.962 1
-7 6 -3 1989.28 344.894 1
-7 3 6 1483.19 269.453 1
-6 3 -7 2099.86 325.668 2
-6 -7 -3 1507.06 310.035 4
-3 6 7 1740.28 260.381 2
-7 3 6 1711.11 233.146 4
-6 7 3 2135.7 348.599 2
6 -3 -7 1826.77 271.278 1
7 -6 -3 1476.83 292.518 2
6 7 -3 1980.17 290.191 1
-3 7 -6 2023.77 322.27 2
-3 -6 -7 2056.66 366.947 4
6 -7 3 1751.83 312.141 1
-3 -6 -7 1925.85 325.709 3
5 -7 -6 4320.96 448.812 4
5 -7 -6 4148.63 414.759 2
-7 5 6 4157.42 427.488 2
-5 -6 -7 3900.44 487.232 4
6 -5 -7 4078.11 406.168 4
6 -5 -7 4467.92 426.829 1
7 -6 -5 5171.62 486.819 1
-7 -5 -6 4387.96 487.316 4
-6 5 -7 3777.4 452.996 2
6 5 7 4039.85 471.21 4
5 -6 7 4192.03 448.632 2
-6 -7 -5 3951.54 490.637 4
7 -6 -5 3725.07 373.313 4
-5 6 7 3877.46 389.686 2
-6 7 5 4611.27 471.959 2
5 6 -7 4214.87 385.902 1
-7 6 -5 4456.56 476.295 1
-6 -7 -5 3944.54 444.93 3
-6 7 5 3370.33 418.653 1
5 -7 -6 4300.91 449.029 1
-7 6 -5 3781.66 457.676 2
5 7 6 3611.96 431.184 3
7 -5 6 4745.23 481.162 2
-7 5 6 3721.68 428.607 1
6 -5 -7 4587.3 412.535 2
5 -6 7 3983.45 407.564 1
7 6 5 3511.31 443.97 4
7 -5 6 4242.67 447.266 1
6 -7 5 4087.56 440.813 1
6 5 7 3234.34 438.234 3
-5 -6 -7 4551.11 495.454 3
7 -6 -5 4692.42 467.903 2
-7 -5 -6 4123.61 471.614 3
5 7 6 3690.91 459.383 4
-5 6 7 3483.52 395.484 1
-5 7 -6 4479.18 494.015 2
6 7 -5 3958.29 411.943 1
-6 5 -7 4389.61 450.524 1
5 7 6 3466.51 420.792 1
6 -7 5 4129.42 467.438 2
-5 7 -6 4595.47 469.221 1
-7 -7 0 538.837 164.469 3
7 0 -7 512.932 174.94 1
0 7 7 528.156 183.196 1
0 7 7 666.11 281.849 4
0 -7 -7 598.974 240.652 4
7 -7 0 1160.52 280.647 1
0 7 -7 816.847 213.239 2
0 7 -7 746.163 201.919 1
0 -7 7 560.192 204.595 2
0 -7 7 469.545 157.467 1
7 0 7 331.358 201.642 4
0 -7 -7 873.42 184.309 2
0 7 7 587.125 151.359 2
0 7 7 961.546 266.605 3
0 -7 -7 542.004 209.477 1
-7 7 0 700.543 237.287 1
-7 7 0 745.67 254.151 2
7 -7 0 467.72 201.773 2
2 -7 7 7131.28 512.773 1
-7 2 7 7449.91 489.322 4
-2 -7 -7 7302.09 511.233 2
7 -7 2 7609.21 593.832 1
7 -7 2 6879.9 604.651 2
-7 2 7 7180.53 527.371 1
-2 -7 -7 7948.95 640.71 3
-2 7 7 5751.69 513.802 1
-2 7 7 6639.98 494.525 2
2 -7 -7 6822.19 483.907 2
2 -7 -7 7285.11 619.933 4
-7 7 2 7299.94 619.393 2
2 -7 -7 7735.95 558.374 1
2 -7 7 7022.1 585.482 2
-2 -7 -7 6660.2 635.745 4
-7 -7 -2 6943.39 539.706 3
-2 7 -7 6736.72 522.294 1
-7 7 -2 7539.85 647.709 2
-2 -7 7 7446.87 566.674 2
2 7 7 6678.51 615.261 4
-7 -7 2 7710.2 451.653 3
-2 -7 7 8297.88 518.035 1
-7 -2 -7 6762.16 604.433 3
7 -7 -2 8186.25 628.01 1
7 -2 7 7314.91 553.66 1
7 -7 -2 6586.03 573.161 2
-2 7 -7 7505.78 592.465 2
-7 7 -2 6965.6 614.509 1
7 2 7 7136.3 604.867 4
-2 -7 -7 7756.31 573.79 1
-7 7 2 6726.65 613.163 1
2 7 -7 7236.26 503.769 1
2 7 7 7014.89 562.72 1
7 -2 -7 7923.93 554.227 1
2 7 7 6959.16 616.22 3
-7 2 -7 7637.37 605.35 2
-7 -7 -4 218.419 200.416 4
4 -7 -7 168.307 163.155 1
-4 7 -7 69.9256 174.195 1
-7 7 4 228.59 201.587 2
-7 4 -7 110.908 190.698 2
4 7 7 19.6436 172.254 1
-4 7 -7 211.771 190.531 2
-7 4 7 318.814 197.803 1
-4 -7 7 663.193 216.439 2
7 -4 7 409.373 197.828 1
-7 7 -4 65.7778 210.355 1
-4 -7 -7 497.187 260.76 4
-7 7 4 319.193 216.179 1
4 -7 7 350.942 209.509 2
7 -7 -4 137.488 180.226 2
-7 4 7 56.7576 146.153 2
4 -7 7 150.364 145.462 1
4 -7 -7 268.271 182.069 4
-7 -7 4 304.736 106.858 3
-4 -7 -7 385.801 205.779 3
7 -7 -4 577.247 237.992 1
-7 -4 -7 346.668 211.888 3
7 4 7 21.1804 201.989 4
-7 -4 -7 299.587 263.611 4
-7 4 7 458.601 199.978 4
4 7 7 412.878 232.016 3
-4 7 7 248.05 177.562 2
4 7 -7 670.808 205.281 1
-7 7 -4 -121.373 198.928 2
7 -4 -7 42.4981 198.376 4
7 7 4 237.172 199.436 3
7 -4 7 380.674 202.519 2
4 -7 -7 7.90734 136.4 2
7 -7 4 357.613 206.777 1
7 -4 -7 289.359 196.901 1
7 -7 4 207.983 220.059 2
-4 7 7 271.111 200.059 1
4 7 7 457.726 252.641 4
-7 4 -7 491.55 210.474 1
-7 -7 -4 274.521 179.922 3
-6 -7 -7 12521 915.376 4
6 -7 -7 13302.3 827.871 1
-7 -6 -7 12291.5 879.745 4
-7 6 -7 13927.1 878.605 1
-7 6 -7 13027.2 892.682 2
-6 7 7 13693.1 835.741 2
-6 7 -7 11949.1 833.172 1
-7 -7 -6 12292.2 877.362 4
6 7 7 12235 870.997 3
7 -7 6 13263.9 892.536 2
-7 -7 -6 12486.5 861.044 3
7 -7 -6 13305.1 789.912 4
-7 6 7 11935.8 817.286 1
-7 6 7 13281 823.489 2
-7 7 6 12212.3 857.24 1
-7 7 6 11930.3 823.281 2
6 -7 7 11638.6 848.618 2
7 -6 -7 13196.3 772.448 4
7 6 7 11177.9 812.959 4
6 7 7 10899.8 785.317 1
7 -6 7 13257.6 891.553 2
6 7 -7 13239 774.21 1
7 -7 -6 12495.1 809.799 2
-6 7 -7 11973.8 861.356 2
7 6 7 13525.3 907.193 3
-6 7 7 10488.1 792.513 1
7 -6 -7 12996.9 796.606 2
6 -7 7 13747.3 825.189 1
7 7 6 14254.6 920.069 3
6 7 7 12122.9 862.457 4
-7 7 -6 14320.4 951.557 2
-7 7 -6 13669.4 896.539 1
-6 -7 -7 12535.9 876.071 3
6 -7 -7 13378.1 805.999 2
6 -7 -7 12600 790.305 4
-7 -6 -7 12011.3 854.914 3
7 -7 -6 13474.4 855.056 1
7 -6 7 13658.4 832.989 1
7 7 6 12445.8 858.528 4
7 -6 -7 13529.2 830.815 1
7 -7 6 13076.6 831.026 1
0 8 0 87352.4 3189.68 1
0 -8 0 92753.2 3194.48 1
8 0 0 89249.8 3157.43 1
0 8 0 95473.9 3239.01 2
0 0 -8 91728.6 3089.88 3
0 0 8 94525.5 3076.96 3
0 -8 0 85242 3163.51 2
-1 1 8 57123.7 2153.88 4
1 1 8 56752 2176.83 4
-1 -1 -8 51849.2 2069.28 3
-1 -8 -1 53811.4 2108.51 2
1 -8 -1 54965.9 2124.99 1
1 -1 8 60817.4 2029.28 3
-1 1 -8 53885.2 1810.31 2
-1 8 -1 53709.2 2122.29 1
1 -8 1 56173.4 2141.77 2
1 8 1 53055.7 2121.48 1
1 1 8 57089.1 2070.66 3
-1 8 1 53306.6 2132.98 1
8 -1 -1 56947.7 2118.66 1
-1 8 -1 55412.8 2158.27 2
1 8 1 57924.6 2168.17 2
8 -1 1 60133.7 2154.28 1
1 -1 8 53003.4 1813.58 2
1 -1 -8 54301.6 2033.12 3
8 1 1 58277.2 1843.2 4
1 8 -1 58615.5 2189.04 2
-1 1 8 53638.4 2031.28 3
1 8 -1 53556.2 2116.57 1
-1 1 -8 58117 2038.44 3
1 1 -8 58827.4 1992.57 3
1 -8 1 57098.5 2115.72 1
-1 -8 1 59399.4 2142.35 1
-1 -8 1 54946.3 2129.91 2
1 1 8 50727.1 1774.68 1
-8 -1 -1 55351.5 1856.19 4
1 -8 -1 50989.8 2079.44 2
-1 -8 -1 57599.6 2144.39 1
-1 8 1 54292.5 2132.51 2
-1 -1 8 59802.7 1978.42 3
0 -8 2 21261.4 1015.3 1
0 2 8 17453.3 742.475 1
-8 2 0 20404.5 1033.39 1
8 0 -2 21098.5 1008.33 1
8 -2 0 21300.5 1049.95 1
-2 0 8 20150.9 918.326 3
-2 -8 0 17909.9 1006.16 2
0 8 2 17966.2 1002.84 1
0 -2 8 22525 902.389 3
0 -8 -2 18961.1 981.996 2
0 2 -8 20917.5 795.171 2
0 2 8 19925.2 987.84 3
0 -8 -2 19179 1004.54 1
0 -8 2 18993.5 1014.77 2
-2 -8 0 20593.7 1030.67 1
2 0 8 20576.8 973.224 3
-2 8 0 20720.1 1050.95 1
0 -2 -8 20355.4 1010.42 3
0 2 -8 21340.1 906.493 3
0 8 2 20867 1049.18 2
8 0 2 19969.5 831.382 4
-8 2 0 22944.1 1104.73 2
0 -2 -8 18987.4 754.471 1
-2 8 0 21186.9 1069.88 2
2 -8 0 19907.2 1022.96 2
-8 -2 0 20586.1 786.505 4
0 -2 8 20238.6 806.508 2
2 8 0 18858.6 1017.14 1
0 2 8 20810.5 1080.25 4
-2 0 -8 19730.1 984.453 3
8 0 2 20569.9 1015.2 1
2 8 0 20902.5 935.335 3
-2 0 -8 18246.6 766.594 2
0 8 -2 19749.5 1022.84 1
0 8 -2 21159.6 1070.13 2
2 -8 0 20479.7 1019.24 1
-2 -8 2 4332.78 451.043 2
-2 2 -8 4121.39 380.87 3
2 -8 -2 5228.24 462.823 2
-2 2 -8 3866.51 316.347 2
-2 2 8 5142.05 486.418 4
-2 -8 -2 4459.11 451.265 1
-2 8 -2 4409.7 462.187 1
-2 -2 -8 3940.28 427.049 3
2 -2 8 3505.24 262.515 1
-2 2 -8 3451.02 253.159 1
-2 8 2 4244.17 448.973 2
-2 2 8 3861.75 271.891 1
2 -2 -8 4041.98 273.86 1
2 8 2 4208.39 460.31 1
-8 2 2 4055.17 419.156 1
2 -8 2 4436.75 440.671 2
-8 2 -2 3852 421.744 1
-8 -2 -2 4076.04 336.273 4
-2 -2 8 4757.19 330.347 3
-2 8 -2 4578.26 470.057 2
-2 -2 8 4339.71 298.786 2
-8 2 2 4377.5 437.651 2
2 -8 -2 4455.31 435.25 1
8 2 2 4628.24 347.186 4
-2 8 2 3690.85 427.129 1
-2 -8 2 5033.01 462.606 1
2 -8 2 4632.91 442.981 1
2 -2 8 4003.11 329.831 2
-2 -8 -2 3539.33 415.185 2
-8 2 -2 4373.69 460.304 2
2 8 2 4333.55 424.392 3
2 2 -8 4123.97 330.838 3
2 2 8 4012.95 412.068 3
-2 2 8 4894.92 432.157 3
2 2 8 3917.69 474.654 4
8 -2 -2 4555.11 445.775 1
2 8 -2 4940.45 473.328 1
8 -2 2 4167.4 439.478 1
-1 3 -8 2881.73 300.651 3
3 8 1 2915.35 390.573 1
1 8 -3 3453.49 413.507 2
1 -8 3 3458.21 411.664 2
-8 3 1 2960.14 385.022 1
3 -8 -1 3359.58 394.015 1
-3 -8 1 2931.52 380.766 2
8 1 3 3310.78 326.893 4
-3 1 8 3129.29 228.84 1
-8 -3 -1 2872.14 280.436 4
-1 -8 -3 2704.71 356.256 2
-1 3 -8 3312 292.745 2
-1 8 3 3193.84 377.593 2
3 -1 8 3373.95 263.844 1
-1 -3 8 2709.49 264.104 2
8 -1 -3 3154.97 363.574 1
-3 8 -1 3832.94 431.632 2
-1 3 -8 2659.14 222.496 1
1 -3 -8 2999.53 255.006 1
3 -8 -1 2745.07 364.479 2
-3 8 -1 2779.56 376.444 1
1 3 8 2759.73 255.419 1
-1 8 3 2768.71 377.021 1
3 8 1 3879.03 358.75 3
-3 -8 1 3392.99 397.397 1
1 3 8 3679.45 451.677 4
-3 -1 -8 2462.6 347.041 3
-8 3 1 3035.74 384.439 2
1 3 8 2616.06 360.599 3
-3 1 8 3784.96 399.487 4
1 -8 3 3031.52 366.221 1
8 -3 1 3377.43 388.793 1
-1 -8 -3 3135.43 372.353 1
1 -3 -8 3033.13 428.982 4
-3 1 8 3025.61 336.042 3
1 8 -3 2971.43 369.389 1
3 -1 8 3224.74 280.911 2
-1 -3 8 3409.94 276.013 3
1 -3 8 3003.33 225.717 1
-3 -8 -1 2503.34 357.854 2
-8 3 -1 3223.3 388.556 1
8 -1 3 2755.8 349.055 1
3 -1 -8 3133.26 227.466 1
3 -8 1 3237.41 368.206 1
-3 -8 -1 2825.56 384.378 1
-1 -3 -8 3219.9 448.949 4
3 1 8 3082.69 353.465 3
-1 3 8 2688.75 248.453 1
1 8 3 2633.62 350.514 3
-1 -8 3 3095.58 391.078 2
3 -8 1 2881.88 384.312 2
3 8 -1 2845.98 394.4 1
1 -3 8 2547.49 271.852 2
1 8 3 3033.02 356.977 2
-3 8 1 2783.14 384.183 1
-1 8 -3 3433.11 383.689 1
-8 3 -1 3164.71 395.247 2
3 8 -1 3240.39 295.905 3
-1 -3 -8 2534.81 357.4 3
1 8 3 3058.09 379.982 1
-3 1 -8 2528.93 334.922 3
8 -3 -1 2670.52 364.686 1
1 -8 -3 2962.96 363.757 1
-3 -1 8 2971.62 289.473 3
-1 3 8 2309.7 373.701 4
-1 -8 3 3065.2 349.828 1
-1 8 -3 3208.98 377.733 2
-1 3 8 2646.46 344.987 3
1 3 -8 3180.15 274.301 3
-3 1 -8 2679.04 268.431 2
1 -8 -3 2447.17 330.245 2
-3 8 1 3334.14 414.518 2
3 1 8 2360.89 380.903 4
3 8 3 14573.1 907.661 1
3 -3 8 16609.3 740.002 1
8 -3 -3 16510.2 648.439 4
-3 8 -3 15994.6 918.184 1
3 -3 -8 17714 962.309 4
-8 -3 -3 16379.2 842.617 4
3 8 3 16020.8 889.156 3
3 -8 -3 15829.3 881.842 2
-3 3 8 17205.3 935.289 4
3 -8 -3 16918.1 930.923 1
-3 3 8 15101.6 668.926 2
-3 -8 -3 15572.7 911.419 1
-8 3 -3 16199.2 927.089 1
8 -3 3 17575.8 942.231 1
3 3 8 15260.4 951.14 4
-8 3 -3 18882 1020.01 2
8 3 3 16926.4 809.214 4
3 -8 3 16880.8 910.573 1
-3 -8 -3 15544.8 899.158 2
3 -3 -8 16323.6 737.706 1
3 3 8 15822.4 907.604 3
-3 -3 -8 14404.2 953.519 4
8 -3 -3 17530 939.102 1
-3 3 -8 16966.4 827.52 2
-3 3 -8 15470.7 735.049 1
-3 -3 8 18187.1 700.506 3
3 8 -3 16413.5 906.585 1
-3 3 8 14834.2 730.72 1
-8 3 3 17793.8 958.955 2
-3 -8 3 17703.5 956.996 2
3 -8 3 16591.7 946.444 2
-3 8 3 15221.9 912.506 1
-3 8 3 16172.7 923.377 2
3 -3 8 16860 819.289 2
3 8 -3 17187.7 697.548 3
-3 -8 3 18828.6 947.043 1
-3 -3 -8 16363 943.547 3
-3 -8 -3 15564.3 862.338 3
3 3 -8 16409.3 662.175 1
-3 8 -3 16819.9 974.218 2
-8 3 3 16794.2 929.467 1
2 8 -4 7641.03 571.369 1
-2 -4 8 7742.01 483.327 2
-2 4 -8 7529.23 507.186 2
2 -4 -8 7680.75 462.383 1
4 -2 8 7468.7 502.404 2
-4 2 8 7591.88 446.083 1
-2 -8 -4 7532.18 575.389 2
2 -8 4 7133.24 595.426 2
-4 -2 -8 7633.68 615.658 3
8 -2 -4 8495.62 596.648 1
-8 2 -4 7572.82 613.248 2
8 2 4 8499.73 550.11 4
-4 2 8 7336.5 413.037 2
2 4 8 6865.47 472.612 1
-8 -4 -2 7332.11 502.825 4
-8 4 2 7836.16 608.686 1
-4 -8 2 7863.06 587.545 1
8 -4 2 7638.84 611.677 2
2 4 8 7196.56 629.546 4
-4 8 -2 8068.06 641.556 2
8 -4 2 8431.43 619.07 1
-2 8 4 6400.24 562.987 1
2 -8 4 7090.1 554.767 1
-2 4 -8 7421.6 445.575 1
2 -4 -8 7356.58 392.288 2
-8 2 -4 7882.5 586.838 1
-8 4 2 8028.54 621.787 2
-4 2 8 7521.17 579.778 4
-2 8 4 7844.46 593.498 2
2 4 8 6622.14 556.371 3
-4 8 -2 7774.89 607.875 1
4 -8 -2 6361.42 550.129 2
4 8 2 7520.18 604.461 1
4 -8 -2 7486.12 596.358 1
4 8 2 7535.08 549.669 3
2 8 -4 8453.54 630.672 2
4 -2 8 7235.13 464.425 1
8 -2 -4 7913.18 382.441 4
2 -4 -8 7804.8 620.331 4
-2 -8 -4 7120.42 593.294 1
0 4 -8 636.707 140.974 1
0 4 -8 172.929 129.616 2
0 8 4 166.643 213.563 1
-4 -8 0 460.533 169.452 3
4 8 0 147.414 136.938 3
-4 0 -8 267.74 193.481 3
0 8 -4 261.979 189.772 1
8 -4 0 351.295 191.742 2
0 -4 -8 18.2977 247.111 4
0 -8 4 319.221 193.399 2
0 -8 4 397.796 189.673 1
4 8 0 185.335 209.027 1
0 -8 -4 29.3722 181.177 1
-4 8 0 475.268 214.061 2
-8 4 0 507.738 225.266 2
8 0 4 293.811 158.267 4
0 -8 -4 162.179 154.77 2
-4 8 0 513.694 246.717 1
0 8 4 211.396 169.732 2
-4 0 -8 315.812 144.815 2
4 -8 0 395.788 219.518 1
-8 4 0 183.41 190.74 1
0 -4 -8 248.547 89.9092 2
0 -4 -8 75.4193 179.182 3
0 4 8 425.412 275.049 4
-4 -8 0 296.426 193.762 1
0 4 -8 270.601 133.211 3
0 -4 -8 334.353 139.997 1
0 4 8 420.975 155.569 1
4 0 -8 412.875 123.13 1
8 0 -4 391.907 189.393 1
4 -8 0 23.2218 180.184 2
0 -4 8 316.239 155.657 2
0 -4 8 474.304 125.357 1
0 8 -4 426.68 215.631 2
8 -4 0 578.342 232.437 1
0 4 8 254.484 188.858 3
8 -2 4 8312.55 600.325 1
2 -8 -4 7009.19 545.968 2
2 4 -8 8558.32 414.491 3
-2 4 8 8042.91 624.546 3
4 -8 2 7057.26 585.945 2
-4 -8 -2 7018.68 521.989 3
-2 -4 -8 7401.72 650.089 4
2 8 4 6472.88 569.917 1
-2 -8 4 8658.97 592.387 1
-4 -2 8 7932.82 447.783 3
-2 -4 -8 6631.08 574.506 3
-4 2 -8 7413.85 508.109 2
8 -4 -2 8229.28 627.459 2
2 -4 8 7830.23 532.03 2
-2 4 8 7197.61 464.636 1
-8 2 4 7712.2 582.484 1
-2 4 8 8291.4 628.522 4
4 2 8 7087.22 572.121 3
2 8 4 7666.01 598.814 3
-4 8 2 7655.06 617.069 2
-8 -2 -4 7252.81 536.934 4
4 8 -2 7573.53 596.637 1
4 -8 2 7570.72 588.462 1
-2 -8 4 7776.7 609.745 2
8 -4 -2 8471.04 617.594 1
-8 4 -2 7894.5 623.983 1
2 4 -8 7753.96 408.392 1
-8 4 -2 8507.08 647.96 2
-2 4 8 6980.44 388.075 2
-2 8 -4 8838.8 650.807 2
2 -8 -4 7223.69 569.546 1
-4 8 2 6199 575.187 1
4 8 -2 7681.7 443.383 3
-4 -8 -2 8099.02 630.911 1
4 -2 -8 7566.71 445.036 1
2 -4 8 7984.11 450.318 1
4 2 8 7183.54 621.151 4
-2 8 -4 6810.7 560.491 1
-4 4 -8 14297.3 754.887 1
8 -4 4 14695.7 870.124 1
-4 8 -4 14762.1 884.638 1
-4 -8 -4 13251.8 887.616 4
8 -4 -4 15002 660.475 4
8 -4 4 13430 865.978 2
4 8 -4 14438.5 848.765 1
8 -4 -4 14082.9 850.834 1
4 -8 4 14973.5 852.075 1
4 -4 -8 15799.1 891.696 4
4 -8 4 13973.9 882.752 2
4 -8 -4 14822 863.102 1
-4 -8 4 15952.8 873.04 1
-8 4 -4 13993.5 910.107 2
-8 4 -4 13594.2 860.039 1
-4 4 -8 14603.9 821.532 2
4 -8 -4 15022.3 851.614 2
-4 -4 8 15180.2 588.474 3
-4 4 8 16151 864.637 4
4 8 4 12740.4 850.657 1
4 -4 8 13799.9 804.277 2
4 -4 -8 14547.8 740.737 1
4 -4 -8 15781.3 700.247 2
4 8 4 14104.7 861.722 3
-8 -4 -4 13544.9 812.554 4
4 -4 8 14061.7 729.209 1
8 4 4 14505.8 797.993 4
-4 8 4 13480.8 856.718 1
-4 -4 -8 13777 933.735 4
-4 -8 4 14531 875.709 2
-4 4 8 13340 735.507 1
4 4 -8 15452.7 678.848 1
-4 8 4 14346.2 863.981 2
4 4 8 15491.8 912.566 3
-4 -4 -8 13967.8 894.648 3
-4 -8 -4 14211.3 845.662 3
4 8 -4 13900.6 575.822 3
-8 4 4 14533.1 859.063 2
-8 4 4 13197.9 848.378 1
4 4 8 13166.2 883.742 4
-4 8 -4 15316.8 929.815 2
-4 4 8 13929.3 687.188 2
5 8 3 9634.27 727.626 1
8 -3 -5 12038.7 570.496 4
8 -3 -5 10873.2 714.512 1
8 -5 3 9545.86 729.768 2
3 -8 5 11909.6 727.28 1
-3 5 -8 12679.7 728.785 2
3 -5 -8 10715 570.916 2
3 -5 -8 11550.1 762.994 4
5 -3 8 11334.5 676.631 2
-5 -8 3 10751.5 507.736 3
3 -8 5 10252.6 738.259 2
-3 8 5 10388.3 709.802 2
-3 -5 8 11909.8 668.415 2
8 -5 3 11272.5 750.717 1
-5 3 8 11134.9 698.196 4
3 -5 -8 10594.3 630.487 1
-3 -8 -5 9796.28 709.822 3
-8 3 -5 10679.8 728.482 1
-8 -5 -3 10143.4 676.336 4
-5 3 8 11393.6 599.009 2
-3 5 -8 9691.55 609.576 1
-3 8 5 9958.82 715.173 1
-3 -8 -5 10993.7 803.13 4
3 5 8 10594.9 744.322 3
-8 5 3 10133.2 745.228 1
-3 -8 -5 10153.7 688.404 2
-5 8 -3 11565.5 808.645 2
-8 -5 -3 10946.6 718.652 3
8 3 5 11595.4 705.38 4
5 -8 -3 11109.8 748.615 1
5 -8 -3 11782.2 746.948 2
-5 -3 -8 11553.9 829.084 4
3 5 8 11140.3 797.245 4
-8 5 3 11849 775.929 2
-8 3 -5 11294.7 781.528 2
-5 3 8 9473.13 597.669 1
5 8 3 10796.5 707.438 3
-3 -8 -5 11257.9 740.586 1
3 5 8 10476.7 644.911 1
5 -3 8 11176.8 639.63 1
-5 8 -3 11055.5 767.96 1
-5 -3 -8 10611.6 767.223 3
3 8 -5 11329.9 711.016 1
-1 5 -8 4656.94 400.935 2
-1 -5 8 4594.5 316.887 1
1 -5 -8 4046.33 359.412 1
-1 -8 -5 4056.19 404.437 2
-5 -8 1 4326.03 338.508 3
-8 -5 -1 3759.78 373.928 4
1 -8 5 4445.3 459.306 2
5 8 1 4143.09 455.936 1
-1 -8 -5 4175.07 432.101 1
8 -5 1 4299.81 455.103 2
-1 5 -8 4167.76 337.603 1
1 8 -5 4711.83 438.263 1
8 -5 1 4301.79 463.103 1
1 -8 5 4428.21 412.848 1
-5 1 8 4306.92 328.699 1
-8 1 -5 4595.87 482.179 2
-1 8 5 4673.01 434.645 2
1 -5 -8 3809.55 482.066 4
-5 1 8 4797.08 426.629 4
1 5 8 3625.17 426.85 3
-5 8 -1 4676.2 505.804 2
8 -1 -5 4585.82 434.854 1
8 1 5 4220.09 415.34 4
-8 5 1 4298.09 473.142 1
-1 8 5 3723.12 422.928 1
-1 -8 -5 4456.62 495.326 4
1 5 8 4309.46 485.931 4
5 1 -8 4402.4 319.314 1
-1 -5 8 4573.76 398.545 2
5 -1 8 4415.8 365.518 1
5 8 1 4127.72 386.982 3
5 -8 -1 5033.65 478.097 1
5 -8 -1 4786.01 469.748 2
-5 -1 -8 4611.49 467.949 3
1 8 -5 4488.75 476.819 2
1 5 8 3744.3 356.739 1
-5 8 -1 3915.85 463.219 1
1 -5 -8 4217.98 303.629 2
-8 5 1 4774.41 476.852 2
-1 -5 -8 3515.41 471.664 4
-8 5 -1 4442.35 494.795 2
-1 5 8 3727.2 288.549 2
-8 1 5 4515.95 281.014 4
-1 5 8 4551.9 488.172 3
-1 5 8 4047.01 464.441 4
-5 8 1 4364.53 469.094 2
8 1 -5 4325.16 405.286 1
8 -1 5 3925.33 426.345 1
-1 -5 -8 4826.31 492.23 3
-1 5 8 3543.05 340.739 1
5 -8 1 3930.35 437.76 1
-1 8 -5 4823.86 477.813 2
5 -8 1 4617.26 476.364 2
1 -8 -5 3306.6 420.889 4
-5 8 1 3602.87 447.499 1
1 8 5 3536.29 410.805 1
1 -8 -5 4318.15 429.684 1
-1 -5 -8 3914.73 357.774 1
1 -5 8 4616.57 334.245 1
5 8 -1 3852.8 336.299 3
8 -5 -1 3932.63 442.977 2
8 -5 -1 4115.96 444.856 1
1 8 5 4296.19 482.668 3
5 1 8 3938.21 471.942 4
5 8 -1 4673.74 464.61 1
1 5 -8 4336.19 392.397 2
-1 8 -5 4343.45 434.904 1
1 5 -8 4433.5 325.421 1
-1 -8 5 4638.83 457.335 2
1 -8 -5 3553.74 369.709 2
5 -1 -8 4203.77 330.607 1
-5 1 -8 3745.51 370.734 2
-5 -8 -1 4199.47 376.809 3
-8 5 -1 4225.8 475.19 1
1 5 -8 4049.07 282.775 3
1 -5 8 4184.93 393.774 2
-1 -5 -8 3628.66 292.119 2
-1 -8 5 4990.64 429.434 1
-8 5 -3 12253.2 823.102 2
-3 8 -5 12617.5 817.89 2
3 -8 -5 11430 700.898 2
-3 -8 5 11554.9 767.012 2
-3 -5 -8 9908.51 793.357 4
-8 3 5 10859.2 717.602 1
-3 5 8 10061.1 568.963 2
-3 -5 -8 11254.6 775.848 3
5 -3 -8 11846.9 643.521 1
3 -5 8 11189.9 620.159 1
5 3 8 11731.7 779.149 3
3 8 5 10929.6 753.492 3
3 8 5 9839.61 718.92 1
5 -8 3 11003.4 767.547 2
5 -8 3 10929.5 734.741 1
8 -5 -3 11216.3 743.692 1
-5 3 -8 10953.2 697.041 2
8 -3 5 10541.1 717.334 1
-3 5 8 10909.8 729.021 4
8 -5 -3 11883.6 766.952 2
5 8 -3 11158.4 733.083 1
-3 5 8 9611.03 621.239 1
5 3 8 10994.4 781.406 4
-8 3 5 12587.4 756.394 2
-8 5 -3 11514.1 793.77 1
5 -3 -8 11185.9 720.693 4
3 -8 -5 10393.8 706.965 1
-3 8 -5 11489.1 740.216 1
-8 -3 -5 10873.1 733.647 4
-5 8 3 11720.6 783.016 2
-5 3 -8 10578.7 635.336 1
-5 -8 -3 10862.3 700.686 3
3 5 -8 11903.8 593.514 1
-3 -8 5 12669.5 725.934 1
5 8 -3 10417.3 515.579 3
-5 8 3 10642 756.774 1
3 -5 8 11566.1 710.787 2
-5 5 -8 12005 725.43 1
5 -5 8 12407.1 714.934 1
-5 5 -8 11881.2 793.428 2
-5 5 8 12058.1 742.035 4
-8 5 5 11466.8 790.748 1
5 5 8 11086 798.069 3
-5 -5 -8 11194.9 816.677 3
-8 5 -5 11578.3 801.72 1
5 8 -5 12400.9 763.506 1
5 5 -8 11883.4 644.917 1
8 -5 5 12704.6 812.701 1
-5 5 8 10809 692.835 1
8 -5 -5 12544.8 800.266 1
5 -8 -5 12223.4 771.766 2
5 -5 -8 13243.2 802.954 4
-8 5 -5 13685.4 880.249 2
5 -8 5 11874 774.661 1
-5 8 -5 11658 802.699 1
-5 5 8 11156.5 667.033 2
-5 -5 -8 11131.1 844.127 4
-5 8 5 12668 807.579 2
-5 8 5 10791.3 777.36 1
5 -5 8 12646.9 789.765 2
5 -5 -8 11891.4 704.637 1
5 -8 5 12240.4 827.685 2
8 -5 5 11392.1 798.545 2
5 -8 -5 12198.4 792.709 1
-5 -8 -5 10510.6 757.247 3
8 5 5 10460 718.674 4
-8 -5 -5 11338.9 798.085 3
-8 -5 -5 10435.7 767.269 4
5 8 5 12027.9 800.483 3
-5 -8 -5 12319.5 854.304 4
5 8 5 11093.9 781.868 1
8 -5 -5 12075.8 778.174 2
5 -5 -8 12322.2 668.435 2
-8 5 5 12118.9 798.754 2
5 5 8 11131.9 808.645 4
-5 8 -5 12128.8 839.85 2
8 -5 -5 11973.5 635.303 4
-6 8 -4 1922.77 361.194 2
-8 4 -6 1448.92 317.415 2
-6 4 8 1817.89 288.024 1
-4 8 6 1909.44 348.441 1
-8 -6 -4 1656.59 296.351 4
8 -4 -6 1559.31 293.224 1
6 -4 8 2425.19 345.5 2
8 4 6 2009.2 324.387 4
4 8 -6 1205.02 255.617 1
4 -6 -8 1558.84 323.893 4
6 8 4 1369.53 296.894 1
6 8 4 879.728 232.496 3
-8 6 4 1904.76 336.156 2
-8 6 4 1424.51 320.273 1
-4 6 -8 1526.53 299.968 2
-4 -6 8 1700.29 286.828 2
-8 -6 -4 1431.37 284.712 3
6 -4 8 1396.73 264.624 1
-6 8 -4 1303.39 321.564 1
-4 -8 -6 1553.82 311.61 3
4 6 8 2307.52 387.141 4
4 -6 -8 1414.47 241 2
8 -4 -6 2030.79 262.68 4
4 6 8 1003.63 276.868 3
-6 4 8 1240.63 269.465 4
4 -8 6 1222.59 302.863 2
-6 4 8 1620.79 249.826 2
-4 6 -8 1726.5 276.513 1
-6 -4 -8 1371.04 330.335 4
6 -8 -4 1388.29 288.742 2
8 -6 4 2162.99 339.962 1
4 -8 6 1667.27 285.406 1
-8 4 -6 1436.68 304.718 1
4 -6 -8 1632.13 275.411 1
-6 -8 4 1470.75 153.305 3
4 6 8 1705.36 297.775 1
8 -6 4 1398.32 303.763 2
-6 -4 -8 1745.18 343.559 3
-4 8 6 1860.49 321.317 2
6 -8 -4 1823.81 322.198 1
-4 -8 -6 1501.85 339.746 4
-2 -8 -6 4289.04 505.938 4
2 6 8 3878.61 482.415 4
6 -8 -2 4825.43 495.724 1
-2 6 -8 4877.89 450.791 2
8 -2 -6 5435.7 473.598 1
-8 6 2 5146.69 532.991 1
8 2 6 5280.65 492.422 4
6 8 2 4242.04 445.564 3
-2 -8 -6 4480.72 434.807 2
-6 8 -2 4627.7 507.716 2
8 -6 2 5416.2 514.084 1
-2 -6 8 5144.52 445.143 2
-8 2 -6 5212.06 511.032 2
-8 6 2 4969.4 520.407 2
-6 2 8 5335.63 402.427 2
2 -6 -8 5279.56 441.85 1
-2 -8 -6 4361.01 445.99 1
2 -8 6 5189.75 466.677 1
2 -8 6 5245.07 517.346 2
-2 -8 -6 4209.97 465.836 3
-2 6 -8 4794.14 407.876 1
6 -8 -2 5221.49 506.054 2
2 -6 -8 4540.42 515.306 4
6 -2 8 4641.19 422.357 1
2 -6 -8 4860.46 378.65 2
-6 2 8 4333.61 380.096 1
-2 8 6 5348.22 467.009 2
-8 -6 -2 4821.55 451.196 3
-8 -6 -2 5157.62 467.881 4
2 6 8 4663.62 499.323 3
-6 2 8 4786.96 434.667 4
-6 -8 2 4919.05 342.008 3
2 6 8 4525.48 421.169 1
-2 8 6 4062.05 440.202 1
-6 8 -2 4367.95 508.946 1
-6 -2 -8 4058.35 485.615 3
2 8 -6 5440.71 468.238 1
-2 -6 8 6436.53 407.69 1
6 8 2 5157.34 507.333 1
8 -6 2 4766.94 497.97 2
6 -8 0 -32.4213 182.545 2
0 -8 -6 143.726 222.412 4
-6 -8 0 62.7964 131.201 3
0 -6 8 -78.9824 154.099 2
-6 8 0 463.839 260.598 1
-8 0 6 49.0414 115.031 4
-8 6 0 166.237 196.881 2
0 -8 -6 244.402 181.394 2
0 -6 -8 35.2898 152.582 1
0 8 -6 416.06 203.327 2
8 0 -6 296.465 172.724 1
0 -6 -8 184.956 135.801 2
0 8 6 -68.0174 187.515 2
0 -8 -6 225.173 191.93 1
0 -6 8 116.851 130.592 1
0 -8 6 -60.1895 154.782 1
0 8 6 -118.096 191.387 3
6 -8 0 269.958 189.911 1
0 8 -6 317.523 180.053 1
6 8 0 141.566 221.218 1
-6 8 0 139.801 222.836 2
0 6 8 -105.375 227.144 4
0 8 6 158.992 189.034 1
0 6 -8 347.982 198.827 2
0 -6 -8 32.9646 224.392 4
6 0 -8 307.275 154.551 1
-8 -6 0 176.18 156.501 3
0 6 8 188.615 190.794 3
-6 0 -8 95.4536 164.174 2
8 -6 0 255.024 191.15 2
8 0 6 -66.1083 192.448 4
0 -8 6 -39.6295 167.361 2
0 6 -8 161.892 129.186 1
-8 6 0 -7.03039 221.508 1
6 8 0 129.119 159.047 3
0 6 8 201.915 166.429 1
8 -6 0 -17.3165 183.979 1
-2 -6 -8 4257.74 518.691 4
-6 8 2 4101.72 481.122 1
-6 -8 -2 5327.2 450.145 3
-2 -8 6 5293.38 498.516 2
-8 6 -2 5432.04 547.679 1
-2 -6 -8 4137.46 354.758 2
-2 -8 6 5478.77 453.097 1
-2 -6 -8 4704.65 498.074 3
-2 6 8 4481.53 363.689 2
-8 2 6 4923.25 470.294 1
2 6 -8 5541.04 404.388 1
6 8 -2 4356.55 466.718 1
6 2 8 4840.67 513.034 4
8 -2 6 5158.03 478.684 1
-8 6 -2 4756.68 517.876 2
2 -8 -6 4656.16 507.261 4
8 -6 -2 5132.25 513.893 1
2 -8 -6 4843.79 472.741 1
-8 2 6 4782.53 334.293 4
6 -8 2 4542.74 466.191 1
-2 8 -6 5230.49 473.214 1
6 -8 2 3919.21 467.658 2
2 -6 8 5615.25 420.864 1
-2 6 8 5426.63 538.37 3
-2 6 8 5160.63 499.281 4
2 8 6 4736.9 498.146 3
-2 -6 -8 4850.92 425.415 1
-2 8 -6 5445.94 515.477 2
6 -2 -8 4509 388.686 1
-6 2 -8 4236.65 434.18 2
2 -8 -6 4721.66 421.72 2
-2 6 8 3561.02 381.921 1
2 8 6 4615.49 468.767 1
8 -6 -2 5097.11 512.315 2
-6 8 2 4438.06 491.01 2
2 -6 8 5070.59 476.092 2
2 6 -8 4988.39 275.884 3
4 -8 -6 1594.13 298.77 1
-6 4 -8 2082.05 341.27 2
8 -6 -4 2258.33 349.569 1
-6 8 4 1535.69 316.372 1
4 8 6 1843.71 337.383 1
4 -6 8 1602.64 315.016 2
-4 8 -6 2370.02 393.404 2
-8 4 6 2062.09 336.88 1
6 8 -4 1647.79 312.87 1
6 -4 -8 1580.77 262.998 1
6 -8 4 1530.6 294.162 1
-8 -4 -6 1523.08 322.701 4
-4 6 8 2069.54 332.838 4
-4 -8 6 2201.99 346.585 2
-6 8 4 1210.64 267.939 2
6 -4 -8 1566.85 289.876 4
-8 6 -4 2018.04 354.929 1
-8 -4 -6 1665.73 326.275 3
4 8 6 1712.75 311.577 3
-6 4 -8 1117.84 235.452 1
-4 6 8 2306.32 282.947 2
-8 4 6 1410.06 274.589 2
-6 -8 -4 1332.71 321.854 4
8 -4 6 1707.47 317.724 2
-4 -6 -8 1754.42 368.202 4
4 -8 -6 1862.38 296.028 2
8 -6 -4 2109.85 333.153 2
6 -8 4 1423.35 314.016 2
4 -8 -6 1499.78 316.781 4
6 4 8 1468.01 341.862 4
-4 8 -6 2076.5 333.558 1
4 6 -8 1610.78 235.845 1
-8 6 -4 1654.31 332.753 2
-4 -6 -8 1199.03 290.93 3
-4 6 8 2202.13 308.526 1
4 -6 8 1581.7 254.836 1
6 4 8 1703.13 317.478 3
-6 -8 -4 1571.42 301.55 3
8 -4 6 1586.31 278.689 1
6 -8 -6 4790.45 473.637 4
-6 8 -6 5675.2 603.596 2
6 -6 -8 6043.7 516.116 1
8 -6 -6 5231.13 534.947 1
8 -6 6 5475.04 531.227 1
6 -8 6 5114.04 512.772 1
-8 6 6 4900.05 530.161 2
-6 8 6 5305.32 537.001 2
6 6 8 5246.83 551.571 3
-6 6 8 5204.16 470.582 2
-8 6 6 4537.72 498.755 1
8 6 6 5083.63 523.376 4
6 -8 6 4917.58 529.901 2
-6 -6 -8 4837.2 578.474 4
6 -8 -6 5752.25 531.233 2
6 8 6 5139.71 542.745 3
-6 -8 -6 5319.59 595.11 4
-6 -6 -8 5211.46 561.486 3
-8 6 -6 4519.15 530.988 2
-6 6 8 4699.13 474.576 4
8 -6 6 4717.7 515.747 2
-6 6 -8 5244.31 540.652 2
6 8 6 4658.79 511.633 1
6 -6 -8 5490.26 467.01 2
-8 -6 -6 4801.04 527.984 4
8 -6 -6 5349.06 445.794 4
6 -6 8 4603.24 460.167 1
6 -6 8 5088.34 536.953 2
-8 -6 -6 5114.08 546.954 3
6 8 -6 4930.39 479.646 1
-6 8 6 4839.07 532.938 1
-6 6 -8 4787.59 494.789 1
-6 8 -6 5790 562.262 1
-6 6 8 4470.55 470.975 1
-8 6 -6 5210.74 537.948 1
6 -6 -8 5136.56 498.958 4
6 -8 -6 5606.9 520.551 1
8 -6 -6 5078.7 503.835 2
6 6 8 5536.36 563.729 4
-6 -8 -6 4994.91 530.33 3
5 -8 7 760.552 250.693 1
7 8 5 446.978 229.892 3
-7 8 -5 524.271 252.755 2
5 -7 -8 538.311 191.964 2
5 7 8 179.475 166.848 1
8 -7 5 188.231 262.307 2
7 -8 -5 584.17 242.22 2
7 -5 8 609.728 208.317 1
5 -7 -8 92.0463 190.572 1
-8 -7 -5 499.724 219.26 3
8 5 7 -15.6703 215.368 4
-8 7 5 150.107 186.865 2
-5 -8 -7 339.582 229.806 3
-8 7 5 -37.9506 193.157 1
5 8 -7 609.221 218.972 1
-7 5 8 324.429 214.614 1
-7 8 -5 88.5232 228.638 1
7 -8 -5 473.692 232.849 1
-5 8 7 269.162 176.458 2
-8 5 -7 473.958 235.022 1
-5 8 7 792.545 262.793 1
-7 -8 5 482.965 95.8278 3
-7 5 8 396.384 200.932 4
5 -8 7 482.144 216.696 2
7 -5 8 290.901 169.867 2
-7 -5 -8 -366.764 266.937 4
-7 -5 -8 251.06 218.72 3
-7 5 8 409.976 177.358 2
8 -5 -7 468.203 221.645 1
8 -7 5 291.951 194.155 1
5 -7 -8 117.324 208.645 4
8 -5 -7 348.403 172.044 4
-8 -7 -5 868.775 301.681 4
-8 5 -7 -137.408 222.738 2
-5 7 -8 293.191 197.943 1
7 8 5 395.998 217.551 1
-5 -8 -7 156.029 234.066 4
-5 7 -8 548.332 243.953 2
5 7 8 546.553 228.992 3
5 7 8 234.514 228.58 4
3 7 8 555.922 273.575 4
-7 -3 -8 414.257 229.282 4
-8 3 -7 149.189 163.733 1
7 -8 -3 417.622 217.418 1
3 -7 -8 599.736 172.863 2
7 -3 8 809.075 227.417 1
7 -8 -3 727.075 255.084 2
8 -7 3 710.9 248.11 1
-3 -8 -7 626.629 216.162 2
-7 3 8 661.481 200.64 1
-7 -3 -8 644.507 235.74 3
-3 -7 8 523.782 188.48 2
3 7 8 213.026 187.426 1
-3 7 -8 765.548 220.487 1
-3 -8 -7 875.977 265.329 3
-3 -8 -7 409.168 270.53 4
3 -7 -8 1073.03 254.773 1
-8 7 3 506.256 248.227 1
-3 -7 8 875.057 195.643 1
-3 8 7 608.348 203.89 2
3 8 -7 596.475 220.003 1
8 -3 -7 389.471 165.433 4
7 8 3 536.976 204.382 3
-3 -8 -7 519.838 182.329 1
3 -8 7 753.93 257.284 2
-7 3 8 761.254 198.434 2
-7 8 -3 710.585 274.879 2
-7 -8 3 592.836 133.03 3
-8 -7 -3 651.086 227.326 4
8 -7 3 424.389 245.755 2
8 3 7 655.64 247.944 4
3 -8 7 789.583 217.146 1
3 -7 -8 729.068 276.075 4
-8 3 -7 485.758 227.256 2
-8 7 3 607.273 230.544 2
3 7 8 310.636 214.798 3
8 -3 -7 666.302 234.007 1
-7 8 -3 697.551 250.37 1
-3 8 7 342.991 188.125 1
7 -3 8 331.496 194.366 2
-8 -7 -3 632.709 223.784 3
-3 7 -8 654.246 257.426 2
-7 3 8 1219.07 242.375 4
-1 -7 8 23064.5 978.592 1
1 8 -7 21146.7 1030.58 1
-1 -8 -7 21420.5 1210.77 4
-7 8 -1 21191.1 1191.46 2
-7 -8 1 21350 943.096 3
7 1 -8 20298.7 953.265 1
8 -7 1 20253.9 1113.16 1
1 -8 7 22796.4 1036.5 1
7 8 1 19264 1000.57 3
-1 8 7 20238 1008.65 2
1 8 -7 24493.4 1173.2 2
-8 7 1 19673.8 1154.94 1
1 7 8 18077.6 1097.11 3
7 -1 8 20993.8 1031.35 1
-1 7 -8 20168.9 978.296 1
-7 8 -1 21721.4 1198.85 1
-1 8 7 18222.8 1038.87 1
-7 1 8 21970.4 993.385 1
-7 1 8 21256.4 993.99 4
-8 -7 -1 21413.6 1029.6 3
1 -7 -8 19530.3 1141.29 4
7 -8 -1 20822.4 1130.02 1
-1 -8 -7 21587.1 1091.24 1
-8 7 1 21586.1 1202.92 2
1 -7 -8 21693.3 1040.04 1
1 -7 -8 19968.3 925.147 2
1 7 8 16739.8 968.892 1
-1 -7 8 21226.6 1067.18 2
-1 7 -8 22669.7 1094.29 2
8 -1 -7 20900.5 1023.29 1
-8 1 -7 20411.3 1123.48 2
8 1 7 19205 1076.16 4
7 -8 -1 20325.3 1133.25 2
-1 8 7 21262.8 1187.81 3
1 -8 7 21800.7 1119.22 2
1 7 8 20081.7 1145.33 4
8 -7 1 20994.4 1161.07 2
-1 -8 -7 20001.9 977.081 2
1 -7 8 22012.4 1092.48 2
7 -1 -8 21250.7 987.795 1
1 8 7 19351.2 1125.29 3
-8 7 -1 20389.3 1177.4 2
8 -7 -1 20793.8 1130 1
-1 7 8 16691.5 969.879 1
-1 -8 7 21939.7 1118.66 2
-1 -7 -8 19746.2 1174.73 4
1 -8 -7 20126.1 972.027 2
-1 -8 7 23458.9 1029.24 1
7 1 8 19194.3 1110.52 4
8 -7 -1 21639.2 1161.23 2
-8 -7 1 20831.7 952.094 3
1 7 -8 21294.3 973.674 1
7 -8 1 21112.7 1128.12 1
-7 8 1 20502 1172.86 1
8 -1 7 20949.1 1062.17 1
8 1 -7 20753.4 996.953 1
1 7 -8 23597.4 1113.14 2
1 -8 -7 21898 1178.25 4
-7 1 -8 18903.4 1044.98 2
-1 7 8 20277.8 1121.39 4
7 -8 1 20365.4 1142.69 2
-1 8 -7 22282.6 1135.68 2
-8 7 -1 19177.1 1143.18 1
-1 7 8 19995.4 942.622 2
-1 8 -7 20993.6 1037.57 1
1 -7 8 22849 986.803 1
-1 -7 -8 18817.7 912.65 2
1 8 7 18198.4 1033.97 1
-1 -7 -8 18978.1 1009.43 1
-1 -7 -8 17629.9 1080.57 3
1 -8 -7 20466.3 1055.31 1
-8 1 7 21176.4 921.287 4
-1 7 8 21345.6 1180.5 3
-7 -8 -1 20898.5 1013.02 3
-7 8 1 21601.8 1189.84 2
3 8 7 739.2 262.862 3
-8 -7 3 824.204 165.138 3
3 -8 -7 678.851 202.272 2
8 -3 7 563.441 199.804 1
-3 -7 -8 797.519 268.928 3
-7 -8 -3 835.239 211.351 3
7 3 8 397.845 280.189 4
3 -8 -7 886.993 262.566 1
3 -7 8 1161.84 230.44 1
-7 3 -8 271.484 191.637 2
-8 -3 -7 1002.32 295.039 4
-3 8 -7 823.92 232.986 2
-7 3 -8 384.763 200.319 1
-7 8 3 695.58 248.171 2
8 -7 -3 811.69 262.355 2
3 8 7 722.281 237.315 1
-3 -7 -8 584.163 232.881 4
7 8 -3 840.351 246.459 1
-8 3 7 704.684 186.986 4
-3 7 8 654.744 269.61 4
-3 7 8 736.762 197.094 2
-3 8 -7 1145.04 277.452 1
3 -8 -7 467.327 217.604 4
7 -8 3 1345.41 312.529 1
-8 7 -3 680.426 271.097 2
-8 7 -3 440.043 206.107 1
-3 7 8 405.386 197.592 1
-7 -8 -3 927.166 321.072 4
-8 3 7 279.483 179.838 1
7 -3 -8 606.195 193.651 1
3 -7 8 952.197 250.216 2
7 -3 -8 448.081 178.576 4
-3 -8 7 566.401 208.165 2
8 -7 -3 422.777 219.292 1
7 -8 3 763.498 264.568 2
3 8 7 228.448 217.636 4
-8 3 7 293.391 165.331 2
-3 -8 7 640.303 199.288 1
3 7 -8 869.143 197.727 1
-7 8 3 796.235 255.178 1
-8 -3 -7 465.638 236.09 3
5 8 7 582.02 215.777 1
-8 7 -5 552.951 280.257 2
8 -7 -5 698.07 199.808 4
7 -5 -8 604.626 242.148 4
-5 7 8 561.637 214.103 1
-8 5 7 365.088 221.4 1
5 -7 8 414.959 213.014 1
5 8 7 166.154 248.191 4
-5 -7 -8 513.921 231.226 3
7 5 8 -125.992 215.286 4
8 -5 7 240.818 186.752 2
7 -8 5 111.291 182.354 2
-8 -5 -7 458.329 207.276 3
5 -8 -7 427.535 194.249 2
5 -8 -7 360.105 187.892 1
-5 7 8 301.471 191.456 2
7 -5 -8 460.572 211.152 1
-5 8 -7 225.972 227.121 2
-7 8 5 309.85 199.324 1
8 -5 7 8.12669 192.678 1
5 -8 -7 -123.862 227.555 4
-8 7 -5 819.846 306.489 1
-5 8 -7 349.572 225.912 1
-7 8 5 201.105 209.761 2
-5 -7 -8 1060.86 347.72 4
-7 -8 -5 766.714 276.792 4
7 8 -5 294.58 218.169 1
-8 -5 -7 158.713 210.521 4
7 -8 5 560.514 215.512 1
5 -7 8 78.8 177.855 2
-5 -8 7 414.784 226.396 2
-7 5 -8 319.064 203.296 2
8 -7 -5 394.74 212.601 1
-8 5 7 483.159 206.911 2
5 7 -8 146.371 159.362 1
8 -7 -5 586.991 243.46 2
-7 5 -8 489.811 244.304 1
-7 -8 -5 397.158 171.781 3
5 8 7 294.521 226.84 3
-7 8 7 4667.68 538.195 1
-8 7 -7 5017.44 558.831 1
-7 -8 -7 4515.55 528.36 3
7 7 8 4447.6 544.526 4
7 -8 7 5567.5 609.81 2
7 7 8 4637.69 543.842 3
7 7 -8 4511.04 440.13 1
7 -8 -7 5326.99 512.51 4
-7 8 7 5430.8 541.248 2
-7 7 8 3787.03 478.573 1
-8 7 -7 5616.19 597.553 2
-7 7 -8 5067.39 569.349 2
-7 8 -7 4603.13 529.366 1
7 8 7 4836.39 557.067 4
7 -7 8 4986.61 563.025 2
7 -8 -7 4886.6 517.081 1
8 7 7 4829.22 551.584 4
-8 -7 -7 5641.68 575.915 3
8 -7 -7 5523.22 536.038 1
-8 7 7 4994.7 538.21 1
-7 -7 -8 5823.94 637.102 4
7 -7 8 5057.57 499.352 1
7 -8 -7 5340.37 526.011 2
8 -7 7 4820.5 564.118 2
7 -7 -8 4684.42 495.569 1
-7 8 -7 4792.53 563.727 2
7 -7 -8 4972.75 487.078 2
8 -7 -7 4620.75 444.948 4
8 -7 -7 4937.88 503.791 2
7 8 7 4478.75 566.867 3
-7 7 -8 4499.32 508.783 1
-7 -7 -8 4898.31 564.104 3
8 -7 7 4902.05 512.658 1
7 8 7 3609.22 477.048 1
7 -7 -8 4426.84 479.154 4
-8 7 7 4972.41 513.954 2
-7 7 8 5070.7 519.359 2
7 8 -7 4789.34 484.857 1
-8 -7 -7 5053.06 586.517 4
8 7 7 4950.99 551.925 3
7 -8 7 5059.94 526.703 1
-7 -8 -7 4014.9 539.059 4
-8 8 0 27778.3 1457.2 1
8 -8 0 28771.9 1411.29 1
8 0 -8 27529.4 1230.43 1
0 8 -8 31090.3 1390.92 2
0 8 8 27831.2 1431.15 3
0 8 -8 28094.2 1256.14 1
0 -8 8 31710.4 1260.94 1
-8 8 0 27485.8 1450.63 2
-8 -8 0 28639.6 1231.7 3
0 -8 -8 28351 1454.36 4
8 0 8 27726.8 1301.34 1
-8 0 -8 26851 1335.52 2
8 -8 0 28670.3 1434.57 2
0 8 8 26870.4 1404.06 4
0 -8 -8 26011.8 1180.48 2
0 -8 -8 25843.5 1282.28 1
0 -8 8 30782.3 1376.1 2
-8 0 8 27981.9 1189.8 4
0 8 8 23220.8 1247.96 1
8 0 8 24707 1324.98 4
8 -8 -2 21303.2 1178.16 1
-8 8 -2 22281 1273.74 2
-8 -2 -8 20097.1 1186.87 3
2 -8 8 22449.6 1170.44 2
-2 -8 -8 20183.4 1234.63 4
8 -2 8 22233.8 1116.98 1
2 8 8 20967.1 1193.2 4
2 -8 8 23442.4 1078.35 1
-2 8 8 18780.9 1071.68 1
-2 8 -8 20309.4 1054.92 1
-8 8 2 21471.3 1222.38 2
2 -8 -8 21225.4 1196.22 4
-2 8 8 20539.9 1028.56 2
2 8 8 19063.2 1086.9 1
-8 -8 -2 21574 1088.41 3
8 -8 2 21192.9 1205.8 2
8 -8 -2 19877 1167.09 2
-8 8 -2 21011.6 1231.93 1
-2 -8 8 25706.3 1074.18 1
-2 -8 -8 20850.5 1194.21 3
-8 2 -8 21202 1155.26 2
-2 -8 -8 21060 1021.34 2
-8 2 8 21268.6 1057.38 1
-8 -8 2 22106 959.071 3
2 -8 -8 19437.7 990.892 2
-8 8 2 19284.2 1186.28 1
-8 2 8 21324.2 996.392 4
2 8 8 21576.7 1241.51 3
2 -8 -8 21970.1 1095.7 1
8 -8 2 21233.7 1180.79 1
8 -2 -8 22848.1 1094.4 1
-2 -8 8 22099 1135.64 2
8 2 8 20332.8 1155.55 4
-2 8 -8 23819.7 1194.54 2
2 8 -8 22193.4 1054.22 1
-2 -8 -8 22017.3 1129.63 1
8 -4 -8 -51.924 166.398 4
-8 8 4 -177.758 262.786 2
-4 -8 -8 -134.64 211.586 3
-4 8 -8 -78.2023 243.26 2
-8 -4 -8 -20.7671 201.625 4
-8 -8 4 -155.518 108.1 3
4 8 8 -4.81039 183.568 1
-8 4 8 -19.482 154.435 4
8 -4 8 -98.8157 206.702 2
-8 -8 -4 213.567 157.603 3
-8 -8 -4 350.635 225.991 4
8 -8 -4 -9.65451 181.774 1
4 -8 -8 41.6236 176.905 1
-4 8 8 195.961 169.276 2
8 -4 8 182.983 183.456 1
8 -8 4 116.483 187.954 2
4 8 8 -107.683 243.908 4
8 -8 4 -115.824 218.149 1
-8 8 4 339.089 216.03 1
-4 -8 8 -205.171 190.25 2
8 -8 -4 401.474 231.388 2
4 8 -8 177.013 182.915 1
-8 8 -4 185.263 226.069 2
-8 4 8 305.676 185.935 1
4 8 8 294.357 219.223 3
-4 8 8 77.7794 182.321 1
8 4 8 203.115 210.534 4
-8 8 -4 -111.554 205.908 1
-8 4 -8 163.176 197.075 1
-4 -8 -8 239.288 249.519 4
4 -8 -8 207.017 235.046 4
4 -8 8 67.0975 158.246 1
-8 -4 -8 -528.083 269.769 3
-8 4 -8 -122.7 214.11 2
-8 4 8 -6.53783 166.13 2
4 -8 -8 -124.942 159.348 2
-4 8 -8 169.15 173.594 1
4 -8 8 84.8613 201.038 2
8 -4 -8 73.978 165.023 1
-8 -6 -8 -37.6075 186.906 3
8 -8 -6 -14.9086 179.722 4
8 -6 8 51.7676 168.377 1
-6 8 -8 493.213 254.244 1
-6 -8 -8 -183.857 237.155 4
8 -8 6 161.203 181.555 1
-6 8 8 -338.167 191.486 2
6 8 8 617.345 288.114 4
6 -8 -8 149.641 187.127 2
6 8 -8 -64.8162 173.215 1
8 -6 -8 267.009 195.33 4
-8 6 -8 176.193 180.443 1
-8 6 8 -246.92 188.448 1
6 -8 8 110.011 183.508 2
-6 -8 -8 -203.005 197.993 3
-8 8 -6 172.629 235.99 1
-6 8 -8 -0.22561 195.025 2
-8 8 -6 92.6162 225.37 2
6 8 8 -163.392 217.976 3
-8 -6 -8 120.604 244.732 4
6 -8 -8 157.583 233.088 4
6 -8 -8 78.8833 183.134 1
8 -6 8 -88.0642 183.283 2
8 8 6 -15.6576 181.706 3
-8 -8 -6 -377.287 220.781 3
-6 8 8 56.0037 235.563 1
-8 -8 6 67.6446 64.3298 3
6 -8 8 219.33 207.951 1
8 6 8 -235.425 256.256 4
-8 -8 -6 139.789 268.979 4
8 -6 -8 -71.8741 172.371 1
-8 8 6 -28.2247 194.338 2
8 -8 6 257.34 216.952 2
-8 6 -8 -46.957 185.595 2
8 -8 -6 43.8147 181.555 1
8 -8 -6 427.772 237.3 2
-8 6 8 -110.385 179.578 2
-8 8 6 88.5795 193.721 1
8 -6 -8 43.0881 163.581 2
6 8 8 227.06 226.089 1
8 -8 8 28974.2 1421 1
-8 8 8 26628.6 1405.77 2
8 8 -8 26392.1 1311.74 1
8 -8 8 26294 1457.27 2
-8 8 -8 27036.4 1446.32 1
8 8 8 24973 1415.69 4
8 -8 -8 25743 1305.4 4
8 -8 -8 28104.4 1390.18 2
-8 8 8 24781.5 1398.69 1
8 -8 -8 27020.7 1398.98 1
-8 -8 -8 26359.6 1467.19 3
0 9 -1 43.4682 207.983 2
1 0 -9 183.044 154.349 3
-1 9 0 306.373 191.087 2
0 1 -9 345.836 91.5295 2
-1 -9 0 345.198 200.451 2
0 -1 9 -6.90197 134.909 3
1 0 9 112.422 170.93 3
0 9 -1 247.918 211.585 1
0 1 9 -136.729 206.687 4
-1 -9 0 38.27 194.866 1
-1 9 0 129.171 198.285 1
0 -9 -1 186.58 180.692 2
9 -1 0 269.9 194.177 1
1 9 0 245.427 223.182 2
0 -9 -1 234.178 228.763 1
0 -9 1 338.842 206.737 1
0 1 -9 458.451 186.681 3
1 9 0 165.697 218.64 1
1 -9 0 267.298 195.48 1
0 -1 9 -19.5774 79.0834 2
0 9 1 249.399 212.825 2
-9 -1 0 196.519 94.7311 4
1 -9 0 176.227 206.807 2
9 0 1 267.526 114.322 4
0 9 1 -114.657 232.925 1
-1 0 9 329.048 161.02 3
9 0 1 78.5566 176.769 1
0 1 9 128.343 146.07 3
9 0 -1 270.093 178.047 1
-1 0 -9 31.3166 159.651 3
0 -1 -9 312.722 192.617 3
0 -9 1 459.493 239.568 2
2 -1 9 4252.49 273.257 1
-1 -9 -2 4045.23 444.165 2
1 9 -2 4941.05 496.8 2
2 -9 -1 5871.17 515.08 1
-2 -9 1 4721.71 477.49 1
-2 -9 1 4808.39 503.23 2
-2 9 -1 5039.75 500.49 1
-2 -1 -9 5326.14 477.05 3
-2 9 -1 5197.36 503.107 2
2 1 -9 4608.72 391.72 3
2 -9 -1 5277.18 490.027 2
-9 2 1 4707.03 496.063 2
1 -9 2 4463.5 449.486 1
-9 2 1 3812.44 426.303 1
-2 -1 -9 3781.43 256.169 2
1 2 9 5044.56 462.35 3
1 9 -2 4393.83 462.146 1
-9 -2 -1 4801.92 334.526 4
-1 2 -9 5101.87 326.256 2
9 -1 -2 5058.22 467.499 1
-1 -2 9 5449.77 381.536 3
9 1 2 4839.64 344.999 4
9 -2 1 5405.03 494.426 1
-1 -9 -2 5116.09 476.856 1
1 -2 -9 4745.01 468.759 3
-1 2 -9 4825.34 412.961 3
-2 1 9 4521.74 482.449 4
1 -2 -9 4351.11 273.249 1
-1 -2 9 4650.98 306.519 2
-1 9 2 4823.02 484.262 1
-1 9 2 4859.22 482.922 2
-2 1 9 5136.25 441.791 3
1 2 9 4612.33 297.908 1
1 2 9 4450.59 503.146 4
2 9 1 4102.61 462.077 1
1 -9 2 4255.94 464.965 2
2 9 1 4773.33 432.046 3
2 -1 9 4702.67 311.575 2
-1 2 9 4781.76 439.205 3
1 -9 -2 4381.08 444.103 2
2 -9 1 4537.01 467.884 1
-9 2 -1 5492.96 502.812 1
9 2 1 5076.78 335.753 4
1 9 2 4720.85 482.127 1
-2 -1 9 4687.15 275.728 2
-1 9 -2 5103.22 502.045 1
2 1 9 4618.97 493.543 4
2 1 9 5157.32 464.856 3
2 9 -1 4092.64 451.45 1
-1 -9 2 5394.71 517.186 2
-2 9 1 4365.29 482.279 1
9 -1 2 4610.08 469.778 1
-2 -9 -1 4405.88 468.466 2
-9 2 -1 4780.63 505.426 2
9 -2 -1 5190.04 494.29 1
-2 -9 -1 5026.99 491.43 1
1 2 -9 5287.58 397.719 3
-2 -1 9 5077.9 384.276 3
-2 1 -9 4902.19 446.183 3
-1 -2 -9 5139.98 480.92 3
1 -9 -2 5172.56 499.742 1
-9 -2 1 4270.31 271.531 4
1 -2 9 4088.73 313.962 2
-2 1 -9 4367.56 313.144 2
-2 9 1 4232.33 470.383 2
-1 -9 2 4700 452.985 1
1 9 2 4415.13 467.314 2
-1 2 9 3933.39 265.335 1
2 -9 1 4959.24 476.336 2
-1 2 9 4519.4 501.978 4
-1 9 -2 5892.35 547.203 2
-2 9 3 2765.42 374.173 2
-2 -9 -3 3285.79 419.868 1
-3 2 9 2992.36 398.762 4
-3 2 9 3005.74 354.584 3
3 -2 9 3025.9 294.866 2
2 3 9 2514.19 259.39 1
3 9 2 3205.26 362.435 3
3 -9 -2 2669.69 369.665 2
-9 -3 -2 2865.4 305.185 4
-2 9 3 2580.98 392.359 1
-9 2 -3 2857.29 377.141 1
-3 -9 2 2663.25 380.874 2
-2 3 -9 2828.1 240.545 1
2 -9 3 2967.62 389.603 2
3 -2 9 2895.64 256.967 1
-2 3 -9 2923.55 290.479 2
-9 3 2 3346.91 411.705 2
-9 2 -3 3314.03 423.275 2
2 -3 -9 2993.68 255.569 1
-3 -2 -9 2685.25 384.887 3
9 -2 -3 3098.57 377.714 1
-2 -9 -3 2743.74 367.608 2
2 -9 3 3454.57 404.805 1
3 -9 -2 3295.3 396.796 1
-9 3 2 2835.13 384.22 1
-2 3 -9 2784.9 325.852 3
9 2 3 3043.47 310.616 4
-3 -9 2 3401.85 409.793 1
-3 9 -2 2759.68 392.182 1
-2 -3 9 3273.47 284.688 2
-3 2 9 2681.94 235.885 1
2 9 -3 2847.27 384.718 1
3 9 2 2015.55 325.467 1
-3 9 -2 2926.33 406.607 2
-2 -3 9 3083.53 262.7 3
2 9 -3 3436.4 437.07 2
9 -3 2 3034.76 388.042 1
2 -3 -9 2868.57 398.004 4
2 3 9 3022.06 373.891 3
2 3 9 2450.3 407.573 4
0 -3 9 5592.83 394.143 2
9 0 3 5634.19 411.491 4
-3 -9 0 6520.85 554.71 1
0 9 3 6225.9 543.363 2
0 9 -3 6378.47 571.296 2
0 3 -9 6431.46 441.957 3
0 9 -3 5862.78 529.633 1
3 9 0 6678.09 467.285 3
-9 3 0 6186.16 564.898 2
-9 3 0 5791.78 526.997 1
0 -9 3 5551.41 519.732 2
-3 -9 0 6221.99 552.588 2
0 -9 -3 5308.14 480.306 2
9 -3 0 6728.28 566.155 1
0 3 9 5906.41 565.978 4
-3 9 0 5980.41 557.338 1
0 -9 3 6949.82 549.786 1
0 -3 -9 5461.26 557.028 4
3 -9 0 5861.1 525.179 1
-3 0 -9 5264.97 363.955 2
9 0 3 6081.71 536.499 1
-3 0 -9 6098.41 527.874 3
3 9 0 6013.32 552.847 1
-3 0 9 6095.28 450.097 3
0 3 9 4835.1 340.848 1
0 3 9 5078.88 481.367 3
-3 9 0 6053.13 549.207 2
3 -9 0 6237.78 544.274 2
9 0 -3 5941.65 505.764 1
-9 -3 0 5754.5 370.152 4
0 -3 -9 5696.45 359.196 1
0 -9 -3 6031.45 537.176 1
0 3 -9 6334.66 394.26 2
0 -3 -9 5470.58 519.002 3
0 9 3 5340.11 525.657 1
-2 3 9 3067.06 414.015 4
-9 2 3 3445.07 389.598 1
-3 -2 9 3344.47 285.107 3
-2 3 9 2738.44 250.925 1
9 -3 -2 3556.49 416.556 1
-3 -9 -2 3055.91 396.718 2
2 9 3 2662.28 391.471 1
3 -9 2 3272.08 394.437 1
-2 -3 -9 2956.7 402.1 3
3 9 -2 3192.64 289.892 3
-3 9 2 2852.41 413.065 2
-2 -9 3 3200.25 404.85 2
-2 -3 -9 2481.79 411.828 4
3 2 9 3639.49 419.6 3
3 9 -2 3120.72 401.631 1
-3 -9 -2 3188.46 411.63 1
2 -3 9 2570.73 290.612 2
9 3 2 2782.96 291.24 4
9 -2 3 3450.23 401.554 1
2 -9 -3 3114.86 393.939 1
-9 3 -2 2775.83 386.151 1
3 -9 2 2926.81 396.005 2
-3 2 -9 2729.29 351.241 3
3 2 9 2729.59 416.597 4
-3 2 -9 2760.06 289.324 2
-9 3 -2 3191.07 436.145 2
2 3 -9 3051.72 275.277 3
2 -3 9 3010.89 248.409 1
-9 -2 -3 3130.1 326.107 4
3 -2 -9 2834.67 242.695 1
-3 9 2 2910.09 386.557 1
2 -9 -3 2823.04 362.181 2
2 9 3 2894.62 377.388 3
-2 9 -3 2953.74 399.449 1
-2 9 -3 3563.17 427.349 2
-2 -9 3 3008.25 386.731 1
-2 3 9 2860.71 369.546 3
4 -9 -3 358.544 190.619 1
4 -3 9 627.526 158.005 1
-4 9 -3 885.724 286.825 2
3 9 -4 537.301 118.546 3
4 9 3 446.65 184.151 3
9 3 4 407.731 188.36 4
-3 4 -9 362.618 148.772 1
-4 -9 3 512.144 210.615 2
-9 4 3 878.557 250.382 1
-3 -9 -4 512.018 229.857 1
4 9 3 622.36 243.979 1
3 9 -4 783.687 238.516 1
3 4 9 319.286 152.123 1
-3 9 4 799.483 251.618 1
-4 3 9 539.826 161.474 1
-9 3 -4 583.578 238.504 1
4 -3 9 597.227 181.437 2
3 -4 -9 453.313 159.805 1
-4 3 9 515.607 141.676 2
-9 3 -4 15.4423 184.6 2
3 -9 4 346.482 189.699 2
-3 4 -9 488.101 190.582 2
3 -9 4 84.343 192.075 1
-3 -9 -4 777.068 226.703 2
9 -4 3 693.257 258.767 1
4 -9 -3 596.863 227.707 2
-4 -3 -9 121.085 179.706 3
-4 3 9 538.138 216.597 4
3 4 9 631.935 237.085 3
9 -4 3 653.854 252.022 2
3 -4 -9 614.384 259.691 4
9 -3 -4 463.888 111.856 4
-3 -4 9 612.636 120.367 3
-9 -4 -3 304.221 177.929 4
3 4 9 513.923 280.111 4
-3 -4 9 491.895 163.542 2
-4 -9 3 405.035 178.12 1
-4 -3 -9 632.612 276.853 4
-4 9 -3 372.628 227.115 1
-3 9 4 683.485 241.015 2
-3 -9 -4 844.499 222.182 3
-9 4 3 522.17 192.729 2
3 -4 -9 369.114 108.592 2
9 -3 -4 177.287 173.16 1
-4 -9 1 4754.24 478.41 1
9 1 4 4076.15 381.077 4
4 -9 -1 4369.91 462.044 1
-4 9 -1 4827.64 496.425 2
-4 1 9 4332.6 297.976 1
-4 -1 -9 3851.54 321.633 2
-1 -4 9 4212.43 354.753 2
-4 1 9 4194.79 442.75 4
-4 9 -1 3865.19 456.516 1
-1 4 -9 3790.27 342.22 3
4 9 1 4533.88 480.353 1
-4 -1 -9 4083.49 465.977 3
-1 -9 -4 4295.75 471.042 1
-1 -4 9 4600.72 268.244 1
1 -4 -9 3720.25 454.363 4
1 -9 4 3760.32 447.266 2
-9 -4 -1 3607.87 336.177 4
-9 4 1 4802.96 497.428 2
1 9 -4 4554.26 464.778 1
-1 9 4 3505.2 432.506 1
1 4 9 3642.61 317.55 1
-9 4 1 4006.63 447.38 1
4 1 -9 3849.13 261.778 1
1 -4 -9 3258.89 228.626 2
1 9 -4 4391.46 489.377 2
9 -4 1 3845.03 444.195 1
1 4 9 4301.03 455.533 3
-1 4 -9 3970.94 292.507 1
1 4 9 4021.3 493.794 4
1 -9 4 4577.63 441.828 1
9 -1 -4 4386.87 436.049 1
-4 -9 1 4087.37 471.185 2
-1 4 -9 4124.85 368.688 2
4 9 1 3851.7 371.843 3
-1 -9 -4 3520.87 406.238 2
4 -9 -1 3973.89 443.814 2
9 -4 1 4096.27 473.175 2
-1 9 4 3244.17 397.601 2
4 -1 9 4351.67 330.5 1
1 -4 -9 4269.36 337.833 1
1 -9 -4 3873.01 413.901 2
1 4 -9 3916.68 264.766 1
-1 9 -4 4542.12 482.991 2
4 -9 1 4608.23 477.658 2
-1 -4 -9 3467.67 246.994 2
1 -9 -4 4088.13 441.024 1
-4 9 1 4762.84 501.645 2
4 -1 -9 4327.94 300.362 1
4 1 9 3820.23 463.527 4
1 -4 9 4539.37 297.309 1
-1 9 -4 3938.94 440.71 1
1 9 4 4387.64 449.579 2
-1 -4 -9 3894.71 456.53 3
-1 -9 4 4207.19 449.577 2
1 -4 9 4093.34 373.402 2
4 9 -1 4216.26 355.159 3
-4 -9 -1 4288.17 482.281 1
-1 4 9 3503.59 451.798 4
-4 1 -9 4335.67 448.738 3
9 -1 4 4308.28 468.876 1
4 -9 1 4240.94 455.106 1
1 9 4 3363.86 430.947 1
4 9 -1 3858.17 452.468 1
-4 9 1 4299.27 477.489 1
1 4 -9 4560.95 333.138 3
-1 4 9 3933.09 439.71 3
-4 -1 9 4236.03 351.391 3
-1 -9 4 4534.89 446.413 1
-1 4 9 3514.73 315.767 1
1 9 4 4728.21 495.744 3
-4 1 -9 3665.08 342.267 2
1 4 -9 4495.68 357.944 2
-1 -4 -9 3873.75 488.214 4
-4 -9 -1 3669.48 366.675 3
-9 4 -1 4038.53 455.447 1
9 -4 -1 4328.62 455.406 1
-9 4 -1 4380.32 504.773 2
4 9 -3 432.359 128.838 3
-3 -9 4 807.097 227.215 1
-4 3 -9 122.333 143.77 2
4 -3 -9 600.648 229.298 4
-4 9 3 928.281 283.752 1
-9 3 4 356.956 214.237 2
-3 -9 4 559.781 218.555 2
4 9 -3 807.49 247.689 1
-9 3 4 397.052 176.081 1
-9 4 -3 386.89 220.46 2
3 9 4 833.779 261.611 1
9 -4 -3 660.979 214.893 1
-3 4 9 581.478 167.724 1
-3 4 9 413.651 224.328 4
4 3 9 -2.70302 219.148 4
9 -3 4 377.307 197.179 1
-3 4 9 485.246 133.351 2
4 -9 3 805.879 276.163 1
-4 9 3 103.63 221.951 2
3 -9 -4 583.819 207.484 2
3 -4 9 469.77 196.989 2
-9 -3 -4 716.099 225.731 4
-9 4 -3 462.726 200.474 1
4 -9 3 507.834 193.18 2
-4 -9 -3 143.032 188.43 1
3 9 4 319.717 191.982 3
3 -9 -4 308.426 189.142 1
3 -4 9 650.448 151.146 1
-3 -4 -9 304.878 216.467 4
-4 3 -9 383.49 148.854 1
9 4 3 192.938 172.317 4
-4 -9 -3 423.822 171.484 3
4 3 9 747.055 260.659 3
-3 -4 -9 508.391 222.892 3
4 -3 -9 435.513 147.569 1
3 4 -9 584.53 133.669 1
-3 9 -4 518.026 197.542 2
-4 -3 9 594.018 126.97 3
-3 9 -4 570.846 249.098 1
4 -5 -9 400.341 238.727 4
-4 -9 -5 189.285 198.078 1
-5 4 9 109.981 195.166 4
4 -5 -9 -33.2712 135.447 1
-5 4 9 5.45374 120.773 2
-4 9 5 140.838 191.167 1
5 -4 9 38.4778 144.869 1
4 -9 5 312.646 228.58 2
4 5 9 78.6495 149.704 1
-5 9 -4 133.634 233.009 2
-5 4 9 245.915 157.559 1
9 -4 -5 44.9266 118.329 4
-5 -4 -9 74.512 209.809 4
-9 4 -5 220.136 200.372 1
-9 5 4 538.281 249.849 2
-5 -4 -9 17.8575 190.888 3
9 -5 4 289.228 212.033 1
5 -4 9 309.206 185.108 2
-4 -5 9 176.5 146.488 2
4 5 9 18.2517 218.804 4
-9 -5 -4 293.638 193.762 3
-4 5 -9 167.676 158.137 2
9 -4 -5 307.875 213.963 1
5 -9 -4 472.076 231.439 1
5 -9 -4 149.599 186.595 2
5 9 4 -108.515 224.315 1
-4 -9 -5 311.955 242.229 4
-4 5 -9 278.313 164.608 1
9 -5 4 148.766 189.01 2
5 9 4 -36.1174 180.247 3
4 -5 -9 394.882 140.405 2
-4 9 5 502.107 197.05 2
-9 5 4 467.842 236.967 1
-4 -9 -5 -51.7655 170.766 3
-9 4 -5 9.53293 201.742 2
9 4 5 107.016 172.891 4
-4 -5 9 211.685 70.8251 3
4 -9 5 4.76236 151.84 1
4 9 -5 168.234 76.2997 3
-9 -5 -4 178.348 203.863 4
4 9 -5 237.198 196.736 1
-5 9 -4 35.1629 202.112 1
4 5 9 355.38 222.22 3
-2 -9 -5 795.708 233.069 2
-9 -5 -2 921.199 229.925 4
2 9 -5 390.866 216.734 1
5 -2 9 931.942 209.886 2
2 9 -5 843.787 262.588 2
-5 9 -2 1132.8 294.509 2
2 -5 -9 1182.53 338.211 4
-2 9 5 859.056 254.99 1
5 -9 -2 1017.24 269.088 2
2 -5 -9 754.2 145.178 2
-5 2 9 973.963 187.567 1
-2 -5 9 927.837 209.217 2
-2 9 5 811.804 240.848 2
5 9 2 158.811 205.098 1
2 -9 5 851.118 254.165 2
2 -5 -9 596.048 175.481 1
-2 5 -9 904.322 230.471 2
-9 2 -5 1020.6 273.498 2
5 -9 -2 585.225 219.374 1
-5 -2 -9 508.84 205.412 3
5 -2 9 890.953 186.909 1
2 5 9 905.111 214.356 1
9 -2 -5 1148.67 262.174 1
-2 5 -9 841.178 186.033 1
9 -5 2 986.328 259.463 1
-5 2 9 1028.54 173.857 2
9 -5 2 442.086 212.263 2
2 5 9 627.163 283.619 4
-5 9 -2 1094.17 272.836 1
-9 5 2 1089.67 292.67 2
2 5 9 637.872 233.603 3
-5 -9 2 725.818 155.587 3
-2 -9 -5 1006.69 276.236 1
-2 -9 -5 487.071 234.049 4
9 2 5 925.955 231.751 4
5 9 2 648.191 193.496 3
-5 2 9 546.977 210.703 4
-9 5 2 701.563 254.735 1
2 -9 5 908.517 222.225 1
-5 -9 0 1657.96 240.375 3
5 -9 0 2148.27 354.552 1
0 5 9 2084.36 344.162 3
-5 9 0 2042.72 377.591 1
0 5 -9 1371.37 197.27 1
0 -9 5 1508.93 305.803 2
0 -5 -9 1445.25 365.283 4
0 -5 -9 1453.81 242.481 1
0 9 5 1916.58 337.896 3
0 5 -9 1697.15 214.796 3
5 9 0 1832.21 355.824 1
0 9 5 1672.41 309.809 1
0 5 -9 1983.37 274.279 2
0 -9 -5 1908.83 329.597 1
0 9 -5 1468.12 311.505 2
-5 9 0 1936.51 353.424 2
0 -5 -9 1405.43 168.861 2
5 -9 0 1463.25 303.703 2
9 0 -5 1703.21 301.179 1
-9 0 5 1547.11 164.323 4
0 -5 9 1695.02 190.534 1
0 -5 9 1625.69 261.709 2
0 -9 5 2152.1 308.348 1
9 0 5 2258.9 343.328 1
9 0 5 1451.59 260.924 4
5 0 -9 1948.43 219.77 1
0 5 9 1887.58 343.914 4
9 -5 0 1651.35 318.471 1
9 -5 0 1548.3 312.41 2
-5 0 -9 1516.31 296.67 3
0 -9 -5 1714.58 298.272 2
0 9 5 1744.17 304.689 2
-5 0 -9 1491.68 243.039 2
-9 5 0 1951.28 363.403 2
5 9 0 1595.42 249.483 3
0 9 -5 1445.26 294.038 1
0 5 9 1256.28 226.233 1
-9 5 0 1548.48 301.631 1
0 -5 -9 1496.57 289.974 3
2 5 -9 913.213 143.137 3
-2 5 9 835.511 203.411 1
2 9 5 668.55 254.991 3
9 -2 5 752.826 241.422 1
2 -9 -5 1142.94 251.966 2
2 -5 9 855.027 218.725 2
-5 2 -9 579.318 201.424 2
9 -5 -2 1173.25 282.877 1
5 -2 -9 960.766 191.857 1
5 2 9 575.346 264.881 4
5 9 -2 776.777 159.164 3
2 9 5 773.899 251.392 1
-2 5 9 628.427 242.589 3
2 -9 -5 687.417 222.513 1
-2 9 -5 952.066 283.606 2
-5 9 2 939.324 273.925 1
5 -9 2 1247.42 272.368 1
-9 5 -2 1068.11 292.631 2
-5 9 2 745.307 261.31 2
2 5 -9 912.122 160.625 1
-9 5 -2 629.183 255.302 1
-2 -5 -9 968.362 258.43 3
-2 9 -5 761.652 232.953 1
5 -9 2 905.228 256.332 2
-2 5 9 662.467 245.669 4
-2 -9 5 814.22 246.242 1
-2 -9 5 567.329 231.476 2
-9 2 5 1362.68 275.268 1
-2 -5 -9 348.751 274.697 4
9 -5 -2 712.251 248.506 2
-5 -9 -2 1051.72 227.379 3
-2 5 9 876.47 156.341 2
5 9 -2 1216.36 294.03 1
2 -5 9 961.508 180.362 1
-5 -9 -4 159.415 208.514 3
-4 -9 5 265.961 220.429 2
9 -5 -4 273.239 207.606 2
9 -4 5 93.4551 178.378 2
5 9 -4 167.591 87.6437 3
-4 5 9 365.451 209.454 4
-9 4 5 -144.643 217.603 1
9 -5 -4 87.786 170.492 1
9 -4 5 -76.9291 195.803 1
-5 -9 -4 55.1106 231.861 4
-5 9 4 -123.71 220.986 1
-4 9 -5 -118.773 187.152 1
-9 4 5 189.152 170.147 2
4 -5 9 381.399 167.448 1
4 -5 9 163.754 169.294 2
-9 5 -4 654.282 242.284 1
-5 9 4 283.121 200.754 2
9 -5 -4 267.927 140.043 4
-5 4 -9 338.403 189.549 2
-4 -9 5 117.99 168.575 1
5 9 -4 25.7337 184.842 1
4 -9 -5 194.101 175.007 2
9 5 4 506.834 203.706 4
-4 5 9 -4.41567 164.278 1
5 -4 -9 107.585 182.88 4
-4 -5 -9 285.232 232.245 3
4 9 5 306.581 200.795 1
-9 5 -4 -73.9638 214.359 2
-4 5 9 299.175 152.227 2
5 -4 -9 308.365 171.909 1
4 5 -9 215.735 131.996 1
4 -9 -5 120.291 204.499 1
5 4 9 -45.1077 212.576 4
5 4 9 -263.112 189.575 3
-4 -5 -9 -143.817 236.882 4
4 9 5 210.068 184.192 3
-5 -4 9 -10.2647 88.4795 3
5 -9 4 -66.5077 181.209 2
5 -9 4 519.947 262.165 1
-9 -4 -5 230.541 194.623 4
-4 9 -5 109.075 227.27 2
-5 4 -9 263.957 154.035 1
-6 -5 -9 1631.97 403.652 4
5 6 9 2119.66 382.097 4
9 -6 5 2292.89 358.084 1
-6 9 -5 2062.98 376.578 2
-6 5 9 1883.07 324.409 4
5 6 9 2251.45 386.011 3
5 9 -6 2347.1 367.877 1
-5 -9 -6 1998.53 346.817 3
9 -6 5 1688.71 339.493 2
6 -9 -5 2146.97 355.208 1
5 -9 6 1465.85 329.478 2
9 -5 -6 2589.85 287.585 4
-5 9 6 2063.53 357.988 1
5 -6 -9 2034.24 349.886 4
9 -5 -6 1588.18 306.699 1
6 9 5 2078.06 381.951 1
-6 5 9 1676.79 252.576 2
-5 6 -9 1428.97 288.674 1
-5 9 6 2335.71 389.226 2
5 -6 -9 2077.24 311.029 1
-9 -6 -5 1631.94 320.168 3
-6 5 9 1849.67 299.195 1
-5 6 -9 2416.14 382.689 2
5 6 9 1749.1 313.36 1
-9 6 5 2192.79 363.619 1
9 5 6 2519.57 372.212 4
6 -9 -5 2374.31 367.12 2
5 -6 -9 2289.24 295.173 2
-9 5 -6 2267.67 390.669 1
-9 5 -6 1766.98 356.741 2
5 -9 6 1995.01 317.27 1
-9 -6 -5 2332.22 374.698 4
-9 6 5 1986.01 357.179 2
-6 9 -5 2128.91 401.986 1
6 -5 9 2092.04 305.498 1
6 -5 9 2254.25 358.772 2
6 9 5 2402.68 381.332 3
-5 -9 -6 1441.3 320.28 4
-6 -5 -9 2519.24 416.963 3
-6 -3 -9 4522.07 537.772 4
9 -3 -6 4382.4 345.06 4
-9 3 -6 5167.43 539.988 2
3 -9 6 4933.16 482.85 1
-3 9 6 4171.12 470.215 2
-3 -9 -6 4237.58 476.781 3
-3 9 6 4400.25 505.34 1
-6 3 9 4842.98 420.676 1
-9 6 3 4755.32 531.526 1
3 -9 6 4623.83 504.347 2
3 6 9 4403.17 425.252 1
-6 -9 3 4658.93 322.475 3
9 -6 3 4884.5 494.015 1
-6 9 -3 4358.55 519.179 1
3 -6 -9 4944.58 384.932 2
6 -9 -3 5080.84 513.413 2
-6 3 9 5144.06 407.061 2
3 -6 -9 4805.39 425.523 1
-3 6 -9 4701.27 416.824 1
3 9 -6 5180.76 491.682 1
-3 -9 -6 5565.32 538.887 1
6 9 3 3882.45 442.124 3
-6 9 -3 5242.41 559.735 2
9 -6 3 5070.63 543.948 2
3 6 9 4520.04 509.959 3
-3 -6 9 4799.59 434.147 2
-6 3 9 5293.72 484.732 4
-3 -9 -6 4383.24 446.747 2
3 -6 -9 4071.86 509.206 4
3 6 9 5185.52 569.982 4
6 -9 -3 4523.75 495.633 1
-3 -9 -6 4658.25 549.343 4
-6 -3 -9 5075.84 542.922 3
-9 6 3 4620.85 516.518 2
-3 6 -9 4435.67 462.924 2
6 -3 9 4647.49 426.627 1
-9 -6 -3 5069.77 484.958 4
9 3 6 4022.71 452.301 4
-9 3 -6 4490.53 494.873 1
6 9 3 4559.04 513.572 1
6 -3 9 4928.69 455.588 2
9 -3 -6 5447.17 505.728 1
-9 -6 -3 4132.5 455.569 3
1 -9 6 3385.67 389.811 1
1 6 9 2689.58 329.611 1
-1 6 -9 3846.06 401.722 2
-1 6 -9 3267.54 322.651 1
-1 -9 -6 3785.41 396.584 2
-6 -1 -9 3144.38 420.474 3
9 1 6 3724.39 435.725 4
1 -6 -9 4031.2 503.317 4
-1 9 6 3073.34 397.807 1
1 -9 6 3640.24 442.876 2
1 6 9 3899.42 456.415 3
-1 9 6 3164.39 382.047 2
1 6 9 3593.64 467.904 4
-9 6 1 3971.52 484.721 1
-9 1 -6 3741.07 480.979 2
9 -6 1 3912.16 439.573 1
1 -6 -9 3071.41 341.228 1
-1 -6 9 3381.12 366.349 2
-1 -6 9 4335.11 330.687 1
-1 -9 -6 3207.04 458.461 4
6 -9 -1 3605.07 439.62 1
1 9 -6 3173.06 389.45 1
1 9 -6 4334.77 481.476 2
-6 9 -1 3519.51 468.195 1
9 -6 1 3687.64 450.041 2
-9 -6 -1 3373.38 378.648 4
-6 1 9 4232.7 349.465 1
-6 9 -1 3934.38 482.361 2
-9 6 1 3215.38 441.904 2
-6 1 9 3543.86 394.775 4
6 -1 9 3817.65 367.99 1
6 -9 -1 3443.41 442.053 2
9 -1 -6 3880.11 409.113 1
6 1 -9 3923.37 327.746 1
6 9 1 3293.51 365.337 3
-1 -9 -6 3284.24 434.207 1
-6 -9 1 3626.1 329.182 3
6 9 1 3792.39 458.273 1
1 -6 -9 3304.94 293.571 2
-6 9 1 3760.91 491.35 2
-1 -6 -9 3300.39 433.344 3
1 6 -9 4103.9 404.579 2
-1 -6 -9 3181.66 289.046 2
9 -6 -1 4315.53 477.886 2
6 -9 1 3451.37 433.829 1
-1 9 -6 4469.05 485.977 2
1 6 -9 3818.93 327.271 1
1 -6 9 4320.44 339.165 1
-1 -6 -9 3461.97 510.333 4
1 -6 9 3793.47 407.31 2
6 -1 -9 3862.23 346.949 1
-1 6 9 3567.38 446.808 3
-1 -9 6 3817.54 436.668 2
1 6 -9 3897.67 286.517 3
9 -6 -1 3064.04 413.844 1
-1 6 9 3554.27 308.247 2
1 9 6 3792.24 462.102 3
6 -9 1 4248.2 477.622 2
1 -9 -6 3227.07 409.025 1
-6 1 -9 3051.13 361.236 2
9 1 -6 4091.63 427.188 1
-1 6 9 3493.91 356.725 1
-1 6 9 3201.7 426.094 4
-6 9 1 3333.93 460.096 1
-9 1 6 3921.55 291.981 4
-6 -9 -1 3686.48 371.016 3
-1 9 -6 3273.32 394.478 1
6 1 9 3826.25 468.391 4
-9 6 -1 4208.01 496.05 2
1 -9 -6 2603.56 413.748 4
-1 -9 6 4374.51 427.287 1
6 9 -1 3418.54 334.074 3
-9 6 -1 3529.15 469.779 1
1 9 6 2683.17 381.186 1
9 -1 6 3742.5 433.121 1
-1 -6 -9 3705.04 381.413 1
1 -9 -6 3395.33 374.777 2
6 9 -1 3619.54 457.026 1
-3 -6 -9 4252.38 497.3 3
3 6 -9 4523.14 360.617 1
-6 -9 -3 4663.19 463.573 3
-9 -3 -6 3653.07 474.008 4
-6 3 -9 4567.33 416.446 1
-3 -6 -9 4136.57 538.453 4
3 -9 -6 4377.92 441.299 2
3 -9 -6 4222.66 478.79 1
-6 3 -9 4439 461.683 2
3 -6 9 4617.56 474.632 2
-6 9 3 4848.96 525.967 2
6 3 9 4406.17 522.631 4
-3 9 -6 4351.64 493.509 2
6 -9 3 4566.99 521.207 2
-9 6 -3 4482.84 537.59 2
9 -3 6 4904.52 495.199 1
-3 9 -6 4772.03 487.941 1
-3 6 9 4323.22 426.586 1
6 -9 3 5019.63 529.261 1
-9 3 6 5169.16 497.004 2
6 -3 -9 4221.12 453.221 4
9 -6 -3 5274.42 526.807 1
-3 -9 6 5613.61 496.967 1
3 9 6 4650.15 492.03 1
3 -6 9 5165.92 420.282 1
9 -6 -3 4529 502.874 2
-9 3 6 4700.2 482.406 1
-9 6 -3 4993.01 535.141 1
3 -9 -6 3942.74 469.569 4
6 -3 -9 4961.26 416.331 1
-3 6 9 4310.89 362.778 2
3 9 6 4116.04 487.425 3
6 9 -3 4575.46 480.593 1
-6 9 3 4426.26 512.654 1
3 6 -9 3445.3 237.953 3
-3 6 9 4462 486.097 4
-3 -9 6 4851.68 507.544 2
-5 -6 -9 1458.94 337.051 3
-6 5 -9 1880.79 338.876 2
-5 9 -6 1960.03 375.382 1
6 5 9 2031.57 389.485 3
6 -5 -9 1894.92 338.374 4
5 -6 9 2181.55 311.159 1
-9 6 -5 2358.31 398.616 1
-6 5 -9 2235.88 331.626 1
9 -6 -5 2411.85 370.835 1
-9 5 6 2392.8 355.591 1
-5 6 9 2095.43 344.338 4
-6 9 5 2211.59 378.878 2
-5 6 9 1941.08 295.964 2
9 -6 -5 2108.04 282.507 4
-9 -5 -6 2057.03 365.063 3
-9 -5 -6 1708.26 334.736 4
5 -6 9 1670.43 327.631 2
6 -9 5 2319.04 353.498 1
5 9 6 2098.59 370.488 3
6 -5 -9 1813.31 274.392 2
9 6 5 1528.47 332.269 4
6 -9 5 2017.72 379.867 2
9 -6 -5 2272.37 365.302 2
-6 -9 -5 1842.68 342.805 3
6 5 9 1710.83 359.179 4
-9 6 -5 2160.87 393.818 2
-5 -6 -9 1661.63 391.454 4
9 -5 6 2576.94 391.113 1
-6 -9 -5 1457.24 346.416 4
-6 9 5 1277.55 331.9 1
6 9 -5 1984.07 327.156 1
-9 5 6 2174.8 364.505 2
-6 -5 9 1897.6 172.84 3
5 -9 -6 1939.31 321.604 2
9 -5 6 2149.44 373.042 2
6 -5 -9 2122.77 308.219 1
-5 -9 6 1793.76 325.287 2
5 9 6 2341.81 369.496 1
-5 9 -6 2023.08 338.982 2
5 -9 -6 1154.9 281.348 4
5 6 -9 1937.88 255.257 1
5 -9 -6 2335.46 367.935 1
-5 6 9 2291.03 323.132 1
6 7 9 185.274 214.248 1
-7 -6 -9 -7.03351 223.258 4
7 -9 -6 385.398 211.756 1
7 -9 -6 394.092 197.168 4
6 -9 7 230.374 221.178 2
6 -9 7 581.064 256.131 1
-9 7 6 255.373 221.248 2
6 -7 -9 466.779 191.342 2
-7 9 -6 425.385 257.185 2
-9 -7 -6 66.7287 180.876 3
6 -7 -9 44.6483 213.893 4
-9 -7 -6 44.1485 231.256 4
9 -7 6 275.561 200.236 2
-9 6 -7 -151.56 225.94 1
9 -6 -7 491.023 236.599 1
-9 7 6 493.131 253.191 1
-6 -9 -7 697.869 258.245 3
-6 9 7 471.038 240.838 2
-6 7 -9 119.52 200.885 2
-7 6 9 290.519 193.596 2
-6 -9 -7 48.6705 272.283 4
9 -6 -7 368.731 191.396 2
7 9 6 403.124 253.353 1
7 -6 9 155.883 204.304 2
7 9 6 518.086 238.928 3
6 7 9 464.388 293.222 4
9 -6 -7 -60.044 172.303 4
-6 7 -9 475.488 240.802 1
6 9 -7 422.103 239.68 1
-7 -6 -9 75.9972 193.039 3
7 -9 -6 402.323 228.608 2
-7 6 9 184.649 207.731 4
7 -6 9 752.341 243.872 1
-7 6 9 344.335 202.078 1
9 -7 6 277.114 214.852 1
-9 6 -7 247.373 227.681 2
-7 9 -6 414.458 257.299 1
6 -7 -9 416.116 225.818 1
-6 9 7 508.509 228.16 1
9 6 7 96.2994 212.119 4
4 7 9 874.314 309.083 4
4 7 9 1120.04 290.44 3
4 9 -7 762.109 222.55 1
-7 -4 -9 1059.29 299.358 3
-4 9 7 1194.09 296.12 2
-7 -4 -9 857.551 297.436 4
9 -7 4 830.625 264.074 2
-4 -9 -7 738.773 256.756 3
-4 -7 9 970.817 238.136 2
7 -4 9 873.716 238.878 1
-7 -9 4 981.592 144.375 3
-7 4 9 680.711 208.608 1
4 -7 -9 841.57 281.768 4
-4 7 -9 1020.27 288.889 2
-7 9 -4 794.404 282.034 1
-9 4 -7 1205.98 314.695 2
4 -9 7 1096.5 311.537 2
4 7 9 910.943 254.753 1
-7 4 9 776.657 212.836 4
-9 7 4 898.714 282.423 1
-9 7 4 685.219 257.682 2
7 -9 -4 746.278 250.674 1
9 -4 -7 747.523 190.828 4
7 -9 -4 1095.15 295.71 2
-9 -7 -4 625.576 255.554 4
-4 -9 -7 1016.2 341.002 4
-9 4 -7 566.246 226.152 1
9 -7 4 664.26 267.353 1
4 -7 -9 893.834 208.895 2
-9 -7 -4 640.556 247.082 3
9 -4 -7 1248.05 251.935 1
7 9 4 692.531 256.209 3
-7 9 -4 740.306 275.266 2
4 -9 7 1055.06 253.52 1
9 4 7 1022.33 277.911 4
-4 7 -9 960.563 254.885 1
4 -7 -9 1305.39 259.182 1
7 -4 9 533.932 234.359 2
-7 4 9 966.63 230.781 2
-4 9 7 914.177 269.243 1
7 9 4 799.093 278.979 1
9 2 7 4306.97 492.837 4
-2 -9 -7 5172.15 483.393 2
-7 2 9 5381.15 477.598 4
-7 -2 -9 4629.17 545.2 3
-7 2 9 5274.16 442.702 1
7 9 2 5259.19 547.259 1
2 -9 7 5597.81 500.548 1
-2 9 7 4562.35 461.443 2
-9 7 2 5088.72 573.787 1
-2 9 7 4397.34 490.176 1
7 -9 -2 5991.78 587.462 1
-9 -7 -2 4889.4 497.755 4
2 -7 -9 4858.38 399.736 2
9 -2 -7 5040 485.407 1
-7 9 -2 5756.38 605.249 2
-7 -9 2 5153.52 379.664 3
9 -7 2 4288.93 515.182 2
-2 -7 9 6349.06 434.111 1
7 -9 -2 6065.49 575.517 2
2 -9 7 5101.75 528.993 2
9 -7 2 5141.03 535.983 1
2 9 -7 5161.3 534.3 2
-9 7 2 5735.65 595.649 2
7 -2 9 5611.34 489.416 1
-9 -7 -2 5142.41 485.259 3
-2 -7 9 4817.37 469.503 2
2 -7 -9 4545.5 544.269 4
-7 9 -2 5198.52 567.651 1
2 7 9 5550 579.61 4
7 9 2 4291.54 453.982 3
-2 -9 -7 4770.87 556.433 4
-2 7 -9 4808.92 434.277 1
-7 2 9 5359.34 436.864 2
2 7 9 4604.22 453.631 1
-2 7 -9 5840.37 525.4 2
2 7 9 4946.85 536.743 3
-2 -9 -7 5199.72 518.23 1
-9 2 -7 4770.8 534.418 2
2 -7 -9 5455.31 466.248 1
2 9 -7 5216.04 489.886 1
0 9 7 5165.79 489.335 2
0 -9 -7 6606.25 570.003 1
0 7 9 4678.05 534.117 3
0 -7 9 5371.14 504.977 2
-7 9 0 5102.92 572.875 2
0 -7 -9 4661.78 377.922 2
-9 7 0 4631.68 539.11 2
-7 -9 0 5515.19 438.083 3
7 0 -9 6142.59 454.013 1
0 9 -7 5741.21 520.893 1
0 7 9 4198.73 432.47 1
7 0 9 6269.62 495.026 1
9 0 7 5133.63 509.076 1
0 -9 -7 5360.91 467.621 2
7 0 9 4557 545.806 4
0 7 -9 5041.29 421.182 1
7 -9 0 6354.88 604.816 2
-9 0 7 4812.28 377.15 4
0 9 -7 6055.41 566.694 2
7 -9 0 6100.46 566.307 1
9 0 -7 5271.21 482.958 1
0 -7 -9 5026.34 596.441 4
0 7 -9 4968.42 488.981 2
9 -7 0 3767.71 483.538 2
-7 0 -9 5237.13 499.649 2
0 9 7 5437.54 577.607 3
0 -9 -7 5671.99 606.87 4
0 7 9 5109.81 559.429 4
7 9 0 5225.31 453.195 3
0 -7 -9 4659.53 455.734 1
-7 9 0 6330.38 635.122 1
0 -9 7 5950.67 566.994 2
7 9 0 5480.32 550.971 1
9 0 7 4878.94 504.474 4
0 9 7 4758.91 509.208 1
0 -9 7 5942.85 494.881 1
-9 -7 0 4800.95 440.411 3
9 -7 0 5800.79 575.982 1
-9 7 0 4605.02 555.946 1
0 -7 9 6230.16 440.556 1
-9 7 -2 5092.98 558.276 2
7 -9 2 5748.35 567.166 1
9 -7 -2 5357.83 554.154 2
2 -9 -7 4952.3 458.42 2
-2 -7 -9 4620.9 399.598 2
-7 -9 -2 5428.69 482.354 3
-9 2 7 4884.74 477.281 1
-2 7 9 4751.43 398.13 2
-2 -7 -9 4982 467.27 1
7 2 9 4640.24 534.629 4
-2 -7 -9 5201.1 548.319 3
2 9 7 4513.91 488.964 1
-2 7 9 4389.44 443.699 1
2 9 7 4968.09 550.366 3
-7 9 2 5287.96 573.066 2
-2 7 9 5288.62 540.123 4
-7 9 2 5187.92 572.216 1
-2 9 -7 5663.14 556.675 2
-9 7 -2 4669.02 540.588 1
-2 -9 7 5167.76 528.995 2
-7 2 -9 4797.71 479.523 2
-2 9 -7 4719.06 487.653 1
-2 -9 7 6912.31 521.65 1
9 -2 7 5055.79 504.161 1
2 7 -9 5250.36 423.697 1
9 -7 -2 5862.35 581.716 1
2 -7 9 4763.02 503.279 2
-2 -7 -9 3960.78 545.989 4
2 -9 -7 4743.32 559.284 4
7 9 -2 4341.1 505.751 1
2 7 -9 4906.09 293.789 3
7 -9 2 5267.36 550.6 2
-9 2 7 4935.33 378.625 4
7 -2 -9 5769.42 467.359 1
2 -9 -7 5385.57 528.753 1
2 -7 9 5892.22 460.902 1
-2 7 9 4927.89 551.936 3
-4 -9 7 1284.95 267.319 1
7 -9 4 1013.78 280.9 1
7 9 -4 1312.68 299.153 1
4 -9 -7 1063.68 267.786 1
4 9 7 578.562 251.143 1
7 -9 4 867.304 288.974 2
4 -7 9 1024.13 235.495 1
4 -7 9 941.808 261.34 2
7 -4 -9 856.803 247.688 4
-4 -9 7 820.984 267.792 2
-9 -4 -7 728.857 259.769 3
-7 -9 -4 366.303 201.746 3
-9 4 7 538.335 201.021 1
9 -4 7 830.357 260.914 2
7 4 9 823.555 275.603 4
-4 9 -7 1090.79 316.662 2
-9 -4 -7 869.789 266.462 4
-4 7 9 882.049 286.251 4
-9 7 -4 1028.65 326.483 1
-7 4 -9 752.875 273.441 2
-9 4 7 1366.78 275.161 2
-4 7 9 851.668 223.287 2
4 9 7 699.323 239.843 3
-7 9 4 843.354 255.082 2
-4 9 -7 815.604 259.225 1
-4 -7 -9 914.007 275.706 3
9 -7 -4 1092.31 296.984 1
9 -4 7 862.834 264.926 1
4 -9 -7 994.823 325.789 4
4 7 -9 781.003 200.326 1
-7 -9 -4 743.987 286.268 4
9 -7 -4 995.587 290.031 2
-4 -7 -9 774.569 307.769 4
4 -9 -7 1143.89 259.985 2
-9 7 -4 760.493 272.124 2
-7 9 4 773.746 257.382 1
-4 7 9 717.829 232.437 1
-7 4 -9 780.148 218.959 1
7 -4 -9 941.21 243.155 1
6 7 -9 323.206 170.899 1
6 9 7 448.661 227.267 1
7 6 9 731.83 278.541 4
9 -7 -6 807.115 310.828 1
-9 7 -6 871.864 310.154 2
7 -9 6 706.571 243.46 1
6 9 7 412.448 210.372 3
6 -7 9 536.146 201.165 1
-7 9 6 315.482 247.008 1
9 -6 7 287.258 225.297 1
6 -9 -7 767.844 248.221 2
-9 -6 -7 109.885 212.452 3
-6 7 9 648.113 247.605 4
-7 9 6 211.077 228.354 2
-6 7 9 511.729 212.945 2
-9 -6 -7 382.067 240.25 4
-7 6 -9 151.667 204.568 2
-7 -9 -6 -172.694 266.821 4
-9 6 7 133.872 206.03 1
6 -7 9 310.471 204.259 2
-9 6 7 259.293 222.932 2
9 -7 -6 382.168 236.278 2
6 -9 -7 762.055 283.843 4
6 -9 -7 337.783 220.345 1
-6 7 9 395.192 208.945 1
7 -6 -9 814.413 236.917 1
9 -6 7 528.011 250.55 2
-6 9 -7 163.143 203.205 1
-6 9 -7 174.601 223.027 2
9 -7 -6 276.472 189.135 4
-7 -9 -6 495.158 229.878 3
9 7 6 101.916 206.507 4
-7 6 -9 187.221 202.472 1
-6 -7 -9 118.542 230.162 3
7 -6 -9 497.503 196.18 2
7 -9 6 381.53 255.005 2
-6 -7 -9 442.011 286.396 4
7 -6 -9 75.5514 231.019 4
-9 7 -6 314.984 237.288 1
7 9 -6 208.526 203.819 1
8 -7 9 1192.33 308.192 2
9 -8 7 1009.42 303.364 1
-8 9 -7 1413.65 363.212 1
9 -8 7 1218.68 350.323 2
8 -9 -7 1048.13 302.323 1
-9 7 -8 1186.19 325.682 1
-8 7 9 1467.3 345.01 1
-9 -8 -7 751.316 286.779 4
9 7 8 1245.03 309.83 4
8 -9 -7 1536.18 332.765 4
-8 7 9 1429.94 301.231 2
7 -8 -9 1326.16 324.134 4
9 -7 -8 1105.57 291.234 1
7 9 -8 1092.65 266.553 1
-9 8 7 1382.11 337.607 2
7 -9 8 1136.01 303.26 1
-7 9 8 1733.9 378.112 1
-7 8 -9 614.465 284.051 2
-9 8 7 1176.4 302.944 1
7 -9 8 1396.64 344.963 2
8 -7 9 1471.11 302.517 1
-7 9 8 1778.63 355.438 2
8 -9 -7 975.501 287.71 2
-9 -8 -7 673.114 263.406 3
9 -7 -8 1512.85 295.101 4
-8 -7 -9 945.371 295.181 3
7 8 9 658.144 287.35 4
7 -8 -9 1355.04 302.26 1
8 9 7 1248.73 311.937 1
9 -7 -8 923.741 279.425 2
7 8 9 589.349 226.22 1
7 -8 -9 1664.25 311.713 2
-7 -9 -8 674.528 276.928 3
-7 8 -9 888.188 310.611 1
-9 8 5 2903.57 457.228 2
-9 5 -8 3096.97 434.263 1
8 -5 9 2745.07 400.497 2
5 -8 -9 2390.29 363.566 1
-9 5 -8 2987.03 460.276 2
-8 5 9 2802.48 381.447 1
8 -5 9 2785.9 377.797 1
5 -9 8 3218.07 404.149 1
-9 8 5 2179.87 402.32 1
-8 9 -5 1968.27 404.295 1
5 -9 8 2524.99 404.423 2
9 -5 -8 2403.76 350.855 1
5 9 -8 2604.87 355.676 1
-5 8 -9 2792.94 404.064 1
-5 9 8 2440.87 390.079 1
-5 -8 9 2817.01 392.254 2
8 -9 -5 2712.59 398.578 2
-5 9 8 2775.57 384.212 2
-9 -8 -5 2495.53 392.534 3
-5 8 -9 2901.25 438.716 2
9 5 8 2441.4 396.326 4
-5 -9 -8 2723.4 428.051 3
9 -8 5 3390.55 478.165 2
-9 -8 -5 2048.74 395.299 4
8 9 5 2504.94 378.196 3
-8 5 9 2867.24 366.478 2
5 -8 -9 2724.82 364.497 2
5 -8 -9 2719.77 443.712 4
8 -9 -5 3213.82 428.088 1
5 8 9 2295.76 376.061 1
8 9 5 2474.79 423.36 1
-8 -9 5 2690.15 221.009 3
9 -8 5 2728.2 407.732 1
-8 -5 -9 2857.17 503.99 4
-8 -5 -9 2344.98 400.037 3
-8 5 9 2487.19 338.736 4
5 8 9 2671.89 454.077 4
9 -5 -8 2911.17 345.265 4
8 9 3 1235.81 322.433 1
-3 -8 9 1992.46 273.53 1
-3 9 8 1076.32 244.48 2
-9 8 3 1095.73 290.046 2
3 8 9 1325.37 308.244 1
9 -3 -8 1846.47 319.468 1
-9 8 3 1652.78 362.042 1
3 -9 8 1314.23 312.477 2
8 -9 -3 2018.6 367.781 1
-8 9 -3 1756.49 356.867 2
3 -9 8 1782.5 298.479 1
-8 -9 3 1484.2 203.251 3
3 -8 -9 1561.6 344.745 4
-3 -9 -8 1339.6 366.968 4
-3 8 -9 1714.91 348.551 2
-9 3 -8 1297.81 306.623 2
-8 -3 -9 1125.47 331.591 3
3 9 -8 1386.44 277.13 1
-8 3 9 1686.57 292.742 4
-3 9 8 1395.33 278.844 1
3 -8 -9 1308.23 284.115 1
3 -8 -9 1443.66 264.167 2
-3 -9 -8 1379.59 289.724 1
9 -8 3 1735.21 345.862 1
-8 3 9 2016.97 310.006 1
9 -8 3 1824.02 362.961 2
9 3 8 1685.75 348.53 4
-8 9 -3 1284.41 344.906 1
8 -9 -3 1821.52 342.021 2
8 -3 9 1878.19 309.186 1
8 9 3 1274.1 306.03 3
-3 -9 -8 1653.54 305.09 2
-3 -8 9 1755.49 318.889 2
-8 3 9 1559.76 277.565 2
3 8 9 1395.57 333.221 3
-3 8 -9 1845.52 307.922 1
-9 -8 -3 1245.69 278.253 3
-3 -9 -8 1556.25 336.399 3
3 8 9 1446.38 357.401 4
-9 -8 -3 1023.59 284.772 4
-8 9 -1 2942.6 461.736 1
-8 9 -1 2543.8 452.37 2
1 8 9 2584.1 366.905 1
-1 -8 9 3301.4 405.231 2
8 -1 9 2933.62 366.719 1
-9 1 -8 3355.59 470.922 2
1 9 -8 3117.26 430.622 2
1 -9 8 3270.51 378.158 1
-1 9 8 3160.11 474.008 3
-1 8 -9 3556.43 431.104 2
-9 8 1 3387.53 494.145 2
-1 8 -9 3370.65 377.767 1
8 1 -9 3133.99 345.321 1
8 -9 -1 3494.29 448.927 2
1 -9 8 3604.22 455.936 2
9 -1 -8 3228.96 379.93 1
-1 -9 -8 2745.31 350.079 2
8 -9 -1 3322.26 449.743 1
1 -8 -9 3066.91 337.752 2
9 -8 1 3912.28 503.694 2
9 -8 1 3397.69 453.594 1
1 8 9 3535.8 483.565 4
9 1 8 2472.34 389.458 4
-9 8 1 2690.31 451.656 1
1 -8 -9 2707.92 362.733 1
1 9 -8 3257.8 400.053 1
-8 1 9 3445.88 376.274 4
-9 -8 -1 3614.18 400.402 3
-8 -9 1 3442.96 355.421 3
1 -8 -9 3176.71 477.392 4
1 8 9 3912.23 505.847 3
-1 9 8 2882.03 394.13 1
-1 -9 -8 3275.02 478.31 4
-1 9 8 3052.26 370.425 2
-1 -8 9 3694.33 361.082 1
-1 -9 -8 3485.62 421.289 1
8 -9 1 3362.96 443.227 1
-1 9 -8 2888.91 384.653 1
-1 8 9 2711.55 321.188 2
1 9 8 3498.35 507.03 3
-1 8 9 4169.69 542.736 3
-1 -8 -9 3195.54 396.592 1
8 -1 -9 3149.42 368.528 1
1 8 -9 3449.86 442.647 2
-9 8 -1 3747.44 510.064 2
1 -9 -8 2958.27 471.437 4
1 -9 -8 3016.39 415.357 1
8 9 -1 2486.59 398.856 1
-1 -8 -9 3058.47 488.619 4
-1 -9 8 2646.86 382.455 2
-1 9 -8 3222.7 425.486 2
-8 9 1 2925.64 446.601 1
1 -8 9 3005.76 415.344 2
1 9 8 3067.37 410.667 1
9 -8 -1 3668.98 467.773 1
9 -1 8 3538.2 430.512 1
-1 8 9 3410.92 483.808 4
-9 1 8 3528.31 348.048 4
9 1 -8 3351.08 375.913 1
8 1 9 2749.49 408.031 4
-9 -8 1 3436.61 353.163 3
1 -8 9 3671.33 374.479 1
-1 -9 8 3383.08 376.075 1
8 -9 1 3306.35 444.45 2
-1 8 9 2640.19 371.993 1
9 -8 -1 3267.7 454.008 2
-1 -8 -9 3019.43 320.03 2
-8 1 -9 3121.93 406.358 2
1 8 -9 3191.41 351.023 1
-9 8 -1 3169.66 477.18 1
-8 9 1 3416.09 477.907 2
1 -9 -8 3596.42 372.9 2
-8 -9 -1 3019.45 360.681 3
3 9 8 1417.06 360.642 3
-3 9 -8 1826 330.319 1
-8 3 -9 1158.25 317.502 2
9 -8 -3 1399.59 318.765 1
-3 -8 -9 1264.84 301.553 3
-3 8 9 1297.37 250.266 2
8 9 -3 1354.6 324.166 1
-8 9 3 1298.55 323.441 2
3 -8 9 2149.27 369.999 2
-3 -9 8 2015.93 345.998 2
3 9 8 1155.62 289.148 1
-3 9 -8 1188.15 290.578 2
-3 -8 -9 1067.76 237.481 2
-9 3 8 1770.41 306.014 2
8 3 9 781.801 297.157 4
3 8 -9 1326.07 246.141 1
8 -3 -9 1883.11 323.759 1
-9 8 -3 1262.55 343.094 1
-3 -9 8 2188.41 318.84 1
3 -9 -8 1512.13 304.161 1
-3 8 9 1125.56 314.75 4
-3 8 9 1035.36 257.523 1
3 -9 -8 1575.49 295.616 2
-8 -9 -3 1312.36 282.232 3
-3 -8 -9 933.696 311.747 4
8 -9 3 1728.27 366.203 1
8 -9 3 1639.35 343.492 2
-8 -9 -3 1697.29 340.282 4
3 -9 -8 1486.63 335.105 4
3 -8 9 1759.53 297.487 1
-9 3 8 1755.49 248.94 4
-9 8 -3 1733.45 367.764 2
-9 -8 3 1213.51 210.581 3
-8 9 3 1090.11 291.116 1
-9 -3 -8 1266.37 311.332 3
-9 3 8 1349.67 285.332 1
9 -8 -3 1781.56 347.026 2
9 -3 8 1899.39 356.221 1
9 -5 8 2561.06 379.746 1
-5 -9 8 2814.65 408.326 2
-9 -5 -8 2959.9 455.207 3
5 8 -9 2599.79 334.875 1
-8 9 5 3005.35 454.927 2
-8 -9 -5 2585.74 439.935 4
-9 5 8 2743.78 386.504 2
9 -5 8 3190.79 435.098 2
8 5 9 2412.38 421.907 4
-9 -5 -8 2612.33 446.866 4
8 -9 5 2790.25 418.006 1
9 -8 -5 2857.65 429.177 1
-5 8 9 2320.3 362.374 1
5 -9 -8 3286.6 447.24 4
-5 9 -8 2916.64 451.071 2
8 -5 -9 2904.07 380.504 1
-9 5 8 2785.18 388.463 1
9 -8 -5 3195.48 442.782 2
8 -5 -9 3091.92 383.342 4
-5 9 -8 2590.92 406.282 1
-5 8 9 2963.35 372.238 2
5 -8 9 2663.24 374.561 1
8 -9 5 2903.72 435.541 2
-8 -9 -5 2735.1 401.676 3
5 -9 -8 2633.71 394.441 1
-8 5 -9 2975.48 415.703 1
-5 -8 -9 2350.38 399.589 3
8 9 -5 2547.78 372.006 1
5 -8 9 2616.65 421.778 2
5 -9 -8 2810.41 386.733 2
-8 9 5 3071.75 456.476 1
-8 5 -9 2392.49 391.121 2
5 9 8 2754.75 415.839 1
-9 -8 5 2952.79 258.114 3
-9 8 -5 2769.13 474.776 1
7 9 8 1127.79 331.278 4
9 -8 -7 976 279.432 1
-8 9 7 1001.33 278.973 2
-8 -9 -7 1293.92 318.05 3
8 -7 -9 1558.84 327.958 1
7 8 -9 1464.3 281.047 1
-7 9 -8 1220.26 325.702 1
-7 8 9 1446.3 307.594 1
8 -9 7 1079.1 289.347 1
8 9 -7 870.505 275.538 1
7 -9 -8 1215.31 315.188 2
-9 7 8 1754.02 370.987 1
8 -7 -9 1114.55 268.055 4
-7 8 9 1293.28 309.73 2
9 -7 8 1257.09 316.241 1
-8 7 -9 1155.36 306.855 2
9 -7 8 1047.08 316.625 2
8 -9 7 1257.8 312.282 2
7 -9 -8 1186.65 342.059 1
9 -8 -7 1411 306.449 4
-9 -7 -8 1147.84 315.892 4
9 -8 -7 1284.87 311.486 2
-7 -8 -9 1198.56 342.155 3
-8 9 7 835.768 286.08 1
7 -8 9 1601.02 379.188 2
8 7 9 1072.94 326.045 4
-8 7 -9 1281.49 326.035 1
9 8 7 891.416 313.737 4
-9 7 8 944.093 294.619 2
7 -9 -8 931.878 297.889 4
8 -7 -9 1105.74 281.875 2
-9 8 -7 1200.54 362.934 1
7 9 8 1350.87 306.74 1
7 -8 9 1199.19 325.623 1
-9 -7 -8 763.579 292.383 3
-9 9 0 2835.22 473.741 1
0 9 9 2143.39 429.608 4
9 0 9 1828.67 311.604 1
0 -9 -9 2954.32 400.433 1
0 -9 9 2287.1 376.312 2
0 -9 9 3288.21 365.955 1
-9 0 9 2210.82 304.132 4
9 0 9 2249.87 404.401 4
0 9 -9 3119.45 388.743 1
0 9 9 2161.61 358.619 1
9 0 -9 2425.38 339.635 1
0 9 -9 3246.66 425.503 2
9 -9 0 2318.5 399.071 2
-9 0 -9 2057 361.083 2
0 -9 -9 2253.99 304.283 2
-9 -9 0 2741.6 352.676 3
9 -9 -2 -21.6613 208.582 2
-2 9 9 425.315 200.627 2
-2 9 -9 185.357 205.694 2
2 -9 -9 82.8007 147.298 2
-2 -9 -9 -7.64002 157.643 2
-2 -9 -9 -76.9371 207.674 3
-2 9 -9 -7.4351 186.885 1
-2 -9 9 279.594 172.874 1
2 9 9 104.971 176.536 1
9 2 -9 512.497 182.82 1
-9 9 -2 -34.4747 261.769 1
-9 -9 -2 140.1 191.869 3
2 -9 -9 52.2591 238.446 4
-9 2 9 189.166 155.323 4
9 -2 -9 208.263 208.238 1
2 -9 -9 262.656 189.794 1
-9 2 9 81.0479 161.194 1
9 -2 9 319.691 223.36 1
2 9 -9 178.529 174.769 1
-9 9 2 2.9208 220.029 2
-2 -9 -9 329.723 192.211 1
2 -9 9 278.477 203.062 1
-9 -2 -9 177.633 208.552 3
-9 -9 2 71.0286 129.059 3
9 2 9 262.941 233.952 4
9 -9 2 97.0547 204.429 2
-2 9 9 198.982 194.867 1
-2 -9 9 -102.983 204.449 2
-9 2 -9 351.492 224.525 2
2 9 9 2.25416 231.948 4
-9 9 2 -40.339 213.655 1
2 -9 9 212.126 189.879 2
-9 9 4 1938.78 379.806 1
-4 -9 -9 1442.9 358.26 3
4 -9 -9 1917.84 318.027 2
4 9 9 1767.96 348.009 1
-9 4 -9 2036.2 373.829 1
4 9 9 1838.66 389.135 4
4 -9 -9 2307.5 366.715 1
-4 9 -9 1640.83 303.258 1
-4 -9 9 2020.06 347.334 2
-4 9 9 1795.13 347.6 1
-9 9 -4 2260.22 437.272 1
-9 4 9 2067.34 351.914 1
-4 9 -9 2196.42 378.701 2
9 -4 -9 2149.05 345.449 1
-9 4 9 2389.55 309.215 4
-9 -9 -4 2061.94 352.949 3
4 -9 9 2356.91 403.634 2
9 -4 9 2701.85 390.156 1
-9 9 4 1995.21 391.31 2
4 -9 -9 2280.55 412.538 4
9 -4 -9 2161.26 305.129 4
-9 -4 -9 1451.13 356.367 3
4 -9 9 2407.14 368.184 1
9 -9 4 1746.7 346.275 2
-4 9 9 1763.31 305.786 2
9 4 9 1953.83 378.518 4
9 -4 9 2182.12 376.76 2
9 -9 -4 2467.7 406.166 2
-9 -9 -4 2444.06 419.77 4
-9 -9 4 1937.83 225.873 3
4 9 -9 1984.78 312.13 1
-9 4 9 2034.67 334.99 2
-9 4 -9 1921.87 385.269 2
-9 -4 -9 1538.47 359.269 4
9 -6 9 3181.98 441.431 1
-6 -9 9 2756.75 409.288 2
6 9 9 2625.63 422.249 1
-6 9 -9 2677.12 447.373 2
9 -9 -6 3324.81 456.625 2
6 -9 9 3432.48 477.671 2
-9 9 6 2288.21 428.267 1
6 -9 9 3210.53 437.02 1
6 9 9 2762.33 465.415 4
6 -9 -9 2985.29 413.544 1
-9 -9 -6 3580.77 490.719 3
-6 9 9 3537.16 449.462 2
-6 9 9 3132.26 459.962 1
9 -6 -9 3750.24 426.829 4
-9 -9 6 3215.89 245.332 3
6 -9 -9 3084.96 406.941 2
9 -9 6 2793.23 449.108 2
9 -6 -9 3266.69 428.045 1
9 -9 -6 3357.68 417.051 4
6 9 -9 2672.61 375.305 1
-9 6 9 2965.54 430.464 1
-9 6 -9 2723.82 435.86 2
-9 -6 -9 3077.75 479.413 3
9 6 9 3443 504.165 4
-6 9 -9 3063.11 440.402 1
9 -6 9 3513.97 485.842 2
-9 6 9 3249.95 440.548 2
-9 6 -9 2715.61 437.949 1
-6 -9 -9 2894.09 466.012 3
-9 9 6 3158.33 462.106 2
-9 9 -6 2746.72 453.543 1
-9 -9 -6 3439.29 506.266 4
6 -9 -9 2821.91 449.333 4
9 8 9 -126.428 235.79 4
-8 -9 -9 -204.977 256.445 3
9 9 -8 66.9791 192.079 1
8 9 9 744.56 274.767 1
8 -9 -9 465.754 224.032 4
9 -8 9 94.6624 221.738 1
8 9 -9 -70.652 185.018 1
-9 -8 -9 -115.561 234.668 3
-9 8 9 117.737 218.319 1
9 -8 -9 73.8868 222.49 1
9 -8 9 29.0051 218.208 2
-8 9 9 -287.387 255.916 1
8 -9 9 271.925 213.303 1
9 -8 -9 -75.7959 203.615 2
9 -9 8 504.635 276.038 2
-8 9 -9 185.697 243.982 1
-8 9 9 420.662 253.366 2
-9 9 8 36.336 209.288 2
9 -9 -8 106.815 183.265 4
-9 8 9 418.772 259.201 2
-9 9 8 -53.4153 239.318 1
8 -9 9 510.595 268.639 2
-9 8 -9 169.422 246.023 1
9 -8 -9 -189.718 236.491 4
8 -9 -9 666.913 260.931 2
9 -9 -8 100.135 211.58 2
8 -9 -9 334.714 237.26 1
-9 9 -8 -200.674 248.74 1
8 9 9 447.01 297.893 4
-9 -9 -8 148.473 208.173 3
0 0 -10 2245.1 311.532 3
0 0 10 2409.17 304.166 3
0 -10 0 2734.25 368.021 1
0 -10 0 2171.06 360.231 2
0 10 0 2366.13 389.052 2
10 0 0 2411.76 347.962 1
0 10 0 1861.1 342.209 1
10 -1 1 8225.88 638.151 1
1 10 1 7339.3 633.849 2
-1 1 -10 6659.61 362.871 2
1 -10 -1 7199.94 596.183 1
1 10 1 6204.34 588.857 1
1 10 -1 7694.05 631.975 1
1 10 -1 7455.39 636.374 2
1 -10 1 7727.52 629.891 2
-1 -10 -1 6905.5 595.057 1
-1 10 -1 7334.48 628.759 1
-1 -10 1 6995.86 605.8 2
1 -1 10 6511.58 366.126 2
1 1 -10 7484.5 526.456 3
-1 -1 10 6126.84 335.31 2
1 1 10 8123.63 673.344 4
-1 10 1 6500.78 608.689 1
-1 1 10 7875.38 554.889 3
10 -1 -1 8152.57 627.465 1
-1 1 -10 7157.41 557.735 3
1 -1 -10 7398.67 571.87 3
-1 -1 -10 7158.9 567.972 3
-1 -1 10 7865.25 509.945 3
-1 10 -1 7676.31 640.058 2
1 -1 10 7316.83 525.249 3
-1 10 1 7959.23 643.997 2
-1 -10 1 7590.42 609.986 1
1 -10 -1 6792.53 591.246 2
1 -10 1 7252.77 593.838 1
-1 1 10 7129.89 613.586 4
1 1 10 6233.03 334.014 1
-1 -10 -1 7129.91 595.22 2
10 1 1 7876.15 401.595 4
1 1 10 8091.42 585.243 3
2 0 10 6753.34 528.448 3
2 -10 0 6547.04 563.05 1
0 10 2 5916.64 573.692 1
0 10 -2 6494.11 596.296 2
-2 -10 0 6349.07 573.814 2
-2 0 10 6516.19 479.088 3
0 10 2 6440.26 592.509 2
-2 10 0 6745.1 612.83 2
0 -10 2 6202.71 554.741 1
10 0 2 6393.11 404.84 4
0 2 -10 6475.15 369.368 2
-2 0 -10 5401.19 504.731 3
-2 0 -10 5849.73 348.234 2
-2 10 0 6003.38 573.905 1
0 10 -2 6455.55 579.151 1
-10 -2 0 6440.06 369.47 4
2 10 0 7244.94 531.05 3
0 2 10 5229.46 324.022 1
10 -2 0 7093.34 585.424 1
0 -10 -2 6275.51 554.327 2
-10 2 0 7520.92 638.893 2
10 0 -2 6101.52 540.598 1
-2 -10 0 6866.78 597.01 1
0 -10 -2 6453.19 563.89 1
2 -10 0 5733.36 549.372 2
0 -2 10 6479.31 467.284 3
2 10 0 6179.29 586.379 1
0 2 10 6434.12 529.986 3
0 2 -10 7444.04 516.959 3
0 -2 10 7040.05 394.907 2
-10 2 0 6337.24 573.214 1
0 -10 2 6136.54 571.793 2
0 -2 -10 7050.67 572.334 3
0 2 10 6515.54 614.286 4
10 0 2 7157.69 592.495 1
-10 2 2 1080.15 271.238 1
-2 -2 -10 1144.95 264.573 3
10 2 2 1170.08 198.067 4
2 2 -10 1546.01 238.297 3
2 10 -2 1677.96 353.118 2
-2 -10 -2 1192.13 278.151 1
-2 -10 -2 1448.53 302.699 2
-2 2 -10 1321.01 261.592 3
2 -2 10 971.557 139.571 1
-2 -10 2 1371.93 293.345 2
-2 10 -2 603.996 229.382 2
10 -2 -2 1300.72 287.349 1
2 2 10 791.839 199.328 3
2 -2 -10 1147.38 145.182 1
2 10 2 434.507 193.72 1
-2 2 10 1008.15 241.334 3
2 -10 2 885.588 272.024 2
-2 2 -10 1046.27 186.025 2
2 10 -2 1191.35 306.588 1
2 -2 10 1058.42 184.308 2
-2 10 2 495.655 217.622 1
10 -2 2 1416.3 281.665 1
-2 -2 10 1079.84 155.141 2
-10 -2 -2 1199.14 203.027 4
-2 -10 2 1144.04 291.367 1
2 2 10 769.046 305.548 4
2 2 10 1031.55 161.54 1
-2 2 10 1401.11 312.37 4
2 10 2 1325.57 271.607 3
-2 10 -2 1179.49 294.542 1
-10 2 -2 1519.44 320.636 2
-2 2 10 905.731 141.977 1
-2 10 2 1200.56 310.539 2
2 -10 -2 1400.08 299.611 1
2 -10 2 1387.29 296.085 1
-2 -2 10 1234.41 201.231 3
2 -10 -2 1175.7 281.291 2
-10 -3 -1 3459.63 307.895 4
-3 10 -1 2584.4 396.8 1
-1 -3 10 3544.16 300.874 2
-3 -10 1 3417.23 420.197 1
-1 10 3 3835.9 451.64 2
1 3 10 3849.03 480.375 4
-1 -10 -3 3379.02 411.481 2
-1 10 3 3040.54 428.082 1
10 1 3 3346.07 328.928 4
-10 3 1 3987.28 475.939 2
-3 10 -1 3455.36 447.345 2
1 -10 3 3005.66 414.913 2
-1 3 -10 3113.08 221.049 1
1 3 10 2804.19 260.54 1
-3 -1 -10 3223.62 418.315 3
1 -10 3 3648.01 402.543 1
3 -1 10 3401.46 267.806 1
3 -10 -1 3406.74 427.632 1
-3 -1 -10 2590.67 245.694 2
1 10 -3 3361.66 429.583 1
-1 3 -10 3781.14 318.933 2
10 -3 1 3879.02 444.04 1
-3 1 10 3280.38 425.538 4
-10 3 1 3302.79 412.462 1
-1 -3 10 3406.34 313.783 3
-3 -10 1 3051.85 423.61 2
1 -3 -10 3291.41 267.415 1
3 10 1 3354.33 379.24 3
3 10 1 2681.64 410.744 1
10 -1 -3 4355.18 462.409 1
-1 -10 -3 3618.77 444.42 1
-1 3 -10 3638.26 355.183 3
3 -10 -1 3924.53 448.507 2
1 -3 -10 2748.42 426.288 4
-3 1 10 2626.66 204.744 1
1 10 -3 4049.2 483.317 2
1 3 10 3837.6 424.709 3
-3 1 10 3495.34 370.892 3
1 -3 10 2781.95 210.163 1
1 -3 10 3501.42 316.982 2
-3 10 1 3624.56 456.854 1
-1 -10 3 3237.65 417.655 2
-3 -1 10 3588.59 335.303 3
-3 -10 -1 3961.01 459.681 1
3 10 -1 3373.15 438.879 1
-10 3 -1 4308.46 487.223 1
1 10 3 2731.24 402.937 1
-1 10 -3 3865.72 462.683 2
-1 -3 -10 3246.27 482.896 4
-1 3 10 3241.3 452.338 4
3 -1 -10 2627.78 207.668 1
-3 10 1 3828.22 479.729 2
1 -10 -3 3481.71 401.481 2
-10 3 -1 3347.14 458.505 2
-1 3 10 3978.36 427.703 3
1 -10 -3 2905.44 398.113 1
3 1 10 3307.35 401.227 3
3 -10 1 3195.48 433.268 2
-1 -10 3 3833.06 427.067 1
3 -10 1 2995.21 400.94 1
10 -1 3 3464.5 407.759 1
-3 -10 -1 3634.1 447.442 2
-10 -3 1 3173.09 263.826 4
1 3 -10 3663.77 339.27 3
1 10 3 3404.5 436.157 2
-1 3 10 2959.05 257.438 1
-1 10 -3 3390.2 435.04 1
1 10 3 3477.29 438.556 3
-3 1 -10 3280.47 311.755 2
-1 -3 -10 3296.73 409.838 3
3 1 10 2897.66 445.435 4
3 10 -1 3582.43 350.228 3
10 -3 -1 3115.3 408.519 1
-3 1 -10 3211.02 391.743 3
3 10 -3 24837.1 1294.77 1
-10 -3 -3 26397.4 1176.04 4
3 -3 -10 26419.3 1030.88 1
3 -10 3 26741.9 1348.55 2
3 -10 3 27083.4 1326.06 1
3 3 10 26378.8 1318.26 3
-3 -3 10 28962.9 1071.33 3
10 3 3 26799.9 1126.73 4
-3 3 -10 26487.8 1227.76 3
-3 -3 10 28256.4 1087.11 2
-3 -10 -3 26567 1335.7 2
-3 10 3 27658.6 1364.1 2
-3 10 -3 28423.7 1407.49 2
-3 3 10 24467.4 1029.8 1
-3 3 10 27609.7 1337.12 4
-10 3 -3 24930.2 1312.29 1
3 -10 -3 24180.3 1253.13 2
10 -3 -3 28050.7 1329.84 1
3 -3 -10 28439.4 1372.46 4
-3 10 3 23550.2 1304.85 1
3 -3 10 27800.3 1153.67 2
-10 3 3 27614.4 1342.36 1
10 -3 3 28270.5 1339.54 1
-3 10 -3 28372.9 1379.43 1
-3 3 -10 24800.7 1022.75 1
3 3 10 24585.1 1067.45 1
-3 -10 3 26113.5 1352.35 2
-3 3 -10 28219 1167.53 2
3 -3 10 25817.2 1035.62 1
-10 3 3 29813.6 1399.21 2
-3 -3 -10 27320.3 1362.09 3
-10 3 -3 29642.8 1442.77 2
3 3 -10 24404.2 920.398 1
3 10 3 28154.4 1305.28 3
3 3 10 27339.5 1419.8 4
-3 -10 3 30043.7 1348.85 1
-3 -10 -3 27380.4 1358.38 1
-3 -3 -10 27676.9 1446.25 4
10 -3 -3 24958.2 906.206 4
3 10 -3 28281.8 1083.45 3
-3 3 10 28776.7 1311.55 3
3 10 3 25092.2 1327.15 1
3 -10 -3 26473.3 1317.98 1
-4 -2 -10 9772.83 738.11 3
4 10 2 8500.15 717.247 1
4 2 -10 8256.64 427.467 1
-10 4 2 9140.73 723.173 1
-2 10 4 10479.5 754.004 2
4 -10 -2 10677.4 753.877 1
-2 4 -10 9656.61 517.892 1
-4 10 -2 10737.5 812.298 2
-4 10 -2 10293.7 767.133 1
4 -2 10 9248.81 536.176 1
-10 -4 -2 10268.5 618.274 4
10 -4 2 10638.4 770.783 1
2 10 -4 10461.5 776.252 2
4 -10 -2 9762.14 712.836 2
-2 10 4 8647.38 707.813 1
-4 2 10 9644.98 706.871 4
2 4 10 8305.09 530.092 1
10 -2 -4 10762.8 728.274 1
-2 -10 -4 8749.77 678.853 2
2 -4 -10 10339.4 793.521 4
-4 2 10 9224.74 462.867 2
10 2 4 10313.1 624.347 4
2 10 -4 9533.31 706.059 1
-4 2 10 9037.4 496.58 1
-10 4 2 11252.8 803.341 2
-4 -10 2 9373.05 730.129 2
2 4 10 9157.45 753.327 4
-4 -10 2 9920.63 733 1
2 -10 4 9169.7 721.439 2
4 -2 10 9610.49 575.624 2
2 -10 4 10924.9 737.744 1
-4 2 10 9570.51 666.983 3
2 -4 -10 7458.48 405.234 2
-2 -10 -4 9614.76 724.765 1
2 4 10 8963.68 700.104 3
-2 -4 10 10740.7 533.574 3
-2 -4 10 10630.9 584.317 2
4 10 2 9800 675.865 3
-2 4 -10 9207.77 612.171 3
-2 4 -10 9991.99 602.76 2
2 -4 -10 9656.13 534.074 1
-10 2 -4 10258.9 802.688 2
0 -10 -4 1185.49 261.819 2
-4 0 -10 1366.67 300.234 3
4 -10 0 1412.02 311.069 2
10 0 4 1494.4 256.066 4
-4 10 0 1364 311.673 1
0 -10 -4 1650.46 315.622 1
0 -4 -10 1714.54 320.256 3
0 10 4 1770.7 337.833 2
0 10 -4 2046.55 365.235 2
0 10 4 1122.53 271.896 1
0 -4 10 1637.06 161.569 1
0 -10 4 1713.34 335.544 2
0 -4 10 1855.68 251.678 2
-4 10 0 1777.55 361.087 2
0 -10 4 2011.92 317.705 1
10 0 4 1932.14 343.588 1
0 4 10 1118.53 266.895 3
-4 -10 0 1632.21 333.864 1
0 4 -10 1649.41 176.026 1
0 4 10 1815.06 220.117 1
10 0 -4 1869.59 321.761 1
4 0 -10 1501.8 169.06 1
4 10 0 1376.59 302.713 1
0 -4 -10 1409.3 325.381 4
10 -4 0 2077.81 362.377 1
0 4 -10 1363.95 223.509 3
0 -4 -10 1749.84 218.98 1
-10 4 0 1986.02 354.416 2
-4 0 -10 1314.06 216.069 2
0 10 -4 2002.71 351.827 1
-4 -10 0 1656.89 324.174 2
4 -10 0 1509.65 304.124 1
-4 0 10 2047.21 281.997 3
-10 -4 0 1591.68 224.262 4
-10 4 0 1285.23 295.961 1
0 4 10 1779.76 363.579 4
0 4 -10 1666.32 237.884 2
4 10 0 1604.11 252.678 3
2 10 4 8026.85 694.307 1
-2 10 -4 9951.05 758.526 2
-2 -4 -10 9046.24 703.105 3
-4 -10 -2 8636.49 632.03 3
2 -10 -4 9774.49 722.422 1
-2 -10 4 10065.3 744.956 2
4 -2 -10 10107.2 511.598 1
-2 -4 -10 10212.1 817.502 4
4 10 -2 9094.4 709.205 1
-4 10 2 9938.71 757.857 2
-10 4 -2 8844.92 721.72 1
10 -4 -2 9775.79 735.198 1
-10 2 4 10257 711.881 1
2 4 -10 10928.6 553.709 3
-4 -10 -2 9806.96 742.169 2
4 -10 2 10184 724.747 1
2 -4 10 10017.6 619.74 2
-4 2 -10 8915.81 592.627 2
2 10 4 10303.1 744.288 3
-2 10 -4 9656.25 725.519 1
-2 -10 4 11506.7 738.662 1
2 -4 10 10797.2 526.159 1
4 2 10 8929.53 758.54 4
-2 4 10 9183.25 535.836 1
-4 10 2 9016.07 736.185 1
2 4 -10 8752.51 436.241 1
-4 -10 -2 9729.31 743.715 1
-10 4 -2 10216.9 784.487 2
4 10 -2 10093 563.369 3
-4 -2 10 9752.62 550.938 3
4 -10 2 9813.84 741.875 2
10 -2 4 10393.6 746.333 1
-4 2 -10 8470.59 651.564 3
4 2 10 9540.59 709.139 3
-2 4 10 10640.4 768.599 4
2 -10 -4 9639.57 686.471 2
-2 4 10 8860.22 693.254 3
-2 4 10 7592.14 404.281 2
10 4 4 582.766 214.745 4
4 4 10 467.951 269.532 4
10 -4 4 359.912 236.113 1
4 -4 10 606.354 206.086 2
-10 4 -4 163.4 201.384 1
-4 4 10 500.701 179.701 1
-4 -10 -4 72.3868 154.991 3
-4 -10 -4 514.967 221.47 2
-4 -10 4 358.568 244.289 2
4 -10 -4 745.056 259.749 2
-4 10 4 72.3642 215.765 1
4 10 4 383.365 227.333 1
-4 10 -4 696.231 304.698 1
-10 4 4 724.376 270.429 1
4 4 -10 545.366 129.947 1
-4 10 4 311.555 245.741 2
10 -4 -4 641.892 234.317 1
-4 10 -4 621.741 263.692 2
4 -10 -4 172.152 211.144 1
4 10 -4 385.478 193.358 1
4 -4 10 294.935 152.383 1
-4 -10 4 212.04 180.35 1
-10 -4 -4 677.598 208.649 4
-4 4 -10 624.996 190.529 2
-4 4 -10 406.529 167.651 1
4 -10 4 871.086 285 2
-4 4 10 581.393 155.638 2
-10 4 -4 173.5 207.35 2
4 -4 -10 233.14 221.369 4
-4 -4 -10 399.518 235.141 3
-4 -10 -4 272.962 227.118 1
4 4 10 674.04 219.314 3
4 -4 -10 300.085 148.578 1
4 10 4 119.326 170.805 3
-4 4 10 419.375 226.819 4
-4 -4 -10 -96.5179 249.725 4
-10 4 4 453.923 240.458 2
4 10 -4 498.339 131.712 3
4 -10 4 204.86 183.164 1
4 4 10 421.387 176.324 1
-4 -4 10 468.325 118.002 3
10 -4 -4 568.92 135.084 4
3 -5 -10 7294.06 681.592 4
-10 3 -5 7730.97 652.385 1
-5 10 -3 6561.97 640.129 1
-3 10 5 7301.02 648.119 2
3 -5 -10 7944.64 521.662 1
5 -10 -3 6973.51 610.024 2
3 5 10 7377.06 654.735 3
-5 -3 -10 7227.02 660.516 3
10 -3 -5 8765.03 672.134 1
3 -10 5 7331.65 663.701 2
-5 10 -3 7566.99 682.026 2
5 -3 10 7551.86 518.307 1
-5 -10 3 7377.15 652.887 2
10 -5 3 7479.56 672.091 2
-3 10 5 7298.22 658.503 1
-3 -5 10 7570.63 532.865 2
3 5 10 7714.19 730.313 4
-5 3 10 7886.59 509.928 1
-5 3 10 7488.41 467.507 2
3 -5 -10 7579.91 442.769 2
-10 5 3 7463.98 668.762 1
-10 5 3 8373.19 684.635 2
-10 3 -5 8519.02 735.023 2
5 -3 10 8220.35 585.808 2
10 3 5 7771.88 582.683 4
-3 -10 -5 8189.15 674.521 1
5 10 3 7255.66 602.266 3
3 -10 5 8081.02 644.571 1
-10 -5 -3 7011.28 564.545 4
-3 -10 -5 6944.13 671.763 4
5 -10 -3 7618.88 655.795 1
3 10 -5 7565.57 638.3 1
-3 -10 -5 7348.98 632.89 2
10 -3 -5 7076.14 406.482 4
-3 5 -10 8326.09 604.607 2
10 -5 3 8603.48 694.14 1
-3 5 -10 7111.57 500.956 1
5 10 3 7125.42 653.919 1
3 5 10 7016.46 521.635 1
-5 3 10 8425.73 651.1 4
1 5 10 375.426 247.9 3
10 -5 1 334.665 196.269 1
-5 10 -1 388.928 221.653 2
1 -5 -10 143.267 131.915 1
1 5 10 98.3326 238.61 4
-1 -5 10 467.301 123.36 1
5 10 1 -5.03618 203.752 1
-10 5 1 562.336 227.886 1
-1 -10 -5 196.56 179.124 1
10 1 5 534.935 213.159 4
-1 -5 10 719.151 186.748 2
-5 10 -1 247.364 233.707 1
-1 5 -10 105.788 136.927 2
-10 5 1 566.135 248.514 2
1 -10 5 755.688 266.445 2
1 5 10 438.202 165.612 1
5 -1 10 505.743 148.704 1
1 -5 -10 219.288 223.238 4
-5 1 10 75.3113 176.552 4
5 10 1 149.491 154.271 3
1 -5 -10 401.422 109.821 2
1 -10 5 422.778 209.701 1
10 -1 -5 617.512 225.197 1
-1 5 -10 392.634 139.863 1
5 -10 -1 420.757 236.87 2
1 10 -5 324.724 174.5 1
-5 -1 -10 331.424 160.703 2
-5 -1 -10 671.634 247.018 3
1 10 -5 782.151 255.779 2
-1 10 5 204.591 207.724 1
5 1 -10 395.398 120.774 1
-10 -5 -1 358.053 182.305 4
-1 10 5 348.856 180.913 2
-5 1 10 373.402 126.959 1
-1 5 -10 327.575 156.435 3
10 -5 1 821.946 259.544 2
-1 -10 -5 227.065 184.309 2
5 -10 -1 637.38 261.821 1
-1 -5 -10 205.038 196.228 3
-5 -10 -1 314.183 164.206 3
10 1 -5 659.237 226.265 1
1 10 5 170.91 187.682 3
-1 -5 -10 265.876 105.929 2
-1 10 -5 101.343 214.242 2
10 -5 -1 462.271 230.137 2
10 -5 -1 490.521 215.801 1
-1 -10 5 243.009 167.545 1
-1 -10 5 154.673 186.649 2
-5 10 1 660.991 241.433 1
-5 -1 10 775.773 185.2 3
1 -10 -5 419.647 215.932 2
1 -10 -5 196.325 190.822 1
-1 -5 -10 531.852 180.631 1
-1 5 10 156.584 132.393 1
1 5 -10 451.682 189.856 2
1 -5 10 483.298 182.415 2
1 10 5 225.904 209.08 1
-10 5 -1 112.832 206.457 1
5 -10 1 645.229 244.502 2
-5 10 1 62.9621 207.726 2
-1 5 10 126.239 180.764 3
5 1 10 429.337 264.99 4
-5 1 -10 242.754 157.95 2
5 -1 -10 598.119 145.249 1
-1 -5 -10 158.037 273.295 4
-5 1 -10 242.427 177.656 3
-10 5 -1 424.278 248.677 2
-1 10 -5 301.582 180.521 1
1 5 -10 374.176 123.567 1
5 10 -1 670.528 244.433 1
10 -1 5 526.884 205.851 1
-1 5 10 190.846 213.283 4
1 -5 10 413.316 130.742 1
1 10 5 349.991 186.915 2
5 -10 1 372.245 193.185 1
5 10 -1 448.135 154.914 3
1 5 -10 328.259 123.414 3
-3 -5 -10 6528.93 700.537 4
10 -5 -3 7824.83 665.746 1
10 -3 5 7803.42 660.834 1
-3 5 10 7617.18 659.716 4
3 -10 -5 7773.75 650.733 1
3 -10 -5 7720.03 619.623 2
-3 -5 -10 7892.91 692.149 3
-10 3 5 8793.22 693.914 2
-5 3 -10 7228.46 575.909 2
3 -5 10 8012.25 590.233 2
5 -10 3 8069.78 660.022 1
-10 3 5 7747.76 640.848 1
5 3 10 6831.61 624.456 3
-3 5 10 7202.02 438.398 2
-10 5 -3 7648.48 692.45 2
3 -5 10 8343.83 514.675 1
5 -3 -10 7953.26 507.717 1
-3 10 -5 7037.85 638.596 1
-3 -10 5 8952.47 661.671 1
-3 10 -5 8371.03 712.317 2
-10 -3 -5 7257.73 600.561 4
3 5 -10 7378.54 439.197 1
-5 10 3 7967.6 683.618 2
-3 -10 5 7483.22 658.302 2
-3 5 10 6869.19 506.642 1
5 3 10 6855.89 666.749 4
5 -10 3 7839.99 677.368 2
-5 10 3 7035.58 663.643 1
3 10 5 8074.64 668.278 3
-5 -3 10 8513.55 478.211 3
-5 -10 -3 7386.82 590.657 3
-10 5 -3 8552.02 706.91 1
5 10 -3 7799.64 464.117 3
5 10 -3 7301.32 631.74 1
-3 5 10 7051.59 632.902 3
3 10 5 6799.23 633.124 1
10 -5 -5 324.602 221.166 1
-5 10 -5 442.632 255.524 2
-10 5 -5 684.34 275.545 1
-5 10 -5 187.819 207.894 1
5 10 -5 84.1906 206.816 1
5 5 -10 122.786 119.645 1
5 5 10 169.067 241.58 4
-10 5 5 203.895 179.726 2
5 10 -5 131.232 69.3303 3
5 -5 -10 513.792 254.14 4
5 -5 10 161.908 148.514 1
-5 10 5 -31.6295 216.298 1
5 -5 -10 5.24214 145.284 1
10 -5 -5 -5.76759 127.588 4
5 -10 5 202.779 216.971 2
-5 5 -10 -118.571 190.323 2
-5 5 10 350.499 180.698 1
-5 5 10 82.985 129.158 2
10 -5 5 257.343 194.929 1
5 5 10 -14.1749 173.949 3
5 -10 -5 -130.082 192.908 2
-10 5 -5 461.015 220.098 2
-10 -5 -5 212.236 198.188 4
10 5 5 203.152 213.358 4
5 10 5 218.6 221.808 1
5 -5 10 198.242 175.558 2
-5 5 10 -53.3674 197.096 4
-5 -10 5 -129.409 185.194 2
-5 5 -10 67.6765 156.233 1
5 -10 -5 222.416 181.784 1
-5 -10 -5 177.757 224.33 4
5 10 5 571.634 229.084 3
-5 -5 -10 -145.158 254.789 4
-5 10 5 6.64256 185.542 2
-10 -5 -5 309.261 219.506 3
5 -5 -10 255.402 147.915 2
10 -5 5 -22.7271 192.893 2
-5 -10 -5 462.611 227.087 3
5 -10 5 398.346 263.134 1
-10 5 5 -18.2329 188.648 1
-5 -5 10 171.728 81.961 3
-5 -5 -10 447.805 238.355 3
4 -6 -10 6140.36 488.586 1
4 6 10 4938.93 576.898 4
-10 -6 -4 5518.7 539.19 4
-4 -10 -6 5590.95 545.287 2
-4 -6 10 5987.67 497.024 2
-10 4 -6 4852.02 547.242 1
10 4 6 5758.01 528.837 4
4 -10 6 5971.44 560.202 1
-4 10 6 6008.96 579.796 2
-4 6 -10 5764.61 541.157 2
-6 10 -4 6155.72 634.248 2
4 -10 6 5927.16 592.466 2
-6 10 -4 5090.72 564.776 1
-6 4 10 5456.8 468.464 1
-6 4 10 5985.05 531.758 4
-4 6 -10 5481.72 476.904 1
6 -10 -4 5793.73 581.118 1
6 -10 -4 5560.84 562.573 2
-10 6 4 4806.13 554.013 1
-10 6 4 5772.39 582.232 2
-6 -4 -10 4918.09 571.906 3
4 -6 -10 5522.8 418.497 2
-6 4 10 5595.24 434.775 2
6 10 4 5339.65 577.066 1
-10 4 -6 5428.02 584.431 2
10 -4 -6 5875.81 555.465 1
4 -6 -10 5792.73 588.694 4
6 -4 10 5968.22 524.93 2
-6 -4 -10 4837 594.675 4
10 -6 4 5924.77 592.767 1
-4 -10 -6 5076.18 553.784 3
-4 -10 -6 4880.58 572.025 4
-4 -10 -6 5132.71 558.398 1
6 10 4 5143.49 526.556 3
-10 -6 -4 5558.97 559.391 3
10 -4 -6 5529.64 395.759 4
-4 10 6 4325.18 528.835 1
6 -4 10 5085.61 457.968 1
4 6 10 4936.39 558.987 3
4 10 -6 4289.85 265.586 3
4 6 10 4962.36 464.969 1
10 -6 4 5183.64 570.313 2
4 10 -6 5103.91 532.002 1
2 -6 -10 15435 811.102 1
-2 -10 -6 14291.5 982.14 4
-6 2 10 15867 762.682 2
-2 -10 -6 13668.5 879.202 2
-2 -6 10 16132.1 861.331 2
2 -6 -10 14529.8 985.19 4
2 -10 6 14712.3 961.484 2
-2 10 6 13278 912.895 1
-6 10 -2 15699.5 1039.77 2
-10 2 -6 16304.1 1028.71 2
-6 2 10 15358.7 771.039 1
2 -6 -10 13989.8 704.02 2
2 -10 6 16779.7 943.227 1
10 -2 -6 16848.4 952.983 1
-10 6 2 15118.6 1000.81 1
-10 -6 -2 16001.2 886.325 4
6 -10 -2 16781.3 1008.92 1
6 -2 10 15066.4 810.97 1
-10 6 2 17041.5 1053.23 2
-2 -6 10 17246.4 736.234 1
2 10 -6 16589.5 1010.35 2
2 6 10 14608.5 996.526 4
6 2 -10 14936.5 715.549 1
10 -6 2 15575 986.416 1
-2 6 -10 16197.3 896.204 2
2 10 -6 14449.8 914.278 1
-6 10 -2 14793.3 1003.47 1
6 10 2 14272.5 868.034 3
6 -10 -2 16051.5 983.688 2
-6 2 10 15200.6 901.866 4
10 2 6 15639.9 905.929 4
2 6 10 13520 801.85 1
10 -6 2 14090.5 966.242 2
-6 -2 -10 12677.5 927.626 3
-2 6 -10 14751.2 769.678 1
6 10 2 13801.4 954.842 1
2 6 10 14678.8 965.856 3
-6 -10 2 14124.9 723.194 3
-2 10 6 14738.7 924.125 2
-2 -10 -6 15342.3 978.809 1
10 -6 0 16698.7 1012.98 1
6 0 10 13520.2 755.011 1
6 0 -10 13741.4 697.357 1
0 -10 -6 13052.7 919.806 4
0 6 10 14266.7 953.772 4
-10 6 0 14522.8 991.539 2
0 6 -10 14621.7 811.686 2
0 10 -6 14358.1 941.684 2
0 -10 -6 12940.3 812.384 2
0 -6 -10 13993.7 770.857 1
0 -6 10 14608.5 815.367 2
-10 0 6 13340.4 609.656 4
-6 10 0 13226.4 957.698 2
6 -10 0 12711.1 897.412 2
0 10 -6 13447.2 878.073 1
0 10 6 13872.6 886.102 2
-6 -10 0 13190.4 749.473 3
-10 6 0 14908.8 988.407 1
6 -10 0 13086.8 902.771 1
0 6 -10 14011.5 690.578 1
-6 0 -10 13008.3 892.005 3
0 -10 6 15294.3 875.631 1
6 10 0 12872.6 910.128 1
0 6 10 14327.5 932.874 3
10 -6 0 14463.4 946.284 2
0 -10 6 14046.6 918.417 2
-6 10 0 12810.3 933.536 1
6 0 10 12133.8 894.725 4
0 6 -10 13308 682.86 3
0 6 10 11894.4 729.947 1
0 10 6 12347.5 867.795 1
0 -6 -10 13256.3 638.102 2
0 -6 -10 12831.6 972.022 4
10 0 -6 15128.2 873.488 1
10 0 6 13025.2 811.232 4
6 10 0 13957.7 779.349 3
-6 0 -10 12886.8 771.481 2
0 10 6 14640.2 987.382 3
0 -10 -6 13193.8 874.5 1
10 0 6 14838 906.819 1
0 -6 10 15869 701.269 1
-2 -6 -10 14580.4 987.918 3
6 10 -2 14018.3 939.599 1
2 6 -10 16171.7 743.803 1
2 10 6 15378.7 995.243 3
-2 -6 -10 14386.6 720.12 2
2 -10 -6 14459 970.465 4
-2 6 10 13896.7 690.072 2
-2 10 -6 16265.9 1016.39 2
2 10 6 12605 923.356 1
-2 6 10 15188 975.118 4
-6 -10 -2 14104.7 852.555 3
2 -10 -6 15057.4 897.042 2
-10 2 6 15927.6 937.77 1
-6 10 2 15387.9 1007.98 2
2 -6 10 17208 792.67 1
6 10 -2 14492.6 749.652 3
6 -10 2 14319.4 970.469 2
-2 6 10 12648.1 774.548 1
-2 -10 6 14608.1 951.93 2
6 -10 2 15837.4 980.058 1
-10 6 -2 15234.8 1035.3 2
-2 10 -6 14800.5 939.525 1
6 2 10 15672.7 1021.86 4
-10 6 -2 15350.5 1013.9 1
6 -2 -10 15783.6 784.059 1
2 -6 10 15492.4 883.839 2
2 -10 -6 15490.9 957.556 1
-2 -6 -10 14876.4 1037.33 4
10 -2 6 16093.2 960.379 1
-10 2 6 15140.8 654.95 4
-6 2 -10 15113.9 877.915 2
-6 10 2 13936 979.679 1
-2 -10 6 16589.7 920.44 1
-2 6 10 15187.2 990.912 3
2 6 -10 16242.5 680.172 3
10 -6 -2 15511.1 982.668 1
10 -6 -2 14910.8 974.448 2
-4 6 10 5342.18 424.719 2
4 -6 10 5746.05 542.286 2
-4 -6 -10 4446.15 580.73 4
4 -10 -6 5153.79 541.808 1
10 -6 -4 5750.45 568.5 1
-6 10 4 5604.63 580.741 2
-6 -4 10 6173.45 374.528 3
6 10 -4 5319.39 551.36 1
4 -6 10 5423.85 453.14 1
4 -10 -6 5815.05 534.822 2
-4 -10 6 6154.3 550.827 1
6 -10 4 4820.13 563.37 2
6 -4 -10 5740.73 469.608 1
-6 -10 -4 5411.08 578.219 4
6 -4 -10 4634.39 497.294 4
4 6 -10 5524.39 413.09 1
6 -10 4 5859.3 568.987 1
-6 4 -10 5246.08 478.431 1
-10 6 -4 5386.99 592.328 1
-10 4 6 5522.54 569.427 2
-4 6 10 5805.65 499.604 1
6 4 10 5173.02 588.396 4
-6 4 -10 5395.53 537.575 2
-6 10 4 5062.78 571.121 1
6 4 10 5212.04 583.847 3
-4 10 -6 5522.99 553.068 1
-10 4 6 5459.12 553.343 1
-4 10 -6 5345.08 584.813 2
-6 -10 -4 5135.78 511.451 3
10 -4 6 5407.6 557.504 1
-4 6 10 5788.63 577.902 4
-10 6 -4 5652.79 608.492 2
4 10 6 5255.51 543.416 3
-4 -10 6 5653.53 567.159 2
-4 -6 -10 5625.15 603.928 3
10 -6 -4 5267.04 557.976 2
6 10 -4 5258.39 344.608 3
-10 -4 -6 5700.63 568.141 4
4 10 6 5615.73 569.37 1
6 6 -10 11303.9 666.893 1
-6 6 10 11349.9 723.563 2
10 -6 6 11615.2 886.643 2
-10 -6 -6 10984.3 849.116 4
10 -6 6 12151.8 866.622 1
-6 -10 -6 10495.2 816.289 3
-6 -6 -10 12116.3 923.598 3
6 -6 -10 12499.1 715.86 2
6 -10 -6 11595.3 846.257 1
-6 10 -6 11539.2 885.426 1
6 -6 10 11766.3 754.435 1
6 -10 6 12511.8 907.897 2
-10 6 -6 12008.5 896.981 1
6 -10 -6 10777.5 801.659 2
6 -6 -10 12323.9 752.121 1
-10 6 -6 11109.7 916.284 2
-6 6 -10 11527.6 770.222 1
-10 6 6 12489.3 868.667 2
6 -10 6 12167 844.401 1
6 -6 10 11281 818.41 2
-6 6 10 10973.6 777.64 4
-6 10 6 11737 859.48 2
-6 -6 10 11124.9 470.701 3
6 10 6 10660.3 825.107 3
6 6 10 10435.4 862.548 4
6 -6 -10 10729.5 808.025 4
10 -6 -6 11297.9 664.814 4
-10 6 6 11382.7 855.211 1
10 6 6 10600.6 779.323 4
-6 10 6 10031.5 829.51 1
-10 -6 -6 11942.2 867.395 3
10 -6 -6 12452.5 863.607 1
-6 6 -10 12166.3 872.873 2
-6 6 10 10529.2 747.805 1
6 10 6 9038.03 773.562 1
6 10 -6 10960.9 792.472 1
7 -10 -5 1789.58 374.378 1
5 7 10 1525.92 299.655 1
-10 7 5 1793.65 354.928 2
7 10 5 1469.4 336.979 1
-5 -7 10 1715.82 302.653 2
-10 5 -7 1512.4 347.452 2
5 10 -7 1501.14 313.679 1
-10 5 -7 1780.58 366.417 1
-7 5 10 1426.81 305.027 4
-5 10 7 1674.2 326.282 2
-5 7 -10 1251.25 256.589 1
-7 5 10 1610.78 290.766 1
-5 10 7 1430.84 341.102 1
10 -5 -7 1724.53 256.611 4
5 -10 7 1614.32 366.396 2
7 -10 -5 1691.52 314.873 2
-5 -10 -7 1620.8 340.782 3
-10 7 5 1609.27 376.277 1
-7 10 -5 1270.92 340.839 1
-10 -7 -5 1089.48 296.127 4
-7 5 10 1485.43 278.297 2
5 -7 -10 1918.82 365.646 4
7 10 5 1031.13 278.086 3
10 5 7 1241.27 305.984 4
10 -7 5 1261.93 324.457 1
5 7 10 1754.9 386.439 4
5 -7 -10 1566.47 273.466 2
5 -7 -10 1275.99 263.744 1
5 -10 7 1300.81 306.12 1
10 -7 5 1962.32 391.694 2
10 -5 -7 2395.95 388.41 1
-5 7 -10 1858.51 343.423 2
-10 -7 -5 2074.49 359.895 3
7 -5 10 1698.4 327.668 2
-7 -5 -10 1832.34 366.243 3
7 -5 10 1542.79 302.528 1
-7 -10 5 1316.9 156.617 3
-3 -10 -7 -175.731 213.974 2
3 -7 -10 188.83 193.482 1
7 -10 -3 411.224 222.849 1
-10 7 3 66.4621 227.974 2
-3 -7 10 233.046 185.441 2
-7 3 10 321.275 226.226 4
-7 3 10 636.582 193.961 1
-10 -7 -3 45.9245 194.41 3
-3 10 7 428.713 248.561 2
-3 10 7 259.551 244.571 1
-10 -7 -3 230.065 189.89 4
3 -7 -10 -119.685 231.972 4
-7 10 -3 397.813 249.7 1
-3 -10 -7 230.811 208.296 3
-3 7 -10 265.078 218.311 2
10 -3 -7 52.8826 182.577 1
-10 7 3 347.318 267.792 1
7 10 3 74.1361 180.785 3
3 10 -7 430.205 213.133 1
7 -3 10 158.006 166.195 1
3 -10 7 -31.0453 184.133 2
3 -7 -10 50.8556 133.475 2
10 3 7 347.169 244.238 4
-7 3 10 -64.9965 152.149 2
10 -7 3 73.6281 196.864 1
7 -10 -3 620.857 253.694 2
3 -10 7 489.82 230.478 1
10 -7 3 302.301 259.823 2
3 7 10 727.536 298.692 4
-3 7 -10 464.118 205.226 1
7 10 3 520.32 267.49 1
-10 3 -7 244.94 248.655 2
-3 -10 -7 627.57 268.159 1
3 7 10 74.3298 235.331 3
7 -3 10 434.079 228.237 2
-7 -3 -10 -62.264 231.659 3
3 7 10 -52.1132 181.598 1
-7 -10 3 398.005 124.317 3
-1 -10 -7 2033.95 392.32 4
7 -1 10 1900.85 295.656 1
1 7 10 1348.25 306.638 3
-1 -7 10 2257.22 275.011 1
-1 -10 -7 1245.72 272.272 2
1 -7 -10 1948.3 310.824 1
-10 -7 -1 1619.09 288.284 3
-1 7 -10 2138.45 332.714 2
-1 7 -10 1722.99 266.543 1
-1 10 7 1421.67 326.08 1
7 10 1 2079.16 382.992 1
-1 -7 10 2433.96 343.808 2
1 -10 7 2556.25 395.349 2
-1 10 7 2205.86 433.32 3
1 -7 -10 1813.24 248.214 2
7 10 1 2068.54 302.01 3
1 7 10 1565.54 260.394 1
7 -10 -1 1912.68 372.163 2
7 1 -10 1457.9 223.208 1
1 -10 7 2322.94 331.957 1
-7 10 -1 2023.47 406.488 2
10 -1 -7 1761.88 300.112 1
-7 10 -1 1515.28 332.971 1
-10 7 1 1353.56 329.209 1
1 10 -7 2603.53 396.821 2
1 10 -7 2090.34 344.54 1
-7 1 10 2032.93 334.62 4
-7 -10 1 1793.71 254.866 3
7 -10 -1 1616.98 347.008 1
-10 1 -7 1948.93 387.658 2
10 -7 1 2392.9 384.588 1
-7 -1 -10 1300.97 312.967 3
1 7 10 1622.22 368.835 4
1 -7 -10 1597.18 383.345 4
10 1 7 1762.27 339.82 4
-1 -10 -7 1833.73 344.363 1
10 -7 1 2051.16 363.832 2
-10 7 1 1931.81 368.294 2
-1 10 7 2097.54 331.953 2
-10 7 -1 2038.63 376.157 1
-1 -7 -10 1703.8 301.633 1
7 -10 1 1846.15 316.285 1
-1 7 10 1587.18 219.733 2
7 -1 -10 1883.82 262.468 1
10 -7 -1 1604.85 350.099 2
-1 -7 -10 1426.58 216.97 2
-1 7 10 2278.5 393.802 4
-1 -10 7 2530.9 348.836 1
-10 1 7 1628.34 215.747 4
-7 1 -10 1509.53 274.912 2
1 -10 -7 1738.19 295.257 2
-1 -10 7 1334.45 323.617 2
1 -7 10 1547.97 310.214 2
1 10 7 1237.48 283.906 1
10 -7 -1 1782.35 335.91 1
-7 -10 -1 1680.95 286.568 3
-7 10 1 2177.52 400.691 2
1 -7 10 2452.44 285.427 1
-1 7 10 1786.04 293.212 1
1 7 -10 2143.62 327.387 2
7 -10 1 2019.13 354.971 2
-1 -7 -10 1723.48 390.701 4
-7 10 1 1887.49 377.384 1
-1 10 -7 1696.43 361.584 2
1 7 -10 1760.72 206.695 3
1 -10 -7 2153.2 344.207 1
7 1 10 1506.72 347.09 4
7 10 -1 1600.44 332.578 1
1 -10 -7 1689.25 354.077 4
-10 7 -1 1544.23 342.401 2
10 -1 7 1681.78 327.913 1
10 1 -7 1756.31 303.879 1
7 10 -1 2116.24 279.146 3
1 7 -10 1872.5 268.855 1
-1 7 10 1711.96 351.168 3
1 10 7 1566.63 343.369 3
-1 10 -7 2143.84 354.123 1
-1 -7 -10 1669.99 346.429 3
-7 -10 -3 60.8985 157.183 3
7 -10 3 338.727 242.098 1
-3 10 -7 263.656 205.177 1
-3 -7 -10 42.4952 196.335 3
-10 3 7 447.259 207.744 2
-3 7 10 569.732 258.732 3
-3 -10 7 289.88 187.875 1
-3 -10 7 442.574 236.491 2
7 10 -3 433.018 249.195 1
-3 7 10 -155.307 155.088 2
3 7 -10 151.434 73.4123 3
3 10 7 -60.2596 205.636 1
-10 3 7 341.816 186.768 1
3 7 -10 362.039 183.533 1
3 -10 -7 140.067 157.358 2
-7 10 3 210.766 211.314 2
-7 3 -10 -82.5907 185.631 2
-7 10 3 225.384 225.155 1
3 -10 -7 416.092 232.623 1
7 -3 -10 307.84 176.346 1
10 -7 -3 682.074 268.831 1
10 -3 7 384.12 227.983 1
7 3 10 154.001 241.851 4
-3 7 10 426.756 272.666 4
7 -10 3 63.9703 184.436 2
-3 10 -7 335.585 251.285 2
3 -10 -7 -14.0775 232.977 4
3 10 7 20.7441 186.549 3
-10 3 7 88.2256 124.545 4
-3 7 10 270.272 199.108 1
10 -7 -3 240.355 207.318 2
3 -7 10 264.153 180.637 1
-10 -3 -7 151.073 193.963 4
3 -7 10 183.071 198.354 2
-10 7 -3 -231.829 257.648 1
10 -7 -5 2340.62 381.037 1
-7 10 5 1763.14 384.364 1
7 -5 -10 1856.17 318.568 4
-7 5 -10 1459.93 330.025 2
5 7 -10 2132.83 288.464 1
7 -5 -10 1972.92 307.014 1
-10 -5 -7 1155.68 351.038 4
-7 -10 -5 1495.07 307.817 3
7 -10 5 1597.01 322.897 1
10 -5 7 1683.39 379.498 2
-10 5 7 1921.76 344.058 2
-5 -10 7 1131.86 301.631 2
10 -7 -5 1095.69 301.618 2
-5 10 -7 1753.65 379.066 2
5 10 7 1433.82 343.453 1
-5 7 10 1473.75 267.357 2
-7 10 5 1692.28 381.648 2
-5 7 10 1456.14 309.875 1
7 10 -5 1248.59 271.09 1
10 -5 7 2013.23 358.639 1
-5 10 -7 1500.2 331.589 1
5 -10 -7 1398.41 307.634 2
-5 -7 -10 1107.39 327.683 3
5 -10 -7 1921.23 361.721 1
-7 -10 -5 1100.47 293.158 4
-10 7 -5 1518.57 348.091 1
5 -7 10 1431.57 314.503 2
5 -7 10 1943.81 314.977 1
7 -10 5 1763.65 372.647 2
-5 7 10 1658.71 332.555 4
5 -10 -7 1715.82 354.526 4
-10 5 7 1523.02 299.861 1
10 -7 -5 1507.71 272.999 4
-7 5 -10 1440.81 297.914 1
-10 -5 -7 1662.21 353.493 3
7 5 10 1741.89 369.957 4
5 10 7 1663.15 355.577 3
7 -10 -7 3494.11 464.571 4
7 -10 7 4052.81 506.854 1
-7 -10 -7 3859.7 521.176 3
7 10 7 3337.9 482.508 1
-10 -7 -7 3187.09 465.08 3
7 -7 10 4131.41 461.104 1
-10 7 -7 3774.09 522.552 1
7 7 10 3772.84 509.052 4
7 7 -10 3965.79 403.56 1
-7 7 10 4459.1 487.967 2
7 -10 -7 4395.9 507.272 2
7 -7 -10 4253.76 462.676 1
-7 10 7 4275.03 533.842 2
-7 7 -10 4260.11 544.395 2
10 -7 -7 4047.34 420.708 4
7 7 10 3708.92 454.488 1
-7 10 7 3560.91 508.989 1
10 -7 -7 4311.23 528.771 1
7 -7 -10 4139.71 449.307 2
10 -7 -7 4201.43 499.924 2
-10 -7 -7 3248.47 465.949 4
-10 7 7 3641.01 490.758 2
7 -10 7 4248.51 540.725 2
10 7 7 3864.81 495.34 4
7 -7 10 3339.58 466.063 2
-10 7 7 3063.14 463.681 1
-7 7 10 3735.42 459.998 4
10 -7 7 3583.49 506.005 2
7 10 -7 3639.17 458.664 1
-7 7 -10 3484.35 480.719 1
-7 10 -7 3929.04 537.275 1
10 -7 7 4011.88 499.555 1
7 -7 -10 3492.64 454.931 4
-7 7 10 4136.26 488.75 1
7 -10 -7 4479.97 525.408 1
-7 -7 -10 4723 596.822 3
-8 10 -6 5718.95 640.829 1
-10 6 -8 5624.31 633.367 1
8 10 6 4611.93 565.754 1
-6 -8 10 5991.31 550.642 2
8 -6 10 5649.07 552.583 1
-10 8 6 5640.39 632.802 1
6 8 10 5520.3 565.621 1
-6 10 8 6642.81 622.149 2
6 -8 -10 5339.88 584.335 4
6 -8 -10 5813.1 551.953 1
10 -6 -8 6835.59 629.337 1
6 -10 8 5617.99 626.594 2
-8 -6 -10 4983.15 609.489 3
-8 6 10 5576.38 540.301 2
8 -10 -6 7024.52 660.464 2
6 -10 8 5627.28 577.38 1
6 -8 -10 5394.68 511.215 2
-6 8 -10 6483.74 660.376 2
-10 -8 -6 5645.79 623.027 4
8 -6 10 4868.62 578.991 2
10 6 8 5585.81 594.967 4
-8 6 10 5265.36 517.426 4
-10 8 6 4990.56 580.74 2
10 -6 -8 5590.79 500.03 4
6 8 10 5125.37 606.08 4
-6 8 -10 5916.39 577.016 1
10 -8 6 4963.9 589.475 2
-6 10 8 4851.23 579.117 1
-6 -10 -8 5038.09 587.532 3
-8 -10 6 4804.76 293.308 3
-8 6 10 5643.8 569.998 1
6 10 -8 5315.43 541.918 1
-10 -8 -6 5399.61 586.422 3
-8 4 10 6716.52 562.099 4
-4 -10 -8 6315.4 579.677 2
-10 8 4 6494.8 676.566 1
4 -8 -10 7533.54 587.811 1
4 -10 8 6952.13 673.536 2
-4 8 -10 7111.42 664.036 2
-8 -4 -10 6079.28 662.336 3
-10 4 -8 5783.36 604.776 1
-8 4 10 6435.73 537.828 2
-4 10 8 6271.85 594.955 2
4 -10 8 7074.65 607.373 1
4 -8 -10 6985.42 538.314 2
-10 8 4 6754.56 690.45 2
-10 -8 -4 6241.46 593.288 3
8 -4 10 7022.75 598.329 1
8 -10 -4 6203.02 624.582 2
-8 4 10 6293.9 561.699 1
-10 4 -8 6369.85 662.314 2
-4 10 8 5334.18 594.1 1
10 -8 4 6567.94 676.365 2
-10 -8 -4 5717.33 583.643 4
10 -4 -8 6342.54 498.169 4
4 -8 -10 5493.65 612.774 4
4 8 10 5808.18 566.224 1
4 8 10 6618.69 685.32 4
8 -4 10 6542.34 599.984 2
10 4 8 6318.34 616.042 4
8 10 4 5730.75 582.324 3
4 10 -8 6633.91 583.595 1
-8 -10 4 7375.5 423.19 3
-4 8 -10 6181.38 558.277 1
8 10 4 5712.47 619.569 1
-4 -10 -8 6323.65 634.391 3
-8 10 -4 6720.24 686.305 1
10 -4 -8 6708.74 606.598 1
-4 -8 10 6391.55 569.528 2
-8 -4 -10 4780.59 611.247 4
-10 2 -8 4838.92 585.804 2
8 10 2 4367.14 533.194 1
2 8 10 4972.55 579.81 4
-2 -10 -8 4793.69 483.961 2
-2 10 8 5026.51 499.947 2
2 10 -8 5154.78 509.84 1
2 -10 8 5758.85 515.489 1
10 2 8 5502.23 544.775 4
2 -10 8 5392.56 577.683 2
2 -8 -10 5107.03 598.691 4
10 -2 -8 6060.58 549.04 1
-2 8 -10 4923.61 464.368 1
2 -8 -10 4926.18 422.312 2
-8 -10 2 4745.11 390.574 3
-10 8 2 6104.85 636.724 2
-10 8 2 4682.4 587.229 1
-2 -8 10 5903.06 447.148 1
10 -8 2 5786.58 600.513 2
-10 -8 -2 5509.43 542.333 4
8 -2 10 5129.02 499.721 1
8 2 -10 4991.01 422.597 1
-8 2 10 4828.24 477.345 4
8 10 2 4726.18 490.538 3
-8 2 10 5821.88 483.126 1
-2 -8 10 5326.83 518.093 2
-2 8 -10 5672.61 540.949 2
-8 -2 -10 5187.54 591.084 3
-10 -8 -2 5166.9 495.996 3
2 -8 -10 5540.12 507.004 1
-8 10 -2 5450.27 639.164 1
-2 -10 -8 5035.39 538.365 1
2 10 -8 5235.5 582.508 2
-2 10 8 4652.65 528.632 1
2 8 10 4611.13 481.413 1
8 -10 -2 4542.7 539.638 2
10 0 8 6283.21 597.781 4
8 -10 0 6702.11 655.151 2
-10 -8 0 6934.82 543.717 3
0 10 8 6052.34 556.601 2
0 8 -10 8138.42 646.53 2
0 10 -8 7888.78 675.623 2
0 -8 -10 6233.01 470.701 2
0 -8 10 8713.65 553.816 1
0 8 10 6780.61 576.499 1
0 -10 8 7307.4 646.097 2
0 10 8 5313.95 566.132 1
0 -10 -8 6902.08 626.003 1
0 -8 10 7754.16 629.112 2
8 0 10 6416.26 556.164 1
10 0 8 6957.92 619.578 1
-8 0 10 5908.25 524.98 4
-10 0 8 6996.01 474.885 4
8 0 10 6312.48 642.445 4
0 10 -8 7792.36 628.051 1
-8 10 0 7207.41 717.71 1
8 0 -10 7242.01 525.094 1
10 0 -8 7525.07 613.07 1
0 8 -10 6872.47 529.341 1
-8 0 -10 6802.36 598.005 2
-10 8 0 6499.63 675.248 1
10 -8 0 7660.57 703.637 2
8 10 0 5925.83 629.261 1
0 8 10 6003.74 633.241 4
0 -10 8 7826.46 598.322 1
-8 -10 0 6738.23 525.173 3
0 -8 -10 6794.61 576.326 1
0 -10 -8 6669.94 553.616 2
8 10 -2 4213.39 511.457 1
-2 -8 -10 4843.55 423.454 2
-2 8 10 5062.27 438.721 2
8 -2 -10 4964.96 455.174 1
2 10 8 4980.9 536.667 1
-10 2 8 5018.81 393.751 4
2 8 -10 4624.64 301.212 3
2 -8 10 5692.57 467.898 1
-2 -8 -10 5042.91 500.985 1
2 -10 -8 5025.76 483.606 2
-10 2 8 5641.98 533.399 1
2 -8 10 5444.38 562.799 2
-10 8 -2 4848.26 579.621 1
-8 10 2 5682.92 614.294 2
-2 8 10 4463.12 474.17 1
-2 8 10 5172.25 597.151 4
-8 2 -10 4339.94 491.663 2
8 -10 2 4477.19 557.209 2
10 2 -8 5353.25 503.016 1
10 -2 8 5596.83 559.437 1
-10 -8 2 5482.39 451.926 3
-2 10 -8 5346.08 536.49 1
10 -8 -2 5516.68 604.169 2
2 -10 -8 4200.53 492.72 1
8 2 10 4190.42 542.962 4
-2 -10 8 5309.78 547.946 2
-2 10 -8 5320.5 574.014 2
2 8 -10 5560.96 464.451 1
-8 10 2 5216.72 621.475 1
-2 -8 -10 5216.49 588.958 3
-8 -10 -2 5082.24 493.519 3
-2 -10 8 5705.88 501.586 1
2 -10 -8 4592.4 585.989 4
-4 -10 8 6507.01 613.859 2
4 -10 -8 6511.56 574.259 2
4 -8 10 7389.4 582.513 1
-4 8 10 6687.39 535.926 2
-4 10 -8 7035.11 690.157 2
4 -10 -8 7207.84 633.206 1
-4 8 10 6388.45 634.957 4
10 -4 8 6409.14 601.527 1
-8 10 4 6510.96 678.07 2
4 -8 10 6357.66 615.361 2
-10 8 -4 6372.96 685.437 1
-8 -10 -4 4718.2 581.924 4
-8 4 -10 6693.77 645.989 2
8 -10 4 6650.1 670.358 2
-10 4 8 6240.52 473.121 4
-10 4 8 7339.02 638.422 2
-4 8 10 5187.26 539.353 1
10 -8 -4 6167.2 621.173 2
-10 -4 -8 5934.47 640.174 4
8 10 -4 6124.69 618.774 1
4 -10 -8 5402.25 583.899 4
-10 -4 -8 6030.84 659.978 3
-4 10 -8 6910.11 621.261 1
-10 4 8 6071.61 594.517 1
-8 4 -10 5864.4 563.524 1
8 4 10 6174.92 654.153 4
4 10 8 5804.69 599.024 1
8 -4 -10 6804.02 565.076 1
-8 10 4 6819.84 675.92 1
-8 -10 -4 6618.25 609.04 3
-4 -10 8 7628.25 586.599 1
-4 -8 -10 6181.61 659.246 3
8 -4 -10 5693.77 542.651 4
4 8 -10 6418.51 512.106 1
-8 -10 -6 6408.43 633.483 3
10 -6 8 6118.05 615.786 1
10 -6 8 5258.32 584.648 2
-6 -10 8 5932.27 614.189 2
8 -10 6 5820.64 657.215 2
10 -8 -6 5769.52 501.095 4
-6 10 -8 5977.45 630.252 1
-8 10 6 5315.42 620.305 2
6 -10 -8 5368.07 584.596 1
-10 -6 -8 5596.99 615.559 4
8 -6 -10 6286.04 570.742 1
-8 6 -10 5540.09 615.601 2
-10 6 8 4995 579.117 1
-10 8 -6 5603.17 657.934 1
6 -10 -8 6176.1 584.125 2
6 -8 10 6576.98 650.471 2
6 -10 -8 5711.46 598.895 4
6 -8 10 6588.18 580.425 1
-8 10 6 4739.74 581.633 1
8 -6 -10 6464.58 601.584 4
-8 6 -10 5490.74 570.446 1
-10 6 8 6491.12 620.393 2
-10 -6 -8 5147.22 607.494 3
-6 8 10 5274.34 544.401 1
6 10 8 5267.99 586.431 1
-6 8 10 5841.37 543.307 2
-6 -8 -10 5287.47 640.983 3
6 8 -10 5808.69 503.969 1
8 10 -6 5116.6 559.413 1
10 -8 -6 6155.7 627.261 2
8 6 10 5913.42 651.567 4
8 -10 -8 2429.6 385.559 4
10 -8 -8 2741.91 427.08 2
-8 8 -10 2449.75 443.29 1
8 -8 -10 2927.48 432.957 1
8 10 8 1422.25 361.287 1
-10 8 -8 1516.23 370.529 1
8 -10 -8 2668.57 435.4 2
-8 -10 -8 2303.86 435.513 3
8 10 -8 2494.09 390.01 1
-8 8 10 2478.37 428.4 1
8 -8 10 2359.29 395.9 1
8 8 10 2151.51 437.827 4
-8 10 -8 2737.02 472.768 1
10 -8 8 3189.12 504.411 2
-10 8 8 2023.16 404.032 1
8 8 10 1470.81 345.639 1
8 -8 -10 1665.24 361.223 4
-8 10 8 2516.92 415.28 2
-8 8 10 2324.82 384.223 2
8 -8 10 2307.25 433.361 2
8 -10 8 1772.12 411.089 2
10 -8 -8 2235.39 360.45 4
-10 8 8 2695.06 445.856 2
-8 10 8 1422.95 346.553 1
10 8 8 2214.36 443.076 4
8 -8 -10 2214.64 376.637 2
8 8 -10 2157.89 350.267 1
-10 -8 -8 1649.09 371.792 3
-8 -8 -10 1909.88 401.306 3
9 -10 -7 2639.11 432.452 2
9 10 7 1843.24 399.2 1
-7 -10 -9 2167.13 407.301 3
7 -10 9 1808.93 364.99 1
-10 9 7 1783.82 407.838 2
9 -7 10 1926.61 399.5 2
10 -9 7 2456.73 443.84 2
-9 10 -7 2470.63 461.148 1
-10 9 7 1887.43 404.05 1
-7 9 -10 1894.2 378.49 1
-9 7 10 2110.43 409.938 1
7 9 10 1696.86 338.913 1
-7 10 9 2283.8 405.775 2
-10 7 -9 1327.27 333.839 1
7 -9 -10 1744.5 364.829 4
7 -10 9 1580.47 393.985 2
7 10 -9 1606.84 331.059 1
7 9 10 1968.64 429.57 4
9 -7 10 1831.88 365.881 1
7 -9 -10 2183.92 365.373 2
10 7 9 2336.56 436.159 4
-9 -7 -10 1751.17 400.671 3
-10 -9 -7 1604.94 357.991 3
10 -7 -9 2458.88 421.116 1
-9 -10 7 1514.43 152.157 3
7 -9 -10 2202.39 388.591 1
-7 10 9 2021.35 402.964 1
9 -10 -7 1741.26 347.29 4
10 -7 -9 2264.15 334.169 4
-9 7 10 1750.95 349.808 2
-5 -9 10 3010.97 419.115 2
5 9 10 2780.94 469.384 4
5 -9 -10 3003.11 388.631 2
-9 10 -5 2634.27 463.446 1
9 -5 10 2899.89 421.062 1
-9 5 10 2985.71 411.059 1
-5 10 9 3205.06 427.988 2
-10 9 5 1963.63 421.064 1
-5 10 9 2640.25 411.203 1
5 10 -9 3303.92 424.24 1
5 -9 -10 2910.53 485.27 4
9 -10 -5 3186.93 477.141 2
-5 9 -10 2789.33 464.147 2
10 5 9 3006.31 461.19 4
-9 5 10 3033.05 367.321 4
-5 -10 -9 4007.29 544.073 3
10 -5 -9 3143.06 388.269 4
-9 -10 5 3196.17 262.938 3
5 -10 9 2958.76 485.713 2
9 10 5 2433.21 431.35 1
-10 5 -9 2295.2 425.878 2
-5 9 -10 2878.94 411.041 1
-9 5 10 3457.9 428.153 2
10 -5 -9 2614.17 395.005 1
9 -5 10 2440.44 424.011 2
-10 -9 -5 3804.51 520.459 4
5 9 10 2290.9 383.298 1
10 -9 5 3431.5 522.552 2
-10 5 -9 2885.08 458.006 1
-9 -5 -10 2815.02 459.54 3
5 -9 -10 2998.5 415.262 1
-10 -9 -5 3028.18 451.328 3
5 -10 9 3806.74 478.936 1
-3 -10 -9 3559.18 416.288 2
3 -9 -10 4145.96 456.522 1
-3 -10 -9 3506.04 475.666 1
-9 -3 -10 3270.7 482.884 3
-9 3 10 3625.12 419.665 1
-9 10 -3 4115.93 578.939 1
-3 -10 -9 2478.39 435.484 3
3 -10 9 4299.25 465.904 1
-9 3 10 4103.44 431.59 2
-3 -9 10 3481.59 441.762 2
-3 10 9 3307.47 420.778 2
3 9 10 3682.38 532.261 4
-10 9 3 3116.88 485.137 1
-3 -9 10 4201.68 404.258 1
3 -9 -10 3731.83 399.027 2
3 9 10 2786.58 419.692 1
-3 9 -10 3436.15 472.205 2
10 3 9 3138.39 468.656 4
3 10 -9 3549.63 427.508 1
3 -10 9 3157.45 474.051 2
10 -9 3 3729.74 509.412 2
10 -3 -9 4847.91 505.036 1
9 -10 -3 3448.44 473.939 2
-10 -9 -3 3231.75 462.296 4
-10 -9 -3 3377.98 420.413 3
-9 3 10 3635.1 397.8 4
9 10 3 3005.19 461.398 1
-3 9 -10 3156.54 406.345 1
-10 3 -9 3928.51 516.575 2
-3 10 9 3072.04 440.609 1
-9 -10 3 3562.56 329.808 3
9 -3 10 3947.87 450.211 1
1 -10 9 5836.59 510.689 1
-9 10 -1 4386.34 570.541 1
-1 10 9 4302.1 472.13 2
-1 -10 -9 4259.23 440.421 2
-1 -9 10 4175.47 484.096 2
1 -9 -10 4657.28 429.933 2
1 10 -9 4500.96 468.227 1
-1 9 -10 4274.29 489.156 2
-10 9 1 3775.01 546.582 1
10 -1 -9 5049.06 507.589 1
10 -9 1 4150.84 537.651 2
9 10 1 4247.59 538.859 1
10 1 9 4898.34 559.415 4
9 1 -10 5059.6 461.117 1
-1 9 -10 4260.86 443.666 1
1 9 10 3660.63 443.716 1
-1 10 9 3845.43 482.462 1
-9 1 10 5005.42 461.787 4
1 -9 -10 4670.68 498.28 1
9 -10 -1 4232.98 521.775 2
1 10 -9 4483.16 522.971 2
-9 -1 -10 4458.12 563.275 3
1 -10 9 5411.78 571.28 2
-9 -10 1 3949.31 391.289 3
-10 1 -9 4754.13 561.802 2
1 9 10 3231.2 488.949 4
-10 -9 -1 4888.55 482.195 3
-1 -9 10 5715.66 464.55 1
9 -1 10 4622.28 473.591 1
-1 -10 -9 3831.14 495.253 1
9 10 -1 4059.23 530.772 1
9 1 10 3719.68 518.257 4
1 -9 10 5586.42 474.338 1
-1 -9 -10 4035.82 400.448 2
-1 -9 -10 4106.75 468.892 1
1 9 -10 4436.93 504.918 2
1 -9 10 4680.95 525.084 2
-1 10 -9 4263.78 515.872 2
-1 9 10 4365.65 484.443 1
-9 -10 -1 4354.76 452.613 3
10 1 -9 4527.9 457.384 1
-1 -10 9 3698.63 467.062 2
-10 9 -1 4136.99 549.567 1
-10 -9 1 4848.27 442.479 3
-1 9 10 4202.54 422.683 2
-1 10 -9 4443.78 485.746 1
9 -1 -10 4587.69 455.426 1
10 -1 9 4433.91 488.711 1
10 -9 -1 4659.24 577.275 2
1 10 9 3656.22 468.761 1
1 9 -10 4034.21 428.128 1
-1 -10 9 5224.39 483.551 1
1 -10 -9 4484.16 445.48 2
-1 9 10 4622.61 566.509 4
-9 1 -10 3577.94 490.454 2
1 -10 -9 4278.72 508.42 1
9 -10 1 4594.81 558.19 2
-9 10 1 4205.07 551.811 1
-10 1 9 4623.07 408.052 4
-3 9 10 3092.48 439.725 1
10 -3 9 3979.74 478.35 1
-10 3 9 4049.36 472.953 1
-3 9 10 3593.14 505.531 4
3 -10 -9 4303.98 496.148 1
10 -9 -3 3428.48 481.189 2
-3 -9 -10 3972.31 419.474 2
-3 9 10 3630.3 400.576 2
3 -10 -9 3967.94 439.897 2
3 -9 10 4484.01 538.717 2
-10 -3 -9 3909.84 540.762 3
3 10 9 2745.15 418.535 1
-3 10 -9 4195.13 520.632 2
9 3 10 3886.55 497.083 4
-10 9 -3 3498.89 529.344 1
3 9 -10 3658.62 397.824 1
9 -3 -10 3614.46 421.085 1
-9 -10 -3 3587.51 439.394 3
-10 3 9 3836.96 372.271 4
3 -9 10 4156.14 439.563 1
-3 -9 -10 3492.02 512.994 3
9 -10 3 4040.71 534.722 2
-3 -9 -10 4088.07 462.452 1
9 10 -3 3315.51 459.811 1
-9 3 -10 2978.94 457.55 2
-3 -10 9 3835.46 475.871 2
-9 -10 -3 3816.98 482.783 4
-10 -9 3 4218.46 376.481 3
-3 -10 9 4797.35 457.02 1
-10 3 9 3793.69 459.966 2
-3 10 -9 3459.08 438.119 1
-9 10 3 2375.47 424.457 1
5 -9 10 3360.53 433.28 1
9 10 -5 3459.28 459.557 1
-5 -9 -10 2522.48 451.714 3
-10 -5 -9 2594.95 457.57 3
9 -5 -10 2583.62 400.417 4
-5 -10 9 2496.97 398.005 2
-10 5 9 2605.7 393.562 1
5 10 9 2626.86 427.364 1
5 9 -10 2842.87 380.287 1
5 -10 -9 3011.29 429.69 1
-9 5 -10 3032.12 472.911 2
-10 5 9 3241.04 434.305 2
9 5 10 2982.37 477.815 4
-5 9 10 2866.43 384.447 2
10 -5 9 3471.33 475.935 1
-5 9 10 3198.07 442.938 1
9 -5 -10 3360.37 417.707 1
-9 10 5 2994.91 461.118 2
10 -5 9 2993.8 457.337 2
-10 5 9 2587.13 338.959 4
5 -10 -9 2849.59 393.989 2
-9 10 5 2704.11 460.347 1
9 -10 5 2644.52 440.381 2
-9 5 -10 2760.12 399.912 1
-5 10 -9 2934.26 423.025 1
5 -10 -9 2971.93 462.633 4
10 -9 -5 3155.83 464.033 2
-10 9 -5 3408.25 532.097 1
-10 -5 -9 2650.69 469.354 4
-10 -9 5 3089.4 285.157 3
5 -9 10 3480.71 509.064 2
-9 -10 -5 2722.35 419.798 3
-7 -9 -10 1755.92 406.888 3
7 -9 10 2318.49 386.828 1
7 -10 -9 1700.62 333.86 2
-7 10 -9 2074.58 398.828 1
-10 7 9 1936.83 390.615 2
9 -7 -10 1948.88 365.085 1
10 -9 -7 1616.18 304.06 4
7 -10 -9 1829.27 388.747 4
-9 7 -10 2231.47 425.368 1
-7 9 10 1727.43 317.053 2
-9 10 7 2127.71 440.955 2
-10 9 -7 1360.17 372.351 1
-10 7 9 1177.84 325.457 1
9 -7 -10 1969.88 348.769 4
9 -10 7 1884.53 420.217 2
7 9 -10 1499.82 291.332 1
9 7 10 1813.11 375.279 4
7 -9 10 1771.73 419.664 2
10 -7 9 2582.13 429.111 1
-7 9 10 2244.01 394.407 1
-10 -7 -9 1857.92 411.747 3
7 10 9 1469.37 339.068 1
10 -7 9 1913.49 373.178 2
-10 -9 7 1709.58 185.672 3
9 10 -7 1636.95 345.701 1
-9 10 7 1944.66 430.522 1
10 -9 -7 2286.51 410.128 2
-9 -10 -7 2353.81 454.281 3
-9 -10 -9 256.865 231.72 3
9 -9 -10 -130.1 206.771 2
-10 9 9 -24.3066 249.196 1
9 -10 9 -197.46 233.379 2
9 9 10 6.31242 277.49 4
9 10 9 -297.952 240.118 1
9 10 -9 119.594 208.956 1
-9 10 9 127.556 265.653 2
-9 10 -9 136.01 240.513 1
-9 9 10 523.23 253.695 2
-10 9 9 328.891 291.83 2
10 -9 9 107.707 230.223 2
9 -10 -9 -87.7693 205.057 2
9 -9 -10 65.2575 239.126 4
10 -9 -9 288.096 243.514 4
9 -9 10 208.552 268.242 2
10 9 9 -16.6851 288.744 4
-9 9 -10 788.988 342.099 1
9 9 10 530.577 278.262 1
9 -10 -9 -220.436 272.267 4
-10 9 -9 -36.3552 221.461 1
-9 10 9 -284.015 275.794 1
9 9 -10 80.9844 212.921 1
-10 -9 -9 -163.356 293.791 3
-9 9 10 -149.981 257.242 1
10 -9 -9 -305.654 255.512 2
-9 -9 -10 -242.956 229.198 3
10 0 10 1282.46 351.402 4
0 -10 10 1808.07 364.669 2
0 -10 -10 1293.34 292.203 1
0 10 -10 1165.55 307.438 2
0 -10 10 2339.4 321.482 1
10 0 -10 2053.07 334.651 1
-10 0 10 1563.84 282.601 4
-10 10 0 1582.87 385.85 1
10 0 10 1682.26 333.785 1
-10 -10 0 1524.93 287.473 3
0 10 10 1696 336.288 1
-10 0 -10 1722.26 362.392 2
0 10 -10 1991.13 326.66 1
0 -10 -10 1770.53 302.289 2
10 -10 0 1111.96 319.911 2
2 10 10 8171.39 705.552 1
-10 10 2 9309.43 846.918 1
-10 10 -2 10666.9 918.418 1
-2 -10 -10 9534.96 672.688 2
2 -10 10 11885.4 760.99 1
10 -2 -10 10962.5 767.311 1
-2 10 -10 11033.6 839.882 2
-2 10 10 8386.8 737.036 1
2 -10 -10 9565.56 676.176 2
2 -10 10 10315.4 816.418 2
-2 10 10 9066.07 687.822 2
-2 -10 10 10022.5 793.802 2
-10 -2 -10 9669.26 861.218 3
2 10 10 10288.8 878.022 4
10 -2 10 11004.1 800.09 1
-2 -10 10 11979 727.88 1
10 -10 2 9247.56 828.704 2
10 -10 -2 10402.1 858.727 2
-10 2 -10 10264 829.954 2
-10 -10 2 9722.26 626.286 3
-2 10 -10 10129 737.173 1
10 2 10 8499.17 764.707 4
2 10 -10 10080.4 720.182 1
10 2 -10 10414.4 710.277 1
-10 2 10 10061 654.348 4
-10 -10 -2 9502.72 709.488 3
-2 -10 -10 10003.1 771.971 1
2 -10 -10 10922.2 783.612 1
-10 4 10 13291.4 902.863 1
-4 -10 10 14614.2 959.865 2
-4 -10 -10 13708.3 884.714 2
-4 10 -10 13940.1 932.64 1
-10 10 -4 13672.5 1065.91 1
-4 10 -10 14261.7 1014.09 2
-10 -10 4 13898 715.744 3
10 -4 10 14180.1 952.106 1
4 -10 10 15109.8 935.974 1
4 -10 10 14250.5 1000.35 2
4 -10 -10 15140.4 905.622 2
10 4 10 13475.3 998.84 4
-10 4 10 13037.6 789.522 4
-10 4 -10 12959 998.374 2
10 -10 -4 14785.6 1045.64 2
-4 10 10 12007.5 920.088 1
-10 4 10 14547.7 928.625 2
10 -4 -10 14687.1 940.828 1
4 -10 -10 13894.2 940.739 1
4 10 10 12183.8 920.103 1
4 10 -10 14264.4 889.28 1
-10 -10 -4 13665.1 983.959 4
4 10 10 13507.2 1033.51 4
-10 -4 -10 13761.5 1063.58 3
10 -10 4 14276.8 1058.45 2
-10 -10 -4 12961.6 927.214 3
-4 -10 -10 14327.7 1060.59 3
-10 10 4 13930.7 1064.45 1
-4 10 10 14192.4 908.921 2
10 10 -6 473.419 233.004 1
-6 10 -10 674.526 283.409 1
-6 -10 -10 575.579 271.789 3
10 -10 -6 838.559 306.153 2
-6 -10 10 486.83 225.38 2
-10 6 10 345.535 236.71 2
6 -10 -10 251.16 190.349 1
6 10 -10 250.468 185.28 1
6 -10 10 125.649 227.707 1
-10 6 -10 28.4583 216.695 1
6 -10 10 936.36 315.161 2
-6 10 10 1009.01 300.686 2
10 -6 10 609.912 211.16 1
-6 10 10 790.441 280.245 1
10 -6 -10 633.439 286.6 1
10 -6 10 202.037 238.724 2
6 -10 -10 188.074 183.869 2
-10 10 -6 517.22 288.677 1
-10 -6 -10 576.392 286.961 3
-10 6 10 513.81 250.852 1
10 6 10 334.256 256.172 4
10 -10 6 272.971 232.03 2
-10 10 6 313.003 267.918 1
6 10 10 508.645 343.902 4
6 10 10 230.743 217.504 1
-10 -10 6 638.408 131.686 3
10 -6 -10 373.557 236.639 4
-10 -10 -6 293.95 266.795 3
10 10 -8 81.2707 206.765 1
8 10 10 391.516 303.54 4
10 8 10 8.98928 256.247 4
8 10 -10 66.5131 195.524 1
10 -10 8 -172.631 252.386 2
-10 8 -10 132.257 259.098 1
-10 8 10 16.8402 220.046 2
-10 10 -8 325.458 296.298 1
-8 10 -10 194.942 233.024 1
-8 10 10 146.286 236.399 2
-10 10 8 632.251 327.008 1
8 10 10 -27.9077 248.319 1
-10 -10 -8 434.664 306.628 3
10 10 8 150.666 237.237 1
10 -8 -10 187.184 196.622 4
10 -10 -8 181.358 202.025 4
8 -10 10 403.205 278.427 2
-8 10 10 -247.515 284.461 1
-8 -10 -10 -131.864 234.118 3
10 -8 -10 -191.419 205.047 2
10 -10 -8 -152.199 203.821 2
8 -10 -10 -92.6503 198.788 2
-10 8 10 582.294 266.642 1
-10 -10 8 259.027 71.7159 3
10 -8 10 -118.743 282.528 2
-10 -8 -10 289.809 233.055 3
-10 10 10 14217.2 1101.2 1
10 -10 -10 15795.8 1083.98 2
-10 10 10 14831.8 1082.18 2
10 -10 -10 13507.9 970.918 4
-10 10 -10 15535.9 1140.05 1
10 -10 10 15651 1176.76 2
10 10 10 13397.5 1081.78 4
-10 -10 -10 13692.7 1106.37 3
10 10 10 12818.4 1039.75 1
10 10 -10 13435.3 954.114 1
-1 0 -11 675.36 227.672 3
0 11 -1 -44.7797 188.738 2
-1 11 0 933.036 289.031 2
11 -1 0 660.45 107.725 4
0 11 1 433.49 216.789 2
11 -1 0 249.495 189.849 1
0 11 1 446.924 241.282 1
-1 -11 0 656.974 236.144 2
-1 -11 0 865.989 270.922 1
0 -11 -1 764.393 257.91 1
1 -11 0 663.257 250.678 2
0 -11 1 263.723 186.348 1
1 -11 0 621.811 250.369 1
11 0 1 867.406 261.869 1
11 0 -1 721.096 244.055 1
0 -1 -11 494.597 220.851 3
1 11 0 851.492 284.456 1
0 -1 11 408.492 102.44 2
0 11 -1 589.137 265.07 1
1 0 -11 406.738 181.857 3
1 11 0 810.391 282.978 2
0 1 -11 471.25 94.4658 2
-1 11 0 678.795 271.011 1
1 0 11 447.673 185.664 3
0 -11 1 420.11 230.329 2
11 0 1 556.731 134.526 4
0 1 -11 566.763 227.251 3
0 1 11 595.924 267.461 4
0 -1 11 743.054 182.439 3
0 -11 -1 844.331 280.549 2
0 1 11 476.851 174.309 3
-1 0 11 641.699 201.208 3
1 -11 2 8632.12 671.034 1
1 11 -2 8445.45 713.642 2
-1 11 2 7207.84 646.758 2
-1 11 2 7035.15 646.729 1
2 -11 -1 8140.5 659.094 1
1 11 -2 7429.5 645.158 1
-1 2 -11 7866.39 431.996 2
-2 11 -1 7898.45 677.173 2
-1 2 -11 7534.37 569.996 3
-2 -11 1 7999.99 665.93 1
-1 -2 11 8093.8 526.863 3
1 2 11 6758.03 382.082 1
1 -11 2 7439.09 658.173 2
-2 -1 -11 7048.48 604.274 3
2 -11 -1 8565.85 675.173 2
2 -1 11 6265.17 356.243 1
-2 -11 1 8078.88 678.888 2
2 11 1 7978.61 620.685 3
-2 1 11 7466.15 649.166 4
-2 11 -1 7621.38 667.557 1
2 -1 11 7501.43 418.226 2
-2 -1 -11 5933.2 352.917 2
1 2 11 7361.17 680.327 4
-11 -2 -1 7833.2 459.669 4
1 2 11 7708.8 601.962 3
-1 -11 -2 7289.47 630.928 2
11 -2 1 8021.89 661.202 1
-1 -2 11 7478.94 415.654 2
11 1 2 7682 455.242 4
2 11 1 8213.15 696.286 1
11 -1 -2 7127.74 625.072 1
-2 1 11 7855.54 591.433 3
2 1 -11 8050.9 563.77 3
1 -2 -11 7990.12 626.784 3
1 -2 -11 6579.26 356.027 1
-1 -11 -2 8306.3 672.877 1
2 11 -1 7615.46 674.459 1
2 11 -1 8259.52 700.295 2
1 11 2 7291.13 674.041 2
-1 11 -2 7768.3 679.441 2
2 -11 1 8231.99 660.986 1
2 -11 1 8071.81 673.663 2
-2 1 -11 7340.18 422.598 2
-1 -11 2 7366.38 659.756 2
-2 11 1 7648.81 678.366 2
2 1 11 7646.57 609.612 3
-1 11 -2 6701.09 636.398 1
-2 11 1 6797.96 640.987 1
-2 -11 -1 7715.83 655.649 2
1 2 -11 7578.59 538.043 3
-11 -2 1 6894.13 364.665 4
1 -2 11 7141.38 431.233 2
11 -1 2 7049.54 432.527 4
1 -11 -2 8580.15 683.682 1
-2 -1 11 6435.68 354.564 2
-1 2 11 5628.14 345.093 1
1 -11 -2 7463.62 621.415 2
2 1 11 7148.32 671.998 4
-1 2 11 7573.53 684.695 4
11 -2 -1 7342.9 623.165 1
-1 2 11 7310.08 584.064 3
11 -1 2 8105.12 670.822 1
1 11 2 6701.64 625.485 1
-11 2 -1 8826.24 726.092 2
-2 -11 -1 8169.07 684.078 1
-2 -1 11 7866.35 527.635 3
-2 1 -11 7018.58 578.072 3
-1 -2 -11 7031.99 608.465 3
-1 -11 2 7775.76 645.353 1
-3 11 -2 726.444 244.554 1
2 -11 3 1632.73 298.565 1
3 11 2 1539.95 303.494 3
2 3 11 834.987 287.074 4
3 -2 11 1438.84 190.299 1
11 -3 2 1036.28 277.505 1
-2 3 -11 1426.97 166.028 1
-3 -11 2 1147.02 272.594 1
2 11 -3 1743.55 364.278 2
2 3 11 987.86 177.493 1
-2 -11 -3 1505.01 349.777 1
-11 3 2 1388.09 323.562 1
-3 -11 2 1456.19 312.94 2
-3 2 11 1282.93 169.575 1
-2 11 3 1242.36 321.268 2
2 -3 -11 1561.04 190.942 1
-2 -11 -3 1487.35 319.819 2
-3 11 -2 1636.88 346.775 2
-3 2 11 1465.62 303.966 4
-11 -3 -2 1360.54 236.991 4
2 -11 3 1416.8 311.571 2
3 -11 -2 1396.84 305.241 2
2 11 -3 1341.38 306.323 1
11 -2 -3 1065.82 284.15 1
3 -11 -2 1675.39 332.77 1
-3 -2 -11 1220.93 170.919 2
-3 2 11 1571.71 278.13 3
-2 3 -11 1473.02 226.165 2
11 2 3 1770.1 246.56 4
3 -2 11 1292.23 209.348 2
-2 11 3 941.681 267.442 1
-11 2 -3 1377.99 322.045 2
-2 -3 11 1596.76 212.124 2
-11 3 2 1444.84 313.055 2
-2 -3 11 1834.04 238.375 3
-2 3 -11 1513.87 273.024 3
2 3 11 1681.24 320.552 3
3 11 2 1385.43 311.628 1
-3 -2 -11 1011.18 282.625 3
-3 11 0 465.477 240.81 1
-3 -11 0 468.843 205.602 1
-3 0 -11 528.977 144.836 2
11 -3 0 723.165 253.243 1
0 -3 -11 302.935 185.212 3
3 11 0 447.53 173.744 3
0 11 -3 756.162 256.32 1
-3 -11 0 456.069 223.207 2
0 11 3 375.112 263.573 2
0 3 -11 305.303 130.457 2
3 0 11 623.233 144.508 1
0 -11 -3 743.413 252.628 2
-3 11 0 536.34 273.771 2
0 -11 3 351.787 223.771 2
0 -11 -3 781.007 262.387 1
3 11 0 714.757 256.878 1
-11 -3 0 368.45 130.53 4
0 11 -3 839.298 268.77 2
0 -11 3 644.697 219.562 1
11 0 3 425.372 224.001 1
3 -11 0 658.047 258.238 2
0 3 11 450.209 193.51 3
11 0 -3 703.505 255.784 1
0 -3 11 441.717 145.94 2
0 3 -11 121.522 148.142 3
3 -11 0 483.776 244.758 1
-11 3 0 515.65 224.049 1
0 11 3 623.387 243.935 1
11 0 3 363.023 155.882 4
-3 0 11 759.22 208.57 3
0 3 11 321.205 246.421 4
0 3 11 387.581 133.168 1
-11 3 0 413.631 192.85 2
-3 0 -11 271.598 209.746 3
-2 3 11 1332.45 288.521 3
2 3 -11 1184.18 214.983 3
3 11 -2 1725.34 247.094 3
-3 -11 -2 1673.07 326.281 1
-3 -11 -2 1234.04 321.625 2
2 -3 11 1299.07 167.998 1
-2 -11 3 1613.94 322.235 1
-11 3 -2 1110.52 287.253 1
2 -11 -3 1734.07 329.269 2
-3 11 2 1474.13 341.74 2
-3 2 -11 1301.95 280.252 3
3 11 -2 1220.31 303.999 1
3 2 11 1585.97 317.874 3
2 11 3 1067.35 317.944 1
-2 11 -3 1447.62 342.105 2
3 -11 2 1894.73 375.377 2
-3 2 -11 1202.94 210.234 2
-3 -2 11 1368.46 180.348 2
2 -11 -3 1418.32 324.074 1
3 2 11 1360.84 354.872 4
-2 3 11 1251.97 178.766 1
11 -2 3 1452.04 317.706 1
2 -3 11 1520.24 243.991 2
-2 3 11 1655.45 343.454 4
2 11 3 1303 285.861 3
-3 -2 11 1604.72 237.011 3
3 -11 2 1971.38 351.449 1
-11 2 3 1554.52 313.033 1
-2 -3 -11 851.954 257.927 3
-2 -11 3 1672.67 340.137 2
-2 11 -3 1120.33 308.54 1
11 -3 -2 1242.87 294.29 1
-11 3 -2 1154.86 324.432 2
3 -2 -11 1175.86 162.273 1
-3 11 2 782.307 268.127 1
-3 11 4 1720.88 359.866 2
4 11 3 2083.77 346.264 3
11 -4 3 2077.61 371.543 1
-11 4 3 2036.86 385.863 1
-4 -11 3 2409.66 380.809 1
-4 3 11 1262.96 316.655 4
-11 3 -4 1918.06 371.816 1
3 4 11 1880.02 269.827 1
-3 -11 -4 1637.56 329.395 1
-3 -11 -4 1804.91 358.201 2
3 11 -4 1635.57 327.437 1
-3 -4 11 1766.19 250.924 2
-4 3 11 1858.51 242.341 1
3 11 -4 1965.57 235.802 3
-4 11 -3 1780.76 385.959 1
-3 -4 11 2132.65 231.408 3
-11 -4 -3 1705.26 305.288 4
4 11 3 1389.74 331.481 1
11 3 4 1518.28 272.556 4
-3 11 4 1186.85 311.065 1
4 -11 -3 2543.89 410.313 1
-4 11 -3 1578.24 314.757 2
-3 4 -11 1778.42 275.343 2
-3 4 -11 1684.44 231.09 1
4 3 -11 1830.54 173.752 1
3 -11 4 1993.03 366.084 2
-4 -11 3 1883.52 407.843 2
4 -11 -3 1626.63 337.184 2
3 -4 -11 1730.55 369.302 4
3 -4 -11 2013.53 242.642 1
11 -3 -4 1405.39 317.851 1
3 4 11 1797.31 399.134 4
3 -11 4 2070.85 365.643 1
4 -3 11 1598.17 272.947 2
-11 3 -4 1756.84 366.612 2
-4 3 11 2073.52 353.735 3
-3 4 -11 1458.63 276.844 3
11 -3 -4 1703.75 162.599 4
-11 4 3 1929.9 357.415 2
-4 3 11 1531.18 182.667 2
3 4 11 1978 356.251 3
4 -3 11 1864.78 248.56 1
-4 -3 -11 1720.84 377.285 3
1 -11 4 4800.47 490.47 1
-4 -11 1 4346.72 522.796 2
1 11 -4 4956.11 568.888 2
-1 11 4 5005.74 547.272 2
-1 4 -11 4170.27 296.239 1
-1 4 -11 4528.2 375.054 2
-1 -11 -4 4592.16 478.008 2
-1 -4 11 4181.05 362.624 2
-4 11 -1 4129.18 518.365 1
-11 4 1 4605.03 524.672 1
1 4 11 5256.27 516.876 3
4 -11 -1 4770.57 522.473 1
4 -11 -1 4508.23 510.867 2
4 11 1 4253.22 492.88 1
11 -4 1 5339.06 551.42 1
-1 -11 -4 4605.73 521.807 1
1 -11 4 3767.16 481.252 2
-4 1 11 4249.25 288.168 1
1 -4 -11 4231.7 521.772 4
1 11 -4 3900.67 473.755 1
-4 -1 -11 4342.63 343.474 2
-1 11 4 4061.62 506.948 1
-11 4 1 5735.4 589.793 2
4 -1 11 4571.27 342.721 1
11 1 4 4717.91 414.534 4
-1 4 -11 4456.12 412.478 3
11 -1 -4 4351.79 467.23 1
1 4 11 4524.31 533.047 4
-4 11 -1 4532.32 528.739 2
-4 1 11 4121.03 476.1 4
1 -4 -11 4321.13 343.001 1
-11 -4 -1 4593.33 387.532 4
4 11 1 4234.33 426.632 3
4 1 -11 3836.25 256.13 1
-4 -11 1 5140.28 520.969 1
-4 1 11 4565.06 443.615 3
-4 -1 -11 3474.31 468.144 3
1 4 11 3619.3 328.257 1
-1 -11 4 4096.82 486.303 2
1 11 4 4923.14 530.622 2
-4 -11 -1 4489.83 523.709 2
-1 4 11 4452.12 551.944 4
-1 -4 -11 3500.6 234.486 2
1 -4 11 4665.27 292.055 1
1 11 4 4655.29 525.103 1
11 -4 -1 4905.08 508.657 1
1 -11 -4 4607.26 492.436 2
1 4 -11 5503.96 413.842 3
-1 11 -4 4528.55 525.835 2
4 -11 1 4769.5 520.132 1
11 1 -4 4283.64 477.464 1
4 -11 1 4953.18 531.862 2
4 11 -1 4122.94 515.282 1
-1 4 11 4251.02 341.729 1
1 -4 11 4339.61 388.305 2
-4 11 1 4397.28 519.058 2
-4 1 -11 4380.49 384.293 2
-11 4 -1 4160.63 510.023 1
-4 -1 11 4797.4 404.208 3
4 -1 -11 3979.61 279.301 1
-1 11 -4 4406.35 511.067 1
-4 1 -11 4256.2 483.262 3
-4 -11 -1 5036.91 537.613 1
-11 4 -1 4849.42 570.122 2
11 -1 4 4522.43 488.22 1
1 4 -11 3339.71 237.778 1
4 1 11 4925.44 579.646 4
-11 -4 1 4380.97 354.635 4
-1 -4 -11 4045.15 528.138 4
-4 11 1 3854.82 494.759 1
-1 4 11 3687.43 434.675 3
1 -11 -4 4764.55 526.649 1
4 11 -1 4714.82 406.339 3
-1 -4 -11 4479.41 506.529 3
1 11 4 5457.84 552.456 3
-1 -11 4 4863.58 496.263 1
-3 -4 -11 1616.75 372.87 3
4 11 -3 1485.96 219.838 3
3 11 4 2453.87 400.108 3
-11 3 4 1540.91 323.952 1
-3 4 11 1542.95 341.079 3
-3 11 -4 2015.44 361.142 1
-4 11 3 2010.41 388.123 1
-4 -3 11 1994.54 229.849 3
-3 -11 4 1627.33 325.704 1
3 11 4 1110.95 318.233 1
-3 4 11 2233.07 398.465 4
-4 3 -11 1411.64 289.921 3
3 -4 11 1707.48 225.554 1
-3 11 -4 1382.62 344.692 2
-3 4 11 1348.31 156.845 2
-4 11 3 1414.75 382.345 2
3 4 -11 1542.3 170.134 1
4 3 11 1519.2 382.959 4
-3 4 11 1888.37 253.695 1
3 -11 -4 1648.37 330.331 2
4 -11 3 1762.68 354.528 2
-4 3 -11 1828.69 296.71 2
11 -4 -3 1609.59 384.382 1
-3 -4 -11 1660.88 363.841 4
3 -11 -4 1866.8 384.258 1
-11 -3 -4 1882.46 311.462 4
-4 -11 -3 1877.44 357.857 1
11 4 3 1564.01 275.154 4
3 -4 11 1521.43 265.829 2
-3 -11 4 1638.92 350.924 2
-11 3 4 2093.5 384.889 2
4 -11 3 2231.6 378.566 1
4 11 -3 1761.26 353.887 1
4 -3 -11 1710.45 216.049 1
-11 4 -3 1562.92 365.059 2
4 3 11 1787.33 333.452 3
-4 -11 -3 1357.88 323.552 2
-11 4 -3 1436.68 330.23 1
11 -3 4 1754.92 360.363 1
-5 -4 -11 3164.32 454.364 3
-5 4 11 4302.04 402.669 1
5 11 4 3697.63 447.552 3
4 5 11 3103.26 351.356 1
-4 11 5 3469.59 481.311 1
-4 -5 11 4219.04 399.799 2
11 -4 -5 3660.91 289.81 4
-5 -11 4 3122.66 455.128 2
4 -5 -11 4443.74 395.971 1
-4 -11 -5 3515.8 473.999 1
4 -11 5 4499.35 501.792 1
-4 -11 -5 3727.68 459.626 3
4 11 -5 4024.06 488.532 1
-4 11 5 3229.35 479.255 2
-5 11 -4 3710.18 501.609 1
11 -4 -5 3599.38 460.645 1
-11 4 -5 3840.22 484.101 1
-4 -5 11 4224.13 292.834 3
-11 -5 -4 3761.02 436.381 4
5 -4 11 3645.17 366.779 1
-4 5 -11 3751.22 366.639 1
-4 -11 -5 3892.61 478.401 2
5 -11 -4 4016.68 496.717 1
-11 5 4 4187.12 489.709 1
11 -5 4 3961.25 499.301 1
4 -11 5 3256.07 469.654 2
5 -4 11 3799.98 419.657 2
5 -11 -4 3762.37 470.241 2
11 4 5 4117.33 437.305 4
4 -5 -11 3893.5 316.285 2
4 -5 -11 4181.64 508.189 4
-5 4 11 4000.6 337.922 2
-5 4 11 4062.42 483.678 4
4 5 11 4014.19 559.883 4
5 11 4 3025.82 483.618 1
-11 4 -5 3343.89 489.301 2
-11 5 4 4283.29 515.847 2
5 4 -11 3812.42 307.591 1
-4 5 -11 4481.35 463.675 2
4 11 -5 3928.5 288.007 3
11 -5 4 3865.06 495.055 2
-5 -11 4 4091.32 486.628 1
4 5 11 3680.95 500.534 3
2 11 -5 14737.9 959.06 1
-2 5 -11 14265 722.938 1
2 11 -5 17522.4 1082.55 2
-5 -11 2 15207.8 1001.68 2
-2 11 5 15534.8 976.249 2
-2 -5 11 15445.5 803.034 2
-2 5 -11 16391.7 859.069 2
2 -11 5 16739.1 978.138 1
-5 2 11 14758 933.102 4
11 -5 2 14297.5 963.097 1
2 -11 5 15309.2 1003.75 2
-11 2 -5 14955.3 1031.59 2
2 -5 -11 15804.4 776.652 1
5 -11 -2 16296.8 1021.53 1
5 -2 11 14557 768.441 1
-2 11 5 14656.1 989.38 1
11 2 5 13688.6 820.854 4
5 -11 -2 15587.5 986.454 2
-5 -11 2 15876.5 992.523 1
-5 11 -2 15307.4 1029.61 1
2 -5 -11 13178 624.055 2
11 -2 -5 15745.5 959.607 1
-11 -5 -2 14591.2 826.935 4
-11 5 2 15055.9 1028.01 2
-5 2 11 15383.7 697.145 2
-5 2 11 15537.4 729.634 1
2 -5 -11 13144.4 1000.73 4
2 5 11 14928 1027.77 4
-2 -11 -5 15495.2 942.455 2
5 11 2 13239 975.057 1
-2 5 -11 13638.4 796.778 3
-11 5 2 13080 945.385 1
5 2 -11 14403.8 653.34 1
-5 -2 -11 13715.4 949.403 3
2 5 11 14781.2 970.259 3
5 11 2 15775.8 910.523 3
-5 11 -2 17793.1 1105.79 2
-2 -11 -5 15458.2 992.302 1
2 5 11 12616.4 745.515 1
-5 0 11 23306.5 1077.21 3
11 0 5 20728.2 1039.79 4
0 -5 -11 19856.6 1165.34 3
5 11 0 20574.1 1208.37 1
0 5 -11 22896.8 997.192 3
0 11 5 21587.8 1196.23 2
0 11 -5 23503.4 1273.04 2
0 -11 -5 19913.8 1105.35 2
0 5 11 18545.7 931.708 1
0 -11 5 22894.7 1243.87 2
11 -5 0 20547 1187.71 1
0 -5 11 20654.7 1008.82 2
5 0 11 22105.2 972.624 1
11 0 5 22304.9 1206.52 1
0 11 -5 21455.7 1195.91 1
0 5 11 20823 1223.09 4
5 -11 0 22798.9 1226.03 1
-5 0 -11 21200.1 1186.73 3
0 -5 -11 20447.7 1273.46 4
-5 0 -11 21433.4 1001.54 2
-11 5 0 21910.5 1282.09 2
-5 11 0 23444.9 1294.04 2
0 5 11 21192.6 1200.88 3
-11 -5 0 22047.8 992.141 4
5 -11 0 21151.5 1205.2 2
0 5 -11 23466.6 1037.53 2
5 0 -11 20652.6 863.721 1
0 11 5 23432.3 1293.15 3
0 5 -11 20091.1 852.304 1
-5 11 0 20350.7 1226.9 1
0 11 5 19111.4 1182.21 1
-11 5 0 20802 1223.86 1
5 11 0 21069.8 1032.73 3
11 0 -5 22206.1 1157.2 1
0 -5 11 22645 854.669 1
-5 -11 0 23651.2 1254.78 1
0 -5 -11 20740 956.045 1
-5 -11 0 20870.8 1206.86 2
0 -11 -5 22020.2 1203.17 1
0 -11 5 22991.7 1168.35 1
2 -11 -5 15971.8 992.701 1
-5 -11 -2 15710.5 1011.67 2
-5 2 -11 14062.1 921.909 3
-2 5 11 12300.9 605.037 2
-2 -11 5 15471.2 995.924 2
-2 11 -5 15908.4 1035.32 2
-2 -5 -11 14131.3 977.074 3
5 11 -2 15920.7 1012.86 1
2 5 -11 14270.4 654.554 1
2 -11 -5 15364.5 932.282 2
5 -11 2 14023.8 969.174 2
2 11 5 14125.7 966.192 1
-5 11 2 16648 1063.16 2
2 -5 11 15175.6 857.361 2
-11 2 5 13908.5 917.234 1
5 -11 2 16372.8 1000.81 1
-5 2 -11 13501 814.953 2
-2 11 -5 15012.6 975.049 1
-2 5 11 13179.3 753.533 1
5 11 -2 15112.4 772.663 3
2 -5 11 16066.6 735.104 1
-11 5 -2 15710.9 1061.3 2
5 -2 -11 14039.3 705.537 1
-5 11 2 14464.2 1003.36 1
-2 5 11 14011.4 961.391 4
11 -5 -2 15757.1 1005.93 1
11 -2 5 15186.6 972.139 1
-2 -5 -11 14262.5 1058.2 4
2 5 -11 15857.8 733.266 3
2 11 5 16710.7 1040.69 3
-5 -2 11 16596.7 797.2 3
-5 -11 -2 16537.1 1042.93 1
-2 5 11 14993.9 966.385 3
5 2 11 15987.8 1051.33 4
-5 -11 -2 15171.2 878.736 3
-2 -11 5 17512.8 980.043 1
-11 5 -2 14071.2 981.418 1
4 11 5 3837.45 475.425 3
-11 4 5 3542.08 472.389 1
-4 -5 -11 3241.9 487.491 3
-11 -4 -5 3348.06 414.124 4
-11 5 -4 4231.95 517.556 1
-5 -11 -4 3830.92 447.256 3
11 -5 -4 3907.58 487.918 1
-4 -11 5 3822.77 491.03 2
-4 5 11 3759.18 322.007 2
-5 11 4 4313.72 535.065 1
5 11 -4 4128.8 496.4 1
5 -11 4 4073.99 513.912 2
-4 11 -5 4305.36 519.739 1
4 11 5 2650.6 418.998 1
4 -11 -5 3852.2 484.51 1
5 -4 -11 3360.53 464.746 4
-4 11 -5 3272.31 502.82 2
5 -4 -11 3776.18 368.688 1
-5 11 4 4054.02 529.063 2
4 -5 11 3490.9 426.193 2
-5 4 -11 4203.78 447.902 2
11 -4 5 4164.82 503.949 1
4 -11 -5 3837.82 457.013 2
5 4 11 3793.93 532.444 4
-5 4 -11 3290.88 355.852 1
4 -5 11 3917.31 370.555 1
-5 -4 11 4439.19 316.529 3
11 -5 -4 4041.43 316.888 4
11 5 4 3818.83 433.52 4
-4 5 11 3669.58 479.414 4
-4 5 11 3736.58 382.841 1
5 11 -4 3935.22 307.271 3
-11 4 5 3623.66 483.12 2
5 4 11 3263.14 461.359 3
5 -11 4 3889.98 483.815 1
-4 -11 5 4705.42 501.835 1
-4 5 11 3641.71 477.423 3
4 5 -11 4004.84 317.372 1
11 -5 -6 6723.56 629.953 1
-6 5 11 6561.9 545.262 1
5 -6 -11 6439.24 478.557 2
6 11 5 6251.07 667.711 1
-5 -11 -6 6368.98 623.742 3
-11 5 -6 5840.48 636.883 1
-6 -11 5 6734.27 660.916 2
-5 -6 11 7716.37 572.463 2
11 5 6 6969.81 587.759 4
-5 11 6 7656.57 695.562 2
-5 6 -11 7288.1 643.48 2
5 -6 -11 6796.41 547.8 1
-6 -5 -11 6226.85 670.877 3
-11 -6 -5 7411.96 676.511 3
11 -6 5 6872.51 691.708 2
5 -11 6 7128.94 695.384 2
5 -11 6 7364.06 652.504 1
-6 5 11 7360.76 535.357 2
6 -11 -5 6971.11 652.232 2
-5 6 -11 6228.74 537.258 1
-11 6 5 5990.64 633.986 1
-11 6 5 6209.68 642.498 2
6 -5 11 7532.31 623.647 2
-5 11 6 6241.37 639.93 1
5 -6 -11 5751.35 606.56 4
11 -5 -6 7399.7 469.764 4
5 6 11 7198.97 703.449 4
-6 5 11 7178.37 620.332 4
6 -5 11 7261.46 566.412 1
-6 11 -5 7120.12 676.505 1
-5 -6 11 6459.85 347.116 3
5 11 -6 6050.33 335.409 3
-11 -6 -5 6995.16 636.365 4
6 11 5 6341.46 626.215 3
5 6 11 6564.86 556.371 1
5 11 -6 6613.12 621.886 1
-3 11 6 99.9038 201.104 1
3 -11 6 117.357 195.912 1
-6 3 11 -63.0838 211.149 4
-6 3 11 83.3595 138.867 2
-11 6 3 498.912 277.891 1
3 6 11 608.635 211.825 1
-3 -6 11 291.331 159.627 2
-3 6 -11 156.034 143.127 1
-3 11 6 320.537 203.224 2
6 11 3 226.121 225.752 1
-11 6 3 285.914 235.026 2
3 11 -6 -55.519 186.309 1
6 -3 11 95.8284 159.898 1
3 -11 6 422.13 216.439 2
3 -6 -11 369.702 158.11 1
-11 -6 -3 -297.862 213.891 4
-6 11 -3 79.5265 220.667 1
3 -6 -11 281.567 134.987 2
11 -3 -6 350.961 214.961 1
6 -3 11 369.511 192.471 2
11 -6 3 320.384 247.642 2
-3 -11 -6 527.082 270.859 1
11 3 6 621.17 245.607 4
3 -6 -11 -5.13194 220.41 4
3 6 11 -104.647 270.206 4
6 -11 -3 -18.4341 188.883 2
-11 3 -6 149.044 221.461 2
-3 6 -11 128.38 168.988 2
-3 -11 -6 418.926 232.018 2
-6 -3 -11 -294.51 220.534 3
6 11 3 -3.09044 169.632 3
-6 3 11 -28.0045 132.705 1
11 -6 1 1565.31 343.812 2
-6 -11 1 1119.6 209.304 3
-1 -6 11 1719.61 207.126 1
-11 6 1 2028.68 369.187 2
6 11 1 2015.47 382.583 1
-1 -11 -6 1942.67 352.068 1
1 11 -6 1979.18 365.516 2
-11 6 1 1333.41 314.619 1
-1 11 6 1774.57 352.704 2
1 -6 -11 1430.94 237.965 1
-1 6 -11 2109.14 312.924 2
-1 -11 -6 1968.06 342.601 2
-1 -6 11 1722.71 284.589 2
11 -1 -6 1741.61 340.023 1
1 -11 6 1340.89 320.366 2
-6 11 -1 1910.6 375.58 1
1 6 11 1446.22 253.192 1
1 -11 6 1918.61 326.263 1
11 1 6 1856.81 319.481 4
1 -6 -11 1719.08 200.5 2
-1 6 -11 2063.4 257.297 1
1 6 11 1918.32 370.445 3
-6 1 11 1571.32 314.822 4
1 11 -6 1441 312.541 1
1 -6 -11 1546.43 360.765 4
-11 -6 -1 1627.43 277 4
6 -1 11 1661.61 261.539 1
1 6 11 1718.53 374.032 4
6 -11 -1 1722 326.473 2
-1 6 -11 1061.71 210.906 3
-6 -1 -11 1379.77 255.459 2
-1 11 6 1295.91 336.169 1
6 1 -11 1528.35 212.111 1
-11 1 -6 1889.16 399.393 2
-6 -1 -11 1001.96 284.881 3
6 11 1 1412.81 266.915 3
6 11 -1 1444.02 355.004 1
6 1 11 1856.53 392.966 4
11 -6 -1 1935.92 358.991 1
6 -11 1 1817.47 365.226 1
-1 6 11 1799.52 278.002 1
1 6 -11 1689.44 286.541 2
6 -1 -11 1822.97 242.981 1
-1 6 11 1922.46 345.83 3
-1 11 -6 1917.84 385.072 2
1 6 -11 1685.44 225.978 3
-6 -11 -1 1674.34 276.108 3
-1 6 11 1841.54 376.573 4
-1 -11 6 2255.55 344.771 1
-11 6 -1 1995.71 398.848 1
1 -11 -6 2004.12 349.343 1
1 -11 -6 1625.05 292.366 2
-1 -6 -11 1811.47 374.983 3
-6 11 1 1278.42 318.68 1
-6 1 -11 1000.27 288.471 3
1 11 6 1816.75 373.922 3
-6 11 1 1280.3 368.405 2
11 1 -6 1755.74 312.807 1
1 -6 11 1742.18 314.878 2
1 -6 11 1990.43 240.707 1
1 11 6 1192.68 307.202 1
11 -1 6 1916.2 335.841 1
6 -11 1 1280.08 326.807 2
11 -6 -1 1742.84 358.482 2
-1 -6 -11 1684.34 285.348 1
-6 1 -11 941.745 222.054 2
-1 -6 -11 1519.1 374.936 4
1 6 -11 1984.55 233.163 1
-11 1 6 1506.5 160.374 4
-1 11 -6 1359.66 300.215 1
-1 -11 6 1792.75 340.948 2
6 11 -1 1234.81 231.548 3
-1 -6 -11 1851.59 209.803 2
-11 3 6 -110.664 199.015 1
-3 11 -6 520.535 261.55 2
3 -11 -6 20.2088 184.913 2
-3 -6 -11 40.0749 214.589 3
3 6 -11 136.966 104.363 3
-3 6 11 -150.792 191.98 3
-11 3 6 32.9324 199.302 2
11 -3 6 182.734 203.883 1
6 11 -3 463.432 259.628 1
-3 6 11 428.171 173.233 1
11 -6 -3 48.4932 258.722 1
-3 -11 6 78.8662 190.206 2
6 3 11 67.8149 225.248 4
-3 6 11 252.988 132.747 2
3 11 6 -150.983 218.108 1
-6 11 3 306.524 287.009 1
-6 11 3 531.119 236.647 2
-3 -11 6 258.534 169.877 1
3 6 -11 144.539 115.06 1
-11 6 -3 -117.454 244.189 1
3 -11 -6 -229.971 208.122 1
3 11 6 -129.137 223.513 3
6 11 -3 228.81 143.795 3
-6 -11 -3 74.9949 161.134 3
6 -11 3 246.893 198.723 2
3 -6 11 131.335 191.549 2
-6 3 -11 33.2595 168.895 2
6 -3 -11 153.535 152.131 1
11 -6 -3 524.59 263.508 2
-3 11 -6 -102.312 217.938 1
-3 6 11 385.305 248.027 4
-6 -3 11 328.936 137.253 3
-11 -3 -6 -209.844 244.691 4
3 -6 11 63.2812 150.267 1
6 -11 3 607.579 232.185 1
-5 11 -6 8071.21 706.334 1
5 11 6 5428.52 609.733 1
-5 -11 6 6611.56 652.945 2
11 -5 6 6704.49 650.177 1
-6 11 5 6678.52 683.087 1
-6 11 5 6321.42 653.156 2
-11 6 -5 6303.08 670.069 1
-5 6 11 6726.77 505.709 2
-6 5 -11 7432.24 663.809 2
5 -11 -6 6910.75 629.292 2
6 -11 5 7479.01 721.449 2
-5 6 11 5923.61 529.908 1
6 5 11 5848.32 647.337 4
11 -6 -5 6828.48 457.532 4
6 -11 5 7656.77 682.603 1
6 -5 -11 6705.32 528.341 1
5 -6 11 6897.45 625.424 2
-11 5 6 5633.19 593.994 2
6 -5 -11 6911.71 649.832 4
-11 -5 -6 5795.02 574.892 4
-6 5 -11 6471.23 542.84 1
5 -6 11 6630.8 529.216 1
-5 6 11 7085.7 648.913 4
-11 5 6 7133.43 672.344 1
11 6 5 6180.84 572.27 4
-6 -5 11 7463.72 396.673 3
6 11 -5 5840.82 362.722 3
-11 -5 -6 6154.25 653.927 3
5 6 -11 6742.88 471.859 1
5 11 6 6299.15 633.581 3
-5 -6 -11 6762.33 696.13 3
11 -6 -5 6873.87 638.367 1
11 -5 6 7396.88 687.339 2
-6 -11 -5 7003.83 631.785 3
5 -11 -6 6994.34 651.726 1
6 11 -5 6447.98 622.893 1
-7 6 11 4335.14 493.609 4
6 7 11 4544.12 594.907 4
-6 -11 -7 3565.09 492.261 3
-7 -6 -11 4089.68 569.168 3
-7 6 11 4391.36 479.259 1
-11 -7 -6 4157.33 531.494 4
11 6 7 4098.22 497.873 4
6 11 -7 3819.98 472.207 1
6 -7 -11 5010.19 488.468 1
11 -7 6 3515.55 496.43 2
-6 11 7 3113.31 478.612 1
-7 6 11 4508.23 455.232 2
-6 11 7 4937.32 561.019 2
6 -11 7 3547.18 513.656 2
-11 7 6 3565.03 515.917 2
-6 7 -11 4336.48 546.119 2
6 -7 -11 3640.98 500.041 4
11 -6 -7 4597.29 544.995 1
6 -7 -11 4388.84 435.695 2
-11 6 -7 4748.03 584.959 1
7 11 6 3420.7 510.736 1
7 -6 11 4353.07 514.143 2
-7 11 -6 4122.76 552.877 1
-11 7 6 3693.69 521.576 1
11 -6 -7 3868.43 390.745 4
7 -6 11 3637.71 440.825 1
7 -11 -6 4827.04 553.356 2
6 7 11 4148.61 479.375 1
-11 -7 -6 4033.35 518.417 3
6 -11 7 4541.28 513.772 1
-6 7 -11 4538.36 502.126 1
-4 -11 -7 1579.49 339.676 3
-4 11 7 1267.9 346.957 1
-7 4 11 1522.21 258.767 1
7 11 4 1419.65 341.906 1
11 -7 4 1160.18 310.266 2
4 7 11 1291.8 367.165 4
-4 -11 -7 820.129 281.283 2
4 7 11 1191.75 286.637 1
11 -4 -7 1130.07 294.664 1
-11 -7 -4 1388.29 322.821 4
7 -4 11 1443.64 297.421 1
-11 7 4 965.223 298.766 2
-4 -7 11 1664.25 309.847 2
-4 7 -11 1533.61 295.565 1
7 -4 11 1467.5 310.67 2
-4 11 7 1360.23 303.763 2
4 -7 -11 1248.28 353.107 4
4 11 -7 1220.92 301.54 1
4 -7 -11 1126.29 275.802 1
-4 7 -11 1541.45 323.052 2
-7 11 -4 1433.88 368.761 1
4 -11 7 1853.2 370.81 2
-7 4 11 1292.06 292.203 4
-11 4 -7 1532.12 339.774 1
11 -4 -7 1249.7 225.201 4
7 -11 -4 1101.55 265.295 2
4 -7 -11 1322.98 244.899 2
-7 4 11 1510.8 262.363 2
11 4 7 1249.2 283.07 4
4 -11 7 1161.35 292.435 1
-11 7 4 994.402 297.204 1
-11 -7 -4 1089.7 261.856 3
7 11 4 1512.93 321.987 3
-7 -4 -11 1153.95 326.068 3
-7 2 11 11055.4 656.785 1
-2 11 7 9481.73 744.518 2
-2 11 7 9007.35 758.064 1
2 11 -7 11452.2 860.812 2
-2 -11 -7 8797.98 698.338 2
2 11 -7 9743.74 757.127 1
2 -11 7 10917 774.379 1
-2 -7 11 9847.5 691.694 2
7 11 2 9488.76 715.672 3
2 -11 7 9432.29 790.787 2
2 -7 -11 10102.4 583.966 2
11 -2 -7 11245.1 796.353 1
2 7 11 8891.69 795.311 4
7 -11 -2 9583.35 793.311 2
-11 7 2 11264.8 881.235 1
7 -2 11 9988.99 680.431 1
-2 7 -11 11319.7 758.871 2
2 -7 -11 8255.72 803.506 4
-11 2 -7 10129 869.591 2
11 -7 2 10377.8 837.878 2
-7 2 11 9903.98 726.32 4
-7 2 11 10907.5 631.296 2
-11 -7 -2 9608.17 697.62 4
-2 7 -11 9339.24 620.763 1
-11 -7 -2 10369.2 756.464 3
-7 11 -2 10003.4 848.635 1
7 2 -11 10442.3 598.314 1
-7 -2 -11 9650.12 808.093 3
-7 -11 2 8697.33 560.769 3
-2 -7 11 11790.4 605.334 1
-2 -11 -7 10722.3 819.69 1
11 2 7 9816.93 738.074 4
7 11 2 8391.93 768.905 1
2 -7 -11 10082.5 671.347 1
2 7 11 9040.91 654.684 1
7 0 11 24046.1 1387.74 4
0 11 -7 27255.9 1457.51 2
0 11 7 26524 1355.05 2
0 7 -11 29394.1 1318.42 2
0 -11 -7 25231.9 1287.12 2
0 -7 -11 24625.6 1063.32 2
0 -11 7 28115.1 1434.15 2
0 7 11 23053.5 1191.41 1
0 11 7 22125.7 1323.17 1
0 -7 11 28590.7 1312.52 2
0 11 -7 26114.3 1343.94 1
7 0 11 25460.1 1219.33 1
11 0 7 28291.9 1407.38 1
0 -11 7 30311.4 1372.2 1
7 -11 0 25700.5 1405.64 2
-7 0 11 26144.7 1300.57 4
-11 7 0 24815.6 1447.12 1
0 7 -11 27291.3 1140.83 1
11 -7 0 28746.3 1490.52 2
-7 0 -11 23696.8 1232.8 2
11 0 7 23706.8 1265.4 4
-11 0 7 26215.8 1039.45 4
0 7 11 26742.9 1452.01 4
7 11 0 25476.4 1227.27 3
-7 -11 0 25249.9 1190.33 3
0 -7 -11 25345 1216.73 1
7 11 0 23325.7 1382.11 1
-7 0 -11 26268.5 1420.47 3
0 7 -11 26653.4 1111.15 3
0 -11 -7 28222.3 1411.35 1
-7 11 0 26379.8 1488.73 1
7 0 -11 26423.4 1145.55 1
11 0 -7 27347.9 1331.47 1
0 -7 11 30202.7 1146.73 1
2 11 7 8011.24 724.964 1
2 -11 -7 9166.12 754.876 1
-2 -7 -11 8832.51 556.724 2
-7 11 2 9533.25 830.567 1
-2 11 -7 11224.7 858.715 2
2 7 -11 9716.07 586.346 1
2 -7 11 10604.1 620.391 1
2 -11 -7 9414.13 698.109 2
7 11 -2 8938.59 761.805 1
2 -7 11 10771.7 741.913 2
7 2 11 9445.01 810.351 4
-2 7 11 9813.02 807.656 4
-2 7 11 8504.48 641.259 1
7 -11 2 9477 800.703 2
2 7 -11 10810.5 525.939 3
11 -7 -2 10210.4 822.456 2
-11 7 -2 11083 885.085 1
-7 2 -11 9599.06 717.998 2
-2 11 -7 9822.92 760.608 1
-2 -11 7 10694.9 737.991 1
-11 2 7 10071.2 512.893 4
-2 7 11 9268.21 550.25 2
11 -2 7 10064.2 768.924 1
-2 -7 -11 9159.03 786.115 3
7 -2 -11 9973.88 625.576 1
7 11 -2 9012.5 582.184 3
-7 -11 -2 9060.97 676.371 3
-2 -11 7 9051.46 761.697 2
-11 -4 -7 1163.66 304.233 4
-11 4 7 1168.68 307.859 1
11 -4 7 1461.78 322.253 1
-7 -11 -4 1030.88 283.447 3
-4 -7 -11 1623.28 362.568 3
-11 7 -4 1134.6 346.605 1
-7 4 -11 854.628 226.468 1
7 -4 -11 1567.9 284.362 1
4 11 7 862.592 285.617 1
4 -11 -7 1038.59 273.643 2
-4 7 11 1157.59 258.424 1
4 7 -11 1292.35 230.328 1
-4 7 11 1378.6 237.274 2
-4 11 -7 1044.93 300.834 1
-7 11 4 1647.26 374.225 2
-7 11 4 983.657 308.838 1
7 11 -4 1326.06 325.138 1
4 -11 -7 1437.33 328.092 1
-7 4 -11 777.657 241.414 2
4 -7 11 1017.39 281.554 2
7 -11 4 1058.49 300.491 2
4 -11 -7 727.488 286.957 4
4 -7 11 1423.94 251.028 1
7 4 11 1767.93 380.334 4
-4 -11 7 827.59 261.123 2
-4 7 11 1495.35 336.133 4
-11 4 7 1456.98 346.635 2
11 -7 -4 1019.75 330.095 2
-4 -11 7 1642.34 310.259 1
7 -11 6 4416.11 563.929 2
-11 6 7 3995.73 531.675 1
-7 -11 -6 4775.52 550.277 3
-6 -11 7 3861.98 506.301 2
6 11 7 3929.02 521.936 1
7 -6 -11 4203.27 529.229 4
-6 7 11 4466.87 454.195 2
11 -7 -6 4929.46 570.164 2
6 -7 11 4237.78 456.737 1
6 -11 -7 4711.02 534.354 2
6 7 -11 4368.26 413.307 1
-11 7 -6 3801.87 551.887 1
-7 11 6 4347.93 565.832 2
6 -7 11 4134.18 531.029 2
7 -6 -11 4335.1 458.487 1
-7 11 6 4370.71 557.091 1
-7 6 -11 2767.95 422.235 1
11 -7 -6 4092.74 388.361 4
-6 -7 -11 3747.85 555.413 3
-11 -6 -7 3558.08 515.206 4
-11 6 7 3777.38 505.293 2
7 6 11 4740.63 590.86 4
-11 -6 -7 3856.19 523.408 3
-6 7 11 3485 436.115 1
7 11 -6 3454.71 464.297 1
-6 7 11 3763.11 470.908 4
6 -11 -7 3266.48 470.004 4
11 7 6 3818.05 512.742 4
-7 -6 11 4130.35 268.974 3
11 -6 7 4059.03 537.861 2
-6 11 -7 3482.6 497.111 1
-7 6 -11 4837.61 573.75 2
-8 11 -7 2181.91 439.194 1
-7 -11 -8 2388.09 436.6 3
7 -8 -11 2281.84 402.423 4
7 11 -8 2030.98 352.29 1
8 7 -11 2086.95 301.449 1
-8 7 11 1976.1 379.249 4
-8 7 11 1966.55 372.89 1
-11 8 7 1740.97 393.995 1
-11 8 7 2027.45 400.368 2
11 -7 -8 2128.06 328.465 4
-7 11 8 2421.67 430.984 2
-7 8 -11 1725.99 412.425 2
-7 11 8 2079.51 421.064 1
11 7 8 2892.03 437.214 4
7 8 11 1825.69 385.579 4
-8 7 11 2601.67 387.559 2
7 -11 8 2533.46 479.511 2
-11 7 -8 2802.06 466.915 1
8 -7 11 2518.98 382.628 1
8 -7 11 2345.63 421.917 2
8 -11 -7 2466.64 440.99 2
7 -8 -11 2438.72 381.519 1
-7 8 -11 1288.6 314.875 1
8 -11 -7 2698 419.97 4
8 11 7 2068.4 443.534 1
7 8 11 1622.15 349.37 1
7 -8 -11 2083.17 337.101 2
11 -8 7 2395.76 438.324 2
-11 -8 -7 1815.92 397.767 3
-8 -7 -11 2697.89 484.955 3
8 -5 11 12776.8 861.219 1
-5 -11 -8 12593.9 879.231 2
-5 11 8 12518.8 917.418 2
-11 5 -8 11098.6 917.01 1
5 -8 -11 12073 805.718 1
-5 8 -11 13129.3 950.993 2
5 8 11 12789.3 990.822 4
-11 8 5 10566.9 917.368 1
11 -5 -8 10754 842.807 1
5 -11 8 11652.3 930.002 2
5 -11 8 13387.2 914.87 1
-8 5 11 11801.9 792.822 2
8 -11 -5 13318 954.488 2
5 -8 -11 13159.6 792.892 2
-5 8 -11 12043.7 827.194 1
-8 5 11 12638.6 833.353 1
11 -8 5 11193.6 921.939 2
5 -8 -11 11895.4 931.508 4
-5 11 8 11619.2 924.308 1
-11 -8 -5 10915.7 871.797 4
8 -5 11 12277.3 892.328 2
11 -5 -8 12756.5 738.883 4
11 5 8 12377.9 899.936 4
-5 -8 11 12834.8 849.064 2
-5 -11 -8 12491 941.535 3
-8 5 11 11420.8 795.227 4
-11 -8 -5 11575.3 881.853 3
-8 -5 -11 12276.5 971.172 3
5 8 11 11438.3 831.402 1
-8 11 -5 12614 994.53 1
8 11 5 12121.2 942.608 1
5 11 -8 12743.2 876.416 1
-8 -11 5 11974 580.104 3
8 11 3 491.249 220.099 3
-8 11 -3 198.112 247.114 1
-8 -11 3 540.72 144.081 3
-3 -11 -8 190.462 200.788 1
8 11 3 200.662 205.531 1
-3 -11 -8 150.969 181.835 2
3 11 -8 502.344 228.455 1
3 -8 -11 403.291 165.067 2
-3 -8 11 204.559 176.042 2
-3 11 8 629.423 261.245 2
3 8 11 212.338 189.102 1
-3 8 -11 349.459 209.666 2
11 -3 -8 329.84 197.64 1
3 -8 -11 609.546 219.72 1
3 -11 8 522.676 259.146 2
-8 3 11 487.028 188.202 4
8 -11 -3 466.446 258.579 2
-8 -3 -11 330.434 217.502 3
3 -11 8 261.403 168.052 1
-8 3 11 372.39 167.675 2
-8 3 11 285.213 176.991 1
-11 -8 -3 256.897 197.724 3
-11 8 3 -115.912 282.672 1
8 -3 11 574.849 210.103 1
-11 -8 -3 268.476 215.255 4
-3 8 -11 466.492 197.413 1
3 8 11 -26.5419 254.829 4
-11 3 -8 564.014 246.355 2
11 -8 3 539.268 231.87 2
11 3 8 668.069 262.529 4
-3 11 8 467.665 235.194 1
8 -1 11 819.227 239.687 1
8 -11 -1 1008.51 307.367 2
-11 8 1 78.0383 243.283 1
-8 1 11 847.495 253.094 4
1 11 -8 780.616 296.043 2
-1 -11 -8 746.685 251.453 1
-1 11 8 1521.04 329.984 2
-1 -8 11 1344.13 233.667 1
11 -1 -8 698.898 233.758 1
-1 8 -11 716.439 240.366 2
1 -8 -11 741.654 213.214 1
8 1 -11 634.888 189.08 1
11 -8 1 351.762 224.563 2
-1 -8 11 812.874 245.997 2
1 -11 8 903.192 274.733 2
1 -8 -11 781.218 195.957 2
1 -11 8 1011.41 269.509 1
1 8 11 492.724 202.959 1
11 1 8 680.799 238.19 4
-8 -11 1 822.181 188.371 3
-11 -8 -1 621.322 213.152 3
-8 11 -1 1076.29 355.345 1
-1 -11 -8 825.214 235.452 2
1 11 -8 1009.94 294.185 1
8 11 1 1008.22 314.542 1
-1 11 8 805.018 268.422 1
1 8 11 460.912 255.509 4
-1 8 -11 702.215 210.132 1
8 11 1 833.931 202.497 3
-8 -1 -11 633.129 257.906 3
-11 1 -8 607.369 272.857 2
-8 -1 -11 647.983 216.151 2
-8 -11 -1 1266.54 273.888 3
8 11 -1 841.983 280.279 1
1 8 -11 1198.1 284.446 2
-1 11 -8 1118.62 310.947 2
8 -1 -11 860.815 212.956 1
-1 -11 8 1323.93 287.868 1
-1 -8 -11 895.506 187.69 2
-1 -11 8 582.882 258.312 2
1 -11 -8 1273.51 315.864 1
8 1 11 953.802 334.269 4
1 -11 -8 1048.42 268.41 2
11 -1 8 446.189 224.035 1
-11 8 -1 998.899 302.875 1
1 -8 11 645.514 240.285 2
1 -8 11 1622.37 257.008 1
11 1 -8 726 222.511 1
-11 1 8 1029.15 188.963 4
1 11 8 807.109 268.571 1
8 -11 1 402.325 214.361 2
-11 -8 1 862.728 219.679 3
-1 11 -8 930.434 283.389 1
-1 8 11 1087.09 250.329 1
-1 8 11 927.486 309.93 4
-8 1 -11 355.366 188.858 2
11 -8 -1 709.78 266.532 2
1 8 -11 915.274 159.991 3
-8 11 1 629.203 296.323 1
1 8 -11 913.046 204.95 1
-1 -8 -11 790.458 227.033 1
-8 -11 -3 892.494 253.516 3
3 8 -11 341.395 89.547 3
-3 -8 -11 126.774 245.872 3
8 11 -3 226.704 210.395 1
-3 -11 8 659.62 220.981 1
-11 3 8 223.629 197.91 1
-8 3 -11 231.409 181.177 2
-3 -8 -11 303.709 171.989 2
-3 8 11 124.25 157.213 2
11 -3 8 263.454 213.455 1
8 3 11 625.489 299.34 4
-3 11 -8 194.491 209.717 1
-3 -11 8 54.5562 187.879 2
3 11 8 378.562 228.903 1
-3 8 11 509.973 229.053 1
11 -8 -3 340.255 260.591 2
3 -11 -8 409.429 204.042 2
3 -11 -8 494.327 204.311 1
3 8 -11 367.716 167.753 1
3 -8 11 623.497 233.122 2
3 -8 11 571.978 203.823 1
8 -11 3 297.672 216.043 2
8 -3 -11 619.07 206.93 1
-8 11 3 352.75 280.522 1
-11 3 8 171.603 149.123 4
-3 8 11 517.935 272.898 4
-11 8 -3 380.028 267.838 1
-11 3 8 454.818 239.079 2
-5 8 11 12274.2 851.884 1
-8 5 -11 12420.2 851.937 1
-5 -11 8 13190.4 947.571 2
-5 8 11 13828.7 823.526 2
-11 -5 -8 10600.6 874.992 4
5 11 8 11101.3 895.004 1
5 -11 -8 12741.7 883.839 2
8 5 11 12279.6 953.158 4
-8 5 -11 11384.3 906.871 2
5 -8 11 12955.6 924.294 2
8 -11 5 12942.5 981.471 2
-11 8 -5 12590.3 1008.38 1
5 -8 11 13783.3 845.467 1
-11 5 8 11899.6 909.091 1
-11 5 8 12820 920.115 2
-11 -5 -8 12241.1 954.641 3
8 -5 -11 11738 862.185 4
8 -5 -11 12803.3 820.741 1
-5 8 11 11277.7 876.508 4
11 -8 -5 12714.5 942.749 2
-8 -11 -5 11498.7 865.012 3
-8 11 5 12117 960.755 1
-5 11 -8 13916.7 974.114 1
-5 -8 -11 11413.6 958.96 3
11 -5 8 11609.6 906.139 2
8 11 -5 12733.9 933.068 1
5 8 -11 13624.8 782.925 1
-8 -11 -7 2245.48 437.649 3
8 -7 -11 2846.32 412.429 1
7 8 -11 1639.72 289.442 1
8 11 -7 2469.57 422.286 1
11 -8 -7 2505.52 348.443 4
-7 -11 8 2669.97 437.483 2
-11 8 -7 1918.73 432.185 1
8 -7 -11 1714.63 348.467 4
7 -8 11 1823.49 377.748 2
-7 -8 -11 1637.46 405.64 3
7 -8 11 2209.78 350.897 1
-8 7 -11 2337.11 411.718 1
-8 11 7 2943.37 505.441 2
11 -8 -7 2561.61 442.981 2
-7 8 11 2562.19 376.639 2
-8 7 -11 2286.48 424.305 2
-7 8 11 2226.73 407.428 4
-11 7 8 2566.27 437.001 2
-8 11 7 2032.21 409.975 1
8 -11 7 2272.34 431.339 2
7 -11 -8 2207.99 397.951 2
8 7 11 2696.63 479.24 4
-7 8 11 2452.47 397.189 1
-11 7 8 2046.41 397.525 1
11 -7 8 2784.96 481.888 2
-8 -7 11 1875.88 164.072 3
-7 11 -8 1933.6 434.109 1
-11 -7 -8 2127.6 417.09 3
7 11 8 2143.04 402.513 1
7 -11 -8 1497.96 332.551 4
9 8 -11 601.295 225.314 1
-9 8 11 930.803 322.328 2
9 11 8 155.134 233.217 1
-11 -9 -8 -154.758 277.192 3
11 8 9 278.536 294.048 4
11 -8 -9 217.884 199.114 4
-9 11 -8 17.4005 253.043 1
-11 8 -9 215.597 231.515 1
-11 9 8 521.616 281.513 1
9 -8 11 260.51 224.557 1
-9 8 11 -501.881 299.888 1
11 -9 8 292.415 292.839 2
-8 11 9 329.546 260.661 1
-8 11 9 675.857 288.676 2
8 -11 9 561.933 281.779 2
8 9 11 -53.9874 249.287 1
9 -11 -8 17.646 206.958 2
9 -11 -8 302.444 207.781 4
9 -8 11 38.4184 217.284 2
8 -9 -11 426.924 234.519 2
8 -9 -11 61.3012 223.873 1
-8 -11 -9 620.718 327.54 3
-8 9 -11 -132.238 230.697 1
8 11 -9 108.564 243.394 1
-9 -8 -11 829.357 337.703 3
8 9 11 297.359 282.555 4
-9 6 11 912.788 272.744 1
-9 -11 6 450.229 103.858 3
-6 -9 11 738.972 286.277 2
6 -11 9 298.857 188.491 1
-9 11 -6 234.328 272.729 1
-9 6 11 27.0321 177.108 2
11 -6 -9 676.55 226.29 4
6 -11 9 320.617 262.406 2
6 11 -9 851.134 285.12 1
6 9 11 690.797 343.851 4
-6 9 -11 697.156 227.602 1
-6 11 9 457.475 270.691 1
-6 11 9 734.829 267.6 2
-11 9 6 467.114 272.848 1
-11 6 -9 232.704 227.347 1
6 -9 -11 488.553 217.975 2
9 11 6 251.56 284.544 1
11 6 9 384.942 246.667 4
11 -6 -9 976.694 299.308 1
6 -9 -11 594.578 256.08 1
-9 6 11 425.354 241.678 4
-6 -11 -9 527.559 286.19 3
9 -11 -6 967.727 338.35 2
9 -6 11 574.566 285.474 2
11 -9 6 45.8974 224.248 2
6 9 11 -49.8272 193.808 1
9 -6 11 407.27 209.4 1
-11 -9 -6 493.121 256.636 3
-9 -6 -11 597.573 279.528 3
-9 -11 4 1911.77 231.269 3
9 11 4 1724.2 411.852 1
-9 11 -4 2130.4 455.682 1
-4 -11 -9 1362.29 349.989 3
9 -11 -4 2104.79 397.002 2
-4 11 9 2199.14 408.79 1
-4 -11 -9 1690.01 325.124 2
-4 -9 11 2117.95 370.649 2
4 9 11 1573.95 333.57 1
-4 11 9 1849.56 335.395 2
-4 9 -11 2578.11 434.262 2
11 -9 4 2002.92 426.154 2
4 11 -9 1507.21 326.256 1
-11 9 4 2330.01 475.167 1
-9 4 11 2180.04 363.577 1
9 -4 11 2186.94 368.802 1
4 -9 -11 2175.62 355.601 1
4 -11 9 1790.17 390.359 2
4 -9 -11 1840.42 310.403 2
4 -11 9 2096.72 365.329 1
11 4 9 2449.55 421.94 4
11 -4 -9 2628.28 419.653 1
-9 4 11 2041.31 338.642 4
-11 -9 -4 2193.91 429.006 4
-9 4 11 2002.33 326.114 2
4 9 11 2040.63 432.033 4
-4 9 -11 2041.75 345.675 1
9 11 4 1932.41 340.434 3
-9 -4 -11 1791.39 386.94 3
-11 -9 -4 1647.34 341.475 3
-9 -11 2 2290.06 290.359 3
11 2 9 2283.1 396.595 4
9 11 2 2056.65 408.114 1
11 -2 -9 2321.7 378.537 1
-2 -11 -9 2461.83 422.176 1
2 11 -9 2559.06 447.663 2
-2 11 9 2426.76 371.271 2
-2 -11 -9 2296.35 344.627 2
-2 9 -11 1873.94 362.79 2
-2 -9 11 2314.84 367.857 2
2 -9 -11 2187.84 340.096 1
9 2 -11 2029.64 289.533 1
-9 2 11 2495.3 344.202 1
-2 9 -11 1939.98 304.94 1
2 9 11 1644.69 339.329 1
2 -11 9 2489.11 417.472 2
-11 9 2 1818.52 412.715 1
2 -9 -11 2539.84 318.522 2
2 -11 9 2563.68 390.072 1
9 -11 -2 2715 454.765 2
-2 -9 11 2602.08 319.194 1
-11 -9 -2 1956.88 381.196 4
11 -9 2 2180.27 416.229 2
2 11 -9 2095.02 356.008 1
-9 2 11 2209.63 347.226 4
2 9 11 2180.93 440.035 4
-11 2 -9 1720.05 375.394 2
-2 11 9 1948.62 383.272 1
9 -2 11 2646.47 374.055 1
9 11 2 2459.43 369.061 3
-11 -9 -2 2469.12 370.352 3
-9 -2 -11 2311.3 458.352 3
-9 11 -2 2141.72 440.156 1
9 0 11 9787.52 858.386 4
-11 0 9 10186.4 635.817 4
0 -9 -11 11344.2 791.76 1
0 9 -11 12957.8 868.319 2
0 11 -9 11753.6 900.814 2
-9 0 -11 10280.8 793.358 2
0 -11 -9 10472.9 732.693 2
0 -11 9 11255.8 862.075 2
0 9 11 9771 745.864 1
0 11 9 8846.99 785.559 1
0 -9 11 12463 851.124 2
9 0 11 10379.4 757.886 1
-11 9 0 10893.3 933.327 1
11 0 9 11593.8 845.855 1
9 0 -11 11649 734.831 1
0 11 -9 11724.2 811.942 1
9 -11 0 9810.37 849.898 2
0 9 -11 10751.4 711.566 1
9 11 0 10013.1 854.453 1
11 -9 0 12281.8 934.361 2
11 0 -9 11557.4 793.361 1
-9 0 11 10848.3 746.22 4
11 0 9 10506.5 826.972 4
0 9 11 10840.8 904.489 4
0 -11 9 13104 823.952 1
0 -9 -11 11012.5 665.484 2
-11 -9 0 11682.5 757.024 3
-9 -11 0 10520.8 708.135 3
-11 0 -9 10040.5 852.019 2
-9 11 0 10427.6 924.956 1
0 -11 -9 10309.4 806.682 1
0 -9 11 13969.5 753.829 1
-2 -9 -11 2651.11 372.017 1
9 11 -2 2057.75 396.188 1
-2 -9 -11 2191.58 416.113 3
-9 -11 -2 2371.61 357.194 3
-2 -11 9 3136.75 402.187 1
-2 9 11 2074.73 355.224 1
-2 9 11 1977.23 303.319 2
-2 -11 9 2573.24 410.387 2
9 2 11 2223.43 425.326 4
2 -11 -9 2235.72 379.334 1
2 -11 -9 2211.68 349.285 2
2 11 9 1332.99 310.615 1
-2 9 11 1896.02 400.763 4
2 -9 11 2728.7 422.012 2
-2 -9 -11 2306.44 305.998 2
2 -9 11 2635.17 347.05 1
11 2 -9 2582.94 357.197 1
11 -2 9 2929.92 426.555 1
2 9 -11 2659.55 343.344 1
-11 9 -2 2383.18 451.297 1
-9 11 2 1950.26 416.967 1
-9 2 -11 1843.7 353.974 2
-11 2 9 2099.77 285.773 4
-11 -9 2 2302.88 308.25 3
2 9 -11 2343.34 212.428 3
11 -9 -2 2703.76 445.787 2
9 -2 -11 2303.73 337.338 1
-2 11 -9 1671.89 350.914 1
9 -11 2 2457.56 450.921 2
-9 -11 -4 2350.06 383.806 3
-4 -9 -11 2078.12 418.444 3
9 11 -4 2121.1 403.726 1
-11 4 9 2150.51 370.06 1
-4 -9 -11 1544.2 287.413 2
-4 9 11 2158.41 354.969 1
-11 -4 -9 1680.59 356.54 4
-4 -11 9 2291.13 398.894 2
-11 -4 -9 1823.63 428.231 3
-4 9 11 2296.87 347.158 2
4 11 9 1562.07 394.237 1
9 -4 -11 2228.58 352.754 1
9 4 11 2183.08 427.728 4
4 -9 11 2664.48 373.204 1
4 9 -11 2023.88 330.66 1
-4 -11 9 2608.17 379.184 1
-4 11 -9 1532.49 332.168 1
-11 4 9 1957.59 278.477 4
4 -11 -9 2288.74 375.556 1
4 -11 -9 2216.29 375.631 2
4 -9 11 1999.26 386.189 2
-9 4 -11 1392.28 355.529 2
9 -11 4 2029.98 408.043 2
-11 -9 4 2258.64 275.99 3
-11 9 -4 2397.37 458.546 1
11 -9 -4 2191.37 417.803 2
-9 11 4 2129.2 432.073 1
11 -4 9 2022.96 371.075 1
-4 9 11 2393.56 432.283 4
-11 4 9 2067 382.375 2
-9 -11 -6 296.395 227.17 3
9 -11 6 515.217 258.422 2
6 -11 -9 829.086 271.511 2
6 -9 11 692.966 255.81 1
-11 6 9 55.1037 220.978 1
9 -6 -11 359.06 208.165 4
6 11 9 476.01 254.299 1
-9 6 -11 6.04339 212.006 2
-9 6 -11 437.448 260.392 1
9 11 -6 405.345 209.014 1
11 -9 -6 541.525 212.449 4
-6 9 11 1050.35 278.11 2
11 -9 -6 308.212 252.568 2
-6 9 11 457.666 262.412 1
-6 -9 -11 339.554 240.777 3
-11 9 -6 328.121 255.749 1
6 -9 11 445.584 235.072 2
-6 -11 9 576.747 248.008 2
11 -6 9 569.928 261.997 2
-11 6 9 630.283 236.364 2
9 6 11 955.381 340.708 4
6 9 -11 550.264 194.344 1
-6 11 -9 3.47728 230.939 1
-9 11 6 640.738 304.606 1
-11 -6 -9 570.373 298.443 3
9 -6 -11 732.327 250.006 1
-8 -9 -11 477.351 285.58 3
-9 -11 -8 266.104 246.696 3
9 -8 -11 30.0569 203.058 1
9 11 -8 209.354 215.056 1
8 9 -11 386.347 208.465 1
8 11 9 -56.4633 246.671 1
8 -11 -9 -123.217 191.505 2
-11 8 9 37.2054 275.903 1
8 -9 11 273.493 241.163 2
-8 11 -9 10.6746 243.372 1
-9 8 -11 283.202 278.012 1
8 -9 11 260.432 197.632 1
9 -8 -11 285.209 217.725 4
-11 -8 -9 633.373 310.588 3
-8 9 11 71.0337 216.601 2
-11 8 9 429.256 259.449 2
9 8 11 29.5596 267.411 4
11 -9 -8 506.098 224.055 4
11 -9 -8 427.57 242.504 2
11 -8 9 415.835 275.918 2
-11 9 -8 843.643 310.675 1
-9 11 8 565.788 344.583 1
9 -8 -11 194.808 189.478 2
-8 9 11 207.242 231.33 1
9 -11 8 437.807 280.387 2
-9 -11 -10 2041.67 439.499 3
10 11 9 1759.53 425.242 1
9 10 11 2066.44 449.064 4
9 11 -10 2245.72 387.179 1
9 10 11 1662.18 392.821 1
11 -10 9 1243.26 410.407 2
-11 9 -10 2187.09 487.348 1
-10 9 11 1264.55 366.653 1
10 9 -11 1828.56 358.262 1
-11 10 9 2004.96 462.243 1
10 -11 -9 1719.2 378.473 2
-9 11 10 2325.03 465.551 1
-9 11 10 2242.66 457.014 2
-10 11 -9 1760.97 424.176 1
-10 9 11 1769.11 405.125 2
11 -9 -10 1390.21 302.236 4
9 -11 10 1555.99 425.244 2
-9 10 -11 1572.86 417.816 1
10 -9 11 1967.61 463.897 2
11 9 10 1613.3 411.834 4
9 -10 -11 1350.41 355.902 2
11 -9 -10 2101.59 417.692 2
-11 -10 -9 1771.16 437.179 3
-10 -9 -11 2028.6 494.059 3
-10 -11 7 247.851 91.5563 3
10 11 7 -255.612 253.759 1
-7 -11 -10 -17.553 223.077 3
-11 7 -10 121.446 230.781 1
-10 7 11 221.879 198.082 2
7 10 11 241.128 225.847 1
7 -10 -11 196.345 205.302 2
-11 10 7 -148.873 308.799 1
-7 11 10 139.78 244.953 2
11 -10 7 190.347 250.858 2
7 -11 10 -128.359 245.774 2
-10 11 -7 424.699 334.895 1
-10 -7 -11 251.432 260.92 3
7 10 11 -18.0161 273.747 4
11 7 10 257.16 242.057 4
-7 11 10 41.2325 240.362 1
-10 7 11 75.3724 214.99 1
-7 -10 11 158.184 202.387 2
11 -7 -10 234.59 223.874 4
10 -11 -7 -152.485 224.662 2
10 -11 -7 161.563 199.04 4
-7 10 -11 439.618 264.416 1
10 -7 11 182.619 230.206 2
7 11 -10 318.3 245.135 1
-11 -10 -7 50.1883 248.849 3
-5 -11 -10 -14.5433 250.624 3
-5 -11 -10 476.003 233.874 2
-10 -11 5 160.869 121.085 3
-5 -10 11 75.0208 181.577 2
5 10 11 673.781 275.123 1
-5 11 10 84.0234 225.096 1
10 11 5 357.16 294.139 1
-10 11 -5 275.906 257.961 1
10 -5 11 685.655 280.388 1
-5 11 10 105.855 204.079 2
-10 5 11 261.484 205.744 1
5 11 -10 484.373 239.231 1
-11 5 -10 105.86 237.916 1
10 -11 -5 150.288 228.677 2
5 -10 -11 408.347 243.887 1
5 -11 10 337.916 212.869 2
11 -5 -10 299.371 245.213 1
5 -10 -11 203.104 184.154 2
-10 5 11 619.005 240.947 2
11 5 10 262.747 292.238 4
-10 5 11 -41.6178 216.22 4
11 -10 5 95.8315 255.539 2
-11 10 5 413.382 263.62 1
5 -11 10 213.691 223.106 1
5 10 11 271.756 310.667 4
10 -5 11 150.11 206.215 2
-5 10 -11 218.495 214.515 1
-10 -5 -11 136.391 234.132 3
-11 -10 -5 244 229.496 3
11 -5 -10 642.277 227.149 4
10 11 3 734.627 307.03 1
-3 -10 11 1005.87 243.463 1
-11 -10 -3 613.569 245.674 4
11 -3 -10 106.488 190.362 1
-10 11 -3 818.788 338.628 1
-3 -11 -10 697.087 253.806 2
-3 11 10 660.644 228.704 2
-3 -10 11 610.174 254.341 2
-10 -3 -11 313.722 279.984 3
-3 10 -11 405.768 269.993 2
-11 10 3 733.555 328.366 1
3 10 11 128.781 196.634 1
10 -3 11 396.357 249.433 1
3 -10 -11 1065.95 309.495 1
3 -11 10 752.667 287.399 2
11 -10 3 812.204 331.736 2
-3 10 -11 609.412 237.14 1
3 -10 -11 481.346 222.213 2
3 11 -10 1095.38 316.372 1
11 3 10 577.049 294.472 4
3 -11 10 954.665 311.736 1
-10 3 11 677.274 243.395 4
10 -11 -3 571.139 287.649 2
-10 3 11 992.554 273.981 1
3 10 11 466.266 293.136 4
-10 3 11 517.175 226.658 2
-11 -10 -3 782.11 249.618 3
10 3 -11 1073.4 257.565 1
-10 -11 3 344.874 144.95 3
-3 11 10 121.158 234.356 1
1 11 -10 458.219 236.256 1
10 11 1 676.473 316.952 1
11 1 10 242.905 234.349 4
10 -1 11 554.627 189.016 1
-10 11 -1 648.244 354.222 1
11 -10 1 -12.8963 221.73 2
-1 10 -11 397.47 211.274 1
-1 11 10 155.493 194.06 2
-1 10 -11 -38.9954 230.568 2
1 -10 -11 599.28 274.241 1
-1 -11 -10 296.967 202.317 2
-1 -10 11 -124.036 221.632 2
-11 10 1 298.207 263.825 1
1 -10 -11 306.204 179.898 2
1 -11 10 254.652 229.28 2
1 -11 10 534.951 215.826 1
10 -11 -1 -66.4665 244.698 2
10 1 -11 613.82 225.564 1
1 10 11 405.825 223.489 1
-10 1 11 226.126 184.785 4
-10 -1 -11 604.136 306.143 3
-1 11 10 518.577 263.825 1
11 -1 -10 319.477 242.756 1
1 10 11 398.177 334.817 4
-1 -11 -10 509.198 241.752 1
-1 -10 11 261.588 186.333 1
-11 1 -10 235.542 214.905 2
-11 -10 -1 278.048 193.32 3
-10 -11 1 262.938 143.479 3
10 11 -1 483.889 270.461 1
11 -10 -1 482.211 301.023 2
-1 11 -10 407.761 231.683 1
-10 11 1 307.078 305.53 1
-1 10 11 702.212 238.175 2
-1 10 11 389.78 319.308 4
1 10 -11 -73.2521 222.043 2
11 -1 10 414.53 219.266 1
10 -11 1 471.201 297.622 2
-1 -11 10 152.809 166.92 1
1 -11 -10 447.223 204.207 1
-1 -10 -11 90.6118 144.605 2
-1 -11 10 349.752 218.69 2
1 -11 -10 168.237 171.919 2
1 -10 11 374.993 195.589 1
1 -10 11 150.871 205.447 2
10 -1 -11 627.217 231.59 1
-1 10 11 500.141 247.472 1
1 11 10 178.265 206.348 1
11 -1 10 208.972 240.402 4
10 1 11 167.101 261.729 4
-11 1 10 313.535 162.716 4
-11 10 -1 188.151 252.255 1
11 1 -10 175.899 175.034 1
-1 -10 -11 278.313 223.47 1
-10 1 -11 742.619 298.536 2
1 10 -11 26.1029 182.643 1
-11 -10 1 287.153 157.895 3
-10 -11 -1 203.4 154.249 3
11 -10 -3 857.697 315.386 2
-3 10 11 510.317 254.406 1
10 11 -3 931.548 320.851 1
-10 11 3 648.683 352.261 1
-3 -10 -11 497.083 272.253 3
11 -3 10 330.981 228.506 1
-3 10 11 613.121 209.297 2
-3 11 -10 967.941 291.598 1
3 11 10 487.459 226.427 1
-11 3 10 874.445 253.771 1
-3 -10 -11 719.826 266.656 1
3 -11 -10 846.827 300.04 1
3 -11 -10 762.499 241.117 2
-11 10 -3 557.533 306.437 1
-3 -11 10 739.147 295.485 2
3 -10 11 819.137 315.03 2
3 10 -11 605.746 253.065 1
3 10 -11 386.325 81.1208 3
3 -10 11 910.77 253.298 1
10 3 11 497.961 296.765 4
-11 -10 3 401.015 164.936 3
10 -11 3 368.72 275.272 2
-11 3 10 534.211 196.612 4
-10 3 -11 427.104 272.574 2
-11 -3 -10 454.986 293.858 3
-11 3 10 670.302 271.323 2
-3 -11 10 596.073 241.249 1
-3 -10 -11 548.92 214.706 2
10 -3 -11 959.914 294.798 1
-10 -11 -3 404.608 210.546 3
-10 11 5 223.897 265.75 1
10 5 11 681.856 302.207 4
-11 10 -5 491.58 313.281 1
-5 -11 10 -198.41 225.734 2
10 -5 -11 506.124 238.925 4
-5 10 11 158.341 221.179 1
5 -11 -10 483.747 224.447 2
5 11 10 55.5387 211.824 1
-5 10 11 195.26 196.135 2
5 10 -11 392.532 210.987 1
5 -10 11 -19.6215 221.388 2
-10 5 -11 352.959 227.766 1
10 -5 -11 421.279 205.568 1
-11 5 10 902.372 280.696 1
-11 -10 5 118.794 122.442 3
-11 -5 -10 453.131 283.766 3
-5 11 -10 -123.442 218.962 1
10 -11 5 268.839 239.159 2
10 11 -5 106.028 215.079 1
-11 5 10 460.62 203.255 2
-11 5 10 305.565 203.463 4
11 -10 -5 497.016 273.502 2
5 -10 11 215.269 237.575 1
-5 -10 -11 -27.1608 244.415 3
-10 -11 -5 -79.7249 215.017 3
-10 -11 -7 183.21 218.097 3
-7 11 -10 -222.152 248.493 1
7 -10 11 506.121 272.447 1
-11 -7 -10 24.7511 220.241 3
7 11 10 16.8868 220.942 1
-7 -11 10 423.081 259.973 2
7 10 -11 361.961 241.549 1
10 -11 7 486.77 321.029 2
10 -7 -11 26.4849 198.395 1
-7 10 11 354.023 221.125 2
10 11 -7 383.616 272.15 1
-7 10 11 180.133 240.651 1
11 -10 -7 156.258 193.922 4
10 -7 -11 311.493 222.944 4
7 -11 -10 -146.225 195.538 2
7 -10 11 166.104 275.109 2
-10 11 7 -396.358 312.801 1
-11 10 -7 591.624 323.552 1
10 7 11 -464.177 309.474 4
11 -7 10 323.437 218.134 2
11 -10 -7 43.2137 234.237 2
-11 7 10 394.966 282.692 1
-11 -10 7 271.803 112.069 3
-11 7 10 740.458 298.611 2
-7 -10 -11 281.988 246.671 3
-10 7 -11 30.3679 235.743 1
-10 11 9 1402.82 378.228 1
10 11 -9 1627.47 351.936 1
9 11 10 1756.32 405.487 1
9 10 -11 1878.38 338.028 1
-10 9 -11 2370.07 464.876 1
-10 -11 -9 1684.3 415.617 3
-11 -9 -10 2193.46 474.265 3
-9 11 -10 1522.66 409.678 1
-11 9 10 1651.77 402.863 1
11 -10 -9 2596.16 414.846 4
-9 10 11 1721.96 360.345 2
10 -9 -11 1907.32 392.65 4
-11 -10 9 1510.42 157.29 3
9 -10 11 1782.23 434.379 2
10 9 11 2210.17 480.251 4
-11 10 -9 2342.59 477.957 1
11 -9 10 2324.88 464.019 2
11 -10 -9 1982.8 402.367 2
10 -9 -11 2357.85 430.738 2
10 -11 9 2213.09 495.25 2
-9 -10 -11 2036.9 438.191 3
9 -11 -10 2452.71 451.932 2
-9 10 11 1948.77 446.319 1
11 0 -11 2375.5 380.072 1
11 0 11 2235.53 406.775 1
0 -11 -11 1953.32 387.31 1
-11 11 0 2539.49 496.008 1
0 -11 11 2637.27 362.742 1
0 -11 -11 1863.98 313.972 2
11 -11 0 1914.33 400.399 2
0 -11 11 2449.23 439.076 2
-11 0 11 2017.58 330.03 4
0 11 11 1970.27 391.417 1
-11 0 -11 2175.84 424.228 2
-11 -11 0 2444.07 346.479 3
0 11 -11 1845.89 337.206 1
11 0 11 1814.42 394.708 4
-2 11 -11 12986 898.213 1
-2 -11 11 15470.3 895.067 1
-11 11 2 13849.8 1119.71 1
2 -11 11 16605 951.045 1
11 -2 -11 13403.1 903.331 1
-2 11 11 13201.9 871.465 2
-2 -11 -11 12722.8 826.781 2
-11 11 -2 13348.4 1093.69 1
-2 -11 11 13441.6 970.944 2
2 11 -11 14074.1 899.655 1
2 -11 -11 14093.8 866.361 2
2 -11 11 13331.4 991.228 2
-2 11 11 13306.1 959.861 1
2 11 11 11108 884.984 1
11 -11 2 13418.4 1040.75 2
11 -11 -2 13345.4 1027.05 2
-11 2 -11 11635.2 948.807 2
11 2 11 11079.5 939.865 4
-11 -11 -2 11593.8 850.035 3
11 -2 11 12445.4 912.82 1
-11 -2 -11 12764.6 1053.88 3
-11 -11 2 13177.4 783.894 3
-11 2 11 12925.1 804.085 4
2 -11 -11 13066.6 924.957 1
11 2 -11 13298.8 862.345 1
-4 -11 -11 1527.46 391.005 3
-4 11 11 1412.28 339.204 1
11 -11 4 1794.55 413.206 2
-4 -11 -11 1168.68 278.987 2
-11 -4 -11 1423.06 383.408 3
-11 11 4 1085.33 368.416 1
4 -11 11 1447.91 337.267 1
-11 4 11 1411.42 309.271 1
-4 -11 11 1699.86 367.791 2
-4 11 11 1317.53 323.452 2
4 11 11 1441.12 339.929 1
11 4 11 1251.75 355.667 4
-11 11 -4 1858.89 453.552 1
4 11 -11 1563.65 330.735 1
11 -11 -4 972.039 328.75 2
4 -11 11 1288.12 361.735 2
4 -11 -11 1611.28 317.111 2
-4 11 -11 1342.24 320.771 1
11 -4 11 1407.46 345.72 1
-11 4 11 1077.17 257.549 4
4 11 11 1373.75 421.842 4
-11 4 11 1377.14 320.913 2
11 -4 -11 1637.28 337.733 1
-11 -11 4 1204.4 209.257 3
-11 -11 -4 1086.2 313.45 3
11 11 -6 711.718 279.841 1
6 -11 11 972.065 302.809 1
-11 11 6 1183.6 378.008 1
-11 6 11 890.689 301.554 1
-6 -11 11 825.889 275.366 2
6 11 11 469.412 240.595 1
-11 6 -11 186.895 252.592 1
11 -6 11 1242.42 372.961 2
6 11 -11 1306.35 322.383 1
-6 11 11 339.849 233.174 2
-6 11 11 997.513 340.38 1
11 -11 6 1072.94 375.597 2
11 -6 -11 1209.22 325.616 1
-11 11 -6 1355.33 419.367 1
6 11 11 887.466 381.221 4
11 -6 -11 863.058 283.01 4
6 -11 -11 812.419 294.342 2
6 -11 11 659.852 290.57 2
-11 6 11 437.915 214.187 2
11 6 11 295.001 252.285 4
-6 -11 -11 227.56 217.56 3
11 -11 -6 539.572 270.8 2
-11 6 11 737.363 271.046 4
-11 -6 -11 1041.79 414.006 3
-11 -11 6 937.777 163.112 3
-11 -11 -6 1146.22 333.113 3
-6 11 -11 629.257 272.819 1
-11 8 -11 5227.11 649.984 1
-8 -11 11 6312.16 663.17 2
-11 11 8 6312.15 740.232 1
8 11 -11 5275.85 561.713 1
-8 11 11 6316.13 681.949 2
-11 -8 -11 5415.47 704.706 3
-11 11 -8 6586.45 781.329 1
-11 -11 8 5004.99 317.688 3
-8 11 -11 5701.55 655.535 1
11 8 11 4995.31 660.316 4
8 -11 11 6533.34 749.057 2
8 -11 -11 6790.56 692.664 2
11 -11 8 6559.84 776.814 2
11 -11 -8 6907.78 730.765 2
11 -11 -8 4966.73 555.451 4
11 -8 11 5134.33 669.366 2
11 -8 -11 5353.32 588.081 4
-11 8 11 5904.4 658.095 2
-11 8 11 5789.47 665.559 1
-8 -11 -11 5762.02 700.473 3
8 11 11 5539.47 689.237 4
-8 11 11 6437.09 726.426 1
11 11 8 4560.74 629.509 1
11 11 -8 5281.18 624.413 1
8 11 11 6002.31 691.546 1
-11 -11 -8 4589.11 638.109 3
-10 -11 -11 879.678 432.763 3
11 10 -11 713.83 295.022 1
10 11 -11 1052.76 327.36 1
-11 11 10 872.511 365.556 1
11 10 11 759.691 404.033 4
10 11 11 1306.33 373.117 1
-11 10 11 1055.37 386.373 1
11 11 -10 1148.56 322.442 1
11 -11 10 731.175 397.628 2
10 -11 11 957.207 412.471 2
-10 11 -11 1122.22 374.336 1
-11 -11 -10 400.779 344.44 3
11 -10 11 1145.56 361.219 2
10 11 11 951.913 367.803 4
10 -11 -11 975.679 329.528 2
-11 11 -10 852.173 354.517 1
11 -11 -10 926.123 344.324 2
11 -10 -11 717.021 301.255 2
-11 10 -11 587.25 329.782 1
11 11 10 1158.58 389.527 1
-10 11 11 913.528 320.565 1
-11 -10 -11 1138.78 386.913 3
0 12 0 3068.52 458.313 2
0 0 12 2511.57 335.073 3
0 -12 0 2557.85 420.547 2
0 -12 0 3162.26 442.507 1
0 12 0 2384.02 420.643 1
0 0 -12 2705.2 373.943 3
12 0 0 2821.1 444.885 1
12 0 0 2204.63 177.313 4
1 -12 -1 5827.79 567.413 1
1 1 12 5672.04 616.071 4
1 -12 1 5896.88 581.647 1
-1 1 12 5865.4 611.85 4
12 -1 1 7009.84 630.231 1
-1 -12 -1 6228.54 615.228 1
1 12 1 6156.65 634.424 2
1 12 -1 5736.78 637.551 2
-1 12 1 5610.92 606.556 2
-1 12 -1 6519.21 650.179 2
1 12 1 5693.23 608.865 1
-1 1 -12 5638.91 328.062 2
-1 -12 -1 5605.82 578.199 2
1 12 -1 5331.35 604.308 1
12 -1 1 5916.9 357.406 4
12 -1 -1 6735.82 619.389 1
-1 12 1 5478.03 598.289 1
1 -12 -1 5992.49 586.969 2
-1 -1 -12 5079.39 533.134 3
1 -1 12 5876.31 341.397 2
12 1 1 6806.55 379.991 4
12 1 -1 6990.6 636.783 1
-1 -1 12 5032.21 301.294 2
-1 12 -1 5032.07 554.55 1
1 -1 12 6242.18 521.219 3
1 1 12 5871.35 534.786 3
-1 -1 12 6145.84 492.654 3
-1 1 12 6288.05 539.607 3
-1 1 -12 5958.14 537.857 3
1 1 -12 7445.37 562.966 3
1 -12 1 6432.34 633.397 2
1 -1 -12 6292.92 568.962 3
-1 -12 1 6035.96 607.105 2
1 1 12 4539.51 283.506 1
-1 -12 1 6630.77 615.454 1
0 2 -12 627.499 232.393 3
12 0 -2 626.01 247.41 1
0 -2 -12 186.97 208.206 3
2 12 0 431.416 249.549 2
0 12 2 445.622 218.601 2
0 12 -2 387.678 249.529 2
-2 -12 0 386.241 226.089 1
2 0 12 361.679 102.042 1
-2 12 0 111.349 218.052 1
-2 -12 0 256.038 233.842 2
12 0 2 127.144 122.691 4
-2 12 0 -89.2388 241.179 2
0 -12 -2 540.964 245.811 2
0 -12 2 230.24 196.406 2
0 -12 -2 188.163 226.261 1
0 -12 2 216.027 210.014 1
2 -12 0 315.244 220.282 2
-2 0 -12 45.8271 82.7223 2
2 12 0 154.928 212.341 1
2 -12 0 534.257 269.599 1
12 -2 0 132.84 203.782 1
0 -2 12 461.126 120.41 2
0 2 -12 332.923 118.744 2
-12 -2 0 484.888 134.125 4
0 2 12 244.709 260.357 4
0 2 12 267.95 88.4403 1
0 12 -2 42.5435 208.313 1
2 12 0 106.679 178.298 3
0 -2 12 258.16 140.437 3
2 0 12 219.982 203.358 3
12 0 2 500.682 245.17 1
0 12 2 304.088 241.129 1
0 2 12 329.422 168.702 3
-2 0 -12 289.456 239.129 3
-2 0 12 199.786 151.987 3
-2 2 12 891.698 273.99 3
-2 -12 -2 462.02 267.111 2
2 2 -12 412.508 190.707 3
-2 -2 -12 765.325 253.998 3
2 2 12 324.96 133.258 1
-2 -2 -12 324.584 89.0957 2
2 -2 -12 582.753 115.207 1
-2 -2 12 267.456 107.037 2
-2 -12 2 457.787 228.488 2
-2 12 2 285.058 224.722 1
-2 -12 -2 857.586 312.867 1
-2 -12 2 628.213 250.234 1
12 -2 -2 408.322 208.184 1
-2 12 2 440.288 327.716 2
-2 12 -2 540.849 287.625 2
-2 2 12 557.011 260.387 4
-2 2 -12 692.476 168.43 2
2 -12 -2 419.682 249.053 2
2 -12 2 652.667 249.485 2
2 12 2 244.913 228.155 1
2 12 -2 642.417 276.954 1
2 -12 -2 951.073 283.589 1
2 -12 2 664.862 226.952 1
2 -2 12 355.004 103.521 1
-12 2 -2 546.521 257.514 2
2 2 12 646.902 309.458 4
12 -2 2 254.878 223.52 1
2 12 2 681.573 248.432 3
-2 2 12 465.803 111.363 1
2 -2 12 525.133 164.056 2
12 2 2 582.719 167.111 4
-2 -2 12 402.104 160.69 3
2 2 12 565.266 225.048 3
-2 12 -2 257.666 260.354 1
2 12 -2 309.638 264.387 2
-2 2 -12 510.761 221.14 3
3 12 1 2354.42 360.649 3
1 -3 -12 2861.85 414.656 3
12 -3 1 2724.62 428.43 1
-3 -12 1 3089.89 459.069 1
1 12 -3 2652.93 435.193 2
-1 -3 12 2961.46 277.69 2
-3 -12 1 2136.82 388.465 2
-1 12 3 2060.59 388.911 2
-1 3 -12 2412.94 260.777 2
-1 -12 -3 2154.07 392.109 1
-1 -12 -3 3070.52 430.71 2
-12 3 1 3204.72 440.845 1
1 3 12 2917.5 481.272 4
-3 12 -1 2121.83 399.544 2
-12 -3 -1 2721.91 276.476 4
-1 12 3 2262.67 422.119 1
3 -1 12 2479.38 235.771 1
1 -12 3 2339.08 387.282 2
3 12 1 2104.61 407.675 1
-3 -1 -12 2426.87 237.505 2
3 -12 -1 2589.53 406.109 2
1 -12 3 3496.82 452.619 1
3 -12 -1 3079.18 443.182 1
1 3 12 2030.57 220.974 1
12 1 3 2985.58 318.352 4
1 12 -3 2543.96 416.217 1
-3 1 12 2025.98 376.983 4
-12 3 1 2542.23 445.186 2
-3 1 12 2429.44 348.388 3
-3 1 12 1921.16 167.804 1
-1 -3 12 2856.96 316.916 3
12 -1 -3 3265.22 444.835 1
-3 12 -1 2254.06 415.585 1
1 -3 -12 2409.75 220.765 1
-1 3 -12 2479.74 332.93 3
1 3 12 2824.03 397.762 3
-3 -1 -12 2355.88 373.013 3
-3 -1 12 2465.79 305.328 3
-1 3 12 2891.22 399.256 3
1 3 -12 2297.93 317.938 3
3 -1 -12 1994.83 166.514 1
1 12 3 2618.46 396.055 3
-3 -1 12 2378.34 206.869 2
1 12 3 2811.79 446.39 2
-12 3 -1 3281.37 457.693 1
1 -3 12 1930.3 165.008 1
-3 -12 -1 2923.94 436.291 2
-1 12 -3 2571.43 423.899 2
-12 3 -1 2070.9 410.108 2
-1 -12 3 2324.17 394.2 1
12 1 -3 2573.53 384.168 1
-1 -12 3 2692.02 413.844 2
3 1 12 2241.48 433.282 4
-3 12 1 2636.01 459.639 2
1 -12 -3 1915.15 341.593 2
3 12 -1 2469.59 406.86 1
1 -12 -3 2119.37 370.639 1
12 -1 3 3000.65 429.369 1
3 -12 1 2397.24 384.506 2
-3 1 -12 2454.21 270.591 2
3 -12 1 2707.09 419.861 1
1 12 3 1888.37 355.638 1
-12 -3 1 2594.65 233.591 4
1 -3 12 2713.81 289.551 2
12 -1 3 2445.05 286.467 4
-1 12 -3 2163.74 405.314 1
3 12 -1 2547.35 317.363 3
-1 -3 -12 1973.45 373.739 3
12 -3 -1 3084.51 439.189 1
-3 -12 -1 3163.37 444.689 1
-1 3 12 2112.7 404.429 4
3 1 12 2646.81 401.24 3
-1 3 12 2128.82 219.768 1
-3 1 -12 2301.25 368.663 3
-3 12 1 2542.77 428.61 1
-3 -3 -12 2316.53 410.145 3
3 12 3 2260.74 388.234 3
-3 -12 -3 1490.24 340.778 2
-3 3 12 1759.28 338.038 3
-3 12 -3 2992.32 466.09 1
3 3 12 2030.79 253.186 1
3 12 -3 1990.59 278.172 3
-3 -12 3 2092.79 370.107 1
-3 -3 12 2095.44 242.021 2
12 3 3 2561.85 313.278 4
-3 -12 3 2162.35 389.766 2
-3 12 3 2560.64 442.047 2
3 12 3 1603.9 381.835 1
3 12 -3 2441.93 415.801 1
-3 3 -12 2162.04 295.968 2
3 -3 -12 2189.66 233.41 1
3 -12 -3 2265.64 375.552 2
3 -12 3 1758.72 370.381 2
3 -12 3 2259.15 396.995 1
3 3 12 2562.9 471.98 4
-3 3 12 2745.48 432.826 4
3 -3 12 2420.22 246.565 1
3 -3 12 2462 307.69 2
-3 3 12 2276.15 245.482 1
-12 3 3 2329.61 428.062 2
-12 -3 -3 1605.46 278.2 4
-3 3 -12 2011.23 333.079 3
12 -3 -3 3450.19 443.319 1
3 3 12 2251.41 382.258 3
-12 3 3 2757.74 422.037 1
-3 -3 12 2288.67 273.112 3
-12 3 -3 2826.08 459.3 1
-3 12 3 2012.32 407.961 1
4 12 2 1102.03 268.601 3
-4 2 12 846.017 239.087 3
2 -4 -12 1148.96 343.216 4
-4 12 -2 1130.49 317.757 1
12 -2 -4 1369.11 310.735 1
-2 -12 -4 1255.59 282.504 2
2 4 12 926.48 191.765 1
-2 -4 12 1170.92 211.655 3
2 -4 -12 845.363 168.902 1
-2 -4 12 1146.54 207.912 2
4 12 2 1048.97 332.017 1
-2 4 -12 1508.07 250.243 2
-12 -4 -2 1175.68 231.57 4
4 -2 12 1085.04 184.776 1
2 -12 4 1096.71 308.108 2
-2 4 -12 1145.19 178.464 1
4 -12 -2 1002.54 308.265 2
12 2 4 1175.56 240.698 4
2 12 -4 1278.72 316.687 1
2 -12 4 1391.66 328.552 1
-4 2 12 993.18 313.392 4
-12 4 2 1151.43 318.333 1
-4 -12 2 1041.51 317.528 1
-4 -12 2 1280.48 323.411 2
2 4 12 1436.64 369.372 4
-4 -2 -12 890.956 172.162 2
-4 2 12 840.239 131.072 2
4 2 -12 542.007 102.701 1
-2 12 4 277.677 220.147 1
-12 4 2 1279.58 366.477 2
-4 2 12 1212.39 167.951 1
4 -2 12 1327.02 222.154 2
-2 4 -12 1073.65 252.876 3
2 4 12 966.289 300.812 3
-4 -2 -12 1349.42 313.365 3
-2 12 4 1220.42 331.502 2
12 0 -4 8121.81 670.608 1
0 4 -12 7990.91 507.933 2
0 12 4 7873.68 715.844 2
-4 -12 0 7953.65 721.748 2
0 4 -12 5480.55 332.266 1
0 -12 -4 6640.19 617.391 2
0 -12 4 6422.67 641.753 2
0 4 12 6562.56 439.628 1
4 0 12 6912.58 443.906 1
0 12 4 6858.91 675.208 1
12 0 4 7644.57 692.344 1
-12 4 0 7336.2 686.717 1
0 12 -4 7576.55 697.845 1
0 -4 12 7721.8 515.168 2
0 -12 4 7165.82 627.449 1
4 -12 0 6422.44 637.943 2
-4 0 -12 6641.73 467.651 2
-4 12 0 6978.26 693.29 2
-4 12 0 7469.26 723.199 1
4 0 -12 5412.2 322.878 1
0 -4 -12 7408.65 733.495 4
12 0 4 7445.13 526.814 4
-12 -4 0 7868.89 484.908 4
-4 0 -12 5912.03 584.047 3
0 4 -12 7376.23 532.092 3
4 12 0 6368.26 531.85 3
-4 0 12 7660.3 561.99 3
0 -4 -12 7029.18 653.865 3
0 4 12 6889.16 628.656 3
0 4 12 8027.2 740.492 4
0 -4 12 6764.8 339.824 1
0 -12 -4 7183.87 668.904 1
4 12 0 6754.38 686.434 1
-4 -2 12 931.146 195.696 3
-2 4 12 1258.1 362.789 4
-2 4 12 1059.64 298.74 3
-2 -4 -12 1674.4 363.479 3
2 4 -12 1017.03 211.882 3
-4 12 2 678.858 245.874 1
-12 4 -2 1260.33 338.29 1
4 2 12 762.359 248.466 3
-2 4 12 981.873 196.226 1
4 12 -2 685.247 176.907 3
-4 -12 -2 909.437 299.894 2
-2 -12 4 1158.63 303.646 1
-2 -12 4 1389.41 361.102 2
4 12 -2 1171.62 324.74 1
-4 12 2 800.922 286.035 2
4 -12 2 1135.88 302.129 1
12 -2 4 794.972 263.462 1
2 -12 -4 999.7 289.847 2
2 12 4 625.806 280.956 1
4 -2 -12 841.811 152.094 1
2 -12 -4 1717 375.975 1
4 -12 2 1250.52 329.386 2
-4 2 -12 1173.53 239.003 2
-4 2 -12 541.317 232.362 3
2 12 4 1475.18 337.443 3
2 4 -12 703.65 105.727 1
4 2 12 884.917 326.094 4
2 -4 12 1204.75 238.768 2
2 -4 12 1413.9 190.56 1
-2 12 -4 425.903 250.383 1
-12 4 4 5265.53 579.742 1
-4 -4 12 5744.3 442.206 2
-4 -12 -4 5371.61 594.296 2
-4 -12 4 5376.65 592.282 2
-4 12 4 5951.17 639.659 2
-12 4 4 5847.58 623.572 2
12 -4 -4 5530.87 581.694 1
4 -12 4 6131.62 598.743 1
-4 4 12 4506.82 327.164 2
-4 4 -12 6435.07 541.341 2
4 -12 -4 5899.66 597.144 2
4 4 -12 5411.01 336.746 1
4 12 4 4975.32 594.952 1
4 4 12 5582.45 649.141 4
-4 4 -12 4913.16 408.45 1
4 12 4 5513.89 571.821 3
-4 12 4 5715.38 633.595 1
4 -4 12 5264.08 489.836 2
4 -4 12 5467.99 420.316 1
-4 12 -4 6440.52 670.542 1
-12 4 -4 4810.45 573.003 1
-12 -4 -4 5649.08 523.204 4
-4 4 12 6014.78 618.276 4
12 -4 -4 5071.2 310.235 4
4 -4 -12 4904.54 569.671 4
4 -12 4 5025.27 583.375 2
-4 4 -12 4913.01 503.982 3
-4 -4 12 6215.64 407.113 3
4 -4 -12 5446.69 410.386 1
-4 -4 -12 5620.91 638.833 3
-4 4 12 4746.3 407.442 1
4 12 -4 6014.09 417.637 3
4 4 12 5163.82 444.047 1
-4 -12 4 6267.09 615.84 1
12 4 4 6097.15 507.855 4
-4 4 12 5979.87 584.707 3
4 12 -4 5692.76 591.262 1
-5 -12 3 6169.58 627.039 2
3 -5 -12 5519.74 430.925 1
3 12 -5 6032.55 606.44 1
5 -3 12 5836.17 460.258 1
-3 -12 -5 4728.81 547.521 2
-3 -5 12 5697.98 460.03 2
-3 12 5 6116.22 648.05 2
-12 -5 -3 5402.01 509.063 4
3 -12 5 6365.49 612.893 1
5 12 3 5924.69 573.421 3
-3 5 -12 6246.47 532.573 2
-5 3 12 5497.5 433.593 1
3 -12 5 6215.21 644.321 2
5 12 3 4876.03 593.558 1
-5 3 12 6334.34 619.519 4
5 -12 -3 5983.24 602.472 2
-5 3 12 5888.64 581.502 3
-5 3 12 5422.83 382.099 2
-3 5 -12 6043.7 441.176 1
5 -3 12 5711.43 499.725 2
3 -5 -12 4668.52 322.166 2
12 3 5 5401.95 495.636 4
3 -5 -12 5125.85 606.414 4
12 -3 -5 5964.01 604.823 1
-12 5 3 6356.76 642.662 1
-3 5 -12 6052.51 534.652 3
3 5 12 5281.79 625.578 4
-5 12 -3 5983.58 660.98 1
3 5 12 5411.16 453.738 1
-3 12 5 4989.38 584.871 1
-5 -3 -12 4798.07 582.233 3
1 5 12 5470.95 435.061 1
1 -12 5 5983.41 572.643 1
5 1 -12 5198.83 339.263 1
-5 -12 1 5832.38 619.069 2
-1 12 5 5737.29 602.507 2
-1 5 -12 6328.27 491.182 2
-1 -12 -5 5223.73 580.332 2
12 -1 -5 5920.17 600.887 1
-1 -5 12 6106.97 474.971 2
1 12 -5 5541.8 590.706 1
1 -12 5 6047.02 624.141 2
-1 5 -12 5115.29 365.813 1
-1 12 5 4892.03 590.57 1
-5 12 -1 5255.25 616.344 1
5 -12 -1 5527.52 602.621 2
1 -5 -12 4149.45 286.539 2
-5 -1 -12 5152.84 427.791 2
-5 1 12 6110.8 597.511 4
1 -5 -12 5389.54 651.069 4
12 1 5 5468.92 491.284 4
5 -1 12 6256.08 458.741 1
1 5 12 5478.15 636.134 4
-12 -5 -1 5262.71 449.487 4
5 12 1 5207.2 499.74 3
-1 5 -12 5513.31 470.508 3
-5 -1 -12 5776.62 606.156 3
1 5 12 5526.98 579.917 3
-12 5 1 5807.12 624.028 1
-1 -5 12 5866.53 330.912 1
-5 1 12 6347.16 545.509 3
1 -5 -12 5795.02 431.994 1
5 12 1 5283.92 624.074 1
1 -12 -5 5419.89 583.6 1
1 -5 12 6337.85 380.319 1
1 12 5 5260.84 591.279 2
1 12 5 5345.25 598.514 1
-1 -12 5 5800.59 615.621 2
-5 -12 -1 4484.85 560.312 2
12 1 -5 6955.88 627.332 1
1 -5 12 6537.46 518.761 2
-1 5 12 5169.92 423.451 1
1 -12 -5 5376.41 559.065 2
12 -1 5 6008.18 491.736 4
5 -12 1 5695.85 616.528 2
5 1 12 5215.32 626.803 4
-1 12 -5 5972.41 634.012 1
12 -1 5 7740.37 680.986 1
-5 1 -12 6517.35 507.855 2
1 5 -12 4947.2 326.44 1
-5 12 1 5293.59 625.401 1
5 -1 -12 5701.83 376.604 1
-1 5 12 5575.35 631.325 4
-12 -5 1 6309.72 459.833 4
-1 -12 5 6405.34 593.635 1
-5 1 -12 5253.13 571.142 3
1 5 -12 5868.9 447.86 3
5 12 -1 6028.32 487.808 3
-12 5 -1 6448.42 655.862 1
-1 5 12 5540.4 578.44 3
-5 -1 12 6265.49 495.156 3
-1 -5 -12 6019.76 632.16 3
1 12 5 5943.19 638.599 3
5 12 -1 5987.82 639.784 1
-5 12 3 6333.74 646.677 2
-5 -12 -3 5837.2 555.535 3
-3 5 12 5804.21 623.653 4
-5 -12 -3 5700.28 605.191 2
-5 12 3 4848.32 578.142 1
-3 -12 5 5284.75 590.542 2
-3 5 12 4875.48 329.617 2
3 5 -12 5243.85 346.468 1
-12 3 5 5504.62 577.772 1
3 -12 -5 5543.15 576.974 2
-5 3 -12 5722.91 527.763 2
-12 5 -3 4533.44 585.919 1
5 -3 -12 5681.11 415.035 1
3 -5 12 6188.64 536.221 2
3 -5 12 6738.78 449.002 1
5 -12 3 6009.35 641.182 2
-3 12 -5 5382.55 600.539 1
5 3 12 5900.98 677.052 4
-12 3 5 5637.02 612.551 2
-12 -3 -5 4818.11 502.7 4
-3 5 12 4857.34 432.163 1
-5 3 -12 4733.45 531.242 3
5 12 -3 5483.96 424.418 3
-5 -3 12 6703.53 452.084 3
3 12 5 5285.17 579.567 3
-3 -5 -12 4976.9 590.101 3
-3 5 12 6251.7 618.115 3
3 12 5 6055.96 636.943 1
-3 -12 5 6698.48 606.39 1
3 5 -12 6189.99 429 3
5 12 -3 5952.12 623.939 1
-5 -5 -12 58.9652 209.273 3
-5 -12 5 1039.65 318.849 1
5 5 12 230.957 204.62 1
-5 -12 -5 840.512 254.463 3
-12 5 5 452.865 249.862 1
5 5 -12 780.67 167.334 1
-5 -5 12 684.631 207.6 2
5 -5 -12 340.675 253.59 4
-5 -12 -5 299.386 250.801 2
-5 -12 5 815.185 305.672 2
-5 12 5 260.886 248.128 1
12 -5 -5 279.025 135.705 4
5 12 5 419.166 269.282 1
5 12 -5 373.004 246.385 1
-5 12 5 516.664 259.469 2
-5 5 12 420.024 243.901 4
-5 12 -5 671.406 309.121 1
12 5 5 272.61 219.298 4
-5 5 -12 151.691 202.629 2
-5 5 12 82.2644 132.948 2
5 -5 12 450.535 205.709 1
5 -12 5 473.503 267.427 2
5 -12 -5 408.541 266.14 2
-12 -5 -5 872.641 270.45 4
-12 5 -5 625.975 272.275 1
5 5 12 555.267 323.054 4
5 -5 -12 638.876 218.03 1
-5 5 -12 355.848 167.246 1
-12 5 5 462.782 271.029 2
5 12 -5 651.894 143.1 3
-5 5 12 572.435 225.594 1
-5 -5 12 577.502 132.347 3
5 -5 12 569.277 239.078 2
5 12 5 487.737 241.049 3
-4 12 6 2525.9 454.271 1
-12 -6 -4 1962.33 325.275 4
-12 4 -6 2038.24 386.457 1
4 6 12 2016.45 317.509 1
-6 -12 4 2351.51 398.031 2
-4 -12 -6 2080.86 402.893 2
12 -4 -6 2223.4 234.029 4
6 12 4 1298.08 379.392 1
-4 -6 12 2193.58 315.009 2
-4 12 6 2326.01 389.198 2
-12 6 4 1760.26 376.125 1
-6 4 12 2058.2 280.867 2
12 4 6 2359.83 372.762 4
4 12 -6 2003.86 394.63 1
12 -4 -6 2464.49 415.527 1
-4 6 -12 2583.66 384.842 2
-6 12 -4 2655.63 478.431 1
4 -12 6 2501.19 433.904 2
-6 4 12 1897.08 293.698 1
4 -6 -12 2086.57 303.686 1
6 -12 -4 2271.23 400.186 2
4 -6 -12 1572.07 416.682 4
-6 4 12 2700.79 407.558 4
4 -12 6 2527.69 396.613 1
-4 6 -12 1890.06 293.739 1
6 -4 12 2992.15 397.735 2
4 6 12 2234.4 442.875 4
4 12 -6 2256.91 216.093 3
12 -6 4 2326.96 440.073 2
-6 -4 -12 1748.32 385.976 3
4 -6 -12 2140.06 258.645 2
6 12 4 1865.82 359.898 3
6 -4 12 2187.13 309.578 1
-6 2 12 2224.19 389.255 4
-2 6 -12 1954.76 260.349 1
6 -2 12 2140.39 295.774 1
6 12 2 1854.38 402.498 1
-2 12 6 2328.84 396.128 2
-2 -12 -6 2338.31 351.861 2
-6 2 12 2692.6 296.744 1
12 -6 2 2026.81 395.718 2
-6 -2 -12 2008.22 386.04 3
-2 6 -12 2259.44 339.921 2
2 -6 -12 1943.77 269.839 1
-2 -6 12 2713.79 342.397 2
2 6 12 1725.14 273.194 1
-12 6 2 2179.44 403.161 1
-6 12 -2 1762.05 374.817 1
2 -12 6 1647.09 365.987 2
2 -12 6 1853.09 342.387 1
2 12 -6 2376.82 383.744 1
6 2 -12 2774.78 262.594 1
6 -12 -2 1832.3 367.029 2
12 2 6 2599.27 364.551 4
-6 -12 2 2300.49 412.495 2
2 -6 -12 2089.05 225.73 2
2 6 12 1461.39 374.698 4
-12 -6 -2 2245.62 341.666 4
-2 6 -12 1989.77 288.827 3
-6 2 12 2426.86 258.594 2
-2 12 6 2104.31 398.045 1
6 12 2 2429.23 340.224 3
12 -2 -6 2549.11 409.767 1
12 0 6 6206.25 548.088 4
0 12 6 7502.82 703.387 2
0 6 -12 7935.82 583.865 2
0 -12 -6 6615.88 609.991 2
0 -12 6 7009.77 683.3 2
6 0 12 7072.15 521.221 1
0 6 12 5930.47 495.99 1
0 12 6 5174.82 622.128 1
0 -6 -12 5328.63 365.812 2
0 -6 12 7391.45 572.763 2
0 12 -6 7869.85 685.324 1
-6 12 0 6994.79 707.334 1
6 -12 0 7776.6 724.208 2
0 -6 -12 6664.19 505.853 1
-6 0 -12 6712.59 533.327 2
-6 0 12 6923.12 643.28 4
6 0 12 6077.43 672.342 4
-12 -6 0 6738.15 520.726 4
0 6 12 7233.42 709.647 4
0 6 -12 6807.17 441.759 1
-6 0 -12 7850.3 720.04 3
0 6 -12 7605.5 515.382 3
6 12 0 7635.17 586.68 3
12 0 -6 7368.83 652.934 1
-12 0 6 5860.05 328.835 4
12 -6 0 6066.65 660.961 2
6 0 -12 7364.43 454.793 1
6 12 0 5902.12 624.309 1
-6 0 12 8005.01 589.15 3
-12 6 0 6476.25 675.021 1
0 -6 12 7877.71 443.307 1
0 -12 6 7742.09 653.292 1
-2 6 12 2186.34 321.553 1
2 6 -12 2568.53 270.515 3
-2 12 -6 1551.14 370.979 1
-2 -6 -12 1569.31 363.382 3
-6 -2 12 2272.06 291.119 3
-2 6 12 1930.82 203.94 2
-6 2 -12 1988.52 363.464 3
-2 -6 -12 2376.61 253.104 2
-2 -12 6 2427.66 393.428 1
6 12 -2 1775.92 384.291 1
-6 2 -12 1913.72 323.689 2
-2 -12 6 2479.76 407.828 2
-6 -12 -2 1699.29 295.455 3
6 -2 -12 2377.65 289.257 1
-6 12 2 1992.65 401.824 1
2 -6 12 2480.15 276.028 1
2 -12 -6 2567.84 383.579 2
2 12 6 1843.79 401.311 1
6 12 -2 2444.01 284.284 3
6 2 12 2174.39 454.534 4
2 -6 12 2238.38 342.742 2
6 -12 2 2526.22 448.494 2
-12 6 -2 1590.64 383.96 1
2 6 -12 2527.36 255.084 1
-2 6 12 2962.07 465.697 4
6 -4 -12 2286.89 289.785 1
-6 -4 12 2351.99 241.957 3
-4 -6 -12 2091.26 404.741 3
-4 -12 6 2283.93 357.104 1
-6 -12 -4 2673.22 396.044 3
4 -6 12 2483.24 323.487 1
-4 6 12 2346.57 405.639 4
6 12 -4 2473.92 415.951 1
-4 12 -6 2097 395.204 1
4 12 6 1354.27 369.87 1
-6 12 4 1514.12 343.569 1
4 6 -12 2571.28 267.51 1
-4 6 12 2135.92 251.948 2
-12 4 6 2326.16 426.32 1
-4 6 12 2072.06 297.551 1
6 4 12 2324.64 458.236 4
4 -12 -6 2379.81 382.313 2
-6 4 -12 2223.11 378.758 2
6 -12 4 2170.42 417.4 2
-12 -4 -6 1758.67 332.619 4
4 -6 12 2087.08 375.587 2
-12 4 6 2532.22 429.829 2
6 12 -4 2151.42 240.609 3
-12 6 -4 2441.79 462.694 1
-4 -12 6 2152.82 396.685 2
-6 -6 -12 613.064 315.382 3
6 6 12 412.194 208.252 1
-6 -12 -6 507.426 248.653 3
-6 6 12 843.527 264.514 1
6 6 -12 731.958 186.089 1
6 -6 -12 1128 278.129 1
-12 6 -6 454.917 287.922 1
-6 -12 6 895.084 287.716 2
6 12 -6 525.709 273.023 1
-6 12 6 632.506 302.125 1
12 -6 6 1031.34 349.329 2
6 12 6 352.545 272.113 1
-12 6 6 940.568 307.695 1
-6 12 6 991.49 305.473 2
-6 6 -12 1021.46 273.863 1
6 -6 12 769.137 250.041 1
-6 6 -12 443.19 231.453 2
6 12 -6 525.945 112.558 3
-6 6 12 536.112 197.981 2
6 -6 -12 549.706 332.15 4
-6 12 -6 1123.29 336.529 1
6 -12 6 1066.99 360.362 2
6 -12 -6 1021 324.908 2
6 6 12 929.651 370.423 4
12 -6 -6 614.069 178.467 4
-6 6 12 939.561 285.468 4
6 -6 12 679.512 251.746 2
-12 -6 -6 596.881 284.232 4
-12 -6 -6 1116.1 340.038 3
-6 -6 12 784.194 127.157 3
12 6 6 432.119 233.42 4
-12 7 5 682.26 308.573 1
-5 -12 -7 151.325 195.79 3
5 7 12 37.0568 174.184 1
-7 -12 5 153.005 228.479 2
-5 -12 -7 -43.0292 207.683 2
7 12 5 328.451 277.999 1
-5 -7 12 324.277 191.42 2
-5 12 7 -15.8293 241.264 1
12 5 7 417.247 238.673 4
5 -7 -12 236.048 207.977 1
12 -5 -7 36.4388 139.368 4
-7 5 12 357.355 239.317 4
5 12 -7 81.9651 225.341 1
-5 12 7 237.601 214.711 2
5 -7 -12 149.362 156.355 2
-12 -7 -5 513.26 299.682 4
-12 5 -7 -16.8883 279.813 1
-5 7 -12 72.5124 210.501 2
-7 5 12 61.6961 193.289 1
5 -12 7 263.587 216.986 2
-7 5 12 89.7515 150.964 2
-12 -7 -5 69.8792 193.829 3
7 -12 -5 31.9262 200.667 2
-7 12 -5 359.632 279.999 1
5 7 12 114.149 248.001 4
-5 7 -12 705.052 235.864 1
7 -5 12 161.592 206.764 2
12 -7 5 379.596 274.418 2
7 -5 12 273.298 185.507 1
5 12 -7 161.032 67.0734 3
-7 -5 -12 268.072 218.333 3
-12 7 3 805.23 277.185 1
3 7 12 957.825 344.14 4
-3 7 -12 963.915 222.517 1
7 12 3 1304.83 365.882 1
-7 12 -3 362.916 247.767 1
-3 -12 -7 729.699 253.864 2
3 -12 7 1387.03 324.377 1
-3 12 7 953.809 334.011 2
3 7 12 447.664 184.089 1
-3 7 -12 622.355 221.985 2
3 -7 -12 1177.37 258.562 1
-7 3 12 901.883 209.706 1
-3 -7 12 857.976 240.889 2
3 -12 7 1060.36 336.121 2
-7 3 12 862.579 242.397 4
3 12 -7 996.108 291.47 1
7 -3 12 1220.22 266.268 1
12 -3 -7 619.943 245.373 1
7 -12 -3 922.44 296.234 2
-7 3 12 863.508 190.226 2
3 -7 -12 946.125 190.093 2
12 3 7 814.05 268.904 4
-12 -7 -3 707.782 238.897 3
-12 -7 -3 646.653 228.716 4
12 -7 3 871.33 300.923 2
7 12 3 606.033 219.345 3
-7 -3 -12 352.789 282.569 3
-3 12 7 1012.94 323.092 1
1 -7 -12 5549.45 481.556 1
-1 12 7 5841.52 602.207 2
-7 1 12 5521.64 554.234 4
-1 7 -12 6227.11 546.085 2
-1 -12 -7 5397.28 553.4 2
7 12 1 5047.76 604.765 1
-1 -7 12 5731.93 524.93 2
1 -12 7 4890.1 580.46 2
1 -7 -12 5518.87 394.128 2
7 12 1 5829.77 521.258 3
7 1 -12 5687.15 426.061 1
-1 7 -12 5111.14 429.307 1
7 -12 -1 5350.35 596.823 2
7 -1 12 5231.35 477.345 1
1 7 12 4565.05 451.668 1
-12 7 1 6015.05 651.86 1
-7 12 -1 4989.02 629.97 1
12 -1 -7 6504.03 595.807 1
12 1 7 5992.7 565.943 4
-7 -1 -12 5189.58 491.65 2
-12 -7 -1 6325.44 538.726 4
1 12 -7 4865.75 549.548 1
-1 12 7 4489.16 555.95 1
1 7 12 4722.43 595.546 4
-1 7 -12 4817.82 421.217 3
12 -7 1 6436.73 670.065 2
-7 -1 -12 4762 567.864 3
1 -12 7 5711.08 565.11 1
-7 -12 1 5177.35 450.971 3
-1 -7 12 6071.26 410.707 1
1 -7 12 6619.66 445.695 1
1 -12 -7 5049.75 527.834 2
1 7 -12 6234.31 539.381 2
12 1 -7 6610.02 605.845 1
1 12 7 5559.79 617.047 1
-1 -7 -12 5041.54 375.068 2
-1 -12 7 5747.78 615.866 2
7 1 12 4533.05 594.794 4
-7 1 -12 4659.17 555.124 3
1 -7 12 5799.44 553.259 2
-1 7 12 4923.02 468.755 1
12 -1 7 5419.69 521.724 4
-1 12 -7 5307.31 570.531 1
12 -7 -1 5184.5 600.541 2
1 7 -12 5377.94 410.212 1
7 12 -1 5547.29 469.631 3
-7 1 -12 5483.46 521.248 2
-7 12 1 5002.01 610.204 1
-12 7 -1 5566.78 654.4 1
-12 1 7 4947.34 322.779 4
7 -12 1 5123.93 595.32 2
1 7 -12 5953.57 414.047 3
7 12 -1 4847.28 577.544 1
-1 7 12 5051.37 602.326 4
-1 -7 -12 4572.36 577.978 3
-1 -7 -12 5190.03 472.581 1
-7 -12 -1 5119.64 480.952 3
7 -1 -12 5517.74 434.841 1
-1 -12 7 6360.66 592.407 1
-7 3 -12 1194.53 286.749 2
3 7 -12 624.736 136.195 3
-3 -7 -12 1019.67 326.983 3
-7 -3 12 1050.44 199.68 3
-3 -12 7 1384.66 317.277 1
-3 -7 -12 466.876 171.924 2
-3 7 12 646.936 223.097 1
7 12 -3 665.556 271.196 1
-12 3 7 757.614 243.375 2
-3 12 -7 881.239 280.41 1
3 -12 -7 722.937 248.301 2
-3 -12 7 838.607 302.109 2
7 12 -3 696.976 172.156 3
7 -3 -12 861.623 204.194 1
-12 7 -3 619.355 262.765 1
3 12 7 210.216 223.409 1
-7 12 3 541.545 257.524 1
3 7 -12 1111.29 202.751 1
3 -7 12 551.642 185.384 2
-3 7 12 648.664 171.714 2
7 -12 3 1262.88 347.908 2
7 3 12 802.957 289.684 4
12 -7 -3 691.29 280.285 2
-3 7 12 591.773 245.496 4
3 -7 12 1273.81 239.473 1
-12 3 7 694.43 258.131 1
-7 -12 -3 774.796 233.318 3
-5 -12 7 247.969 221.804 1
-7 -12 -5 138.745 183.216 3
7 -5 -12 83.078 172.006 1
5 -7 12 617.031 183.104 1
7 12 -5 442.415 256.222 1
-5 -12 7 27.2928 216.781 2
5 7 -12 387.546 173.509 1
5 12 7 -113.519 265.817 1
7 5 12 33.6111 280.999 4
-5 7 12 165.159 166.336 2
-7 12 5 519.276 278.525 1
-5 12 -7 -25.9314 246.8 1
7 -5 -12 145.142 251.647 4
-5 7 12 287.839 202.102 1
-12 7 -5 404.525 275.234 1
5 -12 -7 363.948 244.229 2
-7 5 -12 307.521 256.744 2
7 -12 5 -136.265 257.234 2
5 -7 12 89.7571 210.436 2
-7 5 -12 509.404 228.647 1
-5 -7 -12 86.6601 216.806 3
-12 5 7 343.92 251.284 1
-5 7 12 171.52 236.42 4
12 -7 -5 710.974 211.45 4
-12 5 7 385.298 218.901 2
-12 -5 -7 438.156 295.073 3
-7 -5 12 250.5 104.368 3
-12 -5 -7 15.8669 265.765 4
-7 7 12 -61.8054 233.348 1
-7 -7 -12 -54.685 261.51 3
-7 -12 -7 -54.9801 229.698 3
7 7 -12 -31.147 149.26 1
-7 12 -7 -93.5318 243.775 1
-7 -12 7 -22.1072 206.712 2
7 12 7 227.136 310.795 1
-12 -7 -7 461.893 267.084 3
7 12 -7 374.341 253.878 1
-12 7 7 -51.941 225.904 1
-7 7 -12 -236.783 199.607 1
-12 7 -7 356.071 303.854 1
7 7 12 94.279 216.769 1
7 7 12 -74.1272 264.429 4
7 -7 12 -141.872 230.429 1
-7 12 7 17.6047 255.979 1
-7 7 -12 -167.515 281.681 2
-7 7 12 266.499 193.472 2
7 -12 7 -10.4508 213.102 2
7 -7 -12 -106.094 215.271 4
7 -12 -7 248.141 218.987 2
-7 -7 12 70.7984 59.592 3
7 -7 12 157.075 211.789 2
12 -7 -7 -184.131 168.934 4
-7 7 12 -61.2198 240.168 4
12 7 7 -86.4612 235.099 4
12 -7 7 -84.2249 243.974 2
-12 -7 -7 -69.3138 241.708 4
7 -7 -12 216.515 234.877 1
7 -7 -12 573.529 214.555 2
-6 -12 -8 417.419 264.992 3
6 8 12 238.716 196.684 1
8 12 6 479.845 300.627 1
-6 -8 12 452.481 211.62 2
6 -8 -12 608.904 237.648 1
6 12 -8 905.486 277.162 1
8 -12 -6 889.219 308.847 2
-6 12 8 633.595 304.314 1
-6 12 8 136.935 242.785 2
6 -8 -12 -13.5622 163.839 2
-6 8 -12 668.739 291.208 2
-6 8 -12 534.748 258.754 1
-8 6 12 420.311 232.416 1
-8 6 12 370.164 195.834 4
6 -12 8 590.559 319.859 2
-8 6 12 507.782 213.124 2
12 6 8 358.587 236.058 4
-12 6 -8 177.552 257.547 1
-12 -8 -6 568.247 246.094 4
6 8 12 77.5609 270.451 4
8 -6 12 340.87 182.791 1
8 -6 12 325.386 226.178 2
-12 8 6 -530.163 318.73 1
12 -8 6 306.631 286.389 2
-8 12 -6 392.168 308.744 1
-12 -8 -6 805.726 295.73 3
12 -6 -8 487.067 216.595 4
-8 -6 -12 795.368 298.269 3
-4 -12 -8 479.691 281.453 3
-4 12 8 482.494 247.484 1
8 -4 12 493.097 243.311 2
8 12 4 222.105 280.66 1
-4 8 -12 310.721 220.554 1
-4 -12 -8 106.358 207.783 2
-8 4 12 87.3462 163.665 1
12 -4 -8 554.658 248.647 1
-4 -8 12 468.601 212.869 2
4 8 12 65.0265 177.553 1
-12 -8 -4 -103.565 214.626 4
4 -8 -12 -194.115 158.828 2
-8 4 12 283.035 239.197 4
-4 12 8 343.077 265.305 2
8 -4 12 797.251 252.156 1
-4 8 -12 656.061 271.675 2
4 12 -8 283.3 196.462 1
4 -12 8 54.7446 215.435 2
4 -8 -12 307.29 200.705 1
4 -12 8 244.84 211.628 1
-8 4 12 390.126 204.182 2
-8 -12 4 96.6785 106.151 3
8 12 4 150.123 222.474 3
8 -12 -4 158.226 211.189 2
12 4 8 478.058 275.119 4
4 8 12 -34.8651 249.565 4
-8 12 -4 313.847 305.669 1
-12 8 4 108.219 279.134 1
12 -8 4 107.679 251.444 2
-12 -8 -4 238.764 187.225 3
-8 -4 -12 548.768 287.781 3
-2 -8 12 1661.3 246.819 1
8 12 2 1063.51 324.029 1
8 -2 12 1566.3 301.549 1
-8 12 -2 1491.2 400.537 1
-2 12 8 1173.31 326.14 2
-2 -12 -8 1348.21 292.307 2
-2 8 -12 1464.91 309.727 2
2 -8 -12 1425.55 283.996 1
-2 -8 12 1228.41 283.913 2
8 2 -12 1875.61 273.172 1
2 8 12 728.719 228.846 1
2 -12 8 1127.85 337.725 2
-8 -2 -12 1193.26 363.307 3
2 -12 8 1102.41 271.151 1
2 -8 -12 1148.86 224.565 2
-8 2 12 1709.76 269.754 1
2 12 -8 1599.09 346.891 1
-2 8 -12 807.684 238.971 1
-8 2 12 1055.17 278.275 4
-8 -12 2 1159.44 213.604 3
12 2 8 1199.45 319.159 4
2 8 12 769.419 307.293 4
12 -2 -8 926.692 285.863 1
-12 -8 -2 1368.23 308.301 4
-2 12 8 1064.24 318.872 1
12 -8 2 1618.71 387.201 2
-12 8 2 1566.97 373.237 1
-8 2 12 1339.27 248.023 2
-12 -8 -2 1326.92 310.531 3
8 -12 -2 1078.75 316.615 2
8 12 2 1206.88 293.967 3
8 0 12 11699.2 961.897 4
0 12 8 12993.4 928.75 2
0 8 -12 13283.7 880.241 2
8 0 -12 13183.7 754.466 1
8 0 12 11891 794.639 1
0 -12 8 14993.5 1013.9 2
0 -8 -12 11734.8 674.292 2
0 8 12 10243.3 761.94 1
0 12 8 11789.5 920.664 1
0 -8 12 14295.9 904.621 2
0 12 -8 14051.5 952.372 1
12 -8 0 11928.3 951.857 2
8 -12 0 13164.9 988.81 2
-12 8 0 11563.8 973.355 1
12 0 -8 13012.2 891.743 1
0 8 -12 13006 744.874 1
-8 0 -12 12563.5 849.015 2
-8 0 12 12978.5 871.359 4
-12 0 8 12766.8 654.361 4
12 0 8 11092 838.603 4
0 -12 -8 12703.7 858.706 2
-8 12 0 12799.5 1029.15 1
-12 -8 0 12062.5 816.098 3
0 8 -12 12131.7 681.737 3
-8 0 -12 12977.8 984.363 3
8 12 0 13228.6 818.851 3
-8 -12 0 13790.3 804.057 3
0 8 12 11295.7 921.16 4
8 12 0 13164.4 984.135 1
0 -8 -12 13194 825.921 1
0 -8 12 14869.9 750.304 1
0 -12 8 16405.9 961.113 1
-12 8 -2 1164.97 338.961 1
-2 -8 -12 1119.34 357.045 3
-2 12 -8 1445.32 349.767 1
12 2 -8 1569.18 327.635 1
8 12 -2 995.473 307.645 1
-2 8 12 1486.33 243.372 2
-2 -12 8 2041.48 364.011 1
-2 -12 8 1506.6 348.192 2
-8 -12 -2 1547.42 306.28 3
-2 8 12 1149 354.583 4
2 -12 -8 1203.71 281.372 2
2 12 8 1369.82 335.331 1
2 -8 12 1143.17 302.547 2
2 -8 12 1843.32 288.206 1
-8 12 2 1721.85 417.869 1
8 -12 2 1646.34 356.297 2
8 2 12 1431.26 387.037 4
8 -2 -12 1062.6 245.191 1
-8 2 -12 801.548 265.974 2
-12 2 8 1280.84 201.662 4
2 8 -12 1163.26 226.71 1
-2 -8 -12 1226.7 226.053 2
8 12 -2 1747.58 266.645 3
12 -8 -2 1443.76 389.249 2
-2 8 12 656.549 233.167 1
2 8 -12 1283.45 184.894 3
8 4 12 -94.028 245.244 4
-4 -8 -12 -170.478 225.123 3
-4 -12 8 613.713 276.148 1
-8 12 4 -16.5763 303.082 1
8 12 -4 69.2597 208.961 1
-12 8 -4 4.91794 243.882 1
-4 -12 8 -115.979 215.519 2
-4 8 12 -22.0436 194.292 1
-8 -12 -4 234.117 179.788 3
-4 8 12 62.4494 147.407 2
-12 -4 -8 303.044 214.404 4
4 12 8 460.591 282.067 1
8 -4 -12 110.576 173.61 1
-4 12 -8 31.9125 248.979 1
8 -12 4 398.759 290.611 2
4 8 -12 134.917 167.535 1
-12 4 8 157.14 189.563 1
4 -12 -8 527.099 258.212 2
4 -8 12 -89.7861 192.614 2
-8 4 -12 191.724 219.827 2
-4 8 12 -218.715 257.701 4
-12 4 8 416.039 230.259 2
-12 -4 -8 119.221 238.127 3
12 -8 -4 441.097 250.957 2
4 -8 12 259.714 190.927 1
-8 -12 -6 501.392 238.932 3
-8 -6 12 571.799 125.208 3
8 -6 -12 457.164 213.962 1
6 8 -12 646.526 219.77 1
8 12 -6 208.769 204.694 1
-8 6 -12 467.102 243.527 1
6 -8 12 189.155 196.398 1
-6 -12 8 720.369 303.891 2
6 12 8 361.976 219.683 1
8 6 12 150.673 273.892 4
-12 8 -6 627.396 284.107 1
-12 6 8 530.386 265.01 1
-6 8 12 -227.226 197.2 2
-12 -6 -8 375.099 241.911 4
-6 8 12 431.549 206.593 1
8 -6 -12 224.857 260.734 4
-8 6 -12 21.6133 221.653 2
-8 12 6 59.9762 269.513 1
6 -12 -8 576.01 237.435 2
8 -12 6 851.329 314.421 2
-6 12 -8 196.261 247.415 1
6 -8 12 582.269 276.993 2
12 -8 -6 604.992 223.439 4
-6 8 12 807.115 281.476 4
-12 -6 -8 521.442 263.986 3
12 -8 -6 144.522 210.241 2
12 -6 8 295.229 246.896 2
-6 -8 -12 1031.12 351.977 3
-12 6 8 660.683 301.618 2
-8 -8 -12 1368.76 402.344 3
8 8 12 1042.25 290.218 1
-8 -12 -8 1015.27 341.265 3
12 -8 -8 1749.55 294.797 4
8 8 -12 1226.98 260.901 1
8 12 8 1299 361.036 1
-8 -12 8 1834.68 401.643 2
-8 8 -12 1543.29 354.202 1
8 12 -8 1446.69 351.913 1
12 -8 8 1735.49 420.099 2
8 -12 8 2393.01 462.296 2
8 -8 12 2599.74 407.571 1
-8 8 12 2355.41 383.11 2
-12 8 -8 2280.97 473.445 1
-8 12 8 1302.6 377.17 1
8 -12 -8 2064.78 415.651 2
8 -8 12 1370.32 355.682 2
-8 12 -8 1812.25 412.918 1
12 8 8 1540.19 382.268 4
-8 8 12 1505.37 338.786 4
-12 8 8 1916.31 409.684 1
-8 8 12 1646.09 350.47 1
8 -8 -12 2298.59 371.879 2
8 8 12 1829.98 435.326 4
-12 -8 -8 1502.48 366.641 3
8 -8 -12 1607.67 327.372 1
-7 -12 -9 -318.082 276.695 3
12 -7 -9 -212.994 230.686 4
7 9 12 113.453 196.27 1
-9 12 -7 204.881 279.397 1
-7 -9 12 234.963 214.445 2
-12 7 -9 -147.689 267.925 1
7 12 -9 142.504 230.376 1
7 -9 -12 -79.9721 215.72 1
9 -7 12 -82.9163 217.389 1
-7 12 9 203.525 219.652 2
-7 12 9 609.015 305.772 1
-9 7 12 -13.0355 232.445 1
-12 -9 -7 392.327 294.048 3
7 -12 9 -71.218 244.905 2
9 12 7 49.7865 236.287 1
-9 7 12 509.355 265.896 2
-7 9 -12 115.574 206.892 1
7 9 12 -31.1999 265.081 4
9 -12 -7 299.448 240.132 2
-12 9 7 -173.324 311.928 1
12 7 9 179.044 269.774 4
-9 7 12 98.943 227.193 4
7 -9 -12 -289.503 217.667 2
9 -7 12 5.4677 220.557 2
12 -9 7 -156.536 224.196 2
-9 -7 -12 -57.6159 278.471 3
-5 9 -12 386.158 224.864 1
-9 12 -5 1255.6 386.84 1
-9 5 12 1143.24 304.213 1
-5 -12 -9 446.313 261.407 3
9 12 5 183.197 262.895 1
-12 -9 -5 868.927 321.244 4
9 -5 12 444.069 223.436 1
-5 -12 -9 189.75 194.909 2
-5 12 9 777.807 300.034 1
5 9 12 219.457 218.822 1
-5 -9 12 863.13 271.715 2
9 -12 -5 909.569 331.337 2
-5 12 9 616.692 268.364 2
5 9 12 186.085 261.092 4
5 12 -9 612.475 221.093 1
-5 9 -12 776.623 313.03 2
-12 -9 -5 495.418 258.268 3
12 5 9 1007.92 313.249 4
-12 9 5 627.852 343.967 1
5 -12 9 389.38 291.921 2
5 -9 -12 883.459 252.321 1
12 -5 -9 707.292 215.402 4
-9 5 12 753.765 243.584 2
5 -9 -12 1040.26 253.547 2
-12 5 -9 983.112 308.051 1
-9 5 12 884.747 259.009 4
12 -9 5 -237.967 265.318 2
9 -5 12 931.504 294.556 2
-9 -12 5 988.362 155.813 3
-9 -5 -12 662.343 315.101 3
12 3 9 1985.21 393.85 4
9 12 3 1370.04 358.826 1
-3 -12 -9 2015.55 374.174 2
-3 12 9 1318.01 327.157 2
-3 -9 12 1804.24 330.111 2
-3 9 -12 1652.87 382.419 2
9 -3 12 2118.17 345.597 1
3 9 12 1575.63 327.787 1
12 -3 -9 2401.38 400.977 1
-9 3 12 1670.89 301.182 1
3 -9 -12 1925.51 318.164 1
3 9 12 1492.97 374.37 4
-9 -12 3 1975.12 261.986 3
-12 9 3 1791.08 427.413 1
3 -12 9 1617.55 371.507 2
3 12 -9 1686.43 339.962 1
9 3 -12 1588.2 270.038 1
3 -9 -12 1746.34 286.862 2
3 -12 9 2442.25 390.495 1
9 -12 -3 1556.13 374.679 2
-9 3 12 1478.55 317.551 4
-12 -9 -3 1829.19 380.711 4
-3 9 -12 1703.85 310.503 1
-9 3 12 2145.07 339.704 2
12 -9 3 1876.98 398.754 2
9 12 3 1332.23 310.036 3
-12 -9 -3 1448.23 328.705 3
-9 -3 -12 1729.65 398.501 3
-9 12 -3 1565.86 392.59 1
-3 12 9 1962.75 390.076 1
1 -12 9 8047.56 666.042 1
-1 12 9 7272.49 667.183 2
1 9 12 5284.87 561.361 1
-1 9 -12 6931.52 646.232 2
-1 -12 -9 6640.76 605.897 2
-1 -9 12 7596.31 662.013 2
1 -12 9 6241 664.181 2
1 -9 -12 6361.45 498.662 2
9 -1 12 6320.61 580.402 1
1 12 -9 6468.06 640.105 1
-12 9 1 7630.88 770.602 1
9 -12 -1 6651.71 700.841 2
12 -1 -9 7344.98 658.546 1
9 1 -12 6509 530.312 1
12 -9 1 6588.03 708.363 2
12 1 9 6665.59 644.321 4
-1 9 -12 6950.29 554.502 1
-9 -1 -12 6605.53 626.693 2
1 9 12 6095.96 706.899 4
-9 -1 -12 6488.54 717.151 3
-1 12 9 4719.59 596.913 1
9 12 1 6305.06 579.416 3
-12 -9 -1 7657.61 633.979 3
-9 -12 1 6451.02 522.518 3
-9 12 -1 6752.21 758.105 1
-9 1 12 6865.84 614.616 4
9 12 1 6513.85 686.238 1
-1 -9 12 8218.95 548.235 1
1 -9 -12 6979.29 606.287 1
1 -9 12 8333.75 579.586 1
9 -1 -12 7139.87 575.782 1
1 9 -12 7895.87 677.919 2
1 12 9 5740.72 647.179 1
-1 -9 -12 6866.72 513.663 2
-1 -12 9 7392.93 700.694 2
1 -12 -9 6236.95 598.838 2
1 -9 12 6320.54 628.9 2
-1 9 12 6478.06 598.68 1
-12 9 -1 6533.32 739.913 1
9 1 12 7055.99 720.075 4
1 9 -12 7319.07 559.995 1
9 -12 1 6682.62 706.833 2
-1 12 -9 6847.84 658.461 1
-9 1 -12 5620.56 582.461 2
12 -1 9 6652.88 644.453 4
12 -9 -1 7010.82 726.075 2
-12 1 9 7679.91 495.926 4
-1 9 12 6557.47 700.252 4
-12 -9 1 7147.13 577.373 3
1 9 -12 6527.73 429.994 3
-9 12 1 6089.79 723.012 1
-9 -12 -1 6155.54 548.734 3
12 1 -9 6386.59 610.252 1
-1 -9 -12 5929.31 583.232 1
9 12 -1 6018.67 660.664 1
-1 -12 9 7998.21 656.301 1
9 12 -3 1333.59 347.468 1
3 9 -12 1498.67 164.664 3
-9 -12 -3 2119.89 371.37 3
9 3 12 1695.83 399.481 4
-3 9 12 1428.81 318.594 1
-3 -9 -12 1117.71 369.29 3
-3 -12 9 1956.55 337.571 1
-12 3 9 2119.79 391.359 1
-3 -9 -12 1831.29 278.553 2
-3 9 12 1693.53 286.219 2
9 -3 -12 1958.42 322.366 1
-3 12 -9 1851.71 372.856 1
3 12 9 1603.3 396.24 1
-3 9 12 1641.43 382.701 4
3 -12 -9 1804.16 354.95 2
-12 3 9 2159.55 368.929 2
-12 9 -3 2032.23 474.202 1
3 -9 12 1566.71 366.969 2
3 9 -12 2147.57 313.625 1
-3 -12 9 2084.56 404.492 2
-12 -9 3 1818.59 273.934 3
9 -12 3 2207.24 449.533 2
3 -9 12 2374.5 341.677 1
-12 3 9 1965.47 267.646 4
-9 3 -12 1455.98 337.83 2
-9 12 3 1911.61 401.796 1
12 -9 -3 2051.46 425.433 2
-9 -12 -5 656.833 248.2 3
9 12 -5 645.616 295.545 1
-5 -12 9 790.001 284.178 2
5 12 9 1041.65 327.763 1
9 -5 -12 1190.54 290.118 1
-5 9 12 545.264 171.057 2
5 9 -12 311.191 180.351 1
-5 9 12 90.8637 209.381 1
-12 9 -5 582.531 303.254 1
-9 5 -12 748.2 269.993 1
-5 12 -9 307.291 242.307 1
5 -12 -9 849.341 262.467 2
9 -12 5 66.5736 256.441 2
9 5 12 354.759 275.03 4
5 -9 12 315.773 242.893 2
-12 5 9 927.759 304.315 2
9 -5 -12 1206.97 325.135 4
-9 12 5 1099.49 378.557 1
-9 5 -12 391.483 261.732 2
-5 9 12 873.472 309.705 4
-12 5 9 774.154 249.844 1
12 -9 -5 1416.38 350.436 2
-5 -9 -12 1616.57 398.837 3
-12 -5 -9 750.709 304.856 3
5 -9 12 1339.93 310.13 1
-9 -12 -7 135.727 233.43 3
-12 7 9 -59.9784 230.701 1
9 -7 -12 -253.696 218.739 1
9 12 -7 -243.65 275.959 1
-12 9 -7 -183.542 252.102 1
-7 -12 9 210.566 252.703 2
7 12 9 313.145 250.796 1
7 9 -12 192.641 181.184 1
7 -9 12 -146.834 208.553 1
-7 -9 -12 -9.55784 266.253 3
12 -9 -7 80.3289 233.082 4
-9 -7 12 68.7493 78.6495 3
7 -12 -9 23.6091 205.029 2
-7 12 -9 281.831 249.688 1
-7 9 12 387.335 231.796 2
9 7 12 68.0255 257.074 4
9 -7 -12 653.852 282.218 4
-7 9 12 143.138 230.129 1
9 -12 7 242.595 312.916 2
12 -9 -7 389.859 268.273 2
-9 12 7 -274.891 288.623 1
12 -7 9 365.772 245.397 2
-9 7 -12 -1.67297 240.485 1
7 -9 12 46.6351 239.344 2
-12 -7 -9 65.6295 235.65 3
-9 -9 -12 898.636 387.501 3
9 9 12 1098.51 342.122 1
-9 -12 -9 773.134 333.317 3
9 9 -12 1479.7 316.959 1
-9 9 -12 1103.96 349.301 1
9 12 9 1283.19 383.315 1
12 -9 -9 1284.76 315.347 4
-9 9 12 1540.15 378.065 1
-9 12 -9 1561.96 431.411 1
9 12 -9 1048.63 316.816 1
12 -9 -9 1768.36 400.451 2
9 -9 12 1117 351.184 2
9 -12 -9 1920.26 427.477 2
-12 9 9 460.337 309.837 1
-12 9 -9 1189.48 417.172 1
-9 9 12 1571.45 357.302 2
9 -12 9 1299.56 390.248 2
9 -9 -12 1778.76 351.703 2
-9 12 9 1163.79 373.228 1
9 9 12 984.822 357.675 4
12 9 9 1448.3 396.357 4
12 -9 9 1507.51 413.149 2
-12 -9 -9 1341.66 402.104 3
10 12 8 776.775 361.693 1
8 10 12 306.727 271.069 1
8 12 -10 816.174 285.648 1
10 -12 -8 1032.07 352.772 2
-10 12 -8 1036.15 380.55 1
-12 10 8 663.887 339.481 1
-10 8 12 828.294 318.424 1
12 -8 -10 822.073 297.18 4
-12 8 -10 242.719 287.009 1
-8 -12 -10 631.932 293.209 3
-10 8 12 672.503 253.334 2
-8 12 10 396.236 276.172 1
-8 10 -12 308.174 254.785 1
12 -10 8 34.163 244.3 2
8 -12 10 1134 402.564 2
-12 -10 -8 874.299 362.013 3
12 8 10 792.478 335.755 4
8 -10 -12 691.749 267.09 2
10 -8 12 286.15 247.611 2
-8 -10 12 455.626 235.577 2
8 10 12 683.296 331.138 4
-10 -8 -12 922.183 350.194 3
10 -6 12 426.526 214.186 1
10 12 6 418.619 283.035 1
6 10 12 638.755 272.156 1
6 -12 10 836.42 344.748 2
-6 -10 12 1121.96 306.072 2
-10 12 -6 656.309 307.851 1
-6 10 -12 969.093 282.823 1
6 12 -10 1190.77 334.794 1
-6 12 10 886.908 364.675 1
-6 12 10 128.807 247.385 2
12 -6 -10 632.34 221.714 4
-12 6 -10 770.151 325.512 1
-12 10 6 632.758 345.173 1
12 -10 6 1295.88 399.329 2
6 -10 -12 820.151 274.418 1
-10 6 12 1164.68 292.278 2
10 -12 -6 719.471 308.365 2
6 -10 -12 683.162 245.828 2
12 6 10 756.008 309.194 4
-10 6 12 810.734 267.364 4
6 10 12 581.072 335.44 4
-6 -12 -10 571.789 315.541 3
10 -6 12 501.34 283.918 2
-10 -12 6 680.752 145.639 3
-10 -6 -12 939.128 343.873 3
-12 -10 -6 827.174 299.653 3
-10 6 12 600.982 275.874 1
12 -4 -10 1164.05 338.911 1
10 12 4 1005.92 346.644 1
-4 12 10 846.847 305.261 1
-4 -12 -10 381.578 248.073 3
-10 12 -4 555.997 316.568 1
-10 -4 -12 1695.03 453.912 3
-4 -10 12 846.211 286.477 2
-4 12 10 1003.53 320.653 2
-10 4 12 845.157 271.272 2
4 10 12 505.179 256.528 1
4 -10 -12 1003.4 293.444 1
4 12 -10 1365.41 344.641 1
-12 10 4 977.086 385.428 1
10 -12 -4 1190.19 385.146 2
4 -12 10 671.064 311.628 2
10 -4 12 890.821 292.882 1
4 -10 -12 1159.23 281.987 2
4 -12 10 1255.5 322.831 1
12 4 10 1058.31 309.051 4
-10 4 12 1593.2 327.376 4
4 10 12 802.025 341.654 4
-4 10 -12 967.499 290.098 1
-10 -12 4 1079.94 204.198 3
12 -10 4 848.945 341.281 2
-10 4 12 1083.21 305.775 1
-4 -12 -10 836.096 294.354 2
-12 -10 -4 1231.76 308.406 3
-10 12 -2 5347.35 680.087 1
10 12 2 4333.26 591.742 1
-2 12 10 5443.49 580.003 2
-2 -12 -10 4707.91 517.267 2
-2 -10 12 4646.21 552.869 2
2 -12 10 5518.12 568.957 1
2 -10 -12 4824.8 525.012 1
2 12 -10 5435 583.076 1
12 -2 -10 4874.66 558.395 1
-2 10 -12 5195.15 588.305 2
2 -10 -12 4942.94 475.288 2
12 2 10 4471.54 548.788 4
2 10 12 4447.18 612.562 4
-2 -10 12 5872.97 497.821 1
2 -12 10 4489.82 579.054 2
2 10 12 3653.45 475.936 1
-10 2 12 5745.49 536.309 2
-12 10 2 5051.08 675.521 1
10 -2 12 5023.16 555.006 1
-10 2 12 4599.51 495.211 4
10 2 -12 5151.95 485.077 1
-2 10 -12 4991.74 510.123 1
12 -10 2 4961.28 621.937 2
10 -12 -2 4817.02 616.082 2
-12 -10 -2 4811.14 564.173 4
-12 -10 -2 4935.82 550.373 3
-10 -12 2 5164.13 460.393 3
-10 -2 -12 5152.24 663.941 3
-2 12 10 3931.51 548.971 1
-10 -12 0 2637.62 362.179 3
10 12 0 2741.87 472.48 1
0 10 -12 2373.87 347.785 1
12 0 10 2522.66 421.069 4
10 0 12 2586.39 407.602 1
0 12 10 2429.1 415.546 1
0 -10 -12 2234.28 376.687 1
-12 0 10 2432.8 316.916 4
0 10 -12 3126.52 474.565 2
10 0 12 3039.4 497.056 4
12 0 -10 2178.91 368.998 1
0 -10 12 2954.82 371.186 1
0 -12 10 3424.77 440.408 1
-10 0 12 2580.39 385.572 4
0 -12 -10 2943.67 403.991 2
0 -10 -12 2305.94 332.072 2
0 -12 10 2647.69 432.143 2
0 -10 12 2788.52 436.906 2
0 10 12 2842.75 496.327 4
-12 10 0 2724.76 502.855 1
0 10 12 2923.83 416.58 1
12 -10 0 1855.59 415.662 2
-10 0 -12 2335.47 421.04 2
-10 0 -12 2702.66 522.216 3
10 -12 0 2614.61 454.693 2
0 12 -10 2657.96 416.605 1
-12 -10 0 2785.45 389.749 3
-10 12 0 2720.21 508.705 1
10 0 -12 3401.11 427.359 1
10 12 -2 4430.4 588.285 1
2 -10 12 5575.71 517.553 1
-2 10 12 4772.34 463.15 2
12 2 -10 5575.49 558.024 1
-2 -10 -12 4227.14 437.661 2
-2 -12 10 5453.83 601.619 2
-2 12 -10 4820.47 555.576 1
2 -12 -10 4641.64 509.91 2
2 10 -12 4782.17 479.267 1
2 -10 12 4924.64 588.733 2
-12 10 -2 3976.36 611.078 1
-2 10 12 4398.52 528.573 1
-2 10 12 4801.86 626.25 4
2 12 10 3936.59 533.392 1
-10 2 -12 5008.78 601.368 2
-10 -12 -2 5425.04 541.676 3
-12 2 10 4697.35 409.855 4
10 2 12 3803.14 570.148 4
10 -2 -12 4883.86 500.265 1
12 -10 -2 4353.08 584.911 2
-12 -10 2 4869.63 454.541 3
2 10 -12 4401.09 310.692 3
-2 -10 -12 4496.03 537.935 1
-10 12 2 4605.59 652.882 1
-2 -12 10 5839.68 550.647 1
10 -12 2 4700.74 619.303 2
-10 -12 -4 923.117 305.23 3
-4 -12 10 860.675 244.904 1
-12 -4 -10 715.957 326.319 3
-4 -10 -12 454.302 297.55 3
-4 -10 -12 955.541 234.638 2
-4 -12 10 1069.35 314.63 2
-4 10 12 1061.24 270.652 2
4 12 10 1189.78 369.608 1
10 4 12 1122.14 373.24 4
-4 12 -10 926.757 313.306 1
4 10 -12 858.318 245.625 1
4 -12 -10 993.977 294.88 2
4 -10 12 891.707 333.631 2
-4 10 12 542.6 280.808 1
10 -4 -12 1070.79 284.052 1
10 12 -4 1521.54 394.948 1
-12 4 10 638.877 277.313 1
4 -10 12 1548.05 348.085 1
-4 10 12 1067.46 379.091 4
-12 4 10 1317.76 276.48 4
-12 4 10 1173.71 322.59 2
12 -10 -4 713.418 288.67 2
-12 10 -4 918.383 352.957 1
-12 -10 4 621.541 178.613 3
-10 12 4 1181.61 335.47 1
-10 4 -12 1255.93 323.665 2
10 -12 4 1459.98 411.527 2
-10 -12 -6 683.769 326.881 3
12 -10 -6 861.179 247.365 4
-6 -10 -12 1017.31 349.172 3
6 -12 -10 998.965 304.019 2
10 12 -6 651.406 271.028 1
-6 -12 10 495.763 228.869 2
-10 6 -12 283.031 213.462 1
6 12 10 363.244 252.84 1
6 -10 12 634.202 277.361 2
6 10 -12 679.311 249.285 1
10 -6 -12 636.533 229.922 1
-6 10 12 801.877 266.179 2
-12 6 10 502.319 276.954 1
-6 10 12 530.006 271.223 1
10 -6 -12 510.532 227.272 4
-12 6 10 940.745 324.65 2
10 -12 6 810.437 344.042 2
10 6 12 1245.68 383.215 4
-6 12 -10 1011.94 319.71 1
12 -10 -6 890.494 340.496 2
-12 -10 6 914.9 184.545 3
12 -6 10 673.998 302.07 2
-12 -6 -10 177.89 279.022 3
-10 12 6 781.75 352.582 1
-12 10 -6 1494.08 452.84 1
6 -10 12 838.749 288.28 1
-10 -12 -8 738.966 292.797 3
-12 10 -8 63.5854 272.202 1
-8 -10 -12 758.877 363.456 3
-10 -8 12 392.652 91.9778 3
10 12 -8 725.884 302.907 1
-8 -12 10 662.021 288.967 2
8 10 -12 601.367 228.311 1
-8 12 -10 434.971 257.379 1
-10 8 -12 370.914 307.47 1
12 -8 10 -159.316 318.196 2
12 -10 -8 732.376 311.427 2
-8 10 12 1022.14 320.9 2
8 -10 12 675.976 347.274 2
10 -8 -12 424.543 221.825 4
8 -12 -10 708.474 282.227 2
10 8 12 607.81 363.579 4
-8 10 12 267.312 261.135 1
-12 -10 8 579.495 137.656 3
-12 8 10 347.73 347.4 1
8 12 10 937.064 371.087 1
10 -12 8 787.38 330.381 2
-10 12 8 1043.45 348.34 1
-12 -8 -10 926.567 367.401 3
12 -10 -8 648.217 227.615 4
-10 -10 -12 1244.38 412.689 3
10 10 12 907.328 348.397 1
10 12 10 1059.58 398.33 1
10 12 -10 499.59 232.846 1
-10 10 12 1103.05 383.445 1
12 10 10 944.098 374.823 4
-12 10 -10 1027 359.672 1
-10 10 -12 213.518 266.243 1
-10 12 -10 1105.46 419.426 1
-10 10 12 1101.08 382.142 2
-12 10 10 376.907 307.174 1
10 -12 -10 585.537 331.497 2
10 -12 10 968.006 374.062 2
10 -10 12 1535.91 426.188 2
10 10 12 425.626 336.677 4
-10 -12 -10 1285.32 409.44 3
12 -10 10 1265.83 414.836 2
10 10 -12 1086.55 299.159 1
10 -10 -12 866.107 323.94 2
12 -10 -10 1075.02 360.733 2
-10 12 10 651.398 336.663 1
-12 -10 -10 296.209 268.669 3
12 -10 -10 671.743 252.11 4
12 11 -9 588.104 248.064 1
-9 -12 -11 335.64 280.303 3
11 12 9 907.904 321.45 1
9 11 12 1248.98 372.138 1
-9 -11 12 839.537 320.946 2
9 12 -11 1181.34 291.167 1
12 9 11 -125.901 320.1 4
-12 11 9 1072.05 419.405 1
-11 9 12 1158.75 424.281 1
-11 12 -9 1048.19 429.991 1
-11 9 12 607.603 317.297 2
9 -12 11 777.466 344.125 2
11 -12 -9 773.935 309.838 2
-12 9 -11 421.682 266.318 1
-9 11 -12 1118.68 378.391 1
12 -9 -11 678.227 271.443 4
12 -11 9 642.003 358.564 2
-9 12 11 1153.44 379.027 1
9 11 12 186.508 325.74 4
9 -11 -12 595.884 327.458 2
11 -9 12 1105.28 372.279 2
-11 -9 -12 1232.44 448.582 3
-12 -11 -9 1127.53 363.481 3
-11 -12 7 1076.94 154.776 3
-7 -12 -11 1546.75 469.576 3
7 11 12 1249.54 350.456 1
-7 -11 12 1529.27 355.595 2
-11 7 12 1886.96 401.978 2
11 -7 12 1609.86 435.313 2
11 -12 -7 1063.1 327.599 2
7 12 -11 768.475 278.626 1
-7 11 -12 980.64 358.975 1
-12 11 7 1287 395.798 1
-7 12 11 1424.82 359.277 2
12 -11 7 937.668 362.6 2
-11 12 -7 1205.06 386.317 1
-7 12 11 1192.24 405.548 1
12 7 11 1334.06 377.609 4
11 -12 -7 1056.6 281.477 4
12 -7 -11 1435.2 345.103 4
7 -12 11 1138.49 384.285 2
7 -11 -12 1073.28 318.441 2
-12 7 -11 749.669 308.063 1
11 12 7 1266.62 378.869 1
7 11 12 1243.19 427.789 4
-11 7 12 1873.07 408.172 1
-11 -7 -12 884.672 363.905 3
-12 -11 -7 993.387 320.083 3
11 12 5 88.776 244.621 1
-5 -12 -11 47.6016 222.611 3
-5 -12 -11 601.681 264.306 2
-5 12 11 542.396 302.824 1
-5 -11 12 242.004 209.364 2
5 11 12 173.08 240.754 1
-5 12 11 491.16 261.642 2
-11 5 12 506.753 272.145 1
-11 12 -5 331.161 288.128 1
-12 11 5 512.895 333.022 1
5 12 -11 737.888 280.293 1
5 11 12 602.906 328.293 4
-12 -11 -5 590.447 276.478 3
5 -12 11 -62.3408 249.93 2
-11 5 12 367.288 241.997 2
5 -11 -12 720.5 251.197 2
12 5 11 -88.878 261.642 4
-11 5 12 -113.399 211.132 4
12 -11 5 -1.85918 248.648 2
-5 11 -12 238.499 243.364 1
-11 -5 -12 135.422 266.673 3
-11 -12 5 468.813 145.863 3
11 -12 -5 723.644 339.328 2
11 12 3 18.8077 243.282 1
-3 -11 12 713.771 225.843 1
12 -3 -11 710.346 274.783 1
11 3 -12 741.776 221.027 1
-11 3 12 528.829 212.454 4
-3 12 11 478.839 209.211 2
-3 -12 -11 769.821 261.68 2
-11 12 -3 791.335 303.605 1
-3 -11 12 851.575 312.344 2
-11 -3 -12 -213.213 287.256 3
-12 11 3 608.231 320.296 1
3 -11 -12 978.726 288.664 1
3 11 12 377.315 257.136 1
3 -12 11 767.442 313.663 2
-3 11 -12 727.138 266.48 1
3 -11 -12 835.464 256.961 2
3 -12 11 659.182 274.701 1
3 12 -11 462.658 234.09 1
12 3 11 187.817 247.281 4
11 -12 -3 985.912 318.655 2
12 -11 3 259.212 267.227 2
3 11 12 400.024 310.67 4
-11 3 12 780.259 283.189 2
-11 3 12 750.269 254.367 1
-12 -11 -3 542.453 256.134 3
11 -3 12 459.916 254.127 1
-11 -12 3 421.02 169.686 3
-3 12 11 654.65 297.076 1
11 12 1 1371.42 374.974 1
12 -1 -11 2316.88 387.802 1
-1 12 11 2614.46 388.066 2
11 -1 12 2226.58 397.514 1
12 1 11 1373.29 337.521 4
-11 12 -1 1838.74 453.852 1
-1 11 -12 2144.97 365.237 1
-1 -11 12 2645.03 372.479 1
1 -11 -12 1680.69 339.277 1
11 1 -12 2157.69 358.221 1
-1 -12 -11 1565.48 298.752 2
-12 -11 -1 2094.98 362.668 3
-1 -11 12 2033.32 396.396 2
1 -12 11 2565.62 394.336 1
-12 11 1 1959.81 448.699 1
1 -11 -12 1791.43 308.296 2
1 -12 11 1926.42 395.71 2
1 11 12 1529.15 340.128 1
-12 -1 11 1596.49 291.257 4
11 -1 12 1878.21 437.001 4
-11 1 12 1800.29 324.298 4
-1 12 11 1918.1 407.37 1
11 -12 -1 2035.86 424.842 2
12 -11 1 1777.11 413.266 2
1 11 12 1050.47 392.646 4
1 12 -11 2346.1 395.736 1
-11 -1 -12 2560.83 500.785 3
-11 -1 -12 1795.5 395.907 2
-11 -12 1 2312.84 324.448 3
-1 11 12 2003.85 377.911 1
11 12 -1 1896.73 418.127 1
-1 12 -11 1661.72 368.138 1
-1 -11 -12 1517.46 349.26 1
-11 12 1 2020.34 460.333 1
-1 -12 11 2848.16 395.055 1
-1 -11 -12 2269.64 337.523 2
-1 -12 11 1967.56 391.658 2
1 -11 12 2580.07 378.038 1
11 1 12 1843.13 374.487 1
1 -12 -11 1908.41 328.595 2
1 -11 12 1464.83 359.353 2
-12 11 -1 1311.26 395.604 1
11 -1 -12 2302.75 374.062 1
12 1 -11 1832.61 329.477 1
1 12 11 1440.74 385.568 1
12 -1 11 2354.57 444.206 4
11 1 12 1671.72 391.035 4
-12 1 11 2465.97 334.996 4
12 -11 -1 2379.37 468.244 2
-11 1 -12 1733.22 373.591 2
11 -12 1 2241.74 436.771 2
1 11 -12 1901.53 352.52 1
-12 -11 1 1701.3 309.379 3
-11 -12 -1 2123.82 347.052 3
-12 3 11 824.259 278.535 2
-3 11 12 338.477 235.873 1
11 12 -3 0.54864 237.85 1
-3 -12 11 664.997 253.295 1
-3 -11 -12 86.0711 252.883 3
-11 12 3 -17.1427 331.406 1
-3 11 12 52.3826 201.992 2
-3 -11 -12 474.326 207.479 2
11 -12 3 628.436 287.528 2
-3 -12 11 809.256 328.099 2
12 3 -11 371.758 226.43 1
-3 12 -11 504.558 281.476 1
3 12 11 -42.6692 248.104 1
3 -12 -11 786.877 269.101 2
3 -11 12 806.794 316.609 2
-12 11 -3 493.998 301.668 1
-12 3 11 890.509 245.017 4
3 -11 12 1276.04 314.964 1
3 11 -12 648.689 254.653 1
11 3 12 57.7898 276.431 4
12 -11 -3 341.997 304.493 2
-12 -3 -11 272.45 274.669 3
-12 -11 3 712.253 194.449 3
11 -3 -12 1044.03 288.399 1
3 11 -12 443.252 91.5641 3
-11 -12 -3 566.082 236.764 3
-12 3 11 423.621 233.672 1
-5 -11 -12 407.808 273.218 3
-11 12 5 178.543 284.649 1
-5 -11 -12 320.693 242.713 2
-5 -12 11 731.255 313.067 2
-5 11 12 395.208 256.163 1
11 12 -5 680.661 304.235 1
-5 11 12 227.39 196.936 2
5 12 11 199.655 240.919 1
5 11 -12 547.879 256.299 1
5 -12 -11 316.663 215.109 2
11 -5 -12 66.8194 209.866 1
5 -11 12 500.483 281.935 2
-12 11 -5 -308.057 310.451 1
11 5 12 -17.1244 259.312 4
11 -12 5 126.391 248.219 2
-12 -11 5 459.836 166.258 3
-12 5 11 178.248 228.275 2
5 -11 12 61.3527 207.769 1
-5 12 -11 104.273 265.241 1
12 -11 -5 650.439 302.381 2
-12 -5 -11 643.425 348.587 3
-12 5 11 546.156 282.001 1
-12 5 11 538.984 218.108 4
-11 -12 -5 468.763 248.124 3
-11 -12 -7 1183.08 357.399 3
-7 -11 -12 986.872 369.232 3
11 12 -7 714.329 309.038 1
-7 12 -11 777.196 323.864 1
-11 12 7 1610.23 448.835 1
7 -11 12 1800.89 437.219 2
-12 7 11 1324.22 322.305 1
-7 -12 11 1195.48 380.793 2
7 12 11 1277.87 387.146 1
12 -7 11 1274.48 389.695 2
7 11 -12 1372.2 331.219 1
-7 11 12 1126.9 346.651 2
-7 11 12 691.862 335.177 1
7 -12 -11 1976.01 421.368 2
-11 7 -12 893.892 308.624 1
-12 7 11 1024.22 305.04 2
11 -12 7 1487.58 397.659 2
11 7 12 662.017 353.481 4
12 -11 -7 1231.77 298.342 4
12 -11 -7 1277.37 365.281 2
-12 -11 7 1317.89 197.255 3
11 -7 -12 1230.42 328.016 4
-12 -7 -11 1214.29 380.26 3
-12 11 -7 759.287 388.694 1
-11 -12 -9 1341.2 387.765 3
-9 -11 -12 797.553 358.353 3
-12 -9 -11 727.746 317.653 3
11 12 -9 644.16 289.881 1
-11 12 9 1245.19 447.895 1
9 12 11 546.594 286.205 1
-9 -12 11 1137.93 338.961 2
9 11 -12 457.492 254.316 1
12 -11 -9 1122.82 353.646 4
11 -12 9 998.369 329.207 2
-9 12 -11 1013.68 374.109 1
-9 11 12 908.664 336.876 2
-12 9 11 644.308 329.056 1
-11 9 -12 1224.53 394.822 1
-9 11 12 1154.55 359.757 1
9 -11 12 658.106 332.051 2
9 -12 -11 966.215 352.266 2
11 9 12 762.091 358.69 4
12 -9 11 878.495 330.174 2
12 -11 -9 348.922 276.954 2
-12 11 -9 1055.83 389.995 1
-12 -11 9 1035.93 143.746 3
-11 -11 -12 1821.27 505.614 3
12 11 11 1641.66 426.585 1
-11 -12 -11 2081.26 509.217 3
11 11 12 1191.43 375.905 1
12 11 -11 2031.9 421.888 1
11 12 11 1576.05 402.55 1
11 11 -12 2061.12 409.447 1
11 12 -11 2775.37 481.785 1
-12 11 -11 2484.74 513.438 1
-11 12 11 2045.55 497.635 1
11 -11 -12 1646.58 396.277 2
-11 11 12 2083.49 490.86 1
-12 11 11 2822.61 585.126 1
12 -11 -11 2197.78 461.485 2
-11 12 -11 2449.07 534.513 1
11 -12 11 1952.48 500.024 2
11 -11 12 2341.17 523.76 2
12 -11 11 1625.85 449.433 2
11 11 12 2350.41 520.04 4
11 -12 -11 1909.56 449.842 2
-11 11 -12 2067.63 511.299 1
-12 -11 -11 2181.54 500.972 3
0 12 -12 1896.86 351.298 1
0 12 12 1238.36 314.988 1
-12 0 12 1996.09 343.157 4
0 -12 12 2053.47 344.482 1
-12 12 0 1470.67 428.196 1
0 -12 -12 1512.8 307.794 2
0 -12 12 1546.59 363.462 2
12 0 12 1293.56 385.951 4
12 -12 0 1807.12 448.14 2
12 0 -12 1418.63 307.238 1
-12 -12 0 1423.78 303.863 3
12 12 -2 16.7179 245.244 1
-12 -12 2 -136.313 177.19 3
-2 -12 12 -69.0604 183.725 1
-2 12 12 210.031 193.615 2
-2 -12 -12 259.082 172.766 2
-12 12 2 440.045 320.166 1
-2 12 -12 237.276 242.419 1
12 -2 -12 -261.086 250.103 1
-12 2 12 74.2146 202.372 4
-2 -12 12 258.079 277.364 2
2 12 -12 -243.276 255.195 1
-12 12 -2 -321.308 320.709 1
2 -12 12 -59.6909 196.467 1
2 -12 -12 -173.03 213.096 2
2 -12 12 -310.792 290.51 2
2 12 12 -443.305 312.615 1
12 2 12 70.9001 259.314 4
-12 -2 -12 -5.6267 259.55 3
12 -12 2 267.543 253.491 2
12 -12 -2 168.669 261.721 2
-2 12 12 175.162 236.572 1
12 2 -12 124.051 203.887 1
-12 -12 -2 -134.278 205.784 3
-4 -12 12 772.982 261.55 1
12 12 4 852.668 402.384 1
12 12 -4 210.531 245.986 1
-4 -12 -12 467.961 316.774 3
-4 12 12 193.246 276.204 1
-4 -12 -12 347.341 232.578 2
-4 12 12 764.583 277.555 2
-12 12 4 410.344 365.564 1
-4 -12 12 564.811 324.723 2
4 12 12 215.562 270.895 1
12 -12 4 486.343 283.456 2
-12 12 -4 636.893 373.613 1
-12 4 12 502.128 283.662 2
4 12 -12 630.987 225.86 1
4 -12 12 453.266 322.23 2
4 -12 -12 582.562 263.752 2
12 4 12 367.122 294.678 4
-4 12 -12 925.231 283.714 1
4 -12 12 1018.36 307.103 1
12 -12 -4 1002.99 356.98 2
12 -4 -12 904.939 296.279 1
-12 4 12 529.699 197.482 4
-12 -4 -12 77.0837 270.026 3
-12 4 12 1092.99 336.235 1
-12 -12 4 817.553 193.098 3
-12 -12 -4 531.56 290.092 3
12 12 6 -111.658 296.335 1
-6 -12 -12 550.14 294.308 3
12 6 12 283.232 272.361 4
-6 -12 -12 343.128 214.691 2
12 12 -6 145.943 234.662 1
-6 -12 12 -70.8188 217.837 2
-12 12 6 236.87 370.813 1
6 12 12 430.422 277.506 1
-6 12 12 712.773 313.123 2
-6 12 12 460.611 291.714 1
6 12 -12 38.337 208.378 1
-12 6 -12 307.863 277.666 1
12 -12 6 222.744 247.086 2
-12 6 12 129.752 265.59 1
-12 12 -6 -3.25222 279.372 1
6 -12 12 -213.064 308.932 2
-12 -6 -12 -50.3497 331.937 3
6 -12 -12 422.67 233.141 2
-12 6 12 16.1999 267.517 2
12 -6 -12 265.01 247.84 4
-12 6 12 19.4774 236.467 4
12 -12 -6 -99.0597 286.626 2
-6 12 -12 310.831 255.237 1
-12 -12 6 43.6719 109.554 3
-12 -12 -6 -33.1859 250.176 3
12 12 8 604.894 322.711 1
12 12 -8 909.174 320.324 1
-8 -12 -12 510.48 376.627 3
8 12 12 580.926 330.96 1
-8 -12 12 -173.749 300.11 2
8 -12 -12 697.883 274.185 2
-12 12 8 679.949 348.3 1
8 12 -12 1028.94 308.057 1
-8 12 -12 842.78 328.245 1
-12 8 -12 538.895 336.915 1
-8 12 12 665.009 344.83 1
-8 12 12 510.079 260.975 2
12 -8 -12 890.266 328.052 4
12 -12 8 348.496 284.493 2
-12 -8 -12 1127.02 463.889 3
-12 12 -8 914.109 382.081 1
8 -12 12 606.423 308.467 2
12 8 12 80.1603 290.276 4
12 -12 -8 996.397 357.841 2
12 -8 12 504.505 277.83 2
-12 8 12 816.162 338.953 1
-12 -12 8 941.611 147.338 3
-12 -12 -8 529.38 303.109 3
-12 -12 -10 1363.59 432.636 3
12 10 -12 817.146 293.426 1
-10 -12 -12 935.026 378.356 3
12 12 -10 1371.45 392.272 1
12 -12 10 551.419 370.98 2
10 12 12 563.839 361.743 1
10 12 -12 1163.36 347.942 1
-12 12 10 840.478 423.016 1
12 12 10 310.355 351.327 1
-12 10 -12 627.128 397.842 1
-12 10 12 981.921 401.156 1
10 -12 12 1232.33 430.034 2
10 -12 -12 1457.86 390.886 2
12 -10 12 979.839 405.508 2
-10 12 -12 1227.44 399.105 1
12 -12 -10 270.325 280.562 2
-12 12 -10 1501.97 433.294 1
12 10 12 773.487 409.645 4
-10 12 12 901.62 361.487 1
-12 -10 -12 1100.13 411.088 3
-12 -12 -12 80.1103 325.035 3
-12 12 -12 500.328 373.378 1
12 12 12 -311.151 331.232 1
12 12 -12 -129.7 309.353 1
-12 12 12 -308.964 356.489 1
12 -12 -12 41.4547 280.866 2
12 -12 12 261.709 349.59 2
-1 0 -13 951.505 279.521 3
0 1 -13 1454.35 286.222 3
0 13 1 1349.92 337.659 1
0 -1 13 1289.35 144.099 2
1 0 -13 1440.74 297.822 3
0 1 13 1653.74 381.084 4
0 13 -1 1741.43 394.472 1
-1 -13 0 1476.76 347.225 2
0 -13 -1 1464.45 329.451 2
0 -13 1 1244.15 316.133 2
1 -13 0 1250.82 313.14 2
1 13 0 1711 368.268 1
-1 13 0 1295.99 365.505 1
13 -1 0 1250.59 138.288 4
13 0 1 1345.42 170.792 4
0 -1 -13 1454.1 312.821 3
1 0 13 1681.28 302.407 3
0 -1 13 1479.76 267.897 3
0 1 13 1578.87 312.731 3
-1 0 13 1270.58 248.788 3
1 2 13 7144.83 404.324 1
1 2 13 9289.58 721.073 3
2 -1 13 6584.23 373.131 1
2 13 1 9697.88 807.563 1
-1 2 -13 8448.24 458.206 2
-2 -13 1 8360.05 745.954 2
-1 -13 -2 8884.5 747.565 2
1 -13 2 9180.44 782.942 2
2 -13 -1 9304.39 770.19 2
-1 13 2 7875.18 743.869 1
-1 -2 13 8423.17 455.921 2
-2 13 -1 7238.47 731.655 1
-2 1 13 9691.71 810.424 4
13 1 2 8540.27 491.588 4
1 2 13 10154.7 852.351 4
-1 -2 13 9571.68 627.464 3
-1 2 -13 8768.74 665.573 3
-2 1 13 8849.53 662.929 3
-2 -1 -13 9054.91 737.535 3
1 13 -2 9161.17 791.959 1
2 13 1 8460.32 674.276 3
2 1 -13 9959.73 686.87 3
1 -2 -13 8608.06 702.362 3
-2 -13 -1 9278.41 776.963 2
1 13 2 8815.06 784.542 1
-1 -13 2 8731.79 763.696 2
1 -13 -2 8812.64 753.794 2
-2 1 -13 8144.67 456.148 2
-2 -1 13 7470.97 390.441 2
2 -13 1 9434.38 777.542 2
-1 13 -2 8856.25 781.836 1
-2 13 1 8131.62 773.939 1
1 -2 13 8762 492.722 2
-13 -2 1 8151 407.517 4
2 1 13 8353.93 795.886 4
13 -1 2 8868.23 501.463 4
-1 2 13 9070.69 794.906 4
2 1 13 9201.61 705.901 3
-2 -1 13 9536.92 633.031 3
-2 1 -13 8749.75 697.805 3
-1 2 13 8315.31 663.887 3
-1 -2 -13 8668.81 743.323 3
1 2 -13 9168.84 645.902 3
2 1 13 8063.67 419.835 1
2 13 -1 7864.98 751.914 1
-3 13 -2 3933.36 530.533 1
-3 -2 -13 4002.1 497.491 3
-2 3 -13 4417.15 374.762 2
-2 -3 13 4115.44 337.762 2
-13 -3 -2 4319.78 390.977 4
-3 2 13 4284 539.736 4
2 -13 3 4787.27 561.96 2
-3 2 13 3463 265.946 1
-3 -13 2 3628.84 492.654 2
2 3 13 3503.99 533.93 4
-2 -13 -3 4252.67 515.359 2
3 13 2 3807.95 522.289 1
3 -13 -2 4504.75 526.204 2
-3 -2 -13 3819.9 291.451 2
2 13 -3 4484.59 563.794 1
3 -2 13 4724.02 382.542 2
13 2 3 4604.73 387.12 4
-13 3 2 4241.08 523.727 1
-2 -3 13 4455.55 391.299 3
-2 3 -13 3800.96 443.223 3
-2 13 3 3640.38 522.546 1
-3 2 13 4389.63 478.145 3
3 -2 13 4079.97 310.382 1
3 13 2 4417.99 503.875 3
2 3 13 3933.61 474.66 3
2 -3 -13 4245.35 303.621 1
2 3 13 4260.93 333.907 1
3 13 0 28912.8 1597.9 1
0 3 -13 35036.9 1245.68 2
0 13 3 32585.8 1666.19 2
-3 -13 0 30912.7 1596.94 2
0 -13 -3 29200.8 1538.42 2
0 -13 3 30994.3 1594.15 2
0 13 3 30434.4 1626.69 1
0 3 13 26105.1 1129.71 1
0 13 -3 30283.8 1607.43 1
3 -13 0 30496.6 1591.57 2
13 0 3 33008.1 1288.49 4
0 -3 13 31876.9 1252.65 2
-3 0 -13 29712.2 1194.88 2
-13 3 0 29534.7 1569.26 1
-3 13 0 30201.6 1635.22 1
-3 0 -13 30166.2 1536.58 3
-13 -3 0 31724.2 1205.51 4
0 3 13 30597.3 1633.91 4
3 0 13 29811.8 1632.94 4
0 3 -13 31058 1402.56 3
3 0 13 29780.3 1471.8 3
0 3 13 30973.3 1517.88 3
3 0 13 29443.9 1154.78 1
-3 0 13 32241.9 1418.5 3
3 13 0 33045.3 1484.41 3
0 -3 -13 30161.4 1540.09 3
-2 -3 -13 4319.05 545.918 3
2 13 3 4734.44 523.865 3
-3 -2 13 3964.9 304.16 2
2 -13 -3 4535.31 537.387 2
-3 2 -13 4403.07 379.802 2
-3 -13 -2 3844.25 513.281 2
-2 -13 3 3652.61 496.532 2
-2 3 13 4658.96 580.597 4
-13 -3 2 3999.46 276.344 4
3 13 -2 4549.53 567.172 1
2 -3 13 4263.17 382.803 2
3 -13 2 4122.98 514.798 2
2 -3 13 3581.05 262.589 1
2 13 3 3257.49 471.825 1
-2 -3 -13 3083.67 225.403 2
-2 3 13 4009.75 310.449 1
3 2 13 3858.91 567.677 4
-3 2 -13 4019.79 475.061 3
-3 -2 13 4798.17 411.453 3
-2 3 13 4503.61 505.843 3
3 2 13 3987.47 317.904 1
2 3 -13 4483.29 416.186 3
-2 13 -3 4153.1 536.932 1
3 13 -2 5021.05 454.634 3
-3 13 2 3612.75 527.302 1
3 2 13 3995.6 479.816 3
3 -2 -13 3618.93 258.625 1
4 13 3 501.009 225.742 3
-13 4 3 74.6822 228.161 1
-4 3 13 378.226 207.051 3
4 3 -13 215.997 73.6061 1
-4 13 -3 -101.733 260.628 1
3 4 13 359.709 165.471 1
4 3 -13 238.578 76.2664 1
-4 -13 3 5.91764 209.285 2
-4 -3 -13 -54.0993 218.897 3
-3 -13 -4 171.335 190.861 2
-3 -4 13 248.896 125.131 2
-4 3 13 208.94 112.267 1
-4 3 13 43.179 219.249 4
4 13 3 -31.4059 240.311 1
3 -4 -13 168.847 121.706 1
-3 4 -13 101.684 164.963 2
-13 -4 -3 222.012 156.967 4
3 -13 4 709.433 294.63 2
3 13 -4 405.568 216.835 1
4 -13 -3 250.618 196.106 2
-4 3 13 175.483 74.7199 2
13 3 4 121.794 158.207 4
3 4 13 486.722 256.428 4
4 -3 13 422.705 175.193 2
4 -3 13 561.227 163.367 1
-3 -4 13 516.485 170.189 3
-3 4 -13 170.67 157.816 3
-3 4 -13 70.6987 115.524 1
-3 13 4 409.584 239.862 1
4 13 1 1919.06 339.812 3
-4 13 -1 2212.2 440.593 1
-4 -13 1 1912.2 368.136 2
-1 13 4 1819.83 378.958 2
-1 4 -13 2355.81 283.666 2
-13 4 1 1879.02 381.274 1
1 4 13 1914.95 434.522 4
-1 -13 -4 2388.02 403.842 2
-4 1 13 2129.68 335.297 3
-13 -4 -1 2084.23 276.282 4
4 13 1 2067.56 416.038 1
1 -13 4 1821.81 397.303 2
-1 -4 13 2002.1 259.838 2
1 4 13 1601.77 226.072 1
1 13 -4 1322.82 342.495 1
-1 4 -13 1658.16 170.317 1
4 -13 -1 1440.67 346.946 2
-4 1 13 1843.38 369.696 4
13 1 4 2273.62 304.57 4
-4 -1 -13 1883.29 239.355 2
1 -4 -13 1974.59 226.148 1
-1 13 4 1247.66 332.134 1
-4 1 13 1500.48 154.475 2
-1 4 -13 1737.76 302.339 3
-4 -1 -13 1541.07 341.335 3
4 -1 13 1846.5 227.985 1
-1 4 13 2158.65 374.678 3
1 -4 13 2327.44 294.259 2
-4 -1 13 2470.99 311.986 3
4 13 -1 2066.01 313.42 3
13 -1 4 2054.63 278.137 4
1 4 -13 1978.31 283.496 3
-13 4 -1 1782.08 393.072 1
-1 -4 -13 1088.95 300.797 3
1 13 4 2091.37 396.315 3
1 -4 13 2202.57 186.404 1
-4 13 1 1198.35 353.554 1
1 13 4 2522.06 427.852 2
-4 -13 -1 1915.97 400.278 2
4 -1 -13 1574.01 166.494 1
-1 -13 4 1680.65 366.002 2
4 1 13 1882.47 417.047 4
4 13 -1 2330.18 407.132 1
1 -13 -4 1828.4 363.472 2
4 -13 1 1204.46 321.362 2
1 13 4 1826.71 376.122 1
-4 1 -13 2003.71 277.314 2
-13 -4 1 1848.93 227.584 4
-1 4 13 2091.45 434.908 4
-1 13 -4 1263.34 357.712 1
-1 4 13 1834.18 231.971 1
-4 1 -13 1587.86 342.661 3
4 3 13 362.711 145.351 1
4 13 -3 411.087 164.889 3
3 13 4 148.884 188.014 3
-3 4 13 174.075 189.58 3
-3 13 -4 342.51 213.324 1
-4 13 3 -84.0045 224.598 1
-13 3 4 45.7991 216.607 1
3 -4 13 173.075 110.225 1
-4 -3 13 49.5666 112.167 2
-4 -13 -3 156.644 212.844 2
-3 -13 4 161.494 215.119 2
-3 4 13 318.628 226.408 4
-13 4 -3 300.83 231.11 1
4 13 -3 223.498 259.026 1
3 4 -13 188.467 69.5691 1
3 13 4 14.5537 212.876 1
-3 -4 -13 212.724 235.474 3
3 -13 -4 -16.4913 221.808 2
-4 3 -13 406.137 177.555 2
4 -13 3 428.724 279.773 2
-3 4 13 295.777 125.294 1
4 -3 -13 248.235 120.124 1
-13 -3 -4 66.9462 168.719 4
4 3 13 360.723 266.404 4
3 -4 13 405.238 194.648 2
13 -4 -3 208.939 83.9168 4
-4 3 -13 180.03 170.28 3
-4 -3 13 123.547 125.549 3
-5 -4 -13 601.207 230.563 3
4 13 -5 698.554 165.543 3
-4 13 5 206.287 255.007 1
-5 4 13 843.089 276.594 3
5 4 -13 662.995 143.637 1
4 5 13 579.16 198.31 1
-13 5 4 1116.13 306.198 1
4 5 13 801.047 354.268 4
13 4 5 631.932 226.108 4
-5 -13 4 1086.83 322.904 2
-4 -13 -5 458.207 266.443 2
-4 -5 13 500.563 185.605 2
-13 4 -5 227.012 218.195 1
-5 4 13 646.573 193.533 1
5 13 4 495.206 304.102 1
-5 13 -4 664.854 323.128 1
-5 4 13 703.798 256.996 4
4 13 -5 494.903 291.073 1
-4 5 -13 574.03 244.074 2
-13 -5 -4 436.177 240.118 4
4 -13 5 493.423 243.241 2
-5 4 13 570.776 145.142 2
4 -5 -13 946.573 221.424 1
5 -13 -4 877.209 287.041 2
-4 5 -13 453.187 206.209 3
13 -4 -5 551.261 122.256 4
5 -4 13 707.82 190.918 1
-4 5 -13 701.795 197.88 1
5 -4 13 845.647 228.778 2
-4 -5 13 449.502 129.235 3
5 13 4 632.721 225.968 3
-5 -13 2 6068.58 658.122 2
-2 13 5 6316.78 664.95 2
-2 -13 -5 5299.17 575.162 2
2 13 -5 6108.05 637.235 1
-2 5 -13 6463.74 523.248 2
-2 -5 13 5864.57 469.095 2
2 -13 5 5821.51 642.137 2
5 -2 13 5908.32 448.796 1
-5 13 -2 4979.1 628.204 1
5 2 -13 4878.47 325.431 1
5 13 2 5137.49 614.949 1
5 -13 -2 5926.74 621.503 2
-13 -5 -2 5895.91 497.177 4
-2 5 -13 4789.64 375.853 1
-5 2 13 5013.15 350.195 2
-5 2 13 6482.06 634.29 4
-5 -2 -13 4905.47 409.05 2
2 5 13 6054.13 686.046 4
13 2 5 6231.53 517.56 4
-5 -2 -13 5264.24 599.279 3
-5 2 13 6071.91 398.443 1
-2 5 -13 5422.46 498.908 3
-2 13 5 5046.89 607.102 1
5 13 2 5145.57 524.279 3
-13 5 2 6226.97 676.217 1
-5 2 13 6211.03 579.927 3
2 -5 -13 6060.47 441.166 1
2 5 13 5050.63 428.104 1
5 0 13 9887.18 586.257 1
0 5 -13 9580.45 621.648 2
-5 -13 0 10246.6 852.189 2
0 -13 -5 9319.85 759.925 2
0 -13 5 10041.5 829.585 2
0 5 13 8379.58 556.377 1
0 13 5 8720.45 807.136 1
0 -5 13 9771.97 641.332 2
0 13 -5 10274.5 819.598 1
5 -13 0 9750.17 824.247 2
-5 0 -13 9807.13 619.695 2
-5 13 0 9607.95 848.596 1
-5 0 13 9538.69 779.528 4
5 0 13 8812.13 819.958 4
13 0 5 8680.36 623.965 4
0 5 13 8646.53 805.431 4
-13 -5 0 9028.47 580.673 4
5 0 -13 8113.03 449.518 1
-5 0 -13 9460.24 786.612 3
0 5 -13 9650.86 638.232 3
5 13 0 10343.7 711.437 3
0 13 5 9265.34 808.743 2
0 -5 -13 8378.67 547.08 1
-5 0 13 10527.9 702.934 3
0 5 -13 7834.45 450.51 1
-13 5 0 10077.4 845.039 1
0 -5 13 9509.73 454.651 1
0 -5 -13 9108.33 790.513 3
5 13 0 9209.58 810.303 1
0 -13 5 10496.3 816.115 1
-2 -5 -13 4811.85 327.023 2
-5 -13 -2 5235.83 611.244 2
-2 -13 5 5392.35 608.165 2
2 -13 -5 6170.88 616.886 2
2 -5 13 6612.41 412.656 1
5 13 -2 4097.65 548.733 1
-5 2 -13 5683.45 504.411 2
2 -5 13 6321.98 536.024 2
5 -2 -13 5718.86 383.803 1
-2 13 -5 5936.12 642.711 1
2 5 -13 4622.01 307.777 1
2 13 5 4700.54 589.553 1
-2 5 13 5268.78 437.762 1
5 -13 2 5013.55 587.058 2
-5 13 2 6153.47 676.667 1
5 2 13 5967.73 672.282 4
-2 5 13 6202.25 670.811 4
-5 2 -13 5905.58 593.905 3
5 13 -2 6000.39 482.579 3
-5 -2 13 6418.54 478.549 3
2 5 -13 6066.12 458.226 3
-2 -5 -13 5705.24 624.609 3
-13 5 -2 6583.03 696.358 1
-4 -5 -13 875.101 272.856 3
-13 5 -4 816.752 310.839 1
-5 -4 13 379.119 156.345 2
-5 -13 -4 530.391 257.091 2
-5 13 4 369.274 276.48 1
-4 13 -5 1061.74 342.681 1
4 -5 13 1251.85 230.117 1
-4 -13 5 708.155 260.732 2
5 13 -4 635.733 286.915 1
-4 5 13 642.09 144.125 2
4 13 5 549.003 289.865 1
-4 5 13 749.567 197.3 1
4 5 -13 533.659 123.358 1
-5 -4 13 953.076 177.345 3
-5 4 -13 592.553 203.045 2
4 -13 -5 957.62 279.038 2
-5 4 -13 494.595 226.809 3
5 -13 4 290.386 210.82 2
5 4 13 297.625 295.702 4
-4 5 13 526.99 291.686 4
-13 -4 -5 702.241 251.36 4
5 -4 -13 1038.93 204.364 1
13 -5 -4 444.996 122.078 4
4 -5 13 744.411 252.601 2
-13 4 5 656.527 305.274 1
5 13 -4 876.926 187.15 3
6 5 -13 1565.86 219.933 1
-5 -13 -6 1409.17 345.637 3
5 6 13 1062.58 273.558 1
13 -5 -6 1521.16 210.71 4
-5 13 6 810.776 306.648 1
-5 -13 -6 1268.55 329.207 2
-6 -13 5 1784.89 412.271 2
-5 -6 13 1535.75 277.754 2
-6 -5 -13 586.372 298.587 3
6 13 5 1065.94 357.566 1
-6 5 13 1536.91 265.491 1
-13 -6 -5 1778.74 357.646 4
5 13 -6 1482.97 372.034 1
-5 6 -13 1562.78 295.703 1
-5 6 -13 1179.8 291.29 2
-6 13 -5 1760.76 410.588 1
5 -6 -13 1587.86 289.46 1
-6 5 13 1611.75 259.158 2
5 -13 6 1318.81 379.603 2
-13 6 5 1293.46 350.623 1
6 -5 13 2201.05 316.408 1
6 -13 -5 916.936 293.399 2
-13 5 -6 1602.49 407.67 1
5 6 13 1670.32 419.147 4
-6 5 13 1526.55 332.391 4
13 5 6 1859.88 342.84 4
6 -5 13 1934.76 341.424 2
-5 -6 13 1611.24 188.604 3
5 13 -6 1058.53 165.229 3
-6 3 13 1013.2 211.262 1
-6 -13 3 652.264 292.76 2
-3 -13 -6 1157.08 307.767 2
6 13 3 1078.91 323.902 1
3 6 13 733.236 202.122 1
-3 13 6 602.664 264.157 2
-3 -6 13 643.607 210.456 2
6 -3 13 981.921 240.515 1
6 3 -13 815.676 171.57 1
-3 6 -13 1367.55 291.921 2
3 -6 -13 978.229 218.346 1
-6 13 -3 1072.84 333.468 1
3 -13 6 963.195 344.114 2
3 13 -6 638.002 284.594 1
-13 -6 -3 1258.56 283.584 4
6 -13 -3 528.379 271.368 2
-13 6 3 865.458 275.822 1
-6 3 13 732.737 277.698 4
-3 6 -13 859.104 212.918 1
-6 3 13 602.693 159.289 2
3 6 13 822.214 323.755 4
3 -6 -13 844.436 159.907 2
-3 6 -13 817.609 246.295 3
6 -3 13 959.591 253.281 2
13 3 6 1135.99 270.534 4
-3 13 6 996.002 332.945 1
-6 -3 -13 856.468 296.353 3
6 13 3 826.491 262.094 3
1 -13 6 5024.09 543.099 1
6 1 -13 4352.01 335.195 1
1 6 13 3731.68 390.811 1
-1 6 -13 5165.16 475.175 2
-1 -13 -6 4673.67 525.332 2
-6 -13 1 4574.28 585.068 2
-1 -6 13 4970.6 463.841 2
-1 13 6 4791.06 576.349 2
6 13 1 4780.94 599.268 1
1 -6 -13 3746.73 285.218 2
-6 13 -1 4430.93 590.943 1
1 -13 6 4926.51 600.402 2
-6 -1 -13 3825.62 515.787 3
-6 -1 -13 4029.94 397.723 2
6 -13 -1 4949.69 581.099 2
-13 -1 6 3681.91 241.511 4
-13 -6 -1 4108.38 425.122 4
6 -1 13 4916.97 420.445 1
1 6 13 4297.77 604.201 4
-6 1 13 4307.31 520.684 4
-1 13 6 3933.68 561.89 1
1 13 -6 3529.48 493.337 1
-13 6 1 4244.7 566.203 1
13 1 6 4168.52 449.748 4
-1 6 -13 4102.35 413.431 3
6 13 1 4471.39 490.388 3
-1 -6 13 4787.82 319.307 1
-1 6 -13 3845.93 334.003 1
1 -6 -13 4538.85 401.547 1
-6 1 13 4021.57 455.015 3
1 -6 13 4984.21 353.984 1
-1 -6 -13 4043.72 552.404 3
-1 -6 -13 3461.73 274.543 2
-6 -13 -1 3820.18 529.049 2
13 1 -6 4433.68 524.884 1
1 -13 -6 4951.71 546.875 2
6 13 -1 4003.32 545.91 1
-1 -13 6 4502.6 530.152 1
1 -6 13 4241.16 458.85 2
-1 6 13 3576.59 387.674 1
-6 13 1 4853.36 629.575 1
-1 -13 6 4003.89 532.441 2
-6 1 -13 4680.63 462.254 2
6 1 13 4443.84 594.605 4
1 6 -13 4300.61 326.066 1
1 13 6 4003.71 546.505 1
6 -13 1 4098.74 536.603 2
13 -1 6 4273.13 440.906 4
6 -1 -13 4092.27 345.116 1
-13 -6 1 4528.78 422.527 4
-1 6 13 3866.86 566.259 4
6 13 -1 4167.86 430.331 3
-13 6 -1 4427.79 564.153 1
-1 13 -6 4103.89 533.929 1
-6 1 -13 4296.33 529.637 3
1 6 -13 4098.81 383.16 3
-6 -1 13 5215.96 461.556 3
6 -3 -13 817.047 186.37 1
-6 -3 13 744.362 165.963 3
-3 -6 -13 827.133 317.958 3
3 6 -13 908.842 177.227 3
-13 3 6 915.582 276.957 1
-13 6 -3 1287.51 362.18 1
-6 -13 -3 398.321 194.726 3
-3 13 -6 802.738 275.706 1
-6 -13 -3 574.602 284.358 2
6 3 13 369.019 283.98 4
-3 6 13 728.573 139.968 2
-6 3 -13 805.712 264.786 2
-3 6 13 729.752 214.003 1
6 13 -3 540.045 267.776 1
-3 -13 6 714.973 285.168 2
-6 13 3 848.874 312.834 1
-3 6 13 321.237 294.261 4
3 13 6 475.334 264.795 1
3 -13 -6 1070.88 294.745 2
3 -6 13 1063.56 253.115 2
6 -13 3 799.44 281.457 2
3 6 -13 835.759 168.583 1
-6 3 -13 583.712 266.157 3
3 -6 13 899.615 181.327 1
6 13 -3 468.34 160.355 3
-5 -6 -13 1588.03 384.484 3
-6 -13 -5 1667.42 312.303 3
-13 5 6 1588.96 367.247 1
-5 6 13 1166.97 254.625 1
-6 -13 -5 1988.8 385.783 2
-5 -13 6 1554.05 381.754 2
5 6 -13 1537.54 227.806 1
5 -6 13 1476.82 267.872 1
6 13 -5 1607.29 388.646 1
-6 13 5 1392.72 360.663 1
5 13 6 1937.69 438.304 1
-5 13 -6 1232.44 350.01 1
-13 6 -5 1531.65 395.966 1
-5 6 13 1358.76 232.652 2
13 -6 -5 1666.72 230.35 4
-6 5 -13 2051.94 377.686 2
5 -13 -6 1446.85 338.528 2
6 -13 5 2363.25 454.512 2
6 -5 -13 1371.82 385.251 4
6 5 13 2389.13 467.121 4
5 -6 13 1373.13 321.951 2
6 -5 -13 1823.63 292.049 1
-6 5 -13 1735.17 310.955 1
6 13 -5 1160.31 182.423 3
-5 6 13 1534.2 351.994 4
-6 -5 13 1661.38 202.929 3
-13 -5 -6 1688.65 362.325 4
7 6 -13 671.212 197.526 1
-6 -13 -7 1291.36 346.276 3
6 7 13 1123.68 292.196 1
-6 -13 -7 1396.38 362.149 2
-7 -13 6 1416.56 375.65 2
-6 -7 13 992.197 270.544 2
-6 7 -13 952.889 286.057 1
7 13 6 980.781 359.82 1
-13 7 6 1259.99 382.821 1
-7 6 13 630.567 242.561 1
-6 13 7 676.402 275.861 1
6 13 -7 321.209 250.32 1
-13 -7 -6 887.58 316.836 4
-6 7 -13 680.01 283.229 2
-7 6 13 1018.45 235.439 2
6 -13 7 1243.69 357.746 2
7 -6 13 1265.9 281.145 1
7 -13 -6 1306.88 331.627 2
-7 13 -6 1377.61 396.984 1
13 -6 -7 899.695 211.517 4
6 -7 -13 1387.47 291.341 1
6 7 13 972.881 359.218 4
-7 6 13 1016.42 302.148 4
-13 -7 -6 829.99 298.256 3
13 6 7 1252.65 342.399 4
7 -6 13 1482.88 350.827 2
-13 6 -7 1467.93 367.129 1
6 13 -7 815.36 117.154 3
6 -7 -13 1077.53 241.813 2
13 -7 6 1462.96 401.436 2
-7 -6 -13 538.142 289.453 3
4 13 -7 145.657 87.633 3
-4 13 7 747.894 319.452 1
7 -4 13 -112.304 185.015 1
-7 -13 4 154.951 244.715 2
7 13 4 -31.6717 279.732 1
-4 -13 -7 -13.4576 215.77 2
4 7 13 10.0373 178.591 1
-4 -7 13 206.391 173.736 2
-13 7 4 48.1922 246.683 1
-4 13 7 184.982 216.808 2
-4 7 -13 556.72 239.292 2
13 4 7 290.344 229.48 4
4 13 -7 62.3927 236.24 1
4 -7 -13 -48.8479 174.768 1
4 -7 -13 -125.745 128.335 2
4 -13 7 -92.765 257.95 2
-4 7 -13 -228.445 194.805 1
7 -13 -4 -129.941 234.343 2
-7 4 13 574.206 214.936 2
-7 4 13 158.473 208.551 4
-13 -7 -4 -140.833 270.651 4
4 7 13 -156.253 275.28 4
7 -4 13 -36.9374 185.842 2
-7 13 -4 227.589 272.927 1
-13 -7 -4 -45.2138 224.133 3
13 -7 4 57.0945 243.967 2
-7 4 13 213.539 181.971 1
-7 -4 -13 -43.0389 233.202 3
-2 7 -13 1632.96 269.344 1
-7 2 13 2081.2 285.516 1
-7 -13 2 1621.27 386.644 2
7 2 -13 1495.84 224.48 1
7 13 2 1045.45 344.168 1
-2 13 7 1431.33 358.358 2
-2 -13 -7 1580.62 334.214 2
2 -7 -13 1370 267.064 1
-2 7 -13 1586.1 327.477 2
13 2 7 1085.11 272.066 4
-2 -7 13 1295.55 274.533 2
-13 7 2 1199.02 318.6 1
2 7 13 1174.39 257.308 1
2 -13 7 1768.97 390.695 2
-7 13 -2 1514.7 427.242 1
2 13 -7 1875.06 400.706 1
7 -13 -2 1473.91 349.57 2
2 -7 -13 1537.87 222.956 2
-7 2 13 1467.19 359.856 4
2 7 13 1454.21 395.365 4
-13 -7 -2 1378.72 318.222 4
-7 -2 -13 1387.47 285.791 2
7 13 2 1260.72 293.647 3
-7 2 13 1844.18 245.043 2
-2 13 7 1043.9 320.217 1
-2 7 -13 1611.71 282.943 3
13 -7 2 1620.65 393.191 2
-7 -2 -13 847.192 317.757 3
7 -2 13 1565.29 282.571 1
0 13 7 11383.1 884.699 2
0 7 -13 12140.1 787.496 2
7 0 13 10811.3 715.232 1
0 -13 -7 10090 789.319 2
0 -13 7 11033.9 909.287 2
-7 13 0 10454 943.681 1
0 -7 -13 9729.97 555.649 2
0 13 7 9298.51 831.523 1
0 -7 13 12121.9 798.861 2
0 13 -7 11390.9 891.9 1
7 -13 0 11623.5 914.854 2
-7 0 13 11142 841.561 4
-7 0 -13 11071.8 752.856 2
7 0 13 10273.3 904.393 4
13 0 7 10625.4 772.033 4
-13 7 0 12821.2 1010.34 1
-13 0 7 10453 505.603 4
-13 -7 0 11293.4 735.943 4
0 7 13 12224.1 970.411 4
0 7 -13 11364 627.759 1
13 0 -7 12555.2 876.908 1
-7 0 -13 9918.74 864.797 3
0 7 -13 10883 661.024 3
7 13 0 11094.5 748.854 3
0 7 13 9315.15 680.295 1
13 -7 0 11361.1 927.317 2
0 -7 -13 10642.7 694.036 1
7 0 -13 11737.6 645.611 1
7 13 0 10030 877.641 1
-7 -13 0 10627.9 715.44 3
0 -7 13 12942.4 633.614 1
0 -13 7 12641.5 866.021 1
2 7 -13 1632.6 222.216 3
-2 13 -7 1322.52 359.917 1
-7 -13 -2 1258.16 295.907 3
-7 -2 13 1461.32 254.654 3
-2 -7 -13 1242.99 352.695 3
-2 -13 7 1635.15 334.528 1
7 13 -2 980.99 320.812 1
-2 -7 -13 1244.44 209.508 2
-2 -13 7 1758.66 387.805 2
7 -2 -13 1216.03 232.28 1
-7 13 2 717.422 333.34 1
2 -13 -7 1046.96 290.844 2
-7 2 -13 1016.6 309.466 3
13 2 -7 1141.38 307.366 1
2 13 7 1215.82 344.892 1
-13 7 -2 1669.75 385.965 1
2 -7 13 1400.45 285.756 2
7 -13 2 1728.31 383.615 2
7 2 13 721.65 355.217 4
-7 2 -13 1155.08 290.748 2
-2 7 13 1293.88 351.99 4
2 7 -13 1562.17 221.777 1
7 13 -2 944.826 222.941 3
2 -7 13 1767.95 263.445 1
-2 7 13 1542.58 287.41 1
-7 -4 13 166.225 119.218 3
-4 -7 -13 -6.49645 217.156 3
-7 -13 -4 151.586 189.919 3
7 -4 -13 282.466 170.688 1
-4 7 13 313.746 252.25 4
7 13 -4 43.657 221.556 1
-4 -13 7 54.6174 226.219 2
-4 13 -7 457.182 304.283 1
-4 7 13 180.973 139.339 2
4 13 7 474.815 270.16 1
-4 7 13 331.984 213.567 1
-7 13 4 229.1 279.191 1
4 7 -13 325.36 150.747 1
4 -7 13 -28.8015 184.607 2
4 -13 -7 72.2196 200.829 2
-7 4 -13 -33.3847 193.732 2
7 -13 4 147.188 261.68 2
-13 -4 -7 391.055 259.162 4
7 4 13 -10.9257 264.698 4
-13 7 -4 191.017 231.873 1
7 13 -4 279.664 128.946 3
4 -7 13 340.075 192.912 1
-13 4 7 13.9588 251.39 1
-7 -13 -6 910.68 302.309 3
-7 6 -13 1051.83 289.678 1
-6 -13 7 1154.99 384.258 2
6 7 -13 847.693 223.474 1
7 13 -6 787.063 291.873 1
6 13 7 1269.11 360.81 1
-6 7 13 894.744 300.51 4
6 -7 13 767.627 228.316 1
-7 13 6 1121.81 390.099 1
-6 7 13 878.044 239.982 2
-7 6 -13 616.353 264.91 2
-6 13 -7 866.354 310 1
-13 -6 -7 430.437 275.873 4
6 -13 -7 914.53 285.746 2
7 -13 6 1226.7 338.701 2
-13 6 7 1401.16 409.19 1
6 -7 13 754.594 277.745 2
13 -7 -6 1314.6 238.207 4
-6 -7 -13 983.012 339.127 3
7 6 13 865.971 366.684 4
-6 7 13 1103.11 304.353 1
-13 -6 -7 1316.09 363.059 3
7 -6 -13 1181.9 278.256 1
-13 7 -6 1067.92 372.377 1
-7 -6 13 1081.75 155.351 3
-13 8 7 464.569 286.835 1
8 7 -13 256.743 156.625 1
8 -7 13 111.018 207.908 2
-7 8 -13 24.6833 221.58 1
7 8 13 73.9035 194.783 1
-8 -13 7 561.935 315.387 2
-7 -8 13 218.651 183.135 2
7 8 13 -129.322 307.259 4
8 13 7 484.651 320.491 1
7 13 -8 284.242 268.452 1
-8 7 13 -92.5672 216.012 1
-13 7 -8 354.08 234.084 1
-7 13 8 717.138 357.621 1
8 -7 13 69.0219 182.884 1
-8 7 13 355.629 233.435 2
7 -13 8 556.572 317.895 2
8 -13 -7 209.232 228.234 2
-7 -13 -8 316.766 283.448 3
-8 7 13 538.121 274.786 4
13 7 8 328.15 258.174 4
7 -8 -13 195.988 214.245 1
-8 13 -7 779.281 368.239 1
7 -8 -13 192.358 177.358 2
13 -8 7 680.954 313.438 2
13 -7 -8 366.984 213.744 4
-13 -8 -7 690.228 366.174 3
-8 -7 -13 309.642 278.677 3
-13 8 5 2828.46 498.761 1
-5 -13 -8 3020.83 490.539 3
5 -8 -13 3982.15 458.55 1
8 -5 13 3223.7 461.921 2
8 13 5 2996.56 527.588 1
-13 5 -8 3233.3 518.221 1
-5 13 8 2843.78 515.731 1
-5 -13 -8 3657.01 492.821 2
5 8 13 2527.14 400.287 1
-5 -8 13 2717.86 410.218 2
-5 13 8 3050.78 480.422 2
5 13 -8 3872.82 532.153 1
-5 8 -13 3014.38 490.746 2
5 -8 -13 3617.7 395.09 2
5 -13 8 3880.25 558.222 2
-5 8 -13 3265.1 429.836 1
13 -5 -8 3093.27 341.144 4
8 -13 -5 3707.12 541.149 2
-8 5 13 2771.35 430.835 4
13 5 8 3461.83 468.912 4
5 8 13 3450.45 557.654 4
-13 -8 -5 3442.18 470.271 4
-8 13 -5 2867.59 496.114 1
-8 5 13 3587.75 443.017 1
13 -8 5 3246.42 516.192 2
-13 -8 -5 2980.76 483.807 3
-8 -5 -13 3228.92 528.965 3
-8 5 13 3561.02 411.284 2
8 -5 13 3247.01 448.82 1
-3 8 -13 1465.85 284.549 1
-13 8 3 1143.1 355.125 1
-8 13 -3 1418.22 404.668 1
8 13 3 832.033 326.083 1
-8 3 13 1443.32 284.817 1
-3 -13 -8 609.54 269.534 2
-3 13 8 1124.78 374.151 2
-3 -8 13 1412.27 299.982 2
-3 8 -13 1408.24 336.003 2
3 8 13 1409.57 287.999 1
3 -8 -13 1130.03 265.599 1
-13 -8 -3 1579.38 339.293 3
3 -13 8 1313.71 368.26 2
8 3 -13 1198.68 235.261 1
3 13 -8 1291.22 321.615 1
8 -3 13 1247.98 285.067 1
3 -8 -13 1516.28 262.148 2
8 -13 -3 1616.36 364.233 2
-8 3 13 1216.25 335.617 4
13 3 8 1913.75 382.817 4
-13 -8 -3 1856.09 365.814 4
3 8 13 1576.65 438.192 4
-8 3 13 1576.28 276.582 2
13 -8 3 1048.71 336.109 2
8 13 3 1268.96 306.665 3
-8 -3 -13 1197.47 365.653 3
-3 13 8 1437.2 368.097 1
-8 -13 1 1603.03 269.549 3
-13 8 1 1518.27 416.11 1
-1 -8 13 1366 237.914 1
8 13 1 986.57 331.228 1
13 -1 -8 1765.63 368.669 1
-1 13 8 966.364 313.885 2
1 -8 -13 1235.44 280.605 1
-1 13 8 688.031 327.006 1
-1 8 -13 1393.83 289.573 2
13 1 8 1592.18 346.013 4
-1 -13 -8 852.128 269.288 2
8 1 -13 1787.1 273.49 1
-1 -8 13 1772.33 322.191 2
1 -13 8 1663.77 394.926 2
1 -13 8 1959.99 381.065 1
8 13 1 862.786 254.155 3
1 -8 -13 1101.33 207.602 2
-13 -8 -1 436.424 233.829 3
-1 8 -13 1430.24 265.942 1
1 8 13 760.433 240.989 1
-8 13 -1 932.822 338.971 1
-8 1 13 1660.39 328.637 4
8 -13 -1 1072.74 350.198 2
-13 -8 -1 1595.92 323.723 4
8 -1 13 1801.08 311.564 1
1 13 -8 1161.82 330.655 1
-13 -1 8 950.433 188.948 4
1 8 13 729.643 361.217 4
-8 -1 -13 1059.64 283.716 2
-1 8 -13 1538.95 269.53 3
13 -8 1 1133.67 340.529 2
-8 -1 -13 892.775 331.789 3
1 8 -13 1176.15 230.264 1
-1 -8 -13 1236.03 294.409 1
-8 -13 -1 911.249 233.545 3
-13 1 8 1265.78 176.782 4
1 8 -13 1723.4 334.831 2
8 13 -1 936.165 329.057 1
-13 8 -1 968.094 393.969 1
13 -1 8 904.233 316.245 4
-1 -13 8 1426.97 327.985 1
-1 -8 -13 941.389 198.039 2
13 1 -8 1176.72 310 1
-1 -13 8 1550.88 372.421 2
-8 1 -13 1349.96 322.269 2
1 -13 -8 1513.5 330.845 2
1 -8 13 1424.03 249.802 1
1 -8 13 1290.62 316.688 2
8 13 -1 1221.1 258.158 3
1 13 8 1515.27 373.556 1
-8 13 1 1207.14 399.169 1
8 1 13 297.423 293.258 4
8 -13 1 1973.67 419.525 2
-1 8 13 617.886 304.815 4
-1 8 13 749.774 247.944 1
8 -1 -13 1354.42 269.241 1
-8 1 -13 1503.93 390.183 3
13 -8 -1 1978.4 435.459 2
1 8 -13 898.533 188.45 3
-1 13 -8 618.636 263.35 1
3 8 -13 1377.63 187.244 3
-8 -13 -3 1183.66 316.179 3
8 13 -3 1114.49 227.817 3
-3 8 13 1059.41 292.249 1
-3 -13 8 1740.23 370.403 1
8 13 -3 1839.13 423.481 1
-3 -8 -13 1279.48 240.796 2
-3 13 -8 1206.91 356.744 1
-3 8 13 1129.28 221.883 2
-3 -13 8 1490.51 364.596 2
-13 8 -3 2061.68 450.624 1
8 3 13 1600.87 419.688 4
8 -3 -13 1431.29 286.581 1
3 13 8 1145.36 358.04 1
-3 8 13 1363.67 389.444 4
3 -13 -8 1336.66 336.281 2
-8 13 3 1198.7 367.267 1
3 -8 13 1167.76 303.092 2
3 8 -13 1956.2 286.363 1
8 -13 3 1446.83 374.271 2
-13 3 8 1626.72 368.735 1
-8 3 -13 1299.83 316.614 2
3 -8 13 1548.35 273.687 1
-3 -8 -13 1228.54 355.046 3
13 -8 -3 711.982 291.646 2
5 -8 13 3042.86 392.682 1
-5 -8 -13 2097.66 457.878 3
8 -13 5 3309.15 526.24 2
8 -5 -13 3142.59 401.833 1
-13 5 8 2218.99 430.091 1
-13 -5 -8 2254.85 467.882 3
8 13 -5 3241.78 518.302 1
-5 -13 8 3048.86 485.994 2
8 5 13 3089.22 525.328 4
5 13 8 2163.61 445.855 1
-8 -13 -5 3620.67 495.221 3
-5 8 13 3206 369.944 2
5 8 -13 3407.34 369.391 1
5 -8 13 3279.05 475.94 2
-5 13 -8 3586.05 543.86 1
-13 8 -5 3935.99 590.34 1
-5 8 13 3511.44 478.906 1
-8 13 5 2665.49 492.929 1
5 -13 -8 3878.7 511.734 2
-13 -5 -8 2994.2 512.544 4
-8 5 -13 3468.81 491.239 2
-5 8 13 2850.52 456.23 4
-8 5 -13 3039.59 438.896 1
-8 -5 13 4200.13 329.147 3
13 -8 -5 3329.97 512.799 2
-7 -8 -13 497.109 291.105 3
-8 -13 -7 299.182 256.311 3
8 7 13 350.829 310.948 4
7 8 -13 -100.523 194.799 1
-7 -13 8 518.599 308.595 2
8 13 -7 736.59 329.076 1
7 13 8 122.564 261.376 1
7 -8 13 171.458 224.431 1
-13 7 8 742.876 335.763 1
-7 8 13 421.325 230.285 2
-8 13 7 -217.938 303.162 1
8 -13 7 108.505 249.824 2
7 -13 -8 501.392 263.432 2
-7 8 13 125.756 212.378 1
-13 8 -7 258.481 269.984 1
-7 8 13 -351.137 301.567 4
7 -8 13 598.023 289.805 2
13 -8 -7 416.48 199.033 4
-7 13 -8 252.4 291.74 1
-8 7 -13 249.741 228.338 1
8 7 13 -10.8007 219.63 1
-13 -7 -8 317.714 244.065 3
13 -7 8 611.853 327.792 2
8 -7 -13 369.591 209.707 1
-8 -7 13 209.04 78.4236 3
-8 9 -13 -185.84 227.54 1
9 8 -13 252.145 192.43 1
-8 -13 -9 -116.22 301.359 3
8 9 13 247.603 234.34 1
-9 13 -8 395.437 338.485 1
13 -9 8 578.387 357.07 2
9 13 8 731.661 371.976 1
-8 -9 13 -277.384 219.858 2
8 13 -9 426.696 292.797 1
-9 8 13 -138.402 293.287 1
9 -8 13 307.637 234.128 1
-9 8 13 -22.7994 221.585 2
-8 13 9 556.021 336.064 1
8 -13 9 -171.423 258.068 2
13 -8 -9 704.23 263.699 4
9 -13 -8 -49.5987 224.225 2
8 9 13 169.347 302.068 4
13 8 9 480.943 313.208 4
-9 8 13 347.061 293.492 4
-13 9 8 121.557 264.632 1
8 -9 -13 -61.1801 237.718 1
8 -9 -13 397.439 235.939 2
9 -8 13 406.653 296.651 2
-13 -9 -8 279.634 240.925 3
-9 -8 -13 248.142 266.819 3
-13 8 -9 543.6 329.778 1
-6 -13 -9 17.6242 256.581 3
9 -13 -6 230.383 248.055 2
9 13 6 53.2948 284.415 1
-6 -13 -9 179.889 216.74 2
6 9 13 177.82 207.921 1
-6 -9 13 -127.474 204.139 2
-6 13 9 -257.92 276.704 1
6 13 -9 328.728 290.356 1
-6 9 -13 53.9976 219.052 1
6 -13 9 -4.1388 223.357 2
-9 6 13 124.023 198.066 1
13 -6 -9 -309.355 206.952 4
-9 6 13 144.104 196.948 2
6 -9 -13 -24.8636 199.78 1
-13 6 -9 403.828 298.224 1
-9 6 13 -250.497 260.633 4
6 9 13 706.997 333.152 4
6 -9 -13 -189.504 174.233 2
-13 9 6 84.6806 268.091 1
13 -9 6 -58.1415 228.819 2
9 -6 13 228.242 240.685 2
13 6 9 122.116 230.186 4
9 -6 13 165.878 197.109 1
-13 -9 -6 344.594 256.825 3
-9 -6 -13 -265.772 299.989 3
-9 13 -6 534.221 371.662 1
-4 9 -13 1384.97 307.508 1
-4 13 9 1297.47 383.403 1
-9 -13 4 1299.26 219.008 3
9 13 4 880.394 352.44 1
-4 -13 -9 966.35 301.41 2
-4 -9 13 1430.61 307.246 2
-4 13 9 1772.82 399.931 2
4 9 13 1202.19 299.667 1
-4 9 -13 1428.12 356.99 2
9 -4 13 1379.17 307.776 1
4 -9 -13 1322.37 285.291 1
4 13 -9 1638.17 375.775 1
4 -13 9 1134 347.16 2
-9 4 13 1536.46 322.735 1
4 -9 -13 1431.98 289.157 2
9 -13 -4 1758.17 357.507 2
-9 4 13 958.922 297.482 4
13 4 9 1530.85 340.337 4
-13 -9 -4 1278.29 350.884 4
-9 4 13 1286.47 282.83 2
4 9 13 990.329 386.258 4
-13 9 4 1344.57 406.728 1
13 -9 4 1538.48 394.354 2
-9 13 -4 1395.97 448.87 1
-13 -9 -4 930.116 308.463 3
-9 -4 -13 948.745 347.427 3
-9 -13 2 546.792 187.129 3
-2 -9 13 885.193 198.72 1
9 13 2 -51.0764 274.73 1
9 -2 13 391.489 208.312 1
-2 13 9 271.1 243.635 2
-2 9 -13 549.471 273.474 2
-2 -13 -9 674.392 259.418 2
2 -9 -13 594.732 260.051 1
-2 -9 13 749.069 279.318 2
9 2 -13 717.115 230.67 1
2 -13 9 496.641 298.9 2
2 9 13 344.017 197.951 1
-2 9 -13 267.397 170.961 1
2 -13 9 51.2193 206.835 1
2 -9 -13 597.758 208.124 2
2 13 -9 722.831 278.411 1
9 13 2 444.41 236.692 3
-9 2 13 239.353 211.461 4
9 -13 -2 431.917 255.091 2
13 2 9 410.936 262.532 4
-13 -9 -2 246.818 227.874 4
2 9 13 135.514 262.728 4
-9 13 -2 1270.1 375.308 1
13 -9 2 779.544 307.023 2
-2 13 9 216.016 247.534 1
-13 9 2 742.934 348.14 1
-9 2 13 89.4024 161.81 2
-13 -9 -2 298.786 239.392 3
-9 -2 -13 302.982 288.376 3
-9 -13 0 329.281 198.106 3
9 13 0 129.213 261.553 1
0 -9 -13 141.808 198.185 1
0 13 9 79.7158 247.664 1
0 9 -13 126.711 191.313 2
0 9 -13 692.409 215.364 1
0 -9 13 920.777 232.489 1
0 -13 9 452.089 246.011 1
0 -13 -9 768.595 303.972 2
0 -13 9 345.344 294.392 2
0 -9 -13 492.721 189.643 2
9 0 -13 736.952 228.097 1
0 -9 13 455.953 254.134 2
13 0 -9 467.898 276.759 1
0 9 13 513.238 255.579 1
-9 0 13 375.961 223.023 4
9 0 13 709.199 355.692 4
13 0 9 165.275 246.546 4
9 -13 0 410.034 272.798 2
-13 0 9 495.198 178.891 4
-9 13 0 516.609 321.023 1
0 9 13 372.294 307.704 4
-9 0 -13 190.056 263.885 2
13 -9 0 409.51 276.931 2
9 13 0 527.608 206.542 3
0 9 -13 315.281 158.218 3
-13 -9 0 96.6028 172.995 3
-9 0 -13 421.795 285.107 3
0 13 -9 112.702 225.114 1
9 0 13 661.092 247.318 1
-13 9 0 177.15 291.205 1
-2 -9 -13 624.647 252.567 1
-13 9 -2 424.541 277.853 1
-9 -13 -2 795.055 268.31 3
-2 -9 -13 245.054 272.802 3
13 2 -9 314.337 203.748 1
-2 13 -9 459.018 272.386 1
9 13 -2 790.47 309.77 1
-2 9 13 421.524 168.236 2
-2 -13 9 456.636 276.172 1
9 -2 -13 776.589 251.902 1
-2 -9 -13 561.058 187.254 2
-2 -13 9 670.535 302.463 2
2 -13 -9 294.884 216.049 2
2 13 9 789.482 327.365 1
2 -9 13 460.693 261.445 2
2 -9 13 666.898 216.4 1
9 2 13 -143.213 252.64 4
9 -13 2 549.682 294.382 2
-9 13 2 570.184 332.462 1
-9 2 -13 432.526 243.395 2
-13 2 9 614.464 174.232 4
-2 9 13 97.6836 322.635 4
2 9 -13 750.537 229.825 1
-13 -9 2 365.242 195.64 3
13 -9 -2 43.3393 234.296 2
-2 9 13 521.709 214.703 1
2 9 -13 427.532 138.478 3
-9 -13 -4 1188.21 281.069 3
-4 -13 9 1439.53 320.886 1
-4 -9 -13 1351.54 389.217 3
-13 9 -4 1643.95 410.096 1
9 13 -4 1040.11 349.563 1
-13 4 9 1478.71 360.922 1
9 -13 4 900.339 303.725 2
-4 -9 -13 1146.76 261.567 2
-4 9 13 952.665 285.905 1
-4 -13 9 1400.06 397.548 2
-4 9 13 1432.48 264.245 2
-4 13 -9 1569.59 390.437 1
4 13 9 665.261 284.604 1
9 -4 -13 1298.74 280.12 1
4 9 -13 1388.71 262.778 1
4 -13 -9 661.233 259.377 2
-9 4 -13 1017.76 308.91 2
4 -9 13 1599.48 377.874 2
-9 13 4 559.563 307.794 1
9 4 13 859.212 351.922 4
-4 9 13 1950.92 441.028 4
4 -9 13 1339.15 291.809 1
-13 -4 -9 1064.96 357.204 3
13 -9 -4 1216.13 374.153 2
-9 -13 -6 -151.346 234.884 3
-6 -9 -13 -87.5969 256.368 3
6 -9 13 -65.6497 188.541 1
-9 13 6 183.806 257.549 1
9 -6 -13 182.953 210.099 1
9 13 -6 293.87 278.685 1
-6 -13 9 109.428 259.197 2
-6 13 -9 -55.4526 257.506 1
-9 6 -13 -101.383 221.377 1
6 13 9 288.38 286.146 1
-13 9 -6 -381.014 343.084 1
6 9 -13 120.039 168.7 1
-9 -6 13 112.805 91.6584 3
-6 9 13 278.876 194.151 2
-6 9 13 5.23073 224.964 1
9 -6 -13 767.075 299.368 4
6 -13 -9 8.71616 215.96 2
-13 6 9 309.892 247.926 1
6 -9 13 443.962 261.891 2
9 6 13 739.708 373.946 4
13 -9 -6 -161.627 189.125 4
-6 9 13 324.527 263.234 4
9 -13 6 113.345 261.229 2
-13 -6 -9 -221.844 339.203 3
13 -9 -6 351.119 248.649 2
9 8 13 177.759 255.351 1
-8 -9 -13 353.911 342.609 3
-9 -13 -8 58.5029 239.035 3
-13 8 9 334.278 263.131 1
9 -13 8 316.15 265.27 2
8 9 -13 346.94 197.225 1
-8 -13 9 344.029 232.187 2
9 13 -8 -90.6173 281.836 1
8 13 9 -177.093 260.466 1
13 -9 -8 331.275 222.578 4
8 -9 13 605.174 299.493 1
-8 9 13 -136.448 251.56 2
-13 9 -8 10.6413 269.014 1
-9 13 8 50.4784 299.704 1
8 -9 13 417.225 298.991 2
-9 8 -13 -4.3403 247.361 1
8 -13 -9 548.842 260.42 2
9 8 13 -37.4415 299.182 4
-8 9 13 -13.0849 256.951 4
13 -8 9 418.634 246.606 2
-13 -8 -9 206.899 265.04 3
-9 -8 13 136.063 56.774 3
-8 9 13 -55.1337 243.49 1
-8 13 -9 809.538 373.075 1
9 -8 -13 242.42 192.006 1
10 9 -13 2624.14 416.926 1
9 10 13 2141.15 447.503 1
10 13 9 2318.62 492.257 1
-10 -9 -13 2889.07 577.978 3
9 13 -10 2153.41 417.913 1
-10 13 -9 2632.21 550.462 1
-9 13 10 2827.47 537.731 1
-10 9 13 3086.2 540.843 1
-9 -13 -10 2977.89 567.382 3
-10 9 13 3228.45 505.591 2
13 -9 -10 2523.15 401.593 4
9 -10 -13 3346.47 502.115 2
-13 9 -10 3276.19 570.258 1
-13 10 9 3236.89 582.858 1
9 -13 10 3458.38 604.504 2
10 -13 -9 3536.86 575.96 2
9 10 13 2761.59 555.479 4
10 -9 13 3421.08 570.641 2
13 9 10 2255.74 500.113 4
13 -10 9 2890.54 569.04 2
-13 -10 -9 1836.6 444.647 3
-9 10 -13 2883.12 508.096 1
-7 -13 -10 844.351 308.218 3
10 13 7 460.522 290.072 1
7 10 13 306.026 245.523 1
-10 13 -7 956.91 333.11 1
-7 -10 13 492.772 259.076 2
13 -7 -10 611.207 250.736 4
7 10 13 727.308 331.57 4
7 13 -10 490.335 299.804 1
-7 13 10 516.776 268.936 1
10 -13 -7 1019.07 338.184 2
-7 10 -13 606.646 276.214 1
-10 7 13 632.898 265.459 2
7 -13 10 281.551 261.308 2
-10 7 13 545.77 311.293 4
-13 10 7 686.263 392.88 1
-10 7 13 772.125 276.859 1
13 7 10 999.492 359.942 4
7 -10 -13 301.103 206.372 2
13 -10 7 643.614 315.419 2
10 -7 13 716.012 313.459 2
-13 7 -10 700.116 303.389 1
-13 -10 -7 584.341 330.478 3
-10 -7 -13 569.255 383.2 3
-13 10 5 1213.67 382.354 1
-10 -13 5 1408.97 196.174 3
-10 13 -5 1883.84 483.317 1
-5 -13 -10 1759.76 406.638 3
10 13 5 1580.56 406.703 1
-5 10 -13 1773.65 354.068 1
-5 -13 -10 1435.82 366.468 2
-5 13 10 1773.17 461.679 1
10 -5 13 1902.36 378.467 1
-5 -10 13 1725.7 365.242 2
5 10 13 1161.23 327.321 1
-5 13 10 1627.01 383.08 2
5 13 -10 1434.02 350.375 1
-10 5 13 1571.61 356.542 1
5 -10 -13 1408.13 334.739 1
5 -13 10 1818.3 416.576 2
5 -10 -13 1538.54 318.935 2
-10 5 13 2199.38 376.24 2
10 -13 -5 1342.25 371.98 2
13 5 10 1687.96 382.304 4
-10 5 13 1592.32 339.516 4
5 10 13 1499.87 423.723 4
13 -10 5 1890.66 445.314 2
-13 -10 -5 1553.47 367.753 3
-10 -5 -13 1837.48 445.181 3
-3 -10 13 2467.23 328.291 1
-10 -13 3 2392.72 305.176 3
10 13 3 2165.38 458.606 1
10 -13 -3 2008.59 458.922 2
-3 13 10 2746.08 464.819 2
3 10 13 1798.23 450.363 4
-3 -13 -10 2272.76 385.784 2
-3 -10 13 1571.93 345.115 2
3 -10 -13 2048.87 384.344 1
3 10 13 1280.33 312.557 1
-10 3 13 2495.23 378.043 1
3 -13 10 2854.69 510.237 2
10 3 -13 2883.59 361.607 1
3 -10 -13 2500.44 366.214 2
13 3 10 1514.49 361.565 4
3 13 -10 2142.7 413.858 1
-13 10 3 2284.42 533.093 1
-10 3 13 1892.36 358.694 4
-13 -10 -3 2491.6 431.837 4
-3 10 -13 2658.5 404.666 1
10 -3 13 2262.15 387.732 1
13 -10 3 1870.08 424.954 2
-10 3 13 3251.76 411.733 2
-10 -3 -13 1909.56 438.045 3
-13 -10 -3 1750.77 364.608 3
-3 13 10 2793.78 466.941 1
-10 13 -3 2017.99 493.139 1
-10 -13 1 462.097 197.472 3
10 13 1 336.427 259.712 1
-13 -10 -1 644.155 311.212 4
-1 13 10 261.191 210.629 2
-1 -10 13 661.555 221.079 1
1 -10 -13 121.092 192.106 1
-1 10 -13 220.926 210.858 2
10 -1 13 -447.078 304.136 4
-10 1 13 156.113 218.295 4
-1 10 -13 464.417 214.24 1
-1 -13 -10 494.272 243.015 2
-1 -10 13 231.576 228.295 2
1 -13 10 579.492 254.591 1
13 1 10 -163.864 258.627 4
1 -13 10 545.775 281.489 2
1 -10 -13 111.849 157.206 2
1 10 13 395.681 277.256 4
1 10 13 439.686 225.065 1
-13 -1 10 447.009 184.044 4
10 -13 -1 413.61 308.256 2
-13 10 1 225.471 307.115 1
-1 13 10 336.468 236.532 1
1 13 -10 244.472 239.675 1
10 -1 13 488.189 255.803 1
13 -10 1 417.412 244.93 2
-10 -1 -13 121.324 264.346 2
-10 -1 -13 -395.527 301.676 3
13 -1 -10 820.947 297.124 1
-13 -10 -1 92.2507 172.845 3
-10 13 -1 -187.75 342.601 1
10 1 -13 272.116 179.943 1
-10 -13 -1 134.518 181.925 3
-1 13 -10 405.836 251.739 1
10 1 13 138.836 194.826 1
-1 10 13 346.95 221.652 1
-1 -10 -13 152.306 189.452 1
10 13 -1 621.842 291.899 1
1 10 -13 76.7144 212.644 2
10 1 13 323.971 267.885 4
10 -1 -13 335.135 213.295 1
-1 -13 10 509.122 230.929 1
1 10 -13 257.433 119.366 3
-1 -10 -13 106.568 145.16 2
-1 -13 10 438.664 287.083 2
1 -10 13 300.898 198.646 1
1 -13 -10 557.725 246.715 2
1 -10 13 274.475 207.256 2
1 13 10 227.644 306.621 1
13 -1 10 696.166 283.413 4
-13 1 10 416.85 153.696 4
10 -13 1 170.582 254.475 2
13 1 -10 594.818 230.87 1
-10 1 -13 174.149 231.394 2
-13 10 -1 106.44 293.23 1
-1 10 13 288.725 299.789 4
13 -10 -1 491.929 281.21 2
-10 13 1 724.056 410.665 1
-13 -10 1 455.025 225.152 3
1 10 -13 461.96 179.067 1
-10 -13 -3 2104.34 378.122 3
-3 10 13 2414.51 396.038 1
-13 3 10 2056.98 273.436 4
-3 -10 -13 2331.91 478.424 3
10 13 -3 2259.52 438.12 1
-3 -13 10 2436.71 403.732 1
-3 10 13 2337.01 345.928 2
-3 -10 -13 1566.36 291.186 2
-3 13 -10 2235.28 421.319 1
-3 -13 10 1686.12 416.244 2
3 10 -13 2402.58 349.444 1
13 3 -10 1596.75 353.817 1
3 13 10 1735.32 404.041 1
3 -13 -10 2354.32 400.116 2
3 -10 13 2458.95 448.553 2
10 3 13 1588.43 458.995 4
10 -3 -13 2818.92 397.793 1
10 -13 3 2805.6 519.944 2
-10 3 -13 1787.84 389.221 2
3 -10 13 2016.36 333.667 1
13 -10 -3 2347.66 483.674 2
-3 10 13 2231.12 453.295 4
-10 13 3 1587.08 425.092 1
3 10 -13 1784.66 188.254 3
-13 10 -3 2195.77 482.917 1
-13 -10 3 2399.91 331.684 3
-13 3 10 1355.05 361.526 2
-10 -13 -5 1371.34 334.619 3
-5 -10 -13 1896.74 434.982 3
10 13 -5 1484.3 394.778 1
-5 -10 -13 1524.35 292.237 2
5 -10 13 2053.94 431.915 2
-5 -13 10 1871.14 412.171 2
-13 5 10 1387.95 362.157 1
-5 10 13 1590.01 312.402 2
5 13 10 912.08 320.006 1
-5 10 13 1857.75 396.648 1
10 -5 -13 2181.64 390.439 1
5 10 -13 1847.91 334.485 1
-5 13 -10 1443.6 370.308 1
5 -13 -10 1474.86 347.355 2
5 -10 13 1279.51 309.809 1
10 -13 5 1404.98 399.689 2
10 5 13 1322.62 398.94 4
-5 10 13 1717.93 433.522 4
-10 13 5 1131.88 394.765 1
-13 -10 5 1687.71 266.639 3
13 -10 -5 951.896 312.155 2
-13 -5 -10 2154 489.952 3
-13 10 -5 2191.47 492.856 1
-10 -13 -7 582.318 340.116 3
-7 -10 -13 163.184 261.971 3
7 -10 13 1145.78 312.871 1
-10 -7 13 493.859 136.825 3
10 13 -7 437.844 284.183 1
-13 10 -7 802.973 351.146 1
10 -7 -13 421.635 244.982 1
10 -7 -13 991.657 361.991 4
-7 -13 10 1047.22 331.122 2
7 13 10 376.388 321.42 1
7 10 -13 956.104 258.916 1
-13 7 10 462.861 267.801 1
-7 10 13 747.686 267.105 2
-10 7 -13 508.213 250.774 1
7 -13 -10 1279.72 351.819 2
7 -10 13 761.77 288.527 2
10 -13 7 355.288 291.647 2
10 7 13 1045.82 383.021 4
13 -10 -7 326.094 204.304 4
-7 10 13 879.224 314.941 1
-10 13 7 527.247 278.724 1
13 -10 -7 473.262 285.072 2
-7 13 -10 488.014 321.524 1
13 -7 10 243.788 292.563 2
-13 -7 -10 412.874 334.046 3
10 9 13 2924.39 482.574 1
-9 -10 -13 2234.64 542.432 3
-10 -13 -9 2827.16 537.476 3
-9 10 13 2429.3 463.153 1
9 10 -13 2490.56 393.273 1
10 13 -9 2789.05 492.223 1
9 13 10 1917.98 501.324 1
-9 -13 10 2108.12 446.625 2
9 -13 -10 3181.68 522.925 2
-9 13 -10 2572.88 554.611 1
-13 9 10 3106.62 568.103 1
-13 10 -9 3538.35 611.84 1
13 -10 -9 2789.6 440.164 4
-9 10 13 2832.73 447.707 2
-10 9 -13 3291.99 534.697 1
10 -13 9 3469.43 602.895 2
9 -10 13 3723.87 597.112 2
10 9 13 2654.35 532.034 4
-10 13 9 2323.23 517.705 1
13 -9 10 2921.22 541.966 2
13 -10 -9 2682.18 489.675 2
-13 -9 -10 2957.25 549.475 3
-11 -10 -13 906.996 410.72 3
-10 -13 -11 746.303 387.95 3
11 10 -13 695.807 276.701 1
10 11 13 304.973 318.768 1
11 13 10 1086.38 353.489 1
10 13 -11 763.172 302.891 1
11 -13 -10 1400.04 401.653 2
13 -10 -11 672.854 310.99 4
-11 10 13 727.564 400.607 1
-11 13 -10 793.255 358.165 1
-13 11 10 1072.46 417.268 1
-13 10 -11 522.677 388.992 1
10 -13 11 1181.17 410.118 2
10 11 13 -137.184 375.198 4
11 -10 13 908.967 386.402 2
13 10 11 1165.08 432.175 4
13 -11 10 1112.79 429.027 2
10 -11 -13 1551.07 366.863 2
-10 13 11 1078.88 439.279 1
-10 11 -13 1526.58 398.653 1
-13 -11 -10 922.43 351.857 3
-11 8 13 1032.71 349.963 1
-8 -13 -11 1463.27 446.993 3
11 13 8 1303.33 426.088 1
8 -11 -13 910.542 305.535 2
8 11 13 1193.84 350.763 1
-8 -11 13 735.522 289.669 2
8 13 -11 1300.05 351.157 1
-11 13 -8 1291.88 443.614 1
-13 8 -11 1154.22 386.208 1
-11 8 13 1071.5 350.74 2
-13 11 8 672.339 355.668 1
-8 11 -13 1615.72 383.066 1
-8 13 11 1358.44 425.497 1
13 -8 -11 503.224 264.652 4
8 -13 11 1127.36 404.014 2
11 -13 -8 1040.68 361.415 2
13 8 11 857.499 358.508 4
8 11 13 281.464 330.787 4
13 -11 8 1369.72 437.278 2
11 -8 13 1307.93 376.631 2
-13 -11 -8 771.122 382.056 3
-11 -8 -13 1455.36 418.291 3
-11 -13 6 740.591 150.393 3
11 13 6 589.987 317.1 1
-6 -13 -11 900.677 402.903 3
-6 -13 -11 536.339 225.19 2
-6 11 -13 1065.5 347.531 1
-6 -11 13 1441.07 355.344 2
6 11 13 616.665 322.314 1
-11 13 -6 1066.47 328.584 1
-6 13 11 657.586 314.585 1
-6 13 11 700.53 326.419 2
-11 6 13 650.57 290.894 2
-11 6 13 845.465 290.952 1
13 -6 -11 1139.05 273.587 4
6 13 -11 1365.44 373.304 1
-13 11 6 658.107 359.469 1
6 11 13 525.335 373.145 4
-13 6 -11 1027.4 336.531 1
6 -13 11 1120.82 382.409 2
11 -13 -6 1167.03 359.218 2
6 -11 -13 949.242 302.601 2
13 6 11 975.357 371.577 4
13 -11 6 1080.03 381.698 2
11 -6 13 1118.59 362.28 2
-11 -6 -13 1173 368.855 3
-11 6 13 978.703 310.073 4
-13 -11 -6 1449.76 378.785 3
-11 -13 4 655.43 170.08 3
11 13 4 863.538 371.161 1
-4 13 11 937.792 343.421 1
-11 13 -4 957.39 426.798 1
-4 -13 -11 870.255 297.812 2
-4 13 11 416.712 283.45 2
11 -13 -4 1028.19 394.232 2
-4 -11 13 713.668 297.363 2
-11 4 13 207.38 225.543 4
13 4 11 772.601 327.7 4
11 4 -13 1195.16 271.603 1
4 11 13 535.385 280.22 1
4 -13 11 1012.6 371.368 2
-13 11 4 1123.11 391.599 1
4 13 -11 602.388 287.726 1
-11 4 13 418.701 237.585 1
4 -11 -13 1550.04 335.835 2
-4 11 -13 704.216 295.034 1
-11 4 13 1086.02 297.515 2
4 11 13 611.46 350.509 4
13 -11 4 346.27 315.75 2
-11 -4 -13 354.258 257.898 3
-13 -11 -4 1023.43 339.488 3
-11 -13 2 581.939 196.605 3
11 13 2 204.431 287.133 1
-2 -11 13 1377.44 287.077 1
-11 13 -2 973.747 350.419 1
-2 13 11 929.668 335.83 2
2 -11 -13 899.52 301.687 1
-2 -13 -11 831.313 278.195 2
11 -2 13 1052.23 343.026 1
-2 -11 13 492.518 275.398 2
-2 11 -13 641.234 231.358 1
-11 2 13 1003.32 246.115 2
2 -13 11 709.64 270.265 1
2 -13 11 201.406 251.473 2
2 -11 -13 596.126 234.217 2
2 11 13 430.073 241.532 1
-13 11 2 778.575 363.016 1
11 2 -13 448.252 213.083 1
13 2 11 778.422 327.862 4
-11 2 13 865.434 298.001 4
2 13 -11 531.771 263.822 1
2 11 13 627.1 335.969 4
13 -11 2 542.445 296.95 2
-2 13 11 738.005 279.872 1
-11 -2 -13 495.297 352.46 3
-13 -11 -2 854.004 260.669 3
11 -13 -2 515.424 261.966 2
-11 -13 0 1055.33 255.936 3
11 13 0 495.512 260.46 1
-11 13 0 1604.34 444.919 1
0 11 -13 577.514 227.394 1
0 13 11 924.575 335.858 1
13 0 -11 1170.11 319.813 1
0 -11 -13 799.518 282.141 1
-11 0 13 823.955 300.193 4
0 -11 13 1202.38 272.703 1
0 -13 11 1166.94 305.411 1
0 -13 -11 827.891 263.144 2
0 -11 -13 919.369 246.057 2
0 -13 11 1253.31 361.373 2
0 -11 13 1077.43 330.198 2
-13 11 0 680.725 390.475 1
11 0 13 888.188 359.577 4
13 0 11 696.252 304.662 4
-13 0 11 714.136 198.256 4
0 11 13 491.881 255.41 1
11 -13 0 1384.16 390.265 2
11 0 -13 1358.37 296.971 1
11 0 13 1467.43 331.437 1
0 11 13 690.695 332.174 4
13 -11 0 1124.77 355.811 2
-11 0 -13 937.127 302.22 2
-11 0 -13 958.993 373.505 3
-13 -11 0 524.031 231.72 3
0 13 -11 550.363 268.489 1
-11 -13 -2 698.238 263.055 3
-11 13 2 777.951 401.397 1
11 -2 -13 1121.72 286.743 1
11 13 -2 89.9537 258.016 1
-2 11 13 299.806 171.878 2
-2 -13 11 1181.88 299.276 1
-2 13 -11 712.413 316.306 1
13 2 -11 448.829 239.868 1
-2 -11 -13 708.974 229.372 2
-2 -13 11 1592.47 418.162 2
-13 -11 2 645.346 220.641 3
2 -13 -11 1217.76 313.803 2
2 -11 13 729.694 243.324 1
2 -11 13 419.952 238.156 2
2 13 11 342.915 250.119 1
11 2 13 698.449 342.477 4
-13 11 -2 806.371 366.642 1
-13 2 11 905.883 219.77 4
11 -13 2 771.154 306.098 2
-2 11 13 433.207 330.158 4
2 11 -13 831.587 283.238 1
13 -11 -2 968.252 384.984 2
2 11 -13 481.301 132.697 3
-2 11 13 276.862 225.205 1
4 -11 13 607.513 240.597 1
-11 -13 -4 683.066 257.736 3
-4 -13 11 672.535 254.545 1
11 13 -4 1038.96 362.019 1
-4 -11 -13 695.246 328.282 3
-13 11 -4 567.451 321.846 1
-4 11 13 758.375 295.214 1
-4 -11 -13 533.78 248.987 2
-4 11 13 339.083 203.002 2
-4 -13 11 1057.44 349.97 2
4 13 11 717.391 304.088 1
-4 13 -11 1029.46 363.622 1
-13 4 11 174.182 235.441 1
4 -13 -11 853.512 287.637 2
4 11 -13 592.669 260.739 1
4 -11 13 533.037 302.198 2
11 -4 -13 653.355 273.244 1
11 4 13 819.96 331.732 4
11 -13 4 1147.12 370.727 2
-13 4 11 370.139 196.153 4
-13 4 11 1114.27 347.078 2
13 -11 -4 669.258 334.851 2
-13 -4 -11 506.832 306.342 3
-13 -11 4 505.43 199.313 3
-11 13 4 564.586 320.638 1
-11 -13 -6 345.681 255.595 3
-6 -11 -13 782.641 314.923 3
11 13 -6 651.747 294.943 1
-13 6 11 640.487 295.116 1
-6 -13 11 1162.28 369.516 2
6 13 11 978.284 381.157 1
6 -13 -11 311.504 223.494 2
-6 11 13 1528.38 357.111 2
11 -6 -13 520.334 242.561 1
6 11 -13 922.483 267.972 1
-6 11 13 1498.03 379.563 1
-11 6 -13 1349.74 367.272 1
11 6 13 992.777 353.539 4
6 -11 13 408.656 266.196 2
11 -13 6 681.359 311.271 2
-6 13 -11 1233.3 338.092 1
13 -11 -6 1164.64 398.316 2
-13 11 -6 1112.87 433.794 1
6 -11 13 1533.31 369.699 1
-13 -11 6 1082.9 204.071 3
-13 -6 -11 1480.33 420.941 3
-11 13 6 736.627 384.801 1
-11 -13 -8 562.312 286.279 3
-13 11 -8 904.354 407.083 1
-8 -11 -13 580.58 309.114 3
-13 -11 8 1311.05 199.064 3
11 13 -8 940.359 348.578 1
-13 8 11 1548.63 447.272 1
-8 13 -11 1470.96 429.376 1
-8 -13 11 774.705 327.878 2
8 13 11 858.432 379.037 1
13 -11 -8 690.454 330.442 2
8 -13 -11 1084.24 341.188 2
8 11 -13 917.134 278.58 1
-11 8 -13 1505.6 404.761 1
-8 11 13 810.991 329.937 2
-11 13 8 1893.35 532.732 1
8 -11 13 389.103 306.332 2
11 -13 8 804.256 342.402 2
-8 11 13 1418.18 384.965 1
11 8 13 1635.02 481.801 4
13 -11 -8 529.276 235.274 4
13 -8 11 1006.18 368.847 2
-13 -8 -11 987.125 440.498 3
-10 -11 -13 1106.94 411.115 3
11 10 13 1228.69 369.473 1
-11 13 10 1006.42 413.838 1
-11 -13 -10 228.811 304.425 3
13 -11 -10 1375.58 393.886 2
-10 11 13 1308.72 413.393 1
10 13 11 1086.55 397.922 1
11 13 -10 1191.37 394.709 1
10 11 -13 1328.61 362.814 1
-10 -13 11 941.93 337.203 2
-13 11 -10 810.488 407.848 1
-11 10 -13 956.689 370.914 1
-10 13 -11 1421.48 446.784 1
-13 10 11 948.891 397.679 1
11 -13 10 1456.43 447.429 2
10 -11 13 1810.48 446.108 2
10 -13 -11 1170.06 373.203 2
11 10 13 1094.02 430.567 4
13 -10 11 831.25 390.439 2
-13 -11 10 998.85 147.155 3
-13 -10 -11 410.188 330.672 3
13 12 -9 2279.62 453.075 1
-9 -13 -12 2788.73 565.431 3
12 13 9 2045.55 498.982 1
9 12 13 1814.54 441.815 1
-13 9 -12 1848.52 475.539 1
-9 -12 13 2474.34 476.991 2
12 -9 13 4461.01 669.951 2
9 13 -12 2842.12 476.375 1
-13 12 9 2610.18 595.531 1
-9 12 -13 3120.43 585.17 1
9 -13 12 3916.63 657.113 2
9 -12 -13 4021.04 572.918 2
-12 13 -9 3052.99 618.826 1
-12 9 13 2906.02 513.786 1
13 9 12 2799.53 550.164 4
13 -12 9 3475.8 623.256 2
-9 13 12 2927.2 591.073 1
9 12 13 2405.63 594.186 4
12 -13 -9 3825.05 606.859 2
-12 -9 -13 2479.89 573.879 3
-13 -12 -9 2985.15 555.082 3
13 -9 -12 3343.56 513.336 4
13 12 -7 700.235 322.185 1
-12 -13 7 852.709 157.539 3
12 13 7 742.834 345.041 1
-7 -12 13 920.602 303.751 2
7 12 13 1049.66 358.905 1
-12 7 13 672.301 270.23 1
-7 12 -13 963.698 362.035 1
7 13 -12 907.365 303.399 1
7 12 13 710.359 392.229 4
-13 12 7 40.417 314.92 1
-7 13 12 73.5363 337.435 1
-12 13 -7 417.341 322.201 1
13 -7 -12 537.634 224.313 4
7 -13 12 368.575 308.557 2
-12 7 13 962.214 345.105 2
7 -12 -13 727.907 300.229 2
13 7 12 719.202 354.79 4
-7 -13 -12 1048.28 393.787 3
12 -13 -7 1334.75 403.347 2
-12 7 13 915.341 290.895 4
13 -12 7 890.846 374.418 2
12 -7 13 1063.22 364.968 2
-13 7 -12 1053.81 363.027 1
-12 -7 -13 755.099 364.087 3
-13 -12 -7 598.919 287.243 3
-12 -13 5 559.74 148.146 3
12 13 5 814.341 330.695 1
-5 -13 -12 450.735 286.589 3
-12 5 13 467.661 244.83 1
-5 -13 -12 483.413 276.659 2
-5 13 12 504.713 299.479 1
-5 -12 13 208.167 225.692 2
-5 13 12 1101.59 322.315 2
5 -12 -13 818.766 268.44 2
5 12 13 247.689 260.623 1
-12 13 -5 1131.69 395.858 1
-13 12 5 126.773 350.111 1
5 13 -12 -96.124 220.591 1
5 -13 12 904.558 326.028 2
13 5 12 472.861 295.391 4
-12 5 13 465.495 268.431 2
-12 5 13 270.541 204.762 4
12 -13 -5 373.811 268.856 2
13 -12 5 117.466 282.636 2
5 12 13 -180.83 317.766 4
-5 12 -13 463.862 266.954 1
-12 -5 -13 649.854 367.854 3
-13 -12 -5 737.731 314.9 3
12 13 3 2114.1 470.548 1
-3 -12 13 3414.79 418.154 1
-3 13 12 3294.44 482.857 2
-3 -13 -12 3520 456.86 2
-3 -12 13 2901.9 465.067 2
-12 13 -3 2843.7 597.091 1
12 3 -13 3154.48 439.326 1
-13 12 3 2505.48 565.296 1
3 12 13 2476.98 442.201 1
3 -13 12 2455.28 502.068 2
-3 12 -13 3145.39 463.983 1
3 -12 -13 2593.28 397.158 2
3 13 -12 3192.79 468.217 1
13 3 12 3098.94 529.052 4
-12 3 13 2267.64 353.304 4
12 -13 -3 3067.37 522.787 2
13 -12 3 2282.81 500.804 2
3 12 13 3009.77 576.738 4
-12 3 13 3177.19 448.447 2
-12 -3 -13 2947.74 558.974 3
-13 -12 -3 3564.82 507.014 3
-3 13 12 3276.65 533.315 1
-12 -13 3 3157.39 370.455 3
12 13 1 3219.71 563.094 1
12 -1 13 3653.92 584.551 4
12 1 -13 3452.55 456.918 1
-1 -12 13 4522.61 482.234 1
-1 12 -13 3372.7 462.403 1
-12 1 13 3006.37 438.78 4
-12 13 -1 3738.44 625.668 1
-1 -13 -12 4008.53 477.506 2
1 -13 12 3942.78 488.717 1
-1 -12 13 2802.9 488.227 2
1 -12 -13 3293.35 410.822 2
1 -13 12 3470.37 554.243 2
-13 12 1 3160.63 584.65 1
-13 -1 12 3080.96 391.988 4
13 -1 -12 4027.52 510.2 1
13 1 12 3304.49 515.891 4
12 -13 -1 2870.74 534.546 2
-1 13 12 3233.27 506.612 1
13 -12 1 2624.77 511.469 2
1 12 13 2728.09 477.469 1
-12 -1 -13 3406.75 596.983 3
1 13 -12 2728.48 434.371 1
-13 -12 -1 3907.71 500.527 3
-12 -13 1 2946.36 395.621 3
12 13 -1 2170.13 466.951 1
-1 13 -12 3010.81 459.778 1
-12 13 1 3150.27 597.745 1
-1 -13 12 3466.24 460.874 1
-1 -12 -13 2889.36 386.762 2
13 1 -12 3289.42 471.199 1
1 -12 13 4338.82 484.984 1
-1 -13 12 3038.27 506.565 2
1 -13 -12 3045.86 435.956 2
12 -1 -13 3316.03 446.608 1
1 -12 13 2989.57 498.285 2
-13 12 -1 3391.51 615.311 1
-12 -1 13 2560.93 405.56 4
1 13 12 2497.05 458.549 1
13 -1 12 2589.32 480.054 4
12 1 13 3326 545.243 4
-13 1 12 3189.82 387.386 4
12 -13 1 3273.28 560.873 2
13 -12 -1 3363.81 567.068 2
-1 12 13 2477.5 432.671 1
1 12 -13 3420.1 465.013 1
-13 -12 1 2979.75 412.153 3
-12 -13 -1 3601.24 451.062 3
-12 -13 -3 3117.91 468.287 3
-3 12 13 2504.27 469.937 1
12 13 -3 2342.67 473.576 1
3 12 -13 3656.3 461.029 1
-3 -13 12 4616.32 502.476 1
-12 13 3 3341.66 646.986 1
-3 12 13 2802.2 401.456 2
-3 -12 -13 3218.04 426.199 2
-3 -13 12 3793.02 555.586 2
-3 13 -12 2734.61 462.169 1
3 13 12 2373.43 438.701 1
3 -13 -12 2402.58 397.135 2
3 -12 13 3116.88 532.98 2
3 -12 13 3107.24 449.139 1
-13 12 -3 2693.36 545.082 1
12 3 13 3321.21 545.551 4
13 3 -12 2461.01 408.172 1
-13 3 12 2419.39 338.676 4
12 -13 3 2763.09 512.758 2
3 12 -13 2074.07 189.375 3
-13 3 12 2682.71 458.727 2
-13 -3 -12 2303.43 481.047 3
13 -12 -3 2454.67 488.018 2
12 -3 -13 2893.88 433.231 1
-13 -12 3 2891.48 349.406 3
-12 -13 -5 983.176 307.796 3
12 13 -5 235.872 244.182 1
-5 -12 -13 487.967 328.395 3
-12 13 5 651.993 339.368 1
-5 -12 -13 1068.6 300.513 2
-5 12 13 506.261 312.704 1
-5 -13 12 201.651 224.335 2
-5 12 13 902.666 274.011 2
-13 12 -5 -130.405 288.081 1
5 13 12 402.089 248.394 1
-5 13 -12 648.821 297.521 1
-13 5 12 1097.6 336.625 1
5 12 -13 748.621 301.324 1
5 -12 13 826.954 326.684 2
5 -13 -12 893.954 315.655 2
12 5 13 608.533 372.16 4
5 -12 13 903.857 299.902 1
12 -13 5 874.248 362.368 2
-13 5 12 812.155 264.629 4
13 -12 -5 1069.13 366.659 2
-13 -5 -12 427.736 318.021 3
-13 -12 5 521.151 171.609 3
-12 -13 -7 1140.36 386.959 3
-7 13 -12 992.944 376.358 1
-7 -12 -13 495.176 275.899 3
12 13 -7 735.253 316.418 1
-12 13 7 591.789 295.539 1
-7 -13 12 542.152 275.756 2
7 13 12 1156.74 394.427 1
7 12 -13 570.369 255.687 1
-7 12 13 1496.8 366.842 2
-13 7 12 930.408 340.265 1
-7 12 13 542.197 340.055 1
-13 12 -7 535.194 341.385 1
12 -7 -13 694.207 295.27 4
7 -12 13 1525.73 451.838 2
13 -12 -7 632.839 264.399 4
7 -13 -12 929.789 334.419 2
12 7 13 857.809 416.82 4
12 -13 7 756.566 364.265 2
-12 7 -13 946.575 360.166 1
13 -12 -7 1208.42 370.124 2
13 -7 12 1433.78 400.34 2
-13 -7 -12 845.492 390.711 3
-13 -12 7 1052.43 187.842 3
13 12 9 1633.06 441.91 1
-12 -13 -9 2581.38 511.158 3
-9 -12 -13 2706.88 556.582 3
-12 9 -13 2891.46 537.394 1
12 13 -9 2922.41 503.586 1
-12 13 9 3008.78 590.589 1
9 13 12 3230.73 549.922 1
-9 -13 12 2666.41 528.926 2
9 12 -13 3393.76 514.475 1
-9 13 -12 3276.7 553.739 1
9 -12 13 3266.62 604.948 2
9 -13 -12 3766.82 558.418 2
12 -13 9 3416.59 629.172 2
12 9 13 2825.2 543.059 4
-13 -12 9 2586.56 234.698 3
-9 12 13 3259.47 592.379 1
13 -12 -9 2728.27 542.057 2
13 -9 12 2816.06 565.853 2
-13 9 12 3797.79 613.588 1
-13 12 -9 3427.87 644.643 1
-13 -9 -12 2508.12 541.304 3
-13 13 0 26406.8 1737.27 1
0 -13 -13 24104.2 1314.96 2
0 -13 13 28132.4 1578.07 2
0 13 13 21753.5 1420.09 1
13 0 -13 26962.8 1430.53 1
0 13 -13 24516.2 1384.78 1
13 -13 0 26644.7 1646.02 2
13 0 13 23858.2 1523.42 4
-13 0 13 25469.6 1307.93 4
-13 -13 0 25155.4 1337.16 3
13 13 0 23162.7 1555.36 1
0 -13 13 27554.4 1400.73 1
13 13 2 1446.19 412.187 1
13 13 -2 1204.76 378.098 1
-2 -13 13 2180.91 368.329 1
-2 13 13 1885.65 375.083 2
-13 -13 -2 2124.51 398.293 3
13 -2 -13 2351.94 419.563 1
-2 -13 -13 1948.31 351.094 2
-2 13 -13 1681.87 364.989 1
-2 -13 13 1569.3 384.058 2
-13 13 2 1174.46 434.267 1
2 -13 13 2333.74 424.412 1
-13 13 -2 1589.9 460.952 1
2 -13 13 2029.42 454.065 2
2 -13 -13 2159.8 358.881 2
2 13 13 1632.97 384.146 1
13 2 13 1682.65 412.978 4
-13 2 13 1772.45 344.815 4
13 -13 2 1467.25 414.635 2
13 -13 -2 2466.4 497.807 2
2 13 -13 1950.05 387.626 1
-13 -2 -13 1330.74 438.363 3
-13 2 13 1697.97 368.075 2
-2 13 13 1137.97 373.14 1
-13 -13 2 1695.99 305.975 3
13 2 -13 2070.42 368.737 1
-4 -13 13 567.25 261.49 1
13 13 4 368.584 300.117 1
13 13 -4 147.234 253.873 1
-13 4 13 459.587 249.989 1
-4 13 13 -77.3169 280.843 1
-4 13 13 654.209 251.658 2
-4 -13 -13 393.08 234.441 2
-4 -13 13 279.675 264.756 2
-13 13 4 34.089 323.556 1
4 13 13 468.483 281.638 1
-13 13 -4 229.916 299.229 1
4 -13 13 487.659 320.277 2
13 -13 -4 269.099 248.727 2
4 -13 -13 468.884 257.142 2
13 4 -13 559.072 261.778 1
13 4 13 -6.95987 267.885 4
-13 4 13 571.552 195.345 4
13 -13 4 290.353 294.604 2
-13 4 13 -198.772 266.172 2
4 13 -13 402.652 251.292 1
-13 -4 -13 -153.1 349.354 3
-4 13 -13 144.814 221.406 1
-13 -13 4 647.32 197.061 3
-13 -13 -4 202.525 224.027 3
13 13 6 1392.56 423.18 1
13 13 -6 2194.89 453.248 1
-13 -6 -13 2372.93 515.81 3
-6 -13 -13 1548.35 400.42 3
-6 -13 -13 1495.95 385.824 2
-6 -13 13 2476.96 469.335 2
-6 13 13 2799.53 481.113 2
6 13 13 1947.35 463.569 1
-13 13 6 2352.45 536.442 1
13 6 13 2888.41 560.369 4
-6 13 13 2632.08 490.513 1
6 13 -13 1950.64 402.197 1
-13 13 -6 2266.07 538.153 1
6 -13 13 3265.16 586.634 2
6 -13 -13 2040.62 424.582 2
13 -13 6 2822.54 557.198 2
-13 6 13 2389.21 403.726 4
13 -13 -6 2463.31 485.737 2
-13 6 13 2104.64 458.71 1
-6 13 -13 2800.16 503.762 1
-13 -13 6 2575.96 291.731 3
-13 -13 -6 3053.68 519.146 3
-13 -13 -8 418.189 330.608 3
-13 -13 8 160.858 109.038 3
13 13 8 449.669 330.582 1
13 13 -8 106.851 259.94 1
-13 8 13 -162.349 343.436 1
-8 -13 13 134.699 238.978 2
-13 8 -13 285.743 325.431 1
8 13 13 -299.507 326.6 1
-8 13 -13 3.17348 298.085 1
-13 13 8 193.716 333.119 1
8 13 -13 850.012 362.527 1
-8 13 13 472.399 378.334 1
13 -8 -13 -181.683 296.678 4
8 -13 13 533.935 365.363 2
-13 13 -8 862.854 443.069 1
8 -13 -13 164.131 293.208 2
-8 -13 -13 -217.25 324.827 3
13 8 13 236.109 305.646 4
13 -13 8 421.033 303.111 2
13 -13 -8 440.906 308.003 2
13 -8 13 7.19964 285.663 2
-13 -8 -13 -29.6618 323.706 3
0 0 -14 134.265 184.966 3
0 -14 0 309.897 200.794 2
0 0 14 307.561 231.084 4
0 14 0 538.29 279.66 1
0 0 14 474.487 192.777 3
1 1 14 1497.14 149.674 1
-1 -1 -14 1917.86 363.367 3
1 1 -14 2445.39 354.956 3
1 -1 -14 2843.5 425.136 3
-1 1 -14 2113.81 190.14 2
-1 -14 -1 2415.2 432.011 2
-1 -14 1 2036.99 389.249 2
1 -14 -1 1933 364.73 2
1 -14 1 3102.68 475.481 2
-1 -1 14 1839.87 172.921 2
1 14 1 2177.6 438.958 1
1 -1 14 2033.76 189.4 2
1 1 14 1660.2 391.607 4
-1 1 14 2642.32 473.361 4
1 14 -1 2423.96 467.014 1
14 -1 1 2328.39 217.309 4
-1 14 1 1507.63 408.006 1
-1 1 -14 2383.3 373.199 3
14 1 1 2210.72 217.477 4
-1 14 -1 2289.92 443.188 1
1 -1 14 3059.63 395.954 3
1 1 14 2626.44 386.874 3
-1 -1 14 2196.83 317.295 3
-1 1 14 2574.42 383.934 3
-2 0 -14 221.602 204.966 3
0 2 -14 24.9402 164.719 3
2 0 14 -42.2078 62.8407 1
2 0 14 490.736 319.708 4
0 -2 -14 492.604 262.497 3
2 14 0 38.0927 190.702 3
-2 -14 0 -23.4344 205.47 2
2 0 14 65.5751 68.6783 1
0 -14 -2 164.083 208.593 2
0 -14 2 37.7001 212.388 2
-2 0 -14 1.63351 77.3698 2
2 -14 0 -5.91816 212.696 2
-2 0 14 -276.318 281.222 4
2 14 0 -34.8903 277.652 1
-2 14 0 37.2863 279.852 1
14 -2 0 26.0865 68.8133 4
0 2 14 -248.816 286.729 4
0 -2 14 -69.1693 103.848 2
14 0 2 -1.3518 118.564 4
0 14 2 -136.665 251.341 1
0 14 -2 379.112 299.555 1
0 2 14 -34.0198 70.3845 1
0 -2 14 15.9718 144.392 3
2 0 14 165.534 162.335 3
0 2 14 -136.462 181.406 3
-2 0 14 96.2731 190.335 3
-2 2 14 101.418 169.943 3
-2 -2 -14 98.9941 198.556 3
-2 2 14 4.97633 62.2686 1
2 14 2 -183.095 188.586 3
2 2 -14 240.874 181.514 3
2 2 14 60.1473 97.5676 1
-2 -14 -2 -60.8437 206.196 2
-2 -14 2 232.565 238.246 2
2 -2 14 100.359 70.8529 1
-2 2 -14 -31.1345 115.622 2
-2 -2 14 -133.346 109.659 2
2 -14 -2 348.966 203.583 2
2 -14 2 -182.157 270.119 2
2 14 2 56.6902 246.099 1
2 14 -2 -53.9912 246.849 1
2 2 14 262.549 246.937 4
-2 14 2 164.327 281.765 1
14 2 2 -88.5791 134.77 4
2 -2 14 128.204 113.959 2
-2 14 -2 -283.872 257.194 1
-2 -2 14 101.639 141.916 3
-2 2 14 60.3117 265.261 4
-2 2 -14 -123.813 221.989 3
-3 -1 -14 4017.42 525.977 3
1 3 14 4862.71 347.955 1
-1 3 -14 5617.09 401.701 2
-3 -14 1 5732.96 640.127 2
-1 -14 -3 6034.61 630.199 2
1 -14 3 5359.12 625.763 2
3 -1 14 4952.94 343.282 1
3 -14 -1 5771.52 635.685 2
-1 -3 14 5884.79 411.754 2
-1 14 3 6319.93 701.462 1
-3 -1 -14 4503.46 343.051 2
3 14 1 5399.01 633.69 1
-14 -3 -1 5262.11 409.467 4
-3 1 14 5417.85 628.782 4
14 1 3 6221.3 446.609 4
1 14 -3 4990.83 607.593 1
-1 -3 14 5824.49 487.186 3
-1 3 -14 5370.5 531.344 3
-3 1 14 5690.21 541.657 3
3 14 1 6059.76 583.692 3
1 3 14 4786.91 637.669 4
-3 14 -1 4450.66 598.321 1
-3 -14 -1 6134.12 663.546 2
-3 -1 14 4349.48 297.02 2
-1 -14 3 5265.27 625.13 2
1 -14 -3 5415.32 596.195 2
-3 1 -14 5408.51 407.375 2
3 -14 1 5948.07 643.857 2
1 -3 14 5491.54 424.85 2
3 14 -1 4783.58 598.905 1
-1 3 14 4473.69 332.844 1
14 -1 3 5597.2 425.417 4
-14 -3 1 5636.72 353.625 4
1 14 3 5066.97 630.142 1
3 1 14 4837.37 638.592 4
-1 3 14 5232.38 633.302 4
3 1 14 6185.41 588.258 3
-1 14 -3 5774.57 640.668 1
-3 1 -14 5140.97 569.017 3
-3 -1 14 5235.73 470.749 3
-1 3 14 5720.69 593.414 3
1 3 -14 6610.5 556.891 3
-1 -3 -14 5419.32 604.604 3
3 14 -1 6116.39 539.401 3
1 14 3 6481.73 673 3
-3 14 1 4643.99 612.464 1
-3 -3 -14 -58.5486 231.635 3
-3 3 14 158.886 195.342 3
-3 14 -3 237.348 296.19 1
3 14 3 313.532 251.75 3
3 14 -3 -38.7171 147.773 3
3 3 14 58.2586 116.576 1
-3 -14 -3 -181.873 212.854 2
-3 -14 3 112.15 237.41 2
3 -3 -14 65.5682 89.5005 1
-3 -3 14 -7.14212 113.177 2
3 -3 14 309.972 118.872 1
14 3 3 -36.006 160.804 4
-3 3 -14 557.115 192.025 2
3 14 3 61.7665 229.12 1
3 -14 -3 -30.4628 211.456 2
3 -14 3 371.075 235.544 2
3 14 -3 168.104 245.861 1
3 3 14 -178.401 248.889 4
-3 3 14 15.3827 244.657 4
-14 -3 3 172.005 87.2074 4
3 -3 14 220.498 138.636 2
-3 -3 -14 -27.5164 86.1213 2
-3 -3 14 121.534 131.125 3
-3 3 -14 413.997 231.068 3
-3 14 3 270.876 306.041 1
-3 3 14 39.9 110.716 1
4 14 2 818.774 268.083 3
-4 2 14 1100.31 274.575 3
-4 14 -2 1597.97 421.37 1
2 -4 -14 1304.7 193.233 1
4 -2 14 1653 226.564 1
-4 2 14 1438.96 363.077 4
-4 -14 2 1383.71 339.327 2
-2 -14 -4 1320.62 339.152 2
-2 4 -14 1819.91 272.016 2
-4 2 14 1066.21 154.693 1
2 4 14 853.71 181.471 1
-2 -4 14 1293.54 222.181 2
4 14 2 1524.11 391.58 1
2 -14 4 1270.66 332.849 2
4 -14 -2 486.414 231.022 2
2 14 -4 1624.24 386.586 1
-14 -4 -2 1385.38 265.911 4
2 4 14 770.794 316.44 4
14 2 4 1408.99 239.547 4
-4 -2 -14 1136.86 184.476 2
-2 14 4 1325.85 362.827 1
-2 -4 14 1321.24 234.913 3
-14 4 2 1103.47 320.04 1
-2 4 -14 1796.73 324.897 3
-4 -2 -14 722.749 292.266 3
0 4 -14 508.658 212.139 3
-4 0 14 504.217 187.054 3
4 14 0 774.774 277.092 3
0 -4 -14 848.757 271.88 3
-4 14 0 667.483 318.397 1
-4 0 14 364.364 90.4473 2
0 4 -14 726.935 187.326 2
-4 -14 0 279.538 227.119 2
0 4 14 422.402 150.049 1
-14 4 0 345.561 279.698 1
0 -14 -4 432.634 235.964 2
0 -14 4 509.438 275.723 2
4 14 0 -39.4652 235.014 1
4 -14 0 153.033 237.312 2
0 -4 14 480.072 168.15 2
-4 0 -14 802.768 202.772 2
-4 0 14 534.767 261.214 4
4 0 14 266.156 248.903 4
0 14 4 281.136 229.257 1
14 0 4 459.843 166.583 4
0 4 14 447.295 287.104 4
-14 -4 0 550.666 167.385 4
0 14 -4 920.89 356.353 1
4 0 14 579.826 171.371 1
-4 0 -14 -20.9045 193.971 3
4 14 -2 1471.48 272.392 3
-2 -4 -14 418.684 244.937 3
2 4 -14 1710.98 282.889 3
-4 14 2 1021.73 387.718 1
-2 -4 -14 931.807 118.342 2
-4 -2 14 1453.28 191.286 2
-4 -14 -2 1465.59 382.924 2
-14 4 -2 1355.36 338.385 1
-2 4 14 1549.46 226.596 1
-2 -14 4 1902.81 401.024 2
4 14 -2 629.88 299.393 1
2 -14 -4 1282.1 326.004 2
4 -14 2 1303.8 370.22 2
-4 2 -14 1381.28 267.539 2
2 14 4 1269.15 327.755 1
4 -2 -14 1026.85 150.77 1
4 2 14 1209.8 347.775 4
2 -4 14 1398.88 246.496 2
-2 4 14 1220.55 341.817 4
-14 -4 2 1359.26 196.725 4
2 -4 14 1342.55 171.945 1
-4 2 -14 1751.32 367.382 3
-2 14 -4 1018.74 299.377 1
-4 -2 14 1201.21 229.036 3
4 14 -4 6644.08 713.383 1
4 4 -14 4863.89 306.278 1
4 -4 -14 7088.27 458.839 1
-4 -14 -4 7635.3 733.621 2
-4 -4 14 7460.47 500.054 2
-4 -14 4 6237.19 667.56 2
-4 4 14 4861.89 302.551 2
-4 4 -14 7940.75 602.567 2
-14 4 4 6805.63 699.436 1
4 -14 4 5812.19 674.272 2
4 -14 -4 7299.15 700.253 2
-4 14 4 6439.52 704.897 1
4 -4 14 7494.27 572.516 2
-4 14 -4 7382.42 745.319 1
-14 -4 -4 5695.82 534.97 4
4 4 14 6396.45 752.68 4
14 -4 -4 5287.27 307.283 4
-4 4 14 6440.81 675.757 4
-14 4 -4 6710.87 704.67 1
4 -4 14 7555.58 486.968 1
14 4 4 6673.64 536.054 4
-4 4 -14 6716.18 616.476 3
-4 -4 14 7338.71 489.825 3
-4 -4 -14 5845.53 680.079 3
4 14 -4 7618.58 516.485 3
4 4 14 6319.29 484.862 1
-4 4 14 6769.44 478.749 1
4 14 4 6742.3 725.848 1
5 14 3 990.999 311.099 3
-5 3 14 1649.07 330.007 3
5 3 -14 1280.1 146.725 1
-5 -14 3 1211.4 338.403 2
3 5 14 810.615 209.411 1
-3 -14 -5 1155.61 337.705 2
-5 14 -3 1404.14 371.36 1
5 3 -14 958.335 144.737 1
-3 -5 14 1682.43 263.686 2
3 -5 -14 1705.04 250.614 1
5 14 3 1032.9 326.078 1
-3 5 -14 1105.24 244.219 2
3 -14 5 1325.15 367.578 2
3 5 14 835.585 351.739 4
3 14 -5 1278.65 358.257 1
5 -14 -3 1472.77 364.34 2
-5 3 14 887.009 150.224 2
-14 -5 -3 1232.43 277.252 4
-5 3 14 1214.27 359.402 4
14 3 5 1293.34 269.705 4
-5 3 14 1672.8 242.922 1
-3 5 -14 998.821 196.195 1
-3 -5 14 1463.66 218.306 3
5 -3 14 1359.55 265.017 2
-3 5 -14 1250.09 296.983 3
-3 14 5 1078.46 332.873 1
-14 5 3 515.712 247.095 1
5 -3 14 1327.3 234.863 1
-5 -3 -14 1738.93 397.275 3
5 14 1 504.086 225.012 3
-5 1 14 934.658 250.897 3
5 -1 14 647.527 185.099 1
1 5 14 529.921 295.302 4
-5 -14 1 810.066 314.03 2
-5 14 -1 -78.8547 241.454 1
-1 5 -14 478.166 178.458 2
-5 -1 -14 373.774 172.451 2
-1 -14 -5 670.283 272.22 2
5 14 1 465.587 307.267 1
1 -14 5 643.1 280.131 2
-1 -5 14 746.255 198.963 2
5 1 -14 367.776 88.4877 1
1 5 14 478.859 159.382 1
5 -14 -1 154.77 217.591 2
1 -5 -14 409.812 150.25 1
-5 1 14 175.303 232.472 4
1 14 -5 305.81 294.202 1
14 1 5 287.345 203.568 4
-14 -5 -1 247.505 190.775 4
-1 14 5 211.947 253.017 1
-14 5 1 749.77 288.468 1
-5 1 14 531.971 119.274 2
-1 5 -14 98.2168 165.232 3
-1 5 -14 563.021 128.245 1
-5 -1 -14 -53.1016 234.728 3
5 14 -1 706.911 210.294 3
1 5 -14 740.964 213.438 3
-5 -1 14 367.15 154.917 3
-1 -5 -14 738.736 293.171 3
-5 14 1 1101.58 368.906 1
-5 -14 -1 233.422 266.246 2
-1 -14 5 -103.372 223.831 2
5 14 -1 519.647 276.506 1
-1 -5 -14 331.612 75.8195 2
1 -14 -5 492.931 260.698 2
1 -5 14 442.397 108.583 1
5 -14 1 586.955 244.838 2
1 -5 14 773.422 225.037 2
1 14 5 401.89 233.191 1
-5 1 -14 236.971 173.328 2
14 -1 5 620.739 198.428 4
5 1 14 189.669 240.573 4
-1 5 14 570.774 317.583 4
-14 -5 1 582.552 189.662 4
1 5 -14 392.72 96.2288 1
-1 14 -5 478.539 251.904 1
5 -1 -14 513.995 131.141 1
-5 1 -14 342.458 226.925 3
-1 5 14 456.745 170.636 1
-14 5 -1 786.907 318.158 1
5 14 -3 765.003 206.147 3
-3 -5 -14 1632.38 366.071 3
-3 14 -5 1414.85 375.522 1
3 5 -14 1416.84 245.878 3
-5 -3 14 1641.17 231.331 2
-5 14 3 553.794 324.633 1
-5 -14 -3 1554.52 351.412 2
-3 -14 5 1508.15 360.166 2
-5 3 -14 792.766 279.587 3
5 14 -3 1492.12 394.881 1
-3 5 14 1237.68 229.113 1
-14 5 -3 1130.68 342.01 1
3 14 5 972.06 334.719 1
3 -14 -5 1722.11 360.47 2
-5 3 -14 1546.98 293.953 2
5 -14 3 1121.41 339.641 2
3 -5 14 1017.97 251.519 2
5 3 14 1881.31 445.28 4
5 -3 -14 1422.56 226.698 1
-3 5 14 1136.92 337.385 4
3 5 -14 920.571 136.004 1
3 -5 14 1489.28 224.485 1
-5 -3 14 1278.67 226.199 3
5 14 -5 -114.081 146.306 3
-5 -5 -14 10.6196 246.153 3
-5 5 14 88.3164 153.14 1
5 5 14 86.9178 153.828 1
-14 5 -5 -640.862 340.289 1
-5 5 -14 236.248 179.566 1
-5 14 5 297.337 316.438 1
-5 -14 -5 -359.007 306.681 2
-5 -5 14 98.1121 166.688 2
-5 -14 5 -117.793 275.972 2
-5 5 14 328.166 254.081 4
5 5 -14 129.434 110.444 1
-5 14 -5 -246.934 273.961 1
5 14 5 -45.2516 265.386 1
5 14 -5 83.2755 238.848 1
5 -5 14 -1.74592 153.526 1
-5 5 14 129.759 123.916 2
-5 5 -14 18.6026 203.473 2
5 -14 5 -16.8289 246.036 2
5 -14 -5 19.5514 214.735 2
-14 5 5 151.497 231.874 1
14 -5 -5 8.8955 96.9904 4
5 -5 -14 -208.96 175.704 1
-14 -5 -5 80.8734 221.145 4
5 5 14 171.434 291.158 4
5 -5 14 477.928 248.45 2
14 5 5 82.8452 203.777 4
-5 5 -14 55.2326 214.881 3
-5 -5 14 -74.1418 104.934 3
-6 4 14 5104.2 590.681 4
-4 6 -14 4426.97 420.149 1
-4 14 6 3829.84 587.509 1
4 -6 -14 4365.84 417.146 1
-4 -6 14 4924.86 460.813 2
-4 6 -14 4985.07 523.417 2
-6 -14 4 4025.18 585.418 2
-4 -14 -6 3949.63 540.876 2
6 14 4 3637.97 567.285 1
-6 4 14 4797.95 438.968 1
-6 4 14 4147.12 360.888 2
-6 14 -4 4068.46 610.996 1
4 14 -6 4088.01 565.622 1
4 -14 6 4033.28 587.009 2
6 -14 -4 4348.2 546.863 2
6 -4 14 5263.2 519.611 2
-14 -6 -4 4507.95 506.962 4
4 6 14 4378.45 599.284 4
14 4 6 4044.5 456.148 4
-14 6 4 4146.35 570.047 1
-4 6 -14 3657.16 469.663 3
6 -4 14 4627.49 449.319 1
4 14 -6 4960.18 378.073 3
6 4 -14 4521.66 336.652 1
4 6 14 4115.34 442.476 1
-6 -4 -14 3808.61 573.54 3
-14 6 2 2821.35 502.728 1
-6 2 14 2715.76 403.851 3
-6 -14 2 2480.7 477.451 2
2 -6 -14 2600.09 318.97 1
6 2 -14 2649.21 253.443 1
6 14 2 2145.08 429.674 1
-2 6 -14 3002.8 394.038 2
-2 -14 -6 2593.82 442.974 2
-6 14 -2 3178.13 547.393 1
-2 -6 14 2922.51 359.305 2
2 6 14 1831.17 276.098 1
2 -14 6 2505.71 470.19 2
2 -6 -14 1992.79 194.836 2
-6 2 14 2653.35 272.328 2
6 -14 -2 2294.69 454.786 2
-6 2 14 2895.5 291.781 1
2 14 -6 2900.32 465.709 1
6 -2 14 2511.46 331.493 1
14 2 6 3019.04 406.571 4
-14 -6 -2 2182.12 349.879 4
2 6 14 2450.08 502.501 4
-6 2 14 2983.12 460.968 4
-6 -2 -14 1965.65 273.994 2
-2 14 6 1928.35 446.788 1
-2 6 -14 2129.19 333.908 3
-6 -2 -14 2541.18 441.235 3
6 14 2 2518.03 373.869 3
-2 6 -14 2295.24 275.83 1
0 -6 -14 339.515 177.28 1
-6 0 14 248.133 169.071 3
-14 6 0 -23.9612 248.07 1
0 6 -14 530.493 206.538 2
-6 -14 0 742.31 277.5 2
0 -6 14 278.908 113.747 1
6 14 0 861.972 311.181 1
-6 14 0 569.232 296.507 1
0 -14 -6 244.526 220.326 2
0 -14 6 814.258 305.663 2
6 0 14 88.7143 148.248 1
0 14 6 540.691 312.069 1
6 0 -14 484.009 149.258 1
0 -6 14 162.716 167.875 2
0 -6 -14 326.368 105.715 2
6 -14 0 133.705 225.059 2
-6 0 14 480.426 269.815 4
6 0 14 489.354 334.737 4
-6 0 -14 417.64 215.055 2
14 0 6 552.062 202.172 4
0 6 14 496.188 190.81 1
0 6 14 171.957 296.237 4
-14 -6 0 344.372 180.346 4
0 14 -6 -26.2798 270.852 1
0 6 -14 277.156 123.175 1
-6 0 -14 145.898 231.348 3
0 6 -14 209.501 160.573 3
6 14 0 528.272 208.536 3
6 -2 -14 2678.97 283.395 1
-6 -2 14 2875.78 344.527 3
2 6 -14 2490.27 307.031 3
2 6 -14 2012.03 212.368 1
-2 6 14 2252.28 316.856 1
-2 -6 -14 2155.38 450.03 3
2 -6 14 3018.18 300.141 1
-6 -14 -2 1895.9 424.698 2
-2 -6 -14 2157.2 216.809 2
-6 14 2 2179.82 456.973 1
6 14 -2 1985.4 407.098 1
-2 -14 6 2604.07 472.058 2
-14 6 -2 2375.59 433.883 1
2 -14 -6 2504.13 415.574 2
2 14 6 3001.83 498.583 1
6 -14 2 2608.29 459.324 2
2 -6 14 2307.24 368.514 2
-6 2 -14 2677.46 385.912 2
6 2 14 2719.23 505.972 4
-6 2 -14 1985.39 388.851 3
-2 6 14 1947.44 433.665 4
6 14 -2 2342.79 320.725 3
-2 14 -6 2512.7 469.04 1
-4 -6 -14 4584.37 617.521 3
4 6 -14 4378.17 338.258 1
-4 6 14 3781.65 310.457 2
-6 -14 -4 4689.34 598.005 2
-4 14 -6 4539.73 604.186 1
-4 -14 6 3597.51 543.854 2
-6 14 4 4370.63 633.21 1
6 -4 -14 4615.88 404.964 1
-6 4 -14 5038.05 545.454 2
6 14 -4 4180.2 560.446 1
4 14 6 3929.04 571.506 1
4 -6 14 4683.07 528.109 2
4 -6 14 5493.16 458.409 1
4 -14 -6 4323.13 541.17 2
-4 6 14 3946.12 419.761 1
6 -14 4 4485.58 611.641 2
-14 6 -4 3597.9 574.398 1
-14 -4 -6 3944.63 509.678 4
14 -6 -4 5038.69 363.825 4
-14 4 6 5006.69 616.699 1
6 4 14 3585.79 573.469 4
-4 6 14 4344.28 569.151 4
6 14 -4 4173.29 379.266 3
-6 -4 14 4490.3 383.896 3
-6 4 -14 3882.9 513.778 3
-6 -6 -14 268.239 284.1 3
6 6 14 100.889 195.775 1
-6 6 14 738.367 243.337 1
-6 -14 -6 422.67 236.31 3
-14 6 -6 -220.798 296.083 1
-6 -14 -6 237.604 257.406 2
-6 -6 14 313.802 189.975 2
-6 6 -14 82.9851 174.79 1
6 6 -14 277.116 142.008 1
-6 -14 6 -139.407 262.929 2
-6 14 6 262.965 300.264 1
6 14 6 116.508 265.862 1
14 -6 -6 59.3078 142.694 4
6 14 -6 284.131 260.59 1
6 -6 14 -25.6294 180.59 1
-6 6 14 299.121 172.337 2
-6 14 -6 1.81687 288.181 1
-6 6 -14 575.698 258.366 2
6 -14 6 122.716 271.808 2
6 -14 -6 469.375 245.563 2
6 -6 -14 251.38 171.554 1
6 6 14 623.595 325.883 4
-6 6 14 -57.1036 271.974 4
6 -6 14 62.3365 192.417 2
14 6 6 372.367 238.88 4
-14 -6 -6 -128.12 267.168 3
-6 -6 14 170.908 104.526 3
-14 6 6 869.755 349.559 1
6 14 -6 91.1939 105.374 3
-14 -6 -6 552.407 265.623 4
7 5 -14 2941.29 304.926 1
-14 5 -7 2370.18 474.812 1
-5 7 -14 2932.16 386.618 1
-5 14 7 2654.28 509.047 1
5 7 14 2616.39 390.238 1
-7 -14 5 3075.23 518.384 2
-5 -14 -7 3040.78 503.312 2
-5 -7 14 2942.99 390.673 2
7 14 5 2074.53 435.021 1
-5 7 -14 2939.12 466.7 2
14 5 7 2687.6 406.549 4
5 14 -7 3179.79 483.22 1
5 7 14 1974.05 501.554 4
-14 7 5 2999.34 499.192 1
5 -14 7 2964.48 534.556 2
5 -7 -14 2851.6 376.056 1
-7 14 -5 2422.22 487.287 1
-7 5 14 2508.78 323.463 2
7 -14 -5 2477.47 435.279 2
-7 5 14 2686.53 383.439 1
14 -5 -7 2727.33 283.765 4
-14 -7 -5 3070.08 490.366 4
-7 5 14 2108.66 387.642 4
7 -5 14 2256.13 354.717 1
7 -5 14 3594.15 484.093 2
5 14 -7 2548.9 232.026 3
-14 -7 -5 2355.21 448.808 3
5 -7 -14 3156.6 328.858 2
-7 -5 -14 3269.07 570.366 3
-7 -14 3 6737.83 745.981 2
3 14 -7 8089.77 773.595 1
-3 -14 -7 8656.36 774.922 2
-3 -7 14 9115.91 669.152 2
-3 7 -14 9078.7 723.692 2
7 -3 14 8511.59 647.274 1
-3 7 -14 7969.25 581.631 1
3 -14 7 8815.92 851.511 2
7 -14 -3 9571.76 841.699 2
-3 14 7 7062.49 754.56 1
-7 3 14 8437.67 554.834 2
-14 7 3 7752.49 802.646 1
3 -7 -14 7700.25 493.153 2
-7 3 14 8067.11 738.88 4
-14 -7 -3 8835.27 700.993 4
3 7 14 8537.7 872.772 4
7 3 -14 8594.17 522.107 1
14 3 7 8367.91 693.165 4
-7 14 -3 8085.42 842.961 1
-7 3 14 9452.67 614.429 1
-3 7 -14 7298.59 613.41 3
7 14 3 7905.65 704.013 3
-7 -3 -14 7768.1 808.115 3
7 14 3 7838.17 815.783 1
3 7 14 6880.66 598.175 1
3 -7 -14 9003.9 627.048 1
7 1 -14 4353.42 353.188 1
-7 1 14 3609.37 437.972 3
-1 7 -14 4453.55 479.331 2
-7 -14 1 3957.09 578.896 2
7 14 1 4265.94 590.017 1
1 7 14 3740.65 568.484 4
-1 -14 -7 4030.04 525.011 2
1 -7 -14 4060.03 321.595 2
1 -14 7 4152.12 598.97 2
-1 -7 14 4051.44 449.282 2
-7 14 -1 4220.73 619.774 1
1 7 14 3515.41 398.92 1
-14 -1 7 3700.69 261.107 4
7 -1 14 4452.24 455.389 1
7 -14 -1 3882.37 563.18 2
-7 -1 -14 3889.02 421.83 2
-14 7 1 4337.75 604.48 1
-7 1 14 3706.94 514.819 4
14 1 7 3811.82 464.658 4
1 14 -7 3965.01 559.549 1
-14 -7 -1 4334.31 463.499 4
-1 14 7 3232.23 537.869 1
-1 7 -14 4020.96 427.559 3
-1 7 -14 4353.01 377.271 1
-1 -7 14 4497.93 336.742 1
-7 -1 -14 3389.03 509.472 3
1 -7 -14 4157.1 426.002 1
7 14 1 3499.59 449.981 3
-1 -7 -14 4170.71 589.485 3
-1 -7 -14 3597.76 304.081 2
-7 -14 -1 4218.01 586.964 2
7 14 -1 3920.44 572.635 1
-1 -14 7 4519.07 594.684 2
1 -14 -7 4395.67 542.328 2
-7 14 1 4037.59 606.169 1
1 -7 14 4316.54 485.508 2
1 7 -14 3943.28 335.405 1
1 14 7 4068.56 582.775 1
7 -14 1 3014 484.523 2
7 1 14 4040.72 606.886 4
7 -1 -14 4477.67 375.014 1
-7 1 -14 3609.35 442.9 2
-14 7 -1 4395.88 626.76 1
-1 7 14 4887.08 642.41 4
14 -1 7 3848.09 456.557 4
-14 -7 1 4093.42 431.855 4
1 7 -14 4251.22 391.362 3
-1 7 14 2926.2 376.644 1
-7 1 -14 3595.61 522.6 3
-1 14 -7 4203.03 568.822 1
-7 -1 14 4329.59 440.758 3
7 14 -1 4051.07 426.995 3
1 -7 14 4809.23 371.667 1
3 14 7 6952.61 763.677 1
7 14 -3 9200.73 607.097 3
-7 -14 -3 8254.49 810.251 2
-3 -7 -14 7779.35 519.737 2
-3 7 14 7399.69 464.063 2
-3 -14 7 9186.89 831.622 2
3 7 -14 7842.25 499.042 1
3 -14 -7 8244.2 744.563 2
3 -7 14 9339.21 605.867 1
7 -14 3 7852.98 795.61 2
-7 3 -14 8799.85 735.919 2
3 -7 14 9034.81 730.328 2
7 -3 -14 7493.3 551.986 1
-3 14 -7 8924.17 814.155 1
-3 7 14 7332.63 617.299 1
7 3 14 8896.5 869.515 4
-3 7 14 8713.65 810.843 4
-7 14 3 9291.63 896.72 1
-7 3 -14 6993.78 707.454 3
-14 7 -3 6332.74 745.27 1
-7 -3 14 9487.84 599.079 3
-3 -7 -14 7352.14 779.165 3
3 7 -14 8351.52 518.727 3
-7 -14 -3 8033.6 698.115 3
7 14 -3 8290.81 815.264 1
-5 -7 -14 2637.34 528.99 3
-7 -14 -5 2307.36 418.248 3
5 -7 14 3419.29 404.068 1
-7 -14 -5 2367.06 460.939 2
-14 7 -5 2485.44 501.146 1
-5 -14 7 3216.21 529.148 2
7 14 -5 2412.9 473.465 1
5 14 7 2564.01 463.016 1
-5 7 14 2849.4 327.057 2
5 7 -14 2554.39 296.832 1
-5 14 -7 2424.4 456.351 1
-7 14 5 2305.15 491.085 1
5 -7 14 2509.5 415.612 2
-7 5 -14 2271.63 421.923 2
5 -14 -7 3492.61 483.678 2
-14 5 7 2567.58 479.224 1
7 -14 5 2387.88 451.95 2
-14 -5 -7 2530.08 449.607 4
-5 7 14 3191.59 437.62 1
7 5 14 3193.09 556.076 4
-5 7 14 2997.33 504.123 4
14 -7 -5 2964.18 312.237 4
-7 -5 14 3024.09 289.267 3
7 14 -5 2245.56 267 3
7 -5 -14 2560.9 336.636 1
-7 -7 -14 -187.302 263.111 3
7 7 14 -232.925 248.743 1
-7 -14 -7 143.206 213.32 3
-7 7 14 402.804 230.236 1
-7 -14 -7 158.132 245.516 2
7 7 -14 28.5726 158.945 1
-7 -7 14 0.3801 166.429 2
-7 -14 7 423.208 272.694 2
7 14 7 590.059 309.405 1
7 14 -7 260.409 289.538 1
7 -7 14 -214.019 185.022 1
-7 14 7 894.994 370.173 1
14 -7 -7 -114.252 168.833 4
-7 7 14 640.602 211.437 2
-7 7 -14 207.112 257.327 2
-14 7 -7 49.0819 295.895 1
-14 7 7 158.342 256.604 1
7 -14 7 624.811 347.974 2
7 -14 -7 87.6802 233.892 2
-7 14 -7 177.362 280.826 1
7 7 14 173.104 294.578 4
-7 7 14 -391.046 290.983 4
-7 7 -14 419.937 241.744 1
7 -7 14 200.781 238.362 2
7 -7 -14 344.821 208.807 1
14 7 7 299.153 294.515 4
-14 -7 -7 -207.484 263.61 3
-7 -7 14 178.968 100.282 3
-6 8 -14 -256.994 243.048 1
8 6 -14 -34.3881 168.012 1
6 -8 -14 364.896 217.728 2
-6 -14 -8 110.245 208.651 3
6 8 14 93.0909 204.202 1
-8 -14 6 159.576 261.632 2
-6 -14 -8 691.198 329.603 2
8 14 6 305.542 304.063 1
-6 -8 14 255.281 214.132 2
-14 8 6 21.3029 265.854 1
-6 14 8 112.963 295.042 1
6 14 -8 357.002 288.428 1
-6 8 -14 -128.211 246.898 2
6 -14 8 -150.653 247.5 2
-8 6 14 -45.0365 184.864 2
-8 6 14 -295.783 232.91 1
6 -8 -14 34.4044 168.219 1
14 -6 -8 133.571 175.947 4
8 -14 -6 90.7347 228.754 2
8 -6 14 -89.3046 215.112 1
-8 14 -6 379.544 300.302 1
-8 6 14 301.212 255.422 4
6 8 14 114.778 312.878 4
14 6 8 164.945 227.994 4
8 -6 14 567.318 258.698 2
-14 6 -8 -85.8483 256.673 1
-14 -8 -6 173.146 263.463 3
14 -8 6 -101.508 260.897 2
-8 -6 -14 -368.989 352.01 3
4 14 -8 517.687 128.493 3
-4 14 8 532.169 313.345 1
-8 -14 4 -273.724 271.509 2
8 14 4 233.676 323.08 1
8 -4 14 613.121 238.696 1
-4 -14 -8 367.188 250.416 2
-14 8 4 866.46 383.696 1
-4 -8 14 528.288 228.098 2
4 8 14 362.425 214.284 1
-4 8 -14 531.304 295.206 2
-8 4 14 194.435 165.104 1
4 -8 -14 712.9 240.201 1
4 14 -8 382.416 263.386 1
-4 8 -14 469.105 228.005 1
4 -14 8 607.265 314.515 2
8 -14 -4 398.954 251.741 2
-8 14 -4 578.377 347.23 1
-8 4 14 436.62 197.041 2
-8 4 14 660.676 291.085 4
-14 -8 -4 1447.2 361.812 4
14 4 8 102.551 242.489 4
4 8 14 251.013 291.464 4
4 -8 -14 512.318 197.997 2
-14 -8 -4 839.915 308.967 3
14 -8 4 825.844 348.824 2
-8 -4 -14 252.284 247.891 3
2 8 14 5620.06 547.111 1
-2 8 -14 7346.12 651.86 2
-2 -14 -8 6918.52 690.737 2
-2 -8 14 6968.54 629.625 2
2 14 -8 7006.23 709.941 1
2 -14 8 7680.38 778.743 2
-2 14 8 6487.09 732.245 1
2 -8 -14 7524.89 515.205 2
8 -14 -2 7026.57 733.299 2
8 2 -14 7478.5 519.259 1
8 -2 14 7459.13 631.486 1
-14 8 2 7360.66 793.779 1
-8 2 14 6545.71 654.523 4
-8 2 14 8156.34 566.102 2
14 2 8 7239.72 666.104 4
2 8 14 7400.29 814.865 4
-14 -8 -2 7768.82 659.682 4
-8 -2 -14 6082.83 571.272 2
14 -8 2 7365.81 799.469 2
-14 -8 -2 7125.76 681.336 3
-2 8 -14 6713.79 560.072 3
8 14 2 7266.32 650.553 3
-8 -2 -14 6481.66 737.424 3
-2 8 -14 7166.13 546.06 1
-8 14 -2 7999.12 836.98 1
8 14 2 7624.91 783.1 1
2 -8 -14 7276.56 583.083 1
-8 14 0 6680.39 777.564 1
8 0 14 6222.76 567.766 1
0 8 -14 8626.71 696.025 2
0 -14 -8 7444.5 684.353 2
0 -14 8 7092.33 759.057 2
0 -8 -14 7473.41 487.673 2
0 14 8 7634.65 771.996 1
0 8 14 7171.05 602.757 1
0 -8 14 8066.78 668.677 2
0 14 -8 7854.9 756.3 1
8 -14 0 7231.37 751.739 2
14 0 8 6775.93 645.234 4
-8 0 -14 6140.29 599.054 2
8 0 14 7213.49 781.734 4
-14 8 0 7420.39 789.863 1
-14 0 8 6916.08 406.385 4
0 8 14 6881.01 764.496 4
0 8 -14 7232.44 511.749 1
14 -8 0 8103.6 821.883 2
-14 -8 0 7984.83 642.44 4
-8 0 14 7427.78 704.401 4
-8 0 -14 6494.11 713.195 3
8 14 0 6225.31 591.555 3
0 -8 -14 7845.47 627.482 1
0 8 -14 7490.26 536.365 3
8 0 -14 7887.8 545.524 1
-8 -14 0 6122.67 554.907 3
8 14 0 6347.54 754.46 1
0 -8 14 9123.08 546.165 1
2 -8 14 8259.1 564.318 1
2 14 8 5946.79 714.344 1
-2 -8 -14 6596.92 470.949 2
-2 -14 8 7774.78 770.181 2
2 -14 -8 7553.38 690.353 2
2 -8 14 7843.07 701.137 2
2 8 -14 6644.38 481.662 1
8 -14 2 7700.63 775.811 2
-2 8 14 6555.78 601.047 1
-8 2 -14 6133.83 630.238 2
-2 14 -8 6649 710.323 1
-8 14 2 5801.97 724.35 1
-2 8 14 5939.81 729.864 4
8 2 14 5978.23 717.404 4
-14 8 -2 6549.14 769.472 1
8 -2 -14 6765.2 544.709 1
-8 2 -14 6362.22 712.796 3
8 14 -2 6803.19 545.917 3
2 8 -14 7571.1 482.437 3
14 -8 -2 7874.94 793.664 2
-8 -14 -2 7196.57 630.608 3
-8 -2 14 7374.51 565.257 3
-2 -8 -14 6363.17 750.732 3
8 14 -2 7902.44 775.55 1
-8 -4 14 361.335 134.915 3
8 4 14 844.093 339.471 4
-4 -8 -14 214.593 336.458 3
-8 -14 -4 430.986 203.029 3
8 -4 -14 610.623 213.963 1
8 14 -4 609.127 321.549 1
-4 8 14 1007.5 373.371 4
-4 8 14 527.602 165.724 2
-4 -14 8 440.459 284.783 2
-4 14 -8 392.651 275.845 1
-4 8 14 558.057 245.687 1
4 14 8 649.952 346.859 1
-8 14 4 640.305 361.035 1
4 -14 -8 679.622 254.116 2
4 8 -14 369.998 177.53 1
-8 4 -14 336.042 220.04 2
8 -14 4 471.635 281.263 2
-14 8 -4 227.692 295.019 1
4 -8 14 541.353 264.288 2
-14 4 8 705.235 329.075 1
4 -8 14 543.686 225.619 1
8 14 -4 541.237 175.125 3
-6 -8 -14 268.542 260.711 3
-8 -14 -6 618.818 286.599 3
6 -8 14 383.854 214.949 1
-6 -14 8 -21.0839 260.435 2
8 14 -6 327.115 234.147 1
6 14 8 54.2818 276.353 1
6 8 -14 245.152 176.639 1
-8 6 -14 216.127 208.421 1
-6 8 14 -63.5219 163.639 2
-8 14 6 249.339 293.127 1
-8 6 -14 -213.334 265.305 2
-6 14 -8 -67.7283 263.7 1
8 6 14 -313.032 325.511 4
6 -14 -8 134.263 214.383 2
8 -14 6 -69.9829 243.56 2
6 -8 14 598.663 284.738 2
-6 8 14 164.305 224.196 1
14 -8 -6 -10.437 177.089 4
-6 8 14 -191.576 266.236 4
-14 8 -6 34.5874 302.808 1
-14 -6 -8 192.884 270.568 3
-14 6 8 -45.308 289.351 1
8 -6 -14 166.363 175.11 1
-8 -6 14 168.449 107.814 3
-8 -8 -14 1635.44 429.47 3
8 8 14 1488.72 338.502 1
-8 -14 -8 1900.57 473.207 3
-14 8 -8 1761.51 442.207 1
8 8 -14 1994.9 323.077 1
-8 -8 14 2253.54 393.596 2
-8 -14 8 1966.73 455.561 2
-8 8 14 2411.64 439.992 1
8 14 8 2161.53 474.883 1
-14 8 8 2401.31 478.217 1
8 14 -8 2208.72 432.731 1
8 -8 14 2397.35 405.51 1
-8 8 14 2153.52 375.007 2
-8 14 8 1549.53 424.232 1
-8 8 -14 2618.8 435.572 1
8 -14 8 2074.1 482.835 2
8 -14 -8 2224.7 421.45 2
14 -8 -8 2091.73 338.027 4
8 8 14 2210.89 497.225 4
8 -8 14 1765.47 388.777 2
-8 8 14 2305.32 426.339 4
14 8 8 1492.08 389.219 4
8 -8 -14 1973.21 359.36 1
-8 14 -8 1852.67 462.359 1
-8 -8 14 1264.87 137.621 3
14 -8 8 1963.12 455.89 2
-14 -8 -8 1989.92 445.965 3
-14 9 7 722.618 361.245 1
9 7 -14 -159.309 181.646 1
9 -7 14 321.253 235.637 1
7 -9 -14 404.942 240.48 1
-7 -14 -9 37.5181 245.38 3
-14 7 -9 235.287 300.22 1
7 9 14 -120.216 221.387 1
-9 -14 7 341.871 234.063 2
-7 -14 -9 282.09 260.664 2
9 14 7 118.454 273.802 1
-7 -9 14 224.298 197.821 2
7 14 -9 417.178 223.882 1
-7 14 9 388.377 303.496 1
-9 7 14 277.623 261.646 2
-9 7 14 14.9355 243.839 1
7 -14 9 437.463 307.1 2
14 -7 -9 117.333 171.763 4
9 -14 -7 274.942 294.493 2
7 9 14 -95.2338 308.703 4
-9 7 14 729.972 336.662 4
14 7 9 -10.6614 247.012 4
9 -7 14 751.508 299.547 2
7 -9 -14 346.29 174.597 2
14 -9 7 111.149 248.895 2
-14 -9 -7 320.369 282.343 3
-9 14 -7 -131.736 302.045 1
-7 9 -14 126.433 221.529 1
-9 -7 -14 297.833 312.811 3
-14 9 5 245.752 261.111 1
9 -5 14 195.287 184.802 1
9 14 5 -235.485 361.36 1
-5 14 9 692.037 317.084 1
-5 -14 -9 89.4172 231.986 2
-9 5 14 234.123 202.951 1
5 9 14 -190.019 227.794 1
-5 -9 14 280.906 235.594 2
-9 5 14 243.149 186.871 2
9 -14 -5 266.793 239.131 2
5 14 -9 284.766 279.064 1
-5 9 -14 373.626 207.346 1
5 -9 -14 315.495 193.885 1
5 -14 9 558.093 349.345 2
-9 5 14 347.351 216.626 4
14 -9 5 233.59 280.102 2
14 5 9 239.616 245.206 4
5 -9 -14 298.195 180.891 2
5 9 14 -23.8509 342.006 4
-9 14 -5 278.113 345.457 1
9 -5 14 181.455 223.053 2
-14 -9 -5 -187.813 238.716 3
-9 -5 -14 -48.2855 257.144 3
-3 9 -14 2539.8 361.582 1
-14 9 3 2804.65 555.635 1
9 14 3 1667.32 419.98 1
3 9 14 2566.49 556.612 4
-3 -14 -9 2781.75 435.017 2
-3 9 -14 3127.97 467.271 2
-3 -9 14 2448.03 400.09 2
3 -9 -14 1571.18 291.382 1
3 -9 -14 3021.73 360.357 2
3 9 14 2785.08 415.289 1
3 -14 9 2723.21 502.191 2
3 14 -9 2243.36 439.853 1
9 -3 14 3064.03 415.772 1
9 -14 -3 2668.7 483.791 2
-9 3 14 2941.93 464.956 4
14 3 9 1824.38 384.294 4
-14 -9 -3 2154.66 411.753 4
-9 14 -3 2263.85 510.295 1
-9 3 14 2228.75 350.332 2
14 -9 3 2545.91 504.453 2
9 3 -14 2656.18 330.516 1
-14 -9 -3 2683.53 442.623 3
-9 3 14 3133.61 391.376 1
-9 -3 -14 2776.08 508.168 3
-3 14 9 3499.02 548.689 1
-9 -14 1 278.947 188.487 3
-14 9 1 67.543 299.022 1
-1 -9 14 201.629 153.54 1
9 14 1 -13.8577 246.582 1
1 -9 -14 185.367 175.317 1
-1 9 -14 -144.887 198.834 2
-1 -14 -9 -179.38 212.549 2
-1 -9 14 353.53 229.255 2
1 -14 9 -76.9017 238.63 2
1 -9 -14 -110.449 153.642 2
-1 9 -14 7.81476 173.699 1
1 9 14 -220.632 234.282 1
9 1 -14 161.273 152.214 1
9 -1 14 13.3017 254.857 4
9 -1 14 199.616 178.068 1
-14 -1 9 168.821 135.071 4
9 -14 -1 -196.457 316.35 2
-9 14 -1 285.116 313.947 1
14 1 9 -23.7802 233.699 4
-1 14 9 -2.28691 272.551 1
1 9 14 490.883 336.688 4
1 14 -9 5.94998 227.193 1
-14 -9 -1 35.4211 216.212 4
-9 -1 -14 -332.726 236.029 2
-9 1 14 -146.909 214.443 4
-14 -9 -1 135.79 177.037 3
-1 9 -14 -93.0371 151.803 3
14 -9 1 62.2915 247.548 2
9 14 1 289.025 261.049 3
-9 -1 -14 39.9351 276.789 3
-1 -9 -14 10.1496 189.832 1
-9 -14 -1 -297.904 220.051 3
1 9 -14 227.603 165.264 1
9 1 14 340.393 227.255 1
1 9 -14 -2.16255 197.104 2
9 14 -1 -61.5319 271.8 1
-14 9 -1 28.3338 281.745 1
-1 -9 -14 -138.932 158.032 2
-9 14 1 110.081 262.087 1
-1 -14 9 187.64 268.864 2
1 -9 14 31.2842 138.316 1
1 -14 -9 29.2207 195.28 2
1 -9 14 -346.238 230.225 2
1 14 9 -363.968 281.167 1
14 -1 9 -16.5719 216.394 4
9 1 14 191.983 273.897 4
9 -14 1 363.321 280.244 2
-1 9 14 -68.586 321.571 4
-14 1 9 -95.3682 136.478 4
-9 1 -14 97.5518 206.539 2
-1 9 14 304.02 218.19 1
9 14 -1 261.459 194.443 3
9 -1 -14 -223.825 192.425 1
-9 1 -14 -380.773 296.151 3
14 -9 -1 -84.1847 252.498 2
1 9 -14 191.723 149.117 3
-1 14 -9 284.657 237.247 1
3 9 -14 2242.1 236.248 3
-9 -14 -3 2744.27 419.575 3
-3 -9 -14 1320.25 367.931 3
-3 9 14 3006.17 437.422 1
9 14 -3 1815.7 399.511 1
-3 9 14 2688.61 321.109 2
-3 14 -9 2666.34 454.129 1
-3 -9 -14 2078.61 294.886 2
-14 9 -3 2791.78 568.88 1
-3 -14 9 2282.15 455.132 2
9 -3 -14 2504.18 366.864 1
3 14 9 2136.39 460.995 1
9 3 14 2355.81 508.908 4
3 -14 -9 2045.89 395.326 2
3 -9 14 3201.72 384.925 1
3 -9 14 2378.81 422.176 2
9 -14 3 2125.23 456.038 2
-9 14 3 2596.31 510.566 1
3 9 -14 2797.14 348.262 1
-9 3 -14 2990.84 471.623 2
-3 9 14 2603.91 504.171 4
14 -9 -3 2260.59 446.286 2
-9 -14 -5 115.572 210.886 3
-5 -9 -14 418.389 301.823 3
-9 -5 14 327.12 122.156 3
9 -5 -14 604.71 222.52 1
9 14 -5 501.943 329.066 1
-5 -14 9 308.918 283.467 2
-5 9 14 158.14 172.146 2
5 14 9 423.471 282.435 1
-14 9 -5 512.854 342.666 1
-5 9 14 309.362 247.888 1
5 9 -14 769.145 212.11 1
-5 14 -9 268.992 259.642 1
5 -14 -9 528.822 254.741 2
-9 5 -14 138.44 248.173 2
-9 14 5 268.796 301.178 1
5 -9 14 423.555 264.33 2
9 -14 5 775.401 339.343 2
-14 5 9 168.775 248.651 1
9 5 14 -347.893 344.311 4
-5 9 14 693.891 338.733 4
-14 -5 -9 344.777 326.581 3
5 -9 14 121.945 209.063 1
14 -9 -5 572.667 274.027 2
-9 -7 14 444.581 107.507 3
9 -7 -14 380.625 226.15 1
-7 -9 -14 -341.044 307.241 3
-9 -14 -7 94.5121 225.533 3
7 -9 14 806.78 299.374 1
-7 -14 9 866.146 335.483 2
9 14 -7 40.7689 236.986 1
7 14 9 437.825 307.145 1
7 9 -14 212.078 190.148 1
-14 9 -7 -53.5603 312.238 1
-7 9 14 405.537 242.806 2
-14 7 9 -24.7592 272.784 1
-9 14 7 -438.16 399.762 1
-9 7 -14 156.05 246.036 1
7 -14 -9 401.444 222.774 2
9 -14 7 356.994 308.81 2
7 -9 14 229.797 261.764 2
9 7 14 -103.84 270.212 4
-7 14 -9 463.039 337.529 1
14 -9 -7 275.871 186.966 4
-7 9 14 -67.9647 268.694 4
-7 9 14 442.072 270.168 1
-14 -7 -9 591.204 316.483 3
-9 -9 -14 5860.19 776.472 3
-9 14 -9 6494.96 798.426 1
-14 9 9 6927.08 816.132 1
9 9 14 5391.2 640.733 1
14 -9 9 7170.94 833.508 2
-9 -14 9 6241.01 743.161 2
9 14 9 6377.91 777.787 1
-9 9 14 6105.26 713.021 1
-9 9 14 7356.16 690.348 2
9 -14 9 6765.52 823.912 2
9 -14 -9 7529.92 786.832 2
9 -9 14 6959.25 800.473 2
14 -9 -9 6314.39 585.411 4
-9 9 -14 5549.57 700.107 1
-9 14 9 5705.92 758.696 1
-9 9 14 7162.99 722.121 4
9 9 14 6652.85 816.283 4
14 9 9 6748.38 738.508 4
-14 -9 -9 6493.45 773.207 3
-14 9 -9 5733.76 756.885 1
-9 -14 -9 7824.32 828.323 3
9 9 -14 6191.32 581.091 1
9 14 -9 6081.62 708.241 1
10 8 -14 266.345 242.154 1
-8 -14 -10 692.138 387.812 3
8 10 14 -301.523 322.911 1
10 14 8 515.323 336.864 1
-10 14 -8 241.331 376.689 1
-8 -10 14 -79.5728 223.024 2
8 14 -10 526.542 314.722 1
-8 14 10 61.2651 305.132 1
-10 8 14 72.9945 254.626 2
-10 8 14 -259.778 318.389 1
-14 8 -10 211.93 301.931 1
8 -14 10 -209.325 296.049 2
14 -8 -10 255.289 259.934 4
10 -14 -8 266.506 333.958 2
8 10 14 384.46 317.516 4
14 8 10 -1.63918 309.063 4
-10 8 14 211.927 288.303 4
10 -8 14 360.57 288.574 2
8 -10 -14 49.7395 202.112 2
-14 10 8 946.112 381.86 1
14 -10 8 86.4418 287.72 2
-8 10 -14 -237.451 278.923 1
-14 -10 -8 -93.6319 248.309 3
-10 -8 -14 267.109 293.305 3
-10 14 -6 156.904 353.529 1
-6 -14 -10 55.6293 266.578 3
-10 6 14 112.112 219.794 1
10 14 6 264.612 265.755 1
-6 -14 -10 31.7684 303.313 2
6 10 14 182.228 223.375 1
-6 -10 14 -129.395 223.82 2
-6 14 10 86.7796 290.251 1
6 14 -10 -99.5188 266.844 1
-6 10 -14 61.7666 219.897 1
10 -14 -6 -285.069 269.143 2
6 -10 -14 229.192 208.042 1
6 -14 10 -101.549 261.145 2
14 -6 -10 -15.5042 225.032 4
-10 6 14 375.255 279.313 2
14 6 10 253.822 261.679 4
-10 6 14 -359.162 265.025 4
6 -10 -14 326.803 224.875 2
6 10 14 -402.596 390.039 4
-14 10 6 -331.514 314.852 1
14 -10 6 615.446 333.983 2
10 -6 14 -144.389 245.275 2
-14 6 -10 218.79 307.003 1
10 -6 14 30.6535 233.29 1
-14 -10 -6 478.846 288.31 3
-10 -6 -14 211.273 321.882 3
4 -10 -14 4739.8 531.887 1
-4 10 -14 3797.59 470.942 1
-4 14 10 4425.36 647.575 1
10 14 4 3382.79 553.406 1
-10 4 14 4189.55 493.594 1
-4 -14 -10 3945.54 549.148 2
-4 -10 14 4475.31 538.121 2
4 10 14 3711.85 491.76 1
4 -10 -14 4941.48 500.614 2
10 -4 14 4303.89 540.891 1
10 4 -14 3839.37 427.916 1
4 -14 10 4348.55 625.523 2
4 14 -10 4566.69 571.207 1
10 -14 -4 4563.09 619.971 2
-10 4 14 4474.87 534.617 4
14 4 10 3800.36 554.213 4
-10 4 14 4355.9 497.328 2
4 10 14 4138.67 654.335 4
14 -10 4 4999.46 636.556 2
-14 10 4 4363.34 647.136 1
-14 -10 -4 3885.68 540.906 3
-10 -14 4 4101.55 370.011 3
-10 -4 -14 3938.43 616.869 3
-10 14 -4 4046.52 617.093 1
-2 -10 14 551.266 191.965 1
-10 -14 2 462.156 185.503 3
10 14 2 624.346 339.199 1
10 -2 14 309.602 254.953 1
-2 14 10 192.024 250.198 2
10 2 -14 281.227 190.391 1
2 -10 -14 129.167 190.302 1
-2 -14 -10 183.228 231.232 2
-2 -10 14 364.728 242.929 2
2 -14 10 333.655 294.958 2
2 10 14 333.811 204.846 1
2 -10 -14 177.071 178.156 2
-2 10 -14 302.375 212.772 1
-10 2 14 162.575 211.943 4
14 2 10 829.463 326.208 4
10 -14 -2 381.362 286.104 2
-14 -10 -2 1186.26 345.612 4
2 10 14 681.392 389.793 4
14 -10 2 457.173 310.429 2
-2 14 10 -41.4776 283.002 1
-10 2 14 126.157 197.796 2
-14 10 2 356.165 318.848 1
-10 14 -2 -243.371 339.168 1
-10 -2 -14 384.664 211.041 2
-14 -10 -2 94.5328 240.928 3
-10 -2 -14 -82.7161 260.881 3
2 14 -10 516.072 279.169 1
-10 -14 0 215.837 175.48 3
0 -10 -14 114.607 192.871 1
10 14 0 332.271 334.539 1
-14 -10 0 127.285 178.842 3
0 10 -14 439.568 265.936 2
0 10 -14 424.704 212.836 1
0 -10 14 -12.4835 170.407 1
10 -14 0 157.435 241.574 2
10 0 -14 295.691 195.415 1
0 -14 -10 449.904 231.757 2
0 -14 10 -8.25174 242.176 2
0 -10 -14 389.067 185.843 2
0 -10 14 247.965 240.748 2
-14 0 10 378.352 166.49 4
10 0 14 290.103 199.275 1
10 0 14 34.4032 261.809 4
14 0 10 92.7458 216.542 4
0 14 10 312.918 299.052 1
-10 0 14 129.131 224.285 4
0 10 14 -36.0434 212.057 1
0 10 14 125.63 333.027 4
-10 0 -14 483.077 253.082 2
-10 14 0 -316.737 282.56 1
14 -10 0 30.6202 257.076 2
0 10 -14 73.0589 129.982 3
-10 0 -14 -240.375 324.764 3
0 14 -10 -29.2804 220.022 1
-14 10 0 390.462 307.83 1
-2 -10 -14 184.28 221.263 1
-14 10 -2 159.284 303.226 1
-10 -14 -2 674.318 269.814 3
10 14 -2 -22.6469 273.864 1
-2 14 -10 -233.442 266.102 1
-2 -10 -14 -119.168 160.515 2
-2 -14 10 699.142 320.882 2
2 -14 -10 344.36 237.854 2
2 -10 14 968.1 258.635 1
2 -10 14 578.171 281.845 2
2 14 10 315 275.555 1
10 2 14 317.763 279.273 4
10 -14 2 524.433 298.208 2
-10 2 -14 777.508 292.932 2
-14 2 10 282.647 143.059 4
10 -2 -14 368.703 216.694 1
-2 10 14 -202.511 366.255 4
-10 14 2 270.236 307.805 1
14 -10 -2 263.158 283.1 2
-14 -10 2 365.94 207.448 3
2 10 -14 476.344 200.99 1
-2 10 14 247.532 221.086 1
2 10 -14 636.183 153.762 3
-10 -14 -4 3739.48 511.62 3
-4 -10 -14 3744.82 607.355 3
-4 10 14 4461.89 441.656 2
-14 10 -4 4573.84 654.839 1
10 14 -4 4133.75 605.79 1
4 10 -14 4612.58 471.688 1
-4 -10 -14 3417.39 414.413 2
-14 4 10 5325.61 624.94 1
-4 10 14 3674.63 516.373 1
4 -10 14 4451.88 501.707 1
-4 -14 10 5058.71 624.026 2
4 -14 -10 4956.21 589.603 2
-14 -4 -10 4003.33 635.422 3
-4 14 -10 4007.97 560.715 1
4 14 10 3479.67 555.792 1
4 -10 14 4435.6 572.583 2
10 -4 -14 5018.89 526.681 1
10 -14 4 4392.71 634.686 2
10 4 14 3322.56 554.967 4
-10 14 4 3441.65 612.657 1
-4 10 14 4395.63 632.456 4
-14 -10 4 3930.65 419.145 3
14 -10 -4 4306.87 626.164 2
-10 -14 -6 -280.693 277.204 3
-6 -10 -14 353.299 287.229 3
-14 6 10 179.838 264.741 1
-10 -6 14 26.0379 109.2 3
10 14 -6 40.8756 274.58 1
10 -6 -14 -157.116 239.826 1
-6 -14 10 334.101 279.959 2
-14 10 -6 -401.474 361.905 1
-6 14 -10 322.826 290.108 1
6 14 10 -13.3008 299.042 1
-6 10 14 -19.637 232.917 2
6 10 -14 -166.465 197.766 1
-6 10 14 -154.431 273.636 1
6 -14 -10 -204.608 244.68 2
6 -10 14 -140.687 293.454 2
10 -14 6 434.883 344.146 2
10 6 14 60.9075 267.163 4
-10 14 6 216.122 301.263 1
14 -10 -6 50.5679 210.205 4
-6 10 14 -88.5795 289.909 4
-14 -6 -10 244.821 364.577 3
14 -10 -6 560.247 321.817 2
6 -10 14 -62.7465 217.921 1
-10 -8 14 15.1063 64.5139 3
-8 -10 -14 122.627 299.708 3
-10 -14 -8 34.6461 275.922 3
10 14 -8 -184.499 288.268 1
-8 -14 10 434.077 302.929 2
-10 8 -14 93.5952 243.959 1
8 14 10 718.96 351.121 1
8 10 -14 -16.5719 223.055 1
-14 8 10 -59.3136 296.118 1
-8 10 14 -273.769 310.42 2
-14 10 -8 312.502 342.867 1
8 -14 -10 -33.5382 225.26 2
10 -14 8 792.108 380.206 2
8 -10 14 347.588 277.468 2
14 -10 -8 140.747 224.191 4
10 8 14 -803.069 380.57 4
-10 14 8 -184.09 332.638 1
-8 10 14 454.211 311.272 1
14 -8 10 -175.785 256.11 2
14 -10 -8 -122.627 296.589 2
-14 -8 -10 -78.5755 271.022 3
-8 14 -10 -63.3299 324.087 1
-10 -10 -14 -15.1799 328.929 3
-10 -14 -10 252.386 313.264 3
10 10 14 -246.063 315.366 1
10 10 -14 206.941 223.069 1
10 14 10 149.526 286.558 1
-10 -14 10 253.121 294.642 2
10 14 -10 -178.2 255.365 1
-10 10 14 -50.8838 293.129 1
-10 14 -10 155.078 317.565 1
-10 10 -14 235.939 289.089 1
-10 10 14 64.77 248.722 2
-14 10 -10 -63.7842 324.783 1
10 -14 10 312.615 344.322 2
14 -10 -10 6.68792 227.052 4
10 -14 -10 -5.41003 247.742 2
10 10 14 -426.826 428.567 4
10 -10 14 117.081 293.219 2
-10 14 10 292.257 340.042 1
14 -10 10 -324.39 313.343 2
-14 10 10 289.68 328.074 1
-14 -10 -10 50.4699 309.766 3
11 9 -14 196.363 208.073 1
-9 -14 -11 1109.24 419.273 3
11 14 9 279.181 306.498 1
9 11 14 716.851 343.567 1
-9 -11 14 510.738 257.794 2
-14 9 -11 504.319 343.392 1
9 14 -11 244.898 282.8 1
-11 14 -9 1034.38 380.365 1
-11 9 14 309.647 317.005 2
-11 9 14 413.892 291.687 1
-9 14 11 -423.492 421.478 1
14 -9 -11 814.938 289.601 4
9 -14 11 846.598 432.507 2
-14 11 9 966.33 443.093 1
11 -14 -9 268.866 263.08 2
9 11 14 95.9911 319.473 4
14 9 11 484.821 332.971 4
11 -9 14 218.355 276.31 2
14 -11 9 138.32 307.571 2
9 -11 -14 690.975 295.54 2
-9 11 -14 717.768 332.194 1
-14 -11 -9 1112.82 379.268 3
-11 -9 -14 481.315 351.145 3
-14 7 -11 3526.08 596.55 1
-11 7 14 2554.48 458.792 1
-7 -14 -11 1886.56 469.283 3
11 14 7 3573.8 609.152 1
-7 -14 -11 3505 549.487 2
7 11 14 2342.46 432.756 1
-7 -11 14 3043.51 477.149 2
-11 14 -7 2393.78 558.078 1
7 14 -11 2857.61 471.353 1
-7 14 11 2728.06 542.658 1
-7 11 -14 2948.89 511.639 1
-11 7 14 3532.89 523.837 2
14 -7 -11 3384.33 442.011 4
7 -14 11 2850.33 559.318 2
-14 11 7 2174.36 537.229 1
11 -14 -7 3231.36 570.59 2
14 7 11 2431.47 487.396 4
7 -11 -14 3726.42 508.412 2
-11 7 14 2767.96 445.675 4
7 11 14 2272.31 552.009 4
14 -11 7 3136.98 582.255 2
11 -7 14 3691.79 587.856 2
-14 -11 -7 3336.06 559.798 3
-11 -7 -14 2380.56 532.571 3
-11 -14 5 78.1615 117.44 3
11 14 5 203.861 306.216 1
-5 11 -14 190.577 233.006 1
-11 14 -5 -29.6461 313.859 1
-5 14 11 -174.643 271.104 1
-5 -14 -11 396.234 258.39 2
-5 -11 14 202.522 230.263 2
5 11 14 105.54 227.717 1
5 14 -11 76.148 250.823 1
5 -14 11 -31.1694 268.689 2
-11 5 14 -53.5084 244.986 2
-14 11 5 -67.4628 301.342 1
5 -11 -14 420.828 244.976 2
14 5 11 -120.845 276.753 4
11 -14 -5 316.339 247.252 2
-11 5 14 229.774 263.773 4
5 11 14 -139.931 319.602 4
14 -11 5 321.989 319.207 2
-11 5 14 200.902 232.281 1
-11 -5 -14 452.922 319.537 3
-14 -11 -5 652.859 298.658 3
-3 -11 14 1687.66 307.588 1
-11 -14 3 904.269 206.82 3
-11 14 -3 862.258 401.176 1
11 14 3 974.954 380.663 1
-3 14 11 594.058 271.491 2
-3 -14 -11 768.785 299.47 2
-3 -11 14 766.752 250.533 2
3 11 14 1004.69 284.36 1
3 -14 11 314.618 259.48 2
3 -11 -14 1373.11 307.812 2
3 14 -11 824.376 340.992 1
14 3 11 549.632 263.233 4
-14 11 3 1135.06 360.522 1
-11 3 14 679.762 251.923 4
11 -14 -3 989.052 318.702 2
3 11 14 578.001 369.469 4
11 -3 14 935.247 310.481 1
-11 3 14 1064.23 282.712 2
14 -11 3 944.45 335.793 2
-3 11 -14 1384.01 332.257 1
-11 -3 -14 797.473 350.178 3
-14 -11 -3 1222.67 339.699 3
11 3 -14 588.004 233.577 1
-3 14 11 1120.13 365.443 1
-11 14 -1 505.074 362.773 1
-11 -14 1 423.196 228.819 3
11 14 1 5.40691 311.469 1
-1 14 11 804.366 287.626 2
-1 -11 14 465.978 213.474 1
1 -11 -14 19.4067 217.767 1
-1 11 -14 154.864 202.304 1
-1 -14 -11 478.395 269.646 2
-1 -11 14 281.877 224.288 2
-1 14 11 391.965 312.847 1
1 -14 11 285.245 277.017 2
1 -11 -14 285.665 202.228 2
1 11 14 0.47449 212.719 1
11 -1 14 28.8919 286.169 4
-14 -1 11 482.632 184.025 4
-11 1 14 387.933 262.658 4
14 1 11 252.731 253.083 4
11 -1 14 94.8731 222.319 1
11 -14 -1 90.2086 242.886 2
-14 11 1 -302.225 345.384 1
1 11 14 841.363 345.588 4
-14 -11 -1 217.513 271.605 4
11 1 -14 297.105 193.25 1
14 -11 1 437.116 291.085 2
1 14 -11 255.759 227.234 1
-11 -1 -14 331.779 243.173 2
-11 -1 -14 -64.5141 270.605 3
-14 -11 -1 294.363 206.381 3
1 11 -14 457.759 223.147 1
-11 -14 -1 617.429 234.673 3
-1 14 -11 459.48 276.241 1
11 14 -1 850.087 384.817 1
11 -1 -14 413.104 226.732 1
-14 1 11 748.079 222.769 4
1 -11 14 1054 300.751 1
-1 -11 -14 641.871 229.728 2
-1 -14 11 624.339 314.618 2
1 -14 -11 497.824 240.092 2
1 -11 14 547.784 241.05 2
14 -1 11 141.621 241.206 4
11 1 14 -100.014 267.069 4
1 14 11 361.659 260.232 1
11 -14 1 672.08 338.834 2
-11 -1 14 560.863 242.132 4
-1 11 14 1615.56 461.821 4
-14 11 -1 808.468 366.374 1
-1 11 14 218.982 209.222 1
14 -11 -1 384.706 318.181 2
-11 1 -14 318.829 266.24 3
1 11 -14 518.055 161.107 3
-14 -11 1 525.127 236.465 3
-11 14 1 366.587 333.812 1
3 11 -14 808.139 132.375 3
-11 -14 -3 1036.47 291.854 3
11 -14 3 1067.54 363.792 2
-3 11 14 469.728 259.194 1
-3 -11 -14 736.76 345.098 3
11 14 -3 721.849 324.063 1
-3 11 14 601.435 214.801 2
-3 -11 -14 917.97 273.796 2
-3 14 -11 1445.86 395.8 1
-3 -14 11 609.613 282.45 2
3 14 11 849.221 358.935 1
-14 3 11 911.109 203.845 4
3 -14 -11 1241.53 324.395 2
3 -11 14 897.345 340.354 2
3 -11 14 1064.21 301.687 1
11 3 14 837.953 345.885 4
11 -3 -14 1048.88 291.801 1
3 11 -14 1428.15 329.134 1
-3 11 14 754.871 374.954 4
14 -11 -3 1363.45 436.71 2
-14 -3 -11 1360.27 451.84 3
-14 11 -3 1003.36 420.688 1
-14 -11 3 945.045 242.851 3
-11 14 3 1213.82 393.932 1
-11 -14 -5 -215.339 258.517 3
-5 -11 -14 40.5344 336.94 3
11 14 -5 679.994 323.514 1
-5 -11 -14 229.051 203.394 2
-5 -14 11 311.854 271.465 2
-5 11 14 920.048 254.731 2
-5 11 14 320.184 262.405 1
5 14 11 9.43713 259.087 1
11 -5 -14 -2.59158 198.392 1
5 11 -14 116.608 187.1 1
-5 14 -11 -147.943 251.834 1
5 -14 -11 -338.827 267.82 2
11 5 14 253.222 323.14 4
11 -14 5 33.1874 258.049 2
5 -11 14 -291.115 209.318 1
14 -11 -5 49.3004 277.96 2
-14 -11 5 -42.4751 143.535 3
-14 -5 -11 88.7022 287.743 3
-14 5 11 617.707 319.621 1
-11 14 5 50.443 292.559 1
5 -11 14 867.514 348.146 2
-14 11 -5 111.676 321.48 1
-11 -14 -7 2545.63 472.646 3
-7 -11 -14 2222.09 516.779 3
11 14 -7 2591.8 514.91 1
-14 11 -7 2749.41 557.3 1
-7 -14 11 2800.59 516.286 2
7 14 11 1935.06 467.438 1
7 11 -14 3045.45 435.086 1
-7 11 14 4833.77 561.862 2
7 -11 14 3106.87 547.642 2
-7 11 14 2306.22 463.365 1
-14 7 11 3536.87 562.818 1
7 -14 -11 3319.83 538.337 2
11 -14 7 3090.2 587.631 2
11 7 14 2405.39 509.887 4
14 -11 -7 2683.41 404.233 4
-11 7 -14 2657.39 481.714 1
-7 14 -11 2820.81 514.157 1
-14 -11 7 2861.7 317.462 3
14 -11 -7 3869.7 624.503 2
-11 14 7 1816.02 491.093 1
-14 -7 -11 2851.1 575.13 3
-11 -7 14 2785.55 276.833 3
-11 9 -14 256.72 273.281 1
-9 -11 -14 -377.951 338.212 3
-11 -14 -9 385.147 305.139 3
-14 9 11 1732.69 490.902 1
11 14 -9 320.426 313.331 1
-9 -14 11 350.015 263.502 2
-9 14 -11 930.125 435.47 1
9 14 11 442.902 319.914 1
9 11 -14 89.5995 238.389 1
-14 11 -9 274.047 314.757 1
-9 11 14 106.111 317.778 2
9 -11 14 526.827 325.608 2
11 -14 9 696.696 363.309 2
9 -14 -11 811.725 356.948 2
14 -11 -9 423.93 247.356 4
11 9 14 693.48 387.096 4
-14 -11 9 412.631 127.215 3
14 -9 11 322.353 291.037 2
14 -11 -9 456.118 292.991 2
-11 14 9 245.02 313.318 1
-14 -9 -11 417.518 381.218 3
-9 11 14 597.506 385.213 1
-11 -9 14 364.372 76.6483 3
-12 8 14 14.4129 299.281 1
-8 -14 -12 758.283 381.59 3
12 14 8 313.37 314.312 1
8 12 14 -173.83 277.196 1
-8 -12 14 -279.762 293.17 2
8 14 -12 -42.7591 283.197 1
-14 8 -12 -376.655 349.415 1
-12 14 -8 400.707 444.147 1
-8 12 -14 270.97 288.082 1
-8 14 12 447.993 365.376 1
-14 12 8 809.774 446.991 1
-12 8 14 144.105 299.153 2
14 -8 -12 -444.479 308.636 4
8 -14 12 -40.6209 309.663 2
14 8 12 -369.099 330.838 4
8 -12 -14 275.508 300.608 2
12 -14 -8 513.658 361.31 2
8 12 14 -265.239 383.037 4
14 -12 8 -162.239 342.99 2
12 -8 14 145.429 284.743 2
-12 -8 -14 182.979 313.182 3
-14 -12 -8 -417.241 375.579 3
-12 -14 6 202.586 128.724 3
12 14 6 12.7319 291.178 1
-6 -14 -12 304.579 334.182 3
-6 12 -14 403.575 313.344 1
-6 -14 -12 777.686 315.621 2
-6 -12 14 279.352 263.223 2
6 12 14 458.347 285.166 1
-6 14 12 804.133 348.285 1
-12 14 -6 -157.226 326.861 1
6 14 -12 89.6591 269.072 1
-14 12 6 400.553 409.208 1
6 -14 12 167.165 325.082 2
-12 6 14 436.387 300.469 1
-12 6 14 102.112 256.882 2
6 -12 -14 266.265 254.193 2
14 6 12 -198.121 285.835 4
12 -14 -6 -557.346 325.321 2
-12 6 14 -164.042 284.55 4
6 12 14 508.049 407.838 4
14 -12 6 74.8361 287.482 2
-12 -6 -14 -74.9224 276.646 3
-14 -12 -6 125.41 263.338 3
-12 -14 4 269.489 163.192 3
12 4 -14 300.895 217.147 1
12 14 4 135.078 297.177 1
-4 14 12 582.438 274.182 1
-4 14 12 651.658 340.5 2
-4 -14 -12 686.478 303.367 2
-12 14 -4 556.141 367.044 1
-4 -12 14 -120.297 225.779 2
4 12 14 35.788 256.918 1
4 -14 12 -182.215 259.883 2
-14 12 4 880.188 443.59 1
-12 4 14 841.352 287.276 1
4 14 -12 811.852 297.807 1
4 -12 -14 193.527 225.229 2
14 4 12 -268.184 314.591 4
-12 4 14 39.4398 213.38 4
-4 12 -14 735.138 288.783 1
-12 4 14 358.818 239.978 2
4 12 14 225.621 324.695 4
14 -12 4 607.957 326.887 2
-12 -4 -14 307.888 346.028 3
12 -14 -4 141.44 281.79 2
-14 -12 -4 102.744 215.533 3
-12 -14 2 851.861 251.861 3
12 14 2 935.176 416.69 1
-2 -12 14 806.964 261.88 1
-2 14 12 1005.94 282.462 2
-12 14 -2 693.394 425.826 1
-2 -14 -12 857.009 281.447 2
12 2 -14 1407.74 322.679 1
-2 -12 14 1197.98 342.772 2
-2 12 -14 734.267 281.463 1
2 -14 12 428.897 303.238 2
2 -12 -14 902.94 276.664 2
2 12 14 781.87 312.127 1
-14 12 2 1190.8 453.043 1
14 2 12 1072.75 383.719 4
-12 2 14 809.651 278.131 4
12 -14 -2 1143.16 364.924 2
2 14 -12 1188.65 334.694 1
2 12 14 1128.24 411.746 4
14 -12 2 717.709 352.133 2
-12 -2 -14 1818.14 482.267 3
-12 2 14 1127.48 330.424 2
-2 14 12 522.202 303.167 1
-14 -12 -2 1313.4 336.062 3
0 14 -12 312.714 253.737 1
-12 -14 0 162.148 210.676 3
12 14 0 11.6968 293.761 1
-12 14 0 -7.28158 378.944 1
0 12 -14 117.126 210.463 1
0 -12 14 136.972 197.232 1
0 -14 -12 -100.956 217.136 2
0 -12 -14 79.0247 177.69 2
0 -14 12 -17.415 266.121 2
0 -12 14 174.102 250.267 2
0 12 14 197.873 287.536 1
12 0 -14 -32.9938 217.291 1
-12 0 14 35.2101 209.854 4
14 0 12 -129.206 241.667 4
-14 12 0 451.96 372.314 1
-14 0 12 75.708 173.42 4
0 14 12 -151.487 301.834 1
12 -14 0 156.641 325.806 2
0 12 14 -59.6701 308.819 4
14 -12 0 128.358 283.036 2
12 0 14 243.957 289.676 4
-12 0 -14 -58.3593 293.574 3
-14 -12 0 -43.649 186.001 3
-12 -14 -2 972.025 287.111 3
12 -2 -14 437.291 257.426 1
12 14 -2 1411.04 417.787 1
-12 14 2 1489.92 471.324 1
-2 14 -12 686.326 337.745 1
-2 -12 -14 1027.37 262.436 2
-2 -14 12 830.787 332.842 2
2 -12 14 1363.2 327.124 1
2 -14 -12 667.111 276.982 2
2 -12 14 1402.67 398.054 2
2 14 12 1113.93 379.962 1
14 -2 12 743.906 339.596 4
12 2 14 1187.06 413.725 4
-14 12 -2 1216.55 424.234 1
-14 2 12 852.485 225.999 4
12 -14 2 913.167 349.217 2
14 -12 -2 1440.74 423.006 2
2 12 -14 1037.13 294.487 1
2 12 -14 1021.66 172.711 3
-2 12 14 655.852 297.029 1
-14 -12 2 991.492 259.586 3
-12 -14 -4 82.4171 213.479 3
12 -4 -14 391.742 257.815 1
-14 4 12 140.705 269.101 1
12 14 -4 188.761 258.763 1
-12 14 4 -303.146 335.013 1
-4 -12 -14 489.102 343.631 3
-4 12 14 54.0934 261.638 1
-4 12 14 687.319 294.503 2
-4 -12 -14 303.932 215.434 2
-4 -14 12 701.911 313.94 2
4 14 12 114.868 273.193 1
-4 14 -12 800.111 352.164 1
4 -14 -12 283.72 247.164 2
4 -12 14 201.918 250.94 2
4 -12 14 745.83 289.93 1
4 12 -14 169.099 201.766 1
12 4 14 -62.4592 282.708 4
12 -14 4 473.673 304.146 2
-14 4 12 78.3549 182.503 4
-14 12 -4 839.401 381.955 1
14 -12 -4 415.217 292.937 2
-14 -4 -12 155.703 329.059 3
-14 -12 4 522.739 197.478 3
-12 -14 -6 30.5271 239.972 3
-12 14 6 -157.707 360.879 1
-6 -12 -14 32.6574 261.26 3
12 14 -6 101.861 305.541 1
12 6 14 468.318 331.992 4
-6 -12 -14 97.2393 243.653 2
-14 6 12 142.21 288.434 1
-6 -14 12 588.989 343.845 2
-6 12 14 91.633 231.026 2
6 14 12 183.445 257.046 1
-6 12 14 437.233 320.752 1
6 12 -14 585.612 270.88 1
6 -14 -12 549.993 310.993 2
6 -12 14 45.833 268.004 2
12 -14 6 37.7858 273.554 2
-6 14 -12 498.395 321.505 1
14 -12 -6 413.54 318.572 2
-14 12 -6 484.195 305.726 1
-14 -6 -12 641.434 424.242 3
-14 -12 6 -91.5278 141.904 3
-12 -14 -8 62.3124 293.584 3
-14 12 -8 -127.508 352.924 1
-8 -12 -14 109.832 319.459 3
-12 14 8 52.0568 362.329 1
-8 14 -12 396.22 282.761 1
12 14 -8 189.819 320.338 1
-12 8 -14 -238.307 279.671 1
-8 -14 12 139.927 272.981 2
8 14 12 195.044 308.875 1
8 12 -14 76.7443 234.495 1
-8 12 14 -167.045 334.466 2
-14 8 12 -115.332 312.12 1
8 -14 -12 409.463 341.666 2
8 -12 14 -109.672 284.715 2
-8 12 14 82.3247 311.428 1
12 -14 8 -243.023 390.656 2
12 8 14 -321.011 351.426 4
14 -12 -8 33.2649 259.332 4
14 -12 -8 128.332 269.42 2
14 -8 12 -335.069 313.12 2
-14 -12 8 -34.3364 121.923 3
-14 -8 -12 -85.0149 331.484 3
14 13 -7 577.743 322.995 1
-13 -14 7 -97.2553 115.897 3
13 14 7 -413.514 305.411 1
-7 -14 -13 323.31 408.299 3
-7 -14 -13 152.587 261.792 2
-7 -13 14 -224.04 247.799 2
-7 13 -14 674.894 330.291 1
7 13 14 -191.627 271.33 1
7 14 -13 -90.2687 249.127 1
-7 14 13 213.319 322.271 1
-14 13 7 -424.464 466.488 1
-13 14 -7 107.053 334.93 1
-13 7 14 123.159 309.077 1
7 -14 13 149.071 290.069 2
7 -13 -14 355.036 274.819 2
14 7 13 535.02 398.299 4
13 -14 -7 -436.337 373.195 2
14 -13 7 -183.607 310.199 2
-13 7 14 33.0197 270.78 4
-13 -7 -14 -68.7879 297.962 3
-14 -13 -7 -353.016 330.73 3
14 13 -5 1199.99 419.653 1
-13 -14 5 548.645 169.825 3
13 14 5 1015.88 407.286 1
-5 -14 -13 798.68 372.378 3
5 -13 -14 852.809 292.484 2
-5 14 13 845.845 379.948 1
-5 -14 -13 1018.8 335.272 2
-5 14 13 1219.78 355.265 2
-5 -13 14 442.948 252.299 2
5 13 14 904.547 346.27 1
-13 14 -5 1011.07 438.335 1
-14 13 5 614.41 375.495 1
5 14 -13 1249.67 369.763 1
5 -14 13 631.123 297.77 2
14 5 13 515.223 357.321 4
-13 5 14 1055.4 345.908 2
-13 5 14 1095.91 322.556 4
13 -14 -5 1951.57 489.532 2
14 -13 5 1378.89 492.587 2
-13 5 14 603.778 319.632 1
-5 13 -14 1330.61 368.154 1
-13 -5 -14 602.171 342.671 3
-14 -13 -5 969.904 323.199 3
-13 -14 3 422.056 187.815 3
-3 14 13 241.775 298.552 1
-3 -13 14 189.346 232.193 1
13 14 3 190.429 287.82 1
-3 14 13 77.6631 227.958 2
-3 -14 -13 538.342 281.62 2
-3 -13 14 240.114 261.342 2
-13 14 -3 302.177 336.636 1
-14 13 3 35.6996 327.171 1
3 13 14 63.3286 264.781 1
3 -14 13 -101.119 269.356 2
-3 13 -14 2.44124 256.761 1
3 -13 -14 -15.9217 195.806 2
14 3 13 -131.001 275.475 4
3 14 -13 4.5473 244.365 1
-13 3 14 40.1722 201.507 4
13 -14 -3 251.065 279.289 2
14 -13 3 124.237 290.195 2
-13 3 14 -36.8744 215.553 2
3 14 -13 73.0366 65.3107 3
-13 -3 -14 287.041 295.924 3
13 3 -14 288.653 250.81 1
-14 -13 -3 -34.2377 235.551 3
-13 -14 1 212.933 181.273 3
13 14 1 232.141 334.61 1
-1 -13 14 687.812 248.656 1
-1 13 -14 938.344 330.706 1
-13 14 -1 465.03 338.918 1
-13 1 14 -69.9252 236.585 4
-1 -14 -13 704.181 283.004 2
-1 -13 14 877.655 312.472 2
1 -14 13 240.296 290.571 2
1 -13 -14 616.026 261.253 2
-14 13 1 -301.772 386.527 1
13 -1 14 454.144 307.211 4
-14 -1 13 178.835 236.066 4
1 13 14 163.569 259.786 1
14 1 13 404.702 313.646 4
13 -14 -1 444.035 347.17 2
14 -13 1 96.4956 277.578 2
-1 14 13 -118.151 314.713 1
-13 -1 -14 505.045 326.083 3
1 14 -13 516.667 285.796 1
13 1 -14 237.86 218.331 1
-14 -13 -1 166.232 206.869 3
-13 -14 -1 56.7976 217.015 3
13 14 -1 -353.637 334.68 1
-1 14 -13 768.861 296.679 1
-13 14 1 -393.746 424.76 1
1 -13 14 -30.5802 209.132 1
1 14 13 -42.9093 257.389 1
-1 -13 -14 824.444 267.138 2
13 -1 -14 1139.51 349.156 1
-1 -14 13 204.499 287.249 2
1 -14 -13 711.363 274.706 2
1 -13 14 249.788 305.781 2
-14 13 -1 -113.545 421.493 1
-13 -1 14 198.213 208.906 4
14 -1 13 -35.6271 328.769 4
13 1 14 612.611 336.348 4
-14 1 13 74.2799 210.353 4
13 -14 1 696.817 330.819 2
14 -13 -1 650.275 365.715 2
-1 13 14 -93.2549 304.449 1
-14 -13 1 210.985 183.349 3
1 13 -14 94.8511 232.919 1
-13 -14 -3 265.228 210.556 3
-3 13 14 35.191 264.302 1
13 14 -3 200.645 289.191 1
-3 13 14 -166.813 272.318 2
-13 14 3 814.349 460.103 1
-3 -13 -14 334.583 215.298 2
-3 -14 13 644.444 305.116 2
-3 14 -13 974.147 344.326 1
3 -13 14 356.872 246.549 1
3 14 13 -25.8096 272.808 1
3 -14 -13 187.701 236.322 2
3 -13 14 -58.1962 279.69 2
-14 13 -3 301.88 306.692 1
13 3 14 155.262 304.378 4
-14 3 13 120.649 195.66 4
3 13 -14 494.742 264.13 1
13 -14 3 566.702 395.327 2
14 -13 -3 648.058 343.179 2
-14 -3 -13 698.828 356.82 3
-14 -13 3 128.181 165.786 3
3 13 -14 105.853 63.7173 3
-13 -14 -5 1285.32 369.13 3
13 14 -5 741.063 353.823 1
-5 -13 -14 873.113 407.883 3
-5 -13 -14 918.339 295.797 2
-13 14 5 979.46 430.61 1
-5 13 14 1156.23 331.57 2
-5 13 14 639.643 303.361 1
-14 5 13 1588.85 405.551 1
-5 -14 13 1117.76 406.171 2
5 14 13 899.337 341.094 1
5 13 -14 1260.07 336.665 1
5 -13 14 749.086 337.393 2
-14 13 -5 734.671 432.841 1
5 -14 -13 1522.4 388.87 2
-5 14 -13 1073.48 330.182 1
13 5 14 1390.47 415.867 4
13 -14 5 1413.41 489.256 2
-14 5 13 849.736 235.943 4
14 -13 -5 1434.55 451.985 2
-14 -5 -13 722.785 395.38 3
-14 -13 5 1350.75 259.748 3
14 13 7 538.189 398.605 1
-13 -14 -7 187.84 266.325 3
-7 14 -13 -111.272 298.856 1
-7 -13 -14 153.867 339.939 3
13 14 -7 -91.4554 287.342 1
-7 -13 -14 320.16 258.918 2
-13 14 7 938.339 442.235 1
-7 -14 13 54.4638 274.731 2
7 14 13 158.732 324.725 1
-7 13 14 -106.154 255.338 2
7 13 -14 -308.759 305.897 1
-7 13 14 216.354 358.61 1
7 -14 -13 85.152 248.024 2
7 -13 14 297.284 322.378 2
13 7 14 -14.6035 315.969 4
13 -14 7 331.197 352.199 2
-14 7 13 333.903 294.822 1
-14 13 -7 311.69 374.886 1
14 -13 -7 416.29 355.564 2
-14 -7 -13 152.383 324.421 3
-14 -13 7 32.8051 135.673 3
14 14 0 6386.44 829.937 1
-14 14 0 9595.11 1020.58 1
0 -14 -14 8443.87 725.974 2
0 -14 14 9368.41 912.524 2
0 14 14 8529.24 875.908 1
0 14 -14 9589.44 824.987 1
14 -14 0 10164.7 997.804 2
14 0 14 9014.79 908.687 4
-14 0 14 8529.2 716.09 4
-14 -14 0 9464.69 778.635 3
14 14 2 683.189 376.707 1
14 14 -2 560.723 336.186 1
-2 -14 -14 331.772 235.569 2
-2 14 -14 1223.1 350.618 1
-2 -14 14 213.871 255.859 2
-14 14 2 -455.287 418.277 1
-14 14 -2 -292.327 475.966 1
2 -14 14 466.45 271.121 2
2 -14 -14 519.166 267.891 2
2 14 14 688.094 343.868 1
-14 -2 14 676.825 256.341 4
14 -2 14 393.118 310.172 4
14 2 14 657.152 350.089 4
-14 2 14 632.094 207.389 4
14 -14 2 909.924 389.449 2
14 -14 -2 601.633 327.693 2
2 14 -14 475.619 130.964 3
-14 -2 -14 648.415 384.13 3
2 14 -14 411.077 235.621 1
-2 14 14 466.34 318.236 1
-14 -14 2 1120.26 278.674 3
-14 -14 -2 580.565 285.465 3
14 14 4 19.7205 325.604 1
14 14 -4 -176.528 308.063 1
-4 14 14 178.068 352.127 1
-4 14 14 163.818 245.436 2
-4 -14 -14 108.459 227.513 2
-4 -14 14 567.32 287.267 2
-14 14 4 147.047 356.647 1
4 14 14 -11.9232 291.912 1
-14 14 -4 -109.242 338.464 1
4 -14 14 632.644 343.382 2
4 -14 -14 426.409 302.54 2
-4 14 -14 70.577 259.537 1
4 14 -14 233.826 309.511 1
14 4 14 18.8081 317.432 4
-14 4 14 129.316 230.597 4
14 -14 4 501.924 332.731 2
14 -14 -4 403.402 287.983 2
-14 -4 -14 -172.561 360.398 3
-14 -14 4 48.0304 156.275 3
-14 -14 -4 97.2054 239.055 3
14 14 6 143.063 364.011 1
14 14 -6 37.6991 286.871 1
-6 -14 -14 -477.088 370.381 3
-6 -14 -14 114.371 244.665 2
-6 -14 14 -255.645 312.686 2
-6 14 14 469.253 359.077 1
6 14 14 -99.8379 289.4 1
-14 14 6 295.009 344.803 1
-14 6 14 771.694 358.668 1
6 14 -14 400.716 301.256 1
6 -14 14 51.4534 288.076 2
-14 14 -6 -306.28 406.693 1
6 -14 -14 79.7228 269.509 2
14 6 14 88.7955 338.306 4
14 -14 6 343.073 368.534 2
-14 6 14 -296.17 246.706 4
14 -14 -6 -176.089 280.283 2
-14 -6 -14 -184.365 389.75 3
-6 14 -14 -86.0525 263.971 1
-14 -14 6 -5.41736 143.849 3
-14 -14 -6 80.7145 256.375 3
-1 0 -15 2789.43 439.06 3
0 1 -15 3131.43 443.443 3
0 -1 -15 3383.08 483.106 3
1 0 -15 3975.21 499.101 3
-1 -15 0 3646.58 525.854 2
0 -15 -1 4024.49 541.46 2
0 -15 1 2742.92 474.127 2
1 -15 0 4097.47 567.658 2
-1 0 15 3614.19 556.309 4
0 -1 15 2736.68 211.188 2
15 -1 0 2516.23 195.596 4
1 0 15 4442.1 624.937 4
15 0 1 2913.5 250.851 4
1 15 0 3163.35 506.401 1
0 1 15 3986.73 604.472 4
0 15 1 3457.52 525.858 1
0 15 -1 3281.94 520.132 1
-1 15 0 3902.88 577.293 1
1 0 15 3659.15 447.874 3
0 -1 15 3727.07 424.619 3
0 1 15 3238.04 435.117 3
-1 0 15 3307.09 417.292 3
-1 2 -15 11812.9 563.894 2
2 15 1 10965.4 948.272 1
-2 -15 1 12274.6 953.218 2
-1 -15 -2 11044.3 909.276 2
1 15 -2 12317.1 994.671 1
1 -15 2 10960.8 914.716 2
2 -15 -1 12160.8 937.787 2
-1 15 2 10856.5 940.942 1
-1 -2 15 10090.4 537.673 2
-2 15 -1 12053.9 989.668 1
-2 1 15 11748.2 968.291 4
15 -2 1 10191.2 530.293 4
1 2 15 12201.6 1016.73 4
15 1 2 12185.3 604.166 4
-1 -2 15 12246.5 764.896 3
-2 1 15 11986.1 820.496 3
-1 2 -15 11804.8 829.98 3
-2 -1 -15 11436.7 880.085 3
2 15 1 13569.3 930.606 3
2 1 -15 12485 827.019 3
1 -2 -15 10938 857.094 3
2 15 -1 11768.7 988.896 1
-2 -15 -1 11235.3 923.658 2
-2 1 -15 10405.7 530.703 2
-1 -15 2 11787.6 933.643 2
1 15 2 11781.3 969.885 1
1 -15 -2 13112 951.4 2
2 -15 1 12853.1 977.716 2
-1 15 -2 12370.5 992.005 1
-2 15 1 11017.9 956.629 1
1 -2 15 12116.8 595.066 2
2 1 15 11705.8 985.26 4
-1 2 15 12792.2 1005.9 4
15 -1 2 12450.4 609.794 4
-2 -1 15 12553.9 780.76 3
-1 2 15 10512.6 795.604 3
-2 1 -15 11963.7 872.425 3
-1 -2 -15 12496.8 916.57 3
1 2 -15 12558.5 817.88 3
2 1 15 9729.71 481.115 1
-3 15 -2 2313.73 448.414 1
-3 2 15 1996.54 360.877 3
2 -3 -15 1855.92 197.183 1
-3 -2 -15 2098.97 423.361 3
3 15 2 3018.23 456.603 3
-3 -15 2 1562.04 390.953 2
-3 2 15 2975.72 528.195 4
-2 3 -15 2212.47 275.278 2
-2 -15 -3 1886.44 389.626 2
2 3 15 1733.51 227.412 1
-2 -3 15 1750.87 237.742 2
2 -15 3 2258.52 428.857 2
-3 2 15 1626.96 168.165 1
3 -15 -2 2046.39 420.296 2
3 15 2 2483.05 502.34 1
2 15 -3 1643.23 423.167 1
3 -2 15 3028.82 311.398 2
-3 -2 -15 1702.79 194.423 2
3 -2 15 1874.4 206.922 1
2 3 15 1808.35 448.359 4
15 2 3 2090.57 278.995 4
-2 15 3 1987.77 485.875 1
-2 -3 15 1783.08 291.709 3
-2 3 -15 2032.4 360.022 3
0 3 -15 348.226 203.909 3
3 15 0 -186.475 225.659 3
0 -3 -15 74.8202 236.952 3
-3 -15 0 -57.3486 259.496 2
3 0 15 215.291 116.912 1
0 -15 -3 -189.352 204.477 2
0 -15 3 269.401 260.132 2
-15 -3 0 -19.0482 113.826 4
3 -15 0 379.873 282.954 2
-3 0 -15 232.991 126.298 2
3 15 0 -126.498 304.833 1
0 -3 15 472.272 165.558 2
-3 0 15 31.9427 242.319 4
0 3 15 202.716 258.32 4
0 15 3 457.703 300.339 1
15 0 3 347.45 173.21 4
0 15 -3 66.9439 273.588 1
0 3 15 127.959 113.853 1
-3 15 0 102.395 261.022 1
-3 0 15 55.2189 177.344 3
3 0 15 283.27 303.637 4
-3 0 -15 695.643 281.122 3
-2 -3 -15 1864.63 393.386 3
2 3 -15 2197.73 340.016 3
3 15 -2 2183.73 351.842 3
3 2 15 1960.94 231.187 1
-3 -15 -2 2051.76 430.67 2
-2 -15 3 1847.89 398.736 2
2 -3 15 1841.14 176.226 1
-3 -2 15 2175.67 230.403 2
-3 2 -15 2468.42 292.877 2
2 -15 -3 1906.46 409.763 2
3 -15 2 2674.13 469.074 2
3 15 -2 1973.26 407.756 1
-2 3 15 2807.81 522.802 4
2 15 3 1720.81 433.393 1
-15 -3 2 2042.48 199.302 4
-2 3 15 1667.19 207.54 1
15 -2 3 2075.42 270.863 4
3 2 15 1969.83 471.397 4
2 -3 15 2521.26 305.733 2
-2 15 -3 2590.25 492.655 1
3 -2 -15 1765.8 170.528 1
-3 -2 15 2093.39 322.127 3
-3 15 2 2077.61 451.141 1
-3 2 -15 1618.17 346.276 3
-4 -3 -15 2183.83 455.06 3
-15 4 3 2806.4 490.88 1
-4 3 15 2451.91 447.439 4
3 15 -4 3044.85 371.294 3
-4 15 -3 2413.7 491.401 1
3 4 15 2366.61 283.608 1
3 -4 -15 2545.63 269.949 1
-4 -15 3 3076.66 498.166 2
-3 -15 -4 2321.3 424.672 2
-3 -4 15 2997.03 319.313 2
-3 4 -15 2495.86 337.759 2
4 15 3 2455.07 485.344 1
3 -15 4 2755.79 485.268 2
4 -15 -3 2662.8 455.486 2
3 15 -4 2592.18 471.84 1
-4 3 15 2539.51 262.316 1
4 -3 15 2669.14 282.415 1
-15 -4 -3 2329.05 346.933 4
-15 -3 4 1749.58 174.504 4
3 4 15 2811.83 509.331 4
15 3 4 2304.48 336.937 4
-4 -3 -15 2082.92 230.955 2
-3 -4 15 3180.35 348.967 3
4 -3 15 2462.87 332.359 2
-3 4 -15 2036.35 374.296 3
-3 15 4 2011.2 442.793 1
-4 1 15 326.139 198.066 3
4 15 1 136.294 185.19 3
-4 15 -1 -138.712 314.616 1
15 1 4 565.962 197.689 4
-1 4 -15 466.979 152.903 2
-4 -15 1 874.706 346.256 2
-1 -15 -4 978.791 337.037 2
1 -15 4 730.218 288.947 2
4 15 1 240.922 264.035 1
-1 -4 15 331.046 168.524 2
4 -15 -1 460.834 278.768 2
1 4 15 635.835 157.582 1
4 -1 15 485.938 158.926 1
-4 -1 -15 310.137 138.271 2
-15 -4 -1 332.655 166.952 4
1 15 -4 616.701 267.817 1
1 4 15 324.4 317.035 4
-15 4 1 1180.06 350.554 1
-1 15 4 460.976 314.06 1
-4 1 15 313.141 266.886 4
-1 4 -15 848.024 275.286 3
-4 -1 -15 617.047 303.648 3
-1 4 15 522.511 160.691 1
1 4 -15 532.93 223.619 3
4 15 -1 266.339 209.072 3
-4 15 1 100.736 242.814 1
-1 -4 -15 213.612 238.508 3
-4 -1 15 225.686 99.36 2
-4 -15 -1 459.766 303.645 2
-1 -15 4 602.898 301.4 2
4 -1 -15 382.983 84.2916 1
1 -15 -4 798.473 315.043 2
4 15 -1 286.293 271.747 1
4 -15 1 281.428 264.834 2
-4 1 -15 811.328 211.299 2
15 -1 4 524.638 195.8 4
1 -4 15 173.654 173.321 2
4 1 15 61.6438 272.84 4
-1 4 15 27.4212 258.424 4
-15 -4 1 851.592 171.79 4
-15 4 -1 430.799 253.925 1
1 15 4 214.435 251.491 1
-1 15 -4 350.856 269.948 1
-4 1 -15 271.8 227.847 3
-4 -1 15 116.99 164.17 3
-3 -4 -15 2723.58 477.752 3
-3 15 -4 1899.76 419.243 1
-4 15 3 2920.26 534.496 1
4 15 -3 2685.94 357.597 3
4 3 15 2359.53 283.985 1
-4 -15 -3 2726.31 464.626 2
-4 -3 15 2295.72 268.239 2
-3 -15 4 2234.19 433.013 2
4 -3 -15 2260.27 238.959 1
-4 3 -15 2470.17 342.021 2
4 15 -3 2857.03 525.513 1
3 -4 15 2694.11 261.463 1
3 -15 -4 2597.89 442.542 2
3 15 4 2772.38 493.587 1
4 -15 3 2828.94 505.991 2
-15 -4 3 2357.02 247.61 4
4 3 15 2443.45 505.031 4
-3 4 15 2571.27 288.383 1
-3 4 15 2338.64 492.037 4
3 -4 15 2836 344.998 2
-4 3 -15 1798.72 354.038 3
-4 -3 15 2817.15 333.186 3
-5 -4 -15 1435.65 369.094 3
-4 15 5 2186.38 461.787 1
4 15 -5 3286.41 334.557 3
-15 5 4 2881.49 514.164 1
4 5 15 2338.58 309.451 1
-5 -15 4 2631.93 502.034 2
-5 4 15 2031.56 211.219 2
-4 -15 -5 3116.64 517.944 2
-5 15 -4 2838.08 511.469 1
-4 -5 15 2642.31 323.695 2
5 15 4 3463.49 564.729 1
-4 5 -15 3119.25 424.52 2
4 -5 -15 2901.26 311.326 1
-5 4 15 3121.79 332.93 1
4 15 -5 2604.22 475.699 1
4 -15 5 2440.98 473.432 2
5 -15 -4 3330.23 504.908 2
5 -4 15 2857.69 331.735 1
-15 -5 -4 2237.53 363.48 4
-5 4 15 2832.35 485.725 4
4 5 15 2194.08 482.174 4
15 4 5 2708.73 368.559 4
-4 -5 15 2816.58 312.161 3
5 -4 15 3170.44 408.603 2
-4 5 -15 2884.88 426.54 3
5 4 -15 2292.01 213.301 1
5 4 -15 2342.86 210.987 1
5 15 2 1655.84 328.124 3
-5 2 15 1562.54 326.138 3
2 -5 -15 1988.01 252.273 1
-5 15 -2 1699.08 426.571 1
-15 5 2 2269.42 446.487 1
-5 -15 2 2640.58 494.418 2
-2 5 -15 1940.03 225.697 1
-2 5 -15 2418.33 338.87 2
-2 -15 -5 2477.68 444.59 2
5 -2 15 1870.21 265.222 1
5 15 2 1994.65 450.479 1
-2 -5 15 2216.31 311.654 2
2 5 15 1558.35 250.366 1
-5 2 15 1757.61 215.161 1
2 -15 5 2376.59 450.157 2
-5 2 15 1669.79 182.968 2
5 -15 -2 2048.59 437.447 2
2 15 -5 1902.8 418.38 1
-5 2 15 1702.34 384.53 4
-15 -5 -2 1930.47 304.392 4
2 5 15 2799.97 549.677 4
15 2 5 2453.59 344.898 4
-5 -2 -15 1877.34 263.807 2
-2 15 5 1737.27 420.354 1
-2 5 -15 1443.15 293.341 3
-5 -2 -15 1887.06 405.27 3
5 15 0 -91.325 185.274 3
-5 0 15 263.346 194.902 3
0 -5 15 80.7708 65.0119 1
0 -5 -15 320.711 249.98 3
0 5 -15 103.068 73.6012 1
0 5 -15 213.264 170.214 2
-5 15 0 -217.394 268.831 1
-5 -15 0 484.696 299.296 2
0 -15 -5 147.844 225.429 2
5 15 0 310.753 267.601 1
0 -15 5 547.973 299.677 2
-15 5 0 649.021 339.957 1
5 -15 0 293.236 253.56 2
0 -5 15 -14.1762 153.383 2
-5 0 15 82.1943 240.06 4
5 0 15 351.577 329.373 4
-5 0 -15 9.21318 167.797 2
15 0 5 342.53 179.845 4
0 15 5 248.035 281.45 1
0 5 15 55.8472 266.909 4
-15 -5 0 8.90059 157.105 4
0 5 15 411.832 179.545 1
0 15 -5 436.922 309.647 1
5 0 15 69.748 138.58 1
5 0 -15 122.553 64.2789 1
-5 0 -15 -192.963 258.386 3
0 5 -15 1.85959 176.777 3
-5 -2 15 2322.28 318.812 3
5 15 -2 1796.34 296.939 3
2 5 -15 2394.18 327.933 3
-2 -5 -15 1731.45 405.621 3
-5 15 2 1857.37 426.321 1
2 -5 15 2242.16 236.925 1
-5 -2 15 2576.4 265.81 2
-2 5 15 1568.6 244.107 1
-5 -15 -2 2250.28 442.463 2
-2 -5 -15 1456.84 159.636 2
-2 -15 5 2193.25 450.457 2
5 15 -2 2169.56 421.708 1
2 -15 -5 1840.16 380.759 2
5 -15 2 1817.07 403.158 2
-5 2 -15 2475.14 354.366 2
2 15 5 1543.32 422.514 1
15 -2 5 1790.23 293.215 4
5 2 15 2071.22 464.954 4
2 -5 15 1966.21 322.802 2
-2 5 15 2153.36 441.728 4
-15 -5 2 2470.64 279.793 4
5 -2 -15 1699.02 202.824 1
-15 5 -2 2357.11 432.887 1
-5 2 -15 1670.44 355.041 3
-2 15 -5 2749.15 492.636 1
5 15 -4 2266 288.282 3
-4 -5 -15 2291.72 441.531 3
5 4 15 2128.56 299.5 1
-4 5 15 1942.35 179.898 2
5 -4 -15 2891.78 310.534 1
-5 15 4 3171.63 564.934 1
4 5 -15 2011.74 198.112 1
-4 15 -5 2740.61 502.686 1
-5 -4 15 2938.85 331.266 2
-5 -15 -4 3087.96 514.704 2
-4 -15 5 2845.87 497.944 2
5 15 -4 2756.9 491.062 1
4 15 5 2460.76 483.186 1
-5 4 -15 3235.48 431.294 2
4 -5 15 3396.82 345.999 1
4 -15 -5 2908.46 470.301 2
5 -15 4 3811.68 575.863 2
15 -5 -4 2791.88 227.127 4
-15 -4 -5 2536.1 389.146 4
5 4 15 2914.85 552.857 4
-4 5 15 2815.75 496.538 4
4 -5 15 2945.19 425.117 2
-15 5 -4 2417.75 483.909 1
-4 5 15 2217.7 317.653 1
-15 4 5 2948.14 503.225 1
-5 4 -15 2633.47 430.2 3
-5 -4 15 2921.31 319.943 3
-6 -5 -15 3760.35 581.687 3
5 -6 -15 4172.26 420.507 1
-5 -6 15 4435.79 451.771 2
-5 15 6 3851.35 589.515 1
5 6 15 3288.82 404.93 1
-6 5 15 4710.68 468.474 1
-5 -15 -6 3981.12 592.796 2
-6 -15 5 4063.95 587.504 2
-6 5 15 3652.95 345.767 2
-15 6 5 3648.99 581.975 1
6 15 5 3401.26 577.726 1
-6 15 -5 3630.39 605.822 1
-5 6 -15 4964.69 568.779 2
5 15 -6 4103.11 576.467 1
5 -15 6 4409.45 624.674 2
6 -15 -5 3899.38 552.27 2
15 -5 -6 4200.52 315.048 4
-15 -6 -5 4848.61 548.791 4
5 6 15 4621.77 657.544 4
-6 5 15 4496.11 580.991 4
6 -5 15 4362.3 446.135 1
-15 5 -6 4039.64 616.733 1
15 5 6 4157.1 490.796 4
-5 -6 15 5121.27 379.979 3
6 -5 15 4480.28 512.025 2
5 15 -6 4689.23 375.143 3
-5 6 -15 4497.82 529.306 3
-5 6 -15 4646.31 453.157 1
6 5 -15 4313.02 337.905 1
6 -3 15 401.903 195.892 1
-6 -15 3 328.051 284.319 2
-6 3 15 623.278 310.118 4
-3 -15 -6 635.328 280.341 2
3 -6 -15 1007.32 223.071 1
6 15 3 991.938 397.188 1
3 6 15 485.867 174.183 1
-3 6 -15 832.008 267.645 2
-3 -6 15 324.517 177.349 2
-15 6 3 607.918 323.549 1
-6 15 -3 345.664 302.171 1
-3 6 -15 420.67 181.01 1
-6 3 15 412.365 138.618 2
-6 3 15 187.506 139.847 1
3 -15 6 659.121 307.175 2
3 15 -6 289.903 233.539 1
6 -15 -3 275.268 232.384 2
-15 -6 -3 345.493 213.246 4
3 6 15 257.755 289.225 4
15 3 6 276.559 210.285 4
-6 -3 -15 354.029 184.884 2
-3 6 -15 569.08 223.709 3
6 3 -15 361.357 113.358 1
-3 15 6 410.549 328.923 1
-6 -3 -15 628.84 301.792 3
-6 1 15 4159.57 471.43 3
-1 6 -15 4555.4 456.206 2
-6 -15 1 4565.08 632.527 2
-1 -6 15 4473.93 447.847 2
-1 6 -15 4525.55 346.911 1
6 1 -15 3498.24 282.003 1
-6 15 -1 4103.42 622.776 1
6 15 1 3047.04 526.864 1
-1 -15 -6 4166.01 547.883 2
1 -15 6 4354.49 601.277 2
-15 6 1 4582.07 628.777 1
-6 -1 -15 4567.3 440.221 2
6 -1 15 4470.67 416.249 1
1 15 -6 4567.46 604.051 1
6 -15 -1 3944.24 572.934 2
1 6 15 3871.42 390.797 1
15 1 6 4566.45 486.406 4
-6 1 15 3918.17 321.655 2
-6 1 15 4473.05 577.32 4
-15 -6 -1 4189.15 430.214 4
1 6 15 4064.18 609.288 4
-1 15 6 3910.66 591.949 1
6 15 1 4435.52 502.563 3
1 -6 -15 4548.93 409.423 1
-1 6 -15 3872.38 432.353 3
-6 -1 -15 3528.81 542.962 3
6 1 15 4007.06 634.255 4
-15 6 -1 4317.9 594.43 1
-1 -6 -15 4148.26 581.367 3
-1 -6 -15 2903.87 240.168 2
-6 -15 -1 4267.39 580.938 2
-6 15 1 3533.75 597.234 1
6 15 -1 3885.11 561.672 1
1 -6 15 4497.43 479.435 2
-1 -15 6 4682.43 604.661 2
-1 6 15 4054.65 409.049 1
1 -15 -6 3588.11 508.044 2
6 -1 -15 3724.42 305.317 1
1 15 6 4137.53 603.347 1
6 -15 1 4628.02 604.624 2
15 -1 6 4282.54 464.305 4
-15 -6 1 4624.58 412.5 4
-6 1 -15 3778.7 433.375 2
-1 6 15 3950.22 596.274 4
1 6 -15 3424.41 273.805 1
6 15 -1 4282.22 455.934 3
1 6 -15 4159.46 421.136 3
-6 -1 15 4588.56 472.954 3
-1 15 -6 2976.04 516.378 1
-6 1 -15 4115.16 554.936 3
1 -6 15 4385.79 321.706 1
-6 -3 15 582.49 188.259 3
-3 -6 -15 269.383 268.907 3
3 6 -15 614.4 186.421 3
-3 15 -6 254.142 273.029 1
-3 -6 -15 271.607 117.964 2
-6 -15 -3 707.982 322.333 2
-6 15 3 459.003 339.71 1
-3 -15 6 876.752 347.516 2
-3 6 15 477.983 186.864 1
6 15 -3 672.253 323.653 1
3 -15 -6 376.585 272.633 2
3 15 6 56.4183 275.238 1
-6 3 -15 338.012 219.378 2
6 -15 3 467.428 280.906 2
3 -6 15 474.612 216.197 2
6 3 15 465.498 272.489 4
-3 6 15 716.524 322.296 4
3 -6 15 755.042 193.257 1
6 -3 -15 439.835 168.662 1
-6 3 -15 608.436 282.797 3
3 6 -15 533.873 117.033 1
-15 6 -3 655.601 316.337 1
6 15 -3 801.564 202.087 3
5 6 -15 3739.36 315.333 1
-5 -6 -15 3737.66 584.104 3
-15 5 6 4005.7 566.365 1
-6 -5 15 4553.14 439.497 2
-5 6 15 4126.44 339.965 2
-6 -15 -5 4214.82 599.099 2
6 -5 -15 4345.26 412.627 1
-6 15 5 4353.17 631.42 1
-5 -15 6 3542.15 555.113 2
-5 15 -6 4648.71 634.662 1
6 15 -5 4217.86 591.817 1
5 15 6 3931.47 634.851 1
-15 6 -5 3457.1 583.366 1
-6 5 -15 4442.66 543.505 2
5 -6 15 4996.92 550.39 2
5 -6 15 5140.31 475.074 1
5 -15 -6 4591.86 586.998 2
6 -15 5 4550.32 619.965 2
15 -6 -5 4236.37 328.954 4
-15 -5 -6 3781.01 516.149 4
6 5 15 4504.27 649.259 4
-5 6 15 3705.94 558.319 4
-6 -5 15 4561.48 377.415 3
6 15 -5 4271.6 368.307 3
-5 6 15 3747.48 448.096 1
-6 5 -15 3564.81 501.538 3
6 5 15 4329.51 452.188 1
-7 -6 -15 1647.31 429.044 3
7 6 -15 1964.86 257.192 1
6 7 15 1670.9 345.297 1
-6 -15 -7 2125.65 458.13 2
-7 -15 6 1619.05 431.038 2
-6 -7 15 1958.33 339.823 2
-6 15 7 2082.54 473.099 1
7 15 6 1493.6 390.292 1
-15 6 -7 2041.06 459.596 1
6 15 -7 1732.27 448.658 1
-7 6 15 1910.45 341.609 1
-6 7 -15 1621.72 384.002 2
7 -6 15 2534.89 369.281 1
-7 6 15 1609.22 276.467 2
-7 15 -6 1784.36 440.406 1
6 -15 7 1829.05 457.98 2
7 -15 -6 2335.79 454.541 2
6 -7 -15 1933.01 332.027 1
15 -6 -7 1874.48 263.345 4
-15 -7 -6 1854.78 401.472 4
6 7 15 1224.5 424.457 4
-7 6 15 2206.82 414.672 4
-6 7 -15 1832.02 336.472 1
15 6 7 1787.67 388.66 4
-15 7 6 2613.59 487.177 1
7 -6 15 2212.61 431.724 2
-15 -7 -6 2682.29 493.84 3
6 15 -7 1634.01 199.86 3
-4 15 7 571.476 343.621 1
4 15 -7 475.143 142.73 3
-4 7 -15 633.147 220.706 1
-7 4 15 741.291 219.52 1
-7 -15 4 693.715 302.838 2
-4 -15 -7 332.966 271.976 2
4 7 15 525.075 216.036 1
7 15 4 225.913 289.362 1
-4 -7 15 341.755 191.654 2
-4 7 -15 329.328 200.24 2
4 -7 -15 460.316 183.347 1
7 4 -15 723.557 175.4 1
-7 15 -4 27.0249 274.2 1
4 15 -7 413.654 294.155 1
4 -15 7 298.17 283.643 2
7 -15 -4 549.472 288.794 2
-7 4 15 465.016 171.796 2
-7 4 15 897.09 343.582 4
4 7 15 680.354 350.236 4
15 4 7 436.536 238.383 4
-15 7 4 692.602 353.185 1
-4 7 -15 514.233 243.526 3
4 -7 -15 539.606 151.111 2
7 -4 15 19.0242 218.501 2
7 -4 15 452.666 200.293 1
-7 -4 -15 498.363 341.589 3
-15 -7 -4 867.904 293.665 4
-7 2 15 2882.15 429.857 3
-7 -15 2 2391.78 458.603 2
2 -7 -15 3086.74 364.44 1
-2 7 -15 3114.35 413.424 2
7 15 2 2741.32 507.878 1
-2 -15 -7 2596.98 455.705 2
-2 -7 15 2816.16 383.288 2
7 2 -15 2422.27 271.954 1
-7 15 -2 3176.19 562.649 1
2 -15 7 2823.15 515.979 2
2 7 15 2471.56 339.913 1
-2 7 -15 3070.98 339.548 1
2 -7 -15 2194.29 235.816 2
7 -15 -2 2731.44 477.391 2
2 15 -7 2883.86 514.622 1
-7 2 15 2372.24 438.289 4
7 -2 15 2239.09 334.868 1
15 2 7 2447.27 398.158 4
2 7 15 2551.1 509.841 4
-15 -7 -2 2900.27 392.358 4
-7 2 15 2720.33 299.893 2
-7 -2 -15 2964.6 383.739 2
-2 15 7 2672.84 514.49 1
-15 7 2 3179.12 557.33 1
-2 7 -15 2453.54 367.328 3
-7 -2 -15 1815.46 422.456 3
7 15 2 2060.02 371.134 3
0 -7 -15 3676.1 411.048 1
0 7 -15 4866.21 491.22 2
-7 -15 0 5033.32 650.121 2
0 -7 15 4960.66 508.832 2
7 15 0 5000.46 675.107 1
0 -7 -15 3301.17 287.875 2
0 -15 -7 3824.77 530.661 2
0 -15 7 5136.63 652.479 2
-7 15 0 4339.08 657.555 1
7 -15 0 3869.81 562.53 2
-7 0 15 4858.38 600.139 4
-15 -7 0 4973.72 477.226 4
15 0 7 3896.12 468.1 4
0 15 7 4111.62 608.099 1
0 7 15 3676.62 418.896 1
-7 0 -15 4293.89 453.557 2
7 0 -15 4219.07 353.876 1
0 7 15 3382.19 615.65 4
0 15 -7 4697.95 610.08 1
0 7 -15 4542.05 446.265 3
0 7 -15 3993.14 348.718 1
7 0 15 4025.4 629.623 4
7 0 15 4211.93 434.855 1
-7 0 15 5137.83 525.29 3
-7 0 -15 3704.48 558.405 3
0 -7 15 5615.97 370.941 1
7 15 0 4309.38 478.84 3
-15 7 0 4596.73 633.011 1
-2 15 -7 3137.72 523.959 1
2 7 -15 2924.02 331.721 3
-7 -2 15 3305.4 383.933 3
-2 7 15 2503.97 353.382 1
-2 -7 -15 2399.52 478.92 3
7 -2 -15 3003.25 316.685 1
-15 7 -2 2732.53 551.109 1
-7 -15 -2 2804.87 491.586 2
-2 -7 -15 2136.16 242.932 2
7 15 -2 2446.58 484.069 1
-2 -15 7 3383 541.972 2
-7 15 2 2030.91 466.541 1
2 -15 -7 2269.26 409.312 2
2 7 -15 2507.33 264.517 1
2 -7 15 2899.61 306.612 1
2 15 7 1896.29 438.615 1
2 -7 15 3395.11 457.221 2
7 -15 2 2392.37 460.279 2
-7 2 -15 2396.93 383.034 2
15 -2 7 2672.46 396.721 4
7 2 15 2423.01 477.378 4
-2 7 15 3013.13 542.026 4
-7 2 -15 2647.1 476.551 3
7 15 -2 2855.07 368.369 3
-7 -4 15 1035.49 231.125 3
-4 -7 -15 592.616 298.068 3
-7 -15 -4 227.189 191.932 3
-7 -15 -4 746.148 269.709 2
-4 7 15 627.809 151.729 2
-4 15 -7 418.81 270.01 1
-4 -15 7 740.928 303.719 2
7 15 -4 240.548 252.002 1
-7 15 4 1033.21 405.226 1
-15 7 -4 349.415 302.053 1
4 15 7 397.865 293.787 1
-4 7 15 819.403 247.419 1
4 -15 -7 548.224 269.87 2
-7 4 -15 -46.2319 228.035 2
7 -15 4 92.2956 268.815 2
4 7 -15 550.373 158.292 1
4 -7 15 407.013 215.127 2
7 4 15 198.375 273.871 4
-4 7 15 -34.6182 291.387 4
-7 4 -15 126.244 229.587 3
4 -7 15 281.79 164.311 1
-15 4 7 374.937 301.183 1
7 -4 -15 433.157 188.694 1
7 15 -4 256.632 167.116 3
-6 -7 -15 1220.51 410.575 3
7 6 15 1928.41 341.624 1
-7 -15 -6 766.146 316.369 3
-7 -6 15 2230.25 346.014 2
-7 -15 -6 1106.34 421.405 2
6 -7 15 1899.69 334.791 1
-6 -15 7 1709.98 422.186 2
6 7 -15 1616.52 244.399 1
-15 6 7 1862.32 447.65 1
7 15 -6 1985.23 432.582 1
6 15 7 1202.49 405.665 1
-7 15 6 1170.36 421.665 1
-6 7 15 2400.42 317.94 2
-6 15 -7 1756.05 478.167 1
-7 6 -15 1685.83 383.967 2
-7 6 -15 2111.32 370.411 1
6 -15 -7 2241.39 442.311 2
7 -15 6 2014.05 495.831 2
-15 -6 -7 1969.84 412.337 4
7 6 15 1628.96 461.653 4
15 -7 -6 2409.25 297.07 4
-6 7 15 1971.06 433.726 4
-15 7 -6 1982.04 478.344 1
6 -7 15 2152.59 403.468 2
7 -6 -15 1715.11 303.097 1
-15 -6 -7 2191.51 459.977 3
7 15 -6 1650.53 215.927 3
-6 7 15 1724.79 331.852 1
-7 -6 15 1892.93 228.445 3
-8 -7 -15 474.709 338.31 3
-7 -15 -8 113.971 250.679 3
8 7 -15 226.951 165.577 1
7 8 15 135.043 200.149 1
-7 -15 -8 230.612 263.784 2
-8 -15 7 60.8119 248.018 2
-7 -8 15 527.422 236.459 2
8 15 7 284.643 350.473 1
8 -15 -7 225.888 246.869 2
-15 7 -8 412.659 337.528 1
7 15 -8 192.523 239.093 1
-7 15 8 -110.922 306.407 1
-8 7 15 382.243 289.926 1
8 -7 15 135.3 199.905 1
-15 8 7 -478.92 275.065 1
-8 7 15 191.03 206.691 2
-7 8 -15 158.423 224.066 1
7 -15 8 108.686 255.702 2
15 -7 -8 171.645 186.908 4
7 -8 -15 69.0629 181.705 1
-8 15 -7 -242.978 315.247 1
7 8 15 468.084 385.136 4
-8 7 15 414.208 274.234 4
15 7 8 161.276 247.027 4
8 -7 15 323.837 234.579 2
-15 -8 -7 255.291 260.231 3
15 -8 7 45.5725 277.919 2
-8 5 15 2245.99 358.734 1
-5 15 8 2889.86 530.58 1
-8 -15 5 2466.36 534.04 2
-5 -15 -8 1145.4 362.5 2
8 15 5 2302.98 502.298 1
5 8 15 2345.6 394.232 1
-5 -8 15 2842.11 407.443 2
-15 -8 -5 1976.66 431.432 4
-5 8 -15 2018.08 405.08 2
5 15 -8 2102.83 435.612 1
5 -8 -15 2222.6 340.186 1
-15 8 5 2482.11 500.766 1
5 -15 8 1665.33 411.162 2
-8 5 15 2731.43 356.148 2
8 -15 -5 1707.01 435.19 2
-8 15 -5 1299.43 427.465 1
-8 5 15 1696.71 414.156 4
5 8 15 2246.5 487.969 4
15 5 8 2086.6 369.446 4
5 -8 -15 2835.99 321.207 2
8 -5 15 3047.7 409.857 1
-15 -8 -5 2492.29 469.44 3
8 -5 15 3072.91 455.13 2
15 -8 5 2606.44 494.216 2
-5 8 -15 1965.7 344.445 1
-8 -5 -15 1701.52 475.051 3
5 15 -8 1780.5 196.789 3
-8 -15 3 988.452 383.512 2
8 15 3 972.542 371.005 1
-3 -15 -8 935.956 323.383 2
8 3 -15 1064.18 208.128 1
3 -8 -15 1030.06 249.791 1
-3 8 -15 1222.13 319.148 2
-3 -8 15 984.389 265.4 2
3 8 15 829.034 244.135 1
-3 8 -15 532.73 206.259 1
8 -3 15 1171.56 283.354 1
3 -15 8 977.414 352.606 2
-15 -8 -3 905.271 300.168 4
-15 8 3 434.191 278.664 1
-8 15 -3 1144.92 364.103 1
3 15 -8 1117.79 363.445 1
-8 3 15 826.389 222.995 1
8 -15 -3 1362.73 352.17 2
-8 3 15 970.62 308.769 4
3 -8 -15 882.302 201.987 2
3 8 15 935.923 361.731 4
-8 3 15 782.995 222.532 2
-15 -8 -3 982.728 304.407 3
-3 8 -15 1033 276.837 3
15 -8 3 1450.94 411.062 2
15 3 8 294.234 223.118 4
-3 15 8 333.999 260.826 1
-8 -3 -15 907.524 348.192 3
8 1 -15 3579.84 358.074 1
-8 1 15 3344.65 455.273 3
1 -8 -15 3020.17 383.238 1
-8 -15 1 3398.47 544.692 2
-1 8 -15 4297.74 491.269 2
8 15 1 3178.94 531.942 1
-1 -15 -8 2885.73 473.652 2
1 -8 -15 3289.31 317.054 2
8 -1 15 3444.71 418.203 1
1 -15 8 2626.73 513.473 2
-1 -8 15 3753.76 470.032 2
-8 15 -1 3312.86 613.062 1
-15 8 1 3183.99 546.302 1
-15 -1 8 3061.15 255.333 4
1 8 15 3004.42 406.174 1
8 -1 15 3912.99 636.988 4
8 -15 -1 3722.6 563.141 2
-8 1 15 3214.07 508.726 4
15 1 8 3489.46 490.428 4
1 8 15 3399.58 578.178 4
-15 -8 -1 3931.41 460.848 4
1 15 -8 3110.25 503.181 1
-1 15 8 2334.73 464.643 1
-8 -1 -15 2850.59 387.153 2
-1 8 -15 3888.07 415.21 3
-1 8 -15 3473.32 370.452 1
8 15 1 3200.27 450.551 3
-1 -8 15 3412.28 321.417 1
-8 -1 -15 2565.1 504.209 3
-8 -1 15 3886.3 444.349 3
-8 -15 -1 4298.78 596.621 2
-1 -8 -15 3228.9 309.276 2
8 15 -1 3263.61 528.396 1
8 1 15 3629.7 426.696 1
-1 -15 8 3773.47 583.454 2
1 -15 -8 3293.5 491.587 2
-8 15 1 3619.52 624.938 1
1 -8 15 3552.11 477.565 2
1 8 -15 3166.86 331.993 1
1 15 8 2991.48 534.261 1
8 -15 1 4137.79 611.946 2
15 -1 8 3076.96 445.61 4
8 1 15 3492.92 587.993 4
-15 8 -1 2987.45 529.48 1
-8 1 -15 3107.31 447.555 2
8 -1 -15 3728.83 374.528 1
-1 8 15 3902.98 601.801 4
-15 -8 1 3135.43 409.564 4
-1 8 15 2724.8 385.262 1
-8 1 -15 2918.96 513.336 3
8 15 -1 3214.41 400.422 3
-1 15 -8 3859.42 550.679 1
1 8 -15 3479.01 362.615 3
1 -8 15 4627.47 384.408 1
-8 -3 15 1057.08 229.055 3
3 8 -15 1004.53 202.276 3
-3 -8 -15 339.338 304.093 3
-8 -15 -3 738.375 263.068 3
-3 15 -8 1583.94 406.34 1
8 -3 -15 1296.82 264.444 1
-3 8 15 647.908 230.562 1
-3 -8 -15 509.004 178.442 2
8 15 -3 1060.91 380.133 1
-3 -15 8 867.629 332.034 2
3 -15 -8 341.151 217.489 2
-8 15 3 879.176 351.212 1
3 15 8 169.991 259.111 1
3 -8 15 1533.34 353.107 2
8 -15 3 1390.35 405.834 2
3 -8 15 1011.34 242.699 1
8 3 15 1716.96 466.805 4
-3 8 15 2186.21 483.558 4
3 8 -15 1028.68 206.199 1
-15 8 -3 594.841 305.17 1
-8 3 -15 334.714 237.871 3
-8 3 -15 566.458 272.698 2
8 15 -3 913.55 214.517 3
-8 -5 15 2583.77 288.039 3
-15 8 -5 1845.51 433.86 1
-5 -8 -15 2039.73 494.052 3
-8 -15 -5 1935.02 399.591 3
-15 5 8 1494.38 385.533 1
-5 -15 8 2427.88 491.492 2
8 15 -5 2142.73 451.643 1
-5 8 15 2194.85 297.292 2
5 15 8 1552.55 424.889 1
-5 15 -8 2319.27 458.669 1
-8 15 5 1832.01 490.26 1
5 8 -15 2044.38 281.394 1
5 -15 -8 2159.94 447.948 2
-8 5 -15 2212.26 445.533 2
-5 8 15 2797.68 430.865 1
8 -15 5 2025.92 455.591 2
5 -8 15 2411.07 442.842 2
8 5 15 1649.69 417.85 4
-5 8 15 1871.66 418.908 4
15 -8 -5 2675.08 323.449 4
5 -8 15 2250.67 359.129 1
8 -5 -15 2122.55 338.58 1
-7 -8 -15 -111.157 341.751 3
8 7 15 366.964 247.646 1
-8 -15 -7 174.545 243.242 3
-7 -15 8 -223.037 261.422 2
7 -8 15 491.451 264.238 1
7 8 -15 490.379 185.962 1
7 15 8 144.96 273.499 1
8 15 -7 176.451 256.065 1
-15 8 -7 256.02 298.784 1
-7 8 15 282.378 218.478 2
-8 15 7 635.6 339.351 1
7 -8 15 491.26 304.176 2
7 -15 -8 61.5238 237.43 2
8 -15 7 230.422 285.107 2
-8 7 -15 269.089 246.796 1
15 -8 -7 252.319 192.636 4
-7 15 -8 -161.96 332.075 1
8 7 15 340.012 369.372 4
-7 8 15 -15.8233 253.246 4
8 -7 -15 -280.601 176.325 1
-15 7 8 306.115 302.914 1
-15 -7 -8 274.534 267.18 3
-8 -7 15 128.557 87.4105 3
-7 8 15 492.499 272.496 1
-9 -8 -15 -111.562 294.937 3
-8 -15 -9 578.847 313.069 3
9 8 -15 617.057 238.921 1
8 9 15 102.847 229.15 1
-8 -15 -9 411.936 309.382 2
-9 -15 8 515.099 297.303 2
-8 -9 15 290.643 210.339 2
9 15 8 -40.6732 271.261 1
-15 9 8 488.307 306.534 1
8 15 -9 500.276 300.658 1
-8 9 -15 417.348 281.547 1
9 -8 15 218.354 261.88 1
-9 8 15 459.305 301.519 1
-8 15 9 380.209 359.982 1
-9 8 15 -616.661 357.595 2
8 -15 9 623.058 329.211 2
15 -8 -9 151.041 207.23 4
9 -15 -8 304.505 260.314 2
8 9 15 336.581 331.724 4
-15 8 -9 391.811 332.306 1
-9 8 15 547.205 306.287 4
15 8 9 40.8303 272.74 4
9 -8 15 494.002 321.011 2
15 -9 8 692.455 339.126 2
-9 15 -8 -179.499 342.296 1
-15 -9 -8 389.87 288.989 3
-6 -15 -9 671.443 327.006 3
-9 -15 6 328.439 289.218 2
-6 -15 -9 401.396 282.794 2
9 15 6 437.016 337.511 1
6 9 15 427.122 256.912 1
-15 9 6 131.156 283.042 1
-6 -9 15 714.04 261.812 2
-6 15 9 8.47921 291.241 1
6 15 -9 738.884 300.31 1
9 -15 -6 437.023 240.923 2
6 -9 -15 348.784 207.357 1
6 -15 9 474.154 316.015 2
-9 6 15 320.43 233.778 2
15 -6 -9 463.527 174.077 4
-15 6 -9 864.096 365.31 1
-9 6 15 305.222 260.973 4
6 9 15 688.027 400.822 4
15 6 9 271.822 260.673 4
9 -6 15 625.271 264.442 1
-9 15 -6 608.478 381.744 1
6 -9 -15 131.292 172.132 2
9 -6 15 345.369 260.881 2
-6 9 -15 715.857 289.523 1
15 -9 6 594.627 347.842 2
-15 -9 -6 826.364 327.922 3
-9 6 15 524.534 233.144 1
-9 -6 -15 283.453 271.128 3
-4 15 9 -297.505 316.508 1
4 15 -9 -91.1075 96.1926 3
-9 -15 4 -32.7556 265.886 2
-15 -9 -4 -355.506 319.752 4
9 15 4 -82.9558 323.322 1
-15 9 4 535.063 350.111 1
-4 -15 -9 185.404 269.797 2
9 -4 15 73.5127 195.8 1
-4 -9 15 34.4101 193.553 2
-4 9 -15 91.3112 240.527 2
4 9 15 67.8812 192.999 1
4 -9 -15 -168.827 179.992 1
-4 9 -15 -384.526 231.713 1
9 4 -15 55.0634 166.008 1
4 -15 9 -211.66 337.316 2
4 15 -9 -120.245 309.488 1
9 -15 -4 43.6571 237.129 2
-9 4 15 97.775 227.437 4
-9 4 15 507.702 213.243 2
15 4 9 172.63 235.495 4
4 -9 -15 171.626 192.905 2
-9 15 -4 163.343 314.686 1
4 9 15 743.092 443.886 4
-15 -9 -4 139.845 225.914 3
15 -9 4 -78.842 286.231 2
-9 -4 -15 -116.498 289.264 3
-9 4 15 279.27 227.982 1
9 15 2 909.831 301.276 1
2 -9 -15 1107.21 265.026 1
-2 9 -15 861.04 233.121 2
-15 9 2 1128.26 363.534 1
-2 -15 -9 836.484 324.545 2
-2 -9 15 955.601 288.487 2
2 -15 9 1174.1 371.706 2
2 9 15 683.547 255.731 1
2 -9 -15 918.237 197.831 2
9 -15 -2 606.309 295.762 2
-9 2 15 862.997 325.477 4
-9 15 -2 1023.89 367.984 1
15 2 9 776.6 341.965 4
2 15 -9 1095.98 347.48 1
-15 -9 -2 745.142 272.295 4
2 9 15 1059.87 374.52 4
9 2 -15 1069.66 222.244 1
-9 2 15 1020.68 242.235 2
-9 -2 -15 543.059 217.542 2
-2 15 9 601.177 336.769 1
-2 9 -15 493.547 212.979 3
-15 -9 -2 1669.28 384.24 3
15 -9 2 1241.85 376.921 2
-2 9 -15 824.135 215.743 1
-9 -2 -15 1113.12 388.506 3
9 -2 15 964.014 291.969 1
0 -9 -15 188.212 196.63 1
-9 -15 0 -97.2598 161.173 3
0 9 -15 318.914 249.249 2
9 15 0 234.476 299.569 1
0 -9 15 180.646 139.589 1
9 0 15 381.323 215.573 1
-15 9 0 138.006 296.62 1
0 -15 -9 426.955 267.352 2
0 -15 9 1032.79 371.001 2
0 9 -15 418.481 189.787 1
0 -9 -15 465.575 171.086 2
0 -9 15 367.674 229.678 2
9 0 15 834.894 382.589 4
-9 0 15 562.855 288.356 4
-9 15 0 -8.22319 297.917 1
15 0 9 234.311 247.367 4
9 -15 0 677.264 278.599 2
0 15 9 308.69 264.465 1
-15 0 9 306.316 105.052 4
0 9 15 -117.242 229.666 1
0 9 15 -167.463 356.295 4
-9 0 -15 656.095 262.122 2
-15 -9 0 358.688 217.791 4
0 15 -9 457.947 293.084 1
9 15 0 194.559 166.644 3
15 -9 0 178.208 289.089 2
-9 0 -15 184.617 277.361 3
0 9 -15 277.306 157.382 3
9 0 -15 340.919 205.891 1
2 9 -15 710.712 167.914 3
15 -2 9 1101.53 309.479 4
-9 -15 -2 877.486 275.384 3
-2 15 -9 1301.92 360.346 1
-9 -2 15 831.316 237.054 3
-2 -9 -15 832.659 344.379 3
9 15 -2 1045.13 382.235 1
-2 -9 -15 729.496 192.483 2
-2 -15 9 1253.98 394.408 2
-15 9 -2 791.108 358.403 1
2 -15 -9 933.414 329.08 2
2 -9 15 1261.47 264.739 1
9 -2 -15 700.44 230.685 1
-9 15 2 368.281 343.037 1
2 -9 15 1458.09 359.563 2
2 15 9 462.185 311.108 1
9 -15 2 1437.38 396.411 2
9 2 15 638.793 313.043 4
-9 2 -15 769.093 281.214 2
-2 9 15 800.147 343.554 4
9 15 -2 805.82 235.722 3
-9 2 -15 432.169 336.179 3
15 -9 -2 648.674 333.18 2
2 9 -15 1208.67 244.463 1
-2 9 15 546.505 263.52 1
9 -15 4 159.675 265.601 2
-9 -4 15 52.1634 146.64 3
-9 -15 -4 16.3836 213.721 3
-4 -9 -15 94.6232 293.132 3
-4 -9 -15 -11.6356 156.031 2
9 -4 -15 61.3629 166.41 1
9 15 -4 -479.342 370.843 1
-4 9 15 212.58 150.055 2
-4 -15 9 46.7025 230.484 2
-4 9 15 167.919 235.338 1
-4 15 -9 -58.8551 275.41 1
4 15 9 -451.565 352.591 1
-15 4 9 260.116 293.343 1
4 -15 -9 -166.109 236.483 2
-15 9 -4 -100.061 347.829 1
-9 15 4 -69.842 278.878 1
4 -9 15 62.0649 237.266 2
-9 4 -15 -240.448 249.723 2
4 9 -15 377.532 185.579 1
9 4 15 254.995 310.891 4
4 -9 15 220.188 191.261 1
-4 9 15 593.058 325.267 4
-9 -6 15 550.987 144.83 3
9 -6 -15 437.195 256.727 1
-6 -9 -15 130.291 294.686 3
-9 -15 -6 797.407 305.245 3
-6 9 15 224.638 236.565 1
9 15 -6 221.015 254.891 1
-6 -15 9 138.794 249.086 2
6 15 9 529.673 317.792 1
-6 9 15 455.446 209.077 2
-15 6 9 249.134 304.134 1
6 9 -15 393.258 190.354 1
-6 15 -9 603.909 334.786 1
-9 15 6 1055.14 415.588 1
6 -15 -9 1067.02 323.681 2
9 -15 6 478.357 283.227 2
6 -9 15 419.404 296.985 2
9 6 15 515.14 355.565 4
-15 9 -6 -91.1847 295.306 1
15 -9 -6 488.374 232.995 4
-6 9 15 347.059 299.508 4
-15 -6 -9 385.739 287.735 3
6 -9 15 666.137 241.75 1
-8 -9 -15 200.209 268.687 3
9 8 15 917.701 333.32 1
-15 9 -8 448.114 386.212 1
-9 -15 -8 461.137 319.904 3
-8 9 15 506.753 327.32 1
-9 8 -15 468.205 294.207 1
-8 -15 9 -57.0577 273.999 2
8 -9 15 243.486 224.367 1
8 9 -15 161.445 182.221 1
8 15 9 -60.7582 299.118 1
9 15 -8 322.417 267.041 1
-8 9 15 -34.876 252.153 2
-15 8 9 -20.2745 309.441 1
-9 15 8 -35.1406 302.139 1
9 -15 8 439.579 287.742 2
8 -15 -9 195.091 274.156 2
8 -9 15 114.184 273.865 2
15 -9 -8 373.182 226.339 4
9 8 15 134.598 323.118 4
-8 9 15 457.831 324.911 4
-8 15 -9 713.543 359.373 1
9 -8 -15 418.765 231.086 1
-15 -8 -9 -386.991 308.195 3
-9 -8 15 186.912 83.0624 3
-10 -9 -15 528.961 374.548 3
-15 10 9 1003.41 446.682 1
-9 -15 -10 822.171 348.338 3
10 9 -15 592.488 237.419 1
9 10 15 399.053 302.971 1
-10 15 -9 311.451 319.744 1
-10 -15 9 353.815 268.87 2
-9 -10 15 422.236 275.683 2
10 15 9 777.396 312.96 1
9 15 -10 710.464 330.927 1
-9 10 -15 299.306 274.477 1
-15 9 -10 830.013 429.396 1
-10 9 15 735.97 321.769 1
-10 9 15 892.236 323.157 2
-9 15 10 225.294 380.796 1
9 -15 10 521.24 339.753 2
15 -9 -10 707.607 266.546 4
10 -15 -9 787.389 351.417 2
9 10 15 594.798 386.335 4
15 9 10 409.909 351.272 4
-10 9 15 325.144 339.549 4
10 -9 15 1149.39 403.971 2
15 -10 9 363.503 335.329 2
-15 -10 -9 255.287 326.778 3
10 7 -15 1644.71 309.641 1
-10 15 -7 1674.57 486.924 1
-15 10 7 1570.51 471.771 1
-7 -15 -10 1511.78 407.532 3
-10 -15 7 1391.65 452.547 2
10 15 7 2381.69 528.495 1
-7 -15 -10 1648.55 394.397 2
7 10 15 1337.5 359.326 1
-7 -10 15 1529.07 364.475 2
-7 15 10 1512.18 431.269 1
-15 7 -10 1830.8 479.445 1
7 15 -10 1822.09 420.547 1
-10 7 15 1540.38 379.704 2
7 -15 10 2027.41 476.238 2
15 -7 -10 1860.32 305.956 4
10 -15 -7 1652.15 478.538 2
-10 7 15 1931.84 431.607 4
7 10 15 1377.39 424.177 4
15 7 10 1353.04 387.017 4
7 -10 -15 2205.47 360.694 2
-7 10 -15 1811.95 383.76 1
10 -7 15 1884.72 464.017 2
15 -10 7 1825.43 444.117 2
-10 7 15 1585.78 370.532 1
-15 -10 -7 1739.3 467.651 3
-10 -7 -15 888.118 401.998 3
-15 10 5 527.777 362.449 1
10 -5 15 186.497 207.078 1
-5 15 10 422.07 306.728 1
10 15 5 448.056 289.036 1
-5 -15 -10 234.837 233.207 2
-5 -10 15 439.848 244.654 2
5 10 15 81.1481 215.056 1
-5 10 -15 270.678 222.91 1
5 -10 -15 495.374 254.44 1
5 15 -10 469.112 321.107 1
5 -15 10 -167.119 256.03 2
-10 5 15 -8.1624 240.654 1
-10 5 15 311.367 227.551 2
10 -15 -5 156.959 251.802 2
-10 5 15 292.963 259.816 4
15 5 10 486.3 247.871 4
5 -10 -15 29.1236 202.441 2
5 10 15 -75.7597 305.535 4
15 -10 5 -27.5392 271.962 2
-15 -10 -5 316.131 256.471 3
-10 15 -5 -50.1596 310.802 1
-10 -5 -15 58.0205 303.309 3
-15 10 3 1642.87 445.744 1
-10 -15 3 805.799 198.578 3
10 15 3 308.724 301.368 1
-3 -15 -10 592.949 227.744 2
3 -10 -15 1006.02 283.383 1
-3 -10 15 1091.64 327.812 2
3 10 15 602.085 232.442 1
3 -15 10 950.353 327.658 2
10 3 -15 1035.65 250.946 1
3 -10 -15 842.747 250.633 2
3 15 -10 881.199 309.565 1
10 -3 15 1244.69 313.421 1
10 -15 -3 277.849 252.78 2
-10 3 15 1338.08 353.563 4
15 3 10 1897.97 420.296 4
-15 -10 -3 1081.89 364.344 4
3 10 15 1429.04 453.635 4
-10 3 15 1252.86 298.937 2
-10 15 -3 368.401 320.034 1
15 -10 3 1203.11 364.472 2
-15 -10 -3 1163.54 326.757 3
-10 -3 -15 1354.34 423.622 3
-3 15 10 1067.64 392.177 1
-3 10 -15 1480.58 323.941 1
-10 -15 1 115.677 146.205 3
-15 10 1 620.26 391.129 1
-1 -10 15 62.1344 156.793 1
10 15 1 -189.193 325.682 1
1 -10 -15 162.574 212.003 1
-1 -15 -10 212.017 229.299 2
-1 -10 15 74.1491 208.27 2
1 -15 10 35.8101 256.22 2
10 1 -15 -114.797 171.339 1
1 -10 -15 215.005 178.696 2
-1 10 -15 -197.09 184.468 1
10 -1 15 63.5883 210.995 1
10 -1 15 278.395 278.462 4
1 10 15 27.9515 243.626 1
-15 -1 10 42.9592 146.082 4
-10 1 15 286.123 244.542 4
15 1 10 595.47 279.086 4
10 -15 -1 -124.202 283.873 2
1 10 15 185.482 332.635 4
-15 -10 -1 462.776 236.752 4
-1 15 10 28.0203 288.101 1
-10 15 -1 291.591 315.88 1
1 15 -10 468.616 238.493 1
-10 -1 -15 477.875 293.207 2
10 15 1 -242.664 225.225 3
-1 10 -15 211.406 141.025 3
15 -10 1 161.006 263.479 2
-15 -10 -1 -254.978 220.969 3
-10 -1 -15 413.048 311.475 3
-1 15 -10 -262.348 309.363 1
-1 -10 -15 55.9076 229.256 1
-10 -15 -1 372.376 209.194 3
1 10 -15 -43.221 174.275 1
10 15 -1 11.606 278.21 1
-15 10 -1 -77.1168 321.141 1
1 -10 15 303.682 164.616 1
-1 -10 -15 215.395 154.676 2
-1 -15 10 25.8803 245.924 2
1 -15 -10 308.392 218.943 2
1 -10 15 166.017 259.925 2
-10 -1 15 362.734 243.411 4
1 15 10 -257.113 280.594 1
15 -1 10 344.08 269.168 4
10 1 15 -240.716 289.432 4
-15 1 10 287.809 127.64 4
-10 1 -15 62.6923 242.046 2
-10 15 1 457.759 335.98 1
10 1 15 398.961 233.108 1
-1 10 15 -389.082 352 4
-1 10 15 -75.6324 225.291 1
10 -1 -15 155.946 167.749 1
-15 -10 1 36.6554 169.706 3
-10 1 -15 -143.634 251.091 3
15 -10 -1 156.077 268.811 2
1 10 -15 -129.338 131.687 3
10 -15 1 273.277 307.826 2
3 10 -15 853.253 161.928 3
-10 -15 -3 1556.48 359.926 3
-3 -10 -15 1570.95 428.217 3
-3 10 15 1375.78 352.765 1
-3 10 15 1039.5 218.514 2
10 15 -3 1022.54 365.055 1
-3 15 -10 1171.14 344.282 1
-10 15 3 1625.59 505.696 1
-3 -10 -15 1112.12 251.465 2
-15 10 -3 1532.67 471.847 1
-3 -15 10 119.807 243.31 2
10 -3 -15 1419.14 308.174 1
3 -15 -10 918.836 285.636 2
3 15 10 856.929 341.981 1
3 -10 15 1585.87 297.798 1
3 -10 15 1352.7 370.529 2
10 -15 3 588.427 357.56 2
10 3 15 1641 464.904 4
-10 3 -15 1064.5 363.66 2
-3 10 15 571.473 338.198 4
3 10 -15 1303.95 265.566 1
-15 -10 3 1145.98 273.796 3
15 -10 -3 1451.44 425.449 2
-10 -15 -5 334.129 250.91 3
-10 -5 15 436.881 154.838 3
-5 -10 -15 -235.19 278.046 3
-5 -10 -15 69.6909 181.168 2
10 15 -5 -77.4867 260.136 1
10 -5 -15 765.109 261.391 1
-5 10 15 252.189 183.621 2
-5 -15 10 37.4964 234.136 2
-15 5 10 -29.1566 278.121 1
5 15 10 880.426 392.695 1
-5 10 15 593.536 314.774 1
-15 10 -5 19.2093 305.399 1
-5 15 -10 -60.8513 273.858 1
5 10 -15 -116.961 189.037 1
5 -15 -10 562.667 282.473 2
5 -10 15 589.947 314.732 2
10 -15 5 89.5329 258.624 2
10 5 15 224.794 284.1 4
-10 15 5 -584.894 380.066 1
5 -10 15 634.243 261.159 1
-5 10 15 792.993 363.345 4
-15 -5 -10 291.01 311.575 3
15 -10 -5 264.556 301.704 2
-10 -7 15 1797.55 220.139 3
7 -10 15 1595.1 356.836 1
10 -7 -15 2060.17 381.306 1
-7 -10 -15 1776.63 505.127 3
-10 -15 -7 1884.49 423.715 3
10 15 -7 1797.2 438.122 1
-7 -15 10 1140.27 391.163 2
7 15 10 1658.28 467.61 1
7 10 -15 1874.18 341.884 1
-7 10 15 1876.7 370.057 2
-15 10 -7 1109.04 422.323 1
7 -15 -10 2090.04 440.773 2
10 -15 7 1640.75 437.641 2
-10 15 7 1464.96 490.624 1
10 7 15 1333.16 401.681 4
-7 10 15 1514.09 382.286 1
-7 15 -10 1999.17 535.016 1
15 -10 -7 1625.89 316.065 4
-7 10 15 1548.21 422.881 4
7 -10 15 1911.14 469.015 2
-15 -7 -10 1750.57 442.996 3
-15 7 10 1627.89 444.064 1
-10 7 -15 2278.7 434.626 1
-9 -10 -15 1140.87 444.445 3
-9 15 -10 1126.89 449.308 1
10 9 15 564.145 285.684 1
-10 -15 -9 1063.97 419.782 3
-9 10 15 1004.07 351.387 1
-9 -15 10 1181.2 408.704 2
9 10 -15 549.817 274.856 1
9 15 10 1071.44 388.938 1
10 15 -9 622.54 307.89 1
-15 9 10 1219.54 428.049 1
-9 10 15 1371.39 383.144 2
10 -15 9 398.099 297.828 2
9 -15 -10 689.338 333.052 2
15 -10 -9 662.784 277.453 4
-10 15 9 148.934 334.329 1
10 9 15 469.815 360.399 4
9 -10 15 611.145 317.956 2
-15 10 -9 1031.19 451.888 1
15 -9 10 997.6 387.1 2
-15 -9 -10 1492.45 467.142 3
-10 9 -15 533.749 257.646 1
11 8 -15 621.694 241.617 1
-8 -15 -11 729.935 374.49 3
11 15 8 -347.876 370.925 1
-8 -15 -11 415.151 315.529 2
8 11 15 346.225 275.5 1
-8 -11 15 -114.306 264.655 2
-11 15 -8 92.5127 334.091 1
8 15 -11 805.811 361.451 1
-8 15 11 504.339 385.96 1
-15 8 -11 212.234 350.315 1
-11 8 15 399.624 274.672 2
15 -8 -11 115.257 226.871 4
8 -15 11 -194.632 313.482 2
11 -15 -8 570.569 350.736 2
15 8 11 884.391 392.598 4
8 11 15 -167.408 372.777 4
-11 8 15 371.786 272.892 4
8 -11 -15 672.499 311.186 2
-8 11 -15 -152.5 309.594 1
-11 8 15 669.89 351.422 1
15 -11 8 148.358 316.755 2
11 -8 15 83.3115 299.812 2
-15 11 8 169.942 336.181 1
-15 -11 -8 -74.7133 257.346 3
-11 -8 -15 368.287 317.096 3
-6 -15 -11 -13.4266 302.755 3
-11 15 -6 -207.165 319.864 1
11 15 6 19.8117 279.755 1
-6 -15 -11 141.318 242.486 2
-6 -11 15 226.116 245.458 2
-6 15 11 429.972 325.534 1
6 11 15 387.972 330.359 1
-6 11 -15 -83.8658 285.956 1
6 15 -11 466.823 282.045 1
-11 6 15 615.93 291.084 1
6 -15 11 397.3 328.71 2
-11 6 15 412.398 233.696 2
11 -15 -6 -214.299 265.849 2
15 6 11 668.163 372.766 4
6 -11 -15 34.3905 223.902 2
-11 6 15 -11.9666 228.543 4
6 11 15 527.556 387.66 4
-15 11 6 -18.1614 429.168 1
15 -11 6 599.842 325.409 2
-15 -11 -6 573.749 336.898 3
-11 -6 -15 923.636 409.952 3
-4 11 -15 1352.13 309.555 1
-11 15 -4 1230.66 467.191 1
-4 15 11 1375.27 436.255 1
-11 -15 4 1463.22 247.215 3
-11 4 15 1516.69 316.331 1
11 15 4 1260.04 427.864 1
-4 -15 -11 1316.4 349.635 2
-4 -11 15 1569.42 379.962 2
4 11 15 751.954 246.439 1
11 4 -15 1448.04 281.897 1
4 -15 11 1332.04 425.972 2
4 15 -11 1538.14 347.096 1
4 -11 -15 1463.09 322.934 2
11 -15 -4 1092.93 379.099 2
15 4 11 1781.7 425.085 4
-11 4 15 1352.11 338.593 4
-11 4 15 2113.17 398.313 2
4 11 15 1324.34 449.728 4
15 -11 4 1050.38 386.528 2
-15 11 4 966.936 365.489 1
-15 -11 -4 1152.54 345.37 3
-11 -4 -15 1143.66 386.343 3
11 2 -15 165.778 215.26 1
-2 -11 15 -6.62861 194.262 1
-11 -15 2 155.417 162.566 3
11 -2 15 -33.6508 243.554 1
11 15 2 420.372 338.752 1
-2 -15 -11 -101.238 240.09 2
-2 -11 15 -350.713 264.571 2
-11 2 15 14.8879 218.978 4
2 -15 11 429.548 294.291 2
2 11 15 -116.643 238.538 1
2 -11 -15 -242.227 208.322 2
-2 11 -15 246.707 205.873 1
15 2 11 177.579 283.18 4
11 -15 -2 41.7011 292.272 2
2 15 -11 277.285 249.917 1
2 11 15 -154.12 337.895 4
15 -11 2 20.0454 263.57 2
-11 2 15 -25.3583 199.426 2
-11 -2 -15 270.8 250.156 2
-2 15 11 198.571 267.324 1
-15 11 2 16.7782 302.275 1
-11 -2 -15 -23.799 280.701 3
-15 -11 -2 -259.177 249.48 3
-11 15 -2 54.5913 344.722 1
-11 -15 0 1660.92 334.293 3
11 15 0 1905.02 477.198 1
0 -11 15 2548.04 341.238 1
0 11 -15 2378.54 360.164 1
11 0 15 2015.06 383.227 1
11 0 -15 2041.05 354.456 1
0 -15 -11 2092.02 405.543 2
0 -15 11 1381.33 401.531 2
0 -11 -15 1726.93 310.679 2
0 -11 15 2024.33 429.638 2
11 0 15 2190.49 523.093 4
-11 0 15 1874.52 389.452 4
15 0 11 1464.77 402.762 4
-15 0 11 2521.46 311.972 4
11 -15 0 2408.09 502.696 2
0 15 11 1803.47 435.519 1
0 11 15 1723.49 387.579 1
0 11 15 2444.83 551.667 4
-11 0 -15 1624.07 403.317 2
15 -11 0 2138.11 483.017 2
-11 0 -15 1691.42 468.346 3
0 11 -15 1947.09 272.423 3
-15 -11 0 2064.95 373.053 3
-11 15 0 2896.74 603.593 1
0 15 -11 2085.46 436.964 1
-15 11 0 2621.63 542.885 1
-15 11 -2 139.501 307.913 1
-11 -15 -2 10.4831 179.771 3
11 15 -2 -322.111 301.055 1
-2 15 -11 -88.7974 279.724 1
-2 -11 -15 152.266 166.192 2
-2 -15 11 178.668 243.995 2
2 -11 15 445.88 239.708 1
2 -15 -11 -335.945 249.379 2
2 -11 15 -6.21627 244.711 2
2 15 11 240.664 293.102 1
15 -2 11 474.126 296.63 4
11 2 15 -355.379 408.844 4
11 -15 2 -18.0061 258.477 2
-15 2 11 21.9295 169.59 4
11 -2 -15 361.715 220.866 1
-2 11 15 -148.683 363.463 4
-11 2 -15 -122.363 298.611 3
15 -11 -2 279.101 260.754 2
-11 15 2 -157.767 335.78 1
-15 -11 2 378.55 206.567 3
2 11 -15 -52.0843 184.629 1
-2 11 15 30.8951 262.962 1
2 11 -15 -256.279 135.084 3
-11 -15 -4 1348.26 361.219 3
-4 -11 -15 691.717 287.632 3
-15 11 -4 1437.89 439.209 1
11 15 -4 1594.23 438.355 1
-4 11 15 1164.82 258.799 2
-4 11 15 1008.53 341.099 1
-4 -11 -15 1129.97 271.804 2
-4 -15 11 926.502 366.634 2
-4 15 -11 1436.7 411.467 1
11 -4 -15 1745.82 348.735 1
4 15 11 695.851 350.05 1
4 -15 -11 1265.73 344.679 2
4 11 -15 1627.04 318.374 1
4 -11 15 2390.46 466.715 2
4 -11 15 2246.19 378.196 1
11 4 15 948.663 375.97 4
11 -15 4 1855.64 482.685 2
-4 11 15 1307.37 410.142 4
-15 -4 -11 2428.37 546.833 3
-11 15 4 1445.43 455.69 1
-15 -11 4 1004.35 239.754 3
15 -11 -4 1664.29 427.792 2
-11 -15 -6 444.223 300.631 3
-6 -11 -15 752.316 425.261 3
-11 -6 15 302.267 156.861 3
-6 -11 -15 -60.852 206.641 2
11 15 -6 197.897 272.867 1
11 -6 -15 -217.942 284.884 1
-6 -15 11 18.7108 262.55 2
6 -11 15 189.853 265.45 2
-15 11 -6 227.403 315.685 1
-6 11 15 509.044 261.737 2
6 15 11 283.242 313.473 1
6 11 -15 282.325 214.112 1
-6 11 15 -412.43 325.297 1
-15 6 11 -483.525 326.45 1
6 -15 -11 604.07 333.097 2
-6 15 -11 -24.1428 285.181 1
11 -15 6 -233.738 305.696 2
11 6 15 113.438 294.319 4
15 -11 -6 260.587 240.136 4
-6 11 15 59.8229 310.633 4
6 -11 15 324.192 234.015 1
-11 15 6 -128.334 380.66 1
-15 -11 6 282.831 179.941 3
-15 -6 -11 -47.8348 300.358 3
15 -11 -6 332.101 301.339 2
-11 -8 15 445.719 116.52 3
-11 -15 -8 498.739 340.02 3
-8 -11 -15 644.853 357.636 3
-11 8 -15 640.215 321.557 1
11 15 -8 160.871 309.411 1
-8 -15 11 755.69 338.055 2
8 15 11 514.936 369.737 1
8 11 -15 -82.3219 247.572 1
-8 11 15 715.539 353.937 2
-15 11 -8 -317.206 401.39 1
-15 8 11 777.412 381.218 1
8 -15 -11 157.885 259.739 2
11 -15 8 552.566 347.767 2
8 -11 15 439.367 311.866 2
11 8 15 622.908 373.225 4
15 -11 -8 -351.267 285.43 4
-8 11 15 231.266 341.502 1
-11 15 8 819.305 413.729 1
15 -11 -8 748.237 373.104 2
-15 -8 -11 262.369 336.577 3
-8 15 -11 -109.397 341.234 1
-7 -15 -12 1076.33 430.968 3
12 15 7 200.029 318.614 1
-7 -15 -12 1032.93 355.842 2
-7 -12 15 596.665 291.028 2
7 12 15 465.771 324.117 1
-12 15 -7 874.707 421.513 1
-7 15 12 1029.01 416.976 1
-12 7 15 887.713 365.381 1
7 15 -12 765.622 328.585 1
-7 12 -15 821.742 349.418 1
7 -15 12 744.67 356.248 2
-12 7 15 887.901 296.489 2
-15 12 7 1162.6 483.591 1
12 -15 -7 898.915 376.245 2
15 7 12 845.195 344.482 4
7 -12 -15 838.331 299.019 2
-12 7 15 808.519 357.241 4
7 12 15 750.501 424.81 4
15 -12 7 1320.02 424.246 2
12 -7 15 868.81 325.189 2
-15 -12 -7 1114.25 377.788 3
-12 -7 -15 541.038 379.809 3
-12 -15 5 423.61 158.235 3
-5 12 -15 899.129 328.018 1
12 15 5 1048.2 400.826 1
-5 15 12 916.202 364.287 1
-12 15 -5 279.636 355.128 1
-5 -15 -12 1261.72 383.428 2
-5 -12 15 802.172 326.872 2
5 12 15 680.756 335.45 1
-12 5 15 1025.23 309.683 1
5 15 -12 1285.48 379.224 1
5 -15 12 701.591 410.43 2
5 -12 -15 888.961 297.318 2
-15 12 5 135.163 362.863 1
15 5 12 204.435 305.441 4
-12 5 15 1079.17 346.73 2
12 -15 -5 1583.53 432.72 2
-12 5 15 785.891 304.398 4
5 12 15 882.072 443.395 4
15 -12 5 773.223 340.226 2
-12 -5 -15 55.7897 296.84 3
-15 -12 -5 842.508 324.901 3
12 5 -15 133.862 228.002 1
-3 -12 15 2194.07 362.73 1
-12 -15 3 1438.54 267.765 3
12 15 3 1374.17 402.111 1
-12 15 -3 2138.54 561.838 1
-3 -15 -12 2085.72 424.867 2
-3 -12 15 1717.26 400.454 2
3 12 15 1100.72 358.95 1
3 -15 12 1522.06 427.786 2
12 3 -15 1501.91 308.209 1
3 -12 -15 1781.14 344.53 2
3 15 -12 1196.65 357.44 1
15 3 12 1275.76 420.467 4
-3 12 -15 1171.04 314.049 1
-12 3 15 1833.68 379.762 4
-15 12 3 1036.56 427.845 1
12 -15 -3 1963.32 471.647 2
3 12 15 1710.69 522.535 4
-12 3 15 1724.44 372.111 2
15 -12 3 1286.89 394.55 2
-12 -3 -15 1126.48 395.624 3
-15 -12 -3 1095.58 352.265 3
-3 15 12 1078.35 403.938 1
-12 -15 1 1469.92 297.42 3
-12 15 -1 749.296 328.099 1
12 15 1 1254.53 460.063 1
-1 -12 15 1463.47 316.786 1
-1 -15 -12 827.965 303.848 2
-1 12 -15 1335.83 312.401 1
-1 -12 15 1631.24 381.157 2
1 -15 12 1890.74 459.466 2
1 -12 -15 864.208 266.139 2
12 -1 15 1157.36 429.835 4
-15 -1 12 1441.15 267.023 4
1 12 15 671.091 313.363 1
15 1 12 1147.62 355.168 4
-12 1 15 1645.02 353.646 4
12 1 -15 968.172 290.697 1
12 -15 -1 1595.83 447.091 2
-15 12 1 1608.96 476.576 1
1 12 15 1151.84 441.047 4
-1 15 12 1364.63 415.105 1
15 -12 1 1856.37 462.11 2
-12 -1 -15 1627.86 520.861 3
1 15 -12 865.851 304.154 1
-15 -12 -1 1491.28 327.685 3
-12 -15 -1 979.323 296.571 3
-12 15 1 1214.49 484.485 1
1 12 -15 1041.2 262.478 1
-1 15 -12 1845.65 426.104 1
12 15 -1 899.205 387.364 1
12 -1 -15 1784.68 374.53 1
1 -12 15 1539.71 325.594 1
15 -1 12 1431.81 405.793 4
-1 -12 -15 1517.93 291.911 2
-1 -15 12 1513 410.263 2
1 -15 -12 1050.56 301.869 2
1 -12 15 1348.01 386.468 2
-12 -1 15 1356.25 351.013 4
1 15 12 628.889 317.464 1
12 1 15 1480.39 438.826 4
-15 1 12 1408.59 257.362 4
12 -15 1 1385.23 392.098 2
-1 12 15 1528.19 510.424 4
-1 12 15 1632.57 404.688 1
-15 12 -1 420.731 355.429 1
15 -12 -1 2159.65 505.387 2
-12 1 -15 976.009 401.885 3
1 12 -15 916.312 199.437 3
-15 -12 1 857.935 270.969 3
-12 15 3 1598.89 466.177 1
3 12 -15 1037.62 156.447 3
-12 -15 -3 1399.47 340.952 3
12 -15 3 1822.59 448.548 2
-3 12 15 1291.11 366.492 1
12 15 -3 1477.25 454.887 1
-3 12 15 1220.21 276.834 2
12 3 15 1371.16 448.705 4
-3 -12 -15 1404.68 294.525 2
-3 15 -12 1324.49 350.596 1
-3 -15 12 1876.19 457.977 2
3 -12 15 2066.73 388.704 1
3 -15 -12 1340.44 346.357 2
3 15 12 1765.21 463.257 1
3 -12 15 1887.76 448.702 2
12 -3 -15 1359.57 344.907 1
-15 3 12 1358.15 259.113 4
3 12 -15 1206.67 294.209 1
-3 12 15 1312.21 392.857 4
15 -12 -3 2000.32 464.99 2
-15 -3 -12 1677.75 468.546 3
-15 -12 3 1446.92 307.834 3
-15 12 -3 1276.68 486.79 1
-15 12 -5 635.875 440.897 1
-12 -15 -5 729.684 353.149 3
-5 -12 -15 138.746 301.77 3
12 15 -5 887.448 362.727 1
-5 -12 -15 570.304 247.69 2
-5 12 15 1154.77 327.754 2
-5 -15 12 227.074 253.503 2
-5 12 15 982.981 367.915 1
5 15 12 738.762 313.265 1
-5 15 -12 475.849 308.718 1
5 12 -15 961.639 292.542 1
5 -15 -12 1247 371.239 2
5 -12 15 763.682 354.651 2
5 -12 15 986.285 302.563 1
12 5 15 620.747 339.688 4
12 -15 5 967.294 399.587 2
-15 5 12 1282.02 363.355 1
15 -12 -5 926.067 428.909 2
-15 -5 -12 423.93 321.386 3
-15 -12 5 852.381 225.905 3
-12 15 5 40.6114 341.109 1
-12 -15 -7 607.442 322.233 3
-15 7 12 235.994 307.975 1
-7 -12 -15 172.928 296.977 3
12 15 -7 373.343 296.354 1
-15 12 -7 1677.14 483.087 1
-7 -15 12 393.551 305.624 2
7 15 12 695.504 308.898 1
-7 12 15 1623.02 407.41 2
7 12 -15 624.877 264.055 1
-7 12 15 565.358 347.127 1
7 -15 -12 1537.32 400.782 2
7 -12 15 998.481 388.191 2
12 -15 7 938.986 428.624 2
12 7 15 763.077 388.183 4
15 -12 -7 294.9 279.01 4
-7 15 -12 1140.52 384.081 1
15 -12 -7 1368.38 453.047 2
-15 -12 7 457.505 181.45 3
-15 -7 -12 1165.49 470.929 3
-12 15 7 1502.87 523.794 1
-13 -15 6 382.27 167.11 3
13 15 6 964.441 388.065 1
-6 -15 -13 295.68 344.693 3
-6 13 -15 794.723 360.563 1
-13 6 15 961.521 367.366 1
-6 -15 -13 602.386 312.86 2
-6 -13 15 531.479 328.766 2
-6 15 13 40.5142 348.258 1
6 13 15 1136.46 377.965 1
-13 15 -6 -170.806 370.821 1
6 15 -13 422.504 311.922 1
-15 13 6 776.029 460.554 1
6 -15 13 757.095 388.984 2
15 6 13 946.878 408.576 4
6 -13 -15 722.095 310.948 2
-13 6 15 385.145 315.242 2
-13 6 15 436.038 285.554 4
13 -15 -6 544.852 380.856 2
6 13 15 1049.8 531.655 4
15 -13 6 376.089 333.037 2
-13 -6 -15 -44.2529 320.844 3
-15 -13 -6 357.607 268.101 3
-13 -15 4 468.2 208.374 3
13 15 4 121.113 310.519 1
-4 15 13 355.963 324.36 1
-4 -15 -13 61.8539 212.97 2
13 4 -15 -48.671 256.633 1
-4 -13 15 296.722 266.163 2
-13 15 -4 481.608 400.268 1
4 13 15 -239.728 286.503 1
4 -15 13 393.307 365.929 2
-15 13 4 -77.7037 332.799 1
4 -13 -15 -11.1729 211.477 2
4 15 -13 -127.941 265.536 1
15 4 13 -262.821 283.993 4
-13 4 15 255.876 250.395 4
13 -15 -4 607.916 352.395 2
-4 13 -15 50.0838 249.081 1
-13 4 15 19.8099 266.396 2
4 13 15 -583.086 437.494 4
15 -13 4 -124.295 343.706 2
-13 -4 -15 482.316 432.813 3
-15 -13 -4 255.147 269.235 3
-13 -15 2 1200.86 282.812 3
13 15 2 1693.78 482.397 1
-2 -13 15 1560.99 310.02 1
13 2 -15 1058.91 318.082 1
-13 15 -2 1332.05 484.293 1
-2 -15 -13 1095.49 314.371 2
-2 -13 15 1706.57 405.906 2
-2 13 -15 1962.13 391.743 1
2 -15 13 1981.08 478.956 2
-15 13 2 1991.09 517.578 1
2 -13 -15 1481.06 316.422 2
2 13 15 1751.2 418.959 1
13 -2 15 1621.56 497.192 4
-15 -2 13 1164.32 278.9 4
15 2 13 1524.9 413.591 4
-13 2 15 1653.7 358.042 4
13 -15 -2 1798.83 458.81 2
2 13 15 739.964 447.749 4
15 -13 2 1568.32 474.117 2
2 15 -13 2094.44 428.42 1
-13 2 15 1153.74 332.137 2
-13 -2 -15 1472.21 504.828 3
-2 15 13 1880.67 465.512 1
-15 -13 -2 1435.43 361.448 3
-13 -15 0 253.431 201.633 3
0 15 -13 361.914 298.566 1
13 15 0 439.925 361.045 1
0 13 -15 846.45 324.661 1
-13 15 0 212.023 344.42 1
0 -13 15 -0.20774 220.78 1
0 -15 -13 244.106 233.642 2
0 -13 -15 328.072 221.442 2
0 -15 13 508.555 346.778 2
0 -13 15 -24.5913 304.601 2
13 0 -15 479.659 281.506 1
13 0 15 607.723 391.569 4
15 0 13 15.9757 276.01 4
-13 0 15 233.966 227.079 4
-15 0 13 22.7095 186.973 4
-15 13 0 799.326 395.474 1
0 15 13 450.57 358.371 1
0 13 15 468.65 292.309 1
13 -15 0 691.633 405.81 2
15 -13 0 542.176 336.96 2
-13 0 -15 802.233 377.857 3
-15 -13 0 774.68 307.65 3
-13 -15 -2 1960.01 393.457 3
13 15 -2 923.923 347.241 1
-13 15 2 1067.98 429.97 1
-2 15 -13 899.453 318.289 1
-2 -13 -15 1169.31 281.513 2
-2 -15 13 1223.92 370.449 2
2 -13 15 2184.02 380.814 1
2 -15 -13 1399.12 343.677 2
2 -13 15 1147.34 379.631 2
2 15 13 1247.32 418.067 1
15 -2 13 646.041 345.856 4
13 2 15 2091.42 501.271 4
-15 2 13 914.822 262.265 4
-15 13 -2 1636.59 496.642 1
13 -15 2 1728.4 452.691 2
15 -13 -2 1959.19 486.856 2
-15 -2 -13 1184.69 527.184 3
2 13 -15 1666.22 369.511 1
2 13 -15 1146.88 182.952 3
-2 13 15 1829.67 442.725 1
-15 -13 2 1326.78 303.972 3
13 -2 -15 1704.61 361.758 1
-13 -15 -4 -179.999 268.958 3
13 15 -4 301.767 285.981 1
-13 15 4 -124.878 425.939 1
-4 13 15 -472.431 345.181 1
-4 13 15 157.156 261.569 2
-4 -13 -15 -24.4664 198.393 2
-4 -15 13 125.322 286.16 2
4 15 13 228.682 335.23 1
-4 15 -13 111.634 260.253 1
4 -15 -13 215.511 242.866 2
4 -13 15 528.416 298.194 2
4 13 -15 331.027 280.768 1
13 4 15 -144.465 294.766 4
13 -15 4 238.596 277.084 2
-15 4 13 -273.748 246.939 4
-15 13 -4 231.854 386.553 1
15 -13 -4 101.366 281.765 2
-15 -4 -13 -7.36195 311.946 3
-15 -13 4 159.699 200.556 3
-13 -15 -6 624.804 374.004 3
-6 -13 -15 557.561 348.907 3
13 15 -6 635.851 353.41 1
-13 15 6 711.859 420.802 1
-6 -13 -15 623.156 287.772 2
-6 13 15 1003.08 331.602 2
-6 -15 13 352.072 295.738 2
6 15 13 811.753 384.016 1
-6 13 15 659.989 325.054 1
6 13 -15 348.835 258.974 1
6 -13 15 985.373 399.857 2
6 -15 -13 98.3965 275.221 2
13 6 15 149.116 339.402 4
13 -15 6 989.44 370.678 2
-6 15 -13 642.75 366.67 1
-15 6 13 834.204 376.696 1
15 -13 -6 561.99 350.309 2
-15 -6 -13 480.077 376.721 3
-15 13 -6 60.2153 345.165 1
-15 -13 6 658.028 203.579 3
15 14 -3 1601.93 462.663 1
-14 -15 3 2386.1 362.454 3
-3 15 14 2428.05 516.286 1
-3 -14 15 2233.4 390.432 1
14 15 3 1812.01 488.295 1
-3 -15 -14 1363.1 352.436 2
-3 -14 15 2485.36 504.15 2
-14 15 -3 1881.76 540.551 1
3 -15 14 2423.28 514.185 2
-15 14 3 1930.29 568.15 1
3 14 15 2027.41 435.364 1
3 -14 -15 3191.07 470.263 2
-3 14 -15 1996.47 417.322 1
15 3 14 2110.93 523.176 4
-14 3 15 1553.04 328.13 4
3 15 -14 1828.89 388.213 1
14 -15 -3 2426.86 555.702 2
15 -14 3 2203.58 524.206 2
-14 -3 -15 1949.92 529.527 3
3 15 -14 1275.69 151.807 3
-15 -14 -3 2220.78 447.178 3
15 14 -1 1049.89 436.515 1
-14 -15 1 1036.39 301.643 3
14 15 1 1485.7 491.871 1
-1 -14 15 1043.14 306.606 1
-1 14 -15 1343.6 350.708 1
-1 -15 -14 863.854 314.955 2
-14 15 -1 1122.55 417.68 1
-1 -14 15 919.73 365.433 2
1 -15 14 703.92 359.488 2
1 -14 -15 975.408 300.641 2
-15 14 1 2193.6 551.824 1
14 -1 15 1087.78 442.713 4
-15 -1 14 706.521 243.936 4
15 1 14 882.538 402.352 4
1 14 15 348.657 290.137 1
-14 1 15 1390.93 352.499 4
14 -15 -1 1455.23 465.603 2
15 -14 1 1571.83 481.423 2
-1 15 14 1004.23 393.648 1
-14 -1 -15 984.08 427.947 3
-15 -14 -1 1098.92 331.124 3
1 15 -14 635.781 258.477 1
15 14 1 672.628 333.982 1
-14 -15 -1 996.962 339.681 3
1 14 -15 1522.89 381.217 1
14 15 -1 1544.94 415.426 1
-1 15 -14 972.365 291.74 1
-14 15 1 969.133 489.829 1
-1 -14 -15 564.248 264.668 2
-1 -15 14 667.673 348.859 2
1 -15 -14 608.654 271.589 2
1 -14 15 1406.95 414.673 2
-15 14 -1 1361.39 439.536 1
15 -1 14 521.774 292.893 4
-14 -1 15 1323.56 342.897 4
14 1 15 806.548 374.053 4
1 15 14 761.479 403.092 1
-15 1 14 1749.53 341.595 4
14 -15 1 2020.82 517.656 2
15 -14 -1 857.622 450.669 2
-1 14 15 618.007 339.402 1
-15 -1 -14 1016.7 410.328 3
1 14 -15 1368.93 232.653 3
-15 -14 1 589.243 276.877 3
15 14 3 1587.15 479.607 1
-14 -15 -3 2290.63 441.785 3
-3 14 15 2114.05 453.106 1
14 15 -3 1928.08 499.352 1
-3 14 15 2052.08 419.377 2
-3 -14 -15 2416.94 416.421 2
-14 15 3 1270.8 521.08 1
-3 -15 14 2432.5 483.905 2
-3 15 -14 3376.17 533.724 1
3 -15 -14 2099.67 427.464 2
3 -14 15 1212.36 451.709 2
3 15 14 1273.46 390.884 1
-15 14 -3 1856.57 539.349 1
14 3 15 2703.07 552.137 4
-15 3 14 2356.64 366.254 4
14 -15 3 2002.94 503.388 2
3 14 -15 2451.48 439.015 1
15 -14 -3 1697.49 517.555 2
-15 -3 -14 1296.86 515.848 3
-15 -14 3 2235.42 356.648 3
3 14 -15 1509.08 171.817 3
0 -16 0 18013.1 1227.42 2
0 16 0 18499.6 1289.86 1
0 0 16 17363.1 1289.76 4
0 0 16 18037.1 1083.74 3
0 0 -16 17449.6 1127.16 3
-1 1 -16 892.443 295.308 3
-1 -1 -16 -151.042 245.047 3
1 1 -16 -231.358 234.678 3
1 -1 -16 321.703 233.337 3
-1 1 -16 232.163 85.4227 2
-1 -16 -1 170.305 261.874 2
-1 -16 1 -273.219 292.586 2
1 -16 -1 122.642 226.151 2
1 -16 1 249.875 275.758 2
1 16 1 236.776 306.298 1
1 1 16 178.949 291.981 4
-1 1 16 -66.0217 294.144 4
1 16 -1 73.605 279.48 1
16 -1 1 60.4998 103.399 4
-1 16 1 0.62963 269.665 1
-1 16 -1 237.43 267.731 1
1 -1 16 97.5408 168.491 3
-1 -1 16 41.5675 160.965 3
-2 0 -16 600.914 248.154 3
0 2 -16 626.182 235.698 3
0 2 16 428.427 101.257 1
0 -2 -16 690.166 281.367 3
2 16 0 916.808 289.209 3
2 0 16 504.483 90.9491 1
-2 0 -16 456.284 101.299 2
-2 -16 0 1350.34 417.848 2
0 -16 -2 821.095 317.027 2
0 -16 2 491.006 290.681 2
2 -16 0 1034.26 314.371 2
2 16 0 750.75 369.52 1
2 0 16 294.783 84.526 1
-2 0 16 484.419 306.233 4
2 0 16 452.468 327.502 4
0 2 16 211.671 288.918 4
16 -2 0 285.253 84.5423 4
0 16 2 611.876 344.065 1
0 -2 16 497.188 128.945 2
16 0 2 769.602 165.736 4
0 16 -2 627.033 318.496 1
0 -2 16 594.595 221.892 3
-2 16 0 389.367 307.326 1
-2 0 16 850.285 256.753 3
-2 -2 -16 796.433 317.157 3
2 2 -16 1421.79 299.689 3
-2 2 -16 2039.9 236.666 2
-2 -16 -2 1028.59 322.84 2
-2 -16 2 1881.64 425.203 2
2 2 16 1235.94 174.575 1
2 -16 -2 2013.83 423.087 2
2 -16 2 1744.83 401.073 2
-2 -2 16 1172.59 178.466 2
2 16 2 1367.24 387.461 1
2 16 -2 1096.83 399.984 1
16 -2 2 1876 235.491 4
2 2 16 1049.46 374.481 4
-2 2 16 2117.25 481.614 4
2 -2 16 1669.7 219.95 2
-2 16 2 1757.63 421.856 1
-2 -2 16 1507.43 263.666 3
-2 16 -2 1083.43 404.766 1
-2 2 -16 1647.88 353.727 3
-1 3 -16 266.583 224.78 3
-3 -1 -16 54.5123 206.694 3
3 16 1 191.751 209.06 3
3 -1 16 165.34 90.8375 1
-1 3 -16 49.7422 119.717 2
-3 -16 1 172.886 272.655 2
-1 -16 -3 -72.5506 267.719 2
1 -16 3 -39.7797 270.073 2
3 -16 -1 -472.575 262.103 2
-3 -1 -16 -70.3974 99.056 2
3 16 1 -63.2512 253.872 1
-1 -3 16 -288.425 154.691 2
1 3 16 279.104 115.974 1
-3 1 16 71.5398 297.781 4
1 3 16 52.551 263.114 4
1 16 -3 668.464 336.935 1
16 1 3 25.6294 146.69 4
-1 16 3 -205.326 334.487 1
-1 -3 16 71.9365 151.158 3
-3 1 16 273.381 206.465 3
-3 16 -1 -382.527 316.427 1
1 3 -16 -22.79 174.372 3
-1 -3 -16 48.2514 233.922 3
3 16 -1 -131.4 224.701 3
3 1 16 -56.3647 90.8727 1
3 1 16 12.4257 107.789 1
-3 -16 -1 -16.7225 265.632 2
-1 3 16 6.6376 91.1049 1
-1 -16 3 -104.466 263.08 2
-3 1 -16 321.752 135.717 2
1 -16 -3 -128.126 266.919 2
-3 -1 16 -54.2958 70.5522 2
3 -16 1 509.735 291.349 2
3 16 -1 -353.182 295.531 1
1 16 3 206.745 252.789 1
3 1 16 229.531 282.252 4
16 -1 3 17.4227 140.058 4
-1 3 16 -3.30353 267.837 4
1 -3 16 192.395 144.603 2
-16 -3 1 89.74 91.4166 4
-1 16 -3 280.428 252.383 1
-3 -1 16 -320.909 213.662 3
-3 16 1 -5.48361 257.293 1
-3 1 -16 -151.094 233.311 3
-3 16 -3 3854.7 619.893 1
-3 -3 -16 4545.47 604.029 3
-3 3 16 3370.03 286.285 1
-3 3 -16 5071.57 432.569 2
-3 -3 16 3729.3 334.9 2
-3 -16 -3 4206.51 591.521 2
-3 -16 3 3990.09 598.969 2
-3 -3 -16 2949.17 254.579 2
3 -16 -3 3971.84 554.961 2
3 -16 3 4317.65 624.523 2
3 16 3 4463.93 634.184 1
3 -3 16 4110.79 310.013 1
3 16 -3 4417.77 613.873 1
3 -3 16 5395.37 452.475 2
3 3 16 4373.92 667.001 4
-3 3 16 4314.14 631.213 4
-3 -3 16 4436.09 430.469 3
3 -3 -16 3634.84 279.461 1
3 16 -3 4640.97 491.192 3
-3 16 3 3773.92 587.836 1
3 3 16 3696.51 331.818 1
-3 3 -16 3735.96 496.698 3
-4 -2 -16 1853.51 464.591 3
-4 16 -2 1835.48 454.317 1
-4 -16 2 2390.52 463.814 2
-2 4 -16 2662.85 324.083 2
-2 -16 -4 2415.13 447.69 2
2 4 16 2348.63 271.608 1
-2 -4 16 3111.59 326.879 2
2 -16 4 2898.57 499.52 2
4 16 2 3445.55 579.399 1
4 -16 -2 2870.12 496.055 2
2 16 -4 2706.14 526.242 1
-16 -4 -2 2703.27 344.933 4
-4 2 16 2450.07 499.317 4
-4 -2 -16 2182.26 251.472 2
2 4 16 2156.03 488.107 4
16 2 4 3157.18 374.524 4
-16 4 2 2815.16 504.584 1
-2 -4 16 2978.34 361.019 3
-2 16 4 2111.44 447.875 1
4 -2 16 2732.75 287.034 1
2 -4 -16 2653.13 265.661 1
-4 2 16 2526.6 215.968 1
-2 4 -16 2459.65 397.827 3
-4 0 16 238.346 200.879 3
0 4 -16 40.3462 174.853 3
4 16 0 156.068 197.328 3
-4 16 0 99.1875 266.422 1
0 -4 -16 -25.6852 238.367 3
-4 -16 0 -122.526 265.284 2
-4 0 16 62.6551 55.7925 2
4 0 16 -86.2785 132.144 1
0 -16 -4 -119.208 261.952 2
0 -16 4 -271.85 306.292 2
4 0 16 -245.686 284.642 4
4 16 0 445.545 296.38 1
4 -16 0 559.188 281.123 2
-4 0 -16 175.258 150.203 2
0 -4 16 485.96 189.646 2
-4 0 16 28.1683 297.21 4
-16 -4 0 295.806 152.367 4
0 4 16 402.18 318.078 4
16 0 4 -14.2018 171.057 4
0 16 4 -134.319 307.515 1
0 16 -4 357.554 316.569 1
0 4 16 -51.7066 123.033 1
-4 0 -16 142.989 223.214 3
4 2 16 2475.65 273.918 1
4 16 -2 2958.79 387.269 3
-4 16 2 2180.12 487.936 1
-2 -4 -16 2594.03 466.085 3
2 4 -16 2841.84 384.012 3
2 -4 16 2036.49 197.603 1
-4 -16 -2 2477.53 493.414 2
-4 -2 16 2165.84 237.28 2
16 -2 4 3248.71 357.003 4
-2 -16 4 3052.88 522.401 2
-2 4 16 2362.39 270.991 1
2 -16 -4 2981.08 483.376 2
-4 2 -16 2881.39 351.941 2
4 16 -2 2925.91 536.19 1
4 -16 2 2268.79 452.876 2
2 16 4 2172.76 476.722 1
4 2 16 2580.39 510.87 4
-2 4 16 3584.44 564.435 4
-16 -4 2 2093.26 231.536 4
2 -4 16 3008.41 367.072 2
-2 16 -4 3295.21 531.279 1
-4 2 -16 2348.51 409.473 3
-4 -2 16 2723.11 365.812 3
4 -2 -16 1964.76 191.771 1
-4 -4 -16 1288 393.327 3
-4 16 4 1435.35 432.106 1
4 16 -4 1429.68 270.402 3
-4 16 -4 1568.08 441.238 1
-16 4 4 1345.24 346.455 1
4 4 16 1368.81 237.279 1
-4 4 16 1363.49 223.467 1
4 -4 16 1613.6 238.166 1
-4 -16 -4 1241.12 388.519 2
-4 -16 4 1083.37 334.779 2
-4 -4 16 1237.98 228.496 2
4 -4 -16 1257.52 202.205 1
-4 4 -16 756.27 223.77 2
4 16 4 1048.42 332.692 1
4 16 -4 785.353 349.101 1
4 -16 4 1875.7 424.216 2
4 -16 -4 1041.13 332.534 2
4 4 16 1545.68 464.478 4
-4 4 16 1757.59 416.921 4
-16 -4 4 1020.56 159.333 4
16 4 4 1429.85 285.181 4
4 -4 16 1324.78 275.301 2
-4 -4 -16 1508.63 206.009 2
-4 -4 16 1230.56 254.033 3
-4 4 -16 1135.32 316.309 3
-5 -3 -16 603.146 273.333 3
3 -5 -16 1032.66 213.026 1
-5 16 -3 414.685 311.641 1
-5 3 16 545.102 159.751 1
-5 -16 3 532.073 326.501 2
-3 -16 -5 588.797 282.295 2
3 5 16 840.39 208.173 1
-3 5 -16 665.13 239.674 2
-3 -5 16 1030.57 225.761 2
5 16 3 780.274 396.543 1
3 -16 5 926.354 357.797 2
5 -16 -3 549.483 282.706 2
3 16 -5 692.99 336.994 1
-16 -5 -3 691.165 253.564 4
-5 3 16 540.677 305.215 4
3 5 16 841.864 350.524 4
16 3 5 944.218 257.772 4
5 -3 16 1086.35 213.243 1
-5 -3 -16 427.406 143.45 2
-16 5 3 1115.13 343.348 1
-3 5 -16 1171.06 293.774 3
-3 16 5 642.7 351.971 1
5 16 1 1661.55 340.247 3
-5 1 16 1713.87 341.629 3
-16 5 1 1582.22 436.092 1
-5 16 -1 1217.82 416.861 1
-1 5 -16 2013.39 303.574 2
-5 -16 1 1639.26 439.247 2
-1 -16 -5 1329.46 390.245 2
5 16 1 1914.68 448.516 1
1 -16 5 1787.39 412.802 2
-1 -5 16 1371.57 261.406 2
5 -16 -1 2211.75 443.632 2
1 5 16 1753.94 263.261 1
-5 -1 -16 1705.84 260.365 2
-16 -5 -1 1617.02 274.383 4
1 16 -5 1671.86 420.605 1
16 1 5 1834.39 304.699 4
5 -1 16 2016.87 277.459 1
1 5 16 1663.7 461.273 4
-1 16 5 1672.05 438.761 1
-5 1 16 1284.6 158.218 2
-5 1 16 1560.61 437.624 4
-1 5 -16 1564.97 309.432 3
-5 -1 -16 1410.79 385.324 3
-5 -1 16 1824.65 328.902 3
-1 5 16 1420.23 238.806 1
5 16 -1 2176.02 332.758 3
1 5 -16 2012.26 317.236 3
-1 -5 -16 1319.85 365.444 3
-5 16 1 1132.91 383.225 1
-5 -1 16 1850.27 203.06 2
-5 -16 -1 1822.18 419.633 2
1 -5 16 1307.46 150.989 1
-1 -16 5 2093.12 467.697 2
5 1 16 1604.65 240.498 1
1 -16 -5 1833.74 409.24 2
5 16 -1 1472.59 399.38 1
5 -16 1 1521.01 415.753 2
-5 1 -16 1675.23 289.149 2
5 -1 -16 1091.7 141.982 1
1 -5 16 1923.15 323.316 2
1 16 5 1896.11 453.046 1
5 1 16 1366.86 432.024 4
16 -1 5 1706.51 302.78 4
-16 5 -1 2082.61 498.569 1
-1 5 16 2173.84 493.793 4
-16 -5 1 1949.89 262.801 4
-1 16 -5 1152.78 374.28 1
-5 1 -16 1872.2 397.44 3
5 3 16 893.283 203.449 1
5 16 -3 977.642 266.247 3
-3 -5 -16 92.6752 240.785 3
-3 16 -5 1056.16 371.879 1
-5 16 3 671.786 386.205 1
-3 -5 -16 558.032 123.929 2
-5 -3 16 685.132 177.926 2
-5 -16 -3 558.99 326.465 2
-3 -16 5 922.439 355.035 2
5 3 16 210.785 286.78 4
5 16 -3 888.63 347.818 1
3 -16 -5 469.462 266.312 2
-5 3 -16 728.775 247.194 2
5 -3 -16 691.745 161.205 1
3 16 5 1401.82 420.847 1
5 -16 3 1167.9 409.901 2
-3 5 16 843.106 218.023 1
-3 5 16 829.688 369.996 4
3 -5 16 900.809 252.414 2
-16 -5 3 844.008 181.243 4
16 -5 -3 700.346 121.775 4
3 -5 16 836.834 184.432 1
-5 3 -16 1019.94 319.254 3
-5 -3 16 905.504 224.847 3
-16 5 -3 689.623 299.087 1
5 16 -5 546.273 178.083 3
-5 -5 -16 -110.446 263.966 3
5 5 16 96.0074 173.86 1
-5 16 5 482.162 309.089 1
-5 5 16 125.23 182.057 1
-5 -16 -5 567.981 302.623 2
-5 -5 16 215.393 174.826 2
-5 -16 5 473.137 316.633 2
5 -5 16 611.038 218.514 1
-5 16 -5 719.265 313.812 1
-5 5 16 447.118 107.182 2
5 16 5 71.6592 327.317 1
-5 5 -16 657.656 259.215 2
5 16 -5 480.025 305.332 1
5 5 -16 243.533 91.0721 1
5 -5 -16 358.883 172.36 1
5 -16 5 700.511 332.319 2
5 -16 -5 306.833 243.591 2
-16 -5 -5 769.922 280.406 4
16 -5 -5 193.042 84.2551 4
5 5 16 -515.737 360.993 4
-5 5 16 37.7256 295.431 4
-16 5 5 230.312 289.879 1
5 -5 16 466.985 253.324 2
16 5 5 332.094 237.588 4
-5 5 -16 716.064 300.01 3
-5 -5 16 497.04 167.257 3
-6 -4 -16 716.944 340.516 3
-4 16 6 774.681 357.945 1
4 16 -6 2061.82 283.681 3
6 4 -16 1344.88 178.16 1
-6 -16 4 1759.7 422.637 2
4 6 16 1206.63 259.977 1
-4 -16 -6 1159.34 358.94 2
-4 -6 16 1767.27 284.226 2
4 -6 -16 1648.28 271.952 1
6 16 4 725.387 317.129 1
-6 16 -4 956.667 368.302 1
-4 6 -16 1573.7 325.346 2
6 4 -16 1237.61 172.671 1
-4 6 -16 1250.13 244.751 1
4 -16 6 1645.62 430.41 2
-6 4 16 1138.01 185.115 2
4 16 -6 1639.85 412.385 1
6 -16 -4 2009.84 429.346 2
-16 -6 -4 1462.34 325.066 4
6 -4 16 1423.12 262.999 1
-6 4 16 1289.38 373.209 4
4 6 16 1380.83 415.117 4
-16 6 4 2109.52 483.026 1
16 4 6 1475.63 312.186 4
6 -4 16 1846.74 341.599 2
-4 6 -16 1057.88 317.007 3
-6 4 16 1383.7 240.381 1
2 -6 -16 1398.26 245.006 1
-6 -16 2 1926.63 468.719 2
-2 6 -16 1630.21 289.553 2
-2 -16 -6 1634.39 386.673 2
-6 16 -2 1645.41 460.143 1
6 16 2 1570.23 429.281 1
-2 -6 16 1410.4 278.399 2
6 -2 16 1838.47 287.062 1
2 -16 6 2163.75 492.538 2
2 6 16 1201.82 253.096 1
-2 6 -16 1734.57 232.17 1
6 -16 -2 1608.14 416.368 2
2 16 -6 1745.7 387.224 1
-6 2 16 1427.48 388.093 4
6 2 -16 1124.76 150.999 1
-16 -6 -2 1324.06 310.477 4
2 6 16 1879.09 487.625 4
-6 2 16 1579.25 209.259 2
16 2 6 1229.61 302.241 4
-6 -2 -16 1394.2 245.314 2
-16 6 2 1262.83 371.133 1
-2 16 6 1270.1 397.079 1
-2 6 -16 1498.87 322.972 3
-6 -2 -16 867.559 329.845 3
-16 6 0 1522.47 404.661 1
6 0 -16 1203.41 157.716 1
-6 0 16 1602.53 304.565 3
0 -6 16 1135.74 147.509 1
0 6 -16 1619.43 292.391 2
-6 -16 0 2010.82 446.076 2
-6 16 0 2004.94 488.508 1
6 16 0 1892.02 459.378 1
0 -16 -6 1838.26 413.994 2
0 -16 6 2317.91 473.308 2
0 -6 16 1790.34 308.005 2
6 -16 0 1756.18 408.762 2
-6 0 16 1454.55 371.243 4
6 0 16 1351.41 409.17 4
0 6 -16 1492.91 178.447 1
-6 0 -16 2192.26 322.329 2
16 0 6 1273.39 298.116 4
0 16 6 1106.13 364.498 1
6 0 16 1377.58 257.312 1
0 6 16 2034.61 465.861 4
-16 -6 0 1686.23 296.077 4
0 6 16 1369.91 247.539 1
0 16 -6 1348.04 419.514 1
-6 0 -16 403.918 290.317 3
6 16 0 1289.43 305.878 3
0 6 -16 1499.51 286.151 3
-6 -2 16 1317.96 260.685 3
2 6 -16 1566.3 275.405 3
-2 -6 -16 1421.28 369.393 3
-2 6 16 1164.09 257.495 1
-6 -16 -2 1067.08 380.613 2
-6 16 2 1669.49 453.392 1
-2 -6 -16 887.817 142.747 2
-2 -16 6 1341 391.155 2
-16 6 -2 2046.36 478.653 1
6 16 -2 1641.4 442.21 1
2 -16 -6 1617.8 395.404 2
2 -6 16 1478.03 216.727 1
6 -16 2 1857.62 442.985 2
-6 2 -16 1480.39 318.28 2
2 16 6 1127.55 345.739 1
2 6 -16 998.465 139.177 1
16 -2 6 1860.02 320.57 4
2 -6 16 1333.8 291.285 2
6 2 16 186.093 302.784 4
-2 6 16 1624.01 393.786 4
6 -2 -16 1519.86 210.385 1
-16 -6 2 1727.31 275.505 4
-6 2 -16 1388.26 354.822 3
6 16 -2 1880.24 315.055 3
-2 16 -6 1240.14 361.528 1
6 4 16 975.2 228.351 1
-16 4 6 1936.18 440.697 1
-4 -6 -16 1579.99 449.376 3
-4 6 16 1011.91 137.913 2
-6 -4 16 1649.28 260.112 2
-4 16 -6 2167.05 439.585 1
-6 -16 -4 1510.01 393.798 2
-6 16 4 1683.38 456.635 1
-4 -16 6 1737.61 440.416 2
6 16 -4 1005.4 362.607 1
4 16 6 1371.51 354.07 1
-6 4 -16 1285.86 315.977 2
4 -16 -6 1117.12 365.035 2
6 -16 4 1283.43 371.487 2
-4 6 16 1338.71 280.702 1
6 -4 -16 1210.22 208.793 1
6 4 16 1377.57 427.554 4
4 -6 16 1516.28 342.354 2
-4 6 16 1483.97 414.177 4
4 6 -16 1285 170.321 1
16 -6 -4 1576.12 199.497 4
-16 6 -4 1539.69 438.473 1
-6 4 -16 818.703 331.738 3
4 -6 16 1429.38 250.531 1
-6 -4 16 1557.33 261.685 3
6 16 -4 1257.76 237.789 3
-6 -6 -16 1698.38 453.779 3
6 6 16 1785.88 333.423 1
-6 -16 -6 1905.61 449.932 2
-6 -6 16 1652.23 303.082 2
-6 -16 6 1937.43 462.383 2
-6 16 6 1679.5 451.688 1
-6 6 16 1990.35 346.428 1
6 -6 16 2677.96 366.13 1
6 6 -16 1922.87 241.113 1
6 16 6 1727.8 427.703 1
-6 6 16 2131.13 272.266 2
-6 16 -6 2063.88 493.653 1
6 16 -6 1097.15 402.428 1
-6 6 -16 2699.82 447.802 2
6 -16 6 2804.11 533.821 2
6 -16 -6 2132.09 421.854 2
6 -6 -16 1942.83 290.926 1
-16 -6 -6 1864.82 419.195 4
16 -6 -6 2230.85 242.907 4
6 6 16 1704.8 467.244 4
-16 6 6 1580.54 435.046 1
-6 6 16 2023.85 446.612 4
6 -6 16 2162.82 398.139 2
16 6 6 1826.74 382.786 4
-16 6 -6 1957.29 462.54 1
-6 6 -16 1672.69 375.901 3
-6 -6 16 2248.79 263.045 3
6 16 -6 1963.8 252.889 3
-7 -5 -16 110.26 242.417 3
5 16 -7 197.402 118.423 3
-16 7 5 92.1753 290.431 1
7 5 -16 -146.483 141.604 1
-5 16 7 44.7179 290.362 1
-7 -16 5 265.094 264.145 2
5 7 16 441.841 237.161 1
-5 -16 -7 252.357 304.116 2
-5 -7 16 -11.2098 163.361 2
7 16 5 59.925 289.184 1
-5 7 -16 10.5451 252.932 2
5 -7 -16 -23.6795 177.746 1
5 16 -7 123.204 287.506 1
-7 16 -5 -178.23 341.332 1
-7 5 16 46.5055 169.988 2
5 -16 7 198.515 235.793 2
7 -16 -5 -75.9417 273.229 2
7 -5 16 -165.493 211.161 1
-16 -7 -5 316.945 257.903 4
-7 5 16 -156.946 264.017 4
5 7 16 -322.784 335.161 4
16 5 7 459.953 294.422 4
-7 5 16 112.928 177.112 1
-5 7 -16 271.536 212.581 1
7 -5 16 358.485 278.268 2
-5 7 -16 -72.1059 215.783 3
-16 -7 -3 60.5069 223.835 4
-3 7 -16 6.21306 164.376 1
-16 7 3 538.421 344.069 1
-7 -16 3 -360.997 294.415 2
7 -3 16 8.28485 193.023 1
3 -7 -16 -148.338 162.288 1
-3 -16 -7 173.425 237.979 2
-7 3 16 140.788 166.944 1
-3 7 -16 -169.085 216.645 2
7 16 3 -24.3922 279.973 1
-3 -7 16 229.632 182.497 2
3 7 16 5.56858 190.867 1
-7 16 -3 125.475 294.548 1
3 -16 7 325.683 286.486 2
7 -16 -3 395.04 252.282 2
3 16 -7 290.128 293.051 1
7 3 -16 -44.7496 128.646 1
-7 3 16 -159.978 145.585 2
-7 3 16 584.12 317.572 4
3 7 16 538.305 349.868 4
16 3 7 -30.3892 217.128 4
-7 -3 -16 -81.4859 162.592 2
-3 7 -16 -53.3418 171.16 3
-3 16 7 323.882 311.878 1
-7 -3 -16 151.188 256.304 3
1 -7 -16 823.229 222.66 1
-7 1 16 717.161 250.122 3
7 -1 16 932.72 207.135 1
-7 -16 1 625.382 328.28 2
-1 7 -16 969.057 259.895 2
-16 7 1 1032.01 368.673 1
7 16 1 780.894 344.636 1
-1 -16 -7 656.576 271.423 2
-7 16 -1 787.528 398.63 1
1 -16 7 1065.71 375.912 2
-1 7 -16 1017.92 186.343 1
-1 -7 16 1123.73 285.346 2
7 -16 -1 874.411 356.11 2
7 1 -16 716.08 163.136 1
7 -1 16 480.858 297.14 4
1 7 16 786.925 240.88 1
-7 1 16 963.285 352.479 4
16 1 7 808.428 281.123 4
1 -7 -16 720.594 131.394 2
-16 -7 -1 311.083 204.281 4
1 7 16 1239.28 451.425 4
-7 -1 -16 1062.76 259.324 2
1 16 -7 657.813 372.002 1
-1 16 7 700.247 394.672 1
-7 1 16 896.064 192.823 2
-1 7 -16 769.62 248.936 3
-7 -1 -16 784.306 327.4 3
7 16 1 681.473 253.662 3
1 7 -16 1134.1 260.376 3
-7 -1 16 611.339 205.561 3
-1 -7 -16 539.885 330.399 3
7 -1 -16 693.171 169.278 1
-7 -16 -1 569.007 307.243 2
1 -7 16 502.905 152.27 1
7 16 -1 440.942 294.054 1
-1 -16 7 842.405 331.176 2
-7 16 1 900.87 373.607 1
1 -16 -7 1046.19 335.75 2
-1 -7 -16 631.967 132.464 2
-16 7 -1 747.981 346.691 1
7 1 16 368.79 163.575 1
1 -7 16 885.418 266.581 2
7 -16 1 725.99 316.421 2
1 16 7 701.022 378.275 1
7 1 16 372.928 310.512 4
16 -1 7 770.206 254.337 4
-7 1 -16 1101.05 279.999 2
1 7 -16 715.305 159.32 1
-1 7 16 1196.61 410.356 4
-16 -7 1 786.772 252.573 4
-1 7 16 707.411 232.389 1
-7 1 -16 992.669 359.351 3
-1 16 -7 343.977 272.619 1
7 16 -1 774.696 251.133 3
3 7 -16 113.523 104.256 1
-7 -3 16 391.452 195.344 3
-3 -7 -16 -162.445 263.708 3
3 7 -16 98.1604 137.141 3
-3 16 -7 -126.15 301.378 1
-7 -16 -3 -105.295 235.034 2
-3 -7 -16 111.236 118.983 2
-3 7 16 184.677 192.507 1
-3 -16 7 -14.4338 301.888 2
7 16 -3 20.4039 276.481 1
-7 16 3 351.619 299.087 1
3 -16 -7 -276.389 242.333 2
3 16 7 709.693 356.249 1
-7 3 -16 83.1558 226.687 2
7 -16 3 327.478 296.501 2
3 -7 16 219.52 157.8 1
3 -7 16 330.923 244.702 2
7 3 16 606.29 328.225 4
-16 7 -3 625.469 345.779 1
-3 7 16 490.277 284.835 4
7 -3 -16 -6.42212 136.384 1
-7 3 -16 175.645 241.972 3
7 16 -3 283.18 184.64 3
5 -7 16 132.582 176.961 1
7 5 16 194.862 179.029 1
-16 7 -5 297.666 307.703 1
-5 -7 -16 -268.304 338.218 3
-7 -5 16 68.4725 175.752 2
-7 -16 -5 -159.05 304.94 2
-5 -16 7 1.85938 243.868 2
-5 7 16 104.686 119.561 2
-5 16 -7 260.115 278.281 1
-7 16 5 -204.285 289.745 1
7 16 -5 328.821 297.912 1
5 16 7 408.785 356.353 1
-7 5 -16 95.4723 246.254 2
5 7 -16 -157.83 147.482 1
5 -16 -7 -172.154 237.061 2
7 -16 5 425.723 289.243 2
-16 -5 -7 240.725 233.504 4
7 5 16 -297.846 300.388 4
5 -7 16 38.2477 234.673 2
-5 7 16 -77.7242 194.12 1
7 -5 -16 20.9509 153.487 1
-5 7 16 32.0787 285.552 4
16 -7 -5 289.329 133.774 4
-16 5 7 -70.3549 303.033 1
-7 5 -16 -390.306 257.993 3
7 16 -5 226.602 156.928 3
-7 -5 16 43.4394 134.005 3
-7 -7 -16 357.377 306.295 3
7 7 16 585.3 260.28 1
-16 7 7 488.477 305.885 1
-7 -16 -7 422.124 293.231 2
-7 -7 16 745.235 241.187 2
-7 -16 7 1139 391.929 2
7 7 -16 1167 234.798 1
-7 7 16 357.119 215.163 1
7 -7 16 1128.08 281.384 1
7 16 7 197.12 345.642 1
-7 16 7 597.775 387.409 1
7 16 -7 767.7 335.664 1
-7 7 16 1298.41 277.871 2
7 -16 -7 775.946 332.737 2
-7 16 -7 693.036 372.184 1
7 -16 7 643.93 353.459 2
-16 7 -7 265.232 350.071 1
7 -7 -16 892.589 256.555 1
16 -7 -7 945.145 222.744 4
7 7 16 71.5431 343.327 4
-7 7 -16 926.967 269.149 1
-7 7 16 1356.12 432.8 4
7 -7 16 861.59 305.329 2
-16 -7 -7 659.901 368.211 3
7 16 -7 757.375 154.485 3
-7 -7 16 842.954 155.071 3
-8 -6 -16 454.253 300.534 3
8 6 -16 724.235 199.568 1
6 8 16 462.006 238.832 1
-8 -16 6 1245 391.518 2
-6 -16 -8 210.86 245.482 2
-6 16 8 453.063 300.688 1
-6 -8 16 1057.12 295.767 2
8 16 6 793.483 300.421 1
6 16 -8 748.895 343.434 1
-8 6 16 712.966 239.325 2
-6 8 -16 656.534 249.598 1
6 -8 -16 687.779 245.25 1
6 -16 8 657.347 304.651 2
8 -6 16 1270.08 317.333 1
16 -6 -8 912.643 198.072 4
8 -16 -6 911.072 324.145 2
-8 16 -6 755.405 350.194 1
-16 6 -8 1054.14 379.603 1
-16 8 6 165.54 290.539 1
-8 6 16 681.622 272.349 1
-8 6 16 603.753 334.849 4
6 8 16 114.22 314.842 4
16 6 8 784.148 313.912 4
8 -6 16 490.768 292.519 2
-16 -8 -6 1021.74 382.969 3
6 16 -8 609.52 139.352 3
-4 16 8 -47.0421 277.388 1
4 16 -8 -16.2175 108.174 3
8 -4 16 43.0673 184.252 1
-8 -16 4 98.6705 254.591 2
-4 -16 -8 4.26386 240.231 2
8 16 4 -5.15935 281.863 1
-4 -8 16 190.408 199.273 2
-4 8 -16 -340.679 308.797 2
4 8 16 316.32 236.795 1
4 -8 -16 -103.824 179.786 1
4 -16 8 -13.3958 290.894 2
4 16 -8 437.924 331.911 1
-8 16 -4 -439.606 331.929 1
8 -16 -4 -148.608 267.248 2
-8 4 16 176.152 177.276 2
8 4 -16 305.293 180.15 1
-16 -8 -4 248.3 276.552 4
-8 4 16 939.973 368.768 4
-8 4 16 211.387 175.789 1
-16 8 4 -290.942 364.926 1
4 8 16 -348.875 387.763 4
16 4 8 -402.935 269.593 4
4 -8 -16 55.3321 127.076 2
-16 -8 -4 -39.4639 264.808 3
-4 8 -16 -172.832 237.102 3
-4 8 -16 68.9343 178.609 1
-8 -4 -16 -160.866 274.378 3
2 -8 -16 763.446 208.721 1
-8 -16 2 708.126 351.608 2
-2 8 -16 431.92 244.513 2
8 16 2 646.068 319.502 1
-2 -16 -8 717.037 330.256 2
8 2 -16 708.534 198.41 1
-2 8 -16 412.287 184.164 1
-2 -8 16 672.951 245.34 2
2 -16 8 412.882 305.297 2
2 8 16 252.484 185.212 1
-8 16 -2 389.022 362.901 1
8 -16 -2 702.802 346.087 2
-16 -2 8 618.387 127.9 4
-8 2 16 536.971 284.706 4
2 16 -8 526.466 308.248 1
2 -8 -16 714.598 169.332 2
16 2 8 1174.39 348.168 4
-16 -8 -2 430.369 221.076 4
8 -2 16 978.108 247.407 1
2 8 16 -280.64 355.365 4
-16 8 2 615.473 337.969 1
-8 2 16 337.783 176.233 2
-8 -2 -16 680.844 251.106 2
-2 16 8 299.452 327.974 1
-2 8 -16 155.383 205.189 3
-8 -2 -16 903.872 374.91 3
0 -8 -16 1017.24 258.731 1
-8 0 16 1148.32 284.719 3
0 -8 16 1320.02 213.534 1
0 8 -16 946.215 290.117 2
-8 -16 0 1771.12 449.328 2
8 16 0 399.434 284.55 1
0 -16 -8 1463.36 369.866 2
0 -16 8 757.112 349.792 2
0 -8 16 1253.6 318.257 2
-8 16 0 1507.54 425.488 1
0 -8 -16 1179.76 194.207 2
8 0 -16 1124.07 207.043 1
8 -16 0 1377.52 390.038 2
8 0 16 997.862 409.985 4
-8 0 16 1269.87 375.162 4
16 0 8 947.451 296.097 4
0 16 8 1206.43 419.504 1
-8 0 -16 1062.48 271.31 2
0 8 -16 984.153 198.61 1
0 8 16 669.393 215.543 1
0 8 16 646.01 329.022 4
-16 -8 0 1252.43 300.562 4
0 16 -8 1122.41 373.622 1
-16 8 0 1113.55 452.487 1
-8 0 -16 1079.25 360.141 3
8 16 0 748.512 265.611 3
8 0 16 1633.55 302.413 1
0 8 -16 979.432 254.204 3
2 8 -16 879.959 222.629 3
-16 8 -2 825.869 366.899 1
-2 16 -8 1865.52 457.469 1
-8 -2 16 502.452 230.655 3
-2 8 16 427.877 240.25 1
-2 -8 -16 851.375 341.542 3
-8 -16 -2 334.859 335.087 2
2 8 -16 583.947 157.156 1
8 -2 -16 731.976 210.095 1
8 16 -2 227.039 279.221 1
-2 -8 -16 640.761 164.172 2
-2 -16 8 539.683 319.717 2
2 -8 16 808.154 201.929 1
2 -16 -8 626.789 277.026 2
-8 16 2 -18.5633 324.7 1
2 16 8 892.457 374.904 1
2 -8 16 525.579 260.023 2
8 -16 2 700.326 366.815 2
16 -2 8 485.363 237.016 4
-8 2 -16 512.525 278.913 2
8 2 16 1270.32 386.306 4
-2 8 16 652.003 351.179 4
-8 2 -16 870.445 346.953 3
8 16 -2 515.306 230.319 3
-8 -4 16 411.996 165.356 3
-4 -8 -16 182.407 260.742 3
-8 -16 -4 -44.5435 217.994 3
-8 -16 -4 -1256.09 387.136 2
-4 -8 -16 -296.214 173.245 2
-4 8 16 131.297 126.228 2
-16 8 -4 12.6233 285.737 1
-4 16 -8 651.588 366.411 1
8 16 -4 4.51436 265.946 1
-4 -16 8 7.45055 240.289 2
-4 8 16 190.095 224.605 1
-8 16 4 187.017 292.889 1
4 16 8 67.8013 280.698 1
4 -16 -8 527.768 297.638 2
-8 4 -16 30.4486 213.573 2
8 -16 4 -52.3036 253.54 2
4 -8 16 -128.327 240.592 2
8 4 16 265.253 313.67 4
4 8 -16 93.4379 127.591 1
4 -8 16 -12.2904 181.742 1
-4 8 16 218.83 283.549 4
-8 4 -16 165.39 244.299 3
8 16 -4 -185.271 156.368 3
8 -4 -16 -75.5851 149.347 1
8 6 16 138.165 208.105 1
6 -8 16 1518.73 326.145 1
-6 -8 -16 594.897 332.423 3
-8 -16 -6 -15.3846 239.362 3
-8 -16 -6 933.97 382.509 2
-6 -16 8 559.56 322.709 2
8 16 -6 205.231 303.584 1
-6 8 16 748.047 228.5 2
6 16 8 748.218 348.059 1
6 8 -16 1284.31 243.912 1
-8 16 6 408.428 334.982 1
-6 16 -8 1115.51 417.259 1
-16 8 -6 558.499 361.798 1
6 -16 -8 1360.46 372.395 2
8 -16 6 938.804 391.48 2
8 6 16 530.284 365.255 4
6 -8 16 575.746 320.473 2
16 -8 -6 1245.85 249.795 4
-6 8 16 1367.89 416.19 4
-16 6 8 1190.23 356.354 1
8 -6 -16 945.563 247.984 1
-6 8 16 602.21 265.646 1
-16 -6 -8 390.729 325.467 3
-8 -6 16 538.613 147.074 3
-8 -8 -16 -17.6887 289.419 3
-8 -16 -8 -39.5108 252.945 3
8 8 16 -290.94 241.684 1
-8 -16 -8 363.695 309.786 2
-8 -8 16 -32.2337 202.985 2
-8 -16 8 392.96 311.651 2
8 8 -16 127.901 181.128 1
-8 8 -16 601.444 307.272 1
8 16 8 -226.811 331.167 1
8 -8 16 249.498 239.609 1
-8 8 16 323.487 264.48 1
8 16 -8 467.475 321.785 1
-8 16 8 272.05 318.607 1
-8 8 16 361.479 211.485 2
8 -16 8 265.813 286.525 2
8 -16 -8 -222.509 279.832 2
16 -8 -8 92.9684 190.051 4
8 -8 -16 -84.6485 187.09 1
-8 16 -8 -110.72 368.906 1
8 8 16 303.046 380.974 4
-16 8 8 354.554 337.877 1
-8 8 16 22.9338 319.859 4
8 -8 16 591.305 337.252 2
-8 -8 16 131.942 82.5083 3
-16 -8 -8 359.835 337.229 3
-16 8 -8 104.714 305.685 1
-9 -7 -16 -41.1381 316.674 3
9 7 -16 886.712 248.156 1
-7 -16 -9 637.195 302.608 3
7 9 16 1015.89 319.73 1
-9 -16 7 1307.18 441.539 2
-7 -16 -9 1790.23 446.662 2
-7 -9 16 796.309 282.796 2
9 16 7 1130.74 432.24 1
-7 16 9 1520.5 466.93 1
-7 9 -16 595.265 275.932 1
7 16 -9 442.352 288.824 1
-16 9 7 1349.18 479.336 1
-9 7 16 741.092 249.567 2
9 -7 16 877.736 323.39 1
7 -9 -16 288.172 207.209 1
7 -16 9 1059 412.52 2
16 -7 -9 805.24 245.4 4
9 -16 -7 1108.48 391.7 2
-9 7 16 653.801 306.852 1
-16 7 -9 526.909 352.02 1
7 9 16 1633.96 516.819 4
-9 7 16 773.95 328.793 4
16 7 9 859.052 332.115 4
-9 16 -7 819.545 389.413 1
9 -7 16 1378.56 426.383 2
-16 -9 -7 391.867 298.437 3
16 -9 7 351.153 308.549 2
-5 16 9 518.9 313.92 1
-9 -16 5 697.599 331.809 2
9 16 5 325.739 295.636 1
-5 -16 -9 759.4 327.156 2
-5 -9 16 688.856 266.054 2
5 9 16 295.761 240.611 1
5 -9 -16 914.631 260.343 1
9 5 -16 249.991 177.742 1
-16 9 5 382.794 329.108 1
-9 5 16 743.313 271.062 1
5 16 -9 615.411 348.412 1
5 -16 9 992.79 377.022 2
-9 5 16 650.134 245.424 2
9 -16 -5 1212.58 383.863 2
-9 5 16 836.722 356.518 4
-9 16 -5 388.137 324.698 1
5 9 16 113.57 349.845 4
16 5 9 232.097 255.117 4
5 -9 -16 370.46 185.905 2
-5 9 -16 18.6854 207.709 1
-16 -9 -5 861.561 327.433 3
16 -9 5 567.097 345.942 2
9 -5 16 443.956 234.7 1
-9 -5 -16 773.224 388.684 3
5 16 -9 444.76 114.17 3
-9 -16 3 -277.998 281.892 2
9 16 3 -369.895 412.58 1
3 -9 -16 -128.029 174.895 1
-3 9 -16 314.478 259.405 2
-3 -16 -9 283.486 261.125 2
-3 -9 16 47.0615 208.6 2
-3 9 -16 -143.314 171.4 1
3 9 16 216.143 253.048 1
3 -16 9 -243.691 269.445 2
-16 9 3 -97.3105 282.06 1
9 -3 16 141.397 183.464 1
3 16 -9 -26.1786 270.118 1
9 -16 -3 -327.062 307.347 2
-9 16 -3 471.018 366.241 1
-9 3 16 -243.988 288.806 4
3 -9 -16 104.108 150.215 2
16 3 9 -565.74 256.174 4
-16 -9 -3 303.373 244.331 4
3 9 16 -285.611 323.931 4
-9 3 16 212.302 192.211 2
-3 9 -16 -164.567 193.235 3
-16 -9 -3 -144.874 266.724 3
-9 -3 -16 324.062 246.226 2
16 -9 3 -243.071 258.531 2
-9 -3 -16 -288.319 318.081 3
-3 16 9 436.918 345.254 1
9 3 -16 166.276 175.462 1
-1 -9 16 -82.2884 138.791 1
9 1 -16 47.2817 158.671 1
1 -9 -16 -257.439 245.868 1
-9 -16 1 -764.898 367.339 2
-1 9 -16 -50.9994 216.078 2
9 16 1 184.505 307.309 1
9 -1 16 360.012 216.719 1
-1 -16 -9 446.161 252.414 2
1 -16 9 -78.8797 272.563 2
-1 -9 16 152.987 235.927 2
-16 9 1 611.764 359.791 1
1 -9 -16 -40.7574 161.817 2
9 -1 16 -10.3676 290.67 4
-9 16 -1 931.468 416.991 1
1 9 16 245.651 216.463 1
9 -16 -1 -114.003 254.44 2
-9 1 16 -21.7679 264.009 4
-16 -1 9 37.0182 94.711 4
16 1 9 225.613 212.235 4
1 9 16 99.6106 320.167 4
-16 -9 -1 -22.685 231.633 4
-9 -1 -16 -93.4606 219.924 2
-1 16 9 157.551 310.055 1
1 16 -9 -34.4358 251.862 1
-1 9 -16 11.0754 151.752 1
-16 -9 -1 333.26 213.635 3
-1 9 -16 196.812 186.363 3
-9 -1 -16 242.079 273.098 3
-9 -1 16 -57.7188 181.315 3
-9 -16 -1 212.839 186.706 3
-9 -16 -1 -168.651 271.96 2
9 16 -1 488.666 313.512 1
1 -9 16 226.316 171.383 1
1 9 -16 490.607 186.129 1
9 1 16 461.568 248.803 1
-1 -16 9 -103.667 293.69 2
-1 -9 -16 104.954 131.959 2
1 -16 -9 -233.989 258.292 2
1 -9 16 74.9422 234.369 2
9 -1 -16 -80.1781 159.33 1
-9 16 1 -149.803 350.119 1
-9 -1 16 237.601 271.291 4
-16 9 -1 220.902 309.282 1
1 16 9 359.518 289.367 1
16 -1 9 9.51587 214.829 4
9 -16 1 215.808 262.645 2
9 1 16 113.456 318.828 4
-9 1 -16 329.62 219.764 2
-1 9 16 132.538 297.622 4
-16 -9 1 -96.0352 207.875 4
-1 9 16 21.9439 210.042 1
9 16 -1 -141.746 208.803 3
-9 1 -16 423.615 304.132 3
1 9 -16 133.061 174.47 3
-1 16 -9 -412.754 334.756 1
-9 -3 16 259.47 201.859 3
3 9 -16 -361.37 175.976 3
-9 -16 -3 112.299 209.001 3
-3 -9 -16 -619.047 340.562 3
-3 9 16 -137.364 263.365 1
-3 16 -9 17.3119 272.68 1
9 -3 -16 258.07 179.334 1
9 16 -3 542.01 334.07 1
-3 -9 -16 -314.902 159.031 2
-3 -16 9 382.335 328.803 2
3 -16 -9 116.832 243.68 2
3 16 9 184.083 312.643 1
3 -9 16 -314.561 197.772 1
-9 16 3 166.814 333.173 1
3 -9 16 173.72 216.212 2
-9 3 -16 13.6918 274.74 2
9 -16 3 87.134 249.402 2
9 3 16 176.958 274.655 4
-16 9 -3 70.5323 335.729 1
-3 9 16 -11.8142 297.577 4
9 16 -3 -231.907 159.781 3
-9 3 -16 -120.063 253.622 3
3 9 -16 485.58 192.704 1
9 -5 -16 323.689 196.928 1
-16 5 9 814.814 369.704 1
-9 -5 16 515.524 166.769 3
-5 -9 -16 197.14 298.437 3
-9 -16 -5 970.986 305.815 3
-5 -9 -16 456.223 214.737 2
-5 9 16 822.101 208.359 2
9 16 -5 1012.69 369.346 1
-5 -16 9 666.223 312.051 2
-5 16 -9 83.6029 310.368 1
5 16 9 554.861 322.916 1
-5 9 16 160.977 240.62 1
-9 16 5 1415.18 423.801 1
5 -16 -9 943.006 325.656 2
5 9 -16 712.824 209.176 1
9 -16 5 604.943 347.206 2
5 -9 16 343.89 285.628 2
9 5 16 -56.3946 314.188 4
-5 9 16 1363.91 420.556 4
5 -9 16 1039.67 286.115 1
-16 -5 -9 694.225 348.933 3
-16 9 -5 478.421 335.949 1
9 7 16 366.233 243.137 1
-7 -9 -16 645.975 332.297 3
7 -9 16 1257.9 339.174 1
-9 -16 -7 1358.42 386.124 3
-16 9 -7 632.476 331.06 1
-16 7 9 1132.93 421.67 1
-7 -16 9 771.02 380.469 2
-9 7 -16 941.051 321.845 1
9 16 -7 1105.57 386.324 1
7 16 9 99.0819 299.277 1
7 9 -16 1053.69 260.406 1
-7 9 16 837.652 275.191 2
-9 16 7 173.921 323.988 1
7 -16 -9 1233.63 381.467 2
-7 16 -9 738.095 357.621 1
9 -16 7 1221.6 386.746 2
9 7 16 1199.49 435.908 4
16 -9 -7 1039.48 265.502 4
7 -9 16 544.53 318.982 2
-7 9 16 163.514 291.254 4
9 -7 -16 809.093 254.64 1
-16 -7 -9 1071.54 421.244 3
-7 9 16 1320.19 359.249 1
-9 -7 16 778.111 145.735 3
-9 -9 -16 671.589 359.455 3
-9 -16 -9 556.301 309.419 3
9 9 16 502.406 268.549 1
-9 -9 16 452.844 261.889 2
9 9 -16 562.786 243.704 1
-9 -16 9 939.209 416.532 2
9 16 9 623.947 397.823 1
9 16 -9 334.446 320.876 1
-9 9 16 354.43 318.106 1
-9 9 16 482.089 273.101 2
-16 9 9 606.531 377.939 1
-9 16 9 98.7144 324.982 1
-16 9 -9 628.13 345.638 1
9 -16 9 143.795 282.096 2
9 -16 -9 946.299 404.836 2
16 -9 -9 985.331 274.691 4
9 9 16 -63.9242 393.493 4
-9 9 16 1163.66 433.605 4
9 -9 16 575.292 360.156 2
-9 16 -9 978.997 438.85 1
16 -9 9 652.55 349.282 2
-16 -9 -9 824.475 395.922 3
-9 9 -16 211.283 245.055 1
-10 -8 -16 1066.19 413.917 3
10 8 -16 662.015 261.708 1
-8 -16 -10 516.423 373.892 3
8 10 16 766.656 319.938 1
-8 -16 -10 380.7 290.979 2
-10 -16 8 146.416 286.213 2
10 16 8 1075.92 455.169 1
-8 -10 16 646.807 288.301 2
-16 10 8 724.42 405.272 1
-8 10 -16 532.763 276.563 1
8 16 -10 1269.31 409.421 1
-8 16 10 -1.55017 359.221 1
-10 8 16 841.354 269.478 2
8 -16 10 590.821 315.836 2
16 -8 -10 378.473 205.974 4
-16 8 -10 287.417 348.906 1
-10 8 16 -175.969 322.22 1
10 -16 -8 362.615 288.08 2
8 10 16 141.274 388.686 4
-10 8 16 481.724 318.446 4
16 8 10 735.018 359.277 4
10 -8 16 445.092 311.515 2
16 -10 8 689.797 394.579 2
-16 -10 -8 580.084 363.461 3
-10 16 -8 1370.37 453.508 1
-10 6 16 193.841 222.933 2
-10 -16 6 301.155 296.408 2
10 16 6 -181.426 285.347 1
-6 -16 -10 -255.307 323.258 2
-16 10 6 -292.654 352.918 1
-6 16 10 -25.2544 321.694 1
-6 -10 16 272.678 254.326 2
6 10 16 163.284 229.688 1
-10 6 16 -95.6462 224.683 1
6 16 -10 -7.65475 305.445 1
6 -16 10 -42.7302 294.159 2
10 -16 -6 314.832 310.741 2
-10 6 16 -9.85714 268.035 4
16 6 10 -8.54608 281.622 4
6 10 16 99.9875 329.545 4
-6 10 -16 -85.4386 251.321 1
6 -10 -16 -111.458 202.061 2
10 -6 16 59.0424 231.852 1
16 -10 6 138.494 274.849 2
-10 16 -6 -101.978 341.909 1
10 -6 16 63.509 269.24 2
-16 -10 -6 -83.6813 254.392 3
-10 -6 -16 -6.48447 297.04 3
4 16 -10 884.197 143.365 3
-4 16 10 924.498 337.117 1
-10 -16 4 625.103 335.395 2
10 16 4 856.164 383.698 1
-16 10 4 1129.84 436.405 1
-4 -16 -10 1147.56 340.916 2
10 -4 16 1309.68 359.345 1
-4 -10 16 1203.1 345.718 2
4 -10 -16 1262.82 320.551 1
-4 10 -16 930.335 267.17 1
4 10 16 452.449 233.848 1
4 -16 10 949.435 370.303 2
4 16 -10 1531.5 432 1
10 -16 -4 876.234 351.2 2
-10 4 16 763.868 333.433 4
4 -10 -16 1319.52 284.361 2
-10 4 16 1019.85 291.876 2
16 4 10 1350.22 377.677 4
4 10 16 1245.37 451.44 4
-10 4 16 1260.77 301.819 1
-10 16 -4 993.68 448.581 1
10 4 -16 1032.6 248.105 1
16 -10 4 1136.09 395.188 2
-16 -10 -4 1000.34 370.177 3
-10 -4 -16 869.84 405.049 3
10 16 2 1492.47 454.645 1
2 -10 -16 1296.61 311.115 1
-16 10 2 1519.99 402.299 1
-2 -16 -10 1625.89 383.216 2
-2 -10 16 1460.99 346.187 2
2 -16 10 1404.55 429.184 2
2 10 16 1280.55 337.592 1
2 -10 -16 1457.87 268.577 2
-16 -2 10 1432.97 228.323 4
10 2 -16 1208.66 255.908 1
-10 2 16 1020.58 347.095 4
16 2 10 863.114 318.583 4
2 16 -10 1624.53 424.735 1
-16 -10 -2 1419.5 357.131 4
2 10 16 1319.42 468.088 4
-10 16 -2 848.134 364.09 1
-10 2 16 1750.04 316.841 2
-10 -2 -16 1173.19 299.765 2
-2 10 -16 878.37 235.351 3
-2 10 -16 1673.29 310.588 1
-2 16 10 725.194 366.121 1
-16 -10 -2 1250.73 363.131 3
16 -10 2 1165.2 438.623 2
-10 -2 -16 1125.22 421.881 3
10 -2 16 1887.6 356.784 1
10 -16 -2 1275.68 395.013 2
10 0 16 348.312 216.833 1
0 -10 -16 116.404 188.779 1
-10 -16 0 254.043 220.278 3
0 -10 16 550.876 189.452 1
10 16 0 320.251 324.085 1
-16 10 0 652.488 369.8 1
0 -16 -10 346.195 261.222 2
0 -16 10 6.10334 308.376 2
0 10 -16 116.614 162.577 1
0 -10 -16 248.187 177.756 2
0 -10 16 127.583 214.725 2
10 0 16 716.809 350.794 4
-10 0 16 551.332 273.829 4
16 0 10 201.374 229.676 4
10 -16 0 401.079 298.712 2
-16 0 10 360.645 136.825 4
0 16 10 726.27 387.085 1
-10 16 0 424.95 300.475 1
0 10 16 636.228 280.019 1
-10 0 -16 -118.412 262.3 2
0 10 16 379.967 363.225 4
-16 -10 0 430.053 239.332 4
-16 -10 0 -6.4993 228.195 3
10 16 0 60.3521 205.609 3
16 -10 0 152.088 267.169 2
-10 0 -16 200.089 282.583 3
0 16 -10 1043.41 370.29 1
0 10 -16 126.52 160.59 3
10 0 -16 323.399 181.729 1
2 10 -16 1237.68 207.937 3
-2 10 16 1512.52 360.901 1
2 10 -16 1457.71 284.537 1
-10 -16 -2 835.057 267.332 3
-10 -2 16 1792.85 321.998 3
-2 16 -10 1604.29 432.037 1
10 16 -2 803.164 407.033 1
-2 -10 -16 1175.61 235.472 2
-2 -16 10 1476.96 404.463 2
2 -10 16 1802.08 314.649 1
-16 10 -2 871.783 418.185 1
2 -16 -10 1521.92 374.125 2
10 -2 -16 1497.63 283.89 1
2 -10 16 1027.12 351.154 2
2 16 10 741.203 370.804 1
16 -2 10 1546.01 353.668 4
10 2 16 1358.38 433.445 4
10 -16 2 1634.15 457.898 2
-10 2 -16 1193.1 312.559 2
-10 16 2 1611.77 494.36 1
-2 10 16 1254.31 396.418 4
-16 -10 2 1435.1 331.242 3
-10 2 -16 1307.74 400.688 3
16 -10 -2 1305.92 410.091 2
-10 -4 16 490.168 178.206 3
-10 -16 -4 734.807 287.851 3
-4 -10 -16 1016.75 379.396 3
-4 10 16 1307.2 243.116 2
10 16 -4 1266.61 404.887 1
-4 -10 -16 528.534 200.324 2
10 -4 -16 435.811 194.864 1
-4 10 16 1537.25 357.482 1
-4 -16 10 1376.97 432.288 2
-4 16 -10 1182.91 420.101 1
4 16 10 1092.43 412.265 1
4 -16 -10 972.367 339.534 2
-16 10 -4 1300.19 414.246 1
4 -10 16 926.473 332.347 2
4 -10 16 1199.34 290.045 1
10 -16 4 1144.47 378.466 2
-10 16 4 962.647 357.555 1
10 4 16 247.875 327.242 4
4 10 -16 961.104 230.146 1
-4 10 16 854.174 415.009 4
-10 -6 16 217.712 137.992 3
10 -6 -16 -235.05 215.814 1
-6 -10 -16 -549.597 342.633 3
-10 -16 -6 157.97 264.799 3
10 16 -6 94.4001 280.978 1
-6 -16 10 -172.866 280.25 2
-6 10 16 64.0744 184.316 2
6 16 10 -97.4982 281.653 1
6 10 -16 51.2883 185.145 1
-16 10 -6 -49.802 314.101 1
-6 16 -10 290.286 308.93 1
6 -16 -10 171.235 300.326 2
-6 10 16 -357.755 330.158 1
-10 16 6 654.823 428.795 1
10 -16 6 -40.7189 266.153 2
6 -10 16 544.232 306.041 2
10 6 16 457.807 363.652 4
16 -10 -6 -45.0248 199.377 4
-6 10 16 610.891 373.172 4
6 -10 16 337.508 238.302 1
-16 -6 -10 -209.461 360.873 3
-16 6 10 -112.077 273.859 1
10 8 16 636.334 306.409 1
-8 -10 -16 401.208 360.064 3
-10 -16 -8 734.727 296.098 3
-8 -16 10 638.473 306.278 2
-10 8 -16 566.83 328.639 1
10 16 -8 348.22 286.432 1
8 16 10 623.413 366.9 1
8 10 -16 200.196 206.051 1
-8 10 16 -153.608 349.471 2
8 -16 -10 268.984 290.933 2
-10 16 8 312.099 396.086 1
10 -16 8 409.71 315.688 2
16 -10 -8 920.861 275.274 4
10 8 16 414.668 356.785 4
8 -10 16 233.523 275.977 2
-8 10 16 784.691 398.419 4
-8 16 -10 825.91 363.955 1
-16 8 10 347.992 313.654 1
-16 -8 -10 100.46 363.842 3
-16 10 -8 575.008 392.659 1
-10 -8 16 665.156 134.278 3
-8 10 16 331.158 278.528 1
-16 11 7 -64.0282 372.943 1
-11 16 -7 -38.2782 375.101 1
-7 -16 -11 -129.508 267.897 3
-11 -16 7 274.281 307.035 2
11 16 7 -12.4193 335.864 1
-7 -16 -11 116.534 253.384 2
-11 7 16 -128.906 277.47 1
-7 -11 16 80.9452 235.135 2
7 11 16 5.24565 253.023 1
-7 16 11 681.173 383.317 1
7 16 -11 124.48 271.86 1
7 -16 11 82.6779 331.601 2
11 -16 -7 49.6277 276.383 2
-11 7 16 332.925 290.664 2
16 7 11 -116.499 300.313 4
-11 7 16 189.593 267.247 4
-7 11 -16 -66.0094 258.784 1
7 11 16 -254.662 387.818 4
7 -11 -16 707.916 306.326 2
16 -11 7 324.653 345.977 2
11 -7 16 -431.786 335.067 2
-16 -11 -7 402.543 336.671 3
-11 -7 -16 -97.7182 328.729 3
-16 11 5 446.1 380.244 1
11 5 -16 415.68 205.913 1
-5 16 11 721.466 348.54 1
11 16 5 -185.436 373.908 1
-11 5 16 550.009 284.86 1
-5 -16 -11 204.297 268.345 2
-5 -11 16 1307.52 349.385 2
5 11 16 813.254 305.242 1
-5 11 -16 527.983 306.596 1
5 16 -11 1287.65 431.379 1
5 -16 11 1025.87 407.053 2
-11 5 16 833.12 299.147 2
11 -16 -5 1070.23 412.58 2
5 -11 -16 682.166 264.974 2
-11 5 16 231.292 264.38 4
16 5 11 894.058 313.464 4
5 11 16 427.309 359.659 4
16 -11 5 248.79 268.882 2
-16 -11 -5 1179.36 375.372 3
-11 -5 -16 756.348 369.738 3
-11 16 -5 1316.15 414.118 1
-16 11 3 387.324 312.646 1
-11 -16 3 -145.947 181.069 3
11 16 3 232.5 363.528 1
11 3 -16 772.303 260.969 1
-3 -16 -11 -165.426 250.781 2
-3 -11 16 698.475 303.069 2
3 11 16 217.02 227.703 1
3 -16 11 -147.868 288.322 2
3 -11 -16 205.434 218.123 2
3 16 -11 375.282 276.903 1
-11 3 16 145.383 273.367 4
11 -16 -3 -53.1954 281.542 2
16 3 11 559.842 315.361 4
3 11 16 769.669 375.55 4
-11 3 16 520.594 249.71 2
16 -11 3 994.485 420.256 2
-11 -3 -16 98.9876 231.376 2
-16 -11 -3 -45.4542 273.699 3
-11 16 -3 -79.6842 335.545 1
-11 -3 -16 396.209 317.062 3
-3 11 -16 668.726 241.059 1
-3 16 11 318.248 287.077 1
-11 -16 1 479.606 223.258 3
-16 11 1 243.927 385.206 1
-1 -11 16 689.66 251.072 1
11 16 1 157.374 312.436 1
-1 -16 -11 315.879 238.388 2
11 1 -16 10.2579 215.852 1
-1 -11 16 -45.1858 236.433 2
11 -1 16 -266.866 279.812 1
1 -16 11 109.815 259.137 2
1 -11 -16 828.83 241.814 2
-1 11 -16 332.118 198.358 1
11 -1 16 350.946 325.851 4
1 11 16 304.117 226.743 1
-16 -1 11 351.056 150.725 4
-11 1 16 891.998 309.579 4
16 1 11 44.3832 293.819 4
11 -16 -1 805.032 359.223 2
1 11 16 392.444 421.822 4
-1 16 11 44.251 325.637 1
-11 -1 -16 445.337 233.612 2
1 16 -11 480.302 276.253 1
16 -11 1 186.642 275.772 2
-1 11 -16 475.702 177.494 3
-11 16 -1 -121.636 418.354 1
-16 -11 -1 590.535 279.719 3
-11 -1 -16 -97.0248 280.639 3
-1 16 -11 307.58 280.075 1
-11 -16 -1 239.356 213.365 3
11 16 -1 31.8228 357.754 1
-16 11 -1 200.779 365.527 1
1 11 -16 285.51 190.965 1
1 -11 16 43.9704 200.784 1
-1 -16 11 126.575 267.925 2
-1 -11 -16 607.807 213.662 2
1 -16 -11 803.218 301.229 2
1 -11 16 470.966 294.078 2
-11 -1 16 232.745 236.888 4
16 -1 11 310.11 272.052 4
11 1 16 -121.637 324.976 4
1 16 11 408.658 298.66 1
11 -16 1 204.618 304.881 2
-16 1 11 551.035 174.548 4
-1 11 16 456.871 325.759 4
11 -1 -16 467.75 230.781 1
-11 16 1 361.393 357.042 1
-1 11 16 153.072 234.087 1
-11 1 -16 209.364 341.453 3
-16 -11 1 126.399 188.151 3
16 -11 -1 421.144 318.479 2
1 11 -16 409.6 171.539 3
3 11 -16 57.7326 99.2104 3
-11 -16 -3 170.552 243.286 3
-3 11 16 422.36 290.587 1
11 16 -3 -257.354 343.265 1
-3 16 -11 195.716 303.986 1
-16 11 -3 -118.35 378.011 1
-3 -11 -16 348.095 201.654 2
-3 -16 11 301.561 327.797 2
11 -3 -16 438.899 258.415 1
3 -11 16 471.945 255.876 1
3 -16 -11 609.028 301.916 2
3 16 11 -218.54 322.533 1
3 -11 16 495.207 328.903 2
11 3 16 517.875 367.892 4
11 -16 3 108.422 298.249 2
-3 11 16 -37.502 359.235 4
-11 16 3 -3.26227 375.543 1
-11 3 -16 -48.8959 281.567 3
-16 -11 3 -107.879 224.838 3
3 11 -16 179.637 179.821 1
16 -11 -3 234.81 273.65 2
-11 -16 -5 658.079 300.952 3
-11 -5 16 1072.09 235.871 3
-5 -11 -16 191.38 320.976 3
11 16 -5 1007.55 400.877 1
-5 -11 -16 382.21 194.472 2
-5 11 16 664.568 247.178 2
11 -5 -16 588.373 252.813 1
-5 -16 11 82.8009 285.906 2
-5 11 16 541.951 354.147 1
-16 11 -5 699.888 397.456 1
5 16 11 454.575 318.475 1
-5 16 -11 629.363 327.982 1
-16 5 11 389.902 288.88 1
5 -16 -11 1136.88 379.559 2
5 11 -16 697.217 218.834 1
5 -11 16 582.887 334.318 2
11 -16 5 859.767 394.974 2
5 -11 16 901.407 324.7 1
11 5 16 763.118 394.278 4
-11 16 5 105.257 329.652 1
-5 11 16 948.486 432.383 4
-16 -11 5 683 235.716 3
-16 -5 -11 781.681 436.813 3
16 -11 -5 1358.65 425.956 2
-11 -7 16 164.536 117.73 3
-11 -16 -7 -60.4516 301.078 3
-7 -11 -16 -365.566 371.113 3
11 16 -7 458.572 348.514 1
-7 -16 11 305.49 361.751 2
-7 11 16 796.185 306.021 2
7 16 11 145.462 310.953 1
-16 7 11 -33.9876 334.107 1
7 11 -16 203.561 206.967 1
-16 11 -7 492.533 454.107 1
7 -16 -11 -439.409 312.897 2
-7 11 16 471.341 293.34 1
11 -16 7 11.8379 290.299 2
7 -11 16 273.056 300.359 2
11 7 16 437.278 379.055 4
-7 16 -11 -786.007 458.1 1
16 -11 -7 -181.175 250.037 4
-11 16 7 344.54 392.036 1
-7 11 16 -106.667 339.427 4
-16 -7 -11 -242.064 316.624 3
-4 12 -16 -177.838 308.167 1
-4 16 12 -132.8 311.086 1
-12 -16 4 35.7674 163.561 3
-12 16 -4 -371.017 415.081 1
12 16 4 -219.435 330.122 1
-4 -16 -12 -83.041 249.947 2
-4 -12 16 -338.697 285.941 2
4 12 16 388.83 314.43 1
4 -16 12 293.191 327.88 2
4 16 -12 510.728 332.388 1
4 -12 -16 307.888 258.589 2
16 4 12 -216.221 275.611 4
-12 4 16 447.755 306.309 4
12 -16 -4 8.61995 289.2 2
-12 4 16 284.74 224.117 2
4 12 16 -413.9 413.017 4
16 -12 4 92.653 336.614 2
12 4 -16 -355.43 266.585 1
-16 12 4 -290.015 332.543 1
-12 -4 -16 -81.9221 326.222 3
-16 -12 -4 415.867 273.133 3
-2 -12 16 1185.19 275.227 1
-12 16 -2 829.581 421.322 1
-12 -16 2 417.796 215.933 3
12 16 2 843.247 407.707 1
-2 -16 -12 224.567 230.312 2
-2 -12 16 929.41 341.55 2
2 -16 12 868.386 373.809 2
2 -12 -16 1007.7 306.51 2
2 12 16 723.661 302.231 1
12 -2 16 613.935 386.188 4
-16 -2 12 771.332 242.387 4
-2 12 -16 695.779 265.809 1
-12 2 16 772.799 291.883 4
16 2 12 850.1 352.75 4
12 -16 -2 480.958 320.969 2
2 12 16 177.273 393.864 4
2 16 -12 725.485 348.316 1
12 2 -16 830.286 280.695 1
16 -12 2 683.942 382.892 2
-12 2 16 295.101 248.704 2
-2 16 12 417.958 314.629 1
-12 -2 -16 660.977 406.51 3
-16 -12 -2 428.4 224.501 3
-16 12 2 1442.79 480.189 1
-12 -16 0 175.135 191.588 3
12 16 0 47.0452 347.207 1
0 -12 16 -342.771 225.539 1
12 0 -16 18.4509 201.946 1
0 12 -16 -79.5051 188.193 1
0 -16 -12 255.294 271.038 2
0 -16 12 -244.027 270.631 2
0 -12 -16 -51.8007 186.314 2
0 -12 16 186.898 238.124 2
12 0 16 -424.678 366.187 4
-12 0 16 161.892 263.157 4
16 0 12 47.9451 278.145 4
-16 0 12 -258.006 207.933 4
12 -16 0 -190.546 374.497 2
0 16 12 -636.326 382.534 1
0 12 16 -173.786 317.452 1
0 12 16 -1487.43 482.123 4
16 -12 0 178.862 289.51 2
-12 0 -16 -65.043 343.126 3
0 12 -16 -19.8009 148.255 3
-16 -12 0 315.951 249.261 3
-16 12 0 1048.01 462.724 1
0 16 -12 210.846 273.636 1
-12 16 0 101.73 356.636 1
2 12 -16 492.911 239.081 1
-12 -16 -2 744.24 312.431 3
-16 12 -2 1003.47 490.582 1
12 16 -2 208.056 305.871 1
-2 16 -12 58.5118 308.653 1
-2 -12 -16 1091.45 251.688 2
-2 -16 12 384.627 351.577 2
2 -12 16 1141.93 307.224 1
2 -16 -12 702.85 292.134 2
2 -12 16 625.941 330.542 2
2 16 12 323.71 324.705 1
16 -2 12 409.115 275.985 4
12 2 16 445.168 296.58 4
12 -16 2 532.88 309.901 2
12 -2 -16 526.845 265.328 1
-16 2 12 729.483 212.931 4
-2 12 16 1583.88 493.245 4
-12 2 -16 649.102 382.025 3
16 -12 -2 818.705 326.041 2
-16 -12 2 573.273 232.615 3
-12 16 2 805.897 441.606 1
-2 12 16 514.289 305.578 1
2 12 -16 215.628 121.286 3
-12 -16 -4 227.175 233.936 3
-4 -12 -16 -130.452 370.397 3
12 16 -4 -219.015 342.766 1
-16 12 -4 449.793 363.02 1
-4 12 16 -452.843 284.878 2
-4 12 16 629.2 370.612 1
-4 -12 -16 115.448 186.474 2
-4 -16 12 125.881 305.121 2
-4 16 -12 -246.273 320.631 1
12 -4 -16 28.1145 244.977 1
4 16 12 -54.2608 390.357 1
4 -16 -12 -46.9125 239.872 2
4 -12 16 185.764 253.255 1
4 -12 16 364.71 294.879 2
12 4 16 27.3181 363.738 4
12 -16 4 175.159 296.43 2
4 12 -16 453.051 246.575 1
-4 12 16 790.302 423.871 4
-16 -4 -12 496.904 411.198 3
16 -12 -4 -183.204 319.126 2
-16 -12 4 334.737 215.417 3
-12 16 4 1.70213 359.173 1
-13 -16 1 -130.017 188.407 3
13 16 1 -124.079 306.059 1
-1 -13 16 -415.432 266.114 1
-13 16 -1 520.047 444.08 1
-1 -16 -13 101.463 231.571 2
-1 13 -16 411.051 251.61 1
-1 -13 16 -290.429 291.457 2
1 -16 13 194.139 339.918 2
1 -13 -16 109.292 206.688 2
13 1 -16 -89.8858 240.586 1
13 -1 16 -137.498 338.889 4
-16 -1 13 93.8537 180.522 4
16 1 13 370.308 324.271 4
1 13 16 -184.799 309.434 1
-13 1 16 95.0315 280.326 4
13 -16 -1 626.095 405.279 2
1 13 16 -237.921 404.299 4
-16 13 1 -146.266 423.185 1
-1 16 13 225.321 327.399 1
16 -13 1 396.162 329.557 2
-13 -1 -16 190.459 340.426 3
1 16 -13 -525.304 345.607 1
-16 -13 -1 139.089 238.669 3
-13 -16 -1 97.3736 246.34 3
13 -1 -16 -59.2976 254.815 1
13 16 -1 488.609 402.819 1
1 13 -16 47.7969 221.115 1
-13 16 1 -313.651 410.039 1
-1 16 -13 -178.063 302.06 1
1 -13 16 482.417 256.79 1
-1 -13 -16 205.59 211.118 2
-1 -16 13 -99.439 261.528 2
1 -16 -13 87.4326 227.097 2
1 -13 16 254.429 278.652 2
-13 -1 16 90.0029 256.856 4
16 -1 13 -357.075 363.397 4
13 1 16 -370.341 345.821 4
1 16 13 -465.054 393.319 1
-16 1 13 221.163 201.175 4
13 -16 1 234.508 315.92 2
-1 13 16 -398.594 446.035 4
16 -13 -1 111.231 367.054 2
-1 13 16 287.838 287.618 1
-13 1 -16 -41.3771 335.905 3
-16 13 -1 -689.566 485.778 1
1 13 -16 191.144 165.585 3
-16 -13 1 -146.984 264.722 3
-1 0 -17 1348.87 342.551 3
0 1 -17 2149.32 381.579 3
0 -1 -17 2023.97 395.257 3
1 0 -17 2113.79 405.61 3
-1 -17 0 1999.73 447.592 2
0 -17 -1 2656.67 507.19 2
0 -17 1 2460.4 470.538 2
1 -17 0 2225.91 478.952 2
-1 0 17 2157.63 479.178 4
1 0 17 2584.55 574.166 4
0 1 17 2261.07 507.583 4
1 17 0 1919.81 484.702 1
0 17 1 1868.66 447.241 1
0 17 -1 2487.17 536.891 1
17 0 1 1553.15 190.041 4
-1 17 0 2326.69 498.279 1
-1 2 -17 795.791 287.954 3
-2 -1 -17 929.877 281.555 3
2 1 -17 918.542 287.634 3
1 -2 -17 996.731 321.283 3
-2 -17 1 1215.38 381.354 2
-1 -17 -2 199.486 273.066 2
1 -17 2 1638.38 414.418 2
2 -17 -1 977.955 354.914 2
2 17 1 1142.51 399.744 1
-2 1 17 1825.23 449.915 4
1 2 17 746.021 380.485 4
-1 -2 17 645.385 144.42 2
1 17 -2 1276.1 401.989 1
17 -2 1 894.396 165.233 4
1 2 17 584.416 122.993 1
17 1 2 775.708 166.935 4
-1 17 2 1283.27 410.771 1
-1 -2 17 964.871 263.249 3
-2 17 -1 886.037 359.315 1
-2 1 -17 907.406 305.628 3
-1 -2 -17 822.674 312.294 3
1 2 -17 1133.3 313.042 3
2 17 -1 1244.77 324.076 3
-2 1 -17 855.382 142.249 2
-2 -17 -1 896.884 335.947 2
-1 -17 2 975.008 348.361 2
2 1 17 478.556 101.268 1
1 -17 -2 1633.88 419.187 2
2 -17 1 861.538 329.884 2
2 17 -1 1108.35 393.032 1
2 1 17 412.23 368.278 4
-1 2 17 1070.54 386.913 4
1 17 2 753.083 378.763 1
17 -1 2 1055.68 184.259 4
1 -2 17 1010.17 175.467 2
-1 17 -2 698.364 393.357 1
2 1 17 552.465 113.084 1
-2 17 1 1308.55 426.365 1
-2 -1 17 1244.13 282.462 3
-3 17 -2 306.065 346.739 1
-3 -2 -17 10.4713 233.098 3
-2 3 -17 434.412 169.497 2
-3 -17 2 -9.65162 249.004 2
-2 -17 -3 -260.665 233.544 2
3 -2 17 249.851 97.0231 1
2 3 17 -13.228 122.372 1
2 -17 3 527.429 261.787 2
3 -17 -2 352.041 324.372 2
-3 -2 -17 61.014 74.9197 2
-2 -3 17 179.429 124.876 2
3 17 2 21.5997 275.653 1
17 -3 2 122.622 137.493 4
2 17 -3 338.396 325.027 1
-3 2 17 -113.559 360.083 4
2 3 17 160.057 292.434 4
17 2 3 253.083 174.39 4
-2 17 3 -286.281 313.669 1
-2 -3 17 200.988 158.387 3
-2 3 -17 507.783 254.296 3
0 3 17 238.064 119.039 1
-3 0 -17 414.08 260.362 3
0 3 -17 375.81 244.58 3
3 0 17 236.186 95.331 1
3 17 0 343.769 262.38 3
0 -3 -17 319.059 239.2 3
-3 -17 0 593.084 320.763 2
0 -17 -3 71.1922 231.574 2
-3 0 -17 233.804 113.218 2
0 -17 3 667.225 348.064 2
3 -17 0 113.16 233.21 2
3 17 0 536.281 372.396 1
-3 0 17 309.295 317.152 4
3 0 17 226.186 319.137 4
17 -3 0 125.542 88.806 4
0 3 17 -69.4291 281.656 4
0 -3 17 532.378 165.052 2
0 17 3 -38.0527 279.761 1
17 0 3 204.37 164.272 4
3 0 17 390.082 125.313 1
0 17 -3 169.249 289.084 1
-3 0 17 248.726 186.264 3
-3 17 0 420.52 336.836 1
-2 -3 -17 -28.5279 227.584 3
3 17 -2 306.4 196.522 3
2 3 -17 225.321 175.795 3
3 2 17 216.937 127.233 1
-3 -17 -2 346.969 311.357 2
-2 -17 3 372.363 283.845 2
-3 2 -17 368.439 148.658 2
2 -17 -3 243.371 248.917 2
-3 -2 17 264.065 110.735 2
3 -17 2 42.2605 257.348 2
3 17 -2 261.945 303.287 1
2 17 3 334.126 321.812 1
17 -2 3 486.172 196.049 4
3 2 17 698.843 334.418 4
-2 3 17 -114.505 281.616 4
2 -3 17 46.6461 158.034 2
-3 -2 17 219.673 184.429 3
-2 17 -3 72.6202 267.528 1
-2 3 17 185.194 104.304 1
-3 17 2 376.787 313.704 1
-3 2 -17 233.667 241.154 3
-4 -3 -17 283.759 271.993 3
-4 3 17 133.35 107.342 1
3 17 -4 79.1046 219 3
3 -4 -17 -259.162 126.521 1
-4 17 -3 362.085 334.941 1
-4 -17 3 -58.7507 270.583 2
-3 -17 -4 374.399 290.33 2
3 4 17 -131.719 139.993 1
-3 4 -17 -122.369 176.965 2
4 -3 17 354.41 147.022 1
-3 -4 17 17.4127 131.768 2
3 -17 4 -736.358 324.809 2
4 17 3 24.8865 279.944 1
4 -17 -3 -82.7031 252.055 2
3 17 -4 -372.89 342.502 1
-4 3 17 -48.6832 296.604 4
3 4 17 563.399 354.78 4
-4 -3 -17 57.6757 103.51 2
17 3 4 39.9542 210.891 4
4 -3 17 174.756 159.153 2
-3 -4 17 261.931 193.442 3
-3 17 4 176.645 289.999 1
-3 4 -17 -452.689 252.181 3
-1 4 -17 3196.1 439.52 3
-4 -1 -17 3238.88 538.915 3
4 -1 17 2709.8 286.728 1
-4 17 -1 2274.72 489.073 1
-1 4 -17 3528.28 357.676 2
-4 -17 1 3410.25 545.02 2
-1 -4 17 3603.98 365.318 2
-1 -17 -4 2684.88 494.674 2
1 -17 4 4424.3 620.785 2
4 17 1 2722.68 547.248 1
4 -17 -1 3173.19 544.517 2
-4 -1 -17 2860.58 293.463 2
-17 -4 -1 3674.72 365.693 4
1 4 17 2792.75 299.213 1
-4 1 17 3772.51 625.715 4
1 4 17 3034.38 563.219 4
1 17 -4 3456.49 542.767 1
17 1 4 3622.56 381.002 4
-1 17 4 3143.98 579.631 1
4 1 17 2799.46 272.964 1
4 1 17 3401.7 311.474 1
4 17 -1 4293.35 492.589 3
1 4 -17 3226.61 429.833 3
-4 17 1 3059.03 564.351 1
-1 -4 -17 2814.4 514.746 3
-4 -1 17 2168.16 213.47 2
-4 1 -17 3801.42 372.427 2
-4 -17 -1 2644.64 505.775 2
-1 -17 4 3288.98 565.885 2
1 -17 -4 3265.87 560.255 2
1 -4 17 4312.51 417.287 2
4 -17 1 3107.42 519.221 2
4 17 -1 3482.87 588.332 1
-1 4 17 3290.03 313.862 1
4 1 17 3964.14 638.823 4
1 17 4 3168.75 563.758 1
-17 -4 1 2939.73 284.81 4
17 -1 4 3460.85 381.244 4
-1 4 17 3736.67 615.876 4
-1 17 -4 3754.34 608.872 1
-4 -1 17 2975.34 406.611 3
-4 1 -17 3902.58 580.842 3
-3 17 -4 94.1659 272.922 1
-4 17 3 106.643 292.521 1
-3 -4 -17 -93.4364 267.657 3
4 17 -3 24.453 215.464 3
4 3 17 55.8916 138.525 1
4 -3 -17 -108.868 109.676 1
-4 -17 -3 -26.215 238.861 2
-3 -17 4 -332.904 334.049 2
-4 -3 17 -223.515 155.421 2
-4 3 -17 108.988 182.867 2
3 -17 -4 98.9391 272.626 2
4 -17 3 -126.339 262.788 2
4 17 -3 273.575 351.155 1
3 17 4 423.894 348.452 1
4 3 17 77.3978 314.064 4
-3 4 17 80.1812 288.096 4
-17 -4 3 -86.323 96.7735 4
-3 -4 -17 206.974 96.0285 2
3 -4 17 182.45 174.627 2
3 -4 17 410.458 132.651 1
-4 -3 17 114.88 150.948 3
-4 3 -17 -46.4888 239.121 3
-3 4 17 237.882 133.557 1
-5 -4 -17 607.638 304.516 3
-17 5 4 -3.33157 274.396 1
-4 17 5 70.1667 297.197 1
4 17 -5 608.677 209.898 3
-5 17 -4 186.629 320.18 1
4 5 17 543.5 186.59 1
-5 -17 4 347.536 315.618 2
-4 -17 -5 60.3303 263.988 2
4 -5 -17 415.025 183.659 1
-4 -5 17 233.762 153.413 2
-4 5 -17 908.378 277.67 2
5 -4 17 528.952 175.845 1
5 17 4 398.341 321.353 1
4 -17 5 284.45 274.477 2
5 -17 -4 588.155 320.558 2
4 17 -5 736.507 344.179 1
-17 -5 -4 585.501 244.79 4
-5 4 17 653.053 304.213 4
4 5 17 30.6756 338.945 4
-5 4 17 374.376 155.493 1
-17 -4 5 287.846 109.72 4
17 4 5 590.651 246.755 4
-5 -4 -17 371.442 146.601 2
5 -4 17 579.291 237.351 2
-4 -5 17 459.65 183.127 3
-4 5 -17 349.647 249.988 3
-5 -2 -17 2597.47 502.528 3
2 -5 -17 2726.68 284.831 1
5 -2 17 2700.39 309.398 1
-5 17 -2 2431.48 508.121 1
-2 5 -17 3022.96 367.489 2
-5 -17 2 2958.49 536.908 2
-2 -17 -5 3307.74 536.899 2
-17 5 2 3302.8 575.917 1
5 17 2 2041.35 463.727 1
2 -17 5 2446.74 522.977 2
-2 -5 17 3014.84 352.895 2
2 5 17 2419.05 295.388 1
5 -17 -2 2934.35 476.098 2
-17 -5 -2 2691.57 343.537 4
2 17 -5 2496.05 500.544 1
-5 2 17 2270.28 508.787 4
-5 -2 -17 2292.17 287.427 2
2 5 17 3368.23 608.651 4
17 2 5 2448.96 364.66 4
-2 17 5 2027.12 471.238 1
-2 5 -17 2353.46 390.895 3
-5 0 17 1753.63 304.052 3
0 5 -17 1059.06 276.425 3
5 17 0 2005.31 363.065 3
0 -5 -17 853.175 333.44 3
-5 17 0 1574.91 448.206 1
-5 0 17 999.362 140.938 2
5 0 17 1694.17 253.524 1
-5 -17 0 1094.22 374.954 2
-17 5 0 1920.81 516.54 1
0 -17 -5 1592.03 413.435 2
0 -17 5 2473.97 506.14 2
5 17 0 1673.83 450.225 1
5 -17 0 1770.49 442.922 2
-5 0 -17 2162.21 303.111 2
0 -5 17 1752.28 306.649 2
-5 0 17 1827.88 456.219 4
5 0 17 2361.91 557.157 4
-17 -5 0 1455.63 251.397 4
17 0 5 1625.9 310.23 4
0 5 17 1591.14 486.16 4
0 17 5 903.946 403.017 1
0 17 -5 1056.77 373.167 1
0 5 17 1376.74 236.663 1
-5 0 -17 1537.81 397.599 3
5 17 -2 2839.16 389.761 3
2 -5 17 2349.76 222.165 1
2 5 -17 2226.18 347.213 3
-2 -5 -17 2271.68 499.111 3
-5 -2 17 2569.74 269.059 2
-5 17 2 3265.44 579.744 1
-5 -17 -2 3150.96 574.256 2
-2 5 17 2110.75 296.353 1
-2 -17 5 2557.91 526.378 2
2 -17 -5 3185.01 525.538 2
5 17 -2 3586.52 573.586 1
-5 2 -17 3441.36 415.56 2
5 -17 2 3339.23 558.51 2
2 17 5 3292.28 599.865 1
17 -2 5 2816.32 374.858 4
5 2 17 2410.47 537.913 4
2 -5 17 3207.99 409.596 2
-2 5 17 2879.63 556.373 4
-17 -5 2 2823.91 294.456 4
-5 2 -17 2225.61 433.086 3
-2 17 -5 3079.6 569.913 1
-5 -2 17 2787.46 379.586 3
-17 5 -2 3098.31 581.383 1
5 -2 -17 2063.89 209.327 1
5 17 -4 716.225 212.861 3
-4 -5 -17 216.083 289.174 3
5 4 17 628.351 205.815 1
-5 17 4 -284.042 348.653 1
-4 17 -5 610.49 372.133 1
-5 -17 -4 643.215 314.269 2
-5 -4 17 524.284 174.491 2
-4 -17 5 405.669 249.45 2
5 -4 -17 597.232 179.661 1
-5 4 -17 170.062 239.984 2
5 17 -4 734.607 378.488 1
4 17 5 112.855 289.322 1
4 -17 -5 1022.68 346.707 2
5 -17 4 145.248 276.854 2
5 4 17 -121.935 334.802 4
-4 5 17 555.013 336.06 4
4 -5 17 580.877 242.193 2
-17 -5 4 315.211 143.995 4
-5 4 -17 612.782 279.024 3
-5 -4 17 823.259 228.595 3
-4 5 17 370.382 180.315 1
4 -5 17 498.179 173.86 1
5 17 -6 713.727 193.981 3
-6 -5 -17 504.934 309.252 3
-5 17 6 600.934 341.722 1
5 6 17 1027.94 273.787 1
6 5 -17 665.333 140.059 1
-6 -17 5 632.47 370.2 2
-5 -17 -6 939.379 372.766 2
-5 -6 17 749.454 230.761 2
-17 6 5 698.832 304.995 1
-6 17 -5 453.218 296.551 1
6 5 -17 721.46 140.309 1
6 17 5 487.647 320.464 1
-5 6 -17 1496.47 366.034 2
6 -5 17 760.054 227.106 1
-6 5 17 717.748 155.713 2
5 -6 -17 1213.03 237.41 1
5 17 -6 721.104 352.033 1
5 -17 6 419.892 271.934 2
6 -17 -5 866.291 329.772 2
-6 5 17 743.774 209.92 1
-17 -6 -5 624.073 257.368 4
-6 5 17 447.928 342.353 4
5 6 17 378.869 333.489 4
17 5 6 314.578 242.381 4
6 -5 17 522.04 263.985 2
-5 -6 17 524.909 172.393 3
-5 6 -17 1543.94 364.669 3
-6 3 17 -97.4511 140.261 1
3 -6 -17 429.188 204.044 1
6 3 -17 187.736 72.8767 1
-6 -17 3 52.3599 320.528 2
-3 6 -17 -87.5001 227.295 2
-3 -17 -6 -169.99 309.999 2
-6 17 -3 -286.386 377.399 1
-17 6 3 -118.56 343.203 1
6 17 3 305.472 303.488 1
-3 -6 17 211.537 164.991 2
3 6 17 324.269 185.82 1
3 -17 6 110.454 299.251 2
6 -17 -3 201.94 229.839 2
-6 3 17 38.2494 84.7385 2
3 17 -6 144.229 311.092 1
-17 -6 -3 -29.4534 233.059 4
-6 3 17 287.959 267.426 4
3 6 17 -597.368 364.911 4
17 3 6 82.5831 239.77 4
-6 -3 -17 185.845 152.828 2
6 3 -17 36.9985 58.8589 1
6 -3 17 162.532 161.709 1
-3 6 -17 45.8399 198.902 3
-3 17 6 410.864 360.98 1
-6 -3 -17 -203.493 289.382 3
-1 6 -17 2205.45 333.66 2
-6 -17 1 1992.98 460.581 2
6 -1 17 1523.72 480.154 4
-6 17 -1 2230.87 519.997 1
-1 -17 -6 2341.02 471.63 2
6 17 1 1538.24 457.774 1
6 1 -17 1187.03 135.093 1
1 -17 6 2155.41 492.337 2
-1 -6 17 2417.34 349.876 2
6 -17 -1 2516.88 485.675 2
-17 6 1 998.808 368.895 1
1 6 17 1929.39 289.895 1
-6 1 17 1454.33 399.049 4
-6 -1 -17 1584.4 295.195 2
-17 -6 -1 1812.69 272.738 4
17 1 6 1818.8 332.646 4
1 6 17 1686.83 476.605 4
1 17 -6 1821.17 455.182 1
6 -1 17 2006.5 300.896 1
-1 17 6 1660.56 415.281 1
-6 1 17 1617.23 198.845 2
-1 6 -17 1453.57 183.51 1
-6 -1 -17 1908.4 422.845 3
-1 6 -17 1953.15 360.687 3
-1 6 17 2111.49 324.463 1
-6 -1 17 2519.82 384.556 3
1 6 -17 2144.28 332.426 3
-1 -6 -17 1722.14 417.204 3
-6 -1 17 1799.45 219.269 2
1 -6 17 1674.19 179.508 1
-6 -17 -1 2103.26 488.976 2
-6 17 1 1628.72 457.709 1
1 6 -17 1295.34 153.229 1
-1 -17 6 1710.68 449.641 2
6 17 -1 2591.52 525.961 1
1 -17 -6 1744.04 418.126 2
6 -17 1 1388.03 401.581 2
-6 1 -17 2251.91 350.029 2
1 -6 17 1963.71 332.266 2
6 1 17 1529.06 473.123 4
1 17 6 2160.21 498.357 1
17 -1 6 2013.25 349.725 4
6 -1 -17 1375.13 168.656 1
-1 6 17 990.617 411.115 4
-17 -6 1 2015.16 292.289 4
6 1 17 2009.96 297.543 1
-17 6 -1 2101.5 488.389 1
-1 17 -6 1363.51 388.81 1
-6 1 -17 1840.73 419.022 3
6 17 -1 1640.11 326.685 3
-3 -6 -17 420.366 300.856 3
-3 17 -6 649.799 372.864 1
-6 -3 17 -77.9911 145.031 2
-3 -6 -17 -35.674 95.262 2
-6 -17 -3 379.32 272.628 2
-6 17 3 -251.402 347.443 1
-3 -17 6 616.903 311.974 2
6 17 -3 200.038 323.728 1
-17 6 -3 234.881 285.357 1
3 6 -17 22.0018 63.0854 1
-3 6 17 36.6472 182.764 1
3 -17 -6 -260.435 226.77 2
-6 3 -17 657.404 266.652 2
3 17 6 -111.804 312.574 1
6 -17 3 -293.54 313.569 2
6 -3 -17 132.288 126.23 1
3 -6 17 398.168 154.007 1
6 3 17 493.362 328.021 4
3 -6 17 -138.936 216.889 2
-3 6 17 468.421 345.133 4
-17 -6 3 161.556 174.809 4
-6 3 -17 409.959 268.575 3
-6 -3 17 321.1 170 3
6 17 -3 590.476 235.886 3
-5 6 17 865.875 270.565 1
-5 -6 -17 1451.85 434.412 3
5 -6 17 758.289 210.025 1
6 5 17 777.09 236.273 1
-6 -17 -5 833.258 338.219 2
-6 17 5 773.71 404.882 1
-6 -5 17 1357.6 261.473 2
-5 6 17 457.163 109.65 2
-5 -17 6 1177.81 413.439 2
-5 17 -6 1423.57 465.483 1
6 17 -5 454.851 323.486 1
5 17 6 206.92 335.592 1
-6 5 -17 934.835 320.041 2
5 -17 -6 274.164 245.317 2
6 -5 -17 557.814 195.69 1
6 -17 5 621.242 313.976 2
5 6 -17 554.884 121.383 1
6 5 17 533.051 314.35 4
17 -6 -5 663.439 133.622 4
-5 6 17 736.866 329.054 4
5 -6 17 1127.15 326.453 2
-17 6 -5 881.052 367.522 1
-6 5 -17 436.69 249 3
-6 -5 17 590.431 172.109 3
-17 5 6 814.32 397.421 1
6 17 -5 760.291 225.288 3
-7 -6 -17 468.209 351.742 3
6 7 17 -51.4217 191.804 1
-6 -17 -7 106.361 279.648 2
-6 17 7 338.979 304.107 1
-7 -17 6 180.994 272.237 2
-6 -7 17 56.6505 179.975 2
7 6 -17 142.367 140.794 1
7 17 6 17.8725 318.332 1
7 -6 17 260.555 184.749 1
-6 7 -17 22.1763 246.785 2
-7 6 17 162.355 151.32 2
6 17 -7 137.047 265.624 1
-7 17 -6 64.6196 367.749 1
6 -7 -17 197.095 186.48 1
-17 7 6 -133.968 304.377 1
6 -17 7 624.75 335.862 2
-7 6 17 308.697 212.192 1
7 -17 -6 189.533 285.201 2
17 -6 -7 176.304 121.525 4
-17 -7 -6 -374.58 321.729 4
6 7 17 680.076 398.777 4
-7 6 17 352.648 298.33 4
17 6 7 434.905 258.016 4
7 -6 17 -100.819 249.364 2
-6 7 -17 154.281 222.568 3
6 17 -7 305.214 136.96 3
-6 7 -17 415.975 244.082 1
-4 17 7 2472 566.487 1
4 17 -7 1589.41 249.759 3
7 4 -17 1463.44 196.111 1
-7 -17 4 1166.07 407.469 2
-4 -17 -7 1822.86 436.107 2
4 -7 -17 2153.95 315.539 1
4 7 17 947.547 247.209 1
-4 7 -17 2211.14 403.46 2
-4 -7 17 1556.18 296.927 2
7 17 4 1925.21 508.891 1
-7 17 -4 2169.75 502.636 1
4 -17 7 1738.82 452.559 2
-7 4 17 2102.54 319.172 1
-17 7 4 1549.29 437.165 1
-7 4 17 1508.82 228.908 2
4 17 -7 1957.35 479.322 1
7 -17 -4 1136.84 369.683 2
-17 -7 -4 1746.15 398.248 4
-7 4 17 1990.19 435.377 4
4 7 17 1566.62 466.629 4
17 4 7 1491.72 339.81 4
7 -4 17 1626.96 303.889 1
-7 -4 -17 1200.32 269.962 2
-4 7 -17 1504.32 345.406 3
-4 7 -17 1632.91 274.906 1
7 4 -17 1289.27 195.496 1
-7 -4 -17 1855.81 454.487 3
2 -7 -17 489.584 201.016 1
-2 7 -17 212.762 142.744 1
-7 -17 2 1005.35 356.555 2
-2 7 -17 537.175 211.6 2
-2 -17 -7 782.169 285.109 2
7 17 2 1034.45 374.344 1
-7 17 -2 812.954 388.649 1
-2 -7 17 491.635 204.183 2
2 -17 7 767.13 377.815 2
7 -2 17 434.36 214.745 1
2 7 17 336.506 189.682 1
7 -17 -2 410.438 247.699 2
-17 7 2 616.604 336.219 1
-7 2 17 1708.38 427.454 4
2 17 -7 222.024 261.753 1
7 2 -17 450.052 125.523 1
-17 -7 -2 1214.59 332.947 4
17 2 7 540.432 254.018 4
2 7 17 258.777 311.408 4
-7 2 17 483.181 146.324 2
-7 -2 -17 514.195 201.226 2
-2 17 7 493.352 308.661 1
-2 7 -17 519.952 206.563 3
-7 -2 -17 -46.3983 264.984 3
-7 0 17 1657.73 342.073 3
0 -7 17 1967.45 204.808 1
7 0 -17 1507.71 194.224 1
0 7 -17 2340.15 366.907 2
-7 -17 0 1721.94 440.06 2
7 17 0 1914.31 487.624 1
-7 17 0 1909 491.257 1
0 -17 -7 1792.68 416.415 2
0 -17 7 2095.07 486.066 2
0 7 -17 1582.26 214.541 1
0 -7 17 2202.83 371.815 2
7 -17 0 1691.99 448.585 2
7 0 17 1638.97 265.691 1
7 0 17 1608.26 495.733 4
-7 0 17 2509.87 471.114 4
0 -7 -17 1302.63 155.259 2
-7 0 -17 1749.95 329.983 2
17 0 7 1130.55 316.642 4
0 17 7 1977.6 483.017 1
-17 -7 0 1904.38 327.897 4
0 7 17 1689.43 419.114 4
-17 7 0 2086.69 515.758 1
0 7 17 1345.72 266.064 1
0 17 -7 2158.79 488.159 1
-7 0 -17 1513.04 413.303 3
7 17 0 1911.18 352.182 3
0 7 -17 2101.56 341.86 3
-17 7 -2 490.82 312.811 1
-7 -2 17 614.237 224.763 3
-2 17 -7 1206.24 411.331 1
2 7 -17 800.581 227.994 3
-2 -7 -17 699.883 358.776 3
-2 7 17 521.436 249.04 1
-7 -17 -2 207.034 251.662 2
-7 17 2 881.549 365.921 1
-2 -7 -17 420.885 120.08 2
-2 -17 7 566.078 303.546 2
7 17 -2 661.511 328.466 1
2 -7 17 636.261 170.49 1
2 -17 -7 588.685 306.962 2
2 7 -17 508.784 121.809 1
-7 2 -17 589.967 258.201 2
7 -17 2 765.53 329.44 2
2 17 7 319.376 290.135 1
2 -7 17 524.034 220.817 2
17 -2 7 597.578 269.754 4
7 2 17 344.143 290.226 4
-2 7 17 1061.06 389.585 4
-17 -7 2 688.117 237.883 4
7 -2 -17 307.39 138.518 1
-7 2 -17 64.2808 260.175 3
7 17 -2 894.016 250.973 3
-4 -7 -17 1308.11 422.272 3
-4 -7 -17 1291 217.772 2
-7 -4 17 1639.66 291.653 2
-7 -17 -4 916.82 399.207 2
-4 17 -7 1534.85 449.432 1
-4 -17 7 1790 414.099 2
-7 17 4 1921.64 498.341 1
7 17 -4 1551.87 403.773 1
-17 7 -4 1735.33 506.744 1
4 17 7 873.694 380.925 1
4 -17 -7 1786.24 425.946 2
-7 4 -17 1058.35 319.411 2
-4 7 17 1795.5 338.978 1
7 -17 4 2040.99 463.257 2
7 4 17 2039.13 514.24 4
4 -7 17 1608.29 371.213 2
7 -4 -17 1803 271.653 1
-4 7 17 1767.26 479.366 4
4 -7 17 1812.34 307.808 1
17 -7 -4 1578.03 231.079 4
4 7 -17 1290.04 184.114 1
-7 4 -17 1140.39 365.18 3
7 17 -4 1851.3 277.171 3
-7 -4 17 1816.88 294.573 3
-6 -7 -17 -128.638 294.54 3
-6 7 17 540.286 278.139 1
7 6 17 4.3365 230.913 1
6 -7 17 255.428 202.405 1
-7 -6 17 59.577 183.877 2
-7 -17 -6 172.435 272.598 2
-6 -17 7 -253.638 303.785 2
-6 7 17 16.4128 122.83 2
-7 17 6 22.9146 298.696 1
-17 6 7 -95.4249 284.157 1
6 17 7 583.006 371.3 1
7 17 -6 251.753 296.751 1
-6 17 -7 293.571 320.288 1
6 7 -17 203.571 140.061 1
-7 6 -17 765.591 363.845 2
6 -17 -7 405.337 322.909 2
7 -17 6 471.395 277.205 2
7 -6 -17 -169.121 177.22 1
17 -7 -6 778.033 194.868 4
7 6 17 253.109 346.345 4
-6 7 17 155.702 287.042 4
6 -7 17 -16.9351 252.546 2
-7 6 -17 223.559 235.723 3
-7 -6 17 246.354 144.931 3
7 17 -6 250.349 126.563 3
-17 7 -6 182.425 286.254 1
-8 -7 -17 998.064 423.919 3
-17 8 7 555.166 413.66 1
7 8 17 67.6357 226.517 1
-7 -17 -8 56.1201 286.466 2
8 7 -17 398.256 193.348 1
-8 -17 7 324.314 266.618 2
-7 -8 17 120.913 203.351 2
8 17 7 224.048 321.433 1
-7 8 -17 446.089 252.797 1
-7 17 8 -1.94301 337.539 1
8 -7 17 -206.833 259.062 1
-17 7 -8 67.6214 310.422 1
7 17 -8 196.56 306.471 1
-8 7 17 402.352 182.084 2
-8 7 17 666.973 326.064 1
7 -8 -17 -143.631 190.985 1
7 -17 8 192.889 286.399 2
8 -17 -7 220.461 311.276 2
-8 17 -7 -306.576 392.724 1
17 -7 -8 221.582 172.072 4
7 8 17 -171.514 353.922 4
-8 7 17 20.5689 293.789 4
17 7 8 324.458 294.813 4
8 -7 17 51.0265 270.996 2
7 17 -8 194.066 94.895 3
-17 -8 -7 101.102 296.527 3
5 17 -8 253.764 130.256 3
-17 8 5 153.466 282.177 1
8 5 -17 146.884 131.057 1
-5 17 8 -157.653 344.365 1
-8 -17 5 -288.823 309.336 2
-5 -17 -8 465.253 290.07 2
-8 5 17 351.253 191.555 1
8 5 -17 533.235 191.201 1
5 8 17 214.704 221.914 1
8 17 5 449.28 346.409 1
-5 -8 17 473.34 218.867 2
-5 8 -17 -183.883 311.044 2
5 -8 -17 779.944 259.347 1
5 17 -8 163 273.425 1
5 -17 8 424.497 358.206 2
-5 8 -17 52.0468 184.012 1
-8 5 17 459.003 205.894 2
-8 17 -5 311.678 402.381 1
8 -17 -5 417.47 320.877 2
-17 -8 -5 178.224 255.77 4
-8 5 17 -65.4829 295.039 4
8 -5 17 481.397 238.172 1
5 8 17 -21.6946 309.472 4
17 5 8 781.083 327.069 4
-17 -8 -5 126.63 300.851 3
-5 8 -17 98.6431 215.479 3
8 -5 17 199.569 220.102 2
-8 -5 -17 470.96 342.894 3
-17 8 3 56.0869 332.881 1
-8 -17 3 514.706 353.258 2
3 -8 -17 260.132 177.342 1
-3 8 -17 514.056 299.375 2
8 17 3 346.15 305.186 1
-3 -17 -8 834.671 341.535 2
8 -3 17 196.734 191.381 1
-3 -8 17 201.369 188.262 2
3 8 17 260.902 216.882 1
3 -17 8 362.833 319.702 2
8 3 -17 311.481 137.793 1
-8 17 -3 1076.88 447.612 1
8 -17 -3 412.216 285.783 2
3 17 -8 286.766 283.181 1
-8 3 17 724.984 298.105 4
-8 3 17 501.758 180.196 2
-17 -8 -3 431.352 259.257 4
17 3 8 182.264 230.823 4
3 8 17 171.715 337.633 4
-8 -3 -17 526.942 217.853 2
3 -8 -17 531.331 134.199 2
-3 8 -17 653.661 245.899 3
-3 8 -17 653.571 205.335 1
-3 17 8 636.165 351.751 1
-8 -3 -17 885.791 351.964 3
1 -8 -17 83.8896 163.816 1
8 -1 17 -185.537 198.372 1
-17 8 1 402.538 307.496 1
-8 -17 1 711.383 367.603 2
-1 8 -17 685.364 264.635 2
8 17 1 -26.6068 303.432 1
-1 -17 -8 744.502 325.473 2
-1 8 -17 199.357 136.301 1
1 -17 8 360.371 306.044 2
-1 -8 17 803.747 258.831 2
-8 17 -1 460.971 354.35 1
8 -17 -1 617.402 271.31 2
8 1 -17 451.233 155.404 1
8 -1 17 118.761 314.12 4
-8 1 17 439.009 328.34 4
1 8 17 -63.7485 198.552 1
1 -8 -17 22.3888 97.37 2
17 1 8 370.024 257.916 4
-17 -8 -1 385.924 217.987 4
1 8 17 274.194 321.388 4
-8 -1 -17 -24.1562 209.063 2
1 17 -8 -91.105 306.99 1
-1 17 8 -255.18 371.129 1
-8 1 17 728.944 216.004 2
-8 -1 -17 -741.841 384.094 3
-1 8 -17 270.636 206.027 3
1 8 -17 462.803 205.785 3
-8 -1 17 353.431 218.917 3
8 -1 -17 212.496 162.334 1
-8 -17 -1 182.386 317.444 2
1 -8 17 453.203 161.331 1
-17 8 -1 259.207 280.742 1
8 17 -1 117.705 365.531 1
-1 -17 8 838.545 385.535 2
1 -17 -8 258.053 247.689 2
-8 17 1 16.5975 386.223 1
-1 -8 -17 184.957 122.021 2
1 -8 17 4.42983 200.322 2
8 -17 1 246.802 267.416 2
-8 -1 17 -143.375 280.291 4
1 8 -17 543.521 156.673 1
8 1 17 -58.9106 313.514 4
17 -1 8 416.9 259.674 4
1 17 8 720.384 321.596 1
-8 1 -17 332.738 235.174 2
-1 8 17 -44.0926 326.292 4
-17 -8 1 459.043 263.978 4
8 1 17 695.302 273.308 1
-8 1 -17 728.627 291.036 3
-1 8 17 497.11 225.535 1
8 17 -1 -65.3411 223.343 3
-1 17 -8 736.294 346.925 1
-8 -3 17 304.239 181.528 3
3 8 -17 265.243 149.207 3
-3 -8 -17 -118.332 346.754 3
3 8 -17 468.831 160.137 1
-3 17 -8 918.053 351.846 1
-8 -17 -3 -83.3486 326.028 2
-3 -8 -17 639.808 169.754 2
-3 8 17 634.852 263.404 1
8 17 -3 526.043 337.525 1
-3 -17 8 508.218 289.792 2
-8 17 3 -89.7701 318.736 1
3 -17 -8 860.451 315.003 2
-17 8 -3 859.4 381.444 1
3 17 8 538.409 312.33 1
3 -8 17 848.422 225.176 1
-8 3 -17 1272 351.488 2
8 -17 3 284.13 299.462 2
3 -8 17 386.617 275.546 2
8 3 17 221.362 305.339 4
-3 8 17 449.176 362.666 4
-8 3 -17 207.741 272.345 3
8 17 -3 413.6 217.572 3
8 -3 -17 512.459 182.374 1
-5 -8 -17 -182.96 348.106 3
-8 -17 -5 59.6058 295.43 2
-5 8 17 383.99 163.629 2
-17 5 8 447.811 290.066 1
-5 -17 8 -125.704 283.286 2
8 17 -5 440.275 335.487 1
-5 17 -8 441.515 363.553 1
-8 17 5 46.0234 376.702 1
5 17 8 553.988 351.464 1
-8 5 -17 257.928 296.423 2
5 -17 -8 69.2815 271.27 2
8 -17 5 108.101 265.69 2
5 8 -17 52.2695 137.99 1
-5 8 17 390.152 266.307 1
8 5 17 353.091 334.497 4
5 -8 17 190.917 268.965 2
-5 8 17 140.043 303.311 4
17 -8 -5 328.539 167.013 4
-17 8 -5 161.344 314.231 1
8 -5 -17 47.1526 162.25 1
5 -8 17 591.483 234.443 1
-8 5 -17 193.492 266.787 3
8 17 -5 388.135 168.407 3
-8 -5 17 318.074 148.712 3
-7 -8 -17 15.8124 308.044 3
8 7 17 172.319 251.096 1
-7 8 17 -221.738 274.585 1
7 -8 17 735.783 292.481 1
-8 -17 -7 83.8168 301.981 2
-8 -7 17 37.594 190.11 2
-7 -17 8 338.693 322.989 2
-17 8 -7 -433.918 354.903 1
7 17 8 28.2277 315.611 1
7 8 -17 99.5076 162.572 1
8 17 -7 192.722 273.266 1
-7 8 17 -478.72 250.724 2
-8 17 7 927.055 466.663 1
-7 17 -8 -339.671 374.277 1
-17 7 8 449.551 364.708 1
7 -17 -8 276.094 280.166 2
8 -17 7 88.4614 329.45 2
8 -7 -17 103.393 193.083 1
17 -8 -7 97.6183 171.946 4
8 7 17 -154.602 378.071 4
-7 8 17 -39.1837 304.198 4
7 -8 17 -224.502 305.122 2
-17 -7 -8 898.567 397.472 3
-8 -7 17 254.805 137.727 3
9 6 -17 378.428 183.673 1
-9 6 17 1134.35 336.834 1
-9 -17 6 1048.26 402.933 2
-6 -17 -9 726.23 341.795 2
-6 17 9 -77.9206 317.154 1
6 9 17 398.978 263.328 1
9 17 6 1000.66 438.238 1
-6 -9 17 1058.76 281.669 2
-6 9 -17 959.081 294.297 1
6 -9 -17 1816.78 357.473 1
6 17 -9 1269.73 349.765 1
-9 6 17 645.662 249.803 2
6 -17 9 464.81 329.179 2
9 -6 17 895.567 297.23 1
9 -17 -6 830.012 356.819 2
-17 9 6 724.666 439.559 1
-9 17 -6 860.158 429.137 1
-9 6 17 501.54 303.094 4
6 9 17 513.558 362.203 4
17 6 9 1259.83 393.588 4
-17 -9 -6 772.423 325.044 3
9 -6 17 881.555 335.198 2
6 17 -9 614.215 121.012 3
-9 -6 -17 -180.528 299.842 3
-4 17 9 -59.552 331.192 1
4 17 -9 476.049 151.806 3
9 -4 17 819.167 272.534 1
-9 -17 4 599.835 423.611 2
9 4 -17 333.956 159.868 1
9 17 4 762.27 386.617 1
-4 -17 -9 -69.0658 252.265 2
4 -9 -17 302.21 215.479 1
-4 -9 17 418.442 255.724 2
4 9 17 239.381 212.028 1
4 -17 9 352.74 272.988 2
-9 4 17 235.693 197.725 1
4 17 -9 276.064 297.914 1
9 -17 -4 501.476 313.334 2
-9 17 -4 -210.024 360.824 1
-9 4 17 628.346 235.946 2
-17 9 4 88.8988 352.948 1
-17 -9 -4 478.36 313.856 4
-9 4 17 1051.83 427.301 4
17 4 9 -101.934 265.926 4
4 9 17 366.2 378.004 4
-4 9 -17 493.527 226.946 1
4 -9 -17 449.316 175.356 2
-4 9 -17 431.976 215.796 3
-17 -9 -4 204.098 270.558 3
-9 -4 -17 277.685 292.983 3
2 -9 -17 859.731 233.389 1
-9 -17 2 972.659 389.401 2
-2 9 -17 751.275 284.898 2
9 2 -17 941.413 211.702 1
9 17 2 1102.94 430.799 1
-2 9 -17 835.742 242.498 1
-2 -17 -9 1568.27 404.317 2
-2 -9 17 750.301 281.798 2
2 -17 9 1322.13 419.184 2
2 9 17 562.966 246.712 1
-9 17 -2 660.734 422.428 1
9 -17 -2 1424.92 441.894 2
-17 -2 9 1059.69 163.062 4
-9 2 17 790.76 378.731 4
2 -9 -17 940.139 201.865 2
17 2 9 1238.15 360.199 4
2 17 -9 1079.69 372.358 1
-17 -9 -2 1199.55 311.499 4
-17 9 2 822.857 383.876 1
9 -2 17 818.773 288.978 1
2 9 17 749.346 427.089 4
-9 2 17 1485.13 300.806 2
-9 -2 -17 933.943 274.683 2
-17 -9 -2 983.89 339.836 3
-2 17 9 1710.34 443.034 1
-2 9 -17 594.211 247.791 3
-9 -2 -17 421.551 311.397 3
0 -9 -17 120.714 215.352 1
0 -9 17 292.88 150.055 1
0 9 -17 423.109 231.764 2
-9 -17 0 564.795 296.868 2
9 17 0 120.126 315.093 1
0 -17 -9 312.83 250.482 2
0 -17 9 48.5992 261.268 2
0 -9 17 491.122 268.745 2
0 -9 -17 262.192 150.7 2
9 0 -17 314.395 175.585 1
-9 17 0 -213.502 347.089 1
9 0 17 854.506 427.654 4
-9 0 17 -109.978 298.454 4
9 -17 0 473.372 325.41 2
17 0 9 200.65 249.687 4
0 17 9 818.494 401.368 1
-9 0 -17 103.852 227.52 2
0 9 -17 510.717 175.472 1
0 9 17 -0.68705 374.372 4
-17 -9 0 190.863 239.297 4
9 0 17 175.085 205.399 1
0 9 17 418.063 244.63 1
-17 0 9 194.55 78.3699 4
-17 9 0 156.653 344.801 1
0 17 -9 69.3434 309.731 1
9 17 0 127.48 205.346 3
-9 0 -17 -183.556 337.845 3
0 9 -17 441.83 217.808 3
2 9 -17 1056.44 225.009 3
-9 -2 17 1379.46 328.557 3
-2 9 17 1101.61 332.173 1
-2 17 -9 1208.5 424.1 1
-2 -9 -17 649.816 326.915 3
-9 -17 -2 621.428 329.621 2
9 -2 -17 884.437 200.389 1
2 9 -17 658.861 188.189 1
9 17 -2 1096.59 370.486 1
-2 -9 -17 801.762 187.37 2
-2 -17 9 866.422 353.276 2
2 -9 17 1645.18 279.584 1
2 -17 -9 1554.87 390.904 2
-9 17 2 508.064 418.738 1
2 -9 17 1210.78 346.231 2
2 17 9 418.333 298.771 1
17 -2 9 678.475 272.048 4
9 -17 2 706.398 335.773 2
-9 2 -17 1069.59 344.911 2
9 2 17 1340.42 428.714 4
-2 9 17 831.52 394.078 4
9 17 -2 1118.22 260.618 3
-9 2 -17 56.0185 269.735 3
-17 9 -2 1524.87 499.688 1
9 -4 -17 313.747 164.989 1
-9 -4 17 744.017 217.016 3
-4 -9 -17 524.165 375.18 3
-9 -17 -4 179.099 214.139 3
-17 9 -4 535.483 364.201 1
-9 -17 -4 -139.538 291.546 2
-4 -9 -17 150.549 166.544 2
-4 17 -9 253.185 310.769 1
9 17 -4 562.039 369.586 1
-4 -17 9 54.3677 309.885 2
-4 9 17 -58.2657 282.576 1
4 17 9 -212.628 342.849 1
4 -17 -9 661.467 300.303 2
-9 17 4 670.058 384.595 1
-9 4 -17 673.803 306.564 2
9 -17 4 581.641 349.879 2
4 -9 17 -82.4834 219.788 1
4 -9 17 615.891 306.983 2
9 4 17 33.7164 308.927 4
-4 9 17 217.477 311.311 4
4 9 -17 518.784 187.712 1
9 17 -4 111.794 154.256 3
-9 4 -17 422.582 329.211 3
-6 -9 -17 359.18 319.227 3
-9 -17 -6 587.489 317.407 3
-9 -17 -6 461.321 325.928 2
-6 -17 9 913.985 395.501 2
-6 9 17 956.881 223.22 2
9 17 -6 828.181 322.841 1
6 17 9 -202.589 400.123 1
-17 9 -6 1119.29 454.363 1
-6 17 -9 1139.92 437.723 1
-17 6 9 1204.42 407.846 1
6 9 -17 574.288 190.638 1
-9 17 6 1199.17 445.324 1
6 -17 -9 593.122 307.91 2
9 -17 6 1015.84 364.439 2
9 6 17 211.018 361.493 4
6 -9 17 633.424 372.234 2
-6 9 17 765.234 325.568 1
17 -9 -6 1096.28 267.768 4
-6 9 17 694.476 388.41 4
9 -6 -17 872.357 265.35 1
-17 -6 -9 1354.69 474.898 3
6 -9 17 999.428 300.523 1
-9 -6 17 864.496 192.246 3
-10 5 17 1618.42 374.996 1
-5 17 10 1139.4 442.73 1
-10 -17 5 1241.48 460.884 2
10 17 5 616.147 356.907 1
-5 -17 -10 801.481 342.78 2
10 5 -17 2080.13 337.048 1
-5 -10 17 1238.49 316.25 2
5 10 17 1195.14 340.531 1
5 -10 -17 950.268 304.882 1
-17 10 5 1324.43 480.051 1
5 -17 10 1219.39 471.792 2
5 17 -10 861.373 405.502 1
-10 5 17 2250.12 384.138 2
10 -17 -5 1655.26 429.002 2
-10 5 17 1416.52 396.324 4
17 5 10 1378.76 345.154 4
-5 10 -17 1782.57 377.246 1
5 10 17 1652.24 515.815 4
5 -10 -17 1741.9 322.073 2
-10 17 -5 1758.98 489.102 1
-17 -10 -5 1569.58 450.392 3
17 -10 5 1054.94 417.833 2
-10 -5 -17 1053.91 434.46 3
10 -5 17 533.01 233.205 1
5 17 -10 881.894 145.2 3
-10 -17 3 582.361 400.354 2
10 17 3 581 345.916 1
3 -10 -17 806.591 292.335 1
-3 -17 -10 707.082 346.787 2
-3 10 -17 527.164 228.631 1
-3 -10 17 799.063 295.523 2
-17 10 3 310.813 335.849 1
3 10 17 642.378 263.946 1
3 -17 10 517.255 339.881 2
10 -3 17 607.256 275.438 1
10 -17 -3 993.934 398.887 2
3 17 -10 984.923 357.224 1
-10 3 17 638.162 299.149 4
3 -10 -17 999.549 248.533 2
17 3 10 625.54 282.813 4
-10 17 -3 1214.91 479.029 1
-10 3 17 735.949 264.349 2
3 10 17 106.97 344.112 4
10 3 -17 778.31 218.533 1
-10 -3 -17 998.863 291.961 2
-3 10 -17 541.577 250.754 3
-17 -10 -3 1287.86 385.173 3
17 -10 3 1373.41 483.839 2
-10 -3 -17 677.448 392.25 3
-3 17 10 80.1904 309.785 1
10 1 -17 2246.98 319.003 1
-1 -10 17 2509.81 320.923 1
1 -10 -17 1533.96 311.05 1
-10 -17 1 1589.53 429.613 2
10 17 1 2163.94 510.71 1
10 -1 17 2904.51 449.67 1
-1 -17 -10 1811.14 412.999 2
1 -17 10 2630.6 538.909 2
-1 -10 17 2037.22 399.917 2
-17 10 1 2019.46 520.011 1
1 -10 -17 2290.07 312.883 2
10 -1 17 1964.81 553.446 4
-10 1 17 3336.19 544.166 4
10 -17 -1 2159.76 499.022 2
1 10 17 2188.12 387.348 1
17 1 10 1525.03 395.114 4
-17 -1 10 2184.04 234.179 4
-10 17 -1 1446.19 477.526 1
-17 -10 -1 2668.4 450.531 4
1 10 17 1460.56 472.714 4
-10 -1 -17 2295.55 428.547 2
-1 17 10 2188.96 494.254 1
-1 10 -17 2020.92 314.041 1
1 17 -10 1653.09 433.162 1
-17 -10 -1 1730.05 393.034 3
17 -10 1 1831.01 495.309 2
-1 10 -17 2323.03 349.52 3
-10 -1 -17 1547.6 451.191 3
-1 17 -10 2085.33 479.036 1
-10 -1 17 2328.73 390.576 3
-10 -17 -1 1686.44 362.805 3
10 17 -1 2230.79 516.435 1
1 -10 17 3129.02 366.085 1
1 10 -17 2133.34 302.625 1
-1 -17 10 2383.36 544.384 2
-1 -10 -17 1499.34 270.163 2
1 -17 -10 1624.87 387.451 2
1 -10 17 2073.33 407.732 2
10 -1 -17 2064.06 318.984 1
-17 10 -1 2953.14 581.292 1
-10 -1 17 3455.08 527.778 4
17 -1 10 1884.1 409.989 4
10 1 17 1994.36 535.535 4
1 17 10 2059.82 499.231 1
10 -17 1 2277.24 504.026 2
-10 17 1 1584.79 476.886 1
-10 1 -17 1992.86 424.192 2
-1 10 17 2470.25 560.892 4
-17 -10 1 2489.83 419.719 4
10 1 17 1547.21 350.166 1
-17 -10 1 1667.67 357.619 3
10 17 -1 2297.35 385.924 3
-10 1 -17 1177.14 417.267 3
-1 10 17 2480.63 417.057 1
1 10 -17 2180.81 312.525 3
-10 -3 17 198.796 162.402 3
3 10 -17 331.032 158.125 3
-10 -17 -3 651.303 300.045 3
-3 -10 -17 85.336 311.318 3
-3 10 17 1067.03 328.257 1
-3 17 -10 533.365 332.642 1
10 -3 -17 896.918 235.405 1
10 17 -3 319.461 322.29 1
-3 -10 -17 565.971 204.357 2
-3 -17 10 675.942 337.251 2
3 -10 17 944.757 256.889 1
3 -17 -10 1168.5 355.469 2
3 17 10 1231.56 433.273 1
3 -10 17 679.921 267.265 2
-10 17 3 344.638 426.837 1
10 -17 3 802.117 356.596 2
10 3 17 453.384 319.77 4
-17 10 -3 1115.96 448.815 1
-3 10 17 848.83 430.531 4
-10 3 -17 372.418 285.543 3
3 10 -17 868.769 223.821 1
-10 -5 17 1191.24 236.987 3
10 -5 -17 1171.28 304.882 1
-5 -10 -17 1878.67 503.008 3
-10 -17 -5 1696.48 421.164 3
-17 5 10 1063.37 405.315 1
-5 -10 -17 974.784 258.799 2
-5 10 17 1364.31 255.462 2
10 17 -5 1280.63 417.081 1
-5 -17 10 1148.72 405.652 2
-5 17 -10 1526.73 441.989 1
5 17 10 1458.3 450.033 1
-5 10 17 1502.76 422.868 1
5 -17 -10 2002.49 451.395 2
-10 17 5 1227.32 383.372 1
5 10 -17 1470.69 262.374 1
10 -17 5 1411.67 453.524 2
5 -10 17 1685.49 436.027 2
10 5 17 1178.17 472.492 4
5 -10 17 2326.41 402.252 1
-5 10 17 1832.45 490.711 4
-17 -5 -10 1718.26 515.978 3
-17 10 -5 1221.61 447.611 1
4 17 -11 507.03 118.706 3
-4 17 11 476.692 357.161 1
-11 -17 4 1001.56 368.55 2
11 17 4 819.376 446.341 1
-17 11 4 686.746 416.9 1
-4 -17 -11 1073.73 370.372 2
-4 -11 17 829.507 314.129 2
-4 11 -17 1181.4 313.924 1
11 4 -17 1110.14 295.348 1
4 11 17 583.83 256.352 1
4 -17 11 597.175 344.131 2
4 17 -11 409.501 325.328 1
11 -17 -4 973.297 399.549 2
-11 4 17 1200.71 400.844 4
4 -11 -17 1270.27 312.627 2
17 4 11 675.499 315.492 4
-11 4 17 1025.44 298.32 2
4 11 17 855.684 402.392 4
17 -11 4 1392.2 513.478 2
-17 -11 -4 412.252 285.728 3
-11 17 -4 1380.98 547.65 1
-11 -4 -17 1066.99 458.779 3
11 17 2 1728.94 518.988 1
-17 11 2 1711.79 475.382 1
-2 -17 -11 1284.51 374.995 2
-2 -11 17 1260.18 344.652 2
2 -17 11 1748.58 482.751 2
11 2 -17 977.749 286.334 1
2 11 17 1057.4 322.953 1
2 -11 -17 1341.54 291.387 2
11 -2 17 1385.31 468.534 4
-17 -2 11 1289.21 214.093 4
-11 2 17 1406.94 412.432 4
11 -17 -2 1294.04 391.197 2
17 2 11 1090.91 355.686 4
2 11 17 1023.97 439.618 4
2 17 -11 900.988 370.799 1
-11 -2 -17 1525.28 365.213 2
-11 2 17 1691.56 344.056 2
-11 17 -2 2350.91 589.999 1
-2 11 -17 1458.25 309.317 1
-2 11 -17 954.931 258.107 3
-2 17 11 1450.12 466.325 1
-17 -11 -2 1285.73 400.593 3
17 -11 2 1245.8 459.769 2
-11 -2 -17 1399.24 472.581 3
-11 -17 0 1994.04 362.214 3
0 -11 17 1497.4 286.438 1
11 17 0 1869.32 471.068 1
-17 11 0 1434.22 510.868 1
0 -17 -11 1738.43 410.735 2
0 -17 11 1857.17 463.31 2
0 11 -17 1549.75 300.853 1
0 -11 -17 1826.88 312.362 2
0 -11 17 1584.14 372.085 2
11 0 17 2029.33 518.923 4
-11 0 17 2264.24 457.974 4
17 0 11 1030.38 381.76 4
11 -17 0 902.336 375.529 2
-17 0 11 1575.72 219.893 4
0 17 11 841.182 374.404 1
0 11 17 815.758 342.245 4
0 11 17 1619.23 362.892 1
-17 -11 0 1364.88 353.83 4
-11 17 0 1072.2 436.885 1
-17 -11 0 1375.65 355.241 3
17 -11 0 2668.71 546.938 2
-11 0 -17 664.965 386.934 3
11 0 -17 1891.22 318.032 1
0 11 -17 1699.09 292.247 3
0 17 -11 2256.56 511.83 1
2 11 -17 1167.56 222.874 3
-2 11 17 950.846 322.456 1
-11 -17 -2 1335.14 372.437 3
-11 -2 17 1051.23 290.327 3
2 11 -17 1450.03 287.664 1
-2 17 -11 1327.46 414.035 1
11 17 -2 1770.28 487.761 1
-2 -11 -17 1000.34 232.055 2
2 -11 17 1397.14 306.863 1
-2 -17 11 1084.02 391.114 2
-17 11 -2 905.316 436.785 1
2 -17 -11 1078.69 352.27 2
11 -2 -17 1837.42 347.44 1
2 -11 17 1578.98 402.494 2
2 17 11 1072.27 396.638 1
17 -2 11 443.278 288.098 4
11 2 17 1422.08 472.384 4
11 -17 2 1665.51 486.42 2
-11 17 2 668.791 401.703 1
-2 11 17 1342.67 496.632 4
-17 -11 2 938.201 279.598 3
-11 2 -17 534.418 393.765 3
17 -11 -2 629.317 374.016 2
-11 -4 17 901.383 272.287 3
-11 -17 -4 337.159 243.322 3
-4 -11 -17 425.111 327.693 3
-4 11 17 1014.18 245.757 2
11 17 -4 684.701 324.742 1
11 -4 -17 758.643 259.402 1
-4 -11 -17 967.609 249.705 2
-4 11 17 657.513 313.894 1
-4 -17 11 1163.53 429.028 2
-4 17 -11 1500.94 419.818 1
4 17 11 470.332 312.328 1
4 -17 -11 841.271 333.119 2
-17 11 -4 832.316 415.589 1
4 -11 17 1254.44 296.531 1
4 -11 17 247.405 278.959 2
11 -17 4 809.068 394.453 2
11 4 17 1367.52 489.988 4
-11 17 4 343.311 376.691 1
-4 11 17 454.218 411.577 4
4 11 -17 1607.24 322.136 1
-17 -4 -11 791.383 461.571 3
-11 4 -17 94.7862 298.925 3
-17 -11 4 539.627 252.488 3
0 0 -18 3643.94 537.794 3
0 -18 0 3748.44 621.063 2
0 0 18 3859.5 659.519 4
0 18 0 3656.64 626.221 1
-1 1 -18 55.6092 222.767 3
-1 -1 -18 424.57 270.238 3
1 1 -18 -33.2444 211.821 3
1 -1 -18 -77.1577 224.918 3
-1 -18 -1 -145.846 277.112 2
-1 -18 1 53.2387 241.713 2
1 -18 -1 -530.32 309.946 2
1 -18 1 -101.179 242.152 2
1 1 18 153.624 292.852 4
-1 1 18 -44.8041 292.605 4
1 18 1 151.178 345.775 1
1 18 -1 -246.58 348.388 1
18 -1 1 -99.6556 111.756 4
-1 18 1 -143.426 297.579 1
-1 18 -1 259.688 281.177 1
-2 0 -18 1012.09 362.173 3
0 2 -18 834.002 290.957 3
0 -2 -18 530.118 252.479 3
-2 -18 0 871.795 362.224 2
0 -18 -2 606.568 313.57 2
0 -18 2 941.504 346.068 2
2 -18 0 1221.09 411.276 2
2 18 0 185.669 292.945 1
-2 0 18 1041.15 392.671 4
2 0 18 588.767 346.373 4
0 2 18 926.779 403.707 4
0 18 2 547.452 338.603 1
18 -2 0 265.82 75.0053 4
18 0 2 235.281 127.115 4
0 18 -2 738.459 392.433 1
0 -2 18 644.018 135.955 2
-2 18 0 798.388 386.045 1
-2 2 -18 886.567 325.862 3
-2 -2 -18 860.21 332.26 3
2 2 -18 457.353 247.561 3
-2 2 -18 907.624 160.774 2
-2 -18 -2 1093.96 392.618 2
-2 -18 2 1039.8 355.638 2
2 -18 -2 875.343 346.677 2
2 -18 2 1304.91 416.692 2
2 2 18 775.327 147.529 1
2 18 2 1295.31 433.075 1
-2 -2 18 847.779 153.995 2
2 18 -2 1483.56 428.189 1
2 2 18 1040.59 421.129 4
-2 2 18 941.902 423.811 4
18 -2 2 1008.57 185.02 4
-2 18 2 1601.19 492.698 1
-2 -2 18 1105.03 281.846 3
-2 18 -2 715.937 349.607 1
-1 3 -18 321.113 235.681 3
-3 -1 -18 301.955 256.827 3
3 -1 18 221.183 76.2902 1
-3 -18 1 -61.7603 273.65 2
-1 -18 -3 583.45 322.585 2
-3 -1 -18 288.911 89.4603 2
1 -18 3 211.241 278.35 2
3 -18 -1 461.433 277.544 2
3 18 1 221.041 304.885 1
3 -1 18 338.846 353.991 4
-1 -3 18 582.883 173.136 2
-3 1 18 897.152 365.194 4
18 -3 1 553.592 148.372 4
1 3 18 608.555 371.449 4
3 -1 18 180.499 85.4522 1
1 18 -3 679.31 358.011 1
1 3 18 523.178 143.488 1
18 1 3 535.768 183.297 4
-1 18 3 529.522 347.049 1
-1 -3 18 862.336 267.595 3
-3 18 -1 426.782 350.79 1
-3 1 -18 250.608 235.073 3
1 3 -18 650.45 245.866 3
3 18 -1 743.545 296.602 3
-1 -3 -18 -133.653 246.124 3
3 1 18 254.199 87.2794 1
-3 -18 -1 823.968 373.333 2
-3 1 -18 313.131 135.151 2
-1 -18 3 443.454 341.374 2
1 -18 -3 294.57 299.58 2
3 -18 1 386.919 263.768 2
3 18 -1 656.554 355.97 1
-1 3 18 401.077 112.229 1
3 1 18 434.258 114.992 1
3 1 18 -119.342 328.016 4
1 18 3 -370.246 360.467 1
-1 3 18 420.7 313.265 4
18 -1 3 576.102 183.259 4
1 -3 18 357.688 153.59 2
-1 18 -3 502.848 371.156 1
-3 18 1 479.44 362.348 1
-3 18 -3 746.514 378.341 1
-3 -3 -18 917.007 356.256 3
3 18 -3 1645.4 361.313 3
-3 3 -18 1577.01 261.375 2
-3 -18 -3 1290.17 422.602 2
-3 -18 3 2016.97 488.274 2
3 3 18 1134.92 194.659 1
-3 -3 18 1506.64 219.941 2
3 -18 -3 1307.97 402.048 2
3 -18 3 1705.12 418.223 2
3 18 3 1805.32 462.737 1
3 18 -3 1090.19 448.735 1
18 -3 3 1608.58 262.134 4
3 3 18 1365.14 483.775 4
-3 3 18 1129.19 396.775 4
-3 3 18 1232.98 166.136 1
3 -3 18 1400.99 257.466 2
-3 -3 18 1960.23 318.294 3
3 -3 18 1349.83 166.636 1
-3 18 3 1541.35 465.71 1
-3 3 -18 1197.71 348.089 3
-4 -2 -18 321.994 281.562 3
-4 18 -2 1078.78 428.134 1
-2 4 -18 265.338 182.071 2
-4 -18 2 353.568 308.468 2
-2 -18 -4 303.413 250.111 2
2 -18 4 432.554 265.321 2
4 -18 -2 67.5504 252.33 2
2 4 18 17.2439 139.842 1
-2 -4 18 179.765 144.104 2
4 18 2 386.039 352.14 1
-4 -2 -18 379.069 133.039 2
4 -2 18 489.127 160.971 1
2 18 -4 908.265 419.64 1
-4 2 18 784.734 384.811 4
2 4 18 -26.465 328.712 4
18 2 4 -47.3232 191.698 4
-2 18 4 201.723 300.11 1
-2 4 -18 393.81 261.668 3
-4 0 -18 3.84197 241.767 3
0 4 -18 94.7857 209.355 3
-4 18 0 -161.348 325.281 1
0 -4 -18 43.699 237.567 3
-4 -18 0 86.2236 303.223 2
0 -18 -4 -177.82 260.984 2
0 -18 4 -170.638 282.513 2
-4 0 -18 -69.6657 129.711 2
4 -18 0 229.071 253.672 2
4 18 0 482.496 330.163 1
4 0 18 65.3513 299.245 4
-4 0 18 528.543 383.165 4
0 -4 18 -256.717 202.131 2
0 4 18 63.9684 308.883 4
18 0 4 -16.532 174.844 4
0 18 4 280.68 322.243 1
4 0 18 -59.7255 125.134 1
0 18 -4 74.1154 296.978 1
0 4 18 -98.1426 129.381 1
-4 18 2 502.767 341.004 1
4 18 -2 508.424 244.395 3
-2 -4 -18 53.5698 282.602 3
2 4 -18 290.258 205.813 3
4 2 18 166.184 126.513 1
-4 -18 -2 -133.433 281.157 2
-2 -18 4 -138.937 265.541 2
-4 2 -18 133.458 172.841 2
-4 -2 18 179.057 105.201 2
2 -18 -4 270.053 287.987 2
4 -18 2 -123.686 279.28 2
4 18 -2 290.764 309.288 1
2 18 4 487.146 390.808 1
-18 -4 2 31.8089 89.7904 4
18 -2 4 563.405 216.44 4
4 2 18 532.94 353.699 4
-2 4 18 10.9669 114.013 1
-2 4 18 -30.8084 293.04 4
2 -4 18 423.263 214.091 2
-4 -2 18 532.941 224.625 3
-2 18 -4 618.788 373.17 1
-4 2 -18 380.934 290.493 3
-4 -4 -18 512.456 304.57 3
-4 18 4 1108.77 468.951 1
4 18 -4 232.612 180.774 3
4 -4 18 80.3025 123.764 1
-4 18 -4 -79.6816 326.896 1
4 -4 -18 75.7397 110.911 1
4 4 18 293.875 151.006 1
-4 -18 -4 325.423 238.478 2
-4 -18 4 738.864 362.004 2
-4 4 -18 321.89 197.737 2
-4 -4 18 162.636 142.297 2
4 18 4 -336.966 365.053 1
4 -18 -4 161.539 263.309 2
4 -18 4 361.791 286.974 2
-4 4 18 310.922 152.765 1
4 18 -4 577.207 347.784 1
4 4 18 192.078 344.137 4
-4 4 18 667.2 367.971 4
-18 -4 4 215.08 77.2037 4
-4 -4 -18 81.6904 100.707 2
4 -4 18 146.844 206.653 2
-4 -4 18 219.71 152.443 3
-4 4 -18 37.9123 253.078 3
-5 -3 -18 743.942 335.564 3
3 -5 -18 811.433 175.887 1
-5 3 18 802.978 166.432 1
3 18 -5 761.734 223.596 3
-5 18 -3 636.485 346.416 1
-5 -18 3 1056.51 370.543 2
-3 5 -18 1135.3 268.055 2
-3 -18 -5 1153.59 403.898 2
3 5 18 532.35 187.673 1
-3 -5 18 820.751 218.714 2
5 18 3 661.064 311.597 1
3 -18 5 783.654 373.366 2
5 -18 -3 959.419 348.093 2
5 -3 18 918.57 207.483 1
3 18 -5 1584.55 452.357 1
-18 5 3 783.538 383.132 1
-18 -5 -3 1351.51 314.01 4
-5 3 18 865.517 410.115 4
3 5 18 762.634 371.69 4
-5 -3 -18 499.015 163.734 2
18 3 5 248.271 203.934 4
-3 18 5 515.769 349.836 1
-3 5 -18 600.839 263.029 3
-1 5 -18 685.511 269.948 3
-1 5 -18 1109.25 246.182 2
-5 18 -1 679.188 351.8 1
-5 -18 1 1093.03 386.634 2
-1 -18 -5 1262.19 404.586 2
5 -1 18 1279.75 227.217 1
1 -18 5 742.974 336.179 2
5 18 1 1094.84 455.931 1
5 -18 -1 1357.95 401.244 2
-1 -5 18 1096.7 246.69 2
-5 -1 -18 1290.41 243.419 2
5 -1 18 893.487 444.063 4
-18 -5 -1 977.76 243.435 4
-5 1 18 1007.81 412.086 4
1 5 18 922.341 196.363 1
1 5 18 243.944 304.863 4
18 1 5 827.387 255.552 4
1 18 -5 794.98 331.252 1
-1 18 5 816.759 398.944 1
-5 -1 -18 480.413 336.069 3
5 18 -1 1202.4 316.48 3
5 1 18 747.129 192.48 1
1 5 -18 1009.53 283.8 3
-1 -5 -18 607.417 313.089 3
-1 5 18 1376.64 254.652 1
-5 18 1 1446.4 472.433 1
-5 -18 -1 942.656 332.527 2
-5 -1 18 402.762 110.794 2
-1 -18 5 677.697 330.073 2
1 -18 -5 1038.76 369.143 2
5 18 -1 1457.72 436.896 1
-5 1 -18 1295.07 272.596 2
5 -18 1 813.771 332.157 2
-5 -1 18 719.282 362.575 4
5 1 18 1099.56 477.743 4
1 18 5 584.013 354.951 1
1 -5 18 873.109 249.337 2
-18 -5 1 1143.98 222.98 4
18 -1 5 1106.27 266.738 4
-1 5 18 1330.17 447.939 4
-1 18 -5 961.754 403.313 1
-5 1 -18 569.975 297.95 3
-5 -1 18 826.881 246.442 3
5 18 -3 668.221 227.672 3
-3 -5 -18 89.7613 260.829 3
-3 18 -5 127.243 305.616 1
5 3 18 410.024 163.287 1
-5 18 3 260.975 356.111 1
-3 -5 -18 359.232 80.0231 2
-5 -18 -3 610.754 339.192 2
-5 -3 18 747.985 184.022 2
5 -3 -18 476.707 133.058 1
-3 -18 5 567.018 284.266 2
-5 3 -18 597.728 262.536 2
3 -18 -5 472.249 304.611 2
5 18 -3 1051.13 399.834 1
5 -18 3 20.1414 266.246 2
3 18 5 484.768 355.053 1
18 -3 5 730.908 219.843 4
3 -5 18 762.733 162.852 1
5 3 18 966.47 406.554 4
-3 5 18 1188.93 466.184 4
-18 -5 3 675.015 156.646 4
-3 5 18 744.535 215.644 1
3 -5 18 1068.1 281.942 2
-3 -5 -18 481.39 110.731 2
-5 -3 18 830.043 224.928 3
-5 3 -18 489.358 256.397 3
5 18 -5 2335.13 332.91 3
-5 -5 -18 1974.69 495.385 3
5 -5 18 2955.39 355.82 1
-5 18 5 2616.47 595.638 1
5 5 18 2153.88 316.903 1
-5 18 -5 3360.81 628.902 1
-5 -18 -5 2367.81 494.026 2
-5 -18 5 2858.73 556.98 2
-5 -5 18 2487.87 338.566 2
5 -5 -18 2445.35 284.287 1
-18 5 5 2752.6 580.636 1
-5 5 -18 2978.23 435.168 2
-5 5 18 2761.69 339.679 1
5 18 5 2515.94 569.006 1
5 18 -5 2986.09 552.587 1
5 -18 5 2887.08 562.769 2
5 -18 -5 2517.13 509.977 2
5 5 18 2465.7 547.557 4
-5 5 18 2784.31 544.043 4
-18 -5 5 2162.42 248.152 4
5 -5 18 2529.75 399.348 2
-5 -5 -18 1634.47 235.63 2
-5 -5 18 2677.74 332.474 3
-5 5 -18 2801.99 467.119 3
-6 -4 -18 -494.994 321.711 3
-4 18 6 298.852 360.591 1
-18 6 4 341.068 378.188 1
4 18 -6 448.758 213.972 3
4 -6 -18 -28.2657 155.189 1
-6 -18 4 324.634 356.803 2
-4 -18 -6 756.732 383.614 2
-6 18 -4 13.7029 341.607 1
4 6 18 290.719 180.01 1
-4 6 -18 -209.985 238.87 2
-6 4 18 94.6482 156.83 1
-4 -6 18 145.346 167.349 2
-6 4 18 -3.14988 63.8357 2
6 18 4 -154.336 358.318 1
4 -18 6 -52.7071 277.573 2
6 -4 18 101.768 165.924 1
6 -18 -4 346.986 279.679 2
4 18 -6 758.796 389.876 1
-18 -6 -4 273.986 241.672 4
-6 4 18 90.2445 294.707 4
4 6 18 410.227 322.838 4
18 4 6 85.763 218.886 4
-18 -4 6 135.443 87.6566 4
-6 -4 -18 62.5089 159.221 2
-4 6 -18 281.316 205.736 3
2 -6 -18 -125.121 163.204 1
6 -2 18 52.0701 164.206 1
-2 6 -18 127.792 189.546 2
-6 -18 2 -114.979 282.721 2
-18 6 2 224.365 292.768 1
-6 18 -2 332.746 343.064 1
-2 -18 -6 -38.8777 256.699 2
6 18 2 258.553 289.514 1
2 -18 6 -203.555 286.355 2
-2 -6 18 -2.85998 173.889 2
2 6 18 -4.97682 156.587 1
6 -18 -2 321.713 290.05 2
-6 2 18 -53.7204 91.2216 2
-18 -6 -2 81.319 188.073 4
-6 2 18 245.87 286.678 4
2 18 -6 193.914 297.316 1
-6 -2 -18 79.0816 172.912 2
2 6 18 298.987 324.357 4
18 2 6 67.418 213.96 4
-2 18 6 -236.685 329.805 1
-2 6 -18 109.118 239.179 3
-6 -2 -18 -519.247 318.128 3
0 6 -18 -48.3819 183.964 3
-6 0 18 18.0012 83.4039 2
6 0 18 469.773 198.287 1
-6 -18 0 423.77 307.926 2
-6 18 0 -242.878 346.459 1
0 -18 -6 15.6179 302.571 2
0 -18 6 417.212 340.272 2
6 18 0 484.446 324.873 1
6 -18 0 223.123 251.03 2
0 -6 18 -91.76 176.601 2
-6 0 -18 153.981 190.895 2
6 0 18 -190.232 323.072 4
-6 0 18 -544.05 378.567 4
-18 6 0 130.451 366.035 1
-18 -6 0 362.361 203.002 4
18 0 6 -85.415 191.248 4
0 6 18 237.189 301.492 4
0 18 6 -98.7261 311.927 1
0 18 -6 261.879 329.592 1
0 6 18 480.292 225.543 1
-6 0 -18 202.132 273.291 3
2 6 -18 24.4876 214.661 3
-2 -6 -18 -276.561 308.387 3
-6 -2 18 -97.9323 114.003 2
-6 -18 -2 126.046 304.586 2
-6 18 2 313.418 360.946 1
-2 6 18 43.2989 203.762 1
-2 -18 6 -114.783 292.93 2
2 -6 18 17.5996 93.6696 1
6 18 -2 327.344 298.769 1
2 -18 -6 -72.8552 272.136 2
6 -2 -18 -205.819 116.245 1
-6 2 -18 79.0192 220.362 2
6 -18 2 -133.448 261.5 2
2 18 6 -312.164 368.25 1
-18 6 -2 -234.532 354.229 1
18 -2 6 -9.95084 210.154 4
6 2 18 -464.995 394.195 4
2 -6 18 123.934 186.572 2
-2 6 18 734.497 359.584 4
-18 -6 2 11.6772 161.139 4
-6 2 -18 -129.891 250.082 3
-6 -2 18 199.898 200.526 3
6 18 -2 -31.4549 204.094 3
-2 18 -6 139.581 338.451 1
-4 -6 -18 -116.201 284.272 3
6 4 18 87.3651 174.352 1
-4 -6 -18 -20.906 114.28 2
-4 18 -6 300.058 328.198 1
-6 18 4 -37.2974 356.573 1
-6 -18 -4 260.344 336.296 2
-6 -4 18 231.178 167.223 2
-18 6 -4 -48.7423 365.209 1
-4 -18 6 133.83 254.246 2
6 18 -4 -70.2255 328.841 1
-6 4 -18 405.891 285.678 2
6 -4 -18 343.434 158.106 1
4 18 6 -231.746 301.436 1
4 -18 -6 -131.756 276.177 2
6 -18 4 237.615 360.732 2
6 4 18 -249.311 337.421 4
-4 6 18 -40.2094 290.632 4
18 -6 -4 353.933 105.533 4
4 -6 18 234.567 236.122 2
-18 -6 4 320.097 166.653 4
4 -6 18 50.9169 155.911 1
-4 6 18 116.143 197.602 1
-6 4 -18 187.159 243.248 3
-6 -4 18 311.707 182.107 3
6 18 -4 311.779 186.637 3
-18 6 6 1147.3 428.382 1
-6 -6 -18 -15.7082 327.812 3
6 6 18 -36.2424 186.355 1
6 -6 18 381.521 228.511 1
-6 18 6 208.617 334.264 1
-6 -18 -6 -77.1909 296.542 2
-6 -18 6 -565.067 360.724 2
-6 -6 18 30.0488 177.781 2
-6 6 18 0.754 91.2146 2
-6 18 -6 362.331 381.09 1
-6 6 18 412.208 230.104 1
6 18 6 207.468 347.719 1
-6 6 -18 -132.519 274.079 2
6 -6 -18 85.6825 162.049 1
6 18 -6 293.357 297.107 1
6 6 -18 212.548 112.133 1
6 -18 6 774.846 346.127 2
6 -18 -6 26.7866 268.451 2
-18 -6 -6 68.7114 232.199 4
18 -6 -6 148.855 89.5346 4
6 6 18 192.341 344.584 4
-6 6 18 -85.0383 292.341 4
6 -6 18 3.21575 227.263 2
-6 -6 18 145.187 152.611 3
-6 6 -18 206.276 269.119 3
6 18 -6 130.749 154.789 3
-7 -5 -18 -53.3574 324.182 3
5 18 -7 201.95 147.631 3
-7 5 18 35.5839 197.194 1
-5 18 7 -657.246 394.03 1
-7 -18 5 -717.877 387.307 2
-5 -18 -7 69.7916 293.562 2
5 7 18 74.2632 186.846 1
7 5 -18 297.412 128.996 1
-5 -7 18 169.714 173.187 2
5 -7 -18 536.341 209.306 1
-5 7 -18 331.564 288.172 2
7 18 5 -499.293 342.855 1
7 5 -18 -56.8191 120.042 1
-7 18 -5 670.835 422.169 1
-7 5 18 178.172 139.617 2
7 -5 18 151.492 241.215 1
5 18 -7 544.702 307.33 1
5 -18 7 617.252 372.108 2
7 -18 -5 43.4283 255.343 2
-18 -7 -5 -146.157 294.488 4
-7 5 18 166.428 288.649 4
5 7 18 -153.36 328.901 4
18 5 7 56.1395 260.72 4
7 -5 18 -226.273 247.379 2
-5 7 -18 -22.2451 221.82 3
-18 7 5 -462.688 377.493 1
-18 7 3 1154.76 443.497 1
7 3 -18 836.816 134.941 1
3 -7 -18 929.421 231.456 1
-7 -18 3 1520.31 459.875 2
-3 7 -18 1094.15 219.772 1
-3 7 -18 1340.78 337.629 2
-3 -18 -7 1023.52 376.909 2
7 18 3 612.214 362.541 1
-7 18 -3 1228.57 508.301 1
-3 -7 18 1491.35 293.484 2
3 7 18 1036.57 273.279 1
3 -18 7 1025.27 409.628 2
7 -18 -3 1136.24 385.407 2
-7 3 18 1210.71 192.022 2
3 18 -7 1101.41 417.803 1
-18 -7 -3 915.552 268.152 4
-7 3 18 858.584 329.893 4
3 7 18 930.716 386.252 4
18 3 7 828.579 297.099 4
-7 -3 -18 1360.65 273.373 2
7 3 -18 740.405 141.402 1
-3 7 -18 886.554 281.882 3
-3 18 7 1167.27 399.631 1
7 -3 18 1904.55 323.583 1
-7 -3 -18 436.662 296.766 3
7 1 -18 873.542 133.434 1
-1 7 -18 1186.17 292.716 2
-18 7 1 1515.32 442.685 1
-7 -18 1 1380.98 480.433 2
-7 18 -1 900.581 453.244 1
-1 -18 -7 1468.52 392.635 2
7 18 1 1134.7 436.832 1
-1 7 -18 1096.44 188.042 1
1 -18 7 1377.2 471.718 2
-1 -7 18 1356.09 309.989 2
7 -18 -1 1612.62 437.132 2
7 -1 18 1511.1 529.734 4
-7 1 18 691.17 342.981 4
1 7 18 1293.47 267.873 1
-7 -1 -18 1272.74 275.743 2
-18 -7 -1 1278.17 298.092 4
18 1 7 979.002 293.767 4
1 7 18 947.481 426.995 4
1 18 -7 1154.41 417.444 1
7 -1 18 1412.51 280.638 1
-1 18 7 1909.8 478.086 1
-7 1 18 946.986 191.182 2
-7 -1 -18 1012.66 403.356 3
-1 7 -18 1279.06 299.015 3
-1 7 18 1182.83 256.356 1
-7 -1 18 1008.57 286.648 3
1 7 -18 958.797 267.121 3
1 -7 18 610.641 139.729 1
-7 -18 -1 1352.95 432.033 2
7 1 18 1371.98 255.838 1
-7 18 1 1831.07 499.526 1
7 18 -1 1066.85 398.22 1
-1 -18 7 1332.43 437.453 2
1 -18 -7 1319.45 418.335 2
-18 7 -1 1167.89 430.803 1
1 7 -18 843.211 145.115 1
7 -18 1 1655.26 422.297 2
-7 1 -18 1611.06 339.451 2
1 -7 18 1583.54 358.222 2
-7 -1 18 1048.24 430.161 4
7 1 18 1708.56 508.665 4
1 18 7 1017.82 391.144 1
18 -1 7 1550.78 328.21 4
-1 7 18 2166.42 516.268 4
-18 -7 1 1656.74 293.688 4
7 -1 -18 1238.51 185.41 1
-1 18 -7 1285.83 417.398 1
-7 1 -18 1313.24 387.878 3
7 18 -1 851.244 289.099 3
-3 -7 -18 882.025 402.506 3
-3 18 -7 1609.53 458.112 1
-7 -3 18 1279.53 227.757 2
-7 -18 -3 1045.12 417.327 2
-3 -7 -18 824.947 150.241 2
-7 18 3 1149.54 424.632 1
-3 -18 7 1397.94 438.901 2
7 18 -3 1602.93 419.162 1
-3 7 18 1354.25 327.138 1
3 -18 -7 1284.3 381.51 2
3 7 -18 715.063 124.782 1
-7 3 -18 1273.43 342.694 2
3 -7 18 1412.56 239.485 1
3 18 7 1120.87 385.735 1
7 -18 3 1510.47 425.685 2
18 -3 7 1079.76 306.823 4
7 -3 -18 1631.19 238.204 1
7 3 18 1136.25 445.462 4
3 -7 18 1316.77 318.201 2
-3 7 18 1385.15 404.434 4
-18 -7 3 1446.6 265.431 4
-18 7 -3 1433.53 468.036 1
-7 3 -18 942.61 380.363 3
7 18 -3 1111.11 252.942 3
-7 -3 18 1123.95 248.706 3
-5 -7 -18 277.883 384.369 3
7 5 18 418.889 223.419 1
-5 7 18 78.7222 87.8624 2
-7 -5 18 16.5872 181.47 2
-7 -18 -5 117.925 278.788 2
-5 -18 7 -109.403 289.425 2
-5 18 -7 -211.422 346.982 1
-7 18 5 -402.5 375.63 1
7 18 -5 -107.466 325.676 1
5 18 7 253.005 326.096 1
-7 5 -18 135.18 247.33 2
5 -18 -7 5.35991 255.986 2
7 -18 5 108.582 288.035 2
7 -5 -18 -257.55 167.019 1
-18 7 -5 451.482 353.974 1
7 5 18 -138.806 364.948 4
18 -7 -5 225.475 133.935 4
-5 7 18 156.778 325.506 4
5 -7 18 -357.375 289.118 2
5 7 -18 185.59 110.676 1
-5 7 18 328.366 234.704 1
5 -7 18 -151.066 188.858 1
-7 5 -18 109.381 263.137 3
-7 -5 18 188.734 139.672 3
7 18 -5 143.684 155.458 3
-18 7 7 -56.8287 357.484 1
-7 -7 -18 -320.812 377.707 3
7 7 18 109.647 199.43 1
7 -7 18 561.041 266.819 1
-7 -18 -7 144.098 293.308 2
-7 -7 18 8.80135 199.119 2
-7 -18 7 -330.941 329.501 2
-7 18 7 126.252 376.23 1
-7 7 18 74.9311 136.812 2
7 18 7 413.176 345.905 1
7 7 -18 22.9596 134.58 1
-7 7 18 301.284 257.027 1
7 18 -7 -71.0027 329.507 1
-7 18 -7 -95.4649 342.541 1
-18 7 -7 213.71 360.79 1
7 -7 -18 -146.76 175.583 1
7 -18 7 447.458 383.506 2
7 -18 -7 -166.538 302.372 2
18 -7 -7 -29.4363 148.129 4
7 7 18 32.1038 333.878 4
-7 7 18 -231.159 383.525 4
7 -7 18 -233.145 299.316 2
-18 -7 -7 -449.962 350.756 3
-7 -7 18 238.569 139.786 3
-7 7 -18 -214.763 267.861 3
7 18 -7 53.3315 133.322 3
-8 -6 -18 267.081 313.21 3
8 6 -18 -57.9227 173.08 1
8 6 -18 190.366 157.164 1
-6 18 8 -122.089 325.454 1
-8 -18 6 -95.4957 288.405 2
-6 -18 -8 599.508 350.848 2
6 8 18 334.645 248.617 1
-6 -8 18 141.638 218.009 2
8 18 6 244.914 325.101 1
-18 8 6 -766.128 428.413 1
6 -8 -18 -302.553 223.471 1
-6 8 -18 511.293 266.65 1
8 -6 18 37.492 223.783 1
-8 6 18 196.07 187.031 2
6 18 -8 419.763 347.548 1
6 -18 8 -711.262 436.981 2
-8 18 -6 -711.247 426.084 1
8 -18 -6 306.82 272.494 2
-8 6 18 302.151 295.002 4
6 8 18 406.209 409.354 4
18 6 8 246.587 289.732 4
-18 -8 -6 -251.339 273.173 3
-6 8 -18 -160.343 224.601 3
8 -6 18 126.447 242.2 2
6 18 -8 110.865 124.474 3
-8 6 18 -7.92142 220.39 1
-4 18 8 254.042 341.776 1
8 4 -18 193.621 119.518 1
4 18 -8 232.83 153.968 3
-8 -18 4 166.193 290.918 2
4 -8 -18 774.951 268.294 1
-4 -18 -8 615.874 385.568 2
-8 4 18 649.097 248.251 1
-4 8 -18 805.158 329.641 2
8 18 4 -61.6801 324.891 1
-4 -8 18 782.012 271.868 2
4 8 18 259.048 188.722 1
-18 8 4 612.23 379.759 1
4 -18 8 561.395 382.172 2
-8 18 -4 684.785 387.245 1
-8 4 18 503.096 198.551 2
4 18 -8 331.231 361.485 1
8 -18 -4 585.812 318.156 2
-4 8 -18 555.362 242.268 1
-18 -8 -4 314.464 312.592 4
8 4 -18 308.1 135.98 1
-8 4 18 819.964 389.147 4
4 8 18 36.3753 316.277 4
18 4 8 299.698 261.784 4
-8 -4 -18 558.059 238.075 2
8 -4 18 453.718 219.432 1
-4 8 -18 452.483 258.072 3
-8 -4 -18 540.987 368.716 3
2 -8 -18 746.845 227.864 1
-8 -18 2 935.546 431.585 2
-2 8 -18 826.364 282.193 2
8 18 2 -60.6309 330.444 1
-2 -18 -8 192.09 263.287 2
-2 -8 18 1162.97 298.567 2
2 -18 8 509.984 345.161 2
-18 8 2 720.147 368.95 1
-8 18 -2 161.44 347.578 1
8 -2 18 763.864 275.728 1
2 8 18 741.182 258.852 1
8 -18 -2 1002.64 386.41 2
-8 2 18 689.491 363.369 4
8 2 -18 572.42 153.927 1
-18 -8 -2 578.393 267.104 4
18 2 8 719.602 291.608 4
2 18 -8 1438.8 453.907 1
2 8 18 -140.038 318.377 4
-8 2 18 739.323 198.093 2
-8 -2 -18 712.436 266.887 2
2 -8 -18 543.338 108.443 2
-2 18 8 802.487 353.703 1
-2 8 -18 563.896 262.312 3
-2 8 -18 634.121 188.192 1
-8 -2 -18 1390.15 466.272 3
0 -8 18 951.149 171.876 1
8 0 -18 781.181 162.017 1
-8 -18 0 532.749 383.946 2
8 18 0 1472.39 465.859 1
0 8 -18 865.665 177.644 1
0 -18 -8 1283.77 388.249 2
0 -18 8 889.202 366.94 2
-8 18 0 329.5 334.266 1
8 0 18 1109.05 291.353 1
0 -8 18 550.047 235.271 2
8 -18 0 954.76 382.61 2
-18 8 0 1320.28 469.514 1
8 0 18 1276.3 442.918 4
0 -8 -18 1042.71 163.059 2
-8 0 18 983.001 380.829 4
-8 0 -18 682.786 260.445 2
18 0 8 816.83 270.711 4
-18 -8 0 1303.71 278.105 4
0 18 8 924.89 319.183 1
0 8 18 1108.9 458.698 4
0 8 18 977.107 269.699 1
0 18 -8 516.924 346.054 1
-8 0 -18 489.534 312.308 3
0 8 -18 1191.69 277.503 3
-8 -2 18 357.873 178.482 3
-2 18 -8 277.769 327.967 1
2 8 -18 478.395 194.404 3
-2 -8 -18 385.696 333.012 3
-2 8 18 753.383 269.802 1
-8 -18 -2 550.216 345.31 2
8 18 -2 399.99 360.711 1
2 -8 18 994.206 207.306 1
-2 -18 8 711.058 411.108 2
-2 -8 -18 753.185 166.496 2
-8 18 2 656.507 399.562 1
2 -18 -8 1092.17 382.826 2
-8 2 -18 279.171 230.921 2
2 8 -18 621.029 144.273 1
8 -18 2 962.384 403.326 2
2 18 8 546.906 360.766 1
2 -8 18 1183.7 322.559 2
18 -2 8 581.627 284.017 4
8 2 18 597.515 433.08 4
-2 8 18 -113.781 334.097 4
-18 -8 2 995.566 275.644 4
-18 8 -2 425.054 382.258 1
8 -2 -18 899.198 198.928 1
-8 2 -18 464.237 303.359 3
8 18 -2 281.57 197.78 3
-4 -8 -18 434.474 353.558 3
-18 8 -4 406.048 381.86 1
-8 -4 18 436.957 212.544 2
-8 -18 -4 638.011 391.084 2
-4 -8 -18 432.659 175.291 2
-4 18 -8 -136.872 311.792 1
-4 -18 8 489.157 294.396 2
8 18 -4 533.487 300.457 1
-8 18 4 90.198 353.494 1
-4 8 18 634.293 271.227 1
4 18 8 -55.0593 376.116 1
4 -18 -8 417.249 267.807 2
-8 4 -18 241.789 263.239 2
8 -18 4 390.918 334.724 2
4 -8 18 335.182 204.713 1
8 4 18 785.837 413.488 4
4 -8 18 589.19 327.251 2
-4 8 18 881.716 438.954 4
8 -4 -18 294.747 170.412 1
-8 4 -18 65.1246 263.051 3
8 18 -4 407.403 188.965 3
4 8 -18 261.59 125.431 1
-8 -4 18 471.933 170.455 3
-6 -8 -18 -93.3539 304.596 3
8 6 18 -34.8091 216.851 1
-8 -6 18 473.095 241.282 2
-8 -18 -6 -239.107 301.469 2
-18 6 8 -67.5623 318.777 1
-6 8 18 -193.97 163.456 2
-6 -18 8 259.546 345.159 2
8 18 -6 78.5968 361.749 1
-8 18 6 396.188 390.524 1
6 18 8 -561.202 446.05 1
-6 18 -8 16.9395 326.759 1
6 -18 -8 252.651 288.54 2
6 8 -18 45.4003 140.527 1
-18 8 -6 306.814 381.374 1
8 -18 6 -301.778 348.615 2
8 -6 -18 -448.654 201.971 1
8 6 18 268.901 376.72 4
18 -8 -6 295.591 164.764 4
-6 8 18 498.266 358.225 4
6 -8 18 322.765 287.866 2
-8 6 -18 -363.873 289.054 3
8 18 -6 36.2778 151.199 3
-8 -6 18 -11.9305 140.603 3
6 -8 18 214.944 243.404 1
-6 8 18 -545.924 328.932 1
5 18 -9 89.7364 117.507 3
9 5 -18 -19.8707 146.7 1
-5 18 9 -300.906 387.342 1
-9 -18 5 47.0856 302.46 2
-5 -18 -9 -340.71 341.225 2
9 18 5 -478.171 441.546 1
-5 -9 18 -25.0262 210.032 2
5 9 18 2.68046 223.318 1
5 -9 -18 55.599 187.867 1
-5 9 -18 227.729 237.498 1
5 -18 9 303.517 358.594 2
5 18 -9 265.331 375.656 1
-9 5 18 89.1915 194.724 2
9 5 -18 -354.786 210.99 1
9 -18 -5 45.0386 283.397 2
-9 18 -5 156.59 398.637 1
-9 5 18 -32.708 292.027 4
5 9 18 -448.785 432.433 4
18 5 9 236.26 304.847 4
9 -5 18 351.841 252.764 1
-9 5 18 70.3381 206.757 1
-18 -9 -5 122.863 271.557 3
-5 9 -18 -270.339 266.214 3
-18 9 5 -79.0138 351.592 1
-9 -5 -18 -192.659 335.27 3
-18 9 3 835.259 478.174 1
3 -9 -18 411.056 232.019 1
-9 -18 3 589.808 377.938 2
9 18 3 247.059 351.328 1
-3 -18 -9 -328.453 269.483 2
9 -3 18 -52.6545 237.28 1
9 3 -18 240.004 152.38 1
-3 -9 18 126.243 199.794 2
3 -18 9 95.7468 309.883 2
3 9 18 -126.039 203.395 1
-9 18 -3 -11.4975 338.493 1
-18 -3 9 340.073 120.222 4
9 -18 -3 143.475 300.565 2
3 18 -9 166.728 342.941 1
-9 3 18 -59.4554 287.502 4
-18 -9 -3 233.807 306.624 4
-9 3 18 -230.395 198.035 2
18 3 9 -76.0477 279.006 4
3 9 18 242.88 362.568 4
-3 9 -18 26.0743 181.812 1
3 -9 -18 267.432 128.392 2
-9 -3 -18 -19.791 207.549 2
-18 -9 -3 50.0023 270.032 3
-3 9 -18 63.4193 198.645 3
-3 18 9 -444.794 345.503 1
-9 -3 -18 77.8907 335.884 3
9 -1 18 268.917 228.064 1
1 -9 -18 108.546 216.004 1
-18 9 1 -559.483 370.241 1
-1 9 -18 257.857 247.931 2
-9 -18 1 -515.642 354.51 2
9 18 1 445.419 341.509 1
-1 9 -18 181.144 172.25 1
-1 -18 -9 489.999 293.359 2
1 -18 9 449.185 356.011 2
-1 -9 18 537.914 273.653 2
-9 18 -1 -202.063 337.691 1
9 1 -18 415.899 179.208 1
9 -1 18 -175.196 399.911 4
9 -18 -1 480.471 345.705 2
-9 1 18 77.7159 284.623 4
1 -9 -18 237.492 145.019 2
1 9 18 23.2755 240.576 1
18 1 9 190.932 267.887 4
-18 -9 -1 -145.531 231.827 4
-9 -1 -18 118.907 217.168 2
1 9 18 -260.216 373.199 4
-1 18 9 775.719 382.165 1
1 18 -9 167.244 295.08 1
-9 1 18 804.003 232.372 2
-9 -1 -18 630.573 351.024 3
-1 9 -18 -144.741 225.069 3
1 9 -18 735.268 243.986 3
-9 -1 18 193.78 181.961 3
-9 -18 -1 411.112 362.43 2
-18 9 -1 658.26 422.161 1
1 -9 18 392.053 178.523 1
9 -1 -18 399.109 173.489 1
9 18 -1 -35.375 323.84 1
-1 -18 9 360.141 311.165 2
1 -18 -9 417.563 272.52 2
9 1 18 102.64 208.728 1
-1 -9 -18 272.791 139.557 2
-9 18 1 -175.385 403.058 1
1 -9 18 324.233 234.149 2
-9 -1 18 -386.718 355.176 4
9 -18 1 409.206 298.187 2
9 1 18 356.499 306.724 4
1 9 -18 236.673 146.954 1
18 -1 9 252.489 243.857 4
-9 1 -18 612.608 278.333 2
1 18 9 412.312 395.546 1
-1 9 18 487.959 335.046 4
-18 -9 1 408.094 280.028 4
9 18 -1 426.089 201.678 3
-9 1 -18 693.129 364.443 3
-1 9 18 515.09 254.656 1
-1 18 -9 594.697 373.891 1
-9 -3 18 169.62 231.092 3
3 9 -18 176.147 157.966 3
-3 -9 -18 721.836 445.51 3
3 9 -18 66.6591 130.312 1
-3 18 -9 -157.837 326.381 1
-9 -18 -3 469.589 353.921 2
-3 9 18 188.004 266.738 1
-3 -9 -18 323.277 161.018 2
9 18 -3 490.105 381.948 1
-3 -18 9 540.898 346.043 2
-18 9 -3 26.3387 427.412 1
3 -9 18 -171.411 209.943 1
3 -18 -9 463.826 281.387 2
-9 18 3 10.5434 365.468 1
3 18 9 -507.153 405.956 1
-9 3 -18 385.001 324.143 2
18 -3 9 393.245 224.836 4
9 -18 3 66.9979 259.963 2
3 -9 18 490.361 309.172 2
9 3 18 284.744 368.709 4
-3 9 18 218.491 361.383 4
9 18 -3 -56.273 174.183 3
-9 3 -18 -475.891 386.975 3
9 -3 -18 144.465 171.645 1
-5 -9 -18 37.6883 342.603 3
-5 9 18 106.011 127.789 2
-9 -18 -5 206.904 310.048 2
-5 -9 -18 -45.8255 185.454 2
-5 -18 9 462.008 353.329 2
9 18 -5 11.7817 305.938 1
-5 18 -9 583.134 418.452 1
5 18 9 84.5994 320.709 1
-9 18 5 -133.839 385.14 1
5 -18 -9 -91.5183 268.758 2
-5 9 18 207.265 279.639 1
9 -18 5 -242.294 303.796 2
-18 9 -5 318.526 362.004 1
9 5 18 309.321 408.434 4
5 -9 18 -285.955 298.278 2
5 9 -18 284.339 173.404 1
5 -9 18 -380.915 279.692 1
-5 9 18 637.417 374.222 4
18 -9 -5 77.2093 211.078 4
9 -5 -18 -56.5902 175.717 1
9 18 -5 -323.846 200.195 3
-9 5 -18 128.228 272.725 3
-9 -5 18 378.098 179.077 3
10 2 -18 37.3719 176.45 1
2 -10 -18 -60.7672 220.414 1
-10 -18 2 -131.1 284.776 2
10 18 2 453.242 416.273 1
-2 10 -18 251.701 238.198 1
-2 -18 -10 335.681 305.916 2
-2 -10 18 -321.752 293.783 2
2 -18 10 323.428 356.551 2
2 10 18 -718.065 323.988 1
10 -2 18 -215.147 424.339 4
10 -18 -2 121.795 285.848 2
-18 -2 10 130.153 113.308 4
-10 2 18 6.75646 316.92 4
2 -10 -18 274.782 174.553 2
-10 18 -2 148.014 354.388 1
18 2 10 436.337 300.528 4
-18 10 2 1073.17 443.925 1
10 -2 18 -155.249 257.307 1
-18 -10 -2 -44.5955 288.747 4
2 10 18 -454.84 383.981 4
2 18 -10 -254.948 406.981 1
-10 -2 -18 245.716 235.979 2
-10 2 18 75.9934 204.889 2
-18 -10 -2 375.971 305.735 3
-2 18 10 -114.825 320.1 1
-2 10 -18 829.743 270.596 3
-10 -2 -18 18.3667 311.654 3
0 -10 -18 357.156 234.012 1
0 -10 18 473.369 176.471 1
-10 -18 0 312.629 379.996 2
10 18 0 593.633 388.661 1
0 -18 -10 47.7114 249.864 2
0 -18 10 876.152 410.511 2
0 -10 18 315.808 250.724 2
0 -10 -18 444.763 168.159 2
10 0 -18 471.295 205.197 1
10 0 18 634.76 248.612 1
10 0 18 884.605 432.693 4
-10 0 18 800.327 398.402 4
-10 18 0 -176.674 384.092 1
10 -18 0 1065.68 411.206 2
18 0 10 -67.9968 247.854 4
-10 0 -18 932.255 359.34 2
0 10 -18 622.491 185.345 1
0 18 10 443.382 390.503 1
-18 -10 0 493.193 300.842 4
0 10 18 347.967 377.265 4
-18 0 10 424.627 106.979 4
-18 10 0 1245.06 449.099 1
0 10 18 369.4 229.56 1
-18 -10 0 622.383 307.264 3
-10 0 -18 174.192 313.715 3
0 18 -10 385.576 330.315 1
0 10 -18 367.107 201.597 3
2 10 -18 -21.2387 172.596 3
-10 -2 18 46.5758 186.15 3
-2 10 18 -167.444 255.826 1
10 2 18 -95.6787 239.329 1
-2 18 -10 340.834 330.693 1
-10 -18 -2 77.5749 296.968 2
10 -2 -18 177.032 182.975 1
10 18 -2 447.947 378.941 1
2 10 -18 -255.016 195.545 1
2 -10 18 -235.035 237.791 1
-2 -18 10 -169.511 307.564 2
-2 -10 -18 78.6292 150.607 2
2 -18 -10 154.294 279.307 2
2 -10 18 595.017 310.689 2
2 18 10 -178.074 355.424 1
-10 18 2 538.993 463.035 1
18 -2 10 125.938 269.752 4
-10 2 -18 460.133 300.736 2
10 -18 2 614.295 371.664 2
10 2 18 -442.616 415.959 4
-2 10 18 86.5066 326.256 4
-18 -10 2 430.202 250.975 4
10 18 -2 -14.2266 200.516 3
-18 10 -2 587.642 387.952 1
-10 2 -18 201.48 287.135 3
-1 0 -19 -27.6485 245.506 3
0 1 -19 51.6113 221.237 3
0 -1 -19 57.8619 263.683 3
1 0 -19 288.544 249.942 3
-1 -19 0 39.5893 332.368 2
0 -19 -1 271.122 286.767 2
0 -19 1 33.9623 267.489 2
1 -19 0 541.738 317.992 2
0 -1 19 632.232 414.281 4
1 0 19 449.586 397.007 4
-1 0 19 367.471 380.422 4
0 1 19 -388.862 367.471 4
1 19 0 233.207 316.877 1
0 19 1 497.644 386.914 1
0 19 -1 -129.908 298.828 1
-1 19 0 221.71 294.632 1
1 2 19 978.396 135.345 1
-1 2 -19 1059.82 319.992 3
-2 -1 -19 1215.39 398.995 3
-2 -19 1 1500.44 449.61 2
-1 -19 -2 1318.8 406.95 2
1 -19 2 1840.62 462.545 2
2 -19 -1 1012.37 363.354 2
2 -1 19 1754.15 545.973 4
2 19 1 1297.78 425.104 1
-2 1 19 1716.25 474.429 4
1 2 19 793.897 406.778 4
1 19 -2 829.196 357.396 1
19 -2 1 1212.22 168.707 4
-1 -2 19 1187.16 157.928 2
-1 19 2 699.913 356.27 1
1 2 19 758.138 111.906 1
-2 19 -1 914.032 393.229 1
-2 1 -19 1111.69 355.151 3
-1 -2 -19 1769.84 420.266 3
1 2 -19 1686.11 362.681 3
-2 1 -19 1050.5 147.519 2
-2 -19 -1 1157.85 399.905 2
-1 -19 2 1370.43 432.602 2
1 -19 -2 1473.86 427.236 2
2 -19 1 1776.16 489.691 2
2 1 19 803.19 114.348 1
-2 -1 19 1207.34 461.978 4
2 1 19 645.801 376.467 4
2 19 -1 1403.45 449.244 1
-1 2 19 1961.4 530.541 4
1 19 2 1605.27 493.704 1
19 -1 2 1396.09 198.071 4
-1 19 -2 1150.96 414.584 1
-2 19 1 1497.3 444.799 1
-2 3 -19 436.25 275.617 3
-3 19 -2 279.508 353.197 1
3 -2 19 275.838 83.3355 1
3 -2 19 171.634 61.2067 1
-3 -2 -19 315.406 300.313 3
-2 3 -19 185.43 142.287 2
-3 -19 2 -276.36 309.33 2
-2 -19 -3 -20.2969 319.913 2
2 -19 3 267.224 265.307 2
3 -19 -2 441.902 326.305 2
2 3 19 407.583 148.966 1
3 19 2 -50.9701 297.169 1
-2 -3 19 212.337 127.72 2
19 -3 2 168.706 127.695 4
-3 2 19 311.979 311.793 4
2 19 -3 -277.707 297.297 1
2 3 19 383.017 369.643 4
-2 -3 19 247.234 200.24 3
-2 19 3 285.76 342.352 1
-3 0 -19 737.032 348.739 3
0 3 -19 1749.04 383.36 3
0 -3 -19 1448.71 420.043 3
3 0 19 839.691 144.705 1
3 0 19 698.429 116.974 1
0 3 19 1140.81 167.75 1
-3 0 -19 716.633 139.48 2
-3 -19 0 1375.29 438.089 2
0 -19 -3 1506.33 388.82 2
0 -19 3 1229.85 418.633 2
3 -19 0 1259.99 389.861 2
3 19 0 1677.71 473.227 1
3 0 19 1034.54 465.853 4
-3 0 19 1184.45 450.149 4
0 3 19 1118.41 397.177 4
19 -3 0 992.566 131.408 4
19 0 3 1590.47 266.979 4
0 19 3 1607.26 489.867 1
0 -3 19 1597.21 234.319 2
0 19 -3 729.195 402.116 1
-3 19 0 1860.8 541.818 1
-3 2 -19 236.314 255.076 3
-2 -3 -19 50.8044 267.229 3
3 19 -2 446.894 250.265 3
2 3 -19 343.869 221.627 3
-3 2 -19 149.943 119.447 2
-3 -19 -2 554.183 319.505 2
-2 -19 3 751.434 354.256 2
3 2 19 404.219 137.794 1
2 -19 -3 272.945 292.5 2
3 -19 2 424.195 286.387 2
-3 -2 19 186.52 108.035 2
-2 3 19 79.6916 61.1928 1
3 19 -2 1042.6 441.108 1
2 19 3 -421.725 431.75 1
3 2 19 -484.446 397.605 4
-2 3 19 -574.357 382.356 4
19 -2 3 443.319 177.363 4
2 -3 19 376.61 173.519 2
-2 19 -3 210.5 316.349 1
-3 19 2 211.673 347.828 1
-4 -3 -19 74.3211 261.463 3
3 19 -4 459.63 268.643 3
-4 19 -3 22.7992 337.34 1
-4 3 19 88.5785 85.9569 1
4 -3 19 8.66836 121.587 1
-3 4 -19 348.9 195.814 2
-4 -19 3 -139.862 279.782 2
-3 -19 -4 217.909 321.313 2
3 4 19 10.7064 139.91 1
-3 -4 19 318.825 148.761 2
3 -19 4 1050.74 454.556 2
4 -19 -3 35.829 267.299 2
4 19 3 274.522 346.45 1
-4 -3 -19 97.985 107.722 2
3 19 -4 15.0849 315.985 1
-4 3 19 105.639 342.264 4
3 4 19 683.936 415.954 4
-3 -4 19 102.867 175.285 3
-3 19 4 -13.5246 320.394 1
-3 4 -19 -13.5939 210.41 3
-4 -1 -19 2574.34 495.026 3
-1 4 -19 3152.36 487.012 3
-4 19 -1 3418.04 655.612 1
-4 -19 1 2453.37 531.255 2
-1 -19 -4 2877.29 522.194 2
1 -19 4 2091.82 522.292 2
-4 -1 -19 2436.62 259.788 2
4 -19 -1 3493.24 582.07 2
4 19 1 3121.74 590.101 1
-1 -4 19 2461.23 316.746 2
19 -4 1 2576.4 256.074 4
4 -1 19 3073.54 663.443 4
-4 1 19 2480.63 547.325 4
1 4 19 3494.27 636.822 4
1 19 -4 3236.31 623.013 1
19 1 4 2948.97 356.71 4
1 4 19 2400.12 280.974 1
-1 19 4 2808.66 617.943 1
4 -1 19 2453.95 263.443 1
-4 1 -19 2743.21 511.802 3
1 4 -19 2799.94 452.254 3
-4 19 1 3283.8 621.718 1
-1 -4 -19 1970.68 446.45 3
4 1 19 2125.16 236.503 1
-4 -19 -1 3292.24 606.873 2
-4 1 -19 3111.15 331.019 2
-1 -19 4 4004.65 585.7 2
1 -19 -4 3063.84 552.247 2
-1 4 19 2453.67 273.007 1
4 1 19 2451.11 275.851 1
1 -4 19 3618.53 401.894 2
4 -19 1 2141.21 509.81 2
4 19 -1 3122.81 621.959 1
-4 -1 19 2844.71 597.296 4
4 1 19 3431.48 662.232 4
1 19 4 2839.52 544.047 1
-1 4 19 3152.62 625.156 4
19 -1 4 2544.93 338.164 4
-1 19 -4 3060.34 641.626 1
-3 19 -4 -282.517 371.083 1
-4 19 3 -650.168 426.001 1
4 19 -3 10.9589 191.477 3
-3 -4 -19 137.541 357.023 3
4 3 19 289.539 152.683 1
-4 -19 -3 4.16374 297.071 2
-3 -19 4 847.992 380.656 2
-4 3 -19 -314.91 225.041 2
-3 4 19 142.921 117.021 1
-4 -3 19 280.033 130.503 2
3 -19 -4 -194.26 317.798 2
4 -19 3 178.156 262.828 2
4 19 -3 180.304 365.905 1
3 19 4 10.9443 360.343 1
-19 -4 3 144.57 86.4387 4
19 -3 4 -67.1381 187.498 4
3 -4 19 -24.883 84.4582 1
4 3 19 356.525 361.372 4
-3 4 19 -142.146 335.624 4
3 -4 19 199.33 177.509 2
-4 -3 19 327.221 191.515 3
-4 3 -19 71.6182 252.506 3
-5 -4 -19 371.514 287.814 3
-4 19 5 547.03 364.236 1
4 19 -5 191.792 187.003 3
4 -5 -19 208.636 151.931 1
-5 4 19 30.826 125.91 1
5 -4 19 -54.7215 155.192 1
-5 19 -4 355.786 353.636 1
-5 -19 4 208.534 347.047 2
-4 -19 -5 -101.732 279.634 2
-4 5 -19 193.409 235.035 2
4 5 19 251.906 173.28 1
-4 -5 19 314.776 183.33 2
5 19 4 -285.952 348.599 1
4 -19 5 638.041 359.166 2
5 -19 -4 212.024 263.59 2
4 19 -5 -128.838 333.77 1
-5 4 19 -83.9089 303.299 4
4 5 19 366.064 366.943 4
-5 -4 -19 -20.4873 130.254 2
-4 -5 19 459.41 209.906 3
-4 5 -19 -118.922 260.813 3
-5 -2 -19 3062.68 574.723 3
-5 19 -2 3857.59 709.557 1
-2 5 -19 3760.69 414.048 2
-5 -19 2 3292.81 573.932 2
-2 -19 -5 3506.68 596.312 2
2 -19 5 3696.75 647.674 2
5 19 2 3444.95 657.493 1
-2 -5 19 3372.32 386.203 2
5 -19 -2 4170.33 633.042 2
2 5 19 2820.41 328.405 1
-5 -2 -19 2692.66 321.603 2
-19 -5 -2 3411.27 398.197 4
-5 2 19 2944.06 584.975 4
2 19 -5 4563.99 719.198 1
2 5 19 3207.05 641.672 4
19 2 5 3340.09 414.953 4
5 -2 19 3566.35 353.143 1
-2 19 5 4251.33 734.557 1
-2 5 -19 3612.44 513.617 3
0 5 -19 431.595 218.537 3
-5 19 0 671.302 392.393 1
-5 -19 0 731.95 395.189 2
0 -19 -5 519.887 319.924 2
0 -19 5 698.996 377.439 2
-5 0 -19 613.922 208.355 2
5 19 0 535.27 348.304 1
5 -19 0 265.119 284.509 2
-19 -5 0 726.034 203.866 4
5 0 19 938.295 444.131 4
-5 0 19 1296.5 472.752 4
0 -5 19 717.383 230.806 2
0 5 19 1096.44 426.95 4
19 0 5 80.3665 223.965 4
0 19 5 1301.44 485.39 1
5 0 19 326.693 156.121 1
0 19 -5 902.914 427.164 1
0 5 19 728.924 208.261 1
-5 0 -19 -225.266 298.145 3
5 19 -2 3873.21 472.337 3
5 2 19 2826.52 313.794 1
-2 -5 -19 2403.17 515.496 3
2 5 -19 3373.43 445.073 3
-5 19 2 3375.11 671.576 1
-5 -2 19 3177.75 285.67 2
-5 -19 -2 3292.58 619.459 2
-2 -19 5 3443.69 617.104 2
-5 2 -19 4333.39 455.96 2
2 -19 -5 3377.56 580.139 2
5 19 -2 2833.08 582.692 1
5 -19 2 3103.13 594.7 2
-19 -5 2 3444.03 307.63 4
2 19 5 3436.03 637.421 1
19 -2 5 3399.43 396.809 4
5 2 19 3187.43 640.302 4
-2 5 19 4029.22 650.568 4
-2 5 19 4037.58 388.502 1
2 -5 19 4162.52 467.705 2
5 -2 -19 2341.53 197.835 1
-5 -2 19 3848.83 469.166 3
-5 2 -19 3506.91 563.19 3
-2 19 -5 4331.15 723.85 1
5 19 -4 405.546 178.36 3
-4 -5 -19 24.481 291.669 3
-5 19 4 -117.12 395.348 1
-4 19 -5 561.829 442.333 1
-4 -5 -19 20.8951 83.2149 2
5 4 19 -190.538 190.366 1
5 -4 -19 15.9379 121.188 1
-4 5 19 100.05 172.621 1
-5 -19 -4 -376.051 343.897 2
-4 -19 5 67.7256 292.991 2
-5 -4 19 33.508 142.854 2
-5 4 -19 168.828 240.067 2
4 -19 -5 -227.736 314.003 2
5 19 -4 -92.965 331.945 1
5 -19 4 115.626 275.951 2
4 19 5 67.72 319.103 1
5 4 19 54.8753 336.786 4
-4 5 19 343.329 347.828 4
-19 -5 4 109.823 99.6792 4
-4 -5 -19 35.8708 97.5831 2
4 -5 19 454.785 268.849 2
4 -5 19 99.8989 137.457 1
-5 -4 19 137.713 168.208 3
-5 4 -19 -9.43665 243.079 3
5 19 -6 933.705 240.479 3
-6 -5 -19 688.037 343.589 3
-5 19 6 1306.36 491.556 1
6 -5 19 1100.26 271.501 1
-6 -19 5 910.361 352.632 2
-5 -19 -6 790.684 381.186 2
5 6 19 781.079 260.181 1
5 -6 -19 852.141 203.332 1
-5 -6 19 469.799 196.834 2
-6 19 -5 468.782 383.613 1
-5 6 -19 797.685 253.656 2
6 19 5 626.432 337.194 1
-19 6 5 1244.35 421.447 1
5 -19 6 1215.13 424.543 2
5 19 -6 200.623 301.01 1
6 -19 -5 1578.81 415.692 2
-19 -6 -5 821.607 303.617 4
-6 5 19 702.781 375.516 4
5 6 19 557.099 407.377 4
-19 -5 6 524.349 143.347 4
-6 -5 -19 615.682 193.366 2
6 -5 19 1002.83 306.753 2
-6 5 19 1149.8 253.16 1
-5 6 -19 800.793 319.755 3
-6 -3 -19 -2.88562 285.835 3
3 -6 -19 562.135 209.905 1
3 19 -6 849.486 256.582 3
-3 6 -19 596.061 247.253 2
-6 -19 3 555.654 338.822 2
-6 19 -3 285.543 361.791 1
-3 -19 -6 365.519 300.677 2
-3 -6 19 775.467 243.635 2
6 19 3 618.651 407.842 1
3 6 19 66.8956 164.342 1
3 -19 6 999.013 391.521 2
6 -19 -3 637.642 340.454 2
-19 -6 -3 775.5 307.411 4
3 19 -6 566.007 341.774 1
6 -3 19 507.598 206.348 1
-6 3 19 1020.33 416.165 4
-6 -3 -19 752.922 208.31 2
3 6 19 171.455 363.658 4
-19 6 3 623.167 359.118 1
19 3 6 546.189 261.223 4
-3 19 6 172.72 347.862 1
-3 6 -19 478.033 258.35 3
-1 6 -19 1518.86 338.633 3
-1 6 -19 1450.18 296.818 2
-6 19 -1 1564.77 491.793 1
-6 -19 1 1763.96 487.77 2
-1 -19 -6 1460.56 432.228 2
-19 6 1 1639.09 508.79 1
1 -19 6 1357.78 428.853 2
6 19 1 1388.36 493.415 1
6 -1 19 1063.57 249.725 1
-1 -6 19 2021.73 329.132 2
6 -19 -1 1074.92 422.663 2
-6 -1 -19 1800.35 326.29 2
6 -1 19 2001.88 545.948 4
-6 1 19 1333.82 434.562 4
-19 -6 -1 1466.29 301.156 4
-6 1 19 1098.51 151.289 2
1 6 19 1238.85 422.108 4
19 1 6 1879.03 341.968 4
1 6 19 1328.87 261.621 1
1 19 -6 904.462 428.158 1
-1 19 6 951.112 441.729 1
-6 -1 -19 1338.36 418.273 3
1 6 -19 1425.69 325.802 3
-1 -6 -19 901.419 346.565 3
-1 6 19 1529.51 299.669 1
-6 19 1 774.441 421.812 1
-6 -1 19 1094.7 173.262 2
-6 -19 -1 1755.87 432.171 2
6 -1 -19 712.268 113.47 1
-1 -19 6 1456.94 482.544 2
1 -19 -6 1115.55 389.554 2
6 19 -1 1750.67 502.206 1
-6 1 -19 1341.52 314.164 2
-19 6 -1 1077.47 427.932 1
6 -19 1 1446.38 440.496 2
-6 -1 19 1361.19 447.199 4
6 1 19 941.67 492.412 4
1 -6 19 2097.54 367.843 2
19 -1 6 1078.67 267.341 4
1 19 6 1100.22 446.591 1
-19 -6 1 1358.75 268.088 4
-1 6 19 1005.94 440.715 4
6 1 19 1333.57 235.931 1
-1 19 -6 2191.31 530.649 1
-6 1 -19 1040.73 372.099 3
6 3 19 391.595 185.448 1
-3 -6 -19 539.134 360.205 3
-3 19 -6 681.917 416.259 1
-6 19 3 -186.214 361.972 1
-6 -19 -3 -484.597 404.012 2
-6 -3 19 462.433 170.321 2
-3 -6 -19 333.777 88.1163 2
-3 -19 6 453.127 310.324 2
6 -3 -19 403.245 136.051 1
-6 3 -19 540.19 256.831 2
6 19 -3 229.429 355.879 1
3 -19 -6 936.004 342.861 2
3 -6 19 592.99 155.426 1
6 -19 3 341.244 296.85 2
3 19 6 31.6927 320.573 1
-3 6 19 255.215 199.947 1
19 -3 6 288.644 208.079 4
6 3 19 988.272 443.829 4
-3 6 19 938.002 449.122 4
-19 -6 3 420.331 154.227 4
3 -6 19 963.72 306.999 2
19 -6 -3 436.263 105.063 4
-3 -6 -19 368.236 97.7841 2
-6 3 -19 849.986 338.408 3
-6 -3 19 691.093 243.218 3
6 19 -3 418.805 215.132 3
-5 -6 -19 1187.64 459.01 3
6 5 19 383.029 233.212 1
-6 19 5 1277.94 424.883 1
-5 6 19 1489.9 316.873 1
-6 -19 -5 605.754 347.916 2
-5 19 -6 510.881 369.027 1
-6 -5 19 821.865 210.716 2
-5 -19 6 724.761 373.112 2
6 -5 -19 469.775 192.375 1
-6 5 -19 1594.86 371.812 2
6 19 -5 1028.02 370.76 1
5 19 6 1358.85 493.485 1
5 -19 -6 505.87 319.098 2
6 -19 5 1212.36 440.018 2
6 5 19 148.399 351.209 4
-5 6 19 -167.054 337.204 4
-19 -6 5 641.504 171.542 4
5 -6 19 992.633 330.897 2
-6 -5 19 1162.58 257.469 3
5 -6 19 886.594 243.637 1
-6 5 -19 1078.87 353.763 3
6 19 -5 1331.87 295.023 3
-7 -4 -19 542.433 405.03 3
-4 19 7 192.398 334.546 1
4 19 -7 213.272 158.564 3
-7 4 19 356.247 199.596 1
4 -7 -19 422.314 196.718 1
-7 -19 4 81.041 331.35 2
-4 -19 -7 -198.525 326.619 2
-4 7 -19 249.886 256.891 2
7 4 -19 151.794 81.051 1
-4 -7 19 242.736 181.363 2
4 7 19 262.875 184.669 1
7 19 4 202.071 352.922 1
-7 19 -4 682.949 389.815 1
-7 4 19 111.8 97.9809 2
4 -19 7 270.617 355.711 2
7 -19 -4 -279.954 307.948 2
4 19 -7 282.602 304.554 1
7 -4 19 53.1152 194.976 1
-19 7 4 -84.051 320.961 1
-19 -7 -4 476.287 261.851 4
-7 4 19 175.076 327.945 4
4 7 19 84.9878 339.3 4
19 4 7 52.8376 262.175 4
-7 -4 -19 255.569 217.167 2
7 4 -19 43.7552 74.6646 1
-4 7 -19 356.241 240.01 3
2 -7 -19 312.052 199.801 1
-2 7 -19 996.304 304.601 2
-7 -19 2 191.053 307.243 2
7 -2 19 130.326 186.988 1
-2 -19 -7 502.966 307.415 2
-7 19 -2 380.268 384.817 1
7 19 2 -48.9312 348.302 1
2 -19 7 -144.882 332.44 2
-2 -7 19 231.021 221.474 2
7 -19 -2 240.778 324.69 2
2 7 19 227.549 201.542 1
-7 2 19 -134.264 100.411 2
-19 -7 -2 51.0762 217.469 4
-7 2 19 -16.2658 317.321 4
-7 -2 -19 297.476 217.274 2
-19 7 2 302.873 364.243 1
2 19 -7 23.7516 326.562 1
2 7 19 130.557 343.2 4
19 2 7 583.803 287.596 4
-2 19 7 886.3 413.74 1
-2 7 -19 438.643 241.885 3
-7 -2 -19 -68.4833 286.781 3
0 7 -19 182.891 212.535 3
0 7 -19 221.641 103.346 1
7 0 19 637.748 245.456 1
-7 0 19 273.079 121.305 2
-7 -19 0 760.453 411.283 2
-7 19 0 -43.5753 353.778 1
7 19 0 720.727 425.812 1
0 -19 -7 841.83 363.611 2
0 -19 7 493.734 306.493 2
0 -7 19 320.149 213.405 2
7 -19 0 407.845 334.661 2
-7 0 -19 658.949 292.665 2
7 0 19 -16.2166 392.656 4
-7 0 19 985.955 352.242 4
7 0 -19 249.469 83.9002 1
-19 -7 0 474.549 196.089 4
19 0 7 530.655 273.447 4
0 7 19 652.913 411.961 4
0 19 7 324.276 340.137 1
0 19 -7 196.313 359.319 1
0 7 19 901.164 282.591 1
-7 0 -19 367.605 348.073 3
-19 7 0 67.6171 383.2 1
-2 19 -7 -314.704 322.435 1
2 7 -19 497.364 215.337 3
-2 -7 -19 233.531 328.323 3
-7 -2 19 -16.611 131.507 2
-7 -19 -2 467.292 400.691 2
-2 7 19 572.058 239.502 1
2 -7 19 83.47 113.076 1
-7 19 2 -91.3737 375.466 1
-2 -19 7 -113.506 316.858 2
7 19 -2 -62.2383 347.094 1
2 -19 -7 300.371 320.925 2
-19 7 -2 137.01 337.78 1
-7 2 -19 -31.6363 247.689 2
7 -19 2 84.987 304.676 2
7 -2 -19 19.7711 101.013 1
7 2 19 -158.998 203.573 1
2 19 7 -38.9615 342.179 1
19 -2 7 202.538 234.334 4
7 2 19 -486.801 418.087 4
2 -7 19 452.641 247.055 2
-19 -7 2 49.9538 182.102 4
-2 7 19 300.55 349.88 4
-7 2 -19 -178.686 266.496 3
7 19 -2 326.156 232.44 3
-7 -2 19 7.71841 189.114 3
7 4 19 -142.96 191.899 1
-4 -7 -19 659.633 342.908 3
-4 19 -7 -351.773 364.665 1
-4 -7 -19 180.364 128.234 2
-7 -4 19 -0.87614 163.411 2
-7 -19 -4 -141.065 326.306 2
-7 19 4 -85.3777 383.495 1
-4 -19 7 -338.11 346.492 2
4 7 -19 -44.6218 67.7178 1
7 19 -4 -37.6809 343.923 1
-7 4 -19 95.8627 291.057 2
4 -19 -7 235.087 307.141 2
7 -4 -19 140.347 152.62 1
4 19 7 -428.678 417.935 1
7 -19 4 599.398 351.113 2
4 -7 19 690.026 237.968 1
7 4 19 139.515 397.4 4
-19 7 -4 579.332 414.803 1
-4 7 19 210.425 265.307 1
-4 7 19 100.164 374.374 4
4 -7 19 -77.4469 229.237 2
19 -7 -4 355.058 132.621 4
-19 -7 4 116.75 181.514 4
-7 4 -19 121.444 268.523 3
-7 -4 19 220.626 201.612 3
7 19 -4 166.043 205.159 3
-1 8 -19 746.29 169.972 1
8 1 -19 584.816 134.793 1
-1 8 -19 429.066 229.794 2
-8 -19 1 1345.17 476.334 2
8 19 1 1431.02 469.349 1
-1 -19 -8 846.178 371.564 2
1 -19 8 1002.04 462.234 2
-8 19 -1 936.507 477.275 1
-1 -8 19 1065.85 322.023 2
8 -19 -1 1197.42 413.007 2
8 -1 19 -496.716 409.997 4
-8 1 19 843.511 381.442 4
-8 -1 -19 1099.4 300.77 2
-19 -8 -1 800.345 273.17 4
19 1 8 1077.39 302.965 4
1 8 19 966.691 273.233 1
1 8 19 965.133 439.623 4
8 -1 19 982.614 229.825 1
-8 1 19 1073.94 223.691 2
1 19 -8 1018.54 421.331 1
-1 19 8 919.243 438.844 1
-19 8 1 608.746 422.496 1
-8 -1 -19 647.459 351.936 3
-1 8 -19 580.138 252.473 3
8 1 19 520.067 220.136 1
-1 8 19 652.798 268.096 1
1 8 -19 701.935 260.565 3
1 -8 19 670.613 150.975 1
-19 8 -1 1021.25 427.105 1
-8 -19 -1 933.269 431.819 2
8 19 -1 108.818 340.331 1
-1 -19 8 364.407 317.828 2
1 8 -19 360.175 138.915 1
-8 19 1 186.509 348.771 1
1 -19 -8 1204.81 405.534 2
-1 -8 -19 598.91 137.223 2
1 -8 19 947.978 309.601 2
8 -19 1 619.735 361.894 2
-8 1 -19 1165.85 350.369 2
-8 -1 19 334.457 356.229 4
8 1 19 430.531 412.801 4
19 -1 8 596.297 256.315 4
1 19 8 717.74 409.619 1
-19 -8 1 624.783 270.271 4
-1 8 19 1046.29 446.99 4
8 -1 -19 610.533 147.625 1
-8 1 -19 553.207 321.099 3
-1 19 -8 726.636 425.498 1
0 0 -20 557.387 325.048 3
0 -20 0 654.574 341.767 2
0 0 20 711.164 452.728 4
0 20 0 905.19 416.599 1
-1 1 -20 191.866 262.211 3
-1 -1 -20 216.393 285.259 3
1 1 -20 -379.492 302.879 3
1 -1 -20 405.898 304.33 3
-1 -20 -1 94.9895 311.614 2
-1 -20 1 291.545 381.904 2
1 -20 -1 -246.12 311.509 2
1 -20 1 304.52 329.136 2
-1 -1 20 1000.6 418.736 4
1 -1 20 977.818 485.244 4
1 1 20 -348.908 387.437 4
-1 1 20 349.996 406.819 4
1 20 1 -227.213 325.737 1
1 20 -1 282.351 353.814 1
-1 20 1 759.65 413.889 1
-1 20 -1 -0.40972 359.301 1
-2 0 -20 678.091 338.844 3
0 2 -20 485.856 281.027 3
0 -2 -20 -78.5614 256.417 3
-2 -20 0 438.283 286.493 2
0 -20 -2 487.462 361.647 2
0 -20 2 605.583 390.345 2
2 -20 0 840.425 366.471 2
2 0 20 500.546 405.571 4
-2 0 20 140.259 344.324 4
2 20 0 507.898 359.132 1
0 2 20 -152.671 401.536 4
0 20 2 179.801 329.432 1
20 0 2 286.602 155.15 4
0 20 -2 386.86 355.826 1
-2 20 0 704.308 442.145 1
-2 2 -20 -117.141 258.988 3
-2 -2 -20 -367.416 328.823 3
-2 -20 -2 -92.7339 296.791 2
-2 -20 2 -12.8517 279.118 2
2 -20 -2 161.612 270.068 2
2 -20 2 -25.65 293.453 2
2 20 2 -33.2436 340.672 1
2 2 20 339.128 368.224 4
-2 2 20 -357.483 379.466 4
2 20 -2 487.882 422.478 1
2 2 20 214.959 108.1 1
20 -2 2 178.774 135.298 4
-2 -2 20 107.431 71.8803 2
-2 20 2 -190.722 420.006 1
-2 20 -2 6.20618 324.234 1
2 2 20 13.5858 75.2672 1
-3 20 -1 -505.488 471.454 1
-1 3 -20 41.3732 240.839 3
-3 -1 -20 1.65544 284.952 3
-3 -20 1 253.924 305.652 2
-1 -20 -3 306.354 340.432 2
1 -20 3 28.393 349.299 2
3 -20 -1 171.607 329.421 2
3 20 1 254.016 417.874 1
3 -1 20 -592.782 412.086 4
-3 1 20 387.103 363.818 4
1 3 20 -260.354 370.159 4
20 -3 1 230.655 123.842 4
-1 -3 20 271.477 129.864 2
1 20 -3 408.166 409.761 1
20 1 3 204.486 178.743 4
-1 20 3 82.2948 353.751 1
1 3 20 119.635 107.717 1
-3 1 -20 -1049.93 365.433 3
1 3 -20 162.03 235.037 3
-1 -3 -20 423.048 347.895 3
-3 1 -20 294.532 125.038 2
-3 -20 -1 -332.854 337.822 2
-1 -20 3 465.823 315.541 2
3 1 20 -8.82943 76.9677 1
1 -20 -3 -694.021 355.335 2
3 -20 1 243.668 317.818 2
3 20 -1 926.001 471.757 1
-3 -1 20 231.829 375.238 4
3 1 20 0.41377 351.707 4
-1 3 20 -290.116 367.679 4
1 20 3 466.455 352.533 1
20 -1 3 -224.182 182.224 4
3 1 20 132.575 85.0583 1
1 -3 20 121.201 124.611 2
-1 20 -3 312.813 352.491 1
-3 20 1 265.994 391.347 1
-3 3 -20 71.5291 308.49 3
-3 20 -3 418.665 410.34 1
-3 -3 -20 669.471 360.057 3
3 20 -3 20.1655 239.327 3
-3 3 -20 209.977 153.977 2
-3 -20 -3 -400.917 392.675 2
-3 -20 3 1.86321 363.324 2
3 3 20 32.41 121.943 1
3 -20 -3 -226.565 342.146 2
3 -20 3 -236.207 284.542 2
-3 -3 20 89.3079 130.078 2
3 20 3 478.833 395.726 1
3 20 -3 329.627 338.07 1
20 -3 3 -209.539 177.324 4
3 3 20 -21.3009 357.346 4
-3 3 20 586.806 414.698 4
-3 20 3 410.939 376.305 1
-2 4 -20 46.7442 228.137 3
-4 -2 -20 -147.383 316.814 3
-4 20 -2 572.372 436.085 1
-2 4 -20 -220.54 178.328 2
4 -2 20 177.035 113.419 1
-4 -20 2 33.663 285.667 2
-2 -20 -4 311.749 323.475 2
-4 -2 -20 -30.4699 86.969 2
2 -20 4 -115.988 333.522 2
4 -20 -2 591.914 326.883 2
4 20 2 509.968 419.17 1
-2 -4 20 650.31 203.853 2
20 -4 2 163.891 148.949 4
2 4 20 154.309 143.379 1
-4 2 20 -37.9705 324.405 4
2 4 20 567.124 402.83 4
2 20 -4 31.3967 356.444 1
20 2 4 266.138 207.216 4
-2 20 4 553.31 406.631 1
-4 0 -20 882.343 385.321 3
0 4 -20 752.566 327.005 3
-4 20 0 1101.72 477.156 1
4 0 20 380.438 123.591 1
0 4 20 1054.49 199.711 1
-4 -20 0 915.198 409.695 2
4 0 20 743.786 164.504 1
-4 0 -20 447.25 134.884 2
0 -20 -4 326.612 291.461 2
0 -20 4 724.687 372.648 2
4 -20 0 794.779 366.178 2
4 20 0 869.072 443.238 1
4 0 20 1447.93 534.268 4
-4 0 20 1203.12 433.078 4
20 -4 0 571.084 117.38 4
0 4 20 1533.05 536.945 4
0 -4 20 1081.15 242.155 2
20 0 4 768.722 235.45 4
0 20 4 1295.63 469.245 1
0 20 -4 1321.68 447.662 1
-4 20 2 283.97 339.119 1
-2 -4 -20 -525.219 340.834 3
-2 4 20 98.894 108.379 1
2 4 -20 515.088 259.034 3
4 2 20 296.84 148.317 1
-4 -20 -2 157.004 313.691 2
-4 2 -20 370.617 192.016 2
-2 -20 4 363.746 344.424 2
2 -20 -4 482.565 307.767 2
4 -20 2 508.09 384.74 2
4 2 20 185.896 147.633 1
-4 -2 20 144.224 103.064 2
4 20 -2 509.744 390.315 1
2 20 4 13.2717 347.66 1
4 2 20 719.841 459.052 4
20 -2 4 -71.9253 192.275 4
-2 4 20 67.4284 385.252 4
2 -4 20 148.78 199.272 2
-2 20 -4 360.091 370.135 1
-4 2 -20 41.1893 254.842 3
-4 20 4 482.672 427.866 1
-4 -4 -20 155.063 329.52 3
4 20 -4 176.263 214.605 3
-4 4 20 10.2147 114.872 1
-4 20 -4 375.598 354.025 1
-4 4 -20 22.4675 206.319 2
-4 -20 -4 243.354 343.442 2
-4 -20 4 -102.206 306.897 2
4 4 20 -51.9133 161.254 1
-4 -4 20 -92.5312 147.579 2
4 -20 4 157.808 298.314 2
4 -20 -4 -238.848 329.496 2
4 20 4 -97.0703 397.075 1
-4 -4 -20 57.4695 82.9449 2
4 20 -4 402.139 354.311 1
20 -4 4 74.5475 170.811 4
4 4 20 238.102 424.488 4
-4 4 20 -56.4796 318.422 4
4 -4 20 66.1551 118.635 1
-4 -4 20 48.0131 174.305 3
-4 4 -20 9.66242 250.123 3
-5 -1 -20 288.195 332.408 3
-1 5 -20 -92.512 244.617 3
5 -1 20 238.531 142.993 1
-5 20 -1 228.115 339.325 1
-5 -20 1 225.624 301.117 2
-1 -20 -5 -16.4501 324.315 2
1 -20 5 -153.18 323.489 2
-5 -1 -20 264.422 164.323 2
5 20 1 305.177 372.353 1
5 -20 -1 -34.1824 305.781 2
-1 -5 20 142.154 188.6 2
5 -1 20 -130.246 392.73 4
-5 1 20 43.4632 360.798 4
1 5 20 51.7737 361.692 4
20 1 5 0.16431 206.036 4
1 20 -5 352.4 374.511 1
1 5 20 362.04 179.394 1
-1 20 5 77.5897 401.547 1
5 1 20 53.555 123.216 1
1 5 -20 -29.9923 233.614 3
-1 -5 -20 -255.975 313.192 3
-5 20 1 -93.0836 343.156 1
-5 -20 -1 68.0658 288.209 2
5 1 20 75.8738 152.623 1
-1 5 20 188.43 151.264 1
-1 -20 5 -227.098 352.844 2
-5 1 -20 68.0525 182.979 2
1 -20 -5 323.918 308.383 2
-5 -1 20 150.454 80.0663 2
5 20 -1 -110.423 360.714 1
5 -20 1 316.507 303.071 2
20 -5 -1 244.101 80.3574 4
-20 -5 1 -163.377 178.287 4
-5 -1 20 391.62 406.522 4
5 1 20 13.5807 369.752 4
20 -1 5 207.473 195.673 4
1 20 5 774.428 436.321 1
-1 5 20 125.788 329.242 4
1 -5 20 572.285 238.631 2
-1 20 -5 -218.967 371.875 1
-5 1 -20 338.941 290.118 3
#BEGIN Loops that were not found in dictionaries:
loop_
_smtbx_masks_void_nr
_smtbx_masks_void_average_x
_smtbx_masks_void_average_y
_smtbx_masks_void_average_z
_smtbx_masks_void_volume
_smtbx_masks_void_count_electrons
1 -0.018 -0.710 -0.791 14407.2 1731.0
#END Loops that were not found in dictionaries
