#------------------------------------------------------------------------------
#$Date: 2017-12-10 21:25:10 +0200 (Sun, 10 Dec 2017) $
#$Revision: 204138 $
#$URL: file:///home/coder/svn-repositories/cod/cif/7/22/77/7227788.cif $
#------------------------------------------------------------------------------
#
# This file is available in the Crystallography Open Database (COD),
# http://www.crystallography.net/
#
# All data on this site have been placed in the public domain by the
# contributors.
#
data_7227788
loop_
_publ_author_name
'Patyk-Ka\'zmierczak, Ewa'
'Warren, Mark R.'
'Allan, David R.'
'Katrusiak, Andrzej'
_publ_section_title
;
 Pressure inverse solubility and polymorphism of an edible
 \g-cyclodextrin-based metal-organic framework.
;
_journal_issue                   13
_journal_name_full               'Physical chemistry chemical physics : PCCP'
_journal_page_first              9086
_journal_page_last               9091
_journal_paper_doi               10.1039/c7cp00593h
_journal_volume                  19
_journal_year                    2017
_chemical_absolute_configuration rm
_chemical_formula_moiety         'C48 H80 O40, 2(KOH)'
_chemical_formula_sum            'C48 H82 K2 O42'
_chemical_formula_weight         1409.34
_chemical_name_common            '\g-cyclodextrin-metal-organic framework'
_chemical_name_systematic
'catena-((\m8-\g-Cyclodextrin)-di-potassium dihydroxide)'
_space_group_crystal_system      trigonal
_space_group_IT_number           155
_space_group_name_Hall           'R 3 2"'
_space_group_name_H-M_alt        'R 3 2 :H'
_atom_sites_solution_hydrogens   geom
_atom_sites_solution_primary     direct
_audit_creation_date             2017-01-19
_audit_creation_method
;
Olex2 1.2
(compiled 2017.01.04 svn.r3372 for OlexSys, GUI svn.r5289)
;
_cell_angle_alpha                90.0
_cell_angle_beta                 90.0
_cell_angle_gamma                120.0
_cell_formula_units_Z            18
_cell_length_a                   43.260(16)
_cell_length_b                   43.260(16)
_cell_length_c                   28.104(16)
_cell_measurement_reflns_used    1157
_cell_measurement_temperature    244.98(10)
_cell_measurement_theta_max      10.7500
_cell_measurement_theta_min      2.9290
_cell_volume                     45548(4)
_computing_cell_refinement       'CrysAlisPro 1.171.38.41 (Rigaku OD, 2015)'
_computing_data_collection       'CrysAlisPro 1.171.38.41 (Rigaku OD, 2015)'
_computing_data_reduction        'CrysAlisPro 1.171.38.41 (Rigaku OD, 2015)'
_computing_molecular_graphics    'Olex2 (Dolomanov et al., 2009)'
_computing_publication_material  'Olex2 (Dolomanov et al., 2009)'
_computing_structure_refinement  'ShelXL (Sheldrick, 2015)'
_computing_structure_solution    'ShelXS (Sheldrick, 2008)'
_diffrn_ambient_environment      'ispropanol:water mother liquor'
_diffrn_ambient_temperature      244.98(10)
_diffrn_detector                 'CCD plate'
_diffrn_detector_area_resol_mean 16.1544
_diffrn_detector_type            Eos
_diffrn_measured_fraction_theta_full 0.984
_diffrn_measured_fraction_theta_max 0.984
_diffrn_measurement_details
;
List of Runs (angles in degrees, time in seconds):

  # Type    Start    End  Width  t~exp~   \w     \q     \k     \f   Frames
--------------------------------------------------------------------------
  1  \w    -68.00  54.00   1.00   15.00    --  -18.72   0.00-150.00  122
  2  \w    -73.00  20.00   1.00   15.00    --  -18.72 -19.00  60.00   93
  3  \w    -40.00   8.00   1.00   15.00    --  -18.72  57.00  60.00   48
  4  \w    -25.00  23.00   1.00   15.00    --  -18.72 -99.00   0.00   48
;
_diffrn_measurement_device       'four-circle diffractometer'
_diffrn_measurement_device_type  'Xcalibur, Eos'
_diffrn_measurement_method       '\w scans'
_diffrn_orient_matrix_type
'CrysAlisPro convention (1999,Acta A55,543-557)'
_diffrn_orient_matrix_UB_11      -0.0055056000
_diffrn_orient_matrix_UB_12      -0.0128463000
_diffrn_orient_matrix_UB_13      0.0184808000
_diffrn_orient_matrix_UB_21      -0.0169609000
_diffrn_orient_matrix_UB_22      -0.0008132000
_diffrn_orient_matrix_UB_23      0.0007555000
_diffrn_orient_matrix_UB_31      -0.0066023000
_diffrn_orient_matrix_UB_32      -0.0136630000
_diffrn_orient_matrix_UB_33      -0.0172669000
_diffrn_radiation_monochromator  graphite
_diffrn_radiation_probe          x-ray
_diffrn_radiation_type           MoK\a
_diffrn_radiation_wavelength     0.71073
_diffrn_reflns_av_R_equivalents  0.2076
_diffrn_reflns_av_unetI/netI     0.1333
_diffrn_reflns_Laue_measured_fraction_full 0.984
_diffrn_reflns_Laue_measured_fraction_max 0.984
_diffrn_reflns_limit_h_max       28
_diffrn_reflns_limit_h_min       -28
_diffrn_reflns_limit_k_max       28
_diffrn_reflns_limit_k_min       -28
_diffrn_reflns_limit_l_max       18
_diffrn_reflns_limit_l_min       -18
_diffrn_reflns_number            21233
_diffrn_reflns_point_group_measured_fraction_full 0.986
_diffrn_reflns_point_group_measured_fraction_max 0.986
_diffrn_reflns_theta_full        13.681
_diffrn_reflns_theta_max         13.681
_diffrn_reflns_theta_min         2.778
_diffrn_source                   'fine-focus sealed X-ray tube'
_diffrn_source_type              'Enhance (Mo) X-ray Source'
_exptl_absorpt_coefficient_mu    0.161
_exptl_absorpt_correction_T_max  1.00000
_exptl_absorpt_correction_T_min  0.14415
_exptl_absorpt_correction_type   multi-scan
_exptl_absorpt_process_details
;
CrysAlisPro 1.171.38.41 (Rigaku Oxford Diffraction, 2015)
Empirical absorption correction using spherical harmonics,
 implemented in SCALE3 ABSPACK scaling algorithm.
;
_exptl_crystal_colour            'clear colourless'
_exptl_crystal_colour_lustre     clear
_exptl_crystal_colour_primary    colourless
_exptl_crystal_density_diffrn    0.925
_exptl_crystal_description       cube
_exptl_crystal_F_000             13392
_exptl_crystal_recrystallization_method
'Crystal grown from water solution by isopropanol vapour difussion method'
_exptl_crystal_size_max          0.5
_exptl_crystal_size_mid          0.48
_exptl_crystal_size_min          0.47
_refine_diff_density_max         0.169
_refine_diff_density_min         -0.192
_refine_diff_density_rms         0.033
_refine_ls_abs_structure_details
;
 Flack x determined using 583 quotients [(I+)-(I-)]/[(I+)+(I-)]
 (Parsons, Flack and Wagner, Acta Cryst. B69 (2013) 249-259).
;
_refine_ls_abs_structure_Flack   0.35(17)
_refine_ls_extinction_method     none
_refine_ls_goodness_of_fit_ref   0.995
_refine_ls_hydrogen_treatment    constr
_refine_ls_matrix_type           full
_refine_ls_number_parameters     340
_refine_ls_number_reflns         3104
_refine_ls_number_restraints     302
_refine_ls_restrained_S_all      1.108
_refine_ls_R_factor_all          0.1079
_refine_ls_R_factor_gt           0.0812
_refine_ls_shift/su_max          0.000
_refine_ls_shift/su_mean         0.000
_refine_ls_structure_factor_coef Fsqd
_refine_ls_weighting_details
'w=1/[\s^2^(Fo^2^)+(0.0963P)^2^] where P=(Fo^2^+2Fc^2^)/3'
_refine_ls_weighting_scheme      calc
_refine_ls_wR_factor_gt          0.1846
_refine_ls_wR_factor_ref         0.2034
_reflns_Friedel_coverage         0.860
_reflns_Friedel_fraction_full    0.988
_reflns_Friedel_fraction_max     0.988
_reflns_number_gt                2197
_reflns_number_total             3104
_reflns_threshold_expression     'I > 2\s(I)'
_iucr_refine_instructions_details
;

    heks.res created by SHELXL-2014/7

TITL heks in R32 #155
REM reset to R32 #155
CELL 0.71073 43.259578 43.259578 28.103795 90 90 120
ZERR 18 0.016242 0.016242 0.016452 0 0 0
LATT -3
SYMM -Y,+X-Y,+Z
SYMM +Y-X,-X,+Z
SYMM -Y+X,-Y,-Z
SYMM -X,-X+Y,-Z
SYMM +Y,+X,-Z
SFAC C H K O
UNIT 864 1440 36 756
DFIX 1.5 C64 C65
DFIX 1.5 C71 C72
DFIX 1.5 C65 C66
DFIX 1.5 C2 C3
DFIX 1.5 C2 C1
DFIX 1.5 C23 C24
DFIX 1.5 C23 C22
DFIX 1.5 C15 C16
DFIX 1.5 C45 C46
DFIX 1.5 C44 C45
DFIX 1.5 0.002 C35 C36
DFIX 1.5 C64 C63
DFIX 1.5 0.005 C4 C3
DFIX 3.5 C4 C1
DFIX 1.5 0.005 C4 C5
DFIX 2.5 C5 C3
DFIX 1.5 C13 C14
DFIX 1.5 C13 C12
DFIX 1.5 C44 C43
DFIX 1.5 C43 C44
DFIX 1.5 C42 C43
DFIX 1.5 C21 C22
DFIX 1.5 0.005 C6 C5
DFIX 1.5 C72 C73
DFIX 1.5 C26 C25
DFIX 1.45 O15 C11
DFIX 2.5 C2 O5
DFIX 1.45 O5 C1
DFIX 1.45 C31 O44
DFIX 1.45 C33 O33
DFIX 1.45 0.005 C35 O35
DFIX 1.45 0.005 C31 O35
DFIX 3 C33 O35
DFIX 1.45 O73 C73
DFIX 1.45 O12 C12
DFIX 1.45 O23 C23
DFIX 1.45 0.005 C26 O26
DFIX 1.45 C6 O6
DFIX 1.45 C61 O74
DFIX 1.45 C61 O65
DFIX 2.45 C35 O36
DFIX 1.45 0.002 O36 C36
DFIX 1.45 O22 C22
DFIX 1.45 C72 O72
DFIX 1.45 C16 O16
DFIX 1.45 O4 C4
DFIX 1.45 O3 C3
DFIX 1.45 O2 C2
DFIX 1.45 0.005 O63 C63
DFIX 1.45 O43 C43
DFIX 1.5 C14 C15
DFIX 1.5 C24 C25
DFIX 1.5 C52 C53
DFIX 1.5 C65 C64
DFIX 1.45 0.01 C71 O4
DFIX 1.45 O14 C1
DFIX 1.45 0.01 O15 C15
DFIX 1.45 0.01 C21 O25
DFIX 1.45 0.01 O25 C25
DFIX 1.45 0.01 O44 C44
DFIX 1.5 C41 C42
DFIX 1.5 C54 C55
DFIX 1.45 0.01 O54 C41
DFIX 3.8 C1 K2
DFIX 3.8 C12 K1
DFIX 1.45 O13 C13
DFIX 1.45 C12 O12
DFIX 1.45 C22 O22
DFIX 1.5 C54 C53
DFIX 1.45 0.01 O14 C14
DFIX 1.5 0.002 C35 C34
DFIX 1.5 C33 C34
DFIX 1.5 C31 C32
DFIX 1.5 C33 C32
DFIX 1.45 O32 C32
DFIX 1.45 0.01 C5 O5
DFIX 1.45 C45 O45
DFIX 1.5 C53 C52
DFIX 1.45 O54 C54
DFIX 1.45 O52 C52
DFIX 1.5 C51 C52
DFIX 1.45 C51 O64
DFIX 1.5 C62 C63
DFIX 1.5 C62 C61
DFIX 1.45 C62 O62
DFIX 1.5 C55 C56
DFIX 1.45 0.005 O56 C56
DFIX 1.45 0.01 O55 C51
DFIX 1.45 O55 C55
DFIX 1.5 C74 C75
DFIX 1.5 0.005 C74 C73
DFIX 1.5 C75 O75
DFIX 1.45 O75 C71
DFIX 1.5 C75 C76
DFIX 1.45 0.005 O76 C76
DANG 2.5 C42 C44
DANG 2.5 C43 C45
DANG 2.5 C11 C13
DANG 2.5 C61 C65
DANG 2.5 C71 C75
DANG 2.5 C71 C73
DANG 2.5 C75 C73
DANG 2.5 O73 C72
DANG 2.5 O45 C44
DANG 2.5 O45 C42
DANG 2.5 O25 C24
DANG 2.5 O65 C64
DANG 2.5 O26 C25
DANG 2.5 C5 O4
DANG 2.5 O14 C2
DANG 2.5 O25 C22
DANG 2.5 C21 C25
DANG 2.5 C23 O24
DANG 2.5 C36 O35
DANG 2.5 C23 C25
DANG 2.5 C21 O22
DANG 2.5 C71 O72
DANG 2.5 C71 C4
DANG 2.5 O4 C3
DANG 2.5 O4 C5
DANG 2.5 O3 C2
DANG 2.5 C63 C65
DANG 2.5 C64 O65
DANG 2.5 C65 C61
DANG 2.5 C61 C63
DANG 2.5 C26 O25
DANG 2.5 C26 C24
DANG 2.5 0.01 C15 C11
DANG 2.5 0.01 C35 C31
DANG 2.5 0.01 C44 C31
DANG 2.5 0.02 C55 C51
DANG 2.5 C53 C55
DANG 2.5 C41 C45
DANG 2.5 C43 C41
DANG 2.5 C45 C41
DANG 2.5 0.02 C54 C41
DANG 2.5 0.01 C4 C71
DANG 2.5 0.01 C1 C14
DANG 2.5 O4 C72
DANG 2.5 C36 C34
DANG 2.5 C32 C34
DANG 2.5 0.01 C2 C4
DANG 2.5 0.01 C4 O5
DANG 2.5 0.02 O5 C4
DANG 2.5 0.02 O15 C12
DANG 2.5 O25 C26
DANG 2.5 0.02 C44 O45
DANG 2.5 0.02 C54 C52
DANG 2.5 0.01 C41 C54
DANG 2.5 O52 C51
DANG 2.5 C66 O65
DANG 2.5 C66 C64
DANG 2.5 C1 O2
DANG 2.5 C1 C3
DANG 2.5 C3 O2
DANG 2.5 C12 C14
DANG 2.5 0.02 O13 C14
DANG 2.5 0.02 O13 C12
DANG 2.5 C14 O15
DANG 2.5 O24 C23
DANG 2.5 O52 C53
DANG 2.5 0.01 C53 O52
DANG 2.5 O76 C75
DANG 2.5 C13 C15
DANG 2.5 O14 C13
DANG 2.5 O24 C25
DANG 2.5 0.01 C25 O24
DANG 2.5 C64 C62
DANG 2.5 C62 C64
DANG 2.5 O62 C61
DANG 2.5 O62 C63
DANG 2.5 0.01 C52 O55
DANG 2.5 C54 O55
DANG 2.5 O55 C56
DANG 2.5 C56 C54
DANG 2.5 O55 C54
DANG 2.5 C54 C56
DANG 2.5 C56 O55
DANG 2.5 C74 O73
DANG 2.5 O4 O75
DANG 2.5 0.02 O75 C76
DANG 2.5 O75 C74
DANG 2.5 0.01 C74 C76
DANG 2.5 C15 C13
DANG 2.5 C13 O14
DANG 2.5 O14 C15
DANG 2.5 0.01 C24 C11
DELU C44
DELU 0.01 0.001 O36
DELU O16
SIMU
RIGU
ISOR 0.001 0.00001 C44
ISOR 0.001 0.0001 C45
ISOR 0.05 0.01 O33
ISOR O36
ISOR K2 K1 K3
 
L.S. 100
PLAN  20
CONN 4 C6
CONN 4 C26
CONN 1 H12a
BOND
fmap 2
MORE -1
BOND $H
ACTA 52
CONF
ABIN
OMIT 0 6 3
OMIT 3 15 3
OMIT -20 20 5
OMIT 10 10 6
OMIT 3 6 0
OMIT -8 18 10
OMIT -3 8 1
OMIT 4 21 4
OMIT 0 14 4
OMIT 0 23 4
OMIT -13 19 7
REM <olex2.extras>
REM <HklSrc "%.\\heks.hkl">
REM </olex2.extras>
 
WGHT    0.096300
FVAR       0.21922   0.19108   0.33696
C1    1    0.746456    0.665676    0.403298    11.00000    0.14765
AFIX  13
H1    2    0.755529    0.681792    0.375876    11.00000   -1.20000
AFIX   0
C2    1    0.732531    0.676794    0.447026    11.00000    0.11747
AFIX  13
H2    2    0.716187    0.684684    0.435624    11.00000   -1.20000
AFIX   0
C3    1    0.715439    0.652468    0.487459    11.00000    0.19301
AFIX  13
H3    2    0.732548    0.645024    0.496915    11.00000   -1.20000
AFIX   0
C4    1    0.681777    0.618172    0.475813    11.00000    0.18110
AFIX  13
H4    2    0.663084    0.623759    0.467653    11.00000   -1.20000
AFIX   0
C5    1    0.688899    0.601770    0.433071    11.00000    0.17996
AFIX  13
H5    2    0.702936    0.591554    0.445803    11.00000   -1.20000
AFIX   0
C6    1    0.661341    0.572576    0.402467    11.00000    0.23968
AFIX  23
H6B   2    0.672333    0.569445    0.374179    11.00000   -1.20000
H6A   2    0.649707    0.550210    0.419839    11.00000   -1.20000
AFIX   0
C11   1    0.862496    0.662615    0.368149    11.00000    0.17824
AFIX  13
H11   2    0.882422    0.666778    0.347396    11.00000   -1.20000
AFIX   0
C12   1    0.863496    0.698250    0.379975    11.00000    0.20866
AFIX  13
H12   2    0.861745    0.708721    0.349884    11.00000   -1.20000
AFIX   0
C13   1    0.831135    0.689658    0.408792    11.00000    0.17167
AFIX  13
H13   2    0.835911    0.681728    0.439176    11.00000   -1.20000
AFIX   0
C14   1    0.798334    0.657866    0.392082    11.00000    0.09829
AFIX  13
H14   2    0.793123    0.666456    0.362574    11.00000   -1.20000
AFIX   0
C15   1    0.796740    0.624411    0.376447    11.00000    0.09416
AFIX  13
H15   2    0.798822    0.611145    0.403341    11.00000   -1.20000
AFIX   0
C16   1    0.767371    0.600561    0.343411    11.00000    0.16852
AFIX  23
H16A  2    0.769667    0.579995    0.335366    11.00000   -1.20000
H16B  2    0.744492    0.592108    0.358901    11.00000   -1.20000
AFIX   0
C21   1    0.940277    0.623038    0.461948    11.00000    0.16810
AFIX  13
H21   2    0.961385    0.620218    0.462549    11.00000   -1.20000
AFIX   0
C22   1    0.953972    0.662856    0.468162    11.00000    0.21851
AFIX  13
H22   2    0.970840    0.677165    0.443090    11.00000   -1.20000
AFIX   0
C23   1    0.919499    0.663152    0.464680    11.00000    0.25455
AFIX  13
H23   2    0.906461    0.654809    0.494780    11.00000   -1.20000
AFIX   0
C24   1    0.895194    0.645198    0.425199    11.00000    0.17679
AFIX  13
H24   2    0.911510    0.658818    0.399272    11.00000   -1.20000
AFIX   0
C25   1    0.890127    0.610028    0.412712    11.00000    0.19829
AFIX  13
H25   2    0.875431    0.593550    0.437904    11.00000   -1.20000
AFIX   0
C26   1    0.873607    0.592387    0.366271    11.00000    0.19132
AFIX  23
H26B  2    0.861786    0.566690    0.370186    11.00000   -1.20000
H26A  2    0.855667    0.598512    0.357360    11.00000   -1.20000
AFIX   0
C31   1    0.936854    0.551446    0.617535    11.00000    0.23829
AFIX  13
H31   2    0.946752    0.538801    0.635096    11.00000   -1.20000
AFIX   0
C32   1    0.962473    0.591481    0.618168    11.00000    0.23420
AFIX  13
H32   2    0.984778    0.594635    0.604740    11.00000   -1.20000
AFIX   0
C33   1    0.949436    0.609557    0.582198    11.00000    0.19975
AFIX  13
H33   2    0.929319    0.611157    0.595416    11.00000   -1.20000
AFIX   0
C34   1    0.937561    0.584999    0.539257    11.00000    0.14951
AFIX  13
H34   2    0.957466    0.584903    0.522744    11.00000   -1.20000
AFIX   0
C35   1    0.905012    0.548653    0.542292    11.00000    0.16983
AFIX  13
H35   2    0.887006    0.551092    0.560449    11.00000   -1.20000
AFIX   0
C36   1    0.886937    0.527030    0.498801    11.00000    0.23014
AFIX  23
H36A  2    0.871355    0.502385    0.508118    11.00000   -1.20000
H36B  2    0.872198    0.535738    0.484915    11.00000   -1.20000
AFIX   0
C41   1    0.837443    0.492770    0.752572    11.00000    0.14701
AFIX  13
H41   2    0.830593    0.478507    0.781801    11.00000   -1.20000
AFIX   0
C42   1    0.868468    0.528961    0.764708    11.00000    0.11228
AFIX  13
H42   2    0.885658    0.522961    0.778351    11.00000   -1.20000
AFIX   0
C43   1    0.885702    0.545959    0.718286    11.00000    0.11205
AFIX  13
H43   2    0.871414    0.556088    0.706192    11.00000   -1.20000
AFIX   0
C44   1    0.887877    0.525397    0.678212    11.00000    0.06151
AFIX  13
H44   2    0.905443    0.519015    0.689290    11.00000   -1.20000
AFIX   0
C45   1    0.855173    0.490238    0.672814    11.00000    0.11006
AFIX  13
H45   2    0.837616    0.496056    0.660032    11.00000   -1.20000
AFIX   0
C46   1    0.855404    0.464808    0.637592    11.00000    0.11615
AFIX  23
H46A  2    0.861109    0.475682    0.606272    11.00000   -1.20000
H46B  2    0.832013    0.443544    0.636160    11.00000   -1.20000
AFIX   0
C51   1    0.706516    0.469403    0.779717    11.00000    0.18392
AFIX  13
H51   2    0.683005    0.456104    0.794819    11.00000   -1.20000
AFIX   0
C52   1    0.733431    0.489921    0.819534    11.00000    0.10343
AFIX  13
H52   2    0.735703    0.474686    0.843447    11.00000   -1.20000
AFIX   0
C53   1    0.764469    0.507716    0.785790    11.00000    0.13721
AFIX  13
H53   2    0.764428    0.524415    0.762260    11.00000   -1.20000
AFIX   0
C54   1    0.776141    0.481367    0.769658    11.00000    0.10733
AFIX  13
H54   2    0.777041    0.466342    0.795097    11.00000   -1.20000
AFIX   0
C55   1    0.748312    0.461143    0.731465    11.00000    0.12366
AFIX  13
H55   2    0.748142    0.478950    0.710077    11.00000   -1.20000
AFIX   0
C56   1    0.751714    0.434942    0.701455    11.00000    0.21078
AFIX  23
H56A  2    0.729478    0.418260    0.685987    11.00000   -1.20000
H56B  2    0.770636    0.446201    0.678059    11.00000   -1.20000
AFIX   0
C61   1    0.621837    0.509597    0.700482    11.00000    0.24300
AFIX  13
H61   2    0.599594    0.510396    0.700188    11.00000   -1.20000
AFIX   0
C62   1    0.648373    0.533038    0.736359    11.00000    0.17937
AFIX  13
H62   2    0.637105    0.526166    0.767771    11.00000   -1.20000
AFIX   0
C63   1    0.680289    0.526597    0.735918    11.00000    0.15635
AFIX  13
H63   2    0.698337    0.539458    0.711377    11.00000   -1.20000
AFIX   0
C64   1    0.667378    0.486959    0.740178    11.00000    0.17476
AFIX  13
H64   2    0.653436    0.476037    0.769049    11.00000   -1.20000
AFIX   0
C65   1    0.647216    0.469932    0.694547    11.00000    0.15152
AFIX  13
H65   2    0.663610    0.481344    0.667829    11.00000   -1.20000
AFIX   0
C66   1    0.632993    0.430070    0.691338    11.00000    0.21955
AFIX  23
H66A  2    0.618012    0.419405    0.663614    11.00000   -1.20000
H66B  2    0.651833    0.424118    0.692159    11.00000   -1.20000
AFIX   0
C71   1    0.634418    0.575188    0.530169    11.00000    0.22314
AFIX  13
H71   2    0.623087    0.580463    0.503632    11.00000   -1.20000
AFIX   0
C72   1    0.624672    0.589573    0.571036    11.00000    0.18857
AFIX  13
H72   2    0.598722    0.578261    0.574597    11.00000   -1.20000
AFIX   0
C73   1    0.641209    0.578413    0.610586    11.00000    0.14830
AFIX  13
H73   2    0.666410    0.591289    0.601247    11.00000   -1.20000
AFIX   0
C74   1    0.634215    0.540711    0.612513    11.00000    0.14739
AFIX  13
H74   2    0.608724    0.529237    0.620092    11.00000   -1.20000
AFIX   0
C75   1    0.630345    0.522953    0.565909    11.00000    0.12062
AFIX  13
H75   2    0.654710    0.528254    0.558922    11.00000   -1.20000
AFIX   0
C76   1    0.609866    0.483714    0.565642    11.00000    0.19747
AFIX  23
H76A  2    0.609824    0.476178    0.533124    11.00000   -1.20000
H76B  2    0.623306    0.475580    0.584285    11.00000   -1.20000
AFIX   0
K1    3    0.894129    0.790956    0.418044    11.00000    0.11101    0.20900 =
         0.20251   -0.05223   -0.06804    0.11850
K2    3    0.666667    0.637420    0.333333    10.50000    0.41198    0.16590 =
         0.42228   -0.12031   -0.24062    0.20599
K3    3    0.975683    0.642349    0.333333    10.50000    0.17818    0.17818 =
         0.36797   -0.04013    0.04013    0.10186
O2    4    0.765032    0.707648    0.461023    11.00000   21.00000
AFIX  83
H2A   2    0.765861    0.709178    0.490129    11.00000   -1.50000
AFIX   0
O3    4    0.709679    0.667383    0.529827    11.00000   21.00000
AFIX  83
H3A   2    0.688183    0.658286    0.534705    11.00000   -1.50000
AFIX   0
O4    4    0.672275    0.598560    0.520372    11.00000   21.00000
O5    4    0.711797    0.626421    0.396390    11.00000   21.00000
O6    4    0.635072    0.583673    0.389296    11.00000   21.00000
AFIX  83
H6    2    0.615481    0.569440    0.400372    11.00000   -1.50000
AFIX   0
O12   4    0.892886    0.726907    0.407939    11.00000   21.00000
AFIX  83
H12A  2    0.894583    0.718871    0.433613    11.00000   -1.50000
AFIX   0
O13   4    0.828076    0.721001    0.422573    11.00000   21.00000
AFIX  83
H13A  2    0.807050    0.714745    0.427344    11.00000   -1.50000
AFIX   0
O14   4    0.767960    0.651528    0.422770    11.00000   21.00000
O15   4    0.828243    0.638901    0.345423    11.00000   21.00000
O16   4    0.769002    0.620295    0.299471    11.00000   21.00000
AFIX  83
H16   2    0.788908    0.628735    0.287563    11.00000   -1.50000
AFIX   0
O22   4    0.967376    0.677179    0.515787    11.00000   21.00000
AFIX  83
H22A  2    0.967612    0.696121    0.519193    11.00000   -1.50000
AFIX   0
O23   4    0.927304    0.699572    0.455372    11.00000   21.00000
AFIX  83
H23A  2    0.932229    0.710737    0.480447    11.00000   -1.50000
AFIX   0
O24   4    0.867160    0.653005    0.414081    11.00000   21.00000
O25   4    0.924871    0.612040    0.414816    11.00000   21.00000
O26   4    0.899851    0.603082    0.328387    11.00000   21.00000
AFIX  83
H26   2    0.894152    0.611647    0.306366    11.00000   -1.50000
AFIX   0
O32   4    0.969898    0.599947    0.668271    11.00000   21.00000
AFIX  83
H32A  2    0.985039    0.621069    0.671252    11.00000   -1.50000
AFIX   0
O33   4    0.980124    0.643764    0.579501    11.00000   21.00000
AFIX  83
H33A  2    0.974978    0.657629    0.566692    11.00000   -1.50000
AFIX   0
O34   4    0.915499    0.599476    0.504567    11.00000   21.00000
O35   4    0.919914    0.532833    0.573822    11.00000   21.00000
O36   4    0.911806    0.528376    0.463121    11.00000   21.00000
AFIX  83
H36   2    0.919112    0.546659    0.447330    11.00000   -1.50000
AFIX   0
O42   4    0.864419    0.548673    0.801583    11.00000   21.00000
AFIX  83
H42A  2    0.879489    0.569828    0.798711    11.00000   -1.50000
AFIX   0
O43   4    0.918160    0.575648    0.731727    11.00000   21.00000
AFIX  83
H43A  2    0.931745    0.582703    0.708853    11.00000   -1.50000
AFIX   0
O44   4    0.900016    0.538334    0.630550    11.00000   21.00000
O45   4    0.839707    0.472762    0.718159    11.00000   21.00000
O46   4    0.883682    0.454714    0.652719    11.00000   21.00000
AFIX  83
H46   2    0.902083    0.472777    0.660686    11.00000   -1.50000
AFIX   0
O52   4    0.720821    0.513374    0.838444    11.00000   21.00000
AFIX  83
H52A  2    0.737478    0.530798    0.851183    11.00000   -1.50000
AFIX   0
O53   4    0.792240    0.522714    0.825765    11.00000   21.00000
AFIX  83
H53A  2    0.811723    0.527102    0.815329    11.00000   -1.50000
AFIX   0
O54   4    0.807539    0.497803    0.739253    11.00000   21.00000
O55   4    0.713265    0.443314    0.757016    11.00000   21.00000
O56   4    0.760875    0.418698    0.740147    11.00000   21.00000
AFIX  83
H56   2    0.782432    0.430246    0.745056    11.00000   -1.50000
AFIX   0
O62   4    0.659567    0.570695    0.728693    11.00000   21.00000
AFIX  83
H62A  2    0.675697    0.583083    0.747259    11.00000   -1.50000
AFIX   0
O63   4    0.691098    0.538604    0.784360    11.00000   21.00000
AFIX  83
H63A  2    0.709818    0.538907    0.790213    11.00000   -1.50000
AFIX   0
O64   4    0.703095    0.490473    0.740844    11.00000   21.00000
O65   4    0.617888    0.475296    0.688396    11.00000   21.00000
O66   4    0.611793    0.420557    0.737072    11.00000   21.00000
AFIX  83
H66   2    0.615725    0.406854    0.752632    11.00000   -1.50000
AFIX   0
O72   4    0.641828    0.629124    0.567362    11.00000   21.00000
AFIX  83
H72A  2    0.643758    0.637646    0.593997    11.00000   -1.50000
AFIX   0
O73   4    0.642355    0.597396    0.654165    11.00000   21.00000
AFIX  83
H73A  2    0.653701    0.593744    0.674574    11.00000   -1.20000
AFIX   0
O74   4    0.647456    0.531157    0.664252    11.00000   21.00000
O75   4    0.621556    0.538548    0.524455    11.00000   21.00000
O76   4    0.573305    0.464213    0.582350    11.00000   21.00000
AFIX  83
H76   2    0.572668    0.468420    0.610671    11.00000   -1.50000
AFIX   0
 
OA    4    0.752648    0.698785    0.582893    11.00000   31.00000
OB    4    0.948843    0.712738    0.566075    11.00000   31.00000
HKLF 4
 
REM  heks in R32 #155
REM R1 =  0.0812 for    2197 Fo > 4sig(Fo)  and  0.1079 for all    3104 data
REM    340 parameters refined using    302 restraints
 
END  
     
WGHT      0.0968      0.0000 

REM Highest difference peak  0.169,  deepest hole -0.192,  1-sigma level  0.033
Q1    1   0.8041  0.4943  0.7009  11.00000  0.05    0.17
Q2    1   0.8628  0.5151  0.7013  11.00000  0.05    0.16
Q3    1   0.7131  0.5137  0.7755  11.00000  0.05    0.15
Q4    1   0.9200  0.6195  0.3764  11.00000  0.05    0.15
Q5    1   0.9354  0.5518  0.5634  11.00000  0.05    0.14
Q6    1   0.9393  0.6379  0.5343  11.00000  0.05    0.14
Q7    1   0.6298  0.5663  0.5602  11.00000  0.05    0.14
Q8    1   0.8944  0.5570  0.3817  11.00000  0.05    0.14
Q9    1   0.9089  0.4539  0.7009  11.00000  0.05    0.13
Q10   1   0.8922  0.4665  0.7027  11.00000  0.05    0.13
Q11   1   0.8466  0.5772  0.8284  11.00000  0.05    0.13
Q12   1   1.0204  0.6312  0.6151  11.00000  0.05    0.13
Q13   1   0.6667  0.6652  0.3333  10.50000  0.05    0.12
Q14   1   0.7607  0.6513  0.4345  11.00000  0.05    0.12
Q15   1   0.6667  0.5709  0.3333  10.50000  0.05    0.12
Q16   1   0.7485  0.4989  0.8715  11.00000  0.05    0.12
Q17   1   0.6254  0.4836  0.6278  11.00000  0.05    0.12
Q18   1   0.8096  0.5982  0.4361  11.00000  0.05    0.11
Q19   1   0.7007  0.6148  0.3832  11.00000  0.05    0.11
Q20   1   0.6075  0.4615  0.6275  11.00000  0.05    0.11

  REM The information below was added by Olex2.
  REM
  REM R1 = 0.0812 for 2197 Fo > 4sig(Fo) and 0.1079 for all 21325 data
  REM n/a parameters refined using n/a restraints
  REM Highest difference peak 0.17, deepest hole -0.19
  REM Mean Shift 0, Max Shift 0.000.

  REM +++ Tabular Listing of Refinement Information +++
  REM R1_all = 0.1079
  REM R1_gt = 0.0812
  REM wR_ref = 0.2034
  REM GOOF = 0.995
  REM Shift_max = 0.000
  REM Shift_mean = 0
  REM Reflections_all = 21325
  REM Reflections_gt = 2197
  REM Parameters = n/a
  REM Hole = -0.19
  REM Peak = 0.17
  REM Flack = 0.35(17)

  
;
_cod_data_source_file            c7cp00593h5.cif
_cod_data_source_block           CDMOF_b_245K
_cod_depositor_comments
'Adding full bibliography for 7227776--7227790.cif.'
_cod_original_cell_volume        45547(30)
_cod_database_code               7227788
#BEGIN Tags that were not found in dictionaries:
_shelx_shelxl_version_number     2014/7
_chemical_oxdiff_formula         'C48 H82 K2 O40'
_shelx_space_group_comment
;
The symmetry employed for this shelxl refinement is uniquely defined
by the following loop, which should always be used as a source of
symmetry information in preference to the above space-group names.
They are only intended as comments.
;
_reflns_odcompleteness_completeness 98.64
_reflns_odcompleteness_iscentric 1
_reflns_odcompleteness_theta     13.67
_olex2_refinement_description
;
1. Fixed Uiso
 At 1.2 times of:
  All C(H) groups, H73A of O73, All C(H,H) groups
 At 1.5 times of:
  H76 of O76, H72A of O72, H66 of O66, H52A of O52, H46 of O46, H2A of O2,
  H3A of O3, H6 of O6, H12A of O12, H13A of O13, H16 of O16, H22A of O22, H23A
  of O23, H26 of O26, H32A of O32, H33A of O33, H36 of O36, H42A of O42, H43A
  of O43, H63A of O63, H62A of O62, H56 of O56, H53A of O53
2. Restrained distances
 C64-C65
 1.5 with sigma of 0.02
 C71-C72
 1.5 with sigma of 0.02
 C65-C66
 1.5 with sigma of 0.02
 C2-C3
 1.5 with sigma of 0.02
 C2-C1
 1.5 with sigma of 0.02
 C23-C24
 1.5 with sigma of 0.02
 C23-C22
 1.5 with sigma of 0.02
 C15-C16
 1.5 with sigma of 0.02
 C45-C46
 1.5 with sigma of 0.02
 C44-C45
 1.5 with sigma of 0.02
 C35-C36
 1.5 with sigma of 0.002
 C64-C63
 1.5 with sigma of 0.02
 C4-C3
 1.5 with sigma of 0.005
 C4-C1
 3.5 with sigma of 0.02
 C4-C5
 1.5 with sigma of 0.005
 C5-C3
 2.5 with sigma of 0.02
 C13-C14
 1.5 with sigma of 0.02
 C13-C12
 1.5 with sigma of 0.02
 C44-C43
 1.5 with sigma of 0.02
 C43-C44
 1.5 with sigma of 0.02
 C42-C43
 1.5 with sigma of 0.02
 C21-C22
 1.5 with sigma of 0.02
 C6-C5
 1.5 with sigma of 0.005
 C72-C73
 1.5 with sigma of 0.02
 C26-C25
 1.5 with sigma of 0.02
 O15-C11
 1.45 with sigma of 0.02
 C2-O5
 2.5 with sigma of 0.02
 O5-C1
 1.45 with sigma of 0.02
 C31-O44
 1.45 with sigma of 0.02
 C33-O33
 1.45 with sigma of 0.02
 C35-O35
 1.45 with sigma of 0.005
 C31-O35
 1.45 with sigma of 0.005
 C33-O35
 3 with sigma of 0.02
 O73-C73
 1.45 with sigma of 0.02
 O12-C12
 1.45 with sigma of 0.02
 O23-C23
 1.45 with sigma of 0.02
 C26-O26
 1.45 with sigma of 0.005
 C6-O6
 1.45 with sigma of 0.02
 C61-O74
 1.45 with sigma of 0.02
 C61-O65
 1.45 with sigma of 0.02
 C35-O36
 2.45 with sigma of 0.02
 O36-C36
 1.45 with sigma of 0.002
 O22-C22
 1.45 with sigma of 0.02
 C72-O72
 1.45 with sigma of 0.02
 C16-O16
 1.45 with sigma of 0.02
 O4-C4
 1.45 with sigma of 0.02
 O3-C3
 1.45 with sigma of 0.02
 O2-C2
 1.45 with sigma of 0.02
 O63-C63
 1.45 with sigma of 0.005
 O43-C43
 1.45 with sigma of 0.02
 C14-C15
 1.5 with sigma of 0.02
 C24-C25
 1.5 with sigma of 0.02
 C52-C53
 1.5 with sigma of 0.02
 C65-C64
 1.5 with sigma of 0.02
 C71-O4
 1.45 with sigma of 0.01
 O14-C1
 1.45 with sigma of 0.02
 O15-C15
 1.45 with sigma of 0.01
 C21-O25
 1.45 with sigma of 0.01
 O25-C25
 1.45 with sigma of 0.01
 O44-C44
 1.45 with sigma of 0.01
 C41-C42
 1.5 with sigma of 0.02
 C54-C55
 1.5 with sigma of 0.02
 O54-C41
 1.45 with sigma of 0.01
 C1-K2
 3.8 with sigma of 0.02
 C12-K1
 3.8 with sigma of 0.02
 O13-C13
 1.45 with sigma of 0.02
 C12-O12
 1.45 with sigma of 0.02
 C22-O22
 1.45 with sigma of 0.02
 C54-C53
 1.5 with sigma of 0.02
 O14-C14
 1.45 with sigma of 0.01
 C35-C34
 1.5 with sigma of 0.002
 C33-C34
 1.5 with sigma of 0.02
 C31-C32
 1.5 with sigma of 0.02
 C33-C32
 1.5 with sigma of 0.02
 O32-C32
 1.45 with sigma of 0.02
 C5-O5
 1.45 with sigma of 0.01
 C45-O45
 1.45 with sigma of 0.02
 C53-C52
 1.5 with sigma of 0.02
 O54-C54
 1.45 with sigma of 0.02
 O52-C52
 1.45 with sigma of 0.02
 C51-C52
 1.5 with sigma of 0.02
 C51-O64
 1.45 with sigma of 0.02
 C62-C63
 1.5 with sigma of 0.02
 C62-C61
 1.5 with sigma of 0.02
 C62-O62
 1.45 with sigma of 0.02
 C55-C56
 1.5 with sigma of 0.02
 O56-C56
 1.45 with sigma of 0.005
 O55-C51
 1.45 with sigma of 0.01
 O55-C55
 1.45 with sigma of 0.02
 C74-C75
 1.5 with sigma of 0.02
 C74-C73
 1.5 with sigma of 0.005
 C75-O75
 1.5 with sigma of 0.02
 O75-C71
 1.45 with sigma of 0.02
 C75-C76
 1.5 with sigma of 0.02
 O76-C76
 1.45 with sigma of 0.005
 C42-C44
 2.5 with sigma of 0.04
 C43-C45
 2.5 with sigma of 0.04
 C11-C13
 2.5 with sigma of 0.04
 C61-C65
 2.5 with sigma of 0.04
 C71-C75
 2.5 with sigma of 0.04
 C71-C73
 2.5 with sigma of 0.04
 C75-C73
 2.5 with sigma of 0.04
 O73-C72
 2.5 with sigma of 0.04
 O45-C44
 2.5 with sigma of 0.04
 O45-C42
 2.5 with sigma of 0.04
 O25-C24
 2.5 with sigma of 0.04
 O65-C64
 2.5 with sigma of 0.04
 O26-C25
 2.5 with sigma of 0.04
 C5-O4
 2.5 with sigma of 0.04
 O14-C2
 2.5 with sigma of 0.04
 O25-C22
 2.5 with sigma of 0.04
 C21-C25
 2.5 with sigma of 0.04
 C23-O24
 2.5 with sigma of 0.04
 C36-O35
 2.5 with sigma of 0.04
 C23-C25
 2.5 with sigma of 0.04
 C21-O22
 2.5 with sigma of 0.04
 C71-O72
 2.5 with sigma of 0.04
 C71-C4
 2.5 with sigma of 0.04
 O4-C3
 2.5 with sigma of 0.04
 O4-C5
 2.5 with sigma of 0.04
 O3-C2
 2.5 with sigma of 0.04
 C63-C65
 2.5 with sigma of 0.04
 C64-O65
 2.5 with sigma of 0.04
 C65-C61
 2.5 with sigma of 0.04
 C61-C63
 2.5 with sigma of 0.04
 C26-O25
 2.5 with sigma of 0.04
 C26-C24
 2.5 with sigma of 0.04
 C15-C11
 2.5 with sigma of 0.01
 C35-C31
 2.5 with sigma of 0.01
 C44-C31
 2.5 with sigma of 0.01
 C55-C51
 2.5 with sigma of 0.02
 C53-C55
 2.5 with sigma of 0.04
 C41-C45
 2.5 with sigma of 0.04
 C43-C41
 2.5 with sigma of 0.04
 C45-C41
 2.5 with sigma of 0.04
 C54-C41
 2.5 with sigma of 0.02
 C4-C71
 2.5 with sigma of 0.01
 C1-C14
 2.5 with sigma of 0.01
 O4-C72
 2.5 with sigma of 0.04
 C36-C34
 2.5 with sigma of 0.04
 C32-C34
 2.5 with sigma of 0.04
 C2-C4
 2.5 with sigma of 0.01
 C4-O5
 2.5 with sigma of 0.01
 O5-C4
 2.5 with sigma of 0.02
 O15-C12
 2.5 with sigma of 0.02
 O25-C26
 2.5 with sigma of 0.04
 C44-O45
 2.5 with sigma of 0.02
 C54-C52
 2.5 with sigma of 0.02
 C41-C54
 2.5 with sigma of 0.01
 O52-C51
 2.5 with sigma of 0.04
 C66-O65
 2.5 with sigma of 0.04
 C66-C64
 2.5 with sigma of 0.04
 C1-O2
 2.5 with sigma of 0.04
 C1-C3
 2.5 with sigma of 0.04
 C3-O2
 2.5 with sigma of 0.04
 C12-C14
 2.5 with sigma of 0.04
 O13-C14
 2.5 with sigma of 0.02
 O13-C12
 2.5 with sigma of 0.02
 C14-O15
 2.5 with sigma of 0.04
 O24-C23
 2.5 with sigma of 0.04
 O52-C53
 2.5 with sigma of 0.04
 C53-O52
 2.5 with sigma of 0.01
 O76-C75
 2.5 with sigma of 0.04
 C13-C15
 2.5 with sigma of 0.04
 O14-C13
 2.5 with sigma of 0.04
 O24-C25
 2.5 with sigma of 0.04
 C25-O24
 2.5 with sigma of 0.01
 C64-C62
 2.5 with sigma of 0.04
 C62-C64
 2.5 with sigma of 0.04
 O62-C61
 2.5 with sigma of 0.04
 O62-C63
 2.5 with sigma of 0.04
 C52-O55
 2.5 with sigma of 0.01
 C54-O55
 2.5 with sigma of 0.04
 O55-C56
 2.5 with sigma of 0.04
 C56-C54
 2.5 with sigma of 0.04
 O55-C54
 2.5 with sigma of 0.04
 C54-C56
 2.5 with sigma of 0.04
 C56-O55
 2.5 with sigma of 0.04
 C74-O73
 2.5 with sigma of 0.04
 O4-O75
 2.5 with sigma of 0.04
 O75-C76
 2.5 with sigma of 0.02
 O75-C74
 2.5 with sigma of 0.04
 C74-C76
 2.5 with sigma of 0.01
 C15-C13
 2.5 with sigma of 0.04
 C13-O14
 2.5 with sigma of 0.04
 O14-C15
 2.5 with sigma of 0.04
 C24-C11
 2.5 with sigma of 0.01
3. Rigid bond restraints
 C44
 with sigma for 1-2 distances of 0.01 and sigma for 1-3 distances of 0.01
 O36
 with sigma for 1-2 distances of 0.01 and sigma for 1-3 distances of 0.001
 O16
 with sigma for 1-2 distances of 0.01 and sigma for 1-3 distances of 0.01
4. Uiso/Uaniso restraints and constraints
All non-hydrogen atoms have similar U: within 2A with sigma of 0.04 and sigma
for terminal atoms of 0.08
: with sigma of 0.001 and sigma for terminal atoms of 0.00001
: with sigma of 0.001 and sigma for terminal atoms of 0.0001
: with sigma of 0.05 and sigma for terminal atoms of 0.01
: with sigma of 0.1 and sigma for terminal atoms of 0.2
Uanis(K2) \\sim Ueq, Uanis(K1) \\sim Ueq, Uanis(K3) \\sim Ueq: with sigma of
0.1 and sigma for terminal atoms of 0.2
5. Rigid body (RIGU) restrains
 All non-hydrogen atoms
 with sigma for 1-2 distances of 0.004 and sigma for 1-3 distances of 0.004
6. Others
 Uiso(O2)=Uiso(O3)=Uiso(O4)=Uiso(O5)=Uiso(O6)=Uiso(O12)=Uiso(O13)=Uiso(O14)=
 Uiso(O15)=Uiso(O16)=Uiso(O22)=Uiso(O23)=Uiso(O24)=Uiso(O25)=Uiso(O26)=
 Uiso(O32)=Uiso(O33)=Uiso(O34)=Uiso(O35)=Uiso(O36)=Uiso(O42)=Uiso(O43)=
 Uiso(O44)=Uiso(O45)=Uiso(O46)=Uiso(O52)=Uiso(O53)=Uiso(O54)=Uiso(O55)=
 Uiso(O56)=Uiso(O62)=Uiso(O63)=Uiso(O64)=Uiso(O65)=Uiso(O66)=Uiso(O72)=
 Uiso(O73)=Uiso(O74)=Uiso(O75)=Uiso(O76)=FVAR(1)
 Uiso(OA)=Uiso(OB)=FVAR(2)
7.a Ternary CH refined with riding coordinates:
 C1(H1), C2(H2), C3(H3), C4(H4), C5(H5), C11(H11), C12(H12), C13(H13),
 C14(H14), C15(H15), C21(H21), C22(H22), C23(H23), C24(H24), C25(H25), C31(H31),
  C32(H32), C33(H33), C34(H34), C35(H35), C41(H41), C42(H42), C43(H43),
 C44(H44), C45(H45), C51(H51), C52(H52), C53(H53), C54(H54), C55(H55), C61(H61),
  C62(H62), C63(H63), C64(H64), C65(H65), C71(H71), C72(H72), C73(H73),
 C74(H74), C75(H75)
7.b Secondary CH2 refined with riding coordinates:
 C6(H6B,H6A), C16(H16A,H16B), C26(H26B,H26A), C36(H36A,H36B), C46(H46A,H46B),
 C56(H56A,H56B), C66(H66A,H66B), C76(H76A,H76B)
7.c Tetrahedral OH refined with riding coordinates:
 O2(H2A), O3(H3A), O6(H6), O12(H12A), O13(H13A), O16(H16), O22(H22A),
 O23(H23A), O26(H26), O32(H32A), O33(H33A), O36(H36), O42(H42A), O43(H43A),
 O46(H46), O52(H52A), O53(H53A), O56(H56), O62(H62A), O63(H63A), O66(H66),
 O72(H72A), O73(H73A), O76(H76)
;
_shelx_fab_file
;
-24 -1 -2 36.2050 -18.4019
-24 -1 1 -24.6564 -0.1670
-23 -3 -2 26.6479 -21.3619
-23 -3 1 -1.9461 -9.7640
-23 -2 -3 13.0696 -7.3763
-23 -2 0 -41.1445 -0.5487
-23 -2 3 24.5590 16.6197
-23 -1 -4 -7.1995 -0.3961
-23 -1 -1 53.6249 -17.0351
-23 -1 2 30.1140 23.0990
-23 -1 5 -38.3513 -23.4701
-22 -5 1 -25.1645 -32.7966
-22 -4 -3 -12.8604 18.7095
-22 -4 0 -1.1844 10.6913
-22 -4 3 -1.4747 2.9571
-22 -3 -4 -15.7723 8.3081
-22 -3 -1 3.9397 -27.0534
-22 -3 2 0.3461 -24.6786
-22 -3 5 -26.5240 -0.2524
-22 -2 -5 -71.4026 5.0054
-22 -2 -2 -2.6803 -53.3713
-22 -2 1 16.1883 13.3266
-22 -2 4 7.0716 -24.1643
-22 -2 7 17.4642 19.2292
-22 -1 -6 25.1161 17.4434
-22 -1 -3 -12.1341 -32.3594
-22 -1 0 36.8381 -22.6649
-22 -1 3 -23.5999 1.2111
-22 -1 6 -14.4979 -4.1156
-21 -6 -3 12.3953 53.1105
-21 -6 0 11.2568 2.7095
-21 -6 3 2.9104 33.2041
-21 -5 -4 -0.6062 24.3074
-21 -5 -1 16.9212 4.8737
-21 -5 2 -16.5670 -21.3188
-21 -5 5 -8.0471 -1.3722
-21 -4 -5 48.8458 21.7165
-21 -4 -2 0.3220 8.9397
-21 -4 1 20.4081 -33.4423
-21 -4 4 28.1465 16.8412
-21 -3 -6 13.3921 47.5658
-21 -3 -3 -9.9631 -24.7691
-21 -3 0 6.0595 18.1248
-21 -3 3 -12.9935 -22.0554
-21 -3 6 -45.1818 12.2199
-21 -2 -7 67.5785 25.8943
-21 -2 -4 -7.6451 5.5831
-21 -2 -1 16.0267 -30.5786
-21 -2 2 12.3934 3.7725
-21 -2 5 34.8237 -2.2194
-21 -2 8 28.2226 -3.4698
-21 -1 -8 -7.0836 42.8537
-21 -1 -5 18.9077 52.8213
-21 -1 -2 -18.5183 -22.7880
-21 -1 1 -23.9605 42.9127
-21 -1 4 12.4963 1.1040
-21 -1 7 38.3304 10.9077
-20 -7 -4 -28.6872 20.3778
-20 -7 -1 24.0704 -19.6949
-20 -7 2 -4.3954 -7.0341
-20 -6 -5 -28.9647 -1.4201
-20 -6 -2 37.6109 8.7916
-20 -6 1 1.8979 -14.8025
-20 -6 4 -9.9614 9.6849
-20 -5 -6 -2.5910 -8.4950
-20 -5 -3 -6.6891 19.4157
-20 -5 0 32.2029 -22.6639
-20 -5 3 -42.4299 5.3887
-20 -5 6 -26.9915 -20.7587
-20 -4 -7 -57.7931 -34.3031
-20 -4 -4 -15.1047 17.5902
-20 -4 -1 -13.1058 21.9949
-20 -4 2 -6.4234 -10.7130
-20 -4 5 -8.2495 -19.3471
-20 -4 8 46.6679 -7.0877
-20 -3 -8 -1.1700 46.3610
-20 -3 -5 -10.4252 18.9284
-20 -3 -2 4.6031 -20.5437
-20 -3 1 -4.7542 -24.5879
-20 -3 4 3.4470 -49.0181
-20 -3 7 22.3052 -9.8137
-20 -2 -9 -29.7962 20.5784
-20 -2 -6 -28.5962 -13.5266
-20 -2 -3 -28.8963 8.7201
-20 -2 0 2.8185 21.1077
-20 -2 3 -6.4731 -22.4505
-20 -2 6 18.1976 -1.5215
-20 -2 9 -11.0104 18.5821
-20 -1 -10 -10.9053 -19.9843
-20 -1 -7 36.5108 -15.5333
-20 -1 -4 28.3939 32.3031
-20 -1 -1 19.1729 -0.3370
-20 -1 2 -41.5726 -55.9826
-20 -1 5 -4.8680 -15.7965
-20 -1 8 13.7785 -18.9237
-19 -9 -1 -14.1142 12.9642
-19 -9 2 -45.5686 -44.8056
-19 -8 -5 4.5056 37.6833
-19 -8 -2 9.6575 25.1605
-19 -8 1 5.7265 -39.4380
-19 -8 4 -5.5132 24.5093
-19 -7 -6 13.2188 41.5050
-19 -7 -3 -15.4514 6.1637
-19 -7 0 -21.3555 -18.5693
-19 -7 3 -33.0383 2.8287
-19 -7 6 8.9889 -19.9363
-19 -6 -7 14.8538 -17.0224
-19 -6 -4 7.2906 18.5448
-19 -6 -1 2.9049 -7.6883
-19 -6 2 35.1342 34.3706
-19 -6 5 18.2606 -5.8504
-19 -5 -8 -21.1784 49.7100
-19 -5 -5 8.1187 51.3098
-19 -5 -2 -20.3846 -8.4034
-19 -5 1 -5.9515 10.2190
-19 -5 4 25.2090 -38.7104
-19 -5 7 -24.4170 -40.5850
-19 -4 -9 34.3054 37.3716
-19 -4 -6 23.7122 -52.8927
-19 -4 -3 35.2260 25.5948
-19 -4 0 18.2118 -9.9845
-19 -4 3 18.0791 1.2861
-19 -4 6 -11.4599 -14.3323
-19 -4 9 13.4546 -3.7698
-19 -3 -10 -11.6539 -28.1739
-19 -3 -7 19.6331 92.2345
-19 -3 -4 -23.5727 88.5694
-19 -3 -1 -41.7520 19.3291
-19 -3 2 -19.9491 24.7717
-19 -3 5 5.8663 -20.4507
-19 -3 8 -20.8973 -23.8695
-19 -2 -11 0.6217 -3.1967
-19 -2 -8 35.7117 73.2120
-19 -2 -5 -21.1664 10.7563
-19 -2 -2 -36.3057 -7.8264
-19 -2 1 35.9723 -42.4344
-19 -2 4 25.8954 5.4234
-19 -2 7 3.9942 1.4168
-19 -2 10 2.5192 -19.8446
-19 -1 -9 -28.1586 18.2288
-19 -1 -6 -38.5723 20.4148
-19 -1 -3 22.7003 20.2042
-19 -1 0 16.0756 71.6365
-19 -1 3 -66.1171 57.9450
-19 -1 6 -30.6960 26.5484
-19 -1 9 -58.9573 25.3308
-18 -10 -2 -26.8720 17.1367
-18 -10 1 -13.3178 -40.5305
-18 -9 -3 -26.4082 -5.9802
-18 -9 0 39.1503 -24.5765
-18 -9 3 -27.8208 -15.2439
-18 -8 -7 -46.2340 -3.3442
-18 -8 -4 -32.2084 -37.3266
-18 -8 -1 -5.2480 3.9862
-18 -8 2 -41.0123 -4.3082
-18 -8 5 11.1354 34.9200
-18 -7 -8 -43.9814 30.2422
-18 -7 -5 -18.4825 -41.3640
-18 -7 -2 19.7422 4.2940
-18 -7 1 32.2477 12.8470
-18 -7 4 10.7074 16.8256
-18 -7 7 15.6496 -46.4036
-18 -6 -9 -18.4105 24.7906
-18 -6 -6 -45.6602 -88.5886
-18 -6 -3 33.4250 1.0124
-18 -6 0 -46.7372 8.0043
-18 -6 3 -13.9962 26.4446
-18 -6 6 22.6287 -38.3757
-18 -6 9 1.8332 28.2186
-18 -5 -10 -5.7088 -13.1803
-18 -5 -7 -29.1128 -26.4131
-18 -5 -4 3.5210 66.0545
-18 -5 -1 -5.8447 -0.5502
-18 -5 2 34.6372 51.4932
-18 -5 5 20.0465 -89.8394
-18 -5 8 45.7500 -53.7727
-18 -4 -8 -6.9591 67.4057
-18 -4 -5 -52.7521 15.7388
-18 -4 -2 16.1055 1.2539
-18 -4 1 3.0285 10.4165
-18 -4 4 9.4503 -77.0514
-18 -4 7 -49.2236 20.4918
-18 -4 10 11.5449 13.3532
-18 -3 -9 -6.1547 -23.3742
-18 -3 -6 -14.6635 28.7108
-18 -3 -3 35.1138 75.7678
-18 -3 0 2.2066 -33.0001
-18 -3 3 -39.9506 4.6351
-18 -3 6 -43.9943 -10.0645
-18 -3 9 23.1114 -32.5874
-18 -2 -10 8.7629 2.9638
-18 -2 -7 -0.1702 18.8090
-18 -2 -4 37.5699 36.4040
-18 -2 -1 -79.8936 59.6765
-18 -2 2 21.4907 -48.2986
-18 -2 5 -78.8106 -2.2314
-18 -2 8 -4.1630 -4.6476
-18 -2 11 -24.2800 0.3493
-18 -1 -11 -10.0187 -2.6009
-18 -1 -8 -33.4007 -21.9234
-18 -1 -5 -7.2296 -16.6644
-18 -1 -2 13.1498 25.2872
-18 -1 1 -1.7292 -85.1946
-18 -1 4 -73.8470 15.9748
-18 -1 7 -14.4970 -16.1838
-18 -1 10 10.9518 -36.4315
-17 -11 -3 -48.7602 10.2826
-17 -11 0 -31.6614 -1.9555
-17 -11 3 3.0402 7.4507
-17 -10 -4 -40.2356 -2.8181
-17 -10 -1 -32.0899 18.7506
-17 -10 2 5.5240 -7.4704
-17 -10 5 -46.1171 -19.7243
-17 -9 -5 5.9131 7.2585
-17 -9 -2 -49.4297 32.5205
-17 -9 1 -1.9391 -28.2090
-17 -9 4 -6.4037 -2.9034
-17 -9 7 -12.0620 20.7316
-17 -8 -6 12.0655 -55.3668
-17 -8 -3 -1.0858 -11.6662
-17 -8 0 13.7701 9.5166
-17 -8 3 -11.3663 -15.7559
-17 -8 6 -24.3190 9.8400
-17 -7 -7 -3.9796 48.6556
-17 -7 -4 10.4438 -31.1233
-17 -7 -1 -67.8462 -2.9357
-17 -7 2 -2.4486 42.9965
-17 -7 5 31.3472 12.1673
-17 -7 8 -22.6110 -52.5229
-17 -6 -8 33.5248 29.4406
-17 -6 -5 62.7297 -49.3781
-17 -6 -2 16.1478 -44.8626
-17 -6 1 46.7908 47.2779
-17 -6 4 -3.4481 -42.7236
-17 -6 7 -7.0196 -16.3236
-17 -6 10 14.6811 1.7414
-17 -5 -9 10.8721 -15.7462
-17 -5 -6 -9.5739 77.6316
-17 -5 -3 -5.6222 -9.3183
-17 -5 0 -75.4408 32.5598
-17 -5 3 -27.6706 50.2825
-17 -5 6 -12.1141 10.6331
-17 -5 9 -23.5149 -27.0485
-17 -4 -10 19.8347 15.2744
-17 -4 -7 51.9502 91.4064
-17 -4 -4 -39.4469 -15.4991
-17 -4 -1 26.1243 -32.9610
-17 -4 2 52.9656 26.7570
-17 -4 5 -19.7136 -20.6238
-17 -4 8 9.5530 -99.4105
-17 -4 11 9.7103 25.1025
-17 -3 -11 -21.9700 -10.4668
-17 -3 -8 -54.1230 14.3764
-17 -3 -5 -16.7392 89.4679
-17 -3 -2 -30.5830 45.6385
-17 -3 1 -40.9171 -2.1594
-17 -3 4 33.0318 94.6858
-17 -3 7 -82.3660 30.9830
-17 -3 10 29.7211 39.7417
-17 -2 -12 -11.7396 17.7239
-17 -2 -9 -4.3329 6.1918
-17 -2 -6 -22.5121 -6.9640
-17 -2 -3 7.2078 15.8825
-17 -2 0 7.7843 -29.6217
-17 -2 3 -62.5593 69.1400
-17 -2 6 16.8771 -18.6251
-17 -2 9 -54.5111 -25.7333
-17 -2 12 -11.7438 -10.0392
-17 -1 -13 -21.2265 -26.5405
-17 -1 -10 -4.0066 -5.4420
-17 -1 -7 -34.9948 -12.1987
-17 -1 -4 30.4616 31.7509
-17 -1 -1 6.6042 26.0935
-17 -1 2 24.3586 44.8595
-17 -1 5 3.1256 50.9192
-17 -1 8 -66.1683 29.4621
-17 -1 11 4.5569 55.7203
-16 -12 -4 -0.5689 11.6375
-16 -12 -1 -28.8850 6.0672
-16 -12 2 12.7467 41.3493
-16 -11 -5 20.7040 -0.6027
-16 -11 -2 -17.2513 25.6887
-16 -11 1 24.6634 -3.8380
-16 -11 4 -32.8448 37.4507
-16 -10 -6 -6.4423 -26.9763
-16 -10 -3 -5.4851 -1.2023
-16 -10 0 -43.4252 -19.3272
-16 -10 3 7.9741 57.5272
-16 -10 6 -23.8987 16.7187
-16 -9 -7 -45.8749 9.2865
-16 -9 -4 -10.9269 -17.8602
-16 -9 -1 19.1282 20.1063
-16 -9 2 41.0202 24.3153
-16 -9 5 -35.2867 -15.2643
-16 -9 8 9.6503 -0.5007
-16 -8 -8 -34.4211 36.5508
-16 -8 -5 11.7745 -85.9372
-16 -8 -2 12.7334 -22.1523
-16 -8 1 -17.3464 19.8062
-16 -8 4 -5.9138 -4.5107
-16 -8 7 -26.1602 72.9168
-16 -7 -9 -27.1824 -23.8780
-16 -7 -6 -4.3294 -48.5777
-16 -7 -3 30.4598 -25.6091
-16 -7 0 -2.5833 15.1004
-16 -7 3 -3.6719 -16.7032
-16 -7 6 36.8106 54.6875
-16 -7 9 20.4503 -11.5858
-16 -6 -10 -2.5367 30.6395
-16 -6 -7 -25.0203 33.1781
-16 -6 -4 7.7270 -53.6357
-16 -6 -1 -2.9030 -10.2458
-16 -6 2 -27.6891 39.7528
-16 -6 5 13.4348 13.8639
-16 -6 8 -32.1044 -39.2561
-16 -6 11 10.0510 7.7283
-16 -5 -11 -18.3230 16.5023
-16 -5 -8 -9.9774 -16.0521
-16 -5 -5 -0.6812 20.3789
-16 -5 -2 0.2456 -2.0401
-16 -5 1 1.0993 34.5141
-16 -5 4 -5.8227 30.4526
-16 -5 7 -19.4810 -43.0648
-16 -5 10 47.3188 43.6010
-16 -4 -12 2.9187 41.4378
-16 -4 -9 -24.0786 6.4099
-16 -4 -6 9.7569 80.5094
-16 -4 -3 -34.3295 35.1387
-16 -4 0 -40.3400 -22.6795
-16 -4 3 19.1974 72.2162
-16 -4 6 -56.6375 -38.8127
-16 -4 9 -29.5950 36.0579
-16 -4 12 2.8781 22.0795
-16 -3 -13 0.1276 10.6097
-16 -3 -10 -28.6193 -14.5228
-16 -3 -7 -23.7032 -21.1242
-16 -3 -4 21.0581 58.6682
-16 -3 -1 -8.1300 23.4407
-16 -3 2 3.7203 -20.7689
-16 -3 5 -57.6203 -32.3009
-16 -3 8 58.9376 -2.1991
-16 -3 11 -14.4336 14.4421
-16 -2 -11 -4.3167 43.6238
-16 -2 -8 -18.0486 -47.4365
-16 -2 -5 52.9597 16.5323
-16 -2 -2 -43.7560 18.9864
-16 -2 1 -37.7942 -45.9252
-16 -2 4 -51.2946 29.1181
-16 -2 7 20.5827 74.6342
-16 -2 10 10.3988 36.2858
-16 -2 13 29.6159 0.5771
-16 -1 -12 -22.8920 58.2745
-16 -1 -9 13.0475 -61.6805
-16 -1 -6 -56.7968 -1.6310
-16 -1 -3 40.9711 12.9196
-16 -1 0 -63.8858 -43.2232
-16 -1 3 26.3569 -19.5591
-16 -1 6 59.9659 84.7488
-16 -1 9 -24.8614 -69.4016
-16 -1 12 -24.9720 -33.8223
-15 -13 -2 -17.9044 0.7526
-15 -13 1 -14.7256 31.2915
-15 -13 4 21.9338 -18.1515
-15 -12 -6 -13.3178 -18.9296
-15 -12 -3 3.9377 -34.8736
-15 -12 0 -17.8984 22.6545
-15 -12 3 21.4251 4.5130
-15 -12 6 -17.4318 -24.7659
-15 -11 -7 -1.6735 15.0949
-15 -11 -4 -4.6430 4.3672
-15 -11 -1 -54.8102 18.4153
-15 -11 2 12.7149 61.8304
-15 -11 5 -36.7560 -1.2430
-15 -10 -8 -11.0404 3.8998
-15 -10 -5 -4.9822 -4.3216
-15 -10 -2 9.7576 -13.9491
-15 -10 1 21.2789 -15.3845
-15 -10 4 -66.5394 -19.7792
-15 -10 7 -47.0145 41.3575
-15 -9 -9 9.7658 -5.3065
-15 -9 -6 22.4561 1.3976
-15 -9 -3 -4.3053 -8.7537
-15 -9 0 -50.2696 23.3383
-15 -9 3 8.4235 29.9314
-15 -9 6 7.9086 25.3373
-15 -9 9 -7.0340 -30.1676
-15 -8 -10 -10.2630 -8.0709
-15 -8 -7 -10.9971 4.0841
-15 -8 -4 8.8040 -63.5301
-15 -8 -1 12.7977 18.5130
-15 -8 2 72.6315 -3.7448
-15 -8 5 -78.1173 -36.9061
-15 -8 8 -42.2535 -4.6988
-15 -7 -11 -12.6541 -3.4490
-15 -7 -8 -1.6670 -7.3373
-15 -7 -5 53.5628 3.7492
-15 -7 -2 -16.4042 8.3760
-15 -7 1 -23.6672 10.1624
-15 -7 4 -9.9468 -10.5588
-15 -7 7 -52.1471 79.2861
-15 -7 10 -5.7719 8.3249
-15 -6 -12 8.8809 36.3830
-15 -6 -9 -12.5764 10.1426
-15 -6 -6 43.9472 2.7314
-15 -6 -3 -40.0961 -23.4693
-15 -6 0 93.1199 19.4070
-15 -6 3 -57.4534 3.9454
-15 -6 6 -52.7423 -3.4735
-15 -6 9 -14.4565 16.7385
-15 -6 12 58.2803 -13.9353
-15 -5 -10 -60.1079 -2.0858
-15 -5 -7 19.5382 74.3219
-15 -5 -4 -49.3142 15.0203
-15 -5 -1 45.5833 -44.1010
-15 -5 2 -49.3829 26.7684
-15 -5 5 2.4382 67.1989
-15 -5 8 -53.8021 -40.0997
-15 -5 11 37.3077 43.8709
-15 -4 -11 -13.0999 53.6009
-15 -4 -8 -32.1348 13.9417
-15 -4 -5 -6.7240 8.0382
-15 -4 -2 0.3129 -36.1458
-15 -4 1 -35.0992 -0.4856
-15 -4 4 -10.8616 64.7967
-15 -4 7 14.6758 -21.4664
-15 -4 10 60.0021 -4.9297
-15 -4 13 39.9822 8.2375
-15 -3 -12 -27.3156 17.9988
-15 -3 -9 -82.0682 -75.4259
-15 -3 -6 -63.2776 54.0074
-15 -3 -3 53.4309 29.6989
-15 -3 0 -44.3272 8.6331
-15 -3 3 45.9173 110.8285
-15 -3 6 60.6533 16.0223
-15 -3 9 -15.1824 77.9693
-15 -3 12 0.1867 23.0193
-15 -2 -13 50.5606 0.4294
-15 -2 -10 -26.3322 -37.0520
-15 -2 -7 -44.5104 34.0004
-15 -2 -4 46.4313 -40.4331
-15 -2 -1 51.2014 -50.7645
-15 -2 2 -15.1888 -17.9984
-15 -2 5 4.0906 22.9521
-15 -2 8 57.4003 -42.9295
-15 -2 11 -59.7299 -0.8582
-15 -2 14 7.3488 18.7998
-15 -1 -14 22.6534 -63.3327
-15 -1 -11 -111.4637 6.4451
-15 -1 -8 9.5238 -32.6455
-15 -1 -5 33.5178 35.0299
-15 -1 -2 -13.5429 -17.9140
-15 -1 1 -26.4221 23.0562
-15 -1 4 94.2323 -7.0732
-15 -1 7 -18.0222 124.3330
-15 -1 10 0.0692 71.1636
-15 -1 13 19.0086 38.9671
-14 -14 -3 65.8186 -3.7594
-14 -14 0 -44.4813 62.0643
-14 -13 -4 45.4609 -11.9405
-14 -13 -1 -27.6263 44.7182
-14 -13 2 14.6084 13.9069
-14 -13 5 -16.5590 -21.5125
-14 -12 -8 7.5405 13.6384
-14 -12 -5 29.3964 28.3631
-14 -12 -2 -9.2397 3.8582
-14 -12 1 -4.1979 16.0980
-14 -12 4 10.0531 22.2823
-14 -12 7 0.9392 31.6644
-14 -11 -9 7.7540 7.9962
-14 -11 -6 17.9255 9.7789
-14 -11 -3 75.0201 -17.9204
-14 -11 0 2.3083 -61.8169
-14 -11 3 -47.2919 27.8398
-14 -11 6 2.2718 55.2244
-14 -11 9 -0.7458 -37.9905
-14 -10 -10 11.3227 18.0007
-14 -10 -7 -8.7618 33.8378
-14 -10 -4 -23.7776 30.1722
-14 -10 -1 -5.4241 -81.6218
-14 -10 2 -31.8693 43.6260
-14 -10 5 24.1427 8.8968
-14 -10 8 -49.0117 -32.7958
-14 -9 -11 -15.2578 -12.8820
-14 -9 -8 -45.4835 -5.0518
-14 -9 -5 6.0153 -4.2034
-14 -9 -2 33.1874 -8.5591
-14 -9 1 -2.7310 -44.6631
-14 -9 4 -40.9983 14.2335
-14 -9 7 -11.2010 32.5439
-14 -9 10 30.0749 21.7087
-14 -8 -9 -18.6043 11.8305
-14 -8 -6 -36.1033 -30.5512
-14 -8 -3 -15.4704 -9.4333
-14 -8 0 -61.6995 -38.0746
-14 -8 3 52.0093 24.6203
-14 -8 6 -4.8110 -26.4504
-14 -8 9 -62.0185 7.8567
-14 -7 -10 -36.2649 10.2185
-14 -7 -7 -54.2815 -55.2865
-14 -7 -4 -16.3953 11.0676
-14 -7 -1 53.8649 52.7627
-14 -7 2 29.5946 -69.5923
-14 -7 5 -51.5666 -87.2226
-14 -7 8 -8.4022 66.1352
-14 -7 11 9.9271 5.6483
-14 -6 -11 -12.3759 40.8424
-14 -6 -8 1.1774 -3.7806
-14 -6 -5 1.5288 -32.1014
-14 -6 -2 -24.6939 -5.6277
-14 -6 1 21.3750 15.8315
-14 -6 4 -31.0560 10.6060
-14 -6 7 -87.3422 46.2997
-14 -6 10 18.3619 35.7264
-14 -6 13 28.8822 -24.7861
-14 -5 -12 19.3186 37.7092
-14 -5 -9 -53.4648 -18.3682
-14 -5 -6 7.5483 2.6067
-14 -5 -3 -35.4475 81.0900
-14 -5 0 -28.9699 5.0698
-14 -5 3 10.2017 -23.2504
-14 -5 6 -48.5876 45.9295
-14 -5 9 57.4937 24.2723
-14 -5 12 -22.8795 -14.9368
-14 -4 -13 19.1615 0.2094
-14 -4 -10 -42.1883 14.8212
-14 -4 -7 13.0343 30.4563
-14 -4 -4 -16.3683 -24.9968
-14 -4 -1 18.6300 -51.7057
-14 -4 2 -0.3152 -23.0987
-14 -4 5 -35.9571 3.0295
-14 -4 8 70.9104 -21.1991
-14 -4 11 -21.5756 29.0443
-14 -4 14 0.9430 4.0622
-14 -3 -14 49.0681 16.6750
-14 -3 -11 -72.1422 30.3589
-14 -3 -8 -14.2571 -47.3268
-14 -3 -5 -17.6772 -27.7583
-14 -3 -2 -31.0848 10.8941
-14 -3 1 -12.0888 54.0388
-14 -3 4 -65.0258 46.5781
-14 -3 7 20.9883 64.5015
-14 -3 10 39.8616 21.7388
-14 -3 13 -1.0440 4.5953
-14 -2 -12 -29.5996 75.4216
-14 -2 -9 -6.6595 -74.4166
-14 -2 -6 2.1504 70.4403
-14 -2 -3 -20.1452 -52.9715
-14 -2 0 22.1729 -54.0569
-14 -2 3 -1.0488 -58.3644
-14 -2 6 41.3800 115.1702
-14 -2 9 -27.7964 8.2225
-14 -2 12 -7.7897 -22.7645
-14 -1 -13 -30.8457 71.5714
-14 -1 -10 -34.2280 -64.8697
-14 -1 -7 53.4716 57.5974
-14 -1 -4 -31.9760 -51.5221
-14 -1 -1 43.1587 -3.1690
-14 -1 2 -28.9085 -15.1754
-14 -1 5 -24.1058 36.8024
-14 -1 8 3.9032 24.2262
-14 -1 11 -15.3622 -114.5330
-14 -1 14 14.2992 25.8846
-13 -13 -6 20.9008 -11.6647
-13 -13 -3 24.5429 -3.3808
-13 -13 0 -60.5961 74.0322
-13 -12 -7 20.8313 30.6472
-13 -12 -4 -18.1780 17.9335
-13 -12 -1 -38.3441 -30.8745
-13 -12 2 16.0244 21.3750
-13 -12 5 16.4876 -27.9685
-13 -12 8 -5.7616 -5.1728
-13 -11 -8 27.9090 30.5970
-13 -11 -5 -25.5574 62.6637
-13 -11 -2 -1.3283 8.0727
-13 -11 1 11.1182 -51.3819
-13 -11 4 -15.8798 -21.6807
-13 -11 7 4.8756 47.3546
-13 -11 10 -9.9388 11.2668
-13 -10 -9 -8.0822 10.0134
-13 -10 -6 -2.7490 34.2927
-13 -10 -3 -14.4445 -14.0919
-13 -10 0 12.8433 -89.1222
-13 -10 3 13.7206 1.9346
-13 -10 6 -34.2682 -16.1039
-13 -10 9 -9.4837 6.5859
-13 -9 -10 -2.4718 4.4456
-13 -9 -7 -10.4155 28.9663
-13 -9 -4 -2.2114 10.0093
-13 -9 -1 -5.4786 14.1480
-13 -9 2 46.1806 -10.4063
-13 -9 5 -66.8346 -6.5736
-13 -9 8 -18.0725 -47.7971
-13 -9 11 0.9599 18.3854
-13 -8 -11 7.6485 -5.3778
-13 -8 -8 -12.2887 -31.8540
-13 -8 -5 8.0907 -24.3176
-13 -8 -2 -26.4712 26.6722
-13 -8 1 74.7548 22.3353
-13 -8 4 -110.8733 -0.4878
-13 -8 7 -55.1775 25.2638
-13 -8 10 7.9391 26.0560
-13 -7 -12 1.9107 15.2278
-13 -7 -9 22.8180 -16.5701
-13 -7 -6 -26.5512 -14.2329
-13 -7 -3 -11.3136 34.6370
-13 -7 0 16.9629 135.3085
-13 -7 3 -25.0444 -43.6035
-13 -7 6 16.5854 -67.8136
-13 -7 9 -36.9869 45.2176
-13 -7 12 14.9237 -32.3024
-13 -6 -13 21.9706 22.9676
-13 -6 -10 -44.4754 21.0329
-13 -6 -4 -8.8321 -64.9597
-13 -6 -1 71.9681 22.7968
-13 -6 2 43.5027 -58.7978
-13 -6 5 -79.6590 -10.6830
-13 -6 8 -16.5980 -33.5197
-13 -6 11 17.4336 -15.1934
-13 -5 -14 7.8492 7.0434
-13 -5 -11 -37.0334 22.2066
-13 -5 -8 -31.5539 -24.8337
-13 -5 -5 24.1163 -38.0840
-13 -5 -2 55.0976 64.4279
-13 -5 1 -35.9586 63.0140
-13 -5 4 20.0618 -30.2524
-13 -5 7 -40.3935 82.4471
-13 -5 10 29.0776 6.7302
-13 -5 13 17.6785 -14.0681
-13 -4 -12 0.4518 15.5414
-13 -4 -9 -102.1693 23.7015
-13 -4 -6 48.6785 -15.5827
-13 -4 -3 35.0062 33.9919
-13 -4 0 14.3038 -60.5081
-13 -4 3 -70.9016 1.9286
-13 -4 6 35.9196 33.1049
-13 -4 9 18.0722 -42.7773
-13 -4 12 -12.6807 -58.6168
-13 -3 -13 -32.6163 9.8031
-13 -3 -10 -52.7981 -32.0571
-13 -3 -7 38.2454 16.7769
-13 -3 -4 -4.1660 -43.1645
-13 -3 -1 80.7094 -45.0865
-13 -3 2 -16.6901 57.5207
-13 -3 5 6.6167 55.3356
-13 -3 8 -31.1446 -70.1345
-13 -3 11 -36.2118 70.8694
-13 -3 14 42.0574 3.9586
-13 -2 -14 4.8166 -34.6216
-13 -2 -11 -25.5507 -5.2625
-13 -2 -8 42.7616 44.1564
-13 -2 -5 -21.8426 55.4949
-13 -2 -2 37.9458 -34.7139
-13 -2 1 -112.7156 -3.1410
-13 -2 4 90.9575 -55.4394
-13 -2 7 -81.4950 75.2644
-13 -2 10 -9.5379 -40.9821
-13 -2 13 14.5084 14.5407
-13 -1 -15 2.6791 -51.0006
-13 -1 -12 -69.1138 -5.6734
-13 -1 -9 29.0114 -1.3075
-13 -1 -6 12.7711 72.5391
-13 -1 -3 29.2081 -41.7850
-13 -1 0 -37.0296 -5.2303
-13 -1 3 157.7950 -38.1638
-13 -1 6 -107.7766 13.1227
-13 -1 9 -45.8565 103.4093
-13 -1 12 -48.0662 4.9455
-13 -1 15 41.4946 17.9922
-12 -12 -9 -22.8127 -3.9957
-12 -12 -6 39.2023 19.4953
-12 -12 -3 13.4051 23.7882
-12 -12 0 -59.3073 -144.6130
-12 -11 -10 -13.3504 2.9402
-12 -11 -7 20.9060 35.0672
-12 -11 -4 2.3559 19.1569
-12 -11 -1 13.2271 -45.2697
-12 -11 2 -44.5918 -43.3049
-12 -11 5 -16.3219 -24.6315
-12 -11 8 29.9554 14.7229
-12 -11 11 13.8901 -6.1072
-12 -10 -11 2.1396 -48.4981
-12 -10 -8 14.8980 -0.2462
-12 -10 -5 4.4597 29.9842
-12 -10 -2 -100.4588 -39.3939
-12 -10 1 -19.7705 -74.8196
-12 -10 4 -24.2286 7.1265
-12 -10 7 12.9502 -45.6918
-12 -10 10 -5.7930 12.4251
-12 -9 -12 0.7568 -38.8527
-12 -9 -9 23.9589 16.1645
-12 -9 -6 -59.7383 2.7691
-12 -9 -3 38.3323 7.4892
-12 -9 0 -56.7587 38.0956
-12 -9 3 27.4561 -78.7792
-12 -9 6 14.3704 -1.1614
-12 -9 9 19.6387 29.6923
-12 -9 12 -15.8518 0.4100
-12 -8 -13 -1.7225 -15.5367
-12 -8 -10 40.1881 0.7385
-12 -8 -7 -13.3791 -43.4621
-12 -8 -4 -30.3096 -5.6370
-12 -8 -1 -52.6785 2.3445
-12 -8 2 52.8485 -57.3942
-12 -8 5 53.6048 -32.6995
-12 -8 8 -53.2113 -51.7833
-12 -8 11 -22.2774 -16.2480
-12 -7 -11 -13.5757 12.1147
-12 -7 -8 35.9530 -84.7072
-12 -7 -5 -9.7393 1.3982
-12 -7 -2 -66.3343 25.1025
-12 -7 1 62.7019 112.6685
-12 -7 4 -19.8766 -6.0874
-12 -7 7 -88.1999 14.6443
-12 -7 10 20.5469 40.9291
-12 -7 13 -31.2826 -6.6407
-12 -6 -12 30.1672 25.1902
-12 -6 -9 12.6624 12.4989
-12 -6 -6 -0.9391 -15.6308
-12 -6 -3 -22.2792 -2.7053
-12 -6 0 -19.4723 -46.1469
-12 -6 3 76.3684 -37.1659
-12 -6 6 -2.7931 -14.7548
-12 -6 9 -19.1254 16.7479
-12 -6 12 18.8550 -26.3469
-12 -5 -13 -28.5756 3.8255
-12 -5 -10 21.4198 22.2311
-12 -5 -7 42.4511 -59.0237
-12 -5 -4 -11.1924 -49.3517
-12 -5 -1 -7.0072 32.5595
-12 -5 2 -2.2190 82.9237
-12 -5 5 -107.7917 -68.0745
-12 -5 8 53.5422 56.3441
-12 -5 11 -46.9813 -23.1564
-12 -5 14 -24.8751 20.1613
-12 -4 -14 -19.9523 -8.8888
-12 -4 -11 35.3931 28.7470
-12 -4 -8 -14.7260 17.7534
-12 -4 -5 -34.1515 -74.1231
-12 -4 -2 4.8324 47.8145
-12 -4 1 9.6127 -22.6111
-12 -4 4 -73.5569 -49.5543
-12 -4 7 -3.9322 85.2751
-12 -4 10 37.8528 23.0233
-12 -4 13 74.1416 -3.6827
-12 -3 -15 -10.7554 -8.8632
-12 -3 -12 -7.9971 100.9270
-12 -3 -9 47.4629 47.8933
-12 -3 -6 38.5043 -14.8878
-12 -3 -3 32.7290 -38.2570
-12 -3 0 -94.8788 1.7084
-12 -3 3 25.6291 13.4926
-12 -3 6 -167.8932 216.8567
-12 -3 9 105.6827 -100.1233
-12 -3 12 -84.3532 -41.7257
-12 -3 15 7.6170 -18.5089
-12 -2 -13 -9.2642 52.9531
-12 -2 -10 -24.9601 -29.5434
-12 -2 -7 -19.2973 40.7254
-12 -2 -4 -19.8360 -10.0319
-12 -2 -1 44.8799 -2.3184
-12 -2 2 -35.1700 -108.3415
-12 -2 5 -28.0963 52.1518
-12 -2 8 85.8050 -100.5167
-12 -2 11 -46.9847 -30.1588
-12 -2 14 17.4267 -12.2943
-12 -1 -14 9.2886 74.0549
-12 -1 -11 -96.2569 -37.4492
-12 -1 -8 62.7413 35.8715
-12 -1 -5 38.5887 19.4614
-12 -1 -2 -45.5932 -32.8164
-12 -1 1 12.1243 20.0811
-12 -1 4 46.8174 58.3822
-12 -1 7 -51.4776 -66.4565
-12 -1 10 11.8996 -45.3801
-12 -1 13 -37.9134 -18.5463
-12 -1 16 34.7943 8.4211
-11 -11 -12 -5.3974 -8.5519
-11 -11 -9 26.9089 26.2618
-11 -11 -6 9.8259 -26.1877
-11 -11 -3 -14.8247 -49.9411
-11 -11 0 9.7413 115.2628
-11 -10 -10 11.6703 -20.8495
-11 -10 -7 0.6690 -16.2992
-11 -10 -4 30.9241 -41.1150
-11 -10 -1 -51.8902 132.3578
-11 -10 2 23.5547 -22.0790
-11 -10 5 -40.3904 38.8557
-11 -10 8 28.6482 -37.0867
-11 -10 11 -13.2104 -8.6476
-11 -9 -11 -6.6752 -40.4554
-11 -9 -8 66.2230 -21.2659
-11 -9 -5 -20.7229 57.8985
-11 -9 -2 -20.6756 103.2858
-11 -9 1 52.1089 117.9724
-11 -9 4 -14.1818 -61.8658
-11 -9 7 -21.1629 3.6587
-11 -9 10 -8.5359 25.4779
-11 -9 13 -1.5644 21.1631
-11 -8 -12 -13.0020 -17.6782
-11 -8 -9 4.1012 15.3739
-11 -8 -6 14.0148 7.1783
-11 -8 -3 33.5145 -0.7834
-11 -8 0 -18.0373 69.4641
-11 -8 3 -0.7646 19.1760
-11 -8 6 -22.5820 -2.6008
-11 -8 9 9.9946 61.2833
-11 -8 12 -3.6126 -14.5880
-11 -7 -13 6.0375 16.3184
-11 -7 -10 -11.7348 20.8971
-11 -7 -7 22.2477 -30.1871
-11 -7 -4 26.3298 5.7442
-11 -7 -1 -9.0673 12.1924
-11 -7 2 14.3699 73.6523
-11 -7 5 27.5736 -69.8892
-11 -7 8 -32.3017 -36.3827
-11 -7 11 -5.1824 16.2438
-11 -7 14 5.6611 -20.6704
-11 -6 -14 -21.1170 -36.4527
-11 -6 -11 22.7131 26.5793
-11 -6 -8 -10.6824 -36.5813
-11 -6 -5 18.1095 -25.3281
-11 -6 -2 -4.1104 24.4546
-11 -6 1 -19.0442 -8.0308
-11 -6 4 -23.3739 -43.4501
-11 -6 7 -31.8152 87.1940
-11 -6 10 0.7851 -41.2587
-11 -6 13 8.3072 -25.8001
-11 -5 -15 -41.1690 -3.1587
-11 -5 -12 15.5418 33.3568
-11 -5 -9 1.9290 63.8011
-11 -5 -6 -19.8150 -85.0709
-11 -5 -3 132.5538 50.2202
-11 -5 0 -92.6166 -9.3473
-11 -5 3 7.1213 74.8954
-11 -5 6 12.1854 -45.4527
-11 -5 9 -3.3332 48.2740
-11 -5 12 -19.7142 -32.3956
-11 -5 15 28.6867 15.4637
-11 -4 -13 -6.5407 17.5285
-11 -4 -10 38.5376 27.6117
-11 -4 -7 -18.8529 -25.2250
-11 -4 -4 52.0384 31.7513
-11 -4 -1 -52.8914 29.9391
-11 -4 2 -43.1092 -62.3011
-11 -4 5 -29.9789 50.4144
-11 -4 8 68.0438 -105.6672
-11 -4 11 -89.6099 16.7403
-11 -4 14 9.2445 -8.2738
-11 -3 -14 -25.5798 -23.0091
-11 -3 -11 -25.5188 59.8883
-11 -3 -8 13.6282 50.9697
-11 -3 -5 35.7343 49.5878
-11 -3 -2 34.8594 -37.3742
-11 -3 1 16.0119 36.1506
-11 -3 4 -0.4903 28.1947
-11 -3 7 -145.8347 58.0948
-11 -3 10 -61.9390 3.7131
-11 -3 13 28.4646 51.5002
-11 -3 16 53.3770 12.9691
-11 -2 -15 -14.9340 17.0066
-11 -2 -12 21.5821 19.1271
-11 -2 -9 -16.0890 88.4549
-11 -2 -6 127.7968 76.6299
-11 -2 -3 -31.9268 1.9458
-11 -2 0 -53.1392 68.6709
-11 -2 3 -7.3108 -52.1835
-11 -2 6 54.2679 41.7849
-11 -2 9 -15.1820 -39.9881
-11 -2 12 -23.7064 -2.1225
-11 -2 15 11.3292 -22.7780
-11 -1 -16 15.4391 11.2974
-11 -1 -13 -32.2335 -1.8224
-11 -1 -10 -34.4050 18.0668
-11 -1 -7 45.7003 8.1199
-11 -1 -4 -18.1207 6.0994
-11 -1 -1 41.3631 12.7759
-11 -1 2 9.6694 -50.2896
-11 -1 5 28.3273 61.9645
-11 -1 8 -42.6026 -125.8785
-11 -1 11 19.3065 80.3121
-11 -1 14 -14.3368 -40.0685
-10 -10 -12 9.0161 -6.5169
-10 -10 -9 11.4926 2.2447
-10 -10 -6 6.8804 16.0435
-10 -10 -3 34.5474 -110.3034
-10 -10 0 -86.4792 55.4332
-10 -9 -13 2.2902 5.3583
-10 -9 -10 -8.4806 -13.0702
-10 -9 -7 4.9141 44.9914
-10 -9 -4 -2.9302 -15.7662
-10 -9 -1 -5.6726 144.5679
-10 -9 2 19.2541 51.1583
-10 -9 5 46.2094 -39.7453
-10 -9 8 10.7671 46.2973
-10 -9 11 -38.2685 1.5559
-10 -9 14 4.2214 -6.6952
-10 -8 -14 36.9465 -16.4154
-10 -8 -11 -39.7768 -19.3129
-10 -8 -8 59.2489 6.1255
-10 -8 -5 52.9814 17.3834
-10 -8 -2 -61.0794 -55.9867
-10 -8 1 51.4875 -48.7062
-10 -8 4 27.3868 -4.9773
-10 -8 7 -26.2981 73.8989
-10 -8 13 30.8328 3.1991
-10 -7 -15 -40.4158 -35.7505
-10 -7 -12 21.5768 -2.1784
-10 -7 -9 38.9884 53.8470
-10 -7 -6 13.1829 -35.5492
-10 -7 -3 14.6677 -10.2683
-10 -7 0 -122.9774 -50.9813
-10 -7 3 38.2092 124.7696
-10 -7 6 -17.3014 53.6317
-10 -7 9 6.7011 28.0186
-10 -7 12 -58.7553 12.3339
-10 -7 15 -19.2800 25.2683
-10 -6 -13 10.5948 -24.1564
-10 -6 -10 35.7917 20.5862
-10 -6 -7 -5.1327 -55.0041
-10 -6 -4 -41.6576 69.2737
-10 -6 -1 -28.7164 -44.3671
-10 -6 2 -15.2739 -22.0675
-10 -6 5 87.4083 -81.1675
-10 -6 8 63.1897 20.7167
-10 -6 11 -11.0848 65.6350
-10 -6 14 28.8354 17.8116
-10 -5 -14 -49.5757 -18.6996
-10 -5 -11 73.8137 14.8519
-10 -5 -8 77.4121 -63.0955
-10 -5 -5 -40.8865 -38.4389
-10 -5 -2 -41.5937 -53.6518
-10 -5 1 3.5702 30.7235
-10 -5 4 -58.2109 111.2638
-10 -5 7 -11.2050 29.1516
-10 -5 10 -28.3017 57.1911
-10 -5 13 -35.1175 18.8992
-10 -4 -15 -9.1444 13.6071
-10 -4 -12 42.4905 64.5113
-10 -4 -9 -18.9408 66.8709
-10 -4 -6 0.7365 7.6836
-10 -4 -3 40.2969 28.8036
-10 -4 0 -42.6444 7.9884
-10 -4 3 -49.9183 -45.7667
-10 -4 6 -19.8831 65.0686
-10 -4 9 25.3259 22.7097
-10 -4 12 43.9065 26.7721
-10 -4 15 49.2683 -6.3805
-10 -3 -16 17.4791 10.7410
-10 -3 -13 -41.3901 20.3057
-10 -3 -10 35.5225 -1.6437
-10 -3 -7 104.3077 -4.6030
-10 -3 -4 -51.8629 -42.8167
-10 -3 -1 23.8658 -21.2322
-10 -3 2 -19.6256 -49.2857
-10 -3 5 -99.2967 125.6838
-10 -3 8 86.8800 -63.6577
-10 -3 11 -41.0231 -54.8979
-10 -3 14 -25.7125 11.2847
-10 -2 -14 -35.9550 13.4217
-10 -2 -11 57.0106 23.3922
-10 -2 -8 -47.1467 17.1772
-10 -2 -5 46.5218 21.9699
-10 -2 -2 -36.3855 -6.6183
-10 -2 1 30.5857 18.9925
-10 -2 4 -144.6525 71.1040
-10 -2 7 12.4806 -130.7040
-10 -2 10 -1.2685 -31.1257
-10 -2 13 54.1002 16.6380
-10 -2 16 25.2408 9.6732
-10 -1 -15 -7.0016 26.2720
-10 -1 -12 19.0812 39.4376
-10 -1 -9 26.2715 1.5436
-10 -1 -6 -12.6809 24.8674
-10 -1 -3 13.0614 -62.1775
-10 -1 0 -1.9200 57.4139
-10 -1 3 36.6747 12.0094
-10 -1 6 44.9148 19.6507
-10 -1 9 32.1010 -101.1145
-10 -1 12 1.2624 28.3443
-10 -1 15 -16.1637 -22.8075
-9 -9 -12 -17.8261 26.4953
-9 -9 -9 11.9974 61.6446
-9 -9 -6 19.4669 6.0766
-9 -9 -3 -12.0052 -24.4754
-9 -9 0 -14.9988 147.4792
-9 -8 -13 32.2460 14.7079
-9 -8 -10 -59.6876 12.4684
-9 -8 -7 -51.3051 38.9619
-9 -8 -4 8.8519 -5.9514
-9 -8 -1 7.2520 51.9995
-9 -8 2 -34.8860 -87.9492
-9 -8 5 -1.0013 -6.9787
-9 -8 8 15.6468 -8.1392
-9 -8 11 -31.3408 59.5299
-9 -8 14 11.3845 -37.7945
-9 -7 -14 0.5724 -22.0536
-9 -7 -11 -10.7723 12.0138
-9 -7 -8 3.0672 -44.6170
-9 -7 -5 -30.6593 -6.4133
-9 -7 -2 18.6140 -28.3141
-9 -7 1 -8.1623 -64.1431
-9 -7 4 -28.6590 -56.7668
-9 -7 7 -11.8175 115.2684
-9 -7 10 -25.6003 5.9403
-9 -7 13 -6.5394 -0.0234
-9 -6 -15 -19.9570 39.8289
-9 -6 -12 61.5170 -41.6064
-9 -6 -9 -44.5930 24.9911
-9 -6 -6 -19.1306 -27.2450
-9 -6 -3 -14.9666 71.3395
-9 -6 0 -67.0287 -85.3062
-9 -6 3 -17.0178 53.6001
-9 -6 6 91.0987 -19.3858
-9 -6 9 -38.4918 46.8570
-9 -6 12 -27.6408 -1.6652
-9 -6 15 20.9768 -19.6129
-9 -5 -16 34.3952 20.8896
-9 -5 -13 -39.8867 -3.2521
-9 -5 -10 -11.0729 -7.2438
-9 -5 -7 -2.6256 -63.5447
-9 -5 -4 -39.2639 30.0372
-9 -5 -1 81.9869 -18.7880
-9 -5 2 -33.4293 35.4080
-9 -5 5 22.6397 37.3169
-9 -5 8 14.1391 -34.3982
-9 -5 11 -21.6970 103.0093
-9 -5 14 12.9751 -13.1236
-9 -4 -14 -26.8025 -32.6354
-9 -4 -11 68.6459 38.6855
-9 -4 -8 7.0668 -27.6838
-9 -4 -5 -60.0197 90.9330
-9 -4 -2 -17.5517 23.4634
-9 -4 1 -39.7863 52.7138
-9 -4 4 38.1041 41.0216
-9 -4 7 -42.4080 10.1110
-9 -4 10 -73.0635 4.7808
-9 -4 13 7.5021 41.4512
-9 -4 16 15.3541 34.4820
-9 -3 -15 11.6150 2.1171
-9 -3 -12 -15.3594 27.5166
-9 -3 -9 -52.9985 79.9767
-9 -3 -6 -17.9068 78.1266
-9 -3 -3 67.0413 22.3945
-9 -3 0 55.3968 23.7475
-9 -3 3 30.2272 34.1986
-9 -3 6 -68.4118 -14.8311
-9 -3 9 -46.0423 89.9138
-9 -3 12 -22.2435 16.7781
-9 -3 15 45.0708 21.9475
-9 -2 -16 -18.6399 22.7446
-9 -2 -13 -57.8172 -5.7218
-9 -2 -10 32.8694 17.5998
-9 -2 -7 38.7984 23.1727
-9 -2 -4 34.3855 -33.7422
-9 -2 -1 -61.3785 22.9006
-9 -2 2 -70.7684 -28.1506
-9 -2 5 57.3207 77.7671
-9 -2 8 10.2186 -97.8250
-9 -2 11 22.5126 19.2234
-9 -2 14 -11.5611 -13.0392
-9 -2 17 -13.8368 -3.3686
-9 -1 -17 -3.6548 13.3252
-9 -1 -14 -14.8689 -29.0086
-9 -1 -11 24.3804 82.5830
-9 -1 -8 -19.6658 -13.0280
-9 -1 -5 -73.9936 36.8397
-9 -1 -2 -78.8846 -52.1925
-9 -1 1 12.4616 26.0290
-9 -1 4 -103.8477 20.4321
-9 -1 7 -11.7654 -20.3173
-9 -1 10 -36.9171 -35.9212
-9 -1 13 39.7265 17.4270
-9 -1 16 -3.9223 -7.9261
-8 -8 -15 17.9773 14.8968
-8 -8 -12 52.4793 31.1980
-8 -8 -9 -32.4695 14.1603
-8 -8 -6 42.3357 130.0669
-8 -8 -3 -37.2575 -81.7429
-8 -8 0 -5.6780 -71.0822
-8 -7 -13 -2.3015 -51.1342
-8 -7 -10 -13.8738 -59.6231
-8 -7 -7 4.7757 52.2602
-8 -7 -4 -125.8186 -158.4297
-8 -7 -1 96.0172 -24.8318
-8 -7 2 -22.6635 24.9344
-8 -7 5 -31.4514 -64.4256
-8 -7 8 -5.3199 20.8106
-8 -7 11 22.7337 49.4226
-8 -7 14 -17.6879 12.3827
-8 -6 -14 1.2951 4.7524
-8 -6 -11 42.4372 -32.6951
-8 -6 -8 -0.0552 -25.9652
-8 -6 -5 -41.1480 -53.4505
-8 -6 -2 -17.0907 74.4632
-8 -6 1 -34.7089 -0.6653
-8 -6 4 -21.9019 16.6562
-8 -6 7 59.5957 69.2678
-8 -6 10 33.9496 52.2391
-8 -6 13 -3.9965 -0.0464
-8 -6 16 27.2238 -16.7187
-8 -5 -15 34.3886 -31.1141
-8 -5 -12 8.0153 -37.0063
-8 -5 -9 10.9769 21.5520
-8 -5 -6 -22.7479 -39.0871
-8 -5 -3 55.0030 -18.0718
-8 -5 0 -56.7405 -109.4635
-8 -5 3 85.7087 32.4210
-8 -5 6 -25.2209 0.8323
-8 -5 9 44.9305 56.6173
-8 -5 12 -28.9678 29.4441
-8 -5 15 -14.3211 11.3797
-8 -4 -16 17.1261 8.0041
-8 -4 -13 -51.9226 -21.1410
-8 -4 -10 -9.2244 22.3439
-8 -4 -7 9.8340 -67.6542
-8 -4 -4 20.6736 32.1667
-8 -4 -1 -41.3547 -33.9271
-8 -4 2 -92.1912 6.0238
-8 -4 5 -14.1641 11.1818
-8 -4 8 -1.9535 -4.3462
-8 -4 11 -16.1811 18.1652
-8 -4 14 30.1270 -7.3505
-8 -3 -17 -19.0683 -3.7634
-8 -3 -14 -11.8319 3.0668
-8 -3 -11 45.9745 1.6269
-8 -3 -8 18.2487 -50.0447
-8 -3 -5 -73.7068 20.2588
-8 -3 -2 -151.0368 -58.2022
-8 -3 1 -25.8213 -20.4695
-8 -3 4 -30.0516 38.8369
-8 -3 7 -7.1612 -60.4022
-8 -3 10 -52.7522 -23.6279
-8 -3 13 3.4496 8.3436
-8 -3 16 -9.1193 29.7997
-8 -2 -15 -36.1778 25.7910
-8 -2 -12 -25.1761 54.7763
-8 -2 -9 -5.5781 3.6627
-8 -2 -6 61.5434 22.3374
-8 -2 -3 45.8545 -76.0360
-8 -2 0 21.3801 -17.2925
-8 -2 3 -32.9272 9.4292
-8 -2 6 -77.1180 10.7624
-8 -2 9 -10.0975 -24.5551
-8 -2 12 57.5620 10.4724
-8 -2 15 31.2387 5.5389
-8 -1 -16 -43.0782 4.5742
-8 -1 -13 46.2727 19.6424
-8 -1 -10 33.4470 -31.8721
-8 -1 -7 37.0760 6.6737
-8 -1 -4 -147.4755 -32.3609
-8 -1 -1 9.8677 23.7293
-8 -1 2 -98.3341 12.6130
-8 -1 5 -92.9803 34.8073
-8 -1 8 -13.6723 -0.0497
-8 -1 11 -18.5446 -41.3988
-8 -1 14 -13.7752 14.1303
-8 -1 17 -48.3267 -26.0992
-7 -7 -15 36.9316 -9.5859
-7 -7 -12 -2.9501 -53.1576
-7 -7 -9 -25.4907 27.9695
-7 -7 -6 -6.7505 6.5239
-7 -7 -3 23.3976 -1.6920
-7 -7 0 69.2904 -15.9002
-7 -6 -16 18.6139 -12.7203
-7 -6 -13 -19.0358 -26.7372
-7 -6 -10 18.1476 4.2757
-7 -6 -7 -30.0202 4.3206
-7 -6 -4 -37.6090 -84.3699
-7 -6 -1 31.9249 11.5850
-7 -6 2 -18.9904 -37.8092
-7 -6 5 -0.4149 -55.5876
-7 -6 8 14.5018 -13.3118
-7 -6 11 15.0561 52.7418
-7 -6 14 -28.7469 -15.9795
-7 -5 -14 12.6632 -32.9890
-7 -5 -11 -9.0781 52.3245
-7 -5 -8 -20.6586 -41.5334
-7 -5 -5 -48.7212 54.1927
-7 -5 -2 52.0448 42.8182
-7 -5 1 -14.5836 106.5145
-7 -5 4 42.9684 12.4599
-7 -5 7 -30.4505 76.0437
-7 -5 10 -11.2994 -7.0545
-7 -5 13 -21.9535 13.1145
-7 -5 16 18.5475 3.3999
-7 -4 -15 -23.0600 17.1227
-7 -4 -12 -5.1015 -23.0687
-7 -4 -9 -20.7993 60.2485
-7 -4 -6 7.2140 18.6004
-7 -4 -3 -29.2772 -46.8190
-7 -4 0 -98.9196 -81.1291
-7 -4 3 168.9516 -15.8405
-7 -4 6 86.0906 -34.6844
-7 -4 9 -24.6768 60.9008
-7 -4 12 -51.3063 35.5444
-7 -4 15 15.4944 19.4120
-7 -3 -16 -42.2314 47.7285
-7 -3 -13 0.4380 42.1509
-7 -3 -10 2.7815 8.9324
-7 -3 -7 0.4837 5.4538
-7 -3 -4 -44.7730 -20.1828
-7 -3 -1 16.8143 27.7415
-7 -3 2 -92.8314 38.5346
-7 -3 5 -2.0426 71.5670
-7 -3 8 -21.4973 -2.4589
-7 -3 11 -94.1699 29.5563
-7 -3 14 20.7057 -39.8740
-7 -3 17 -17.6365 -25.1789
-7 -2 -17 -55.4566 0.8367
-7 -2 -14 35.9067 10.4960
-7 -2 -11 -59.3910 22.9500
-7 -2 -8 -20.5892 -26.5817
-7 -2 -5 -3.5085 -32.2707
-7 -2 -2 -78.2708 -34.4319
-7 -2 1 -66.5703 -7.0756
-7 -2 4 235.3760 -53.1306
-7 -2 7 -36.0139 15.6347
-7 -2 10 25.4832 -66.5253
-7 -2 13 39.5220 -4.0977
-7 -2 16 16.0819 -6.9013
-7 -1 -15 18.1859 14.6388
-7 -1 -12 17.2938 40.4515
-7 -1 -9 8.8519 12.6854
-7 -1 -6 18.9811 -54.0469
-7 -1 -3 -14.5434 39.4144
-7 -1 0 45.9831 -96.0831
-7 -1 3 84.2893 3.0781
-7 -1 6 -26.0001 28.1842
-7 -1 9 -6.7348 21.1012
-7 -1 12 -39.2498 -34.5301
-7 -1 15 17.2436 11.3082
-6 -6 -15 8.8871 -14.0561
-6 -6 -12 0.6332 -13.0993
-6 -6 -9 20.0424 15.2622
-6 -6 -6 40.2308 22.2761
-6 -6 -3 62.3405 -63.8612
-6 -6 0 -182.7578 -7.2251
-6 -5 -16 -24.1197 26.7349
-6 -5 -13 -9.2334 -30.7687
-6 -5 -10 39.4485 -35.5220
-6 -5 -7 -6.5209 23.5216
-6 -5 -4 -24.7695 -112.5149
-6 -5 -1 -42.0163 -27.3413
-6 -5 2 -69.7178 -96.8101
-6 -5 5 8.1067 -47.4644
-6 -5 8 -18.2747 26.9268
-6 -5 11 -9.8070 38.5269
-6 -5 14 -12.2224 -14.5742
-6 -5 17 -37.5531 6.3085
-6 -4 -17 -45.8110 7.3526
-6 -4 -14 14.4387 11.6815
-6 -4 -11 16.7274 -14.8141
-6 -4 -8 -37.3664 -33.3069
-6 -4 -5 74.8358 -76.4618
-6 -4 -2 -194.2328 25.3714
-6 -4 1 -233.2851 12.7274
-6 -4 4 44.5734 24.6872
-6 -4 7 14.6941 -23.0678
-6 -4 10 18.6981 -60.9430
-6 -4 13 1.4330 -40.1002
-6 -4 16 26.5521 7.1147
-6 -3 -15 11.3962 14.7041
-6 -3 -12 -1.3427 11.4645
-6 -3 -9 49.8916 -10.0552
-6 -3 -6 9.8756 -8.0408
-6 -3 -3 -58.0550 69.7378
-6 -3 0 -36.7207 -81.3354
-6 -3 3 23.8439 -74.7591
-6 -3 6 -38.0695 22.7328
-6 -3 9 64.9460 31.8564
-6 -3 12 -17.9396 -0.0970
-6 -3 15 -29.5631 -15.0277
-6 -2 -16 -4.5629 -2.1008
-6 -2 -13 10.3263 40.8317
-6 -2 -10 -61.8111 11.7108
-6 -2 -7 27.8070 -22.5476
-6 -2 -4 -59.1854 53.2256
-6 -2 -1 -90.8273 -28.0677
-6 -2 2 -43.1852 80.8762
-6 -2 5 7.0154 56.3745
-6 -2 8 -53.2316 21.9573
-6 -2 11 20.3185 -59.3330
-6 -2 14 13.5445 -5.8190
-6 -2 17 15.7892 -32.0225
-6 -1 -17 8.7914 -42.9378
-6 -1 -14 -11.7746 24.4612
-6 -1 -11 -5.8886 7.2899
-6 -1 -8 -16.3292 39.4386
-6 -1 -5 -88.8671 -33.2168
-6 -1 -2 23.1899 124.1110
-6 -1 1 -123.9187 -4.2075
-6 -1 4 70.2963 -28.5007
-6 -1 7 -39.4433 54.2341
-6 -1 10 -5.2092 -69.9505
-6 -1 13 -5.8838 -1.0490
-6 -1 16 12.8963 -39.0921
-5 -5 -15 4.7777 18.0598
-5 -5 -12 -28.9177 -11.7458
-5 -5 -9 44.4918 23.7800
-5 -5 -6 62.1989 -4.8198
-5 -5 -3 6.3741 76.6265
-5 -5 0 62.2870 70.6421
-5 -4 -16 -28.4374 -1.8096
-5 -4 -13 17.3463 -30.2769
-5 -4 -10 -0.6795 -42.6913
-5 -4 -7 19.2636 38.6134
-5 -4 -4 -52.2761 -56.1209
-5 -4 -1 -53.0689 -58.6400
-5 -4 2 -153.0574 0.4858
-5 -4 5 106.5518 -48.5753
-5 -4 8 40.7590 -3.6624
-5 -4 11 19.0539 16.5369
-5 -4 14 -62.6827 -25.7219
-5 -4 17 10.4443 -25.3316
-5 -3 -17 -18.2399 -34.2077
-5 -3 -14 25.1768 -6.5722
-5 -3 -11 -7.7371 50.7244
-5 -3 -8 19.3597 -56.2466
-5 -3 -5 -87.0111 -16.8158
-5 -3 -2 32.6738 93.7867
-5 -3 4 31.8470 -43.9633
-5 -3 7 -26.0319 -10.0235
-5 -3 10 -16.1127 -35.7552
-5 -3 13 23.3044 -28.9976
-5 -3 16 31.9881 -36.6286
-5 -2 -18 -11.5169 -28.0702
-5 -2 -15 13.3401 -15.1608
-5 -2 -12 48.1789 -7.8674
-5 -2 -9 -19.7186 45.3708
-5 -2 -6 -22.8027 -45.4874
-5 -2 -3 -43.9550 107.9456
-5 -2 0 105.7330 -109.0375
-5 -2 3 298.1500 -58.7634
-5 -2 6 99.1993 28.9260
-5 -2 9 5.4559 21.6484
-5 -2 12 28.3705 -2.3988
-5 -2 15 10.6875 -30.4314
-5 -2 18 6.9080 1.3386
-5 -1 -16 26.6439 -12.3239
-5 -1 -13 -29.1039 -9.4232
-5 -1 -10 20.7343 40.6217
-5 -1 -7 -111.5835 -58.1694
-5 -1 -4 20.1948 -10.6461
-5 -1 -1 151.5556 -62.5000
-5 -1 2 91.6529 -25.6559
-5 -1 5 -35.2764 6.3756
-5 -1 8 -110.2846 31.6989
-5 -1 11 -37.1548 -24.1702
-5 -1 14 37.0650 -10.2046
-5 -1 17 -21.6213 9.4185
-4 -4 -15 -25.1429 -10.0507
-4 -4 -12 64.1005 3.7407
-4 -4 -9 93.9598 -24.2242
-4 -4 -6 -43.2922 4.2688
-4 -4 -3 -132.1691 129.1714
-4 -4 0 149.4673 26.2816
-4 -3 -16 -13.1534 -34.4665
-4 -3 -13 -2.1922 -13.3137
-4 -3 -10 20.0961 16.5137
-4 -3 -7 -30.9877 -22.0025
-4 -3 -4 -125.6439 53.4798
-4 -3 -1 225.3338 50.4669
-4 -3 2 -17.8983 19.0596
-4 -3 5 -130.7788 11.4175
-4 -3 8 -27.2111 -47.5184
-4 -3 11 16.3838 24.4186
-4 -3 14 -11.9625 -42.2842
-4 -3 17 -47.6965 -37.0969
-4 -2 -17 -55.2271 -27.3437
-4 -2 -14 -30.6454 10.9537
-4 -2 -11 27.3083 39.4683
-4 -2 -8 -67.0457 14.3932
-4 -2 -5 -161.0665 38.6410
-4 -2 -2 52.0468 156.3947
-4 -2 1 -138.7664 78.0958
-4 -2 4 -117.2314 41.6416
-4 -2 7 96.7442 -9.1114
-4 -2 10 -4.3666 -18.5748
-4 -2 13 -12.9271 8.8566
-4 -2 16 2.1927 6.4439
-4 -1 -18 8.8904 -8.8666
-4 -1 -15 22.5547 18.0015
-4 -1 -12 -53.7627 1.6045
-4 -1 -9 45.2559 72.8745
-4 -1 -6 -58.5499 45.5927
-4 -1 -3 64.2680 57.2501
-4 -1 3 68.3526 -88.1996
-4 -1 6 24.4845 -8.3599
-4 -1 9 -56.1075 4.6356
-4 -1 12 16.1745 11.3780
-4 -1 15 39.7027 -18.9245
-4 -1 18 -53.9277 -20.6407
-3 -3 -18 -7.8697 -13.0502
-3 -3 -15 49.3579 -10.5525
-3 -3 -12 38.2284 12.5491
-3 -3 -9 -38.0955 -18.7785
-3 -3 -6 -43.6490 -104.9835
-3 -3 -3 -32.5031 59.4322
-3 -3 0 484.3684 -43.9059
-3 -2 -16 -8.7504 26.4466
-3 -2 -13 -5.9666 -23.9686
-3 -2 -10 1.5417 -27.1575
-3 -2 -7 57.1441 -14.4400
-3 -2 -4 -27.9529 0.0466
-3 -2 2 37.7403 9.6649
-3 -2 5 -69.4225 -39.8023
-3 -2 8 9.0839 27.4304
-3 -2 11 25.1297 50.3206
-3 -2 14 -64.3439 -10.4315
-3 -2 17 -35.6651 29.1383
-3 -1 -17 34.0048 11.6900
-3 -1 -14 -9.9721 -21.3767
-3 -1 -11 -26.9050 -24.7377
-3 -1 -8 17.3060 -33.9413
-3 -1 -5 -17.4098 -1.0582
-3 -1 4 151.1297 -84.0102
-3 -1 7 -34.3630 -47.4099
-3 -1 10 -40.4365 27.8302
-3 -1 13 36.5781 -23.2355
-3 -1 16 36.0714 59.9721
-2 -2 -18 -54.8767 -11.1849
-2 -2 -15 -21.8416 48.5941
-2 -2 -12 -5.5344 24.5983
-2 -2 -9 122.2631 -3.1058
-2 -2 -6 -123.5365 -5.1194
-2 -2 -3 -221.9932 -4.2360
-2 -1 -16 10.8921 63.6723
-2 -1 -13 10.4316 11.4956
-2 -1 -10 38.5647 1.5686
-2 -1 -7 -30.4064 15.5140
-2 -1 -4 131.7492 -14.4005
-2 -1 5 98.1257 -33.1197
-2 -1 8 19.1073 -44.6016
-2 -1 11 -12.5679 25.1462
-2 -1 14 -18.5625 -8.1201
-2 -1 17 -17.6028 30.0053
-1 -1 -18 -27.0735 -9.4552
-1 -1 -15 16.4265 10.9555
-1 -1 -12 42.0912 -2.5636
-1 -1 -9 40.6122 -35.1155
-1 -1 -6 0.4363 -31.4981
0 0 12 70.6486 0.0000
0 0 15 -21.7308 0.0000
0 0 18 -48.9111 0.0000
1 0 -17 1.7609 0.0000
1 0 -14 -52.3780 0.0000
1 0 -11 47.6417 0.0000
1 0 -8 -18.4982 0.0000
1 0 -5 -160.0464 0.0000
1 0 7 -65.0443 0.0000
1 0 10 25.3358 0.0000
1 0 13 47.2278 0.0000
1 0 16 -5.1448 -0.0000
1 1 6 0.4363 31.4981
1 1 9 40.6122 35.1155
1 1 12 42.0912 2.5636
1 1 15 16.4265 -10.9555
1 1 18 -27.0735 9.4552
2 0 -16 -7.7847 0.0000
2 0 -13 -12.6322 0.0000
2 0 -10 38.0071 -0.0000
2 0 -7 55.9121 0.0000
2 0 -4 -43.1539 0.0000
2 0 5 -31.3799 -0.0000
2 0 8 25.8180 0.0000
2 0 11 -66.0182 0.0000
2 0 14 -1.0731 -0.0000
2 0 17 -3.2579 0.0000
2 1 -17 -17.6028 -30.0053
2 1 -14 -18.5625 8.1201
2 1 -11 -12.5679 -25.1462
2 1 -8 19.1073 44.6016
2 1 -5 98.1257 33.1197
2 1 4 131.7492 14.4005
2 1 7 -30.4064 -15.5140
2 1 10 38.5647 -1.5686
2 1 13 10.4316 -11.4956
2 1 16 10.8921 -63.6723
2 2 3 -221.9932 4.2360
2 2 6 -123.5365 5.1194
2 2 9 122.2631 3.1058
2 2 12 -5.5344 -24.5983
2 2 15 -21.8416 -48.5941
2 2 18 -54.8767 11.1849
3 0 -18 -96.2461 -0.0000
3 0 -15 16.8797 -0.0000
3 0 -12 17.3158 0.0000
3 0 -9 47.1797 0.0000
3 0 -6 36.1795 0.0000
3 0 6 167.8125 0.0000
3 0 9 93.9349 0.0000
3 0 12 -7.1883 0.0000
3 0 15 6.8982 0.0000
3 0 18 19.9291 -0.0000
3 1 -16 36.0714 -59.9721
3 1 -13 36.5781 23.2355
3 1 -10 -40.4365 -27.8302
3 1 -7 -34.3630 47.4099
3 1 -4 151.1297 84.0102
3 1 5 -17.4098 1.0582
3 1 8 17.3060 33.9413
3 1 11 -26.9050 24.7377
3 1 14 -9.9721 21.3767
3 1 17 34.0048 -11.6900
3 2 -17 -35.6651 -29.1383
3 2 -14 -64.3439 10.4315
3 2 -11 25.1297 -50.3206
3 2 -8 9.0839 -27.4304
3 2 -5 -69.4225 39.8023
3 2 4 -27.9529 -0.0466
3 2 7 57.1441 14.4400
3 2 10 1.5417 27.1575
3 2 13 -5.9666 23.9686
3 2 16 -8.7504 -26.4466
3 3 3 -32.5031 -59.4322
3 3 6 -43.6490 104.9835
3 3 9 -38.0955 18.7785
3 3 12 38.2284 -12.5491
3 3 15 49.3579 10.5525
3 3 18 -7.8697 13.0502
4 0 -17 -71.1193 0.0000
4 0 -14 11.5870 0.0000
4 0 -11 -57.0427 -0.0000
4 0 -8 -42.3815 -0.0000
4 0 -5 42.3388 0.0000
4 0 4 -84.7507 0.0000
4 0 7 24.3134 0.0000
4 0 10 45.0710 0.0000
4 0 13 -82.6608 0.0000
4 0 16 -23.6585 -0.0000
4 1 -18 -53.9277 20.6407
4 1 -15 39.7027 18.9245
4 1 -12 16.1745 -11.3780
4 1 -9 -56.1075 -4.6356
4 1 -6 24.4845 8.3599
4 1 -3 68.3526 88.1996
4 1 3 64.2680 -57.2501
4 1 6 -58.5499 -45.5927
4 1 9 45.2559 -72.8745
4 1 12 -53.7627 -1.6045
4 1 15 22.5547 -18.0015
4 1 18 8.8904 8.8666
4 2 -16 2.1927 -6.4439
4 2 -13 -12.9271 -8.8566
4 2 -10 -4.3666 18.5748
4 2 -7 96.7442 9.1114
4 2 -4 -117.2314 -41.6416
4 2 -1 -138.7664 -78.0958
4 2 2 52.0468 -156.3947
4 2 5 -161.0665 -38.6410
4 2 8 -67.0457 -14.3932
4 2 11 27.3083 -39.4683
4 2 14 -30.6454 -10.9537
4 2 17 -55.2271 27.3437
4 3 -17 -47.6965 37.0969
4 3 -14 -11.9625 42.2842
4 3 -11 16.3838 -24.4186
4 3 -8 -27.2111 47.5184
4 3 -5 -130.7788 -11.4175
4 3 -2 -17.8983 -19.0596
4 3 1 225.3338 -50.4669
4 3 4 -125.6439 -53.4798
4 3 7 -30.9877 22.0025
4 3 10 20.0961 -16.5137
4 3 13 -2.1922 13.3137
4 3 16 -13.1534 34.4665
4 4 0 149.4673 -26.2816
4 4 3 -132.1691 -129.1714
4 4 6 -43.2922 -4.2688
4 4 9 93.9598 24.2242
4 4 12 64.1005 -3.7407
4 4 15 -25.1429 10.0507
5 0 -16 1.3592 0.0000
5 0 -13 27.3378 0.0000
5 0 -10 29.8999 0.0000
5 0 -7 -48.1785 0.0000
5 0 -4 308.5563 0.0000
5 0 2 87.6699 0.0000
5 0 5 51.4068 0.0000
5 0 8 -56.3005 0.0000
5 0 11 -12.5192 0.0000
5 0 14 -3.6219 0.0000
5 0 17 -4.5435 0.0000
5 1 -17 -21.6213 -9.4185
5 1 -14 37.0650 10.2046
5 1 -11 -37.1548 24.1702
5 1 -8 -110.2846 -31.6989
5 1 -5 -35.2764 -6.3756
5 1 -2 91.6529 25.6559
5 1 1 151.5556 62.5000
5 1 4 20.1948 10.6461
5 1 7 -111.5835 58.1694
5 1 10 20.7343 -40.6217
5 1 13 -29.1039 9.4232
5 1 16 26.6439 12.3239
5 2 -18 6.9080 -1.3386
5 2 -15 10.6875 30.4314
5 2 -12 28.3705 2.3988
5 2 -9 5.4559 -21.6484
5 2 -6 99.1993 -28.9260
5 2 -3 298.1500 58.7634
5 2 0 105.7330 109.0375
5 2 3 -43.9550 -107.9456
5 2 6 -22.8027 45.4874
5 2 9 -19.7186 -45.3708
5 2 12 48.1789 7.8674
5 2 15 13.3401 15.1608
5 2 18 -11.5169 28.0702
5 3 -16 31.9881 36.6286
5 3 -13 23.3044 28.9976
5 3 -10 -16.1127 35.7552
5 3 -7 -26.0319 10.0235
5 3 -4 31.8470 43.9633
5 3 -1 41.0862 -86.8506
5 3 2 32.6738 -93.7867
5 3 5 -87.0111 16.8158
5 3 8 19.3597 56.2466
5 3 11 -7.7371 -50.7244
5 3 14 25.1768 6.5722
5 3 17 -18.2399 34.2077
5 4 -17 10.4443 25.3316
5 4 -14 -62.6827 25.7219
5 4 -11 19.0539 -16.5369
5 4 -8 40.7590 3.6624
5 4 -5 106.5518 48.5753
5 4 -2 -153.0574 -0.4858
5 4 1 -53.0689 58.6400
5 4 4 -52.2761 56.1209
5 4 7 19.2636 -38.6134
5 4 10 -0.6795 42.6913
5 4 13 17.3463 30.2769
5 4 16 -28.4374 1.8096
5 5 0 62.2870 -70.6421
5 5 3 6.3741 -76.6265
5 5 6 62.1989 4.8198
5 5 9 44.4918 -23.7800
5 5 12 -28.9177 11.7458
5 5 15 4.7777 -18.0598
6 0 -18 2.2569 0.0000
6 0 -15 20.1780 0.0000
6 0 -12 11.9624 0.0000
6 0 -9 47.8246 0.0000
6 0 -6 -36.9598 0.0000
6 0 0 8.8064 0.0000
6 0 3 23.4217 0.0000
6 0 6 -130.1984 -0.0000
6 0 9 24.7526 -0.0000
6 0 12 -41.0841 0.0000
6 0 15 -20.8957 -0.0000
6 0 18 -9.9275 0.0000
6 1 -16 12.8963 39.0921
6 1 -13 -5.8838 1.0490
6 1 -10 -5.2092 69.9505
6 1 -7 -39.4433 -54.2341
6 1 -4 70.2963 28.5007
6 1 -1 -123.9187 4.2075
6 1 2 23.1899 -124.1110
6 1 5 -88.8671 33.2168
6 1 8 -16.3292 -39.4386
6 1 11 -5.8886 -7.2899
6 1 14 -11.7746 -24.4612
6 1 17 8.7914 42.9378
6 2 -17 15.7892 32.0225
6 2 -14 13.5445 5.8190
6 2 -11 20.3185 59.3330
6 2 -8 -53.2316 -21.9573
6 2 -5 7.0154 -56.3745
6 2 -2 -43.1852 -80.8762
6 2 1 -90.8273 28.0677
6 2 4 -59.1854 -53.2256
6 2 7 27.8070 22.5476
6 2 10 -61.8111 -11.7108
6 2 13 10.3263 -40.8317
6 2 16 -4.5629 2.1008
6 3 -15 -29.5631 15.0277
6 3 -12 -17.9396 0.0970
6 3 -9 64.9460 -31.8564
6 3 -6 -38.0695 -22.7328
6 3 -3 23.8439 74.7591
6 3 3 -58.0550 -69.7378
6 3 6 9.8756 8.0408
6 3 9 49.8916 10.0552
6 3 12 -1.3427 -11.4645
6 3 15 11.3962 -14.7041
6 4 -16 26.5521 -7.1147
6 4 -13 1.4330 40.1002
6 4 -10 18.6981 60.9430
6 4 -7 14.6941 23.0678
6 4 -4 44.5734 -24.6872
6 4 -1 -233.2851 -12.7274
6 4 2 -194.2328 -25.3714
6 4 5 74.8358 76.4618
6 4 8 -37.3664 33.3069
6 4 11 16.7274 14.8141
6 4 14 14.4387 -11.6815
6 4 17 -45.8110 -7.3526
6 5 -17 -37.5531 -6.3085
6 5 -14 -12.2224 14.5742
6 5 -11 -9.8070 -38.5269
6 5 -8 -18.2747 -26.9268
6 5 -5 8.1067 47.4644
6 5 -2 -69.7178 96.8101
6 5 1 -42.0163 27.3413
6 5 4 -24.7695 112.5149
6 5 7 -6.5209 -23.5216
6 5 10 39.4485 35.5220
6 5 13 -9.2334 30.7687
6 5 16 -24.1197 -26.7349
6 6 0 -182.7578 7.2251
6 6 3 62.3405 63.8612
6 6 6 40.2308 -22.2761
6 6 9 20.0424 -15.2622
6 6 12 0.6332 13.0993
6 6 15 8.8871 14.0561
7 0 -17 19.4469 0.0000
7 0 -14 -44.0145 -0.0000
7 0 -11 91.5886 -0.0000
7 0 -8 -23.9140 -0.0000
7 0 -5 192.7875 -0.0000
7 0 -2 77.6423 0.0000
7 0 1 -38.4791 0.0000
7 0 4 77.2453 -0.0000
7 0 7 64.8733 -0.0000
7 0 10 -62.5220 0.0000
7 0 13 21.8529 0.0000
7 0 16 3.8489 -0.0000
7 1 -15 17.2436 -11.3082
7 1 -12 -39.2498 34.5301
7 1 -9 -6.7348 -21.1012
7 1 -6 -26.0001 -28.1842
7 1 -3 84.2893 -3.0781
7 1 0 45.9831 96.0831
7 1 3 -14.5434 -39.4144
7 1 6 18.9811 54.0469
7 1 9 8.8519 -12.6854
7 1 12 17.2938 -40.4515
7 1 15 18.1859 -14.6388
7 2 -16 16.0819 6.9013
7 2 -13 39.5220 4.0977
7 2 -10 25.4832 66.5253
7 2 -7 -36.0139 -15.6347
7 2 -4 235.3760 53.1306
7 2 -1 -66.5703 7.0756
7 2 2 -78.2708 34.4319
7 2 5 -3.5085 32.2707
7 2 8 -20.5892 26.5817
7 2 11 -59.3910 -22.9500
7 2 14 35.9067 -10.4960
7 2 17 -55.4566 -0.8367
7 3 -17 -17.6365 25.1789
7 3 -14 20.7057 39.8740
7 3 -11 -94.1699 -29.5563
7 3 -8 -21.4973 2.4589
7 3 -5 -2.0426 -71.5670
7 3 -2 -92.8314 -38.5346
7 3 1 16.8143 -27.7415
7 3 4 -44.7730 20.1828
7 3 7 0.4837 -5.4538
7 3 10 2.7815 -8.9324
7 3 13 0.4380 -42.1509
7 3 16 -42.2314 -47.7285
7 4 -15 15.4944 -19.4120
7 4 -12 -51.3063 -35.5444
7 4 -9 -24.6768 -60.9008
7 4 -6 86.0906 34.6844
7 4 -3 168.9516 15.8405
7 4 0 -98.9196 81.1291
7 4 3 -29.2772 46.8190
7 4 6 7.2140 -18.6004
7 4 9 -20.7993 -60.2485
7 4 12 -5.1015 23.0687
7 4 15 -23.0600 -17.1227
7 5 -16 18.5475 -3.3999
7 5 -13 -21.9535 -13.1145
7 5 -10 -11.2994 7.0545
7 5 -7 -30.4505 -76.0437
7 5 -4 42.9684 -12.4599
7 5 -1 -14.5836 -106.5145
7 5 2 52.0448 -42.8182
7 5 5 -48.7212 -54.1927
7 5 8 -20.6586 41.5334
7 5 11 -9.0781 -52.3245
7 5 14 12.6632 32.9890
7 6 -14 -28.7469 15.9795
7 6 -11 15.0561 -52.7418
7 6 -8 14.5018 13.3118
7 6 -5 -0.4149 55.5876
7 6 -2 -18.9904 37.8092
7 6 1 31.9249 -11.5850
7 6 4 -37.6090 84.3699
7 6 7 -30.0202 -4.3206
7 6 10 18.1476 -4.2757
7 6 13 -19.0358 26.7372
7 6 16 18.6139 12.7203
7 7 0 69.2904 15.9002
7 7 3 23.3976 1.6920
7 7 6 -6.7505 -6.5239
7 7 9 -25.4907 -27.9695
7 7 12 -2.9501 53.1576
7 7 15 36.9316 9.5859
8 0 -16 42.3070 -0.0000
8 0 -13 10.0314 0.0000
8 0 -10 27.3429 0.0000
8 0 -7 21.5287 -0.0000
8 0 -4 -74.2971 -0.0000
8 0 -1 -75.6324 0.0000
8 0 2 -98.6406 0.0000
8 0 5 88.2349 -0.0000
8 0 8 -70.7225 0.0000
8 0 11 3.1526 -0.0000
8 0 14 12.9771 0.0000
8 0 17 -21.0399 0.0000
8 1 -17 -48.3267 26.0992
8 1 -14 -13.7752 -14.1303
8 1 -11 -18.5446 41.3988
8 1 -8 -13.6723 0.0497
8 1 -5 -92.9803 -34.8073
8 1 -2 -98.3341 -12.6130
8 1 1 9.8677 -23.7293
8 1 4 -147.4755 32.3609
8 1 7 37.0760 -6.6737
8 1 10 33.4470 31.8721
8 1 13 46.2727 -19.6424
8 1 16 -43.0782 -4.5742
8 2 -15 31.2387 -5.5389
8 2 -12 57.5620 -10.4724
8 2 -9 -10.0975 24.5551
8 2 -6 -77.1180 -10.7624
8 2 -3 -32.9272 -9.4292
8 2 0 21.3801 17.2925
8 2 3 45.8545 76.0360
8 2 6 61.5434 -22.3374
8 2 9 -5.5781 -3.6627
8 2 12 -25.1761 -54.7763
8 2 15 -36.1778 -25.7910
8 3 -16 -9.1193 -29.7997
8 3 -13 3.4496 -8.3436
8 3 -10 -52.7522 23.6279
8 3 -7 -7.1612 60.4022
8 3 -4 -30.0516 -38.8369
8 3 -1 -25.8213 20.4695
8 3 2 -151.0368 58.2022
8 3 5 -73.7068 -20.2588
8 3 8 18.2487 50.0447
8 3 11 45.9745 -1.6269
8 3 14 -11.8319 -3.0668
8 3 17 -19.0683 3.7634
8 4 -14 30.1270 7.3505
8 4 -11 -16.1811 -18.1652
8 4 -8 -1.9535 4.3462
8 4 -5 -14.1641 -11.1818
8 4 -2 -92.1912 -6.0238
8 4 1 -41.3547 33.9271
8 4 4 20.6736 -32.1667
8 4 7 9.8340 67.6542
8 4 10 -9.2244 -22.3439
8 4 13 -51.9226 21.1410
8 4 16 17.1261 -8.0041
8 5 -15 -14.3211 -11.3797
8 5 -12 -28.9678 -29.4441
8 5 -9 44.9305 -56.6173
8 5 -6 -25.2209 -0.8323
8 5 -3 85.7087 -32.4210
8 5 0 -56.7405 109.4635
8 5 3 55.0030 18.0718
8 5 6 -22.7479 39.0871
8 5 9 10.9769 -21.5520
8 5 12 8.0153 37.0063
8 5 15 34.3886 31.1141
8 6 -16 27.2238 16.7187
8 6 -13 -3.9965 0.0464
8 6 -10 33.9496 -52.2391
8 6 -7 59.5957 -69.2678
8 6 -4 -21.9019 -16.6562
8 6 -1 -34.7089 0.6653
8 6 2 -17.0907 -74.4632
8 6 5 -41.1480 53.4505
8 6 8 -0.0552 25.9652
8 6 11 42.4372 32.6951
8 6 14 1.2951 -4.7524
8 7 -14 -17.6879 -12.3827
8 7 -11 22.7337 -49.4226
8 7 -8 -5.3199 -20.8106
8 7 -5 -31.4514 64.4256
8 7 -2 -22.6635 -24.9344
8 7 1 96.0172 24.8318
8 7 4 -125.8186 158.4297
8 7 7 4.7757 -52.2602
8 7 10 -13.8738 59.6231
8 7 13 -2.3015 51.1342
8 8 0 -5.6780 71.0822
8 8 3 -37.2575 81.7429
8 8 6 42.3357 -130.0669
8 8 9 -32.4695 -14.1603
8 8 12 52.4793 -31.1980
8 8 15 17.9773 -14.8968
9 0 -15 6.2010 0.0000
9 0 -12 84.2332 0.0000
9 0 -9 -18.8182 0.0000
9 0 -6 193.9089 0.0000
9 0 -3 157.3419 0.0000
9 0 0 32.8789 -0.0000
9 0 3 -96.7818 0.0000
9 0 6 122.5618 0.0000
9 0 9 -21.1593 -0.0000
9 0 12 31.8712 0.0000
9 0 15 -76.3521 0.0000
9 1 -16 -3.9223 7.9261
9 1 -13 39.7265 -17.4270
9 1 -10 -36.9171 35.9212
9 1 -7 -11.7654 20.3173
9 1 -4 -103.8477 -20.4321
9 1 -1 12.4616 -26.0290
9 1 2 -78.8846 52.1925
9 1 5 -73.9936 -36.8397
9 1 8 -19.6658 13.0280
9 1 11 24.3804 -82.5830
9 1 14 -14.8689 29.0086
9 1 17 -3.6548 -13.3252
9 2 -17 -13.8368 3.3686
9 2 -14 -11.5611 13.0392
9 2 -11 22.5126 -19.2234
9 2 -8 10.2186 97.8250
9 2 -5 57.3207 -77.7671
9 2 -2 -70.7684 28.1506
9 2 1 -61.3785 -22.9006
9 2 4 34.3855 33.7422
9 2 7 38.7984 -23.1727
9 2 10 32.8694 -17.5998
9 2 13 -57.8172 5.7218
9 2 16 -18.6399 -22.7446
9 3 -15 45.0708 -21.9475
9 3 -12 -22.2435 -16.7781
9 3 -9 -46.0423 -89.9138
9 3 -6 -68.4118 14.8311
9 3 -3 30.2272 -34.1986
9 3 0 55.3968 -23.7475
9 3 3 67.0413 -22.3945
9 3 6 -17.9068 -78.1266
9 3 9 -52.9985 -79.9767
9 3 12 -15.3594 -27.5166
9 3 15 11.6150 -2.1171
9 4 -16 15.3541 -34.4820
9 4 -13 7.5021 -41.4512
9 4 -10 -73.0635 -4.7808
9 4 -7 -42.4080 -10.1110
9 4 -4 38.1041 -41.0216
9 4 -1 -39.7863 -52.7138
9 4 2 -17.5517 -23.4634
9 4 5 -60.0197 -90.9330
9 4 8 7.0668 27.6838
9 4 11 68.6459 -38.6855
9 4 14 -26.8025 32.6354
9 5 -14 12.9751 13.1236
9 5 -11 -21.6970 -103.0093
9 5 -8 14.1391 34.3982
9 5 -5 22.6397 -37.3169
9 5 -2 -33.4293 -35.4080
9 5 1 81.9869 18.7880
9 5 4 -39.2639 -30.0372
9 5 7 -2.6256 63.5447
9 5 10 -11.0729 7.2438
9 5 13 -39.8867 3.2521
9 5 16 34.3952 -20.8896
9 6 -15 20.9768 19.6129
9 6 -12 -27.6408 1.6652
9 6 -9 -38.4918 -46.8570
9 6 -6 91.0987 19.3858
9 6 -3 -17.0178 -53.6001
9 6 0 -67.0287 85.3062
9 6 3 -14.9666 -71.3395
9 6 6 -19.1306 27.2450
9 6 9 -44.5930 -24.9911
9 6 12 61.5170 41.6064
9 6 15 -19.9570 -39.8289
9 7 -13 -6.5394 0.0234
9 7 -10 -25.6003 -5.9403
9 7 -7 -11.8175 -115.2684
9 7 -4 -28.6590 56.7668
9 7 -1 -8.1623 64.1431
9 7 2 18.6140 28.3141
9 7 5 -30.6593 6.4133
9 7 8 3.0672 44.6170
9 7 11 -10.7723 -12.0138
9 7 14 0.5724 22.0536
9 8 -14 11.3845 37.7945
9 8 -11 -31.3408 -59.5299
9 8 -8 15.6468 8.1392
9 8 -5 -1.0013 6.9787
9 8 -2 -34.8860 87.9492
9 8 1 7.2520 -51.9995
9 8 4 8.8519 5.9514
9 8 7 -51.3051 -38.9619
9 8 10 -59.6876 -12.4684
9 8 13 32.2460 -14.7079
9 9 0 -14.9988 -147.4792
9 9 3 -12.0052 24.4754
9 9 6 19.4669 -6.0766
9 9 9 11.9974 -61.6446
9 9 12 -17.8261 -26.4953
10 0 -17 1.3331 -0.0000
10 0 -14 24.4279 0.0000
10 0 -11 63.3703 -0.0000
10 0 -8 -74.7847 0.0000
10 0 -5 -55.5894 -0.0000
10 0 -2 -27.7094 0.0000
10 0 1 95.0997 0.0000
10 0 4 40.8153 0.0000
10 0 7 1.5076 0.0000
10 0 10 1.0768 0.0000
10 0 13 -10.5177 0.0000
10 0 16 11.5781 0.0000
10 1 -15 -16.1637 22.8075
10 1 -12 1.2624 -28.3443
10 1 -9 32.1010 101.1145
10 1 -6 44.9148 -19.6507
10 1 -3 36.6747 -12.0094
10 1 0 -1.9200 -57.4139
10 1 3 13.0614 62.1775
10 1 6 -12.6809 -24.8674
10 1 9 26.2715 -1.5436
10 1 12 19.0812 -39.4376
10 1 15 -7.0016 -26.2720
10 2 -16 25.2408 -9.6732
10 2 -13 54.1002 -16.6380
10 2 -10 -1.2685 31.1257
10 2 -7 12.4806 130.7040
10 2 -4 -144.6525 -71.1040
10 2 -1 30.5857 -18.9925
10 2 2 -36.3855 6.6183
10 2 5 46.5218 -21.9699
10 2 8 -47.1467 -17.1772
10 2 11 57.0106 -23.3922
10 2 14 -35.9550 -13.4217
10 3 -14 -25.7125 -11.2847
10 3 -11 -41.0231 54.8979
10 3 -8 86.8800 63.6577
10 3 -5 -99.2967 -125.6838
10 3 -2 -19.6256 49.2857
10 3 1 23.8658 21.2322
10 3 4 -51.8629 42.8167
10 3 7 104.3077 4.6030
10 3 10 35.5225 1.6437
10 3 13 -41.3901 -20.3057
10 3 16 17.4791 -10.7410
10 4 -15 49.2683 6.3805
10 4 -12 43.9065 -26.7721
10 4 -9 25.3259 -22.7097
10 4 -6 -19.8831 -65.0686
10 4 -3 -49.9183 45.7667
10 4 0 -42.6444 -7.9884
10 4 3 40.2969 -28.8036
10 4 6 0.7365 -7.6836
10 4 9 -18.9408 -66.8709
10 4 12 42.4905 -64.5113
10 4 15 -9.1444 -13.6071
10 5 -13 -35.1175 -18.8992
10 5 -10 -28.3017 -57.1911
10 5 -7 -11.2050 -29.1516
10 5 -4 -58.2109 -111.2638
10 5 -1 3.5702 -30.7235
10 5 2 -41.5937 53.6518
10 5 5 -40.8865 38.4389
10 5 8 77.4121 63.0955
10 5 11 73.8137 -14.8519
10 5 14 -49.5757 18.6996
10 6 -14 28.8354 -17.8116
10 6 -11 -11.0848 -65.6350
10 6 -8 63.1897 -20.7167
10 6 -5 87.4083 81.1675
10 6 -2 -15.2739 22.0675
10 6 1 -28.7164 44.3671
10 6 4 -41.6576 -69.2737
10 6 7 -5.1327 55.0041
10 6 10 35.7917 -20.5862
10 6 13 10.5948 24.1564
10 7 -15 -19.2800 -25.2683
10 7 -12 -58.7553 -12.3339
10 7 -9 6.7011 -28.0186
10 7 -6 -17.3014 -53.6317
10 7 -3 38.2092 -124.7696
10 7 0 -122.9774 50.9813
10 7 3 14.6677 10.2683
10 7 6 13.1829 35.5492
10 7 9 38.9884 -53.8470
10 7 12 21.5768 2.1784
10 7 15 -40.4158 35.7505
10 8 -13 30.8328 -3.1991
10 8 -10 18.0565 -34.3315
10 8 -7 -26.2981 -73.8989
10 8 -4 27.3868 4.9773
10 8 -1 51.4875 48.7062
10 8 2 -61.0794 55.9867
10 8 5 52.9814 -17.3834
10 8 8 59.2489 -6.1255
10 8 11 -39.7768 19.3129
10 8 14 36.9465 16.4154
10 9 -14 4.2214 6.6952
10 9 -11 -38.2685 -1.5559
10 9 -8 10.7671 -46.2973
10 9 -5 46.2094 39.7453
10 9 -2 19.2541 -51.1583
10 9 1 -5.6726 -144.5679
10 9 4 -2.9302 15.7662
10 9 7 4.9141 -44.9914
10 9 10 -8.4806 13.0702
10 9 13 2.2902 -5.3583
10 10 0 -86.4792 -55.4332
10 10 3 34.5474 110.3034
10 10 9 11.4926 -2.2447
10 10 12 9.0161 6.5169
11 0 -16 -11.1987 0.0000
11 0 -13 39.0391 -0.0000
11 0 -10 90.8497 0.0000
11 0 -7 15.4065 0.0000
11 0 -4 110.0937 -0.0000
11 0 -1 -89.6589 0.0000
11 0 2 12.3894 0.0000
11 0 5 -24.5345 -0.0000
11 0 8 56.8942 0.0000
11 0 11 1.7791 0.0000
11 0 14 -45.3827 0.0000
11 1 -14 -14.3368 40.0685
11 1 -11 19.3065 -80.3121
11 1 -8 -42.6026 125.8785
11 1 -5 28.3273 -61.9645
11 1 -2 9.6694 50.2896
11 1 1 41.3631 -12.7759
11 1 4 -18.1207 -6.0994
11 1 7 45.7003 -8.1199
11 1 10 -34.4050 -18.0668
11 1 13 -32.2335 1.8224
11 1 16 15.4391 -11.2974
11 2 -15 11.3292 22.7780
11 2 -12 -23.7064 2.1225
11 2 -9 -15.1820 39.9881
11 2 -6 54.2679 -41.7849
11 2 -3 -7.3108 52.1835
11 2 0 -53.1392 -68.6709
11 2 3 -31.9268 -1.9458
11 2 6 127.7968 -76.6299
11 2 9 -16.0890 -88.4549
11 2 12 21.5821 -19.1271
11 2 15 -14.9340 -17.0066
11 3 -16 53.3770 -12.9691
11 3 -13 28.4646 -51.5002
11 3 -10 -61.9390 -3.7131
11 3 -7 -145.8347 -58.0948
11 3 -4 -0.4903 -28.1947
11 3 -1 16.0119 -36.1506
11 3 2 34.8594 37.3742
11 3 5 35.7343 -49.5878
11 3 8 13.6282 -50.9697
11 3 11 -25.5188 -59.8883
11 3 14 -25.5798 23.0091
11 4 -14 9.2445 8.2738
11 4 -11 -89.6099 -16.7403
11 4 -8 68.0438 105.6672
11 4 -5 -29.9789 -50.4144
11 4 -2 -43.1092 62.3011
11 4 1 -52.8914 -29.9391
11 4 4 52.0384 -31.7513
11 4 7 -18.8529 25.2250
11 4 10 38.5376 -27.6117
11 4 13 -6.5407 -17.5285
11 5 -15 28.6867 -15.4637
11 5 -12 -19.7142 32.3956
11 5 -9 -3.3332 -48.2740
11 5 -6 12.1854 45.4527
11 5 -3 7.1213 -74.8954
11 5 0 -92.6166 9.3473
11 5 3 132.5538 -50.2202
11 5 6 -19.8150 85.0709
11 5 9 1.9290 -63.8011
11 5 12 15.5418 -33.3568
11 5 15 -41.1690 3.1587
11 6 -13 8.3072 25.8001
11 6 -10 0.7851 41.2587
11 6 -7 -31.8152 -87.1940
11 6 -4 -23.3739 43.4501
11 6 -1 -19.0442 8.0308
11 6 2 -4.1104 -24.4546
11 6 5 18.1095 25.3281
11 6 8 -10.6824 36.5813
11 6 11 22.7131 -26.5793
11 6 14 -21.1170 36.4527
11 7 -14 5.6611 20.6704
11 7 -11 -5.1824 -16.2438
11 7 -8 -32.3017 36.3827
11 7 -5 27.5736 69.8892
11 7 -2 14.3699 -73.6523
11 7 1 -9.0673 -12.1924
11 7 4 26.3298 -5.7442
11 7 7 22.2477 30.1871
11 7 10 -11.7348 -20.8971
11 7 13 6.0375 -16.3184
11 8 -12 -3.6126 14.5880
11 8 -9 9.9946 -61.2833
11 8 -6 -22.5820 2.6008
11 8 -3 -0.7646 -19.1760
11 8 0 -18.0373 -69.4641
11 8 3 33.5145 0.7834
11 8 6 14.0148 -7.1783
11 8 9 4.1012 -15.3739
11 8 12 -13.0020 17.6782
11 9 -13 -1.5644 -21.1631
11 9 -10 -8.5359 -25.4779
11 9 -7 -21.1629 -3.6587
11 9 -4 -14.1818 61.8658
11 9 -1 52.1089 -117.9724
11 9 2 -20.6756 -103.2858
11 9 5 -20.7229 -57.8985
11 9 8 66.2230 21.2659
11 9 11 -6.6752 40.4554
11 10 -11 -13.2104 8.6476
11 10 -8 28.6482 37.0867
11 10 -5 -40.3904 -38.8557
11 10 -2 23.5547 22.0790
11 10 1 -51.8902 -132.3578
11 10 4 30.9241 41.1150
11 10 7 0.6690 16.2992
11 10 10 11.6703 20.8495
11 11 0 9.7413 -115.2628
11 11 3 -14.8247 49.9411
11 11 6 9.8259 26.1877
11 11 9 26.9089 -26.2618
11 11 12 -5.3974 8.5519
12 0 -15 21.0050 0.0000
12 0 -12 25.6252 0.0000
12 0 -9 -35.4290 0.0000
12 0 -6 87.8644 0.0000
12 0 -3 6.6060 0.0000
12 0 0 15.2813 0.0000
12 0 3 87.3662 0.0000
12 0 6 3.4057 -0.0000
12 0 9 0.0910 0.0000
12 0 12 -23.2844 0.0000
12 0 15 5.5812 0.0000
12 1 -16 34.7943 -8.4211
12 1 -13 -37.9134 18.5463
12 1 -10 11.8996 45.3801
12 1 -7 -51.4776 66.4565
12 1 -4 46.8174 -58.3822
12 1 -1 12.1243 -20.0811
12 1 2 -45.5932 32.8164
12 1 5 38.5887 -19.4614
12 1 8 62.7413 -35.8715
12 1 11 -96.2569 37.4492
12 1 14 9.2886 -74.0549
12 2 -14 17.4267 12.2943
12 2 -11 -46.9847 30.1588
12 2 -8 85.8050 100.5167
12 2 -5 -28.0963 -52.1518
12 2 -2 -35.1700 108.3415
12 2 1 44.8799 2.3184
12 2 4 -19.8360 10.0319
12 2 7 -19.2973 -40.7254
12 2 10 -24.9601 29.5434
12 2 13 -9.2642 -52.9531
12 3 -15 7.6170 18.5089
12 3 -12 -84.3532 41.7257
12 3 -9 105.6827 100.1233
12 3 -6 -167.8932 -216.8567
12 3 -3 25.6291 -13.4926
12 3 0 -94.8788 -1.7084
12 3 3 32.7290 38.2570
12 3 6 38.5043 14.8878
12 3 9 47.4629 -47.8933
12 3 12 -7.9971 -100.9270
12 3 15 -10.7554 8.8632
12 4 -13 74.1416 3.6827
12 4 -10 37.8528 -23.0233
12 4 -7 -3.9322 -85.2751
12 4 -4 -73.5569 49.5543
12 4 -1 9.6127 22.6111
12 4 2 4.8324 -47.8145
12 4 5 -34.1515 74.1231
12 4 8 -14.7260 -17.7534
12 4 11 35.3931 -28.7470
12 4 14 -19.9523 8.8888
12 5 -14 -24.8751 -20.1613
12 5 -11 -46.9813 23.1564
12 5 -8 53.5422 -56.3441
12 5 -5 -107.7917 68.0745
12 5 -2 -2.2190 -82.9237
12 5 1 -7.0072 -32.5595
12 5 4 -11.1924 49.3517
12 5 7 42.4511 59.0237
12 5 10 21.4198 -22.2311
12 5 13 -28.5756 -3.8255
12 6 -12 18.8550 26.3469
12 6 -9 -19.1254 -16.7479
12 6 -6 -2.7931 14.7548
12 6 -3 76.3684 37.1659
12 6 0 -19.4723 46.1469
12 6 3 -22.2792 2.7053
12 6 6 -0.9391 15.6308
12 6 9 12.6624 -12.4989
12 6 12 30.1672 -25.1902
12 7 -13 -31.2826 6.6407
12 7 -10 20.5469 -40.9291
12 7 -7 -88.1999 -14.6443
12 7 -4 -19.8766 6.0874
12 7 -1 62.7019 -112.6685
12 7 2 -66.3343 -25.1025
12 7 5 -9.7393 -1.3982
12 7 8 35.9530 84.7072
12 7 11 -13.5757 -12.1147
12 8 -11 -22.2774 16.2480
12 8 -8 -53.2113 51.7833
12 8 -5 53.6048 32.6995
12 8 -2 52.8485 57.3942
12 8 1 -52.6785 -2.3445
12 8 4 -30.3096 5.6370
12 8 7 -13.3791 43.4621
12 8 10 40.1881 -0.7385
12 8 13 -1.7225 15.5367
12 9 -12 -15.8518 -0.4100
12 9 -9 19.6387 -29.6923
12 9 -6 14.3704 1.1614
12 9 -3 27.4561 78.7792
12 9 0 -56.7587 -38.0956
12 9 3 38.3323 -7.4892
12 9 6 -59.7383 -2.7691
12 9 9 23.9589 -16.1645
12 9 12 0.7568 38.8527
12 10 -10 -5.7930 -12.4251
12 10 -7 12.9502 45.6918
12 10 -4 -24.2286 -7.1265
12 10 -1 -19.7705 74.8196
12 10 2 -100.4588 39.3939
12 10 5 4.4597 -29.9842
12 10 8 14.8980 0.2462
12 10 11 2.1396 48.4981
12 11 -11 13.8901 6.1072
12 11 -8 29.9554 -14.7229
12 11 -5 -16.3219 24.6315
12 11 -2 -44.5918 43.3049
12 11 1 13.2271 45.2697
12 11 4 2.3559 -19.1569
12 11 7 20.9060 -35.0672
12 11 10 -13.3504 -2.9402
12 12 0 -59.3073 144.6130
12 12 3 13.4051 -23.7882
12 12 6 39.2023 -19.4953
12 12 9 -22.8127 3.9957
13 0 -14 -41.0172 0.0000
13 0 -11 -10.5041 0.0000
13 0 -8 25.6269 0.0000
13 0 -5 52.3327 0.0000
13 0 -2 -52.2556 -0.0000
13 0 1 -13.2096 0.0000
13 0 4 58.5757 -0.0000
13 0 7 -21.3466 0.0000
13 0 10 2.7074 0.0000
13 0 13 10.9820 0.0000
13 1 -15 41.4946 -17.9922
13 1 -12 -48.0662 -4.9455
13 1 -9 -45.8565 -103.4093
13 1 -6 -107.7766 -13.1227
13 1 -3 157.7950 38.1638
13 1 0 -37.0296 5.2303
13 1 3 29.2081 41.7850
13 1 6 12.7711 -72.5391
13 1 9 29.0114 1.3075
13 1 12 -69.1138 5.6734
13 1 15 2.6791 51.0006
13 2 -13 14.5084 -14.5407
13 2 -10 -9.5379 40.9821
13 2 -7 -81.4950 -75.2644
13 2 -4 90.9575 55.4394
13 2 -1 -112.7156 3.1410
13 2 2 37.9458 34.7139
13 2 5 -21.8426 -55.4949
13 2 8 42.7616 -44.1564
13 2 11 -25.5507 5.2625
13 2 14 4.8166 34.6216
13 3 -14 42.0574 -3.9586
13 3 -11 -36.2118 -70.8694
13 3 -8 -31.1446 70.1345
13 3 -5 6.6167 -55.3356
13 3 -2 -16.6901 -57.5207
13 3 1 80.7094 45.0865
13 3 4 -4.1660 43.1645
13 3 7 38.2454 -16.7769
13 3 10 -52.7981 32.0571
13 3 13 -32.6163 -9.8031
13 4 -12 -12.6807 58.6168
13 4 -9 18.0722 42.7773
13 4 -6 35.9196 -33.1049
13 4 -3 -70.9016 -1.9286
13 4 0 14.3038 60.5081
13 4 3 35.0062 -33.9919
13 4 6 48.6785 15.5827
13 4 9 -102.1693 -23.7015
13 4 12 0.4518 -15.5414
13 5 -13 17.6785 14.0681
13 5 -10 29.0776 -6.7302
13 5 -7 -40.3935 -82.4471
13 5 -4 20.0618 30.2524
13 5 -1 -35.9586 -63.0140
13 5 2 55.0976 -64.4279
13 5 5 24.1163 38.0840
13 5 8 -31.5539 24.8337
13 5 11 -37.0334 -22.2066
13 5 14 7.8492 -7.0434
13 6 -11 17.4336 15.1934
13 6 -8 -16.5980 33.5197
13 6 -5 -79.6590 10.6830
13 6 -2 43.5027 58.7978
13 6 1 71.9681 -22.7968
13 6 4 -8.8321 64.9597
13 6 7 -35.8275 15.2542
13 6 10 -44.4754 -21.0329
13 6 13 21.9706 -22.9676
13 7 -12 14.9237 32.3024
13 7 -9 -36.9869 -45.2176
13 7 -6 16.5854 67.8136
13 7 -3 -25.0444 43.6035
13 7 0 16.9629 -135.3085
13 7 3 -11.3136 -34.6370
13 7 6 -26.5512 14.2329
13 7 9 22.8180 16.5701
13 7 12 1.9107 -15.2278
13 8 -10 7.9391 -26.0560
13 8 -7 -55.1775 -25.2638
13 8 -4 -110.8733 0.4878
13 8 -1 74.7548 -22.3353
13 8 2 -26.4712 -26.6722
13 8 5 8.0907 24.3176
13 8 8 -12.2887 31.8540
13 8 11 7.6485 5.3778
13 9 -11 0.9599 -18.3854
13 9 -8 -18.0725 47.7971
13 9 -5 -66.8346 6.5736
13 9 -2 46.1806 10.4063
13 9 1 -5.4786 -14.1480
13 9 4 -2.2114 -10.0093
13 9 7 -10.4155 -28.9663
13 9 10 -2.4718 -4.4456
13 10 -9 -9.4837 -6.5859
13 10 -6 -34.2682 16.1039
13 10 -3 13.7206 -1.9346
13 10 0 12.8433 89.1222
13 10 3 -14.4445 14.0919
13 10 6 -2.7490 -34.2927
13 10 9 -8.0822 -10.0134
13 11 -10 -9.9388 -11.2668
13 11 -7 4.8756 -47.3546
13 11 -4 -15.8798 21.6807
13 11 -1 11.1182 51.3819
13 11 2 -1.3283 -8.0727
13 11 5 -25.5574 -62.6637
13 11 8 27.9090 -30.5970
13 12 -8 -5.7616 5.1728
13 12 -5 16.4876 27.9685
13 12 -2 16.0244 -21.3750
13 12 1 -38.3441 30.8745
13 12 4 -18.1780 -17.9335
13 12 7 20.8313 -30.6472
13 13 0 -60.5961 -74.0322
13 13 3 24.5429 3.3808
13 13 6 20.9008 11.6647
14 0 -13 31.8489 0.0000
14 0 -10 5.5991 0.0000
14 0 -7 27.4771 0.0000
14 0 -1 -37.5868 0.0000
14 0 2 -18.5142 0.0000
14 0 5 22.4406 0.0000
14 0 8 -15.1563 0.0000
14 0 11 -61.2316 0.0000
14 0 14 -8.3640 -0.0000
14 1 -14 14.2992 -25.8846
14 1 -11 -15.3622 114.5330
14 1 -8 3.9032 -24.2262
14 1 -5 -24.1058 -36.8024
14 1 -2 -28.9085 15.1754
14 1 1 43.1587 3.1690
14 1 4 -31.9760 51.5221
14 1 7 53.4716 -57.5974
14 1 10 -34.2280 64.8697
14 1 13 -30.8457 -71.5714
14 2 -12 -7.7897 22.7645
14 2 -9 -27.7964 -8.2225
14 2 -6 41.3800 -115.1702
14 2 -3 -1.0488 58.3644
14 2 0 22.1729 54.0569
14 2 3 -20.1452 52.9715
14 2 6 2.1504 -70.4403
14 2 9 -6.6595 74.4166
14 2 12 -29.5996 -75.4216
14 3 -13 -1.0440 -4.5953
14 3 -10 39.8616 -21.7388
14 3 -7 20.9883 -64.5015
14 3 -4 -65.0258 -46.5781
14 3 -1 -12.0888 -54.0388
14 3 2 -31.0848 -10.8941
14 3 5 -17.6772 27.7583
14 3 8 -14.2571 47.3268
14 3 11 -72.1422 -30.3589
14 3 14 49.0681 -16.6750
14 4 -14 0.9430 -4.0622
14 4 -11 -21.5756 -29.0443
14 4 -8 70.9104 21.1991
14 4 -5 -35.9571 -3.0295
14 4 -2 -0.3152 23.0987
14 4 1 18.6300 51.7057
14 4 4 -16.3683 24.9968
14 4 7 13.0343 -30.4563
14 4 10 -42.1883 -14.8212
14 4 13 19.1615 -0.2094
14 5 -12 -22.8795 14.9368
14 5 -9 57.4937 -24.2723
14 5 -6 -48.5876 -45.9295
14 5 -3 10.2017 23.2504
14 5 0 -28.9699 -5.0698
14 5 3 -35.4475 -81.0900
14 5 6 7.5483 -2.6067
14 5 9 -53.4648 18.3682
14 5 12 19.3186 -37.7092
14 6 -13 28.8822 24.7861
14 6 -10 18.3619 -35.7264
14 6 -7 -87.3422 -46.2997
14 6 -4 -31.0560 -10.6060
14 6 -1 21.3750 -15.8315
14 6 2 -24.6939 5.6277
14 6 5 1.5288 32.1014
14 6 8 1.1774 3.7806
14 6 11 -12.3759 -40.8424
14 7 -11 9.9271 -5.6483
14 7 -8 -8.4022 -66.1352
14 7 -5 -51.5666 87.2226
14 7 -2 29.5946 69.5923
14 7 1 53.8649 -52.7627
14 7 4 -16.3953 -11.0676
14 7 7 -54.2815 55.2865
14 7 10 -36.2649 -10.2185
14 8 -9 -62.0185 -7.8567
14 8 -6 -4.8110 26.4504
14 8 -3 52.0093 -24.6203
14 8 0 -61.6995 38.0746
14 8 3 -15.4704 9.4333
14 8 6 -36.1033 30.5512
14 8 9 -18.6043 -11.8305
14 9 -10 30.0749 -21.7087
14 9 -7 -11.2010 -32.5439
14 9 -4 -40.9983 -14.2335
14 9 -1 -2.7310 44.6631
14 9 2 33.1874 8.5591
14 9 5 6.0153 4.2034
14 9 8 -45.4835 5.0518
14 9 11 -15.2578 12.8820
14 10 -8 -49.0117 32.7958
14 10 -5 24.1427 -8.8968
14 10 -2 -31.8693 -43.6260
14 10 1 -5.4241 81.6218
14 10 4 -23.7776 -30.1722
14 10 7 -8.7618 -33.8378
14 10 10 11.3227 -18.0007
14 11 -9 -0.7458 37.9905
14 11 -6 2.2718 -55.2244
14 11 -3 -47.2919 -27.8398
14 11 0 2.3083 61.8169
14 11 3 75.0201 17.9204
14 11 6 17.9255 -9.7789
14 11 9 7.7540 -7.9962
14 12 -7 0.9392 -31.6644
14 12 -4 10.0531 -22.2823
14 12 -1 -4.1979 -16.0980
14 12 2 -9.2397 -3.8582
14 12 5 29.3964 -28.3631
14 12 8 7.5405 -13.6384
14 13 -5 -16.5590 21.5125
14 13 -2 14.6084 -13.9069
14 13 1 -27.6263 -44.7182
14 13 4 45.4609 11.9405
14 14 0 -44.4813 -62.0643
14 14 3 65.8186 3.7594
15 0 -12 -37.2022 0.0000
15 0 -9 -91.8077 -0.0000
15 0 -6 71.8540 0.0000
15 0 -3 -48.8615 -0.0000
15 0 0 7.4209 -0.0000
15 0 3 -1.8448 0.0000
15 0 6 74.5169 0.0000
15 0 9 19.8009 -0.0000
15 0 12 -17.7326 0.0000
15 1 -13 19.0086 -38.9671
15 1 -10 0.0692 -71.1636
15 1 -7 -18.0222 -124.3330
15 1 -4 94.2323 7.0732
15 1 -1 -26.4221 -23.0562
15 1 2 -13.5429 17.9140
15 1 5 33.5178 -35.0299
15 1 8 9.5238 32.6455
15 1 11 -111.4637 -6.4451
15 1 14 22.6534 63.3327
15 2 -14 7.3488 -18.7998
15 2 -11 -59.7299 0.8582
15 2 -8 57.4003 42.9295
15 2 -5 4.0906 -22.9521
15 2 -2 -15.1888 17.9984
15 2 1 51.2014 50.7645
15 2 4 46.4313 40.4331
15 2 7 -44.5104 -34.0004
15 2 10 -26.3322 37.0520
15 2 13 50.5606 -0.4294
15 3 -12 0.1867 -23.0193
15 3 -9 -15.1824 -77.9693
15 3 -6 60.6533 -16.0223
15 3 0 -44.3272 -8.6331
15 3 3 53.4309 -29.6989
15 3 6 -63.2776 -54.0074
15 3 9 -82.0682 75.4259
15 3 12 -27.3156 -17.9988
15 4 -13 39.9822 -8.2375
15 4 -10 60.0021 4.9297
15 4 -7 14.6758 21.4664
15 4 -4 -10.8616 -64.7967
15 4 -1 -35.0992 0.4856
15 4 2 0.3129 36.1458
15 4 5 -6.7240 -8.0382
15 4 8 -32.1348 -13.9417
15 4 11 -13.0999 -53.6009
15 5 -11 37.3077 -43.8709
15 5 -8 -53.8021 40.0997
15 5 -5 2.4382 -67.1989
15 5 -2 -49.3829 -26.7684
15 5 1 45.5833 44.1010
15 5 4 -49.3142 -15.0203
15 5 7 19.5382 -74.3219
15 5 10 -60.1079 2.0858
15 6 -12 58.2803 13.9353
15 6 -9 -14.4565 -16.7385
15 6 -6 -52.7423 3.4735
15 6 -3 -57.4534 -3.9454
15 6 0 93.1199 -19.4070
15 6 3 -40.0961 23.4693
15 6 6 43.9472 -2.7314
15 6 9 -12.5764 -10.1426
15 6 12 8.8809 -36.3830
15 7 -10 -5.7719 -8.3249
15 7 -7 -52.1471 -79.2861
15 7 -4 -9.9468 10.5588
15 7 -1 -23.6672 -10.1624
15 7 2 -16.4042 -8.3760
15 7 5 53.5628 -3.7492
15 7 8 -1.6670 7.3373
15 7 11 -12.6541 3.4490
15 8 -8 -42.2535 4.6988
15 8 -5 -78.1173 36.9061
15 8 -2 72.6315 3.7448
15 8 1 12.7977 -18.5130
15 8 4 8.8040 63.5301
15 8 7 -10.9971 -4.0841
15 8 10 -10.2630 8.0709
15 9 -9 -7.0340 30.1676
15 9 -6 7.9086 -25.3373
15 9 -3 8.4235 -29.9314
15 9 0 -50.2696 -23.3383
15 9 3 -4.3053 8.7537
15 9 6 22.4561 -1.3976
15 9 9 9.7658 5.3065
15 10 -7 -47.0145 -41.3575
15 10 -4 -66.5394 19.7792
15 10 -1 21.2789 15.3845
15 10 2 9.7576 13.9491
15 10 5 -4.9822 4.3216
15 10 8 -11.0404 -3.8998
15 11 -5 -36.7560 1.2430
15 11 -2 12.7149 -61.8304
15 11 1 -54.8102 -18.4153
15 11 4 -4.6430 -4.3672
15 11 7 -1.6735 -15.0949
15 12 -6 -17.4318 24.7659
15 12 -3 21.4251 -4.5130
15 12 0 -17.8984 -22.6545
15 12 3 3.9377 34.8736
15 12 6 -13.3178 18.9296
15 13 -4 21.9338 18.1515
15 13 -1 -14.7256 -31.2915
15 13 2 -17.9044 -0.7526
16 0 -14 1.1185 0.0000
16 0 -11 -35.3162 0.0000
16 0 -8 71.4720 0.0000
16 0 -5 27.5572 -0.0000
16 0 -2 -11.4357 0.0000
16 0 1 -67.6348 0.0000
16 0 4 96.4562 0.0000
16 0 7 31.9787 0.0000
16 0 10 2.7316 0.0000
16 0 13 18.5157 0.0000
16 1 -12 -24.9720 33.8223
16 1 -9 -24.8614 69.4016
16 1 -6 59.9659 -84.7488
16 1 -3 26.3569 19.5591
16 1 0 -63.8858 43.2232
16 1 3 40.9711 -12.9196
16 1 6 -56.7968 1.6310
16 1 9 13.0475 61.6805
16 1 12 -22.8920 -58.2745
16 2 -13 29.6159 -0.5771
16 2 -10 10.3988 -36.2858
16 2 -7 20.5827 -74.6342
16 2 -4 -51.2946 -29.1181
16 2 -1 -37.7942 45.9252
16 2 2 -43.7560 -18.9864
16 2 5 52.9597 -16.5323
16 2 8 -18.0486 47.4365
16 2 11 -4.3167 -43.6238
16 3 -11 -14.4336 -14.4421
16 3 -8 58.9376 2.1991
16 3 -5 -57.6203 32.3009
16 3 -2 3.7203 20.7689
16 3 1 -8.1300 -23.4407
16 3 4 21.0581 -58.6682
16 3 7 -23.7032 21.1242
16 3 10 -28.6193 14.5228
16 3 13 0.1276 -10.6097
16 4 -12 2.8781 -22.0795
16 4 -9 -29.5950 -36.0579
16 4 -6 -56.6375 38.8127
16 4 -3 19.1974 -72.2162
16 4 0 -40.3400 22.6795
16 4 3 -34.3295 -35.1387
16 4 6 9.7569 -80.5094
16 4 9 -24.0786 -6.4099
16 4 12 2.9187 -41.4378
16 5 -10 47.3188 -43.6010
16 5 -7 -19.4810 43.0648
16 5 -4 -5.8227 -30.4526
16 5 -1 1.0993 -34.5141
16 5 2 0.2456 2.0401
16 5 5 -0.6812 -20.3789
16 5 8 -9.9774 16.0521
16 5 11 -18.3230 -16.5023
16 6 -11 10.0510 -7.7283
16 6 -8 -32.1044 39.2561
16 6 -5 13.4348 -13.8639
16 6 -2 -27.6891 -39.7528
16 6 1 -2.9030 10.2458
16 6 4 7.7270 53.6357
16 6 7 -25.0203 -33.1781
16 6 10 -2.5367 -30.6395
16 7 -9 20.4503 11.5858
16 7 -6 36.8106 -54.6875
16 7 -3 -3.6719 16.7032
16 7 0 -2.5833 -15.1004
16 7 3 30.4598 25.6091
16 7 6 -4.3294 48.5777
16 7 9 -27.1824 23.8780
16 8 -7 -26.1602 -72.9168
16 8 -4 -5.9138 4.5107
16 8 -1 -17.3464 -19.8062
16 8 2 12.7334 22.1523
16 8 5 11.7745 85.9372
16 8 8 -34.4211 -36.5508
16 9 -8 9.6503 0.5007
16 9 -5 -35.2867 15.2643
16 9 -2 41.0202 -24.3153
16 9 1 19.1282 -20.1063
16 9 4 -10.9269 17.8602
16 9 7 -45.8749 -9.2865
16 10 -6 -23.8987 -16.7187
16 10 -3 7.9741 -57.5272
16 10 0 -43.4252 19.3272
16 10 3 -5.4851 1.2023
16 10 6 -6.4423 26.9763
16 11 -4 -32.8448 -37.4507
16 11 -1 24.6634 3.8380
16 11 2 -17.2513 -25.6887
16 11 5 20.7040 0.6027
16 12 -2 12.7467 -41.3493
16 12 1 -28.8850 -6.0672
16 12 4 -0.5689 -11.6375
17 0 -13 -1.0952 0.0000
17 0 -10 -10.9096 0.0000
17 0 -7 42.5539 0.0000
17 0 -4 -15.7303 0.0000
17 0 -1 -73.2494 0.0000
17 0 2 -17.2565 0.0000
17 0 5 -15.7894 0.0000
17 0 8 43.0017 0.0000
17 0 11 12.8322 0.0000
17 1 -11 4.5569 -55.7203
17 1 -8 -66.1683 -29.4621
17 1 -5 3.1256 -50.9192
17 1 -2 24.3586 -44.8595
17 1 1 6.6042 -26.0935
17 1 4 30.4616 -31.7509
17 1 7 -34.9948 12.1987
17 1 10 -4.0066 5.4420
17 1 13 -21.2265 26.5405
17 2 -12 -11.7438 10.0392
17 2 -9 -54.5111 25.7333
17 2 -6 16.8771 18.6251
17 2 -3 -62.5593 -69.1400
17 2 0 7.7843 29.6217
17 2 3 7.2078 -15.8825
17 2 6 -22.5121 6.9640
17 2 9 -4.3329 -6.1918
17 2 12 -11.7396 -17.7239
17 3 -10 29.7211 -39.7417
17 3 -7 -82.3660 -30.9830
17 3 -4 33.0318 -94.6858
17 3 -1 -40.9171 2.1594
17 3 2 -30.5830 -45.6385
17 3 5 -16.7392 -89.4679
17 3 8 -54.1230 -14.3764
17 3 11 -21.9700 10.4668
17 4 -11 9.7103 -25.1025
17 4 -8 9.5530 99.4105
17 4 -5 -19.7136 20.6238
17 4 -2 52.9656 -26.7570
17 4 1 26.1243 32.9610
17 4 4 -39.4469 15.4991
17 4 7 51.9502 -91.4064
17 4 10 19.8347 -15.2744
17 5 -9 -23.5149 27.0485
17 5 -6 -12.1141 -10.6331
17 5 -3 -27.6706 -50.2825
17 5 0 -75.4408 -32.5598
17 5 3 -5.6222 9.3183
17 5 6 -9.5739 -77.6316
17 5 9 10.8721 15.7462
17 6 -10 14.6811 -1.7414
17 6 -7 -7.0196 16.3236
17 6 -4 -3.4481 42.7236
17 6 -1 46.7908 -47.2779
17 6 2 16.1478 44.8626
17 6 5 62.7297 49.3781
17 6 8 33.5248 -29.4406
17 7 -8 -22.6110 52.5229
17 7 -5 31.3472 -12.1673
17 7 -2 -2.4486 -42.9965
17 7 1 -67.8462 2.9357
17 7 4 10.4438 31.1233
17 7 7 -3.9796 -48.6556
17 8 -6 -24.3190 -9.8400
17 8 -3 -11.3663 15.7559
17 8 0 13.7701 -9.5166
17 8 3 -1.0858 11.6662
17 8 6 12.0655 55.3668
17 9 -7 -12.0620 -20.7316
17 9 -4 -6.4037 2.9034
17 9 -1 -1.9391 28.2090
17 9 2 -49.4297 -32.5205
17 9 5 5.9131 -7.2585
17 10 -5 -46.1171 19.7243
17 10 -2 5.5240 7.4704
17 10 1 -32.0899 -18.7506
17 10 4 -40.2356 2.8181
17 11 -3 3.0402 -7.4507
17 11 0 -31.6614 1.9555
17 11 3 -48.7602 -10.2826
18 0 -12 -22.0620 -0.0000
18 0 -9 -137.0437 -0.0000
18 0 -6 36.1877 -0.0000
18 0 -3 -32.6117 0.0000
18 0 0 -40.1500 0.0000
18 0 3 -21.2213 0.0000
18 0 6 13.9646 0.0000
18 0 9 32.4129 0.0000
18 0 12 -9.0252 -0.0000
18 1 -10 10.9518 36.4315
18 1 -7 -14.4970 16.1838
18 1 -4 -73.8470 -15.9748
18 1 -1 -1.7292 85.1946
18 1 2 13.1498 -25.2872
18 1 5 -7.2296 16.6644
18 1 8 -33.4007 21.9234
18 1 11 -10.0187 2.6009
18 2 -11 -24.2800 -0.3493
18 2 -8 -4.1630 4.6476
18 2 -5 -78.8106 2.2314
18 2 -2 21.4907 48.2986
18 2 1 -79.8936 -59.6765
18 2 4 37.5699 -36.4040
18 2 7 -0.1702 -18.8090
18 2 10 8.7629 -2.9638
18 3 -9 23.1114 32.5874
18 3 -6 -43.9943 10.0645
18 3 -3 -39.9506 -4.6351
18 3 0 2.2066 33.0001
18 3 3 35.1138 -75.7678
18 3 6 -14.6635 -28.7108
18 3 9 -6.1547 23.3742
18 4 -10 11.5449 -13.3532
18 4 -7 -49.2236 -20.4918
18 4 -4 9.4503 77.0514
18 4 -1 3.0285 -10.4165
18 4 2 16.1055 -1.2539
18 4 5 -52.7521 -15.7388
18 4 8 -6.9591 -67.4057
18 5 -8 45.7500 53.7727
18 5 -5 20.0465 89.8394
18 5 -2 34.6372 -51.4932
18 5 1 -5.8447 0.5502
18 5 4 3.5210 -66.0545
18 5 7 -29.1128 26.4131
18 5 10 -5.7088 13.1803
18 6 -9 1.8332 -28.2186
18 6 -6 22.6287 38.3757
18 6 -3 -13.9962 -26.4446
18 6 0 -46.7372 -8.0043
18 6 3 33.4250 -1.0124
18 6 6 -45.6602 88.5886
18 6 9 -18.4105 -24.7906
18 7 -7 15.6496 46.4036
18 7 -4 10.7074 -16.8256
18 7 -1 32.2477 -12.8470
18 7 2 19.7422 -4.2940
18 7 5 -18.4825 41.3640
18 7 8 -43.9814 -30.2422
18 8 -5 11.1354 -34.9200
18 8 -2 -41.0123 4.3082
18 8 1 -5.2480 -3.9862
18 8 4 -32.2084 37.3266
18 8 7 -46.2340 3.3442
18 9 -3 -27.8208 15.2439
18 9 0 39.1503 24.5765
18 9 3 -26.4082 5.9802
18 10 -1 -13.3178 40.5305
18 10 2 -26.8720 -17.1367
19 0 -11 -32.6574 0.0000
19 0 -8 -41.6736 -0.0000
19 0 -5 -44.2451 0.0000
19 0 -2 11.5781 0.0000
19 0 1 71.3508 0.0000
19 0 4 -59.2650 0.0000
19 0 7 21.4575 0.0000
19 0 10 21.1289 0.0000
19 1 -9 -58.9573 -25.3308
19 1 -6 -30.6960 -26.5484
19 1 -3 -66.1171 -57.9450
19 1 0 16.0756 -71.6365
19 1 3 22.7003 -20.2042
19 1 6 -38.5723 -20.4148
19 1 9 -28.1586 -18.2288
19 2 -10 2.5192 19.8446
19 2 -7 3.9942 -1.4168
19 2 -4 25.8954 -5.4234
19 2 -1 35.9723 42.4344
19 2 2 -36.3057 7.8264
19 2 5 -21.1664 -10.7563
19 2 8 35.7117 -73.2120
19 2 11 0.6217 3.1967
19 3 -8 -20.8973 23.8695
19 3 -5 5.8663 20.4507
19 3 -2 -19.9491 -24.7717
19 3 1 -41.7520 -19.3291
19 3 4 -23.5727 -88.5694
19 3 7 19.6331 -92.2345
19 3 10 -11.6539 28.1739
19 4 -9 13.4546 3.7698
19 4 -6 -11.4599 14.3323
19 4 -3 18.0791 -1.2861
19 4 0 18.2118 9.9845
19 4 3 35.2260 -25.5948
19 4 6 23.7122 52.8927
19 4 9 34.3054 -37.3716
19 5 -7 -24.4170 40.5850
19 5 -4 25.2090 38.7104
19 5 -1 -5.9515 -10.2190
19 5 2 -20.3846 8.4034
19 5 5 8.1187 -51.3098
19 5 8 -21.1784 -49.7100
19 6 -5 18.2606 5.8504
19 6 -2 35.1342 -34.3706
19 6 1 2.9049 7.6883
19 6 4 7.2906 -18.5448
19 6 7 14.8538 17.0224
19 7 -6 8.9889 19.9363
19 7 -3 -33.0383 -2.8287
19 7 0 -21.3555 18.5693
19 7 3 -15.4514 -6.1637
19 7 6 13.2188 -41.5050
19 8 -4 -5.5132 -24.5093
19 8 -1 5.7265 39.4380
19 8 2 9.6575 -25.1605
19 8 5 4.5056 -37.6833
19 9 -2 -45.5686 44.8056
19 9 1 -14.1142 -12.9642
20 0 -10 -22.4275 0.0000
20 0 -7 -5.8810 0.0000
20 0 -4 -17.2402 -0.0000
20 0 -1 -0.9483 -0.0000
20 0 2 -29.6085 0.0000
20 0 8 -15.2503 -0.0000
20 0 11 6.4978 0.0000
20 1 -8 13.7785 18.9237
20 1 -5 -4.8680 15.7965
20 1 -2 -41.5726 55.9826
20 1 1 19.1729 0.3370
20 1 4 28.3939 -32.3031
20 1 7 36.5108 15.5333
20 1 10 -10.9053 19.9843
20 2 -9 -11.0104 -18.5821
20 2 -6 18.1976 1.5215
20 2 -3 -6.4731 22.4505
20 2 0 2.8185 -21.1077
20 2 3 -28.8963 -8.7201
20 2 6 -28.5962 13.5266
20 2 9 -29.7962 -20.5784
20 3 -7 22.3052 9.8137
20 3 -4 3.4470 49.0181
20 3 -1 -4.7542 24.5879
20 3 2 4.6031 20.5437
20 3 5 -10.4252 -18.9284
20 3 8 -1.1700 -46.3610
20 4 -8 46.6679 7.0877
20 4 -5 -8.2495 19.3471
20 4 -2 -6.4234 10.7130
20 4 1 -13.1058 -21.9949
20 4 4 -15.1047 -17.5902
20 4 7 -57.7931 34.3031
20 5 -6 -26.9915 20.7587
20 5 -3 -42.4299 -5.3887
20 5 0 32.2029 22.6639
20 5 3 -6.6891 -19.4157
20 5 6 -2.5910 8.4950
20 6 -4 -9.9614 -9.6849
20 6 -1 1.8979 14.8025
20 6 2 37.6109 -8.7916
20 6 5 -28.9647 1.4201
20 7 -2 -4.3954 7.0341
20 7 1 24.0704 19.6949
20 7 4 -28.6872 -20.3778
21 0 -9 -38.8902 0.0000
21 0 -6 46.6101 0.0000
21 0 -3 2.1353 0.0000
21 0 0 19.3190 -0.0000
21 0 3 -0.9346 0.0000
21 0 6 18.9426 0.0000
21 0 9 -2.5426 0.0000
21 1 -7 38.3304 -10.9077
21 1 -4 12.4963 -1.1040
21 1 -1 -23.9605 -42.9127
21 1 2 -18.5183 22.7880
21 1 5 18.9077 -52.8213
21 1 8 -7.0836 -42.8537
21 2 -8 28.2226 3.4698
21 2 -5 34.8237 2.2194
21 2 -2 12.3934 -3.7725
21 2 1 16.0267 30.5786
21 2 4 -7.6451 -5.5831
21 2 7 67.5785 -25.8943
21 3 -6 -45.1818 -12.2199
21 3 -3 -12.9935 22.0554
21 3 0 6.0595 -18.1248
21 3 3 -9.9631 24.7691
21 3 6 13.3921 -47.5658
21 4 -1 20.4081 33.4423
21 4 2 0.3220 -8.9397
21 4 5 48.8458 -21.7165
21 5 -5 -8.0471 1.3722
21 5 -2 -16.5670 21.3188
21 5 1 16.9212 -4.8737
21 5 4 -0.6062 -24.3074
21 6 -3 2.9104 -33.2041
21 6 0 11.2568 -2.7095
21 6 3 12.3953 -53.1105
22 0 -8 51.9499 -0.0000
22 0 -5 -9.7682 0.0000
22 0 -2 22.8973 0.0000
22 0 1 -8.7037 0.0000
22 0 4 -21.9291 0.0000
22 0 7 -32.8248 0.0000
22 1 -6 -14.4979 4.1156
22 1 -3 -23.5999 -1.2111
22 1 0 36.8381 22.6649
22 1 3 -12.1341 32.3594
22 1 6 25.1161 -17.4434
22 2 -7 17.4642 -19.2292
22 2 -4 7.0716 24.1643
22 2 -1 16.1883 -13.3266
22 2 2 -2.6803 53.3713
22 2 5 -71.4026 -5.0054
22 3 -5 -26.5240 0.2524
22 3 -2 0.3461 24.6786
22 3 1 3.9397 27.0534
22 3 4 -15.7723 -8.3081
22 4 -3 -1.4747 -2.9571
22 4 0 -1.1844 -10.6913
22 4 3 -12.8604 -18.7095
22 5 -1 -25.1645 32.7966
23 0 -7 39.8391 0.0000
23 0 -1 3.2523 0.0000
23 0 2 -11.1279 0.0000
23 0 5 30.4695 0.0000
23 1 -5 -38.3513 23.4701
23 1 -2 30.1140 -23.0990
23 1 1 53.6249 17.0351
23 1 4 -7.1995 0.3961
23 2 -3 24.5590 -16.6197
23 2 0 -41.1445 0.5487
23 2 3 13.0696 7.3763
23 3 -1 -1.9461 9.7640
23 3 2 26.6479 21.3619
24 0 -3 29.9476 0.0000
24 0 0 9.1574 0.0000
24 0 3 -36.7009 -0.0000
24 1 -1 -24.6564 0.1670
24 1 2 36.2050 18.4019
0 0 0 0.0 0.0
;
_olex2_exptl_crystal_mounting_method
'Crystal coated in isopropanol:water mother liquor and mounted in a quarts capillary'
_olex2_submission_special_instructions 'No special instructions were received'
_oxdiff_exptl_absorpt_empirical_details
;
Empirical correction (ABSPACK) includes:
- Absorption correction using spherical harmonics
- Frame scaling
;
_oxdiff_exptl_absorpt_empirical_full_max 4.908
_oxdiff_exptl_absorpt_empirical_full_min 0.626
#END Tags that were not found in dictionaries
loop_
_space_group_symop_id
_space_group_symop_operation_xyz
1 'x, y, z'
2 '-y, x-y, z'
3 '-x+y, -x, z'
4 'x-y, -y, -z'
5 '-x, -x+y, -z'
6 'y, x, -z'
7 'x+2/3, y+1/3, z+1/3'
8 '-y+2/3, x-y+1/3, z+1/3'
9 '-x+y+2/3, -x+1/3, z+1/3'
10 'x-y+2/3, -y+1/3, -z+1/3'
11 '-x+2/3, -x+y+1/3, -z+1/3'
12 'y+2/3, x+1/3, -z+1/3'
13 'x+1/3, y+2/3, z+2/3'
14 '-y+1/3, x-y+2/3, z+2/3'
15 '-x+y+1/3, -x+2/3, z+2/3'
16 'x-y+1/3, -y+2/3, -z+2/3'
17 '-x+1/3, -x+y+2/3, -z+2/3'
18 'y+1/3, x+2/3, -z+2/3'
loop_
_atom_site_label
_atom_site_type_symbol
_atom_site_fract_x
_atom_site_fract_y
_atom_site_fract_z
_atom_site_U_iso_or_equiv
_atom_site_adp_type
_atom_site_occupancy
_atom_site_site_symmetry_order
_atom_site_calc_flag
_atom_site_refinement_flags_posn
_atom_site_refinement_flags_adp
_atom_site_refinement_flags_occupancy
C1 C 0.7465(5) 0.6657(7) 0.4033(8) 0.148(12) Uiso 1 1 d D U .
H1 H 0.7555 0.6818 0.3759 0.177 Uiso 1 1 calc R . .
C2 C 0.7325(6) 0.6768(5) 0.4470(8) 0.117(11) Uiso 1 1 d D U .
H2 H 0.7162 0.6847 0.4356 0.141 Uiso 1 1 calc R . .
C3 C 0.7154(7) 0.6525(7) 0.4875(9) 0.193(15) Uiso 1 1 d D U .
H3 H 0.7325 0.6450 0.4969 0.232 Uiso 1 1 calc R . .
C4 C 0.6818(6) 0.6182(6) 0.4758(8) 0.181(15) Uiso 1 1 d D U .
H4 H 0.6631 0.6238 0.4677 0.217 Uiso 1 1 calc R . .
C5 C 0.6889(8) 0.6018(6) 0.4331(9) 0.180(14) Uiso 1 1 d D U .
H5 H 0.7029 0.5916 0.4458 0.216 Uiso 1 1 calc R . .
C6 C 0.6613(8) 0.5726(9) 0.4025(13) 0.240(18) Uiso 1 1 d D U .
H6B H 0.6723 0.5694 0.3742 0.288 Uiso 1 1 calc R . .
H6A H 0.6497 0.5502 0.4198 0.288 Uiso 1 1 calc R . .
C11 C 0.8625(6) 0.6626(8) 0.3681(11) 0.178(15) Uiso 1 1 d D U .
H11 H 0.8824 0.6668 0.3474 0.214 Uiso 1 1 calc R . .
C12 C 0.8635(7) 0.6982(6) 0.3800(12) 0.209(16) Uiso 1 1 d D U .
H12 H 0.8617 0.7087 0.3499 0.250 Uiso 1 1 calc R . .
C13 C 0.8311(6) 0.6897(6) 0.4088(12) 0.172(14) Uiso 1 1 d D U .
H13 H 0.8359 0.6817 0.4392 0.206 Uiso 1 1 calc R . .
C14 C 0.7983(5) 0.6579(6) 0.3921(8) 0.098(10) Uiso 1 1 d D U .
H14 H 0.7931 0.6665 0.3626 0.118 Uiso 1 1 calc R . .
C15 C 0.7967(5) 0.6244(6) 0.3764(9) 0.094(10) Uiso 1 1 d D U .
H15 H 0.7988 0.6111 0.4033 0.113 Uiso 1 1 calc R . .
C16 C 0.7674(8) 0.6006(8) 0.3434(10) 0.169(14) Uiso 1 1 d D U .
H16A H 0.7697 0.5800 0.3354 0.202 Uiso 1 1 calc R . .
H16B H 0.7445 0.5921 0.3589 0.202 Uiso 1 1 calc R . .
C21 C 0.9403(9) 0.6230(9) 0.4619(10) 0.168(14) Uiso 1 1 d D U .
H21 H 0.9614 0.6202 0.4625 0.202 Uiso 1 1 calc R . .
C22 C 0.9540(10) 0.6629(10) 0.4682(11) 0.219(17) Uiso 1 1 d D U .
H22 H 0.9708 0.6772 0.4431 0.262 Uiso 1 1 calc R . .
C23 C 0.9195(10) 0.6632(9) 0.4647(14) 0.255(19) Uiso 1 1 d D U .
H23 H 0.9065 0.6548 0.4948 0.305 Uiso 1 1 calc R . .
C24 C 0.8952(9) 0.6452(8) 0.4252(11) 0.177(14) Uiso 1 1 d D U .
H24 H 0.9115 0.6588 0.3993 0.212 Uiso 1 1 calc R . .
C25 C 0.8901(8) 0.6100(8) 0.4127(11) 0.198(15) Uiso 1 1 d D U .
H25 H 0.8754 0.5935 0.4379 0.238 Uiso 1 1 calc R . .
C26 C 0.8736(7) 0.5924(8) 0.3663(10) 0.191(15) Uiso 1 1 d D U .
H26B H 0.8618 0.5667 0.3702 0.230 Uiso 1 1 calc R . .
H26A H 0.8557 0.5985 0.3574 0.230 Uiso 1 1 calc R . .
C31 C 0.9369(6) 0.5514(9) 0.6175(8) 0.238(18) Uiso 1 1 d D U .
H31 H 0.9468 0.5388 0.6351 0.286 Uiso 1 1 calc R . .
C32 C 0.9625(11) 0.5915(9) 0.6182(12) 0.234(18) Uiso 1 1 d D U .
H32 H 0.9848 0.5946 0.6047 0.281 Uiso 1 1 calc R . .
C33 C 0.9494(10) 0.6096(6) 0.5822(13) 0.200(16) Uiso 1 1 d D U .
H33 H 0.9293 0.6112 0.5954 0.240 Uiso 1 1 calc R . .
C34 C 0.9376(8) 0.5850(8) 0.5393(10) 0.150(12) Uiso 1 1 d D U .
H34 H 0.9575 0.5849 0.5227 0.179 Uiso 1 1 calc R . .
C35 C 0.9050(8) 0.5487(7) 0.5423(8) 0.170(14) Uiso 1 1 d D U .
H35 H 0.8870 0.5511 0.5604 0.204 Uiso 1 1 calc R . .
C36 C 0.8869(6) 0.5270(9) 0.4988(9) 0.230(18) Uiso 1 1 d D U .
H36A H 0.8714 0.5024 0.5081 0.276 Uiso 1 1 calc R . .
H36B H 0.8722 0.5357 0.4849 0.276 Uiso 1 1 calc R . .
C41 C 0.8374(5) 0.4928(8) 0.7526(10) 0.147(13) Uiso 1 1 d D U .
H41 H 0.8306 0.4785 0.7818 0.176 Uiso 1 1 calc R . .
C42 C 0.8685(7) 0.5290(7) 0.7647(9) 0.112(11) Uiso 1 1 d D U .
H42 H 0.8857 0.5230 0.7784 0.135 Uiso 1 1 calc R . .
C43 C 0.8857(7) 0.5460(6) 0.7183(9) 0.112(11) Uiso 1 1 d D U .
H43 H 0.8714 0.5561 0.7062 0.134 Uiso 1 1 calc R . .
C44 C 0.8879(5) 0.5254(6) 0.6782(8) 0.062(8) Uiso 1 1 d D U .
H44 H 0.9054 0.5190 0.6893 0.074 Uiso 1 1 calc R . .
C45 C 0.8552(7) 0.4902(7) 0.6728(8) 0.110(10) Uiso 1 1 d D U .
H45 H 0.8376 0.4961 0.6600 0.132 Uiso 1 1 calc R . .
C46 C 0.8554(8) 0.4648(7) 0.6376(10) 0.116(11) Uiso 1 1 d D U .
H46A H 0.8611 0.4757 0.6063 0.139 Uiso 1 1 calc R . .
H46B H 0.8320 0.4435 0.6362 0.139 Uiso 1 1 calc R . .
C51 C 0.7065(7) 0.4694(8) 0.7797(10) 0.184(14) Uiso 1 1 d D U .
H51 H 0.6830 0.4561 0.7948 0.221 Uiso 1 1 calc R . .
C52 C 0.7334(6) 0.4899(5) 0.8195(8) 0.103(10) Uiso 1 1 d D U .
H52 H 0.7357 0.4747 0.8434 0.124 Uiso 1 1 calc R . .
C53 C 0.7645(7) 0.5077(7) 0.7858(10) 0.137(12) Uiso 1 1 d D U .
H53 H 0.7644 0.5244 0.7623 0.165 Uiso 1 1 calc R . .
C54 C 0.7761(5) 0.4814(6) 0.7697(9) 0.107(10) Uiso 1 1 d D U .
H54 H 0.7770 0.4663 0.7951 0.129 Uiso 1 1 calc R . .
C55 C 0.7483(6) 0.4611(7) 0.7315(9) 0.124(11) Uiso 1 1 d D U .
H55 H 0.7481 0.4789 0.7101 0.148 Uiso 1 1 calc R . .
C56 C 0.7517(9) 0.4349(8) 0.7015(9) 0.211(17) Uiso 1 1 d D U .
H56A H 0.7295 0.4183 0.6860 0.253 Uiso 1 1 calc R . .
H56B H 0.7706 0.4462 0.6781 0.253 Uiso 1 1 calc R . .
C61 C 0.6218(9) 0.5096(8) 0.7005(14) 0.243(18) Uiso 1 1 d D U .
H61 H 0.5996 0.5104 0.7002 0.292 Uiso 1 1 calc R . .
C62 C 0.6484(9) 0.5330(8) 0.7364(12) 0.179(15) Uiso 1 1 d D U .
H62 H 0.6371 0.5262 0.7678 0.215 Uiso 1 1 calc R . .
C63 C 0.6803(8) 0.5266(7) 0.7359(10) 0.156(13) Uiso 1 1 d D U .
H63 H 0.6983 0.5395 0.7114 0.188 Uiso 1 1 calc R . .
C64 C 0.6674(9) 0.4870(8) 0.7402(12) 0.175(14) Uiso 1 1 d D U .
H64 H 0.6534 0.4760 0.7690 0.210 Uiso 1 1 calc R . .
C65 C 0.6472(9) 0.4699(7) 0.6945(11) 0.152(13) Uiso 1 1 d D U .
H65 H 0.6636 0.4813 0.6678 0.182 Uiso 1 1 calc R . .
C66 C 0.6330(10) 0.4301(8) 0.6913(14) 0.220(17) Uiso 1 1 d D U .
H66A H 0.6180 0.4194 0.6636 0.263 Uiso 1 1 calc R . .
H66B H 0.6518 0.4241 0.6922 0.263 Uiso 1 1 calc R . .
C71 C 0.6344(7) 0.5752(6) 0.5302(10) 0.223(16) Uiso 1 1 d D U .
H71 H 0.6231 0.5805 0.5036 0.268 Uiso 1 1 calc R . .
C72 C 0.6247(9) 0.5896(9) 0.5710(10) 0.189(15) Uiso 1 1 d D U .
H72 H 0.5987 0.5783 0.5746 0.226 Uiso 1 1 calc R . .
C73 C 0.6412(9) 0.5784(7) 0.6106(10) 0.148(12) Uiso 1 1 d D U .
H73 H 0.6664 0.5913 0.6012 0.178 Uiso 1 1 calc R . .
C74 C 0.6342(8) 0.5407(6) 0.6125(10) 0.147(13) Uiso 1 1 d D U .
H74 H 0.6087 0.5292 0.6201 0.177 Uiso 1 1 calc R . .
C75 C 0.6303(7) 0.5230(6) 0.5659(9) 0.121(11) Uiso 1 1 d D U .
H75 H 0.6547 0.5283 0.5589 0.145 Uiso 1 1 calc R . .
C76 C 0.6099(7) 0.4837(6) 0.5656(10) 0.197(16) Uiso 1 1 d D U .
H76A H 0.6098 0.4762 0.5331 0.237 Uiso 1 1 calc R . .
H76B H 0.6233 0.4756 0.5843 0.237 Uiso 1 1 calc R . .
K1 K 0.89413(19) 0.7910(2) 0.4180(3) 0.157(3) Uani 1 1 d D U .
K2 K 0.6667 0.6374(3) 0.3333 0.306(11) Uani 1 2 d DS TU P
K3 K 0.9757(3) 0.6423(3) 0.3333 0.236(7) Uani 1 2 d S TU P
O2 O 0.7650(6) 0.7076(6) 0.4610(8) 0.191(2) Uiso 1 1 d D U .
H2A H 0.7659 0.7092 0.4901 0.287 Uiso 1 1 calc R . .
O3 O 0.7097(6) 0.6674(6) 0.5298(8) 0.191(2) Uiso 1 1 d D U .
H3A H 0.6882 0.6583 0.5347 0.287 Uiso 1 1 calc R . .
O4 O 0.6723(6) 0.5986(6) 0.5204(7) 0.191(2) Uiso 1 1 d D U .
O5 O 0.7118(6) 0.6264(6) 0.3964(7) 0.191(2) Uiso 1 1 d D U .
O6 O 0.6351(6) 0.5837(6) 0.3893(8) 0.191(2) Uiso 1 1 d D U .
H6 H 0.6155 0.5694 0.4004 0.287 Uiso 1 1 calc R . .
O12 O 0.8929(6) 0.7269(6) 0.4079(8) 0.191(2) Uiso 1 1 d D U .
H12A H 0.8946 0.7189 0.4336 0.287 Uiso 1 1 calc R . .
O13 O 0.8281(6) 0.7210(5) 0.4226(8) 0.191(2) Uiso 1 1 d D U .
H13A H 0.8070 0.7147 0.4273 0.287 Uiso 1 1 calc R . .
O14 O 0.7680(6) 0.6515(6) 0.4228(7) 0.191(2) Uiso 1 1 d D U .
O15 O 0.8282(6) 0.6389(5) 0.3454(7) 0.191(2) Uiso 1 1 d D U .
O16 O 0.7690(6) 0.6203(6) 0.2995(9) 0.191(2) Uiso 1 1 d D U .
H16 H 0.7889 0.6287 0.2876 0.287 Uiso 1 1 calc R . .
O22 O 0.9674(6) 0.6772(6) 0.5158(8) 0.191(2) Uiso 1 1 d D U .
H22A H 0.9676 0.6961 0.5192 0.287 Uiso 1 1 calc R . .
O23 O 0.9273(6) 0.6996(7) 0.4554(8) 0.191(2) Uiso 1 1 d D U .
H23A H 0.9322 0.7107 0.4804 0.287 Uiso 1 1 calc R . .
O24 O 0.8672(6) 0.6530(6) 0.4141(9) 0.191(2) Uiso 1 1 d D U .
O25 O 0.9249(6) 0.6120(6) 0.4148(9) 0.191(2) Uiso 1 1 d D U .
O26 O 0.8999(6) 0.6031(6) 0.3284(8) 0.191(2) Uiso 1 1 d D U .
H26 H 0.8942 0.6116 0.3064 0.287 Uiso 1 1 calc R . .
O32 O 0.9699(6) 0.5999(6) 0.6683(9) 0.191(2) Uiso 1 1 d D U .
H32A H 0.9850 0.6211 0.6713 0.287 Uiso 1 1 calc R . .
O33 O 0.9801(6) 0.6438(6) 0.5795(8) 0.191(2) Uiso 1 1 d D U .
H33A H 0.9750 0.6576 0.5667 0.287 Uiso 1 1 calc R . .
O34 O 0.9155(7) 0.5995(6) 0.5046(9) 0.191(2) Uiso 1 1 d . U .
O35 O 0.9199(6) 0.5328(5) 0.5738(9) 0.191(2) Uiso 1 1 d D U .
O36 O 0.9118(6) 0.5284(6) 0.4631(8) 0.191(2) Uiso 1 1 d D U .
H36 H 0.9191 0.5467 0.4473 0.287 Uiso 1 1 calc R . .
O42 O 0.8644(6) 0.5487(6) 0.8016(8) 0.191(2) Uiso 1 1 d . U .
H42A H 0.8795 0.5698 0.7987 0.287 Uiso 1 1 calc R . .
O43 O 0.9182(6) 0.5756(6) 0.7317(8) 0.191(2) Uiso 1 1 d D U .
H43A H 0.9317 0.5827 0.7089 0.287 Uiso 1 1 calc R . .
O44 O 0.9000(6) 0.5383(6) 0.6305(8) 0.191(2) Uiso 1 1 d D U .
O45 O 0.8397(6) 0.4728(5) 0.7182(10) 0.191(2) Uiso 1 1 d D U .
O46 O 0.8837(6) 0.4547(6) 0.6527(8) 0.191(2) Uiso 1 1 d . U .
H46 H 0.9021 0.4728 0.6607 0.287 Uiso 1 1 calc R . .
O52 O 0.7208(5) 0.5134(6) 0.8384(7) 0.191(2) Uiso 1 1 d D U .
H52A H 0.7375 0.5308 0.8512 0.287 Uiso 1 1 calc R . .
O53 O 0.7922(6) 0.5227(6) 0.8258(9) 0.191(2) Uiso 1 1 d . U .
H53A H 0.8117 0.5271 0.8153 0.287 Uiso 1 1 calc R . .
O54 O 0.8075(7) 0.4978(6) 0.7393(8) 0.191(2) Uiso 1 1 d D U .
O55 O 0.7133(6) 0.4433(5) 0.7570(7) 0.191(2) Uiso 1 1 d D U .
O56 O 0.7609(6) 0.4187(6) 0.7401(9) 0.191(2) Uiso 1 1 d D U .
H56 H 0.7824 0.4302 0.7451 0.287 Uiso 1 1 calc R . .
O62 O 0.6596(6) 0.5707(6) 0.7287(8) 0.191(2) Uiso 1 1 d D U .
H62A H 0.6757 0.5831 0.7473 0.287 Uiso 1 1 calc R . .
O63 O 0.6911(6) 0.5386(6) 0.7844(8) 0.191(2) Uiso 1 1 d D U .
H63A H 0.7098 0.5389 0.7902 0.287 Uiso 1 1 calc R . .
O64 O 0.7031(7) 0.4905(6) 0.7408(9) 0.191(2) Uiso 1 1 d D U .
O65 O 0.6179(6) 0.4753(7) 0.6884(8) 0.191(2) Uiso 1 1 d D U .
O66 O 0.6118(6) 0.4206(6) 0.7371(9) 0.191(2) Uiso 1 1 d . U .
H66 H 0.6157 0.4069 0.7526 0.287 Uiso 1 1 calc R . .
O72 O 0.6418(6) 0.6291(7) 0.5674(8) 0.191(2) Uiso 1 1 d D U .
H72A H 0.6438 0.6376 0.5940 0.287 Uiso 1 1 calc R . .
O73 O 0.6424(6) 0.5974(6) 0.6542(8) 0.191(2) Uiso 1 1 d D U .
H73A H 0.6537 0.5937 0.6746 0.229 Uiso 1 1 calc R . .
O74 O 0.6475(7) 0.5312(7) 0.6643(10) 0.191(2) Uiso 1 1 d D U .
O75 O 0.6216(6) 0.5385(6) 0.5245(8) 0.191(2) Uiso 1 1 d D U .
O76 O 0.5733(6) 0.4642(5) 0.5823(8) 0.191(2) Uiso 1 1 d D U .
H76 H 0.5727 0.4684 0.6107 0.287 Uiso 1 1 calc R . .
OA O 0.7526(9) 0.6988(10) 0.5829(14) 0.337(12) Uiso 1 1 d . U .
OB O 0.9488(10) 0.7127(10) 0.5661(14) 0.337(12) Uiso 1 1 d . U .
loop_
_atom_site_aniso_label
_atom_site_aniso_U_11
_atom_site_aniso_U_22
_atom_site_aniso_U_33
_atom_site_aniso_U_23
_atom_site_aniso_U_13
_atom_site_aniso_U_12
K1 0.111(7) 0.209(9) 0.203(8) -0.052(6) -0.068(6) 0.119(7)
K2 0.41(2) 0.166(9) 0.42(3) -0.120(10) -0.24(2) 0.206(12)
K3 0.178(10) 0.178(10) 0.37(2) -0.040(7) 0.040(7) 0.102(12)
loop_
_atom_type_symbol
_atom_type_description
_atom_type_scat_dispersion_real
_atom_type_scat_dispersion_imag
_atom_type_scat_source
C C 0.0033 0.0016 'International Tables Vol C Tables 4.2.6.8 and 6.1.1.4'
H H 0.0000 0.0000 'International Tables Vol C Tables 4.2.6.8 and 6.1.1.4'
K K 0.2009 0.2494 'International Tables Vol C Tables 4.2.6.8 and 6.1.1.4'
O O 0.0106 0.0060 'International Tables Vol C Tables 4.2.6.8 and 6.1.1.4'
loop_
_geom_angle_atom_site_label_1
_geom_angle_atom_site_label_2
_geom_angle_atom_site_label_3
_geom_angle
_geom_angle_site_symmetry_1
_geom_angle_site_symmetry_3
C2 C1 H1 118.9 . .
C2 C1 O5 96.9(12) . .
O5 C1 H1 118.9 . .
O14 C1 H1 118.9 . .
O14 C1 C2 105.2(18) . .
O14 C1 O5 93.2(19) . .
C1 C2 H2 108.0 . .
C3 C2 C1 121.7(19) . .
C3 C2 H2 108.0 . .
O2 C2 C1 98.9(17) . .
O2 C2 H2 108.0 . .
O2 C2 C3 111(2) . .
C2 C3 H3 104.6 . .
C2 C3 C4 115.4(15) . .
C4 C3 H3 104.6 . .
O3 C3 C2 117(2) . .
O3 C3 H3 104.6 . .
O3 C3 C4 109(2) . .
C3 C4 H4 108.6 . .
C5 C4 C3 108.3(14) . .
C5 C4 H4 108.6 . .
O4 C4 C3 104(2) . .
O4 C4 H4 108.6 . .
O4 C4 C5 119(2) . .
C4 C5 H5 103.9 . .
C6 C5 C4 126(3) . .
C6 C5 H5 103.9 . .
O5 C5 C4 116.4(12) . .
O5 C5 H5 103.9 . .
O5 C5 C6 100(2) . .
C5 C6 H6B 110.4 . .
C5 C6 H6A 110.4 . .
C5 C6 K2 86(2) . .
H6B C6 H6A 108.6 . .
K2 C6 H6B 78.9 . .
K2 C6 H6A 156.7 . .
O6 C6 C5 107(3) . .
O6 C6 H6B 110.4 . .
O6 C6 H6A 110.4 . .
O6 C6 K2 47.4(16) . .
C12 C11 H11 111.0 . .
O15 C11 H11 111.0 . .
O15 C11 C12 107.8(19) . .
O24 C11 H11 111.0 . .
O24 C11 C12 99(3) . .
O24 C11 O15 116(2) . .
C11 C12 H12 107.7 . .
C13 C12 C11 108(2) . .
C13 C12 H12 107.7 . .
O12 C12 C11 122(3) . .
O12 C12 H12 107.7 . .
O12 C12 C13 103(2) . .
C12 C13 H13 102.9 . .
C14 C13 C12 114(2) . .
C14 C13 H13 102.9 . .
C14 C13 O13 117(2) . .
O13 C13 C12 114.6(19) . .
O13 C13 H13 102.9 . .
C13 C14 H14 102.3 . .
C13 C14 C15 124.0(17) . .
C13 C14 O14 109.8(17) . .
C15 C14 H14 102.3 . .
C15 C14 O14 112.9(18) . .
O14 C14 H14 102.3 . .
C14 C15 H15 111.7 . .
C14 C15 C16 118(2) . .
C16 C15 H15 111.7 . .
O15 C15 C14 100.3(16) . .
O15 C15 H15 111.7 . .
O15 C15 C16 102(2) . .
C15 C16 H16A 109.7 . .
C15 C16 H16B 109.7 . .
H16A C16 H16B 108.2 . .
O16 C16 C15 110(2) . .
O16 C16 H16A 109.7 . .
O16 C16 H16B 109.7 . .
C22 C21 H21 106.2 . .
C22 C21 O34 113(3) . .
O25 C21 H21 106.2 . .
O25 C21 C22 109(2) . .
O25 C21 O34 115(3) . .
O34 C21 H21 106.2 . .
C21 C22 H22 112.1 . .
C23 C22 C21 100(3) . .
C23 C22 H22 112.1 . .
O22 C22 C21 115(3) . .
O22 C22 H22 112.1 . .
O22 C22 C23 104(3) . .
C22 C23 H23 109.4 . .
C24 C23 C22 120(3) . .
C24 C23 H23 109.4 . .
C24 C23 O23 99(2) . .
O23 C23 C22 109(3) . .
O23 C23 H23 109.4 . .
C23 C24 H24 97.8 . .
C23 C24 C25 115(2) . .
C25 C24 H24 97.8 . .
O24 C24 C23 120(2) . .
O24 C24 H24 97.8 . .
O24 C24 C25 119(2) . .
C24 C25 H25 106.7 . .
C24 C25 C26 121(2) . .
C26 C25 H25 106.7 . .
O25 C25 C24 108(2) . .
O25 C25 H25 106.7 . .
O25 C25 C26 106.2(19) . .
C25 C26 H26B 109.2 . .
C25 C26 H26A 109.2 . .
H26B C26 H26A 107.9 . .
O26 C26 C25 112(2) . .
O26 C26 H26B 109.2 . .
O26 C26 H26A 109.2 . .
C32 C31 H31 110.9 . .
O35 C31 H31 110.9 . .
O35 C31 C32 121(2) . .
O44 C31 H31 110.9 . .
O44 C31 C32 118(3) . .
O44 C31 O35 81.1(17) . .
C31 C32 H32 105.1 . .
C31 C32 C33 109(2) . .
C31 C32 K3 154(2) . 8_655
C33 C32 H32 105.1 . .
C33 C32 K3 95.3(18) . 8_655
K3 C32 H32 76.4 8_655 .
O32 C32 C31 104(3) . .
O32 C32 H32 105.1 . .
O32 C32 C33 127(3) . .
O32 C32 K3 51.8(15) . 8_655
C32 C33 H33 110.4 . .
C34 C33 C32 104(2) . .
C34 C33 H33 110.4 . .
O33 C33 C32 100(3) . .
O33 C33 H33 110.4 . .
O33 C33 C34 120(3) . .
C33 C34 H34 112.9 . .
C33 C34 O34 105(3) . .
C35 C34 C33 120(2) . .
C35 C34 H34 112.9 . .
C35 C34 O34 91(2) . .
O34 C34 H34 112.9 . .
C34 C35 H35 107.3 . .
C34 C35 C36 122(2) . .
C36 C35 H35 107.3 . .
O35 C35 C34 97(2) . .
O35 C35 H35 107.3 . .
O35 C35 C36 115(2) . .
C35 C36 H36A 108.9 . .
C35 C36 H36B 108.9 . .
H36A C36 H36B 107.8 . .
O36 C36 C35 113.2(16) . .
O36 C36 H36A 108.9 . .
O36 C36 H36B 108.9 . .
C42 C41 H41 107.2 . .
O45 C41 H41 107.2 . .
O45 C41 C42 121.5(19) . .
O45 C41 O54 106(2) . .
O54 C41 H41 107.2 . .
O54 C41 C42 107(3) . .
C41 C42 H42 102.3 . .
C43 C42 C41 106(2) . .
C43 C42 H42 102.3 . .
O42 C42 C41 119(3) . .
O42 C42 H42 102.3 . .
O42 C42 C43 122(2) . .
C42 C43 H43 104.5 . .
C44 C43 C42 122(2) . .
C44 C43 H43 104.5 . .
O43 C43 C42 104(2) . .
O43 C43 H43 104.5 . .
O43 C43 C44 115(2) . .
C43 C44 H44 102.8 . .
C43 C44 C45 112.6(18) . .
C45 C44 H44 102.8 . .
O44 C44 C43 127(2) . .
O44 C44 H44 102.8 . .
O44 C44 C45 106(2) . .
C44 C45 H45 103.8 . .
C44 C45 C46 118(2) . .
C46 C45 H45 103.8 . .
O45 C45 C44 113.4(18) . .
O45 C45 H45 103.8 . .
O45 C45 C46 112(2) . .
C45 C46 H46A 109.9 . .
C45 C46 H46B 109.9 . .
C45 C46 O46 109(2) . .
H46A C46 H46B 108.3 . .
O46 C46 H46A 109.9 . .
O46 C46 H46B 109.9 . .
C52 C51 H51 106.7 . .
O55 C51 H51 106.7 . .
O55 C51 C52 112.4(16) . .
O55 C51 O64 106(2) . .
O64 C51 H51 106.7 . .
O64 C51 C52 118(2) . .
C51 C52 H52 114.4 . .
C51 C52 K1 159.5(13) . 10_566
C53 C52 C51 93.5(19) . .
C53 C52 H52 114.4 . .
C53 C52 K1 99.3(14) . 10_566
K1 C52 H52 74.6 10_566 .
O52 C52 C51 103.1(19) . .
O52 C52 H52 114.4 . .
O52 C52 C53 114.8(16) . .
O52 C52 K1 57.0(11) . 10_566
C52 C53 H53 118.2 . .
C52 C53 C54 110.4(18) . .
C52 C53 O53 93.7(19) . .
C54 C53 H53 118.2 . .
O53 C53 H53 118.2 . .
O53 C53 C54 93.0(19) . .
C53 C54 H54 114.6 . .
C55 C54 C53 100.2(18) . .
C55 C54 H54 114.6 . .
O54 C54 C53 113(2) . .
O54 C54 H54 114.6 . .
O54 C54 C55 98(2) . .
C54 C55 H55 107.2 . .
C56 C55 C54 119(2) . .
C56 C55 H55 107.2 . .
C56 C55 O55 110(2) . .
O55 C55 C54 105.3(17) . .
O55 C55 H55 107.2 . .
C55 C56 H56A 112.6 . .
C55 C56 H56B 112.6 . .
H56A C56 H56B 110.1 . .
O56 C56 C55 96(2) . .
O56 C56 H56A 112.6 . .
O56 C56 H56B 112.6 . .
C62 C61 H61 114.8 . .
C62 C61 K1 109(2) . 9_565
K1 C61 H61 73.3 9_565 .
O65 C61 H61 114.8 . .
O65 C61 C62 121(3) . .
O65 C61 K1 59.4(16) . 9_565
O65 C61 O74 99(3) . .
O74 C61 H61 114.8 . .
O74 C61 C62 87(2) . .
O74 C61 K1 157(2) . 9_565
C61 C62 H62 107.9 . .
C61 C62 C63 109(2) . .
C63 C62 H62 107.9 . .
O62 C62 C61 112(2) . .
O62 C62 H62 107.9 . .
O62 C62 C63 112(3) . .
C62 C63 H63 115.8 . .
C64 C63 C62 110(2) . .
C64 C63 H63 115.8 . .
O63 C63 C62 95(2) . .
O63 C63 H63 115.8 . .
O63 C63 C64 102(2) . .
C63 C64 H64 113.6 . .
C63 C64 C65 106(2) . .
C65 C64 H64 113.6 . .
O64 C64 C63 96(2) . .
O64 C64 H64 113.6 . .
O64 C64 C65 112(3) . .
C64 C65 H65 107.9 . .
C66 C65 C64 114(3) . .
C66 C65 H65 107.9 . .
O65 C65 C64 112(2) . .
O65 C65 H65 107.9 . .
O65 C65 C66 107(3) . .
C65 C66 H66A 112.5 . .
C65 C66 H66B 112.5 . .
H66A C66 H66B 110.1 . .
O66 C66 C65 96(2) . .
O66 C66 H66A 112.5 . .
O66 C66 H66B 112.5 . .
C72 C71 H71 102.4 . .
O4 C71 H71 102.4 . .
O4 C71 C72 108(2) . .
O75 C71 H71 102.4 . .
O75 C71 C72 122(2) . .
O75 C71 O4 116(2) . .
C71 C72 H72 111.7 . .
C71 C72 C73 99(2) . .
C71 C72 O72 110(2) . .
C73 C72 H72 111.7 . .
O72 C72 H72 111.7 . .
O72 C72 C73 112(2) . .
C72 C73 H73 100.9 . .
C74 C73 C72 120(3) . .
C74 C73 H73 100.9 . .
O73 C73 C72 109(2) . .
O73 C73 H73 100.9 . .
O73 C73 C74 121(2) . .
C73 C74 H74 97.0 . .
C73 C74 O74 113(2) . .
C75 C74 C73 116(2) . .
C75 C74 H74 97.0 . .
C75 C74 O74 127(2) . .
O74 C74 H74 97.0 . .
C74 C75 H75 103.0 . .
C74 C75 O75 116(2) . .
C76 C75 C74 116.7(17) . .
C76 C75 H75 103.1 . .
C76 C75 O75 112.1(19) . .
O75 C75 H75 103.1 . .
C75 C76 H76A 107.0 . .
C75 C76 H76B 107.0 . .
H76A C76 H76B 106.7 . .
O76 C76 C75 122(2) . .
O76 C76 H76A 107.0 . .
O76 C76 H76B 107.0 . .
C61 K1 C52 109.3(8) 14_654 10_566
O12 K1 C52 130.9(7) . 10_566
O12 K1 C61 104.7(8) . 14_654
O12 K1 O13 56.7(6) . .
O12 K1 O45 88.9(6) . 15_664
O12 K1 O46 72.8(7) . 15_664
O12 K1 O52 131.6(7) . 10_566
O12 K1 O53 94.4(7) . 10_566
O13 K1 C52 115.2(6) . 10_566
O13 K1 C61 59.4(7) . 14_654
O13 K1 O53 113.5(7) . 10_566
O45 K1 C52 95.3(7) 15_664 10_566
O45 K1 C61 129.9(9) 15_664 14_654
O45 K1 O13 143.8(6) 15_664 .
O45 K1 O53 77.0(7) 15_664 10_566
O46 K1 C52 150.1(7) 15_664 10_566
O46 K1 C61 74.7(8) 15_664 14_654
O46 K1 O13 92.7(7) 15_664 .
O46 K1 O45 63.6(7) 15_664 15_664
O46 K1 O53 138.4(7) 15_664 10_566
O52 K1 C52 25.7(4) 10_566 10_566
O52 K1 C61 86.3(8) 10_566 14_654
O52 K1 O13 93.9(6) 10_566 .
O52 K1 O45 119.9(7) 10_566 15_664
O52 K1 O46 153.0(6) 10_566 15_664
O52 K1 O53 60.5(6) 10_566 10_566
O53 K1 C52 40.4(6) 10_566 10_566
O53 K1 C61 146.3(9) 10_566 14_654
O65 K1 C52 106.2(7) 14_654 10_566
O65 K1 C61 27.2(5) 14_654 14_654
O65 K1 O12 119.9(8) 14_654 .
O65 K1 O13 85.7(8) 14_654 .
O65 K1 O45 105.0(8) 14_654 15_664
O65 K1 O46 63.3(7) 14_654 15_664
O65 K1 O52 91.1(6) 14_654 10_566
O65 K1 O53 145.6(8) 14_654 10_566
O66 K1 C52 62.0(7) 14_654 10_566
O66 K1 C61 81.5(8) 14_654 14_654
O66 K1 O12 159.2(8) 14_654 .
O66 K1 O13 138.2(7) 14_654 .
O66 K1 O45 72.5(6) 14_654 15_664
O66 K1 O46 90.2(7) 14_654 15_664
O66 K1 O52 67.8(7) 14_654 10_566
O66 K1 O53 90.4(7) 14_654 10_566
O66 K1 O65 58.9(8) 14_654 14_654
C6 K2 C6 72.0(12) 17_655 .
O5 K2 C6 85.2(7) 17_655 .
O5 K2 C6 42.2(6) 17_655 17_655
O5 K2 C6 42.2(7) . .
O5 K2 C6 85.1(7) . 17_655
O5 K2 O5 118.7(9) . 17_655
O5 K2 O72 83.2(6) . 6_556
O5 K2 O72 115.5(6) . 14_654
O5 K2 O72 115.5(6) 17_655 6_556
O5 K2 O72 83.2(6) 17_655 14_654
O5 K2 O73 81.7(6) . 14_654
O5 K2 O73 134.6(6) 17_655 14_654
O5 K2 O73 134.6(6) . 6_556
O5 K2 O73 81.7(6) 17_655 6_556
O6 K2 C6 82.4(9) . 17_655
O6 K2 C6 25.2(6) . .
O6 K2 C6 82.4(9) 17_655 .
O6 K2 C6 25.2(7) 17_655 17_655
O6 K2 O5 77.4(6) 17_655 .
O6 K2 O5 64.3(7) 17_655 17_655
O6 K2 O5 77.4(6) . 17_655
O6 K2 O5 64.3(7) . .
O6 K2 O6 100.3(11) 17_655 .
O6 K2 O72 156.2(7) . 14_654
O6 K2 O72 58.4(6) . 6_556
O6 K2 O72 156.3(7) 17_655 6_556
O6 K2 O72 58.4(6) 17_655 14_654
O6 K2 O73 84.2(7) 17_655 14_654
O6 K2 O73 143.4(7) 17_655 6_556
O6 K2 O73 143.4(7) . 14_654
O6 K2 O73 84.2(7) . 6_556
O72 K2 C6 74.0(8) 14_654 17_655
O72 K2 C6 74.0(8) 6_556 .
O72 K2 C6 140.3(8) 14_654 .
O72 K2 C6 140.3(8) 6_556 17_655
O72 K2 O72 144.4(9) 14_654 6_556
O73 K2 C6 123.9(6) 6_556 17_655
O73 K2 C6 109.1(8) 6_556 .
O73 K2 C6 123.9(6) 14_654 .
O73 K2 C6 109.1(8) 14_654 17_655
O73 K2 O72 51.8(6) 14_654 14_654
O73 K2 O72 106.5(7) 14_654 6_556
O73 K2 O72 106.5(6) 6_556 14_654
O73 K2 O72 51.8(6) 6_556 6_556
O73 K2 O73 113.7(9) 14_654 6_556
C32 K3 C32 142.9(16) 5_766 15_664
O25 K3 C32 106.5(8) . 15_664
O25 K3 C32 95.1(9) 18_545 15_664
O25 K3 C32 95.1(9) . 5_766
O25 K3 C32 106.5(8) 18_545 5_766
O25 K3 O25 108.0(10) 18_545 .
O26 K3 C32 135.2(9) 18_545 15_664
O26 K3 C32 81.2(9) 18_545 5_766
O26 K3 C32 135.2(9) . 5_766
O26 K3 C32 81.2(9) . 15_664
O26 K3 O25 53.1(7) 18_545 18_545
O26 K3 O25 64.7(7) 18_545 .
O26 K3 O25 64.7(7) . 18_545
O26 K3 O25 53.1(7) . .
O26 K3 O26 57.9(9) 18_545 .
O26 K3 O33 103.8(7) 18_545 5_766
O26 K3 O33 103.8(7) . 15_664
O26 K3 O33 126.8(7) 18_545 15_664
O26 K3 O33 126.8(7) . 5_766
O32 K3 C32 133.3(9) 5_766 15_664
O32 K3 C32 133.3(9) 15_664 5_766
O32 K3 C32 25.4(6) 15_664 15_664
O32 K3 C32 25.4(6) 5_766 5_766
O32 K3 O25 117.1(7) 5_766 .
O32 K3 O25 117.1(7) 15_664 18_545
O32 K3 O25 86.9(7) 5_766 18_545
O32 K3 O25 86.9(7) 15_664 .
O32 K3 O26 138.7(8) 5_766 .
O32 K3 O26 81.3(7) 5_766 18_545
O32 K3 O26 138.7(8) 15_664 18_545
O32 K3 O26 81.3(7) 15_664 .
O32 K3 O32 140.0(11) 5_766 15_664
O32 K3 O33 95.4(8) 15_664 5_766
O32 K3 O33 65.0(7) 15_664 15_664
O32 K3 O33 65.0(7) 5_766 5_766
O32 K3 O33 95.4(8) 5_766 15_664
O33 K3 C32 42.1(8) 15_664 15_664
O33 K3 C32 42.1(8) 5_766 5_766
O33 K3 C32 115.9(9) 15_664 5_766
O33 K3 C32 115.9(9) 5_766 15_664
O33 K3 O25 147.4(6) 5_766 18_545
O33 K3 O25 73.8(6) 5_766 .
O33 K3 O25 73.8(6) 15_664 18_545
O33 K3 O25 147.4(6) 15_664 .
O33 K3 O33 122.8(10) 15_664 5_766
C2 O2 H2A 109.5 . .
C3 O3 H3A 109.5 . .
C4 O4 C71 117.4(17) . .
C1 O5 K2 104.6(13) . .
C5 O5 C1 128.1(16) . .
C5 O5 K2 106.9(18) . .
C6 O6 K2 107(2) . .
C6 O6 H6 109.5 . .
K2 O6 H6 142.8 . .
C12 O12 K1 118.2(16) . .
C12 O12 H12A 109.5 . .
K1 O12 H12A 112.0 . .
C13 O13 K1 116.4(13) . .
C13 O13 H13A 109.5 . .
K1 O13 H13A 133.8 . .
C1 O14 C14 113.5(15) . .
C11 O15 C15 116.0(16) . .
C16 O16 H16 109.5 . .
C22 O22 H22A 109.5 . .
C23 O23 H23A 109.5 . .
C11 O24 C24 122(2) . .
C21 O25 C25 110(2) . .
C21 O25 K3 116.1(19) . .
C25 O25 K3 120.3(19) . .
C26 O26 K3 129.7(17) . .
C26 O26 H26 109.5 . .
K3 O26 H26 106.5 . .
C32 O32 K3 102.8(19) . 8_655
C32 O32 H32A 109.5 . .
K3 O32 H32A 9.1 8_655 .
C33 O33 K3 115(2) . 8_655
C33 O33 H33A 109.5 . .
K3 O33 H33A 119.0 8_655 .
C21 O34 C34 110(2) . .
C31 O35 C35 118.4(12) . .
C36 O36 H36 109.5 . .
C42 O42 H42A 109.5 . .
C43 O43 H43A 109.5 . .
C44 O44 C31 120.1(16) . .
C41 O45 C45 117(2) . .
C41 O45 K1 110.8(18) . 8_655
C45 O45 K1 109.5(18) . 8_655
C46 O46 K1 109.9(15) . 8_655
C46 O46 H46 109.5 . .
K1 O46 H46 85.6 8_655 .
C52 O52 K1 97.3(13) . 10_566
C52 O52 H52A 109.5 . .
K1 O52 H52A 31.1 10_566 .
C53 O53 K1 116.3(13) . 10_566
C53 O53 H53A 109.5 . .
K1 O53 H53A 133.0 10_566 .
C54 O54 C41 117.1(16) . .
C51 O55 C55 110.9(18) . .
C56 O56 H56 109.5 . .
C62 O62 H62A 109.5 . .
C63 O63 H63A 109.5 . .
C64 O64 C51 112(2) . .
C61 O65 K1 93.5(19) . 9_565
C65 O65 C61 119(2) . .
C65 O65 K1 114.6(19) . 9_565
C66 O66 K1 121.0(19) . 9_565
C66 O66 H66 109.5 . .
K1 O66 H66 128.8 9_565 .
C72 O72 K2 113.0(16) . 9_565
C72 O72 H72A 109.5 . .
K2 O72 H72A 11.3 9_565 .
C73 O73 K2 129.3(16) . 9_565
C73 O73 H73A 109.5 . .
K2 O73 H73A 116.1 9_565 .
C61 O74 C74 121(3) . .
C71 O75 C75 112(2) . .
C76 O76 H76 109.5 . .
loop_
_geom_bond_atom_site_label_1
_geom_bond_atom_site_label_2
_geom_bond_distance
_geom_bond_site_symmetry_2
C1 H1 0.9800 .
C1 C2 1.55(2) .
C1 O5 1.62(2) .
C1 O14 1.45(2) .
C2 H2 0.9800 .
C2 C3 1.47(2) .
C2 O2 1.427(19) .
C3 H3 0.9800 .
C3 C4 1.506(7) .
C3 O3 1.43(2) .
C4 H4 0.9800 .
C4 C5 1.503(7) .
C4 O4 1.45(2) .
C5 H5 0.9800 .
C5 C6 1.500(8) .
C5 O5 1.458(14) .
C6 H6B 0.9700 .
C6 H6A 0.9700 .
C6 K2 3.32(4) .
C6 O6 1.48(2) .
C11 H11 0.9800 .
C11 C12 1.56(3) .
C11 O15 1.46(2) .
C11 O24 1.40(3) .
C12 H12 0.9800 .
C12 C13 1.49(2) .
C12 O12 1.481(17) .
C13 H13 0.9800 .
C13 C14 1.47(2) .
C13 O13 1.48(2) .
C14 H14 0.9800 .
C14 C15 1.481(19) .
C14 O14 1.478(13) .
C15 H15 0.9800 .
C15 C16 1.49(2) .
C15 O15 1.468(13) .
C16 H16A 0.9700 .
C16 H16B 0.9700 .
C16 O16 1.48(2) .
C21 H21 0.9800 .
C21 C22 1.53(2) .
C21 O25 1.452(14) .
C21 O34 1.59(3) .
C22 H22 0.9800 .
C22 C23 1.50(3) .
C22 O22 1.467(19) .
C23 H23 0.9800 .
C23 C24 1.46(2) .
C23 O23 1.46(2) .
C24 H24 0.9800 .
C24 C25 1.47(2) .
C24 O24 1.45(3) .
C25 H25 0.9800 .
C25 C26 1.50(2) .
C25 O25 1.463(14) .
C26 H26B 0.9700 .
C26 H26A 0.9700 .
C26 O26 1.453(7) .
C31 H31 0.9800 .
C31 C32 1.52(2) .
C31 O35 1.451(7) .
C31 O44 1.45(2) .
C32 H32 0.9800 .
C32 C33 1.55(2) .
C32 K3 3.30(3) 8_655
C32 O32 1.45(2) .
C33 H33 0.9800 .
C33 C34 1.52(2) .
C33 O33 1.41(2) .
C34 H34 0.9800 .
C34 C35 1.499(3) .
C34 O34 1.69(3) .
C35 H35 0.9800 .
C35 C36 1.500(3) .
C35 O35 1.453(7) .
C36 H36A 0.9700 .
C36 H36B 0.9700 .
C36 O36 1.450(3) .
C41 H41 0.9800 .
C41 C42 1.51(2) .
C41 O45 1.33(3) .
C41 O54 1.464(13) .
C42 H42 0.9800 .
C42 C43 1.50(2) .
C42 O42 1.41(3) .
C43 H43 0.9800 .
C43 C44 1.467(17) .
C43 O43 1.40(2) .
C44 H44 0.9800 .
C44 C45 1.48(2) .
C44 O44 1.445(13) .
C45 H45 0.9800 .
C45 C46 1.48(2) .
C45 O45 1.46(2) .
C46 H46A 0.9700 .
C46 H46B 0.9700 .
C46 O46 1.55(3) .
C51 H51 0.9800 .
C51 C52 1.54(2) .
C51 O55 1.448(13) .
C51 O64 1.48(2) .
C52 H52 0.9800 .
C52 C53 1.504(17) .
C52 K1 3.36(2) 10_566
C52 O52 1.471(18) .
C53 H53 0.9800 .
C53 C54 1.53(2) .
C53 O53 1.53(3) .
C54 H54 0.9800 .
C54 C55 1.52(2) .
C54 O54 1.45(2) .
C55 H55 0.9800 .
C55 C56 1.48(2) .
C55 O55 1.50(2) .
C56 H56A 0.9700 .
C56 H56B 0.9700 .
C56 O56 1.453(8) .
C61 H61 0.9800 .
C61 C62 1.48(2) .
C61 K1 3.16(3) 9_565
C61 O65 1.45(2) .
C61 O74 1.45(2) .
C62 H62 0.9800 .
C62 C63 1.54(2) .
C62 O62 1.46(2) .
C63 H63 0.9800 .
C63 C64 1.52(2) .
C63 O63 1.449(7) .
C64 H64 0.9800 .
C64 C65 1.518(18) .
C64 O64 1.48(3) .
C65 H65 0.9800 .
C65 C66 1.52(2) .
C65 O65 1.41(3) .
C66 H66A 0.9700 .
C66 H66B 0.9700 .
C66 O66 1.51(4) .
C71 H71 0.9800 .
C71 C72 1.47(2) .
C71 O4 1.458(14) .
C71 O75 1.40(2) .
C72 H72 0.9800 .
C72 C73 1.52(2) .
C72 O72 1.49(2) .
C73 H73 0.9800 .
C73 C74 1.504(7) .
C73 O73 1.46(2) .
C74 H74 0.9800 .
C74 C75 1.48(2) .
C74 O74 1.69(3) .
C75 H75 0.9800 .
C75 C76 1.47(2) .
C75 O75 1.49(2) .
C76 H76A 0.9700 .
C76 H76B 0.9700 .
C76 O76 1.449(7) .
K1 C52 3.36(2) 10_566
K1 C61 3.16(3) 14_654
K1 O12 2.76(2) .
K1 O13 2.95(2) .
K1 O45 2.86(3) 15_664
K1 O46 2.86(2) 15_664
K1 O52 2.84(2) 10_566
K1 O53 2.97(2) 10_566
K1 O65 2.73(2) 14_654
K1 O66 2.62(2) 14_654
K2 C6 3.32(4) 17_655
K2 O5 2.85(2) .
K2 O5 2.85(2) 17_655
K2 O6 2.56(2) 17_655
K2 O6 2.56(2) .
K2 O72 3.28(2) 14_654
K2 O72 3.28(2) 6_556
K2 O73 3.13(2) 14_654
K2 O73 3.13(2) 6_556
K3 C32 3.30(3) 15_664
K3 C32 3.30(3) 5_766
K3 O25 2.99(2) .
K3 O25 2.99(2) 18_545
K3 O26 2.85(3) 18_545
K3 O26 2.84(3) .
K3 O32 2.66(2) 15_664
K3 O32 2.66(2) 5_766
K3 O33 2.96(2) 15_664
K3 O33 2.96(2) 5_766
O2 H2A 0.8200 .
O3 H3A 0.8200 .
O6 H6 0.8200 .
O12 H12A 0.8200 .
O13 H13A 0.8200 .
O16 H16 0.8200 .
O22 H22A 0.8200 .
O23 H23A 0.8200 .
O26 H26 0.8200 .
O32 K3 2.66(2) 8_655
O32 H32A 0.8200 .
O33 K3 2.96(2) 8_655
O33 H33A 0.8200 .
O36 H36 0.8200 .
O42 H42A 0.8200 .
O43 H43A 0.8200 .
O45 K1 2.86(3) 8_655
O46 K1 2.86(2) 8_655
O46 H46 0.8200 .
O52 K1 2.84(2) 10_566
O52 H52A 0.8200 .
O53 K1 2.97(2) 10_566
O53 H53A 0.8200 .
O56 H56 0.8200 .
O62 H62A 0.8200 .
O63 H63A 0.8200 .
O65 K1 2.73(2) 9_565
O66 K1 2.62(2) 9_565
O66 H66 0.8200 .
O72 K2 3.28(2) 9_565
O72 H72A 0.8200 .
O73 K2 3.13(2) 9_565
O73 H73A 0.8200 .
O76 H76 0.8200 .
loop_
_geom_torsion_atom_site_label_1
_geom_torsion_atom_site_label_2
_geom_torsion_atom_site_label_3
_geom_torsion_atom_site_label_4
_geom_torsion
_geom_torsion_site_symmetry_1
_geom_torsion_site_symmetry_4
C1 C2 C3 C4 -61(3) . .
C1 C2 C3 O3 168(2) . .
C2 C1 O5 C5 -35(3) . .
C2 C1 O5 K2 90.3(14) . .
C2 C1 O14 C14 -147.8(17) . .
C2 C3 C4 C5 49(3) . .
C2 C3 C4 O4 176(2) . .
C3 C4 C5 C6 -165(3) . .
C3 C4 C5 O5 -38(4) . .
C3 C4 O4 C71 148(2) . .
C4 C5 C6 K2 94(3) . .
C4 C5 C6 O6 50(4) . .
C4 C5 O5 C1 37(4) . .
C4 C5 O5 K2 -88(3) . .
C5 C4 O4 C71 -92(3) . .
C5 C6 O6 K2 68(3) . .
C6 C5 O5 C1 176(2) . .
C6 C5 O5 K2 51(2) . .
C11 C12 C13 C14 -41(4) . .
C11 C12 C13 O13 -179(2) . .
C11 C12 O12 K1 174(2) . .
C12 C11 O15 C15 -71(3) . .
C12 C11 O24 C24 -126(2) . .
C12 C13 C14 C15 42(4) . .
C12 C13 C14 O14 180(2) . .
C12 C13 O13 K1 -19(3) . .
C13 C12 O12 K1 -65(3) . .
C13 C14 C15 C16 -156(3) . .
C13 C14 C15 O15 -46(3) . .
C13 C14 O14 C1 97(3) . .
C14 C13 O13 K1 -155.9(19) . .
C14 C15 C16 O16 58(3) . .
C14 C15 O15 C11 61(3) . .
C15 C14 O14 C1 -120(2) . .
C16 C15 O15 C11 -177(2) . .
C21 C22 C23 C24 -50(4) . .
C21 C22 C23 O23 -163(3) . .
C22 C21 O25 C25 -75(3) . .
C22 C21 O25 K3 67(3) . .
C22 C21 O34 C34 -106(3) . .
C22 C23 C24 C25 43(5) . .
C22 C23 C24 O24 -163(3) . .
C23 C24 C25 C26 -165(3) . .
C23 C24 C25 O25 -42(4) . .
C23 C24 O24 C11 128(3) . .
C24 C25 C26 O26 87(3) . .
C24 C25 O25 C21 58(3) . .
C24 C25 O25 K3 -81(2) . .
C25 C24 O24 C11 -79(4) . .
C25 C26 O26 K3 10(4) . .
C26 C25 O25 C21 -170(3) . .
C26 C25 O25 K3 51(3) . .
C31 C32 C33 C34 -41(4) . .
C31 C32 C33 O33 -166(3) . .
C31 C32 O32 K3 169(2) . 8_655
C32 C31 O35 C35 -45(4) . .
C32 C31 O44 C44 -98(3) . .
C32 C33 C34 C35 69(4) . .
C32 C33 C34 O34 169(3) . .
C32 C33 O33 K3 -29(3) . 8_655
C33 C32 O32 K3 -64(4) . 8_655
C33 C34 C35 C36 165(3) . .
C33 C34 C35 O35 -70(3) . .
C33 C34 O34 C21 101(3) . .
C34 C33 O33 K3 -142(3) . 8_655
C34 C35 C36 O36 42(4) . .
C34 C35 O35 C31 52(3) . .
C35 C34 O34 C21 -137(2) . .
C36 C35 O35 C31 -178.0(19) . .
C41 C42 C43 C44 -35(4) . .
C41 C42 C43 O43 -168(2) . .
C42 C41 O45 C45 -47(4) . .
C42 C41 O45 K1 80(3) . 8_655
C42 C41 O54 C54 -116(2) . .
C42 C43 C44 C45 39(4) . .
C42 C43 C44 O44 172(2) . .
C43 C44 C45 C46 -172(2) . .
C43 C44 C45 O45 -39(3) . .
C43 C44 O44 C31 94(3) . .
C44 C45 C46 O46 63(3) . .
C44 C45 O45 C41 44(3) . .
C44 C45 O45 K1 -83(2) . 8_655
C45 C44 O44 C31 -130(3) . .
C45 C46 O46 K1 48(2) . 8_655
C46 C45 O45 C41 -179(2) . .
C46 C45 O45 K1 54(3) . 8_655
C51 C52 C53 C54 -76(2) . .
C51 C52 C53 O53 -170.3(18) . .
C51 C52 O52 K1 174.8(17) . 10_566
C52 C51 O55 C55 -65(3) . .
C52 C51 O64 C64 -115(2) . .
C52 C53 C54 C55 80(2) . .
C52 C53 C54 O54 -176(2) . .
C52 C53 O53 K1 -32.8(19) . 10_566
C53 C52 O52 K1 -85(2) . 10_566
C53 C54 C55 C56 173(2) . .
C53 C54 C55 O55 -63(2) . .
C53 C54 O54 C41 128(2) . .
C54 C53 O53 K1 -143.4(14) . 10_566
C54 C55 C56 O56 44(3) . .
C54 C55 O55 C51 60(3) . .
C55 C54 O54 C41 -127(2) . .
C56 C55 O55 C51 -170(2) . .
C61 C62 C63 C64 -51(3) . .
C61 C62 C63 O63 -156(3) . .
C62 C61 O65 C65 -26(5) . .
C62 C61 O65 K1 95(3) . 9_565
C62 C61 O74 C74 -143(2) . .
C62 C63 C64 C65 67(3) . .
C62 C63 C64 O64 -178(2) . .
C63 C64 C65 C66 178(3) . .
C63 C64 C65 O65 -60(4) . .
C63 C64 O64 C51 132(2) . .
C64 C65 C66 O66 56(3) . .
C64 C65 O65 C61 40(4) . .
C64 C65 O65 K1 -69(3) . 9_565
C65 C64 O64 C51 -117(3) . .
C65 C66 O66 K1 56(3) . 9_565
C66 C65 O65 C61 166(3) . .
C66 C65 O65 K1 57(3) . 9_565
C71 C72 C73 C74 -49(4) . .
C71 C72 C73 O73 166(2) . .
C71 C72 O72 K2 -167.0(19) . 9_565
C72 C71 O4 C4 -114(3) . .
C72 C71 O75 C75 -57(4) . .
C72 C73 C74 C75 34(4) . .
C72 C73 C74 O74 -168(2) . .
C72 C73 O73 K2 -19(4) . 9_565
C73 C72 O72 K2 -58(3) . 9_565
C73 C74 C75 C76 -156(3) . .
C73 C74 C75 O75 -20(4) . .
C73 C74 O74 C61 104(3) . .
C74 C73 O73 K2 -164(2) . 9_565
C74 C75 C76 O76 57(4) . .
C74 C75 O75 C71 28(3) . .
C75 C74 O74 C61 -100(4) . .
C76 C75 O75 C71 166(2) . .
K1 C52 C53 C54 120.3(18) 10_566 .
K1 C52 C53 O53 25.7(15) 10_566 .
K1 C61 C62 C63 95(3) 9_565 .
K1 C61 C62 O62 -141(2) 9_565 .
K1 C61 O65 C65 -121(3) 9_565 .
K1 C61 O74 C74 80(6) 9_565 .
K3 C32 C33 C34 148(2) 8_655 .
K3 C32 C33 O33 23(3) 8_655 .
O2 C2 C3 C4 -177(2) . .
O2 C2 C3 O3 52(3) . .
O3 C3 C4 C5 -177(2) . .
O3 C3 C4 O4 -50(3) . .
O4 C4 C5 C6 77(4) . .
O4 C4 C5 O5 -155(2) . .
O4 C71 C72 C73 -76(3) . .
O4 C71 C72 O72 42(3) . .
O4 C71 O75 C75 79(3) . .
O5 C1 C2 C3 46(3) . .
O5 C1 C2 O2 167.5(18) . .
O5 C1 O14 C14 114.1(18) . .
O5 C5 C6 K2 -39.9(19) . .
O5 C5 C6 O6 -83(3) . .
O12 C12 C13 C14 -171(2) . .
O12 C12 C13 O13 50(4) . .
O13 C13 C14 C15 179(2) . .
O13 C13 C14 O14 -43(3) . .
O14 C1 C2 C3 -50(3) . .
O14 C1 C2 O2 72(2) . .
O14 C1 O5 C5 70(3) . .
O14 C1 O5 K2 -163.9(11) . .
O14 C14 C15 C16 67(3) . .
O14 C14 C15 O15 177.0(18) . .
O15 C11 C12 C13 54(3) . .
O15 C11 C12 O12 173(3) . .
O15 C11 O24 C24 119(3) . .
O15 C15 C16 O16 -51(3) . .
O22 C22 C23 C24 -170(3) . .
O22 C22 C23 O23 77(4) . .
O23 C23 C24 C25 161(3) . .
O23 C23 C24 O24 -45(5) . .
O24 C11 C12 C13 -67(3) . .
O24 C11 C12 O12 52(3) . .
O24 C11 O15 C15 39(4) . .
O24 C24 C25 C26 41(4) . .
O24 C24 C25 O25 164(3) . .
O25 C21 C22 C23 64(3) . .
O25 C21 C22 O22 175(2) . .
O25 C21 O34 C34 127(3) . .
O25 C25 C26 O26 -37(4) . .
O32 C32 C33 C34 -167(3) . .
O32 C32 C33 O33 68(5) . .
O33 C33 C34 C35 180(3) . .
O33 C33 C34 O34 -80(4) . .
O34 C21 C22 C23 -66(3) . .
O34 C21 C22 O22 45(4) . .
O34 C21 O25 C25 54(3) . .
O34 C21 O25 K3 -164.8(18) . .
O34 C34 C35 C36 57(3) . .
O34 C34 C35 O35 -177.8(19) . .
O35 C31 C32 C33 36(4) . .
O35 C31 C32 K3 -166(4) . 8_655
O35 C31 C32 O32 174(2) . .
O35 C31 O44 C44 141(2) . .
O35 C35 C36 O36 -75(3) . .
O42 C42 C43 C44 -176(2) . .
O42 C42 C43 O43 52(4) . .
O43 C43 C44 C45 167(2) . .
O43 C43 C44 O44 -60(4) . .
O44 C31 C32 C33 -61(3) . .
O44 C31 C32 K3 97(6) . 8_655
O44 C31 C32 O32 76(3) . .
O44 C31 O35 C35 73(3) . .
O44 C44 C45 C46 45(3) . .
O44 C44 C45 O45 179(2) . .
O45 C41 C42 C43 39(4) . .
O45 C41 C42 O42 -180(3) . .
O45 C41 O54 C54 113(2) . .
O45 C45 C46 O46 -71(3) . .
O52 C52 C53 C54 178(2) . .
O52 C52 C53 O53 84(2) . .
O53 C53 C54 C55 175(2) . .
O53 C53 C54 O54 -81(2) . .
O54 C41 C42 C43 -83(3) . .
O54 C41 C42 O42 59(3) . .
O54 C41 O45 C45 76(3) . .
O54 C41 O45 K1 -157.6(15) . 8_655
O54 C54 C55 C56 58(3) . .
O54 C54 C55 O55 -177.9(18) . .
O55 C51 C52 C53 66(3) . .
O55 C51 C52 K1 -165(4) . 10_566
O55 C51 C52 O52 -178(2) . .
O55 C51 O64 C64 118(2) . .
O55 C55 C56 O56 -78(3) . .
O62 C62 C63 C64 -176(2) . .
O62 C62 C63 O63 80(3) . .
O63 C63 C64 C65 167(3) . .
O63 C63 C64 O64 -78(3) . .
O64 C51 C52 C53 -58(2) . .
O64 C51 C52 K1 71(6) . 10_566
O64 C51 C52 O52 59(3) . .
O64 C51 O55 C55 65(3) . .
O64 C64 C65 C66 74(4) . .
O64 C64 C65 O65 -164(2) . .
O65 C61 C62 C63 30(4) . .
O65 C61 C62 O62 155(3) . .
O65 C61 O74 C74 96(3) . .
O65 C65 C66 O66 -68(3) . .
O72 C72 C73 C74 -165(3) . .
O72 C72 C73 O73 50(3) . .
O73 C73 C74 C75 175(3) . .
O73 C73 C74 O74 -28(4) . .
O74 C61 C62 C63 -69(3) . .
O74 C61 C62 O62 56(3) . .
O74 C61 O65 C65 66(3) . .
O74 C61 O65 K1 -172.8(19) . 9_565
O74 C74 C75 C76 50(4) . .
O74 C74 C75 O75 -174(2) . .
O75 C71 C72 C73 63(4) . .
O75 C71 C72 O72 -179(3) . .
O75 C71 O4 C4 104(3) . .
O75 C75 C76 O76 -80(3) . .
loop_
_refln_index_h
_refln_index_k
_refln_index_l
_refln_F_squared_meas
_refln_F_squared_sigma
_refln_scale_group_code
0 0 -12 19592.8 1951.02 1
0 0 -15 434.344 375.594 1
0 0 -18 583.005 527.311 1
1 0 -17 523.02 493.384 1
0 -1 -17 750.332 545.931 1
-1 1 -17 576.381 462.82 1
-1 0 14 23.0428 42.3435 3
-1 1 -14 58.4802 45.5482 1
-1 1 -11 2329.35 621.978 1
0 -1 -11 2335.22 570.607 1
-1 1 -8 1343.04 366.483 1
-1 1 -5 34754.7 1723.62 1
-1 0 -7 355.294 243.073 1
-1 0 -10 4379.3 782.785 1
0 1 -13 336.814 342.257 1
-1 0 -13 42.5854 204.141 1
-1 0 -16 26.1669 110.259 1
0 1 -16 242.351 151.394 1
1 -1 -16 245.706 402.068 1
-2 1 -6 1688.85 415.6 1
-2 1 -9 438.011 239.047 1
-2 1 -12 -69.1145 383.454 1
1 -2 -15 211.734 89.9867 1
-2 1 -15 369.812 318.424 1
-2 1 -18 405.132 440.313 1
1 1 -18 992.911 680.546 1
1 -2 -18 -62.0947 187.138 1
-1 -1 -6 1847.62 413.912 1
-1 2 -6 2158.09 527.547 1
-1 -1 -9 765.655 257.165 1
-1 2 -9 724.637 325.759 1
-1 2 -12 160.674 195.962 1
-1 -1 -12 189.835 169.945 1
-1 -1 -15 401.809 291.566 1
-1 -1 15 322.099 183.304 3
-1 2 -15 658.815 385.454 1
2 -1 -18 92.0141 291.684 1
-1 2 -18 430.267 416.891 1
-1 -1 -18 730.507 470.3 1
0 -2 -16 302.487 319.82 1
-2 2 -16 356.696 269.068 1
0 -2 -13 315.541 54.916 1
-2 2 -13 -30.6011 264.973 1
-2 2 -10 1997.77 535.85 1
0 -2 -10 1926.49 488.342 1
-2 2 -7 5107.45 835.891 1
-2 2 -4 3173.71 509.34 1
2 -2 4 2705.61 457.745 1
0 -2 5 2277.85 341.748 3
-2 0 -5 3259.81 549.462 1
2 0 5 1786.07 392.492 1
-2 0 -8 5293.2 799.399 1
0 -2 8 5511.9 551.668 3
-2 0 -11 1043.91 420.764 1
0 -2 11 752.58 209.758 3
0 2 -14 161.495 227.782 1
-2 0 -14 -27.6942 248.38 1
0 -2 14 323.989 150.227 3
2 -2 -17 37.9518 182.328 1
0 2 -17 182.016 234.534 1
-2 0 -17 -119.208 244.492 1
-3 2 -17 252.396 192.598 1
1 -3 -17 500.584 445.426 1
1 -3 -14 472.339 307.737 1
-3 2 -14 -38.6257 116.919 1
-3 2 -11 856.12 431.859 1
2 -3 8 219.569 99.6403 3
-3 2 -8 498.611 299.537 1
2 -3 5 858.927 306.145 1
-3 2 -5 978.524 345.773 1
1 -3 4 224.424 67.2001 3
-3 1 -4 301.528 135.006 2
2 1 4 292.851 114.805 1
2 1 4 492.028 246.45 2
-3 1 -4 482.223 234.812 1
1 -3 7 5309.04 551.219 3
-3 1 -7 6561.39 968.149 1
-3 1 -10 960.29 365.031 1
1 -3 10 743.786 217.311 3
-3 1 -13 52.6089 85.5234 1
1 -3 13 285.13 154.001 3
1 2 -16 436.623 371.7 1
-3 1 -16 517.18 495.047 1
2 2 3 1628.85 368.908 2
2 2 6 3395.44 467.105 1
2 -4 6 4816.38 554.825 3
2 -4 9 338.043 172.137 3
-4 2 -9 391.871 184.891 1
2 -4 12 983.552 263.369 3
-4 2 -12 197.424 154.101 1
-4 2 -15 127.392 212.363 1
-4 2 -18 552.621 443.008 1
2 2 -18 263.535 144.575 1
2 -4 -18 959.247 580.79 1
-2 3 -17 842.958 517.646 1
-2 -1 17 374.169 223.409 3
-1 -2 -17 626.751 430.119 1
-1 -2 -14 598.625 399.008 1
-2 3 -14 -55.4678 315.279 1
-2 3 -11 1026.42 455.023 1
-1 -2 -11 639.328 218.996 1
-1 -2 -8 414.767 191.812 1
-2 3 -8 666.861 233.687 1
-1 -2 -5 1020.41 262.758 1
-2 3 -5 1367.31 424.318 1
3 -2 5 330.589 418.831 2
3 -2 5 430.057 192.804 1
-2 -1 -4 356.455 141.697 1
3 -1 4 388.369 267.128 2
-1 3 -4 468.524 138.322 3
-1 3 -4 324.381 181.812 1
3 -1 4 296.781 170.326 1
-2 -1 -7 7433.77 903.8 1
-1 3 -7 6832.78 996.77 1
-2 -1 -10 555.919 236.474 1
-1 3 -10 660.011 302.792 1
-1 -2 13 959.564 324.313 3
-2 -1 -13 218.932 208.172 1
-1 3 -13 345.272 276.473 1
-1 3 -16 591.214 380.444 1
-1 -2 16 641.438 258.535 3
-2 -1 -16 138.861 207.759 1
-3 3 -18 405.95 312.629 1
0 -3 -18 1084.69 528.767 1
-3 0 18 754.112 285.219 3
-3 3 -15 705.726 423.659 1
0 -3 -15 703.993 324.648 1
-3 3 -12 203.503 155.982 1
0 -3 -12 15.728 275.471 1
-3 3 -9 5742.81 977.904 1
0 -3 -9 5695.99 783.488 1
3 -3 6 144.038 144.134 1
-3 3 -6 245.788 240.36 1
3 0 6 12585.9 1091.98 1
0 -3 6 14766.9 1003.09 3
-3 0 -9 755.116 331.13 1
0 -3 9 871.203 219.999 3
0 -3 12 267.018 126.985 3
-3 0 -12 291.23 24.34 1
-3 0 -15 2061.15 707.211 1
0 -3 15 1809.56 393.503 3
0 3 -15 1964.1 675.735 1
0 3 -18 1016.21 609.973 1
-3 0 -18 810.166 587.024 1
0 -3 18 432.755 195.749 3
1 -4 -16 680.08 424.902 1
-4 3 -16 626.813 273.739 1
1 -4 -13 454.481 206.101 1
-4 3 -13 263.634 115.575 1
-4 3 -10 1071.85 387.615 1
-4 3 -7 891.705 325.178 1
3 -4 4 2294.61 501.039 1
-4 3 -4 2548.23 551.157 1
1 3 4 2201.71 490.392 2
1 3 4 2042.36 325.125 3
-4 3 -4 1179.47 542.496 2
-4 1 -5 7892.85 945.819 1
1 -4 5 7076.13 688.183 3
3 1 5 6886.74 751.978 1
-4 1 -5 2396.49 603.67 2
3 1 5 3814.14 851.882 2
3 1 8 1390.21 354.307 1
-4 1 -8 2103.07 556.139 1
1 -4 8 1625.34 346.114 3
-4 1 -11 179.31 124.418 1
1 -4 11 455.374 204.703 3
-4 1 -14 535.278 390.367 1
1 -4 14 237.149 179.874 3
-4 1 -17 786.805 585.804 1
1 -4 17 472.541 204.576 3
1 3 -17 1149.53 648.433 1
2 -5 -17 721.853 427.178 1
-5 3 -17 158.513 286.881 1
-5 3 -14 373.016 190.993 1
-5 3 -11 105.235 98.1739 1
3 -5 8 4532.37 615.36 3
-5 3 -8 5258.67 960.249 1
3 -5 5 2836.04 480.008 3
3 -5 5 2686.52 603.181 1
-5 3 -5 1110.59 453.584 2
2 3 5 2420.11 351.141 1
2 3 5 2572.12 627.563 2
-5 3 -5 4107.04 755.666 1
2 -5 4 6568.38 698.517 3
3 -5 -4 8641.14 616.909 1
3 2 4 6081.22 607.435 1
3 2 4 7680.01 981.931 2
-5 2 -4 7282.75 1253.71 2
-5 2 -4 7746.84 933.696 1
3 2 7 273.271 148.139 1
2 -5 7 88.2155 74.6847 3
-5 2 -7 403.662 234.412 1
-5 2 -10 654.191 302.125 1
2 -5 10 876.924 283.81 3
-5 2 -13 351.14 314.442 1
2 -5 13 1556.77 422.809 3
-5 2 -16 538.08 367.348 1
3 -6 3 1247.15 383.902 1
-6 3 -3 2731.94 568.002 1
-6 3 3 1900 428.571 1
3 3 -3 1913.01 342.833 4
3 3 3 2288.35 414.35 2
-6 3 -3 2366.23 633.193 2
3 -6 3 1512.01 375.626 3
3 3 6 1663.27 686.104 2
3 -6 6 7600.09 1046.94 1
3 -6 6 8827.52 896.276 3
3 -6 -6 6907.36 568.125 1
3 3 6 8751.14 807.515 1
-6 3 -6 9199.83 1166.88 1
-6 3 -6 2363.59 749.489 2
3 3 9 1476.65 480.639 2
-6 3 -9 2839.27 679.928 1
3 -6 9 2323.44 486.89 3
3 -6 12 3324.51 571.079 3
-6 3 -12 3825.97 896.705 1
-6 3 -15 586.76 511.103 1
3 3 15 8.0732 500.209 2
-6 3 -18 371.587 125.871 1
3 -6 -18 231.395 323.134 1
3 3 18 118.606 225.323 2
4 -2 3 1282.26 449.258 2
-2 4 -6 4645.87 518.077 3
-2 4 -6 5254.6 849.148 1
4 -2 6 4621.06 766.332 1
-2 -2 -6 5170.47 642.442 1
4 -2 9 281.328 211.369 1
-2 4 -9 -24.0135 300.801 1
-2 -2 -9 6.15136 86.3179 1
4 -2 9 -485.24 321.507 2
-2 -2 -12 390.929 170.102 1
-2 4 -12 488.669 261.085 1
-2 -2 15 529.443 271.493 3
-2 4 -15 455.353 285.938 1
-2 -2 -15 553.779 307.872 1
-2 4 15 255.945 146.02 3
-2 4 -18 736.229 370.828 1
-2 -2 -18 196.555 345.94 1
-2 -2 18 502.69 234.992 3
-3 4 -16 851.326 461.024 1
-1 -3 -16 885.871 471.08 1
-1 4 13 374.959 144.071 3
-1 -3 -13 507.083 260.004 1
-3 4 -13 416.049 176.936 1
-1 -3 -10 1142.77 344.995 1
-3 4 -10 1501.31 537.204 1
-1 4 10 946.912 228.09 3
-1 -3 -7 851.413 265.327 1
-3 4 -7 886.731 349.288 1
-1 4 7 798.286 202.045 3
4 -3 7 1138.35 414.916 1
-3 4 -7 674.658 182.076 3
4 -3 7 309.095 327.327 2
-3 4 -4 2296.1 522.83 1
-3 4 -4 2295.44 394.427 3
-1 4 4 2212.35 383.289 3
4 -3 4 1279.36 562.23 2
4 -3 4 1778.38 488.522 1
-1 -3 -4 2012.64 314.1 3
-1 4 -5 7094.83 659.256 3
-3 -1 -5 7796.81 799.602 1
4 -1 5 5142.1 1093.16 2
-1 4 -5 7320.82 919.558 1
4 -1 5 7346.36 912.578 1
4 -1 8 1543.21 380.348 1
-1 4 -8 1487.48 519.334 1
-3 -1 -8 1548.46 426.476 1
4 -1 11 -213.162 363.643 2
-3 -1 -11 487.913 248.472 1
-1 -3 11 319.174 129 3
-1 4 -11 54.3914 145.727 1
-1 4 -14 358.024 336.931 1
-3 -1 -14 504.786 346.933 1
-1 -3 14 426.864 190.347 3
-1 4 -17 318.74 64.6967 1
-3 -1 -17 937.105 484.29 1
-1 -3 17 603.706 230.819 3
0 -4 -17 115.036 246.066 1
-4 4 -17 207.898 380.931 1
0 -4 -14 478.159 221.059 1
-4 4 -14 471.057 313.603 1
0 -4 -11 2806.36 570.1 1
0 4 11 1797.62 310.928 3
-4 4 -11 2728.49 748.218 1
0 4 8 1444.99 268.701 3
-4 4 -8 2117.37 342.664 3
-4 4 -8 1808.1 539.775 1
4 -4 8 1293.2 422.35 1
0 -4 -8 2936.61 496.761 1
4 -4 5 645.928 579.235 2
-4 4 -5 1497.86 450.668 1
0 4 5 1703.76 330.102 3
0 -4 -5 2168.67 410.531 3
4 -4 5 1270.2 373.712 1
0 -4 4 36458.1 1690.22 3
-4 0 -4 39893.9 1802.61 1
4 0 4 35562.9 1787.25 1
-4 0 -4 41092.4 2473.61 2
4 -4 -4 43591.3 1567.58 1
-4 0 -7 864.991 328.835 1
4 0 7 543.607 270.601 1
0 -4 7 584.413 199.131 3
4 0 7 642.955 345.788 2
0 -4 10 820.542 237.301 3
-4 0 -10 1133.35 455.521 1
0 -4 13 1573.25 392.995 3
4 0 13 156.598 85.333 2
0 4 -13 740.176 452.508 1
-4 0 -13 1397.11 607.639 1
0 -4 16 316.054 172.61 3
4 0 16 643.955 556.464 2
-4 0 -16 -111.782 403.996 1
0 4 -16 -65.2921 219.872 1
-5 4 -18 1191.76 685.558 1
1 -5 -18 -28.7288 129.509 1
1 -5 -15 79.9663 183.053 1
-5 4 -15 491.419 329.712 1
1 -5 -12 677.646 207.527 1
-5 4 -12 726.969 382.007 1
-5 4 -9 477.114 145.194 3
1 4 9 297.164 126.115 3
-5 4 -9 249.049 163.221 1
4 -5 6 1086.48 394.929 1
1 4 6 1014.78 234.921 3
4 -5 3 -35.3472 270.235 2
1 4 3 481.127 175.787 3
-5 4 -3 545.196 243.652 1
4 -5 3 602.411 217.001 1
-5 4 -3 573.958 353.794 2
1 -5 -3 695.228 233.516 3
4 1 3 216.743 113.885 2
4 1 3 177.814 99.6911 1
-5 4 3 437.869 172.8 1
1 -5 3 344.966 175.654 3
4 -5 -3 251.51 104.448 1
-5 1 -3 317.102 257.157 2
4 -5 -3 555.315 204.6 4
-5 1 -3 163.788 68.6115 1
-5 1 -6 2222.57 729.081 2
4 1 6 3842.39 642.798 1
4 1 6 2414.75 840.749 2
1 -5 6 3979.94 611.764 3
-5 1 -6 4577.29 788.612 1
1 -5 9 444.513 158.127 3
4 1 9 120.074 235.864 2
4 1 9 215.583 38.0085 1
-5 1 -9 92.9167 27.8932 1
1 -5 12 1624.88 430.972 3
-5 1 -12 1064.13 491.306 1
1 -5 15 340.199 210.058 3
4 1 15 -206.625 227.3 2
-5 1 -15 152.701 112.327 1
4 1 18 -345.064 555.948 2
-5 1 -18 247.127 308.777 1
1 4 -18 798.593 595.634 1
1 -5 18 42.2851 115.283 3
-6 4 -16 255.547 175.288 1
2 -6 -16 -10.9956 240.888 1
-6 4 -13 1016.6 593.488 1
-6 4 -10 324.143 112.509 1
-6 4 -10 745.536 218.286 3
-6 4 -7 7184.22 1134.67 1
4 -6 7 6073.84 980.698 1
-6 4 -4 1482.2 609.162 2
4 -6 4 2980.93 630.986 1
-6 4 -4 2357.44 584.84 1
2 4 4 2481.54 423.546 2
-6 2 1 2528.83 529.478 2
-6 4 -1 2395.03 515.729 2
4 -6 -2 1954.63 366.868 1
2 -6 2 1358.13 353.134 1
2 4 -2 2064.16 376.807 4
4 -6 -2 1468.54 383.061 4
-6 4 2 2528.31 466.172 1
4 2 2 1827.34 333.047 1
-6 2 -2 1478.34 429.085 2
-6 2 -2 1445.34 359.518 1
2 -6 2 1623.88 401.5 3
-6 4 2 2332.02 471.027 2
4 2 2 1746.87 378.172 2
4 2 5 30791.8 1616.29 1
4 2 5 34878.8 2287.79 2
4 -6 -5 35497.4 1455.11 1
-6 2 -5 32197 2741.23 2
2 -6 5 30827.7 1713.99 3
-6 2 -5 34422.3 2105.66 1
2 -6 8 3503.64 582.776 3
-6 2 -8 3655.69 786.922 1
4 2 8 2587.78 532.758 1
4 2 8 1862.1 764.485 2
-6 2 -11 782.256 364.586 1
2 -6 11 786.234 250.334 3
4 2 14 -58.2028 64.7821 2
-6 2 -14 -49.7453 148.113 1
2 -6 14 170.062 72.9388 3
-6 2 -17 202.808 267.776 1
4 2 17 -64.5544 545.233 2
3 4 17 -194.022 328.267 2
3 -7 -17 257.445 233.201 1
-7 4 -17 363.743 309.639 1
3 4 14 -312.067 226.563 2
-7 4 -14 303.989 141.154 1
-7 4 -11 254.606 122.728 3
-7 4 -11 279.969 135.924 1
3 4 8 381.326 150.707 1
3 4 8 463.911 288.879 2
-7 4 -8 406.426 260.208 1
3 -7 -5 9760.92 669.101 1
-7 4 -5 10215.7 1266.04 1
3 4 5 7925.69 679.956 1
4 -7 5 8531.31 1131.84 1
-7 4 -5 8376.98 1499.49 2
3 4 5 9586.72 1046.5 2
3 4 2 2777.13 363.881 1
3 -7 -2 3339.7 451.786 1
3 4 2 3089.82 470.338 2
4 -7 2 3037.89 628.321 1
-7 4 -2 3747.26 689.353 2
-7 3 2 4063.51 724.327 2
4 3 -2 3214.98 479.6 4
-7 3 2 3249.64 603.636 1
-7 4 -2 3192.07 607.242 1
3 -7 -2 2797.41 594.601 4
4 -7 2 1403.39 636.77 2
3 -7 1 802.135 257.606 1
4 3 1 681.349 208.492 1
4 -7 -1 700.179 198.715 1
4 3 1 795.565 260.315 2
4 -7 -1 698.08 240.765 4
4 -7 -1 469.048 169.999 2
-7 3 -1 505.695 241.389 2
-7 4 1 550.418 254.646 1
-7 4 1 617.281 279.551 2
3 -7 1 558.63 218.444 4
-7 3 -1 578.589 205.747 1
3 -7 1 607.102 264.224 2
3 -7 1 666.796 257.217 3
3 4 -1 746.59 243.944 4
4 3 4 2725.8 538.117 2
3 -7 4 1855.25 500.443 1
-7 3 -4 2631.33 623.794 1
4 3 4 1501.27 311.983 1
-7 3 -4 3321.15 854.164 2
3 -7 4 1949.52 457.636 3
4 -7 -4 3740.39 477.6 1
-7 4 4 2061.24 497.883 1
4 -7 -7 2307.22 381.798 1
-7 3 -7 531.326 287.749 2
4 3 7 1645.11 369.027 1
-7 3 -7 2223.96 619.036 1
3 -7 7 1711.35 433.672 3
4 3 7 2130.58 558.391 2
4 3 10 -248.254 388.649 2
4 3 10 801.245 304.623 1
-7 3 -10 1275.19 587.797 1
4 3 13 176.104 154.55 2
3 -7 13 808.26 287.731 3
-7 3 -13 1283.15 571.151 1
-7 3 -16 1181.6 634.087 1
4 3 16 248.315 201.635 2
-8 4 0 72554.8 3131.96 2
-8 4 0 67092.2 2910.03 1
4 -8 0 69718.3 2864.02 2
4 -8 0 64752.8 2620.73 1
-8 4 3 4260.88 831.475 2
-8 4 -3 4274.04 769.678 1
4 -8 3 2967.47 591.202 3
4 4 3 3010.05 427.21 1
4 4 -3 3589.35 552.085 4
4 -8 3 3274.57 654.363 1
4 -8 3 1745.24 677.977 2
4 -8 -3 3498.3 733.934 4
4 4 3 3699.71 582.081 2
4 -8 -3 4312.85 535.7 1
-8 4 3 3299.94 640.838 1
-8 4 -3 5670.96 991.145 2
4 -8 6 1125.52 472.868 1
4 4 6 1274.13 333.72 1
4 4 6 820.218 341.906 2
4 -8 -6 1277 290.924 1
-8 4 -6 1077.28 416.31 1
4 -8 6 1263.52 339.854 3
-8 4 -6 941.848 432.861 2
4 4 9 3510.68 561.969 1
-8 4 -9 6242.51 1210.67 1
4 -8 9 4672.11 773.51 3
4 -8 -9 5284.73 645.642 1
4 4 12 -316.679 476.333 2
-8 4 -12 -47.3073 286.691 1
4 4 15 150.174 332.994 2
-8 4 -15 80.907 297.687 1
-3 5 -17 620.164 518.463 1
-3 -2 17 376.038 282.682 3
-2 5 17 259.299 126.909 3
5 -3 17 495.991 661.868 2
-2 -3 -17 491.557 442.921 1
-2 -3 -14 946.348 448.564 1
-3 5 -14 556.404 361.452 1
-2 5 14 354.206 172.955 3
-2 -3 -11 149.81 140.471 1
5 -3 11 479.873 429.754 2
-3 5 -11 132.358 341.757 1
-3 5 -8 4587.25 553.738 3
-3 5 -8 5170.1 954.26 1
5 -3 8 3981.93 820.068 1
-2 -3 -8 5158.44 709.209 1
-2 -3 -8 4098.45 462.554 3
5 -3 5 2656.75 890.691 2
5 -3 5 2958.75 671.764 1
-3 5 -5 3125.85 487.527 3
-2 -3 -5 2759.31 378.711 3
-3 5 -5 2842.1 611.2 1
-2 -3 -5 3224.3 417.098 1
-3 -2 2 2035.31 349.487 4
-2 5 2 2109.38 461.642 4
-3 -2 -4 6556.44 613.18 1
5 -2 4 7668.6 1190.36 2
-2 5 -4 8000.9 763.758 3
-2 5 -4 8009.75 946.133 1
5 -2 4 7217.65 926.978 1
5 -3 -4 8805.4 801.271 1
-3 -2 -4 6069.39 904.474 2
5 -2 7 129.274 93.3431 1
5 -2 7 -42.2764 231.937 2
-2 5 -7 152.863 118.881 3
-2 5 -7 396.653 237.954 1
-3 -2 -7 221.815 166.812 1
-2 5 -10 515.943 210.468 1
-3 -2 -10 803.897 284.675 1
5 -2 10 468.498 212.664 1
-2 5 -13 293.92 153.355 1
5 -2 13 481.886 390.208 2
-3 -2 -13 110.831 75.9269 1
5 -2 16 -119.907 384.553 2
-2 -3 16 403.068 208.206 3
-3 -2 -16 451.413 357.287 1
-2 5 -16 883.336 505.412 1
-4 5 -18 224.247 204.095 1
-1 -4 -18 249.326 207.829 1
-4 5 -15 -130.113 166.784 1
-1 5 15 74.6147 64.1343 3
-4 5 -12 463.338 213.797 1
-1 -4 -12 968.971 360.439 1
-1 5 12 907.861 248.771 3
5 -4 9 -322.313 411.255 2
-4 5 -9 392.132 154.341 3
-1 -4 -9 534.551 206.854 1
-1 5 9 435.709 174.396 3
-4 5 -9 554.45 273.685 1
5 -4 9 386.885 110.742 1
5 -4 6 1453.78 456.83 1
5 -4 6 515.042 490.331 2
-1 5 6 1362.58 335.54 3
-4 5 -6 1541.93 514.155 1
-1 -4 -6 1579.25 337.23 3
-1 -4 -6 2072.13 360.336 1
-4 5 -6 1929.3 405.962 3
5 -4 3 397.783 179.563 1
5 -1 -3 400.281 163.638 1
5 -4 3 167.927 195.798 2
-4 5 -3 168.327 225.509 2
-1 -4 -3 415.148 173.965 3
-1 5 3 478.029 170.837 3
-4 5 -3 815.318 292.008 1
-4 5 3 404.745 134.925 1
-4 -1 -3 284.969 115.668 1
-4 -1 -3 530.116 237.008 2
5 -4 -3 565.803 193.617 1
-4 5 3 360.058 173.493 4
-1 5 -3 217.185 92.923 1
-1 5 -3 363.535 138.28 3
5 -1 3 562.927 250.682 2
5 -1 3 399.304 189.706 1
-1 -4 3 317.767 171.299 4
-1 -4 3 208.67 66.4981 3
-1 -4 6 4332.15 648.646 3
-1 5 -6 4258.8 584.775 3
5 -1 6 4511.14 800.936 1
-4 -1 -6 4518.14 665.26 1
5 -1 6 3153.42 978.475 2
-1 -4 9 734.048 307.134 3
5 -1 9 476.251 272.806 1
-1 5 -9 480.532 204.559 1
-4 -1 -9 363.441 173.914 1
5 -1 9 -136.974 184.487 2
-1 -4 12 855.236 307.017 3
-1 5 -12 1141.15 489.421 1
-4 -1 -12 818.732 330.078 1
-1 -4 15 326.296 186.286 3
-4 -1 -15 346.453 188.146 1
-1 5 -15 542.925 421.336 1
5 -1 15 -486.061 614.266 2
-1 5 -18 -505.907 454.103 1
-1 -4 18 0.37684 53.9825 3
5 -1 18 259.489 325.158 2
-4 -1 -18 441.463 403.091 1
-5 5 -16 857.358 424.042 1
0 -5 -16 896.336 402.014 1
0 5 13 426.759 161.904 3
-5 5 -13 727.147 336.001 1
0 -5 -13 425.215 69.6364 1
-5 5 -10 -94.9927 296.643 1
-5 5 -10 111.335 95.5127 3
0 5 10 29.6364 56.0369 3
0 -5 -10 50.1883 65.4635 1
5 -5 10 -129.045 283.751 1
0 -5 -7 16364.3 949.727 1
0 5 7 13530 999.72 3
5 -5 7 13892.6 1558.3 1
-5 5 -7 16655.4 1730.9 1
-5 5 -7 17537.6 1205.99 3
-5 5 -4 18667.7 1611.66 1
0 5 4 14621.8 1056 3
0 -5 -4 15510.4 1077.41 3
5 -5 4 17352.6 1592.16 1
0 5 -2 26619.5 1472.91 3
-5 5 2 28857.8 1299.65 4
-5 0 -2 22991.2 1559.61 2
-5 5 2 27025.5 1432.96 1
5 0 2 19599.4 1243.86 1
0 5 -2 25357.7 1455.95 4
0 -5 2 21878.5 1372.36 3
-5 5 2 28068.9 1472.52 2
5 0 2 22360.9 1483.93 2
-5 0 -2 22202 1338.51 1
0 -5 2 20777 1335.33 4
-5 0 -5 1085.66 438.771 2
5 -5 -5 1777.91 360.155 1
5 0 5 1361.7 367.468 1
0 -5 5 1328.49 356.185 3
-5 0 -5 1603.2 463.277 1
5 0 5 1769.01 593.631 2
0 -5 8 1764.49 440.77 3
5 0 8 1694.72 411.993 1
-5 0 -8 2168.75 536.728 1
0 -5 11 1946.19 452.014 3
5 0 11 1604.77 510.033 1
-5 0 -11 2035.34 577.389 1
5 0 14 -376.987 549.318 2
0 -5 14 54.6768 109.506 3
0 5 -14 257.208 254.026 1
-5 0 -14 -98.3165 206.892 1
-5 0 -17 375.85 200.357 1
5 0 17 -318.526 411.402 2
0 -5 17 532.38 278.313 3
0 5 -17 810.084 578.867 1
1 -6 -17 427.293 365.9 1
-6 5 -17 548.647 413.7 1
-6 5 -14 523.435 403.974 1
1 -6 -14 59.4584 149.292 1
-6 5 -11 2378.02 707.241 1
1 5 11 1926.7 355.848 3
-6 5 -11 2041.54 372.533 3
1 -6 -11 2538.69 519.027 1
1 5 8 333.115 49.8612 3
5 -6 8 304.766 253.605 1
5 -6 8 -282.305 392.421 2
-6 5 -8 671.554 414.282 1
-6 5 -5 6232.8 1003.54 1
1 5 5 4345.98 585.234 3
1 5 5 2928.31 518.758 2
5 -6 5 4507.89 814.311 1
5 -6 5 467.461 466.682 2
-6 5 -5 573.75 522.455 2
5 -6 2 566.036 336.061 2
1 -6 -2 620.168 247.463 3
1 5 2 281.996 162.052 3
-6 5 -2 460.798 292.344 2
-6 5 -2 309.022 186.733 1
5 -6 2 756.716 316.206 1
-6 1 2 291.018 120.489 1
1 5 -1 36044.6 1804.9 4
5 1 1 30324.4 1734.6 2
-6 1 -1 32132.7 1778.69 1
-6 1 -1 35771.3 2037.97 2
5 -6 -1 32571.4 1642.56 1
5 -6 -1 31290.2 1587.63 4
-6 5 1 32519.3 1748.97 1
-6 5 1 35447.4 1875.58 2
5 1 1 33450.7 1597.82 1
1 -6 1 31162.5 1685.96 3
1 5 -1 38520.4 1874.18 3
1 -6 1 31051 1740.36 4
5 -6 -4 6320.27 709.679 1
-6 1 -4 3396.82 616.744 1
-6 1 -4 4366.38 938.631 2
5 1 4 3143.64 514.116 1
5 1 4 3807.76 704.5 2
-6 5 4 4742.99 644.136 1
1 -6 4 4043.21 654.839 3
-6 5 4 5896.16 634.723 4
5 1 7 1961.28 524.773 1
1 -6 7 1370.87 351.737 3
5 1 7 423.837 279.531 2
-6 1 -7 -76.343 313.159 2
-6 1 -7 1453.06 463.828 1
5 -6 -7 1440.48 324.831 1
5 1 10 1542.9 427.823 1
1 -6 10 2371.58 571.288 3
-6 1 -10 1981.96 595.122 1
5 1 13 225.732 126.267 2
-6 1 -13 214.512 232.882 1
1 -6 13 570.995 216.43 3
5 1 16 -40.8874 447.443 2
-6 1 -16 -14.2903 56.5554 1
1 -6 16 155.835 187.995 3
1 5 -16 237.843 219.732 1
-7 5 -18 -302.444 186.139 1
2 5 18 218.237 457.864 2
2 -7 -18 -28.0163 179.775 1
-7 5 -15 -442.831 495.117 1
2 -7 -15 -240.612 205.89 1
2 5 15 -339.416 492.565 2
-7 5 -12 40.2241 261.511 1
-7 5 -12 353.971 159.391 3
5 -7 9 4181.46 956.271 1
-7 5 -9 4784.35 1064.74 1
5 -7 6 597.878 308.722 1
2 5 6 1140.22 394.166 2
-7 5 -6 246.344 414.028 2
5 -7 6 196.56 420.936 2
-7 5 -6 1170.63 474.666 1
5 2 -3 9519.62 725.584 4
-7 5 -3 8336.48 1225.34 2
5 -7 3 9892.26 1254.59 1
2 5 3 10789.5 773.4 2
2 -7 -3 10562.7 1097.48 3
-7 5 -3 7959.96 1042.18 1
-7 2 3 9477.71 983.778 1
5 -7 0 288.224 172.127 2
-7 2 0 431.862 266.404 2
5 -7 0 14.8106 57.3266 1
-7 5 0 15.2116 50.818 1
2 -7 0 86.996 57.0877 1
-7 2 0 425.827 215.889 1
-7 5 0 452.798 300.258 2
2 -7 0 256.058 166.454 3
2 -7 0 247.344 165.394 4
5 2 0 307.741 198.851 1
5 -7 0 297.824 176.36 4
2 5 0 75.7336 116.709 4
2 5 -3 2547.25 467.367 4
-7 5 3 2817.53 540.959 1
5 -7 -3 3140.1 584.888 4
-7 2 -3 3098.37 694.703 2
5 2 3 2705.68 457.087 1
5 -7 -3 3394.88 511.241 1
-7 2 -3 2504.93 555.329 1
2 -7 3 2721.8 499.149 3
-7 5 3 3288.12 642.334 2
5 2 3 3499.68 605.068 2
-7 2 -6 5299.91 859.334 1
5 -7 -6 5561.4 639.86 1
2 -7 6 4087.93 661.203 3
5 2 6 4949.28 726.876 1
-7 2 -6 4304.56 988.315 2
5 2 6 3730.54 794.551 2
2 -7 9 860.28 337.876 3
-7 2 -9 1309.94 503.02 1
5 2 9 164.526 356.18 2
5 2 9 540.316 297.077 1
2 -7 12 13.7381 179.228 3
5 2 12 -196 389.439 2
-7 2 -12 151.844 124.585 1
2 -7 15 960.03 327.198 3
5 2 15 172.84 347.546 2
-7 2 -15 705.975 512.112 1
-7 2 -18 819.478 592.346 1
2 5 -18 581.877 381.308 1
5 2 18 537.389 475.33 2
3 5 16 259.839 374.547 2
-8 5 -16 720.254 454.771 1
-8 5 -13 781.804 438.226 1
-8 5 -13 358.796 155.721 3
-8 5 -10 316.865 216.147 1
3 5 10 56.313 83.2768 2
3 -8 -7 2793.22 376.758 1
-8 5 -7 3666.4 850.531 1
3 5 7 2565.76 405.762 1
3 5 7 1910.89 500.705 2
5 -8 7 2696.76 699.674 1
-8 5 -4 2267.49 792.308 2
5 -8 4 3543.96 798.232 1
5 3 -4 2450.42 440.311 4
3 5 4 2926.28 513.655 2
5 -8 4 749.187 480.951 2
-8 5 -4 2003.6 565.952 1
-8 3 4 2788.44 563.438 1
3 -8 -1 8490.17 784.94 2
3 -8 -1 9102.22 1080.46 4
-8 3 1 11628.1 1312.21 2
-8 5 -1 10780.6 1189.27 1
5 -8 1 9045.23 1078.45 1
-8 5 -1 10860 1247.16 2
-8 3 1 11293.4 1167.18 1
5 -8 1 10009.9 1200.36 2
3 -8 -1 8697.62 839.886 1
3 -8 -1 8967.33 1056.62 3
5 3 2 1797.49 457.133 2
5 -8 -2 2065.64 506.501 4
3 -8 2 2263.38 511.889 1
3 5 -2 2377.79 481.307 4
-8 5 2 2204.46 595.534 2
-8 5 2 2075.55 481.069 1
3 -8 2 2296.39 525.835 3
3 -8 2 2029.96 497.643 4
5 -8 -2 2165.23 416.929 1
-8 3 -2 2608.42 630.607 2
-8 3 -2 2359.96 551.228 1
5 -8 -2 1282.93 331.91 2
5 3 2 2055.81 393.473 1
5 3 5 3920.47 560.817 1
3 -8 5 4872.76 797.524 3
-8 3 -5 5095.92 1187.26 2
-8 5 5 5358.65 847.676 1
5 3 5 4683.66 824.58 2
5 -8 -5 6438.51 710.035 1
-8 3 -5 5469.41 936.338 1
5 -8 -8 1208.18 310.382 1
3 -8 8 1199.42 393.481 3
-8 3 -8 22.8088 219.948 2
5 3 8 830.08 305.14 1
5 3 8 729.834 349.6 2
-8 3 -8 1272.12 511.072 1
-8 3 -11 -141.862 360.276 1
5 3 11 52.469 80.9005 1
5 3 11 -1.8843 219.664 2
5 3 14 -79.1063 180.671 2
-8 3 -14 605.697 422.397 1
3 -8 14 209.577 246.723 3
5 3 17 -0.65605 331.594 2
-8 3 -17 320.191 404.432 1
4 5 17 -91.4532 379.408 2
-9 5 -17 169.629 374.615 1
4 5 14 284.174 85.4074 2
-9 5 -14 875.18 262.009 3
-9 5 -11 646.95 387.022 1
4 5 11 216.719 336.937 2
4 5 8 293.738 242.278 2
-9 5 -8 -85.9586 157.069 1
4 -9 -8 365.646 164.694 1
-9 5 -8 -86.7918 396.168 2
5 -9 8 -169.226 263.624 1
4 5 8 147.213 50.2179 1
5 -9 5 1834.13 625.761 1
5 -9 5 337.093 419.568 2
4 -9 -5 2516.16 399.936 1
-9 5 -5 465.788 508.178 2
4 5 5 1383.96 299.126 1
4 5 5 1909.71 479.932 2
-9 5 -5 2573.31 689.86 1
4 5 2 4945.4 662.422 2
5 4 -2 5920.18 783.455 4
5 -9 2 3401.68 938.144 2
5 -9 2 4542.6 800.726 1
-9 5 -2 5553.39 910.887 1
4 -9 -2 4593.26 856.872 4
4 -9 -2 4987.43 642.994 1
4 5 2 4730.06 564.448 1
-9 5 -2 6968.88 1104.24 2
-9 4 2 5022.32 849.25 1
-9 4 2 5864 1009.33 2
-9 5 1 5595.25 955.459 1
4 -9 1 3866.72 740.016 4
-9 4 -1 5819.63 930.175 1
5 4 1 6090.87 729.329 1
-9 5 1 6974.06 1068.84 2
4 -9 1 2817.03 818.393 2
5 -9 -1 3689.77 585.522 2
4 -9 1 5044.75 780.943 1
4 5 -1 6057.88 921.397 4
5 -9 -1 4870.67 712.77 1
-9 4 -1 6489.33 1035.39 2
5 -9 -1 4268.48 747.568 4
4 -9 1 4575.4 820.245 3
5 -9 -4 2771.58 470.242 1
-9 5 4 2116.63 553.414 1
4 -9 4 1480.49 507.401 1
-9 4 -4 2334.34 658.453 1
-9 5 4 3210.66 785.171 2
5 -9 -4 1915.32 606.839 4
4 5 -4 2476.94 512.286 4
5 4 4 1805.77 385.899 1
5 4 4 2172.66 567.028 2
-9 4 -4 3428.85 911.894 2
4 -9 4 1708.72 483.082 3
5 4 7 481.841 200.027 1
5 4 7 819.117 380.117 2
-9 5 7 653.589 202.364 4
5 -9 -7 1051.8 296.315 1
-9 4 -7 819.44 384.201 1
-9 4 -7 7.4834 178.157 2
4 -9 7 551.036 52.9336 3
4 -9 10 4621.72 820.313 3
5 4 10 3408.87 624.151 1
5 4 10 2234.67 815.645 2
-9 4 -10 4414.14 1031.03 1
5 -9 -10 4058.62 634.242 1
5 4 13 135.735 361.49 2
-9 4 -13 556.992 327.411 1
4 -9 13 926.528 368.776 3
5 4 16 -87.4737 84.7855 2
-9 4 -16 121.882 327.914 1
-10 5 0 3705.82 774.693 1
5 -10 0 3407.29 708.131 2
-10 5 0 3565.54 774.998 2
5 -10 0 2483.51 594.417 4
5 -10 0 3189.07 623.55 1
-10 5 3 3783.71 776.118 1
-10 5 -3 6158.36 1119.7 2
5 5 3 2985.93 592.343 2
5 -10 -3 4314.79 622.48 1
-10 5 3 4520.63 924.402 2
5 5 3 3737.47 540.727 1
5 5 -3 4141.3 661.238 4
5 -10 3 3967.24 808.946 1
5 -10 -3 3745.43 804.518 4
-10 5 -3 3953.99 815.438 1
5 -10 3 2913.43 815.388 2
5 5 6 1247.58 449.277 2
5 -10 -6 1980.44 376.661 1
5 5 6 1316.44 319.559 1
-10 5 -6 672.089 636.873 2
5 -10 6 1255.59 398.756 3
-10 5 -6 1828.92 627.262 1
5 -10 6 1786.63 600.205 1
5 -10 -9 1399.42 357.52 1
-10 5 -9 1100.13 543.139 1
5 5 9 47.8078 181.91 2
-10 5 -9 286.949 246.108 2
5 5 9 776.381 315.166 1
-10 5 -12 340.05 184.752 1
5 -10 -12 565.784 246.705 1
5 5 12 202.363 310.381 2
-10 5 -15 138.091 135.341 3
-10 5 -15 274.305 237.987 1
5 5 15 208.381 331.639 2
-3 6 0 2694.22 480.624 4
-3 6 -3 2015.88 466.166 1
6 -3 3 1975.31 618.125 2
-3 6 -3 2174.98 443.479 3
-3 -3 -3 1924.79 390.046 2
6 -3 3 1882.27 483.691 1
6 -3 -3 2568.27 498.617 1
-3 6 3 2529.99 587.931 4
-3 -3 3 1982.71 383.721 4
-3 6 -6 9099.81 889.62 3
6 -3 6 9438.4 1274.12 1
-3 6 -6 8740.99 1151.9 1
-3 -3 -6 8174.99 685.175 3
-3 -3 -6 7984.28 731.827 1
-3 6 -9 2269.29 436.314 3
6 -3 9 366.941 449.719 2
6 -3 9 2513.12 610.808 1
-3 6 -9 2359.18 662.818 1
-3 -3 -9 2523.33 535.741 1
-3 -3 -9 2240.72 350.763 3
-3 6 -12 3011.99 842.538 1
6 -3 12 2750.24 739.518 1
-3 -3 -12 2831.86 628.419 1
6 -3 15 -321.068 628.288 2
-3 6 15 -55.1283 165.812 3
-3 6 -15 231.7 361.14 1
-3 -3 -15 378.988 262.757 1
-3 6 18 82.8676 44.7564 3
6 -3 18 6.16947 263.286 2
-3 -3 18 269.12 179.295 3
-3 6 -18 429.967 454.504 1
-3 -3 -18 -24.0966 276.641 1
-2 6 16 184.096 140.798 3
-2 -4 -16 -197.384 323.151 1
6 -4 16 -83.7518 320.98 2
-4 6 -16 712.152 516.198 1
-2 6 13 347.51 188.117 3
-2 -4 -13 438.078 236.542 1
-4 6 -13 508.913 41.4666 1
6 -4 10 775.184 420.882 1
-2 -4 -10 645.556 220.685 1
-4 6 -10 864.897 445.429 1
-4 6 -10 484.671 171.502 3
6 -4 10 106.425 225.234 2
-2 6 10 557.759 160.97 3
-2 -4 -7 6232.43 629.263 3
-4 6 -7 9057.96 894.448 3
6 -4 7 7008.54 1115.26 1
-2 -4 -7 7314.58 718.815 1
-4 6 -7 7351.47 1131.01 1
-2 6 7 7224.62 809.758 3
6 -4 4 2525.18 592.841 1
6 -4 4 2313.3 677.702 2
6 -2 -4 2337.59 457.708 1
-4 6 -4 3135.18 620.436 1
-2 -4 -4 2270.8 454.849 2
-4 6 -4 3275.34 567.32 3
-4 -2 4 1936.63 310.072 4
-2 -4 -4 2217.87 389.299 3
-2 6 4 2641.07 472.743 3
-4 6 -1 2252.34 540.622 2
-4 6 -1 2253.63 479.115 1
-2 6 1 2247.66 482.12 4
-2 6 1 2181.08 466.783 3
-2 6 1 2340.14 372.031 1
-2 6 -2 2221.79 445.471 1
-4 6 2 1805.28 340.378 1
-4 -2 -2 1704.89 311.055 1
6 -4 -2 1608.44 398.083 2
-2 6 -2 2022.75 447.002 3
-4 6 2 2018.44 417.381 4
6 -4 -2 2058.35 463.322 1
6 -2 2 1398.92 417.792 2
-2 -4 2 1513.83 347.348 4
6 -2 2 1421.71 355.626 1
-4 -2 -5 30269 1508.74 1
6 -2 5 32132.8 2162.77 1
-2 6 -5 36842.5 1772.14 3
-4 -2 -5 32363.5 2304.96 2
6 -2 5 36660.2 2753.73 2
6 -4 -5 33057.3 1696.27 1
-2 6 -5 36494.7 2227.38 1
-4 -2 -8 2378.12 347.834 3
-4 -2 -8 2777.84 566.63 1
-2 6 -8 2894.64 530.189 3
6 -2 8 2925.35 713.924 1
-2 6 -8 4242.29 914.7 1
-2 6 -11 576.336 155.48 1
6 -2 11 881.185 340.441 1
-4 -2 -11 697.094 266.166 1
-4 -2 -14 49.4067 109.08 1
-2 6 -14 395.212 381.218 1
-2 -4 14 90.2191 70.4198 3
-4 -2 -17 445.591 411.564 1
6 -2 17 434.62 346.211 2
-2 6 -17 -174.79 167.177 1
-2 -4 17 144.628 101 3
-1 -5 -17 243.033 238.854 1
-5 6 -17 -84.4853 322.283 1
6 -5 17 -309.916 557.469 2
6 -5 14 139.956 250.463 2
-5 6 -14 210.897 190.476 1
-1 -5 -14 266.191 121.491 1
-1 6 14 -13.8605 81.4985 3
-5 6 -11 2001.11 388.654 3
-1 -5 -11 2500.51 528.015 1
6 -5 11 2207.51 691.34 1
-1 6 11 1812.02 385.284 3
-5 6 -11 2097.97 706.084 1
6 -5 8 653.043 379.039 1
-5 6 -8 377.911 246.563 1
-5 6 -8 614.392 157.277 3
-1 6 8 187.717 52.265 3
-1 -5 -8 403.423 149.897 1
6 -5 8 -241.028 217.293 2
6 -5 5 2849.45 1005.51 2
-5 6 -5 5299.87 884.355 1
6 -5 5 5456.74 956.648 1
-1 -5 -5 5210.5 633.577 3
-1 6 5 4710.85 649.535 3
-1 6 2 411.396 233.433 4
-5 6 -2 188.665 208.826 2
-1 -5 -2 426.127 160.647 3
6 -1 -2 569.47 212.426 1
6 -5 2 678.361 386.539 2
-5 6 -2 603.672 230.825 1
6 -5 2 386.715 235.21 1
-1 6 2 653.648 236.647 3
6 -1 1 27472.1 1735.14 2
6 -5 -1 33051.2 1897.62 2
-5 -1 -1 33990.3 1850.98 2
-1 6 -1 37577.5 1823.87 4
6 -1 1 32704.8 1760.24 1
-1 6 -1 33752 1576.73 1
-1 -5 1 29502.5 1670.94 3
-5 -1 -1 31091.6 1519.79 1
6 -5 -1 35822.6 1917.21 1
-1 6 -1 35210 1773.29 3
-5 6 1 35845.5 1690.09 4
-5 6 1 30494.2 1574.6 1
-1 -5 1 32263 1796.5 4
-5 6 1 32712 1592.61 2
6 -1 4 3479.53 781.037 2
6 -1 4 2959.11 568.073 1
-5 6 4 4717.85 589.712 1
-5 -1 -4 5089.25 926.214 2
-1 -5 4 4368.3 702.154 3
-5 -1 -4 2956.22 511.548 1
-1 6 -4 5609.28 697.006 3
6 -5 -4 5172.31 705.466 1
-5 6 4 5181.47 759.414 4
6 -5 -7 1182.89 301.482 1
-5 -1 -7 409.293 285.389 2
6 -1 7 723.889 453.495 2
-1 -5 7 1501.72 409.512 3
-5 -1 -7 1619.51 420.02 1
6 -1 7 1685.85 477.76 1
-1 6 -10 1570.28 564.088 1
6 -1 10 1706.7 505.093 1
-1 -5 10 2547.8 608.083 3
-5 -1 -10 1880.94 513.788 1
6 -1 13 -157.8 303.904 2
-1 6 -13 404.386 352.584 1
-5 -1 -13 224.579 235.093 1
-1 6 -16 -89.8372 307.871 1
-5 -1 -16 293.321 191.141 1
-1 -5 16 135.498 160.637 3
6 -1 16 154.929 203.753 2
6 -6 18 421.956 640.849 2
-6 6 -18 288.631 426.502 1
0 -6 -18 174.433 238.017 1
-6 6 -15 537.906 342.673 1
0 -6 -15 273.514 187.538 1
6 -6 15 474.796 459.014 2
6 -6 12 -197.915 353.65 2
0 6 12 268.002 115.321 3
-6 6 -12 319.562 285.506 1
0 -6 -12 414.986 222.409 1
-6 6 -12 388.628 153.02 3
6 -6 9 2158.7 799.228 1
0 6 9 938.595 279.074 3
-6 6 -9 1449.9 675.041 1
0 -6 -9 2044.8 404.922 1
6 -6 9 193.383 283.32 2
-6 6 -9 1356.97 373.588 3
0 -6 -6 2077.78 495.692 3
0 6 6 521.212 239.401 3
6 -6 6 506.645 476.835 2
-6 6 -6 1729.96 655.478 1
6 -6 6 1189.27 507.728 1
0 6 3 131688 3479.56 3
6 0 -3 133446 3542.29 1
6 -6 3 121371 4291.59 1
-6 6 -3 134736 4454.36 1
6 -6 3 127274 4957.6 2
-6 6 -3 139284 5190.95 2
0 -6 -3 130886 3410.3 3
0 6 0 1447.31 473.551 4
-6 0 0 921.011 299.535 1
6 0 0 1314.45 405.45 1
6 -6 0 354.62 190.342 2
0 -6 0 710.67 295.043 3
-6 6 0 561.634 288.084 2
6 0 0 637.8 283.137 2
-6 6 0 495.188 249.219 1
0 -6 0 796.343 340.773 4
-6 0 0 1727.87 520.708 2
0 6 0 1332.67 409.553 3
6 -6 0 333.785 194.418 1
6 -6 -3 9500.1 953.216 1
6 -6 -3 7735.18 775.194 4
-6 6 3 8374.44 858.76 1
0 -6 3 8289.28 945.974 3
-6 6 3 8038.72 782.604 4
-6 6 3 8706.1 905.214 2
0 6 -3 8318.36 888.912 3
6 0 3 7972.05 979.279 2
0 -6 3 7539.97 906.827 4
6 0 3 7774.47 856.932 1
-6 0 -3 7775.18 878.955 1
-6 0 -3 7933.69 1034.33 2
-6 0 -6 1181.22 553.889 2
-6 0 -6 2586.3 562.896 1
6 -6 -6 2676.73 477.826 1
0 -6 6 1926.78 466.86 3
6 0 6 2424.55 528.355 1
6 0 6 1990.3 632.207 2
6 0 9 7511.43 1124.22 1
0 -6 9 8783.8 1097.53 3
-6 0 -9 8169.62 1137.83 1
-6 0 -12 -15.055 295.34 1
6 0 12 -521.533 681.987 2
6 0 12 -163.961 283.16 1
0 -6 12 48.2694 167.215 3
6 0 15 494.712 475.974 2
0 6 -15 154.976 80.0604 1
0 -6 15 188.086 81.8405 3
-6 0 -15 321.368 190.522 1
0 -6 18 569.534 243.66 3
6 0 18 146.387 554.216 2
0 6 -18 111.484 468.572 1
-6 0 -18 705.879 415.398 1
1 -7 -16 846.058 366.252 1
-7 6 -16 606.475 501.647 1
6 -7 16 -301.43 526.846 2
1 -7 -13 259.13 162.948 1
-7 6 -13 177.197 82.6403 3
-7 6 -13 228.813 260.578 1
1 6 10 1068.31 253.387 3
1 -7 -10 1545.83 349.814 1
-7 6 -10 1819.33 423.577 3
-7 6 -10 2118.26 686.778 1
6 -7 10 1776.6 607.233 1
-7 6 -7 933.64 409.687 1
1 6 7 368.389 133.657 3
6 -7 7 568.174 378.282 1
6 -7 4 -112.414 249.072 1
-7 6 -4 197.077 143.882 2
1 6 4 274.973 207.611 3
-7 6 -4 474.366 362.368 1
6 -7 4 402.313 331.03 2
1 -7 -4 238.217 213.144 3
6 -7 1 2586.69 597.71 2
-7 1 1 2972.26 554.771 1
6 -7 1 2869.23 591.467 1
-7 1 1 3564.72 708.136 2
1 -7 -1 3137.82 554.016 3
1 -7 -1 3025.52 661.279 4
1 6 1 3359.45 570.787 3
-7 6 -1 3026.09 666.605 2
1 6 1 3488.1 681.321 4
6 1 -1 3265.82 557.803 1
-7 6 -1 3229.92 635.228 1
-7 1 -2 38174.1 2296.96 2
6 -7 -2 40360.5 1987.88 1
-7 6 2 45782.2 2315.11 2
-7 6 2 36786.8 1989.13 1
-7 1 -2 33683.9 2013.45 1
6 -7 -2 35252.8 1981.42 2
6 1 2 30340.2 1904.93 2
1 6 -2 41271.4 2121.66 3
6 -7 -2 35773.7 1835 4
1 -7 2 30240.8 1879.69 4
1 -7 2 34141.4 1948.23 3
1 6 -2 43101.7 2086.95 4
6 1 2 33171.6 1736.36 1
6 1 5 3114.52 776.109 2
-7 6 5 4999.5 671.099 4
-7 6 5 3920.29 637.618 1
-7 1 -5 3703.36 717.889 1
6 -7 -5 4793.61 657.306 1
-7 1 -5 3546.19 868.646 2
1 -7 5 3982.28 705.916 3
6 1 5 3598.8 602.561 1
-7 1 -8 1984.84 653.389 2
6 -7 -8 4703.34 663.135 1
6 1 8 3484.29 946.845 2
-7 1 -8 4666.08 882.2 1
6 1 8 4028.86 783.351 1
1 -7 8 4656.58 783.089 3
1 -7 11 1528.2 451.497 3
6 1 11 203.59 421.493 2
-7 1 -11 1047.53 450.699 1
6 1 11 956.229 365.756 1
6 1 14 129.573 179.471 2
-7 1 -14 527.061 444.63 1
1 -7 14 379.551 289.104 3
1 6 -17 590.851 557.279 1
-7 1 -17 51.5295 241.215 1
1 -7 17 32.6023 140.15 3
6 1 17 -175.77 302.192 2
-8 6 -17 245.887 211.502 1
2 6 17 220.394 345.537 2
2 -8 -17 -307.274 328.53 1
-8 6 -14 197.6 196.661 1
2 -8 -14 551.41 219.944 1
-8 6 -14 445.42 202.008 3
-8 6 -11 2161.65 708.462 1
2 6 11 137.099 234.125 2
-8 6 -11 1829.3 388.888 3
6 -8 11 -611.721 569.281 2
6 -8 8 3506.3 846.136 1
-8 6 -8 4477.02 1018.37 1
2 -8 -8 4020.19 433.274 1
-8 6 -5 15876.3 1711.18 1
6 -8 5 14814.3 1684.87 1
-8 6 -5 15379.5 2090.34 2
2 6 5 15334.2 1114.38 2
2 6 5 14912.5 1290.89 3
2 -8 -2 783.417 293.291 3
-8 2 2 1178.09 345.99 1
6 -8 2 681.934 344.695 1
-8 6 -2 800.706 339.597 2
-8 2 2 1914.11 565.977 2
6 2 -2 1780.21 370.76 4
2 6 2 1366.51 405.205 3
2 -8 -2 783.149 222.941 1
6 -8 2 511.219 421.3 2
2 -8 -2 879.841 378.939 4
-8 6 -2 878.449 373.346 1
6 2 1 6167.01 868.642 2
2 -8 1 5820.77 857.796 4
-8 6 1 6499.45 918.1 1
2 -8 1 5785.96 833.211 3
6 -8 -1 6498.21 808.023 1
-8 2 -1 7657.05 1000.36 1
6 -8 -1 6287.3 773.768 2
6 2 1 6181.82 758.776 1
-8 6 1 8050.77 1083.22 2
6 -8 -1 6386.92 838.805 4
2 6 -1 7373.68 956.292 4
2 -8 1 5123.43 696.149 1
-8 2 -1 6738.25 980.928 2
6 -8 -4 2431.78 572.685 4
-8 6 4 3651.82 651.833 1
-8 2 -4 2197.24 605.298 1
-8 6 4 3749.64 473.524 4
6 2 4 2020.24 452.888 1
2 -8 4 2202.77 510.447 3
-8 2 -4 1916.32 622.302 2
6 -8 -4 3089.31 566.937 1
-8 6 4 4471.63 850.559 2
6 2 4 1972.06 524.155 2
6 2 7 653.12 296.774 1
2 -8 7 660.864 318.451 3
-8 2 -7 742.722 310.31 1
-8 6 7 447.151 175.881 4
6 2 7 749.356 326.041 2
6 -8 -7 526.56 213.493 1
-8 2 -7 483.477 297.174 2
6 2 10 81.9806 164.77 2
2 -8 10 1673.53 500.389 3
6 2 10 903.964 331.459 1
6 -8 -10 1894.54 432.656 1
-8 2 -10 987.431 456.444 1
2 -8 13 747.948 317.035 3
-8 2 -13 1038.38 534.971 1
6 2 13 -102.759 230.36 2
6 2 16 279.997 80.26 2
-8 2 -16 -30.1361 93.5716 1
-9 6 -15 319.749 188.57 3
-9 6 -15 152.256 194.528 1
3 6 15 -23.4956 193.927 2
3 6 12 -232.712 390.297 2
-9 6 -12 57.4241 221.17 1
-9 6 -9 3392.22 914.705 1
6 -9 9 2839.78 796.25 1
3 6 9 1554.29 618.975 2
3 -9 -9 3385.15 470.769 1
3 6 6 2339.3 522.764 2
-9 6 -6 1937.97 880.495 2
-9 6 -6 3726.71 887.708 1
6 -9 6 3491.58 858.872 1
-9 3 3 4304.48 879.107 2
3 6 3 3148.59 484.901 2
6 -9 3 2340.81 689.14 1
-9 6 -3 2001.73 692.021 2
3 -9 -3 2043.47 695.745 4
3 -9 -3 3023.37 449.939 1
6 -9 3 1693.56 677.244 2
6 3 -3 3266.53 515.535 4
-9 6 -3 2019.45 569.311 1
-9 3 3 3222.66 681.723 1
3 6 3 2609.1 373.243 1
3 6 0 6819.01 1025.61 4
-9 6 0 7593.71 1081.16 2
6 -9 0 7515.3 964.807 1
-9 3 0 8352.52 1182.44 2
-9 3 0 7395.97 1010.93 1
6 -9 0 6230.88 905.68 2
6 -9 0 6988.87 969.374 4
3 -9 0 6582.93 801.061 1
3 -9 0 4373.65 707.933 2
3 -9 0 6271.89 923.215 4
-9 6 0 6422.45 990.335 1
3 -9 0 7269.2 978.119 3
6 3 0 7696.47 891.763 1
-9 3 -3 904.384 375.5 2
6 3 3 744.031 335.757 2
-9 6 3 892.254 347.618 1
6 3 3 807.777 284.918 1
3 -9 3 768.152 323.321 1
3 -9 3 900.307 431.653 4
6 -9 -3 358.193 235.039 4
6 -9 -3 868.548 341.014 2
-9 6 3 802.217 356.553 2
3 -9 3 782.829 343.638 3
3 6 -3 478.946 249.862 4
6 -9 -3 565.138 257.364 1
-9 3 -3 783.273 328.195 1
6 -9 -6 2402.12 468.608 1
6 3 6 1835.84 540.957 2
-9 3 -6 2693.47 817.26 2
-9 6 6 2085.25 379.095 4
-9 6 6 1753.54 508.412 1
3 -9 6 2039.36 510.638 3
6 3 6 1495.59 370.342 1
-9 3 -6 1917.99 595.908 1
6 -9 -9 1906.78 444.129 1
-9 3 -9 1310 542.154 1
-9 3 -9 -55.6813 406.035 2
6 3 9 1536.82 456.081 1
3 -9 9 2317.62 611.321 3
6 3 9 329.31 299.868 2
3 -9 12 1714.04 542.495 3
6 3 12 1189.96 445.673 1
-9 3 -12 964.708 513.088 1
6 3 12 866.541 527.308 2
6 -9 -12 1060.16 356.105 1
6 3 15 238.639 335.608 2
-9 3 -15 -90.6814 267.365 1
3 -9 15 393.451 318.435 3
4 6 16 -510.147 573.284 2
-10 6 -16 229.538 355.568 1
-10 6 -16 134.917 84.8737 3
-10 6 -13 1761.39 716.837 1
4 6 13 1.90201 349.73 2
-10 6 -10 1817.83 665.185 1
4 -10 -10 1585.65 354.027 1
4 6 10 1132.44 417.221 2
4 6 10 823.607 261.804 1
4 -10 -7 1898.04 332.793 1
-10 6 -7 2300.01 697.787 1
-10 6 -7 913.292 710.43 2
6 -10 7 1947.06 680.238 1
4 6 7 1949.57 386.739 1
4 6 7 1254.41 483.862 2
6 -10 4 3749.16 846.285 1
-10 6 -4 4794.25 1128.98 2
6 4 -4 3535.76 592.386 4
-10 6 -4 4992.6 949.999 1
6 -10 4 1948.88 841.731 2
4 6 4 3753.26 595.882 2
4 -10 -4 4635.89 540.138 1
-10 4 4 2994.09 708.945 1
4 6 4 3111.67 436.017 1
4 -10 -1 31096.5 2228.41 3
4 -10 -1 26890.9 2075.92 4
6 -10 1 34622.9 2466.74 2
-10 6 -1 33613.4 2345.06 1
4 -10 -1 32317.6 1822.8 2
-10 4 1 35737 2362.9 1
4 -10 -1 29830.6 1793.75 1
-10 4 1 36041.3 2563.54 2
6 -10 1 32148.9 2508.34 4
-10 6 -1 37014.4 2560.46 2
6 -10 1 33484.6 2318.99 1
-10 4 -2 5901.4 1062 2
6 4 2 5840.37 836.529 2
-10 4 -2 5658.94 947.586 1
4 -10 2 5545.15 876.546 1
6 -10 -2 5106 859.319 4
6 -10 -2 5893.43 769.767 1
4 -10 2 6037.87 1011.05 4
4 6 -2 6117.05 890.407 4
6 4 2 5525.04 734.868 1
4 -10 2 6195.52 968.06 3
-10 6 2 5435.64 984.84 2
-10 6 2 5568.86 924.664 1
6 -10 -2 4631.58 662.745 2
4 -10 2 5158.63 886.672 2
6 -10 -5 7398.66 833.673 1
-10 4 -5 6462.87 1079.31 1
6 4 5 6085.18 757.971 1
-10 6 5 5618 903.501 1
6 4 5 6773.95 982.971 2
-10 4 -5 6150.5 1320.55 2
4 -10 5 5369.82 999.582 1
4 -10 5 6293.15 1000.4 3
6 4 8 2432.46 706.162 2
-10 4 -8 3323.65 868.102 1
-10 4 -8 811.337 756.693 2
6 -10 -8 3599.25 596.732 1
6 4 8 2766.81 602.735 1
-10 6 8 2337.86 439.42 4
4 -10 8 2462.52 623.608 3
-10 4 -11 505.69 256.825 1
6 4 11 108.567 188.291 2
6 4 11 273.285 136.078 1
6 -10 -11 795.923 319.925 1
-10 4 -14 1066.75 459.975 1
6 -10 -14 1024.81 458.798 1
6 4 14 -249.146 461.589 2
4 -10 14 1454.73 520.781 3
-10 4 -17 224.57 192.718 1
6 4 17 703.944 541.287 2
5 6 17 -24.561 189.482 2
-11 6 -17 155.232 91.9131 3
5 -11 -14 532.801 331.958 1
-11 6 -14 51.9703 189.185 1
5 6 14 -238.559 334.143 2
5 6 11 644.725 214.933 1
5 6 11 210.928 180.554 2
5 -11 -11 436.677 141.907 1
-11 6 -11 578.422 379.517 1
-11 6 -8 8827.87 1855.54 2
5 6 8 9865.53 1006.67 1
-11 6 -8 10627.9 1598.83 1
5 6 8 8121.39 1224.82 2
6 -11 8 10408.6 1569.76 1
5 -11 -8 10906.6 900.128 1
6 5 -5 2449.58 481.697 4
-11 6 -5 3764.9 1021.4 2
6 -11 5 724.993 437.071 2
-11 6 -5 2576.46 695.41 1
6 -11 5 2411.05 702.106 1
5 6 5 2628.76 560.222 2
-11 5 5 2153.54 595.464 1
5 -11 -5 2716.6 451.019 1
5 6 5 2251.87 396.442 1
5 6 2 4510.29 665.796 1
6 5 -2 4623.08 846.206 4
6 -11 2 3395.49 968.14 4
5 -11 -2 2208.44 418.971 2
6 -11 2 2764.7 671.32 1
-11 5 2 4301.86 926.802 1
5 -11 -2 3187.35 765.799 4
-11 6 -2 4429.51 962.792 2
5 -11 -2 3214.57 602.883 1
-11 6 -2 4127 885.435 1
-11 5 2 4363.38 1010.02 2
6 -11 2 2080.15 802.33 2
-11 6 1 5479.81 1009.96 1
-11 5 -1 5499.96 989.639 1
-11 5 -1 5804.84 1060.33 2
5 -11 1 4497.58 873.072 4
6 -11 -1 4205.8 811.97 4
6 -11 -1 5786.64 823.564 2
6 5 1 5599.52 787.294 1
6 -11 -1 6503.22 895.57 1
5 6 -1 5897.03 989.763 4
5 -11 1 4129.79 998.108 2
-11 6 1 6482.73 1101.58 2
5 -11 1 5329.43 869.763 1
-11 5 -4 10311 1395.14 1
-11 6 4 14815.7 1749.88 2
-11 5 -4 11669.7 1710.73 2
5 6 -4 12189.3 1224.71 4
6 5 4 10908.1 1012.56 1
6 -11 -4 10351.1 1012.33 1
5 -11 4 11099.3 1382.7 3
-11 6 4 12301.7 1426.62 1
5 -11 4 10192.9 1348.75 1
6 5 4 10742.1 1232.91 2
5 -11 4 6948.9 1373.84 2
6 -11 -4 9348.1 1367.73 4
6 -11 -7 616.448 221.886 1
6 5 7 561.617 216.659 1
-11 5 -7 2.04972 340.643 2
5 -11 7 656.24 383.846 1
-11 5 -7 484.229 318.005 1
6 5 7 421.476 146.507 2
5 -11 7 960.336 381.941 3
5 -11 10 2673.29 668.055 3
-11 5 -10 2586.06 756.65 1
6 5 10 1564.72 379.984 1
6 -11 -10 2741.81 549.394 1
6 5 10 875.277 458.337 2
6 -11 -13 1296.47 419.774 1
-11 5 -13 1674.69 654.438 1
6 5 13 401.027 259.298 2
-11 5 -16 236.464 150.559 3
6 5 16 474.062 437.484 2
6 -11 -16 332.404 270.111 1
-11 5 -16 435.22 363.53 1
6 -12 0 2024.43 583.001 4
-12 6 0 2805.33 744.14 2
6 -12 0 1738.98 436.359 1
-12 6 0 2359.63 656.699 1
6 -12 0 1955.14 523.348 2
-12 6 -3 4605.99 935.422 1
6 -12 3 3374.63 781.742 1
-12 6 3 5146.71 1135.48 2
6 -12 3 2661.71 879.667 2
6 6 3 3771.6 711.91 2
6 6 3 4302.34 678.34 1
6 -12 -3 2890 761.342 4
6 -12 -3 3798.25 634.853 1
6 -12 -3 1785.14 405.504 2
-12 6 -3 6112.54 1174.34 2
6 6 -3 5140.16 836.871 4
-12 6 3 4460.15 938.901 1
-12 6 -6 7738.3 1583.5 2
-12 6 -6 6914.52 1272.02 1
6 -12 6 8014.69 1373.58 1
-12 6 6 5563.62 1003.89 1
6 6 6 5738.19 934.309 2
6 -12 -6 6973.22 788.103 1
6 6 6 5928.93 750.675 1
-12 6 -9 1239.65 427.239 1
6 -12 -9 1853.6 401.668 1
6 6 9 1275.88 362.737 1
6 6 9 1025.36 470.99 2
6 6 12 949.924 542.678 2
-12 6 -12 2540.13 856.628 1
6 6 12 1673.9 468.834 1
6 -12 -12 2131.81 554.614 1
-12 6 -15 -171.592 368.352 1
6 -12 -15 688.799 471.026 1
6 6 15 441.925 412.343 2
-4 7 -17 291.207 408.395 1
-3 7 17 368.49 206.786 3
-3 -4 -17 319.493 262.017 1
-3 -4 -14 243.126 176.652 1
-4 7 -14 414.747 256.57 1
-3 7 14 441.644 203.067 3
7 -4 14 650.25 432.819 2
-4 7 -11 251.37 140.873 3
7 -4 11 -225.685 355.789 1
7 -4 11 152.986 359.113 2
-4 7 -11 528.621 335.923 1
-3 -4 -11 226.031 160.573 1
-3 -4 -8 378.868 160.167 3
-4 7 -8 529.753 169.1 3
7 -4 8 588.5 370.697 1
-4 7 -8 506.902 339.039 1
-3 -4 -8 510.956 210.051 1
-4 7 -5 11185.7 1136.36 3
-3 -4 -5 8936.14 851.209 3
-3 -4 -5 8129.22 1056.27 2
7 -4 5 9739.54 1571.81 2
7 -3 -5 8765.13 945.481 1
-4 7 -5 10401.6 1265.21 1
7 -4 5 9175.72 1234.86 1
-3 -4 -5 8345.95 671.789 1
-4 -3 5 8443.24 834.958 4
-3 -4 -2 3016.07 489.292 2
7 -4 2 3180.78 671.976 2
-4 7 -2 2804.84 559.187 3
-3 7 2 3176.74 606.049 3
-3 7 2 2764.31 401.796 1
-4 -3 2 2786.6 514.323 4
7 -4 2 3005.05 605.662 1
7 -3 -2 3464.88 612.459 1
-3 7 2 3661.72 690.693 4
-4 7 -2 2901.57 596.636 1
7 -4 -1 711.042 277.978 1
-4 7 1 811.14 262.149 4
-4 7 1 880.698 224.051 2
-4 7 1 863.997 236.298 1
-3 -4 1 918.843 321.115 4
-3 7 -1 763.023 269.353 1
7 -3 1 566.041 236.26 1
-3 7 -1 469.339 208.094 3
7 -4 -1 418.531 197.546 2
7 -3 1 491.451 117.099 2
-4 -3 -1 640.707 253.051 2
-3 7 -4 2541.68 513.873 3
7 -3 4 1719.94 475.91 1
-4 7 4 2798.63 669.794 4
-4 7 4 2305.03 359.045 1
7 -3 4 2433.19 797.539 2
-3 -4 4 2203.48 452.068 4
-4 -3 -4 2249 565.855 2
-4 -3 -4 2238.41 393.853 1
-3 7 -4 2438.11 589.543 1
7 -4 -4 2894.08 592.317 1
-4 -3 -7 1586.76 315.686 3
-4 -3 -7 1464.24 321.354 1
7 -3 7 1936.91 762.038 2
-3 7 -7 1940.99 426.491 3
7 -4 -7 2147.9 514.038 1
-3 7 -7 1533.14 503.097 1
7 -3 7 2133.44 627.299 1
-4 -3 -10 1822.37 503.038 1
7 -3 10 1541.93 604.53 1
-4 -3 -10 1391.68 297.686 3
7 -3 10 206.211 353.367 2
-3 7 -10 1444.32 574.931 1
-3 7 -10 1295.68 440.143 3
-3 7 -13 433.029 262.377 1
7 -3 13 212.502 458.335 2
7 -3 13 710.093 430.229 1
-4 -3 -13 699.887 370.35 1
-4 -3 -16 667.366 351.983 1
7 -3 16 488.013 415.769 2
-3 -4 16 649.849 319.261 3
-3 7 -16 1247.6 673.114 1
7 -5 18 101.532 193.121 2
-2 -5 -18 475.812 437.023 1
-2 7 18 146.454 143.352 3
-5 7 -18 53.3548 123.006 1
-2 -5 -15 2.77155 36.0522 1
7 -5 15 -226.711 468.004 2
-5 7 -15 219.257 262.835 1
-2 7 15 -55.4854 116.675 3
-5 7 -12 376.838 349.463 1
-2 7 12 133.824 27.718 3
-5 7 -12 515.493 216.056 3
7 -5 12 189.932 215.579 1
-2 -5 -12 370.288 186.042 1
-2 7 9 3987.87 633.018 3
-5 7 -9 5035.71 1076.25 1
7 -5 9 4457.83 1020.76 1
-2 -5 -9 4965.39 680.493 1
-5 7 -9 4333.79 657.603 3
-2 -5 -9 4472.53 615.671 3
-5 7 -6 578.844 223.244 3
-2 -5 -6 799.606 263.418 3
7 -5 6 410.004 550.887 2
7 -5 6 839.293 429.339 1
-2 7 6 678.963 208.966 3
-5 7 -6 944.783 401.655 1
-2 7 3 9601.53 1189.92 4
-5 7 -3 5538.27 1125.14 2
7 -5 3 7607.97 1022.68 1
-2 -5 -3 12302.1 887.144 2
7 -5 3 7528.72 1184.41 2
-2 -5 -3 9755.81 921.165 3
-5 7 -3 12029.2 1357.76 1
-5 -2 3 10138.4 894.152 4
-2 7 3 10073.9 1070.54 3
7 -2 -3 10030.1 1016.94 1
7 -2 0 477.457 222.258 2
7 -2 0 198.844 178.62 1
-2 7 0 247.466 247.284 3
-2 -5 0 -2.39004 83.1625 4
-5 -2 0 369.559 186.572 2
-5 7 0 5.63953 27.3772 1
-2 7 0 451.943 215.001 4
-2 7 0 247.112 191.07 1
7 -5 0 93.6065 110.937 1
-5 7 0 31.5532 61.8325 2
-5 -2 0 311.046 160.07 1
-2 -5 0 31.2276 90.0324 3
7 -5 0 116.499 65.546 2
7 -2 3 3117.22 675.041 2
-2 7 -3 2596.62 523.541 1
-5 -2 -3 3241.65 577.637 2
-5 7 3 3012.18 575.548 4
7 -2 3 3175.2 588.036 1
-5 7 3 1964.91 396.447 2
-2 7 -3 3389.18 592.248 3
7 -5 -3 3104.78 572.964 1
-5 -2 -3 2876.72 465.517 1
-5 7 3 2855.81 450.911 1
7 -5 -3 2964.52 386.46 4
-2 -5 3 2885.42 529.539 4
7 -2 6 5072.17 906.191 1
7 -5 -6 4680.29 693.337 1
7 -2 6 3763.34 1049.15 2
-5 -2 -6 4306.52 616.026 1
-5 -2 -6 3208.04 782.763 2
-2 7 -6 5314.75 723.279 3
-2 7 -6 5810.8 965.597 1
-2 7 -9 1014.02 498.489 1
-5 -2 -9 942.277 375.86 1
-5 -2 -9 412.628 110.302 3
7 -2 9 207.717 398.261 2
7 -2 9 649.485 274.151 1
-5 -2 -12 261.132 248.29 1
-2 7 -12 -85.581 356.532 1
-2 -5 12 408.267 299.679 3
7 -2 12 198.16 82.5762 1
7 -2 12 -136.842 492.014 2
-5 -2 -15 1103.88 472.714 1
7 -2 15 13.7217 522.047 2
-2 -5 15 791.56 338.886 3
-2 7 -15 839.168 587.66 1
-2 -5 18 585.872 394.178 3
-2 7 -18 147.865 64.6089 1
7 -2 18 207.889 555.017 2
-5 -2 -18 461.731 373.08 1
-1 -6 -16 1063.03 421.246 1
-1 7 16 832.997 269.362 3
-6 7 -16 1308.25 638.198 1
-6 7 -13 226.042 105.158 3
7 -6 13 113.367 460.691 2
-1 -6 -13 60.254 106.29 1
-1 7 13 148.932 120.057 3
-6 7 -13 25.804 80.7467 1
-6 7 -10 1372.37 345 3
7 -6 10 554.677 491.598 2
-1 7 10 1426.34 339.945 3
-6 7 -10 1551.92 624.339 1
7 -6 10 2041.02 703.014 1
-1 -6 -10 1494.9 352.443 1
7 -6 7 665.932 354.338 1
-6 7 -7 1173.79 494.117 1
-1 7 7 709.748 241 3
-6 7 -7 1109.85 381.281 3
7 -6 7 324.707 430.48 2
-1 -6 -7 1108.87 342.555 3
-6 7 -4 -215.042 210.48 1
7 -6 4 378.357 198.681 1
7 -6 4 436.532 393.474 2
-1 -6 -4 318.82 172.563 3
-1 7 4 455.707 260.253 3
-6 7 -4 337.805 272.719 2
-1 7 1 4086.31 673.92 3
7 -1 -1 4005.42 663.251 1
-6 -1 1 2637.56 493.015 1
7 -6 1 3502.67 672.007 1
-6 7 -1 3616.21 657.12 1
-1 -6 -1 3357.78 596.069 3
-1 7 1 2941.56 406.669 1
-1 7 1 3842.93 696.211 4
7 -1 -1 3730.85 667.589 2
7 -6 1 3243.66 635.762 2
-6 -1 1 4172.63 753.704 2
-6 7 -1 3898.38 775.82 2
-6 7 2 38929.5 1891.56 2
-1 -6 2 32105.5 1944.9 4
7 -6 -2 40567 2191.87 1
-6 7 2 41312.7 1892.89 4
7 -6 -2 40394.2 2246.35 2
7 -1 2 29790.2 1833.37 1
-1 7 -2 40449.7 2046.79 3
-6 -1 -2 34324.8 1804.71 1
-6 -1 -2 38754.2 2255.11 2
-1 7 -2 46086.4 2263.82 4
-6 7 2 38368.3 1906.3 1
7 -6 -2 36198.1 1679.83 4
7 -1 2 34492.9 2125.21 2
-1 -6 2 33728.9 1985 3
-1 7 -2 44271.5 2149.03 1
-6 7 5 3904.57 567.571 1
7 -1 5 3422.05 667.466 1
7 -1 5 3310.87 880.075 2
-1 -6 5 3917.97 713.143 3
-1 7 -5 4316.06 664.219 3
-6 -1 -5 3735.52 625.485 1
-6 7 5 4244.92 729.815 4
-6 -1 -5 3644.29 830.506 2
7 -6 -5 3977.66 656.11 1
7 -1 8 4022.62 849.65 1
7 -1 8 4588.72 1151.88 2
7 -6 -8 4550.58 700.639 1
-6 -1 -8 4106.05 742.544 1
-1 7 -8 5540.15 1127.17 1
-6 -1 -8 1384.95 474.407 2
-1 -6 8 4120.19 723.398 3
7 -1 11 -72.7762 376.762 2
-6 -1 -11 1007.91 359.16 1
-1 -6 11 1396.76 433.98 3
-6 -1 -11 834.943 211.875 3
7 -1 11 791.148 369.893 1
-1 7 -11 1562.51 647.581 1
-1 7 -14 194.388 208.695 1
-1 -6 14 558.143 270.26 3
7 -1 14 -40.6674 156.59 2
-6 -1 -14 466.997 234.207 1
-6 -1 -17 285.542 340.367 1
-1 -6 17 247.21 266.909 3
7 -1 17 183.104 394.112 2
-1 7 -17 338.828 270.181 1
0 -7 -17 54.0603 35.172 1
-7 7 -17 368.061 302.318 1
0 7 14 175.567 107.496 3
-7 7 -14 264.137 144.162 3
-7 7 -14 224.512 151.355 1
0 -7 -14 227.193 219.993 1
7 -7 14 -48.9533 304.889 2
0 -7 -11 68.9802 113.623 1
-7 7 -11 -159.704 249.795 3
-7 7 -11 -492.045 409.995 1
7 -7 11 -30.6286 311.072 2
0 7 11 35.7882 60.0625 3
0 -7 -8 6550.54 584.519 1
-7 7 -8 7328.2 1370.37 1
7 -7 8 5349.36 1096.75 1
0 7 8 4967.01 703.739 3
7 -7 5 44096.6 2999.23 1
0 7 5 41705.6 2108.36 3
-7 7 -5 45733.4 2974.41 1
0 -7 -5 45346.6 2196.37 3
0 7 2 5493.72 932.648 4
7 -7 2 3508.38 858.841 2
0 -7 -2 5062.83 791.887 3
-7 0 2 6351.53 819.785 1
-7 7 -2 5381.88 1030.71 2
-7 7 -2 4156.05 784.05 1
7 0 -2 8790.82 983.387 1
0 7 2 7078.09 904.385 3
7 -7 2 3228.62 751.61 1
-7 7 1 48427.9 2342.18 1
0 7 -1 55542.3 2516.43 4
0 -7 1 44395.6 2276.67 3
7 0 1 44123.8 2402.57 2
-7 0 -1 47369.8 2266.46 1
-7 7 1 52219.5 2419.93 2
7 -7 -1 41583.4 2334.31 2
7 0 1 50461.3 2330.58 1
7 -7 -1 50516.2 2402.1 1
0 7 -1 54289.9 2421.41 3
0 -7 1 44358 2433.14 4
-7 0 -1 51811.1 2671.18 2
-7 0 -4 4114.7 912.35 2
-7 0 -4 3878.37 718.344 1
0 7 -4 8474.46 1026.18 3
-7 7 4 7373.3 911.892 1
7 0 4 3117.84 595.608 1
7 -7 -4 5908.12 809.973 4
7 -7 -4 7195.92 986.468 1
-7 7 4 9312.55 1116.16 2
7 0 4 4982.05 939.039 2
-7 7 4 7798.44 883.838 4
0 -7 4 3794.95 758.113 3
0 -7 4 3418.88 773.122 4
0 -7 7 204.188 126.115 3
-7 0 -7 334.534 201.2 1
7 -7 -7 808.234 276.816 1
-7 0 -7 343.526 354.178 2
7 0 7 584.311 330.848 1
7 0 7 -30.2708 50.6238 2
0 -7 10 1143.69 481.624 3
-7 0 -10 904.225 393.157 1
7 0 10 651.542 358.983 1
7 0 10 629.521 401.57 2
7 -7 -10 1334.36 429.576 1
-7 0 -13 369.728 362.283 1
7 0 13 -252.876 516.72 2
7 0 13 428.161 329.519 1
0 7 -13 45.1769 167.567 1
0 -7 13 662.08 323.406 3
-7 0 -16 357.324 235.666 1
0 -7 16 42.3177 204.801 3
7 0 16 322.359 431.325 2
0 7 -16 734.757 543.773 1
1 -8 -15 -193.763 258.044 1
-8 7 -15 452.394 254.473 1
-8 7 -15 392.294 190.733 3
7 -8 15 -378.87 149.308 2
1 7 12 214.381 205.424 3
7 -8 12 -312.965 420.796 2
1 7 12 -33.5048 156.117 2
-8 7 -12 413.047 190.741 3
1 -8 -12 346.397 159.298 1
-8 7 -12 702.768 455.413 1
7 -8 9 1365.52 583.007 1
1 7 9 337.461 296.015 2
-8 7 -9 1982.4 788.15 1
1 7 9 769.371 262.056 3
1 -8 -9 1740.1 309.61 1
7 -8 9 31.1408 433.331 2
1 7 6 1129.17 363.896 3
7 -8 6 1068.4 471.251 1
-8 7 -6 1373.8 565.335 1
1 -8 -6 2759.96 614.484 3
7 -8 6 1198.68 726.026 2
-8 7 -6 371.851 502.223 2
1 7 6 1259.17 417.261 2
1 -8 -3 236.401 201.007 3
7 1 -3 243.12 180.384 1
-8 7 -3 111.41 161.875 2
-8 7 -3 569.405 344.486 1
7 1 -3 359.715 145.074 4
1 7 3 368.522 194.504 3
7 -8 3 354.99 97.6429 2
7 -8 3 131.597 170.814 1
-8 1 0 1818.4 499.52 1
7 -8 0 1412.49 456.728 2
-8 7 0 1240.28 434.617 1
1 -8 0 1040.76 387.54 3
1 -8 0 1710.04 540.701 4
-8 7 0 1442.76 507.734 2
1 7 0 2302.75 546.188 3
7 1 0 1357.05 450.999 2
1 7 0 3013.86 660.681 4
-8 1 0 1977.44 573.102 2
7 1 0 1889.83 484.053 1
7 -8 0 1728.67 504.414 1
-8 7 3 2409.02 526.057 1
7 1 3 2329.64 582.512 2
1 -8 3 2573.59 580.647 4
7 -8 -3 3516.87 650.901 1
-8 1 -3 3285.97 730.355 2
7 -8 -3 2501.06 556.905 2
7 1 3 2422.21 510.972 1
-8 1 -3 2093.54 550.023 1
7 -8 -3 2516.99 529.904 4
-8 7 3 2424.49 610.309 2
1 7 -3 2815.82 599.207 4
1 -8 3 2186.91 479.808 3
-8 7 6 870.379 305.241 4
7 -8 -6 1375.9 405.61 1
7 1 6 501.437 291.466 2
1 -8 6 945.74 318.937 3
-8 7 6 784.232 284.91 1
7 1 6 676.191 284.188 1
-8 1 -6 1079.21 541.09 2
-8 1 -6 1181.39 439.717 1
1 -8 9 1207.3 446.45 3
7 1 9 1022.56 332.871 1
-8 1 -9 871.051 359.542 1
-8 1 -9 221.475 280.754 2
7 1 9 -130.656 271.327 2
7 -8 -9 1041.76 365.82 1
1 -8 12 687.965 328.201 3
-8 1 -12 -106.234 135.16 1
7 1 12 -50.2176 318.948 1
7 1 12 -560.476 611.76 2
7 1 15 646.857 630.746 2
-8 1 -15 1161.85 589.53 1
1 -8 15 548.007 316.551 3
-9 7 -16 655.942 550.858 1
7 -9 16 49.7566 170.912 2
2 -9 -16 510.025 268.194 1
-9 7 -16 418.941 202.179 3
2 7 16 1.59311 190.383 2
7 -9 13 435.377 452.832 2
-9 7 -13 831.021 373.858 1
2 7 13 132.605 277.449 2
-9 7 -13 1297.44 411.56 3
2 -9 -13 652.822 234.655 1
-9 7 -10 3632.74 1020.16 1
2 7 10 889.419 408.022 2
7 -9 10 2737.2 835.086 1
7 -9 10 -509.727 422.077 2
7 -9 7 542.161 523.8 2
-9 7 -7 351.315 385.407 2
-9 7 -7 2287.94 714.814 1
7 -9 7 2445.13 728.519 1
2 7 7 1363.54 441.22 2
2 7 7 1460.87 398.632 3
2 7 4 32030 1434.08 2
2 7 4 35994 2129.44 3
7 2 -4 31805.3 1456.75 4
7 -9 4 32071.1 2585.92 1
7 -9 4 25797.9 2823.36 2
-9 7 -4 31582 2948.4 2
2 -9 -4 35665.8 2261.19 3
-9 7 -4 31167.8 2407.91 1
2 -9 -1 4686.05 790.683 3
-9 7 -1 5183.18 886.176 1
7 -9 1 4925.9 951.228 2
7 2 -1 4897.67 736.548 1
2 7 1 4680.11 888.48 4
-9 7 -1 5593.58 1001 2
2 -9 -1 4048.89 554.49 1
2 7 1 5588.11 855.425 3
7 -9 1 4915.58 827.652 1
-9 2 1 5649.4 1024.28 2
2 -9 -1 4960.54 918.456 4
-9 2 1 5228.37 866.556 1
-9 7 2 2827.41 654.668 1
-9 2 -2 2619.11 639.887 1
7 -9 -2 2934.49 581.233 4
7 2 2 2683.85 635.233 2
7 -9 -2 3113.64 599.522 1
-9 2 -2 2365.89 653.536 2
2 -9 2 3023.93 668.957 3
7 2 2 2337.73 493.534 1
7 -9 -2 2183.52 568.321 2
-9 7 2 3546.94 733.537 2
2 -9 2 2668.27 588.671 4
2 7 -2 2596.05 598.253 4
-9 7 5 164.276 54.262 1
7 -9 -5 32.7768 64.7827 4
7 2 5 332.656 272.839 2
-9 2 -5 76.2227 48.7185 2
2 -9 5 -91.3478 112.328 3
7 2 5 114.171 101.593 1
7 -9 -5 96.3714 130.554 1
-9 7 5 315.439 187.313 4
-9 2 -5 289.558 213.15 1
7 2 8 2099.25 686.836 2
7 -9 -8 2272.91 497.578 1
-9 2 -8 2732.35 727.551 1
-9 2 -8 1744.37 749.613 2
-9 7 8 2404.51 486.413 4
7 2 8 2617.61 617.493 1
2 -9 8 2551.44 644.234 3
7 2 11 39.7194 247.298 2
7 -9 -11 622.151 257.582 1
7 2 11 696.445 349.316 1
2 -9 11 595.78 301.938 3
-9 2 -11 423.762 311.16 1
2 -9 14 790.782 369.406 3
7 2 14 132.087 308.404 2
7 2 14 425.236 154.872 1
-9 2 -14 259.371 309.571 1
7 2 17 33.71 237.179 2
-9 2 -17 -43.9702 225.763 1
2 -9 17 332.258 272.292 3
3 7 17 36.909 104.396 2
-10 7 -17 567.285 416.347 1
7 -10 17 -354.471 695.003 2
3 -10 -17 11.0961 196.628 1
-10 7 -17 123.187 133.85 3
-10 7 -14 1148.65 590.467 1
3 7 14 -381.097 404.61 2
7 -10 14 -41.259 258.542 2
-10 7 -14 1014.87 361.042 3
-10 7 -11 369.999 211.253 1
7 -10 11 519.628 411.717 2
3 -10 -11 552.509 177.279 1
3 7 11 -267.711 276.772 2
-10 7 -8 1175.51 542.946 1
7 -10 8 1158.54 569.279 1
7 -10 8 -16.968 438.798 2
3 -10 -8 1140.55 243.47 1
3 7 8 592.618 381.862 2
-10 7 -8 216.707 500.987 2
3 7 8 430.446 153.97 1
7 -10 5 4847.64 1008.16 1
-10 7 -5 4583.34 1295.48 2
3 7 5 4099.57 592.482 2
7 -10 5 1147.61 897.347 2
-10 7 -5 5362.37 1055.04 1
7 3 -5 4133.29 580.801 4
-10 7 -2 6837.05 1153.47 2
-10 3 2 7119.91 1087.93 1
-10 3 2 7766.26 1270.62 2
-10 7 -2 6109.64 1042.16 1
3 -10 -2 5081.06 983.274 4
7 -10 2 6676.82 1258.84 2
3 -10 -2 5226.64 653.925 1
7 -10 2 5855.43 1051.45 1
7 3 -2 7261.06 932.363 4
3 -10 -2 6056.54 996.969 3
7 -10 -1 11115.8 1114.01 2
3 -10 1 12937.1 1375.72 3
7 -10 -1 11153.3 1256.07 4
-10 3 -1 15102.3 1645.89 2
3 -10 1 11578.8 1156.78 1
3 -10 1 10939 1288.08 4
-10 3 -1 14261.7 1540.06 1
-10 7 1 12917 1482.19 1
-10 7 1 15004.4 1604.6 2
7 3 1 14056.9 1441.64 2
7 3 1 14881.8 1309.68 1
3 7 -1 13295.8 1436.5 4
7 -10 -1 13142.7 1267.97 1
-10 3 -4 596.011 406.471 2
7 -10 -4 238.424 173.86 1
3 7 -4 590.99 305.316 4
7 -10 -4 960.202 450.819 4
3 -10 4 419.887 210.145 3
7 3 4 647.229 328.267 2
-10 3 -4 268.872 182.19 1
-10 7 4 606.193 360.999 2
-10 7 4 349.254 120.46 1
7 3 4 563.667 257.705 1
3 -10 7 112.821 77.2817 3
7 3 7 175.414 165.065 2
-10 3 -7 772.304 345.208 1
7 -10 -7 884.786 306.467 1
-10 7 7 1067.77 285.339 4
-10 3 -7 -128.042 230.682 2
7 3 7 460.664 228.601 1
-10 3 -10 719.944 374.383 1
7 3 10 608.974 241.262 1
7 3 10 -86.1799 118.522 2
-10 3 -10 245.401 306.039 2
-10 3 -13 111.969 111.582 1
7 3 13 283.436 216.099 1
7 -10 -13 333.29 229.841 1
7 3 13 -164.571 184.494 2
3 -10 13 601.544 351.986 3
3 -10 16 -166.469 206.513 3
-10 3 -16 -169.17 339.847 1
7 3 16 -151.865 187.606 2
7 -11 15 200.784 298.944 2
-11 7 -15 440.691 223.397 3
4 7 15 -325.059 311.634 2
7 -11 12 -22.4548 213.117 2
4 -11 -12 1651.52 426.168 1
4 7 12 660.622 323.164 2
-11 7 -12 1652.35 760.967 1
-11 7 -9 7152.69 1382.74 1
7 -11 9 6085.54 1278.11 1
4 -11 -9 4721.83 543.868 1
4 7 9 5160.23 934.104 2
4 7 9 4473.89 586.152 1
7 -11 9 317.411 572.047 2
4 7 6 1625.79 305.897 1
4 7 6 2332.56 530.3 2
-11 7 -6 2555.37 727.895 1
-11 7 -6 1432.73 681.693 2
4 -11 -6 2521.56 373.796 1
7 -11 6 543.615 573.012 2
7 -11 6 1943.46 669.67 1
4 -11 -3 2184.4 666.808 4
-11 4 3 2243.21 686.839 2
-11 4 3 2201.9 584.425 1
7 4 -3 2923.82 568.945 4
7 -11 3 1486.26 684.472 2
4 7 3 1784.98 367.644 1
-11 7 -3 2809.79 699.92 1
4 7 3 2425.57 480.369 2
7 -11 3 1984.77 587.373 1
-11 7 -3 3497.74 899.786 2
4 -11 -3 2193.25 431.381 1
-11 7 0 5045.65 975.721 1
-11 4 0 4851.56 924.368 1
4 -11 0 3462.04 773.05 4
4 -11 0 4245.11 718.588 1
4 -11 0 4477.24 865.918 3
7 -11 0 4225.21 855.767 2
7 -11 0 4930.49 857.667 1
4 -11 0 3802.32 773.787 2
4 7 0 4759.51 964.134 4
7 -11 0 3964.95 816.254 4
-11 4 0 4898.8 979.561 2
-11 7 0 4498.56 906.151 2
7 4 0 4755.86 788.212 1
4 7 -3 820.619 316.136 4
7 -11 -3 21.3134 107.91 1
-11 7 3 502.651 370.919 2
-11 4 -3 816.107 415.391 1
-11 4 -3 330.404 394.383 2
7 -11 -3 123.349 226.581 2
7 -11 -3 701.015 347.755 4
7 4 3 -173.179 143.785 2
4 -11 3 470.793 170.999 1
4 -11 3 119.588 181.254 3
4 -11 3 472.335 191.296 4
-11 7 3 592.843 329.983 1
7 4 3 394.082 257.259 1
4 -11 6 1415.76 485.573 3
-11 4 -6 689.154 354.665 1
7 4 6 1161.63 358.732 1
7 4 6 1030.32 384.992 2
7 -11 -6 1095.99 332.665 1
-11 4 -6 1336.17 629.962 2
-11 7 6 1068.33 408.344 1
4 -11 9 7877.37 1196.01 3
-11 4 -9 8566.89 1405.85 1
7 -11 -9 9296.15 1066.97 1
7 4 9 7238.59 1267.97 2
-11 7 9 7888.95 912.236 4
-11 4 -9 4995.53 1641.16 2
7 4 9 8580.66 1153.88 1
7 4 12 -101.717 233.113 1
7 4 12 -131.068 166.172 2
7 -11 -12 547.16 273.573 1
-11 4 -12 411.344 307.498 1
4 -11 12 527.731 385.287 3
4 -11 15 481.853 288.734 3
-11 4 -15 152.393 182.699 1
7 -11 -15 405.436 397.572 1
7 4 15 174.098 353.731 2
5 7 16 222.819 192.121 2
-12 7 -16 773.769 535.708 1
-12 7 -16 413.108 225.016 3
5 -12 -16 677.083 511.637 1
-12 7 -13 2612.89 980.531 1
5 7 13 543.707 393.075 2
5 -12 -13 2513.6 633.997 1
5 -12 -10 2856.82 463.987 1
5 7 10 2522.35 500.61 1
5 7 10 2869.19 737.879 2
-12 7 -10 3109.38 901.629 1
7 -12 7 68.6707 141.186 2
5 7 7 1523.27 466.205 2
-12 7 -7 2273.99 699.355 1
5 -12 -7 1994.23 367.958 1
-12 7 -7 931.982 551.324 2
5 7 7 1481.21 335.515 1
7 -12 7 1681.77 572.705 1
5 7 4 591.862 233.248 1
7 -12 4 625.01 429.725 1
5 -12 -4 115.582 227.623 4
-12 5 4 875.874 412.194 1
-12 7 -4 1662.81 658.872 2
5 7 4 424.197 235.712 2
-12 7 -4 685.528 350.843 1
5 -12 -4 558.213 246.337 1
7 5 -4 1178.9 376.043 4
-12 5 4 1430.73 619.01 2
7 -12 4 207.589 373.879 2
7 5 -1 4664.35 897.31 4
7 -12 1 3191.42 797.856 4
5 -12 -1 4124.98 720.567 1
7 -12 1 3779.35 796.41 1
5 -12 -1 2603.84 674.432 4
-12 7 -1 4398.62 912.295 1
7 -12 1 3848.82 914.713 2
-12 7 -1 4988.5 992.729 2
-12 5 1 4173.3 877.446 1
-12 5 1 4262.19 933.41 2
5 -12 -1 3839.1 662.648 2
5 7 -2 600.171 270.69 4
5 -12 2 307.977 159.263 3
7 -12 -2 59.1675 193.856 2
5 -12 2 31.4827 85.1047 2
7 -12 -2 -44.8465 109.964 1
-12 5 -2 363.883 335.54 1
7 -12 -2 372.777 241.927 4
7 5 2 239.121 177.711 2
-12 7 2 395.422 288.851 1
5 -12 2 204.388 187.905 4
-12 7 2 673.589 383.743 2
7 5 2 110.728 110.495 1
5 -12 2 597.413 315.756 1
-12 5 -2 97.1589 302.711 2
-12 5 -5 423.822 268.875 1
-12 5 -5 504.121 229.901 2
-12 7 5 371.058 169.716 1
7 -12 -5 361.596 163.761 1
5 -12 5 309.494 221.933 3
7 5 5 181.543 77.8963 1
7 -12 -5 334.028 317.718 4
5 -12 5 656.087 388.17 1
-12 7 5 365.904 151.806 2
5 7 -5 435.314 240.157 4
7 5 5 324.234 211.804 2
-12 7 8 744.386 218.037 4
-12 5 -8 31.8995 105.5 2
7 -12 -8 1442.14 374.983 1
7 5 8 1249.78 415.13 1
-12 5 -8 1917.61 705.341 1
7 5 8 871.724 415.299 2
5 -12 8 2592.24 726.836 3
7 5 11 162.522 198.584 2
5 -12 11 1621.37 563.307 3
7 5 11 953.116 379.974 1
7 -12 -11 1044.14 377.111 1
-12 7 11 123.708 123.339 4
-12 5 -11 1486.28 623.633 1
7 5 14 225.606 369.073 2
7 -12 -14 519.677 388.129 1
-12 5 -14 300.058 457.445 1
6 7 14 -355.405 414.909 2
-13 7 -14 318.241 235.639 1
6 -13 -14 -161.921 268.491 1
6 7 11 815.441 397.881 2
6 -13 -11 1245.22 339.683 1
6 7 11 1003.83 333.781 1
-13 7 -11 1004.26 502.133 1
-13 6 11 983.63 276.318 4
7 -13 8 657.694 558.096 2
6 7 8 1156.22 538.929 2
6 7 8 1218.28 391.524 1
-13 7 -8 1091.99 639.099 2
6 -13 -8 2140.64 468.747 1
-13 7 -8 1598.92 624.606 1
7 -13 5 10705.4 1570.37 1
6 7 5 8399.76 1146.93 2
-13 6 5 12912.7 1845.52 2
6 7 5 9223.55 934.522 1
-13 7 -5 12774.6 2084.23 2
7 6 -5 10113.4 1161.59 4
6 -13 -5 12354.4 1098.61 1
6 -13 -5 9621.64 1542.96 4
-13 7 -5 11713.6 1692.96 1
-13 6 5 10295.6 1437.68 1
7 -13 2 3548.73 970.805 4
7 -13 2 3349.76 918.114 2
6 -13 -2 3629.52 688.966 1
-13 6 2 3126.43 827.421 1
-13 6 2 3766.27 914.377 2
7 6 -2 4099.66 794.93 4
6 7 2 2997.82 570.822 1
-13 7 -2 5019.7 1066.03 2
7 -13 2 3222.98 783.504 1
6 -13 -2 2821.64 515.881 2
6 -13 -2 3118.46 773.755 4
-13 7 -2 4577.59 1003.96 1
7 -13 -1 938.219 312.37 4
6 -13 1 1100.95 382.179 1
-13 6 -1 1773.14 618.408 1
7 -13 -1 1436.39 436.977 1
6 -13 1 1340.68 492.686 4
-13 6 -1 1853.03 635.781 2
7 6 1 1433.94 426.11 1
6 7 -1 1054.6 434.388 4
-13 7 1 1467.26 517.744 2
6 -13 1 1459.36 516.853 2
-13 7 1 934.432 435.378 1
7 -13 -1 786.408 226.989 2
7 -13 -4 601.831 233.007 1
-13 6 -4 901.64 510.309 2
6 -13 4 227.39 232.601 2
7 6 4 -198.126 222.951 2
-13 6 -4 578.437 323.777 1
-13 7 4 965.61 395.443 1
6 7 -4 420.546 213.188 4
7 6 4 511.688 161.836 1
7 -13 -4 519.278 290.548 4
6 -13 4 1134.49 508.514 1
7 -13 -4 423.176 186.569 2
-13 7 4 1076.23 476.702 2
6 -13 7 7010.32 1187.06 3
-13 6 -7 7029.8 1301.24 1
7 6 7 6840.11 887.161 1
7 6 7 7320.9 1159.87 2
-13 6 -7 6508.26 1655.28 2
6 -13 7 6790.03 1276.56 1
-13 7 7 5251.78 1019.05 1
7 -13 -7 7261.6 839.807 1
7 6 10 946.761 450.799 2
-13 6 -10 1324.88 565.373 1
-13 7 10 555.478 166.142 4
7 -13 -10 1286.82 374.259 1
7 6 10 1368.4 438.928 1
-13 6 -13 972.349 477.319 1
7 -13 -13 2202.24 635.552 1
7 6 13 1776.24 510.868 1
7 6 13 654.779 493.37 2
-13 6 -16 147.237 149.005 1
7 6 16 -68.518 215.622 2
7 -14 0 237.003 200.278 1
7 -14 0 767.29 290.055 2
7 7 0 756.818 335.362 4
-14 7 0 825.904 238.186 2
7 -14 0 516.538 315 4
-14 7 0 422.087 64.4594 1
-14 7 3 -15.9944 239.979 1
7 -14 3 -130.095 229.976 4
-14 7 -3 1056.06 641.165 2
7 7 3 218.038 272.978 2
7 -14 -3 -34.356 155.671 2
7 -14 3 259.522 242.361 2
7 -14 -3 462.828 309.773 4
7 7 -3 404.306 296.403 4
7 -14 3 382.787 261.15 1
-14 7 3 372.576 286.969 2
-14 7 -3 485.62 384.203 1
7 7 3 213.966 165.962 1
7 -14 -3 13.6966 164.535 1
-14 7 -6 694.412 474.689 1
7 7 6 692.482 299.755 1
7 7 -6 1363.28 499.727 4
7 7 6 782.296 384.464 2
7 -14 6 298.932 183.632 1
-14 7 6 993.332 462.634 1
-14 7 -6 667.977 694.319 2
7 -14 -6 782.289 332.22 1
-14 7 6 1385.59 625.806 2
7 -14 6 210.915 359.176 2
7 7 9 3178.66 650.462 1
7 -14 -9 2920.98 524.744 1
-14 7 -9 3088.07 927.635 1
7 7 9 3050.94 779.164 2
-14 7 -12 24.144 238.869 1
7 -14 -12 603.688 294.241 1
7 7 12 454.866 317.882 2
-14 7 12 77.9384 103.429 4
7 7 12 224.962 76.9877 1
7 7 15 512.801 446.15 2
7 -14 -15 1901.44 685.424 1
-14 7 -15 716.763 487.706 1
-4 8 0 72041.1 2733.47 2
8 -4 0 63592.3 2995.48 2
-4 8 0 69765.3 2778.22 1
8 -4 0 72962.2 3044.4 1
-4 8 0 71767.9 2796.68 4
-4 8 0 66144.6 2862.09 3
-4 8 3 3419.51 760.885 4
8 -4 3 3761.27 828.974 2
-4 8 -3 2897.88 634.736 1
8 -4 -3 4857.37 773.896 1
-4 8 3 3758.54 495.463 1
-4 -4 -3 3121.75 567.136 2
8 -4 3 3449.59 701.604 1
-4 8 -3 3833.19 697.881 3
-4 -4 -3 2854.47 393.698 1
-4 -4 3 3379.65 599.631 4
-4 -4 -6 1021.28 234.62 1
-4 -4 -6 1082.16 296.9 3
-4 8 -6 1642.13 557.988 1
8 -4 6 899.601 494.946 2
8 -4 -6 902.796 340.14 1
-4 8 -6 1568.89 446.658 3
8 -4 6 1237.48 457.585 1
-4 -4 -6 827.938 365.886 2
8 -4 9 4274.84 993.448 1
-4 8 -9 4367.71 700.609 3
-4 -4 -9 4095.47 559.01 3
-4 8 -9 4545.17 1025.4 1
-4 -4 -9 4292.21 650.485 1
8 -4 12 358.623 416.138 2
-4 -4 -12 229.168 127.093 1
8 -4 12 560.237 281.538 1
-4 8 -12 637.002 411.9 1
8 -4 15 -73.6321 147.982 2
-4 8 15 51.7956 60.8696 3
-4 8 -15 -162.884 414.78 1
-4 -4 -15 558.473 329.126 1
-3 -5 -16 224.857 90.7343 1
-3 8 16 341.461 156.588 3
-5 8 -16 100.005 246.406 1
8 -5 13 201.867 259.788 2
-5 8 -13 570.427 468.546 1
-3 8 13 266.173 240.224 3
-3 -5 -13 178.618 41.2596 1
-5 8 -10 652.784 446.6 1
-3 -5 -10 576.87 257.783 1
8 -5 10 248.089 142.568 2
-3 8 10 255.91 69.6441 3
8 -5 10 870.44 463.614 1
-3 -5 -10 358.234 160.138 3
-5 8 -10 478.038 234.687 3
-3 -5 -7 2591.34 469.527 3
-5 8 -7 3617.07 817.34 1
-3 -5 -7 2718.73 416.453 1
8 -5 7 3565.16 880.296 1
-3 8 7 2670.77 567.298 3
-5 8 -7 3420.27 657.684 3
8 -5 7 2852.11 930.948 2
-3 8 4 2760.14 600.552 3
-5 -3 4 2019.51 442.441 4
8 -5 4 1635.53 682.573 2
-5 8 -4 2857.92 669.012 3
-3 -5 -4 2665.22 552.212 3
-5 8 -4 3336.59 758.999 1
8 -3 -4 2266.88 548.399 1
8 -5 4 1917.13 576.085 1
-3 8 4 2695.32 685.213 4
-3 -5 -4 2730.98 533.819 2
-3 -5 -1 8745.44 847.047 2
-5 8 -1 10503.6 1207.35 1
-3 8 1 10856.7 1168.71 4
8 -3 -1 9416.22 1138.4 2
-3 8 1 10261.8 1160.72 3
8 -5 1 9500.9 1134.39 2
-5 8 -1 8513.25 1239.37 2
8 -5 1 10663.2 1165.8 1
-3 8 1 9627.53 926.655 1
8 -3 -1 11562.4 1195.95 1
-5 8 2 2564.75 418.434 2
-5 8 2 2147.88 502.983 4
8 -5 -2 2009.97 532.328 2
8 -5 -2 3038.54 621.337 1
-5 -3 -2 2524.99 517.445 2
8 -3 2 2456.85 562.547 1
-3 8 -2 2779.06 588.198 3
-3 -5 2 2120.92 472.522 4
-5 -3 -2 1904.98 362.711 1
8 -3 2 2290.54 569.15 2
-3 8 -2 2236.6 483.058 1
-5 8 2 2310.77 427.629 1
8 -3 5 4687.18 1095.82 2
-3 8 -5 6568.34 903.84 3
8 -5 -5 5809.93 846.113 1
-3 8 -5 6399.34 1009.89 1
-5 8 5 5831.24 960.697 4
-5 8 5 5016.42 579.682 1
8 -3 5 4817.62 870.854 1
-3 -5 5 3913.43 662.987 4
-5 -3 -5 4665.31 1021.42 2
-5 -3 -5 4263.43 598.092 1
8 -3 8 413.597 454.844 2
-5 -3 -8 628.073 208.311 3
-5 -3 -8 -178.442 319.505 2
8 -5 -8 919.844 323.032 1
-3 8 -8 962.337 311.507 3
8 -3 8 863.101 337.678 1
-3 8 -8 1019.79 424.222 1
-5 -3 -8 824.486 259.894 1
-5 -3 -11 227.456 244.22 1
-5 -3 -11 73.0759 82.0964 3
8 -3 11 280.409 185.662 1
-3 8 -11 295.269 365.486 1
8 -3 11 -433.633 390.139 2
-5 -3 -14 232.993 223.282 1
-3 -5 14 363.206 164.213 3
8 -3 14 239.669 123.088 1
-3 8 -14 243.612 322.483 1
8 -3 14 -113.042 450.457 2
-3 -5 17 452.532 291.893 3
-5 -3 -17 665.36 383.944 1
8 -3 17 -145.18 559.957 2
-3 8 -17 -127.138 407.176 1
-6 8 -17 60.4891 222.286 1
-2 8 17 16.8297 78.4919 3
8 -6 17 177.829 340.73 2
-2 -6 -17 1.32361 225.985 1
8 -6 14 89.8552 195.225 2
-6 8 -14 521.834 397.887 1
-2 -6 -14 649.41 327.562 1
-2 8 14 200.857 172.29 3
-6 8 -11 1476.92 611.765 1
-2 -6 -11 1748.08 412.766 1
8 -6 11 1852.99 713.591 1
8 -6 11 19.5304 239.17 2
-2 8 11 1506.35 377.994 3
-6 8 -11 1877.4 460.796 3
8 -6 8 3155.65 1132.77 2
-2 8 8 3631.26 652.913 3
-6 8 -8 4926.58 1078.63 1
8 -6 8 4079.47 1043.17 1
-2 -6 -8 3639.1 600.512 3
-6 8 -8 5540.3 859.06 3
-2 -6 -8 3509.54 457.647 1
-2 8 5 16489.7 1411.97 3
8 -6 5 15234.1 2060.31 2
-2 -6 -5 15120.7 1250.2 3
-2 -6 -5 14406 1222.48 2
8 -2 -5 13763.4 1287.05 1
8 -6 5 15216.2 1718.93 1
-6 8 -5 17216.8 1518.53 3
-6 8 -5 18323.6 1851.4 1
-6 -2 5 13966.4 1009.57 4
8 -6 2 489.145 219.895 1
-2 -6 -2 805.503 278.737 2
-2 8 2 819.71 254.925 1
-2 8 2 829.356 319.822 3
8 -6 2 812.904 350.182 2
-2 -6 -2 1063.33 357.449 3
-6 8 -2 1403.25 487.815 1
-6 8 -2 440.917 337.424 2
8 -2 -2 1310.73 401.741 1
-2 8 2 878.472 339.343 4
8 -2 1 6864.97 935.82 1
-6 8 1 7693.35 908.084 4
8 -6 -1 7569.03 1065.72 2
-2 -6 1 5820.92 860.148 3
-6 -2 -1 5343.65 674.034 1
-6 8 1 6747.99 805.499 2
-2 8 -1 5518.42 724.589 1
8 -6 -1 7733.65 1034.75 1
-6 8 1 6858.67 822.672 1
-2 8 -1 6667.07 908.118 4
8 -2 1 5846.03 910.808 2
-2 -6 1 7235.85 1020.56 4
-6 -2 -1 5792.77 905.895 2
-2 8 -1 6510.22 907.045 3
-6 -2 -4 2285.3 458.582 1
-2 8 -4 3194.36 687.463 1
8 -6 -4 3207.38 474.578 4
8 -6 -4 3717.78 710.078 1
-2 8 -4 3302.32 641.857 3
8 -2 4 2337.82 576.964 1
-2 -6 4 2159.39 556.919 3
8 -2 4 1701.02 591.759 2
-2 -6 4 2120.59 503.037 4
-6 8 4 2824.11 610.45 4
-6 -2 -4 2372.11 602.786 2
-6 8 4 2638.17 534.651 2
-6 8 4 2837.83 500.909 1
-6 -2 -7 -3.41725 259.671 2
-6 -2 -7 328.319 158.958 1
8 -2 7 376.824 246.617 1
-2 8 -7 641.655 215.866 1
-2 -6 7 364.157 103.184 3
-2 8 -7 779.123 270.083 3
8 -6 -7 480.288 204.663 1
8 -2 7 136.905 235.761 2
8 -2 10 1589.45 559.205 1
-6 -2 -10 1718.12 487.289 1
-6 -2 -10 960.16 244.645 3
8 -2 10 -214.496 301.336 2
-2 -6 10 1539.21 487.505 3
-2 8 -10 1888.62 668.867 1
8 -6 -10 1149.77 349.104 1
-2 8 -13 404.886 290.368 1
8 -2 13 1208.35 541.146 1
-6 -2 -13 617.987 298.373 1
-2 -6 13 1246.28 529.183 3
8 -2 13 -174.362 428.429 2
-6 -2 -16 220.144 299.707 1
8 -2 16 -254.838 270.486 2
-2 -6 16 505.472 302.134 3
-2 8 -16 -43.6991 197.505 1
-1 -7 -15 350.854 150.946 1
8 -7 15 149.715 204.984 2
-7 8 -15 486.139 404.761 1
-1 8 15 307.603 201.486 3
8 -7 12 165.42 120.012 2
-7 8 -12 -144.322 308.279 1
-1 -7 -12 372.107 196.448 1
-1 8 12 -31.5171 168.476 3
-7 8 -12 232.759 74.609 3
-7 8 -9 278.883 263.401 1
-1 -7 -9 1372.24 427.224 3
8 -7 9 -78.3185 161.845 2
-7 8 -9 1125.9 396.015 3
-1 8 9 813.961 250.071 3
-1 -7 -9 1382.91 298.111 1
8 -7 9 931.624 521.304 1
8 -7 6 630.505 323.532 1
8 -7 6 526.819 607.765 2
-1 8 6 1468.26 397.89 3
-7 -1 6 1371.8 310.248 4
-7 8 -6 2528.08 741.24 1
-1 -7 -6 1963.61 484.515 3
-1 8 3 298.185 181.695 3
-1 -7 -3 171.686 173.007 3
8 -1 -3 407.741 243.935 1
-1 8 3 46.8724 207.358 4
8 -7 3 504.139 403.292 2
8 -7 3 322.087 274.219 1
-7 8 -3 84.821 63.7975 1
-7 8 -3 611.584 482.33 2
-1 8 0 2420.42 569.74 4
-1 -7 0 2312.44 620.945 4
-7 8 0 1555.3 458.273 1
8 -7 0 2098.69 533.482 2
-7 -1 0 1332.77 363.557 1
8 -1 0 1434.09 441.641 2
8 -7 0 1819.77 513.01 1
-1 -7 0 1075.35 374.656 3
-7 8 0 2357.55 599.424 2
-1 8 0 1584.05 474.997 3
-1 8 0 1405.87 372.746 1
-7 -1 0 2101.71 594.608 2
8 -1 0 1579.15 498.054 1
8 -7 -3 2863.37 657.184 2
-7 -1 -3 2330.01 497.012 1
-1 8 -3 2520.54 551.511 3
8 -7 -3 2755.66 594.359 1
8 -1 3 2128.81 578.765 2
-7 8 3 2871.02 563.284 4
-7 -1 -3 2970.05 668.65 2
-7 8 3 3133.3 597.489 2
-1 -7 3 2435.17 555.401 3
8 -7 -3 2688.06 472.676 4
8 -1 3 2548.7 565.21 1
-7 8 3 2821.04 553.805 1
-1 -7 3 2594.7 563.063 4
8 -1 6 1066.88 334.892 1
8 -7 -6 740.504 318.125 1
-7 8 6 1690.62 453.492 4
-7 -1 -6 693.355 299.22 1
-7 -1 -6 707.261 269.369 2
-7 8 6 952.282 295.88 1
-1 8 -6 1120.72 384.62 3
8 -1 6 508.577 386.555 2
-1 -7 6 944.396 339.036 3
-7 -1 -9 764.046 358.967 1
8 -1 9 489.287 499.812 2
-1 8 -9 1169.56 466.942 1
8 -7 -9 1106.36 374.661 1
-7 -1 -9 190.985 390.161 2
8 -1 9 932.193 420.661 1
-1 -7 9 1164.31 458.528 3
-1 8 -12 -180.017 366.933 1
-7 -1 -12 333.499 175.617 1
-7 -1 -12 191.919 134.676 3
8 -1 12 354.687 335.356 1
8 -1 12 522.053 236.325 2
-7 -1 -15 634.89 356.466 1
-1 8 -15 209.172 218.493 1
8 -1 15 510.46 359.742 1
-1 -7 15 359.656 216.618 3
8 -1 15 -316.058 491.366 2
-8 8 -16 205.834 375.678 1
8 -8 16 291.804 425.76 2
0 -8 -16 118.178 182.316 1
0 8 13 295.088 183.754 3
-8 8 -13 -9.46991 299.94 1
-8 8 -13 161.22 55.2177 3
8 -8 13 186.694 137.783 2
0 -8 -13 58.6911 74.9773 1
-8 8 -10 2692.22 897.635 1
-8 8 -10 2466.16 569.365 3
0 8 10 1576.62 435.934 3
0 -8 -10 2728.58 459.903 1
8 -8 10 2651.07 841.66 1
8 -8 7 3172.45 855.92 1
0 8 7 789.059 283.028 2
-8 8 -7 3213.04 839.527 1
0 8 7 3264.6 594.344 3
0 -8 -7 3938.5 684.44 3
8 -8 7 1084.5 655.585 2
8 -8 4 51960.6 3674.39 2
-8 8 -4 53769.3 3276.89 1
0 -8 -4 51575.3 2497.08 3
8 -8 4 50355.3 3192.28 1
0 8 4 51099.3 2486.14 3
8 0 -4 51355.3 2577.66 1
-8 8 -4 54816.6 3846.55 2
8 0 -1 4960.06 784.804 1
8 -8 1 5322.37 888.225 2
-8 8 -1 6112.9 967.831 1
0 8 1 5074.18 797.331 3
8 -8 1 5035.37 843.117 1
-8 0 1 4451.46 730.892 1
0 8 1 5687.79 992.125 4
-8 8 -1 5724.41 995.505 2
-8 0 1 5348.55 907.305 2
0 -8 -1 4741.27 889.687 4
0 -8 -1 5032.44 811.33 3
8 -8 -2 17833.1 1396.24 4
0 -8 2 15584.3 1529.51 4
0 8 -2 34876 2089.34 4
-8 8 2 23546.2 1768.1 1
-8 0 -2 19076.9 1598.24 1
-8 0 -2 23681.3 2037.68 2
0 8 -2 38674.2 2247.34 3
8 0 2 20923.5 1680.65 1
0 -8 2 19381.7 1639.72 3
8 0 2 16752.4 1600.28 2
8 -8 -2 20669.8 1688.15 1
-8 8 2 25192.8 1819.81 2
8 -8 -2 19568.3 1749.98 2
-8 0 -5 2540.58 569.227 1
-8 8 5 1954.04 526.534 2
0 -8 5 2694.18 681.28 4
8 0 5 2011.33 530.337 1
0 8 -5 2513.97 542.121 3
-8 0 -5 1809.73 707.369 2
0 -8 5 2611.99 616.289 3
8 0 5 2038.57 575.96 2
8 -8 -5 2729.89 544.444 1
-8 8 5 2052.37 448.654 4
-8 8 5 2367.1 503.424 1
8 -8 -5 2433.22 519.183 4
8 0 8 9679.52 1604.3 2
-8 0 -8 13114.7 1462.69 1
8 0 8 14013 1637.98 1
0 -8 8 15342.9 1598.09 3
-8 0 -8 7531.4 1761.96 2
8 -8 -8 13425 1300.35 1
-8 8 8 12548 1314.13 4
0 -8 11 2181.05 684.029 3
8 0 11 1017.21 530.35 2
-8 0 -11 788.9 423.757 1
8 0 11 644.77 397.977 1
8 -8 -11 1565.64 495.634 1
8 0 14 906.887 451.46 1
8 0 14 18.13 252.689 2
0 -8 14 870.967 409.693 3
-8 0 -14 739.171 340.566 1
0 8 -14 1157.93 629.171 1
-8 0 -17 216.607 328.481 1
8 0 17 147.114 238.096 2
0 -8 17 136.538 44.2031 3
0 8 -17 507.919 563.763 1
1 8 17 388.553 616.688 2
-9 8 -17 258.724 386.318 1
8 -9 17 -51.0578 237.091 2
1 -9 -17 219.535 229.101 1
1 8 14 -254.531 254.032 2
1 -9 -14 618.043 259.557 1
-9 8 -14 812.378 324.329 3
8 -9 14 -128.944 245.523 2
-9 8 -14 1065.44 700.741 1
-9 8 -11 496.629 106.274 1
-9 8 -11 652.535 285.298 3
8 -9 11 -340.514 514.235 2
1 8 11 49.9158 130.602 3
1 8 11 -61.7219 258.757 2
1 -9 -11 360.316 116.303 1
-9 8 -8 -63.5289 277.156 2
8 -9 8 485.443 560.996 2
1 8 8 361.491 329.143 2
-9 8 -8 2179.23 770.28 1
1 8 8 1963.21 494.944 3
8 -9 8 2272.07 804.446 1
1 -9 -5 852.952 351.073 3
1 8 5 295.101 191.848 3
8 1 -5 281.476 116.546 4
8 -9 5 215.126 158.17 1
-9 8 -5 1217.25 646.747 2
-9 8 -5 192.474 130.965 1
1 8 2 1649.93 498.751 3
1 -9 -2 1316.82 527.077 4
1 -9 -2 879.38 390.338 3
-9 1 2 1876.59 555.851 1
-9 8 -2 1495.26 595.168 2
8 1 -2 2113.14 565.576 1
1 8 2 1443.05 566.33 4
8 -9 2 573.522 319.87 1
-9 1 2 2062.9 712.246 2
8 -9 2 1020.65 512.565 2
-9 8 -2 1508.17 543.83 1
1 -9 1 2362.22 612.648 4
-9 8 1 1883.41 539.619 1
-9 1 -1 2603.64 654.296 1
8 -9 -1 2837.43 608.105 1
-9 8 1 2587.09 632.665 2
1 8 -1 2809.88 651.697 3
8 1 1 2560.22 654.658 2
8 -9 -1 2604.23 628.905 4
8 1 1 2558.85 586.8 1
8 -9 -1 2590.06 634.369 2
1 -9 1 2758.3 652.637 3
1 8 -1 2528.52 626.892 4
-9 1 -1 2513.12 672.527 2
-9 1 -4 10941.7 1479.39 2
8 1 4 8726.89 1032.58 1
1 -9 4 8608.63 1247.53 4
1 -9 4 9351.63 1226.75 3
8 -9 -4 10815.3 1195.97 1
-9 8 4 10188.7 992.646 4
8 -9 -4 8971.02 1051.32 4
-9 8 4 10364.3 1323.19 2
-9 1 -4 8665.01 1200.08 1
8 1 4 8103.38 1168 2
-9 8 4 7764.08 1024.79 1
8 -9 -7 6757.91 922.74 1
-9 8 7 6632.53 911.702 4
-9 1 -7 6710.54 1068.19 1
-9 1 -7 3765.89 1067.44 2
8 1 7 6801.11 1007.18 1
1 -9 7 7079.72 1093.78 3
8 1 7 5096.46 1088.45 2
8 1 10 -153.105 454.624 2
1 -9 10 1388.36 453.171 3
8 1 10 1354.76 508.66 1
8 -9 -10 1041.18 342.325 1
-9 1 -10 1041.28 449.754 1
-9 1 -10 269.34 129.899 2
8 -9 -13 433.438 245.453 1
8 1 13 229.786 93.833 1
8 1 13 132.545 231.87 2
-9 1 -13 582.836 360.79 1
-9 1 -16 728.401 510.416 1
8 1 16 118.553 118.729 2
1 -9 16 369.482 235.865 3
1 8 -16 538.648 374.582 1
2 8 15 -207.664 409.94 2
-10 8 -15 246.326 399.311 1
8 -10 15 -604.622 472.177 2
2 -10 -15 115.341 42.5554 1
-10 8 -15 456.229 223.776 3
2 8 12 -296.554 286.975 2
8 -10 12 -665.704 716.814 2
-10 8 -12 1019.37 441.934 1
2 -10 -12 1171.3 326.067 1
8 -10 9 301.884 476.553 2
8 -10 9 1854.16 697.211 1
2 8 9 1293.36 415.126 2
2 8 9 1202.22 365.65 3
-10 8 -9 2110.73 759.909 1
-10 8 -9 -206.204 243.571 2
-10 8 -6 1818.91 836.41 2
-10 8 -6 3318.28 920.608 1
2 8 6 2351.28 458.019 2
8 -10 6 1410.4 762.448 2
2 -10 -6 3553.48 755.996 3
2 8 6 1809.35 486.88 3
8 -10 6 3094.47 868.868 1
8 2 -3 11684.9 1303.99 1
-10 8 -3 7363.31 1219.31 1
2 8 3 10607.6 1239.5 3
8 -10 3 7736.2 1370.77 2
-10 8 -3 8497 1452.39 2
2 -10 -3 7061.09 1046.44 3
8 2 -3 10845 991.646 4
-10 2 3 10034.3 1228.73 1
8 -10 3 7595.46 1261.3 1
2 -10 -3 8036.87 1323.13 4
-10 2 3 14985.7 1805.97 2
-10 2 0 2081.12 720.798 2
8 -10 0 932.066 410.832 1
-10 8 0 1754.27 666.775 2
-10 8 0 1754.29 696.277 1
-10 2 0 2108.34 626.36 1
8 -10 0 1541.73 617.792 4
2 8 0 2888.74 749.537 4
2 -10 0 916.241 458.474 3
8 2 0 1907.7 584.116 1
8 -10 0 886.152 414.076 2
2 -10 0 1923.7 645.402 4
8 -10 -3 5793.47 859.272 1
8 -10 -3 4194 820.943 2
-10 8 3 4944.57 872.982 1
8 2 3 4220.35 832.577 2
2 -10 3 4561.04 840.691 4
-10 8 3 5369.41 945.765 2
-10 2 -3 5183.66 944.011 1
8 -10 -3 4812.29 813.457 4
8 2 3 4446.77 737.634 1
2 8 -3 5435.37 883.84 4
-10 2 -3 4822.57 991.887 2
2 -10 3 5150.66 878.088 3
8 -10 -6 5861.42 833.068 1
-10 8 6 4633.87 799.219 1
-10 2 -6 5789.84 1009.14 1
-10 2 -6 6082.93 1309.42 2
2 -10 6 6049.19 997.206 3
-10 8 6 5644.6 739.024 4
8 2 6 5534.95 1010.27 2
8 2 6 5769.32 868.016 1
-10 8 9 1385.93 368.192 4
2 -10 9 2329.32 668.019 3
8 -10 -9 2263.39 572.45 1
8 2 9 1261.12 449.927 1
8 2 9 1316.64 591.747 2
-10 2 -9 811.403 539.74 2
-10 2 -9 1481.48 566.847 1
8 2 12 2982.93 767.276 1
2 -10 12 3298.51 798.047 3
8 2 12 1155.06 644.561 2
-10 2 -12 2629.6 798.759 1
8 -10 -12 2484.39 641.251 1
-10 2 -15 375.573 408.003 1
8 2 15 424.849 310.209 1
8 2 15 449.984 554.315 2
2 -10 15 135.546 202.283 3
8 -10 -15 854.38 522.227 1
3 -11 -16 -0.81962 216.155 1
8 -11 16 177.575 240.866 2
-11 8 -16 645.766 529.557 1
-11 8 -16 128.413 172.106 3
3 8 16 -336.406 223.066 2
8 -11 13 -390.678 256.464 2
-11 8 -13 449.65 216.485 1
3 -11 -13 54.5793 97.4514 1
3 8 13 -435.959 464.1 2
3 -11 -10 2629.48 401.508 1
-11 8 -10 3844.64 1008.87 1
3 8 10 1271.71 492.478 2
8 -11 10 -305.647 337.453 2
8 -11 7 1070.87 509.087 1
-11 8 -7 258.474 395.905 2
8 -11 7 593.914 567.258 2
3 8 7 439.856 219.135 2
-11 8 -7 616.421 344.24 1
8 -11 4 2964.85 802.572 1
3 -11 -4 3045.06 428.93 1
-11 8 -4 4200.06 1045.15 2
-11 3 4 2667.53 632.806 1
8 -11 4 1559.13 676.059 2
-11 8 -4 3769.93 870.391 1
3 8 4 2620.17 379.958 1
3 8 4 2759.89 459.554 2
3 -11 -4 3223.84 704.966 3
8 3 -4 2986.23 498.19 4
8 3 -1 5826.57 918.664 1
3 -11 -1 4166.77 913.224 4
3 8 1 5808.71 1081.9 4
8 -11 1 4848.2 899.882 1
8 -11 1 4807.49 1010.7 2
3 -11 -1 1040.91 334.21 2
-11 8 -1 4846.04 934.821 1
-11 8 -1 5501.58 1037.35 2
3 -11 -1 4619.1 896.624 3
3 -11 -1 3637.44 576.851 1
-11 3 1 4503.86 1006.12 2
-11 3 1 4794.63 935.543 1
8 3 2 6546.95 1065.43 2
3 8 -2 9685.54 1241.89 4
-11 3 -2 9583.14 1341.26 1
8 -11 -2 9383.34 1116.39 1
-11 3 -2 10482.2 1519.68 2
8 3 2 8707.54 1076.03 1
8 -11 -2 8135.83 1129.83 4
8 -11 -2 6597.8 951.945 2
3 -11 2 8865.85 1243.23 3
-11 8 2 10982.9 1483.54 2
3 -11 2 7261.77 1114.65 4
-11 8 2 8715.79 1264.59 1
-11 3 -5 7067.1 1134.54 1
8 -11 -5 5900.54 1000.16 4
8 3 5 7430.6 1131.24 2
8 3 5 6475.91 898.094 1
-11 8 5 7773.85 1278.6 2
-11 3 -5 7388.37 1398.1 2
-11 8 5 6373.42 999.776 1
3 -11 5 6248.86 1032.09 3
8 -11 -5 7260.92 934.424 1
8 3 8 1970.8 644.213 2
8 -11 -8 2935.64 617.3 1
3 -11 8 4415.84 948.487 3
-11 8 8 2388.96 500.13 4
-11 3 -8 3148.97 877.998 1
8 3 8 2770.02 666.045 1
-11 3 -8 1140.01 644.163 2
8 3 11 1794.97 580.16 1
8 3 11 392.19 307.186 2
8 -11 -11 2142.98 564.365 1
-11 3 -11 1956.99 645.642 1
3 -11 11 2664.19 739.23 3
8 3 14 -10.754 139.099 2
3 -11 14 307.965 275.29 3
8 -11 -14 457.836 208.615 1
8 3 14 128.777 149.48 1
-11 3 -14 114.545 313.231 1
8 3 17 -112.294 181.532 2
3 -11 17 53.3905 226.576 3
8 -11 -17 -42.1855 111.783 1
-12 8 -14 142.222 203.36 1
4 -12 -14 173.086 153.33 1
8 -12 14 343.529 448.058 2
4 8 14 -346.359 163.562 2
8 -12 11 -360.664 625.179 2
4 -12 -11 792.797 252.475 1
-12 8 -11 871.871 513.07 1
4 8 11 -182.725 307.727 2
8 -12 8 139.049 508.949 2
4 8 8 2341.52 643.323 2
8 -12 8 1633.35 689.069 1
-12 8 -8 2157.65 788.162 1
4 -12 -8 3436.68 432.931 1
-12 8 -8 605.757 499.042 2
4 8 8 1136.08 301.445 1
4 8 5 1206.71 292.247 1
8 -12 5 194.823 186.997 2
4 -12 -5 833.425 248.29 1
-12 8 -5 1537.05 613.217 2
8 -12 5 775.054 473.148 1
8 4 -5 1230.7 364.052 4
-12 8 -5 863.578 438.398 1
4 8 5 882.915 274.797 2
-12 4 5 1609.53 538.473 1
-12 8 -2 703.981 426.596 2
8 -12 2 284.026 260.652 2
4 -12 -2 211.918 174.697 1
8 -12 2 -153.006 180.156 1
4 -12 -2 508.148 339.017 3
4 -12 -2 34.8279 107.923 2
8 4 -2 -198.294 247.123 4
-12 4 2 294.58 196.359 1
-12 4 2 -63.4516 77.9582 2
4 -12 -2 547.861 321.077 4
-12 8 -2 417.849 287.653 1
-12 8 1 1160.24 461.445 2
8 -12 -1 749.03 321.44 4
-12 4 -1 1133.28 482.403 2
8 -12 -1 799.167 346.95 1
4 -12 1 704.572 292.752 1
8 -12 -1 1112.27 344.703 2
8 4 1 1053.23 401.451 1
-12 4 -1 736.763 334.474 1
4 -12 1 641.446 307.678 2
4 -12 1 888.149 424.478 3
4 8 -1 1109.24 494.9 4
-12 8 1 777.459 353.347 1
4 -12 1 596.057 315.756 4
8 -12 -4 3726.69 763.611 2
-12 4 -4 5747.45 1262.11 2
-12 8 4 3758.77 855.029 1
-12 4 -4 6093.55 1161.4 1
-12 8 4 5523.2 1134.64 2
4 8 -4 4159.03 793.886 4
8 4 4 3741.64 675.983 1
8 4 4 3386.86 794.381 2
4 -12 4 3996.38 883.72 3
8 -12 -4 3414.13 799.168 4
4 -12 4 4100.32 1132.84 4
8 -12 -4 4798.95 827.192 1
-12 4 -7 7323.32 1560.51 2
8 4 7 5200.86 1043.51 2
-12 8 7 6099.6 689.051 4
-12 4 -7 6621.91 1240.45 1
-12 8 7 5700.27 1016.46 1
4 -12 7 6230.7 1093.24 3
8 -12 -7 6967.83 912.746 1
8 4 7 5159.42 838.208 1
8 4 10 5635.7 1193.03 2
-12 4 -10 6415.25 1248.83 1
8 -12 -10 7523.1 1037.05 1
4 -12 10 8578.34 1322.6 3
-12 8 10 7407.6 937.678 4
8 4 10 8105.79 1197.11 1
8 4 13 -373.305 349.245 2
4 -12 13 219.751 53.5761 3
8 -12 -13 613.048 373.981 1
8 4 13 522.892 306.822 1
-12 4 -13 77.1502 205.87 1
4 -12 16 71.5665 199.354 3
8 -12 -16 350.861 328.088 1
8 4 16 -44.1509 275.645 2
-12 4 -16 69.6041 125.827 1
8 -13 15 1167.14 931.712 2
-13 8 -15 732.361 594.833 1
5 8 15 -45.1851 79.7922 2
5 -13 -15 827.799 524.789 1
5 -13 -12 851.611 289.496 1
-13 8 -12 1085.38 568.388 1
8 -13 12 -16.8737 485.822 2
5 8 12 -270.834 241.609 2
5 -13 -9 2465.45 397.206 1
5 8 9 1845.6 576.553 2
5 8 9 1551.81 374.734 1
-13 8 -9 2231.51 839.046 1
5 8 6 1081.85 314.306 1
-13 8 -6 807.65 409.693 1
5 8 6 802.954 357.684 2
-13 8 -6 1382.45 634.836 2
8 5 -6 884.081 344.104 4
8 -13 6 496.771 397.101 2
8 -13 6 813.178 438.563 1
5 -13 -6 1074.52 264.156 1
-13 5 6 1082.84 497.218 1
-13 8 -3 1219.85 531.612 2
8 -13 3 1307.51 536.198 1
8 -13 3 939.064 554.924 2
5 -13 -3 822.51 457.579 4
-13 8 -3 1491.82 556.646 1
-13 5 3 1309.38 589.185 1
5 8 3 1594.94 418.427 1
8 5 -3 1554.92 440.432 4
5 -13 -3 715.127 224.024 2
5 -13 -3 997.038 321.402 1
-13 5 3 1483.26 607.831 2
5 -13 0 2357.98 567.527 1
8 5 0 1988.49 523.331 1
-13 8 0 2332.82 684.108 2
5 -13 0 1778.59 561.777 4
5 -13 0 1476.6 528.216 2
-13 5 0 2544.34 706.179 1
-13 5 0 2404.29 687.999 2
8 -13 0 1972.31 553.022 1
-13 8 0 2705.53 718.053 1
5 8 0 2168.46 659.352 4
8 -13 0 1554.58 527.198 4
8 -13 0 2198.68 623.664 2
5 -13 0 1790.35 585.461 3
5 -13 3 3764.38 836.287 3
5 8 -3 4191.5 820.64 4
-13 8 3 4580.86 1032.94 2
8 -13 -3 2979.85 703.732 2
8 -13 -3 3487.95 683.056 1
5 -13 3 3404.38 911.105 4
5 -13 3 2767.32 808.103 2
-13 5 -3 4373.08 1029.52 2
-13 5 -3 4126.66 894.113 1
8 -13 -3 3067.09 796.356 4
-13 8 3 4311.94 915.479 1
8 5 3 3349.17 766.392 2
5 -13 3 3445.04 766.009 1
8 5 3 3270.31 625.921 1
8 5 6 3416.49 813.45 2
8 -13 -6 3018.21 603.754 1
-13 8 6 2667.71 710.345 1
8 5 6 2719.19 574.859 1
5 -13 6 2740.71 732.311 3
-13 5 -6 4418.33 1236.98 2
-13 5 -6 3244.42 904.73 1
-13 8 6 4257.45 1080.02 2
8 5 9 -147.42 196.624 2
-13 8 9 696.503 229.611 4
5 -13 9 739.379 335.28 3
-13 5 -9 460.564 296.844 1
8 -13 -9 947.265 317.202 1
8 5 9 822.01 287.725 1
8 5 12 617.4 399.459 2
8 5 12 1660.22 575.937 1
-13 8 12 607.956 244.746 4
5 -13 12 1321.14 505.184 3
-13 5 -12 1284.85 558.655 1
8 -13 -12 1498.38 541.05 1
8 5 15 263.722 285.758 2
8 -13 -15 416.749 399.132 1
8 5 15 -81.6958 242.176 1
-13 5 -15 466.753 357.404 1
8 -14 16 -648.593 638.131 2
-14 8 -16 -151.63 152.414 1
6 8 16 -581.639 387.631 2
6 -14 -16 437.647 341.872 1
-14 6 13 234.027 145.105 4
-14 8 -13 358.696 198.355 1
6 8 13 354.622 208.078 2
6 -14 -13 584.57 246.366 1
8 -14 13 -255.313 326.781 2
-14 8 -10 279.667 74.2187 1
6 8 10 165.421 68.9157 2
6 -14 -10 287.869 107.549 1
6 8 10 617.141 271.497 1
-14 8 -7 1181.15 664.48 2
6 8 7 708.969 278.705 1
6 -14 -7 1003.5 299.934 1
6 8 7 1182.74 466.704 2
-14 8 -7 666.106 453.012 1
8 -14 7 49.3073 182.709 2
6 -14 -4 1966.9 507.071 1
6 -14 -4 2110.57 830.76 4
6 -14 -4 257.517 274.294 2
8 6 -4 3060.66 699.31 4
6 8 4 2268.73 609.013 2
-14 6 4 2944.17 815.632 1
8 -14 4 1709.49 591.443 1
6 8 4 2523.15 531.981 1
-14 6 4 3650.98 1030.18 2
-14 8 -4 3645.08 1008.41 2
-14 8 -4 3525.44 916.738 1
8 -14 4 1327.55 855.768 2
6 -14 -1 957.335 361.379 2
6 -14 -1 1080.47 373.127 1
-14 8 -1 1052.77 467.989 1
8 -14 1 713.557 312.908 2
8 -14 1 830.25 298.485 1
6 -14 -1 861.52 388.678 4
-14 8 -1 693.698 362.912 2
8 -14 1 974.025 369.092 4
-14 6 1 455.2 219.359 1
-14 6 1 1248.91 546.79 2
8 6 -1 969.475 388.941 4
-14 8 2 1867.43 612.884 1
-14 8 2 2469.8 847.56 2
6 -14 2 1057.8 385.396 1
8 -14 -2 1280.25 375.339 2
6 8 -2 2382.95 683.926 4
6 -14 2 478.791 493.595 2
6 -14 2 1314.94 568.847 4
8 -14 -2 1499.6 468.818 1
-14 6 -2 2148.27 718.528 2
6 -14 2 1534.36 528.55 3
8 6 2 1853.34 519.35 1
-14 6 -2 2277.41 733.082 1
8 -14 -2 1565.19 520.118 4
8 -14 -5 1143.17 457.781 4
-14 6 -5 754.533 458.759 1
8 6 5 1053.32 503.078 2
6 -14 5 1066.02 449.07 3
-14 8 5 793.824 401.66 1
6 -14 5 509.717 424.002 2
8 -14 -5 559.64 282.821 1
-14 8 5 830.508 424.235 2
6 8 -5 690.071 321.833 4
6 -14 5 734.141 369.855 1
8 6 5 943.01 338.885 1
-14 6 -5 957.108 537.704 2
8 -14 -8 1310.57 377.112 1
6 -14 8 1772.58 607.264 3
8 6 8 1263.9 514.393 2
8 6 8 1135.43 410.231 1
-14 6 -8 1354.01 538.464 1
8 6 11 3276.22 710.055 1
6 -14 11 2809.72 823.999 3
8 -14 -11 3299.51 628.266 1
-14 8 11 2081.29 424.89 4
-14 6 -11 2648.6 864.253 1
8 6 11 2802.1 791.737 2
8 6 14 1056.81 418.082 1
8 6 14 518.516 376.724 2
-14 8 14 474.593 257.979 4
8 -14 -14 661.814 353.018 1
-14 6 -14 714.172 509.427 1
8 -15 14 -240.704 335.368 2
-15 8 -14 388.758 320.638 1
7 8 14 459.94 318.632 2
-15 7 14 171.739 109.88 4
7 -15 -14 328.813 31.1493 1
7 -15 -11 4498.47 627.989 1
7 8 11 5505.47 883.545 1
7 8 11 4935.19 1070.52 2
-15 8 -11 5849.01 1380.68 1
-15 8 -8 657.883 550.222 1
8 -15 8 -87.3481 48.385 2
7 -15 -8 946.807 348.15 1
7 8 8 862.431 332.187 1
7 8 8 493.165 395.378 2
-15 8 -5 4909.38 1151.56 1
7 -15 -5 5289.93 769.634 1
-15 8 -5 5222.16 1444.43 2
8 7 -5 4131.55 812.62 4
7 8 5 4073.29 671.383 1
7 -15 -5 4639.63 1124.61 4
8 -15 5 5806.34 1184.73 1
8 -15 5 1860.04 1207.8 2
7 8 5 4682.92 840.25 2
-15 7 5 3610.21 1100.91 2
-15 7 5 3406.07 843.358 1
-15 8 -2 4217.69 990.067 1
8 -15 2 3033.07 832.093 2
8 -15 2 3839.2 856.993 1
-15 7 2 3238.24 898.348 2
-15 8 -2 3964.62 1015.04 2
7 8 2 2851.62 609.978 1
7 -15 -2 3533.71 722.942 1
-15 7 2 3334.34 828.798 1
8 7 -2 3429.17 767.308 4
8 -15 2 3429.79 1022.78 4
7 -15 -2 2818.02 555.944 2
7 -15 -2 2796.58 817.693 4
8 -15 -1 10813.5 1384.93 1
-15 8 1 10035.3 1616.22 2
7 -15 1 9103.23 1505.27 4
8 -15 -1 8220.84 1404.89 4
-15 7 -1 10620.8 1588.06 1
-15 7 -1 12645.9 1763.02 2
8 -15 -1 8133.03 1123.49 2
-15 8 1 10719.7 1565.65 1
8 7 1 9243.44 1200.19 1
7 -15 1 9173.48 1333.62 1
7 -15 1 9108.53 1337.31 2
7 8 -1 9757.99 1414.56 4
8 -15 -4 1474.39 520.224 4
7 -15 4 1958.02 774.587 2
8 7 4 2393.16 584.71 1
-15 7 -4 4965.63 1222.99 2
-15 7 -4 3665.36 1008.29 1
7 -15 4 4238.52 1451.89 4
7 -15 4 2367.76 744.608 1
8 -15 -4 2789.05 616.775 1
8 7 4 2258.05 642.926 2
7 8 -4 3133.71 739.207 4
8 -15 -4 2288.05 775.27 2
-15 8 4 1944.59 756.873 2
-15 8 4 3226.35 886.028 1
8 -15 -7 3178.25 588.651 1
7 -15 7 1506.27 913.907 2
8 7 7 3595.55 903.569 2
-15 8 7 3076.41 1017.94 2
-15 7 -7 4234.04 1118.69 1
-15 8 7 3239.53 890.538 1
8 7 7 3148.41 692.817 1
8 7 10 1205.29 402.054 1
8 -15 -10 1466.12 401.83 1
8 7 10 953.055 481.539 2
-15 7 -10 2251.44 781.974 1
8 7 13 -16.9855 121.147 1
-15 7 -13 361.588 394.966 1
8 -15 -13 297.379 207.118 1
-15 8 13 -55.0976 118.604 4
8 7 13 9.78992 39.8512 2
8 -16 0 9422.9 1446.37 2
8 -16 0 9034.99 1311.31 1
8 -16 0 7799.57 1388.69 4
8 8 0 10377 1402.62 1
-16 8 0 10692.1 1634.15 1
-16 8 0 10658.1 1667.7 2
8 8 0 9899.75 1525.26 4
8 8 -3 7522.04 1170.85 4
8 8 3 8479.93 1096.16 1
-16 8 -3 10912.2 1710.95 1
-16 8 3 9337.5 1689.43 2
8 -16 -3 7467.31 1393.02 4
-16 8 -3 12398.8 1956.72 2
8 -16 -3 8602.25 1161.61 1
8 -16 3 10543.2 2021.04 4
8 -16 -3 8082.85 1097.44 2
8 -16 3 6012.35 1543.66 2
-16 8 3 8366.48 1435.28 1
8 -16 3 8846.73 1466.45 1
-16 8 6 5339.51 1375.54 2
8 -16 6 2757.02 1074.6 2
-16 8 6 4693.58 1037.6 1
8 8 6 5273.66 816.638 1
8 -16 -6 5641.74 829.728 1
8 -16 -6 4451.27 1150.46 4
8 8 6 3183.72 839.835 2
-16 8 -6 5442.99 1260.87 1
8 8 -6 6059.31 1026.87 4
8 -16 9 -262.726 313.087 2
8 8 9 557.759 393.066 2
8 8 9 228.395 76.666 1
8 -16 -9 735.75 316.602 1
-16 8 -9 364.127 253.699 1
8 8 12 -125.18 180.491 1
8 -16 -12 185.769 120.121 1
-16 8 -12 49.2046 219.914 1
8 8 12 188.999 311.812 2
8 -16 12 133.192 333.05 2
8 -16 15 85.7019 89.6089 2
8 8 15 -63.3701 298.834 2
-16 8 -15 215.675 218.294 1
-16 8 15 256.278 183.169 4
8 -16 -15 372.041 188.674 1
-4 -5 -17 -29.44 60.3576 1
-5 9 -17 220.625 250.337 1
-4 9 17 -150.197 191.097 3
9 -5 14 -179.6 406.063 2
-4 9 14 1389.41 386.791 3
-4 -5 -14 1310.09 432.052 1
-5 9 -14 1539.11 724.57 1
-5 9 -11 714.785 257.992 3
-5 9 -11 428.347 108.999 1
9 -5 11 -206.103 425.743 2
9 -5 11 745.609 352.761 1
-4 -5 -11 738.174 260.119 3
-4 9 11 520.676 235.715 3
-4 -5 -11 807.198 258.7 1
-5 9 -8 411.58 269.136 1
9 -5 8 68.0562 8.51855 2
9 -4 -8 73.0895 180.401 1
9 -5 8 15.1025 215.607 1
-4 -5 -8 47.868 36.7289 1
-4 -5 -8 17.7282 23.3241 3
-5 9 -8 45.5644 35.7582 3
-4 9 8 205.215 198.327 3
9 -4 -5 1983.57 545.961 1
-5 -4 5 904.711 301.617 4
-4 -5 -5 1779.99 326.236 1
-5 9 -5 1586.28 452.505 3
-4 9 5 1852.58 310.498 1
9 -5 5 1691.7 574.555 1
9 -5 5 1733.01 809.856 2
-4 9 5 1775.69 574.07 4
-4 9 5 1830.96 473.105 3
-5 9 -5 1669.62 564.069 1
-4 -5 -5 1711.72 458.088 3
-4 -5 -5 1382.3 442.109 2
-5 9 -2 5327.78 892.947 3
-4 -5 -2 5352.5 729.83 2
9 -5 2 5721.32 983.326 2
9 -4 -2 5735.19 896.983 1
-5 9 -2 5733.37 937.629 1
-4 9 2 5143.12 893.471 4
-4 9 2 5255.29 874.902 3
-5 9 -2 5435.44 1021.43 2
9 -5 2 5601.48 927.429 1
-4 9 2 4782.67 635.315 1
9 -4 -2 4862.11 872.496 2
9 -5 -1 5456.59 947.846 2
-4 9 -1 5894.76 949.704 3
9 -4 1 6615.28 996.004 1
-5 9 1 5936.93 904.007 4
-4 9 -1 5929.03 900.266 1
-4 9 -1 6892.57 1006.4 4
9 -5 -1 6971.23 1008.55 1
-5 -4 -1 6238.77 865.642 2
9 -4 1 5434.94 951.386 2
-5 9 1 5542.32 742.395 2
-5 9 1 4519 699.756 1
-4 9 -4 2212.04 586.909 3
-5 9 4 2018.08 364.599 2
9 -4 4 2016.47 566.675 1
-5 9 4 2454.31 445.587 1
9 -4 4 2180.9 741.412 2
-5 9 4 2796.85 757.076 4
-5 -4 -4 2398.61 433.664 1
9 -5 -4 3110.34 654.338 1
-4 -5 4 1959.61 481.242 4
-4 9 -4 1772.87 530.286 1
-5 -4 -4 2043.2 535.408 2
9 -4 7 -236.182 182.328 2
9 -4 7 200.459 169.412 1
-5 -4 -7 342.639 172.241 1
-5 -4 -7 621.383 384.588 2
-4 9 -7 1020.14 503.194 1
9 -5 -7 686.86 306.11 1
-5 -4 -7 161.577 58.3675 3
-4 9 -7 1046.96 393.114 3
-4 9 -10 3702.3 676.049 3
-5 -4 -10 3694.6 553.214 3
9 -4 10 4625.97 1093.78 1
9 -4 10 1418.08 689.286 2
-5 -4 -10 3525.08 633.88 1
-4 9 -10 4590.32 1070.42 1
-4 9 -13 1074.21 439.054 1
9 -4 13 465.34 308.946 1
-5 -4 -13 724.689 232.234 3
9 -4 13 373.576 338.958 2
-5 -4 -13 656.054 368.19 1
-4 9 -16 582.286 513.751 1
-5 -4 -16 -36.205 136.198 1
9 -4 16 1031.56 865.939 2
-4 -5 16 135.141 123.952 3
-5 9 16 269.43 267.043 3
9 -6 15 125.378 263.884 2
-3 9 15 245.828 201.094 3
-3 -6 -15 94.9389 86.4795 1
9 -6 12 144.678 227.283 1
9 -6 12 -291.185 472.404 2
-3 9 12 209.157 39.0532 3
-3 -6 -12 198.854 30.8224 1
-6 9 -12 97.5758 66.63 3
-6 9 -12 154.451 178.625 1
-3 -6 -9 2100.44 458.997 3
9 -6 9 1093.35 860.339 2
9 -6 9 1615.42 629.941 1
-3 -6 -9 2804.44 480.161 1
-6 9 -9 3520.14 723.212 3
-3 9 9 2127.7 486.553 3
-6 9 -9 3516.76 965.262 1
-3 9 6 3146.33 638.108 3
9 -3 -6 2910.42 624.326 1
-6 9 -6 3861.86 745.514 3
9 -6 6 2672.62 747.588 1
9 -6 6 3179.79 982.122 2
-3 -6 -6 3530.6 706.966 2
-3 -6 -6 3205.11 579.938 3
-6 -3 6 2857.77 486.074 4
-6 9 -6 3307.67 821.753 1
-3 9 3 2483.96 608.889 3
-6 9 -3 1991.06 702.427 2
9 -6 3 2026.54 630.946 2
-6 9 -3 3565.93 822.023 1
-3 -6 -3 3407.49 568.757 2
-3 -6 -3 3779.51 681.987 3
-3 9 3 3043.05 768.371 4
9 -6 3 2308.81 609.421 1
9 -3 -3 2682.22 641.818 1
-3 9 3 2302.09 387.121 1
9 -3 0 7041.52 1041.49 2
9 -6 0 6345.81 997.572 2
-6 -3 0 7747.85 1035.46 2
9 -3 0 8036.56 1089.13 1
-3 9 0 8640.66 1119.95 3
-3 -6 0 7545.83 1007.8 3
-6 9 0 6708.76 923.733 1
-3 9 0 7467.67 892.906 1
-3 9 0 7596.23 1035.95 4
-6 9 0 8555.43 1073.06 2
9 -6 0 7756.56 1072.14 1
-3 9 -3 1270.38 476.533 3
-6 9 3 954.35 288.485 2
-6 9 3 1107.36 344.09 1
9 -3 3 554.261 294.789 1
9 -6 -3 370.282 268.59 1
-3 9 -3 563.274 296.069 1
-6 -3 -3 1013.14 419.597 2
9 -6 -3 982.38 291.94 4
-6 9 3 774.635 394.443 4
9 -3 3 639.86 333.977 2
-3 -6 3 686.87 302.705 4
-6 -3 -3 770.515 264.755 1
-3 9 -6 1879.3 607.791 1
-6 -3 -6 1696.65 445.747 1
9 -3 6 1948.78 729.387 2
-3 -6 6 1760.61 491.798 4
-6 9 6 1673.29 345.696 1
9 -3 6 1723.03 437.804 1
-3 9 -6 2017.69 468.45 3
9 -6 -6 2161.43 534.229 1
-6 9 6 1541.91 480.582 4
-6 -3 -6 2314.97 675.048 2
-3 9 -9 1410.31 457.882 3
9 -6 -9 1479.68 454.304 1
-6 -3 -9 1436.27 430.048 1
9 -3 9 1348.51 559.556 1
9 -3 9 1048.84 596.952 2
-3 9 -9 1486.45 618.604 1
-6 -3 -9 600.407 388.196 2
9 -3 12 1198.18 511.533 1
-6 -3 -12 1147.16 292.391 3
-3 9 -12 1150.17 456.691 1
9 -3 12 329.556 516.124 2
-3 -6 12 1352.52 521.268 3
-6 -3 -12 1047.32 392.024 1
-6 -3 -15 130.708 158.333 1
-3 -6 15 266.137 217.145 3
-3 9 -15 784.851 642.977 1
9 -3 15 425.798 568.82 2
9 -7 16 90.0346 456.582 2
-2 -7 -16 357.807 196.85 1
-7 9 -16 841.654 604.771 1
-2 9 16 668.686 307.191 3
-7 9 -13 825.398 282.287 3
-7 9 -13 1401.07 688.785 1
-2 -7 -13 690.447 289.394 1
9 -7 13 84.9868 447.837 2
-2 9 13 568.94 202.305 3
9 -7 10 3591.32 997.839 1
-7 9 -10 4143.41 770.593 3
9 -7 10 1865.68 914.877 2
-2 9 10 2566.03 539.874 3
-2 -7 -10 3540.98 632.125 3
-7 9 -10 3345.31 951.831 1
-2 -7 -10 3317.72 501.391 1
-7 9 -7 3048.85 843.599 1
-2 -7 -7 1762.05 430.764 3
-7 9 -7 2555.27 636.824 3
9 -7 7 2370.38 955.572 2
9 -7 7 2453.73 815.175 1
-7 -2 7 1750.24 370.643 4
-2 9 7 1657.74 407.113 3
9 -7 4 30351.8 2753.74 2
-7 9 -4 40150.8 2834.19 1
-2 -7 -4 33563 1977.43 3
-2 -7 -4 35944.1 1610.46 2
-2 9 4 29574.5 2360.48 4
9 -7 4 27731.3 2326.87 1
-2 9 4 34204.7 2199.1 3
9 -2 -4 31492.9 2032.68 1
-2 9 1 4508.5 613.602 1
-7 9 -1 5966.23 1026.7 2
9 -2 -1 5083.39 938.901 2
9 -7 1 5790.78 971.99 2
-7 -2 1 5594.78 948.826 2
-2 -7 -1 4524.8 800.405 3
-7 9 -1 4700.93 853.222 1
9 -2 -1 5383.12 851.067 1
-2 9 1 5359.79 918.001 4
9 -7 1 4905.18 907.738 1
-2 9 1 5838.43 924.352 3
-2 9 -2 3252.91 652.891 3
-7 9 2 2469.72 543.177 4
-2 9 -2 3059.33 681.134 4
-7 -2 -2 2984.91 675.479 2
9 -2 2 2269.98 616.623 2
-2 -7 2 2344.3 564.565 4
9 -7 -2 2985.16 676.021 1
9 -2 2 2631.88 628.453 1
-7 9 2 2491.96 497.543 2
9 -7 -2 2148.88 770.418 2
-7 -2 -2 2428.78 496.341 1
-2 9 -2 2200.98 515.421 1
-7 9 2 3008.5 582.08 1
-2 -7 2 2416.1 589.119 3
9 -2 5 -207.513 320.995 2
-7 -2 -5 -72.645 201.947 1
-2 9 -5 161.754 82.048 1
9 -2 5 498.821 263.905 1
9 -7 -5 227.881 110.559 4
-2 -7 5 44.9024 63.3521 4
-7 -2 -5 415.101 265.347 2
-2 9 -5 341.246 243.012 3
9 -7 -5 321.942 258.024 1
-7 9 5 -6.05738 103.848 1
-2 -7 5 104.703 113.434 3
-7 9 5 -13.2076 95.503 2
-7 9 5 292.071 187.138 4
-7 -2 -8 1573.6 841.422 2
-7 -2 -8 2310.84 515.174 1
-2 9 -8 2412.32 696.063 1
9 -7 -8 2164.06 536.651 1
9 -2 8 1669.41 767.29 2
9 -2 8 2677.92 723.385 1
-2 9 -8 3269.05 679.847 3
-2 -7 8 2549.38 636.912 3
9 -2 11 689.604 370.233 1
-7 -2 -11 513.025 155.884 3
9 -7 -11 618.098 329.171 1
9 -2 11 223.683 240.79 2
-2 -7 11 702.875 502.038 3
-7 -2 -11 421.664 216.476 1
-2 9 -11 369.597 200.205 1
-2 9 -14 333.152 389.621 1
9 -2 14 37.696 378.653 2
-7 -2 -14 429.126 165.981 3
-7 -2 -14 495.102 289.537 1
9 -2 14 1079.06 569.925 1
-2 -7 14 441.204 323.554 3
-7 -2 -17 805.529 487.651 1
-2 9 -17 675.228 444.553 1
9 -2 17 -68.5751 187.333 2
-2 -7 17 362.321 279.006 3
9 -8 17 -490.956 672.248 2
-1 9 17 101.036 124.388 3
-1 -8 -17 265.697 282.737 1
-8 9 -17 -158.356 330.707 1
9 -8 14 -214.836 386.833 2
-1 9 14 630.733 322.759 3
-1 -8 -14 772.337 308.634 1
-8 9 -14 640.399 316.579 3
-8 9 -14 547.794 217.665 1
-1 9 11 280.229 89.393 3
-1 -8 -11 314.683 148.543 1
-8 9 -11 406.385 298.375 1
-8 9 -11 305.581 176.452 3
-8 9 -8 2276.83 725.635 1
-8 -1 8 1493.99 324.172 4
-1 9 8 1892.99 477.862 3
9 -8 8 2231.66 807.625 1
-8 9 -8 2293.85 601.745 3
9 -8 8 899.725 667.481 2
-1 -8 -8 2094.29 528.69 3
9 -8 5 394.55 264.002 1
-8 9 -5 -73.9581 101.741 2
-1 9 5 157.501 41.6505 3
9 -8 5 56.4624 208.822 2
9 -1 -5 299.126 126.904 1
-1 -8 -5 454.064 254.616 3
-8 9 -5 392.572 342.603 1
-1 9 2 1552.92 321.246 1
9 -1 -2 2710.09 640.689 1
-8 9 -2 2708.08 746.233 1
9 -8 2 1320.14 580.975 2
-1 9 2 1372.68 509.202 4
-1 -8 -2 1282.99 449.546 3
-8 9 -2 2172.12 721.688 2
9 -8 2 1389.53 540.138 1
-1 9 2 1392.76 485.568 3
-1 9 -1 2447.01 627.697 3
9 -8 -1 1924.67 569.487 2
-8 -1 -1 2457.3 564.861 1
-8 9 1 2327.94 554.6 2
9 -8 -1 2945.73 709.624 1
9 -1 1 1941.08 596.264 2
9 -1 1 2520.85 620.767 1
-1 -8 1 2280.7 595.86 4
-1 9 -1 2825.54 570.148 1
-8 -1 -1 2560.89 666.267 2
-1 9 -1 2639.51 620.949 4
-8 9 1 2479.38 549.549 1
-1 -8 1 2304.84 571.617 3
9 -8 -4 10390.7 1214.03 1
-8 9 4 9572.66 1106.49 4
-8 -1 -4 10325.6 1352.03 2
9 -1 4 8672.23 1357.36 2
-8 9 4 7808.65 1049.28 2
-1 9 -4 9249.32 1135.12 3
-8 9 4 9293.51 1066.63 1
-1 -8 4 7622.36 1045.69 4
-8 -1 -4 8781.09 1065.89 1
9 -1 4 8847.76 1128.47 1
-1 -8 4 9051.33 1196.92 3
9 -8 -4 8766.83 931.751 4
9 -8 -7 6428.72 941.312 1
-8 -1 -7 6033.68 937.722 1
9 -1 7 5883.93 1281.05 2
-8 9 7 5258.96 769.067 1
-8 -1 -7 7861.6 1408.84 2
9 -1 7 6688 1091.55 1
-1 -8 7 7307.92 1132.97 3
-8 9 7 6245.46 969.44 4
-1 9 -7 6899.02 998.379 3
9 -1 10 623.649 242.599 2
-1 -8 10 1906.18 643.628 3
9 -1 10 1277.78 480.534 1
-1 9 -10 1703.6 637.89 1
-8 -1 -10 1068.23 378.363 1
9 -8 -10 1255.67 402.67 1
-8 -1 -10 433.464 169.415 2
9 -1 13 -15.5446 361.807 2
-8 -1 -13 578.943 229.958 3
9 -8 -13 848.826 410.432 1
-1 9 -13 1036.99 677.472 1
9 -1 13 770.727 438.066 1
-8 -1 -13 412.533 314.28 1
-8 -1 -16 617.411 442.218 1
-1 9 -16 -271.648 513.796 1
-1 -8 16 442.368 264.167 3
9 -1 16 -217.225 182.771 2
-9 9 -15 10.2232 120.718 1
0 -9 -15 160.027 49.988 1
0 9 15 52.8842 65.2565 3
-9 9 -15 99.0187 120.546 3
9 -9 15 -4.75372 408.845 2
9 -9 12 267.727 574.284 2
0 -9 -12 1286.4 334.243 1
-9 9 -12 1027.35 528.843 1
-9 9 -12 1910.21 530.467 3
0 9 12 1583.89 460.537 3
0 9 9 375.372 208.085 2
0 9 9 1396.62 416.185 3
9 -9 9 -18.3411 343.13 2
-9 9 -9 1890.18 705.866 1
9 -9 9 2420.19 761.086 1
9 -9 6 3235.76 939.166 1
-9 9 -6 281.196 352.021 2
0 -9 -6 3494.52 709.592 3
-9 9 -6 3217.13 854.354 1
0 9 6 3154.36 659.914 3
9 -9 6 1533.59 832.522 2
0 9 3 27645.5 1977.21 3
-9 9 -3 30609.6 2805.63 2
9 -9 3 23004.7 2189.26 1
0 -9 -3 24834.6 1852.55 3
0 9 3 25767.6 2268.75 4
9 -9 3 25024.9 2522.16 2
9 0 -3 29527.5 2023.09 1
0 9 3 22993.7 1025.66 1
-9 9 -3 26947.8 2320.06 1
0 -9 0 390.612 363.796 4
9 0 0 580.397 325.072 1
9 0 0 626.711 362.343 2
9 -9 0 66.1922 285.779 2
-9 0 0 544.575 333.548 1
0 9 0 484.833 358.422 3
-9 9 0 307.232 313.288 1
0 -9 0 57.3676 133.106 3
9 -9 0 459.191 269.835 1
-9 0 0 308.371 301.93 2
-9 9 0 205.547 226.743 2
0 9 0 655.317 388.986 4
-9 9 3 4315.2 761.379 2
-9 9 3 3300.42 640.724 1
0 9 -3 3449.21 669.938 3
-9 0 -3 3621.31 819.842 2
-9 0 -3 3421.52 705.606 1
9 -9 -3 3842.25 657.316 4
0 9 -3 3645.58 717.458 4
9 0 3 3263.18 677.976 1
9 -9 -3 3217.86 704.443 2
0 -9 3 3220.02 691.587 4
0 -9 3 3362.05 678.291 3
9 -9 -3 4285.78 759.122 1
9 0 3 3597.07 813.206 2
9 -9 -6 810.53 382.084 1
-9 9 6 455.146 243.069 1
-9 0 -6 406.37 313.883 1
-9 0 -6 1041.44 570.59 2
9 0 6 226.391 209.34 1
9 0 6 515.476 404.755 2
-9 9 6 239.838 37.045 4
0 -9 6 90.8196 209.442 3
-9 0 -9 251.166 152.182 2
9 0 9 1446.46 641.688 2
9 -9 -9 2262.43 550.644 1
9 0 9 2116.16 653.163 1
0 -9 9 2434.08 710.973 3
-9 0 -9 1750.16 549.099 1
-9 9 9 1668.34 483.403 4
9 -9 -12 2039.52 587.167 1
9 0 12 603.598 612.397 2
-9 0 -12 1381.52 517.792 1
0 -9 12 2192.08 670.074 3
9 0 12 2063.23 710.351 1
9 0 15 1197.1 830.605 2
0 9 -15 1390.66 740.791 1
9 -9 -15 294.031 94.313 1
0 -9 15 1868.37 681.677 3
-9 0 -15 1092.16 552.354 1
9 0 15 1094.94 565.804 1
1 -10 -16 62.2023 168.354 1
9 -10 16 324.495 590.881 2
1 9 16 -113.566 101.95 2
-10 9 -16 126.806 15.2317 1
-10 9 -16 205.453 191.059 3
-10 9 -13 2215.09 560.279 3
9 -10 13 360.038 354.274 2
1 9 13 1717.48 465.069 3
-10 9 -13 2744.6 955.262 1
1 -10 -13 2154.9 443.049 1
1 9 13 340.017 232.156 2
1 9 10 -490.115 311.784 2
9 -10 10 -371.203 183.255 2
1 9 7 2144.3 543.791 3
-10 9 -7 2503.07 757.044 1
9 -10 7 492.22 787.329 2
9 -10 7 2435.98 813.913 1
1 -10 -7 2844.8 682.958 3
1 9 7 2415.87 464.182 2
-10 9 -7 319.042 425.188 2
-10 9 -4 119.053 118.595 1
-10 9 -4 530.43 509.922 2
9 -10 4 353.204 327.004 2
9 1 -4 371.454 181.519 1
1 -10 -4 380.679 180.169 3
9 1 -4 364.626 135.084 4
1 9 4 381.414 167.947 3
9 -10 4 607.811 394.055 1
1 9 1 4427.33 816.45 3
-10 9 -1 4606.28 903.564 1
1 9 1 4762.14 976.547 4
-10 1 1 4079.93 792.092 1
9 -10 1 4067.2 843.503 1
1 -10 -1 3517.52 758.797 3
-10 9 -1 4472.58 989.806 2
9 -10 1 3372.33 744.639 2
1 -10 -1 3801.25 876.031 4
-10 1 1 4173.85 900.569 2
9 1 -1 3691.98 730.321 1
-10 1 -2 707.085 409.322 1
1 -10 2 621.215 263.4 4
9 -10 -2 1359.3 575.329 2
-10 9 2 2062.02 576.304 2
-10 9 2 1499.41 461.799 1
9 1 2 662.982 395.709 2
-10 1 -2 757.338 325.038 2
9 -10 -2 1153.99 381.324 4
1 -10 2 1138.35 451.784 3
9 1 2 1051.28 450.817 1
1 9 -2 1743.47 572.371 4
1 9 -2 1462.3 497.077 3
9 -10 -2 1302.09 436.573 1
9 1 5 1581.74 442.664 1
-10 1 -5 1896.68 490.344 1
1 -10 5 1824.65 635.263 4
-10 9 5 1396.33 438.953 1
-10 9 5 2164.01 477.544 4
9 -10 -5 1452.99 423.533 4
9 -10 -5 1934.17 450.061 1
9 1 5 1553.56 474.602 2
-10 9 5 1948.15 574.124 2
-10 1 -5 2487.98 723.822 2
1 -10 5 1766.61 512.922 3
-10 1 -8 1729.92 577.855 1
-10 1 -8 464.138 339.023 2
9 -10 -8 1998.34 546.39 1
9 1 8 1650.5 693.424 2
1 -10 8 1641.37 613.288 3
9 1 8 1369.29 493.072 1
-10 9 8 1819.63 470.349 4
-10 1 -11 559.692 531.608 2
9 1 11 870.717 394.678 1
9 -10 -11 1242.26 429.323 1
9 1 11 74.4819 306.755 2
-10 1 -11 911.283 457.932 1
-10 1 -14 235.863 271.487 1
1 -10 14 551.911 373.972 3
9 1 14 342.575 163.855 1
9 1 14 598.736 499.691 2
9 -10 -14 236.813 66.0916 1
1 9 -17 107.646 374.738 1
9 1 17 89.6199 459.152 2
9 -10 -17 -298.189 467.484 1
1 -10 17 76.6022 142.006 3
-10 1 -17 250.986 369.2 1
9 -11 17 -124.505 410.06 2
-11 9 -17 -34.3927 104.32 3
-11 9 -17 -362.269 609.64 1
2 -11 -17 93.7263 184.302 1
2 9 17 -220.834 289.207 2
9 -11 14 -140.136 396.039 2
2 9 14 40.4643 155.58 2
-11 9 -14 364.759 315.886 1
-11 9 -14 198.691 266.992 3
2 -11 -14 243.466 163.089 1
-11 9 -11 239.79 142.854 1
2 -11 -11 317.781 128.483 1
2 9 11 410.399 261.846 2
2 -11 -11 415.733 170.641 1
9 -11 11 -153.39 445.374 2
9 -11 8 342.723 457.62 2
9 -11 8 1010.65 513.978 1
2 9 8 1280.41 406.797 2
2 9 8 562.14 297.649 3
-11 9 -8 740.413 392.268 1
-11 9 -8 249.837 414.874 2
9 -11 5 4042.61 1019.98 1
2 9 5 1819.61 367.77 2
-11 9 -5 4347.52 1237.95 2
2 -11 -5 4214.66 826.216 3
9 2 -5 3736.06 536.346 4
2 9 5 3083.93 684.668 3
-11 9 -5 4602.03 1031.5 1
9 -11 5 2157.23 1066.08 2
9 2 -2 3082.51 672.343 1
-11 9 -2 3159.9 775.175 1
-11 2 2 3151.16 736.85 1
2 -11 -2 3900.49 820.445 3
-11 9 -2 3936.9 921.153 2
2 9 2 3813.63 857.998 4
-11 2 2 4192.41 932.641 2
9 -11 2 3480.2 938.488 2
2 9 2 3345.97 708.346 3
9 -11 2 4674.96 956.074 1
2 -11 -2 3111.51 863.027 4
2 9 -1 13178.2 1522.33 4
-11 2 -1 14629.6 1733.93 2
2 -11 1 11667.9 1377.43 3
-11 9 1 13074.7 1546.52 2
9 -11 -1 10910 1285.61 2
9 -11 -1 14632.7 1495.32 1
-11 2 -1 12491.8 1501.07 1
9 2 1 13177.2 1379.4 1
2 -11 1 11186.3 1429.56 4
9 -11 -1 13686.1 1571.49 4
9 2 1 11791.7 1430.03 2
-11 9 1 12878.1 1524.33 1
-11 2 -4 4528.88 905.661 1
9 -11 -4 4591.97 857.389 4
9 2 4 4097.07 889.441 2
2 -11 4 4072.95 897.698 4
-11 9 4 3391.6 741.382 1
9 2 4 4265.9 748.099 1
2 9 -4 3710.25 760.99 4
-11 2 -4 4665.44 1046.69 2
9 -11 -4 3269.19 811.556 2
2 -11 4 3980.79 802.071 3
9 -11 -4 4728.82 805.683 1
-11 9 4 3978.74 899.715 2
2 -11 7 1831.19 599.501 3
-11 9 7 1856.95 548.875 1
9 2 7 1748.8 585.521 2
-11 2 -7 2017.76 671.99 1
9 2 7 2039.8 566.821 1
-11 9 7 2073.17 467.643 4
9 -11 -7 2075.84 546.758 1
-11 2 -7 2506.15 860.992 2
-11 2 -10 2144.57 665.303 1
9 2 10 1821.78 641.725 2
2 -11 10 2568.94 733.637 3
9 2 10 2544.95 734.091 1
9 -11 -10 2363.03 595.024 1
-11 2 -10 2285.11 979.686 2
-11 9 10 2145.26 560.004 4
9 2 13 -191.298 454.794 2
9 2 13 348.783 237.238 1
-11 2 -13 79.3369 178.362 1
9 -11 -13 412.438 151.986 1
2 -11 13 268.484 143.282 3
-11 2 -16 -80.9672 130.866 1
2 -11 16 -392.339 307.302 3
9 2 16 289.956 317.02 2
9 -11 -16 -64.4757 192.064 1
9 2 16 -171.62 205.426 1
3 9 15 -63.3632 98.028 2
-12 9 -15 123.436 201.232 1
-12 9 -15 562.163 272.897 3
9 -12 15 107.935 200.881 2
3 -12 -15 405.531 193.151 1
3 -12 -15 615.234 425.318 1
3 9 12 359.048 224.977 2
-12 9 -12 810.356 529.664 1
3 -12 -12 682.19 236.546 1
9 -12 12 -0.69486 356.635 2
3 -12 -12 463.99 163.869 1
3 9 9 3043.97 608.044 2
9 -12 9 2234.87 1388.4 2
-12 9 -9 4562.59 1129.79 1
9 3 -6 4854.8 689.512 4
9 -12 6 4642.49 1116.87 1
9 -12 6 3766.67 1179.46 2
-12 9 -6 5990.33 1239.13 1
3 9 6 4788.41 680.118 2
-12 9 -6 4517.15 1482.78 2
9 3 -3 2415.32 530.625 4
3 -12 -3 1514.93 465.069 3
9 -12 3 1172.06 540.719 2
-12 9 -3 2021.93 712.718 2
9 3 -3 2163.73 580.006 1
3 -12 -3 1940.08 773.117 4
-12 3 3 2192.6 801.1 2
-12 9 -3 2299.99 702.783 1
9 -12 3 1696.5 644.384 1
3 -12 -3 1515.03 356.953 1
-12 3 3 1934.46 576.867 1
-12 3 0 595.962 281.198 1
9 -12 0 523.634 182.619 2
-12 3 0 299.739 312.975 2
3 -12 0 145.403 141.764 3
9 -12 0 422.222 202.631 1
-12 9 0 271.393 334.664 1
3 9 0 -138.987 207.005 4
9 -12 0 642.445 417.562 4
3 -12 0 156.9 221.155 4
-12 9 0 762.262 456.138 2
9 3 0 429.915 160.852 1
3 -12 3 3514.72 789.424 3
-12 9 3 4488.34 959.185 2
9 -12 -3 4402.22 1022.04 2
9 3 3 3731.1 714.984 1
9 -12 -3 4621.39 800.598 1
3 -12 3 3841.33 902.004 4
-12 9 3 4220.1 880.281 1
3 9 -3 4130.91 829.34 4
9 -12 -3 4045.69 806.944 4
-12 3 -3 5047.71 1087.89 2
9 3 3 3469.83 838.482 2
-12 3 -3 3914.45 903.327 1
3 -12 6 1112.27 495.835 3
9 3 6 957.515 460.915 2
9 -12 -6 1496.2 507.487 4
9 3 6 1367.98 425.121 1
9 -12 -6 1622.05 495.913 1
-12 3 -6 974.027 593.421 2
-12 9 6 1689.58 548.429 1
-12 9 6 1911.68 693.96 2
-12 3 -6 1117.05 512.23 1
3 -12 9 2806.02 772.42 3
9 3 9 1516.45 575.868 2
9 3 9 1498.86 527.547 1
-12 3 -9 2247.43 735.884 1
-12 3 -9 -44.8993 252.418 2
-12 9 9 1549.8 416.23 4
9 -12 -9 1818.22 485.962 1
9 3 12 214.302 187.561 2
9 3 12 732.44 352.977 1
9 -12 -12 462.006 208.285 1
-12 3 -12 319.17 308.681 1
3 -12 12 554.97 251.757 3
-12 9 12 911.784 369.54 4
3 -12 15 456.574 239.137 3
-12 3 -15 124.197 136.465 1
9 3 15 4.4647 295.463 2
9 3 15 335.716 380.786 1
9 -12 -15 379.145 116.36 1
4 -13 -16 -29.1261 67.4792 1
-13 9 -16 -278.105 454.76 1
4 -13 -16 225.549 235.073 1
-13 9 -16 151.972 82.2588 3
9 -13 16 445.222 685.472 2
4 9 16 -241.771 144.738 2
4 -13 -13 550.183 213.467 1
-13 9 -13 324.374 344.948 1
4 9 13 304.551 234.42 2
4 -13 -10 159.93 75.8931 1
-13 9 -10 296.524 146.973 1
4 9 10 289.653 202.496 2
9 -13 10 138.656 320.808 2
4 9 10 124.138 53.9428 1
9 -13 7 2962.5 953.068 1
9 -13 7 1071.18 889.115 2
4 9 7 2519.89 387.72 1
-13 9 -7 3444.93 952.308 1
4 -13 -7 2755.58 369.426 1
4 9 7 3009.98 569.27 2
-13 9 -7 3165.09 1230.37 2
9 4 -4 2192.39 513.034 4
4 9 4 1533.61 358.145 1
9 -13 4 1443.54 683.947 2
-13 9 -4 2055.63 703.725 1
-13 4 4 1384.65 493.411 1
4 -13 -4 1761.57 393.532 1
9 -13 4 2034.78 749.263 1
-13 9 -4 2766.41 891.405 2
-13 4 4 2183.97 750.862 2
4 -13 -4 1793.49 809.072 4
9 4 -1 3451.45 733.138 1
9 -13 1 4350.92 1232.84 4
4 -13 -1 2896.28 735.563 3
4 -13 -1 1951.05 667.965 2
-13 9 -1 4657.67 1025.89 2
-13 9 -1 4131.93 941.7 1
9 -13 1 3609.48 853.481 1
9 -13 1 3136.95 818.767 2
4 -13 -1 3309.84 645.024 1
-13 4 1 3997.76 982.867 2
4 -13 -1 3013.78 818.698 4
-13 4 1 3949.98 888.79 1
4 9 1 3677.84 900.033 4
-13 4 -2 838.172 500.569 2
9 -13 -2 489.609 301.579 1
9 4 2 539.887 310.486 1
9 -13 -2 19.5655 228.678 2
4 -13 2 670.704 254.733 4
4 9 -2 933.377 430.024 4
4 -13 2 80.4448 31.7932 3
9 4 2 258.184 152.742 2
-13 9 2 472.573 266.481 2
4 -13 2 272.593 222.365 1
9 -13 -2 805.254 380.398 4
-13 4 -2 335.999 169.707 1
-13 9 2 523.294 397.668 1
-13 4 -5 -5.51672 269.608 2
-13 4 -5 236.356 286.674 1
9 4 5 100.622 158.8 1
4 -13 5 -106.774 129.511 4
-13 9 5 213.006 240.391 2
9 -13 -5 35.3007 150.754 4
9 -13 -5 437.165 208.473 1
-13 9 5 296.237 266.233 1
4 9 -5 229.222 254.41 4
4 -13 5 43.693 182.261 3
9 4 5 235.481 269.769 2
-13 4 -8 3249.52 858.566 1
9 4 8 4005.49 782.718 1
9 -13 -8 3478.78 668.195 1
-13 4 -8 377.815 657.743 2
9 4 8 3433.69 893.295 2
-13 9 8 3836.94 613.941 4
-13 9 8 3097.52 781.643 1
4 -13 8 3216.18 808.622 3
9 4 11 611.004 459.363 2
4 -13 11 1078.81 550.866 3
-13 9 11 677.464 261.033 4
-13 4 -11 485.461 300.92 1
9 4 11 595.391 242.391 1
9 -13 -11 510.65 246.242 1
-13 4 -14 408.051 382.083 1
9 4 14 -475.273 401.529 2
4 -13 14 621.947 264.659 3
9 -13 -14 138.011 174.188 1
9 4 14 166.431 172.635 1
9 -14 14 385.909 357.364 2
-14 9 -14 45.9845 284.867 1
5 9 14 387.527 403.105 2
5 -14 -14 73.3893 172.677 1
5 -14 -11 1781.38 348.166 1
-14 9 -11 2877.59 933.021 1
5 9 11 1699.86 355.515 1
5 9 11 1667.96 527.386 2
-14 9 -8 1922.17 697.01 1
5 9 8 1496.62 351.259 1
5 9 8 2206.66 577.237 2
5 -14 -8 1673.47 331.787 1
9 -14 8 704.112 811.8 2
-14 5 5 647.576 346.9 1
9 -14 5 558.587 475.213 1
5 9 5 462.099 234.971 2
9 -14 5 -61.3656 258.788 2
-14 9 -5 473.113 343.084 2
5 9 5 572.571 236.445 1
-14 5 5 882.462 534.426 2
5 -14 -5 516.671 224.152 1
9 5 -5 759.77 371.723 4
-14 9 -5 567.068 337.52 1
-14 9 -2 1756.99 615.777 1
5 -14 -2 1133.72 434.168 3
-14 5 2 1036.55 622.116 2
9 -14 2 1270.9 561.176 2
-14 5 2 1422.01 521.061 1
9 5 -2 1192.37 427.011 1
5 -14 -2 1228.08 373.329 1
-14 9 -2 1613.92 626.432 2
5 -14 -2 1374.36 591.916 4
9 -14 2 1321.6 539.303 1
9 -14 2 1849.31 1000.01 4
9 5 -2 1683.88 505.766 4
5 -14 -2 1309.11 371.15 2
5 -14 1 4993.27 1059.03 4
5 -14 1 4121.87 823.307 1
-14 5 -1 5927.91 1199.22 2
-14 9 1 5562.04 1086.76 1
5 -14 1 4891.48 967.751 3
5 9 -1 4260.99 900.412 4
-14 9 1 6946.39 1264.17 2
9 -14 -1 5537.69 1091.81 4
5 -14 1 4437.78 899.253 2
9 -14 -1 6013.16 1033.19 1
9 5 1 4637.63 844.068 1
-14 5 -1 5604.57 1117.64 1
9 -14 -1 4480 823.211 2
9 5 4 -154.171 269.062 2
9 -14 -4 534.169 333.449 4
-14 5 -4 328.143 168.915 2
5 -14 4 274.248 217.321 1
5 -14 4 497.069 410.454 4
-14 9 4 146.987 117.081 1
9 5 4 147.617 184.348 1
5 9 -4 30.6945 191.189 4
5 -14 4 235.995 234.652 3
-14 9 4 260.924 315.714 2
9 -14 -4 170.887 122.342 2
9 -14 -4 343.354 232.063 1
-14 5 -4 427.538 313.236 1
-14 9 7 780.811 340.688 1
5 -14 7 1553.82 593.814 3
9 -14 -7 1056.45 337.434 1
9 5 7 1174.96 457.809 2
-14 9 7 1412.7 649.156 2
-14 5 -7 1061.47 436.177 1
9 5 7 1388.91 479.883 1
-14 5 -7 963.488 595.273 2
9 5 10 314.555 152.939 1
-14 5 -10 219.594 103.745 1
9 5 10 -252.934 249.292 2
9 -14 -10 301.665 253.203 1
5 -14 10 584.084 366.333 3
-14 9 10 275.147 150.465 4
9 5 13 318.698 347.17 1
9 -14 -13 111.747 163.479 1
-14 9 13 44.7803 127.609 4
9 5 13 -169.037 337.96 2
-14 5 -13 368.27 354.791 1
5 -14 13 -79.5795 120.322 3
9 5 16 195.261 100.274 2
-14 5 -16 -56.4415 369.526 1
9 5 16 581.936 375.719 1
9 -14 -16 300.658 388.616 1
6 -15 -15 531.339 257.318 1
6 9 15 374.365 148.318 2
9 -15 15 414.602 749.501 2
-15 9 -15 285.029 281.563 1
9 -15 12 -54.5686 310.922 2
-15 9 -12 617.283 515.55 1
6 -15 -12 513.251 195.68 1
6 9 12 408.91 164.128 1
6 9 12 455.768 229.91 2
-15 9 -9 215.383 232.625 1
6 9 9 277.118 144.693 1
9 -15 9 -325.04 419.928 2
6 9 9 339.516 228.734 2
6 -15 -9 472.004 172.743 1
9 6 -6 1259.23 498.402 4
-15 9 -6 1621.14 676.775 1
6 -15 -6 1596.29 405.228 1
6 9 6 322.649 310.851 2
9 -15 6 272.474 529.817 2
9 -15 6 390.112 261.135 1
6 9 6 1061.45 348.776 1
-15 6 6 1037.28 501.237 1
-15 6 6 1376.37 699.471 2
-15 6 3 543.816 244.719 1
9 6 -3 1246.33 447.321 4
9 -15 3 54.0812 335.721 2
-15 9 -3 786.845 490.183 2
-15 6 3 197.138 276.846 2
-15 9 -3 1011.88 536.156 1
6 -15 -3 803.706 226.898 2
9 -15 3 1217.22 541.206 1
6 9 3 614.677 258.131 1
6 -15 -3 707.717 263.638 1
6 -15 -3 1044.4 537.319 4
-15 9 0 9735.91 1543.86 2
-15 6 0 10068 1605.27 2
6 -15 0 7876.18 1150.61 1
-15 9 0 11022.6 1628.33 1
9 6 0 9450.97 1290.46 1
9 -15 0 7864.42 1415.84 4
9 -15 0 9586.91 1380.4 1
-15 6 0 9914.17 1527.85 1
9 -15 0 7176.16 1151.17 2
6 -15 0 7529.24 1337.58 4
6 9 0 9725.84 1485.87 4
6 -15 0 9428.49 1330.1 2
6 -15 3 1830.31 654.183 3
9 6 3 1431.49 544.732 2
-15 6 -3 2173.36 787.188 2
9 -15 -3 1256.76 507.691 2
6 -15 3 2016.18 671.797 1
-15 9 3 2307.75 746.598 1
9 6 3 1767.74 512.228 1
6 -15 3 1648.88 587.24 2
-15 9 3 1971.58 741.272 2
9 -15 -3 2181.5 709.364 4
6 -15 3 2268.46 770.897 4
6 9 -3 2104.03 623.195 4
-15 6 -3 2547.23 803.497 1
9 -15 -3 2103.15 572.036 1
6 -15 6 2722.66 815.373 1
9 -15 -6 1601.23 567.978 4
9 -15 -6 2193.32 538.998 1
6 -15 6 2655.12 795.62 3
-15 9 6 1932.77 613.6 1
-15 6 -6 2434.09 881.933 1
-15 6 -6 1748.89 888.087 2
9 6 6 2563.45 696.793 2
-15 9 6 2246.46 792.456 2
6 9 -6 2390.9 681.109 4
9 6 6 2272.93 569.12 1
9 -15 -9 536.6 272.015 1
9 6 9 578.296 444.568 2
6 -15 9 629.301 341.907 3
9 6 9 623.623 332.339 1
-15 6 -9 727.517 448.643 1
-15 9 12 338.428 189.79 4
9 6 12 206.204 199.918 2
9 6 12 403.379 322.29 1
6 -15 12 105.586 183.817 3
9 -15 -12 556.968 268.676 1
-15 6 -12 674.738 558.246 1
9 6 15 713.591 318.438 1
9 6 15 -65.0679 232.243 2
-15 6 -15 1052.2 605.11 1
9 -15 -15 1207.32 563.915 1
-15 9 15 221.381 65.5199 4
7 9 13 427.976 179.54 1
-16 9 -13 644.509 562.995 1
9 -16 13 101.367 407.555 2
7 9 13 45.2537 192.2 2
7 -16 -13 387.115 160.716 1
-16 9 -10 1866.05 730.593 1
7 9 10 1318.5 502.847 2
7 9 10 2193.25 516.487 1
7 -16 -10 1755.96 406.785 1
-16 9 -7 230.772 97.4678 1
7 -16 -7 703.46 270.259 1
9 -16 7 -200.676 164.995 2
7 9 7 1064.18 344.317 1
7 9 7 518.98 259.316 2
9 7 -7 605.534 245.138 4
-16 7 7 363.344 265.184 1
-16 7 4 4908.05 1110.09 1
7 9 4 4714.56 771.593 1
9 -16 4 5770.46 1206.86 1
-16 7 4 4289.76 1225.01 2
7 -16 -4 3449.03 1000.13 4
7 -16 -4 4889.31 815.883 1
7 -16 -4 3555.69 909.958 2
-16 9 -4 6480.35 1334.99 1
9 -16 4 3894.28 1200.62 2
-16 9 -4 6386.5 1428.61 2
9 7 -4 5769.39 968.861 4
9 7 -1 3203.19 796.705 4
7 -16 -1 2640.46 666.55 1
9 7 -1 3874.34 860.184 1
7 9 1 2678.15 784.213 4
9 -16 1 3207.72 964.574 2
9 -16 1 2909.08 791.134 1
-16 9 -1 3937.32 1025.04 1
-16 9 -1 4358.01 1081.24 2
-16 7 1 4185.91 1031.67 2
9 -16 1 2973.43 945.503 4
7 -16 -1 2456.43 745.705 4
-16 7 1 3283.75 893.071 1
7 -16 -1 2842.68 594.152 2
7 -16 2 2106.5 716.797 1
9 -16 -2 2391.29 685.168 1
7 9 -2 2124.82 687.608 4
-16 9 2 2669.6 862.421 2
9 7 2 1782.3 537.845 1
-16 9 2 2292.33 732.392 1
7 -16 2 1149.86 716.289 2
7 -16 2 2032.45 791.41 4
9 -16 -2 1921.94 728 4
9 -16 -2 1537.67 466.897 2
-16 7 -2 3261.17 918.943 2
-16 7 -2 2541.31 809.381 1
7 -16 5 1065.55 463.21 1
9 7 5 1158.27 370.154 1
7 -16 5 999.531 603.717 2
7 9 -5 1929.58 571.919 4
-16 9 5 1506.25 543.683 1
-16 7 -5 1558.82 693.822 1
-16 9 5 942.647 487.884 2
9 -16 -5 1893.84 525.021 1
9 7 5 1186.77 535.247 2
9 -16 -5 1998.62 756.475 4
-16 7 -8 197.622 273.627 1
9 -16 -8 347.417 207.709 1
9 7 8 516.492 240.741 1
7 -16 8 198.064 328.16 2
-16 9 8 175.295 245.557 1
9 7 8 349.556 346.949 2
9 -16 -11 1038.54 321.332 1
9 7 11 2203.07 630.516 1
9 7 11 1647.78 604.243 2
-16 7 -11 1779.99 732.374 1
9 7 14 28.4081 217.801 2
9 7 14 580.823 352.232 1
9 -16 -14 123.115 167.975 1
-16 7 -14 691.314 569.145 1
-16 9 14 279.101 160.745 4
8 9 14 545.605 176.528 1
9 -17 14 290.421 549.253 2
8 -17 -14 656.642 200.9 1
-17 9 -14 619.425 522.388 1
8 9 14 627.436 316.549 2
8 -17 -11 494.683 222.696 1
8 9 11 258.352 164.238 2
-17 9 -11 266.285 297.126 1
9 -17 11 -104.961 285.823 2
8 9 11 817.315 407.876 1
-17 9 -8 1088.75 590.622 1
9 -17 8 498.775 657.71 2
8 9 8 1242.02 433.7 1
-17 8 8 674.95 386.622 1
8 9 8 1221.74 515.823 2
8 -17 -8 1205.69 382.199 1
9 -17 5 1591.09 864.906 2
9 8 -5 2083.17 653.725 4
-17 9 -5 2854.3 909.64 1
8 -17 -5 1843.86 529.506 1
8 -17 -5 943.375 497.318 4
8 9 5 1756.21 491.215 1
8 9 5 1056.39 456.804 2
-17 8 5 1715.79 674.58 1
-17 9 -2 2237.87 849.662 2
8 -17 -2 722.182 378.323 4
8 9 2 1002.27 436.511 1
9 -17 2 739.331 501.515 1
8 -17 -2 770.535 412.122 1
9 -17 2 964.77 535.067 2
-17 8 2 718.725 453.9 1
8 -17 -2 156.292 46.3805 2
-17 9 -2 2022.01 774.633 1
9 -17 2 478.616 84.332 4
-17 8 2 349.425 239.489 2
9 8 -2 468.264 191.479 4
-17 8 -1 2465 862.925 1
8 -17 1 882.75 358.564 1
-17 9 1 2021.26 765.247 1
-17 9 1 2165.29 838.37 2
9 8 1 1796.26 607.172 1
8 -17 1 1227.02 585.563 4
8 -17 1 815.511 443.281 2
-17 8 -1 2479.58 820.655 2
9 -17 -1 1115.3 559.665 4
9 -17 -1 831.786 324.486 2
9 -17 -1 979.711 473.396 1
8 9 -1 1176.61 541.233 4
8 -17 4 446.412 337.381 1
-17 9 4 40.6561 84.5177 2
8 -17 4 262.533 243.931 2
9 -17 -4 312.203 313.963 2
9 8 4 190.477 141.554 1
-17 8 -4 1090.73 621.391 1
9 8 4 128.682 174.084 2
9 -17 -4 426.561 181.312 1
9 -17 -4 607.681 454.936 4
8 9 -4 -0.73109 61.9378 4
-17 9 4 47.8081 193.9 1
9 -17 -7 244.97 218.881 1
8 -17 7 73.0056 100.969 2
9 8 7 347.725 276.75 2
-17 8 -7 796.242 527.256 1
8 9 -7 618.555 348.538 4
9 8 7 371.458 267.161 1
-17 9 7 451.508 268.582 1
8 -17 10 -313.357 474.792 2
-17 8 -10 611.423 429.756 1
9 -17 -10 825.281 330.528 1
9 8 10 1056.16 496.316 2
9 8 10 1142.63 392.423 1
9 8 13 294.242 168.311 2
8 -17 13 -297.299 321.405 2
9 8 13 -133.293 138.64 1
-17 8 -13 416.486 371.048 1
9 -17 -13 154.997 124.05 1
9 -18 0 1994.61 660.167 2
9 -18 0 1254.26 513.348 1
9 9 0 1313.54 486.056 1
9 9 0 1302.21 559.394 4
-18 9 0 1909.7 820.016 1
9 -18 3 3915.81 1049.47 1
9 -18 -3 3896.77 773.704 2
9 -18 -3 3888.5 823.25 1
-18 9 -3 4795.8 1224.83 1
9 -18 3 3376.27 959.874 2
9 9 3 3328.93 755.188 1
9 9 -3 3191.94 823.172 4
-18 9 3 3659.12 967.055 1
9 -18 -3 3238.38 972.575 4
-18 9 6 -194.634 358.317 1
9 9 -6 485.31 335.161 4
9 -18 6 586.919 600.209 2
9 -18 -6 146.357 126.214 1
9 9 6 312.891 259.99 1
-18 9 -6 264.71 307.684 1
9 9 6 -124.223 276.588 2
9 -18 9 -249.452 436.4 2
9 9 9 372.049 272.206 2
9 -18 -9 670.37 312.374 1
-18 9 -9 169.24 325.713 1
9 9 9 401.681 255.456 1
9 9 12 207.424 125.311 2
9 -18 -12 380.705 172.761 1
9 9 12 19.2524 164.591 1
9 -18 12 -283.111 544.11 2
-18 9 -12 -40.8582 213.233 1
-5 10 0 3132.46 679.926 4
10 -5 0 3468.68 758.996 2
10 -5 0 5047.01 905.242 1
-5 10 0 3598.79 772.785 3
-5 10 0 3154.14 660.223 2
-5 10 0 3354.88 666.608 1
10 -5 3 4171.11 912.041 2
-5 10 3 3701.93 459.832 2
-5 -5 3 3740.13 741.682 4
-5 10 3 4251.03 604.25 1
10 -5 3 4134.1 837.073 1
-5 10 -3 4119.1 828.816 1
-5 -5 -3 3176.52 450.618 1
10 -5 -3 4306.22 780.8 1
-5 10 -3 4792.66 867.775 3
-5 10 3 4323.08 906.532 4
-5 -5 -3 4727.27 777.866 2
-5 10 3 4378.29 788.305 3
-5 10 -6 2016.57 656.535 1
-5 -5 6 1081.69 360.955 4
-5 -5 -6 1438.86 393.108 3
10 -5 -6 1500.05 509.741 1
-5 -5 -6 1803.55 630.095 2
10 -5 6 1173.91 479.159 1
-5 10 6 1736.59 307.998 1
10 -5 6 1073.63 483.175 2
-5 10 6 1379.44 490.027 4
-5 -5 -6 1427.67 332.669 1
-5 10 -6 1936.29 566.288 3
-5 10 -9 1118.98 502.865 1
-5 -5 -9 747.581 276.174 3
10 -5 9 908.576 584.535 2
10 -5 9 1380.26 630.4 1
-5 10 -9 930.588 361.419 3
-5 -5 -9 983.801 331.773 1
10 -5 -9 398.088 235.912 1
-5 -5 -12 524.444 191.815 3
-5 10 -12 414.192 396.557 1
10 -5 12 47.3767 324.605 2
-5 10 -12 739.43 273.357 3
-5 -5 -12 437.675 184.175 1
10 -5 12 991.167 353.454 1
10 -5 15 -121.219 473.643 2
-5 10 15 185.754 152.344 3
-5 -5 -15 402.728 221.844 1
-5 10 -15 352.758 347.474 1
-6 10 -16 37.9676 258.881 1
10 -6 16 189.486 322.946 2
-4 -6 -16 -51.5022 70.1418 1
-4 10 16 65.7456 168.423 3
10 -6 13 1041.13 532.573 2
-4 10 13 796.017 409.135 3
-6 10 -13 1016.44 398.712 3
-6 10 -13 954.286 581.867 1
-4 -6 -13 496.137 265.289 1
10 -6 10 1303.94 540.247 1
-6 10 -10 1971.68 696.397 1
-4 10 10 753.354 116.344 3
-4 -6 -10 1183.93 338 3
-4 -6 -10 1301.77 315.055 1
10 -6 10 261.447 216.943 2
-6 10 -10 1690.11 477.463 3
-6 10 -7 2712.07 644.081 3
-4 10 7 2421.58 602.903 3
10 -6 7 1529.51 683.354 2
10 -6 7 1892.28 694.321 1
10 -4 -7 1329.34 430.445 1
-6 -4 7 1678.38 433.817 4
-4 -6 -7 1677.11 330.963 1
-4 -6 -7 1459.07 378.333 3
-6 10 -7 2548.12 730.591 1
-4 -6 -7 2328.4 710.012 2
-4 10 4 3472.03 723.937 3
-4 10 4 3754.96 512.489 1
-6 -4 4 3958.21 740.857 4
-6 10 -4 3548.24 754.825 3
-4 -6 -4 2878.94 540.788 2
-4 10 4 4103.8 948.204 4
-6 10 -4 3118 790.857 1
10 -6 4 3957.9 993.276 2
10 -6 4 4788.28 943.638 1
10 -4 -4 4618.82 821.598 1
-4 -6 -4 3587.63 680.397 3
-6 10 -1 34123.6 2486.31 2
10 -4 -1 30868.4 2319.67 2
-4 -6 -1 32826.5 1901.33 2
10 -4 -1 37876.1 2495.95 1
-6 10 -1 37125.1 2513.13 1
10 -6 1 32175 2394.41 2
-4 10 1 36303.2 2370.76 4
-6 10 -1 31216.4 2170.98 3
-4 10 1 33131.5 2359.05 3
10 -6 1 36227.6 2442.15 1
-4 10 1 34064 2021 1
-4 10 -2 6569.22 988.039 1
-4 10 -2 7116.56 1050.94 3
-6 10 2 6307.82 765.068 2
10 -4 2 4710.9 947.302 2
-6 -4 -2 6669.73 973.648 2
-6 -4 -2 4125.52 575.922 1
10 -6 -2 5746.12 929.594 1
-6 10 2 5268.4 881.26 4
-4 -6 2 5956.21 944.654 4
10 -6 -2 4611.33 948.563 2
10 -4 2 6316.47 1014.51 1
-6 10 2 5900.37 776.394 1
-6 -4 -5 6749.88 1084.36 2
10 -4 5 6271.85 1224.51 2
-4 -6 5 5486.55 834.807 4
-4 10 -5 7292.28 1121.48 1
-6 -4 -5 5596.09 709.572 1
-6 10 5 6060.79 697.021 1
10 -6 -5 5650.62 562.249 4
10 -4 5 6350.48 1088.87 1
-6 10 5 7337.16 1163.28 4
-4 10 -5 8906.98 1170.94 3
10 -6 -5 6222.39 972.341 1
-6 10 5 6091.3 705.693 2
-4 10 -8 2664.79 586.182 3
-4 10 -8 2986.59 833.501 1
-6 -4 -8 990.813 642.647 2
10 -4 8 1882.55 904.641 2
10 -4 8 2657.4 787.614 1
-6 -4 -8 2021.86 457.466 1
10 -6 -8 1850.88 518.207 1
10 -4 11 163.352 357.501 2
-4 10 -11 606.394 385.933 1
10 -6 -11 403.505 271.63 1
10 -4 11 1030.27 475.459 1
-4 10 -11 914.053 344.938 3
-6 -4 -11 719.163 335.29 1
-6 -4 -11 745.362 247.333 3
-6 -4 -14 1078.68 446.343 1
-4 10 -14 379.396 140.873 1
-6 -4 -14 1011.88 312.957 3
-4 -6 14 1367.15 516.984 3
-4 10 -17 -172.473 273.927 1
10 -4 17 212.968 422.207 2
-6 -4 -17 -25.0621 254.729 1
-6 10 17 763.089 419.508 3
-4 -6 17 301.377 360.41 3
-3 10 17 140.768 192.031 3
-3 -7 -17 144.568 155.259 1
-7 10 -17 634.795 527.379 1
10 -7 17 837.341 692.514 2
-7 10 -14 930.794 490.466 1
-3 -7 -14 968.525 338.742 1
-3 10 14 612.452 269.158 3
-7 10 -14 1121.25 389.124 3
10 -7 14 -81.2876 390.119 2
-3 10 11 498.028 188.946 3
-3 -7 -11 440.51 190.138 3
10 -7 11 257.932 258.474 2
-3 -7 -11 348.642 117.984 1
10 -7 11 847.592 534.467 1
-7 10 -11 976.678 561.914 1
-7 10 -11 674.55 304.06 3
-7 10 -8 817.404 378.966 3
10 -3 -8 982.727 420.872 1
10 -7 8 614.521 558.16 2
-7 10 -8 1530.27 599.886 1
-7 -3 8 590.874 173.165 4
-3 -7 -8 546.096 173.197 1
10 -7 8 354.687 174.141 1
-3 10 8 852.446 336.946 3
-3 -7 -8 706.219 276.278 3
-3 10 5 2889.61 789.22 4
10 -7 5 4637.69 1002.39 1
-3 -7 -5 4300.74 709.988 3
-7 10 -5 4187.59 914.665 1
-3 10 5 4271 793.963 3
10 -7 5 3597.6 1140.12 2
-3 -7 -5 2764.74 533.604 2
-7 10 -5 4737.86 828.943 3
10 -3 -5 3995.17 726.097 1
-7 -3 5 4515.58 694.893 4
-7 10 -2 7461.64 1268.83 1
-3 10 2 6583.73 1073.15 3
-7 10 -2 4956.6 1199.22 2
10 -3 -2 7414.36 1075.14 1
-3 -7 -2 7912.53 1102.35 3
10 -7 2 5857.34 1008.91 1
-3 -7 -2 6351.78 762.093 2
10 -7 2 4540.1 918.763 2
-3 10 2 7290.23 1167.59 4
-3 10 2 6977.4 838.936 1
-3 -7 1 12034.6 1385.89 3
10 -7 -1 14281.6 1583.48 1
-7 10 1 13181.9 1297.53 1
-7 -3 -1 10581.6 1016.59 1
10 -3 1 13033.5 1610.68 2
-3 10 -1 14452.1 1353.81 1
-7 10 1 13352.9 1414.52 4
-3 -7 1 11737.9 1450.86 4
10 -3 1 14281.9 1532.92 1
-3 10 -1 14894.1 1562.03 3
-3 10 -1 16744.2 1554.32 4
-7 10 1 15427.3 1355.37 2
-7 -3 -1 12261.2 1532.46 2
10 -7 -1 14196.2 1644.18 2
-7 10 4 185.114 289.475 4
-7 10 4 337.479 197.112 2
-3 10 -4 568.13 317.613 3
-3 10 -4 788.258 352.544 1
10 -7 -4 660.666 297.789 1
-7 10 4 393.183 224.169 1
-7 -3 -4 312.453 133.876 1
10 -3 4 597.268 260.074 2
-7 -3 -4 271.465 165.754 2
-3 -7 4 236.551 289.97 3
10 -3 4 647.184 309.557 1
10 -7 -4 260.856 75.7477 4
-3 -7 4 194.345 97.1554 4
-3 10 -7 760.876 302.513 1
-7 -3 -7 -101.323 198.261 2
-7 -3 -7 524.203 221.973 1
10 -3 7 551.496 368.125 2
-3 10 -7 730.087 284.514 3
-3 -7 7 537.85 293.991 3
10 -3 7 821.45 422.523 1
-7 10 7 491.174 179.668 1
-7 10 7 465.12 178.855 4
10 -7 -7 654.075 311.044 1
-3 -7 7 213.03 160.715 4
10 -7 -10 628.511 277.543 1
10 -3 10 946.481 326.482 1
-3 10 -10 1604.25 681.142 1
-7 -3 -10 216.658 185.094 2
-3 10 -10 931.617 377.076 3
10 -3 10 -366.474 415.304 2
-3 -7 10 535.893 296.935 3
-7 -3 -10 902.517 370.067 1
-7 -3 -13 258.178 188.431 3
10 -3 13 290.568 582.214 2
10 -7 -13 201.859 226.167 1
10 -3 13 118.828 323.701 1
-7 -3 -13 305.774 231.992 1
-3 10 -13 49.7776 239.55 1
-3 -7 13 967.169 458.172 3
-3 10 -16 -485.868 440.868 1
10 -3 16 -362.127 411.182 2
-3 -7 16 -85.5406 112.557 3
-7 -3 -16 66.1272 85.1152 1
-8 10 -15 220.087 313.559 1
-2 -8 -15 330.349 259.564 1
-2 10 15 216.343 81.5423 3
-8 10 -15 -39.6088 186.714 3
10 -8 12 1126.8 876.774 2
-8 10 -12 1107.8 461.505 1
-2 -8 -12 1360.96 335.478 1
-2 10 12 1195.56 410.31 3
-8 10 -12 1609.94 479.395 3
-2 10 9 1292.37 413.283 3
-8 10 -9 2090.96 786.171 1
-8 10 -9 1469.19 471.143 3
10 -8 9 440.44 600.306 2
10 -8 9 1847.37 652.082 1
-2 -8 -9 1755.68 475.925 3
-2 -8 -6 2443.97 555.303 2
10 -2 -6 2240.09 570.226 1
10 -8 6 2148.11 875.93 2
-8 10 -6 2292.61 776.886 1
-8 -2 6 2613.37 479.658 4
-2 -8 -6 2662.47 602.665 3
10 -8 6 2574.43 800.047 1
-2 10 6 1975.55 537.48 3
-8 10 -3 6298.26 1354.1 2
-2 10 3 9754.54 1416.07 4
10 -2 -3 8766.04 1195.72 1
10 -8 3 7082.14 1277.09 2
-2 10 3 9339.59 1235.29 3
-2 -8 -3 8200.42 866.356 2
-2 -8 -3 8804.39 1118.92 3
10 -8 3 6545.88 1117.94 1
-8 10 -3 10592.4 1522.3 1
-2 10 3 9534.85 863.307 1
10 -8 0 1335.16 600.722 1
-2 -8 0 1744.17 648.879 4
-2 10 0 2975.4 783.699 4
-8 10 0 953.433 451.779 1
-2 -8 0 727.147 435.181 3
10 -8 0 1722.56 599.607 2
-8 -2 0 2117.66 648.614 2
-8 10 0 1269.8 479.66 2
-2 10 0 1184.04 444.991 1
10 -2 0 2144.35 705.433 1
10 -2 0 1020.07 590.795 2
-8 -2 0 1900.29 480.526 1
-2 10 0 2065.38 717.378 3
10 -8 -3 5480.43 746.266 4
-8 -2 -3 5328.66 964.624 2
-8 10 3 5349.48 808.385 1
10 -2 3 4924.43 855.469 1
-2 10 -3 6338.32 961.838 1
10 -8 -3 5542.08 929.123 1
-8 10 3 5323.49 784.869 2
-2 -8 3 5373.88 928.449 3
-8 10 3 5769.94 879.28 4
10 -8 -3 4953.06 998.323 2
10 -2 3 4389.16 899.473 2
-2 10 -3 4943.09 844.808 3
-8 -2 -3 4361.27 733.245 1
-2 -8 3 4070.47 770.76 4
10 -2 6 5014.34 1063.46 2
-8 -2 -6 5654.28 1144.08 2
-8 10 6 5881.6 837.09 2
-8 -2 -6 5055.65 810.318 1
-8 10 6 4841.86 704.013 1
-2 -8 6 4854.9 895.858 4
-8 10 6 6725.18 1026.81 4
-2 10 -6 5931.4 1062.32 1
-2 -8 6 5656.15 982.266 3
-2 10 -6 6114.24 918.76 3
10 -2 6 5744.53 984.056 1
10 -8 -6 4840.57 819.329 1
-2 10 -9 2575.35 837.143 1
-2 10 -9 1717.21 475.137 3
-8 -2 -9 739.137 513.779 2
-8 -2 -9 1873.6 482.478 1
10 -2 9 1656.66 639.789 1
10 -8 -9 1914.09 531.749 1
-8 10 9 1220.2 378.167 4
10 -2 9 361.761 269.29 2
-2 -8 9 1891.12 645.058 3
-2 10 -12 3090.78 1006.12 1
10 -2 12 3190.72 905.445 1
10 -2 12 1638.22 792.366 2
-8 -2 -12 2402.49 688.657 1
-8 -2 -12 2102.92 441.114 3
-2 -8 12 2506.71 708.032 3
10 -8 -12 2135.05 604.214 1
-2 10 -15 394.717 97.9598 1
-8 -2 -15 346.773 293.781 1
-2 -8 15 369.832 211.183 3
-8 -2 -15 231.101 156.183 3
10 -9 16 -383.257 546.745 2
-9 10 -16 369.852 282.812 3
-9 10 -16 246.201 249.653 1
-1 10 16 163.37 183.152 3
-1 -9 -16 339.308 260.977 1
-1 10 13 1542.22 517.983 3
-9 10 -13 2643.34 888.792 1
-1 -9 -13 1636.84 401.229 1
10 -9 13 610.22 665.084 2
-9 10 -13 2192.42 570.72 3
-9 10 -10 836.76 448.724 1
-1 -9 -10 856.147 279.127 3
-1 10 10 541.042 260.714 3
10 -9 10 164.881 311.733 2
-9 10 -10 1068.22 437.453 3
-9 -1 7 2056.67 398.306 4
-9 10 -7 3441.3 933.265 1
10 -9 7 2325.92 804.228 1
10 -9 7 1629.66 834.171 2
-1 -9 -7 2592.02 618.685 3
-1 10 7 2231.25 591.081 3
10 -9 4 505.24 367.022 1
10 -1 -4 542.214 229.053 1
-1 -9 -4 250.546 62.4232 3
-1 10 4 542.166 112.26 3
-9 10 -4 0.63587 205.964 2
-9 10 -4 697.556 310.28 1
10 -9 4 215.494 202.954 2
-1 10 4 470.699 321.751 4
-1 10 1 5048.31 976.417 4
-9 -1 1 4500.72 905.195 2
-9 10 -1 4545.94 952.855 2
-9 -1 1 3093.81 640.783 1
-1 10 1 4170.35 807.123 3
-1 -9 -1 3452.11 878.368 4
-1 10 1 3980.93 583.968 1
-9 10 -1 4703.79 917.456 1
10 -9 1 3960.1 828.815 2
10 -1 -1 3761.93 848.544 2
-1 -9 -1 3169.15 657.387 3
10 -1 -1 4411.66 813.283 1
10 -9 1 3835.21 876.792 1
-1 10 -2 1144.69 458.227 1
10 -1 2 1292.57 477.854 2
-1 -9 2 1800.52 549.122 4
10 -9 -2 1401.7 516.892 1
-1 10 -2 1103.31 444.074 3
-1 10 -2 1245.42 459.453 4
-9 -1 -2 1106.65 405.608 1
-9 10 2 1301.23 469.118 2
10 -1 2 690.03 378.186 1
-9 -1 -2 1379.23 491.355 2
10 -9 -2 1840.71 552.477 4
10 -9 -2 1541.23 576.045 2
-1 -9 2 1532.21 508.148 3
-9 10 2 1457.73 509.352 1
10 -1 5 1824.1 483.313 1
-9 10 5 1768.42 450.872 4
-1 -9 5 1407.69 418.333 4
10 -9 -5 1741.08 411.339 4
-9 -1 -5 2252.34 678.752 2
-1 -9 5 1458.3 408.625 3
10 -1 5 1893.4 635.726 2
-9 -1 -5 1788.37 443.5 1
-9 10 5 1787.17 494.084 2
-9 10 5 1899.01 464.164 1
-1 10 -5 2211.71 543.168 3
10 -9 -5 1814.03 523.969 1
10 -1 8 1648.49 601.331 1
-9 -1 -8 466.986 385.282 2
-9 -1 -8 1620.01 498.402 1
10 -1 8 1458.88 660.444 2
-1 10 -8 1638.18 513.011 1
-9 10 8 1292.88 414.078 4
-1 -9 8 2141.16 683.138 3
10 -9 -8 1388.08 471.48 1
-9 -1 -11 -1.15285 119.902 2
10 -1 11 287.173 539.583 2
-1 -9 11 1218.97 500.32 3
-9 -1 -11 1440.23 513.968 1
-1 10 -11 2226.74 852.638 1
10 -1 11 1220.75 592.203 1
10 -9 -11 1067.73 397.871 1
10 -1 14 431.673 414.524 1
10 -1 14 239.999 43.5148 2
-9 -1 -14 230.294 135.716 3
10 -9 -14 562.104 421.764 1
-9 -1 -14 406.327 292.484 1
-1 -9 14 284.527 110.252 3
-1 10 -14 709.667 535.883 1
-1 -9 17 -174.784 151.922 3
-9 -1 -17 -91.7634 34.5797 1
10 -1 17 525.331 691.166 2
-1 10 -17 119.78 336.627 1
0 10 17 -118.408 154.348 2
-10 10 -17 -78.8861 155.173 3
-10 10 -17 53.3798 92.1609 1
10 -10 17 -328.224 584.48 2
0 -10 -17 334.949 277.092 1
0 -10 -14 252.163 125.935 1
0 10 14 29.9929 213.391 2
-10 10 -14 248.665 44.9275 1
10 -10 14 -194.76 130.049 2
0 10 14 147.003 40.9398 3
-10 10 -14 368.27 179.563 3
0 10 11 1143.25 436.918 2
0 10 11 940.326 355.638 3
10 -10 11 -40.3114 453.617 2
-10 10 -11 1316.74 583.236 1
-10 10 -11 2083.24 605.531 3
0 -10 -11 1102.5 245.911 1
0 10 8 154.478 126.456 2
10 -10 8 865.212 579.26 1
0 10 8 106.579 169.823 3
10 -10 8 244.76 435.511 2
-10 10 -8 580.551 332.132 1
-10 10 -8 -577.008 623.95 2
0 -10 -8 898.447 385.268 3
0 -10 -5 881.942 359.663 3
-10 10 -5 869.083 640.677 2
10 -10 5 736.009 552.467 2
0 10 5 1063.39 376.78 3
10 0 -5 917.438 201.747 4
10 -10 5 1199.56 529.412 1
10 0 -5 1332.6 445.995 1
-10 10 -5 963.095 472.198 1
0 10 2 7111.34 1038.88 3
-10 10 -2 7006.5 1284.55 2
-10 0 2 6270.39 951.391 1
-10 0 2 7914.06 1281.88 2
-10 10 -2 6801.17 1151.57 1
0 -10 -2 6328.26 983.773 3
0 10 2 7303.12 1245.46 4
10 -10 2 6629 1174.84 1
10 0 -2 6494.32 980.489 1
10 -10 2 6351.76 1165.58 2
-10 0 -1 2288.92 646.358 2
-10 10 1 4055.51 850.568 1
0 10 -1 3859.39 826.631 3
10 -10 -1 1915 647.036 2
10 0 1 3125.51 816.658 2
-10 10 1 4373.03 864.619 2
10 0 1 4106.1 820.749 1
0 -10 1 2883.64 756.783 4
-10 0 -1 3366.73 736.427 1
10 -10 -1 3119.26 747.032 1
0 10 -1 5620.46 1003.98 4
0 -10 1 2936.97 739.972 3
-10 0 -4 3153.36 707.559 1
-10 10 4 4015.89 834.724 2
-10 10 4 3393.41 708.708 1
-10 0 -4 3847.15 918.7 2
10 -10 -4 3278.62 698.202 1
10 0 4 3367.68 697.943 1
-10 10 4 4180.26 747.939 4
0 10 -4 4072.02 808.538 3
0 -10 4 2796.38 671.556 4
10 -10 -4 3142.43 616.837 4
0 -10 4 3000.97 704.091 3
10 0 4 2949.69 777.601 2
-10 10 7 5459.32 919.511 1
10 0 7 5972.28 1218.46 2
-10 0 -7 6876.62 1396.63 2
-10 0 -7 6209.19 1074.98 1
-10 10 7 5788.65 934.992 4
10 -10 -7 6820.56 1072.12 1
10 0 7 5294.04 976.741 1
0 -10 7 5963.12 1112.35 3
-10 0 -10 1167.25 405.991 1
-10 0 -10 873.833 531.615 2
10 0 10 706.261 346.978 2
10 0 10 1410.6 494.831 1
-10 10 10 945.6 378.715 4
10 -10 -10 1440.64 466.842 1
0 -10 10 1877.19 683.764 3
0 10 -13 238.998 403.064 1
10 0 13 472.958 247.22 1
0 -10 13 554.527 387.083 3
-10 0 -13 339.991 290.944 1
10 0 13 337.543 162.109 2
10 -10 -13 173.703 178.283 1
10 0 16 216.185 282.59 1
0 -10 16 9.23676 160.875 3
10 0 16 693.745 665.168 2
10 -10 -16 63.6254 196.054 1
-10 0 -16 323.619 323.563 1
-10 0 -16 78.3142 22.7263 3
0 10 -16 -23.3436 156.481 1
-11 10 -15 -60.3598 257.6 1
1 10 15 80.0442 155.721 2
1 -11 -15 101.538 41.8408 1
10 -11 15 251.339 240.738 2
-11 10 -15 237.852 196.913 3
10 -11 12 -109.839 336.375 2
-11 10 -12 488.63 479.998 1
-11 10 -12 653.037 299.327 3
1 10 12 72.5 122.733 3
1 -11 -12 340.324 144.91 1
1 -11 -12 304.07 157.07 1
1 10 9 1307.1 361.381 2
10 -11 9 1293.18 913.428 2
1 10 9 1175 418.354 3
-11 10 -9 2533.38 908.877 1
1 10 6 819.776 225.614 2
1 -11 -6 1568.82 487.874 3
10 -11 6 793.689 588.68 2
-11 10 -6 264.886 378.718 2
-11 10 -6 682.159 344.064 1
10 -11 6 1174.75 644.71 1
1 10 6 724.192 312.894 3
1 10 3 4507.91 953.128 4
10 1 -3 4092.76 797.552 1
-11 1 3 3933.6 792.51 1
-11 1 3 6022.08 1216.54 2
10 -11 3 4297.4 950.615 1
-11 10 -3 4748.84 1108.58 2
1 10 3 4477.66 835.297 3
10 -11 3 4029.63 1096.25 2
-11 10 -3 4391.52 950.145 1
1 -11 -3 3251.42 723.042 3
10 1 0 1180.64 401.122 1
-11 1 0 1110.6 436.308 1
1 10 0 973.26 437.685 3
-11 10 0 1220.99 448.305 1
1 -11 0 879.25 355.366 3
-11 10 0 1048.77 440.533 2
1 -11 0 902.138 456.099 4
10 -11 0 798.977 273.933 2
10 -11 0 1312.46 527.725 1
10 1 0 402.6 236.518 2
-11 1 0 1181.09 475.583 2
1 10 0 1213.83 438.983 4
1 -11 3 87.6228 184.665 3
-11 1 -3 738.444 407.183 2
-11 1 -3 188.741 226.228 1
10 -11 -3 388.812 191.171 1
10 1 3 615.034 333.287 2
10 -11 -3 343.395 236.481 4
-11 10 3 297.249 76.0873 2
1 10 -3 1010.65 436.713 4
10 -11 -3 398.922 274.265 2
1 10 -3 237.876 90.0869 3
-11 10 3 -26.305 201.809 1
10 1 3 389.338 252.585 1
1 -11 3 113.922 257.065 4
10 1 6 574.619 272.578 1
1 -11 6 297.601 250.563 4
-11 1 -6 759.191 349.67 1
10 1 6 838.723 471.735 2
10 -11 -6 614.765 273.013 4
10 -11 -6 450.677 263.325 1
-11 1 -6 550.631 423.581 2
-11 10 6 842.803 352.547 4
-11 10 6 730.811 365.031 2
-11 10 6 557.187 341.748 1
1 -11 6 915.222 403.368 3
10 1 9 553.678 253.42 2
-11 10 9 647.45 271.897 4
-11 1 -9 669.716 373.32 1
1 -11 9 924.155 516.659 3
-11 1 -9 300.253 146.272 2
10 1 9 853.424 459.228 1
10 -11 -9 888.346 399.215 1
10 -11 -12 1008.31 417.551 1
10 1 12 282.036 67.6403 2
-11 10 12 391.493 318.568 4
-11 1 -12 308.494 92.712 1
1 -11 12 1029.68 498.387 3
10 1 12 686.036 443.735 1
10 1 15 396.115 282.686 1
10 1 15 -234.394 201.153 2
-11 1 -15 249.11 296.605 1
10 -11 -15 159.28 254.781 1
1 -11 15 163.322 187.832 3
10 -12 16 -165.666 330.582 2
2 -12 -16 238.1 242.581 1
-12 10 -16 -19.5971 170.4 3
-12 10 -16 -173.591 240.172 1
2 10 16 1.4031 268.38 2
-12 10 -13 380.286 245.26 3
2 -12 -13 305.798 132.333 1
-12 10 -13 228.375 327.414 1
2 -12 -13 410.68 204.679 1
-12 10 -10 2438.26 807.462 1
10 -12 10 1112.85 886.753 2
2 10 10 1627.64 439.799 2
2 10 10 1746.85 500.915 3
-12 10 -7 1049.43 859.536 2
2 -12 -7 2889.2 760.747 3
10 -12 7 2760.8 994.062 1
10 -12 7 1458.11 957.327 2
2 10 7 2137.04 422.992 2
2 10 7 1983.99 604.433 3
-12 10 -7 2840.9 919.458 1
-12 2 4 4559.41 1141.84 2
-12 10 -4 4660.23 1176.95 2
10 -12 4 2940.54 1000.17 2
10 2 -4 3305.21 560.58 4
2 -12 -4 2854.42 694.629 3
-12 10 -4 3626.54 927.653 1
10 -12 4 3907.39 1028.99 1
-12 2 4 2598.9 663.247 1
2 10 4 2978.78 693.597 3
10 2 -4 3366.16 733.92 1
2 -12 -1 3200.26 750.961 3
-12 2 1 2881.01 907.791 2
-12 10 -1 4384.66 953.982 1
10 -12 1 2818.43 758.237 2
-12 10 -1 4774.21 1040.12 2
10 2 -1 5313.58 967.266 1
10 -12 1 3455.19 865.487 1
2 10 1 5433.48 985.826 3
2 10 1 5829.65 1143.49 4
2 -12 -1 3316.96 879.518 4
-12 2 1 4602.63 952.683 1
10 2 2 2475.78 587.607 1
2 10 -2 3631.71 806.859 4
2 -12 2 2515.73 690.85 4
-12 2 -2 2384.79 715.459 1
-12 2 -2 2961.62 808.564 2
-12 10 2 3637.84 830.187 2
10 -12 -2 2401.19 702.884 2
10 -12 -2 2392.2 606.498 4
2 -12 2 2285.12 611.539 3
-12 10 2 2748.52 688.297 1
10 -12 -2 2635.55 634.102 1
10 2 2 2222.26 662.563 2
10 2 5 817.395 313.704 1
-12 2 -5 1128.62 516.001 2
-12 10 5 1073.16 425.988 1
10 -12 -5 925.541 376.223 4
-12 2 -5 1224.46 464.801 1
10 2 5 1510.25 562.606 2
10 -12 -5 1017.57 382.184 1
-12 10 5 607.708 388.478 2
2 -12 5 541.524 289.462 3
2 -12 5 587.262 390.99 4
2 -12 8 2003.3 645.613 3
-12 10 8 2045.54 519.451 4
-12 2 -8 2043.99 648.063 1
-12 10 8 1134.57 494.379 1
10 -12 -8 1838.27 530.029 1
10 2 8 2031.25 692.82 2
10 2 8 2193.88 611.619 1
-12 2 -8 1203.64 646.504 2
2 -12 11 2063.73 686.99 3
-12 10 11 1506.69 429.216 4
10 2 11 1854.25 618.834 1
10 2 11 1375.96 623.683 2
10 -12 -11 1749.04 555.017 1
-12 2 -11 1105.88 534.989 1
2 -12 14 -133.856 61.5307 3
10 2 14 800.049 415.517 1
10 -12 -14 -31.375 230.149 1
10 2 14 -4.35299 305.217 2
-12 2 -14 433.015 346.847 1
3 -13 -14 230.373 157.615 1
3 10 14 180.057 162.934 2
-13 10 -14 -148.299 272.932 1
3 -13 -14 186.258 103.88 1
10 -13 11 400.563 425.294 2
3 10 11 778.895 305.318 2
-13 10 -11 682.641 501.308 1
3 10 8 13924.7 1280.32 2
-13 10 -8 15137.7 2149.72 1
-13 10 -5 2808.08 1078.71 2
10 -13 5 1655.47 698.196 2
10 -13 5 1522.71 639.045 1
10 3 -5 2617.3 523.112 4
3 10 5 2044.89 351.906 1
3 -13 -5 2638.45 726.505 3
3 10 5 1832.1 387.43 2
-13 10 -5 3339.89 954.19 1
3 -13 -5 2061.1 345.371 1
3 -13 -2 1394.04 451.439 3
-13 3 2 1259.43 465.374 1
10 -13 2 1719.66 649.035 1
-13 10 -2 1781.87 672.026 2
3 -13 -2 1513.64 591.542 4
10 -13 2 809.157 510.625 2
-13 3 2 1029.65 585.632 2
3 10 2 1655.11 594.447 4
-13 10 -2 1672.67 602.324 1
10 3 -2 1264.54 490.691 1
3 -13 1 418.233 206.547 3
-13 10 1 697.592 321.45 1
-13 3 -1 696.81 270.468 1
3 10 -1 1312.29 530.138 4
10 -13 -1 383.024 144.727 2
-13 10 1 378.885 116.066 2
10 3 1 763.905 351.793 1
10 -13 -1 647.056 242.021 4
10 -13 -1 525.497 240.408 1
10 3 1 667.526 378.606 2
3 -13 1 588.732 285.127 4
-13 3 -1 921.621 382.971 2
3 -13 4 2933.15 739.31 3
3 10 -4 3125.8 720.956 4
10 -13 -4 3956.49 793.478 1
-13 10 4 3872.03 920.676 2
10 3 4 2721.28 713.817 2
3 -13 4 3486.08 897.747 4
10 3 4 2797.79 624.995 1
-13 3 -4 3960.53 1050.39 2
10 -13 -4 3587.22 841.852 4
-13 10 4 3394.86 795.784 1
10 -13 -4 2901.95 881.742 2
-13 3 -4 3711.82 866.003 1
3 -13 7 730.13 366.171 3
-13 10 7 544.1 337.903 1
-13 3 -7 610.515 378.681 1
-13 3 -7 499.574 398.334 2
10 3 7 757.142 413.032 2
10 -13 -7 469.101 290.889 1
-13 10 7 727.134 456.315 2
-13 10 7 612.203 286.582 4
10 3 7 335.874 265.358 1
10 -13 -10 1873.16 553.905 1
-13 3 -10 1131.82 523.458 1
10 3 10 1570.03 564.414 1
10 3 10 1089.57 554.032 2
-13 10 10 1701.55 466.743 4
3 -13 10 1735.73 605.959 3
-13 3 -13 182.961 191.733 1
3 -13 13 -201.181 251.726 3
10 -13 -13 418.651 331.447 1
10 3 13 -62.6897 281.489 2
-13 10 13 113.075 46.194 4
10 3 13 238.883 180.434 1
10 -13 -16 1466.14 715.141 1
10 3 16 -163.788 284.76 2
10 3 16 1233.01 523.611 1
3 -13 16 852.873 494.549 3
-13 3 -16 885.689 564.221 1
10 -14 15 -327.474 504.817 2
4 10 15 357.501 160.234 2
4 -14 -15 428.331 263.09 1
4 -14 -15 88.9501 165.625 1
-14 10 -15 366.007 414.608 1
4 -14 -12 459.184 155.003 1
4 10 12 206.031 89.2107 2
-14 10 -12 515.428 423.411 1
10 -14 12 123.129 564.958 2
10 -14 9 137.083 449.59 2
-14 10 -9 947.591 509.523 1
4 10 9 341.313 166.544 2
10 -14 6 1839.1 804.904 1
4 -14 -6 1671.26 328.727 1
-14 10 -6 2743.12 891.947 1
4 10 6 1106.42 274.169 1
10 -14 6 1336.69 674.609 2
10 4 -6 1131.71 387.583 4
-14 10 -6 1907.36 911.112 2
4 10 6 535.081 288.999 2
-14 4 3 461.252 484.996 2
10 -14 3 240.356 143.836 1
4 -14 -3 176.701 249.677 3
-14 4 3 338.517 237.283 1
-14 10 -3 389.21 317.426 1
4 -14 -3 498.327 291.226 4
10 4 -3 905.895 468.05 1
-14 10 -3 869.48 540.258 2
10 -14 3 238.801 140.063 2
10 4 -3 786.394 363.229 4
4 -14 -3 262.702 188.651 1
4 -14 0 1606.69 430.617 1
4 -14 0 1378.35 488.78 3
4 -14 0 590.534 284.795 2
10 4 0 1876.61 589.248 1
4 -14 0 1547.46 536.621 4
10 -14 0 1687.3 682.147 4
4 10 0 2641.34 787.45 4
10 -14 0 1422 471.771 2
-14 4 0 1819.03 623.489 1
10 -14 0 2022 609.584 1
-14 10 0 1863.29 608.855 1
-14 10 0 2091.94 664.917 2
-14 4 0 1553.74 597.088 2
10 4 3 1410.11 465.313 1
-14 10 3 1021.97 428.127 1
10 4 3 1025.74 408.914 2
10 -14 -3 1460.97 584.108 2
4 -14 3 1485.28 587.621 4
4 10 -3 1219.5 391.04 4
10 -14 -3 1308.07 436.392 1
10 -14 -3 1476.03 579.487 4
4 -14 3 1050.4 454.373 3
-14 4 -3 1405.51 584.053 2
-14 4 -3 1649.66 624.175 1
-14 10 3 1520.57 662.738 2
4 -14 6 3219.14 1166.05 4
10 4 6 2226.25 609.172 1
-14 4 -6 2690.6 934.602 2
-14 4 -6 2668.62 821.413 1
-14 10 6 1953.88 626.288 1
4 -14 6 2161.11 716.704 3
10 -14 -6 1807.19 572.934 4
-14 10 6 2223.31 780.844 2
10 4 6 1788.42 635.417 2
10 -14 -6 2407.39 625.66 1
10 -14 -9 556.193 246.601 1
10 4 9 569.562 408.396 2
10 4 9 834.762 351.098 1
-14 10 9 696.311 274.338 4
-14 4 -9 809.428 449.299 1
4 -14 9 234.989 146.897 3
10 4 12 211.411 119.745 2
4 -14 12 345.166 330.638 3
-14 10 12 399.574 167.984 4
10 -14 -12 933.589 471.177 1
-14 4 -12 1014.9 560.764 1
10 4 12 527.327 326.805 1
4 -14 15 148.334 79.3057 3
10 4 15 203.881 204.06 1
-14 4 -15 -98.8321 284.61 1
10 4 15 -10.4569 90.2357 2
10 -14 -15 -17.5269 171.174 1
-14 10 15 165.204 116.509 4
10 -15 13 -45.6361 212.842 2
-15 10 -13 399.092 261.119 1
5 10 13 490.493 280.058 2
5 -15 -13 186.959 104.45 1
10 -15 10 250.567 416.285 2
5 10 10 354.921 172.047 1
-15 10 -10 380.729 266.044 1
5 10 10 67.7905 160.967 2
5 -15 -10 276.361 107.962 1
5 10 7 1315.47 345.835 1
10 -15 7 542.234 668.6 2
5 10 7 1620.1 531.135 2
5 -15 -7 2014.43 377.358 1
-15 10 -7 2227.15 818.956 1
-15 5 4 2937.17 781.233 1
-15 10 -4 4727.66 1116.95 1
10 -15 4 5582.16 1390.67 2
-15 5 4 3408.79 1110 2
-15 10 -4 5280.91 1417.16 2
10 -15 4 5691.31 1302.83 1
10 5 -4 3133.08 653.593 4
5 -15 -4 2975.45 990.629 4
5 -15 -4 4467.19 671.885 1
5 10 4 3525.23 600.934 1
5 10 1 1938.44 701.414 4
5 -15 -1 1083.19 404.161 1
10 -15 1 1907.8 820.803 4
5 -15 -1 1463.28 497.603 2
5 -15 -1 1472.6 617.447 4
10 -15 1 1773.25 588.013 2
10 -15 1 1444.75 569.706 1
-15 10 -1 2560.22 804.733 2
10 5 -1 1706.14 561.433 1
-15 5 1 2354.13 824.142 2
-15 5 1 1720.77 655.429 1
-15 10 -1 2226.01 744.543 1
5 -15 -1 1480.66 579.701 3
-15 10 2 918.761 311.46 1
5 -15 2 421.269 194.053 2
5 -15 2 684.819 300.949 1
-15 5 -2 502.05 224.481 1
5 -15 2 794.259 463.095 4
5 10 -2 1247.73 468.854 4
10 5 2 936.204 381.413 1
10 -15 -2 827.803 272.67 2
5 -15 2 985.175 500.996 3
10 -15 -2 1045.49 438.349 1
-15 5 -2 1588.59 651.543 2
10 -15 -2 1368.65 484.167 4
-15 10 2 480.468 301.634 2
10 5 2 686.433 386.691 2
5 -15 5 778.66 377.248 3
5 10 -5 164.248 113.61 4
10 -15 -5 529.245 401.581 4
-15 5 -5 879.573 673.684 2
10 -15 -5 272.252 282.102 1
-15 10 5 -267.064 259.6 1
-15 5 -5 312.08 340.252 1
-15 10 5 73.9611 139.007 2
10 5 5 395.223 285.892 1
5 -15 5 616.821 557.526 4
10 5 5 -148.303 217.798 2
5 -15 8 677.987 470.698 3
10 5 8 446.379 295.214 1
-15 5 -8 819.089 415.249 1
10 -15 -8 479.149 292.343 1
10 5 8 850.537 419.925 2
-15 10 8 722.821 393.508 1
-15 10 8 573.952 431.437 2
5 -15 11 624.703 389.93 3
10 -15 -11 726.929 352.735 1
10 5 11 528.951 417.113 2
-15 10 11 575.439 232.267 4
10 5 11 806.412 368.508 1
-15 5 -11 1174.49 563.925 1
5 -15 14 381.443 345.175 3
10 -15 -14 144.726 233.594 1
10 5 14 398.284 299.64 1
10 5 14 624.123 446.956 2
-15 10 14 138.44 74.3271 4
-15 5 -14 -180.718 189.498 1
6 10 14 492.749 350.366 2
6 -16 -14 276.12 168.427 1
-16 10 -14 284.801 481.997 1
6 10 11 975.989 302.781 1
10 -16 11 111.173 216.565 2
6 10 11 1186.66 443.284 2
-16 10 -11 1397.54 709.759 1
6 -16 -11 796.528 225.568 1
6 -16 -8 1278.99 302.956 1
-16 10 -8 1120.42 596.194 1
6 10 8 1626.77 562.051 2
6 10 8 1338.02 363.626 1
6 -16 -5 751.229 300.428 1
-16 10 -5 1679.68 652.538 1
10 6 -5 1493.37 496.061 4
6 -16 -5 1021.5 594.689 4
-16 6 5 944.437 483.76 1
10 -16 5 826.656 645.742 2
6 10 5 1001.86 329.285 1
10 -16 5 1131.39 582.024 1
6 10 5 993.216 397.237 2
-16 6 5 1359.78 720.213 2
-16 6 2 4624.8 1162.38 2
6 -16 -2 5463.27 901.163 2
10 -16 2 6252.09 1668.32 4
-16 10 -2 6178.95 1263.82 1
-16 6 2 4700.46 1061.94 1
10 6 -2 4522.21 910.99 1
10 -16 2 5554.51 1185.23 2
10 6 -2 4635.89 908.274 4
-16 10 -2 7773.57 1521.78 2
6 -16 -2 4472.12 1148.76 4
6 -16 -2 5119.37 881.77 1
6 10 2 4725.83 1075.77 4
10 -16 2 4298.67 1022.36 1
10 -16 -1 7501.75 1107.33 2
-16 6 -1 12281.3 1832.58 2
-16 10 1 10878.1 1697.61 2
6 -16 1 8470.94 1494.69 4
6 -16 1 9200.33 1282.88 1
-16 10 1 10204 1602.42 1
-16 6 -1 11802 1755.46 1
6 10 -1 9708.39 1467.6 4
6 -16 1 10188.6 1552.48 3
10 -16 -1 8615.77 1511.8 4
10 6 1 9440.44 1310.73 1
10 -16 -1 9886.42 1388.9 1
10 6 4 1030.75 415.045 1
6 -16 4 1415.15 615.622 3
-16 6 -4 1319.89 608.173 1
6 -16 4 1364.87 617.964 2
6 -16 4 1364.98 603.299 4
10 6 4 269.606 280.302 2
-16 6 -4 2649.15 970.48 2
10 -16 -4 1857 898.773 2
-16 10 4 1474.18 604.096 1
6 10 -4 1555.96 581.877 4
6 -16 4 1152.02 538.425 1
10 -16 -4 883.043 487.497 4
-16 10 4 2197.83 782.361 2
10 -16 -4 1470.61 538.815 1
-16 10 7 875.978 504.056 2
10 6 7 1128.78 488.747 1
6 -16 7 1081.46 463.316 3
-16 6 -7 1255 536.052 1
10 6 7 1199.36 524.496 2
-16 10 7 993.576 534.207 1
10 -16 -7 713.053 349.668 1
-16 6 -10 1941.22 800.947 1
6 -16 10 872.504 493.661 3
10 -16 -10 1212.67 447.792 1
10 6 10 1030.79 405.979 2
10 6 10 1531.7 593.984 1
6 -16 13 565.002 416.044 3
10 6 13 390.003 301.253 2
-16 6 -13 683.17 337.231 1
10 -16 -13 586.693 255.611 1
10 6 13 752.412 457.816 1
-16 10 13 744.278 264.562 4
10 -17 15 -99.255 393.638 2
7 -17 -15 139.07 104.609 1
7 10 15 68.4718 225.314 2
-17 10 -15 298.636 211.632 1
7 -17 -12 493.778 212.63 1
7 10 12 495.544 258.998 1
7 10 12 227.709 206.009 2
-17 10 -12 304.28 410.915 1
10 -17 12 30.5406 161.137 2
7 10 9 1184.8 387.534 1
10 -17 9 -75.5179 333.235 2
7 -17 -9 1176.55 331.015 1
-17 10 -9 1533.12 857.851 1
7 10 9 1216.18 518.951 2
-17 10 -6 295.237 203.331 1
7 -17 -6 696.754 261.738 1
10 7 -6 719.71 337.743 4
-17 7 6 545.393 327.639 1
7 10 6 161.892 94.0397 2
7 10 6 685.186 294.285 1
10 -17 6 548.359 608.398 2
-17 7 3 1883.97 727.448 1
10 -17 3 2962.16 865.106 1
10 -17 3 2168.75 805.098 2
-17 7 3 1594.98 727.732 2
7 -17 -3 1458.99 317.305 2
-17 10 -3 3390.61 1079.28 1
7 -17 -3 1911.9 753.536 4
7 10 3 1929.41 555.86 1
10 7 -3 1854.57 577.944 4
7 -17 -3 1971.88 524.819 1
7 -17 0 5163 1251.27 4
7 10 0 4465.21 1051.04 4
7 -17 0 5580.28 1050.8 2
-17 7 0 5761.88 1268.19 2
10 7 0 4781.84 976.447 1
10 -17 0 5053.08 1189.95 4
10 -17 0 3946.24 914.733 2
-17 10 0 5379.85 1178.3 1
-17 10 0 4350.14 1095.21 2
10 -17 0 5279.2 1053.03 1
-17 7 0 5035.32 1116.33 1
7 -17 0 5065.48 1002.61 1
10 7 3 467.141 243.692 1
7 -17 3 479.277 126.685 2
-17 10 3 695.919 594.436 2
7 10 -3 488.271 281.038 4
10 -17 -3 918.576 502.913 4
-17 10 3 807.188 440.613 1
10 -17 -3 622.307 336.703 1
10 -17 -3 412.194 31.5505 2
7 -17 3 938.65 426.666 1
7 -17 3 1157.74 566.546 3
10 7 3 312.11 295.744 2
-17 7 -3 1512.52 670.698 1
7 10 -6 1315.58 531.023 4
7 -17 6 1276.35 632.378 2
10 -17 -6 1556.16 512.416 1
-17 7 -6 1529.78 689.846 1
-17 10 6 1193.92 663.802 2
10 -17 -6 818.702 466.909 4
10 7 6 1097.88 391.755 1
10 7 6 235.625 452.09 2
7 -17 6 1278.03 561.692 3
-17 10 6 865.351 469.132 1
-17 7 -9 3521.3 1059.54 1
10 7 9 3730.94 829.987 1
7 -17 9 2626.55 866.124 3
10 -17 -9 2194 524.496 1
10 7 9 2967.52 847.1 2
-17 7 -12 -131.638 235.869 1
10 7 12 85.3276 189.65 1
10 7 12 -156.913 394.994 2
10 -17 -12 -63.5928 146.463 1
-17 7 -15 36.9268 169.436 1
10 7 15 388.052 387.485 2
-17 10 15 -41.9423 81.88 4
10 -17 -15 211.55 201.309 1
10 7 15 654.592 414.572 1
8 10 13 98.2124 126.382 1
10 -18 13 423.421 99.9473 2
8 -18 -13 106.21 77.5397 1
8 10 13 114.599 262.48 2
-18 10 -13 192.082 377.583 1
-18 10 -10 642.402 341.095 1
10 -18 10 473.69 550.508 2
8 10 10 786.414 470.645 2
8 -18 -10 237.535 173.369 1
8 10 10 194.939 164.949 1
8 10 7 1056.56 382.627 1
-18 10 -7 2536.61 925.634 1
10 -18 7 572.188 752.742 2
8 -18 -7 1246.89 423.647 1
8 10 7 155.117 167.801 2
10 8 -7 1515.65 567.196 4
-18 8 7 971.53 537.535 1
8 -18 -4 -108.214 238.595 2
8 -18 -4 630.605 224.991 1
-18 10 -4 1058.97 660.961 1
10 -18 4 -58.0886 255.926 2
8 10 4 338.737 204.261 1
10 8 -4 959.647 407.413 4
-18 8 4 1016.91 423.979 1
8 -18 -1 1107.5 452.292 1
10 -18 1 1439.88 561.196 2
8 10 1 1574.74 530.761 1
8 -18 -1 1418.77 452.472 2
10 8 -1 1090.6 486.987 1
-18 8 1 1274.79 640.649 1
10 -18 1 961.02 438.549 1
10 8 -1 1099.49 496.349 4
-18 10 -1 1889.19 741.972 1
8 10 1 1669.35 661.176 4
10 8 2 1982.47 572.35 1
8 -18 2 1281.69 498.174 2
-18 10 2 1587.37 686.795 1
10 -18 -2 2190.29 677.772 1
10 -18 -2 1761.16 662.419 4
10 -18 -2 1778.94 454.762 2
8 -18 2 1114.15 487.31 1
8 10 -2 1248.46 553.434 4
-18 8 -2 2315.97 775.008 1
8 10 -5 685.657 389.695 4
10 8 5 463.214 269.8 1
8 -18 5 610.681 484.662 2
-18 10 5 426.61 255.214 1
10 -18 -5 594.115 348.036 1
10 -18 -5 384.399 224.874 4
-18 8 -5 1229.14 593.879 1
10 -18 -5 452.656 351.505 2
10 8 5 -14.5181 67.4946 2
8 -18 8 -92.6181 524.61 2
-18 8 -8 1409.76 705.409 1
10 8 8 1373.38 502.858 1
10 8 8 1124.28 509.943 2
10 -18 -8 1061.65 340.676 1
-18 10 8 1469.67 663.932 1
8 -18 11 -179.089 397.128 2
-18 8 -11 718.336 407.963 1
10 -18 -11 133.291 158.296 1
10 8 11 558.419 305.021 1
10 8 11 342.055 247.364 2
8 -18 14 260.271 575.469 2
10 8 14 773.181 394.962 1
-18 8 -14 706.204 635.021 1
10 -18 -14 149.952 94.913 1
10 8 14 164.613 232.554 2
9 -19 -14 31.6953 100.955 1
9 10 14 371.947 261.314 1
-19 10 -14 -339.89 474.693 1
10 -19 14 -205.021 423.745 2
9 10 14 -179.526 227.428 2
-19 10 -11 470.863 366.919 1
10 -19 11 -450.563 626.899 2
9 -19 -11 588.446 235.436 1
9 10 11 976.509 491.213 2
9 10 11 569.82 307.889 1
10 -19 8 837.088 950.79 2
-19 10 -8 2153.47 879.432 1
-19 9 8 1343.28 575.577 1
9 10 8 925.157 543.334 2
9 -19 -8 1547.01 499.878 1
9 10 8 1597.16 493.799 1
10 -19 5 249.328 222.086 2
9 10 5 625.238 318.467 1
10 9 -5 239.223 200.283 4
9 -19 -5 191.977 206.036 1
-19 9 5 144.15 193.465 1
9 10 5 618.965 340.105 2
9 -19 -5 -316.593 292.942 2
-19 10 -5 796.761 527.197 1
9 -19 -2 562.964 190.821 1
10 -19 2 1043.44 506.2 2
10 9 -2 569.572 406.978 4
9 -19 -2 371.968 207.741 2
-19 9 2 581.416 417.134 1
-19 10 -2 789.451 381.694 1
10 -19 2 1170.74 566.376 1
9 10 2 476.822 216.738 1
-19 10 1 1958.47 748.279 1
9 -19 1 1291.51 530.144 1
9 -19 1 1771.85 539.392 2
10 9 1 2496.58 702.878 1
10 -19 -1 1680.61 519.883 2
9 10 -1 1986.18 687.208 4
-19 9 -1 3048.99 978.441 1
10 -19 -1 1876.65 662.229 1
9 10 -4 524.775 406.143 4
-19 9 -4 261.334 52.3131 1
9 -19 4 120.7 200.442 2
10 9 4 273.707 218.816 1
10 -19 -4 17.7962 225.452 1
-19 10 4 367.458 384.644 1
10 -19 -4 422.958 182.725 2
9 -19 7 503.038 524.03 2
10 9 7 -285.464 342.632 1
-19 9 -7 636.788 506.415 1
-19 10 7 13.4178 321.164 1
10 -19 -7 141.905 267.092 1
10 9 7 345.636 376.942 2
9 10 -7 518.592 411.158 4
9 -19 10 -352.703 272 2
10 9 10 107.889 161.498 1
10 9 10 -276.652 391.116 2
10 -19 -10 163.856 140.594 1
-19 9 -13 -26.9644 20.2507 1
10 9 13 590.177 375.159 1
10 9 13 283.517 176.426 2
9 -19 13 160.172 321.301 2
10 -19 -13 236.046 155.567 1
10 -20 0 810.182 405.596 1
10 -20 0 587.272 280.258 2
-20 10 0 1003.48 664.802 1
10 10 0 452.64 346.071 1
10 10 0 665.512 465.395 4
10 -20 -3 1192.91 493.593 2
10 10 3 1373.52 530.029 1
10 10 -3 1010.56 495.715 4
10 -20 3 358.4 179.092 2
10 -20 -3 1281.57 522.539 1
-20 10 3 1528.59 675.891 1
-20 10 -3 617.073 506.636 1
10 -20 -6 1716.05 560.811 1
10 -20 6 1045.46 886.92 2
-20 10 -6 2177.27 923.255 1
10 10 -6 1957.32 679.354 4
10 10 6 1525.61 673.814 2
10 10 6 1825.51 523.966 1
-20 10 6 1134.8 475.429 1
10 10 9 656.957 384.603 1
10 -20 9 75.7435 146.588 2
-20 10 -9 394.388 305.936 1
10 10 9 895.382 561.396 2
-20 10 9 185.077 181.13 1
10 -20 -9 866.052 411.466 1
10 -20 12 638.554 698.466 2
10 10 12 420.323 346.872 2
10 10 12 741.738 392.932 1
-20 10 -12 -199.941 371.666 1
10 -20 -12 652.345 295.612 1
-5 11 17 853.778 491.995 3
-6 11 -17 -56.1234 236.717 1
11 -6 17 42.5714 577.292 2
-5 -6 -17 346.089 301.652 1
-5 11 14 9.69801 162.714 3
-5 -6 -14 471.738 260.448 1
-5 -6 -14 587.122 286.759 3
-6 11 -14 145.971 339.07 1
11 -6 14 -238.286 322.623 2
-6 11 -14 311.65 229.739 3
-5 11 11 208.595 222.419 3
11 -6 11 440.961 370.035 1
-6 11 -11 703.087 344.724 1
11 -6 11 387.806 332.208 2
-5 -6 -11 433.749 214.06 3
-6 11 -11 418.568 246.37 3
-5 -6 -11 337.968 122.533 1
11 -5 -11 308.219 178.753 1
11 -6 8 8299.6 1781.63 2
-5 -6 -8 8421.04 813.122 1
-5 11 8 11146.5 1406.52 3
-6 -5 8 8688.33 1090.15 4
-5 -6 -8 8790.51 1062.61 3
-6 11 -8 13500.3 1542.83 3
-5 -6 -8 9745.64 1621.66 2
11 -5 -8 8897.46 1202.36 1
-6 11 -8 11885.8 1715.72 1
11 -6 8 10606.7 1709.37 1
-6 11 -5 3605.4 774.261 3
-5 11 5 2435.84 604.994 3
-5 11 5 2306.21 382.578 1
-5 11 5 2754.48 726.107 4
-5 -6 -5 2516.71 527.895 2
11 -6 5 2590.15 871.451 2
-6 -5 5 2342.74 541.154 4
11 -6 5 2102.91 689.951 1
-5 -6 -5 2358.47 380.681 1
-5 -6 -5 2541.38 550.711 3
11 -5 -5 1902.12 527.856 1
-6 11 -5 2801.24 757.348 1
-5 -6 -2 4310.28 810.016 2
-6 11 -2 3045.77 813.75 3
-5 11 2 3987.88 597.602 2
11 -6 2 3763.49 840.87 1
11 -5 -2 4849.69 896.801 1
-5 11 2 4080.16 993.466 4
11 -6 2 3204.64 819.478 2
-5 11 2 2895.73 772.785 3
11 -5 -2 3749.95 816.641 2
-5 11 2 3266.6 638.883 1
-6 11 -2 4468.27 1009.08 1
-5 11 -1 5922.26 974.785 1
11 -6 -1 6410.89 1022.16 1
-6 11 1 7295.36 921.704 2
11 -5 1 5562 973.782 1
11 -5 1 5401.12 1022.46 2
-6 11 1 6742.09 960.276 1
11 -6 -1 5497.8 1069.12 2
-6 -5 -1 5562.35 839.563 2
-6 11 1 6315.97 1008.08 3
-5 11 -1 6197.24 1069.35 4
-6 11 1 5356.39 938.616 4
-5 11 -1 6087.81 998.014 3
11 -5 4 10443.6 1539.89 2
-6 -5 -4 14337.5 1662.47 2
-6 11 4 10694.5 902.471 2
-6 11 4 13246.8 1618.19 4
-5 11 -4 13428.3 1576.98 1
-6 -5 -4 9232.62 874.155 1
-5 -6 4 10938.6 1301.84 4
11 -5 4 10573.8 1413.97 1
11 -6 -4 11598.2 1396.63 1
11 -6 -4 10881.1 872.917 4
-5 11 -4 14098.1 1621.21 3
-6 11 4 10569.2 1031.82 1
-6 11 7 343.478 118.624 1
-5 11 -7 507.947 333.414 1
-6 -5 -7 456.499 210.958 1
-6 -5 -7 207.468 396.3 2
11 -6 -7 272.526 11.3412 1
11 -5 7 27.0145 235.547 2
-5 -6 7 284.012 152.297 4
-6 11 7 383.563 225.412 4
-5 11 -7 654.201 377.489 3
11 -5 7 867.949 479.913 1
-6 -5 -10 1915.89 416.934 1
-5 11 -10 2129.3 763.85 1
11 -5 10 2362.67 718.576 1
11 -6 -10 1056.9 337.121 1
11 -5 10 731.608 576.296 2
-5 11 -10 2175.87 541.002 3
-6 -5 -10 1713.04 401.993 3
-5 11 -13 1518.72 809.062 1
-6 -5 -13 1075.86 327.344 3
11 -5 13 -60.6698 288.416 2
-5 11 -13 890.059 365.967 3
-6 -5 -13 1061.8 408.35 1
-6 11 16 -0.63879 9.8674 3
-5 11 -16 540.611 650.381 1
11 -5 16 148.216 69.9384 2
-5 -6 16 543.872 392.778 3
-6 -5 -16 63.6963 5.37177 1
11 -7 15 373.861 487.128 2
-7 11 -15 8.52442 131.389 1
-4 -7 -15 531.062 255.296 1
-4 11 15 339.66 240.847 3
-7 11 -15 655.375 361.427 3
-4 -7 -12 1004.24 310.796 1
-4 -7 -12 1366.43 411.075 3
-4 11 12 1230.06 412.635 3
-7 11 -12 1102.26 421.869 3
-7 11 -12 2341.38 886.622 1
11 -7 12 784.908 613.671 2
11 -7 9 7616.41 1537.39 1
-7 11 -9 6984.87 1341 1
11 -7 9 7291.46 1696.2 2
11 -4 -9 3845.01 834.204 1
-4 -7 -9 4338.46 544.293 1
-7 -4 9 4230.13 741.485 4
-4 -7 -9 5651.54 856.209 3
-4 11 9 5307.25 922.887 3
-7 11 -9 6728.49 1078.73 3
-4 11 6 2551.03 744.733 4
-7 -4 6 2336.16 527.197 4
-4 -7 -6 2630.82 627.231 2
11 -4 -6 1922.57 545.95 1
11 -7 6 2311.06 697.689 1
11 -7 6 2405.65 863.034 2
-4 11 6 1687.22 281.786 1
-4 -7 -6 2027.49 325.568 1
-7 11 -6 3308.67 846.106 1
-7 11 -6 3324.7 785.06 3
-4 -7 -6 2144.28 512.348 3
-4 11 6 2332.95 614.332 3
-7 11 -3 2676.26 707.707 3
-4 11 3 2401.05 727.307 4
-7 11 -3 1969.81 703.762 2
-4 -7 -3 2119.21 464.228 2
11 -7 3 2542.86 778.207 2
-4 11 3 2238.14 450.103 1
11 -4 -3 2473.47 635.008 1
-7 11 -3 2445.22 707.922 1
-4 -7 -3 2457.61 604.659 3
-4 11 3 2212.97 639.259 3
11 -7 3 2357.19 652.372 1
-7 11 0 5307.65 930.517 2
11 -7 0 4953.07 933.186 1
11 -4 0 4967.63 1034.52 2
11 -4 0 5030.38 944.706 1
-4 11 0 4620.13 917.716 3
-7 -4 0 4176.7 830.86 2
-4 11 0 5048.33 904.938 4
-7 11 0 4515.06 864.988 1
-4 11 0 3990.09 761.834 1
11 -7 0 4609.24 951.864 2
-7 11 3 619.995 298.538 4
-4 11 -3 485.741 296.001 3
11 -7 -3 -57.2153 175.939 1
11 -4 3 446.923 357.798 1
-4 11 -3 402.768 300.109 1
-7 11 3 409.106 281.433 1
-7 11 3 154.111 64.264 2
11 -4 3 67.7402 221.495 2
-4 -7 3 118.055 91.5786 4
11 -7 -3 199.255 170.202 2
-7 -4 -3 131.263 121.45 1
-7 -4 -3 89.2634 247.601 2
-4 11 -6 1289.77 504.148 1
-7 11 6 769.112 197.806 2
-4 -7 6 881.939 322.497 4
-7 -4 -6 704.84 288.346 2
11 -4 6 590.437 234.467 2
11 -7 -6 1052.29 363.47 1
-7 11 6 1307.43 450.496 4
-7 11 6 991.864 277.513 1
-7 -4 -6 967.677 302.599 1
11 -4 6 1107.48 496.604 1
-4 11 -6 1379.04 497.775 3
-7 -4 -9 5874.26 1526.87 2
11 -4 9 6115.28 1551.66 2
-4 11 -9 8200.11 1160.48 3
11 -7 -9 6803.12 1067.68 1
-7 11 9 5875.17 1043.72 4
-7 -4 -9 7183.4 940.647 1
11 -4 9 9161.12 1570.56 1
-4 11 -9 9451.22 1575.67 1
-4 11 -12 29.2069 221.152 1
11 -4 12 142.217 257.445 1
-7 -4 -12 245.907 192.294 1
11 -4 12 87.2542 247.609 2
-4 -7 12 746.069 520.239 3
-4 11 -12 -175.371 257.186 3
11 -7 -12 84.0308 123.776 1
-7 -4 -12 193.587 151.172 3
11 -4 15 132.422 465.965 2
-4 -7 15 617.07 417.752 3
-7 -4 -15 466.31 224.805 3
-4 11 -15 199.631 231.656 1
-7 -4 -15 578.038 316.267 1
-8 11 -16 115.333 138.815 1
11 -8 16 337.229 227.204 2
-3 -8 -16 -100.657 196.518 1
-8 11 -16 42.9279 160.146 3
-3 11 16 130.836 200.204 3
-3 -8 -13 240.039 136.565 1
-8 11 -13 29.0914 258.028 1
-3 11 13 193.029 47.9311 3
-8 11 -13 199.602 148.197 3
11 -8 13 -53.0925 534.87 2
-8 11 -10 2936 680.449 3
-3 -8 -10 2301.27 374.074 1
-3 -8 -10 2859.31 609.089 3
11 -8 10 3116.87 932.064 1
11 -8 10 3432.05 1152.05 2
-8 11 -10 3325.4 928.872 1
-3 11 10 2496.93 619.894 3
-8 11 -7 765.923 431.217 3
-3 -8 -7 58.5411 108.902 2
-8 11 -7 523.613 291.377 1
11 -8 7 678.588 517.923 2
11 -8 7 737.598 471.438 1
11 -3 -7 326.154 221.028 1
-3 11 7 295.071 218.475 3
-8 -3 7 548.932 101.871 4
-3 -8 -7 727.978 298.31 3
11 -8 4 2995.73 862.221 2
11 -3 -4 3292.35 688.117 1
-3 11 4 2936.39 431.211 1
-8 11 -4 3473 837.249 1
-3 -8 -4 3915.28 607.101 2
11 -8 4 3019.97 788.621 1
-8 11 -4 1600.5 941.519 2
-3 11 4 2989.97 704.598 3
-3 11 4 2818.48 829.668 4
-3 -8 -4 2708.45 596.503 3
-8 11 -1 6956.81 1187.1 2
-8 -3 1 5917.11 1107.33 2
-3 -8 -1 4751.08 861.285 3
11 -8 1 4813.14 947.58 1
-3 11 1 5484.83 987.515 4
11 -3 -1 5005.14 929.045 1
11 -8 1 3898.52 812.183 2
-3 11 1 4624.66 725.088 1
-3 11 1 4895.73 948.509 3
-8 11 -1 6599.08 1138.41 1
11 -3 -1 3928.98 883.85 2
-8 11 2 8467.95 1072.5 1
11 -8 -2 10749.3 1434.73 1
-8 11 2 8336.24 1047.32 2
11 -3 2 7766.12 1329.94 2
11 -8 -2 9212.06 1550.56 2
11 -3 2 8908.07 1278.62 1
-3 -8 2 7909.62 1187.06 3
-3 -8 2 6678.67 1116.27 4
-3 11 -2 10148.2 1294.29 3
-8 11 2 10078.7 1257.58 4
-3 11 -2 8450.84 1112.3 1
-8 -3 -2 8680.04 1316.98 2
-3 11 -2 9502.59 1313.94 4
-8 -3 -2 8303.29 985.566 1
-3 -8 5 7109.89 1163.58 3
-8 -3 -5 7280.8 1192.04 2
11 -3 5 7052.1 1279.54 2
-8 11 5 5004.55 795.144 2
11 -3 5 6771.4 1098.06 1
-8 11 5 7341.98 1157.11 4
-8 -3 -5 6224.6 856.259 1
11 -8 -5 6615.47 754.083 4
11 -8 -5 6866.13 1068.52 1
-8 11 5 5826.73 806.568 1
-3 11 -5 7959.6 1120.48 3
-3 11 -5 7359.53 1182.22 1
-3 -8 5 5974.42 953.438 4
11 -8 -8 2258.67 601.819 1
-3 -8 8 2384.18 706.092 3
-8 -3 -8 2235.48 573.797 1
11 -3 8 2198.26 780.763 2
-8 11 8 2418.56 685.773 4
11 -3 8 2077.66 679.329 1
-3 11 -8 3314.48 876.597 1
-3 -8 8 3270.38 895.801 4
-8 -3 -8 1595.74 654.827 2
-3 11 -8 2607.63 685.002 3
11 -8 -11 1371.43 485.579 1
11 -3 11 1777.2 717.731 1
11 -3 11 502.219 441.771 2
-3 11 -11 2429.57 877.654 1
-3 11 -11 2439.58 668.454 3
-3 -8 11 2337.69 750.04 3
-8 -3 -11 1579.37 494.393 1
-3 11 -14 -373.399 486.219 1
11 -3 14 133.142 230.435 2
-3 -8 14 -24.4374 97.3491 3
-8 -3 -14 301.941 142.765 3
-8 -3 -14 372.942 289.935 1
-3 11 -17 359.287 616.748 1
-8 -3 -17 479.122 436.276 1
11 -3 17 153.161 47.5552 2
-3 -8 17 136.846 229.635 3
11 -9 17 -102.41 167.169 2
-9 11 -17 16.0742 154.38 1
-2 -9 -17 53.0049 159.398 1
-9 11 -17 6.87727 99.1218 3
-2 11 17 212.051 177.17 3
-9 11 -14 54.5663 103.986 3
-9 11 -14 109.866 187.622 1
11 -9 14 -91.9605 387.174 2
-2 11 14 139.598 216.382 3
-2 -9 -14 136.017 78.6206 1
-9 11 -11 238.995 39.9832 3
-2 -9 -11 -18.276 208.86 3
-9 11 -11 198.447 159.221 1
11 -9 11 -242.514 428.744 2
-2 11 11 426.052 249.377 3
-2 -9 -11 335.385 145.265 1
-2 11 8 1050.51 409.683 3
-2 -9 -8 965.239 413.737 3
11 -2 -8 1133.35 472.754 1
-9 11 -8 1287.9 476.517 3
-9 -2 8 593.316 213.361 4
11 -9 8 383.934 316.375 1
-9 11 -8 1279.11 623.866 1
11 -9 8 628.298 619.267 2
-9 11 -5 1312.57 927.628 2
-2 -9 -5 1975.96 397.954 2
11 -9 5 4512.43 1238.1 2
-9 11 -5 4153.78 946.982 1
-2 11 5 3008.27 812.822 4
-2 11 5 3330.06 719.842 3
11 -2 -5 3625.13 746.74 1
-2 -9 -5 3807.6 744.844 3
11 -9 5 4214.51 969.035 1
-9 11 -2 4236.79 952.039 1
-2 -9 -2 3159.02 693.692 3
-9 11 -2 4462.69 1014.22 2
11 -9 2 2909.59 769.678 2
11 -2 -2 3524.32 725.517 1
-2 11 2 3447.37 549.806 1
-2 11 2 4399.57 944.847 4
11 -9 2 3496.5 851.112 1
-2 11 2 3774.93 776.081 3
11 -9 -1 9110.58 1415.5 2
11 -2 1 11430.6 1521.85 2
-2 11 -1 14052.1 1536.53 4
-2 11 -1 14096.1 1518.88 3
11 -2 1 13956.9 1533.49 1
-2 -9 1 12528.8 1446.41 3
11 -9 -1 14003.7 1598.58 1
-2 -9 1 11829.4 1560.66 4
-9 11 1 15343.5 1536.46 2
-9 -2 -1 10105.5 1135.92 1
-9 -2 -1 15076.3 1715.14 2
-9 11 1 14135.4 1485.22 1
-2 11 -1 12139.1 1230.16 1
11 -9 -4 5395.05 755.764 4
11 -9 -4 5145.48 926.084 1
-9 11 4 5036.81 810.927 2
-2 11 -4 4395.65 801.956 3
-9 -2 -4 4955.62 958.077 2
-2 -9 4 4200.9 840.008 3
-9 -2 -4 4305.07 773.549 1
11 -2 4 4567.37 1001.36 2
-2 11 -4 4360.75 871.855 1
-2 -9 4 4182.23 816.956 4
11 -2 4 4045.69 831.516 1
-9 11 4 4051.65 727.961 1
-9 11 4 4334.5 770.08 4
-9 -2 -7 1866.88 518.403 1
-2 -9 7 2297.31 682.278 4
11 -9 -7 2397.49 647.603 1
11 -2 7 2491.13 815.53 2
-2 11 -7 1855.29 591.477 1
-9 11 7 1559.86 479.991 4
11 -2 7 1807.63 639.569 1
-2 11 -7 1634.9 430.959 3
-9 11 7 1316.25 374.037 1
-9 -2 -7 2554.15 846.029 2
-2 -9 7 2086.42 635.018 3
-2 11 -10 2864.83 920.307 1
11 -9 -10 2088.17 603.025 1
11 -2 10 2398.42 750.581 1
-9 -2 -10 2165.85 606.502 1
11 -2 10 1092.14 439.494 2
-9 11 10 2411.14 682.865 4
-9 -2 -10 2206.38 874.431 2
-2 -9 10 2731 787.177 3
-2 11 -13 61.6098 359.567 1
11 -9 -13 223.732 144.093 1
11 -2 13 -347.851 426.489 1
11 -2 13 313.009 285.262 2
-9 -2 -13 126.694 76.0179 3
-9 -2 -13 70.8295 77.9805 1
-2 -9 13 359.323 275.931 3
-9 -2 -16 160.193 120.685 3
-9 -2 -16 132.856 171.323 1
-2 11 -16 537.805 530.177 1
11 -2 16 386.495 542.136 2
-2 -9 16 192.627 127.985 3
-10 11 -15 56.6471 158.036 3
-10 11 -15 320.593 434.031 1
11 -10 15 -359.875 539.865 2
-1 -10 -15 260.309 185.907 1
-1 11 15 287.099 182.091 3
11 -10 12 -99.3953 353.67 2
-10 11 -12 824.005 581.268 1
-1 -10 -12 414.501 163.836 1
-10 11 -12 711.805 368.826 3
-1 11 12 392.909 205.151 3
-10 11 -9 1554.67 668.523 1
-1 -10 -9 1692.01 514.127 3
-10 -1 9 904.522 261.782 4
-10 11 -9 1847.69 583.082 3
11 -10 9 1658.33 913.968 2
-1 11 9 905.744 314.541 3
-10 11 -6 -16.269 287.911 2
-1 -10 -6 994.928 384.72 3
11 -10 6 -109.685 354.59 2
11 -10 6 997.858 538.176 1
11 -1 -6 861.927 382.526 1
-1 11 6 690.802 289.528 3
-10 11 -6 740.072 446.97 1
11 -1 -3 3691.61 770.036 1
-10 11 -3 4652.09 1183 2
11 -10 3 3215 927.495 2
-1 -10 -3 1495.59 438.782 2
11 -10 3 3316.56 820.342 1
-1 11 3 4531.1 876.018 3
-1 11 3 4746.55 1009.87 4
-1 -10 -3 3752.47 781.427 3
-10 11 -3 4688.59 1025.81 1
-1 11 3 3769.3 488.214 1
-10 11 0 1228.24 453.582 1
-1 11 0 1201.95 360.931 1
-10 -1 0 748.18 286.393 1
11 -1 0 637.483 304.962 2
11 -1 0 1042.44 384.054 1
-10 11 0 1173.51 446.01 2
11 -10 0 1387.27 498.587 1
-1 11 0 802.432 328.11 3
11 -10 0 429.677 137.7 2
-1 -10 0 717.404 455.444 4
-1 11 0 894.905 443.643 4
-10 -1 0 591.066 388.001 2
-1 -10 0 482.869 180.617 3
-1 -10 3 372.563 85.8393 3
11 -10 -3 208.856 79.2723 1
11 -1 3 467.28 211.718 1
-10 11 3 539.549 299.676 1
-10 -1 -3 117.874 133.959 2
-10 11 3 329.002 141.665 2
-1 11 -3 181.599 150.596 4
-1 11 -3 599.634 326.766 3
11 -1 3 172.314 126.104 2
-1 11 -3 561.601 239.144 1
-1 -10 3 623.196 394.749 4
11 -10 -3 357.831 206.199 2
11 -10 -3 546.39 237.768 4
-10 -1 -3 140.51 117.921 1
-1 11 -6 752.583 448.889 1
-10 -1 -6 1053.9 527.074 2
-1 -10 6 618.046 285.434 3
-1 -10 6 334.371 164.17 4
-10 11 6 815.067 377.579 4
-1 11 -6 605.592 166.273 3
11 -1 6 457.391 378.79 2
11 -1 6 693.751 354.662 1
-10 -1 -6 904.512 393.178 1
11 -10 -6 344.911 77.8099 4
11 -10 -6 619.923 271.449 1
-10 11 6 702.692 331.34 2
-10 11 6 260.144 193.1 1
-10 11 9 597.529 256.425 4
-10 -1 -9 943.428 472.533 1
-1 11 -9 1016.75 591.249 1
-10 -1 -9 -242.088 502.509 2
11 -1 9 821.525 535.186 2
11 -1 9 768.982 357.303 1
11 -10 -9 627.961 312.409 1
-1 -10 9 875.201 480.186 3
-1 11 -12 359.062 16.337 1
-10 -1 -12 -11.147 496.794 2
11 -1 12 345.811 115.628 1
11 -10 -12 703.778 396.891 1
11 -1 12 -180.633 349.334 2
-1 -10 12 746.679 378.943 3
-10 -1 -12 523.595 357.51 1
11 -10 -15 -68.7666 209.89 1
11 -1 15 -4.27849 175.626 1
-1 11 -15 119.605 312.209 1
-10 -1 -15 271.204 101.606 3
-10 -1 -15 55.9239 166.702 1
-1 -10 15 102.201 9.54814 3
11 -1 15 -121.85 294.871 2
0 -11 -16 -1.73085 75.31 1
11 -11 16 -510.427 559.429 2
-11 11 -16 282.987 430.854 1
0 11 16 -278.58 285.092 2
-11 11 -16 -13.6312 36.6997 3
-11 11 -13 80.3648 247.888 3
0 11 13 100.363 247.311 2
11 -11 13 -307.889 513.507 2
-11 11 -13 -119.282 266.972 1
0 11 13 47.2281 132.137 3
0 -11 -13 53.9302 33.3319 1
0 -11 -10 180.571 212.94 3
0 11 10 -409.227 216.678 2
-11 11 -10 -210.598 457.25 1
0 11 10 -293.224 262.516 3
-11 0 10 163.536 110.722 4
11 -11 7 3610.3 1609.23 2
0 11 7 6853.32 1071.8 3
0 -11 -7 6999.07 1067.87 3
11 -11 7 7296.66 1483.81 1
-11 11 -7 7383.82 1428.67 1
11 0 -4 3255.81 733.74 1
-11 11 -4 3454.91 1134.6 2
11 -11 4 2252.5 860.879 2
11 -11 4 2693.14 875.188 1
-11 11 -4 2766.19 812.961 1
0 11 4 2651.7 805.748 4
0 -11 -4 2901.79 692.065 3
0 11 4 2421.38 363.145 1
0 11 4 2910.67 688.965 3
-11 11 -1 7470.73 1377.07 2
-11 11 -1 5934.38 1153.95 1
-11 0 1 7022.54 1449.29 2
11 -11 1 4962.41 1001.54 2
0 11 1 10187.5 1498.04 4
0 -11 -1 4469.07 891.24 3
-11 0 1 6379.48 1096.07 1
0 -11 -1 6590.73 1324.06 4
0 11 1 7940.52 1215.63 3
11 0 -1 7786.03 1200.88 1
11 -11 1 5733.57 1170.44 1
11 -11 -2 260.061 162.234 1
0 -11 2 -29.5592 114.566 4
11 -11 -2 229.644 259.961 4
-11 0 -2 29.5043 57.842 1
-11 11 2 -36.8287 94.6606 1
11 0 2 3.29723 59.6873 2
-11 11 2 190.49 60.1721 2
11 0 2 42.2419 124.597 1
0 11 -2 761.652 358.756 4
-11 0 -2 -91.2515 291.272 2
0 11 -2 458.29 323.928 3
0 -11 2 -92.6587 91.2012 3
11 -11 -2 185.11 221.058 2
0 -11 5 183.325 187.636 4
-11 0 -5 341.86 244.361 1
11 0 5 -36.7965 93.4404 1
0 11 -5 286.076 325.889 3
-11 11 5 499.806 260.782 1
11 -11 -5 371.885 157.913 1
-11 0 -5 633.755 334.286 2
11 -11 -5 -184.826 258.822 4
11 0 5 167.227 289.8 2
0 -11 5 -61.1767 275.986 3
-11 11 5 158.251 251.768 2
-11 11 5 212.694 214.073 4
11 0 8 2118.35 648.096 1
-11 11 8 1182.44 427.435 1
-11 0 -8 1487.2 523.992 1
-11 0 -8 1693.82 695.122 2
11 0 8 1452.57 569.274 2
11 -11 -8 1937.44 560.227 1
0 -11 8 1634.72 577.989 3
-11 11 8 1092.99 371.996 4
-11 0 -11 817.894 459.843 1
-11 0 -11 11.49 376.214 2
0 -11 11 1419.16 535.587 3
11 0 11 479.327 305.082 2
11 0 11 995.997 537.15 1
11 -11 -11 1358.15 551.453 1
-11 11 11 670.963 304.712 4
0 11 -14 363.579 506.139 1
11 0 14 554.116 350.38 1
11 0 14 318.019 123.388 2
11 -11 -14 98.592 164.64 1
-11 0 -14 361.883 291.057 1
0 -11 14 498.988 473.146 3
1 -12 -14 723.339 333.5 1
-12 11 -14 798.189 372.7 3
11 -12 14 -42.6091 252.402 2
1 11 14 163.939 94.8171 2
1 -12 -14 331.878 145.228 1
-12 11 -14 611.944 575.345 1
11 -12 11 772.641 726.818 2
-12 11 -11 271.856 277.897 1
1 11 11 263.646 127.578 2
1 11 11 206.621 114.927 3
-12 1 11 226.832 93.6639 4
1 11 8 6345.19 726.034 2
1 11 8 5789.7 1045.79 3
1 -12 -8 7609.72 1229.71 3
-12 11 -8 7343.88 1545.13 1
-12 11 -5 671.416 585.428 2
11 -12 5 2147.46 841.116 2
11 -12 5 1923.3 660.293 1
1 -12 -5 1384.4 496.826 3
1 11 5 1028.38 387.173 3
11 1 -5 1336.64 487.461 1
-12 11 -5 2140.96 732.698 1
11 1 -5 1321.41 302.102 4
11 -12 2 884.563 400.489 2
11 1 -2 1476.08 481.179 1
11 -12 2 1512.07 674.504 1
-12 1 2 1480.24 534.122 1
1 -12 -2 818.061 395.432 3
-12 11 -2 1159.09 388.376 2
-12 11 -2 1411.02 537.803 1
1 -12 -2 1266.76 543.045 4
-12 1 2 1190.16 606 2
1 11 2 2150.15 723.974 4
1 11 2 1999.79 600.042 3
-12 1 -1 3759.15 858.381 1
1 -12 1 3367.16 783.193 3
1 -12 1 3425.83 854.653 4
11 -12 -1 5167.45 1204.14 4
11 -12 -1 3169.03 797.384 2
11 1 1 4824.43 922.316 1
1 11 -1 4750.22 1020.54 4
1 11 -1 3619.59 857.248 3
-12 11 1 3677.51 835.538 1
-12 1 -1 3973.79 980.62 2
11 1 1 3751.58 887.003 2
-12 11 1 4558.73 941.62 2
11 -12 -1 4371.68 887.177 1
1 -12 4 1863.87 632.144 4
11 -12 -4 2099.82 574.377 1
-12 11 4 1980.78 581.019 1
1 11 -4 2203.16 650.13 4
-12 1 -4 1960.87 588.66 1
-12 11 4 2571.65 690.231 2
-12 1 -4 2111.8 742.727 2
11 1 4 1901.15 564.246 1
11 -12 -4 1305.81 606.414 2
11 1 4 2007.43 682.55 2
1 11 -4 2358.95 642.577 3
1 -12 4 1849.92 596.419 3
11 -12 -4 1854 533.725 4
11 1 7 405.603 329.736 1
-12 1 -7 258.298 349.703 2
-12 1 -7 165.592 65.7528 1
-12 11 7 571.751 295.644 4
11 1 7 440.226 463.9 2
11 -12 -7 525.636 283.722 1
1 -12 7 751.917 467.144 3
-12 11 7 603.324 333.56 1
-12 11 7 447.824 380.854 2
1 -12 7 401.098 246.238 4
-12 1 -10 661.191 441.502 1
-12 11 10 414.522 250.576 4
-12 1 -10 -223.126 502.823 2
11 1 10 227.649 268.646 2
11 1 10 597.615 439.148 1
11 -12 -10 506.523 251.799 1
1 -12 10 811.474 471.146 3
-12 1 -13 448.291 340.105 1
11 1 13 1253.63 540.612 1
11 1 13 259.688 389.231 2
11 -12 -13 197.241 150.753 1
1 -12 13 680.194 345.159 3
-12 11 13 542.153 320.167 4
11 1 16 949.585 617.269 1
11 1 16 121.049 180.266 2
1 -12 16 1030.36 597.221 3
11 -12 -16 1143.95 696.353 1
1 11 -16 716.031 543.544 1
2 -13 -15 271.145 255.202 1
2 11 15 -43.3619 112.57 2
-13 11 -15 121.739 180.467 1
-13 11 -15 244.599 137.151 3
2 -13 -15 212.77 129.498 1
-13 11 -12 198.822 120.103 1
2 11 12 -64.0004 124.889 2
11 -13 9 784.219 762.851 2
2 11 9 1696.34 518.055 3
2 11 9 2150.02 479.234 2
2 11 6 3461.11 506.961 2
2 11 6 4517.85 958.716 3
-13 11 -6 4300.96 1367.19 2
11 -13 6 4662.99 1178.19 1
11 2 -6 4937.59 682.208 4
-13 11 -6 4349.95 1067.17 1
2 -13 -6 4488.46 947.61 3
11 -13 6 3524.52 1209.33 2
2 11 3 2508.41 785.421 4
-13 11 -3 2475.65 799.412 1
2 -13 -3 1985.93 629.232 3
-13 11 -3 3002.23 942.774 2
-13 2 3 2435.04 690.947 1
11 -13 3 2185.41 890.963 2
11 -13 3 2568.38 858.372 1
2 -13 -3 1616.85 641.335 4
11 2 -3 2240.38 644.76 1
2 11 3 2570.78 693.737 3
-13 2 3 2533.47 913.531 2
-13 11 0 3628.28 975.164 1
-13 2 0 2892.14 805.689 1
2 11 0 3868.02 922.693 3
11 -13 0 2925.87 838.369 1
-13 11 0 3569.38 909.077 2
11 -13 0 2516.46 717.846 2
-13 2 0 2689.96 877.193 2
2 -13 0 2058.47 697.599 4
2 11 0 4293.79 1039.33 4
11 -13 0 4228.82 1366.61 4
2 -13 0 2024.72 591.218 3
11 2 0 3375.14 837.419 1
11 -13 -3 1936.42 540.402 1
-13 11 3 1715.13 576.094 1
2 -13 3 1368.58 537.795 3
11 -13 -3 1805.99 555.101 4
-13 2 -3 1555.59 605.148 1
2 -13 3 1500.86 586.195 4
11 2 3 900.393 448.492 2
-13 2 -3 2340.22 816.812 2
2 11 -3 1544.78 500.077 4
11 -13 -3 1783.22 824.118 2
11 2 3 1611.93 499.136 1
-13 11 3 1900.09 636.433 2
11 -13 -6 973.948 417.091 1
11 2 6 481.772 281.732 1
2 -13 6 993.413 558.992 4
11 -13 -6 867.198 308.945 4
-13 2 -6 1229.03 631.753 2
-13 2 -6 790.97 459.342 1
-13 11 6 931.443 400.904 1
11 2 6 857.676 443.707 2
-13 11 6 934.66 456.396 2
2 -13 6 558.163 305.466 3
2 -13 9 162.386 143.21 3
11 2 9 -280.796 345.124 1
-13 2 -9 326.447 311.719 1
-13 11 9 284.351 191.067 4
11 -13 -9 480.076 307.026 1
11 2 9 125.355 235.957 2
-13 2 -9 -119.201 381.928 2
11 -13 -12 660.783 468.56 1
11 2 12 880.651 466.718 1
-13 2 -12 162.195 84.5486 1
2 -13 12 374.145 117.003 3
-13 11 12 732.758 337.037 4
11 2 12 324.415 303.035 2
2 -13 15 853.605 494.42 3
11 2 15 177.626 217.37 1
11 2 15 180.682 270.166 2
11 -13 -15 -99.1765 165.569 1
-13 11 15 -210.772 251.098 4
-13 2 -15 554.666 395.896 1
-14 11 -16 322.524 320.309 3
11 -14 16 56.8007 278.413 2
3 -14 -16 130.067 109.442 1
3 -14 -16 357.51 201.099 1
3 11 16 322.17 304.138 2
-14 11 -16 55.1424 304.418 1
11 -14 13 537.786 575.069 2
3 11 13 -157.184 262.024 2
-14 11 -13 377.35 375.199 1
11 -14 10 135.811 297.636 2
3 11 10 119.6 52.4567 2
-14 11 -10 578.475 615.999 1
3 11 7 3331.64 648.781 2
11 -14 7 3981.54 1541.2 2
-14 11 -7 5260.23 1283.05 1
-14 11 -4 1234.53 513.543 1
11 3 -4 604.268 405.65 1
11 -14 4 797.276 496.068 2
-14 11 -4 617.384 504.588 2
11 -14 4 540.044 376.507 1
11 3 -4 246.224 186.11 4
3 -14 -4 462.016 310.925 3
-14 3 4 217.503 190.256 1
-14 3 4 865.724 480.824 2
3 -14 -1 805.22 381.541 3
3 -14 -1 -10.1758 130.703 2
-14 3 1 659.693 408.235 2
-14 11 -1 1303.17 544.325 1
11 -14 1 768.867 143.791 2
11 3 -1 658.213 377.927 1
3 11 1 750.115 368.191 4
11 -14 1 1243.68 586.602 1
-14 11 -1 1203.13 427.446 2
-14 3 1 798.785 340.285 1
3 -14 -1 838.92 404.181 4
3 -14 2 159.869 218.345 3
11 -14 -2 46.1136 158.818 1
-14 3 -2 259.791 191.164 1
11 3 2 119.671 108.959 1
11 -14 -2 190.755 67.416 4
3 11 -2 418.477 216.712 4
-14 3 -2 551.323 349.261 2
-14 11 2 356.098 232.418 2
11 -14 -2 530.094 341.091 2
11 3 2 402.086 362.226 2
3 -14 2 64.6679 115.906 4
-14 11 2 415.457 246.768 1
11 -14 -5 387.484 224.875 1
-14 3 -5 1161.51 573.107 2
11 3 5 735.113 282.047 1
-14 3 -5 921.669 490.938 1
11 3 5 557.53 378.993 2
3 -14 5 324.467 303.143 3
-14 11 5 376.935 254.556 1
-14 11 5 785.669 481.737 2
3 -14 5 792.785 432.921 4
11 -14 -5 726.543 306.523 4
3 11 -5 811.275 431.043 4
11 3 8 1293.29 573.568 2
11 -14 -8 1057.55 416.834 1
-14 3 -8 1624.93 688.247 1
-14 3 -8 1275.84 690.148 2
3 -14 8 1266.06 541.028 3
-14 11 8 666.556 210.6 4
-14 11 8 732.157 406.624 1
-14 11 8 734.693 447.258 2
11 3 8 1074.63 449.504 1
11 3 11 1324.48 587.864 1
3 -14 11 837.008 495.529 3
-14 3 -11 864.846 488.049 1
-14 11 11 979.595 397.341 4
11 3 11 687.953 294.607 2
11 -14 -11 1285.95 481.013 1
11 3 14 790.679 389.844 1
11 -14 -14 839.657 456.127 1
-14 11 14 20.879 70.2781 4
11 3 14 306.893 294.108 2
3 -14 14 6.00415 179.4 3
-14 3 -14 196.671 293.706 1
-15 11 -14 466.708 431.591 1
4 -15 -14 237.878 116.118 1
11 -15 14 -319.71 369.225 2
4 11 14 106.223 170.741 2
4 -15 -14 242.044 109.153 1
11 -15 11 333.381 452.983 2
-15 11 -11 478.16 367.487 1
4 11 11 -135.073 164.754 2
11 -15 8 380.06 595.675 2
4 11 8 1904.67 527.654 2
-15 11 -8 1109.71 665.55 1
-15 11 -5 1841.17 729.93 1
-15 4 5 888.203 429.382 1
4 -15 -5 2042.35 653.676 3
11 -15 5 1698.28 636.942 1
11 -15 5 1150.55 591.612 2
-15 11 -5 1841 861.84 2
4 -15 -5 1624.66 355.234 1
11 4 -5 1799.16 488.695 4
4 11 5 1583.08 347.607 1
-15 4 5 1533.3 776.249 2
4 -15 -2 590.431 250.16 1
4 -15 -2 731.467 308.838 2
4 -15 -2 773.212 504.6 4
-15 4 2 367.982 257.249 1
-15 11 -2 1271.9 707.24 2
11 -15 2 402.722 360.603 1
11 4 -2 821.659 380.189 1
4 11 2 743.503 477.368 4
11 -15 2 859.782 500.92 2
-15 11 -2 753.373 520.417 1
4 -15 -2 844.54 411.293 3
-15 4 2 685.647 489.215 2
11 4 1 85.4638 126.955 1
-15 4 -1 396.229 362.135 1
4 11 -1 266.01 270.918 4
4 -15 1 314.466 335.556 4
11 -15 -1 116.307 254.687 2
-15 11 1 223.34 306.855 2
-15 4 -1 514.859 334.224 2
11 -15 -1 34.8186 110.251 1
-15 11 1 47.5507 182.882 1
4 -15 1 148.406 219.459 3
11 -15 -1 -40.482 193.211 4
-15 4 -4 944.103 565.903 2
4 11 -4 308.567 186.608 4
4 -15 4 991.149 518.834 4
11 -15 -4 575.381 335.465 1
11 -15 -4 1193.14 571.829 4
-15 11 4 638.018 356.279 2
11 -15 -4 982.316 513.91 2
11 4 4 197.773 201.566 2
11 4 4 539.953 339.496 1
-15 4 -4 610.602 373.738 1
4 -15 4 446.884 325.217 3
-15 11 4 566.678 372.696 1
4 -15 7 688.622 426.105 3
11 -15 -7 557.661 250.032 1
-15 4 -7 1189.69 634.539 1
11 4 7 912.211 490.604 2
-15 11 7 356.884 110.605 1
11 4 7 738.067 384.458 1
11 -15 -7 483.793 370.226 4
-15 11 7 787.99 372.821 2
4 -15 10 823.741 502.862 3
11 4 10 328.516 283.245 1
-15 4 -10 405.278 433.823 1
-15 11 10 335.978 222.83 4
11 4 10 614.836 464.176 2
11 -15 -10 344.906 263.853 1
11 -15 -13 864.704 416.448 1
4 -15 13 267.131 113.768 3
11 4 13 704 461.945 1
-15 4 -13 511.99 414.486 1
-15 11 13 459.205 244.183 4
11 4 13 849.214 554.576 2
5 -16 -15 -54.9682 94.6903 1
-16 11 -15 268.519 176.17 1
5 11 15 -85.4256 267.753 2
5 -16 -15 268.94 108.209 1
5 11 12 521.933 312.628 2
11 -16 12 307.824 117.491 2
-16 11 -12 494.276 403.258 1
11 -16 9 497.435 643.119 2
5 11 9 226.432 128.495 1
5 11 9 825.023 378.603 2
-16 11 -9 721.424 512.697 1
11 -16 6 2076.35 957.917 2
-16 11 -6 3649.77 1021.19 1
5 11 6 2864.33 487.606 1
5 11 6 2389.9 546.804 2
-16 5 6 2180.83 667.848 1
11 5 -6 2978.77 659.873 4
5 -16 -6 2980.66 498.21 1
-16 5 3 2828.9 1016.03 2
-16 5 3 7320.62 1356.6 1
11 -16 3 5853.21 1292.05 1
-16 11 -3 8656.46 1595.34 1
11 -16 3 6978.42 1503.7 2
5 -16 -3 4070.1 606.327 2
-16 11 -3 8871.88 1725.5 2
11 5 -3 7438.56 1311.2 1
11 5 -3 6945.36 1131.7 4
5 11 3 7337.39 1386.17 4
5 -16 -3 4553.64 1175.67 4
5 -16 -3 5262.86 1182.64 3
5 -16 -3 4905.4 777.542 1
5 -16 0 2467.25 642.139 1
5 -16 0 2783.23 805.484 3
11 -16 0 1880.59 534.842 2
11 5 0 2825.67 715.494 1
-16 5 0 2741.46 807.187 1
-16 11 0 3606.49 980.434 2
11 -16 0 2787.32 749.11 1
5 -16 0 1268.35 478.691 2
5 11 0 2791.87 867.865 4
11 -16 0 3481.46 1104.64 4
-16 5 0 3143.15 905.687 2
-16 11 0 2148.54 776.18 1
5 -16 0 2442.39 802.428 4
11 -16 -3 303.645 199.567 2
11 5 3 1350.37 476.972 1
-16 11 3 1408.11 660.034 2
11 -16 -3 1515.41 512.468 1
5 -16 3 1247.28 558.353 3
-16 5 -3 2122.94 824.437 2
5 -16 3 1244.56 552.517 4
11 5 3 817.629 444.322 2
11 -16 -3 1063.57 485.915 4
-16 11 3 1271.81 529.593 1
5 11 -3 1419.11 518.955 4
-16 5 -3 1805.45 757.909 1
-16 11 6 1874.63 647.821 1
11 5 6 1705.36 687.941 2
5 -16 6 1582.5 596.101 3
11 5 6 1928.33 586.138 1
-16 5 -6 2689.03 867.184 1
-16 11 6 1019.48 578.276 2
5 11 -6 1798.51 604.913 4
11 -16 -6 1401.33 585.273 4
11 -16 -6 1994.58 560.904 1
-16 5 -9 490.786 433.498 1
11 5 9 670.56 348.937 1
-16 11 9 149.037 232.274 1
11 5 9 82.0577 149.14 2
11 -16 -9 240.378 139.592 1
5 -16 9 883.032 530.041 3
5 -16 12 265.069 298.004 3
11 5 12 339.949 354.083 1
11 5 12 -96.954 93.0068 2
-16 5 -12 63.2805 109.247 1
11 -16 -12 -143.191 172.757 1
-16 11 12 229.239 125.496 4
11 -16 -15 269.417 171.764 1
5 -16 15 173.181 186.789 3
11 5 15 419.373 381.856 1
11 5 15 264.42 416.903 2
-16 5 -15 388.948 435.805 1
-16 11 15 226.605 238.148 4
6 11 13 -106.875 118.281 2
-17 11 -13 184.494 390.787 1
11 -17 13 -438.56 697.895 2
6 -17 -13 42.3593 12.0735 1
6 11 10 443.96 223.976 1
11 -17 10 450.95 421.262 2
6 -17 -10 585.167 204.946 1
6 11 10 898.937 399.585 2
-17 11 -10 435.906 388.136 1
-17 11 -7 446.958 456.817 1
6 -17 -7 497.605 224.653 1
11 -17 7 710.944 497.835 2
6 11 7 328.111 188.224 1
6 11 7 361.854 260.583 2
11 6 -7 405.336 279.277 4
6 11 4 2446.6 575.931 1
-17 11 -4 3508.14 1016.47 1
6 -17 -4 1665.06 436.059 1
11 -17 4 1969.76 691.68 1
11 6 -4 3018.36 722.456 4
11 -17 4 1992.15 750.494 2
-17 6 4 2151.97 805.145 1
6 -17 -4 1003.84 392.966 4
6 -17 -4 585.551 337.731 2
6 -17 -1 2399.9 623.621 1
6 -17 -1 3397.21 851.528 3
-17 6 1 2260.01 755.291 1
11 -17 1 3292.86 901.403 1
11 -17 1 3884.42 932.909 2
6 -17 -1 3355.33 719.482 2
6 11 1 3256.14 963.985 4
11 6 -1 3504.74 860.688 1
-17 11 -1 4108.01 1107.99 2
6 -17 -1 2166.45 817.036 4
-17 11 -1 3141.61 879.534 1
-17 6 1 2162.91 752.973 2
11 -17 1 2972.29 1110.94 4
-17 6 -2 140.274 197.191 1
6 -17 2 -43.235 72.7954 1
6 -17 2 -171.182 227.317 3
-17 11 2 477.2 329.51 1
6 -17 2 -0.82016 110.871 2
-17 6 -2 404.678 373.519 2
11 -17 -2 -164.384 209.842 1
11 -17 -2 114.345 135.463 2
11 6 2 390.63 304.961 1
11 -17 -2 313.131 281.448 4
6 11 -2 303.292 312.831 4
-17 11 2 13.9171 102.748 2
6 11 -5 2356.57 679.608 4
-17 11 5 2299.17 722.662 1
11 -17 -5 2324.94 815.839 2
11 6 5 123.044 415.513 2
-17 6 -5 3357.58 1024.78 1
11 -17 -5 2760.95 714.678 1
11 6 5 2430.93 628.421 1
-17 11 5 2294.02 852.219 2
11 -17 -5 2047.36 740.056 4
6 -17 5 3019.9 895.466 3
11 6 8 -132.097 270.288 1
6 -17 8 642.695 458.283 3
-17 6 -8 635.135 457.812 1
11 -17 -8 -29.4858 43.3485 1
11 6 8 340.866 266.054 2
-17 11 8 108.428 58.7372 1
11 6 11 1577.48 583.832 1
6 -17 11 838.871 414.992 3
-17 6 -11 1123.42 623.708 1
11 -17 -11 906.832 368.382 1
11 6 11 853.414 484.109 2
11 6 14 1010.13 498.618 1
6 -17 14 533.914 434.861 3
11 -17 -14 847.69 365.347 1
11 6 14 877.957 574.307 2
-17 11 14 191.723 167.017 4
-17 6 -14 1018.14 521.992 1
7 -18 -14 241.872 127.388 1
11 -18 14 -345.351 591.865 2
7 11 14 -336.478 331.863 2
-18 11 -14 185.509 447.468 1
-18 11 -11 1926.13 860.422 1
11 -18 11 -339.156 399.756 2
7 11 11 1271.06 550.929 2
7 -18 -11 1033.37 285.925 1
7 11 11 1138.92 384.491 1
11 -18 8 748.184 696.764 2
7 -18 -8 1699.8 413.097 1
7 11 8 54.7315 258.107 2
-18 11 -8 1419.84 654.517 1
7 11 8 1762.63 483.478 1
-18 7 5 2531.49 792.732 1
11 7 -5 3532.36 785.051 4
-18 11 -5 3817.72 1101.58 1
7 11 5 3549.98 670.336 1
7 -18 -5 3334.07 661.123 1
11 -18 5 3367.29 1196.08 2
7 11 2 8169.35 1203.8 1
11 7 -2 6567.7 1250.33 1
11 -18 2 7516.69 1430.19 1
7 11 2 6507.08 1324.73 4
-18 11 -2 9252.66 1657.19 1
11 7 -2 7083.61 1265.85 4
7 -18 -2 6338.74 1023.37 2
-18 7 2 7765.91 1483.71 1
11 -18 2 8064.83 1574.28 2
7 -18 -2 6456.42 1023.02 1
-18 7 -1 704.311 360.481 1
7 11 -1 286.4 348.22 4
7 -18 1 549.428 246.857 2
11 7 1 403.998 300.959 1
11 -18 -1 1095.67 482.488 1
11 -18 -1 522.376 116.465 2
7 -18 1 558.745 342.55 1
-18 11 1 900.987 612.515 2
11 -18 -1 1195.06 475.898 4
-18 11 1 828.275 547.752 1
-18 11 4 1278.16 514.778 1
7 -18 4 1603.36 628.907 1
11 7 4 956.209 382.284 1
7 -18 4 1161.88 638.396 2
-18 11 4 1318.1 682.326 2
11 -18 -4 1183.86 498.752 1
11 -18 -4 2146.58 800.849 2
-18 7 -4 1662.96 757.098 1
11 -18 -4 1289.8 595.448 4
7 11 -4 1178.79 505.193 4
11 7 4 815.603 549.916 2
7 -18 4 1521.15 600.011 3
7 -18 7 605.798 277.004 3
7 -18 7 812.231 688.207 2
11 7 7 1079.96 466.877 1
-18 7 -7 851.983 511.205 1
11 7 7 989.159 593.481 2
11 -18 -7 799.829 365.049 1
11 -18 -7 732.045 536.161 4
7 11 -7 740.72 451.846 4
-18 11 7 766.066 420.505 1
7 -18 10 228.598 221.101 3
11 -18 -10 259.171 115.211 1
11 7 10 223.612 144.304 2
-18 7 -10 631.567 516.119 1
11 7 10 -88.6746 132.326 1
-18 7 -13 1158.36 596.967 1
11 7 13 1355.69 633.668 1
11 -18 -13 537.458 310.262 1
11 7 13 715.343 380.717 2
11 -19 12 17.1333 529.174 2
-19 11 -12 287.297 357.646 1
8 -19 -12 82.4782 144.724 1
8 11 12 119.921 80.0043 2
8 11 12 85.5956 117.12 1
8 11 9 409.575 264.393 1
-19 11 -9 -87.4959 275.193 1
11 -19 9 161.445 292.562 2
8 -19 -9 338.449 161.257 1
8 11 9 1.51112 191.574 2
8 11 6 457.095 298.806 2
-19 11 -6 401.718 229.768 1
11 -19 6 272.737 313.363 2
8 -19 -6 265.384 144.618 1
-19 8 6 553.693 362.77 1
11 8 -6 801.672 397.97 4
8 11 6 531.581 255.168 1
8 -19 -3 3759.83 769.975 1
-19 11 -3 5602.51 1330.5 1
11 -19 3 5745.06 1341.52 2
-19 8 3 3861.34 1056.04 1
8 -19 -3 3119.84 602.805 2
8 11 3 4607.06 887.227 1
11 8 -3 3589.91 839.01 4
11 8 0 4297.74 972.799 1
-19 8 0 4380.03 1137.73 1
8 -19 0 5913.62 1125.5 2
8 11 0 4258.56 1094.15 4
-19 11 0 4588.79 1172.98 1
8 -19 0 5238.61 1062.23 1
11 -19 0 5127.68 1129.25 1
11 -19 0 4256.14 986.466 2
-19 8 -3 -31.3526 257.836 1
8 -19 3 2.30432 185.624 2
-19 11 3 -21.3368 293.897 1
11 -19 -3 -280.705 361.728 2
11 8 3 307.949 260.658 1
11 -19 -3 146.2 229.24 1
8 -19 3 241.68 318.452 1
8 11 -3 -257.321 278.214 4
11 8 6 786.708 267.657 1
8 -19 6 1111.27 711.672 2
11 8 6 771.468 442.357 2
-19 8 -6 1125.09 657.379 1
-19 11 6 883.491 472.471 1
8 11 -6 1304.68 557.83 4
11 -19 -6 1339.31 521.944 1
8 -19 9 -51.1072 490.343 2
11 8 9 1149 534.426 1
-19 11 9 501.864 366.668 1
11 8 9 944.795 511.359 2
11 -19 -9 884.21 428.486 1
-19 8 -9 1045.32 576.545 1
-19 8 -12 92.0164 259.577 1
11 -19 -12 405.55 201.457 1
8 -19 12 -81.495 298.589 2
11 8 12 242.474 258.043 1
11 8 12 20.1648 195.454 2
-20 11 -13 -223.579 381.726 1
9 -20 -13 112.577 60.743 1
9 11 13 -37.623 154.192 1
9 11 13 -113.318 267.902 2
11 -20 13 -19.4911 367.924 2
9 11 10 1046.82 555.5 2
11 -20 10 80.7569 308.889 2
9 11 10 415.127 150.159 1
9 -20 -10 730.221 265.874 1
-20 11 -10 178.516 192.75 1
-20 9 7 816.975 576.008 1
-20 11 -7 2197.63 1008.62 1
11 -20 7 722.453 679.213 2
11 9 -7 1090.21 536.873 4
9 -20 -7 570.899 340.32 1
9 11 7 985.844 382.648 1
9 11 7 728.445 463.272 2
-20 9 4 1372.72 640.536 1
9 -20 -4 1852.23 570.868 1
11 -20 4 1434.28 671.547 2
-20 11 -4 2847.4 991.203 1
9 -20 -4 1625.07 632.703 2
9 11 4 1824.72 526.69 1
11 9 -4 1227.01 465.342 4
-20 11 -1 5017.8 1237.43 1
-20 9 1 4153.46 1130.82 1
9 11 1 2745.67 894.627 4
9 -20 -1 3349.87 834.891 1
11 -20 1 3773.88 939.318 1
11 9 -1 2614.91 770.116 4
11 -20 1 5114.51 1202.62 2
9 -20 -1 3879.86 860.662 2
9 11 1 4126.88 909.248 1
11 9 -1 3737.41 922.223 1
11 9 2 1071.67 500.077 1
9 -20 2 554.123 357.303 2
11 -20 -2 774.151 247.133 2
11 -20 -2 1249.74 544.92 1
-20 11 2 1177.19 625.828 1
-20 9 -2 1281.65 690.086 1
9 -20 2 896.621 461.292 1
9 11 -2 810.147 396.667 4
9 11 -5 62.2461 202.891 4
-20 11 5 -132.94 278.576 1
11 9 5 282.661 199.278 1
11 -20 -5 33.2493 43.6655 1
9 -20 5 43.8097 393.652 2
-20 9 -5 262.733 307.024 1
11 9 5 -28.9301 190.173 2
11 -20 -5 213.371 285.563 2
9 -20 8 953.405 813.161 2
11 9 8 1747.8 613.206 1
-20 9 -8 2244.79 919.625 1
11 -20 -8 986.954 421.455 1
11 9 8 703.655 502.452 2
-20 11 8 993.553 533.434 1
9 -20 11 -264.308 110.097 2
-20 9 -11 -13.5815 273.838 1
11 9 11 457.38 334.653 1
11 9 11 400.602 287.648 2
11 -20 -11 270.422 238.469 1
-21 11 -11 364.739 232.549 1
11 -21 11 193.858 322.89 2
10 11 11 5.83993 105.824 2
10 -21 -11 269.978 240.627 1
10 11 11 177.124 79.2958 1
10 -21 -8 588.484 347.124 1
11 -21 8 -126.105 121.45 2
10 11 8 521.802 269.625 1
-21 11 -8 597.569 480.558 1
-21 10 8 137.413 107.961 1
10 11 8 286.131 223.14 2
11 10 -8 555.394 442.035 4
11 -21 5 2673.13 1146.36 2
10 11 5 3100.81 727.343 1
-21 10 5 3353.98 1045.36 1
-21 11 -5 5766.47 1441.67 1
10 -21 -5 4064.92 1453.72 2
11 10 -5 3401.03 866.766 4
10 -21 -5 3596.2 823.244 1
11 10 -2 1681.34 630.362 4
10 -21 -2 1667.57 545.112 1
10 11 2 2158.79 664.874 1
11 -21 2 2412.08 806.415 2
-21 11 -2 3634.35 1129.32 1
10 -21 -2 1814.74 515.637 2
-21 10 2 2302.51 930.519 1
11 10 1 1378.64 538.704 1
10 -21 1 1993.95 733.097 1
-21 11 1 1407.53 629.906 1
11 -21 -1 1359.98 552.262 1
10 -21 1 1478.47 577.764 2
11 -21 -1 1011.4 409.89 2
-21 10 -1 2112.48 936.412 1
10 11 -1 1602.08 675.999 4
10 -21 4 224.379 493.661 2
11 -21 -4 631.303 336.387 1
11 10 4 717.791 342.176 1
-21 10 -4 1041.3 649.322 1
-21 11 4 749.622 408.716 1
11 -21 -4 663.922 33.4807 2
10 11 -4 803.663 456.845 4
-21 11 7 1838.95 751.397 1
10 -21 7 799.386 833.943 2
-21 10 -7 2440.61 999.303 1
11 -21 -7 2018.02 601.984 1
11 10 7 2226.41 671.669 1
10 11 -7 2413.51 766.312 4
11 10 7 1361.51 631.847 2
10 -21 10 186.588 398.429 2
-21 10 -10 841.579 720.28 1
11 -21 -10 933.392 379.682 1
11 10 10 869.727 485.471 2
11 10 10 1479.73 541.838 1
-22 11 0 1454.71 791.674 1
11 -22 0 1116.87 489.236 1
11 11 0 1210.15 498.846 1
11 11 0 1422.42 607.973 4
11 -22 0 1311.12 555.638 2
11 11 3 380.777 263.884 1
11 -22 -3 405.706 195.238 1
11 -22 3 636.337 541.465 2
-22 11 3 290.273 495.402 1
11 -22 -3 365.826 107.6 2
11 11 -3 644.977 429.674 4
-22 11 -3 645.982 470.856 1
11 -22 6 247.948 309.174 2
11 -22 -6 525.483 262.563 1
-22 11 -6 873.828 567.603 1
11 11 -6 826.202 459.271 4
-22 11 6 162.212 136.447 1
11 11 6 283.047 191.154 1
11 11 9 233.009 200.819 1
11 -22 9 148.055 347.224 2
-22 11 -9 337.932 610.374 1
11 -22 -9 711.614 413.791 1
-22 11 9 200.107 196.682 1
11 11 9 28.1362 253.906 2
11 11 12 337.584 263.084 1
-22 11 -12 709.131 456.439 1
11 -22 12 331.117 454.655 2
11 -22 -12 715.721 345.412 1
11 11 12 941.747 501.057 2
-6 12 0 1991.54 565.385 3
-6 12 0 2585.19 613.589 2
-6 12 0 2080.5 592.621 1
12 -6 0 2281.35 609.966 1
12 -6 0 1954.59 602.152 2
-6 12 0 2715.45 705.353 4
-6 12 3 4957.28 1018.37 4
-6 12 -3 4461.71 960.908 1
12 -6 3 3095.26 780.402 1
-6 12 3 3880.54 842.696 3
-6 -6 -3 4678.3 966.371 2
-6 12 -3 4376.69 969.559 3
-6 12 3 3356.03 530.526 2
12 -6 -3 4617.31 899.42 1
12 -6 3 3888.35 958.73 2
-6 12 3 3991.74 670.425 1
-6 -6 3 3713.17 850.512 4
-6 -6 -6 5866.27 1073.08 2
12 -6 6 7037.95 1451.98 2
-6 12 6 2945.59 455.816 2
-6 -6 -6 5325.28 666.958 1
-6 12 6 6487.36 1234.93 4
12 -6 6 6250.33 1222.4 1
-6 12 6 5368.55 655.758 1
12 -6 -6 4844.28 926.368 1
-6 -6 6 5041.65 857.371 4
-6 -6 -6 5406.8 888.282 3
-6 12 -6 7584.86 1213.96 3
-6 12 6 5598.3 1021.33 3
-6 12 -6 6984.52 1288.95 1
-6 -6 -9 757.532 378.205 2
-6 12 -9 1674.53 600.106 1
12 -6 -9 1024.7 392.561 1
12 -6 9 1135.34 744.74 2
12 -6 9 1141.58 343.018 1
-6 12 9 767.431 303.725 3
-6 -6 -9 1018.43 288.852 1
-6 -6 9 921.918 354.486 4
-6 12 -9 1286.14 432.829 3
-6 -6 -9 1046.51 355.659 3
-6 12 9 376.198 158.134 4
-6 -6 -12 1996.68 501.651 1
-6 12 12 1616.67 544.837 3
12 -6 12 2058.45 849.214 2
-6 12 -12 2684.31 955.986 1
-6 12 -12 1783.45 560.599 3
-6 -6 -12 2193.03 565.603 3
-6 -6 -15 -43.4076 121.582 3
-6 12 -15 329.581 337.426 1
-6 12 15 -264.807 245.601 3
-6 -6 -15 121.411 178.861 1
12 -6 15 540.735 568.112 2
-5 -7 -16 629.713 337.533 1
-5 12 16 570.363 350.885 3
-7 12 -16 490.251 419.252 1
12 -7 16 272.335 144.883 2
-5 -7 -13 1862.39 511.368 3
-5 12 13 1740.37 557.554 3
-7 12 -13 2008.04 812.307 1
12 -7 13 808.894 937.268 2
-5 -7 -13 1484.77 405.392 1
-7 12 -13 2057.32 662.152 3
-5 -7 -10 2282.45 448.511 1
-7 12 -10 3351.75 959.486 1
12 -7 10 4022.49 1073.07 1
12 -7 10 2884.67 1065.87 2
-5 -7 -10 2729.29 594.494 3
-5 12 10 2678.5 675.889 3
-7 -5 10 2889.73 682.093 4
-7 12 -10 4219.01 899.638 3
12 -5 -10 2217.68 663.111 1
-7 12 -7 1854.41 574.847 3
-5 12 7 1600.3 521.279 3
-7 12 -7 1803.92 602.882 1
-5 -7 -7 141.279 376.33 2
12 -7 7 1584.26 843.745 2
-5 -7 -7 1556.67 321.072 1
12 -5 -7 1394.93 467.738 1
12 -7 7 2069.79 684.98 1
-5 12 7 1233.61 264.289 1
-7 -5 7 1619.39 461.112 4
-5 -7 -7 1277.83 422.913 3
-5 12 7 1518.33 552.785 4
-5 12 4 901.028 471.129 4
-5 12 4 377.226 294.442 3
-5 12 4 402.29 159.928 1
12 -7 4 252.856 238.149 1
-7 12 -4 897.208 413.03 1
-7 -5 4 753.032 261.627 4
12 -7 4 22.0603 182.983 2
-5 -7 -4 647.829 284.382 2
12 -5 -4 1054.96 345.387 1
-5 -7 -4 259.103 58.339 3
-7 12 -4 450.037 239.735 3
-5 12 1 4323.53 843.991 3
-7 12 -1 5076.35 997.586 2
-5 -7 -1 4150.6 726.294 2
12 -7 1 3169.4 829.037 2
12 -7 1 4164.63 889.382 1
-7 12 -1 4070.88 891.172 1
-5 12 1 1601.6 437.084 2
-7 12 -1 4456.11 878.246 3
12 -5 -1 4707.12 881.83 1
-5 12 1 4799.44 832.606 1
-5 12 1 4252.63 885.139 4
12 -5 -1 3578.12 863.42 2
-5 12 -2 372.673 193.545 3
12 -7 -2 344.807 222.905 1
-7 -5 -2 265.55 127.997 2
12 -5 2 268.813 191.017 1
-5 12 -2 467.573 318.8 1
-7 12 2 399.943 149.337 2
-7 12 2 446.454 207.492 4
-5 -7 2 -99.5595 173.4 4
12 -7 -2 474.282 227.973 2
12 -5 2 253.726 52.8158 2
-7 12 2 576.283 256.985 1
-7 12 5 337.233 181.08 1
-7 12 5 165.411 152.356 2
12 -7 -5 78.8196 29.0471 4
-7 -5 -5 245.169 84.8101 1
-5 12 -5 598.713 367.126 1
12 -7 -5 226.475 197.699 1
-7 -5 -5 281.751 300.3 2
12 -5 5 217.792 82.6711 2
-5 12 -5 381.563 200.141 3
12 -5 5 583.291 317.233 1
-5 -7 5 401.546 227.115 4
-7 12 5 621.888 366.394 4
-7 -5 -8 77.5452 143.793 2
-5 12 -8 2011.91 751.525 1
12 -7 -8 812.412 358.28 1
12 -5 8 1082.1 540.82 2
-5 -7 8 569.258 361.498 4
12 -5 8 1285.63 613.025 1
-7 12 8 786.107 373.872 4
-7 -5 -8 1124.92 334.526 1
-5 12 -8 1350.51 482.114 3
-7 -5 -11 384.064 209.474 1
-5 12 -11 1390.7 615.067 1
12 -7 -11 578.518 361.122 1
12 -5 11 1323.51 553.756 1
12 -5 11 1083.31 586.086 2
-7 -5 -11 866.791 337.444 3
-5 12 -11 1415 494.379 3
-5 12 -14 263.319 439.883 1
-7 -5 -14 534.663 289.161 3
12 -5 14 136.245 331.184 2
-5 -7 14 -84.8202 305.972 3
-7 -5 -14 103.32 106.867 1
-4 12 14 190.66 202.577 3
12 -8 14 403.541 613.199 2
-8 12 -14 55.1458 294.13 1
-4 -8 -14 272.373 136.781 1
-8 12 -14 45.976 78.1619 3
-4 -8 -11 628.284 296.309 3
-4 12 11 216.934 107.584 3
-8 12 -11 429.145 210.947 3
-4 -8 -11 466.165 159.983 1
-8 12 -11 251.724 160.141 1
12 -8 11 -44.7958 373.386 2
-4 12 8 1291.1 440.417 3
-8 12 -8 1356.8 484.434 3
-4 -8 -8 1660.06 539.721 2
-8 12 -8 1521.21 612.134 1
12 -8 8 1072.54 537.533 1
12 -4 -8 1648.78 574.277 1
-8 -4 8 929.897 284.446 4
-4 -8 -8 1653.95 314.054 1
-4 -8 -8 1353.43 437.627 3
12 -8 8 1181.77 859.941 2
-4 12 5 1230.16 307.176 1
-4 12 5 1041.37 425.268 3
12 -4 -5 848.586 421.525 1
-4 12 5 1425.14 586.514 4
-4 -8 -5 1136.35 427.853 2
12 -8 5 513.74 409.513 2
12 -8 5 1028.83 529.792 1
-8 -4 5 918.133 375.64 4
-8 12 -5 1212.32 491.867 3
-4 -8 -5 1216.57 473.489 3
-8 12 -5 1049.84 477.251 1
-4 -8 -2 106.115 166.029 2
-4 -8 -2 251.864 256.313 3
12 -4 -2 186.549 240.339 1
-4 12 2 705.774 478.728 4
-4 12 2 115.895 115.319 1
12 -8 2 -81.3238 231.685 2
-8 12 -2 -72.5413 252.493 1
-4 12 2 -100.212 235.388 3
12 -4 -2 287.607 241.897 2
-8 12 -2 200.946 240.885 2
12 -8 2 255.887 227.596 1
-4 12 -1 950.937 363.173 1
-8 12 1 1229.6 430.186 2
12 -8 -1 1128.92 478.111 1
-8 -4 -1 852.216 462.093 2
12 -4 1 991.535 403.954 1
-4 -8 1 988.403 450.321 4
12 -4 1 356.27 280.563 2
-4 12 -1 667.108 298.385 4
-4 -8 1 1160.84 497.229 3
-4 12 -1 957.821 390.938 3
-8 12 1 845.285 362.54 4
12 -8 -1 589.395 370.816 2
-8 12 1 1122.44 460.519 1
12 -4 4 5306.96 1223.87 2
-8 12 4 4092.43 712.5 2
-8 12 4 3843.7 719.651 1
12 -8 -4 5135.74 1000.38 1
-4 -8 4 2966.22 665.442 4
-8 12 4 4824 984.762 4
-8 -4 -4 3995.25 916.34 2
12 -8 -4 4464.07 655.583 4
-8 -4 -4 3960.04 679.94 1
-4 -8 4 3758.9 840.753 3
-4 12 -4 4489.94 923.764 3
12 -4 4 3636.97 900.049 1
-4 12 -4 4024.7 906.662 1
-8 -4 -7 5502.16 824.107 1
12 -4 7 6761.86 1477.96 2
-8 12 7 6031.67 816.233 2
12 -4 7 5981.93 1175.31 1
-8 12 7 6612.7 1219.82 4
-4 12 -7 6548.01 1222.34 1
-8 12 7 5205.42 734.222 1
-4 -8 7 5509.86 992.287 4
-4 12 -7 6049.02 1049.32 3
-8 -4 -7 4726.6 1191.82 2
12 -8 -7 5208.43 980.594 1
-8 -4 -10 6160.72 943.123 1
-8 -4 -10 6398.55 1584.49 2
-4 12 -10 7978.3 1518.1 1
-4 12 -10 7470.57 1133.7 3
12 -4 10 6003.85 1446.23 2
-8 12 10 5140.52 1014.21 4
-4 -8 10 6166.05 1148.57 3
12 -8 -10 5430.15 1023.48 1
12 -4 10 7541.88 1468.52 1
-4 12 -13 362.239 154.127 1
12 -4 13 106.117 178.995 2
-8 -4 -13 224.201 192.409 1
-8 -4 -13 333.33 177.837 3
-4 -8 13 508.707 363.205 3
-8 -4 -16 -46.8483 24.2646 3
-4 12 -16 -539.662 691.59 1
12 -4 16 549.437 549.386 2
-4 -8 16 413.76 288.313 3
-8 -4 -16 -78.4612 231.836 1
-9 12 -15 662.627 382.861 3
12 -9 15 12.0331 393.024 2
-9 12 -15 -46.0439 419.627 1
-3 -9 -15 209.599 142.684 1
-3 12 15 159.691 147.755 3
-3 12 12 285.046 66.1285 3
-9 12 -12 930.162 451.66 3
-3 -9 -12 608.099 229.517 1
-3 -9 -12 722.743 304.533 3
12 -9 12 -231.759 371.453 2
-9 12 -12 846.768 544.835 1
12 -9 9 6388.29 1655.62 2
12 -9 9 4872.95 1287.76 1
-9 12 -9 4525.96 1164.29 1
12 -3 -9 1960.35 616.475 1
-3 -9 -9 3422.21 750.016 3
-3 12 9 2717.07 702.157 3
-9 12 -9 4664.97 960.892 3
-9 -3 9 2102.37 472.045 4
-3 -9 -6 4828.37 745.101 2
12 -9 6 4114.33 1319.6 2
-9 12 -6 5239.35 1129.45 1
-3 -9 -6 5170.44 901.09 3
-9 -3 6 4115.87 728.353 4
-3 12 6 4758.85 956.176 3
-9 12 -6 4279 910.266 3
12 -3 -6 3782.3 806.022 1
12 -9 6 5271.59 1229.34 1
-3 12 6 3100.35 862.658 4
-3 12 3 1783.67 573.708 3
-9 12 -3 2673.23 827.72 1
-9 12 -3 975.474 584.63 2
12 -9 3 772.779 226.972 2
-3 12 3 1830.43 436.706 1
12 -9 3 1935.25 661.886 1
-3 -9 -3 1415.34 444.197 3
12 -3 -3 2354.84 666.553 1
-3 12 3 1771.38 625.546 4
-3 -9 -3 1333.42 359.821 2
12 -3 0 374.173 109.651 2
12 -9 0 488.262 314.787 1
-3 12 0 625.365 291.804 1
12 -3 0 497.549 272.612 1
-9 -3 0 752.632 342.299 2
-3 12 0 474.842 253.982 3
-9 12 0 837.121 367.982 2
-3 -9 0 284.239 105.255 4
12 -9 0 140.979 153.223 2
-9 -3 0 784.295 296.89 1
-3 12 0 724.141 377.468 4
-3 -9 0 436.154 202.881 3
-9 12 0 989.964 410.037 1
12 -9 -3 5923.86 988.607 4
12 -9 -3 4710.89 949.805 1
12 -3 3 3270.32 820.277 1
-9 12 3 4496.78 761.006 2
-9 12 3 3273.01 685.407 1
-3 12 -3 3552.84 728.846 1
-9 -3 -3 4400.54 914.9 2
-9 12 3 3927.68 786.861 4
-3 -9 3 3387.11 752.829 4
-9 -3 -3 3864.71 708.274 1
-3 12 -3 3691.75 789.089 3
12 -9 -3 3702.43 1062.33 2
-3 -9 3 4041.09 903.709 3
12 -3 3 4072.58 930.243 2
-3 12 -6 1476.68 590.812 1
-3 -9 6 1346.23 502.814 4
12 -9 -6 1631.25 565.638 1
-9 -3 -6 1920.28 650.843 2
-3 12 -6 1651.95 545.934 3
12 -3 6 1409.58 656.493 2
-9 12 6 1875.61 502.761 1
12 -9 -6 1229.45 360.296 4
-9 12 6 1698.18 526.216 4
12 -3 6 1020.74 312.764 1
-3 -9 6 1230.41 431.218 3
-9 12 6 1011.85 395.817 2
-9 -3 -6 1112.22 417.663 1
-9 12 9 1241.92 475.522 4
-3 12 -9 1107.62 522.193 1
-9 -3 -9 600.364 513.843 2
-9 -3 -9 1216.41 441.731 1
12 -3 9 1148.3 438.25 2
12 -3 9 1839.22 562.374 1
-3 12 -9 1642.46 547.406 3
-3 -9 9 1554.07 678.258 4
12 -9 -9 1286.92 514.549 1
-3 -9 9 1375.33 584.801 3
12 -3 12 1035.24 559.236 1
12 -9 -12 1558.31 597.81 1
-3 12 -12 700.025 587.015 1
-9 -3 -12 560.292 304.997 1
12 -3 12 22.1571 289.004 2
-3 -9 12 956.912 533.448 3
12 -3 15 51.0604 211.357 2
-9 -3 -15 223.592 265.024 1
-3 12 -15 456.537 286.334 1
-3 -9 15 279.289 205.462 3
-9 -3 -15 54.9478 31.6797 3
12 -10 16 -369.788 547.376 2
-10 12 -16 471.109 444.568 1
-2 -10 -16 306.176 221.378 1
-10 12 -16 -67.9463 147.563 3
-2 12 16 -133 184.343 3
-10 12 -13 208.828 19.3515 3
12 -10 13 251.377 509.503 2
-2 12 13 69.4638 98.9937 3
-10 12 -13 743.855 654.195 1
-2 -10 -13 177.237 86.9919 1
-2 12 10 2018.61 470.197 2
12 -10 10 2124.26 980.83 2
-10 12 -10 3043.9 797.487 3
-2 -10 -10 2503.75 649.974 3
-10 12 -10 2763.54 987.547 1
-2 12 10 2436.34 683.132 3
-10 -2 10 2052.14 444.123 4
-2 -10 -7 2367.01 623.535 3
12 -10 7 1980.78 944.009 2
12 -2 -7 1715 584.38 1
-10 12 -7 3346.18 922.99 1
-2 12 7 2465.21 653.721 3
-10 -2 7 1914.67 461.983 4
12 -10 7 2570.51 897.331 1
-10 12 -4 3184.7 1020.86 2
12 -2 -4 3336.83 732.209 1
12 -10 4 3115.66 941.284 2
-2 -10 -4 2803.84 527.947 2
12 -10 4 2912.14 844.049 1
-2 12 4 3518.94 527.227 1
-10 12 -4 2997.96 820.139 1
-2 12 4 2732.85 810.333 4
-2 12 4 3010.93 744.977 3
-2 -10 -4 3249.2 728.947 3
-2 -10 -1 3653.65 820.309 3
-10 12 -1 5491.89 1165.29 2
-10 -2 1 4394.03 1012.13 2
-10 -2 1 2436.14 579.334 1
12 -2 -1 2670.94 728.158 2
12 -10 1 2986.97 816.51 2
12 -2 -1 4604.95 919.872 1
-2 12 1 3799.03 899.616 3
12 -10 1 3974.35 920.156 1
-2 12 1 5086.22 1035.48 4
-2 12 1 3435.39 620.214 1
-10 12 -1 4685.37 995.352 1
12 -2 2 2871.93 801.967 2
-10 -2 -2 2789.9 797.667 2
-10 -2 -2 2772.64 640.112 1
12 -10 -2 2614.04 799.475 2
12 -10 -2 3137.91 808.839 1
-10 12 2 2825.93 633.682 1
-10 12 2 3259.09 683.994 2
12 -2 2 2945.96 741.384 1
-2 12 -2 3197.39 730.155 4
-2 12 -2 3255.25 749.26 3
-2 -10 2 2676.26 729.124 4
-2 12 -2 3654.73 765.94 1
-2 -10 2 3152.04 733.992 3
12 -2 5 258.872 168.976 1
-10 12 5 1183.97 410.832 1
-10 12 5 610.977 336.241 4
-10 -2 -5 804.992 335.718 1
-2 12 -5 531.948 207.841 1
-10 -2 -5 1264.44 631.325 2
-10 12 5 931.687 341.513 2
12 -2 5 1083.84 525.485 2
12 -10 -5 1296.07 440.724 4
-2 -10 5 883.741 269.659 4
12 -10 -5 1522.79 548.938 1
-2 -10 5 995.293 413.47 3
-2 12 -5 738.112 308.332 3
-2 12 -8 2494.33 808.565 1
12 -2 8 2117.74 669.03 1
-10 -2 -8 2436.1 866.857 2
12 -10 -8 1609.21 548.299 1
12 -2 8 1828.44 665.306 2
-10 -2 -8 2271.48 593.962 1
-2 -10 8 1901.77 709.383 4
-2 12 -8 2168.63 609.901 3
-2 -10 8 2369.97 712.489 3
-10 12 8 1714.81 451.609 1
-10 12 8 2448.8 765.616 4
-2 12 -11 1954.11 876.74 1
12 -10 -11 1424.07 507.823 1
-10 -2 -11 1721.63 581.716 1
-10 -2 -11 727.413 589.27 2
12 -2 11 1706.63 668.111 1
12 -2 11 776.286 416.546 2
-10 12 11 1020.08 433.076 4
-2 -10 11 2057.93 710.834 3
12 -2 14 -64.6143 335.799 2
-10 -2 -14 193.933 275.483 1
-10 -2 -14 541.454 265.25 3
-2 12 -14 481.707 341.943 1
-2 -10 14 705.168 462.213 3
-11 12 -14 783.432 472.274 3
-1 12 14 -357.976 374.466 2
-1 -11 -14 588.843 215.14 1
12 -11 14 -450.318 564.188 2
-11 12 -14 708.341 677.143 1
-1 12 14 544.895 344.847 3
-11 12 -11 519.097 287.902 3
-1 -11 -11 663.03 404.415 3
-1 12 11 220.324 125.482 2
12 -11 11 388.603 499.07 2
-1 12 11 185.103 58.8553 3
-11 12 -11 730.494 558.475 1
-11 -1 11 181.339 23.0966 4
12 -11 8 6985.71 1832.36 2
-11 12 -8 6614.2 1449.52 1
-11 -1 8 6627.36 766.739 4
-1 12 8 5556.2 1002.14 3
-1 -11 -8 7285.64 1136.79 3
12 -1 -5 1229.29 446.549 1
-11 12 -5 861.907 665.605 2
-1 -11 -5 1293.29 439.288 3
12 -11 5 1340.08 611.583 2
12 -11 5 1454.06 626.376 1
12 -1 -5 1098.72 241.216 4
-11 12 -5 1698.76 685.375 1
-1 12 5 1183.1 449.563 3
-1 12 5 1019.66 459.746 4
-1 12 2 939.723 276.279 1
-11 12 -2 1338.37 648.294 2
-1 12 2 1005.63 451.579 4
12 -11 2 521.383 182.095 2
12 -1 -2 1214.83 462.335 1
-11 12 -2 804.104 417.239 1
-11 -1 2 1438.2 636.441 2
12 -11 2 1214.11 504.369 1
-1 12 2 1288.74 450.351 3
-1 -11 -2 950.135 387.973 3
-1 -11 1 3301.29 830.183 4
-11 12 1 4263.91 864.892 2
-11 12 1 4184.6 855.648 1
-11 -1 -1 3239.05 703.457 1
12 -11 -1 2611.01 755.635 2
12 -1 1 2808.89 849.102 2
-1 12 -1 3806.78 878.88 4
-11 -1 -1 4272.82 914.328 2
-1 12 -1 3999.06 887.962 3
-1 12 -1 3225.42 692.441 1
12 -1 1 3089.15 752.299 1
-1 -11 1 2870.41 768.168 3
12 -11 -1 4097.65 950.959 1
-1 12 -4 2075.52 652.972 1
-11 -1 -4 1721.17 503.559 1
12 -11 -4 1919.64 532.512 1
-11 12 4 2310.36 594.683 2
12 -1 4 1519.07 433.488 1
-1 -11 4 2355.99 681.55 4
-11 -1 -4 1914.36 652.945 2
12 -11 -4 2347.08 711.524 2
12 -11 -4 2298.75 508.135 4
-11 12 4 2166.24 572.868 4
-1 12 -4 1980.64 579.771 3
12 -1 4 1732.59 687.566 2
-1 -11 4 1753.03 548.887 3
-11 12 4 1858.69 515.619 1
-11 -1 -7 267.106 302.372 2
-11 12 7 752.696 419.775 4
12 -1 7 146.817 44.9338 2
-1 12 -7 820.443 483.67 1
-1 12 -7 338.069 285.384 3
-1 -11 7 324.254 161.384 4
-11 12 7 452.143 351.909 2
12 -1 7 154.458 193.251 1
-1 -11 7 212.516 98.3335 3
-11 -1 -7 794.326 421.767 1
12 -11 -7 351.657 334.164 1
-11 12 7 652.997 364.448 1
-1 12 -10 710.752 564.862 1
-11 -1 -10 406.541 316.08 1
-11 -1 -10 -271.1 403.275 2
12 -1 10 392.633 187.542 2
12 -1 10 835.134 497.481 1
12 -11 -10 518.345 314.715 1
-11 12 10 237.437 326.864 4
-1 -11 10 913.247 598.492 3
12 -11 -13 423.453 272.615 1
12 -1 13 189.175 107.444 1
12 -1 13 131.669 184.075 2
-1 12 -13 659.588 449.643 1
-11 12 13 505.701 307.518 4
-11 -1 -13 476.798 369.159 1
-1 -11 13 1466.82 624.465 3
-1 12 -16 954.724 644.444 1
-11 -1 -16 723.788 282.049 3
12 -1 16 469.735 523.522 2
-1 -11 16 455.347 280.821 3
-11 -1 -16 633.92 319.172 1
-12 12 -15 199.774 116.74 3
0 12 15 11.7057 312.208 2
12 -12 15 -120.975 607.947 2
-12 12 -15 23.3086 159.465 1
0 -12 -15 110.861 102.871 1
0 12 15 260.518 242.842 3
-12 12 -12 25.7362 149.238 3
12 -12 12 419.31 466.419 2
-12 0 12 -89.7392 68.3008 4
0 12 12 -71.1985 77.0517 3
0 12 12 -23.8714 84.8931 2
-12 12 -12 316.645 466.362 1
0 -12 -9 358.516 228.017 3
0 12 9 290.339 195.437 2
-12 12 -9 267.759 185.973 1
0 12 9 93.2113 150.052 3
12 0 -6 3615.36 860.647 1
-12 12 -6 1885.64 1184.65 2
12 -12 6 4154.56 1406.56 2
12 -12 6 5248.16 1307.19 1
-12 12 -6 5439.21 1233.85 1
12 0 -6 3413.68 461.704 4
0 12 6 3847.87 827.49 3
0 -12 -6 4182.37 865.849 3
0 -12 -3 463.628 262.074 3
0 12 3 225.746 47.1918 1
-12 12 -3 540.929 523.812 2
12 -12 3 531.656 316.206 2
12 0 -3 320.755 272.909 1
0 12 3 309.608 231.655 4
12 -12 3 -173.317 106.582 1
-12 0 3 314.555 230.762 2
-12 12 -3 553.151 510.922 1
0 12 3 650.159 325.402 3
-12 12 0 10615.4 1517.48 2
-12 0 0 7218.55 1359.97 2
12 0 0 7983.5 1322.64 2
0 -12 0 7732.63 1372.87 4
12 0 0 9027.86 1291.81 1
0 12 0 9075.75 1379.84 4
-12 0 0 8116.62 1221.88 1
0 -12 0 8403.54 1261.91 3
0 12 0 8545.91 1262.12 3
-12 12 0 8286.04 1319.95 1
12 -12 0 7364.5 1237.14 2
12 -12 0 9442.85 1443.15 1
12 -12 -3 191.4 67.3348 4
12 -12 -3 -55.5095 147.411 1
-12 0 -3 136.668 276.888 2
-12 12 3 92.0506 145.88 2
12 0 3 -267.726 254.885 1
12 -12 -3 153.246 269.837 2
0 12 -3 -47.3834 194.486 3
12 0 3 175.268 191.861 2
0 -12 3 -276.119 316.51 4
-12 12 3 -224.651 288.852 1
0 12 -3 -26.7449 154.009 4
-12 0 -3 -265.433 230.835 1
0 -12 3 -124.492 202.913 3
-12 12 6 99.9956 168.835 2
12 0 6 277.749 293.106 1
0 -12 6 78.7668 171.576 3
-12 0 -6 395.732 214.704 2
12 0 6 162.925 180.932 2
12 -12 -6 426.491 255.773 1
0 -12 6 378.01 250.433 4
-12 0 -6 350.016 262.193 1
-12 12 6 70.2432 121.97 1
-12 12 6 501.29 246.66 4
12 -12 -6 325.492 190.579 4
0 12 -6 340.908 270.039 3
-12 0 -9 4132.48 906.883 1
-12 12 9 3502.13 766.325 1
-12 0 -9 4880.67 1398.28 2
12 0 9 4400.57 1110.86 2
12 -12 -9 4735.52 959.958 1
0 -12 9 4860.17 1051.53 3
-12 12 9 4590.57 895.491 4
12 0 9 4780.75 1069.79 1
-12 0 -12 315.143 200.4 1
12 0 12 214.672 295.893 1
0 12 -12 268.811 206.874 1
12 0 12 119.211 118.594 2
0 -12 12 730.176 470.048 3
-12 12 12 143.745 168.304 4
12 -12 -12 474.031 379.755 1
12 -12 -15 403.798 372.133 1
12 0 15 1540.94 651.512 1
12 0 15 495.667 548.809 2
0 -12 15 928.533 424.523 3
0 12 -15 1791.77 821.081 1
-12 0 -15 1037.72 577.691 1
-13 12 -16 288.534 266.755 3
12 -13 16 -111.016 385.059 2
1 12 16 -52.1512 206.844 2
1 -13 -16 29.6523 91.1762 1
-13 12 -16 314.612 289.273 1
1 -13 -16 751.08 383.127 1
12 -13 13 111.293 195.587 2
1 12 13 361.64 227.007 2
-13 12 -13 302.738 249.395 1
-13 1 13 135.911 113.553 4
-13 12 -13 169.558 120.713 3
1 12 13 152.793 166.632 3
1 12 10 3623.37 612.463 2
12 -13 10 3103.73 1338.27 2
-13 12 -10 4607.28 1301.13 1
1 12 10 3555.44 820.354 3
1 -13 -7 1659.07 574.051 3
12 -13 7 1923.11 970.376 2
-13 12 -7 1589.45 637.406 1
1 12 7 348.499 153.114 2
1 12 7 1787.68 626.771 3
12 1 -4 3779.4 851.855 1
-13 1 4 4436.9 1200.75 2
-13 12 -4 4895.5 1307.7 2
12 -13 4 4904.08 1158.1 1
12 -13 4 5085.95 1239.34 2
12 1 -4 4186.24 651.856 4
1 12 4 3826.57 844.128 3
1 12 4 4073.74 1017.37 4
1 -13 -4 4540.59 939.722 3
-13 12 -4 4533.39 1083.29 1
1 12 1 -294.087 439.505 4
-13 12 -1 -7.77917 104.638 2
12 -13 1 66.6717 144.929 1
-13 1 1 -154.556 178.643 2
1 12 1 33.5793 104.683 3
12 -13 1 -136.723 289.876 2
1 -13 -1 -89.1443 140.527 3
1 -13 -1 33.2279 276.651 4
-13 12 -1 128.586 76.0125 1
-13 1 1 88.7463 25.1374 1
12 1 -1 -17.0096 106.539 1
1 -13 2 1329.33 512.766 3
12 1 2 1362.67 503.717 1
1 12 -2 1358.08 503.663 4
-13 1 -2 1114.83 506.425 1
-13 12 2 1944.98 608.604 2
-13 1 -2 1507.96 614.395 2
12 -13 -2 1563.52 560.279 1
12 -13 -2 422.254 178.861 2
1 -13 2 1048.95 500.1 4
1 12 -2 1189.33 472.697 3
12 -13 -2 1260.98 493.637 4
12 1 2 1063.24 540.065 2
-13 12 2 1462.2 560.911 1
-13 12 5 300.831 258.178 1
12 -13 -5 703.429 301.788 4
12 1 5 371.65 265.495 2
1 -13 5 911.26 498.295 3
-13 1 -5 1084.38 625.508 2
12 1 5 223.812 135.745 1
1 -13 5 611.315 482.686 4
12 -13 -5 370.091 146.203 1
-13 1 -5 478.029 403.679 1
-13 12 5 508.457 387.005 2
12 1 8 2158.76 695.716 1
-13 12 8 2327.08 644.647 4
-13 12 8 1240.96 461.952 1
-13 1 -8 1187.61 651.147 2
-13 1 -8 2379.01 747.386 1
12 1 8 2047.34 726.205 2
12 -13 -8 1941.14 598.886 1
1 -13 8 3473.45 1163.8 4
-13 12 8 1889.03 682.579 2
1 -13 8 2604.97 815.833 3
-13 1 -11 2173.5 788.711 1
1 -13 11 2402.68 852.432 3
12 -13 -11 1469.35 568.935 1
12 1 11 1360.13 596.175 2
12 1 11 1173.44 605.993 1
-13 12 11 857.318 345.46 4
1 -13 14 1074.29 448.794 3
12 1 14 1947.72 741.316 1
-13 1 -14 754.564 436.631 1
12 1 14 1070.32 612.814 2
12 -13 -14 1355.86 656.134 1
-13 12 14 1032.1 459.487 4
12 -14 14 -163.938 350.766 2
2 12 14 -165.758 176.152 2
-14 12 -14 111.268 207.718 3
-14 12 -14 239.35 322.642 1
-14 2 14 5.70422 53.8414 4
12 -14 11 -15.5415 287.729 2
2 12 11 687.511 323.914 2
-14 12 -11 835.269 531.252 1
2 -14 -8 1700.9 609.576 3
12 -14 8 1105.16 638.804 2
-14 12 -8 1080.96 557.328 1
2 12 8 1224.94 334.351 2
2 12 8 1505.74 585.598 3
2 -14 -5 252.855 240.066 3
12 2 -5 835.375 277.557 4
-14 12 -5 43.7953 117.743 2
12 -14 5 320.614 105.856 2
12 -14 5 786.366 469.287 1
2 12 5 705.251 204.039 1
12 2 -5 1226.07 550.424 1
2 12 5 394.169 153.677 3
-14 12 -5 51.5046 217.172 1
2 -14 -2 3132.35 792.857 3
-14 12 -2 5182.01 1177.06 1
12 -14 2 3336.76 919.029 2
2 -14 -2 3249.13 993.319 4
-14 12 -2 5949.62 1323.08 2
2 12 2 5804.41 1228.01 4
12 -14 2 5402.11 1244.56 1
-14 2 2 3333.7 1045.53 2
2 12 2 4808.29 997.392 3
12 2 -2 4922.69 1009.4 1
-14 2 2 4814.61 1031.61 1
2 -14 1 440.476 311.168 3
12 2 1 318.991 139.251 1
-14 12 1 1068.31 546.196 2
12 -14 -1 280.127 160.974 2
2 12 -1 661.513 383.347 4
2 -14 1 392.077 352.661 4
12 -14 -1 773.509 437.273 1
2 12 -1 604.13 476.585 3
-14 12 1 362.361 345.404 1
-14 2 -1 557.754 293.564 1
12 2 1 687.35 466.401 2
-14 2 -1 801.312 501.4 2
12 -14 -1 173.642 311.552 4
12 -14 -4 2166.3 621.936 1
-14 12 4 1832.88 581.044 1
12 -14 -4 2138.38 789.274 2
-14 2 -4 2800.68 884.875 2
-14 2 -4 2266.93 735.816 1
12 2 4 1788.7 503.793 1
12 -14 -4 2682.99 766.707 4
12 2 4 1135.44 529.023 2
2 -14 4 1485.25 534.862 3
2 12 -4 1583.05 535.369 4
2 -14 4 1996.94 731.714 4
-14 12 4 2151.37 722.51 2
2 -14 7 1125.37 580.911 3
12 2 7 1608.91 613.204 1
12 -14 -7 1068.35 416.456 1
-14 2 -7 2008.66 925.395 2
-14 12 7 825.558 390.923 1
-14 2 -7 900.132 488.714 1
12 2 7 1215.18 572.701 2
12 -14 -7 1000.49 442.12 4
2 -14 7 2259 892.41 4
-14 12 7 1271.22 431.946 4
-14 12 7 1212.64 572.586 2
2 -14 10 1229.95 615.02 3
-14 2 -10 1257.6 678.969 1
12 2 10 417.205 258.944 2
-14 12 10 1451.07 490.304 4
12 2 10 748.942 495.211 1
12 -14 -10 915.038 464.548 1
2 -14 13 466.123 299.103 3
12 2 13 405.926 249.41 1
12 -14 -13 285.803 284.517 1
12 2 13 206.532 349.103 2
-14 12 13 414.28 359.095 4
-14 2 -13 891.46 521.343 1
3 12 15 -22.5876 72.9514 2
-15 3 15 -1.73372 70.242 4
-15 12 -15 -34.9683 168.175 1
-15 12 -15 -98.9168 174.51 3
12 -15 12 685.521 901.22 2
3 12 12 1724.98 462.028 2
-15 12 -12 2366.08 948.215 1
12 -15 9 1416.14 807.825 2
3 12 9 686.694 258.517 2
-15 12 -9 1086.88 571.393 1
12 -15 6 10009.6 2075.53 2
12 3 -6 8362.38 993.049 4
-15 12 -6 10112.8 1775.32 1
3 12 6 6775.29 647.321 1
3 -15 -6 9174.5 1450.8 3
3 -15 -3 1338.49 613.953 3
-15 12 -3 2390.86 881.646 1
3 -15 -3 745.928 284.824 2
-15 12 -3 3413.61 1110.91 2
12 -15 3 1344.05 588.095 2
-15 3 3 1308.36 481.236 1
12 -15 3 1837.4 728.064 1
12 3 -3 1589.81 625.777 1
3 -15 -3 725.423 411.535 4
3 12 3 2311.09 793.792 4
-15 3 3 1185.84 761.756 2
3 -15 0 2470.59 745.497 3
12 -15 0 4123.32 1312.7 4
-15 3 0 2705.42 867.827 2
3 12 0 3472.1 943.888 4
-15 12 0 3694.25 964.438 2
12 -15 0 2630.34 700.264 2
-15 12 0 2663.56 904.676 1
-15 3 0 2883.64 779.566 1
3 -15 0 1766.59 648.607 4
12 -15 0 2862.69 807.867 1
12 3 0 2065.21 571.254 1
12 3 3 409.64 449.916 2
3 -15 3 389.792 392.413 3
-15 12 3 397.69 416.194 2
3 -15 3 -60.7084 207.749 4
12 -15 -3 52.9423 92.5882 2
-15 3 -3 27.8268 85.8985 1
-15 3 -3 586.592 375.812 2
12 -15 -3 178.154 198.68 4
-15 12 3 592.283 402.898 1
3 12 -3 745.556 391.177 4
12 -15 -3 -22.5126 143.756 1
12 3 3 -1.40839 153.053 1
12 3 6 773.58 430.835 2
3 -15 6 1729.32 646.802 3
3 -15 6 957.006 581.913 4
12 3 6 752.264 444.774 1
-15 12 6 666.043 427.13 1
-15 3 -6 484.431 445.788 2
-15 12 6 -54.5323 163.971 2
-15 3 -6 627.524 493.236 1
12 -15 -6 609.616 395.664 4
12 -15 -6 961.266 471.467 1
3 -15 9 62.1607 148.881 3
-15 12 9 76.97 149.886 1
-15 12 9 115.627 66.765 4
-15 3 -9 392.471 354.575 1
-15 12 9 27.4143 143.124 2
12 3 9 252.085 160.345 2
12 -15 -9 371.516 311.54 1
12 3 9 166.406 245.38 1
3 -15 12 466.604 244.938 3
-15 3 -12 471.435 325.806 1
12 3 12 490.456 350.693 2
12 3 12 714.507 522.708 1
-15 12 12 523.729 178.546 4
12 -15 -12 494.512 301.44 1
3 -15 15 128.694 208.485 3
12 3 15 579.665 233.225 1
12 -15 -15 603.145 411.948 1
12 3 15 15.0745 298.755 2
-15 12 15 25.7991 157.59 4
-15 3 -15 500.316 383.828 1
4 12 13 141.992 128.47 2
-16 12 -13 516.976 297.361 1
12 -16 10 -81.8438 143.281 2
4 12 10 143.165 45.5687 2
-16 12 -10 -15.1467 137.188 1
12 -16 7 478.007 364.628 2
-16 12 -7 396.691 226.879 1
4 12 7 550.834 197.602 1
4 12 7 617.407 231.608 2
12 4 -7 1106.31 354.692 4
-16 12 -4 11698.2 1851.56 1
4 12 4 7661.94 902.69 1
-16 12 -4 12523.2 2191.47 2
12 4 -4 8253.71 1379.6 1
12 -16 4 10043.9 1873.55 2
-16 4 4 7637.24 1328.39 1
12 4 -4 7762.32 1052.03 4
4 -16 -4 6689.09 1503.75 4
12 -16 4 9001.87 1632.74 1
4 -16 -4 8903.46 1480.62 3
4 12 4 6208.58 1273.21 4
-16 12 -1 10110.5 1698.35 2
-16 4 1 7878 1608.62 2
-16 12 -1 8477.16 1530.14 1
-16 4 1 7639.85 1405.74 1
4 -16 -1 5053.95 1216.35 4
12 4 -1 7266.68 1259.76 1
12 -16 1 4988.1 1002.8 2
12 -16 1 11955.7 2607.27 4
4 -16 -1 6315.65 1232.74 3
4 -16 -1 1185.51 496.119 2
4 12 1 8783.7 1559.53 4
12 -16 1 6584.85 1312.11 1
12 -16 -2 242.159 217.296 2
-16 4 -2 -3.72515 221.505 1
12 4 2 290.019 47.0509 1
4 12 -2 -107.107 57.7636 4
-16 4 -2 267.82 238.213 2
-16 12 2 191.939 121.609 2
4 -16 2 425.389 307.662 4
12 -16 -2 373.572 278.018 1
12 -16 -2 -22.0385 128.649 4
12 4 2 137.541 134.519 2
4 -16 2 404.618 196.172 3
-16 12 2 -73.0233 304.668 1
4 -16 5 3983.91 1030.95 3
-16 12 5 3104.04 826.374 1
12 4 5 4161.88 862.006 1
12 -16 -5 3058.1 863.352 4
-16 4 -5 4097.23 1062.81 1
4 12 -5 3355.66 829.718 4
12 4 5 2909.81 940.902 2
12 -16 -5 3488.88 1206.23 2
-16 12 5 3977.96 1052.96 2
12 -16 -5 3638.47 828.494 1
-16 4 -8 735.288 428.891 1
-16 12 8 367.137 310.641 1
12 -16 -8 474.204 293.999 1
12 4 8 742.395 529.536 2
4 -16 8 656.897 329.6 3
-16 12 8 602.289 435.716 2
12 4 8 377.623 87.8784 1
4 -16 11 245.781 418.42 3
-16 4 -11 95.1253 304.138 1
12 4 11 680.032 535.47 2
12 4 11 -170.024 297.868 1
12 -16 -11 127.862 143.182 1
-16 12 11 317.613 200.224 4
-16 4 -14 150.776 202.684 1
4 -16 14 -609.844 486.721 3
12 -16 -14 193.417 199.43 1
12 4 14 828.372 532.886 1
12 4 14 834.08 571.73 2
-16 12 14 122.767 55.4266 4
12 -17 14 25.8638 350.378 2
5 12 14 123.923 135.002 2
-17 12 -14 788.318 575.078 1
12 -17 11 447.473 626.068 2
5 12 11 1152.48 429.904 2
-17 12 -11 1518.73 865.849 1
5 12 8 1002.16 311.177 1
12 -17 8 1452.71 776.452 2
5 12 8 107.611 298.797 2
5 -17 -8 900.525 250.016 1
-17 12 -8 675.901 490.707 1
-17 12 -5 723.255 458.71 1
12 5 -5 754.507 379.586 4
-17 5 5 1075.82 530.861 1
12 -17 5 944.189 406.065 2
5 12 5 901.802 334.428 1
5 -17 -5 150.014 122.455 1
5 -17 -2 1639.67 478.346 1
5 -17 -2 1521.23 574.338 3
-17 5 2 2287.94 790.458 1
12 -17 2 4782.06 1742 4
5 -17 -2 1571.23 420.006 2
12 -17 2 1966.23 689.285 2
12 -17 2 2257.66 789.446 1
-17 12 -2 2175.94 901.074 1
-17 12 -2 3873 1203.18 2
12 5 -2 2132.97 684.362 1
5 12 2 1989.15 752.648 4
5 12 -1 406.222 332.463 4
5 -17 1 -1.26201 168.302 2
12 -17 -1 813.519 566.889 4
-17 5 -1 1004.46 582.992 1
5 -17 1 -16.1158 41.4777 3
12 -17 -1 443.207 179.782 2
-17 12 1 823.549 579.518 2
12 -17 -1 228.252 227.472 1
-17 5 -1 434.246 369.011 2
-17 12 1 324.543 457.729 1
12 5 1 849.251 443.333 1
12 -17 -4 2285.92 645.89 1
12 5 4 912.044 619.251 2
-17 12 4 1765.69 630.465 1
5 12 -4 1522.38 584.148 4
12 -17 -4 1830.91 568.972 4
12 -17 -4 2463.51 1050.37 2
5 -17 4 2011.08 709.332 3
-17 5 -4 1934.73 723.186 1
12 5 4 2056 632.295 1
-17 12 4 1246.46 635.738 2
12 -17 -7 462.79 291.801 1
5 -17 7 562.921 375.208 3
-17 5 -7 358.242 315.858 1
-17 12 7 287.708 154.5 1
12 -17 -7 145.387 94.5216 4
-17 12 7 129.341 319.832 2
12 5 7 755.96 263.111 1
12 5 7 547.026 429.033 2
5 -17 10 385.264 411.208 3
-17 5 -10 461.92 470.12 1
12 -17 -10 45.6235 99.5517 1
12 5 10 586.874 475.842 2
12 5 10 380.023 347.96 1
12 -17 -13 -89.8764 220.779 1
5 -17 13 312.992 259.849 3
-17 5 -13 -384.24 336.596 1
12 5 13 745.323 405.877 1
-17 12 13 254.399 154.955 4
12 5 13 155.072 82.8222 2
6 12 12 49.1362 50.0713 1
12 -18 12 340.919 521.024 2
6 12 12 14.8616 125.246 2
-18 12 -12 68.7072 146.363 1
12 -18 9 1209.41 874.211 2
-18 12 -9 1215.96 668.414 1
6 -18 -9 842.615 254.687 1
6 12 9 1333.97 358.667 1
6 12 9 1195.26 499.985 2
-18 12 -6 320.604 456.368 1
12 -18 6 -14.5345 328.087 2
6 -18 -6 26.885 119.328 1
12 6 -6 682.047 360.93 4
6 12 6 776.778 320.396 1
-18 6 6 673.319 477.996 1
12 6 -3 3253.85 806.953 4
6 -18 -3 2803.77 651.835 1
6 12 3 3418.23 735.002 1
12 -18 3 4487.72 1172.68 2
6 -18 -3 2716.77 527.206 2
-18 12 -3 3811.85 1150.69 1
-18 6 3 3116.5 861.431 1
6 12 3 3415.79 1017.36 4
6 -18 0 1220.58 491.738 1
6 -18 0 1742.51 721.218 3
12 6 0 1704.97 691.587 1
12 -18 0 1444.24 622.264 1
12 -18 0 1240.11 524.089 2
-18 6 0 1659.32 693.752 1
12 -18 0 1175.9 580.007 4
-18 12 0 2306.47 840.851 2
-18 12 0 1642.03 778.905 1
6 12 0 1802.26 684.361 4
6 -18 0 278.465 408.727 2
6 -18 3 3180.72 906.821 3
6 -18 3 2836.62 835.586 2
-18 12 3 3350.87 985.505 1
12 -18 -3 2938.33 879.484 4
12 6 3 2842.97 723.139 1
-18 12 3 3845.52 1103.5 2
12 -18 -3 3807.69 919.462 1
12 6 3 2241.86 827.42 2
12 -18 -3 1981.73 467.855 2
6 12 -3 2872.32 850.144 4
-18 6 -3 4481.92 1158.83 1
12 6 6 413.441 508.65 2
6 -18 6 458.695 363.014 3
-18 12 6 273.117 205.543 1
12 6 6 631.827 297.096 1
-18 6 -6 839.176 509.592 1
12 -18 -6 293.598 224.97 4
6 12 -6 339.052 358.856 4
12 -18 -6 471.192 316.421 1
6 -18 9 1471.87 698.232 3
-18 12 9 1185.64 534.28 1
-18 6 -9 1475.64 685.373 1
12 -18 -9 1024.69 442.438 1
12 6 9 1738.37 648.345 1
12 6 9 1732.86 730.397 2
-18 6 -12 289.123 90.1598 1
12 -18 -12 236.659 224.658 1
12 6 12 213.647 260.681 2
6 -18 12 -238.179 309.4 3
12 6 12 -336.639 260.622 1
12 -19 13 -139.925 286.044 2
7 12 13 -114.173 291.638 2
7 -19 -13 308.625 159.968 1
7 12 13 209.558 130.258 1
-19 12 -13 21.8433 347.589 1
-19 12 -10 953.146 622.348 1
7 12 10 725.123 460.941 2
7 -19 -10 408.29 151.432 1
7 12 10 926.208 345.08 1
12 -19 10 -227.753 476.061 2
-19 12 -7 880.277 601.795 1
7 -19 -7 882.513 325.565 1
12 7 -7 964.8 387.675 4
12 -19 7 134.485 426.698 2
7 12 7 883.421 348.385 1
-19 7 7 335.587 255.723 1
7 12 7 492.396 283.313 2
12 -19 4 424.418 392.484 2
7 12 4 1098.9 450.658 1
-19 12 -4 1206.36 412.452 1
-19 7 4 751.051 473.257 1
7 -19 -4 141.599 76.2398 2
7 -19 -4 816.004 337.796 1
12 7 -4 953.295 445.08 4
7 -19 -1 650.201 295.538 1
7 -19 -1 691.377 268.088 2
12 7 -1 468.65 274.851 1
-19 12 -1 944.645 617.311 1
12 -19 1 397.41 39.1944 2
12 -19 1 841.021 397.97 1
7 12 1 874.613 413.396 4
-19 7 1 557.802 129.097 1
-19 7 -2 1383.12 733.043 1
7 -19 2 1518.91 640.56 3
-19 12 2 1116.34 647.515 1
7 -19 2 939.281 586.816 2
12 -19 -2 1602.81 551.461 1
12 -19 -2 924.951 119.08 2
7 -19 2 1491.14 495.373 1
12 7 2 1342.21 500.41 1
7 12 -2 1366.84 620.454 4
12 -19 -5 401.105 145.323 2
12 7 5 -6.16481 106.797 1
7 -19 5 177.305 220.143 3
7 12 -5 31.5686 237.481 4
-19 12 5 474.189 343.479 1
12 -19 -5 30.8676 137.13 1
-19 7 -5 309.212 190.599 1
12 7 5 221.722 283.44 2
7 -19 5 331.216 326.376 2
7 -19 8 960.169 488.785 3
12 7 8 844.468 417.452 1
-19 12 8 657.003 380.384 1
-19 7 -8 569.788 375.518 1
12 7 8 561.315 450.291 2
12 -19 -8 599.477 400.33 1
12 -19 -11 114.808 64.1031 1
12 7 11 98.3592 151.768 1
-19 7 -11 149.332 366.806 1
7 -19 11 227.763 364.35 3
12 7 11 122.913 231.482 2
-20 12 -11 57.6145 30.5961 1
12 -20 11 -197.258 105.568 2
8 -20 -11 224.169 167.711 1
8 12 11 27.0515 58.01 1
8 12 11 230.032 236.889 2
-20 8 8 321.064 167.026 1
12 8 -8 883.231 440.252 4
-20 12 -8 1108.01 627.207 1
8 12 8 117.315 180.345 2
8 -20 -8 595.639 229.771 1
12 -20 8 713.849 628.161 2
8 12 8 864.23 376.014 1
8 12 5 3391.07 691.687 1
12 -20 5 2350.67 1030.36 2
8 -20 -5 3129.36 657.043 1
-20 12 -5 4683.75 1204.08 1
-20 8 5 2517.54 837.092 1
12 8 -5 2958.89 752.481 4
8 -20 -5 1311.83 549.527 2
8 -20 -2 3065.25 782.998 1
8 12 2 3220.04 775.537 1
12 -20 2 3783.92 1017.23 2
8 -20 -2 3521.68 763.99 2
12 8 -2 3307.64 851.15 4
8 12 2 2675.72 952.885 4
-20 12 -2 5035.74 1288.24 1
-20 8 2 4104.54 1106.61 1
8 -20 1 2327.34 687.159 1
-20 8 -1 2998.42 1004.18 1
8 -20 1 2325.25 698.357 2
12 8 1 3077.74 856.232 1
12 -20 -1 2273.84 662.915 1
12 -20 -1 1492.99 399.034 2
8 12 -1 2602.83 808.841 4
-20 12 1 3192.21 993.779 1
12 8 4 213.053 241.465 1
12 -20 -4 331.261 659.791 2
8 -20 4 431.346 439.163 2
-20 12 4 -58.6293 144.745 1
12 -20 -4 -288.919 198.932 1
-20 8 -4 505.873 231.733 1
8 12 -4 167.142 308.872 4
12 8 4 439.02 438.583 2
8 -20 7 654.015 475.438 2
12 -20 -7 915.982 436.266 1
-20 12 7 775.52 462.075 1
12 8 7 198.467 268.658 2
12 8 7 790.385 344.522 1
-20 8 -7 555.811 522.327 1
8 12 -7 918.145 435.8 4
8 -20 10 -339.023 457.744 2
-20 8 -10 -150.135 263.099 1
12 8 10 205.737 115.901 2
12 8 10 447.796 319.675 1
12 -20 -10 95.8726 175.858 1
-20 12 10 18.739 287.673 1
-20 8 -13 399.44 495.71 1
12 -20 -13 132.363 125.07 1
12 8 13 233.912 242.809 1
12 8 13 -490.693 390.344 2
-21 12 -12 95.04 332.685 1
12 -21 12 461.278 482.316 2
9 12 12 246.241 190.222 1
9 -21 -12 182.386 156.591 1
9 12 12 368.535 243.99 2
9 12 9 578.662 286.336 1
-21 12 -9 419.959 389.49 1
12 -21 9 365.836 445.505 2
9 -21 -9 361.509 250.344 1
9 12 9 300.049 314.218 2
9 -21 -6 764.215 391.494 1
-21 9 6 420.628 357.032 1
12 -21 6 291.523 463.551 2
-21 12 -6 356.474 207.741 1
12 9 -6 103.105 105.447 4
9 12 6 450.404 191.095 1
12 -21 3 437.661 335.572 2
9 12 3 1042.41 469.93 1
12 9 -3 694.721 391.29 4
-21 12 -3 742.001 450.033 1
9 -21 -3 752.92 364.532 1
-21 9 3 988.613 520.937 1
-21 12 0 2253.45 856.501 1
9 -21 0 2366.5 732.424 1
12 9 0 1933.51 691.414 1
12 -21 0 2078.17 649.494 1
12 9 0 1488.83 628.235 4
-21 9 0 2178.79 981.569 1
9 -21 0 1790.98 636.911 2
12 -21 0 973.709 446.605 2
9 12 0 1537.03 725.786 4
12 9 3 578.379 387.442 1
9 -21 3 106.451 231.686 2
12 -21 -3 504.632 347.785 1
-21 12 3 882.321 470.33 1
12 -21 -3 374.41 174.275 2
9 12 -3 434.245 390.718 4
-21 9 -3 890.795 612.814 1
9 -21 6 806.975 472.245 2
-21 12 6 757.133 373.561 1
12 -21 -6 1064.56 468.43 1
-21 9 -6 1357.38 777.906 1
12 9 6 1158.3 446.344 1
9 12 -6 1299.12 635.526 4
12 9 6 752.076 482.496 2
9 -21 9 -401.901 470.491 2
-21 9 -9 846.555 539.707 1
12 9 9 196.905 127.619 2
12 9 9 489.482 419.053 1
-21 12 9 7.86783 130.262 1
12 -21 -9 625.662 334.379 1
9 -21 12 420.194 577.657 2
-21 9 -12 494.133 484.81 1
12 9 12 253.843 217.156 1
12 9 12 186.88 153.061 2
12 -21 -12 93.3279 210.374 1
-22 12 -10 601.348 499.243 1
12 -22 10 -293.803 319.879 2
10 -22 -10 789.653 318.527 1
10 12 10 -190.684 282.572 2
10 12 10 988.912 439.582 1
-22 12 -7 883.925 510.733 1
12 -22 7 -133.543 402.942 2
10 -22 -7 611.284 261.978 1
-22 10 7 622.65 561.345 1
10 12 7 394.645 295.427 1
12 10 -7 593.791 346.302 4
10 12 7 670.266 450.233 2
-22 10 4 3733.44 1209.19 1
10 -22 -4 3554.67 800.8 1
12 -22 4 3251.72 1096.71 2
10 -22 -4 2607.34 789.77 2
12 10 -4 3330.16 876.48 4
10 12 4 2703.76 713.055 1
-22 12 -4 4764.31 1306.16 1
10 12 1 946.489 494.865 4
10 12 1 846.78 457.038 1
10 -22 -1 950.607 464.785 1
12 -22 1 805.121 208.756 2
10 -22 -1 751.419 344.72 2
-22 10 1 1208.61 714.034 1
12 10 -1 516.588 295.381 4
-22 12 -1 1180.7 667.766 1
10 12 -2 2517.41 789.701 4
12 10 2 2975.54 770.04 1
10 -22 2 2627.58 877.07 2
12 -22 -2 3015.21 860.499 1
-22 12 2 3399.37 1101.55 1
-22 10 -2 3871.56 1175.83 1
12 -22 -2 2433.16 675.531 2
12 10 5 309.932 145.861 1
-22 12 5 269.79 237.714 1
10 -22 5 217.255 184.14 2
12 -22 -5 -58.2083 154.557 1
10 12 -5 553.762 406.624 4
12 -22 -5 416.161 531.586 2
-22 10 -5 1184.22 683.624 1
10 -22 8 -137.311 207.758 2
12 10 8 1454.07 599.479 1
10 12 -8 285.894 154.064 4
12 -22 -8 944.97 436.989 1
-22 12 8 438.682 329.662 1
-22 10 -8 560.5 546.808 1
12 10 8 600.25 518.409 2
10 -22 11 90.8787 146.484 2
-22 10 -11 885.455 603.902 1
12 10 11 -252.432 291.271 2
12 10 11 587.433 428.967 1
12 -22 -11 201.66 197.724 1
12 -23 11 393.126 362.362 2
-23 12 -11 342.381 427.948 1
11 12 11 -17.5676 158.371 2
11 -23 -11 904.955 386.265 1
11 12 11 770.641 439.095 1
12 11 -8 835.004 404.596 4
12 -23 8 425.688 601.179 2
11 -23 -8 913.277 450.469 1
11 12 8 1159.65 479.87 1
-23 12 -8 586.096 514.291 1
11 12 8 577.506 394.977 2
-23 11 8 243.719 206.07 1
11 -23 -5 843.933 466.055 1
12 -23 5 658.251 488.841 2
11 12 5 337.102 195.714 1
-23 11 5 240.422 235.411 1
11 -23 -5 495.724 684.988 2
12 11 -5 181.579 222.148 4
-23 12 -5 717.522 611.925 1
11 -23 -2 359.446 260.908 1
12 -23 2 123.269 805.913 2
11 -23 -2 70.2456 121.84 2
-23 11 2 189.258 158.313 1
11 12 2 -45.7788 104.33 1
-23 12 -2 425.985 399.983 1
11 12 2 412.411 402.558 4
12 11 -2 -12.8592 320.198 4
-23 11 -1 788.407 410.292 1
12 -23 -1 445.913 369.535 1
-23 12 1 825.784 527.649 1
11 -23 1 488.636 285.14 2
12 -23 -1 253.703 279.884 2
12 11 1 386.878 376.014 4
11 12 -1 85.4818 381.057 4
12 11 1 777.085 480.019 1
11 -23 4 203.602 325.217 2
12 -23 -4 431.484 362.709 1
-23 11 -4 1071.44 689.984 1
12 11 4 319.091 359.254 1
11 12 -4 128.486 321.318 4
12 -23 -4 113.51 304.71 2
-23 12 4 309.913 216.496 1
-23 12 7 348.793 262.826 1
11 -23 7 -51.586 84.7167 2
12 -23 -7 331.399 256.133 1
-23 11 -7 196.221 269.425 1
12 11 7 123.32 81.6318 1
11 12 -7 -200.574 311.354 4
12 11 7 191.16 223.399 2
-23 12 10 -62.0674 399.756 1
11 -23 10 135.008 243.581 2
-23 11 -10 -310.45 479.043 1
12 -23 -10 -320.286 279.229 1
12 11 10 59.7127 84.4479 2
12 11 10 138.011 87.2442 1
12 12 0 1466.27 589.883 4
-24 12 0 2240.63 902.502 1
12 -24 0 1525.74 545.193 2
12 12 3 299.68 323.555 1
12 -24 -3 176.926 157.083 1
12 -24 3 87.1689 385.164 2
12 -24 -3 31.5053 274.66 2
-24 12 3 -166.164 316.336 1
-24 12 -3 310.466 313.533 1
12 12 -3 157.051 24.5384 4
12 12 6 190.25 255.43 1
12 -24 6 385.208 405.835 2
12 -24 -6 -26.9155 196.794 1
-24 12 6 659.582 388.642 1
-24 12 -6 300.698 285.456 1
12 12 -6 27.3773 96.5127 4
12 12 9 483.183 392.897 1
12 -24 9 -280.295 579.65 2
-24 12 -9 562.961 519.2 1
12 -24 -9 589.007 338.44 1
12 12 9 -250.85 313.476 2
-24 12 9 -169.803 219.191 1
-6 -7 -14 69.5572 154.628 3
-6 13 14 123.772 168.49 3
13 -7 14 -51.2653 280.327 2
-7 13 -14 114.521 103.152 3
-6 -7 -14 -18.4423 69.0615 1
-7 13 -14 -226.55 272.116 1
-6 13 11 704.463 359.671 3
-6 -7 -11 928.942 292.562 1
-7 13 -11 1066.61 545.282 1
13 -7 11 76.9456 113.479 2
-7 -6 11 1648.19 690.358 4
-6 -7 -11 1168.66 421.33 3
-7 13 -11 1333.9 483.675 3
-7 13 -8 1534.73 562.916 3
-6 -7 -8 916.695 713.415 2
-6 13 8 2120.26 672.826 3
-6 -7 -8 1109.62 325.814 1
-7 13 -8 2878.3 958.077 1
13 -6 -8 1344.47 577.426 1
13 -7 8 1777.85 836.381 2
13 -7 8 1070.93 499.663 1
-6 13 8 2305.49 734.156 4
-7 -6 8 649.946 304.059 4
-6 -7 -8 1340.49 495.061 3
-6 -7 -5 8949.92 859.754 1
-7 -6 5 9693.34 1329.1 4
-6 13 5 8012.32 730.282 2
-6 -7 -5 10625.6 1449.27 2
-6 13 5 11623.3 1075.41 1
13 -6 -5 11875.7 1547.31 1
-7 13 -5 11747.7 1591.59 3
13 -7 5 12076 1867.31 2
13 -6 -5 9233.07 755.465 4
-6 -7 -5 10263.3 1281.03 3
-6 13 5 10165.1 1412.34 3
-6 13 5 11756.1 1707.83 4
-7 13 -5 10923 1632.97 1
13 -7 5 11003.6 1662.16 1
-6 13 2 3227.6 773.908 3
-7 13 -2 3637.11 837.012 3
-6 13 2 3922.91 642.493 2
-7 13 -2 4315.79 949.249 1
13 -7 2 4145.15 951.165 1
-6 13 2 3383.44 665.099 1
-6 -7 -2 1777.01 660.292 2
-6 13 2 3239.61 804.603 4
13 -6 -2 3680.63 894.371 2
13 -6 -2 4211.95 890.716 1
13 -7 2 3145.53 872.096 2
-6 13 -1 1404.94 564.176 3
-7 13 1 1282.25 470.617 3
13 -7 -1 1700.53 516.05 1
-7 13 1 1251.3 490.814 2
-7 -6 -1 1030.13 360.168 2
13 -6 1 1766.37 615.082 1
-6 13 -1 1288.38 447.189 1
-7 13 1 1022.69 398.328 1
13 -6 1 1515.43 563.65 2
-7 13 1 960.598 438.508 4
13 -7 -1 1589.85 614.581 2
-6 13 -4 521.32 198.949 3
13 -7 -4 424.597 207.854 1
-6 13 -4 780.775 351.287 1
-7 13 4 673.052 233.783 1
13 -6 4 188.756 308.308 2
-6 -7 4 719.986 356.656 4
-7 -6 -4 1085.47 312.348 2
-7 -6 -4 320.675 92.2233 1
13 -6 4 830.263 434.61 1
-7 13 4 430.99 325.932 4
-7 13 4 534.12 224.071 2
-7 13 7 5281.67 673.008 1
-7 -6 -7 4609.74 1058.37 2
13 -6 7 6378.18 1463.26 2
-7 13 7 4900.29 652.589 2
13 -7 -7 6355.99 1113 1
-7 -6 -7 5863 757.157 1
-6 -7 7 6584.58 1049.51 4
-7 13 7 5512.19 1153.03 4
-6 13 -7 7019.5 1200.72 3
-6 13 -7 7577.73 1335.85 1
13 -6 7 7382.61 1377.28 1
-7 -6 -10 505.326 233.782 3
-7 -6 -10 1287.56 467.37 2
-6 13 -10 1070.51 456.203 1
13 -7 -10 76.4364 249.654 1
13 -6 10 -125.465 426.444 2
13 -6 10 1159.63 450.97 1
-7 -6 -10 713.916 271.187 1
-6 13 -10 897.814 377.378 3
-7 13 10 471.327 271.899 4
-6 -7 10 507.378 330.509 4
-7 -6 -13 1733.04 491.297 1
-7 13 13 1425.72 526.673 3
-6 13 -13 1405.89 671.69 1
-6 13 -13 1483.1 551.634 3
13 -6 13 1173.64 596.802 2
-7 -6 -13 1403.75 426.025 3
-7 13 16 -136.947 114.448 3
-6 13 -16 174.311 365.569 1
13 -6 16 529.167 733.819 2
-7 -6 -16 127.109 176.899 3
-7 -6 -16 400.275 292.361 1
-6 -7 16 144.613 279.207 3
-8 13 -15 -134.16 329.084 1
13 -8 15 241.605 560.792 2
-5 13 15 265.658 112.83 3
-5 -8 -15 331.786 126.082 1
-8 13 -15 156.358 246.733 3
-5 -8 -12 815.297 396.187 3
-5 13 12 171.062 44.5929 3
-5 -8 -12 627.091 232.064 1
-8 13 -12 263.483 339.622 1
13 -8 12 915.925 701.971 2
-8 13 -12 596.273 298.05 3
-8 13 -9 1800.17 579.96 3
-5 -8 -9 1299.78 295.39 1
-5 13 9 1436.95 442.869 3
13 -5 -9 1695.33 586.984 1
-5 -8 -9 -106.898 378.548 2
-8 13 -9 2051.03 753.067 1
13 -8 9 1544.42 866.723 2
13 -8 9 2115.81 788.433 1
-8 -5 9 1576.33 474.163 4
-5 13 9 571.4 214.168 4
-5 -8 -9 1506.61 444.404 3
-5 13 6 1153.4 481.042 3
-8 13 -6 1000.94 475.381 3
13 -5 -6 844.246 397.686 1
-5 13 6 943.984 247.719 1
13 -8 6 484.14 255.517 1
-8 13 -6 1219.65 447.997 1
-5 -8 -6 1087.05 484.704 2
13 -8 6 1133.07 584.52 2
-8 -5 6 857.239 349.749 4
-5 13 6 867.572 439.832 4
-5 -8 -6 1178.08 456.614 3
-8 13 -3 512.986 439.306 2
-8 13 -3 1016.64 496.835 3
-5 13 3 940.431 301.026 1
-5 13 3 170.865 106.955 2
13 -5 -3 1189.42 442.797 1
-5 -8 -3 1514.33 514.92 3
-8 13 -3 1062.36 510.181 1
13 -8 3 620.845 346.389 2
-5 13 3 1368.52 576.612 3
-5 13 3 1520.65 638.299 4
13 -8 3 1069.95 515.696 1
-5 -8 -3 1256.61 396.15 2
-5 13 0 1933.27 635.41 3
-8 13 0 2113.1 565.989 1
-8 13 0 2813.5 693.837 2
-5 13 0 2073.01 606.707 4
13 -8 0 2673.47 728.635 1
-5 13 0 2249.92 582.638 1
13 -5 0 2525.73 665.128 1
13 -8 0 1128.56 564.637 2
13 -5 0 1824.6 584.156 2
-8 -5 0 1761.12 483.346 2
13 -5 3 4218.65 964.03 1
-8 13 3 3738.6 709.414 1
-8 -5 -3 3252.13 589.867 1
-8 13 3 4088.66 741.546 2
13 -8 -3 4467.04 980.379 1
13 -5 3 3830.58 985.107 2
-8 13 3 4053.96 884.265 4
-8 -5 -3 4290.97 971.718 2
-5 -8 3 4060.57 925.523 4
-5 13 -3 4310.69 909.205 1
-5 13 -3 4427.69 957.368 3
13 -8 -3 3667.45 989.304 2
-8 13 6 2965.68 581.559 2
-5 13 -6 3266.1 849.097 1
13 -8 -6 3029.88 768.433 1
-8 -5 -6 2474.47 515.685 1
-8 -5 -6 3635.84 945.215 2
-5 -8 6 2634.94 714.173 4
13 -5 6 2572.62 805.421 1
13 -5 6 2678.77 927.968 2
13 -8 -6 2277.96 400.861 4
-8 13 6 2759.72 560.456 1
-8 13 6 3666.37 926.768 4
-5 13 -6 3502.66 820.592 3
13 -8 -9 552.083 323.73 1
-5 13 -9 662.441 110.348 1
-8 -5 -9 209.076 95.4083 2
-8 13 9 315.252 106.989 4
13 -5 9 676.725 563.229 2
13 -5 9 170.771 284.511 1
-8 -5 -9 523.002 258.155 1
-5 -8 9 642.001 329.658 4
-5 13 -9 333.029 111.088 3
-5 -8 12 682.815 403.057 3
-8 -5 -12 1286.52 467.447 1
-5 13 -12 777.771 477.799 1
13 -5 12 299.693 616.348 2
-8 -5 -12 750.211 325.833 3
-5 13 -12 1167.78 449.407 3
-8 -5 -15 215.527 203.842 3
-5 13 -15 -107.199 516.865 1
13 -5 15 397.07 207.331 2
-5 -8 15 341.448 223.252 3
-8 -5 -15 233.845 96.9847 1
-9 13 -16 -396.941 507.518 1
-9 13 -16 193.613 218.797 3
-4 -9 -16 131.794 45.9148 1
13 -9 16 -193.796 582.183 2
-4 13 16 -193.852 281.254 3
-4 13 13 404.208 288.715 3
-4 -9 -13 755.845 327.071 3
-4 -9 -13 761.833 261.825 1
13 -9 13 -14.7196 115.037 2
-9 13 -13 1068.62 670.237 1
-9 13 -13 575.028 299.722 3
-4 13 10 256.817 155.131 3
-9 13 -10 515.597 256.284 3
13 -9 10 -291.003 136.63 2
-4 -9 -10 154.516 114.253 3
-9 13 -10 419.701 424.794 1
-4 -9 -10 159.467 77.1552 1
-9 -4 10 -7.89178 171.681 4
-4 13 7 2809.53 708.342 3
-9 -4 7 3022.04 617.834 4
-9 13 -7 3217.78 830.594 3
-4 -9 -7 1785.05 506.857 2
13 -9 7 2811.97 1046.84 2
-9 13 -7 3256.02 959.226 1
13 -9 7 3407.47 992.539 1
-4 -9 -7 2797.67 650.781 3
-4 13 7 2098.34 669.017 4
13 -4 -7 2598.48 659.07 1
-4 13 7 1726.29 273.862 1
-4 13 4 1647.23 566.141 3
-9 13 -4 1600.34 593.947 3
-9 13 -4 701.042 568.944 2
13 -9 4 1761.54 686.584 2
-9 13 -4 1971.39 732.32 1
-4 -9 -4 1981.67 538.221 2
-4 13 4 1937.29 770.271 4
13 -9 4 1952.69 751.901 1
-4 13 4 1555.87 373.419 1
13 -4 -4 2003.15 630.739 1
-4 -9 -4 1910.29 606.707 3
13 -4 -1 4367.8 872.305 1
13 -9 1 4022.96 886.275 1
-9 13 -1 5021.65 1049.28 2
-9 -4 1 4909.83 1032.25 2
-4 -9 -1 3640.2 842.141 3
-9 13 -1 4004.25 876.896 1
-4 13 1 4094.5 881.295 4
-4 13 1 3957.29 751.216 1
13 -9 1 3984.18 931.145 2
13 -4 -1 3983.71 970.669 2
-4 13 1 4628.09 985.983 3
-4 13 -2 813.433 455.801 3
-9 13 2 332.854 151.165 1
-9 -4 -2 274.755 216.325 1
-4 13 -2 493.025 297.501 1
-9 13 2 654.778 346.15 2
13 -4 2 779.413 464.385 1
13 -9 -2 742 420.282 1
-4 13 -2 645.724 391.392 4
-4 -9 2 625.433 319.095 4
-9 -4 -2 327.792 290.426 2
13 -4 2 139.859 318.388 2
13 -9 -2 786.589 342.951 2
-9 13 2 287.842 283.71 4
-4 -9 2 451.817 359.21 3
-9 13 5 157.88 204.104 4
13 -9 -5 5.444 132.14 1
-4 13 -5 74.5903 48.7187 1
-4 -9 5 -160.773 231.628 4
-9 -4 -5 111.176 242.232 2
13 -4 5 657.334 522.74 2
13 -9 -5 176.864 100.818 4
-9 -4 -5 156.885 146.69 1
-9 13 5 449.574 193.93 2
-4 -9 5 -94.49 370.286 3
-9 13 5 -26.1493 134.294 1
13 -4 5 -161.08 212.632 1
-4 13 -5 239.928 315.604 3
13 -4 8 3764.3 969.418 1
-4 13 -8 4214.47 1066.24 1
-9 13 8 3283.16 632.298 2
-4 -9 8 2821.83 720.768 4
-9 -4 -8 3117.96 651.917 1
-9 -4 -8 3250.75 1056.05 2
13 -4 8 2812.9 937.841 2
-9 13 8 3364.76 878.589 4
-4 -9 8 3091.05 856.417 3
13 -9 -8 2704.83 728.737 1
-9 13 8 2634.62 544.83 1
-4 13 -8 3352.41 791.42 3
-4 13 -11 459.206 260.082 1
-9 -4 -11 203.698 325.583 2
13 -9 -11 636.503 369.831 1
-9 -4 -11 500.063 261.238 1
13 -4 11 742.458 354.593 1
13 -4 11 720.709 651.913 2
-9 13 11 453.632 150.771 4
-4 13 -11 460.633 140.572 3
-4 -9 11 692.524 443.203 3
-9 -4 -14 355.46 169.094 1
-4 13 -14 395.403 458.063 1
13 -4 14 -244.369 428.352 2
-4 -9 14 488.381 297.098 3
-9 -4 -14 285.439 228.932 3
-3 -10 -14 153.744 129.235 1
13 -10 14 -378.417 474.525 2
-10 13 -14 -128.247 210.804 3
-10 13 -14 477.308 252.24 1
-3 13 14 372.42 286.827 3
-3 13 11 524.592 311.078 3
-10 13 -11 881.303 467.782 3
-3 -10 -11 776.057 308.098 3
13 -10 11 776.054 575.082 2
-10 13 -11 1120.82 633.024 1
-10 -3 11 748.359 265.802 4
13 -10 8 13098.1 2483.33 2
-3 -10 -8 13053.2 1525.95 3
-10 -3 8 11616.7 1189.58 4
-3 13 8 11963.8 1545.74 3
-10 13 -8 14448.1 1807.4 3
-10 13 -8 14685.5 2108.76 1
-3 13 5 1823.5 617.71 3
-10 13 -5 622.33 673.774 2
13 -3 -5 2246.04 654.017 1
13 -10 5 2347.52 951.997 2
-3 -10 -5 2164.21 489.524 2
-10 13 -5 2144.73 752.932 1
13 -10 5 1882.89 768.608 1
-3 -10 -5 1546.28 492.823 3
-3 13 5 2030.41 770.351 4
-3 13 5 2338.15 407.181 1
-3 13 2 1817.02 602.226 3
-10 13 -2 2012.79 734.982 2
-3 13 2 1622.66 442.93 1
13 -3 -2 1065.79 397.536 1
13 -10 2 1271.64 535.523 2
13 -10 2 1471.33 588.126 1
-3 13 2 1525.53 624.37 4
-10 13 -2 1170.29 498.035 1
-3 -10 -2 1016.13 322.226 2
-3 -10 -2 1541.55 507.172 3
-10 13 1 697.931 305.219 1
-3 13 -1 566.581 269.583 1
13 -10 -1 890.986 488.292 2
13 -10 -1 1304.09 559.482 1
-10 13 1 1389.48 512.834 2
-3 -10 1 704.233 234.527 4
-3 13 -1 547.461 337.024 4
13 -3 1 707.454 345.917 1
-10 -3 -1 776.174 457.419 2
13 -3 1 1031.43 534.186 2
-3 -10 1 797.209 417.027 3
-10 -3 -1 178.425 129.571 1
-3 13 -1 892.445 338.709 3
-10 13 4 3205.98 732.785 2
-3 13 -4 4451.04 911.201 1
-10 -3 -4 4284.67 1062.41 2
13 -3 4 3499.47 954.344 2
13 -10 -4 3965.22 703.167 4
13 -10 -4 3621.05 869.151 1
-3 -10 4 2780.06 721.613 4
13 -3 4 2832.01 753.239 1
-10 13 4 3291.14 774.46 4
-10 -3 -4 3609.66 735.442 1
-10 13 4 3124.42 730.904 1
-3 13 -4 4233.75 937.165 3
13 -10 -4 3260.14 948.213 2
-3 -10 4 3910.88 904.673 3
-3 13 -7 469.025 313.706 1
13 -10 -7 500.05 286.971 1
-10 -3 -7 566.292 491.368 2
13 -3 7 391.935 226.963 2
-3 -10 7 654.22 384.612 3
-10 13 7 935.677 501.899 4
-3 -10 7 432.557 342.786 4
13 -3 7 555.985 413.905 1
-10 13 7 382.92 279.397 2
-10 -3 -7 381.001 191.045 1
-3 13 -7 501.291 196.86 3
-10 13 7 633.262 310.387 1
-3 13 -10 2117.77 795.067 1
-10 -3 -10 -46.5476 342.303 2
-10 -3 -10 831.704 413.069 1
13 -3 10 1917.66 802.863 2
13 -3 10 1838.52 713.139 1
-10 13 10 1201.45 521.673 4
-3 -10 10 1986.77 820.894 4
-3 13 -10 1460.51 511.832 3
-3 -10 10 1711.66 645.216 3
13 -10 -10 1498.98 583.519 1
-10 -3 -13 76.2453 266.919 1
13 -3 13 382.049 435.081 2
-3 13 -13 309.679 375.206 1
-10 13 13 232.023 195.807 4
-3 -10 13 -27.5637 253.953 3
-3 13 -16 743.433 628.746 1
13 -3 16 289.163 482.786 2
-10 -3 -16 794.733 426.277 1
-3 -10 16 692.381 492.657 3
-10 -3 -16 644.016 268.83 3
13 -11 15 -582.205 620.429 2
-11 13 -15 -353.762 432.368 1
-2 -11 -15 -40.6889 128.817 1
-2 13 15 571.061 347.843 3
-11 13 -15 216.03 286.659 3
-11 13 -12 104.788 60.3398 3
-2 13 12 -19.1666 72.8504 2
-11 13 -12 186.755 14.2322 1
-2 13 12 -113.656 250.362 3
-2 -11 -12 455.12 248.217 3
13 -11 12 -455.59 536.026 2
-11 -2 12 277.201 158.457 4
-2 -11 -9 2138.37 632.527 3
-11 -2 9 1827.35 389.899 4
13 -11 9 2884.68 1200.6 2
-11 13 -9 1963.31 624.034 3
-11 13 -9 2309.99 846.414 1
-2 13 9 1772.63 579.94 3
-11 13 -6 720.194 727.758 2
-2 -11 -6 2061.89 430.497 2
13 -11 6 3768.02 1214.68 2
13 -11 6 3608.24 1028.79 1
13 -2 -6 3483.57 879.661 1
-2 13 6 3743.42 947.777 4
-2 -11 -6 5414.77 1003.06 3
-2 13 6 4918.77 984.568 3
-11 13 -6 6114.47 1318.33 1
13 -2 -3 1923.82 599.785 1
-11 13 -3 2644.33 915.76 2
-2 13 3 1934.26 430.756 1
-11 13 -3 2605.72 809.745 1
13 -11 3 1910.57 669.573 2
-2 -11 -3 2316.18 652.612 3
-2 13 3 2040.96 710.146 4
-2 -11 -3 1346.99 340.838 2
13 -11 3 2107.1 800.609 1
-2 13 3 2032.49 663.537 3
-2 13 0 3904.33 949.506 4
13 -11 0 3292.73 890.195 1
-2 13 0 2171.04 573.693 1
-11 13 0 4304.98 977.848 2
-11 -2 0 2815.29 684.706 1
-11 -2 0 3014.74 957.393 2
13 -11 0 2467.88 770.067 2
-2 -11 0 3184.19 976.413 4
-11 13 0 3447.42 916.106 1
13 -2 0 2235.47 724.167 2
13 -2 0 3073.21 759.401 1
-2 -11 0 2297.39 677.823 3
-2 13 0 2750.45 750.071 3
-2 -11 3 1375.57 466.238 4
-2 13 -3 1604 517.141 1
13 -11 -3 2623.51 736.372 1
13 -2 3 1540.99 558.646 1
-11 13 3 1773.47 517.335 2
-11 13 3 1830.47 541.583 1
-11 -2 -3 1894.63 674.838 2
-2 13 -3 1907.58 569.826 3
13 -2 3 874.211 386.203 2
-2 13 -3 2197.21 661.486 4
13 -11 -3 1472.89 664.919 2
13 -11 -3 1535.14 485.471 4
-11 -2 -3 1401.69 463.711 1
-2 -11 3 1387.45 575.044 3
-2 13 -6 1100.02 530.767 1
-11 13 6 994.687 448.337 4
-11 -2 -6 1045.46 559.867 2
-2 -11 6 1255.5 544.614 4
-11 13 6 869.798 424.092 1
13 -2 6 426.002 314.833 2
-11 -2 -6 830.091 384.452 1
13 -11 -6 967.917 334.958 4
13 -11 -6 906.697 408.596 1
-11 13 6 554.526 293.636 2
-2 13 -6 705.376 412.932 3
-2 -11 6 1028.14 456.572 3
13 -2 6 929.682 423.977 1
13 -2 9 93.057 110.32 1
-11 -2 -9 -64.5267 252.082 2
-11 13 9 -175.565 298.146 4
13 -11 -9 16.554 177.316 1
-11 13 9 -11.8938 138.35 1
13 -2 9 5.10629 306.802 2
-11 -2 -9 264.518 258.408 1
-2 -11 9 451.619 473.328 4
-2 13 -9 21.7171 24.7251 1
-2 13 -9 188.942 63.1965 3
-2 -11 9 329.543 341.923 3
-11 -2 -12 510.535 303.254 1
-11 13 12 302.207 312.155 4
13 -2 12 687.372 307.208 1
13 -2 12 812.883 653.897 2
-2 13 -12 1036.85 617.215 1
13 -11 -12 156.262 139.159 1
-2 -11 12 1054.61 494.49 3
-2 13 -15 597.973 598.601 1
13 -2 15 653.086 709.37 2
-11 -2 -15 696.907 304.522 3
-2 -11 15 370.395 392.804 3
-11 -2 -15 380.464 371.395 1
-1 13 16 146.316 218.216 2
13 -12 16 347.005 646.171 2
-12 13 -16 694.828 511.898 1
-1 13 16 492.541 319.992 3
-1 -12 -16 58.0511 123.824 1
-12 13 -16 567.848 449.677 3
-12 13 -13 302.914 264.143 3
-1 13 13 127.037 109.755 2
13 -12 13 -539.952 739.202 2
-12 13 -13 198.824 289.478 1
-12 -1 13 333.156 215.543 4
-1 13 13 -13.3725 152.737 3
13 -12 10 3981.81 1617.19 2
-1 13 10 1050.46 318.104 2
-12 13 -10 5265.7 1378.85 1
-12 -1 10 2728.62 491.847 4
-1 13 10 3771.45 867.742 3
-1 -12 -10 4638.65 983.019 3
-12 13 -10 5179.87 1097.84 3
-1 -12 -7 2111.81 610.097 3
13 -12 7 1525.95 773.141 2
-12 13 -7 2485.2 850.966 1
-1 13 7 1730.62 528.116 3
-12 13 -4 4786.26 1344.48 2
13 -12 4 3215.31 988.182 2
13 -12 4 3942.54 1065.12 1
-12 13 -4 5007.89 1187.47 1
-1 -12 -4 1962.29 437.186 2
-1 13 4 4109.4 1073.92 4
-1 -12 -4 4451.13 925.464 3
13 -1 -4 3555.54 879.149 1
-1 13 4 3701 529.249 1
-1 13 4 3648.1 828.658 3
-1 -12 -1 -255.668 354.673 4
-12 13 -1 -180.846 384.219 1
-1 13 1 -110.303 176.176 1
-1 13 1 218.776 247.313 4
13 -12 1 305.554 395.514 1
-12 13 -1 -80.0773 250.096 2
-12 -1 1 92.4128 195.896 1
13 -1 -1 667.754 333.811 1
13 -12 1 0.18709 98.7664 2
-12 -1 1 194.444 219.649 2
13 -1 -1 157.775 154.902 2
-1 13 1 -29.339 154.529 3
-1 -12 -1 -83.6283 180.788 3
13 -1 2 1566.36 578.516 1
-12 -1 -2 1494.89 610.717 2
13 -1 2 429.272 426.494 2
13 -12 -2 1606.86 615.855 1
13 -12 -2 1473.12 710.954 4
-1 13 -2 1280.39 455.98 1
-1 -12 2 1904.36 663.537 3
-12 13 2 1410.18 468.68 1
-12 13 2 1440.68 518.811 2
13 -12 -2 1447.84 678.075 2
-12 -1 -2 1441.45 504.198 1
-1 -12 2 694.46 218.274 4
-1 13 -2 1357.33 479.715 4
-1 13 -2 917.877 441.639 3
-1 13 -5 346.135 288.434 1
-12 -1 -5 489.552 339.564 1
-12 13 5 339.089 194.511 1
13 -1 5 583.216 380.353 1
-12 13 5 450.537 216.062 2
-12 -1 -5 845.737 475.614 2
13 -12 -5 785.012 386.672 1
13 -1 5 472.433 438.243 2
-1 13 -5 303.298 96.251 3
-1 -12 5 445.782 480.935 4
-12 13 5 381.474 295.528 4
-1 -12 5 542.764 419.156 3
13 -12 -5 515.935 272.491 4
-1 13 -8 2164.14 769.848 1
13 -12 -8 1772.08 570.391 1
-1 13 -8 2139.22 695.305 3
-1 -12 8 2243.06 795.991 4
-12 -1 -8 2210.51 985.261 2
13 -1 8 2358.53 821.002 2
-12 -1 -8 1830.24 618.095 1
13 -1 8 2103.75 670.489 1
-12 13 8 2103.64 685.957 4
-12 13 8 1816.17 507.242 1
-12 13 8 1447.32 518.148 2
-1 -12 8 2063.57 730.902 3
-1 13 -11 2155.99 942.144 1
-12 -1 -11 1267.75 607.924 1
13 -1 11 810.607 391.491 2
13 -1 11 1793.8 711.147 1
13 -12 -11 1492.41 587.865 1
-12 13 11 980.101 450.365 4
-1 -12 11 3165.04 1027.23 3
-1 13 -14 1726.47 827.998 1
-12 -1 -14 1535.37 640.53 1
13 -1 14 1443 609.239 1
13 -1 14 1445.69 806.932 2
-12 13 14 728.646 324.288 4
13 -12 -14 1650.8 678.302 1
-1 -12 14 2649.48 915.648 3
-13 0 14 12.0987 14.8037 4
13 -13 14 -102.87 164.725 2
0 13 14 -448.058 358.499 2
-13 13 -14 -587.754 450.641 1
-13 13 -14 -74.419 283.596 3
0 13 14 31.8077 75.6539 3
13 -13 11 1807.79 1123.58 2
0 13 11 1434.05 394.519 2
-13 13 -11 2589.86 975.88 1
-13 0 11 1688.11 344.559 4
0 13 11 2810.33 765.402 3
0 -13 -8 1676.57 566.319 3
13 -13 8 748.528 539.042 2
-13 13 -8 2038.88 762.874 1
0 13 8 1301.63 530.73 3
0 -13 -5 1630.03 587.485 3
0 13 5 1662 680.193 4
0 13 5 1442.15 315.383 1
13 0 -5 2192.04 755.233 1
-13 13 -5 1350.25 959.715 2
13 -13 5 1034.57 639.97 2
13 -13 5 673.536 513.872 1
13 0 -5 2264.36 441.548 4
-13 13 -5 1684.79 744.404 1
0 13 5 1966.86 627.844 3
-13 13 -2 12377.1 1933.2 2
13 -13 2 8774.44 1523.04 2
-13 0 2 10569.3 1436.79 1
-13 0 2 12061.1 1918.77 2
13 0 -2 11904.7 1591.75 1
0 -13 -2 9357.16 1702.68 4
0 13 2 14019.9 1954.1 4
0 13 2 10579.1 1484.17 3
0 -13 -2 10104.2 1471.46 3
0 13 2 9666.19 1014.78 1
13 -13 2 10818.2 1738.55 1
-13 13 -2 12033.1 1798.99 1
13 -13 -1 3243.78 929.678 1
13 0 1 2665.77 753.406 1
-13 0 -1 2663.32 696.626 1
-13 13 1 3040.87 811.977 1
-13 13 1 3493.25 875.41 2
0 -13 1 2597.53 724.602 4
13 -13 -1 1812.51 668.271 2
0 13 -1 3033.83 867.736 4
13 0 1 2383.72 766.17 2
-13 0 -1 2662.47 810.145 2
0 13 -1 2595.72 769.984 3
0 -13 1 1791.9 598.97 3
0 13 -4 3024.28 752.707 3
0 -13 4 2298.12 744.883 4
13 -13 -4 3841.97 929.583 1
-13 0 -4 2781.27 768.508 1
0 13 -4 2962.22 805.781 4
13 0 4 2643.66 722.546 1
13 0 4 2643.36 830.144 2
-13 0 -4 3611.86 1077.56 2
-13 13 4 3052.47 787.896 2
13 -13 -4 3430.17 754.843 4
13 -13 -4 3689 1255.75 2
0 -13 4 3528.14 916.591 3
-13 13 4 3146.89 787.916 1
-13 13 7 917.728 459.367 1
13 -13 -7 101.031 56.6169 4
-13 0 -7 257.405 254.478 2
13 -13 -7 60.7549 216.229 1
-13 13 7 116.048 203.571 2
-13 13 7 459.955 299.755 4
13 0 7 306.22 307.457 2
0 -13 7 604.349 355.378 4
-13 0 -7 253.97 314.006 1
13 0 7 530.016 324.24 1
0 -13 7 387.02 414.939 3
-13 0 -10 7267.32 1303.02 1
-13 13 10 5537.68 1032.96 4
13 0 10 4940.31 1264.76 2
13 -13 -10 5766.13 1103.8 1
0 -13 10 7170.91 1394.53 3
13 0 10 6950.44 1355.64 1
0 13 -13 6899.35 1618.89 1
13 0 13 4670.33 1308.48 2
-13 0 -13 4999.96 1102.29 1
-13 13 13 3972.68 979.892 4
13 -13 -13 6290.11 1366.2 1
13 0 13 6275.29 1436.68 1
0 -13 13 5391.3 1220.05 3
-14 13 -15 -14.1515 169.433 3
-14 1 15 139.471 56.4258 4
13 -14 15 193.7 394.017 2
1 13 15 -81.6589 216.526 2
-14 13 -15 -300.513 346.753 1
13 -14 12 -63.8378 237.857 2
1 13 12 316.778 200.592 2
-14 13 -12 612.639 580.516 1
1 13 12 286.345 204.135 3
1 13 9 4555.5 611.81 2
13 -14 9 5485.6 1604.22 2
1 13 9 4328 968.224 3
1 -14 -9 5785.54 1149.04 3
-14 13 -9 5215.8 1391.96 1
1 -14 -6 1059.95 487.837 3
13 -14 6 2138.53 935.824 2
13 1 -6 979.837 296.971 4
-14 13 -6 1967.3 851.644 1
1 13 6 1100.88 451.803 3
-14 13 -3 633.603 436.743 1
1 -14 -3 533.774 293.792 3
-14 13 -3 1013.34 532.765 2
-14 1 3 813.748 419.664 1
13 -14 3 982.123 619.286 2
1 13 3 825.431 352.51 3
13 1 -3 937.308 474.394 1
13 -14 3 685.024 359.284 1
1 13 3 1236.96 614.131 4
-14 1 3 1534.59 728.288 2
1 -14 0 551.995 335.03 3
-14 13 0 399.55 303.329 1
-14 1 0 -25.5126 125.937 1
1 -14 0 731.488 453.448 4
-14 13 0 1159.66 545.03 2
13 1 0 388.391 193.173 1
13 -14 0 474.305 90.0445 2
1 13 0 657.804 325.947 4
-14 1 0 675.103 311.701 2
13 -14 0 603.427 377.748 1
1 13 0 713.017 402.759 3
13 1 0 754.009 440.535 2
-14 1 -3 7099.78 1432.81 2
-14 13 3 5538.85 1133.57 2
13 -14 -3 7883.8 1723.44 2
13 1 3 5304.36 1004.61 1
-14 13 3 5828.59 1136.64 1
-14 1 -3 5559.16 1071.4 1
1 -14 3 5829.42 1175.97 4
13 -14 -3 6284.65 1147.78 4
1 13 -3 6064.76 1083.27 4
13 1 3 3677.24 1092.85 2
1 13 -3 6675.42 1199.88 3
1 -14 3 6474.97 1222.13 3
13 -14 -3 6824.67 1182.04 1
1 -14 6 433.801 402.752 3
13 1 6 256.316 228.302 1
13 -14 -6 659.253 331.871 1
-14 1 -6 567.381 569.41 2
13 1 6 15.6434 226 2
13 -14 -6 546.163 376.243 4
-14 13 6 417.819 284.558 1
-14 1 -6 222.366 231.753 1
1 -14 6 370.739 297.721 4
-14 13 6 -172.581 169.208 2
1 -14 9 280.098 157.855 3
-14 13 9 321.928 264.649 1
-14 1 -9 1244.41 629.28 1
13 -14 -9 -33.9473 136.168 1
13 1 9 1070.7 551.536 2
-14 13 9 201.737 247.772 2
-14 13 9 475.104 301.93 4
13 1 9 721.971 435.054 1
1 -14 12 725.217 503.012 3
13 -14 -12 886.688 423.309 1
-14 1 -12 216.784 190.075 1
13 1 12 741.4 366.591 1
13 1 12 466 341.232 2
-14 13 12 550.911 276.125 4
-14 1 -15 1414.88 686.649 1
1 -14 15 1484.51 665.878 3
13 1 15 1605.59 675.223 1
-14 13 15 1161.2 404.986 4
1 13 -15 2130.2 1065.73 1
13 1 15 1351.6 683.715 2
13 -14 -15 1621.88 894.634 1
13 -15 13 305.645 297.216 2
2 13 13 181.679 93.3447 2
-15 13 -13 956.497 677.996 1
2 13 10 334.566 157.826 2
-15 13 -10 -268.066 429.022 1
13 -15 10 735.992 556.91 2
2 13 10 63.4919 223.897 3
2 -15 -7 901.5 355.397 3
13 2 -7 1379.08 372.62 4
13 -15 7 1817.42 854.369 2
2 13 7 1543 567.249 3
-15 13 -7 930.399 571.57 1
2 13 7 564.499 205.218 2
-15 13 -4 1545.63 592.917 1
2 -15 -4 553.809 295.572 3
2 13 4 1667.12 660.021 3
-15 13 -4 1528.97 810.186 2
13 2 -4 1599.95 627.315 1
13 -15 4 1261.99 669.786 2
13 2 -4 1926.01 517.359 4
13 -15 4 1079.52 485.584 1
-15 2 4 1756.06 645.82 1
-15 2 4 1382.76 774.586 2
2 13 4 1959.72 743.332 4
2 -15 -1 3365.89 879.724 3
-15 13 -1 3305.52 1025.24 1
13 -15 1 2567.86 749.739 2
-15 2 1 2095.41 846.03 2
-15 13 -1 4504.78 1134.26 2
-15 2 1 3036.62 814.417 1
2 -15 -1 2435.82 858.82 4
13 -15 1 2811.52 844.326 1
2 13 1 3002.04 835.277 3
2 13 1 3372.65 901.025 4
13 2 -1 3268.41 890.566 1
2 -15 2 553.887 268.132 3
13 2 2 -30.946 217.312 1
13 -15 -2 -78.6836 246.49 2
-15 2 -2 294.549 218.372 1
-15 13 2 339.779 312.878 2
-15 2 -2 -51.8244 137.298 2
-15 13 2 296.406 312.825 1
2 -15 2 389.747 414.632 4
13 -15 -2 500.744 277.166 4
13 2 2 25.2494 283.517 2
13 -15 -2 228.779 169.638 1
2 13 -2 451.127 266.948 4
13 -15 -5 750.265 446.308 1
-15 13 5 1020.15 516.063 2
-15 13 5 547.609 286.292 1
13 2 5 660.253 375.858 1
-15 2 -5 760.117 541.968 2
2 -15 5 499.104 448.925 3
13 2 5 634.146 418.122 2
13 -15 -5 424.735 467.126 4
13 -15 -5 105.51 204.935 2
2 -15 5 778.784 540.006 4
-15 2 -5 705.141 440.356 1
2 13 -5 272.698 274.308 4
2 -15 8 3479.88 984.892 3
-15 13 8 1684.1 679.814 2
13 -15 -8 2946.76 757.497 1
-15 2 -8 2651.65 842.716 1
13 2 8 2534.54 877.175 2
-15 13 8 2103.3 569.305 4
-15 13 8 1869.19 619.14 1
13 2 8 3371.56 881.269 1
2 -15 11 1257.53 666.294 3
-15 2 -11 1669.31 710.6 1
13 2 11 983.738 597.34 2
13 2 11 941.353 421.25 1
-15 13 11 450.887 295.708 4
13 -15 -11 478.242 348.217 1
2 -15 14 662.611 476.266 3
-15 2 -14 453.088 335.551 1
13 -15 -14 250.061 76.0599 1
13 2 14 374.719 293.501 1
-15 13 14 100.559 173.927 4
13 2 14 -91.9863 285.784 2
13 -16 14 -283.555 300.15 2
-16 13 -14 1198.09 573.616 1
3 13 14 805.33 297.845 2
13 -16 11 909.887 759.237 2
3 13 11 717.389 317.185 2
-16 13 -11 534.023 427.294 1
13 -16 8 5924.32 1800.04 2
3 13 8 1502.34 465.967 2
-16 13 -8 6878.02 1638.02 1
13 -16 5 12644.1 2303.81 2
3 13 5 11615.4 1830.43 4
-16 3 5 12362.8 1747.25 1
13 3 -5 13891 1344.97 4
-16 13 -5 16488.3 2297.94 1
3 -16 -5 13026.5 1836.63 3
3 13 5 13198.2 1061.38 1
3 -16 -2 2551.38 768.21 3
-16 13 -2 5456.64 1346.72 2
-16 13 -2 4585.01 1162.03 1
13 -16 2 2338.49 804.743 2
13 -16 2 3992.41 1102.98 1
3 13 2 5224.6 1267.2 4
-16 3 2 4090.14 1018.75 1
3 -16 -2 3029.91 1013.15 4
-16 3 2 1876.72 949.24 2
13 3 -2 5174.37 1120.81 1
3 -16 1 778.743 407.967 3
3 13 -1 777.394 503.34 4
-16 3 -1 703.564 426.898 1
13 3 1 787.949 440.016 1
-16 13 1 923.449 570.556 2
13 -16 -1 539.616 263.64 2
-16 3 -1 401.613 445.268 2
13 3 1 617.318 541.414 2
-16 13 1 1246.05 629.68 1
13 -16 -1 856.856 468.761 1
13 -16 -1 1118.88 636.592 4
3 -16 1 221.796 193.775 4
-16 3 -4 477.853 354.172 1
-16 13 4 213.012 102.277 1
3 -16 4 589.917 404.005 3
-16 3 -4 400.79 308.624 2
-16 13 4 607.411 380.237 2
13 3 4 280.7 151.161 1
3 -16 4 55.5223 139.021 4
13 3 4 -231.42 239.704 2
13 -16 -4 661.616 437.575 2
13 -16 -4 484.09 326.891 1
3 13 -4 308.235 105.854 4
13 -16 -4 -7.58923 158.299 4
13 3 7 7788.43 1318.99 1
13 -16 -7 7582.95 1163.32 1
13 3 7 7836.88 1563.89 2
-16 3 -7 7882.89 1439.91 1
13 -16 -7 6569.49 1281.14 4
-16 13 7 3471.2 1138.2 2
3 -16 7 7617.75 1473.3 3
-16 13 7 6424.57 1229.22 1
3 -16 10 174.052 157.78 3
-16 13 10 262.55 157.2 1
-16 3 -10 397.089 406.17 1
13 3 10 1044.76 527.443 2
13 -16 -10 843.085 449.703 1
13 3 10 677.965 338.506 1
-16 13 10 566.852 249.851 4
-16 13 10 227.681 235.789 2
3 -16 13 75.6594 20.8556 3
-16 3 -13 116.066 123.769 1
13 3 13 -63.3356 323.387 1
13 3 13 183.7 370.863 2
-16 13 13 139.235 154.84 4
13 -16 -13 541.032 339.068 1
13 -17 12 -204.943 346.37 2
4 13 12 1236.39 384.055 2
-17 13 -12 1472.01 828.778 1
13 -17 9 548.5 665.403 2
-17 13 -9 -424.25 469.663 1
4 13 9 -219.898 201.654 2
-17 13 -6 3450.27 1077.22 1
4 -17 -6 1683.29 621.881 3
4 13 6 2211.96 423.75 1
13 -17 6 1987.34 1022.67 2
13 4 -6 2322.35 614.206 4
4 -17 -3 1999.54 712.408 3
4 -17 -3 776.912 441.393 2
-17 13 -3 2660.81 905.006 1
13 -17 3 2311.87 796.8 2
13 4 -3 2210.62 775.293 1
13 -17 3 2608.4 886.995 1
13 4 -3 1673.33 508.261 4
-17 4 3 1978.25 696.172 1
4 13 3 2216.77 750.066 4
4 -17 0 -2.35248 177.058 3
-17 13 0 1384.52 720.277 2
13 -17 0 272.019 327.743 2
13 -17 0 615.943 396.37 1
-17 13 0 741.703 524.313 1
4 13 0 884.878 553.87 4
-17 4 0 -92.7711 282.02 1
4 -17 0 -201.132 278.484 2
13 -17 0 847.845 625.269 4
13 4 0 776.543 446.819 1
4 -17 3 1410.75 605.198 3
-17 13 3 1618.11 585.939 1
-17 4 -3 1887.43 644.4 1
-17 13 3 1857.11 773.143 2
4 13 -3 1218.32 567.884 4
13 -17 -3 1354.7 626.392 4
13 -17 -3 1607.86 532.321 1
13 4 3 767.129 542.758 2
13 -17 -3 987.286 539.703 2
13 4 3 1419.9 427.191 1
4 -17 6 834.526 458.554 3
4 13 -6 799.119 400.539 4
13 -17 -6 1110.68 465.037 1
13 4 6 1066.77 468.753 1
-17 13 6 838.621 445.237 1
-17 4 -6 762.525 538.193 1
13 -17 -6 859.564 500.97 4
-17 13 6 1394.51 736.918 2
13 4 6 574.023 400.34 2
4 -17 9 389.338 294.96 3
13 -17 -9 322.422 309.446 1
-17 4 -9 589.088 449.923 1
13 4 9 211.877 180.908 2
-17 13 9 511.048 404.432 1
13 4 9 407.231 383.82 1
-17 4 -12 378.908 335.52 1
13 4 12 -148.554 203.758 1
13 4 12 -25.9832 189.966 2
13 -17 -12 132.647 222.068 1
-17 13 12 204.941 221.826 4
4 -17 12 266.654 246.341 3
13 -18 13 -124.005 551.896 2
5 13 13 539.62 228.773 2
-18 13 -13 948.251 653.911 1
13 -18 10 659.759 834.501 2
5 13 10 837.998 363.103 2
-18 13 -10 1223.2 714.038 1
-18 13 -7 2124.33 878.873 1
13 -18 7 1145.73 674.726 2
5 13 7 2161.37 476.345 1
13 5 -7 2315.56 652.557 4
5 13 4 4548.67 772.968 1
5 -18 -4 4141.57 1096.26 3
-18 5 4 3515.2 960.357 1
13 -18 4 4966.98 1335.5 2
-18 13 -4 6144.19 1432.97 1
5 -18 -4 1945.31 371.133 2
5 13 4 3944.92 1096.76 4
13 5 -4 3915.85 793.649 4
5 -18 -1 2763 843.133 3
5 -18 -1 907.956 649.924 2
13 -18 1 1874.26 619.555 2
13 -18 1 2910.84 916.292 1
13 5 -1 2778.7 811.922 1
-18 13 -1 3940.53 1122.74 1
5 13 1 3089.31 989.898 4
-18 5 1 2406.8 808.332 1
5 -18 2 938.424 425.018 3
5 -18 2 1302.89 538.958 2
-18 5 -2 1445.19 645.538 1
13 5 2 1219.9 513.903 1
-18 13 2 1223.1 663.116 2
13 -18 -2 851.85 377.787 2
13 -18 -2 1937.83 776.66 4
5 13 -2 1088.04 527.583 4
13 -18 -2 1276.45 546.785 1
-18 13 2 960.608 630.128 1
5 13 -5 2281.19 713.285 4
5 -18 5 3942.6 1038.31 3
-18 13 5 2647.24 899.118 2
13 -18 -5 4547.4 1430.31 2
13 5 5 1279.06 716.551 2
13 -18 -5 3455.04 969.532 4
-18 13 5 2183.6 735.852 1
13 5 5 2617.22 705.154 1
-18 5 -5 4142.11 1175.62 1
13 -18 -5 3136.63 791.719 1
13 -18 -8 1399.54 495.191 1
13 5 8 1645.97 565.344 1
13 5 8 1766.03 743.4 2
-18 5 -8 1668.63 796.4 1
-18 13 8 803.79 493.56 1
5 -18 8 1591.69 720.437 3
5 -18 11 282.884 557.968 3
-18 5 -11 179.529 157.931 1
13 -18 -11 603.74 387.075 1
13 5 11 796.432 468.249 1
13 5 11 737.818 524.552 2
-18 5 -14 -56.5918 243.132 1
13 5 14 443.926 317.775 1
13 5 14 -96.5034 220.108 2
13 -18 -14 -306.208 272.312 1
-18 13 14 168.309 130.943 4
5 -18 14 -16.2255 62.9869 3
13 -19 11 -402.379 185.31 2
6 13 11 530.412 366.518 2
-19 13 -11 574.982 654.767 1
6 -19 -8 1025.98 290.572 1
-19 13 -8 1188.76 619.915 1
13 -19 8 1140.18 712.677 2
6 13 8 1251.38 428.033 1
6 13 8 1010.38 415.3 2
13 6 -8 1396.08 509.263 4
6 13 5 187.207 112.959 1
6 -19 -5 176.491 103.266 1
-19 13 -5 -41.8225 396.216 1
13 -19 5 247.794 477.719 2
13 6 -5 262.05 179.404 4
-19 6 5 -166.037 91.6117 1
6 -19 -2 1862.62 567.41 1
6 -19 -2 1388.29 614.283 3
-19 6 2 1936.78 684.536 1
6 -19 -2 2259.65 612.644 2
13 -19 2 2070.66 827.099 2
13 6 -2 2428.05 761.635 4
6 13 2 2370.53 846.216 4
6 13 -1 957.413 597.056 4
6 -19 1 967.06 564.78 3
6 -19 1 735.952 328.456 2
-19 6 -1 1129.06 557.072 1
13 -19 -1 830.108 428.216 1
13 -19 -1 632.679 269.68 2
-19 13 1 1044.62 712.755 1
13 6 1 744.704 435.801 1
6 -19 4 3785.51 1133.98 2
-19 6 -4 5518.67 1337.28 1
-19 13 4 4646.49 1118.65 1
13 6 4 4302.42 929.491 1
13 -19 -4 5015.15 1235.83 4
13 -19 -4 8502.38 2104.08 2
6 13 -4 4155.05 965.707 4
13 6 4 3819.9 1172.03 2
6 -19 4 5529.28 1279.72 3
13 -19 -4 5296.01 1060.57 1
6 -19 7 557.074 424.743 3
13 6 7 369.766 326.629 1
-19 13 7 187.581 104.39 1
-19 6 -7 369.468 437.144 1
13 6 7 203.902 352.566 2
6 13 -7 733.609 408.411 4
13 -19 -7 381.841 326.902 1
6 -19 10 580.926 510.32 3
13 -19 -10 282.718 282.571 1
-19 6 -10 999.507 474.141 1
-19 13 10 60.704 174.273 1
13 6 10 741.28 436.932 2
13 6 10 635.373 354.906 1
6 -19 13 101.331 418 3
-19 6 -13 69.2642 245.021 1
13 -19 -13 470.239 313.732 1
13 6 13 725.551 495.317 1
13 6 13 689.31 520.247 2
7 13 12 950.427 293.383 1
13 -20 12 371.095 708.476 2
7 13 12 1773.13 565.905 2
-20 13 -12 904.028 676.046 1
7 13 9 137.831 184.54 1
-20 13 -9 422.809 336.089 1
7 -20 -9 446.78 167.498 1
13 -20 9 350.526 609.798 2
7 13 9 -55.7853 39.9588 2
-20 7 6 1115.83 449.334 1
7 -20 -6 1352.3 399.891 1
7 13 6 838.868 301.731 1
13 -20 6 1035.42 683.296 2
-20 13 -6 1654.81 833.78 1
13 7 -6 1214.94 522.773 4
7 13 3 4715.04 903.862 1
7 13 3 3825.01 1077.7 4
-20 13 -3 6477.86 1464.26 1
-20 7 3 4038.85 1117.73 1
7 -20 -3 3041.27 601.906 2
13 -20 3 4274.76 1131.71 2
13 7 -3 4115.75 937.49 4
7 -20 -3 3696.97 777.905 1
7 -20 0 1584.06 544.91 1
7 -20 0 1324.57 573.104 3
7 -20 0 1349.77 516.996 2
13 -20 0 1358.57 595.204 1
13 -20 0 1869.53 675.089 2
13 7 0 1396.92 581.646 1
-20 7 0 1662.79 716.891 1
-20 13 0 2076.55 798.95 1
7 13 0 1736.02 722.2 4
7 -20 3 898.684 517.754 3
7 -20 3 685.689 401.046 2
-20 7 -3 582.76 528.747 1
-20 13 3 202.605 185.818 1
13 7 3 871.805 401.058 1
13 -20 -3 -31.0419 394.643 2
13 -20 -3 559.217 338.375 1
7 13 -3 232.731 217.907 4
7 -20 6 639.625 525.844 3
-20 13 6 118.731 278.38 1
13 7 6 950.196 494.705 1
7 -20 6 690.459 432.016 2
-20 7 -6 1019.94 583.943 1
13 -20 -6 675.761 319.113 1
13 7 6 497.957 217.693 2
7 13 -6 467.75 286.292 4
13 7 9 940.924 641.72 2
13 7 9 1239.48 553.589 1
7 -20 9 991.097 476.409 3
-20 13 9 593.733 488.878 1
-20 7 -9 486.528 437.235 1
13 -20 -9 707.982 384.368 1
7 -20 12 287.696 307.229 3
13 -20 -12 220.612 232.087 1
-20 7 -12 509.973 554.976 1
13 7 12 475.505 405.584 1
13 7 12 714.717 483.574 2
-21 13 -10 377.921 344.588 1
8 -21 -10 198.743 120.343 1
13 -21 10 349.209 574.923 2
8 13 10 174.501 336.368 2
8 13 10 428.009 262.005 1
-21 13 -7 1061.15 664.32 1
13 -21 7 651.761 534.812 2
13 8 -7 480.941 244.781 4
8 13 7 1082.53 376.893 1
8 -21 -7 996.4 348.617 1
-21 8 7 233.454 96.1605 1
8 -21 -4 1857.4 545.574 1
13 -21 4 2556.6 1050.81 2
8 13 4 2751.13 657.064 1
-21 13 -4 3228.04 1058.42 1
13 8 -4 1679.93 602.34 4
-21 8 4 2061.32 759.667 1
8 -21 -4 1786.97 544.829 2
8 -21 -1 1744.37 655.864 2
-21 13 -1 2736.8 1021.75 1
-21 8 1 1669.01 752.666 1
8 13 1 2049.55 870.616 4
13 -21 1 874.522 344.719 2
8 -21 -1 1601.77 542.671 1
13 8 -1 900.671 512.028 4
-21 8 -2 2959.07 1013.37 1
-21 13 2 1709.13 733.592 1
8 -21 2 1853.88 999.282 2
13 -21 -2 2358.08 777.662 1
13 -21 -2 1680.75 547.878 2
8 13 -2 1985.29 773.849 4
13 8 2 2150.57 736.72 1
8 -21 5 745.999 514.187 3
8 -21 5 483.902 392.995 2
13 -21 -5 615.11 302.103 1
8 13 -5 914.996 502.347 4
13 -21 -5 1775.04 1003.44 2
-21 13 5 842.288 478.985 1
13 8 5 544.721 457.521 2
-21 8 -5 1558.65 847.571 1
13 8 5 686.079 455.151 1
8 -21 8 592.103 453.763 3
-21 13 8 160.82 220.317 1
8 -21 8 308.307 463.796 2
13 8 8 145.19 74.2783 1
13 -21 -8 102.065 44.1523 1
-21 8 -8 601.132 473.985 1
13 8 8 259.498 242.387 2
8 -21 11 330.256 502.027 2
-21 8 -11 559.906 497.474 1
13 8 11 812.125 428.955 1
13 -21 -11 322.75 141.03 1
13 8 11 265.017 283.243 2
9 13 11 292.087 143.489 1
-22 13 -11 731.246 417.985 1
13 -22 11 159.696 361.945 2
9 -22 -11 152.504 124.167 1
9 13 11 28.24 167.323 2
9 -22 -8 965.123 367.819 1
-22 13 -8 461.626 544.829 1
13 -22 8 113.357 525.351 2
13 9 -8 398.776 341.315 4
9 13 8 692.527 379.491 1
-22 9 8 59.7588 191.513 1
9 13 8 496.341 393.85 2
9 -22 -5 1530.54 502.158 1
13 -22 5 1458.53 883.891 2
13 9 -5 1636.22 584.91 4
-22 9 5 1065.67 514.504 1
-22 13 -5 3109.66 1106.36 1
9 13 5 1858.15 544.733 1
9 -22 -5 177.225 514.028 2
9 13 2 438.361 239.998 1
9 -22 -2 564.1 350.626 1
13 -22 2 535.097 428.754 2
9 -22 -2 479.143 342.605 2
-22 13 -2 1526.97 696.246 1
13 9 -2 283.223 194.712 4
9 13 2 1143.06 638.019 4
-22 9 2 995.325 629.445 1
9 -22 1 3800 982.099 1
-22 13 1 4522.81 1245.16 1
-22 9 -1 5077.36 1334.01 1
9 -22 1 4189.73 1063 2
13 9 1 3834.29 1012.03 1
13 -22 -1 4360.61 1080.31 1
13 -22 -1 2643.23 667.477 2
9 13 -1 3384.34 1038.81 4
9 -22 4 109.141 381.884 2
13 9 4 495.098 382.742 1
13 -22 -4 148.317 157.236 1
-22 13 4 110.853 116.599 1
9 13 -4 -37.5061 212.623 4
-22 9 -4 151.208 214.474 1
9 -22 7 183.779 469.654 2
-22 13 7 783.079 449.228 1
13 9 7 1129.86 471.651 1
-22 9 -7 440.136 386.944 1
13 -22 -7 515.102 355.714 1
9 13 -7 507.783 418.979 4
13 9 7 169.584 362.768 2
9 -22 10 345.959 468.776 2
-22 9 -10 148.445 178.709 1
13 9 10 296.895 422.744 2
13 -22 -10 148.417 199.175 1
13 9 10 761.879 539.623 1
-22 13 10 30.1376 184.127 1
10 13 9 785.706 398.615 2
10 13 9 2299.46 749.241 1
13 -23 9 252.111 359.55 2
10 -23 -9 1441.44 482.342 1
-23 13 -9 1224.59 791.353 1
-23 10 9 551.872 453.679 1
-23 10 6 162.197 239.248 1
10 13 6 227.746 207.693 1
10 -23 -6 120.907 178.275 1
13 -23 6 282.679 322.083 2
13 10 -6 94.7863 211.953 4
10 -23 -3 144.966 125.581 1
13 -23 3 368.796 198.109 2
10 -23 -3 23.8645 211.932 2
10 13 3 209.681 191.15 1
13 10 -3 260.998 199.23 4
-23 13 -3 79.7054 91.8066 1
10 13 3 195.741 242.856 4
-23 10 3 800.732 567.398 1
-23 13 0 174.838 167.428 1
10 -23 0 572.375 130.107 1
10 13 0 976.577 530.072 4
10 -23 0 1289.75 664.825 2
-23 10 0 541.595 501.199 1
13 -23 0 711.361 354.563 2
13 10 0 618.597 381.841 4
10 -23 3 1058.13 731.632 2
13 -23 -3 1369.75 557.844 1
-23 13 3 2018.62 840.608 1
13 10 3 983.81 493.071 1
13 -23 -3 1279.21 550.43 2
10 13 -3 1458.74 660.837 4
-23 10 -3 1890.14 895.433 1
13 10 6 303.128 270.549 2
10 -23 6 23.6116 253.014 2
-23 13 6 20.0058 221.476 1
13 -23 -6 598.704 394.441 1
-23 10 -6 596.868 530.085 1
10 13 -6 -92.3017 194.315 4
13 10 6 92.0662 60.1239 1
-23 13 9 198.9 205.52 1
13 10 9 518.146 353.016 1
10 -23 9 -64.6325 179.068 2
-23 10 -9 82.2706 73.1868 1
13 -23 -9 179.02 203.587 1
13 10 9 -118.955 277.831 2
11 13 10 443.605 303.845 1
13 -24 10 -241.224 499.653 2
-24 13 -10 131.592 345.052 1
11 -24 -10 426.51 228.303 1
11 13 10 138.063 167.931 2
11 -24 -7 1074.86 493.984 1
13 -24 7 671.82 709.759 2
-24 13 -7 884.801 680.795 1
-24 11 7 291.557 95.1122 1
13 11 -7 164.392 164.601 4
11 13 7 950.537 444.189 1
-24 11 4 503.704 490.171 1
11 -24 -4 -115.374 337.892 1
13 -24 4 419.661 418.415 2
-24 13 -4 -305.859 515.343 1
11 -24 -4 201.898 406.281 2
13 11 -4 266.386 369.26 4
11 13 4 -189.628 175.411 1
-24 13 -1 578.421 421.068 1
11 -24 -1 353.295 286.155 1
11 13 1 310.488 370.969 1
13 -24 1 295.089 269.074 2
11 -24 -1 -46.979 190.009 2
-24 11 1 360.22 434.467 1
11 13 1 -47.7515 263.901 4
13 11 -1 -15.4592 176.382 4
-24 11 -2 771.113 507.485 1
13 11 2 555.677 349.859 1
13 -24 -2 304.245 348.353 1
11 -24 2 561.197 449.146 2
-24 13 2 785.569 667.271 1
13 -24 -2 365.971 199.74 2
11 13 -2 288.865 328.443 4
-24 13 5 539.108 436.405 1
13 11 5 867.279 366.764 1
13 -24 -5 477.75 893.325 2
11 -24 5 -71.2325 82.3239 2
13 -24 -5 890.443 416.71 1
-24 11 -5 1039.85 616.726 1
11 13 -5 316.902 212.626 4
11 13 -8 -62.2464 359.018 4
11 -24 8 3.75804 184.026 2
-24 13 8 220.897 348.282 1
13 11 8 992.779 439.087 1
13 -24 -8 169.259 260.487 1
-24 11 -8 -208.545 327.577 1
13 11 8 -102.91 294.16 2
13 12 -8 -518.395 453.427 4
13 -25 8 271.619 408.356 2
12 -25 -8 -196.659 287.341 1
-25 13 -8 459.036 497.233 1
12 13 8 373.938 291.552 1
-25 12 8 -97.3569 233.657 1
12 13 8 60.5047 172.467 2
-25 13 -5 -116.634 428.036 1
12 -25 -5 635.787 429.201 1
13 -25 5 0.31982 212.529 2
-25 12 5 16.1694 149.265 1
12 13 5 507.14 324.244 1
12 -25 -5 -92.1157 165.656 2
13 12 -5 199.811 190.945 4
13 -25 2 880.62 322.935 2
12 -25 -2 368.647 230.698 2
-25 12 2 452.78 456.572 1
12 13 2 118.091 180.727 4
13 12 -2 485.281 369.594 4
-25 13 -2 1152.94 695.716 1
-25 12 -1 4447.53 1313.58 1
12 13 -1 2451.62 915.142 4
-25 13 1 2706.03 945.741 1
12 -25 1 4318.85 1219.07 2
13 -25 -1 1543.78 666.462 2
13 12 1 2497.27 998.944 4
13 -25 -4 341.463 370.689 1
12 -25 4 410.401 501.967 2
13 12 4 349.502 312.011 1
13 -25 -4 332.658 130.397 2
12 13 -4 578.222 369.907 4
-25 13 4 569.737 606.123 1
-25 12 -4 321.195 221.438 1
12 -25 7 55.1512 102.498 2
13 -25 -7 350.45 269.812 1
-25 12 -7 46.8169 372.086 1
12 13 -7 184.096 169.089 4
13 12 7 410.158 384.45 1
-25 13 7 315.09 151.392 1
13 -26 0 2264.85 723.367 2
13 13 0 3312.64 1064.9 4
13 -26 3 22.5606 388.021 2
-26 13 3 95.1716 276.71 1
13 -26 -3 -70.5461 221.911 2
13 13 -3 107.288 342.595 4
-26 13 -3 451.921 574.13 1
13 13 6 38.0031 97.2647 1
13 -26 -6 -151.696 256.56 1
13 -26 6 222.792 221.323 2
-26 13 6 -508.588 297.094 1
-26 13 -6 115.267 280.036 1
13 13 -6 -245.467 370.015 4
13 -26 -6 -115.943 437.878 2
-7 14 0 816.53 301.186 3
-7 14 0 814.442 345.906 2
14 -7 0 329.761 279.683 2
14 -7 0 689.289 304.986 1
-7 14 0 774.197 387.737 1
-7 14 0 421.876 290.157 4
-7 14 -3 -76.0787 300.406 3
14 -7 3 488.207 390.961 1
-7 14 3 82.9267 126.298 4
-7 14 3 264.997 338.027 3
-7 14 3 -17.0079 53.8915 2
-7 14 -3 206.771 247.067 1
14 -7 3 -137.096 303.169 2
14 -7 -3 237.17 238.614 2
-7 -7 -3 -98.1234 128.864 2
-7 14 3 401.714 203.492 1
14 -7 -3 204.238 67.2196 1
-7 14 -6 774.963 418.823 3
-7 14 6 445.92 317.826 3
14 -7 6 525.202 485.674 1
-7 14 -6 981.161 511.7 1
-7 14 6 1066.05 472.051 4
-7 -7 -6 554.327 395.857 2
14 -7 6 360.767 378.138 2
-7 -7 -6 479.133 237.999 1
-7 14 6 318.412 151.316 2
14 -7 -6 948.741 431.781 1
14 -7 -6 575.341 206.762 4
-7 -7 6 978.477 440.363 4
-7 14 6 680.093 282.344 1
-7 14 9 3457.46 916.789 3
14 -7 -9 1446.51 543.608 1
-7 -7 -9 981.886 565.361 2
-7 14 -9 3734.92 1040.81 1
14 -7 9 3393.88 1132.34 2
-7 -7 -9 2719.05 503.693 1
14 -7 9 3394.87 991.998 1
-7 -7 -9 2549.27 643.79 3
-7 -7 9 2723.18 685.181 4
-7 14 9 1922.04 644.584 4
-7 14 -9 4299.46 951.322 3
-7 14 12 272.821 176.992 3
-7 14 -12 371.781 240.974 1
-7 -7 -12 81.6654 129.776 1
-7 14 -12 -125.86 248.607 3
-7 -7 -12 453.824 254.659 3
-7 -7 12 583.743 393.876 4
-7 -7 -15 1227.3 448.301 3
-7 -7 -15 734.192 297.638 1
-7 14 15 1112.24 489.888 3
-7 14 -15 986.588 694.011 1
14 -7 15 875.019 517.006 2
-7 14 -15 908.602 423.889 3
-6 14 16 4.37321 200.984 3
-8 14 -16 -222.67 515.141 1
14 -8 16 141.109 324.296 2
-6 -8 -16 125.814 65.5826 1
-8 14 -16 142.095 301.829 3
-6 -8 -13 436.268 261.856 3
-6 14 13 561.022 406.07 3
-8 -6 13 479.149 350.146 4
-6 -8 -13 507.335 217.269 1
-8 14 -13 -31.0531 214.434 1
14 -8 13 -169.896 491.915 2
-8 14 -13 515.44 282.137 3
-8 14 -10 678.212 306.08 3
-6 14 10 108.086 193.14 3
-8 14 -10 373.547 139.965 1
-6 14 10 101.531 233.686 4
14 -8 10 284.623 253.13 2
-6 -8 -10 263.26 87.4596 1
-6 -8 -10 -28.7626 178.676 3
-8 -6 10 386.069 277.269 4
14 -6 -7 799.686 393.977 1
-8 14 -7 1219.14 481.681 3
-6 14 7 753.6 408.411 3
-6 -8 -7 763.64 368.415 3
-6 -8 -7 674.841 445.829 2
-8 14 -7 1164.2 591.028 1
-6 14 7 790.259 248.961 1
14 -8 7 352.109 333.469 2
-6 -8 -7 663.06 241.177 1
14 -8 7 549.386 340.213 1
-8 -6 7 630.545 266.145 4
-6 14 7 159.522 60.9457 2
-6 14 7 808.895 449.35 4
-6 14 4 2262.11 762.768 3
-8 14 -4 2590.88 813.899 3
-6 14 4 894.802 303.433 2
14 -6 -4 2810.27 755.813 1
-8 14 -4 2719.82 881.066 1
14 -8 4 2315.92 800.281 2
-6 -8 -4 3248.49 931.293 2
-6 14 4 2585.86 594.884 1
14 -8 4 2643.05 789.707 1
-6 -8 -4 2371.07 690.674 3
-6 14 4 3234.86 969.338 4
-6 14 1 1081.77 464.531 3
-8 14 -1 1046.56 323.7 3
-8 14 -1 1172.46 446.449 2
14 -8 1 1210.27 514.005 1
14 -8 1 652.716 261.213 2
-6 14 1 1049.76 449.231 4
-6 14 1 597.562 205.369 1
-8 14 -1 1249.89 565.664 1
14 -6 -1 988.228 356.617 1
-6 -8 -1 952.957 395.075 2
14 -6 -1 766.825 316.025 2
-6 14 -2 1475.8 537.632 3
-8 14 2 1790.87 589.365 3
14 -6 2 1764.67 666.216 1
-8 14 2 2426.65 586.988 2
-6 14 -2 1929.86 632.939 1
-8 -6 -2 1463.01 582.789 2
14 -6 2 918.871 468.92 2
14 -8 -2 1666.76 654.129 2
-8 14 2 1931.1 646.93 4
14 -8 -2 1792.43 681.62 1
-8 14 2 1853.33 502.128 1
-6 14 -5 935.97 494.85 3
14 -8 -5 1046.9 498.046 1
-6 14 -5 1070.47 520.002 1
-8 14 5 495.873 364.708 4
-8 14 5 928.578 367.354 1
-6 -8 5 638.568 397.658 4
14 -8 -5 900.064 257.882 4
-8 14 5 493.657 241.437 2
-8 -6 -5 1217.63 587.951 2
14 -6 5 439.844 297.15 2
-8 -6 -5 807.887 320.139 1
14 -6 5 515.74 396.534 1
-8 -6 -8 1047.25 320.499 1
-6 14 -8 1471.06 560.488 1
-8 -6 -8 1688.85 651.256 2
14 -6 8 1627.33 724.352 2
-8 14 8 1391.01 342.482 1
14 -8 -8 1180.84 459.124 1
14 -6 8 1768.32 669.851 1
-8 14 8 1315.39 339.502 2
-8 14 8 1374.6 544.515 4
-6 -8 8 1409.92 502.388 4
-6 14 -8 1646.01 547.121 3
-8 -6 -11 45.3643 408.237 2
-6 14 -11 3331.88 1068.37 1
14 -6 11 2063.28 1008.37 2
-8 -6 -11 2273.08 548.202 1
-6 -8 11 2863.14 834.659 4
-8 14 11 2217.85 723.105 4
-8 -6 -11 2829.28 690.058 3
-6 14 -11 2224.88 686.58 3
-8 -6 -14 670.31 362.911 1
-6 14 -14 1000.67 671.535 1
14 -6 14 -108.622 451.779 2
-6 -8 14 1010.13 420.96 3
-8 14 14 942.507 560.697 3
-6 14 -14 855.993 472.02 3
-8 -6 -14 784.151 338.227 3
-5 14 14 151.509 154.53 3
-5 -9 -14 -49.2071 155.145 3
-5 -9 -14 123.807 106.884 1
-9 14 -14 250.282 338.728 1
-9 14 -14 40.5746 128.268 3
-9 14 -11 2119.96 669.354 3
-5 14 11 2576.74 735.845 3
-5 -9 -11 2274.75 634.504 3
-9 14 -11 2703.15 1005.74 1
14 -9 11 1753.67 944.592 2
-9 -5 11 2057.86 567.537 4
-5 -9 -11 1445.98 301.97 1
-5 14 8 1832.76 555.08 3
-9 14 -8 2446.35 769.183 3
-5 -9 -8 1329.83 612.504 2
-9 14 -8 2190.6 756.764 1
14 -9 8 1801.12 822.459 2
-5 14 8 1207.48 260.746 1
-5 14 8 1452.22 613.324 4
-9 -5 8 1702.23 477.736 4
-5 -9 -8 1364.36 309.738 1
-5 -9 -8 1284.15 451.443 3
-5 14 5 197.537 249.601 3
-9 14 -5 551.241 363.246 3
-5 14 5 382.113 197.646 1
-9 14 -5 506.57 337.486 1
14 -9 5 17.0561 236.618 2
-5 -9 -5 826.539 497.796 2
-5 14 5 252.988 53.6075 4
14 -9 5 706.07 458.018 1
14 -5 -5 274.572 219.096 1
-5 -9 -5 530.731 296.522 3
14 -9 2 1345.78 500.703 1
-5 14 2 1196.28 492.728 3
-5 14 2 1537.43 546.111 4
14 -5 -2 1589.59 578.674 1
-9 14 -2 1715.28 644.287 3
-9 14 -2 1623.41 602.002 2
-9 14 -2 1614.94 636.517 1
-5 14 2 1546.41 441.424 1
14 -9 2 992.263 441.505 2
-5 -9 -2 1655.15 453.63 2
14 -5 -2 970.222 446.27 2
-5 -9 -2 1665.83 545.492 3
-9 14 1 6302.22 1043.58 2
14 -9 -1 6706.75 1216.37 1
14 -9 -1 6506.87 1255.37 2
-9 -5 -1 5059.71 980.633 2
14 -5 1 5972.77 1150.18 1
-5 14 -1 6011.43 1099.47 3
-5 14 -1 4817.06 933.468 4
14 -5 1 4800.75 1103.04 2
-5 -9 1 5086.74 1037.4 3
-5 14 -1 4994.82 892.743 1
-9 14 1 5784.23 992.409 1
-5 14 -4 -94.5986 330.885 3
-5 14 -4 185.515 218.632 1
-5 -9 4 161.669 177.514 4
14 -5 4 132.121 121.833 1
-9 14 4 94.8807 71.4818 1
-9 14 4 385.07 226.107 2
-9 -5 -4 243.296 176.234 2
14 -5 4 -199.356 327.336 2
-9 14 4 328.834 290.403 4
14 -9 -4 -460.668 405.237 4
14 -9 -4 531.754 310.742 1
-9 -5 -4 112.202 119.331 1
-5 14 -7 1586.42 572.489 1
-9 -5 -7 1120.72 364.032 1
-9 -5 -7 1129.05 533.194 2
14 -9 -7 544.194 365.844 1
14 -5 7 1738.47 705.134 2
-9 14 7 1118.89 530.348 4
-9 14 7 639.272 296.262 2
14 -9 -7 981.365 275.512 4
14 -5 7 1249.63 599.127 1
-9 14 7 1199.75 378.811 1
-5 -9 7 951.816 422.442 4
-5 14 -7 1358.85 525.951 3
-5 14 -10 742.183 497.412 1
-9 14 10 216.405 256.456 4
-9 -5 -10 13.5399 392.002 2
14 -5 10 1085.05 553.082 2
14 -5 10 526.313 387.466 1
-9 -5 -10 347.46 230.749 1
-5 -9 10 331.474 241.656 3
-5 14 -10 950.795 451.037 3
-5 -9 10 656.075 412.451 4
14 -9 -10 -77.0848 60.0408 1
-5 14 -13 407.427 349.768 1
-9 -5 -13 232.067 248.879 1
14 -5 13 28.7847 45.2012 2
-9 14 13 -49.0985 147.907 4
-5 14 -13 -109.894 189 3
-5 -9 13 254.646 87.1447 3
-9 -5 -13 9.37048 165.802 3
-9 -5 -16 -91.2716 126.99 3
-5 14 -16 153.645 449.655 1
-9 -5 -16 135.119 272.739 1
14 -5 16 -1.1663 430.374 2
-5 -9 16 284.626 206.607 3
-4 -10 -15 520.463 193.964 1
14 -10 15 196.746 477.313 2
-10 14 -15 62.3525 490.502 1
-4 14 15 37.3446 186.052 3
-10 14 -15 789.573 486.64 3
-4 14 12 745.766 360.11 3
-10 14 -12 812.001 438.556 3
-4 -10 -12 1225.82 464.345 3
14 -10 12 562.941 903.082 2
-10 14 -12 1717.82 856.063 1
-4 -10 -12 369.213 141.578 1
-10 -4 12 427.723 102.26 4
-4 14 9 385.999 217.485 3
-10 14 -9 605.658 274.872 3
-4 14 9 -81.458 381.704 4
14 -10 9 409.58 407.912 2
-10 14 -9 655.059 208.955 1
-10 -4 9 184.542 33.7617 4
-4 -10 -9 369.624 292.158 3
-4 14 6 1034.07 454.483 3
-10 14 -6 1026.6 491.381 3
14 -4 -6 1496.53 526.624 1
-4 -10 -6 778.646 286.19 2
14 -10 6 2076.41 987.052 2
-4 14 6 833.355 536.916 4
-4 14 6 1132.83 299.288 1
-10 14 -6 1445.85 666.129 1
14 -10 6 1120.53 526.435 1
-4 -10 -6 1064 485.536 3
-10 14 -3 362.342 409.399 2
14 -4 -3 208.77 183.761 1
-4 14 3 661.996 358.399 3
14 -10 3 42.0952 180.161 2
-10 14 -3 717.389 442.739 1
-4 14 3 891.768 350.594 1
-4 14 3 333.243 269.686 4
14 -10 3 198.637 268.253 1
-4 -10 -3 426.177 319.236 2
-4 -10 -3 878.849 369.217 3
-4 14 0 1986.03 668.665 3
14 -10 0 2081.01 689.196 1
14 -10 0 1454.01 611.552 2
14 -4 0 1411.73 578.93 2
-4 14 0 2125.55 607.475 1
-10 14 0 2548.65 733.113 2
-4 14 0 1971.47 647.346 4
14 -4 0 1747.75 541.324 1
-10 14 0 1988.33 676.902 1
-4 -10 0 1882.14 632.521 3
-10 -4 0 2281.75 762.718 2
-4 14 -3 1263.26 425.706 1
14 -4 3 1380.89 624.687 1
-10 14 3 1321.04 429.324 1
14 -4 3 1310.78 557.99 2
-10 14 3 1381.66 443.556 2
14 -10 -3 1713.44 586.036 1
-10 14 3 899.617 356.253 4
-10 -4 -3 1858.17 674.704 2
-4 -10 3 1393.35 606.84 4
-10 -4 -3 970.696 378.698 1
14 -10 -3 1269.96 593.335 2
-4 -10 3 1495.04 619.99 3
-4 14 -3 1617.62 535.591 3
14 -10 -6 2176.23 744.245 1
-4 14 -6 2078.45 681.845 1
-10 14 6 1741.01 506.162 1
-10 -4 -6 2075.84 549.659 1
-10 -4 -6 2168.17 745.96 2
14 -4 6 2900.09 980.051 2
-4 -10 6 1961.97 648.721 4
-10 14 6 2430.25 723.268 4
14 -4 6 2350.47 731.613 1
14 -10 -6 2180.64 467.045 4
-4 -10 6 2014.78 646.363 3
-10 14 6 2407.33 590.763 2
-4 14 -6 2256.31 687.99 3
-4 14 -9 833.315 521.069 1
-10 -4 -9 557.921 543.577 2
14 -4 9 637.842 222.454 2
14 -10 -9 346.286 255.087 1
-4 -10 9 474.598 368.427 4
14 -4 9 404.904 222.688 1
-10 -4 -9 519.987 248.765 1
-10 14 9 420.162 300.714 4
-10 14 9 487.085 224.284 1
-10 14 9 619.61 330.101 2
-4 -10 9 654.417 467.258 3
-4 14 -9 607.276 385.241 3
-4 14 -12 -50.6688 328.942 1
-10 -4 -12 300.435 668.63 2
-10 -4 -12 416.248 149.517 1
14 -4 12 569.02 455.031 2
-10 14 12 507.583 405.853 4
-4 14 -12 626.627 356.279 3
-4 -10 12 616.983 366.391 3
-10 -4 -15 -344.329 394.883 1
-4 14 -15 27.2015 145.248 1
14 -4 15 -1058.92 695.024 2
-4 -10 15 415.893 303.247 3
-10 -4 -15 846.981 360.851 3
-3 -11 -16 -55.3151 136.97 1
14 -11 16 831.491 747.078 2
-11 14 -16 -167.829 541 1
-11 14 -16 56.4137 244.812 3
-3 14 16 -20.6191 258.796 3
-11 14 -13 592.69 405.734 3
-3 -11 -13 336.374 207.439 3
14 -11 13 648.219 762.856 2
-11 14 -13 369.807 266.845 1
-11 -3 13 170.246 140.398 4
-3 14 13 346.663 160.1 3
-3 -11 -10 230.117 194.914 3
-11 14 -10 57.9691 47.9455 3
-3 14 10 -48.0338 104.127 2
14 -11 10 314.15 485.897 2
-11 14 -10 115.204 220.448 1
-11 -3 10 297.798 178.456 4
-3 14 10 317.641 287.632 3
-3 -11 -7 2303.43 550.397 2
14 -11 7 4672.38 1524.31 2
-3 14 7 3475.13 972.876 4
-3 -11 -7 4803.03 967.648 3
-3 14 7 4907.16 1030.71 3
-11 14 -7 4837.1 1045.44 3
-11 14 -7 7025.04 1481.69 1
-3 14 4 482.563 286.805 3
-11 14 -4 25.6249 144.474 2
-11 14 -4 569.412 471.265 1
14 -11 4 219.904 165.785 2
-3 14 4 461.358 222.49 1
-3 -11 -4 350.396 197.994 2
-3 14 4 585.585 306.738 4
14 -3 -4 504.445 309.549 1
-3 -11 -4 574.536 311.697 3
14 -11 4 469.762 288.437 1
14 -3 -1 825.898 374.293 1
-3 14 1 909.993 318.89 1
-11 14 -1 1340.31 507.938 2
14 -11 1 276.154 266.817 2
-3 14 1 1043.02 428.207 4
-11 -3 1 1196.12 571.097 2
14 -3 -1 683.413 426.057 2
-11 14 -1 1187.19 595.763 1
-3 -11 -1 771.936 322.642 3
14 -11 1 1294.09 523.564 1
-3 14 1 709.085 364.896 3
-3 14 -2 263.026 173.421 1
-11 14 2 653.707 356.249 1
14 -11 -2 675.862 418.282 1
-11 14 2 346.839 199.726 2
14 -3 2 378.448 250.161 1
-3 -11 2 460.507 380.434 4
14 -3 2 484.215 272.002 2
14 -11 -2 320.748 316.581 2
-11 -3 -2 226.52 107.418 2
-3 14 -2 194.108 94.0172 4
-11 -3 -2 220.434 76.9818 1
-3 -11 2 23.9498 66.1835 3
-3 14 -2 341.697 257.478 3
14 -3 5 1114.57 516.585 1
-3 14 -5 760.209 429.986 1
-11 -3 -5 706 317.283 1
14 -11 -5 990.317 460.006 1
-11 -3 -5 411.868 423.562 2
-3 -11 5 599.108 374.294 4
14 -3 5 871.393 635.192 2
-11 14 5 694.234 378.257 2
-3 -11 5 482.021 370.003 3
14 -11 -5 885.978 333.818 4
-11 14 5 719.8 342.537 4
-3 14 -5 926.665 410.976 3
-11 14 5 622.935 318.976 1
14 -3 8 1643.49 644.87 1
14 -11 -8 915.316 479.245 1
-11 -3 -8 274.062 417.517 2
-11 14 8 1197.96 475.742 4
-3 14 -8 1045.95 549.416 1
-11 14 8 882.798 338.832 1
14 -3 8 1092.47 638.843 2
-11 -3 -8 687.47 309.046 1
-11 14 8 861.525 351.579 2
-3 14 -8 1032.03 485.732 3
-3 -11 8 1135.41 710.713 3
-3 -11 8 1335.64 638.966 4
14 -11 -11 1479.65 639.792 1
-3 14 -11 1046.95 637.016 1
-11 -3 -11 -137.832 445.461 2
-11 -3 -11 1117.63 407.875 1
-3 14 -11 793.801 461.984 3
14 -3 11 752.356 466.402 2
14 -3 11 850.354 438.139 1
-11 14 11 795.388 382.238 4
-3 -11 11 1591.63 676.315 3
-11 -3 -14 569.924 338.69 3
-11 -3 -14 568.984 423.025 1
14 -3 14 138.256 316.385 2
-11 14 14 183.845 158.222 4
-3 14 -14 592.196 465.767 1
-3 -11 14 -57.156 94.3666 3
-12 14 -14 196.425 315.814 3
-2 14 14 -310.391 326.046 2
14 -12 14 -233.028 371.681 2
-12 14 -14 -70.9527 139.638 1
-12 -2 14 -111.536 68.0147 4
-2 14 14 256.041 130.559 3
-2 -12 -11 608.394 349.362 3
-12 14 -11 607.766 435.292 3
-2 14 11 -24.5253 128.219 2
14 -12 11 49.991 202.295 2
-12 14 -11 710.973 519.647 1
-12 -2 11 515.93 227.053 4
-2 14 11 1013.12 529.952 3
-2 -12 -8 793.572 387.917 3
-2 14 8 662.402 292.269 4
14 -12 8 844.548 474.081 2
-12 14 -8 1966.66 805.461 1
-2 14 8 913.262 398.05 3
-12 14 -5 581.097 702.615 2
14 -2 -5 580.679 404.851 1
14 -12 5 -189.208 588.96 2
-2 -12 -5 690.726 245.924 2
14 -12 5 69.56 94.952 1
-2 14 5 574.765 253.621 1
-2 14 5 1221.06 647.211 4
-12 14 -5 823.742 514.568 1
-2 14 5 682.029 407.322 3
-2 -12 -5 140.172 36.7401 3
-12 14 -2 6663.45 1415.06 2
14 -2 -2 3478.08 874.896 1
14 -12 2 3727.38 936.513 2
-2 14 2 4605.72 1113.9 4
14 -12 2 5227.09 1214.72 1
-12 -2 2 4171.4 1085.57 2
-2 14 2 3809.75 658.951 1
-2 -12 -2 3897.04 915.709 3
-2 14 2 3970.87 902.689 3
-12 14 -2 5067.95 1141.57 1
-12 -2 -1 391.939 296.533 1
-2 14 -1 505.578 309.84 1
14 -12 -1 412.643 355.964 1
-12 14 1 865.756 392.63 1
-12 14 1 885.809 428.581 2
-2 -12 1 16.205 374.842 4
14 -12 -1 309.51 256.174 2
-12 -2 -1 793.602 584.434 2
14 -2 1 271.092 259.431 2
14 -2 1 674.046 401.281 1
-2 14 -1 739.365 426.012 4
-2 -12 1 947.319 430.462 3
-2 14 -1 758.605 412.412 3
14 -12 -4 2910.73 1111.92 2
-2 14 -4 1459.79 488.211 1
14 -2 4 2037.51 704.794 1
14 -2 4 1731.73 778.147 2
14 -12 -4 3163.87 845.201 1
-12 -2 -4 2103.42 753.118 2
-12 14 4 1707.92 546.929 2
-12 -2 -4 1962.35 596.109 1
-2 -12 4 1916.7 705.746 4
-12 14 4 1800.01 539.3 1
14 -12 -4 2280.46 586.037 4
-12 14 4 2017.22 620.574 4
-2 14 -4 1934.78 639.383 3
-2 -12 4 1894.76 638.572 3
-12 14 7 881.169 375.149 4
-2 14 -7 1205.01 426.076 3
-2 14 -7 1160.4 614.311 1
-12 -2 -7 1363.8 537.522 1
-12 -2 -7 1524.34 678.429 2
14 -2 7 1232.74 648.536 2
-2 -12 7 1256.49 614.323 4
-12 14 7 499.98 424.451 2
-12 14 7 758.594 330.952 1
14 -12 -7 704.349 331.857 4
14 -12 -7 700.973 354.728 1
14 -2 7 1021.69 404.299 1
-2 -12 7 1253.06 603.516 3
-2 14 -10 738.895 550.781 1
-2 14 -10 562.763 282.872 3
-12 -2 -10 -3.41045 114.407 2
14 -12 -10 1023.35 470.578 1
14 -2 10 681.057 331.731 2
-12 -2 -10 608.174 346.905 1
14 -2 10 829.301 507.927 1
-12 14 10 1099.96 490.477 4
-2 -12 10 1368.1 757.25 4
-2 -12 10 1191.83 560.397 3
-2 14 -13 563.442 372.464 1
-12 -2 -13 635.542 447.635 1
14 -2 13 403.018 392.148 2
-12 14 13 177.642 119.487 4
-2 -12 13 879.168 586.248 3
-13 14 -15 442.756 377.867 3
-1 14 15 -116.567 106.683 2
14 -13 15 64.2666 189.695 2
-13 14 -15 101.143 328.027 1
-13 -1 15 11.6164 43.3867 4
-1 14 15 465.624 357.708 3
-13 14 -12 174.905 284.734 3
-1 -13 -12 274.619 68.112 3
14 -13 12 -445.94 572.328 2
-1 14 12 122.297 51.8881 2
-13 14 -12 -187.757 544.221 1
-13 -1 12 434.308 193.584 4
-1 14 12 325.681 275.451 3
14 -13 9 5011.73 1636.84 2
-1 14 9 4628.69 1005.62 3
-1 -13 -9 5767.29 1100.99 3
-13 14 -9 6403.31 1551.06 1
-1 -13 -6 1126.2 493.78 3
-13 14 -6 160.534 641.022 2
-13 14 -6 1946.48 790.271 1
14 -1 -6 1011.09 259.804 4
14 -13 6 2292.79 994.87 2
-1 14 6 569.757 365.044 4
-1 14 6 1001.41 385.202 3
-1 14 3 772.297 279.265 1
-13 14 -3 1076.54 578.021 2
-1 -13 -3 384.525 342.045 3
14 -13 3 118.857 327.172 2
-13 -1 3 572.805 465.787 2
14 -13 3 619.84 428.141 1
-1 14 3 725.406 495.028 4
-13 14 -3 416.232 323.827 1
-1 -13 -3 478.663 187.196 2
-1 14 3 426.08 92.3037 3
14 -1 -3 854.682 411.745 1
-1 14 0 490.85 235.025 1
14 -1 0 383.379 214.052 1
-13 14 0 453.38 258.009 1
-13 -1 0 810.829 423.165 1
-1 14 0 489.246 197.522 4
-13 14 0 418.973 212.384 2
-1 14 0 814.703 331.517 3
-13 -1 0 634.176 433.518 2
14 -13 0 553.673 341.599 2
-1 -13 0 897.419 453.052 4
14 -1 0 430.691 281.544 2
14 -13 0 546.315 384.193 1
-1 -13 0 476.436 348.092 3
14 -13 -3 5902.23 1159.32 1
-13 14 3 7727.82 1222.21 2
-13 -1 -3 6240.9 1397.31 2
14 -1 3 5004.23 1235.3 2
14 -13 -3 7096.35 1761.22 2
14 -1 3 5671.86 1094.88 1
-13 14 3 6216.36 1115.15 1
14 -13 -3 6935.7 1227.52 4
-1 14 -3 5565.22 1086.93 4
-13 -1 -3 5356.73 1046.57 1
-1 -13 3 6119.83 1249.49 4
-1 14 -3 6285.36 1157.84 3
-1 -13 3 6839.85 1298.77 3
-1 14 -3 7616.63 1262.8 1
-1 14 -6 457.294 408.223 1
-13 -1 -6 346.592 265.256 1
14 -13 -6 355.421 274.915 4
14 -1 6 547.771 391.216 1
-13 14 6 579.998 387.729 1
-13 -1 -6 692.513 501.355 2
14 -1 6 533.067 479.757 2
14 -13 -6 394.681 338.797 1
-13 14 6 331.337 269.029 2
-1 -13 6 601.804 469.466 4
-13 14 6 153.574 199.343 4
-1 14 -6 333.892 344.99 3
-1 -13 6 150.642 154.574 3
14 -13 -9 1016.75 477.692 1
-1 14 -9 539.409 245.204 1
-13 -1 -9 562.956 452.585 2
-13 14 9 248.353 100.503 1
14 -1 9 222.143 459.83 2
-13 -1 -9 723.775 407.267 1
-13 14 9 -14.6794 134.71 4
14 -1 9 483.297 470.682 1
-13 14 9 512.391 317.492 2
-1 14 -12 656.584 282.657 1
-13 -1 -12 562.247 294.064 1
14 -13 -12 669.082 364.358 1
14 -1 12 525.544 201.867 1
14 -1 12 787.221 525.544 2
-13 14 12 209.81 126.47 4
-1 -13 12 746.769 401.158 3
-1 14 -15 1668.74 659.427 1
-13 -1 -15 1296.97 466.633 1
14 -1 15 1042.71 693.447 2
-13 14 15 1200.64 580.43 4
-1 -13 15 1092.91 574.045 3
-14 14 -13 792.581 437.498 3
14 -14 13 808.932 728.501 2
-14 14 -13 1078.55 627.856 1
-14 0 13 491.685 186.828 4
0 14 13 244.341 272.418 3
0 -14 -10 1083.31 367.773 3
-14 14 -10 927.736 581.763 1
14 -14 10 366.889 578.219 2
0 14 10 625.197 183.568 2
0 14 10 1568.27 517.014 3
0 -14 -7 335.783 306.406 3
0 14 7 427.819 347.181 3
14 -14 7 612.764 507.5 2
0 14 7 -22.2802 257.178 4
14 0 -7 485.247 185.986 4
-14 14 -7 1048.32 460.254 1
0 -14 -4 2181.11 648.522 3
0 14 4 2220.07 410.381 1
-14 14 -4 3501.23 1200.37 2
14 -14 4 1636.6 724.711 2
0 -14 -4 879.542 271.798 2
14 0 -4 2433.67 748.044 1
14 -14 4 3243.92 970.757 1
0 14 4 3120.74 969.294 4
-14 14 -4 2704.18 846.052 1
-14 0 4 3119.36 1071.81 2
0 14 4 2511.94 695.832 3
-14 14 -1 98.9952 19.4708 1
-14 14 -1 236.36 141.424 2
0 -14 -1 -332.291 267.672 3
14 -14 1 300.233 248.337 2
-14 0 1 331.19 365.173 1
14 0 -1 83.8726 249.724 1
14 -14 1 -119.237 234.239 1
0 14 1 854.407 488.672 4
-14 0 1 153.8 256.158 2
0 14 1 -18.6025 154.865 3
0 -14 -1 522.889 271.471 4
0 14 1 325.191 259.944 1
14 -14 -2 2378.08 722.417 1
0 -14 2 1830.92 679.127 4
14 0 2 1594.13 715.034 2
-14 14 2 2305.75 685.257 2
-14 14 2 2213.8 729.573 1
-14 0 -2 1782.4 717.433 2
14 -14 -2 1735.66 778.458 2
0 14 -2 2280.1 740.056 4
14 -14 -2 2765.73 929.73 4
14 0 2 1975.18 664.001 1
-14 0 -2 1599.48 581.163 1
0 14 -2 1805.75 692.802 3
0 -14 2 2006.44 711.17 3
-14 0 -5 82.1034 75.6237 1
-14 14 5 -137.553 339.332 1
14 0 5 563.434 354.655 1
14 -14 -5 307.199 224.337 1
-14 0 -5 478.598 183.688 2
14 -14 -5 293.9 264.45 4
0 -14 5 498.303 421.031 4
-14 14 5 -21.2479 263.936 2
14 0 5 305.764 343.877 2
0 14 -5 249.895 185.675 3
14 -14 -5 650.277 546.327 2
0 -14 5 279.261 262.626 3
-14 0 -8 6057.78 1659.05 2
14 0 8 6920.15 1471.33 2
-14 14 8 6039.99 1218.29 2
-14 0 -8 7434.9 1313.96 1
14 -14 -8 6919.32 1243.53 1
0 -14 8 8520.62 1639.21 4
-14 14 8 6338.58 1102.95 4
0 -14 8 7637.02 1524.55 3
-14 14 8 5511.21 1069.33 1
14 0 8 6916.97 1324.6 1
0 14 -11 100.178 245.377 1
14 -14 -11 569.88 419.17 1
-14 0 -11 362.741 231.4 1
14 0 11 599.17 515.043 2
14 0 11 351.882 139.264 1
-14 14 11 737.696 423.754 4
0 -14 11 416.874 238.005 3
0 14 -14 2511.64 994.841 1
-14 0 -14 2204.73 744.115 1
14 0 14 1373.19 667.644 2
14 -14 -14 2546.58 941.535 1
-14 14 14 1624.27 617.543 4
0 -14 14 1846.45 727.071 3
-15 14 -14 369.332 479.823 3
14 -15 14 38.5312 359.932 2
1 14 14 2.25005 192.146 2
-15 14 -14 -15.9947 417.408 1
14 -15 11 838.013 709.104 2
1 14 11 546.628 306.274 3
1 14 11 557.649 237.753 2
-15 14 -11 936.203 669.894 1
1 -15 -8 2019.04 704.995 3
14 -15 8 873.117 691.567 2
-15 14 -8 1164.48 631.42 1
1 14 8 357.186 154.618 2
1 14 8 1288.76 521.943 3
1 -15 -5 3897.7 944.533 3
1 14 5 3989.23 1091.71 4
1 14 5 4036.98 1002.54 3
14 -15 5 1941.5 885.652 2
14 1 -5 4582.05 715.436 4
1 14 5 3479.95 501.732 1
-15 14 -5 5699.1 1419.75 1
14 1 -2 282.329 291.279 1
1 -15 -2 1195.48 514.198 3
-15 14 -2 2069.11 892.1 1
1 14 2 367.044 353.207 3
-15 14 -2 1600.47 854.508 2
14 -15 2 160.264 154.636 2
1 14 2 1562.46 750.358 4
1 -15 -2 1122.12 707.279 4
14 -15 2 1082.68 547.845 1
-15 1 2 500.726 603.642 2
-15 1 2 697.197 478.544 1
1 -15 1 506.634 261.429 3
-15 1 -1 877.745 434.273 1
14 1 1 580.239 326.349 1
-15 14 1 1159.21 520.299 2
-15 14 1 1026.94 475.42 1
14 -15 -1 626.259 224.834 2
1 -15 1 887.284 339.147 4
1 14 -1 1010.74 439.605 4
14 -15 -1 1386.57 911.211 4
14 -15 -1 1624.89 674.676 1
14 1 1 921.193 505.468 2
1 14 -1 950.616 510.799 3
-15 1 -1 876.312 509.15 2
1 -15 4 1927.76 676.535 3
-15 14 4 1618.17 610.044 1
14 -15 -4 1481.36 488.142 1
-15 1 -4 1831.13 766.227 1
14 -15 -4 1942.15 975.211 2
-15 1 -4 1335.95 660.763 2
14 1 4 980.656 380.104 1
-15 14 4 1642.77 638.614 2
1 14 -4 1505.57 574.265 3
14 1 4 790.023 555.861 2
1 -15 4 1161.81 577.266 4
14 -15 -4 1817.32 643.524 4
1 14 -4 1345.5 561.059 4
-15 14 7 1113.98 474.563 1
14 1 7 1204.6 461.175 1
14 -15 -7 1076.27 438.961 1
14 -15 -7 1346.16 522.732 4
1 -15 7 1687.21 746.296 3
14 1 7 1169.11 619.383 2
-15 1 -7 1976.36 792.881 1
-15 14 7 572.044 442.591 2
-15 14 7 955.273 345.122 4
1 -15 10 822.865 505.14 3
-15 14 10 564.301 372.961 1
-15 1 -10 477.229 395.077 1
14 1 10 590.486 428.983 2
-15 14 10 902.564 402.64 4
14 -15 -10 829.333 433.784 1
14 1 10 762.577 449.162 1
-15 14 10 483.882 375.642 2
1 -15 13 256.245 319.199 3
14 -15 -13 1097.76 548.964 1
-15 1 -13 579.233 274.4 1
14 1 13 924.049 434.652 1
14 1 13 484.391 373.507 2
-15 14 13 248.728 164.626 4
14 -16 12 4.03742 374.473 2
2 14 12 -36.0894 192.391 2
-16 14 -12 256.047 316.62 1
2 14 9 449.994 230.986 2
2 -16 -9 957.012 406.488 3
14 -16 9 156.551 396.362 2
2 14 9 1103.06 509.532 3
-16 14 -9 692.745 581.436 1
2 -16 -6 1055.02 385.334 3
14 -16 6 1839.7 879.99 2
2 14 6 959.409 259.99 1
2 14 6 635.128 249.923 4
14 2 -6 1714.46 463.71 4
2 14 6 1433.45 554.755 3
-16 14 -6 1821.4 759.258 1
-16 14 -3 2274.73 814.461 1
2 -16 -3 197.09 102.618 2
-16 2 3 1330.88 557.198 1
-16 14 -3 2428.11 993.684 2
14 -16 3 659.681 418.077 2
14 -16 3 1588.69 652.021 1
14 2 -3 1549.69 611.878 1
2 14 3 2473.77 907.328 4
2 -16 -3 621.203 330.687 3
2 14 3 1619.37 544.592 3
2 -16 0 2556.37 823.563 3
-16 2 0 2604.42 800.73 1
-16 14 0 2896.59 885.553 1
-16 14 0 2956.76 885.84 2
14 -16 0 1853.67 579.634 2
14 2 0 2305.93 771.944 1
2 14 0 2871.35 865.192 4
2 -16 0 2502.03 833.42 4
14 -16 0 2916.27 867.938 1
14 -16 0 6277.19 2071.41 4
2 14 0 2856.05 821.566 3
-16 2 0 2934.85 1013.26 2
2 -16 3 828.472 477.55 3
-16 2 -3 227.173 151.741 1
14 -16 -3 252.806 285.364 4
-16 2 -3 44.7807 287.666 2
-16 14 3 338.914 311.719 2
2 14 -3 354.753 156.737 4
14 -16 -3 230.412 252.351 2
2 -16 3 399.391 372.309 4
14 2 3 541.133 418.513 2
14 2 3 63.2418 108.455 1
-16 14 3 367.112 240.115 1
14 -16 -3 612.034 246.138 1
2 -16 6 2842.11 928.004 3
14 -16 -6 1910.49 633.9 1
14 2 6 2292.49 714.916 1
14 2 6 2171.96 813.58 2
14 -16 -6 2087.64 682.339 4
-16 2 -6 2658.95 855.047 1
-16 14 6 1894.29 826.007 2
-16 14 6 1682.42 608.714 1
2 -16 9 1485.28 645.419 3
-16 14 9 701.47 410.963 1
-16 2 -9 1194.49 582.762 1
14 -16 -9 1037.32 456.761 1
14 2 9 817.702 465.512 2
-16 14 9 862.515 402.416 4
-16 14 9 734.893 425.008 2
14 2 9 1557.56 658.266 1
2 -16 12 679.007 339.314 3
-16 2 -12 699.01 482.304 1
14 2 12 682.483 486.029 2
14 2 12 1374.04 575.405 1
-16 14 12 779.987 386.631 4
14 -16 -12 1072.87 472.34 1
14 -17 13 836.85 902.488 2
3 14 13 992.538 338.435 2
-17 14 -13 1790.37 980.832 1
14 -17 10 676.197 746.804 2
3 14 10 237.23 79.9539 2
-17 14 -10 86.8091 210.613 1
3 -17 -7 4094.98 1039.73 3
14 -17 7 2960.49 1264.45 2
3 14 7 2939.68 447.427 1
14 3 -7 5123.58 900.642 4
-17 14 -7 4384.02 1305.36 1
3 -17 -4 603.809 268.393 3
-17 14 -4 644.735 185.011 1
14 -17 4 1252.86 540.776 2
-17 3 4 994.323 491.109 1
14 3 -4 361.148 238.581 4
3 14 4 1308.52 637.813 4
14 3 -1 -292.583 288.694 1
3 -17 -1 -118.092 199.864 3
-17 3 1 235.738 173.105 1
-17 14 -1 434.08 428.081 1
-17 14 -1 -83.5283 247.625 2
14 -17 1 -343.003 409.967 2
14 -17 1 107.467 183.777 1
3 14 1 258.066 374.734 4
14 -17 -2 1580.85 617.369 1
14 3 2 1034.05 435.251 1
-17 3 -2 1419.24 689.098 1
-17 14 2 1422.38 605.93 2
14 -17 -2 769.857 441.028 4
14 -17 -2 -5.63237 365.319 2
3 -17 2 1183.57 523.482 3
3 14 -2 454.233 348.924 4
-17 14 2 1443.61 585.89 1
14 3 2 779.921 483.164 2
14 -17 -5 2236.65 707.687 1
3 -17 5 1550.34 618.372 3
3 14 -5 1899.87 674.871 4
-17 14 5 1798.06 686.503 1
14 3 5 1703.31 640.619 1
-17 14 5 1253.53 566.845 2
14 3 5 1226.7 722.785 2
14 -17 -5 1552.43 610.111 4
14 -17 -5 2574.41 1120.04 2
-17 3 -5 1675.47 731.305 1
3 -17 8 -49.9826 271.732 3
14 3 8 495.245 420.444 2
14 -17 -8 539.577 354.31 1
-17 3 -8 326.377 361.511 1
-17 14 8 106.977 177.394 1
14 3 8 201.779 126.275 1
-17 14 8 647.607 451.03 2
14 -17 -8 701.742 457.76 4
3 -17 11 1017.3 755.41 3
-17 14 11 450.618 192.914 4
-17 3 -11 609.422 432.349 1
14 3 11 1110.24 582.531 1
14 3 11 1433.58 771.81 2
14 -17 -11 795.955 452.967 1
-17 3 -14 283.608 351.659 1
14 3 14 830.445 566.873 1
14 3 14 405.043 54.8354 2
-17 14 14 210.989 221.838 4
14 -17 -14 350.546 389.92 1
14 -18 14 -43.108 254.405 2
4 14 14 21.5606 159.13 2
-18 14 -14 108.181 393.689 1
-18 14 -11 -22.4941 195.911 1
4 14 11 146.745 94.7324 2
4 14 8 232.475 145.9 1
14 -18 8 -60.1607 168.964 2
-18 14 -8 -100.631 212.799 1
4 14 8 -43.5218 92.384 2
4 14 5 441.856 318.044 4
4 -18 -5 288.478 201.961 3
-18 14 -5 790.052 478.512 1
-18 4 5 574.405 432.879 1
14 -18 5 257.938 339.639 2
14 4 -5 588.842 330.532 4
4 14 5 632.796 233.59 1
4 -18 -2 580.063 355.817 3
4 14 2 1083.55 612.672 4
4 -18 -2 269.308 264.143 2
-18 14 -2 454.375 341.303 1
14 -18 2 775.539 473.024 2
-18 4 2 957.26 480.908 1
4 -18 1 2086.05 743.909 3
4 14 -1 2118.51 746.302 4
-18 14 1 3017.01 982.066 2
14 4 1 2123.11 737.865 1
14 -18 -1 1423.62 582.245 2
-18 4 -1 2228.34 850.103 1
14 -18 -1 2327.65 803.216 1
-18 14 1 2344.66 895.541 1
14 -18 -1 2661.16 1047.91 4
4 -18 4 2405.28 802.533 3
-18 4 -4 2298.23 856.091 1
-18 14 4 1710.37 741.099 1
14 -18 -4 2087.21 1086.97 2
-18 14 4 2260.92 1006.57 2
14 -18 -4 2014.63 714.54 4
4 14 -4 1383.98 577.677 4
14 4 4 1601.04 720.119 2
14 4 4 1608.59 606.633 1
14 -18 -4 2382.05 754.22 1
4 -18 7 790.655 531.708 3
14 -18 -7 392.707 246.604 1
-18 14 7 486.932 442.448 1
14 4 7 697.288 349.691 1
14 4 7 274.221 314.256 2
14 -18 -7 718.345 366.128 4
-18 14 7 -40.0928 182.886 2
-18 4 -7 417.982 349.402 1
4 -18 10 1736.19 857.521 3
14 -18 -10 1096.61 473.272 1
-18 14 10 1382.46 619.653 1
-18 4 -10 1627.67 708.923 1
14 4 10 1093.45 607.686 2
14 4 10 2090.67 796.188 1
4 -18 13 -330.176 410.307 3
-18 4 -13 203.886 428.675 1
14 4 13 499.107 391.643 1
14 4 13 -289.555 462.615 2
-18 14 13 64.3077 42.5848 4
14 -18 -13 17.0776 52.0106 1
14 -19 12 -265.848 517.155 2
5 14 12 650.646 332.117 2
-19 14 -12 465.211 503.997 1
14 -19 9 212.788 490.639 2
5 14 9 720.676 339.505 2
5 14 9 279.464 150.462 1
-19 14 -9 241.697 315.327 1
-19 14 -6 582.304 355.78 1
14 -19 6 604.181 531.201 2
5 14 6 443.886 216.52 1
-19 5 6 236.085 140.409 1
14 5 -6 366.065 289.712 4
5 -19 -3 118.555 51.866 3
14 5 -3 253.423 188.138 4
5 14 3 1644.53 712.111 4
5 -19 -3 409.523 268.531 2
-19 14 -3 1293.93 663.964 1
14 -19 3 823.524 527.955 2
-19 5 3 407.175 343.267 1
14 5 0 98.1522 278.688 1
5 -19 0 -19.5311 342.224 3
5 -19 0 -31.3489 256.692 2
14 -19 0 -8.83229 155.225 2
14 -19 0 -8.76484 307.051 1
-19 14 0 151.806 254.172 1
-19 5 0 -313.108 439.577 1
5 14 0 47.0171 119.994 4
5 14 -3 1509.71 643.249 4
5 -19 3 4079.75 1124.02 3
-19 14 3 1856 769.479 1
14 5 3 2037.91 668.087 1
-19 5 -3 2646.87 953.435 1
14 -19 -3 2928.16 847.484 1
14 -19 -3 619.917 538.582 2
14 -19 -3 3177.8 964.831 4
14 5 3 1934.93 837.214 2
5 -19 6 140.081 355.627 3
-19 14 6 -262.511 205.257 1
-19 5 -6 244.462 405.859 1
14 5 6 46.6965 82.2462 2
14 -19 -6 343.924 361.349 4
14 -19 -6 175.352 122.593 1
14 5 6 314.366 242.206 1
5 14 -6 97.8638 210.019 4
5 -19 9 818.786 456.758 3
14 -19 -9 -162.212 171.602 1
-19 14 9 211.929 247.386 1
-19 5 -9 524.596 488.007 1
14 5 9 514.721 412.286 2
14 5 9 512.333 490.602 1
5 -19 12 395.353 410.262 3
-19 5 -12 416.334 399.024 1
14 -19 -12 378.129 149.148 1
14 5 12 701.023 523.618 2
14 5 12 415.974 359.396 1
14 -20 13 -228.648 379.39 2
-20 14 -13 190.16 232.082 1
6 14 13 340.619 239.792 2
-20 14 -10 1010.29 665.811 1
14 -20 10 709.871 697.248 2
6 14 10 66.9694 79.002 1
6 14 10 15.7654 153.709 2
-20 14 -7 798.584 561.119 1
14 -20 7 266.472 401.373 2
6 14 7 1106.08 337.75 1
14 6 -7 808.057 462.025 4
-20 6 7 941.233 541.334 1
-20 6 4 33.0122 207.539 1
6 14 4 475.293 351.261 4
-20 14 -4 446.112 333.745 1
14 -20 4 522.372 482.513 2
6 14 4 218.765 16.8554 1
6 -20 -4 -134.325 96.8734 2
14 6 -4 -230.883 301.284 4
6 -20 -4 -44.162 142.273 1
6 -20 -1 1147.27 608.763 3
6 -20 -1 833.816 408.107 2
14 -20 1 60.8298 97.3992 2
-20 14 -1 1197.74 644.179 1
-20 6 1 825.077 479.72 1
6 14 1 1335.86 511.872 4
6 -20 2 5342.51 1238.35 2
-20 14 2 6982.57 1544.86 1
14 6 2 6017.08 1236.06 1
-20 6 -2 6716.1 1563.85 1
14 -20 -2 4951.07 1110.8 2
6 -20 2 7664.54 1569.7 3
6 14 -2 5986.76 1368.67 4
14 -20 -2 7026.96 1383.35 1
6 -20 5 137.234 222.752 3
14 6 5 276.566 338.59 2
-20 6 -5 -151.118 133.489 1
14 -20 -5 74.9558 132.163 1
14 6 5 169.064 49.5417 1
6 14 -5 -10.9505 160.415 4
-20 14 5 -128.496 112.234 1
14 6 8 -42.013 339.983 2
6 -20 8 -388.677 299.869 3
14 6 8 -315.775 276.777 1
-20 6 -8 -31.1433 159.037 1
-20 14 8 40.5624 172.679 1
14 -20 -8 364.416 378.979 1
6 -20 11 150.512 118.333 3
14 -20 -11 272.649 300.124 1
14 6 11 800.875 433.684 1
-20 6 -11 -46.3164 455.336 1
14 6 11 359.894 91.2064 2
7 14 11 210.907 259.703 2
7 -21 -11 484.334 161.889 1
14 -21 11 479.469 690.272 2
7 14 11 589.039 231.003 1
-21 14 -11 1100.45 661.099 1
7 -21 -8 370.02 212.322 1
-21 14 -8 647.522 583.148 1
14 -21 8 387.405 539.857 2
7 14 8 544.968 292.729 1
14 7 -8 458.598 427.491 4
7 14 5 2770.7 651.973 1
14 -21 5 3905.73 1223.47 2
-21 14 -5 4277.11 1291.3 1
-21 7 5 2475.33 859.577 1
14 7 -5 2232.4 677.097 4
7 -21 -5 2968.02 659.883 1
7 14 2 371.956 451.377 4
7 -21 -2 492.129 390.257 1
-21 7 2 110.827 243.207 1
7 -21 -2 485.883 272.201 2
14 -21 2 1148.97 652.373 2
-21 14 -2 1126.42 681.875 1
14 7 -2 706.278 455.444 4
7 -21 1 1087.47 476.034 1
7 14 -1 1395.51 642.756 4
7 -21 1 257.774 494.361 2
-21 7 -1 1727.38 750.01 1
14 -21 -1 1605.93 696.643 1
14 -21 -1 746.688 462.699 2
7 -21 1 1324.9 579.483 3
14 7 1 1089.13 597.372 1
-21 14 1 1925.96 974.743 1
14 7 4 909.879 484.088 1
7 -21 4 1469.23 731.36 3
7 -21 4 841.155 608.015 2
14 7 4 786.732 584.563 2
-21 14 4 1492.45 709.255 1
14 -21 -4 1016.8 516.423 1
14 -21 -4 1404.06 925.131 2
-21 7 -4 681.131 592.02 1
7 14 -4 1054.3 554.79 4
7 -21 7 836.247 550.421 3
7 -21 7 784.991 635.019 2
-21 14 7 429.996 387.441 1
14 7 7 189.707 266.469 1
14 -21 -7 342.93 327.547 1
-21 7 -7 180.095 314.88 1
7 14 -7 1034.37 528.276 4
14 7 7 -279.903 345.46 2
7 -21 10 46.6071 155.553 3
-21 7 -10 -124.807 240.415 1
14 7 10 67.2256 321.795 2
-21 14 10 -146.232 218.21 1
14 7 10 301.103 337.384 1
14 -21 -10 176.73 240.257 1
-22 14 -9 100.417 210.975 1
8 14 9 532.372 325.023 1
14 -22 9 -260.172 360.339 2
8 -22 -9 360.594 198.847 1
8 14 9 364.749 354.724 2
14 -22 6 689.398 530.256 2
8 14 6 881.23 369.66 1
-22 14 -6 858.247 560.426 1
8 -22 -6 759.948 336.816 1
-22 8 6 687.126 542.08 1
14 8 -6 680.533 459.476 4
8 -22 -3 1419.29 481.913 1
-22 8 3 1454.61 634.502 1
14 -22 3 1802.17 873.165 2
8 -22 -3 1319.99 405.568 2
14 8 -3 1648.91 627.128 4
8 14 3 1941.26 587.609 1
-22 14 -3 2683.98 903.397 1
8 14 3 1819.28 711.64 4
8 -22 0 2224.06 661.725 1
-22 14 0 3324.78 1100.03 1
8 -22 0 2039.19 692.965 2
14 -22 0 1911.03 613.009 2
-22 8 0 2615.09 934.591 1
8 14 0 1870.64 726.56 4
-22 8 -3 466.983 526.613 1
8 -22 3 386.246 412.656 3
8 -22 3 10.2908 142.09 2
-22 14 3 326.819 320.046 1
14 8 3 175.866 107.088 1
14 -22 -3 -38.823 191.559 1
8 14 -3 530.346 415.453 4
14 -22 -3 -84.824 288.04 2
-22 14 6 528.573 381.425 1
8 -22 6 972.516 536.546 3
8 -22 6 103.652 338.81 2
14 -22 -6 -47.6246 107.337 1
-22 8 -6 383.351 316.3 1
14 8 6 629.702 362.183 1
8 14 -6 614.178 428.022 4
14 8 6 98.6979 259.812 2
14 -22 -6 883.019 606.373 2
8 -22 9 514.001 244.212 3
14 8 9 -68.0613 416.945 1
8 -22 9 609.96 630.084 2
14 -22 -9 467.637 335.821 1
-22 8 -9 617.432 438.746 1
-22 14 9 357.13 347.79 1
14 8 9 205.252 309.209 2
9 -23 -10 180.115 225.505 1
-23 14 -10 -11.6716 167.393 1
14 -23 10 86.6464 564.364 2
9 14 10 -72.5532 167.579 2
9 14 10 277.998 312.226 1
9 -23 -7 121.822 171.522 1
14 -23 7 1.70005 278.973 2
-23 9 7 97.6527 213.544 1
-23 14 -7 129.024 269.79 1
14 9 -7 -200.618 299.296 4
9 14 7 261.524 196.661 1
9 -23 -4 450.134 218.51 1
9 14 4 609.228 384.576 1
14 -23 4 349.611 478.589 2
-23 9 4 634.434 434.188 1
9 -23 -4 540.16 358.691 2
-23 14 -4 2262.53 934.029 1
14 9 -4 978.569 421.807 4
9 14 4 836.72 406.549 4
9 -23 -1 249.03 219.731 1
9 -23 -1 559.7 33.8238 2
14 -23 1 56.199 403.923 2
-23 9 1 468.766 313.995 1
9 14 1 128.959 155.475 4
14 9 -1 211.943 252.164 4
-23 9 -2 30.7281 236.071 1
-23 14 2 195.313 386.403 1
9 -23 2 218.271 183.685 2
14 -23 -2 367.987 84.0445 1
14 -23 -2 306.308 231.771 2
9 14 -2 26.5812 148.562 4
14 9 5 103.193 170.064 1
9 -23 5 210.694 364.156 2
14 -23 -5 -201.457 218.334 1
9 14 -5 349.275 291.053 4
14 -23 -5 930.315 1181.45 2
-23 9 -5 -9.12209 330.955 1
-23 14 5 351.962 416.24 1
14 9 5 69.0225 174.011 2
-23 14 8 -144.063 229.513 1
9 -23 8 -604.604 682.237 2
14 9 8 606.085 482.56 1
9 14 -8 -31.3897 86.341 4
-23 9 -8 811.287 568.896 1
14 9 8 285.815 339.704 2
14 -23 -8 346.594 378.407 1
9 -23 11 -738.352 564.918 2
-23 9 -11 -1.24608 364.702 1
14 9 11 -215.907 293.568 2
14 -23 -11 583.038 390.777 1
14 9 11 -24.753 135.856 1
-24 10 8 219.699 358.646 1
10 -24 -8 -36.7254 152.847 1
14 -24 8 -178.81 175.738 2
-24 14 -8 81.4002 147.328 1
10 14 8 78.1591 166.866 1
14 10 -8 318.838 223.219 4
10 -24 -5 16.6504 245.762 1
14 -24 5 -37.0013 172.905 2
-24 14 -5 -242.827 401.669 1
10 14 5 -11.7259 159.358 1
14 10 -5 -99.2378 248.035 4
-24 10 5 210.219 121.494 1
10 -24 -5 317.049 551.276 2
10 -24 -2 555.169 347.447 1
14 -24 2 236.484 158.586 2
10 -24 -2 294.288 87.8079 2
10 14 2 169.815 208.954 1
10 14 2 -74.936 281.582 4
14 10 -2 -35.5529 145.207 4
-24 14 -2 58.9548 166.691 1
-24 10 2 -270.826 420.084 1
-24 14 1 -207.005 418.752 1
-24 10 -1 246.92 207.835 1
10 -24 1 389.431 189.778 2
14 -24 -1 45.0568 81.8079 2
10 14 -1 43.2165 145.093 4
14 -24 -4 1187.16 764.866 2
10 -24 4 547.353 677.508 2
14 10 4 1130.71 505.185 1
14 -24 -4 1329.02 552.785 1
-24 14 4 743.987 460.895 1
10 14 -4 976.074 570.647 4
-24 10 -4 1434.12 796.041 1
14 10 7 347.516 492.828 2
10 -24 7 169.041 336.45 2
14 -24 -7 372.181 350.956 1
-24 14 7 -232.464 191.24 1
14 10 7 375.313 360.242 1
-24 10 -7 552.19 473.661 1
10 14 -7 -182.329 354.377 4
14 10 10 511.438 379.9 1
10 -24 10 334.997 448.952 2
-24 10 -10 -521.16 414.65 1
14 -24 -10 -128.864 302.269 1
14 10 10 -263.729 334.951 2
-24 14 10 -231.89 391 1
-25 11 9 684.365 359.65 1
11 -25 -9 319.636 268.431 1
14 -25 9 -567.96 738.549 2
11 14 9 371.881 308 1
-25 14 -9 812.189 583.708 1
14 11 -9 824.704 383.956 4
11 14 9 319.734 386.676 2
-25 11 6 -298.642 578.921 1
11 14 6 365.419 340.809 1
11 -25 -6 92.0471 95.893 1
14 -25 6 169.086 418.626 2
14 11 -6 -177.698 314.116 4
-25 14 -6 700.011 657.246 1
11 -25 -3 200.011 19.3013 1
14 11 -3 -45.5186 322.433 4
14 -25 3 331.166 616.709 2
11 14 3 243.468 331.767 1
11 -25 -3 290.539 250.066 2
11 14 3 360.701 320.188 4
-25 14 -3 183.977 309.057 1
-25 11 3 468.864 443.533 1
11 -25 0 931.984 457.381 2
-25 11 0 797.037 655.871 1
14 -25 0 242.922 220.369 2
14 11 0 733.282 449.82 4
11 14 0 664.418 426.631 4
-25 11 -3 207.946 378.708 1
11 -25 3 172.452 200.037 2
11 14 -3 79.5503 262.192 4
-25 14 3 333.037 431.371 1
14 -25 -3 315.768 205.298 2
11 -25 6 249.075 392.523 2
-25 14 6 168.388 317.91 1
14 -25 -6 225.877 292.884 1
14 -25 -6 810.08 712.085 2
11 14 -6 573.47 467.523 4
-25 11 -6 342.195 650.024 1
14 11 6 164.505 147.668 1
11 -25 9 121.366 460.37 2
14 11 9 593.298 488.413 1
14 -25 -9 -122.017 65.7199 1
-25 11 -9 17.5118 321.718 1
14 11 9 56.5798 207.344 2
-25 14 9 -12.5077 381.065 1
12 -26 -7 153.987 215.134 1
14 12 -7 22.5859 286.902 4
14 -26 7 103.61 374.206 2
-26 12 7 -232.634 313.383 1
-26 14 -7 84.3629 228.294 1
12 14 7 255.166 248.714 1
14 12 -4 421.318 369.455 4
-26 12 4 146.024 114.015 1
12 -26 -4 495.386 448.932 1
14 -26 4 469.864 563.604 2
12 -26 -4 461.8 303.878 2
-26 14 -4 602.482 520.335 1
12 14 4 74.3409 88.3074 1
-26 14 -1 343.956 487.643 1
14 -26 1 199.909 346.466 2
12 -26 -1 -146.126 220.989 2
14 12 -1 108.379 296.254 4
-26 12 1 266.527 212.006 1
12 14 1 106.315 67.7648 4
-26 12 -2 786.26 607.746 1
12 -26 2 661.242 722.776 2
-26 14 2 682.972 411.558 1
14 -26 -2 591.891 371.687 2
12 14 -2 479.018 364.424 4
-26 14 5 291.877 534.063 1
14 12 5 237.162 239.554 1
12 -26 5 -320.318 319.154 2
14 -26 -5 676.375 434.833 1
-26 12 -5 493.771 610.955 1
14 -26 -5 -148.113 829.869 2
12 14 -5 158.218 124.506 4
12 -26 8 -369.619 418.959 2
-26 14 8 -553.229 338.958 1
14 -26 -8 62.0801 224.319 1
14 12 8 -29.6179 116.494 1
-26 12 -8 -112.363 203.138 1
12 14 -8 261.647 269.116 4
14 12 8 -557.518 338.84 2
13 -27 -5 12.9839 224.437 1
14 -27 5 656.094 615.265 2
-27 13 5 -126.799 151.837 1
13 14 5 205.863 103.921 1
-27 14 -5 -103.565 272.248 1
14 13 -5 -10.3196 281.746 4
13 -27 -5 48.8556 669.209 2
-27 14 -2 793.37 624.785 1
14 13 -2 463.523 354.66 4
14 -27 2 506.991 667.831 2
13 -27 -2 325.92 213.272 2
-27 13 2 1258.94 814.892 1
13 14 2 -156.417 302.4 4
-27 13 -1 1842.29 893.418 1
14 13 1 897.272 679.755 4
13 -27 1 504.776 431.748 2
-27 14 1 1127.49 657.927 1
14 -27 -1 816.489 435.378 2
13 14 -1 492.998 435.378 4
13 -27 4 89.1168 291.358 2
14 -27 -4 -7.13385 401.666 2
13 14 -4 447.879 309.144 4
-27 13 -4 97.0885 418.984 1
-27 14 4 113.496 245.244 1
-28 14 0 2746.51 1095.63 1
14 -28 0 1469.12 557.154 2
14 14 0 2168.5 987.361 4
14 -28 3 224.795 229.978 2
14 -28 -3 -23.162 100.988 2
14 14 3 315.123 560.668 4
-28 14 3 193.354 371.221 1
14 14 -3 803.546 441.576 4
-28 14 -3 840.543 781.058 1
-7 -8 -14 448.418 248.189 3
-7 15 14 362.024 331.322 3
-8 15 -14 103.567 243.638 1
-7 -8 -14 393.566 198.892 1
15 -8 14 1519.74 1060.12 2
-8 -7 14 429.471 458.695 4
-8 15 -14 419.543 249.876 3
-8 15 -11 5977.19 1431.04 1
-7 -8 -11 3891.39 599.049 1
15 -8 11 5292.44 1647.88 2
-8 -7 11 4949.37 986.433 4
-7 15 11 3110.77 904.78 4
-7 -8 -11 5310.34 996.228 3
-8 15 -11 6138.78 1218.9 3
-7 15 11 5913.43 1187.98 3
-8 15 -8 1055.44 558.085 3
-7 15 8 931.722 278.912 1
-7 15 8 679.88 381.724 3
-8 15 -8 695.85 428.474 1
-7 -8 -8 883.917 496.05 2
15 -8 8 546.467 605.057 2
-7 15 8 1131.36 562.632 4
-7 15 8 216.172 151.222 2
-8 -7 8 433.251 188.6 4
-7 -8 -8 425.862 206.928 1
-7 -8 -8 416.591 276.806 3
-7 15 5 3169.96 480.784 2
-7 15 5 4877.87 783.794 1
15 -7 -5 3634.44 887.083 1
15 -8 5 4031.14 1071.67 2
-7 -8 -5 4979.98 1078.76 2
-7 15 5 5049.52 1151.46 4
-8 -7 5 4201.84 938.932 4
-7 -8 -5 4417.13 865.065 3
-8 15 -5 6232.48 1225.83 3
-7 15 5 5206.03 1122.47 3
-8 15 -5 5032.39 1143.71 1
15 -8 5 5298.64 1186.42 1
-7 15 2 3732.16 914.379 3
15 -8 2 4076.4 984.49 1
-7 15 2 477.693 233.02 2
-8 15 -2 4426.66 1017.94 1
-7 -8 -2 2904.15 764.574 2
15 -8 2 2840.95 826.49 2
-7 15 2 3499 883.809 4
-7 15 2 3788.73 784.197 1
15 -7 -2 3612.3 868.892 1
15 -7 -2 2793.5 920.974 2
-8 15 -2 4049.88 976.079 3
-8 15 1 8500.81 1173.07 2
15 -7 1 11417.8 1692.76 1
15 -7 1 9702.05 1710.81 2
15 -8 -1 9332.93 1646.03 2
-8 -7 -1 9165.09 1308.33 2
-8 15 1 10119.8 1504.6 3
15 -8 -1 11875 1681.82 1
-8 15 1 8858.85 1397.98 4
-8 15 1 11552.2 1492.86 1
-7 15 -1 10619.2 1559.11 3
-7 15 -1 11098.2 1506.68 1
15 -7 4 3343.51 952.404 1
15 -8 -4 2884.09 771.766 1
-7 15 -4 3212.67 917.175 3
-8 15 4 2708 805.245 3
-8 15 4 2848.87 670.479 1
-7 15 -4 3453.98 983.554 1
-8 15 4 2660.25 552.238 2
15 -7 4 3461.55 999.794 2
-8 -7 -4 2406.03 729.045 2
-7 -8 4 1994.9 697.203 4
-8 15 4 3056.1 905.248 4
-8 15 7 3046.13 884.975 3
-7 15 -7 3821.66 1030.19 1
-8 15 7 2617.04 549.846 1
-8 -7 -7 3094.14 935.439 2
15 -7 7 4491.64 1280.08 2
-8 15 7 2975.23 887.474 4
15 -8 -7 1699.89 672.334 1
-8 15 7 1630.99 391.909 2
15 -8 -7 1555.52 319.9 4
15 -7 7 3143.49 926.223 1
-7 -8 7 1979.11 639.285 4
-7 15 -7 4017.68 1015.53 3
-8 -7 -7 2494.45 524.945 1
-8 15 10 1484.07 582.399 3
-8 -7 -10 820.135 652.395 2
-7 15 -10 1985.26 818.151 1
-7 15 -10 1994.34 663.561 3
15 -7 10 1577.63 903.499 2
-8 15 10 715.293 449.567 4
-7 -8 10 798.41 384.813 4
-8 -7 -10 949.324 315.507 1
-8 -7 -10 1255.19 486.434 3
-8 15 13 -277.895 412.395 3
-7 15 -13 198.396 201.13 1
15 -7 13 184.828 486.49 2
-8 -7 -13 385.072 230.882 1
-8 15 13 66.2857 89.9599 4
-7 -8 13 140.563 136.5 4
-7 15 -13 268.232 132.982 3
-8 -7 -13 397.238 225.321 3
-6 15 15 17.8268 185.093 3
-6 -9 -15 176.931 251.53 3
-6 -9 -15 401.36 191.894 1
-9 15 -15 89.5599 123.889 1
15 -9 15 39.4881 268.911 2
-9 15 -15 -8.46401 62.6157 3
-6 15 12 752.111 496.505 3
-6 -9 -12 552.748 347.474 3
-9 15 -12 789.451 466.383 1
15 -9 12 -47.9873 986.824 2
-9 -6 12 565.718 328.681 4
-6 -9 -12 396.743 153.517 1
-9 15 -12 475.138 278.891 3
-9 15 -9 393.101 244.784 3
-9 -6 9 -10.0017 151.759 4
-6 -9 -9 183.782 284.498 2
-9 15 -9 360.642 352.696 1
15 -9 9 412.266 385.507 2
-6 15 9 -80.7927 332.816 4
-6 15 9 20.4056 233.527 3
-6 -9 -9 143.398 71.0688 1
-6 -9 -9 374.393 262.113 3
15 -6 -6 1199.35 521.665 1
-6 15 6 536.88 336.833 3
-9 15 -6 980.799 431.063 3
-9 15 -6 1539.59 710.278 1
-6 -9 -6 810.278 459.204 2
15 -9 6 1690.87 906.448 2
-6 15 6 1223.66 680.6 4
-6 15 6 868.019 305.866 1
-9 -6 6 439.554 266.116 4
15 -9 6 1435.73 674.618 1
-6 -9 -6 1111.14 494.709 3
-6 15 3 853.549 380.093 3
-6 -9 -3 591.406 331.2 3
-9 15 -3 1112.3 484.166 3
15 -6 -3 982.241 394.103 1
-9 15 -3 774.434 501.884 2
-6 15 3 -149.494 234.664 2
-9 15 -3 894.138 366.182 1
15 -9 3 1365.63 522.526 2
-6 -9 -3 987.846 410.906 2
-6 15 3 1028.5 567.059 4
-6 15 3 884.669 342.814 1
15 -9 3 1224.86 541.627 1
-9 15 0 9036.92 1522.45 2
15 -9 0 11160.7 1708.69 1
15 -9 0 10471.9 1725.06 2
15 -6 0 8818.33 1594 2
-9 -6 0 10054.6 1428.5 2
15 -6 0 10716.5 1559.94 1
-6 15 0 8447.83 1337.44 4
-6 15 0 8595.18 1421.23 3
-9 15 0 9252.89 1447.67 3
-6 15 0 9326.75 1319.9 1
-9 15 0 10762.1 1514.61 1
-9 -6 -3 1505.03 414.679 1
-6 15 -3 2326.91 729.946 3
-9 15 3 2380.21 668.893 1
15 -6 3 2129.7 742.286 1
-6 15 -3 1843.56 587.99 1
-9 15 3 2313.67 566.706 2
15 -9 -3 1787.59 651.352 1
15 -6 3 2361.41 835.358 2
-6 -9 3 1745.07 690.131 4
-9 -6 -3 1552.6 578.612 2
-9 15 3 867.209 394.909 4
15 -9 -3 2388.17 946.149 2
-9 -6 -6 1645.22 454.713 1
15 -9 -6 1968.59 403.943 4
15 -9 -6 2321.74 723.899 1
-6 15 -6 2364.71 752.692 1
-9 15 6 1733.82 673.861 4
-9 -6 -6 2093.54 694.066 2
15 -6 6 2502.88 927.182 2
-9 15 6 1754.97 432.777 2
-6 -9 6 1685.89 621.081 4
15 -6 6 2567.35 788.919 1
-9 15 6 2239.76 559.04 1
-6 15 -6 2281.85 682.662 3
-9 -6 -9 596.352 293.072 1
-6 15 -9 337.639 60.6234 1
-9 15 9 404.773 204.393 1
-9 -6 -9 -88.7518 180.881 2
15 -6 9 458.005 537.056 2
-9 15 9 488.609 358.029 4
-6 -9 9 1042.85 475.76 4
-9 15 9 574.807 260.299 2
-6 15 -9 448.733 239.21 3
-6 -9 12 774.785 474.338 4
-9 -6 -12 471.311 591.5 2
-6 15 -12 546.591 288.87 1
15 -6 12 312.235 228.394 2
-9 -6 -12 190.684 107.557 3
-9 -6 -12 445.382 255.203 1
-9 15 12 204.075 298.883 4
-6 -9 12 468.26 438.051 3
-6 15 -12 128.682 169.67 3
-9 15 15 329.503 327.202 3
-9 -6 -15 1100.28 440.963 1
-6 15 -15 1075.94 813.695 1
15 -6 15 700.43 536.275 2
-6 -9 15 529.56 397.182 3
-9 -6 -15 1066.89 435.816 3
-5 15 13 64.8142 100.404 3
15 -10 13 380.477 533.919 2
-10 15 -13 353.744 199.583 1
-5 -10 -13 252.947 182.97 3
-10 -5 13 77.4666 153.668 4
-5 -10 -13 134.111 84.9711 1
-10 15 -13 155.852 83.9687 3
-5 15 10 299.099 227.523 3
-10 15 -10 44.0983 326.894 3
-10 -5 10 284.606 134.579 4
-5 -10 -10 274.032 134.073 1
15 -10 10 229.938 231.644 2
-10 15 -10 273.168 394.376 1
-5 15 10 203.354 220.548 4
-5 -10 -10 141.074 44.5333 3
-5 15 7 1297.49 534.619 3
-5 15 7 1613.17 731.406 4
-10 15 -7 2021.67 749.509 3
-5 15 7 1459.78 324.184 1
-5 -10 -7 1069.81 354.583 2
15 -10 7 1028.04 731.177 2
-10 15 -7 2030.61 771.451 1
-10 -5 7 1505.05 483.586 4
-5 -10 -7 1392.51 546.161 3
-5 15 4 3935.11 944.203 3
-10 15 -4 4867.37 1363.94 2
-5 15 4 3379.85 927.411 4
15 -5 -4 2935.49 792.084 1
15 -10 4 3663.84 1050.67 2
-5 -10 -4 3734.11 804.097 2
-10 15 -4 4514.76 1033.1 3
-5 -10 -4 3955.77 855.993 3
-10 15 -4 5750.4 1232.06 1
-5 15 4 4374.86 713.544 1
15 -10 4 5055.35 1199.07 1
-5 15 1 1904.03 694.994 3
15 -10 1 2087.91 777.467 1
-10 15 -1 1767.03 657.003 1
-10 15 -1 2084.36 775.531 2
15 -10 1 1901.68 698.447 2
-5 15 1 2002.02 626.895 1
-5 15 1 2073 716.925 4
15 -5 -1 2822.83 849.042 2
15 -5 -1 2617.08 760.034 1
-5 -10 -1 2337.25 799.451 3
-10 -5 1 2199.49 716.392 2
-5 15 -2 984.466 407.414 3
-10 15 2 1206.31 465.298 1
-5 15 -2 1182.49 450.189 1
-10 15 2 1398.76 487.875 2
15 -5 2 801.441 426.796 1
15 -10 -2 1134.27 516.93 1
15 -10 -2 941.967 504.24 2
-5 -10 2 1031.28 528.877 4
15 -5 2 2187.92 813.662 2
-10 -5 -2 915.677 471.408 2
-10 15 2 1160.84 503.375 4
-5 15 -2 886.591 416.645 4
-5 -10 2 752.268 350.466 3
-10 -5 -2 907.219 354.675 1
15 -5 5 -201.345 174.962 1
-10 -5 -5 36.7102 136.104 1
-5 15 -5 542.48 464.732 1
-10 -5 -5 238.281 330.068 2
-10 15 5 355.651 262.558 2
15 -5 5 -352.065 443.487 2
-5 -10 5 87.9541 216.169 4
-10 15 5 629.465 392.944 1
15 -10 -5 201.381 125.48 4
-10 15 5 -2.8091 234.679 4
-5 -10 5 -30.8556 395.75 3
15 -10 -5 496.958 283.674 1
-5 15 -5 342.957 293.183 3
-10 15 8 546.354 249.689 1
-10 -5 -8 842.087 305.66 1
-5 15 -8 781.987 344.132 1
-10 15 8 247.963 259.673 2
-10 -5 -8 297.947 107.315 2
15 -10 -8 494.487 340.806 1
15 -5 8 821.657 538.163 2
-10 15 8 1131.75 534.248 4
15 -5 8 1327.54 632.352 1
-5 -10 8 422.744 201.356 4
-5 15 -8 921.24 448.673 3
-5 -10 8 879.839 312.976 3
-5 15 -11 656.15 474.836 1
-10 -5 -11 304.844 402.316 2
15 -5 11 1586.24 717.711 2
-10 -5 -11 931.247 391.245 1
-10 15 11 545.501 409.614 4
-5 -10 11 1010.7 568.605 4
-5 -10 11 534.119 417.072 3
-5 15 -11 1094.93 465.269 3
-5 15 -14 634.565 500.02 1
-10 -5 -14 335.856 360.436 1
-5 -10 14 1008.38 534.593 3
15 -5 14 295.142 198.189 2
-10 15 14 48.7867 73.2512 4
-10 -5 -14 451.539 288.868 3
-4 -11 -14 556.473 314.335 3
15 -11 14 -179.409 546.113 2
-11 15 -14 481.679 434.549 3
-11 15 -14 -12.9446 79.9821 1
-4 -11 -14 152.166 90.0099 1
-11 -4 14 439.285 243.848 4
-4 15 14 812.518 496.212 3
-4 -11 -11 445.294 331.669 3
-11 15 -11 248.719 278.753 3
15 -11 11 602.51 506.988 2
-11 15 -11 294.143 311.057 1
-11 -4 11 98.0698 48.5281 4
-4 15 11 356.89 284.296 3
-4 15 8 1193.99 546.664 3
-11 15 -8 1607.97 657.735 3
-4 -11 -8 1091.34 424.784 2
15 -11 8 1490.9 908.022 2
-11 15 -8 1219.43 598.781 1
-11 -4 8 1072.31 343.788 4
-4 15 8 596.374 337.204 4
-4 -11 -8 1206.2 517.525 3
-4 15 5 1501.16 600.811 3
-4 15 5 1620.25 364.812 1
-11 15 -5 1231.48 796.915 2
15 -11 5 1245.21 558.933 2
-4 -11 -5 1775.56 499.054 2
-11 15 -5 1296.54 614.235 1
15 -11 5 1507.01 708.145 1
15 -4 -5 1839.75 643.375 1
-4 15 5 1927.15 795.473 4
-4 -11 -5 1754.83 607.939 3
-4 15 2 421.495 315.498 3
15 -4 -2 452.558 231.922 1
-11 15 -2 448.393 428.119 2
-4 15 2 866.164 352.322 1
15 -11 2 766.18 327.577 2
-11 15 -2 918.488 558.484 1
-4 15 2 830.462 388.908 4
-4 -11 -2 113.388 170.355 2
15 -4 -2 470.721 351.798 2
-4 -11 -2 1148.76 497.279 3
15 -11 2 685.792 536.342 1
-11 15 1 422.184 237.545 1
-11 -4 -1 166.197 327.065 2
-4 15 -1 674.841 395.45 1
15 -11 -1 317.43 206.438 1
-11 15 1 322.689 65.5112 2
15 -4 1 524.714 301.331 1
-4 15 -1 159.667 155.261 4
15 -4 1 324.415 358.795 2
15 -11 -1 386.83 449.08 2
-4 -11 1 315.472 102 4
-4 -11 1 417.514 436.693 3
-11 -4 -1 409.715 313.201 1
-4 15 -1 301.402 206.375 3
-4 15 -4 534.332 392.79 1
15 -4 4 752.767 345.511 1
-11 -4 -4 563.925 290.827 1
-11 15 4 951.099 406.037 2
-11 15 4 564.781 299.988 1
-11 -4 -4 554.038 393.967 2
15 -4 4 459.368 311.037 2
-4 -11 4 564.524 262.641 4
-11 15 4 1130.79 487.438 4
15 -11 -4 731.989 267.054 4
15 -11 -4 982.706 690.866 2
-4 -11 4 372.987 198.818 3
15 -11 -4 783.193 450.593 1
-4 15 -4 483.884 304.767 3
15 -11 -7 725.469 442.877 1
-4 15 -7 695.176 478.425 1
-11 -4 -7 236.501 188.116 1
-11 15 7 548.64 318.542 2
-11 -4 -7 680.469 429.064 2
-11 15 7 736.917 322.246 1
15 -4 7 1302.02 600.245 2
15 -11 -7 831.965 331.803 4
-11 15 7 638.771 257.73 4
-4 -11 7 899.056 460.11 4
15 -4 7 645.192 360.864 1
-4 -11 7 623.454 406.543 3
-4 15 -7 1037.57 439.545 3
-4 15 -10 406.643 421.068 1
-4 -11 10 158.736 324.83 4
-11 -4 -10 -282.358 560.161 2
15 -4 10 424.912 374.784 2
15 -11 -10 263.69 70.1272 1
15 -4 10 172.991 201.472 1
-11 15 10 120.23 165.399 4
-11 15 10 210.155 108.968 2
-4 -11 10 782.008 527.478 3
-4 15 -10 324.606 246.142 3
-11 -4 -10 385.786 227.976 1
-4 15 -13 65.6083 295.562 1
-11 -4 -13 368.575 321.335 1
15 -4 13 283.215 369.309 2
-11 15 13 225.789 311.947 4
-4 -11 13 765.989 751.557 4
-4 -11 13 208.543 184.198 3
-3 15 15 -117.441 54.823 2
-3 -12 -15 86.2217 63.1122 1
-12 -3 15 70.5324 193.734 4
-3 15 15 69.5939 134.738 3
-12 15 -15 112.824 150.743 3
-12 15 -12 2122.75 744.88 3
-3 -12 -12 2325.35 722.458 3
-3 15 12 176.676 107.536 2
15 -12 12 1940.18 1147.66 2
-12 15 -12 1798.45 857.232 1
-12 -3 12 1592.41 394.825 4
-3 15 12 1573.54 576.758 3
-3 -12 -9 822.692 431.419 3
-12 15 -9 612.323 437.739 3
15 -12 9 1423.36 764.276 2
-12 15 -9 760.511 394.354 1
-12 -3 9 533.43 171.16 4
-3 15 9 -69.7776 307.419 4
-3 15 9 1002.52 401.625 3
-12 15 -6 5254.67 1756.8 2
-3 -12 -6 7291.08 906.798 2
15 -12 6 8526.12 1823.48 2
-3 15 6 9652.48 1509.43 3
-3 15 6 7214.18 1423.58 4
-3 -12 -6 10059.9 1470.91 3
-12 15 -6 11104.7 1865.26 1
-3 15 6 8093.81 753.323 1
-12 15 -3 1174.06 716.537 2
15 -12 3 2380.42 887.661 1
-3 15 3 1480.8 472.673 1
15 -12 3 1869.23 721.367 2
15 -3 -3 1693.88 601.118 1
-3 15 3 2890.86 890.646 4
-12 15 -3 1970.27 808.444 1
-3 -12 -3 841.329 304.757 2
-3 -12 -3 1224.71 546.575 3
-3 15 3 1168.43 583.396 3
-12 15 0 2556.77 742.268 1
-12 -3 0 2836.99 696.17 1
15 -12 0 1578.72 676.919 2
-3 15 0 2184.37 576.612 1
-12 15 0 4368.12 1050.16 2
15 -3 0 3006.72 929.95 2
-3 -12 0 2255.29 822.686 4
15 -12 0 3327.95 928.682 1
-12 -3 0 1951.94 667.835 2
-3 15 0 2839.56 782.544 4
-3 -12 0 2280.77 710.804 3
15 -3 0 2725.88 752.182 1
-3 15 0 2678.01 674.355 3
-3 15 -3 268.007 138.482 1
15 -12 -3 366.714 342.622 2
-12 -3 -3 44.6853 112.37 1
15 -12 -3 595.352 483.389 1
15 -3 3 42.5124 207.036 1
-12 15 3 432.339 257.93 1
-12 15 3 254.554 225.101 2
-12 -3 -3 42.1187 249.07 2
-3 -12 3 197.378 259.899 4
15 -3 3 173.299 277.301 2
-3 15 -3 218.439 194.265 4
15 -12 -3 965.275 713.229 4
-3 -12 3 -26.3881 155.61 3
-3 15 -3 115.291 92.5673 3
15 -3 6 890.384 548.029 1
-3 15 -6 815.449 558.211 1
-12 15 6 368.361 309.938 1
-3 -12 6 661.742 490.799 4
-12 15 6 650.306 289.659 2
-12 -3 -6 579.853 335.569 1
-12 -3 -6 124.342 256.452 2
15 -3 6 1245.49 698.371 2
15 -12 -6 1062.69 387.999 4
-12 15 6 571.193 303.763 4
15 -12 -6 683.087 376.073 1
-3 -12 6 534.22 431.897 3
-3 15 -6 750.58 422.498 3
-12 15 9 212.7 111.408 1
-3 15 -9 585.063 417.02 1
15 -12 -9 661.409 423.515 1
-12 15 9 652.274 418.609 2
-12 -3 -9 301.886 355.453 2
15 -3 9 161.615 282.191 2
-12 15 9 612.205 416 4
-12 -3 -9 285.459 277.656 1
-3 -12 9 86.9891 113.914 4
15 -3 9 -49.0956 144.817 1
-3 15 -9 -33.1442 138.621 3
-3 -12 9 267.051 307.075 3
-12 15 12 406.471 228.518 4
-3 15 -12 20.3423 216.612 1
-3 -12 12 285.572 200.562 3
-12 -3 -12 319.823 294.819 1
15 -3 12 562.545 401.672 2
-3 -12 12 783.242 547.495 4
-3 15 -15 -38.4194 319.533 1
-12 -3 -15 335.602 352.574 1
-12 15 15 -91.491 203.478 4
15 -3 15 -314.349 287.14 2
-12 -3 -15 518.001 287.871 3
-3 -12 15 692.373 516.714 3
-13 15 -13 744.481 485.184 3
-2 -13 -13 861.757 493.113 3
-2 15 13 -105.465 108.555 2
15 -13 13 1065.93 985.68 2
-13 15 -13 438.11 140.544 1
-13 -2 13 598.763 255.847 4
-2 15 13 572.966 342.41 3
-2 -13 -10 315.14 234.725 3
-13 15 -10 26.7005 280.366 3
15 -13 10 265.135 380.179 2
-13 15 -10 801.198 626.911 1
-2 15 10 361.259 366.296 3
-2 -13 -7 1393.13 522.25 3
-2 -13 -7 385.661 184.336 2
15 -13 7 170.056 263.434 2
-2 15 7 928.177 494.631 4
-2 15 7 1274.5 473.077 3
-13 15 -4 1299.95 810.845 2
-2 15 4 1745.47 453.196 1
-2 15 4 2295.62 837.222 4
15 -13 4 933.049 474.744 2
-2 -13 -4 933.304 328.302 2
15 -13 4 1634.69 741.987 1
-13 15 -4 2298.24 873.623 1
-2 15 4 1649.95 642.238 3
15 -2 -4 956.061 448.283 1
-2 -13 -4 1128.24 546.766 3
-13 15 -1 4122.25 1074.75 1
15 -2 -1 3486.57 856.274 1
-13 15 -1 4502.03 1133.31 2
15 -13 1 3778.86 1014.38 2
-2 15 1 3295.52 963.401 4
15 -13 1 3627.47 1015.59 1
-13 -2 1 3745.77 1005.54 2
-13 -2 1 3389.87 798.246 1
15 -2 -1 3787.03 1010.75 2
-2 15 1 3181.59 661.311 1
-2 15 1 3250.81 885.828 3
-2 -13 -1 2433.15 704.738 3
-2 15 -2 404.014 318.911 1
15 -13 -2 495.122 387.443 1
15 -13 -2 866.587 613.535 2
-13 15 2 461.13 215.695 1
-13 15 2 351.252 314.623 2
-13 -2 -2 314.864 261.678 1
-13 -2 -2 175.754 121.541 2
15 -2 2 107.991 205.093 1
-2 15 -2 148.711 164.602 4
-2 -13 2 202.091 150.119 4
-2 15 -2 -19.1211 266.788 3
-2 -13 2 467.936 299.135 3
15 -2 2 35.6665 272.701 2
-2 15 -5 1046.03 530.863 1
15 -2 5 898.703 501.951 1
-2 -13 5 33.4252 121.168 4
15 -2 5 701.888 457.324 2
-13 15 5 969.305 449.673 4
-13 -2 -5 388.977 163.267 1
-13 -2 -5 795.409 521.1 2
15 -13 -5 911.133 478.923 1
-13 15 5 703.188 355.299 2
15 -13 -5 690.922 343.072 4
-2 15 -5 874.509 433.988 3
-2 -13 5 769.566 422.578 3
-13 15 5 760.853 387.545 1
-2 15 -8 2352.88 836.49 1
-13 15 8 1972.15 556.63 1
-13 -2 -8 1988.34 890.508 2
15 -2 8 2755.7 921.326 2
-13 15 8 1643.91 589.783 4
-13 15 8 990.808 507.063 2
-2 -13 8 3409.25 1019.15 4
15 -2 8 3516.87 972.544 1
-13 -2 -8 2393.77 700.683 1
-2 15 -8 3511.33 892.788 3
15 -13 -8 1986.81 706.353 1
-2 -13 8 2849.08 901.192 3
-13 15 11 1220.08 582.229 4
-2 15 -11 1166.95 609.948 1
15 -13 -11 1221.12 549.758 1
15 -2 11 1322.65 795.002 2
-13 -2 -11 1117.16 570.003 1
15 -2 11 1522.43 712.015 1
-2 -13 11 939.993 407.762 3
-2 15 -14 84.8569 129.12 1
-13 -2 -14 235.332 242.433 1
15 -2 14 170.253 183.325 2
-13 15 14 -181.628 337.487 4
-2 -13 14 -63.7041 210.063 3
-14 15 -14 384.476 360.827 3
15 -14 14 213.624 524.712 2
-1 15 14 102.088 213.667 2
-14 15 -14 102.813 403.196 1
-14 -1 14 89.7699 89.9742 4
-1 15 14 -142.675 174.787 3
-1 -14 -11 450.012 332.484 3
-14 15 -11 415.088 343.318 3
15 -14 11 1006.81 742.173 2
-1 15 11 506.426 186.633 2
-14 15 -11 223.557 126.431 1
-1 15 11 492.372 419.243 3
-14 15 -8 1459.7 777.668 1
-1 -14 -8 1500.77 572.324 3
15 -14 8 1150.92 747.29 2
-1 15 8 769.813 516.534 4
-1 15 8 1593.14 628.892 3
-1 -14 -5 3885.48 951.114 3
-14 15 -5 3195.27 1339.2 2
-14 15 -5 3491.33 1099.88 1
15 -14 5 3447.34 1225.68 2
-1 15 5 4770.92 1217.44 4
-1 -14 -5 1528.96 407.78 2
-1 15 5 4936.95 1096.42 3
-1 15 5 5343.9 720.866 1
-14 15 -2 1289.76 630.83 1
-1 15 2 1090.36 445.176 1
-14 15 -2 639.209 503.204 2
-1 15 2 2922.9 1003.04 4
15 -14 2 1144.56 543.055 2
15 -1 -2 1669.16 628.282 1
-14 -1 2 1934 667.189 1
-14 -1 2 1309.79 751.383 2
15 -14 2 1428.45 805.385 1
-1 15 2 1657.93 637.636 3
-1 -14 -2 1070.59 523.713 3
-1 15 -1 877.371 352.908 1
-1 -14 1 857.082 561.55 4
-14 15 1 1331.57 595.212 1
-14 15 1 1750.96 691.615 2
-14 -1 -1 1054.76 610.257 2
-14 -1 -1 925.287 438.85 1
-1 15 -1 282.688 80.5841 4
15 -14 -1 222.038 224.943 2
15 -1 1 1160.22 649.893 2
-1 15 -1 862.364 456.913 3
15 -1 1 338.018 131.714 1
-1 -14 1 1299.06 547.101 3
15 -14 -1 1150.45 578.891 1
-1 15 -4 1834.42 670.011 1
15 -14 -4 1765.96 701.553 1
15 -1 4 1389.39 592.599 1
-14 -1 -4 1821.54 756.625 2
-14 -1 -4 829.692 247.787 1
-14 15 4 911.241 382.723 2
15 -1 4 1571.56 822.132 2
-1 -14 4 1396.13 700.594 3
-1 -14 4 1384.17 504.935 4
15 -14 -4 2090.64 678.093 4
-1 15 -4 1048.63 471.862 4
-14 15 4 1243.37 435.807 1
15 -14 -4 966.446 777.954 2
-1 15 -4 1535.19 584.497 3
15 -1 7 1326.99 573.634 1
-1 15 -7 918.222 552.964 1
-14 15 7 841.591 332.792 4
-14 -1 -7 1931.59 782.735 2
15 -1 7 1574.99 782.992 2
-14 15 7 1008.09 574.962 2
-14 15 7 671.071 375.983 1
-1 -14 7 1381.21 667.126 4
15 -14 -7 968.897 374.407 4
15 -14 -7 1116.33 470.899 1
-14 -1 -7 1142.62 542.156 1
-1 -14 7 1422.79 698.573 3
-1 15 -10 993.443 674.635 1
15 -1 10 981.115 477.577 1
-14 15 10 523.847 387.776 1
15 -1 10 1137.96 697.15 2
-14 -1 -10 855.63 443.237 1
-14 15 10 756.118 460.237 4
-14 15 10 252.589 276.972 2
-1 -14 10 821.582 516.719 3
15 -14 -10 948.8 476.857 1
-1 15 -13 721.729 199.713 1
-14 -1 -13 855.915 504.188 1
15 -1 13 295.864 350.283 2
-14 15 13 405.969 352.161 4
-1 -14 13 847.32 528.241 3
15 -15 12 290.859 559.816 2
0 15 12 502.17 220.711 2
-15 15 -12 29.0208 296.228 1
0 15 12 287.185 239.608 3
0 -15 -9 2620.04 822.913 3
15 -15 9 4190.19 1609.5 2
-15 15 -9 2943.37 1112.8 1
0 15 9 1413.43 568.031 3
0 -15 -6 497.935 414.922 3
0 15 6 777.369 251.308 1
15 -15 6 517.481 241.135 2
0 15 6 462.094 468.005 4
15 0 -6 706.335 251.614 4
-15 15 -6 438.336 406.201 1
0 15 6 483.688 349.773 3
-15 15 -3 4649.46 1127.19 1
0 -15 -3 3502.59 866.575 3
-15 15 -3 5583.9 1394.79 2
15 -15 3 2939.71 959.147 2
0 15 3 4147.82 1119.37 4
0 15 3 3139.95 544.412 1
0 15 3 3543.69 879.201 3
0 -15 0 822.273 369.723 3
15 0 0 712.203 379.316 1
-15 15 0 781.049 437.082 1
-15 15 0 1317.66 620.532 2
15 -15 0 488.638 278.627 2
0 -15 0 782.108 332.268 4
-15 0 0 580.266 391.282 2
15 -15 0 1304.82 617.203 1
0 15 0 1241.09 568.593 4
-15 0 0 993.575 440.437 1
15 0 0 1109.79 639.008 2
0 15 0 521.241 351.222 3
15 -15 -3 4657.38 1105.21 1
-15 15 3 2679.95 811.274 1
15 0 3 2417.77 747.13 1
-15 15 3 3672.73 952.717 2
-15 0 -3 2695.78 874.971 2
-15 0 -3 2161.14 690.289 1
0 -15 3 2441.27 887.01 4
15 0 3 988 661.881 2
15 -15 -3 4018.2 1071.11 4
0 15 -3 1700.7 578.298 4
0 15 -3 1821.27 612.204 3
0 -15 3 2536.92 771.463 3
-15 0 -6 2734.26 751.501 1
15 0 6 4056.4 974.254 1
15 -15 -6 3877.27 955.625 1
-15 15 6 2307.28 696.374 1
-15 0 -6 5059.64 1428.37 2
15 -15 -6 3518.38 899.381 4
-15 15 6 3965.85 976.396 2
15 0 6 3547.29 1072.15 2
0 -15 6 3363.07 984.319 4
0 -15 6 4017.58 1110.26 3
-15 15 9 1020.72 388.57 4
15 0 9 901.688 578.463 2
15 -15 -9 888.323 381.435 1
15 0 9 1168.24 483.363 1
-15 15 9 1050.48 494.918 2
-15 15 9 874.083 400.084 1
0 -15 9 1356.4 519.808 3
-15 0 -9 941.288 423.739 1
15 -15 -12 -14.7259 244.335 1
-15 0 -12 971.928 532.625 1
15 0 12 561.07 404.316 2
15 0 12 1084.97 651.299 1
0 15 -12 822.966 554.936 1
-15 15 12 175.626 166.705 4
0 -15 12 758.148 485.671 3
15 -16 13 64.3276 250.639 2
1 15 13 181.995 70.0886 2
-16 15 -13 227.114 295.605 1
1 15 13 649.688 490.993 3
1 -16 -10 1560.69 680.12 3
15 -16 10 1698.16 1047.92 2
1 15 10 613.935 233.718 2
-16 15 -10 1245.65 650.885 1
1 15 10 1296.59 582.165 3
15 -16 7 4975.43 1497.16 2
15 1 -7 3978.06 673.397 4
1 15 7 2455.05 817.875 4
-16 15 -7 4776.13 1337.58 1
1 -16 -7 4938.41 1097.88 3
1 15 7 3522.1 930.054 3
1 15 4 2246.36 436.161 1
-16 15 -4 3677.68 1088.62 1
1 -16 -4 2193.6 707.288 3
15 -16 4 2054.85 787.633 2
1 15 4 2623.12 867.382 4
1 15 4 2735.17 828.729 3
1 -16 -1 381.866 297.191 3
-16 1 1 629.565 422.365 1
-16 15 -1 412.92 507.519 1
-16 15 -1 629.824 582.006 2
15 -16 1 677.553 419.096 2
15 -16 1 758.928 574.896 1
1 15 1 1879.02 762.888 4
1 15 1 872.133 432.71 3
15 1 -1 1121.21 560 1
1 -16 2 330.607 285.877 3
15 -16 -2 -198.432 511.776 2
-16 15 2 431.479 261.928 2
1 15 -2 774.034 513.544 4
-16 1 -2 526.01 463.253 2
-16 15 2 187.199 206.904 1
15 -16 -2 633.908 561.41 4
15 1 2 509.327 393.814 2
15 -16 -2 530.484 389.952 1
15 1 2 482.712 459.09 1
-16 1 -2 95.3248 57.0812 1
1 -16 5 2028.34 735.187 3
-16 1 -5 2034.51 776.259 1
15 -16 -5 2139.76 678.25 1
-16 15 5 1700.16 662.549 1
15 1 5 1678.53 694.312 1
-16 15 5 1548.92 673.657 2
15 -16 -5 2017.71 694.511 4
15 1 5 2505.32 958.067 2
1 15 -5 1828.45 698.499 4
15 -16 -5 1764.94 925.435 2
1 -16 8 449.438 472.138 3
-16 15 8 524.292 363.785 1
15 -16 -8 401.584 283.52 1
-16 15 8 15.2318 109.834 2
15 1 8 509.112 405.273 2
15 -16 -8 629.822 487.951 4
-16 15 8 281.636 263.912 4
-16 1 -8 30.2214 71.3927 1
15 1 8 510.878 333.664 1
1 -16 11 1174.59 668.538 3
-16 1 -11 1704.07 705.075 1
15 1 11 835.102 462.047 2
15 1 11 2133.3 871.484 1
-16 15 11 820.648 436.072 4
15 -16 -11 1032.35 492.859 1
-16 15 11 661.274 358.736 2
1 15 -14 358.437 484.759 1
1 -16 14 -183.977 260.753 3
-16 1 -14 552.27 553.562 1
15 1 14 376.401 606.865 2
-16 15 14 575.987 458.944 4
15 -17 14 82.7913 343.859 2
2 15 14 299.686 203.018 2
-17 15 -14 539.409 281.548 1
-17 15 -11 -334.154 320.093 1
15 -17 11 -28.8313 385.332 2
2 15 11 -48.5632 94.1446 2
2 -17 -8 1346.92 627.392 3
15 -17 8 780.211 692.591 2
-17 15 -8 597.529 419.284 1
2 15 8 953.584 484.224 3
-17 15 -5 3196.3 1074.92 1
2 -17 -5 2256.41 771.605 3
15 -17 5 2481.6 982.677 2
2 15 5 2893.43 944.667 4
15 2 -5 2370.97 574.843 4
2 -17 -2 2191.88 696.565 3
-17 15 -2 2828.88 961.095 1
-17 2 2 2109.58 789.833 1
-17 15 -2 3997.27 1227.18 2
15 -17 2 1818.35 712.902 2
2 15 2 3044.24 1041.91 4
2 -17 1 1614.03 574.752 3
15 -17 -1 2472.35 815.635 1
15 2 1 1705.34 671.238 1
-17 15 1 2289.83 833.247 2
-17 15 1 2251.75 785.606 1
15 -17 -1 861.825 333.636 2
2 15 -1 1110.75 551.831 4
15 2 1 1313.1 599.224 2
15 -17 -1 2978.19 1262.7 4
-17 2 -1 1614.8 647.378 1
15 -17 -4 690.184 522.824 1
2 -17 4 522.891 344.261 3
15 -17 -4 794.804 566.611 4
2 15 -4 253.41 154.529 4
-17 2 -4 -111.528 204.808 1
-17 15 4 818.276 594.401 2
15 2 4 423.447 400.062 1
15 2 4 24.3982 334.27 2
15 -17 -4 659.72 776.924 2
2 -17 7 521.753 362.416 3
-17 2 -7 331.272 299.799 1
15 2 7 342.617 302.413 1
15 -17 -7 394.725 329.249 1
-17 15 7 283.371 498.858 2
15 2 7 107.957 168.77 2
15 -17 -7 14.4376 133.532 4
-17 15 7 49.9019 90.9687 1
2 -17 10 705.654 546.449 3
-17 15 10 293.457 296.624 1
-17 2 -10 206.146 209.513 1
15 -17 -10 -88.1396 236.012 1
15 2 10 -41.9446 121.705 2
15 2 10 141.785 247.064 1
-17 15 10 -6.70264 191.493 4
-17 15 10 -18.4414 173.09 2
2 -17 13 201.774 207.953 3
-17 2 -13 47.7662 200.93 1
15 2 13 220.706 243.505 1
15 2 13 548.395 514.258 2
-17 15 13 467.732 304.793 4
15 -17 -13 387.257 39.9731 1
15 -18 12 980.489 1007.2 2
3 15 12 469.405 242.112 2
-18 15 -12 888.954 697.596 1
15 -18 9 -110.639 367.677 2
3 15 9 157.61 126.956 2
-18 15 -9 505.408 600.291 1
-18 15 -6 680.445 433.5 1
3 -18 -6 692.256 408.458 3
3 15 6 768.907 248.801 1
15 -18 6 1067.7 549.772 2
3 15 6 744.553 498.078 4
15 3 -6 1099.33 421.361 4
3 15 3 1404.78 656.968 4
3 -18 -3 9.23664 181.505 2
15 -18 3 862.101 427.333 2
-18 3 3 1552.37 659.614 1
3 -18 -3 1584.18 626.191 3
3 -18 0 1232.38 591.708 3
-18 3 0 1217.58 616.034 1
-18 15 0 1642.78 682.218 2
-18 15 0 2214.78 848.456 1
15 -18 0 638.072 333.872 2
15 3 0 1200.28 528.802 1
15 -18 0 1660.57 745.303 1
3 15 0 1337.99 626.943 4
15 -18 0 2288.95 1431.35 4
3 -18 3 2792.42 914.833 3
-18 3 -3 2837.02 872.034 1
-18 15 3 3223.15 998.235 2
15 -18 -3 2871.77 1223.35 2
15 -18 -3 3009.79 981.227 4
3 15 -3 2521.79 796.86 4
15 -18 -3 2927.76 846.407 1
15 3 3 2145.27 972.296 2
15 3 3 2507.54 746.176 1
-18 15 3 2831.95 899.014 1
3 -18 6 182.62 384.705 3
15 -18 -6 227.734 228.856 1
15 3 6 884.83 486.301 1
-18 15 6 -56.4732 114.9 1
-18 15 6 1156.47 562.404 2
15 -18 -6 237.082 229.785 4
15 3 6 182.358 310.077 2
3 15 -6 78.3862 196.595 4
-18 3 -6 396.968 386.789 1
3 -18 9 1208.54 711.401 3
-18 15 9 939.588 443.009 1
15 -18 -9 1005.66 464.409 1
-18 3 -9 1032.28 641.293 1
15 3 9 854.653 554.297 2
15 3 9 987.919 538.173 1
3 -18 12 475.609 496.54 3
-18 3 -12 765.293 433.779 1
15 3 12 867.885 637.825 2
15 3 12 722.197 498.074 1
15 -18 -12 491.642 302.661 1
-18 15 12 674.385 336.768 4
15 -19 13 -410.636 411.668 2
-19 15 -13 178.92 409.676 1
4 15 13 192.149 182.115 2
4 15 10 -61.4646 90.1322 2
-19 15 -10 -72.1804 177.24 1
-19 15 -7 267.098 198.189 1
4 -19 -7 181.073 200.765 3
4 15 7 201.856 50.9751 1
15 -19 7 -111.796 507.195 2
15 4 -7 -93.3269 145.1 4
-19 4 4 -117.903 308.879 1
4 -19 -4 -7.4004 287.605 3
-19 15 -4 446.911 344.457 1
4 15 4 164.056 132.848 4
4 -19 -4 53.3405 28.2331 2
15 -19 4 143.833 103.756 2
15 4 -4 164.045 135.718 4
4 -19 -1 499.328 471.616 3
4 -19 -1 -248.844 249.015 2
-19 4 1 328.941 287.935 1
15 -19 1 125.285 57.2159 2
-19 15 -1 651.524 460.176 1
4 15 1 394.58 336.154 4
4 -19 2 2104.45 766.003 3
15 4 2 1491.19 488.357 1
15 -19 -2 1999.2 645.337 1
-19 4 -2 1261.66 670.195 1
4 15 -2 1717.89 632.865 4
-19 15 2 2451.64 917.292 1
15 4 2 1300.46 762.803 2
-19 4 -5 714.652 473.065 1
4 -19 5 421.54 378.767 3
-19 15 5 446.478 352.713 1
15 -19 -5 882.462 530.893 4
15 4 5 168.809 166.721 2
4 15 -5 62.8062 212.872 4
15 -19 -5 504.325 638.385 2
15 -19 -5 867.577 423.805 1
15 4 5 706.96 385.95 1
15 4 8 50.355 88.0921 2
4 -19 8 327.365 365.587 3
15 -19 -8 -24.4825 100.18 1
15 4 8 -162.59 224.088 1
-19 15 8 165.468 303.767 1
15 -19 -8 -209.981 168.801 4
-19 4 -8 591.836 349.419 1
4 -19 11 747.997 435.693 3
15 -19 -11 154.807 160.591 1
-19 4 -11 440.706 359.641 1
-19 15 11 225.329 231.639 1
15 4 11 919.71 629.591 2
15 4 11 562.066 418.229 1
5 15 11 108.986 184.642 2
15 -20 11 -363.242 538.622 2
-20 15 -11 528.146 529.466 1
-20 15 -8 376.603 393.348 1
15 -20 8 -160.948 393.618 2
5 15 8 462.386 215.589 1
15 5 -8 189.596 271.243 4
5 -20 -5 80.598 69.4178 3
-20 15 -5 1287.82 791.555 1
15 -20 5 862.028 449.431 2
-20 5 5 414.246 442.474 1
5 15 5 499.617 435.804 4
15 5 -5 1029.19 453.163 4
5 15 5 759.405 323.629 1
5 -20 -2 700.628 489.589 3
5 -20 -2 419.771 379.733 2
15 -20 2 115.449 268.788 2
-20 15 -2 1286.23 644.012 1
-20 5 2 645.857 516.141 1
5 15 2 740.087 444.394 4
5 -20 1 538.191 334.135 3
5 -20 1 89.6702 91.1301 2
-20 15 1 376.254 305.441 1
15 -20 -1 -200.453 309.731 2
15 -20 -1 -67.747 166.107 1
15 5 1 -9.5333 128.219 1
-20 5 -1 864.72 614.792 1
5 15 -1 132.016 314.528 4
5 -20 4 304.666 120.478 3
-20 5 -4 252.677 256.736 1
-20 15 4 171.36 344.415 1
5 15 -4 -39.0302 226.165 4
15 -20 -4 1119.92 1030.73 2
15 -20 -4 4.30294 204.733 1
15 5 4 400.602 454.616 2
15 5 4 -113.641 220.41 1
15 -20 -7 604.015 444.683 1
5 -20 7 369.286 493.542 3
-20 15 7 523.845 243.725 1
15 5 7 402.952 314.178 1
15 5 7 402.241 421.07 2
-20 5 -7 759.451 590.51 1
5 15 -7 607.575 341.438 4
5 -20 10 606.638 466.901 3
-20 15 10 -13.828 204.653 1
15 5 10 851.675 639.797 2
15 -20 -10 550.419 417.542 1
-20 5 -10 641.704 511.647 1
15 5 10 1118.59 667.815 1
15 -21 12 -33.2532 163.091 2
6 15 12 293.883 233.577 2
-21 15 -12 753.003 587.758 1
-21 15 -9 107.435 247.382 1
6 15 9 668.543 286.161 1
15 -21 9 741.15 767.308 2
6 15 9 166.486 64.7585 2
-21 6 6 596.065 435.073 1
-21 15 -6 1201.9 652.147 1
15 -21 6 1233.74 764.937 2
15 6 -6 610.915 334.557 4
6 15 6 640.931 244.406 1
6 -21 -3 1535.56 660.466 3
-21 6 3 2189.3 848.967 1
6 -21 -3 2255.51 599.389 2
15 -21 3 2050.66 880.601 2
-21 15 -3 3843.61 1152.38 1
15 6 -3 1236.38 502.113 4
6 15 3 2760.28 969.471 4
6 -21 0 1373.68 668.12 3
6 -21 0 -65.3982 190.216 2
15 -21 0 748.303 540.785 2
-21 15 0 1407.06 638.225 1
6 15 0 968.828 584.204 4
-21 6 0 615.402 388.241 1
6 -21 3 557.333 417.982 3
-21 15 3 225.955 340.331 1
6 -21 3 201.773 294.262 2
15 6 3 28.1674 98.3463 1
-21 6 -3 170.036 168.996 1
15 -21 -3 205.556 247.167 1
6 15 -3 -28.7835 208.918 4
15 -21 -3 -197.35 577.353 2
15 6 3 -53.6459 48.9809 2
6 -21 6 400.34 319.982 3
15 6 6 312.188 257.116 1
15 -21 -6 -207.552 228.26 1
15 6 6 130.067 83.1855 2
6 15 -6 85.8526 237.514 4
-21 6 -6 333.481 441.173 1
-21 15 6 109.376 129.761 1
15 -21 -6 238.341 468.604 2
15 6 9 402.408 408.901 1
6 -21 9 -27.9042 222.12 3
-21 15 9 -79.1805 161.317 1
-21 6 -9 1106.39 731.236 1
15 6 9 -449.353 530.002 2
15 -21 -9 404.308 326.769 1
6 -21 12 612.61 506.226 3
15 -21 -12 558.563 351.277 1
-21 6 -12 271.401 263.082 1
15 6 12 318.306 263.081 2
15 6 12 421.387 191.523 1
-22 15 -10 38.3448 269.377 1
15 -22 10 494.805 565.618 2
7 15 10 187.671 175.827 1
7 15 10 70.2854 211.721 2
7 15 7 1370.77 412.456 1
-22 15 -7 2166.93 1043.03 1
15 -22 7 990.152 593.468 2
-22 7 7 1264.53 691.432 1
15 7 -7 1560.81 582.911 4
7 -22 -4 300.549 136.353 1
15 7 -4 931.589 423.37 4
7 15 4 312.762 208.8 1
15 -22 4 843.764 496.13 2
-22 15 -4 1052.71 702.721 1
7 -22 -4 301.457 71.1602 2
7 15 4 414.763 373.993 4
-22 7 4 171.098 82.126 1
7 -22 -1 779.45 533.258 3
7 -22 -1 786.412 248.283 2
7 15 1 1044.26 604.337 4
15 -22 1 601.958 118.996 2
-22 15 -1 1223.51 645.921 1
-22 7 1 442.811 453.144 1
-22 15 2 1423.62 681.422 1
7 -22 2 1038.73 525.55 3
7 -22 2 558.831 392.423 2
-22 7 -2 883.872 565.777 1
15 -22 -2 447.233 213.6 2
7 15 -2 139.14 205.654 4
7 -22 5 284.368 454.982 3
7 -22 5 -35.4796 235.484 2
7 15 -5 70.202 164.973 4
15 -22 -5 691.727 634.881 2
15 -22 -5 502.969 407.628 1
-22 15 5 319.518 124.396 1
15 7 5 639.827 403.192 1
15 7 5 407.434 449.753 2
-22 7 -5 664.573 489.594 1
15 7 8 451.917 455.458 2
7 -22 8 260.638 405.511 3
-22 7 -8 -162.65 165.274 1
15 7 8 530.17 312.694 1
-22 15 8 94.118 309.177 1
15 -22 -8 526.651 354.972 1
7 -22 11 537.45 456.356 3
-22 15 11 87.7966 68.2951 1
-22 7 -11 555.092 455.728 1
15 7 11 47.1985 402.405 2
15 7 11 631.717 487.794 1
15 -22 -11 -18.7103 120.191 1
8 -23 -8 139.287 16.1957 1
-23 15 -8 411.302 681.452 1
15 -23 8 77.506 114.836 2
8 15 8 130.519 162.089 1
-23 8 8 123.715 257.944 1
15 8 -8 12.889 98.5272 4
8 15 5 393.612 242.544 1
8 -23 -5 83.8315 171.692 1
-23 8 5 433.004 439.228 1
15 -23 5 788.149 837.242 2
-23 15 -5 826.832 564.149 1
15 8 -5 335.61 218.424 4
8 -23 -5 39.1621 270.088 2
8 15 5 494.953 270.276 4
8 -23 -2 353.409 167.074 1
-23 8 2 344.304 387.847 1
8 -23 -2 -62.1687 348.586 2
15 -23 2 55.3253 274.754 2
-23 15 -2 656.868 327.669 1
15 8 -2 385.152 381.633 4
8 15 2 522.461 406.702 4
-23 15 1 578.154 504.118 1
8 -23 1 -203.413 215.689 2
-23 8 -1 453.759 319.141 1
15 -23 -1 17.9343 348.378 2
8 15 -1 225.14 43.621 4
-23 8 -4 1127.63 746.167 1
8 -23 4 875.239 520.854 3
15 8 4 805.569 475.969 1
8 -23 4 512.659 331.968 2
-23 15 4 693.224 616.06 1
15 -23 -4 482.851 254.621 1
8 15 -4 734.933 377.903 4
15 -23 -4 980.037 729.3 2
8 -23 7 324.022 194.652 3
8 -23 7 -3.64271 119.61 2
-23 15 7 62.1206 164.916 1
15 8 7 260.946 207.027 1
15 -23 -7 76.121 272.327 1
-23 8 -7 103.46 193.868 1
15 8 7 6.83562 164.062 2
8 15 -7 90.8235 267.977 4
8 -23 10 298.815 433.172 3
8 -23 10 190.494 467.153 2
-23 15 10 -162.529 207.179 1
-23 8 -10 189.427 425.141 1
15 -23 -10 320.379 263.137 1
15 8 10 214.512 449.199 2
15 8 10 -400.537 458.797 1
9 -24 -9 -24.4538 90.8994 1
-24 15 -9 324.797 293.667 1
15 -24 9 -188.042 389.624 2
9 15 9 673.134 337.566 1
15 9 -9 443.412 156.455 4
9 -24 -6 352.786 281.882 1
15 -24 6 427.804 468.113 2
9 15 6 251.135 169.723 1
-24 15 -6 322.139 487.241 1
-24 9 6 77.7159 286.287 1
15 9 -6 -39.8826 160.008 4
9 -24 -3 182.52 178.905 1
9 15 3 203.979 294.716 4
9 15 3 183.532 91.8163 1
-24 9 3 17.0821 223.898 1
9 -24 -3 74.3481 206.12 2
-24 15 -3 645.616 586.604 1
15 9 -3 115.557 36.8522 4
9 -24 0 564.977 260.786 2
9 15 0 663.573 426.307 4
15 -24 0 552.999 216.62 2
-24 9 0 24.6294 133.481 1
-24 9 -3 824.304 602.038 1
9 -24 3 -12.4214 256.546 2
-24 15 3 891.284 604.267 1
15 -24 -3 78.7058 218.858 2
9 15 -3 452.861 463.189 4
-24 15 6 489.695 402.536 1
9 -24 6 511.725 577.083 2
15 -24 -6 621.436 518.321 1
15 9 6 524.18 299.563 1
9 15 -6 408.375 287.72 4
-24 9 -6 553.379 466.591 1
15 -24 -6 1333.09 957.424 2
15 9 6 -165.636 147.128 2
9 -24 9 44.5942 283.949 2
15 9 9 205.173 166.847 1
-24 15 9 315.065 198.214 1
-24 9 -9 575.794 572.543 1
15 -24 -9 256.44 252.347 1
15 9 9 432.132 447.878 2
-25 10 7 449.829 354.251 1
10 -25 -7 474.111 312.2 1
15 -25 7 152.066 248.417 2
-25 15 -7 1045.17 775.58 1
15 10 -7 298.991 327.718 4
10 15 7 153.477 91.9493 1
10 -25 -4 131.846 216.562 1
10 15 4 132.956 146.443 1
15 -25 4 61.2334 422.697 2
-25 10 4 114.647 372.322 1
10 -25 -4 -388.84 359.138 2
-25 15 -4 511.255 626.024 1
10 15 4 -137.124 169.575 4
15 10 -4 -16.2236 102.006 4
10 -25 -1 311.389 226.625 2
15 -25 1 43.1409 280.883 2
15 10 -1 310.845 482.493 4
10 15 1 187.059 135.333 4
-25 10 1 499.283 458.415 1
-25 15 -1 946.769 686.159 1
-25 10 -2 1388.38 805.231 1
10 -25 2 513.156 325.894 2
-25 15 2 1368.01 686.337 1
15 -25 -2 411.619 37.9257 2
10 15 -2 796.604 451.936 4
15 -25 -5 51.3505 717.097 2
15 10 5 -276.04 328.224 1
10 -25 5 101.738 373.245 2
15 -25 -5 275.816 384.261 1
10 15 -5 368.54 478.496 4
-25 15 5 98.3882 166.945 1
-25 10 -5 479.987 551.19 1
10 -25 8 -749.123 574.471 2
15 10 8 409.225 346.745 1
15 -25 -8 265.716 189.178 1
-25 10 -8 -525.556 478.801 1
10 15 -8 148.33 352.535 4
15 10 8 663.283 471.816 2
-25 15 8 136.94 399.884 1
11 -26 -5 337.36 214.7 1
15 11 -5 790.591 533.425 4
15 -26 5 892.642 723.496 2
-26 11 5 82.3854 308.65 1
11 15 5 549.669 341.295 1
-26 15 -5 301.398 364.508 1
11 -26 -5 519.463 687.489 2
15 -26 2 1095.99 681.082 2
11 -26 -2 597.688 276.366 2
11 15 2 1171.82 614.462 4
15 11 -2 1021.93 569.956 4
-26 11 2 1352.13 757.342 1
-26 15 -2 1533.32 645.939 1
-26 15 1 1092.33 565.175 1
11 -26 1 399.551 270.327 2
-26 11 -1 962.454 386.491 1
15 -26 -1 349.545 118.014 2
15 11 1 321.198 208.871 4
11 15 -1 579.177 213.34 4
11 -26 4 808.723 507.842 2
11 15 -4 528.986 453.327 4
15 -26 -4 -132.815 615.387 2
-26 15 4 225.173 427.265 1
-26 11 -4 1387.27 754.959 1
11 -26 7 242.288 379.381 2
15 -26 -7 176.826 190.522 1
-26 15 7 -199.131 196.039 1
15 11 7 260.795 312.816 1
-26 11 -7 512.468 594.079 1
11 15 -7 382.477 259.433 4
15 11 7 437.746 497.943 2
12 -27 -6 113.871 150.579 1
12 15 6 42.7353 69.5816 1
15 -27 6 -334.058 414.465 2
15 12 -6 -271.607 689.629 4
-27 15 -6 20.8288 285.312 1
12 -27 -6 247.191 409.605 2
-27 12 6 -61.2388 215.926 1
-27 12 3 318.121 148.144 1
15 -27 3 -87.9979 147.379 2
12 -27 -3 -147.952 43.1558 2
12 15 3 210.964 99.9252 4
-27 15 -3 550.936 517.737 1
15 12 -3 316.73 224.428 4
12 -27 0 -14.6904 128.653 2
-27 12 0 503.695 52.4248 1
15 -27 0 255.63 133.605 2
15 12 0 -130.729 300.028 4
12 15 0 236.438 39.0582 4
12 15 -3 -21.1196 414.481 4
12 -27 3 -350.668 508.425 2
15 -27 -3 -130.607 61.3738 2
-27 15 3 132.422 179.37 1
12 -27 6 -356.997 690.408 2
-27 15 6 406.242 330.988 1
15 -27 -6 372.314 346.678 1
15 -27 -6 282.336 1041.4 2
12 15 -6 145.809 297.769 4
-27 12 -6 -316.42 102.889 1
15 12 6 637.392 469.68 1
-28 13 4 329.4 453.074 1
15 -28 4 350.476 444.789 2
13 -28 -4 277.498 195.671 2
15 13 -4 403.738 329.366 4
-28 15 -4 1172.05 790.261 1
13 15 4 132.124 338.296 4
-28 15 -1 237.443 149.228 1
15 -28 1 447.495 91.325 2
13 -28 -1 291.045 377.489 2
-28 13 1 144.941 356.153 1
13 15 1 -313.795 479.992 4
15 13 -1 -170.051 221.97 4
-28 13 -2 1200.32 692.546 1
13 -28 2 811.736 485.216 2
-28 15 2 1005.97 743.481 1
15 -28 -2 352.567 241.831 2
15 13 2 200.025 304.923 4
13 15 -2 885.604 526.849 4
-8 16 0 9179.57 1347.37 2
16 -8 0 10101.9 1692.27 2
16 -8 0 10806.4 1656.53 1
-8 -8 0 8789.45 1397.22 2
-8 16 0 7996.81 1393.52 4
-8 16 0 9344.26 1517.14 3
-8 16 0 10652.9 1544.88 1
-8 16 3 10356.1 1188.15 2
16 -8 3 9353.52 1662.63 2
-8 -8 -3 8660.6 1395.07 2
16 -8 -3 8253.85 1593.98 2
16 -8 -3 9151.38 1490.57 1
-8 16 3 8735.49 1441.92 4
-8 16 -3 9419.72 1540.59 3
-8 16 3 8947.43 1468.8 3
-8 16 -3 8481.43 1504.61 1
-8 16 3 9174.52 1255.93 1
16 -8 3 9164.71 1589.42 1
-8 -8 -6 4877.97 737.642 1
-8 16 6 4894.33 693.441 2
-8 -8 -6 6911.32 1392.12 2
-8 16 6 6530.27 958.958 1
16 -8 6 5319.38 1306.44 2
16 -8 -6 5365.44 1135.38 1
-8 -8 6 5151 1058.98 4
16 -8 -6 5822.99 693.781 4
-8 16 6 5916.2 1238.93 4
-8 16 -6 5719.17 1198.06 3
-8 16 6 6092.59 1232.71 3
-8 16 -6 5285.4 1184.56 1
16 -8 6 6186.31 1327.75 1
-8 16 9 -8.76749 181.486 3
-8 16 -9 -263.143 433.106 1
-8 -8 -9 -35.9014 54.7171 2
16 -8 9 976.246 714.206 2
-8 -8 -9 252.369 186.911 1
-8 16 9 -290.172 334.357 4
-8 -8 9 202.246 269.352 4
-8 16 9 24.0438 96.8138 2
-8 16 9 237.223 91.2735 1
-8 -8 -9 187.788 217.365 3
-8 16 -9 465.317 359.444 3
-8 16 12 187.831 41.9989 3
-8 16 -12 -260.447 377.726 1
16 -8 12 -154.192 607.514 2
-8 16 12 310.196 213.932 4
-8 -8 -12 416.793 218.821 1
-8 -8 12 214.024 221.492 4
-8 -8 -12 488.748 315.521 3
-8 16 -12 352.964 268.328 3
-8 -8 -15 275.043 153.7 3
-8 16 15 188.355 349.668 3
-8 16 -15 433.736 432.209 1
-8 -8 -15 412.772 192.243 1
16 -8 15 -39.5202 315.313 2
-8 -8 15 95.481 240.699 4
-8 16 -15 195.944 245.903 3
-7 16 13 198.924 263.04 3
-9 16 -13 279.313 488.011 1
16 -9 13 143.21 403.588 2
-7 16 13 -231.13 401.701 4
-7 -9 -13 287.417 190.068 1
-9 -7 13 179.785 282.31 4
-9 16 -13 317.469 360.736 3
-7 -9 -13 584.646 417.659 3
-9 16 -10 1900.53 719.849 3
-7 16 10 1589.58 611.592 3
-7 -9 -10 918.831 470.263 2
-9 16 -10 1599.37 764.625 1
16 -9 10 1605.18 985.118 2
-7 -9 -10 1275.61 351.336 1
-7 16 10 1743.49 712.613 4
-9 -7 10 1563.29 584.462 4
-7 -9 -10 1395.3 511.94 3
-9 16 -7 960.766 471.971 3
-7 16 7 911.718 485.667 3
-9 16 -7 571.978 340.504 1
-7 -9 -7 504.625 300.014 2
-7 16 7 124.2 36.7067 2
16 -9 7 -82.3896 420.302 2
-9 -7 7 669.702 397.335 4
-7 16 7 822.673 518.267 4
-7 -9 -7 512.092 246.302 3
-7 16 7 559.151 167.311 1
-7 16 4 5590.41 726.16 2
16 -9 4 6225.77 1349.12 2
-7 16 4 5638.93 1198.14 3
16 -7 -4 5152.15 1108.15 1
-7 -9 -4 4366.81 1051.11 2
-7 16 4 5257.61 1219.73 4
-7 -9 -4 5339.6 1069.93 3
-9 16 -4 5572.58 1193.83 3
-9 16 -4 5990.25 1253.83 1
16 -9 4 5178.07 1219.68 1
-7 16 4 5262.95 865.324 1
16 -7 -1 4112.07 1098.03 2
-7 16 1 2899.72 800.155 3
-9 16 -1 3543.49 844.277 3
-9 16 -1 3901.49 919.217 2
16 -9 1 3585.93 952.089 1
-9 16 -1 3194.12 888.177 1
-7 16 1 2281.61 725.256 4
-7 16 1 3766.73 852.434 1
16 -9 1 3056.1 934.396 2
16 -7 -1 3668.75 915.268 1
-7 -9 -1 2023.74 496.204 2
-7 16 -2 1610.15 620.159 3
-9 16 2 2613.7 752.855 3
-9 16 2 2464.3 626.014 2
16 -7 2 3103.04 943.076 1
-7 16 -2 2851.96 774.615 1
16 -9 -2 2343.31 731.461 1
-9 -7 -2 1845.85 700.99 2
-9 16 2 2539.76 747.603 4
16 -7 2 2440.46 863.97 2
16 -9 -2 2839.8 1019.64 2
-9 16 2 2080.15 626.672 1
-7 16 -5 1978.24 715.025 3
16 -9 -5 1581.1 596.346 1
-9 16 5 2073.16 741.012 3
-7 16 -5 1584.54 704.206 1
-9 16 5 1358.35 416.548 2
-9 16 5 2127.65 575.352 1
-9 -7 -5 1815.25 721.238 2
16 -7 5 1380.36 670.597 2
-7 -9 5 1516.79 557.186 4
-9 16 5 1893.79 700.729 4
-9 -7 -5 1195.06 338.305 1
16 -9 -5 1701.28 431.773 4
16 -7 5 1473.46 668.01 1
-9 16 8 434.754 245.577 4
-7 16 -8 278.527 192.885 1
-9 -7 -8 -159.911 214.285 2
16 -7 8 466.012 545.092 2
-9 -7 -8 95.0702 86.339 1
-9 16 8 427.188 278.833 2
-7 -9 8 336.898 145.215 4
-9 16 8 283.308 122.642 1
-7 16 -8 385.72 206.434 3
-9 16 11 1855.31 669.926 3
-9 -7 -11 1084.85 768.723 2
-7 16 -11 2332.6 855.39 1
16 -7 11 1937.05 947.932 2
-9 -7 -11 1577.57 524.095 3
-9 16 11 983.495 464.699 4
-7 -9 11 1753.34 699.476 4
-9 -7 -11 1615.77 449.808 1
-7 16 -11 1670 629.345 3
-9 16 14 -5.96961 115.644 3
-7 16 -14 -160.147 592.152 1
16 -7 14 139.366 384.865 2
-9 -7 -14 596.979 281.694 1
-7 -9 14 626.71 415.162 4
-7 -9 14 451.823 347.445 3
-9 16 14 437.693 428.953 4
-7 16 -14 350.706 267.645 3
-9 -7 -14 437.929 309.994 3
-6 16 14 659.109 444.507 3
-6 -10 -14 362.316 257.763 3
-10 16 -14 883.181 651.339 1
16 -10 14 -33.9165 428.659 2
-6 -10 -14 376.268 193.371 1
-10 -6 14 -25.99 214.068 4
-10 16 -14 530.459 363.692 3
-10 16 -11 1303.01 663.54 3
-6 -10 -11 864.834 243.04 1
-6 16 11 1047.02 572.269 3
-10 16 -11 1500.54 805.683 1
16 -10 11 1539.06 938.235 2
-10 -6 11 1202.82 485.377 4
-6 16 11 677.382 434.152 4
-6 -10 -11 1458.02 559.046 3
-6 16 8 1499.86 614.896 4
-6 16 8 1342.13 536.099 3
-10 16 -8 1690.36 630.997 3
-6 -10 -8 1776.5 659.326 2
-10 16 -8 2204.42 851.829 1
16 -10 8 1086.35 613.309 2
-10 -6 8 1326.3 558.202 4
-6 -10 -8 1070.93 432.371 3
-6 16 8 1276.79 299.757 1
-6 16 5 1187.34 531.2 3
-10 16 -5 1714.98 672.188 3
-6 16 5 991.752 341.191 1
-10 16 -5 1499.88 546.574 1
16 -10 5 825.48 390.193 2
-6 -10 -5 1217 652.714 2
-6 16 5 973.265 550.665 4
-6 -10 -5 991.205 453.456 3
-10 16 -2 5877.33 1260.73 2
-6 -10 -2 4921.55 885.538 2
16 -6 -2 6347.83 1234.7 1
16 -10 2 5204.49 1185.96 2
-6 16 2 5179.57 1136.66 4
-6 16 2 5200.98 1117.63 3
-10 16 -2 4862.92 1096.63 3
16 -6 -2 4558.87 1122.34 2
-6 -10 -2 4330.45 958.093 3
-6 16 2 6528.84 1106.49 1
-10 16 -2 5522.1 1204.24 1
16 -10 2 5507.3 1202.1 1
-10 16 1 13185.1 1618.51 2
16 -10 -1 12317.1 1813.14 1
16 -6 1 11479.4 1835.06 2
16 -10 -1 11022.8 1918.05 2
-10 -6 -1 9778.68 1499.26 2
16 -6 1 12443.2 1778.99 1
-6 16 -1 11024.3 1647.66 3
-6 16 -1 10378.2 1519.56 4
-6 -10 1 10572.4 1663.8 3
-6 16 -1 10230.9 1437.62 1
-10 16 1 11774 1598.15 1
-6 16 -4 959.785 578.438 3
16 -6 4 1541.46 637.749 1
-6 16 -4 1106.52 479.696 1
-10 16 4 1071.49 481.181 1
-10 16 4 1324.36 467.998 2
-10 -6 -4 1487.26 733.177 2
16 -6 4 1414.37 742.249 2
-6 -10 4 1518.58 644.683 4
-10 -6 -4 1316.9 418.161 1
16 -10 -4 1993.29 724.952 1
-10 16 4 1340.42 560.386 4
16 -10 -4 1881.98 869.337 2
16 -10 -7 856.896 354.785 1
-6 16 -7 1076.24 563.607 1
-10 16 7 692.413 243.134 1
-10 -6 -7 782.518 491.937 2
16 -6 7 688.257 431.793 2
-10 16 7 390.61 36.5174 2
-6 -10 7 862.053 383.977 4
-10 16 7 1083.61 609.469 4
-10 -6 -7 810.859 349.815 1
16 -6 7 1170.05 589.186 1
16 -10 -7 1094.05 322.728 4
-6 16 -7 956.955 420.602 3
-6 16 -10 2485.45 890.573 1
-10 -6 -10 386.11 443.316 2
16 -6 10 1326.2 725.795 2
-6 -10 10 1108.62 650.676 4
-10 16 10 1250.03 618.652 4
-10 16 10 663.949 319.341 2
-6 -10 10 1459.94 687.243 3
-6 16 -10 1416.99 604.2 3
-10 -6 -10 1097.59 416.322 1
-6 16 -13 160.599 357.543 1
16 -6 13 389.742 379.313 2
-10 -6 -13 245.507 227.81 1
-10 16 13 92.4042 175.295 4
-6 -10 13 476.821 364.181 4
-6 -10 13 381.074 286.503 3
-6 16 -13 253.283 286.42 3
-10 -6 -13 371.274 246.349 3
16 -11 15 -47.3925 488.282 2
-11 16 -15 31.6047 513.977 1
-5 -11 -15 330.078 289.955 3
-5 -11 -15 95.2664 83.4146 1
-11 -5 15 -25.5773 187.131 4
-11 16 -15 165.043 295.369 3
-5 16 15 -116.491 227.148 3
-5 16 12 350.977 319.386 3
-11 16 -12 316.41 225.546 3
-5 -11 -12 596.617 324.376 3
16 -11 12 969.719 683.188 2
-11 16 -12 816.766 585.195 1
-11 -5 12 698.693 361.997 4
-5 -11 -12 480.173 214.027 1
-5 16 9 193.775 212.724 3
-11 16 -9 576.924 212.772 3
-5 -11 -9 303.773 114.789 2
16 -11 9 404.993 416.7 2
-11 16 -9 412.191 323.904 1
-5 16 9 308.281 321.766 4
-11 -5 9 242.131 80.0055 4
-5 -11 -9 415.414 248.185 3
-5 16 6 2786.13 821.87 3
-5 16 6 3225.14 564.187 1
-11 16 -6 2993.7 780.602 3
-5 -11 -6 2980.03 703.885 2
16 -11 6 3135.5 1080.46 2
-11 16 -6 2839.95 903.719 1
-5 16 6 2342.3 897.446 4
-5 -11 -6 2650.76 739.218 3
-11 16 -3 7396.52 1543.69 2
-5 -11 -3 3449.49 1010.65 2
16 -11 3 5764.07 1257.29 2
16 -5 -3 5898.18 1152.12 1
-5 16 3 7055.29 1459.92 4
-5 -11 -3 6446.38 1213.18 3
-5 16 3 6008.54 1240.52 3
-5 16 3 7242.41 1077.44 1
-11 16 -3 8845.82 1642.96 1
16 -11 3 7148.56 1413.58 1
-5 16 0 3013.32 849.912 3
16 -11 0 3218.8 913.038 1
16 -11 0 2649.26 923.877 2
-11 16 0 3659.14 963.513 2
-5 16 0 2522.1 636.542 1
16 -5 0 4074.61 1028.59 1
-5 16 0 2669.79 795.528 4
16 -5 0 3326.19 1061.51 2
-11 -5 0 2606.5 794.442 2
-11 16 0 3379.38 922.186 1
-5 -11 0 2373.06 754.916 3
-5 -11 3 1214.07 526.703 3
16 -5 3 1256.26 565.323 2
-5 16 -3 1153.51 509.112 1
-11 16 3 1971.31 578.785 1
16 -5 3 1671.64 581.427 1
-11 16 3 1149.36 469.848 2
16 -11 -3 1465.08 584.689 1
-5 -11 3 1584.21 805.979 4
-11 -5 -3 1458.31 652.555 2
-11 -5 -3 1019.46 352.521 1
-11 16 3 1471.66 575.811 4
16 -11 -3 1491.05 804.344 2
-5 16 -3 1420.42 600.724 3
-5 16 -6 1996.66 755.34 1
16 -11 -6 1663.48 449.782 4
-11 -5 -6 2291.81 834.011 2
16 -5 6 1910.34 825.943 2
-11 16 6 1317.56 419.763 2
-5 -11 6 1487.72 558.582 4
-11 16 6 1832.08 690.768 4
-11 -5 -6 1415.57 466.675 1
-5 -11 6 2408.72 824.015 3
16 -11 -6 1869.84 662.09 1
16 -5 6 1966.5 735.349 1
-5 16 -6 2113.07 759.335 3
-11 16 6 1517.01 487.921 1
-11 -5 -9 31.7927 131.914 1
-5 16 -9 228.16 158.374 1
-11 -5 -9 213.456 261.648 2
16 -5 9 903.726 548.15 2
-11 16 9 287.876 132.545 4
-5 -11 9 630.416 490.106 3
-5 -11 9 720.822 386.134 4
-11 16 9 222.988 212.119 1
-11 16 9 337.92 147.601 2
-5 16 -9 410.398 296.668 3
-5 16 -12 -203.459 219.65 1
-11 -5 -12 -99.6064 523.507 2
16 -5 12 384.71 481.866 2
-11 -5 -12 107.341 136.598 1
-11 16 12 84.2813 313.871 4
-5 -11 12 459.209 430.237 4
-5 16 -12 208.944 161.838 3
-5 -11 12 -4.16429 222.247 3
-5 16 -15 168.09 466.951 1
-11 -5 -15 981.637 460.774 1
16 -5 15 299.006 282.72 2
-11 16 15 -78.823 260.203 4
-5 -11 15 178.674 237.729 3
-11 -5 -15 109.23 108.37 3
-12 16 -13 301.748 267.315 3
-4 -12 -13 188.86 130.384 3
-12 16 -13 305.592 350.726 1
-12 -4 13 5.97333 114.514 4
-4 16 13 90.3592 279.78 3
-4 16 10 315.775 243.12 3
-4 -12 -10 -60.6336 81.2892 3
-12 16 -10 31.984 124.931 3
16 -12 10 97.6939 413.682 2
-12 16 -10 -11.2601 324.16 1
-4 16 10 -35.9348 219.274 4
-12 -4 10 207.608 176.069 4
-4 16 7 1094.63 542.025 3
-4 16 7 505.775 406.135 4
-12 16 -7 701.92 355.369 3
-4 -12 -7 248.934 158.662 2
16 -12 7 429.757 533.94 2
-4 16 7 677.948 220.645 1
-12 16 -7 695.984 280.983 1
-4 -12 -7 246.282 123.121 3
-12 16 -4 10968.6 1998.65 2
16 -12 4 9993.41 1849.23 2
-4 -12 -4 7170.86 1155.79 2
-4 16 4 9593.64 1686.31 4
-4 -12 -4 9204.67 1413.93 3
-4 16 4 9111.3 1562.25 3
-4 16 4 11324.8 1222.68 1
-12 16 -4 10057.9 1737.03 1
-12 16 -1 9513.66 1615.31 2
16 -12 1 6465.13 1342.41 2
-12 -4 1 6766.14 1421.87 2
16 -4 -1 5626.29 1350.34 2
16 -4 -1 7870.49 1348.93 1
-4 16 1 7934.51 1440.88 4
-4 -12 -1 5746.16 1244.11 3
-4 16 1 7472.49 1412.38 3
-4 16 1 6233.79 1031.38 1
-12 16 -1 8001.76 1479.35 1
16 -12 1 8513.93 1589.23 1
-4 16 -2 303.31 161.775 1
-12 16 2 575.877 325.248 1
16 -12 -2 -52.7786 242.208 1
-12 16 2 387.663 78.6183 2
16 -4 2 401.419 351.785 1
-12 -4 -2 179.971 172.875 2
-4 -12 2 463.694 377.952 4
16 -4 2 229.641 166.976 2
16 -12 -2 308.232 114.331 2
-4 16 -2 136.533 93.6005 4
-4 -12 2 269.001 315.69 3
-12 -4 -2 307.321 176.907 1
-4 16 -2 243.769 166.359 3
-4 -12 5 4150.28 1057.77 4
16 -4 5 3823.8 992.92 1
-12 16 5 3965.73 858.873 2
-4 16 -5 3369.13 885.484 1
16 -12 -5 4216.15 1068.22 1
-12 -4 -5 4011.87 1200.21 2
16 -4 5 2980.36 1032.12 2
16 -12 -5 4575.85 854.979 4
-12 16 5 3867.48 869.318 1
-12 16 5 3175.72 818.172 4
-4 -12 5 3716.23 973.203 3
-4 16 -5 3912.09 975.83 3
-12 -4 -5 2752.14 692.001 1
16 -12 -8 621.617 412.439 1
-4 16 -8 1096.43 591.312 1
-12 -4 -8 506.125 296.294 1
-12 -4 -8 101.946 170.5 2
16 -4 8 435.549 353.616 2
16 -12 -8 938.769 381.884 4
-12 16 8 559.615 364.16 2
-12 16 8 679.599 500.017 4
-4 -12 8 1145.28 645.434 4
16 -4 8 203.293 181.539 1
-12 16 8 393.006 285.058 1
-4 -12 8 975.162 765.178 3
-4 16 -8 719.353 503.135 3
-4 16 -11 240.262 474.121 1
-12 -4 -11 423.396 621.927 2
16 -4 11 36.8498 212.336 2
-12 -4 -11 5.9841 157.852 1
-4 -12 11 179.263 268.766 4
-12 16 11 -82.5205 230.264 4
-12 16 11 162.366 141.484 2
-4 -12 11 899.201 484.361 3
-4 16 -14 432.32 395.922 1
-12 -4 -14 469.165 373.771 1
16 -4 14 -390.931 581.269 2
-12 16 14 258.444 95.2927 4
-12 -4 -14 310.972 234.089 3
-4 -12 14 468.144 300.959 3
-13 16 -14 1023.75 556.144 3
-3 -13 -14 362.348 303.668 3
-3 16 14 259.232 182.45 2
16 -13 14 507.823 411.231 2
-13 16 -14 1237.42 682.131 1
-13 -3 14 255.652 196.273 4
-3 16 14 1024.79 547.036 3
-3 -13 -11 849.626 457.978 3
-13 16 -11 908.002 433.221 3
-3 16 11 83.5828 82.2428 2
16 -13 11 777.801 705.777 2
-13 -3 11 900.372 325.47 4
-13 16 -11 933.193 555.97 1
-3 16 11 329.378 203.363 3
-3 -13 -8 4618.92 841.743 2
16 -13 8 5845.23 1760.06 2
-3 16 8 3744.13 1125.5 4
-3 16 8 5905 1246.06 3
-3 -13 -8 6373.82 1241.13 3
-13 16 -8 6237.2 1291.73 3
-13 16 -8 7937.76 1741.95 1
-13 16 -5 10773.6 2395.94 2
16 -13 5 12928.5 2208.83 2
-3 -13 -5 12610.1 1592.25 2
-3 16 5 14487.7 2197.27 4
-3 -13 -5 14078.8 1858.35 3
-3 16 5 14036.3 1912.59 3
-3 16 5 15380.2 1298.92 1
-13 16 -5 15891.2 2339.75 1
-13 16 -2 4526.49 1279.48 2
-3 16 2 4845.58 1214.79 4
16 -13 2 2927.74 920.541 2
16 -3 -2 4391.28 1048.35 1
16 -13 2 3536.42 1093.78 1
-13 -3 2 4670.2 1207.84 2
-3 16 2 3530.02 772.785 1
-3 -13 -2 3543.89 933.074 3
-3 16 2 2872.16 878.089 3
-13 16 -2 4431.66 1250.47 1
-13 -3 -1 687.034 348.77 1
16 -13 -1 1333.89 661.938 1
-3 16 -1 693.668 362.889 1
-13 16 1 1187.29 570.676 1
-13 16 1 1101.1 525.302 2
16 -13 -1 1034.74 566.238 2
-13 -3 -1 375.133 466.445 2
16 -3 1 435.769 367.387 1
-3 16 -1 1398.66 602.796 4
16 -3 1 1016.25 502.318 2
-3 -13 1 514.732 315.637 4
-3 -13 1 887.126 403.001 3
-3 16 -1 901.45 467.567 3
-13 -3 -4 584.343 385.121 1
-3 16 -4 459.822 290.118 1
16 -3 4 812.603 375.177 1
16 -13 -4 428.233 294.841 1
-13 16 4 850.483 393.962 2
-13 -3 -4 484.271 437.27 2
-3 -13 4 -41.5991 196.242 4
16 -3 4 100.652 149.715 2
16 -13 -4 614.937 319.116 4
-13 16 4 459.569 307.285 4
16 -13 -4 215.771 333.667 2
-13 16 4 543.514 237.085 1
-3 -13 4 308.817 256.474 3
-3 16 -4 538.61 439.189 3
-13 -3 -7 9223.42 1968.11 2
16 -3 7 8147.9 1664.08 2
-13 16 7 5533.76 1054.69 2
16 -13 -7 7170.61 1339.16 1
-13 16 7 5805.1 1051.35 1
-13 -3 -7 6408.61 1094.47 1
16 -13 -7 8012.26 1238.17 4
-3 -13 7 7851.46 1483.31 4
-13 16 7 7075.91 1324.61 4
-3 -13 7 7457.27 1461.47 3
-3 16 -7 6902.78 1432.8 1
16 -3 7 8159.15 1499.09 1
-3 16 -10 279.018 268.286 1
-13 -3 -10 -116.284 181.878 2
16 -3 10 593.865 298.817 2
-13 16 10 426.342 228.559 4
-13 -3 -10 457.884 262.308 1
-3 -13 10 308.004 253.789 4
-3 -13 10 365.236 317.463 3
-13 16 10 351.512 119.84 2
-13 16 10 524.644 238.3 1
-3 16 -13 356.555 193.34 1
-13 -3 -13 125.149 78.6515 1
16 -3 13 -172.331 452.689 2
-13 16 13 184.337 202.9 4
-3 -13 13 506.451 436.724 3
-14 16 -12 156.421 147.247 3
-2 -14 -12 295.836 222.686 3
16 -14 12 507.467 551.368 2
-2 16 12 44.9258 89.3732 2
-14 16 -12 -590.271 479.648 1
-14 -2 12 58.3521 95.1171 4
-2 16 12 233.838 291.532 3
-2 -14 -9 883.395 461.655 3
16 -14 9 784.819 644.866 2
-14 16 -9 578.617 537.182 1
-2 16 9 -74.8685 274.487 4
-2 16 9 860.937 361.911 3
-2 -14 -6 1135.33 461.507 3
-2 16 6 1189.3 290.404 1
-2 -14 -6 773.67 284.884 2
16 -14 6 422.411 414.031 2
-14 16 -6 1264.06 519.638 1
16 -2 -6 895.183 237.82 4
-2 16 6 502.893 377.844 4
-2 16 6 957.062 477.853 3
-2 16 3 2000.74 496.102 1
-14 16 -3 1947.06 767.93 2
16 -14 3 792.492 445.567 2
-2 16 3 1524.78 722.729 4
-2 -14 -3 1072.58 340.913 2
-14 16 -3 2181.11 790.177 1
-2 16 3 1423.45 501.161 3
-2 -14 -3 911.515 490.825 3
16 -2 0 2120.73 678.478 1
-2 16 0 2475.81 627.39 1
-14 16 0 2844.36 866.258 1
-14 -2 0 2361.78 682.674 1
-14 16 0 3631.69 986.571 2
-14 -2 0 1919.72 880.423 2
16 -14 0 1040.5 487.787 2
-2 16 0 2248.28 706.554 4
-2 -14 0 2738.84 901.902 4
16 -2 0 2396.42 897.284 2
-2 16 0 2898.2 882.387 3
16 -14 0 2357.81 830.031 1
-2 -14 0 2557.35 793.01 3
-2 16 -3 428.62 320.153 1
-14 -2 -3 602.551 340.24 1
16 -14 -3 316.855 522.777 1
-14 16 3 510.677 344.779 2
16 -2 3 239.001 175.044 1
-14 16 3 265.975 246.815 1
-14 -2 -3 987.161 560.128 2
-2 -14 3 166.472 228.22 4
16 -2 3 211.877 85.3682 2
16 -14 -3 79.5649 214.737 2
16 -14 -3 943.165 585.213 4
-2 16 -3 37.6588 259.424 4
-2 -14 3 385.808 313.225 3
-2 16 -6 2281.89 739.526 1
16 -2 6 2584.15 800.463 1
-14 16 6 2456.4 711.174 1
-14 -2 -6 1562.36 535.18 1
-14 -2 -6 2760.4 959.964 2
16 -14 -6 2399.8 810.114 1
-14 16 6 2151.4 715.391 2
16 -2 6 2747.43 956.83 2
16 -14 -6 2117.26 636.336 4
-2 -14 6 2603.41 852.987 4
-14 16 6 2198.82 673.633 4
-2 -14 6 1994.97 736.401 3
-2 16 -9 1370.78 657.613 1
16 -2 9 1028.57 589.23 2
-14 16 9 837.503 357.345 1
-14 16 9 939.213 444.892 4
-14 16 9 571.569 245.82 2
-14 -2 -9 833.089 418.177 1
16 -14 -9 1049.79 490.155 1
16 -2 9 257.779 57.8601 1
-2 -14 9 1137.2 566.896 3
-2 16 -12 958.293 609.895 1
16 -2 12 273.005 252.853 2
-14 -2 -12 1106.56 582.073 1
-14 16 12 953.722 541.525 4
-14 16 12 704.305 395.891 2
-2 -14 12 1348.24 724.988 3
-15 16 -13 473.548 410.02 3
16 -15 13 759.904 895.471 2
-1 16 13 327.15 6.11502 2
-15 16 -13 302.033 258.721 1
-15 -1 13 113.174 43.001 4
-1 16 13 368.993 344.117 3
-1 -15 -10 1456.58 628.924 3
16 -15 10 1257.38 1050.61 2
-15 16 -10 1407.87 748.904 1
-1 16 10 954.875 475.248 3
-1 -15 -7 3472.53 887.801 3
16 -15 7 5124.18 1528.54 2
16 -1 -7 2883.47 499.178 4
-1 16 7 2521.59 933.74 4
-15 16 -7 4468.66 1308.94 1
-1 16 7 3103.01 901.622 3
-1 -15 -4 2006.71 676.691 3
-15 16 -4 3471.34 1211.15 2
16 -15 4 1713.28 603.519 2
-1 -15 -4 1052.69 422.61 2
-1 16 4 2802.98 906.219 4
-15 16 -4 2856.3 985.999 1
-1 16 4 2872.87 546.393 1
-1 16 4 2674.41 805.981 3
-1 16 1 557.4 271.019 1
-15 16 -1 1143.98 696.577 1
16 -1 -1 294.264 163.206 1
-15 16 -1 1389.95 745.077 2
-15 -1 1 156.483 336.578 2
16 -15 1 732.333 597.13 1
16 -15 1 569.412 150.726 2
-15 -1 1 565.39 241.247 1
-1 16 1 680.351 407.842 4
-1 -15 -1 557.126 445.589 3
-1 16 -2 53.6805 107.633 1
16 -15 -2 558.015 375.357 1
-15 -1 -2 267.845 277.697 1
-15 16 2 601.903 403.53 2
-15 16 2 340.086 278.325 1
-15 -1 -2 578.111 241.325 2
-1 -15 2 710.042 438.951 4
16 -15 -2 190.04 333.701 2
-1 16 -2 487.052 300.331 4
16 -1 2 630.809 481.052 2
16 -15 -2 1197.76 968.716 4
16 -1 2 560.97 430.952 1
-1 -15 2 1059.91 571.609 3
-1 16 -5 1131.58 598.734 1
-15 16 5 1606.24 492.086 1
16 -1 5 2207.56 746.223 1
16 -15 -5 1854.43 729.12 1
-15 -1 -5 983.982 337.907 1
16 -1 5 2714.07 989.65 2
-15 -1 -5 2732.17 940.882 2
-15 16 5 1618.26 676.88 2
-1 -15 5 3580.17 1218.26 4
16 -15 -5 2482.55 779.168 4
16 -15 -5 1499.45 924.042 2
-1 -15 5 2806.53 1026.97 3
-1 16 -8 196.549 191.038 1
-15 16 8 191.489 295.011 1
-15 16 8 605.124 468.924 2
16 -1 8 206.425 99.1051 2
16 -15 -8 365.078 252.351 4
-15 16 8 298.989 170.716 4
-15 -1 -8 436.204 283.865 1
16 -1 8 406.921 177.456 1
16 -15 -8 454.486 378.894 1
-1 -15 8 690.489 570.791 3
-1 16 -11 1243.38 634.639 1
16 -1 11 995.133 588.467 2
-15 -1 -11 1492.8 663.224 1
-15 16 11 1177.97 540.998 4
-15 16 11 931.857 460.488 2
-1 -15 11 1212.19 682.797 3
-1 16 -14 410.859 398.019 1
-15 -1 -14 669.568 511.221 1
16 -1 14 510.323 601.09 2
-15 16 14 307.956 269.707 4
-1 -15 14 188.195 456.637 3
-16 16 -14 394.713 277.166 3
16 -16 14 884.952 928.006 2
0 16 14 -43.1658 167.106 2
-16 16 -14 305.877 300.641 1
0 16 14 495.719 344.344 3
0 -16 -11 148.641 289.225 3
16 -16 11 24.1357 233.16 2
0 16 11 111.716 86.6224 2
-16 16 -11 292.264 523.307 1
0 16 11 -426.086 423.012 3
16 -16 8 6459.49 1835.34 2
0 16 8 3726.64 1106.46 4
0 16 8 5800.09 1258.04 3
0 -16 -8 6721.68 1335.13 3
-16 16 -8 7486.3 1694 1
0 -16 -5 86.8341 49.4193 3
0 16 5 450.489 192.936 1
16 -16 5 -210.471 235.382 2
0 16 5 420.162 316.011 4
-16 0 2 926.134 529.13 1
0 -16 -2 770.998 580.071 3
0 16 2 657.122 462.087 1
-16 16 -2 1641.43 840.164 1
-16 16 -2 925.22 702.912 2
16 -16 2 656.972 504.208 2
0 -16 1 2406.16 856.312 3
16 0 1 2276.8 754.122 1
16 -16 -1 1167.92 603.081 2
-16 16 1 3315.37 983.089 1
-16 16 1 2990.65 902.777 2
-16 0 -1 2296.83 750.739 1
-16 0 -1 2590.14 995.568 2
0 16 -1 2456.2 879.363 4
16 0 1 2331.86 849.446 2
16 -16 -1 3157.99 1044.06 1
16 -16 -4 11900.6 1737.44 1
-16 16 4 11334 1736.28 2
16 0 4 8509.53 1837.41 2
16 -16 -4 11263.4 2763.26 2
16 0 4 10052.4 1597.22 1
-16 16 4 10921.3 1656.45 1
0 16 -4 9873.94 1538.03 4
-16 0 -4 10049.6 1574.56 1
0 -16 4 11715.4 1851.81 3
16 -16 -4 13353.1 1891.43 4
-16 0 -7 406.902 395.93 1
16 0 7 360.769 230.429 1
16 -16 -7 -1.69257 98.8276 1
16 0 7 188.653 243.246 2
-16 16 7 -7.1763 158.74 2
-16 16 7 -272.252 237.822 1
16 -16 -7 220.068 143.079 4
0 16 -10 302.294 289.139 1
16 -16 -10 232.387 258.788 1
16 0 10 186.124 366.192 2
-16 16 10 155.101 168.212 1
-16 0 -10 370.124 317.089 1
16 0 10 520.045 473.189 1
-16 16 10 529.649 416.945 4
-16 16 10 338.721 200.859 2
0 -16 10 376.081 357.755 3
0 -16 13 -50.1395 300.67 3
0 16 -13 -33.7153 524.703 1
-16 0 -13 49.5868 317.745 1
16 0 13 497.744 78.0334 2
-16 16 13 378.8 218.52 4
16 -17 12 833.247 930.828 2
1 16 12 273.006 155.214 2
-17 16 -12 396.56 526.05 1
1 16 12 257.732 298.376 3
1 -17 -9 1389.09 644.209 3
16 -17 9 88.0733 394.822 2
-17 16 -9 796.171 614.263 1
16 -17 6 5836.22 1661.13 2
16 1 -6 4874.18 752.185 4
1 16 6 4027.32 1204.66 4
1 -17 -6 5270.39 1172.43 3
-17 16 -6 5643.35 1530.51 1
1 16 6 5604.78 671.004 1
1 -17 -3 48.6938 79.9379 3
-17 16 -3 282.794 419.646 1
16 -17 3 -154.711 178.174 2
-17 1 3 19.149 306.305 1
1 16 3 485.524 198.884 4
1 -17 0 2013.34 728.966 3
-17 16 0 2875.71 1066.53 1
-17 16 0 2118.99 770.27 2
16 -17 0 456.91 340.875 2
16 -17 0 2298.38 872.334 1
1 16 0 1549.4 663.807 4
-17 1 0 1117.43 528.453 1
1 -17 3 1104.84 567.293 3
-17 16 3 1096.94 667.604 2
-17 1 -3 755.285 475.343 1
16 1 3 800.527 441.315 1
16 -17 -3 647.583 496.163 4
1 16 -3 1242.22 618.327 4
-17 16 3 635.948 466.674 1
16 1 3 924.818 574.825 2
16 -17 -3 610.389 575.28 2
16 -17 -3 1246.92 679.935 1
1 -17 6 1447.31 682.193 3
-17 16 6 1075.52 584.349 2
-17 1 -6 749.029 418.191 1
16 -17 -6 974.055 459.077 1
16 1 6 797.805 516.38 1
-17 16 6 1183.76 546.813 1
16 1 6 922.85 607.066 2
16 -17 -6 857.56 483.304 4
1 -17 9 421.887 518.57 3
16 -17 -9 163.072 87.007 1
16 1 9 629.738 528.232 2
-17 16 9 131.554 170.455 1
-17 16 9 -236.015 173.869 2
-17 16 9 299.531 281.764 4
16 1 9 429.939 290.322 1
-17 1 -9 678.107 424.912 1
1 -17 12 91.1124 186.14 3
-17 1 -12 301.775 238.214 1
16 1 12 148.708 316.818 2
16 1 12 406.889 350.896 1
-17 16 12 -28.2261 223.689 4
16 -17 -12 419.364 236.96 1
16 -18 13 653.702 615.515 2
2 16 13 27.3859 47.9444 2
-18 16 -13 -37.0482 328.461 1
16 -18 10 155.877 132.945 2
2 16 10 -61.0502 55.4242 2
-18 16 -10 355.814 335.506 1
2 -18 -7 1901.7 663.839 3
2 16 7 1465.17 308.706 1
16 -18 7 1042.79 707.225 2
2 16 7 1183.57 589.257 4
2 16 7 1089.39 260.921 1
16 2 -7 2031.11 552.483 4
-18 16 -7 1428.81 536.383 1
2 -18 -4 153.447 45.9725 3
-18 16 -4 -311.72 344.173 1
16 -18 4 424.271 203.359 2
-18 2 4 424.997 297.183 1
2 16 4 22.2318 286.131 4
2 -18 -1 1034.46 566.85 3
-18 16 -1 1411.38 659.066 1
16 -18 1 391.485 272.03 2
2 16 1 606.725 420.494 4
-18 2 1 1069.57 463.82 1
2 -18 2 3174.18 1003.28 3
16 2 2 1775.03 646.842 1
-18 16 2 2846.4 955.995 2
16 -18 -2 3121.2 998.231 1
16 -18 -2 384.774 423.978 2
-18 16 2 2214.03 853.102 1
2 16 -2 1791.16 654.474 4
-18 2 -2 2222.27 750.129 1
16 -18 -2 2025.96 815.46 4
16 2 2 2425.33 963.883 2
2 -18 5 652.917 497.451 3
16 -18 -5 339.378 299.616 1
-18 2 -5 578.877 483.901 1
-18 16 5 94.0356 113.843 1
16 2 5 337.978 376.163 1
-18 16 5 316.801 446.667 2
16 2 5 330.765 433.323 2
2 16 -5 380.067 364 4
16 -18 -5 256.37 681.331 2
16 -18 -5 541.997 437.832 4
2 -18 8 321.846 470.595 3
16 2 8 34.3372 252.368 1
-18 16 8 33.7408 171.968 1
16 -18 -8 -147.227 211.011 1
16 -18 -8 239.469 476.661 4
-18 16 8 55.8173 179.691 2
-18 2 -8 341.505 316.26 1
16 2 8 3.61615 112.267 2
2 -18 11 34.8329 196.064 3
-18 16 11 49.7911 198.581 1
-18 2 -11 457.566 381.049 1
16 -18 -11 172.951 117.375 1
16 2 11 317.802 310.099 2
16 2 11 69.1232 88.0372 1
-18 16 11 -161.676 279.964 4
16 -19 11 221.517 491.485 2
3 16 11 -135.841 83.8273 2
-19 16 -11 792.005 577.48 1
3 16 8 309.464 131.248 1
3 -19 -8 298.71 390.196 3
16 -19 8 321.912 221.112 2
3 16 8 432.586 173.544 1
16 3 -8 235.605 150.32 4
-19 16 -8 311.596 453.927 1
3 -19 -5 467.337 290.173 3
-19 16 -5 231.065 394.616 1
-19 3 5 188.283 129.146 1
16 -19 5 417.811 542.669 2
3 16 5 416.082 421.004 4
16 3 -5 587.636 359.538 4
-19 3 2 101.548 276.623 1
3 -19 -2 349.228 258.436 3
3 -19 -2 -310.782 286.419 2
-19 16 -2 592.802 356.46 1
16 -19 2 165.222 268.618 2
3 16 2 839.732 587.269 4
3 -19 1 2155.74 840.562 3
16 -19 -1 591.721 244.497 2
-19 16 1 3209.16 1112.01 1
3 16 -1 2748.65 988.668 4
-19 3 -1 2736.63 981.919 1
16 3 4 1288.89 551.001 1
3 -19 4 1262.21 641.567 3
16 -19 -4 1479.95 694.38 4
-19 16 4 746.649 338.425 1
-19 3 -4 1100.59 606.373 1
16 -19 -4 851.493 992.855 2
3 16 -4 1291.07 597.965 4
16 3 4 288.994 511.676 2
16 -19 -4 1176.46 517.433 1
3 -19 7 302.342 448.857 3
16 -19 -7 140.306 238.295 1
16 3 7 -93.9048 314.655 1
16 3 7 -188.58 365.233 2
16 -19 -7 -358.677 382.751 4
-19 16 7 285.666 343.867 1
-19 3 -7 275.386 334.648 1
3 -19 10 661.241 192.189 3
16 -19 -10 610.93 407.98 1
-19 3 -10 835.76 561.567 1
16 3 10 1053.28 677.461 2
-19 16 10 139.103 263.501 1
16 3 10 576.75 245.334 1
3 -19 13 877.591 647.623 3
-19 3 -13 1302.56 735.704 1
16 3 13 1011.02 647.999 1
-19 16 13 877.785 437.205 4
16 3 13 845.873 554.002 2
16 -19 -13 578.815 360.715 1
16 -20 12 686.516 672.524 2
4 16 12 -114.835 54.8142 2
-20 16 -12 757.228 651.088 1
16 -20 9 203.731 224.436 2
-20 16 -9 740.575 549.914 1
4 -20 -6 305.709 89.9106 3
-20 16 -6 611.479 394.323 1
4 16 6 64.9632 73.1245 1
16 -20 6 -136.49 535.499 2
4 16 6 561.02 287.845 4
16 4 -6 364.695 287.607 4
4 -20 -3 1337.4 585.953 3
4 -20 -3 1415.22 509.208 2
-20 16 -3 2836.06 984.925 1
-20 4 3 1734.26 749.035 1
16 -20 3 1542.21 805.754 2
4 16 3 2195.55 852.546 4
-20 4 0 282.422 271.134 1
4 -20 0 254.157 267.409 3
4 -20 0 131.055 122.221 2
16 -20 0 140.506 272.943 2
-20 16 0 250.723 276.967 1
4 16 0 195.462 433.621 4
16 4 3 618.744 414.142 1
-20 16 3 698.147 510.969 1
4 -20 3 609.902 528.919 3
-20 4 -3 280.423 147.881 1
16 -20 -3 131.575 422.159 2
16 -20 -3 756.626 322.32 1
4 16 -3 136.916 69.3167 4
16 4 3 444.548 244.477 2
4 -20 6 -257.946 393.093 3
16 4 6 -27.0721 288.187 1
16 4 6 458.042 408.406 2
-20 16 6 152.046 71.4962 1
4 16 -6 -33.7712 329.006 4
16 -20 -6 -38.1593 579.515 2
16 -20 -6 328.867 379.383 1
-20 4 -6 -9.33468 112.223 1
16 4 9 832.978 555.333 1
4 -20 9 543.004 420.632 3
16 -20 -9 414.76 304.642 1
-20 4 -9 415.523 466.499 1
-20 16 9 679.385 424.751 1
16 4 9 273.513 392.493 2
4 -20 12 -1.19339 372.508 3
16 -20 -12 -98.8288 152.282 1
-20 4 -12 196.745 113.043 1
16 4 12 806.845 618.704 2
16 4 12 200.865 246.653 1
16 -21 10 486.028 659.336 2
5 16 10 0.32966 86.684 2
-21 16 -10 349.098 408.892 1
-21 16 -7 1575.53 817.608 1
5 16 7 1152.79 353.281 1
16 -21 7 662.742 721.695 2
16 5 -7 1138.04 486.384 4
5 -21 -4 857.385 592.708 3
5 16 4 1731.12 823.426 4
-21 16 -4 2283.92 976.049 1
5 -21 -4 199.094 59.4859 2
16 -21 4 820.329 625.48 2
16 5 -4 817.414 452.619 4
-21 5 4 113.049 269.735 1
5 -21 -1 1766.86 683.03 3
5 -21 -1 -9.09241 158.809 2
-21 5 1 1312.38 600.229 1
16 -21 1 1154.4 593.299 2
5 16 1 1500.13 746.533 4
-21 16 -1 1795.44 698.852 1
5 -21 2 395.82 353.373 3
-21 5 -2 469.75 88.1693 1
16 -21 -2 25.301 348.843 2
5 16 -2 277.794 262.206 4
-21 16 2 653.065 631.724 1
-21 5 -5 -115.173 141.553 1
5 -21 5 494.147 340.775 3
-21 16 5 30.3123 255.706 1
5 16 -5 155.548 176.088 4
16 -21 -5 234.945 66.3627 1
16 -21 -5 31.8172 420.628 2
16 5 5 103.309 248.956 1
16 5 5 22.7854 227.906 2
5 -21 8 471.069 452.813 3
16 5 8 319.069 375.527 1
-21 16 8 96.5097 91.92 1
16 5 8 556.239 562.474 2
-21 5 -8 62.1395 345.478 1
16 -21 -8 190.659 190.65 1
5 -21 11 730.401 494.626 3
-21 16 11 588.275 391.599 1
16 -21 -11 502.348 343.587 1
-21 5 -11 743.808 481.277 1
16 5 11 598.368 369.949 2
16 5 11 1503.74 668.464 1
-22 16 -11 47.602 366.847 1
16 -22 11 182.562 445.489 2
6 16 11 21.7287 78.83 2
-22 16 -8 864.28 677.567 1
16 -22 8 381.702 393.786 2
6 16 8 1160.48 395.594 1
16 6 -8 881.528 424.779 4
-22 6 5 49.9964 153.08 1
-22 16 -5 386.662 388.389 1
16 -22 5 224.787 422.616 2
6 16 5 -89.9659 221.551 4
16 6 -5 544.841 336.604 4
6 16 5 366.607 180.256 1
6 -22 -2 2210.16 833.314 3
6 -22 -2 1944.82 655.135 2
-22 6 2 2259.33 859.76 1
16 -22 2 1228.19 582.192 2
-22 16 -2 2716.29 1045.14 1
6 16 2 2136.37 860.663 4
6 -22 1 138.826 309.05 3
6 -22 1 -79.8793 222.852 2
16 -22 -1 156.881 154.658 2
-22 6 -1 311.764 332.867 1
6 16 -1 313.095 392.632 4
-22 16 1 580.096 519.661 1
6 -22 4 356.149 169.058 3
-22 6 -4 399.77 382.024 1
6 -22 4 343.028 397.332 2
-22 16 4 549.128 475.522 1
16 -22 -4 379.937 170.196 1
6 16 -4 -144.314 284.234 4
16 -22 -4 649.708 450.249 2
16 6 4 504.12 487.077 2
16 6 4 -22.7452 91.1787 1
-22 16 7 184.242 113.856 1
6 -22 7 428.713 288.753 3
16 6 7 32.06 138.809 1
16 6 7 154.701 399.444 2
16 -22 -7 540.588 395.788 1
6 16 -7 -232.339 68.8656 4
-22 6 -7 571.801 576.541 1
16 -22 -10 97.5041 248.45 1
6 -22 10 320.692 287.716 3
16 6 10 249.034 469.711 2
-22 6 -10 -97.496 367.652 1
-22 16 10 -40.5686 270.634 1
16 6 10 303.225 77.508 1
-23 16 -9 540.124 621.137 1
7 16 9 350.137 297.37 1
16 -23 9 -141.65 430.44 2
16 7 -9 318.416 383.195 4
-23 16 -6 872.579 692.741 1
16 -23 6 637.621 504.102 2
-23 7 6 442.265 485.058 1
7 16 6 24.6723 325.476 4
7 16 6 828.284 344.886 1
16 7 -6 705.498 373.34 4
16 7 -3 1210.45 501.032 4
7 -23 -3 1212 415.37 2
16 -23 3 600.814 403.862 2
-23 16 -3 1814.25 844.344 1
-23 7 3 957.747 558.961 1
7 16 3 1122.14 581.97 4
7 -23 0 689.514 474.009 3
7 -23 0 542.074 376.592 2
16 -23 0 882.04 566.605 2
7 16 0 1312.03 651.801 4
-23 7 0 554.696 298.309 1
-23 16 0 1310.63 824.791 1
7 -23 3 495.494 580.469 3
7 -23 3 262.96 112.796 2
-23 16 3 594.84 542.712 1
-23 7 -3 996.829 669.71 1
16 -23 -3 298.873 236.757 2
7 16 -3 248.388 212.917 4
7 -23 6 749.446 573.784 3
7 -23 6 213.794 248.412 2
16 -23 -6 211.713 231.277 1
7 16 -6 396.355 348.384 4
16 7 6 240.742 451.896 2
-23 16 6 41.8465 356.032 1
16 -23 -6 754.806 857.91 2
-23 7 -6 242.525 409.13 1
16 7 6 398.395 317.032 1
-23 16 9 249.989 376.085 1
7 -23 9 264.116 347.6 3
16 7 9 790.897 545.892 1
16 7 9 33.8342 330.02 2
-23 7 -9 1072.13 717.028 1
16 -23 -9 431.278 307.816 1
8 16 7 457.897 168.192 1
-24 8 7 743.741 432.674 1
-24 16 -7 817.343 714.197 1
16 -24 7 924.344 764.728 2
16 8 -7 49.5378 143.947 4
8 -24 -4 639.871 340.122 1
8 16 4 624.126 443.023 4
16 -24 4 289.616 284.596 2
8 -24 -4 467.348 218.331 2
-24 16 -4 990.315 524.156 1
16 8 -4 628.874 367.554 4
-24 8 4 390.105 482.155 1
8 16 4 700.57 387.652 1
8 -24 -1 59.5861 278.531 2
16 -24 1 -28.6448 314.824 2
8 16 1 422.254 375.164 4
-24 16 -1 222.031 186.296 1
-24 8 1 -413.481 408.451 1
8 -24 2 480.176 416.789 3
-24 16 2 488.462 452.123 1
8 -24 2 -15.4214 288.877 2
-24 8 -2 619.044 510.504 1
16 -24 -2 171.033 329.418 2
8 16 -2 104.852 273.396 4
-24 8 -5 1306.28 614.425 1
8 -24 5 931.175 697.948 3
8 -24 5 403.532 447.394 2
-24 16 5 812.269 507.224 1
16 -24 -5 986.07 487.859 1
8 16 -5 785.693 439.833 4
16 -24 -5 1274.94 1333.29 2
16 8 5 964.479 761.325 2
8 -24 8 327.205 351.792 3
8 -24 8 -61.4754 346.308 2
16 8 8 17.2498 286.912 1
-24 16 8 444.244 421.255 1
16 -24 -8 471.612 382.505 1
-24 8 -8 168.115 420.659 1
16 8 8 -71.998 161.156 2
8 16 -8 354.997 377.924 4
9 -25 -8 -35.2845 60.6848 1
16 -25 8 90.974 349.703 2
-25 16 -8 326.447 306.133 1
9 16 8 -7.43761 247.281 1
-25 9 8 -97.8337 251.437 1
16 9 -8 290.197 482.812 4
9 -25 -5 419.434 384.976 1
-25 9 5 -226.172 164.224 1
16 -25 5 138.579 307.101 2
-25 16 -5 419.777 566.367 1
9 16 5 5.0382 211.974 4
16 9 -5 286.883 173.982 4
9 -25 -5 -195.089 439.373 2
9 16 5 161.099 175.525 1
9 -25 -2 130.229 197.46 1
-25 9 2 783.968 658.549 1
-25 16 -2 527.433 354.418 1
9 -25 -2 114.63 245.199 2
16 -25 2 -97.6905 159.415 2
9 16 2 16.1081 189.793 4
16 9 -2 188.123 56.3436 4
9 16 2 -115.525 346.228 1
-25 16 1 260.458 116.948 1
9 -25 1 585.397 461.775 2
-25 9 -1 977.742 712.771 1
16 -25 -1 513.536 407.938 2
9 16 -1 436.942 462.087 4
-25 9 -4 282.005 139.502 1
9 -25 4 94.1007 195.261 2
-25 16 4 56.4121 220.142 1
16 -25 -4 369.395 588.451 2
9 16 -4 213.614 216.681 4
9 -25 7 426.746 538.132 2
-25 16 7 812.545 559.486 1
16 9 7 -507.134 519.015 1
16 -25 -7 261.328 355.531 1
-25 9 -7 434.69 529.896 1
9 16 -7 174.943 184.053 4
16 9 7 557.003 437.249 2
10 -26 -6 -317.602 264.951 1
16 -26 6 8.29354 73.8945 2
10 16 6 254.175 258.877 1
-26 10 6 180.733 289.648 1
-26 16 -6 -194.69 356.023 1
16 10 -6 419.316 213.706 4
10 -26 -3 283.58 282.677 1
-26 10 3 479.017 542.681 1
16 -26 3 1161.32 692.273 2
10 -26 -3 444.226 254.702 2
10 16 3 423.145 519.259 4
16 10 -3 140.056 243.414 4
-26 16 -3 1098.29 719.162 1
10 16 3 500.056 411.483 1
-26 16 0 256.117 180.112 1
10 16 0 382.19 295.937 4
10 -26 0 743.308 565.392 2
16 -26 0 243.548 273.511 2
-26 10 0 73.6431 181.454 1
16 10 0 -78.9949 226.055 4
-26 10 -3 22.3532 110.006 1
10 -26 3 197.804 554.449 2
-26 16 3 732.656 482.149 1
16 -26 -3 22.7234 315.411 2
10 16 -3 551.566 379.745 4
-26 16 6 269.041 158.145 1
10 -26 6 332.212 531.61 2
10 16 -6 -391.365 414.177 4
16 -26 -6 291.719 851.302 2
-26 10 -6 634.928 394.794 1
11 -27 -4 438.836 267.323 1
11 16 4 328.311 362.973 1
16 -27 4 738.022 524.723 2
-27 11 4 896.852 612.719 1
11 16 4 713.457 488.856 4
16 11 -4 -62.59 218.631 4
-27 16 -4 1435.72 925.376 1
11 -27 -1 851.791 584.146 2
16 -27 1 748.193 630.982 2
16 11 -1 1259.78 760.917 4
11 16 1 1301.53 804.039 4
-27 11 1 1622.11 887.861 1
-27 16 -1 879.293 464.878 1
-27 11 -2 258.487 393.111 1
11 -27 2 624.019 334.272 2
-27 16 2 18.1026 175.73 1
16 -27 -2 218.354 177.416 2
11 16 -2 470.708 522.974 4
11 -27 5 -103.021 270.783 2
16 -27 -5 791.82 920.927 2
11 16 -5 348.867 428.319 4
-27 16 5 602.894 598.364 1
-27 11 -5 552.733 616.35 1
16 -28 2 131.535 274.185 2
12 -28 -2 -18.9973 202.745 2
12 16 2 490.107 509.019 4
16 12 -2 -4.26594 444.594 4
-28 12 2 308.74 314.54 1
-28 16 -2 622.953 594.335 1
-28 16 1 623.476 558.775 1
12 -28 1 133.61 251.191 2
-28 12 -1 753.614 554.541 1
16 12 1 380.663 341.593 4
12 16 -1 124.262 152.583 4
-28 12 -4 689.406 605.379 1
12 -28 4 165.06 414.525 2
16 -28 -4 -120.337 350.783 2
12 16 -4 169.659 375.345 4
-28 16 4 -79.51 292.406 1
-8 17 14 442.955 356.438 3
-9 17 -14 918.427 695.603 1
17 -9 14 324.979 361.736 2
-8 17 14 581.964 383.162 4
-8 -9 -14 482.161 223.211 1
-9 -8 14 1070.21 498.537 4
-9 17 -14 725.677 408.328 3
-8 -9 -14 573.917 372.037 3
-8 17 11 560.905 414.24 3
-8 -9 -11 548.311 496.426 2
-9 17 -11 413.918 416.867 1
-8 -9 -11 313.836 187.675 1
17 -9 11 222.444 326.397 2
-8 17 11 204.412 316.755 4
-9 -8 11 902.954 461.493 4
-8 -9 -11 863.235 409.218 3
-9 17 -11 245.115 297.252 3
-9 17 -8 1115.03 540.14 3
-8 17 8 862.594 489.955 3
-9 17 -8 160.038 244.574 1
-8 -9 -8 655.593 389.972 2
-8 17 8 802.249 295.863 1
17 -9 8 1192.77 773.383 2
-8 17 8 39.7261 54.1476 2
-9 -8 8 634.022 379.175 4
-8 17 8 735.871 536.803 4
-8 -9 -8 1169.54 511.899 3
-8 -9 -8 1075.68 335.973 1
-9 17 -5 2155.48 740.545 3
-8 17 5 2762.91 866.049 3
-8 17 5 2087.65 566.428 1
-8 17 5 1124.47 343.91 2
-9 17 -5 2006.24 742.23 1
17 -9 5 2197.43 805.709 2
-8 -9 -5 2206.55 796.63 2
-9 -8 5 1728.34 686.786 4
-8 17 5 2150.94 828.846 4
-8 -9 -5 1909.8 629.776 3
-8 17 2 736.223 520.868 3
-9 17 -2 613.134 498.676 3
17 -9 2 1680.92 772.509 1
-8 17 2 492.593 81.5076 2
-9 17 -2 671.637 391.295 1
17 -9 2 1691.26 613.423 2
17 -8 -2 1327.62 562.558 1
-8 17 2 660.406 425.298 1
-8 -9 -2 1051.33 533.218 2
-8 17 2 1316.75 569.285 4
17 -8 -2 2523.12 1039.96 2
-8 17 -1 986.252 336.902 3
-9 17 1 990.218 496.343 3
-9 17 1 780.764 132.813 2
17 -8 1 2683.17 863.591 1
-8 17 -1 1224.44 609.404 1
17 -9 -1 2889.15 858.575 1
17 -8 1 2685.09 929.999 2
-9 17 1 859.033 405.668 1
-9 17 1 793.017 407.757 4
-9 -8 -1 1119.7 474.302 2
17 -9 -1 1084.38 606.507 2
17 -8 4 1057.71 629.847 1
-8 17 -4 572.725 446.749 3
-9 17 4 361.25 328.099 3
-9 17 4 375.7 264.298 1
-9 17 4 522.597 138.835 2
-8 17 -4 569.597 316.491 1
17 -8 4 482.572 455.286 2
-9 -8 -4 482.097 563.612 2
-9 17 4 219.935 84.8006 4
-8 -9 4 -21.2879 217.269 4
17 -9 -4 259.853 78.4973 1
-8 17 -7 -45.4569 125.919 3
-9 17 7 531.393 292.039 1
-9 17 7 176.607 260.647 3
-8 17 -7 345.398 260.843 1
-9 -8 -7 452.873 382.595 2
-9 17 7 60.8961 42.2584 2
17 -8 7 255.273 167.693 2
-9 17 7 214.763 212.09 4
-8 -9 7 -182.327 438.62 4
17 -9 -7 455.78 224.808 4
-9 -8 -7 315.48 218.496 1
-9 17 10 836.452 425.389 3
-9 -8 -10 628.845 406.444 2
-8 17 -10 850.279 440.081 1
-9 -8 -10 577.47 281.796 1
17 -8 10 73.3915 263.97 2
-8 -9 10 686.614 464.702 4
-9 17 10 326.127 151.51 2
-9 -8 -10 420.108 215.144 3
-8 17 -10 1155.64 505.445 3
-9 17 10 861.07 539.98 4
-9 17 13 -161.644 269.808 3
-8 17 -13 -57.1105 232.141 1
17 -8 13 -217.146 126.597 2
-9 17 13 498.366 462.308 4
-9 -8 -13 3.68877 24.0179 1
-8 -9 13 57.8615 189.179 4
-9 -8 -13 -50.3218 188.223 3
-7 -10 -15 324.646 353.76 3
-7 17 15 101.795 184.316 3
-7 -10 -15 308.689 158.082 1
-10 17 -15 133.255 429.9 1
17 -10 15 -424.927 752.885 2
-10 -7 15 24.0088 103.044 4
-10 17 -15 229.213 239.744 3
-7 17 12 310.501 37.1739 3
-7 17 12 1.13821 68.9066 4
-10 17 -12 493.41 466.064 1
17 -10 12 582.504 672.218 2
-7 -10 -12 329.672 145.953 1
-10 -7 12 831.657 387.98 4
-7 -10 -12 750.111 443.716 3
-10 17 -12 553.732 162.809 3
-10 17 -9 1265.34 534.302 3
-7 17 9 550.95 331.606 3
-7 -10 -9 500.507 376.682 2
-10 17 -9 1402.7 695.122 1
-10 -7 9 1064.14 484.854 4
17 -10 9 969.959 538.79 2
-7 -10 -9 1145.58 367.96 1
-7 17 9 677.7 222.075 1
-7 17 9 166.152 79.2924 2
-7 17 9 1039.99 557.216 4
-7 -10 -9 1177.34 492.914 3
-7 17 6 534.69 226.645 3
-10 17 -6 843.263 451.342 3
-7 17 6 481.578 237.576 1
-10 17 -6 403.97 88.9207 1
-7 -10 -6 575.224 347.47 2
17 -10 6 783.986 406.673 2
-7 17 6 1209.41 605.818 4
-7 -10 -6 86.456 123.946 3
-7 17 3 1541.18 579.036 3
-10 17 -3 2611.72 886.975 3
-10 17 -3 2530.14 826.253 1
17 -10 3 2470.8 791.527 2
-7 -10 -3 2195.09 760.238 2
-7 17 3 1753.9 694.777 4
-7 17 3 2073.96 608.873 1
-7 -10 -3 2035.2 637.838 3
17 -7 -3 2338.89 813.013 2
-10 17 0 4141.7 1200.01 2
17 -10 0 5076.65 1186.19 1
-10 -7 0 5642.26 1160.71 2
17 -7 0 5222.72 1194.28 1
17 -10 0 3933.44 1052.86 2
17 -7 0 4093.24 1075.65 2
-7 17 0 4421.5 988.834 4
-7 17 0 5065.83 1153.21 3
-10 17 0 5145.19 1132.78 3
-7 17 0 6313.95 1157.83 1
-10 17 0 5199.02 1133.27 1
-7 17 -3 1088.15 575.278 3
-10 17 3 759.401 383.194 1
-10 17 3 797.906 308.007 3
17 -7 3 743.77 489.061 1
-10 17 3 834.503 345.116 2
-7 17 -3 630.601 347.848 1
-7 -10 3 555.951 279.783 4
17 -7 3 1027.16 617.865 2
17 -10 -3 604.835 332.527 1
-10 -7 -3 370.361 174.303 2
-10 17 3 875.944 418.395 4
17 -10 -3 975.041 545.582 2
-7 17 -6 1491.58 608.308 3
-7 17 -6 802.695 406.099 1
-10 17 6 931.802 356.76 2
-10 -7 -6 2442.01 1024.73 2
17 -7 6 1445.67 716.476 2
-10 17 6 1403.5 487.517 1
-7 -10 6 1633.13 628.27 4
-10 17 6 987.026 464.615 4
17 -10 -6 1656.03 450.122 4
-10 -7 -6 842.96 310.536 1
-7 17 -9 2550.74 910.528 1
-10 17 9 2493.78 561.408 1
-10 -7 -9 2582.92 875.965 2
17 -7 9 2957.78 1117.89 2
-10 -7 -9 2036.42 532.433 1
-10 17 9 2379.25 573.986 2
-7 -10 9 2028.19 707.452 4
-10 17 9 2364.68 871.159 4
-10 -7 -12 289.087 291.816 2
-7 17 -12 145.295 236.084 1
17 -7 12 -165.1 135.253 2
-10 17 12 -262.966 261.365 4
-7 -10 12 -310.852 409.104 4
-10 -7 -12 147.381 85.2977 1
-7 -10 12 13.7025 200.9 3
-10 -7 -12 65.2498 90.4458 3
-7 17 -15 127.407 528.991 1
17 -7 15 44.9881 309.86 2
-10 -7 -15 78.7977 86.9072 1
-10 17 15 -156.41 226.441 4
-7 -10 15 1062.02 677.721 4
-7 -10 15 63.9707 178.405 3
-10 -7 -15 307.892 345.034 3
-6 -11 -13 575.249 302.581 3
-6 17 13 338.461 409.658 3
17 -11 13 411.368 698.06 2
-11 17 -13 -11.6004 218.71 1
-6 -11 -13 91.7661 116.027 1
-6 17 13 -2.14578 298.533 4
-11 -6 13 66.5002 137.886 4
-11 17 -13 -114.009 107.206 3
-6 17 10 313.547 216.051 3
-11 17 -10 407.643 365.436 3
-6 -11 -10 638.879 441.158 2
17 -11 10 346.973 354.963 2
-11 17 -10 494.662 373.094 1
-6 17 10 141.246 114.932 4
-11 -6 10 196.912 90.0376 4
-6 -11 -10 429.261 236.1 3
-6 17 7 540.168 345.243 3
-11 17 -7 393.916 293.914 3
-6 -11 -7 560.783 301.961 2
17 -11 7 580.1 539.14 2
-11 17 -7 264.921 361.817 1
-6 17 7 688.205 492.705 4
-6 17 7 140.144 174.353 1
-6 -11 -7 341.347 299.23 3
-6 17 4 1807.36 679.702 3
-11 17 -4 2690.51 857.654 3
-11 17 -4 3281.29 1032.99 2
17 -11 4 1802.01 752.093 2
-11 17 -4 2800.47 992.28 1
-6 17 4 2293.38 847.716 4
-6 17 4 2134.27 578.531 1
-6 -11 -4 2270.78 756.769 3
-6 -11 -4 2125.48 686.583 2
-6 17 1 3784.81 963.121 3
17 -11 1 2744.27 819.815 1
-11 17 -1 2091.71 920.851 2
-6 17 1 3812.12 851.035 1
17 -11 1 1940.33 708.176 2
-11 17 -1 3519.33 931.767 1
17 -6 -1 2833.84 821.37 1
17 -6 -1 3039.29 1090.98 2
-6 17 1 2648.85 744.12 4
-11 -6 1 3421.26 967.218 2
-6 -11 -1 3512.58 877.517 3
-6 17 -2 405.593 248.595 3
-11 17 2 615.775 348.035 1
17 -6 2 641.205 497.878 2
-11 17 2 117.214 309.23 2
-6 17 -2 541.587 371.098 1
17 -6 2 114.011 151.74 1
17 -11 -2 113.895 73.907 1
-11 -6 -2 197.36 127.316 2
-6 -11 2 619.238 452.483 3
17 -11 -2 709.701 612.654 2
-11 17 2 334.535 155.249 4
17 -6 5 2851.84 840.301 1
-6 17 -5 2562.66 807.873 1
-11 17 5 2611.93 609.111 2
-11 -6 -5 3152.79 987.752 2
-11 17 5 2726.39 720.243 1
17 -6 5 2833.59 1007.45 2
-6 -11 5 2099.18 740.389 4
-11 17 5 2782.44 790.313 4
17 -11 -5 2680.18 611.905 4
17 -11 -5 2830.14 850.215 1
-6 -11 5 3064.21 982.226 3
-11 -6 -5 1876.61 512.066 1
-6 17 -5 3231.25 958.097 3
-6 17 -8 -86.9564 380.689 1
-11 -6 -8 642.484 531.136 2
17 -6 8 316.653 155.451 2
-11 -6 -8 273.284 197.256 1
-11 17 8 278.468 246.445 1
-11 17 8 165.736 161.032 2
-6 -11 8 379.717 302.108 4
-11 17 8 658.616 498.493 4
17 -11 -8 301.375 240.819 4
-6 -11 8 57.5629 90.9523 3
-6 17 -11 2098.42 894.452 1
-11 -6 -11 294.41 119.95 2
17 -6 11 935.221 628.597 2
-11 17 11 1150.24 546.27 4
-6 -11 11 1426.43 708.065 4
-11 17 11 928.712 359.943 2
-6 -11 11 1308.75 642.897 3
-11 -6 -11 1021.49 364.287 1
-6 17 -14 769.416 511.244 1
17 -6 14 772.002 749.718 2
-11 17 14 379.439 374.193 4
-11 -6 -14 596.931 329.23 1
-6 -11 14 385.95 50.8677 4
-6 -11 14 1008.33 542.879 3
-11 -6 -14 636.139 340.797 3
-5 -12 -14 427.859 231.846 3
17 -12 14 -221.691 241.703 2
-12 17 -14 576.368 522.066 1
-12 -5 14 247.92 226.273 4
-12 17 -14 327.127 445.023 3
-5 17 14 -58.1925 267.937 3
-5 -12 -11 1406.01 581.538 3
-5 17 11 1828.61 717.405 3
-12 17 -11 1297.61 566.289 3
17 -12 11 1352.61 939.638 2
-12 17 -11 1829.66 881.909 1
-5 17 11 654.832 433.23 4
-12 -5 11 669.843 327.961 4
-5 17 8 758.598 421.213 3
-12 17 -8 1423.9 685.242 3
-5 -12 -8 1101.2 528.41 2
-5 17 8 1057.42 272.548 1
17 -12 8 1088.41 728.042 2
-12 17 -8 1602.46 823.153 1
-5 17 8 1644.04 746.398 4
-5 -12 -8 971.761 534.67 3
-5 17 5 250.51 137.298 3
-12 17 -5 454.622 322.641 3
-12 17 -5 507.253 404.601 2
17 -12 5 -259.667 490.801 2
-5 -12 -5 779.545 402.648 2
-12 17 -5 581.136 238.571 1
-5 17 5 835.43 596.775 4
-5 17 5 513.418 271.673 1
-5 -12 -5 820.472 480.813 3
-5 17 2 1699.38 672.754 3
-5 17 2 2078.11 786.846 4
-12 17 -2 2617.66 976.117 2
-5 17 2 2345.55 660.619 1
17 -12 2 1643.58 633.98 2
-12 17 -2 2497.44 830.978 1
-5 -12 -2 1546.27 450.813 2
17 -5 -2 2540.58 909.338 2
-12 -5 2 2669.28 878.07 2
-5 -12 -2 2096.24 684.851 3
-5 17 -1 286.295 202.127 3
-12 17 1 445.329 365.984 1
17 -12 -1 541.14 346.045 1
-5 17 -1 147.208 118.002 1
-12 17 1 914.812 460.446 2
17 -5 1 212.194 179.099 1
17 -12 -1 895.986 491.764 2
-12 -5 -1 67.5238 187.801 2
17 -5 1 576.839 494.146 2
-5 17 -1 105.024 223.538 4
-5 -12 1 596.826 451.199 3
-5 17 -4 1839.08 647.57 1
17 -5 4 2087.01 780.459 1
-12 17 4 1965.6 623.518 2
-12 17 4 2002.21 594.793 1
17 -12 -4 1977.58 768.805 1
-12 -5 -4 2587.57 988.242 2
17 -5 4 1676.2 805.647 2
-5 -12 4 2335.9 857.678 4
-12 17 4 1546.44 557.931 4
17 -12 -4 2700.3 854.623 4
17 -12 -4 1158.5 671.247 2
-5 -12 4 1498.1 648.557 3
-12 -5 -4 1707.75 508.27 1
-5 -12 7 145.742 407.821 4
-5 17 -7 188.442 334.655 1
-12 17 7 556.689 351.778 1
-12 -5 -7 299.39 40.6529 2
17 -5 7 319.307 350.27 2
-12 17 7 495.78 269.609 2
-12 -5 -7 472.617 272.26 1
17 -12 -7 430.128 205.114 4
-12 17 7 435.084 353.496 4
-5 -12 7 782.626 572.802 3
-5 17 -10 3.57394 117.687 1
-12 -5 -10 343.62 168.852 2
-12 17 10 -32.4785 35.383 1
17 -5 10 538.997 345.906 2
-12 17 10 642.062 437.54 4
-5 -12 10 108.397 87.6814 4
-12 17 10 547.216 382.393 2
-5 -12 10 469.785 469.291 3
-12 -5 -10 209.15 244.476 1
-5 17 -13 185.472 434.698 1
17 -5 13 340.929 440.957 2
-12 -5 -13 3.38481 162.327 1
-12 17 13 154.253 293.681 4
-12 -5 -13 477.698 367.548 3
-5 -12 13 292.186 329.005 3
-4 -13 -12 1585.05 611.797 3
-13 17 -12 1264.66 608.026 3
-4 17 12 100.308 106.642 2
-13 -4 12 1043.49 406.873 4
17 -13 12 381.715 719.878 2
-13 17 -12 1228.45 644.229 1
-4 17 12 597.14 452.399 4
-4 17 12 759.743 493.885 3
-4 -13 -9 -17.2038 147.855 3
-13 17 -9 -230.277 281.453 3
-4 -13 -9 11.1546 117.266 2
17 -13 9 32.1618 149.782 2
-13 17 -9 -148.134 388.361 1
-4 17 9 -81.0291 135.546 4
-4 17 9 -45.996 287.402 3
-4 17 6 1926.5 786.769 4
-4 -13 -6 1824.82 591.746 2
17 -13 6 1954.41 923.76 2
-13 17 -6 2133.35 921.109 1
-4 -13 -6 2110.16 658.622 3
-4 17 6 1876.25 446.236 1
-4 17 6 2156.55 748.263 3
-13 17 -3 1616.98 933.229 2
-4 17 3 2599.18 657.174 1
17 -13 3 1571.21 488.226 2
-13 17 -3 1860.6 792.587 1
-4 -13 -3 1995.82 620.76 2
-4 17 3 2931.14 952.711 4
-4 -13 -3 1949.59 699.075 3
-4 17 3 2875.37 859.723 3
-13 17 0 159.964 192.094 1
17 -13 0 55.3642 373.158 1
-4 17 0 271.433 213.315 1
-13 17 0 1045.35 575.953 2
-4 17 0 560.491 310.397 4
17 -13 0 5.94147 273.214 2
-13 -4 0 501.705 430.531 2
17 -4 0 1019.45 582.055 2
17 -4 0 671.426 280.785 1
-4 -13 0 440.475 225.294 3
-13 -4 -3 1123.96 472.484 1
-4 17 -3 1660.59 596.854 1
17 -13 -3 1848.46 744.809 1
-13 17 3 1876.65 642.675 1
17 -4 3 1952.2 757.597 1
-13 17 3 1820.13 618.247 2
-4 -13 3 1645.47 740.264 4
17 -4 3 1459.46 709.903 2
17 -13 -3 1909.02 919.234 2
-4 17 -3 708.356 444.51 4
-4 -13 3 1718.15 676.105 3
-13 -4 -3 2191.71 834.026 2
-13 17 6 715.586 252.345 1
17 -4 6 1098.44 551.293 1
-4 17 -6 920.704 564.677 1
-13 -4 -6 574.976 567.206 2
-13 17 6 621.976 347.237 2
17 -4 6 890.899 620.13 2
17 -13 -6 1478.17 678.935 1
-4 -13 6 973.295 444.456 4
-13 -4 -6 714.246 394.739 1
17 -13 -6 1422.13 508.144 4
-13 17 6 547.57 66.3247 4
-4 -13 6 848.845 571.049 3
-13 -4 -9 346.864 290.641 1
-4 17 -9 720.655 296.852 1
-13 17 9 344.773 314.384 1
-13 -4 -9 36.16 298.552 2
17 -4 9 683.331 648.169 2
-13 17 9 269.63 295.109 2
-13 17 9 311.909 96.6684 4
-4 -13 9 879.92 626.968 4
-4 -13 9 766.123 633.771 3
-13 17 12 -16.5741 77.95 2
-4 17 -12 86.2342 279.21 1
17 -4 12 813.822 722.102 2
-13 -4 -12 271.62 241.864 1
-13 17 12 440.072 479.411 4
-4 -13 12 257.208 305.794 3
-14 17 -13 1028.57 535.958 3
-3 -14 -13 1586.4 643.632 3
-3 17 13 251.892 154.854 2
17 -14 13 1089.85 972.299 2
-14 17 -13 1520.12 885.134 1
-14 -3 13 998.837 361.719 4
-3 17 13 647.245 363.878 3
-3 -14 -10 646.022 351.516 3
-14 17 -10 97.4876 80.8243 3
17 -14 10 519.471 612.816 2
-14 17 -10 366.044 386.774 1
-3 17 10 -203.646 437.096 4
-3 17 10 410.377 300.843 3
-3 -14 -7 3869.37 991.403 3
-3 17 7 3433.01 541.23 1
-3 -14 -7 1647.3 510.831 2
17 -14 7 4791 1454.58 2
-3 17 7 3038.01 1069.05 4
-14 17 -7 4183.5 1276.09 1
-3 17 7 3745.74 1028.9 3
-14 17 -4 772.966 541.635 2
-3 17 4 989.443 347.429 1
17 -14 4 459.392 202.563 2
-3 -14 -4 1043.99 419.684 2
-3 17 4 823.815 361.432 4
-14 17 -4 1070.31 510.704 1
-3 -14 -4 798.159 451.41 3
-14 17 -1 -488.224 304.667 1
-3 17 1 326.76 309.361 1
-14 17 -1 366.888 383.682 2
17 -14 1 -24.2064 359.856 2
-3 17 1 -157.535 331.974 4
-14 -3 1 294.11 401.089 2
17 -3 -1 -114.163 247.979 2
-3 -14 -1 208.164 212.696 3
-3 17 -2 1402.09 496.349 1
17 -14 -2 1894.41 777.014 1
-14 -3 -2 1061.12 469.145 1
-14 17 2 1739 653.673 1
-14 17 2 1505.9 577.469 2
17 -3 2 871.447 483.671 1
-3 -14 2 931.768 516.176 4
-14 -3 -2 1519.42 703.07 2
17 -3 2 945.677 589.326 2
17 -14 -2 892.833 645.76 2
-3 17 -2 874.17 469.585 4
-3 -14 2 1151.1 585.636 3
17 -14 -5 2076.89 692.315 4
-3 17 -5 1721.11 733.467 1
17 -3 5 1948.37 649.175 1
17 -14 -5 2081.73 795.515 1
-14 -3 -5 1576.21 722.22 2
-14 17 5 2081.56 706.097 2
17 -3 5 1254.17 610.817 2
-3 -14 5 1889.9 792.293 4
-14 17 5 1438.86 536.143 4
-14 -3 -5 1613.61 538.964 1
-14 17 5 2001.34 731.669 1
17 -14 -5 2376.43 1255.49 2
-3 -14 5 1247.97 619.915 3
-3 17 -8 122.494 133.445 1
-14 -3 -8 253.912 255.797 1
-14 -3 -8 453.315 478.83 2
17 -3 8 298.423 296.2 2
17 -14 -8 424.446 309.838 4
-14 17 8 343.029 372.914 2
-3 -14 8 326.966 454.909 4
-14 17 8 313.217 282.102 1
-14 17 8 -149.15 308.615 4
-3 -14 8 374.275 384.735 3
-3 17 -11 386.255 232.312 1
-14 17 11 579.894 342.049 1
17 -3 11 853.205 613.35 2
-14 -3 -11 1268.1 524.795 1
-14 17 11 124.608 151.22 4
-14 17 11 487.801 318.971 2
-3 -14 11 1012.95 623.435 3
-3 17 -14 -227.754 585.269 1
-14 -3 -14 148.58 288.253 1
17 -3 14 461.219 503.205 2
-14 17 14 602.245 481.376 4
-3 -14 14 -26.6699 253.025 3
-15 17 -14 449.213 370.453 3
17 -15 14 885.577 915.657 2
-15 17 -14 1393.35 883.313 1
-15 -2 14 262.264 106.979 4
-2 17 14 367.07 341.286 3
-2 -15 -11 47.7491 204.988 3
17 -15 11 112.562 263.337 2
-15 17 -11 245.335 416.678 1
-2 17 11 282.609 395.27 3
-2 -15 -8 802.308 477.54 3
-15 17 -8 644.11 410.21 1
17 -15 8 -13.5804 385.218 2
-2 17 8 647.083 427.419 4
-2 -15 -5 2142.8 685.986 3
17 -15 5 2521.05 978.036 2
-2 -15 -5 1339.65 555.709 2
-2 17 5 2687.14 981.991 4
-15 17 -5 2688.45 958.817 1
-2 17 5 3650.81 653.873 1
-2 17 2 2577.41 609.217 1
-15 17 -2 4152.06 1274.71 2
17 -15 2 2114.17 835.476 2
-2 17 2 2866.79 937.799 4
-2 -15 -2 2862.81 845.361 3
-15 17 -2 4015.29 1181.11 1
17 -15 -1 1258.25 558.088 1
-2 17 -1 1309.01 537.924 1
-15 17 1 2377.04 814.253 1
-15 -2 -1 1537.9 534.685 1
-15 17 1 3120.8 898.575 2
17 -15 -1 829.943 482.25 2
-15 -2 -1 2185.04 873.24 2
-2 17 -1 1428.31 597.897 4
17 -2 1 1358.04 642.923 2
17 -2 1 1944.77 720.166 1
-2 -15 1 1712.32 705.814 3
-2 17 -4 224.294 295.98 1
17 -15 -4 331.174 315.658 1
17 -2 4 713.667 428.486 1
-15 17 4 580.244 589.374 2
-15 -2 -4 125.85 252.271 2
-2 -15 4 285.046 347.715 4
17 -2 4 918.594 493.966 2
-15 17 4 495.929 380.809 1
17 -15 -4 661.387 502.318 4
-2 17 -4 -50.0096 241.377 4
17 -15 -4 496.68 720.728 2
-2 -15 4 299.73 321.405 3
-15 -2 -4 195.227 239.474 1
17 -2 7 432.255 358.365 1
-2 17 -7 473.501 525.08 1
-15 -2 -7 323.043 342.51 1
-15 17 7 100.065 254.722 1
17 -15 -7 378.653 270.393 4
17 -15 -7 -54.4685 88.1394 1
17 -2 7 35.2686 114.249 2
-15 17 7 504.052 368.284 2
-15 17 7 -33.6823 193.49 4
-2 -15 7 426.118 446.357 3
-2 17 -10 271.103 202.866 1
-15 17 10 260.67 274.698 1
17 -2 10 157.784 461.319 2
-15 17 10 284.985 294.854 4
-15 17 10 273.482 264.99 2
-15 -2 -10 382.4 284.71 1
-2 -15 10 81.6985 198.708 3
-2 17 -13 256.06 282.803 1
17 -2 13 61.5117 312.466 2
-15 -2 -13 610.191 287.909 1
-15 17 13 331.535 227.415 4
-15 17 13 27.6236 45.6469 2
-2 -15 13 267.305 104.544 3
-1 -16 -12 94.2169 132.867 3
17 -16 12 -199.458 317.288 2
-1 17 12 141.951 63.2108 2
-16 17 -12 -151.009 214.145 1
-1 -16 -9 914.233 530.504 3
17 -16 9 1024.6 781.742 2
-1 17 9 424.675 435.569 4
-16 17 -9 776.443 582.344 1
17 -16 6 5255.83 1526.28 2
17 -1 -6 4303.24 637.083 4
-1 17 6 5346.26 1355.46 4
-1 -16 -6 4719.64 1103.15 3
-1 17 6 5562.82 764.175 1
-16 17 -6 7330.63 1720.42 1
-1 -16 -3 -62.6104 201.357 3
-1 17 3 236.331 172.108 1
-1 17 3 -117.502 353.868 4
-16 17 -3 -611.191 754.833 2
17 -16 3 465.96 323.844 2
-16 17 -3 -81.5151 216.001 1
-1 17 0 1834.29 590.847 1
-16 17 0 2439.96 819.768 1
-16 17 0 2360.92 839.745 2
17 -16 0 586.481 294.47 2
-16 -1 0 2044.8 722.511 1
-1 17 0 2195.02 773.685 4
17 -1 0 971.901 654.754 2
-1 -16 0 1884.1 759.016 3
-1 17 -3 252.712 379.548 1
-16 -1 -3 774.855 503.655 1
17 -16 -3 549.909 383.588 1
-16 17 3 1048.38 545.61 2
17 -1 3 542.444 293.52 1
-16 17 3 792.259 528.185 1
17 -16 -3 638.714 724.135 2
17 -1 3 349.962 412.529 2
17 -16 -3 1144.46 738.964 4
-1 17 -3 874.964 447.064 4
-1 -16 3 665.026 258.957 3
-1 17 -6 1131.54 613.323 1
17 -1 6 1076.94 565.567 1
-16 17 6 1003.22 516.91 1
-16 -1 -6 1386.42 566.155 1
17 -16 -6 1206.15 525.913 1
-16 17 6 871.815 482.285 2
17 -1 6 440.928 186.659 2
17 -16 -6 1567.55 651.264 4
-1 -16 6 1440.98 724.989 3
-1 17 -9 576.396 528.623 1
-16 17 9 284.777 218.402 1
17 -1 9 14.2225 178.443 2
-16 17 9 272.463 318.298 2
-16 17 9 598.673 413.114 4
-16 -1 -9 507.444 398.578 1
-1 -16 9 699.312 475.118 3
-1 17 -12 413.918 533.785 1
17 -1 12 467.262 403.127 2
-16 -1 -12 95.9018 144.845 1
-16 17 12 304.205 275.712 4
-16 17 12 16.3305 199.321 2
-1 -16 12 281.728 444.972 3
17 -17 13 -234.809 557.593 2
-17 17 -13 -227.543 246.932 1
0 17 13 -43.8671 131.53 2
0 -17 -10 521.356 493.118 3
17 -17 10 324.296 666.788 2
-17 17 -10 -237.294 389.923 1
0 -17 -7 1574.06 660.862 3
17 -17 7 977.698 702.403 2
0 17 7 992.267 263.968 1
0 17 7 664.41 501.578 4
17 0 -7 1216.48 367.323 4
-17 17 -7 985.446 657.53 1
0 -17 -4 629.468 409.108 3
0 17 4 448.383 182.072 1
17 -17 4 198.73 194.815 2
0 -17 -4 337.589 158.868 2
0 17 4 443.542 436.027 4
-17 17 -4 13.0569 303.312 1
0 -17 -1 520.243 379.483 3
0 17 1 604.074 283.482 1
-17 17 -1 1263.88 650.93 1
-17 17 -1 555.065 571.775 2
17 -17 1 577.521 484.389 2
0 17 1 1163.8 577.868 4
-17 0 1 1101.51 515.681 1
0 -17 2 1684.44 721.636 3
0 17 -2 1365.63 491.476 1
-17 0 -2 1439.22 575.284 1
-17 17 2 1947.34 772.051 2
-17 17 2 1840.79 751.437 1
17 -17 -2 739.485 274.884 2
0 17 -2 1108.86 554.505 4
17 -17 -2 3526.01 1540.87 4
17 0 2 947.696 622.099 2
-17 17 5 219.668 62.6316 1
17 -17 -5 22.8005 153.369 1
17 0 5 51.4714 102.825 1
-17 0 -5 120.709 189.08 1
-17 17 5 324.609 300.883 2
17 0 5 400.28 332.077 2
17 -17 -5 -110.726 191.941 4
0 17 -5 146.776 45.8922 4
17 -17 -5 218.137 763.448 2
0 -17 5 -51.4411 80.5642 3
0 17 -8 -142.881 418.621 1
17 0 8 220.079 44.4104 1
17 -17 -8 390.031 256.639 1
17 0 8 361.669 422.672 2
-17 17 8 13.6152 152.446 2
-17 17 8 -16.653 245.239 4
17 -17 -8 857.446 534.642 4
-17 0 -8 70.2968 238.624 1
-17 17 8 377.7 407.183 1
0 -17 8 -180.298 268.163 3
0 17 -11 -387.846 446.955 1
-17 17 11 105.831 153.544 1
17 0 11 -443.855 538.086 2
-17 0 -11 -271.594 347.364 1
-17 17 11 281.138 318.669 4
-17 17 11 -165.471 436.035 2
0 -17 11 212.366 494.477 3
17 -18 11 203.01 429.819 2
-18 17 -11 -308.863 315.852 1
1 -18 -8 1130.07 479.958 3
17 -18 8 1272.62 894.823 2
1 17 8 824.19 579.728 4
17 1 -8 1957 502.995 4
-18 17 -8 1357.87 689.683 1
-18 17 -5 1015.46 577.674 1
1 -18 -5 531.37 354.356 3
1 17 5 787.571 296.261 1
17 -18 5 745.335 606.378 2
1 17 5 842.287 694.646 4
17 1 -5 400.47 311.67 4
1 -18 -2 901.827 437.89 3
1 17 2 203.526 163.61 4
-18 1 2 435.73 254.341 1
-18 17 -2 420.085 458.897 1
17 -18 2 313.04 299.208 2
1 -18 1 1357 655.346 3
-18 1 -1 1797.98 739.348 1
-18 17 1 3333.44 1119.4 2
-18 17 1 2535.38 1028.2 1
1 17 -1 1262.87 542.792 4
17 -18 -1 4259.75 1983.31 4
17 -18 -1 401.816 388.529 2
17 1 1 1422.71 834.533 2
1 -18 4 132.675 344.262 3
17 -18 -4 -49.918 92.5484 1
-18 1 -4 297.394 321.854 1
-18 17 4 -126.228 366.628 2
17 1 4 119.746 139.696 1
17 -18 -4 691.14 408.14 4
17 1 4 73.9496 346.404 2
17 -18 -4 383.605 267.225 2
1 17 -4 -84.7366 273.977 4
-18 17 4 157.197 227.823 1
1 -18 7 668.404 694.143 3
-18 17 7 95.5522 273.519 1
-18 1 -7 346.653 324.584 1
17 1 7 -203.497 356.509 1
17 -18 -7 306.047 285.353 1
-18 17 7 -31.8411 262.641 2
17 1 7 318.299 232.852 2
17 -18 -7 -214.427 425.699 4
1 -18 10 491.672 344.36 3
-18 17 10 47.8612 136.481 1
-18 1 -10 241.294 366.853 1
17 1 10 314.806 317.863 2
-18 17 10 -232.226 227.759 2
-18 17 10 264.581 291.161 4
1 17 -13 414.983 1009.76 1
1 -18 13 463.314 515.047 3
-18 1 -13 720.399 460.044 1
17 1 13 513.452 367.618 2
-18 17 13 417.878 343.479 4
17 -19 12 -241.731 272.096 2
2 17 12 -84.709 88.2575 2
-19 17 -12 576.465 704.271 1
2 -19 -9 459.914 460.536 3
17 -19 9 -248.656 170.345 2
-19 17 -9 431.099 394.882 1
-19 17 -6 722.063 572.089 1
2 17 6 450.193 213.479 1
2 -19 -6 648.935 442.252 3
17 -19 6 -226.858 511.967 2
2 17 6 516.33 499.619 4
17 2 -6 162.878 173.652 4
2 -19 -3 390.128 385.417 3
2 -19 -3 129.044 51.7092 2
-19 17 -3 1214.56 636.259 1
17 -19 3 359.678 390.377 2
-19 2 3 311.8 138.946 1
2 17 3 1059.08 572.493 4
2 -19 0 1313.82 570.696 3
-19 17 0 849.861 503.2 1
-19 2 0 500.78 406.071 1
17 -19 0 132.617 283.389 2
2 17 0 656.706 412.996 4
2 -19 3 1126.62 711.757 3
-19 17 3 659.519 497.599 2
-19 2 -3 541.016 473.256 1
17 -19 -3 648.205 677.028 2
17 -19 -3 339.76 322.743 4
2 17 -3 669.857 462.734 4
17 2 3 380.447 368.184 2
-19 17 3 505.325 431.817 1
2 -19 6 219.223 326.747 3
17 -19 -6 424.734 304.192 1
-19 2 -6 -306.017 296.237 1
17 2 6 243.659 247.802 1
-19 17 6 50.0041 166.815 1
17 -19 -6 -98.1028 161.843 4
-19 17 6 -6.2885 111.355 2
17 2 6 525.994 536.721 2
2 17 -6 -321.386 399.848 4
2 -19 9 393.617 441.592 3
17 -19 -9 310.176 302.83 1
-19 17 9 0.42085 302.41 1
17 -19 -9 306.806 327.834 4
17 2 9 392.191 399.952 2
-19 2 -9 536.48 433.587 1
17 2 9 406.786 342.389 1
2 -19 12 -13.3185 144.064 3
-19 2 -12 -11.8359 259.306 1
17 2 12 458.491 567.455 2
-19 17 12 108.249 91.0495 4
17 -20 10 370.271 442.146 2
-20 17 -10 993.922 829.308 1
3 17 7 355.458 137.994 1
-20 17 -7 702.224 412.226 1
3 -20 -7 632.575 489.767 3
17 -20 7 373.225 633.389 2
17 3 -7 383.957 162.256 4
3 17 7 1032.32 674.697 4
3 17 7 510.808 222.561 1
3 -20 -4 1507.98 660.03 3
-20 3 4 759.091 530.514 1
-20 17 -4 1283.98 678.064 1
3 -20 -4 53.853 114.602 2
17 -20 4 716.964 430.455 2
17 3 -4 1074.52 453.066 4
3 17 4 1186.65 764.452 4
3 -20 -1 336.28 194.205 3
-20 17 -1 194.607 164.568 1
17 -20 1 359.981 349.766 2
-20 3 1 395.187 284.325 1
3 17 1 -36.7159 213.076 4
3 -20 2 674.085 377.475 3
17 -20 -2 598.527 329.695 2
3 17 -2 442.217 187.97 4
-20 3 -2 834.721 456.422 1
17 3 2 459.178 389.843 2
-20 17 2 890.053 545.213 1
3 -20 5 340.17 448.154 3
-20 3 -5 -55.7338 98.8864 1
-20 17 5 70.6341 162.411 1
17 3 5 -407.396 394.483 1
17 3 5 337.67 434.326 2
3 17 -5 -115.139 164.085 4
17 -20 -5 306.115 464.534 2
17 -20 -5 341.544 303.657 1
3 -20 8 594.827 394.967 3
-20 17 8 111.548 138.963 1
17 -20 -8 258.408 230.144 1
17 3 8 300.614 274.037 1
-20 3 -8 465.985 328.99 1
17 -20 -8 1014.03 670.556 4
17 3 8 758.426 546.534 2
3 -20 11 73.5677 70.2813 3
17 -20 -11 131.003 79.644 1
-20 17 11 404.06 113.917 1
17 3 11 381.456 306.727 2
17 3 11 232.346 185.664 1
17 -21 11 281.538 380.134 2
4 17 11 -120.494 122.607 2
-21 17 -8 45.446 184.876 1
17 -21 8 -161.92 26.9917 2
4 17 8 419.57 484.012 4
17 4 -8 694.085 562.203 4
4 17 8 179.542 87.3681 1
4 -21 -5 863.266 466.66 3
-21 17 -5 1249.21 792.695 1
17 -21 5 593.423 370.525 2
4 17 5 1054.38 534.438 4
17 4 -5 719.156 359.022 4
-21 4 5 997.058 590.367 1
4 -21 -2 3546.66 1044.72 3
4 -21 -2 205.794 230.038 2
-21 17 -2 4324.77 1347.34 1
17 -21 2 2474.66 894.94 2
4 17 2 4056.62 1220.25 4
-21 4 2 3282.44 988.888 1
4 -21 1 295.838 289.847 3
17 -21 -1 89.2348 245.524 2
-21 17 1 703.864 511.27 1
4 17 -1 515.461 462.98 4
-21 4 -1 -378.204 193.827 1
4 -21 4 605.298 532.173 3
-21 17 4 144.689 131.775 1
-21 4 -4 510.323 347.774 1
17 -21 -4 727.144 469.598 2
4 17 -4 598.517 503.925 4
17 4 4 -91.282 302.81 2
4 -21 7 1592.5 794.46 3
17 4 7 571.329 422.244 1
17 4 7 270.848 148.158 2
-21 17 7 1016.19 567.525 1
-21 4 -7 649.899 439.463 1
17 -21 -7 423.205 320.995 1
4 -21 10 -406.873 536.571 3
17 -21 -10 -270.891 192.039 1
-21 17 10 238.923 63.4993 1
17 4 10 -417.963 621.756 2
-21 4 -10 -202.437 271.169 1
17 4 10 5.89058 127.754 1
-22 17 -9 28.2411 346.25 1
5 17 9 805.748 294.457 1
17 -22 9 468.25 547.842 2
17 5 -9 1248.92 580.636 4
5 -22 -6 849.122 485.582 3
5 17 6 1336.18 411.169 1
-22 17 -6 1249.66 717.901 1
-22 5 6 1328.24 634.123 1
17 -22 6 1081.81 808.182 2
5 17 6 919.823 588.667 4
17 5 -6 1786.63 585.654 4
5 -22 -3 1727.23 829.305 3
-22 5 3 1780.61 823.984 1
5 -22 -3 990.98 437.081 2
-22 17 -3 2568.85 983.673 1
17 -22 3 922.493 628.505 2
17 5 -3 911.851 436.496 4
5 17 3 2042.03 833.922 4
-22 5 0 715.077 513.448 1
5 -22 0 446.754 411.99 3
5 -22 0 -221.905 252.444 2
17 -22 0 -402.522 532.363 2
-22 17 0 384.814 163.657 1
5 17 0 -10.7598 283.038 4
-22 17 3 352.652 433.717 1
5 -22 3 373.924 463.392 3
-22 5 -3 695.431 487.551 1
17 -22 -3 147.032 193.714 2
5 17 -3 466.711 357.301 4
17 5 3 -1.96575 328.915 2
-22 5 -6 235.083 93.8882 1
5 -22 6 866.676 609.828 3
5 17 -6 261.066 321.595 4
-22 17 6 927.424 617.723 1
17 5 6 127.286 379.351 2
17 -22 -6 334.847 299.361 1
17 -22 -6 1130.08 449.789 2
17 -22 -9 984.705 451.307 1
5 -22 9 571.857 412.385 3
17 5 9 460.756 425.07 1
17 5 9 921.362 728.879 2
-22 17 9 528.151 482.011 1
-22 5 -9 897.959 541.101 1
-23 17 -10 286.329 184.451 1
17 -23 10 -249.857 448.87 2
6 17 10 87.1169 132.253 1
-23 17 -7 -140.604 367.857 1
6 17 7 -82.049 179.726 1
17 -23 7 443.809 292.751 2
6 17 7 26.1383 490.892 4
17 6 -7 175.954 161.92 4
6 -23 -4 205.927 118.978 3
-23 17 -4 319.044 423.068 1
6 -23 -4 323.417 153.044 2
17 -23 4 692.856 652.609 2
-23 6 4 163.958 373.695 1
6 17 4 578.243 191.668 1
6 17 4 614.436 289.564 4
17 6 -4 229.546 123.527 4
6 -23 -1 1094.5 529.182 3
-23 6 1 439.707 173.525 1
6 -23 -1 415.774 291.084 2
17 -23 1 265.014 349.86 2
6 17 1 1360.84 713.507 4
-23 17 -1 797.77 540.725 1
6 -23 2 240.139 408.685 3
6 -23 2 -111.462 288.627 2
-23 6 -2 177.905 386.713 1
17 -23 -2 89.4735 199.825 2
6 17 -2 -98.6749 75.236 4
-23 17 2 -192.975 311.555 1
6 -23 5 487.386 571.08 3
-23 6 -5 245.902 292.991 1
-23 17 5 210.699 365.767 1
6 17 -5 80.1375 194.767 4
17 -23 -5 23.5101 152.767 2
17 6 5 190.478 117.126 2
6 -23 8 94.1147 204.762 3
17 6 8 9.42741 332.229 1
-23 17 8 214.053 230.178 1
17 6 8 -376.652 426.732 2
-23 6 -8 852.121 637.737 1
17 -23 -8 -91.1336 302.093 1
-24 17 -8 1240.82 730.194 1
17 -24 8 1218.81 1003.48 2
17 7 -8 1853.04 736.262 4
7 17 8 1161.37 440.855 1
17 -24 5 246.684 529.674 2
-24 17 -5 1172.45 789.102 1
17 7 -5 191.526 228.772 4
7 17 5 272.21 279.65 1
7 17 5 43.6141 147.784 4
-24 7 5 196.968 250.275 1
7 -24 -2 164.24 436.188 3
7 -24 -2 203.196 288.706 2
-24 7 2 -452.529 494.322 1
17 -24 2 41.7007 255.352 2
-24 17 -2 715.126 543.068 1
17 7 -2 -33.7657 101.434 4
7 17 2 586.465 496.403 4
7 -24 1 778.37 551.696 3
7 -24 1 -126.125 354.879 2
17 -24 -1 575.361 341.443 2
7 17 -1 1227.95 649.668 4
-24 7 -1 1335.81 838.051 1
-24 17 1 1287.21 811.926 1
7 -24 4 364.326 371.183 3
7 -24 4 222.222 196.542 2
-24 7 -4 1289.66 707.023 1
-24 17 4 450.819 400.302 1
17 -24 -4 192.276 696.995 2
7 17 -4 272.374 289.023 4
-24 17 7 439.404 368.643 1
7 -24 7 677.324 555.932 3
7 -24 7 202.448 300.33 2
17 7 7 341.371 431.423 2
7 17 -7 666.731 488.616 4
-24 7 -7 644.63 517.867 1
-25 8 6 787.523 625.556 1
17 -25 6 868.203 767.836 2
-25 17 -6 723.602 569.124 1
8 17 6 -121.612 412.455 4
17 8 -6 467.817 390.994 4
8 17 6 589.736 294.207 1
8 17 3 83.2477 168.716 1
8 -25 -3 -157.968 273.928 2
17 -25 3 -372.49 399.739 2
-25 8 3 -59.7525 531.724 1
-25 17 -3 -234.651 266.169 1
8 17 3 475.949 517.458 4
17 8 -3 22.2868 160.878 4
8 -25 0 424.001 267.685 2
17 -25 0 360.055 497.325 2
8 17 0 422.27 479.202 4
-25 8 0 492.83 543.22 1
-25 17 0 658.293 655.617 1
8 -25 3 240.391 127.896 3
8 -25 3 -326.355 459.696 2
-25 17 3 -343.539 322.249 1
-25 8 -3 167.65 338.301 1
17 -25 -3 251.487 402.967 2
8 17 -3 67.3622 304.287 4
8 -25 6 299.026 433.216 3
8 -25 6 307.125 536.406 2
8 17 -6 176.882 222.779 4
17 -25 -6 296.282 748.247 2
-25 17 6 199.862 180.913 1
17 8 6 226.353 313.032 2
-25 8 -6 886.372 656.667 1
9 17 7 257.528 286.461 1
17 9 -7 -31.3324 257.812 4
17 -26 7 28.0947 124.13 2
-26 17 -7 251.022 469.865 1
-26 9 7 235.28 400.038 1
17 -26 4 -264.819 560.953 2
9 -26 -4 -97.1028 257.37 2
-26 17 -4 419.833 538.634 1
17 9 -4 346.942 310.668 4
9 17 4 237.207 94.0759 1
-26 9 4 -89.8574 67.4406 1
9 17 4 125.734 138.718 4
9 -26 -4 66.1628 196.687 1
9 -26 -1 -364.7 441.481 2
17 -26 1 53.7665 130.069 2
17 9 -1 -220.46 441.649 4
9 17 1 109.154 459.153 4
-26 17 -1 346.31 508.135 1
-26 9 1 196.49 267.684 1
-26 17 2 -209.691 313.824 1
9 -26 2 522.759 552.621 2
-26 9 -2 -105.867 236.462 1
17 -26 -2 -344.139 401.03 2
9 17 -2 380.208 467.276 4
-26 9 -5 188.628 276.14 1
9 -26 5 -379.386 352.303 2
-26 17 5 14.1385 217.363 1
17 -26 -5 -777.48 234.935 2
9 17 -5 -16.1366 152.729 4
10 -27 -5 128.67 239.535 1
-27 10 5 -86.4956 15.8679 1
17 -27 5 -3.35564 163.983 2
-27 17 -5 956.739 709.277 1
10 -27 -5 -175.892 192.134 2
10 17 5 1.93552 92.0619 4
17 10 -5 -349.692 353.964 4
10 17 5 989.599 478.515 1
-27 10 2 657.925 567.748 1
10 -27 -2 328.373 102.337 2
17 -27 2 342.082 530.036 2
17 10 -2 168.039 111.508 4
10 17 2 -205.747 213.528 4
-27 17 -2 -249.207 278.804 1
-27 17 1 161.548 347.945 1
10 -27 1 44.2308 312.384 2
-27 10 -1 1027.94 651.924 1
17 -27 -1 -199.465 516.226 2
10 17 -1 302.426 280.004 4
-27 10 -4 186.335 103.873 1
10 -27 4 66.0553 331.198 2
-27 17 4 242.856 525.04 1
17 -27 -4 -295.558 345.733 2
10 17 -4 51.2357 241.269 4
-28 11 3 957.485 673.771 1
17 -28 3 -337.396 662.92 2
11 -28 -3 556.279 343.329 2
11 17 3 549.163 436.055 4
17 11 -3 1020.28 554.696 4
-28 17 -3 790.401 691.771 1
-28 17 0 -194.101 553.464 1
11 -28 0 119.722 167.098 2
17 -28 0 607.699 450.123 2
-28 11 0 1436.77 815.506 1
17 11 0 618.801 391.869 4
11 17 0 442.784 517.889 4
-28 11 -3 455.092 450.882 1
11 -28 3 -73.6522 256.51 2
-28 17 3 306.7 393.547 1
17 -28 -3 85.2812 391.227 2
11 17 -3 -25.614 196.646 4
-9 18 0 1860.17 688.656 1
18 -9 0 2676.62 942.726 2
-9 18 0 1958.05 729.116 4
-9 -9 0 1427.54 539.611 2
-9 18 3 406.958 237.157 2
-9 18 -3 4144.05 1062.73 1
18 -9 3 4078.53 1151.68 2
-9 -9 -3 3381.05 818.638 2
-9 18 3 4273.79 1134.54 4
18 -9 -3 3338.66 1035.33 2
-9 18 3 4535.02 952.141 1
-9 18 6 -95.1968 138.877 2
-9 18 -6 129.761 179.472 1
-9 -9 -6 385.689 308.796 2
18 -9 6 108.439 297.293 2
-9 18 6 104.479 162.03 1
-9 18 6 185.91 465.366 4
-9 -9 6 402.061 111.828 4
18 -9 -6 479.599 255.156 4
-9 -9 -6 82.4563 134.804 3
-9 -9 -9 -100.258 232.314 2
-9 18 -9 -273.793 515.145 1
-9 -9 -9 316.015 193.831 1
18 -9 9 -376.421 526.844 2
-9 18 9 -127.339 170.694 2
-9 -9 9 424.766 295.268 4
-9 18 9 -189.407 346.435 4
-9 -9 -9 59.364 134.551 3
-9 18 9 240.354 129.269 1
-9 -9 -12 58.9882 391.611 2
-9 -9 -12 108.061 117.953 1
-9 18 -12 -419.814 453.158 1
18 -9 12 461.453 658.883 2
-9 18 12 -366.766 458.923 4
-9 -9 12 491.167 348.096 4
-9 -9 -12 389.316 276.552 3
-8 18 13 758.685 534.515 4
-8 -10 -13 260.664 178.871 1
-10 18 -13 785.018 714.739 1
18 -10 13 340.772 510.458 2
-10 -8 13 -96.2245 313.995 4
-8 -10 -13 360.409 78.2659 3
-8 -10 -10 283.623 338.938 2
-10 18 -10 137.203 479.889 1
18 -10 10 -132.073 222.755 2
-8 -10 -10 342.927 200.05 1
-8 18 10 -121.001 284.618 4
-8 18 10 -90.8444 142.609 2
-10 -8 10 802.577 418.838 4
-8 -10 -10 381.309 307.037 3
-10 18 -7 1319.53 750.691 1
-8 -10 -7 1030.07 608.799 2
18 -10 7 1714.31 829.429 2
-10 -8 7 1387.44 628.824 4
-8 18 7 912.957 559.8 4
18 -8 -7 1119.7 301.251 4
-8 18 7 1233.94 422.826 1
-8 -10 -7 1240.46 568.334 3
-8 18 4 -142.585 169.166 2
-10 18 -4 693.489 415.338 1
18 -10 4 832.887 521.499 2
-8 -10 -4 274.568 313.675 2
-8 18 4 709.804 496.689 4
-8 -10 -4 405.812 203.42 3
-8 18 4 486.61 254.607 1
-10 18 -1 1591.08 718.815 2
-10 18 -1 2283.57 792.75 1
18 -10 1 980.218 541.157 2
-8 18 1 961.776 514.499 4
18 -8 -1 1900.98 871.14 2
-8 -10 -1 1099.09 428.902 2
-8 18 1 1256.11 459.489 1
-10 18 2 1586.49 660.52 2
-10 -8 -2 1087.8 567.55 2
-8 18 -2 1840.21 635.462 1
18 -8 2 1152.57 569.006 2
-10 18 2 1464.13 593.247 4
18 -10 -2 1398.53 732.879 2
-10 18 2 1835.2 602.534 1
-8 18 -5 336.513 339.623 1
-10 18 5 225.406 241.429 2
-10 18 5 278.115 155.885 1
-10 -8 -5 573.757 73.5041 2
18 -8 5 698.644 590.818 2
-8 -10 5 329.316 216.808 4
-10 18 5 851.583 529.535 4
-10 18 8 1553.59 820.214 4
-8 18 -8 1281.85 690.788 1
-10 18 8 1223.27 440.828 1
-10 -8 -8 1198.23 414.56 1
-10 -8 -8 947.512 481.038 2
18 -8 8 1036.16 709.569 2
-10 18 8 689.307 295.557 2
18 -10 -8 1062.47 305.224 4
-8 -10 8 869.606 452.716 4
-10 -8 -11 143.282 151.558 2
-8 18 -11 326.898 315.785 1
-10 -8 -11 337.094 185.564 1
18 -8 11 341.415 389.643 2
-10 18 11 57.5057 127.526 4
-8 -10 11 474.3 297.007 4
-10 18 11 16.3049 150.573 2
-10 -8 -11 208.748 185.006 3
-8 18 -14 98.2245 251.567 1
18 -8 14 210.04 307.797 2
-10 18 14 104.054 369.502 4
-10 -8 -14 24.893 42.9198 1
-8 -10 14 508.519 404.642 4
-8 -10 14 515.262 485.567 3
-10 -8 -14 306.881 308.684 3
-7 -11 -14 481.852 391.278 3
-11 18 -14 -392.875 669.807 1
18 -11 14 215.996 546.579 2
-7 -11 -14 212.215 172.726 1
-7 18 14 -126.257 58.7308 4
-11 -7 14 142.087 44.2365 4
-7 -11 -11 1802.05 487.256 1
-7 -11 -11 1061.22 513.269 2
-11 18 -11 957.407 674.688 1
18 -11 11 1054.21 555.922 2
-7 18 11 594.658 422.996 4
-11 -7 11 628.799 334.005 4
-7 18 11 140.008 85.8162 2
-7 -11 -11 1790.82 672.829 3
-7 18 8 1354.02 380.228 1
-7 -11 -8 1117.98 369.971 2
-11 -7 8 1139.29 455.578 4
-11 18 -8 1145.22 553.231 1
18 -11 8 1551.11 906.851 2
-7 18 8 1095.72 666.163 4
-7 -11 -8 1174.19 516.833 3
-11 18 -5 3428.93 990.37 1
18 -11 5 3501.63 1059.83 2
-7 -11 -5 3676.35 1083.47 2
-7 18 5 2667.36 852.998 4
-7 -11 -5 2806.63 766.174 3
-7 18 5 3878.48 765.182 1
-11 18 -2 8869.17 1630.32 2
18 -11 2 6398.06 1431.37 2
-7 -11 -2 6554.15 1089.99 2
18 -7 -2 7522.3 1562.05 2
-7 18 2 6714.69 1371.37 4
-7 -11 -2 7563.25 1342.37 3
-7 18 2 8329.16 1354.03 1
-11 18 -2 8167.91 1578.04 1
-11 18 1 712.974 406.246 2
-7 18 -1 1159.85 504.188 1
18 -7 1 842.445 553.175 2
18 -11 -1 1005.08 577.435 2
-11 -7 -1 908.64 318.89 2
-7 18 -1 721.778 334.627 4
-7 -11 1 1055.67 539.294 3
-11 18 1 1374.04 572.01 1
-11 18 4 1494.56 549.56 1
-7 18 -4 1176.65 562.033 1
-11 18 4 1348.55 484.446 2
-11 -7 -4 2036.49 985.874 2
18 -7 4 618.882 404.99 2
-7 -11 4 737.767 420.293 4
-11 18 4 1039.05 526.585 4
-7 -11 4 1340.72 628.995 3
18 -11 -4 1786.82 828.565 2
-11 18 7 618.459 318.623 1
-7 18 -7 859.599 452.319 1
-11 -7 -7 617.02 257.774 1
-11 -7 -7 1013.92 721.109 2
-11 18 7 215.638 272.453 2
18 -7 7 653.887 507.725 2
-7 -11 7 994.844 485.77 4
18 -11 -7 1339.56 442.277 4
-11 18 7 178.657 93.5162 4
-7 -11 7 1234.06 744.379 3
-11 18 10 261.846 179.436 1
-7 18 -10 792.131 568.261 1
-11 -7 -10 709.356 542.012 2
-11 -7 -10 191.073 146.325 1
18 -7 10 133.066 493.63 2
-11 18 10 723.734 540.9 4
-11 18 10 126.395 36.5919 2
-7 -11 10 257.944 377.787 4
-7 -11 10 232.132 280.218 3
-7 18 -13 525.011 431.49 1
18 -7 13 556.742 539.721 2
-11 18 13 593.348 476.222 4
-7 -11 13 638.303 395.048 4
-11 -7 -13 688.641 329.553 1
-7 -11 13 747.787 500.363 3
-11 -7 -13 947.217 493.496 3
-6 -12 -12 131.976 222.2 3
18 -12 12 -621.19 783.343 2
-12 18 -12 -249.66 403.204 1
-6 18 12 210.353 251.467 4
-12 -6 12 -36.3583 148.239 4
-6 -12 -9 119.534 239.252 2
18 -12 9 1239.79 708.923 2
-6 18 9 776.694 212.447 1
-12 18 -9 1657.73 765.671 1
-12 -6 9 1361.36 523.127 4
-6 18 9 977.479 591.762 4
-6 -12 -9 940.005 496.255 3
-6 18 6 128.381 93.3352 1
-6 -12 -6 448.287 432.828 2
18 -12 6 104.919 413.36 2
-12 18 -6 193.451 126.625 1
-6 18 6 148.443 307.984 4
-6 -12 -6 -95.6472 167.891 3
-12 18 -3 5941.2 1373.01 2
-12 18 -3 3511.15 1046.03 1
18 -12 3 3510.68 1051.94 2
-6 18 3 4189.37 1148.88 4
-6 -12 -3 1620.64 799.482 2
-6 -12 -3 3285.44 874.138 3
-6 18 3 4557.2 929.813 1
-12 18 0 2101.65 721.9 2
-6 18 0 1687.69 546.175 1
-6 18 0 1537.07 629.825 4
18 -12 0 1153.48 597.212 2
18 -6 0 1695.72 698.6 2
-12 -6 0 1383.57 595.988 2
-12 18 0 1568.78 624.971 1
-6 -12 0 1407.35 684.276 3
-12 18 3 3862.84 881.496 1
-12 18 3 3635.67 814.499 2
-6 -12 3 2997.27 968.636 4
-12 -6 -3 3179 1027.57 2
18 -6 3 3016.75 1035.15 2
-12 -6 -3 2975.89 711.066 1
-12 18 3 3394.3 913.859 4
18 -12 -3 4204.67 1319.07 2
-6 -12 3 3900.99 1101.74 3
-6 18 -3 4312.21 1009.27 1
-6 18 -6 421.836 430.119 1
-12 -6 -6 479.217 313.498 1
-12 18 6 417.627 302.428 2
-12 -6 -6 115.158 206.406 2
-6 -12 6 -75.8036 330.345 4
18 -6 6 546.016 481.719 2
-12 18 6 288.875 267.582 4
-12 18 6 902.155 438.62 1
18 -12 -6 1238.66 486.26 4
-6 -12 6 615.326 604.929 3
-12 18 9 670.433 375.732 1
-6 18 -9 1431.98 670.343 1
-12 -6 -9 929.478 741.789 2
-12 -6 -9 930.362 437.595 1
18 -6 9 1572.15 796.199 2
-12 18 9 766.927 402.159 2
-12 18 9 784.351 551.829 4
-6 -12 9 1444.94 647.218 4
-6 -12 9 1247.28 795.737 3
-6 18 -12 187.377 100.57 1
18 -6 12 -271.176 391.386 2
-12 18 12 -11.8544 267.369 4
-6 -12 12 106.56 51.5921 4
-12 18 12 -213.041 148.996 2
-12 -6 -12 16.633 108.795 1
-6 -12 12 576.988 376.616 3
-5 -13 -13 987.61 519.785 3
-5 18 13 -78.9125 54.3083 2
18 -13 13 217.897 564.848 2
-13 18 -13 541.354 438.371 1
-5 18 13 501.597 422.733 4
-13 -5 13 381.833 185.384 4
-13 -5 10 736.431 336.246 4
18 -13 10 1013.3 894.483 2
-13 18 -10 951.565 582.576 1
-5 18 10 605.57 427.688 4
-5 -13 -10 1525.54 652.685 3
-5 -13 -7 1159.43 597.897 2
-5 18 7 2157.78 515.014 1
18 -13 7 1636.63 766.214 2
-13 18 -7 2415.72 926.707 1
-5 18 7 1896.43 856.534 4
-5 -13 -7 1447.05 630.465 3
-13 18 -4 4798.68 1368.24 2
18 -13 4 4226.65 1218.54 2
-5 -13 -4 4556.73 1006.27 2
-13 18 -4 4998.33 1328.94 1
-5 18 4 4849.59 1260.16 4
-5 -13 -4 4465.3 1044 3
-5 18 4 5489.09 980.267 1
-13 18 -1 3215.25 1029.81 2
-5 18 1 3078.26 814.591 1
18 -13 1 2054.2 900.271 2
-5 18 1 2951.44 923.727 4
-13 -5 1 2550.75 852.941 2
18 -5 -1 2678.76 875.342 2
-13 18 -1 3271.93 990.233 1
-5 -13 -1 2780.8 859.476 3
-13 18 2 1692.67 641.747 1
-5 18 -2 994.861 382.496 1
-13 18 2 1372.49 596.847 2
-5 -13 2 882.288 583.051 4
-13 -5 -2 1064.63 339.489 1
-13 -5 -2 1259.33 608.246 2
18 -5 2 1231.1 601.331 2
18 -13 -2 1948.83 887.558 2
-5 18 -2 1544.98 637.881 4
-5 -13 2 1466.45 681.142 3
-5 18 -5 3986.65 999.754 1
-13 18 5 2946.71 738.659 2
-13 -5 -5 2437.88 692.149 1
-13 -5 -5 3477.02 1195.04 2
-13 18 5 3426.14 884.374 1
18 -5 5 3458.93 1170.7 2
-5 -13 5 1976.87 737.596 4
18 -13 -5 3097.01 766.589 4
-13 18 5 2860.93 856.343 4
-5 -13 5 3324.85 954.001 3
-5 18 -8 1458.34 703.039 1
18 -13 -8 1176.44 440.028 4
-13 -5 -8 1650.58 862.359 2
-13 -5 -8 1318.07 443.952 1
18 -5 8 1451.41 750.598 2
-13 18 8 1393.51 508.51 1
-13 18 8 845.955 416.785 2
-5 -13 8 1443.76 690.221 4
-13 18 8 1343.88 488.829 4
-5 -13 8 1552.73 733.536 3
-5 18 -11 407.76 388.562 1
-13 18 11 254.483 145.071 1
18 -5 11 561.84 643.483 2
-13 18 11 224.683 77.6117 2
-13 18 11 352.274 250.97 4
-5 -13 11 504.529 545.863 3
-13 -5 -11 187.917 190.681 1
-5 18 -14 -168.139 579.158 1
18 -5 14 261.711 332.067 2
-13 -5 -14 283.163 273.201 1
-13 -5 -14 351.122 338.996 3
-5 -13 14 306.867 423.962 3
-13 18 14 205.036 198.058 4
-4 -14 -14 114.184 231.044 3
-4 18 14 23.3047 99.627 2
18 -14 14 -324.305 377.765 2
-14 18 -14 -163.2 628.455 1
-14 -4 14 19.9569 25.2205 4
-4 -14 -11 418.51 312.226 3
18 -14 11 -152.442 416.215 2
-14 18 -11 639.187 686.473 1
-4 18 11 209.448 342.292 4
-4 18 8 325.365 144.92 1
-4 -14 -8 237.955 269.315 2
18 -14 8 -465.646 463.872 2
-14 18 -8 -51.1721 221.679 1
-4 18 8 -41.2696 136.245 4
-4 -14 -8 455.987 375.762 3
18 -14 5 197.034 294.052 2
-4 -14 -5 -200.431 320.438 2
-4 18 5 662.269 297.519 1
-4 18 5 229.797 114.91 4
-14 18 -5 939.455 628.462 1
-4 -14 -5 512.356 372.037 3
-14 18 -2 956.447 596.024 2
-4 18 2 459.384 60.3289 1
18 -14 2 385.733 373.257 2
-4 18 2 237.009 206.594 4
-14 18 -2 519.481 334 1
-4 -14 -2 200.53 136.751 3
-14 18 1 2614.07 834.163 1
-4 18 -1 2259.78 653.767 1
-14 18 1 2979.42 897.185 2
-4 -14 1 1337.13 659.374 4
18 -14 -1 2285.08 1014.97 2
-14 -4 -1 1797.5 770.018 2
-4 18 -1 2121.5 726.686 4
18 -4 1 1861.79 875.617 2
-4 -14 1 2242.35 813.43 3
-14 -4 -1 2566.97 741.754 1
-4 18 -4 2222.22 710.797 1
-14 18 4 2000.43 650.236 2
-14 18 4 2294.16 725.444 1
-14 -4 -4 1841.32 732.769 2
-14 -4 -4 1635.74 550.906 1
-4 -14 4 1692.24 764.252 4
18 -4 4 2484.87 989.78 2
18 -14 -4 3006.83 992.995 4
18 -14 -4 4022.23 1538.93 2
-4 -14 4 2097.16 822.551 3
-4 18 -7 364.543 412.838 1
-14 18 7 94.9083 196.515 1
-14 -4 -7 177.851 285.156 2
-14 18 7 330.275 395.64 2
18 -4 7 227.259 287.681 2
-14 -4 -7 533.747 342.008 1
18 -14 -7 733.482 253.449 4
-4 -14 7 585.686 425.979 4
-14 18 7 101.528 156.844 4
-4 -14 7 569.991 485.525 3
-14 -4 -10 1268.41 490.911 1
-4 18 -10 1578.28 766.89 1
18 -4 10 989.69 712.134 2
-14 18 10 1191.8 635.191 4
-14 18 10 537.256 396.527 2
-14 18 10 924.321 440.3 1
-4 -14 10 1683.28 759.287 3
-4 18 -13 549.375 556.459 1
18 -4 13 92.8999 248.238 2
-14 -4 -13 144.195 263.155 1
-14 18 13 -444.397 429.271 4
-14 18 13 -59.971 159.092 2
-4 -14 13 2.82489 248.03 3
-3 -15 -12 844.667 536.176 3
18 -15 12 1156.72 891.545 2
-15 18 -12 296.728 552.789 1
-3 18 12 609.904 523.951 4
-3 -15 -9 138.339 206.802 3
18 -15 9 464.94 385.879 2
-15 18 -9 1133.07 703.086 1
-3 18 9 758.207 562.439 4
18 -15 6 877.306 745.316 2
-3 -15 -6 582.504 303.034 2
-3 18 6 430.185 365.726 4
-3 18 6 896.424 288.829 1
-15 18 -6 903.73 556.228 1
-3 -15 -6 1082.79 566.284 3
-15 18 -3 2396.36 1025.82 2
-3 18 3 2542.43 667.348 1
18 -15 3 1837.73 806.645 2
-3 18 3 2606.36 936.541 4
-3 -15 -3 1298.5 416.72 2
-15 18 -3 2216.02 819.877 1
-3 -15 -3 1568.47 695.222 3
-15 18 0 1796.44 800.519 1
-3 18 0 1094.93 412.499 1
-15 -3 0 719.236 362.536 1
-15 18 0 1853.03 730.443 2
18 -15 0 657.386 437.057 2
-3 18 0 1216.69 594.395 4
18 -3 0 1004.19 564.728 2
-3 -15 0 1445.88 662.875 3
-3 18 -3 2574.91 790.576 1
-15 18 3 3085.13 862.289 2
-15 18 3 3053.99 888.75 1
-15 -3 -3 2920.69 1029.37 2
18 -3 3 2220.11 913.841 2
-15 -3 -3 2061.59 657.813 1
18 -15 -3 2277.07 1202.35 2
18 -15 -3 6490.01 1866.46 4
-3 18 -3 2134.45 685.476 4
-3 -15 3 3036.76 1010.03 3
-15 18 6 92.1966 17.795 1
-3 18 -6 371.7 339.269 1
-15 -3 -6 -421.175 414.485 2
-15 18 6 406.262 241.842 2
18 -3 6 149.114 213.022 2
-15 -3 -6 -114.506 167.491 1
18 -15 -6 636.825 349.389 4
-15 18 6 -125.44 278.031 4
-3 -15 6 352.869 380.963 3
-3 18 -9 921.049 535.248 1
-15 -3 -9 590.746 297.674 1
-15 18 9 495.259 375.86 1
18 -3 9 733.59 628.18 2
-15 18 9 877.034 468.554 2
-15 18 9 690.533 368.181 4
-3 -15 9 1227.04 685.328 3
-3 18 -12 687.787 651.664 1
18 -3 12 679.644 480.014 2
-15 18 12 258.896 226.835 4
-15 -3 -12 940.111 525.632 1
-15 18 12 384.692 306.122 2
-3 -15 12 563.649 441.385 3
-2 -16 -13 342.113 332.965 3
18 -16 13 360.94 129.116 2
-2 18 13 15.6906 21.5534 2
-16 18 -13 -73.4168 397.692 1
-2 -16 -10 832.514 531.699 3
-16 18 -10 86.6594 174.289 1
18 -16 10 476.771 477.265 2
-2 18 10 309.139 312.668 4
-2 -16 -7 1161.8 526.385 3
-2 -16 -7 573.857 219.577 2
18 -16 7 1291.51 735.305 2
-2 18 7 951.458 481.63 4
18 -2 -7 1328.06 331.404 4
-16 18 -7 1998.06 827.039 1
-2 18 7 1386.4 319.222 1
-2 -16 -4 656.712 466.649 3
-2 18 4 655.704 295.344 1
18 -16 4 249.341 191.22 2
-2 18 4 68.7497 124.029 4
-2 -16 -4 101.102 53.1009 2
-16 18 -4 429.638 412.874 1
-16 18 -1 1221.7 638.137 1
-2 18 1 1120.96 471.073 1
-16 18 -1 1256.61 660.859 2
18 -16 1 74.4214 234.634 2
-2 18 1 1273.34 574.374 4
18 -2 -1 985.886 630.06 2
-16 -2 1 1032.09 486.642 1
-2 -16 -1 820.908 401.704 3
-2 18 -2 1959.85 664.157 1
-16 18 2 3016.77 954.138 1
-16 18 2 2699.24 885.582 2
18 -16 -2 2714.28 1077.59 2
-2 18 -2 1661.06 625.007 4
18 -2 2 4004.43 1296.34 2
-16 -2 -2 1391.38 613.265 1
-2 -16 2 2122.91 809.893 3
-2 18 -5 497.721 480.748 1
-16 18 5 268.445 188.867 2
18 -2 5 649.16 708.536 2
18 -16 -5 757.732 400.091 4
-16 -2 -5 400.587 389.538 1
18 -16 -5 862.749 825.64 2
-16 18 5 29.0576 275.618 1
-2 -16 5 682.532 543.696 3
-2 18 -8 280.031 337.212 1
-16 -2 -8 378.567 284.627 1
18 -16 -8 215.368 296.144 4
18 -2 8 534.314 416.828 2
-16 18 8 -6.10539 152.632 2
-16 18 8 -150.481 206.346 1
-16 18 8 -148.612 126.448 4
-2 -16 8 493.372 235.929 3
-16 18 11 661.12 443.626 1
-2 18 -11 633.336 306.452 1
18 -2 11 483.246 521.679 2
-16 18 11 383.974 302.397 4
-16 18 11 -119.863 143.834 2
-16 -2 -11 497.921 357.077 1
-2 -16 11 -130.377 305.796 3
18 -17 11 -52.4947 188.019 2
-1 18 11 328.2 316.17 4
-17 18 -11 560.528 404.237 1
-1 -17 -8 1569.35 702.89 3
18 -17 8 1614.67 828.926 2
-1 18 8 1140.75 645.027 4
-17 18 -8 2320.24 994.498 1
18 -1 -8 1082.59 300.351 4
-1 -17 -5 641.325 432.395 3
-1 18 5 940.364 353.674 1
18 -17 5 1009.69 761.476 2
-1 -17 -5 -33.4649 214.263 2
-1 18 5 1112.18 580.483 4
-17 18 -5 655.48 411.552 1
-1 -17 -2 622.398 466.961 3
-17 18 -2 785.466 487.519 1
-17 -1 2 763.215 460.102 1
-1 18 2 509.36 298.033 1
18 -17 2 286.594 292.992 2
-1 18 2 579.409 378.255 4
-17 -1 -1 1965.81 708.14 1
-1 18 -1 1515.93 623.44 1
-17 18 1 1489.93 669.711 1
-17 18 1 2240.78 815.913 2
18 -17 -1 1341.03 847.346 2
-1 18 -1 1794.11 725.064 4
18 -1 1 1252 773.908 2
-1 -17 1 1585.59 692.177 3
-1 18 -4 786.43 532.445 1
-17 18 4 226.616 262.959 2
18 -1 4 -83.4563 428.646 2
18 -17 -4 -165.093 276.433 4
-17 18 4 -59.9269 333.183 1
18 -17 -4 -5.57501 34.2082 2
-1 18 -4 44.1495 111.159 4
-17 -1 -4 -248.963 163.318 1
-1 -17 4 264.352 196.016 3
-1 18 -7 -63.4644 268.618 1
-17 -1 -7 191.887 139.116 1
-17 18 7 83.2804 119.935 1
-17 18 7 -74.3806 194.842 2
18 -1 7 354.913 478.229 2
18 -17 -7 51.8191 150.374 4
-1 -17 7 583.023 594.481 3
-1 18 -10 -106.236 374.464 1
18 -1 10 152.654 378.516 2
-17 18 10 190.86 321.763 2
-17 18 10 249.051 200.492 4
-17 18 10 516.408 468.712 1
-17 -1 -10 488.984 317.527 1
-1 -17 10 -52.4336 261.215 3
-1 18 -13 584.507 552.371 1
18 -1 13 -180.904 504.79 2
-17 -1 -13 436.916 403.797 1
-17 18 13 540.921 454.866 4
-1 -17 13 640.639 500.531 3
0 -18 -12 -150.129 181.194 3
-18 18 -12 -154.65 375.36 1
0 -18 -9 2013.68 753.224 3
18 -18 9 1418.82 841.444 2
0 18 9 1511.48 700.637 4
-18 18 -9 1702.71 911.068 1
0 -18 -6 1057.97 576.698 3
0 18 6 1311.81 386.405 1
18 -18 6 799.002 638.677 2
18 0 -6 604.92 262.939 4
0 18 6 1267.72 763.151 4
-18 18 -6 932.723 602.88 1
0 -18 -3 1496.92 607.992 3
0 18 3 1616.18 488.596 1
-18 18 -3 2694.02 947.061 1
18 -18 3 805.999 414.407 2
0 18 3 1446.06 793.104 4
0 -18 0 1066.96 516.081 3
0 18 0 1000.63 370.585 1
-18 0 0 692.516 321.861 1
-18 18 0 1588.95 691.257 1
-18 18 0 1285.96 670.152 2
18 -18 0 52.7598 369.666 2
0 18 0 1163.22 558.794 4
18 0 0 1382.65 753.079 2
0 -18 3 991.504 569.703 3
0 18 -3 1232.54 523.514 1
-18 0 -3 1261.99 582.621 1
-18 18 3 1327.37 693.417 2
-18 18 3 1044.83 615.153 1
18 -18 -3 1162.32 953.485 2
18 -18 -3 1934.93 913.539 4
0 18 -3 1101.36 603.318 4
18 0 3 1338.55 754.934 2
0 -18 6 708.865 636.978 3
0 18 -6 163.503 182.199 1
-18 18 6 284.156 249.907 1
-18 0 -6 259.171 282.686 1
-18 18 6 260.966 293.651 2
18 0 6 38.8602 313.384 2
18 -18 -6 282.565 187.245 4
0 -18 9 1029.93 755.592 3
0 18 -9 397.044 423.891 1
-18 18 9 319.004 122.836 1
18 0 9 442.229 439.468 2
18 -18 -9 333.12 313.035 4
-18 18 9 239.489 264.764 2
-18 18 9 394.273 389.101 4
-18 0 -9 596.394 448.193 1
0 -18 12 172.3 528.566 3
0 18 -12 269.048 224.121 1
18 0 12 -41.4044 316.858 2
-18 0 -12 407.829 394.526 1
-18 18 12 223.871 251.947 4
1 -19 -10 370.164 234.113 3
18 -19 10 570.656 643.595 2
1 18 10 720.213 498.288 4
-19 18 -10 436.93 292.417 1
1 -19 -7 116.046 261.037 3
1 18 7 620.814 219.385 1
1 18 7 416.659 205.739 1
18 -19 7 357.17 339.719 2
18 1 -7 848.585 350.744 4
1 18 7 708.256 525.131 4
-19 18 -7 516.438 512.498 1
1 18 4 634.416 269.939 1
1 -19 -4 838.041 552.325 3
-19 18 -4 1428.69 729.351 1
18 -19 4 98.4735 134.558 2
1 18 4 1301.05 716.277 4
1 -19 -4 3.4925 125.026 2
1 -19 -1 517.078 423.562 3
-19 18 -1 831.389 493.1 1
-19 1 1 363.445 112.508 1
18 -19 1 781.728 478.097 2
1 18 1 548.922 484.77 4
1 -19 2 159.438 338.177 3
-19 1 -2 52.0108 110.346 1
-19 18 2 488.162 390.206 1
18 -19 -2 448.524 354.049 2
1 18 -2 503.688 441.155 4
18 1 2 384.407 526.423 2
1 -19 5 118.716 320.243 3
-19 18 5 298.286 357.361 1
-19 1 -5 424.837 477.139 1
-19 18 5 158.632 171.212 2
18 -19 -5 1143.7 600.665 4
1 18 -5 142.441 300.642 4
18 -19 -5 241.836 592.186 2
18 1 5 -571.627 464.652 2
1 -19 8 923.751 518.842 3
-19 1 -8 796.076 583.763 1
18 1 8 502.921 307.775 2
18 -19 -8 1021.64 719.04 4
-19 18 8 346.77 323.875 1
1 -19 11 307.62 479.549 3
18 1 11 1554.49 819.424 2
-19 1 -11 505.668 493.697 1
-19 18 11 388.048 282.626 4
-19 18 11 359.096 242.56 1
18 -20 11 -252.454 391.045 2
-20 18 -11 -315.62 493.567 1
2 -20 -8 656.66 546.691 3
2 18 8 204.349 101.284 1
18 2 -8 -16.8721 152.896 4
2 18 8 224.542 125.555 1
18 -20 8 -294.103 380.571 2
2 18 8 424.932 472.427 4
-20 18 -8 208.972 196.418 1
2 18 5 1023.05 375.119 1
2 18 5 1003.49 617.146 4
2 -20 -5 776.737 466.676 3
-20 18 -5 564.539 412.101 1
18 -20 5 547.894 643.985 2
18 2 -5 496.526 371.637 4
2 -20 -2 1796.32 742.45 3
-20 18 -2 3058.84 1090.35 1
18 -20 2 1501.8 646.186 2
2 18 2 2450.87 953.343 4
-20 2 2 1881.69 763.256 1
2 -20 1 -62.7914 150.596 3
-20 2 -1 269.312 351.08 1
-20 18 1 46.6038 361.528 1
18 -20 -1 -488.084 563.866 2
2 18 -1 301.462 476.063 4
-20 18 4 40.9147 281.385 1
2 -20 4 370.94 485.958 3
-20 2 -4 72.9711 87.5483 1
18 -20 -4 726.465 926.594 2
2 18 -4 632.889 543.387 4
18 2 4 -363.164 194.344 2
2 -20 7 1002.92 633.294 3
-20 2 -7 561.432 389.997 1
-20 18 7 380.581 352.73 1
18 -20 -7 805.49 644.198 4
18 2 7 1049.4 672.037 2
2 -20 10 -141.5 340.292 3
18 2 10 87.1385 250.52 2
-20 2 -10 -24.0788 327.018 1
-20 18 10 110.041 265.862 1
3 -21 -9 481.666 393.799 3
18 -21 9 451.805 728.796 2
3 18 9 150.819 176.803 4
-21 18 -9 800.25 523.539 1
3 -21 -6 1405.11 656.622 3
-21 18 -6 560.889 562.921 1
18 -21 6 1244.55 846.774 2
3 18 6 1082.87 363.194 1
3 18 6 1032.23 745.988 4
18 3 -6 843.037 414.556 4
-21 3 3 199.59 233.275 1
3 -21 -3 837.808 614.069 3
3 -21 -3 168.031 152.895 2
-21 18 -3 659.145 532.103 1
18 -21 3 173.567 367.787 2
3 18 3 235.915 179.459 4
3 -21 0 615.964 473.213 3
-21 3 0 1052.35 596.219 1
-21 18 0 1608.2 825.371 1
18 -21 0 662.559 354.722 2
3 18 0 1140.47 676.553 4
3 -21 3 404.172 412.201 3
18 -21 -3 484.571 467.242 2
-21 3 -3 494.141 264.821 1
3 18 -3 792.819 495.785 4
18 3 3 322.735 312.629 2
-21 18 3 1142.91 695.551 1
3 -21 6 1271.28 658.894 3
-21 3 -6 765.753 483.907 1
-21 18 6 983.151 365.829 1
18 3 6 -211.877 221.361 2
3 18 -6 1091.48 521.773 4
18 -21 -6 1988.81 1359.75 2
3 -21 9 634.308 568.201 3
-21 18 9 1125.89 591.484 1
18 3 9 1308.57 840.274 2
-21 3 -9 1584.84 787.968 1
18 -22 10 469.582 570.854 2
-22 18 -10 207.632 476.836 1
-22 18 -7 -460.435 583.317 1
4 -22 -7 63.1844 92.6735 3
18 -22 7 31.9959 295.521 2
4 18 7 330.598 441.173 4
18 4 -7 367.215 240.516 4
4 18 7 111.76 144.498 1
4 -22 -4 287.296 384.331 3
-22 18 -4 1164.61 774.229 1
4 -22 -4 370.213 172.975 2
-22 4 4 663.396 434.618 1
18 -22 4 627.79 603.829 2
18 4 -4 635.086 362.294 4
4 18 4 739.254 450.04 4
4 -22 -1 221.692 79.2274 3
4 -22 -1 -276.441 326.011 2
18 -22 1 634.284 460.882 2
-22 18 -1 420.957 422.413 1
-22 4 1 463.613 293.359 1
4 18 1 562.236 645.476 4
18 -22 -2 -143.73 314.403 2
4 18 -2 -278.428 261.97 4
-22 4 -2 90.531 150.642 1
-22 18 2 88.7476 65.1461 1
4 -22 5 1536.34 801.005 3
-22 4 -5 1113.53 593.393 1
-22 18 5 1341.1 669.094 1
4 18 -5 655.283 519.898 4
18 -22 -5 1436.33 911.61 2
18 4 5 1470.46 821.409 2
4 -22 8 1368.4 756.367 3
-22 18 8 560.035 480.984 1
18 4 8 646.305 691.226 2
-22 4 -8 1095.74 488.35 1
-23 18 -8 365.883 472.195 1
18 -23 8 225.226 530.044 2
5 18 8 509.025 446.157 4
18 5 -8 1011.64 499.18 4
5 18 8 646.418 292.529 1
-23 5 5 192.517 112.645 1
5 -23 -5 587.027 360.766 3
-23 18 -5 874.125 759.995 1
18 -23 5 203.041 123.41 2
18 5 -5 562.801 356.367 4
5 18 5 767.661 605.086 4
5 18 5 777.733 418.426 1
5 -23 -2 176.327 108.74 3
5 -23 -2 468.92 337.688 2
18 -23 2 556.345 531.457 2
-23 18 -2 433.178 506.742 1
5 18 2 287.533 448.356 4
-23 5 2 -474.007 347.483 1
5 -23 1 1217.17 682.919 3
5 -23 1 214.612 277.633 2
18 -23 -1 54.098 405.182 2
5 18 -1 347.348 342.091 4
-23 18 1 805.854 488.783 1
-23 5 -1 1344.52 767.915 1
5 -23 4 736.749 624.418 3
-23 18 4 244.55 337.849 1
-23 5 -4 274.428 460.445 1
18 -23 -4 456.527 987.86 2
5 18 -4 -67.5262 206.24 4
18 5 4 824.786 622.697 2
-23 5 -7 2002.57 908.53 1
5 -23 7 2439.57 1049.41 3
18 5 7 683.494 733.026 2
5 18 -7 1448.25 783.703 4
-23 18 7 1469.74 788.03 1
5 -23 10 35.3118 209.862 3
-23 18 10 232.004 250.773 1
18 5 10 631.514 686.133 2
-23 5 -10 605.987 609.196 1
-24 18 -9 82.206 379.285 1
18 -24 9 -83.6779 134.507 2
6 18 9 268.757 309.033 1
18 6 -9 190.267 166.224 4
6 18 6 982.126 361.383 1
-24 18 -6 1204.07 677.297 1
18 -24 6 352.138 461.566 2
6 18 6 674.469 542.784 4
18 6 -6 1260.05 541.801 4
-24 6 6 170.166 322.521 1
-24 6 3 519.317 511.984 1
6 -24 -3 453.42 406.26 3
6 -24 -3 232.399 255.79 2
18 -24 3 537.606 439.909 2
-24 18 -3 -80.7271 578.08 1
18 6 -3 -24.8344 129.534 4
6 18 3 292.591 427.187 4
-24 6 0 898.875 707.028 1
6 -24 0 839.601 368.412 3
6 -24 0 34.9781 251.425 2
18 -24 0 557.071 454.125 2
6 18 0 468.726 412.496 4
-24 18 0 1179.74 619.829 1
6 -24 3 332.359 450.216 3
-24 18 3 226.03 474.149 1
6 -24 3 -9.66733 175.712 2
-24 6 -3 535.71 615.374 1
18 -24 -3 -98.5635 381.067 2
6 18 -3 711.432 529.678 4
6 -24 6 1436.97 829.249 3
-24 6 -6 1042.67 682.245 1
-24 18 6 523.441 492.388 1
6 18 -6 470.988 436.317 4
18 6 6 1165.82 905.54 2
18 -24 -6 2665.28 1971.34 2
6 -24 9 555.368 574.066 3
-24 18 9 66.9636 245.927 1
18 6 9 348.179 388.741 2
-24 6 -9 -48.6392 170.435 1
-25 18 -7 188.689 441.82 1
7 18 7 267.403 285.132 1
18 -25 7 -49.9246 253.82 2
-25 7 7 447.585 336.72 1
7 18 7 204.348 379.911 4
18 7 -7 306.99 472.404 4
-25 7 4 363.273 369.2 1
18 -25 4 -307.471 484.102 2
7 -25 -4 180.824 80.0986 2
-25 18 -4 212.738 139.324 1
7 18 4 695.32 618.732 4
18 7 -4 -331.588 248.553 4
7 18 4 -24.7317 213.357 1
7 -25 -1 508.066 383.522 3
-25 7 1 1112.68 624.089 1
7 -25 -1 561.973 346.054 2
18 -25 1 1282.97 762.058 2
-25 18 -1 1194.31 628.08 1
7 18 1 555.53 436.597 4
-25 18 2 274.599 316.933 1
7 -25 2 841.737 590.228 3
7 -25 2 -143.151 438.27 2
7 18 -2 206.973 254.51 4
-25 7 -2 152.728 342.013 1
18 -25 -2 -82.9078 261.457 2
7 -25 5 834.906 632.779 3
-25 7 -5 843.785 459.284 1
7 -25 5 96.3089 89.4295 2
-25 18 5 1068.75 610.465 1
7 18 -5 411.033 170.765 4
18 -25 -5 707.77 1120.73 2
18 7 5 956.676 758.002 2
7 -25 8 296.977 496.771 3
-25 18 8 548.874 518.277 1
18 7 8 411.099 427.394 2
-25 7 -8 127.522 443.65 1
8 18 5 313.199 193.256 1
18 -26 5 -88.0465 422.974 2
-26 18 -5 483.85 529.13 1
-26 8 5 100.014 185.483 1
8 -26 -5 -303.907 275.7 2
8 18 5 603.952 521.392 4
18 8 -5 307.6 217.596 4
8 -26 -2 352.979 365.25 2
-26 8 2 405.502 500.724 1
18 -26 2 215.355 374.774 2
18 8 -2 793.185 494.204 4
8 18 2 701.189 462.143 4
-26 18 -2 690.36 647.415 1
-26 18 1 83.2809 112.389 1
8 -26 1 324.546 466.473 3
8 18 -1 -135.344 410.036 4
8 -26 1 38.9318 115.019 2
18 -26 -1 412.86 459.694 2
-26 8 -1 0.97035 387.013 1
8 -26 4 284.262 294.364 3
8 -26 4 -168.973 384.931 2
-26 8 -4 150.239 363.704 1
-26 18 4 111.921 216.861 1
18 -26 -4 245.04 541.031 2
8 18 -4 -49.8458 131.628 4
-26 18 7 1067.41 701.949 1
8 -26 7 324.461 392.509 3
8 -26 7 -434.28 428.196 2
8 18 -7 511.005 641.855 4
18 8 7 230.08 356.312 2
-26 8 -7 649.72 536.379 1
9 -27 -3 498.299 107.187 2
18 -27 3 424.767 417.325 2
-27 9 3 1171.06 618.536 1
18 9 -3 365.104 136.545 4
9 18 3 136.439 412.265 4
-27 18 -3 1564.86 926.691 1
9 18 3 364.544 194.97 1
9 -27 0 -269.396 291.133 2
18 -27 0 11.2626 353.431 2
9 18 0 315.016 448.305 4
-27 9 0 309.122 436.4 1
-27 18 0 1190.66 670.112 1
9 -27 3 67.7032 299.53 2
-27 18 3 598.655 593.209 1
-27 9 -3 554.908 489.7 1
18 -27 -3 -371.496 711.011 2
9 18 -3 399.526 486.883 4
10 -28 -1 684.32 483.36 2
18 -28 1 512.55 450.55 2
18 10 -1 597.264 406.741 4
10 18 1 387.407 94.5838 4
-28 18 -1 1675.23 868.393 1
-28 10 1 911.778 707.117 1
-28 18 2 -129.831 243.854 1
10 -28 2 262.944 198.78 2
-28 10 -2 -51.4864 260.826 1
18 -28 -2 151.063 423.669 2
10 18 -2 -148.535 407.588 4
-9 -10 -14 614.715 287.867 1
-10 19 -14 -170.976 326.566 1
19 -10 14 256.815 534.828 2
-9 19 14 240.602 319.396 4
-10 -9 14 -131.617 97.3938 4
-9 -10 -14 281.099 182.433 3
-9 -10 -11 368.846 217.898 1
-9 -10 -11 140.179 309.97 2
-10 19 -11 561.362 322.331 1
19 -10 11 -344.793 561.756 2
-9 19 11 165.774 124.848 4
-10 -9 11 1042.01 534.407 4
-9 19 11 185.86 76.1405 2
-9 -10 -11 732.697 406.216 3
-9 19 8 1299.03 448.119 1
-10 19 -8 1297.28 628.199 1
-9 -10 -8 865.252 465.355 2
-9 19 8 642.372 257.064 2
19 -10 8 1298.16 826.901 2
-10 -9 8 877.517 529.677 4
-9 19 8 1359.9 727.033 4
-9 -10 -8 861.71 478.097 3
-9 19 5 654.521 258.245 1
-9 19 5 541.372 237.108 2
-9 19 5 566.514 404.368 4
-10 19 -5 595.881 459.045 1
19 -10 5 732.641 585.391 2
-9 -10 -5 689.725 485.809 2
-9 -10 -5 199.953 132.223 3
-9 19 2 -1.31511 293.692 2
-10 19 -2 414.935 289.852 1
19 -10 2 253.765 287.168 2
-9 19 2 879.525 380.321 1
-9 -10 -2 402.942 268.445 2
-9 19 2 473.344 323.752 4
19 -9 -2 1407.85 865.537 2
-10 19 1 1265.46 432.677 2
-9 19 -1 1876.95 718.628 1
19 -9 1 2206.74 803.73 2
-10 19 1 2396.27 750.764 1
-10 -9 -1 1531.93 606.611 2
-10 19 1 1872.57 621.014 4
19 -10 -1 2499.19 954.426 2
-10 19 4 592.223 309.81 1
-10 19 4 269.109 146.241 2
-9 19 -4 372.896 216.771 1
19 -9 4 -112.713 183.063 2
-10 -9 -4 -100.424 267.374 2
-10 19 4 188.537 207.153 4
-9 19 -7 346.698 289.133 1
-10 19 7 134.134 170.743 2
-10 -9 -7 370.941 408.764 2
-10 -9 -7 12.0532 103.783 1
19 -9 7 220.361 190.864 2
-9 -10 7 -27.9692 215.662 4
-10 19 7 213.938 370.942 4
19 -10 -7 414.81 177.152 4
-10 19 7 519.189 327.973 1
-10 -9 -7 -201.382 358.229 3
-10 -9 -10 7.08521 19.8276 1
-10 -9 -10 231.109 288.167 2
-9 19 -10 140.281 65.1281 1
19 -9 10 267.044 381.76 2
-10 19 10 183.397 163.222 2
-10 19 10 156.416 138.921 1
-10 19 10 297.22 512.936 4
-9 -10 10 130.013 162.098 4
-10 -9 -10 24.5183 199.685 3
-10 -9 -13 41.9497 437.342 2
-10 -9 -13 115.475 145.137 1
-9 19 -13 -19.1172 159.714 1
19 -9 13 207.356 60.9511 2
-10 19 13 42.4449 206.997 4
-9 -10 13 216.695 353.537 4
-10 19 13 35.7715 119.548 2
-10 -9 -13 150.651 249.655 3
-11 19 -12 -181.266 272.283 1
19 -11 12 23.6489 608.332 2
-8 -11 -12 38.0605 132.284 1
-8 19 12 258.783 244.979 4
-11 -8 12 67.1205 113.745 4
-8 19 12 -136.976 126.483 2
-8 -11 -12 657.506 396.23 3
-11 -8 9 267.572 241.128 4
-8 -11 -9 442.445 412.925 2
-11 19 -9 315.469 144.793 1
19 -11 9 255.412 324.613 2
-8 19 9 461.61 480.818 4
-8 19 9 305.03 167.945 1
-8 -11 -9 268.638 187.67 3
-8 19 6 120.563 159.934 2
-8 19 6 582.462 310.807 1
-11 19 -6 450.631 543.34 1
-8 -11 -6 466.742 549.275 2
19 -11 6 299.606 424.356 2
-8 19 6 289.238 336.531 4
-8 -11 -6 618.651 380.442 3
-11 19 -3 4660.85 1179.6 1
19 -11 3 4510.06 1191.4 2
-8 -11 -3 3940.81 1087.25 2
-8 19 3 4235.54 1079.76 4
-8 -11 -3 4737.6 1104.54 3
19 -8 -3 3771.55 1157.84 2
-8 19 3 4681.47 983.98 1
-11 19 0 5437.98 1160.56 2
-11 -8 0 5048.37 1125.95 2
19 -11 0 4327.37 1232.63 2
-11 19 0 5609.22 1183.47 1
19 -8 0 3513.21 1179.6 2
-8 19 0 4051.91 1044.44 4
-8 19 0 5817.67 1190.81 1
-11 19 3 240.27 230.588 1
-11 19 3 97.5692 78.5653 2
-8 19 -3 -217.632 280.37 1
19 -8 3 525.997 484.489 2
-11 -8 -3 92.3079 394.392 2
-11 19 3 -100.993 392.752 4
19 -11 -3 203.194 379.028 2
-11 -8 -6 723.568 304.1 1
-8 19 -6 1134.86 602.798 1
-11 19 6 369.502 298.154 2
-11 -8 -6 861.032 321.609 2
19 -8 6 544.468 435.312 2
-11 19 6 1044.07 416.898 1
-8 -11 6 691.228 408.614 4
-11 19 6 1307.23 598.318 4
19 -11 -6 1309.02 423.283 4
-11 -8 -9 1061.63 419.15 1
-8 19 -9 1423.4 684.555 1
-11 -8 -9 437.397 230.249 2
19 -8 9 746.558 650.776 2
-11 19 9 311.901 233.376 2
-8 -11 9 316.363 277.894 4
-11 19 9 320.982 382.05 4
-11 19 9 243.2 212.889 1
-11 -8 -12 314.097 193.437 1
-11 -8 -12 -184.602 587.571 2
-8 19 -12 -31.9117 289.307 1
19 -8 12 183.942 94.2871 2
-11 19 12 64.3617 186.866 4
-8 -11 12 488.423 472.792 4
-11 19 12 93.0295 224.954 2
-8 -11 12 144.439 189.558 3
-11 -8 -12 237.392 223.311 3
-7 -12 -13 713.69 488.989 3
-7 -12 -13 385.066 251.406 1
19 -12 13 -14.9686 341.83 2
-12 19 -13 347.188 504.114 1
-7 19 13 -22.9491 181.471 4
-12 -7 13 203.99 215.635 4
-7 -12 -10 830.961 536.839 2
19 -12 10 340.897 581.747 2
-12 19 -10 1054.23 743.079 1
-12 -7 10 461.663 163.535 4
-7 19 10 462.669 262.858 4
-7 -12 -10 332.527 312.041 3
-7 -12 -7 1069.51 456.139 2
19 -12 7 760.222 626.86 2
-12 19 -7 1114.01 661.285 1
-7 19 7 1305.14 466.915 1
-7 19 7 894.008 611.286 4
-7 -12 -7 445.081 333.635 3
19 -12 4 1025.08 525.215 2
-12 19 -4 669.176 438.874 1
-7 19 4 1300.46 624.896 4
-7 -12 -4 649.14 272.112 2
-7 19 4 897.903 279.218 1
-7 -12 -4 870.058 402.28 3
-12 19 -1 240.626 307.296 2
-12 19 -1 834.766 476.439 1
-7 19 1 854.558 413.653 1
19 -12 1 1063.12 625.794 2
-7 19 1 567.83 352.295 4
19 -7 -1 1813.33 808.31 2
-12 -7 1 780.921 449.417 2
-7 -12 -1 347.714 66.9407 3
-7 -12 -1 660.504 370.569 2
-12 19 2 1612.83 625.807 1
-12 19 2 2076.38 687.863 2
-7 19 -2 1656.01 679.698 1
19 -7 2 2106.09 739.693 2
-12 -7 -2 1439.38 645.272 2
19 -12 -2 1287.87 823.46 2
-12 19 2 1291.32 530.503 4
-7 -12 2 1693.66 866.223 3
-12 -7 -5 148.264 203.639 1
-7 19 -5 72.9709 77.909 1
-12 19 5 24.8259 208.416 2
-12 19 5 -102.097 278.564 1
-12 -7 -5 534.647 470.823 2
19 -7 5 340.33 480.615 2
-7 -12 5 -333.662 415.903 4
-12 19 5 246.921 253.35 4
19 -12 -5 191.042 97.0201 4
-7 -12 5 740.058 703.991 3
-12 -7 -8 379.935 222.871 1
-7 19 -8 463.823 375.571 1
-12 19 8 919.838 353.998 1
-12 -7 -8 696.243 178.654 2
19 -7 8 585.024 383.635 2
-12 19 8 127.489 217.311 2
19 -12 -8 380.824 144.243 4
-7 -12 8 317.62 476.658 4
-12 19 8 657.608 603.906 4
-7 -12 8 804.68 525.25 3
-12 19 11 286.224 197.537 1
-7 19 -11 515.443 566.184 1
-12 -7 -11 -97.2171 475.51 2
-12 -7 -11 201.586 172.933 1
19 -7 11 -8.06908 380.431 2
-12 19 11 -241.366 406.09 4
-12 19 11 -225.387 262.729 2
-7 -12 11 644.513 502.127 4
-7 -12 11 286.064 399.219 3
19 -13 11 103.312 483.973 2
-13 19 -11 978.291 825.807 1
-13 -6 11 521.147 370.389 4
-6 19 11 73.4871 48.6735 4
-6 -13 -11 883.262 463.693 3
-6 -13 -8 621.605 411.289 2
19 -13 8 969.741 652.758 2
-13 19 -8 1503.67 815.755 1
-6 19 8 1197.35 587.328 4
-6 19 8 1000.62 359.609 1
-6 -13 -8 693.354 460.096 3
19 -13 5 262.361 390.719 2
-6 -13 -5 521.313 560.433 2
-13 19 -5 48.5183 91.6839 1
-6 19 5 267.849 342.858 4
-6 19 5 260.238 234.281 1
-6 -13 -5 15.6185 316.712 3
-13 19 -2 2081.56 1111.89 2
-6 19 2 2531.29 714.693 1
19 -13 2 2710.62 883.295 2
-6 19 2 2028.57 797.465 4
-13 19 -2 2702.63 968.002 1
-6 -13 -2 1572.63 539.936 2
19 -6 -2 2955.8 998.986 2
-6 -13 -2 2480.42 831.581 3
-13 19 1 1240.49 624.172 1
-13 19 1 1834.34 628.534 2
-6 19 -1 913.87 443.959 1
19 -13 -1 2372.23 1015.84 2
-13 -6 -1 334.633 375.482 2
19 -6 1 446.234 388.177 2
-6 19 -1 97.5989 182.915 4
-6 -13 1 837.484 450.703 3
-13 -6 -4 4302.96 920.967 1
-13 19 4 5656.11 1100.65 2
-13 19 4 5535.47 1178.07 1
19 -6 4 5183.63 1384.38 2
-13 -6 -4 5619.61 1539.81 2
-6 -13 4 5253.21 1328.72 4
-13 19 4 4796.45 1160.77 4
-6 -13 4 5703.22 1408.97 3
19 -13 -4 4606.66 1402.68 2
-6 19 -4 5302.51 1150.33 1
-13 19 7 -41.6068 160.954 1
-13 -6 -7 424.356 311.917 1
-6 19 -7 42.6176 232.91 1
-13 -6 -7 364.735 280.981 2
-13 19 7 -69.7671 133.481 2
19 -6 7 98.7328 130.901 2
-6 -13 7 -378.935 374.318 4
19 -13 -7 -256.926 404.581 4
-13 19 7 113.258 295.301 4
-6 -13 7 190.823 293.449 3
-6 19 -10 810.144 471.403 1
-13 -6 -10 278.748 526.735 2
-13 -6 -10 339.212 230.133 1
19 -6 10 175.962 381.673 2
-13 19 10 779.742 397.547 1
-13 19 10 326.733 284.149 2
-13 19 10 401.931 280.886 4
-6 -13 10 634.924 565.538 4
-6 -13 10 464.995 127.381 3
-6 19 -13 248.257 296.893 1
19 -6 13 173.652 322.136 2
-13 19 13 543.274 425.349 4
-13 19 13 506.981 330.654 2
-13 -6 -13 316.979 208.486 3
-13 -6 -13 294.144 180.741 1
-6 -13 13 16.0676 110.166 3
-5 -14 -12 648.853 442.789 3
19 -14 12 410.119 796.422 2
-14 19 -12 375.529 198.884 1
-14 -5 12 259.782 161.78 4
-5 19 12 298.691 383.698 4
-5 -14 -9 -56.7139 59.9161 2
19 -14 9 -47.0772 109.148 2
-14 19 -9 581.718 410.896 1
-5 19 9 -240.919 438.937 4
-5 -14 -9 685.26 491.446 3
19 -14 6 446.532 508.047 2
-5 -14 -6 -53.3204 298.552 2
-5 19 6 959.968 627.461 4
-14 19 -6 196.676 199.429 1
-5 19 6 491.885 227.842 1
-5 -14 -6 -88.5783 255.324 3
-14 19 -3 546.915 541.739 2
-5 19 3 403.707 290.862 1
19 -14 3 849.727 447.44 2
-5 19 3 552.454 315.166 4
-14 19 -3 556.188 408.273 1
-5 -14 -3 586.597 264.014 2
-5 -14 -3 572.321 322.009 3
-14 19 0 81.1287 239.178 1
-14 19 0 696.868 412.115 2
-5 19 0 119.694 75.945 1
19 -14 0 -92.5151 411.045 2
-14 -5 0 107.964 237.534 2
-5 19 0 148.094 167.871 4
19 -5 0 557.591 282.179 2
-5 -14 0 199.773 209.78 3
-14 -5 -3 1896.51 650.496 1
-5 19 -3 2215 775.05 1
-14 19 3 3161.29 938.244 1
-14 19 3 3363.73 858.919 2
-14 -5 -3 1865.36 778.564 2
19 -5 3 4073.37 1264.63 2
-5 -14 3 1772.74 808.782 4
19 -14 -3 3133.83 1168.36 2
-5 -14 3 2442 915.38 3
-5 19 -6 372.598 454.523 1
-14 -5 -6 175.287 160.958 1
-14 19 6 -26.2024 226.133 2
-14 -5 -6 -135.317 564.644 2
19 -5 6 29.4309 124.581 2
-5 -14 6 224.591 418.229 4
19 -14 -6 -152.104 113.108 4
-14 19 6 105.505 193.77 4
-14 19 6 231.623 211.019 1
-5 -14 6 75.9593 202.498 3
-5 19 -9 100.839 87.521 1
-14 -5 -9 265.568 216.738 1
19 -5 9 -29.2035 408.621 2
-14 19 9 -6.43495 80.5962 2
-14 19 9 219.169 204.692 4
-14 19 9 180.915 75.3336 1
-5 -14 9 278.993 410.922 3
-5 19 -12 918.327 733.108 1
19 -5 12 647.913 682.705 2
-14 19 12 404.239 296.345 2
-5 -14 12 377.663 296.453 3
-14 19 12 931.336 623.949 4
-14 -5 -12 101.286 250.95 1
-4 -15 -13 140.706 176.187 3
19 -15 13 -221.327 531.139 2
-15 19 -13 87.4122 249.581 1
-15 -4 13 -31.927 66.4439 4
-4 19 13 -49.7305 141.556 4
-4 -15 -10 477.188 295.272 3
19 -15 10 85.5741 398.655 2
-15 19 -10 406.591 428.75 1
-4 19 10 156.316 269.016 4
-4 19 7 204.864 162.234 1
-4 -15 -7 197.95 55.657 2
19 -15 7 -722.193 697.45 2
-15 19 -7 -478.681 578.655 1
-4 19 7 245.537 309.936 4
-4 -15 -7 30.2826 178.131 3
-4 19 4 157.862 153.794 1
19 -15 4 254.968 204.39 2
-4 -15 -4 208.958 238.845 2
-4 19 4 49.347 289.716 4
-15 19 -4 -119.021 357.539 1
-4 -15 -4 122.228 71.6339 3
-4 19 1 304.045 148.993 1
-15 19 -1 295.823 207.267 2
19 -15 1 -144.398 118.221 2
-4 19 1 503.251 249.228 4
19 -4 -1 420.173 463.875 2
-4 -15 -1 85.2525 120.699 3
-15 19 -1 150.079 347.69 1
-4 19 -2 1506.92 603.84 1
-15 -4 -2 1678.89 588.35 1
-15 19 2 2018.13 792.024 1
-15 19 2 1899.59 732.545 2
-15 -4 -2 1324.36 555.006 2
19 -15 -2 3014.01 1339.83 2
19 -4 2 2363.26 1001.51 2
-4 19 -2 1735.31 686.768 4
-4 -15 2 1756.01 668.216 3
-4 19 -5 463.155 353.782 1
-15 -4 -5 657.806 377.139 1
-15 19 5 1051.62 554.192 2
-15 -4 -5 277.253 217.411 2
19 -4 5 1092.7 776.95 2
-15 19 5 298.209 206.773 1
19 -15 -5 941.961 490.881 4
-15 19 5 460.079 413.352 4
19 -15 -5 33.2861 191.543 2
-4 -15 5 738.482 478.797 3
-4 19 -8 147.552 277.494 1
-15 -4 -8 315.28 237.816 1
-15 19 8 119.365 275.872 1
19 -4 8 -15.3411 366.871 2
-15 19 8 -73.2683 102.298 2
19 -15 -8 294.842 269.248 4
-15 19 8 -52.5497 42.6985 4
-4 -15 8 -156.212 372.316 3
-15 -4 -11 447.018 258.591 1
-4 19 -11 419.921 411.07 1
19 -4 11 476.689 408.118 2
-15 19 11 337.13 250.669 1
-15 19 11 19.1499 252.554 4
-15 19 11 -49.8542 193.288 2
-4 -15 11 703.864 525.296 3
-3 -16 -11 1391.33 688.985 3
19 -16 11 125.051 476.821 2
-16 19 -11 1127.28 647.492 1
-3 19 11 551.752 599.983 4
-3 -16 -8 326.888 350.427 3
-3 -16 -8 161.686 180.559 2
19 -16 8 121.798 115.29 2
-3 19 8 466.861 358.705 4
-16 19 -8 94.6205 281.553 1
19 -16 5 113.742 418.081 2
-3 19 5 211.479 191.915 1
-3 -16 -5 446.336 598.745 2
-3 19 5 5.32552 24.4922 4
-16 19 -5 361.724 95.5797 1
-3 -16 -5 173.653 77.0465 3
-3 19 2 185.827 206.328 1
-16 19 -2 354.089 208.409 2
19 -16 2 -272.259 483.663 2
-3 19 2 -324.241 459.263 4
-3 -16 -2 66.2313 268.991 3
-16 19 -2 775.605 473.632 1
-3 19 -1 1297.95 568.991 1
-16 19 1 3572.89 1168.58 1
-16 19 1 3175.68 1018.75 2
-16 -3 -1 1645.67 641.876 1
19 -16 -1 1482.8 735.399 2
-3 19 -1 2076.7 796.22 4
19 -3 1 1607.3 887.797 2
-3 -16 1 1674.28 847.63 3
-3 19 -4 1183.35 521.084 1
-16 -3 -4 730.506 433.059 1
-16 19 4 1159.27 504.398 2
-16 19 4 1053.6 434.43 1
19 -3 4 736.973 599.344 2
19 -16 -4 2109.53 883.442 4
-3 19 -4 1425.62 556.19 4
19 -16 -4 1414.22 867.455 2
-3 -16 4 945.576 474.667 3
-3 19 -7 23.4276 147.6 1
-16 19 7 -182.75 234.495 1
-16 -3 -7 109.102 224.717 1
-16 19 7 138.935 29.5747 2
19 -3 7 89.0948 173.037 2
19 -16 -7 469.876 322.518 4
-16 19 7 -10.1204 63.3603 4
-3 -16 7 426.732 487.276 3
-16 -3 -10 726.869 392.058 1
-3 19 -10 766.622 443.575 1
19 -3 10 545.493 351.72 2
-16 19 10 580.466 390.005 1
-16 19 10 586.654 295.735 2
-16 19 10 497.653 389.916 4
-3 -16 10 387.172 420.384 3
-3 19 -13 1019.2 840.033 1
19 -3 13 987.904 684.965 2
-16 19 13 1328.85 699.89 4
-16 -3 -13 895.092 453.325 1
-16 19 13 271.521 259.056 2
-3 -16 13 1122.31 651 3
-2 -17 -12 643.795 540.679 3
19 -17 12 70.5166 371.039 2
-2 19 12 -158.966 178.124 4
-17 19 -12 318.594 456.188 1
-2 -17 -9 73.7732 262.398 3
19 -17 9 465.943 423.855 2
-2 19 9 300.889 373.531 4
-17 19 -9 -91.7772 141.743 1
-2 -17 -6 -38.6426 54.5748 3
19 -17 6 380.512 480.633 2
-2 -17 -6 -37.9269 129.766 2
-2 19 6 355.069 172.546 1
-2 19 6 464.866 275.72 4
-17 19 -6 22.8698 321.405 1
-2 19 3 453.859 203.975 1
19 -17 3 387.049 166.501 2
-2 19 3 1111.84 719.151 4
-17 19 -3 1432.21 806.835 1
-2 -17 -3 1276.09 623.311 3
-2 19 0 311.354 268.907 1
-17 19 0 862.616 444.883 1
-17 19 0 732.379 358.796 2
19 -17 0 408.405 378.055 2
-17 -2 0 462.748 194.908 1
-2 19 0 367.872 200.386 4
19 -2 0 257.043 209.585 2
-2 -17 0 861.881 467.216 3
-2 19 -3 668.05 387.342 1
-17 19 3 826.547 532.883 2
-17 -2 -3 486.636 341.838 1
-17 19 3 696.445 455.625 1
19 -17 -3 -131.486 332.835 2
19 -2 3 398.158 276.103 2
19 -17 -3 793.503 798.559 4
-2 19 -3 790.028 448.067 4
-2 -17 3 368.576 415.038 3
-2 19 -6 134.182 313.433 1
-17 19 6 -70.33 102.389 1
-17 19 6 -4.23438 128.84 2
-17 -2 -6 -96.2029 157.567 1
19 -2 6 308.768 509.883 2
19 -17 -6 370.885 449.676 4
-2 -17 6 344.352 485.669 3
-17 19 9 267.91 330.551 1
-2 19 -9 400.748 591.567 1
-17 -2 -9 598.172 404.027 1
19 -2 9 809.062 709.886 2
19 -17 -9 280.915 312.572 4
-17 19 9 295.571 438.016 2
-17 19 9 318.877 336.763 4
-2 -17 9 272.309 276.397 3
-2 19 -12 -278.959 446.243 1
-17 19 12 238.986 251.417 1
19 -2 12 329.148 559.791 2
-17 19 12 54.5342 216.136 4
-17 19 12 82.5985 183.097 2
-17 -2 -12 289.354 326.22 1
-2 -17 12 760.692 538.909 3
-1 -18 -10 493.643 408.869 3
19 -18 10 445.317 647.559 2
-1 19 10 188.64 180.616 4
-18 19 -10 -133.602 517.929 1
-1 -18 -7 94.1093 197.511 3
19 -18 7 9.33805 411.345 2
-1 19 7 639.453 245.514 1
-1 19 7 596.029 398.96 4
19 -1 -7 328.703 199.141 4
-18 19 -7 44.5815 152.219 1
-1 -18 -4 741.271 394.954 3
-1 19 4 805.375 328.62 1
19 -18 4 1098.9 697.696 2
-1 19 4 1144.37 671.419 4
-1 -18 -4 534.344 309.927 2
-18 19 -4 1081.72 803.201 1
-1 -18 -1 521.78 364.947 3
-1 19 1 307.462 196.105 1
-18 19 -1 1088.52 714.312 1
19 -18 1 389.201 360.594 2
-1 19 1 620.372 454.14 4
-18 -1 1 506.462 323.758 1
-1 19 -2 214.007 116.392 1
-18 19 2 571.819 444.61 2
-18 19 2 1046.67 591.641 1
-18 -1 -2 576.556 396.19 1
19 -18 -2 558.114 773.886 2
-1 19 -2 1313.76 625.382 4
19 -18 -2 1806.93 1216.11 4
19 -1 2 309.994 467.003 2
-1 -18 2 1083.55 503.948 3
-1 19 -5 132.548 167.674 1
-18 19 5 694.11 559.239 2
19 -1 5 407.508 537.432 2
19 -18 -5 584.284 412.436 4
-18 -1 -5 170.122 285.122 1
19 -18 -5 -305.148 579.103 2
-18 19 5 731.55 582.59 1
-1 -18 5 139.146 40.5274 3
-1 19 -8 524.134 450.392 1
-18 -1 -8 646.078 434.484 1
-18 19 8 283.633 219.476 2
19 -1 8 726.946 470.53 2
19 -18 -8 796.529 576.587 4
-18 19 8 418.282 235.803 1
-1 -18 8 478.547 553.425 3
-1 19 -11 943.09 656.496 1
-18 19 11 152.785 88.8426 1
19 -1 11 265.434 219.116 2
-18 19 11 103.925 248.662 2
-18 19 11 1054.86 554.552 4
-18 -1 -11 623.994 448.111 1
-1 -18 11 613.858 406.593 3
0 -19 -11 221.787 196.637 3
19 -19 11 132.185 418.864 2
0 19 11 -241.498 344.466 4
-19 19 -11 31.5845 310.736 1
0 -19 -8 187.801 152.338 3
19 -19 8 -112.068 344.813 2
0 19 8 213.559 278.477 4
19 0 -8 367.173 209.437 4
-19 19 -8 527.609 172.811 1
0 -19 -5 151.058 402.91 3
0 19 5 749.132 324.737 1
19 -19 5 114.933 172.217 2
0 -19 -5 261.621 402.367 2
0 19 5 1046.09 698.158 4
-19 19 -5 686.637 666.223 1
0 -19 -2 773.175 484.697 3
0 19 2 -69.4898 64.2686 1
-19 19 -2 -223.856 307.003 1
-19 0 2 -94.4901 346.684 1
19 -19 2 -415.64 469.261 2
0 19 2 -196.649 469.127 4
0 -19 1 -266.738 475.647 3
0 19 -1 -153.633 306.779 1
-19 19 1 658.894 537.317 1
19 -19 -1 144.66 370.211 2
0 19 -1 169.879 397.323 4
-19 0 -1 -17.9186 169.955 1
19 0 1 -612.947 474.114 2
0 -19 4 1161.3 581.413 3
0 19 -4 894.11 491.337 1
-19 19 4 790.365 475.112 2
19 -19 -4 1113.18 726.716 4
19 0 4 44.3231 182.828 2
19 -19 -4 1346.45 952.406 2
0 19 -4 929.677 522.261 4
-19 0 -4 713.029 424.221 1
-19 19 4 1837.54 778.58 1
0 -19 7 3491.38 1197.38 3
0 19 -7 4722.41 1301.92 1
-19 0 -7 3397.55 995.012 1
-19 19 7 3497.89 1015.11 1
-19 19 7 2834.97 930.492 2
19 0 7 4240.15 1348.24 2
19 -19 -7 5731.2 1423.53 4
0 -19 10 706.207 503.357 3
0 19 -10 1283.27 788.278 1
19 0 10 14.5058 291.892 2
-19 19 10 236.395 217.158 1
-19 19 10 475.588 94.5603 4
-19 0 -10 468.442 433.302 1
1 -20 -9 341.626 379.927 3
19 -20 9 1050.63 818.846 2
1 19 9 206.69 271.228 4
-20 19 -9 654.975 636.023 1
-20 19 -6 84.0957 370.725 1
1 -20 -6 554.967 479.566 3
1 19 6 94.5607 139.762 1
19 -20 6 -386.374 626.932 2
19 1 -6 60.2436 82.5275 4
1 19 6 186.644 241.433 4
1 19 3 2151.78 606.109 1
1 -20 -3 2241.6 817.31 3
-20 1 3 1768.97 702.503 1
-20 19 -3 2745.73 1045.94 1
19 -20 3 1931.67 863.572 2
1 19 3 2686.96 1054.85 4
1 -20 0 505.406 492.917 3
-20 19 0 1353.3 719.302 1
19 -20 0 391.704 405.836 2
1 19 0 1022.69 518.304 4
-20 1 0 626.245 442.143 1
1 -20 3 1192.27 666.115 3
19 -20 -3 340.528 397.158 2
-20 19 3 1186.94 661.891 1
1 19 -3 952.817 514.352 4
19 1 3 472.834 489.841 2
-20 1 -3 992.306 642.681 1
1 -20 6 1318.75 706.69 3
-20 19 6 1079.51 589.983 1
-20 1 -6 1837.69 854.5 1
19 -20 -6 1993.69 934.225 4
19 -20 -6 2583.35 1455.65 2
19 1 6 1707.62 995.318 2
-20 1 -9 560.642 382.436 1
1 -20 9 536.734 350.45 3
-20 19 9 189.342 384.922 1
19 -20 -9 -246.23 473.002 4
19 1 9 300.032 301.831 2
2 -21 -10 -232.766 477.525 3
19 -21 10 -377.24 212.052 2
2 19 10 -91.3037 210.805 4
-21 19 -10 -677.962 645.151 1
-21 19 -7 -227.13 443.962 1
2 -21 -7 358.147 343.156 3
2 19 7 349.911 187.48 1
19 -21 7 395.979 389.521 2
2 19 7 505.48 479.992 4
19 2 -7 401.169 261.508 4
2 19 7 410.037 200.308 1
2 19 4 419.742 177.141 1
2 -21 -4 -299.876 367.227 3
-21 19 -4 637.404 500.886 1
2 -21 -4 -91.6854 119.174 2
19 -21 4 255.681 414.854 2
-21 2 4 -59.9438 147.952 1
2 19 4 677.345 537.892 4
2 -21 -1 145.019 188.428 3
-21 2 1 867.827 450.347 1
-21 19 -1 1198.81 727.707 1
19 -21 1 608.986 434.16 2
2 19 1 841.192 567.973 4
2 -21 2 -475.983 309.063 3
-21 2 -2 -63.4679 281.368 1
19 -21 -2 -620.945 732.223 2
-21 19 2 9.82096 88.3192 1
2 19 -2 -70.7736 228.955 4
19 2 2 413.815 391.711 2
2 -21 5 1695.13 955.957 3
-21 19 5 1442.08 713.266 1
-21 2 -5 1005.21 608.244 1
19 2 5 815.995 553.361 2
2 19 -5 774.887 520.889 4
19 -21 -5 2101.39 1985.47 2
19 2 8 582.887 532.682 2
2 -21 8 1030.33 735.996 3
-21 2 -8 1084.56 657.585 1
-21 19 8 -274.998 350.342 1
2 -21 11 345.288 393.206 3
-21 19 11 -103.388 241.236 1
19 2 11 235.037 403 2
-21 2 -11 -207.945 156.034 1
-22 19 -8 481.084 568.027 1
3 -22 -8 525.559 471.686 3
3 19 8 744.887 269.035 1
3 19 8 650.184 245.7 1
19 -22 8 -25.1004 387.938 2
3 19 8 254.914 343.275 4
19 3 -8 811.512 365.205 4
3 -22 -5 775.82 531.681 3
-22 19 -5 763.818 535.47 1
19 -22 5 203.328 282.262 2
19 3 -5 157.02 129.826 4
3 19 5 746.438 514.475 4
3 -22 -2 105.445 185.713 3
3 -22 -2 -313.25 219.857 2
-22 19 -2 1599.16 826.128 1
-22 3 2 505.701 266.396 1
19 -22 2 104.709 63.0749 2
3 19 2 980.515 563.482 4
3 -22 1 167.841 201.338 3
-22 3 -1 -43.4967 203.141 1
19 -22 -1 -24.5422 270.785 2
-22 19 1 848.109 376.742 1
3 19 -1 692.858 486.267 4
3 -22 4 1194.54 627.676 3
-22 19 4 2337.02 943.224 1
-22 3 -4 1613.04 903.029 1
19 -22 -4 553.71 759.708 2
3 19 -4 1192.58 609.871 4
19 3 4 1227.3 777.895 2
3 -22 7 770.893 539.329 3
-22 3 -7 533.382 426.412 1
-22 19 7 1323.88 737.887 1
19 3 7 261.543 650.99 2
3 -22 10 951.921 628.88 3
19 3 10 1083.64 840.725 2
-22 19 10 484.25 460.803 1
-22 3 -10 250.662 144.047 1
-23 19 -9 580.722 790.298 1
4 19 9 442.318 201.32 1
19 -23 9 14.0439 205.764 2
4 19 9 740.471 309.078 1
4 19 9 449.325 351.614 4
19 4 -9 583.849 389.694 4
4 19 6 238.968 176.637 1
4 -23 -6 187.468 190.883 3
-23 19 -6 513.457 582.957 1
19 -23 6 -69.1812 336.277 2
4 19 6 261.676 156.451 4
19 4 -6 159.778 227.143 4
4 -23 -3 501.398 435.614 3
4 -23 -3 -181.675 216.066 2
-23 19 -3 265.395 187.311 1
19 -23 3 -32.2919 262.349 2
4 19 3 310.353 331.677 4
-23 4 3 239.748 374.408 1
4 -23 0 -287.996 494.853 3
4 -23 0 -18.1303 37.5323 2
-23 4 0 494.35 511.798 1
19 -23 0 -523.229 493.659 2
-23 19 0 1048.76 607.295 1
4 19 0 571.585 349.679 4
4 -23 3 449.24 385.996 3
-23 4 -3 945.6 482.394 1
19 -23 -3 -256.999 616.379 2
4 19 -3 417.651 373.276 4
19 4 3 124.144 377.962 2
-23 19 3 991.626 653.859 1
4 -23 6 1062.56 786.248 3
-23 4 -6 795.562 674.591 1
-23 19 6 1057.88 674.065 1
19 4 6 264.15 554.304 2
4 19 -6 909.442 603.267 4
19 -23 -6 1718.92 1600.28 2
4 -23 9 624.186 513.77 3
-23 19 9 562.478 533.163 1
19 4 9 363.735 383.34 2
-23 4 -9 425.935 339.227 1
-24 19 -7 462.961 555.483 1
19 -24 7 1451.18 809.855 2
5 19 7 661.267 613.14 4
5 19 7 804.262 317.703 1
19 5 -7 608.471 389.898 4
5 -24 -4 73.3972 248.491 3
-24 5 4 84.0628 317.854 1
5 -24 -4 -111.216 159.207 2
-24 19 -4 343.684 417.145 1
19 -24 4 -21.5911 402.683 2
19 5 -4 60.0122 155.553 4
5 19 4 701.53 515.059 4
5 -24 -1 204.069 178.685 3
5 -24 -1 63.3045 185.783 2
19 -24 1 -383.332 569.919 2
-24 5 1 586.001 484.173 1
-24 19 -1 -446.275 357.056 1
5 19 1 213.297 368.908 4
5 -24 2 413.173 429.534 3
5 -24 2 322.314 340.207 2
19 -24 -2 -109.916 410.994 2
5 19 -2 151.164 206.115 4
-24 5 -2 433.507 449.672 1
-24 19 2 294.633 256.019 1
5 -24 5 -134.199 258.39 3
-24 5 -5 466.364 595.327 1
-24 19 5 353.923 450.694 1
5 19 -5 425.907 484.603 4
19 -24 -5 1142.27 994.374 2
19 5 5 -51.3563 268.8 2
5 -24 8 496.283 167.758 3
-24 19 8 850.09 550.399 1
19 5 8 -262.154 337.44 2
-24 5 -8 -0.59051 89.3726 1
6 19 5 526.392 321.137 1
-25 19 -5 1112.42 597.014 1
19 -25 5 846.794 434.027 2
-25 6 5 352.601 104.639 1
6 19 5 234.929 120.846 4
19 6 -5 468.26 337.31 4
6 -25 -2 -218.845 331.885 3
6 -25 -2 -39.7491 148.397 2
19 -25 2 493.159 298.861 2
-25 19 -2 962.88 766.454 1
6 19 2 300.197 549.311 4
-25 6 2 919.137 648.83 1
6 -25 1 -6.67648 330.504 3
6 -25 1 -328.886 441.471 2
19 -25 -1 -4.22419 362.943 2
6 19 -1 158.726 151.94 4
-25 19 1 221.918 324.603 1
-25 6 -1 592.557 538.995 1
6 -25 4 400.938 459.671 3
6 -25 4 230.509 404.761 2
-25 19 4 15.8371 164.771 1
-25 6 -4 769.996 389.239 1
6 19 -4 -29.9075 303.142 4
19 6 4 -111.08 112.864 2
-25 6 -7 985.419 704.446 1
6 -25 7 448.385 442.951 3
19 6 7 164.877 302.971 2
6 19 -7 302.157 322.375 4
-25 19 7 -305.511 274.337 1
7 19 6 236.663 171.568 1
-26 7 6 453.953 286.086 1
-26 19 -6 681.356 520.863 1
19 -26 6 197.421 252.751 2
7 19 6 -266.712 177.2 4
19 7 -6 208.96 66.2182 4
7 -26 -3 538.043 382.476 2
19 -26 3 707.459 467.254 2
-26 19 -3 1217.37 679.915 1
19 7 -3 367.092 258.782 4
7 19 3 614.229 517.62 4
-26 7 3 155.917 292.235 1
-26 7 0 127.186 102.086 1
7 -26 0 -151.219 246.623 3
7 -26 0 406.953 272.974 2
19 -26 0 202.891 330.76 2
7 19 0 -54.4622 291.447 4
-26 19 0 967.043 735.175 1
7 -26 3 1007.19 646.128 3
-26 19 3 483.061 467.035 1
7 -26 3 107.978 314.369 2
19 -26 -3 -248.533 361.012 2
7 19 -3 527.281 416.286 4
7 -26 6 -207.872 347.978 3
-26 7 -6 772.757 653.539 1
7 -26 6 568.249 580.453 2
-26 19 6 9.67438 208.573 1
7 19 -6 554.845 429.231 4
19 -26 -6 630.28 1257.42 2
19 7 6 395.962 457.248 2
-27 8 4 467.875 623.486 1
8 19 4 141.958 183.313 1
19 -27 4 308.194 654.764 2
8 -27 -4 152.937 57.8882 2
-27 19 -4 395.432 310.341 1
8 19 4 -343.138 458.282 4
19 8 -4 -298.14 344.329 4
-27 8 1 14.534 173.182 1
8 -27 -1 279.292 290.657 2
19 -27 1 209.369 501.687 2
8 19 1 -258.628 122.906 4
-27 19 -1 -372.069 765.645 1
-27 19 2 -147.178 293.915 1
8 -27 2 559.341 488.52 3
8 -27 2 104.146 378.376 2
-27 8 -2 383.452 481.326 1
19 -27 -2 93.1156 268.981 2
8 19 -2 92.7688 199.2 4
8 -27 5 -115.679 299.835 3
8 -27 5 -400.733 497.789 2
-27 8 -5 630.363 558.781 1
-27 19 5 225.012 313.882 1
19 -27 -5 1025.5 769.158 2
8 19 -5 -128.355 150.711 4
-28 9 2 587.633 458.628 1
9 -28 -2 208.968 278.819 2
19 -28 2 361.875 264.39 2
19 9 -2 307.488 383.333 4
9 19 2 128.729 182.676 4
-28 19 -2 472.596 693.998 1
-28 19 1 517.465 428.564 1
9 -28 1 463.295 514.76 2
19 -28 -1 122.596 332.317 2
9 19 -1 587.774 549.568 4
-28 9 -1 565.738 550.667 1
-10 20 0 531.38 414.637 1
20 -10 0 894.552 457.663 2
-10 -10 0 554.023 275.195 2
-10 20 3 -87.7482 199.318 2
-10 20 -3 1500.99 649.918 1
20 -10 3 1342.36 692.542 2
-10 -10 -3 1404.23 733.264 2
-10 20 3 1295.97 551.044 4
20 -10 -3 961.431 605.349 2
-10 20 3 882.998 414.203 1
-10 20 6 451.352 201.859 2
-10 20 -6 1486.67 638.255 1
-10 20 6 2303.43 730.362 1
-10 -10 -6 2703.25 1243.14 2
20 -10 6 2422.06 1000.03 2
-10 -10 6 706.183 525.983 4
-10 20 6 1511.4 714.98 4
-10 -10 -6 2073.09 705.951 3
-10 -10 9 -251.057 135.434 4
-10 -10 -9 -203.944 492.101 2
-10 20 -9 891.516 574.174 1
-10 20 9 145.614 100.772 2
20 -10 9 640.207 714.944 2
-10 20 9 723.407 322.094 1
-10 20 9 514.724 120.253 4
-10 -10 -9 286.883 55.101 1
-10 -10 -9 378.99 277.112 3
-10 -10 -12 343.013 373.464 2
-10 20 -12 508.828 548.027 1
20 -10 12 1033.91 874.942 2
-10 20 12 266.765 219.41 4
-10 -10 12 923.997 518.405 4
-10 20 12 367.59 242.802 2
-10 -10 -12 1039.43 484.761 3
-10 -10 -12 637.053 307.685 1
-9 -11 -13 -38.7949 34.9704 1
-11 20 -13 488.857 596.667 1
20 -11 13 135.972 494.82 2
-9 20 13 -103.646 317.032 4
-11 -9 13 244.484 314.629 4
-9 20 13 -107.19 135.402 2
-9 -11 -13 -179.988 174.673 3
-9 -11 -10 277.403 543.905 2
-11 20 -10 911.142 509.862 1
-9 20 10 417.04 191.862 1
20 -11 10 739.814 484.677 2
-9 20 10 41.324 76.024 2
-11 -9 10 554.813 397.951 4
-9 20 10 584.493 400.995 4
-9 -11 -10 528.286 411.74 3
-11 20 -7 724.968 522.449 1
-9 -11 -7 732.869 160.379 2
20 -11 7 1056.49 716.709 2
-9 20 7 971.951 442.49 1
-9 20 7 1194.44 660.553 4
20 -9 -7 681.583 251.863 4
-9 -11 -7 1253.1 568.863 3
-9 20 4 -204.727 211.933 2
-11 20 -4 1541.9 724.164 1
20 -11 4 951.228 449.625 2
-9 -11 -4 1160.1 415.804 2
-9 20 4 2084.57 813.72 4
-9 -11 -4 1508.92 643.002 3
-9 20 4 1914.49 604.994 1
-11 20 -1 4591.97 1187.64 1
-11 20 -1 3997.32 1040.67 2
-9 20 1 4137.71 1011.12 1
20 -11 1 4540.8 1223.09 2
20 -9 -1 4580.42 1353.91 2
-9 20 1 3067.36 894.94 4
-9 -11 -1 3526.03 845.382 2
-11 -9 1 3513.06 1058.31 2
-11 20 2 1197.02 608.727 2
-9 20 -2 965.259 452.322 1
20 -9 2 1928.77 875.726 2
-11 -9 -2 134.066 195.719 2
-11 20 2 1160.24 498.469 4
20 -11 -2 1473.78 704.844 2
-11 20 2 972.997 398.464 1
-11 20 5 6.40348 57.9469 2
-11 20 5 13.9208 173.312 1
-9 20 -5 92.7965 273.056 1
-11 -9 -5 261.845 113.093 2
20 -9 5 304.946 425.07 2
-9 -11 5 420.19 388.685 4
-11 20 5 253.36 39.4083 4
-11 20 8 1146.52 509.963 1
-9 20 -8 1722.77 806.167 1
-11 -9 -8 822.758 628.973 2
-11 20 8 658.046 327.689 2
-11 -9 -8 1123.71 436.754 1
20 -9 8 1315.42 750.059 2
20 -11 -8 1734.68 478.936 4
-9 -11 8 1375.56 600.917 4
-11 20 8 1144.11 651.175 4
-11 -9 -8 655.693 349.776 3
-11 -9 -11 -118.903 490.953 2
-9 20 -11 114.555 327.7 1
20 -9 11 -5.64315 240.825 2
-11 20 11 149.005 170.129 2
-9 -11 11 261.603 276.272 4
-11 20 11 260.664 181.099 1
-11 20 11 429.691 419.478 4
-11 -9 -11 303.042 230.564 1
-11 -9 -11 81.516 124.856 3
-8 -12 -11 210.155 435.176 2
-12 20 -11 340.584 506.991 1
20 -12 11 -253.661 359.378 2
-12 -8 11 -105.262 258.513 4
-8 20 11 148.666 287.049 4
-8 -12 -11 194.542 126.538 3
-8 -12 -8 390.973 180.33 2
-12 20 -8 175.501 272.586 1
20 -12 8 371.051 276.009 2
-8 20 8 629.533 624.847 4
-8 20 8 723.331 348.859 1
-8 -12 -8 348.138 312.942 3
-12 20 -5 3559.78 1119.16 1
20 -12 5 3575.22 1222.17 2
-8 -12 -5 5720.62 1594.58 2
-8 20 5 4028.8 1206.98 4
-8 -12 -5 2973.46 816.029 3
-8 20 5 4214.98 839.418 1
-12 20 -2 4349.45 1113.78 2
-8 20 2 3505.3 898.461 1
20 -12 2 4100.47 1243.27 2
-12 20 -2 3746.79 1131.5 1
-8 20 2 2394.6 791.576 4
-8 -12 -2 3104.09 869.482 2
20 -8 -2 3339.98 1135.29 2
-8 -12 -2 3301.1 948.265 3
-12 20 1 2327.01 949.349 2
-8 20 -1 2824.82 847.951 1
20 -8 1 1975.39 875.753 2
20 -12 -1 1327.83 662.618 2
-12 -8 -1 2637.47 810.836 2
-8 20 -1 2871.59 922.307 4
-8 -12 1 2502.44 913.823 3
-12 20 1 3482.49 1000.46 1
-12 20 4 415.991 345.949 1
-12 20 4 388.011 353.015 2
-8 20 -4 281.89 318.331 1
-8 -12 4 -497.222 402.68 4
-12 -8 -4 257.182 408.562 2
20 -8 4 376.089 135.97 2
-12 20 4 297.351 378.616 4
-8 -12 4 258.43 471.05 3
20 -12 -4 -218.879 303.243 2
-8 20 -7 534.134 380.319 1
-12 -8 -7 493.578 324.686 1
-12 20 7 416.046 270.784 2
-12 -8 -7 730.254 542.016 2
20 -8 7 548.695 611.257 2
-8 -12 7 612.453 440.261 4
20 -12 -7 931.711 393.734 4
-12 20 7 1200.34 673.984 4
-8 -12 7 685.034 634.374 3
-12 20 7 705.473 395.737 1
-8 20 -10 162.685 124.182 1
-12 20 10 63.2648 141.507 1
-12 -8 -10 -412.195 449.642 2
20 -8 10 401.229 163.776 2
-12 20 10 1.68423 84.5909 2
-8 -12 10 96.9196 333.564 4
-12 20 10 -262.361 197.7 4
-8 -12 10 369.842 380.23 3
-12 -8 -10 123.338 148.871 1
-12 -8 -13 120.999 122.918 1
-8 20 -13 504.986 605.458 1
20 -8 13 240.281 595.251 2
-12 20 13 11.4016 208.376 4
-8 -12 13 271.342 337.652 4
-12 20 13 150.985 53.6959 2
-8 -12 13 17.4221 301.456 3
-12 -8 -13 149.715 16.1112 3
20 -13 12 615.677 479.231 2
-13 20 -12 1504.92 789.088 1
-13 -7 12 975.189 482.352 4
-7 20 12 920.686 571.251 4
-7 -13 -12 1724.82 736.511 3
-7 -13 -9 345.14 328.566 2
20 -13 9 -182.551 497.221 2
-13 20 -9 360.848 391.862 1
-7 20 9 277.686 175.389 1
-7 20 9 713.596 494.463 4
-7 -13 -9 476.097 428.844 3
-7 20 6 1626.06 510.875 1
20 -13 6 1097.36 720.481 2
-7 -13 -6 2148.69 926.129 2
-13 20 -6 990.342 632.362 1
-7 20 6 1260.4 721.319 4
-7 -13 -6 1333.45 577.157 3
-13 20 -3 5805.42 1384.9 2
20 -13 3 3451.78 1077.21 2
-7 -13 -3 3489.99 1074.04 2
-7 20 3 5008.54 1304.74 4
-7 -13 -3 4650.91 1094.29 3
-13 20 -3 5078.98 1315.06 1
-7 20 3 5011.88 1034.9 1
-13 20 0 1673.72 751.468 2
-7 20 0 1960.93 698.974 1
20 -13 0 1564.98 780.322 2
20 -7 0 1565.35 814.118 2
-7 20 0 1163.97 563.315 4
-13 -7 0 1256.54 490.064 2
-13 20 0 2181.12 823.328 1
-7 -13 0 1840.11 654.711 3
-13 20 3 972.731 528.902 1
-13 20 3 758.878 465.706 2
-7 20 -3 275.557 160.264 1
-13 -7 -3 530.58 268.365 2
20 -7 3 1462.44 755.317 2
-13 20 3 756.867 357.86 4
20 -13 -3 1158.08 648.393 2
-7 -13 3 1076.37 658.058 3
-7 20 -6 496.47 257.305 1
-13 -7 -6 662.531 342.046 1
-13 20 6 502.309 332.211 2
-13 -7 -6 268.993 492.603 2
20 -7 6 617.252 563.34 2
-7 -13 6 203.143 142.231 4
-13 20 6 772.607 396.237 1
20 -13 -6 1098.97 388.359 4
-13 20 6 658.893 466.67 4
-7 -13 6 157.96 237.407 3
-7 20 -9 656.814 536.878 1
-13 -7 -9 1139.14 677.401 2
20 -7 9 919.987 798.383 2
-13 20 9 341.62 245.231 2
-13 20 9 1007.29 439.377 1
-7 -13 9 1016.76 586.061 4
-13 20 9 490.905 153.257 4
-7 -13 9 1116.37 699.984 3
-13 -7 -9 658.165 390.905 1
-7 20 -12 367.919 472.883 1
-13 -7 -12 244.153 135.56 1
20 -7 12 342.923 337.751 2
-13 20 12 843.647 600.547 4
-13 20 12 129.682 122.952 2
-13 -7 -12 243.893 136.808 3
-7 -13 12 451.509 420.206 3
-6 -14 -13 577.647 445.747 3
20 -14 13 -550.813 482.262 2
-14 20 -13 155.094 591.944 1
-6 20 13 -196.837 159.367 4
-14 -6 13 880.7 408.892 4
-6 -14 -10 -179.378 401.881 2
20 -14 10 401.047 574.151 2
-14 20 -10 492.267 353.756 1
-6 20 10 306.488 473.612 4
-6 -14 -10 61.4364 348.117 3
-6 20 7 1682.16 509.442 1
-6 -14 -7 1050.66 489.641 2
20 -14 7 933.054 581.61 2
-14 20 -7 1185.59 682.803 1
-6 20 7 474.791 424.343 4
-6 -14 -7 1052.02 508.701 3
20 -14 4 165.778 243.03 2
-6 20 4 622.08 352.745 1
-6 -14 -4 646.411 496.291 2
-14 20 -4 181.872 46.2336 1
-6 20 4 145.345 260.474 4
-6 -14 -4 188.041 36.3523 3
-14 20 -1 809.816 510.049 2
-6 20 1 980.821 425.668 1
20 -14 1 252.781 123.68 2
-6 20 1 459.73 170.302 4
20 -6 -1 809.813 609.703 2
-14 20 -1 911.211 513.557 1
-6 -14 -1 560.455 301.54 3
-14 20 2 8580.28 1527.87 1
-14 20 2 9039.91 1598.37 2
-14 -6 -2 6451.16 1395.76 2
-6 20 -2 5929.05 1332.01 4
20 -6 2 5684.2 1541.84 2
20 -14 -2 6192.97 1732.71 2
-6 -14 2 6537.09 1533.31 3
-6 20 -2 7190.86 1313.73 1
-6 20 -5 51.5798 263.593 1
-14 -6 -5 326.506 359.579 1
-14 20 5 -199.747 159.047 2
-14 -6 -5 -331.868 518.04 2
-14 20 5 60.9792 159.759 1
20 -6 5 280.323 505.454 2
20 -14 -5 359.506 308.462 4
-14 20 5 -21.7985 34.5877 4
-6 -14 5 626.562 495.595 3
-6 20 -8 12.0304 188.098 1
-14 20 8 21.2326 123.231 1
-14 -6 -8 -454.009 391.096 2
-14 20 8 -8.2551 156.37 2
20 -6 8 -204.057 291.877 2
20 -14 -8 778.756 426.82 4
-14 20 8 93.2699 156.12 4
-6 -14 8 467.725 569.645 3
-14 -6 -8 291.284 291.571 1
-6 20 -11 69.1885 353.378 1
-14 20 11 -57.6895 186.326 1
-14 -6 -11 462.815 309.579 1
20 -6 11 -80.6491 388.01 2
-14 20 11 576.299 251.079 2
-14 20 11 624.228 576.388 4
-6 -14 11 262.383 246.837 3
-5 -15 -11 790.656 528.188 3
20 -15 11 196.96 541.44 2
-15 20 -11 -4.99896 209.321 1
-5 20 11 289.738 429.579 4
-5 -15 -8 230.885 226.089 2
20 -15 8 -101.154 227.651 2
-15 20 -8 -252.827 447.833 1
-5 20 8 382.579 236.652 1
-5 20 8 99.1518 286.47 4
-5 -15 -8 513.73 357.998 3
20 -15 5 827.028 581.02 2
-5 -15 -5 390.946 435.187 2
-5 20 5 904.764 434.528 1
-15 20 -5 680.473 527.569 1
-5 20 5 876.322 609.765 4
-5 -15 -5 446.674 350.562 3
-15 20 -2 1059.37 617.952 2
-5 20 2 907.667 443.47 1
20 -15 2 372.733 326.395 2
-5 20 2 661.109 268.327 4
-15 20 -2 615.869 396.267 1
-5 -15 -2 632.308 351.888 2
20 -5 -2 947.73 507.722 2
-5 -15 -2 475.068 392.977 3
-15 20 1 439.56 438.471 1
-5 20 -1 382.426 303.051 1
-15 20 1 401.964 579.946 2
20 -15 -1 490.161 477.012 2
20 -5 1 223.317 304.068 2
-5 20 -1 243.752 250.442 4
-5 -15 1 303.072 297.063 3
-5 20 -4 -96.7784 324.67 1
-15 -5 -4 474.536 356.732 1
-15 20 4 240.575 298.33 2
-15 20 4 -39.4324 349.327 1
-15 -5 -4 403.033 435.519 2
20 -5 4 -154.3 173.711 2
20 -15 -4 912.791 753.214 4
20 -15 -4 799.387 623.205 2
-5 -15 4 150.351 216.519 3
-15 -5 -7 276.574 248.076 1
-15 20 7 391.45 350.874 1
-5 20 -7 257.356 123.204 1
-15 20 7 392.966 371.325 2
20 -5 7 188.649 140.64 2
20 -15 -7 607.551 427.089 4
-15 20 7 379.827 451.239 4
-5 -15 7 548.544 478.111 3
-5 20 -10 696.005 671.533 1
-15 20 10 490.97 329.116 1
-15 -5 -10 192.947 207.014 1
20 -5 10 254.854 111.477 2
-15 20 10 170.093 150.869 2
-15 20 10 -28.7244 148.394 4
-5 -15 10 683.644 503.5 3
-4 -16 -12 641.316 383.861 3
20 -16 12 794.366 970.668 2
-16 20 -12 621.253 361.008 1
-4 20 12 105.786 325.609 4
-4 -16 -9 717.738 436.453 3
-4 -16 -9 451.27 248.564 2
20 -16 9 -17.8931 360.522 2
-16 20 -9 308.587 291.154 1
-4 20 9 587.183 513.621 4
20 -16 6 68.2507 134.476 2
-4 -16 -6 193.474 286.254 2
-4 20 6 905.018 359.389 4
-16 20 -6 328.957 343.693 1
-4 20 6 554.071 257.588 1
-4 -16 -6 233.3 260.559 3
-4 20 3 1717.15 643.304 1
20 -16 3 2077.08 913.922 2
-4 20 3 2822.21 1026.1 4
-4 -16 -3 1452.65 558.828 2
-16 20 -3 2931.03 1098.04 1
-4 -16 -3 1631.18 736.692 3
-16 20 0 637.882 539.737 1
-4 20 0 309.323 268.03 1
-16 20 0 745.382 567.456 2
20 -16 0 -606.163 548.887 2
-4 20 0 329.391 177.249 4
20 -4 0 419.387 348.103 2
-4 -16 0 26.4031 223.814 3
-4 20 -3 327.435 95.3988 1
-16 20 3 412.719 434.251 2
-16 20 3 966.206 504.26 1
-16 -4 -3 212.331 189.258 1
20 -4 3 75.7087 277.685 2
20 -16 -3 586.2 582.458 2
-4 20 -3 553.563 348.393 4
-4 -16 3 700.651 483.645 3
-16 -4 -6 180.622 218.757 1
-4 20 -6 197.546 240.48 1
-16 20 6 35.1076 233.189 2
20 -4 6 546.949 417.483 2
20 -16 -6 -201.621 193.496 4
-16 20 6 283.255 449.313 4
-4 -16 6 276.13 381.003 3
-16 20 6 -51.267 70.6674 1
-4 20 -9 161.957 122.02 1
-16 -4 -9 238.167 44.6074 1
20 -4 9 422.941 565.338 2
-16 20 9 230.261 329.829 2
20 -16 -9 356.824 299.435 4
-16 20 9 254.339 380.733 4
-16 20 9 541.264 293.851 1
-4 -16 9 330.879 486.943 3
-16 -4 -12 292.554 334.721 1
-4 20 -12 -118.549 286.844 1
20 -4 12 206.141 269.483 2
-16 20 12 -83.5703 112.986 4
-16 20 12 -56.8105 204.249 2
-16 20 12 199.315 230.676 1
-4 -16 12 263.389 227.012 3
-3 -17 -10 1259.48 666.126 3
20 -17 10 748.656 599.262 2
-3 20 10 482.529 423.823 4
-17 20 -10 1074.92 786.828 1
-3 -17 -7 186.249 195.078 3
-3 -17 -7 165.252 133.402 2
20 -17 7 464.815 570.235 2
20 -3 -7 253.532 162.222 4
-3 20 7 1021.56 728.894 4
-17 20 -7 79.7456 143.81 1
-3 20 7 478.863 221.396 1
-3 20 4 1308.26 501.965 1
20 -17 4 860.859 567.839 2
-3 20 4 2089.36 918.292 4
-3 -17 -4 363.539 278.757 2
-17 20 -4 620.077 558.041 1
-3 -17 -4 388.34 364.215 3
-17 20 -1 1106.99 622.902 1
-3 20 1 385.494 247.167 1
-17 20 -1 983.082 743.774 2
20 -17 1 -15.8327 303.738 2
-3 20 1 404.406 50.0109 4
-3 -17 -1 206.5 83.1063 3
-3 20 -2 1049.16 490.627 1
-17 20 2 1125.99 554.459 1
-17 20 2 1253.84 551.391 2
-17 -3 -2 675.288 401.473 1
20 -17 -2 94.955 435.045 2
20 -3 2 464.809 297.614 2
-3 20 -2 291.873 231.108 4
-3 -17 2 846.472 519 3
-3 20 -5 -85.1746 198.061 1
-17 -3 -5 -1.65537 11.3647 1
-17 20 5 -207.175 386.485 2
20 -3 5 534.872 574.872 2
20 -17 -5 -74.0165 403.798 4
-17 20 5 194.293 459.309 1
20 -17 -5 338.291 141.788 2
-3 -17 5 -252.967 365.604 3
-3 20 -8 108.143 203.324 1
-17 -3 -8 258.21 234.655 1
-17 20 8 349.731 360.991 1
-17 20 8 -102.847 132.14 2
20 -3 8 441.383 495.8 2
20 -17 -8 273.589 306.5 4
-17 20 8 180.556 123.786 4
-3 -17 8 200.432 369.358 3
-17 -3 -11 294.542 187.939 1
-3 20 -11 1050.92 757.15 1
-17 20 11 247.953 251.443 1
20 -3 11 459.685 546.899 2
-17 20 11 305.366 249.574 2
-17 20 11 375.987 251.556 4
-3 -17 11 878.066 610.756 3
-2 -18 -11 92.8038 288.805 3
20 -18 11 602.53 621.658 2
-2 20 11 -210.727 383.507 4
-18 20 -11 606.016 572.344 1
-2 -18 -8 209.858 247.084 3
-2 20 8 203.23 120.628 1
20 -18 8 -499.898 470.652 2
-2 20 8 337.974 469.487 4
20 -2 -8 289.39 160.434 4
-18 20 -8 424.962 530.524 1
-2 -18 -5 968.219 502.464 3
-2 20 5 817.739 391.672 1
20 -18 5 295.6 248.188 2
-2 -18 -5 -429.583 619.901 2
-2 20 5 255.15 297.604 4
-18 20 -5 507.01 417.011 1
-18 20 -2 2287.26 986.375 1
-2 20 2 1832.28 580.285 1
20 -18 2 1857.24 834.744 2
-2 20 2 2430.02 923.978 4
-2 -18 -2 1282.7 610.669 3
-2 20 -1 464.26 278.315 1
-18 20 1 16.2116 291.851 1
-18 20 1 636.509 437.097 2
20 -18 -1 154.906 187.111 2
-2 20 -1 74.6875 100.756 4
-18 -2 -1 -42.1356 171.924 1
20 -2 1 622.123 578.003 2
-2 -18 1 122.554 250.736 3
-2 20 -4 -34.0205 170.975 1
-18 -2 -4 161.785 306.342 1
-18 20 4 594.544 424.831 2
-18 20 4 612.953 524.93 1
20 -2 4 -308.278 486.26 2
20 -18 -4 386.006 394.4 4
20 -18 -4 -373.595 531.602 2
-2 20 -4 576.563 489.313 4
-2 -18 4 802.647 485.801 3
-2 20 -7 837.658 541.692 1
-18 20 7 884.349 544.595 1
-18 -2 -7 404.503 390.044 1
-18 20 7 153.958 303.052 2
20 -2 7 274.36 488.32 2
20 -18 -7 1224.7 617.739 4
-2 -18 7 558.474 572.934 3
-2 20 -10 64.5023 348.032 1
-18 -2 -10 644.114 383.36 1
-18 20 10 219.341 236.284 1
20 -2 10 210.459 374.282 2
-18 20 10 157.55 172.556 2
-18 20 10 -164.246 132.66 4
-2 -18 10 840.762 603.297 3
-1 -19 -9 729.537 482.938 3
20 -19 9 37.1407 428.443 2
-1 20 9 977.685 661.643 4
-19 20 -9 70.6066 64.7917 1
-1 -19 -6 -149.49 279.988 3
-1 20 6 462.849 283.473 1
20 -19 6 749.048 629.489 2
-1 -19 -6 99.7386 93.0303 2
-1 20 6 43.941 290.223 4
-19 20 -6 92.0285 209.413 1
-1 -19 -3 1828.85 784.209 3
-19 20 -3 3133.98 1083.4 1
-1 20 3 2133.03 575.191 1
20 -19 3 1342.6 775.743 2
-1 20 3 1947.55 844.45 4
-1 -19 0 580.374 387.348 3
-19 -1 0 459.052 315.958 1
-1 20 0 868.683 405.366 1
-19 20 0 1006.9 612.166 1
20 -19 0 410.048 368.673 2
-1 20 0 729.308 526.123 4
20 -1 0 826.659 548.022 2
-1 20 -3 1232.59 602.011 1
-19 -1 -3 1245.34 562.96 1
-19 20 3 354.584 220.864 2
-19 20 3 945.336 494.989 1
20 -19 -3 917.543 734.789 2
20 -19 -3 1496.24 708.067 4
-1 20 -3 1172.76 549.471 4
20 -1 3 773.441 485.994 2
-1 -19 3 669.04 375.723 3
-1 20 -6 1567.34 742.113 1
-19 20 6 1515.02 694.607 1
-19 20 6 1126.44 553.07 2
-19 -1 -6 1955.62 797.334 1
20 -1 6 2467.69 1087.07 2
20 -19 -6 1736.98 736.625 4
-1 -19 6 2878.21 1151.18 3
-19 20 9 77.0258 77.6395 1
-1 20 -9 857.296 706.652 1
-19 -1 -9 349.639 327.574 1
20 -1 9 109.795 302.751 2
20 -19 -9 208.332 421.676 4
-19 20 9 153.795 251.401 2
-1 -19 9 655.692 459.032 3
0 -20 -10 202.425 253.287 3
20 -20 10 -624.426 794.692 2
0 20 10 157.998 316.327 4
-20 20 -10 -9.88238 199.305 1
0 -20 -7 1096.14 399.414 3
0 20 7 1434.13 429.913 1
20 -20 7 547.046 637.56 2
0 20 7 674.071 622.529 4
20 0 -7 878.086 353.082 4
-20 20 -7 605.568 475.778 1
0 -20 -4 425.314 313.193 3
-20 20 -4 411.502 620.747 1
0 20 4 419.302 253.339 1
20 -20 4 267.533 255.745 2
0 20 4 -195.465 224.086 4
0 -20 -4 159.551 16.9809 2
0 -20 -1 372.498 385.352 3
0 20 1 -12.6801 116.246 1
-20 0 1 -119.171 329.553 1
-20 20 -1 684.815 488.256 1
20 -20 1 -271.447 402.388 2
0 20 1 380.756 447.16 4
0 -20 2 762.883 467.693 3
0 20 -2 399.465 300.76 1
-20 0 -2 505.373 402.747 1
-20 20 2 992.926 626.929 1
20 -20 -2 609.526 688.448 2
0 20 -2 198.351 274.927 4
20 0 2 364.044 312.361 2
0 -20 5 5628.33 1480.44 3
0 20 -5 5615.26 1338.52 1
-20 20 5 6327.25 1501.82 1
20 -20 -5 8501.12 1704.61 4
-20 0 -5 4625.88 1199.69 1
20 0 5 2238.04 1232.71 2
0 20 -5 5108.1 1229.19 4
20 -20 -5 6731.85 3017.03 2
0 20 -8 -137.176 481.021 1
-20 0 -8 456.418 314.822 1
20 -20 -8 109.955 324.178 4
20 0 8 -69.2548 172.097 2
-20 20 8 -96.6766 291.777 1
0 -20 11 -222.586 467.261 3
0 20 -11 793.771 697.697 1
-20 20 11 98.8653 347.214 1
20 0 11 -454.366 649.407 2
-20 20 11 -150.989 256.394 4
-20 0 -11 279.995 412.778 1
1 -21 -8 211.806 239.084 3
20 -21 8 760.653 895.765 2
1 20 8 528.533 234.264 1
1 20 8 454.75 411.9 4
20 1 -8 831.673 389.115 4
1 20 8 301.666 137.53 1
-21 20 -8 250.006 336.326 1
1 -21 -5 186.365 90.0956 3
-21 20 -5 -407.369 421.34 1
1 20 5 293.663 192.712 1
20 -21 5 315.783 270.055 2
1 -21 -5 194.283 252.878 2
1 20 5 474.351 557.425 4
1 20 2 764.459 328.001 1
1 -21 -2 591.969 370.179 3
-21 20 -2 1870.88 877.538 1
20 -21 2 663.199 501.277 2
-21 1 2 967.322 537.755 1
1 20 2 2277.74 1010.03 4
1 20 -1 301.334 242 1
1 -21 1 425.912 383.458 3
-21 20 1 438.648 212.69 1
20 -21 -1 261.965 169.043 2
-21 1 -1 159.255 296.963 1
1 20 -1 337.972 404.459 4
20 1 1 167.361 248.534 2
1 -21 4 82.0929 338.543 3
20 -21 -4 321.798 970.406 2
1 20 -4 947.349 565.907 4
20 1 4 160.443 381.474 2
-21 1 -4 82.3562 122.637 1
-21 20 4 1122.12 684.57 1
1 -21 7 613.828 658.777 3
-21 1 -7 479.118 280.814 1
-21 20 7 945.732 708.318 1
20 1 7 990.19 626.539 2
1 20 -10 375.779 358.073 1
1 -21 10 -261.768 408.758 3
-21 20 10 483.922 375.804 1
20 1 10 -127.104 281.474 2
-21 1 -10 54.8157 269.278 1
2 -22 -9 330.292 463.562 3
20 -22 9 650.71 682.808 2
2 20 9 -136.519 330.771 4
20 2 -9 694.252 311.307 4
-22 20 -9 -267.115 182.068 1
2 -22 -6 366.553 365.392 3
2 20 6 408.988 198.278 1
-22 20 -6 748.708 683.128 1
20 -22 6 64.5564 277.904 2
20 2 -6 260.432 173.117 4
2 20 6 325.785 413.539 4
2 20 3 185.397 166.502 1
2 -22 -3 -211.211 198.505 3
-22 2 3 -158.29 255.531 1
2 -22 -3 105.68 175.319 2
-22 20 -3 400.964 386.7 1
20 -22 3 290.845 429.061 2
2 20 3 127.492 424.306 4
2 -22 0 332.538 417.898 3
-22 20 0 236.598 184.938 1
20 -22 0 87.6787 154.14 2
2 20 0 299.408 234.419 4
-22 2 0 573.159 421.612 1
2 -22 3 -326.136 368.213 3
20 -22 -3 -156.072 394.852 2
2 20 -3 208.528 278.353 4
-22 20 3 769.022 623.422 1
20 2 3 431.824 295.58 2
-22 2 -3 411.229 398.161 1
2 -22 6 1195.71 748.773 3
-22 20 6 946.359 650.305 1
-22 2 -6 693.437 540.643 1
20 2 6 -204.305 320.846 2
2 20 -6 1022.94 642.708 4
20 -22 -6 2272.06 1948.27 2
2 -22 9 98.1036 362.964 3
-22 2 -9 17.7738 283.973 1
-22 20 9 -33.5474 219.072 1
20 2 9 -213.99 438.354 2
3 20 7 1095.87 341.867 1
3 -23 -7 1379.79 663.482 3
-23 20 -7 1527.73 876.798 1
20 -23 7 736.656 625.726 2
3 20 7 1310.43 351.603 1
3 20 7 976.762 583.881 4
20 3 -7 1400.57 552.176 4
3 -23 -4 54.1944 128.331 3
3 -23 -4 -93.7077 226.782 2
-23 20 -4 452.102 462.034 1
20 -23 4 363.153 373.452 2
3 20 4 216.793 334.97 4
-23 3 4 -182.428 282.184 1
-23 3 1 753.844 524.095 1
3 -23 -1 306.045 178.141 3
-23 20 -1 965.047 661.392 1
20 -23 1 420.808 368.654 2
3 20 1 767.948 545.175 4
3 -23 2 -207.548 385.759 3
-23 3 -2 334.65 387.745 1
20 -23 -2 -140.952 494.026 2
3 20 -2 631.927 532.639 4
-23 20 2 523.587 407.55 1
3 -23 5 801.096 614.149 3
-23 20 5 224.119 202.421 1
-23 3 -5 145.427 72.0491 1
3 20 -5 651.521 538.237 4
20 -23 -5 382.203 981.391 2
20 3 5 -461.777 433.535 2
3 -23 8 1200.98 736.026 3
-23 3 -8 551.207 479.202 1
20 3 8 -48.6881 73.924 2
-23 20 8 356.42 469.846 1
4 20 8 493.048 232.765 1
4 -24 -8 561.099 497.547 3
-24 20 -8 15.8074 312.727 1
4 20 8 52.1864 103.5 1
20 -24 8 331.453 506.389 2
4 20 8 17.1032 225.44 4
20 4 -8 594.949 382.109 4
4 -24 -5 -253.928 446.75 3
-24 20 -5 8.66375 86.3862 1
20 -24 5 84.2306 251.472 2
20 4 -5 339.236 262.858 4
4 20 5 287.594 423.247 4
-24 4 5 -105.501 349.946 1
4 -24 -2 192.485 137.705 3
4 -24 -2 115.847 127.154 2
-24 4 2 -328.448 494.055 1
20 -24 2 520.223 609.517 2
4 20 2 222.873 370.579 4
4 -24 1 864.824 527.932 3
-24 4 -1 873.154 605.746 1
20 -24 -1 396.292 183.187 2
-24 20 1 1131.01 638.545 1
4 20 -1 506.323 185.995 4
4 -24 4 930.43 591.778 3
-24 20 4 1266.88 722.968 1
-24 4 -4 663.578 521.209 1
20 -24 -4 520.227 601.534 2
4 20 -4 752.681 422.585 4
20 4 4 539.946 550.262 2
4 -24 7 782.93 626.471 3
-24 4 -7 649.896 405.353 1
-24 20 7 -358.641 127.459 1
20 4 7 198.009 474.407 2
4 20 -7 158.601 357.568 4
5 -25 -6 409.16 365.151 3
-25 20 -6 1258.39 815.867 1
20 -25 6 658.643 451.094 2
5 20 6 945.061 643.353 4
20 5 -6 442.557 308.406 4
5 20 6 149.012 114.193 1
-25 5 6 247.19 348.727 1
5 -25 -3 745.36 503.558 3
5 -25 -3 13.4317 94.1582 2
-25 20 -3 -157.332 223.997 1
20 -25 3 107.573 303.58 2
-25 5 3 -225.685 360.179 1
5 20 3 472.658 427.688 4
5 -25 0 -560.839 578.541 3
5 -25 0 -145.968 193.587 2
-25 5 0 -578.703 651.155 1
20 -25 0 74.2563 85.1033 2
-25 20 0 188.517 195.749 1
5 20 0 -382.323 441.632 4
-25 20 3 573.751 413.501 1
5 -25 3 631.509 521.053 3
20 -25 -3 -114.55 465.939 2
-25 5 -3 416.288 406.46 1
5 20 -3 -97.4705 210.072 4
5 -25 6 715.787 521.132 3
-25 5 -6 -2.13489 371.191 1
-25 20 6 235.813 266.283 1
5 20 -6 -400.012 460.835 4
20 5 6 -186.816 395.405 2
6 -26 -4 52.3832 262.593 3
6 -26 -4 200.964 230.24 2
-26 20 -4 -473.431 694.302 1
20 -26 4 463.482 660.553 2
20 6 -4 210.924 260.11 4
6 20 4 -12.2401 223.699 4
-26 6 4 -31.5497 281.533 1
6 -26 -1 319.791 95.3631 3
6 -26 -1 132.197 187.478 2
-26 6 1 341.011 428.353 1
20 -26 1 148.423 273.967 2
-26 20 -1 1017.88 720.302 1
6 20 1 347.751 374.684 4
6 -26 2 -258.382 275.692 3
6 -26 2 110.467 289.809 2
20 -26 -2 -167.314 381.592 2
6 20 -2 574.383 615.437 4
-26 6 -2 13.3645 167.601 1
-26 20 2 11.6396 282.051 1
6 -26 5 -264.248 275.596 3
-26 6 -5 -418.662 521.321 1
-26 20 5 583.955 504.991 1
20 -26 -5 -138.273 542.71 2
6 20 -5 815.158 520.666 4
20 6 5 317.438 437.373 2
7 -27 -2 778.19 563.075 3
7 -27 -2 49.8819 309.358 2
20 -27 2 348.686 678.943 2
20 7 -2 -113.893 284.189 4
-27 20 -2 393.355 370.525 1
-27 7 2 -165.47 502.076 1
7 20 2 375.155 526.595 4
7 -27 1 466.549 393.449 3
7 -27 1 18.0783 353.864 2
20 -27 -1 228.49 65.1963 2
7 20 -1 -69.1501 247.666 4
-27 20 1 514.381 620.447 1
-27 7 -1 156.827 281.988 1
7 -27 4 193.949 373.165 3
7 -27 4 -135.026 285.619 2
-27 20 4 322.577 352.824 1
-27 7 -4 491.823 503.572 1
20 -27 -4 -248.193 462.53 2
7 20 -4 262.49 349.348 4
-10 -11 -11 20.62 207.085 2
-11 21 -11 29.5748 217.887 1
-10 -11 -11 252.004 268.142 1
21 -11 11 584.656 688.074 2
-10 21 11 172.552 171.442 2
-10 21 11 91.8182 128.642 1
-11 -10 11 166.964 270.373 4
-10 21 11 -141.42 260.239 4
-10 -11 -11 -143.809 113.549 3
-10 21 8 -39.5779 111.915 2
-11 21 -8 117.554 215.61 1
-10 -11 -8 831.059 704.343 2
21 -11 8 287.582 452.154 2
-11 -10 8 157.585 45.5921 4
21 -10 -8 266.806 159.868 4
-10 21 8 386.455 413.858 4
-10 -11 -8 53.1849 169.188 3
-10 21 8 391.344 266.19 1
-10 21 5 3907.82 904.549 1
-11 21 -5 4591.6 1247.29 1
21 -11 5 3810.74 1272.9 2
-10 -11 -5 5349.95 1692.19 2
-10 21 5 4596.77 1285.84 4
-10 -11 -5 3778.37 990.053 3
-11 21 -2 1891.12 701.863 1
21 -11 2 948.745 845.643 2
-10 -11 -2 770.176 587.492 2
-10 21 2 2259.61 776.976 1
-10 21 2 2246.27 732.516 4
21 -10 -2 1327.74 770.789 2
-11 21 1 354.177 219.533 2
-10 21 -1 2440.27 853.738 1
21 -10 1 705.967 707.89 2
-11 21 1 2101.95 786.81 1
21 -11 -1 2324.78 910.982 2
-11 -10 -1 1879.85 690.873 2
-11 21 1 2345.84 800.738 4
-11 21 4 1544.11 606.418 1
-11 21 4 363.88 205.88 2
-10 21 -4 814.178 586.44 1
21 -10 4 1075.18 788.283 2
-11 -10 -4 599.711 389.601 2
-11 21 4 943.033 544.986 4
21 -11 -4 1857.53 1020.89 2
-11 21 7 515.15 234.486 2
-10 21 -7 1868.65 841.106 1
-11 -10 -7 2428.31 1146.51 2
21 -10 7 1634.16 897.387 2
-10 -11 7 2097.22 884.407 4
-11 21 7 2596.17 761.025 1
-11 21 7 1699.58 814.361 4
21 -11 -7 2404.82 567.771 4
-11 -10 -7 1396.39 643.125 3
-11 21 10 708.229 317.804 1
-11 -10 -10 1004.36 444.869 1
-11 -10 -10 1093.7 507.951 2
-10 21 -10 506.49 393.003 1
21 -10 10 1096.57 782.447 2
-11 21 10 289.98 226.239 2
-10 -11 10 1082.57 552.686 4
-11 21 10 459.459 348.824 4
-11 -10 -10 662.272 403.33 3
-9 -12 -12 19.6263 210.713 2
-12 21 -12 434.25 401.392 1
21 -12 12 355.581 542.132 2
-9 21 12 40.0519 53.8873 2
-12 -9 12 878.475 534.026 4
-9 21 12 16.0882 349.707 4
-9 -12 -12 403.981 137.576 3
-9 21 9 125.368 42.7094 1
-9 -12 -9 429.273 467.195 2
-12 21 -9 556.295 516.281 1
21 -12 9 499.107 589.059 2
-12 -9 9 393.443 268.496 4
-9 21 9 637.551 251.876 4
-9 -12 -9 116.21 168.779 3
-9 21 6 32.1496 77.3832 2
-9 21 6 226.049 219.619 1
-12 21 -6 998.384 496.725 1
-9 -12 -6 65.1755 399.255 2
21 -12 6 71.712 280.127 2
-9 21 6 545.161 496.59 4
-9 -12 -6 26.1881 196.249 3
-12 21 -3 409.153 31.288 1
21 -12 3 741.906 619.002 2
-9 -12 -3 379.296 212.144 2
-9 21 3 539.498 326.589 4
-9 21 3 812.328 398.246 1
-9 -12 -3 720.167 409.887 3
21 -9 -3 1430.4 850.371 2
-12 21 0 1258.47 654.396 2
-9 21 0 1856.13 751.185 1
21 -12 0 1772 728.635 2
-12 21 0 1930.38 791.205 1
21 -9 0 1725.15 924.137 2
-9 21 0 2495.32 990.895 4
-12 -9 0 2241.67 783.795 2
-9 -12 0 1999.89 924.673 3
-12 21 3 730.948 417.592 1
-12 21 3 979.236 471.803 2
-9 21 -3 1073.43 589.39 1
21 -9 3 219.501 165.821 2
-12 -9 -3 856.238 574.909 2
-12 21 3 1321.62 691.982 4
21 -12 -3 1307.46 805.253 2
-12 21 6 622.429 289.309 2
-9 21 -6 1470.58 727.609 1
-12 -9 -6 1177.08 628.571 2
-12 21 6 1099.62 482.066 1
21 -9 6 1592.57 830.19 2
-9 -12 6 1366.5 687.201 4
-12 21 6 937.128 576.179 4
21 -12 -6 1320.75 460.553 4
-9 21 -9 264.244 289.986 1
-12 -9 -9 141.831 289.517 2
-12 21 9 672.447 382.753 1
-12 21 9 66.7861 79.5999 2
21 -9 9 744.79 515.38 2
-9 -12 9 354.859 423.58 4
-12 21 9 555.935 569.383 4
-12 -9 -9 314.187 214.4 3
-12 -9 -9 161.126 167.29 1
-12 -9 -12 132.155 156.373 2
-9 21 -12 -249.431 440.734 1
21 -9 12 184.651 473.731 2
-12 21 12 136.986 267.059 2
-12 21 12 610.709 558.664 4
-9 -12 12 59.5745 144.631 4
-12 -9 -12 -15.6189 91.6075 1
-9 -12 12 351.243 210.009 3
-12 -9 -12 227.135 257.554 3
-8 -13 -10 126.087 107.635 2
-8 21 10 -25.3389 101.199 1
21 -13 10 174.333 189.02 2
-13 21 -10 618.077 600.626 1
-13 -8 10 267.246 278.636 4
-8 21 10 202.432 280.022 4
-8 -13 -10 207.824 266.303 3
-8 21 7 632.596 348.615 1
-8 -13 -7 1005.87 493.253 2
21 -13 7 240.035 449.554 2
-13 21 -7 628.801 461.519 1
-8 21 7 -353.837 400.682 4
-8 -13 -7 529.128 284.065 3
21 -13 4 2353.03 965.558 2
-13 21 -4 2226.96 860.107 1
-8 -13 -4 1798.15 656.207 2
-8 21 4 2389.63 982.084 4
-8 21 4 2573.69 789.025 1
-8 -13 -4 2055.4 677.549 3
-13 21 -1 2097.66 785.866 2
-8 21 1 2704.54 835.741 1
21 -13 1 1583.9 724.235 2
-13 21 -1 2874.09 987.212 1
-8 21 1 1649.68 733.447 4
21 -8 -1 969.392 611.946 2
-8 -13 -1 1504.43 606.761 2
-8 -13 -1 1551.94 634.202 3
-13 21 2 2731.26 877.444 1
-13 21 2 3460.16 969.144 2
-8 21 -2 3066.07 923.101 1
-13 -8 -2 2289.85 777.172 2
21 -8 2 4609.3 1304.85 2
21 -13 -2 2592.93 1069.84 2
-8 -13 2 3033.66 1165.17 3
-8 21 -5 965.21 553.856 1
-13 21 5 485.477 367.852 2
-13 21 5 608.584 414.781 1
-13 -8 -5 1716.63 1117.49 2
-8 -13 5 231.828 148.152 4
21 -8 5 865.026 715.043 2
-13 21 5 1363.22 696.957 4
-8 -13 5 1562.55 751.095 3
-13 21 8 -91.4044 235.89 1
-8 21 -8 255.527 114.283 1
-13 -8 -8 224.699 499.399 2
-13 21 8 -42.4058 134.589 2
21 -8 8 230.362 214.039 2
-8 -13 8 168.609 282.966 4
21 -13 -8 791.86 446.716 4
-13 21 8 957.304 647.612 4
-13 -8 -8 333.688 139.129 1
-8 -13 8 247.294 364.805 3
-8 21 -11 639.619 545.383 1
-13 -8 -11 87.6407 305.167 2
21 -8 11 874.194 679.046 2
-13 21 11 -21.9728 34.6628 2
-13 21 11 166.132 79.8372 4
-13 -8 -11 483.919 280.375 1
-13 -8 -11 462.96 389.16 3
-8 -13 11 -124.91 271.296 3
-13 21 11 259.889 245.752 1
-7 -14 -11 558.207 472.682 2
21 -14 11 472.714 534.876 2
-14 21 -11 1067.04 574.409 1
-7 21 11 33.9786 105.283 4
-7 -14 -11 1076.02 589.227 3
-7 -14 -8 443.134 344.478 2
21 -14 8 242.791 353.642 2
-14 21 -8 182.979 407.506 1
-7 21 8 412.422 278.638 1
-7 21 8 666.007 448.451 4
-7 -14 -8 -184.722 405.091 3
21 -14 5 1975.82 826.256 2
-7 -14 -5 4014.98 1102.8 2
-14 21 -5 3531.42 1181.27 1
-7 21 5 3369.39 1177.23 4
-7 21 5 3250.28 789.729 1
-7 -14 -5 3300.9 972.626 3
-14 21 -2 885.994 525.741 2
-7 21 2 707.35 417.018 1
21 -14 2 493.909 433.921 2
-7 21 2 845.163 614.144 4
-14 21 -2 342.988 384.754 1
-7 -14 -2 674.575 298.411 2
21 -7 -2 2172.24 957.912 2
-7 -14 -2 678.893 394.021 3
-14 21 1 1009.54 579.299 1
-14 21 1 1497.77 658.878 2
-7 21 -1 837.778 556.732 1
21 -14 -1 1404.91 884.31 2
21 -7 1 121.366 340.379 2
-7 21 -1 1095.86 566.803 4
-7 -14 1 1262.07 740.349 3
-7 21 -4 1331.78 645.112 1
-14 21 4 966.507 463.343 2
-14 21 4 1528.91 656.841 1
-14 -7 -4 1047.22 643.611 2
21 -7 4 696.458 609.488 2
-14 21 4 1361.45 735.116 4
21 -14 -4 1980.92 1019.36 2
-7 -14 4 856.606 356.314 3
-7 21 -7 687.353 389.565 1
-14 21 7 133.703 228.853 2
-14 -7 -7 101.361 851.053 2
21 -7 7 762.369 770.788 2
21 -14 -7 750.01 438.592 4
-14 21 7 446.792 428.335 4
-14 -7 -7 207.251 68.3514 1
-7 -14 7 803.193 621.006 3
-14 21 7 257.802 255.906 1
-14 21 10 -264.268 333.045 1
-7 21 -10 548.579 522.063 1
21 -7 10 170.962 134.28 2
-14 21 10 -321.671 268.462 2
-14 21 10 248.146 323.528 4
-14 -7 -10 166.144 136.89 1
-7 -14 10 417.717 316.232 3
-6 -15 -12 337.417 457.327 3
21 -15 12 126.978 562.552 2
-15 21 -12 572.918 660.288 1
-6 21 12 22.2099 250.146 4
-6 21 9 291.865 174.477 1
-6 -15 -9 202.7 80.5832 2
21 -15 9 -12.8224 324.39 2
-15 21 -9 588.221 407.228 1
-6 21 9 -440.31 382.954 4
-6 -15 -9 796.015 440.432 3
21 -15 6 667.318 597.942 2
-6 -15 -6 611.749 741.46 2
-15 21 -6 641.803 504.602 1
-6 21 6 971.05 615.151 4
-6 21 6 1019.5 401.594 1
-6 -15 -6 1113.5 568.738 3
-6 21 3 3486.92 913.954 1
21 -15 3 2304.94 838.159 2
-6 21 3 2676.41 1003.65 4
-6 -15 -3 1770.79 674.479 2
-15 21 -3 3228.06 1055.24 1
-6 -15 -3 2461.85 854.299 3
-15 21 0 658.9 420.157 2
-6 21 0 1028.82 456.754 1
21 -15 0 455.122 200.657 2
-6 21 0 1228.33 661.258 4
21 -6 0 1465.46 845.727 2
-6 -15 0 648.688 434.347 3
-15 21 0 1122.11 620.014 1
-15 -6 -3 56.5082 199.539 1
-6 21 -3 399.031 324.31 1
-15 21 3 284.49 242.879 1
-15 21 3 303.685 335.126 2
21 -6 3 493.245 446.619 2
21 -15 -3 475.8 446.278 2
-6 -15 3 553.686 457.3 3
-6 21 -6 -41.4715 343.786 1
-15 21 6 -182.531 120.559 2
21 -6 6 -24.6143 272.14 2
21 -15 -6 124.592 182.093 4
-15 21 6 403.297 460.596 1
-15 21 6 -440.125 635.278 4
-15 -6 -6 167.112 254.895 1
-6 -15 6 381.174 379.122 3
-6 21 -9 -160.597 150.413 1
-15 21 9 -49.1693 168.665 2
21 -6 9 345.881 104.054 2
-15 21 9 126.066 130.315 1
21 -15 -9 280.917 88.7302 4
-15 21 9 -68.7744 260.415 4
-15 -6 -9 162.496 163.079 1
-6 -15 9 615.685 521.944 3
-6 21 -12 626.854 571.232 1
-15 -6 -12 434.576 350.989 1
-15 21 12 574.991 385.126 1
21 -6 12 59.3798 354.154 2
-15 21 12 428.471 406.752 2
-15 21 12 572.108 567.354 4
-6 -15 12 436.596 450.647 3
-5 -16 -10 155.838 285.753 3
-5 -16 -10 156.917 230.003 2
21 -16 10 465.679 510.725 2
-16 21 -10 769.228 579.434 1
-5 21 10 57.0452 126.053 4
-5 21 7 1057.83 345.187 1
-5 -16 -7 697.607 478.71 2
21 -16 7 699.955 390.51 2
-16 21 -7 1046.85 662.513 1
-5 21 7 1565.86 846.803 4
-5 -16 -7 1077.94 577.621 3
-5 21 4 989.092 525.693 1
21 -16 4 532.445 531.655 2
-5 -16 -4 189.428 172.81 2
-5 21 4 1256.84 731.994 4
-16 21 -4 1596.38 832.262 1
-5 -16 -4 1241.06 607.141 3
-16 21 -1 1708.77 698.672 2
-5 21 1 1283.99 510.292 1
21 -16 1 -197.671 534.869 2
-5 21 1 1030.45 559.73 4
21 -5 -1 1563.88 812.49 2
-5 -16 -1 1312.88 668.5 3
-16 21 -1 1743.33 773.046 1
-5 21 -2 276.085 287.185 1
-16 21 2 66.617 236.474 1
-16 21 2 214.624 192.369 2
-16 -5 -2 234.062 261.18 1
21 -16 -2 417.846 516.415 2
21 -5 2 117.958 225.361 2
-5 21 -2 -34.5078 282.029 4
-5 -16 2 192.476 20.664 3
-5 21 -5 408.723 364.736 1
-16 21 5 -63.0561 120.65 2
-16 21 5 -77.6792 39.3619 1
21 -5 5 145.007 276.338 2
21 -16 -5 26.1867 224.245 4
21 -16 -5 282.446 622.935 2
-5 -16 5 445.541 447.829 3
-16 -5 -5 101.482 224.706 1
-5 21 -8 -437.596 416.713 1
-16 21 8 -253.084 154.042 1
-16 21 8 70.2245 92.7643 2
21 -5 8 240.357 125.875 2
21 -16 -8 281.337 374.273 4
-16 21 8 529.454 324.103 4
-16 -5 -8 141.546 101.527 1
-5 -16 8 193.517 146.663 3
-5 21 -11 396.082 432.37 1
-16 -5 -11 975.446 458.787 1
21 -5 11 582.084 447.495 2
-16 21 11 156.962 119.007 2
-16 21 11 573.255 393.321 4
-16 21 11 345.118 246.919 1
-5 -16 11 969.281 670.73 3
-4 -17 -11 328.404 229.008 3
21 -17 11 17.741 354.851 2
-17 21 -11 -160.514 125.217 1
-4 21 11 -152.034 346.542 4
-4 -17 -8 -119.569 373.147 3
-4 -17 -8 37.0561 182.081 2
-4 21 8 554.14 263.632 1
21 -17 8 -79.9138 531.06 2
-4 21 8 0.28796 173.417 4
-17 21 -8 204.825 250.195 1
21 -17 5 596.311 516.689 2
-4 21 5 1102.23 396.348 1
-4 -17 -5 491.076 91.6316 2
-4 21 5 1024.18 636.075 4
-17 21 -5 1325.77 683.845 1
-4 -17 -5 1541.48 692.388 3
21 -17 2 1825.55 840.947 2
-4 21 2 4409.62 1326.53 4
-4 21 2 4076.79 969.879 1
-4 -17 -2 3309.34 1005.99 3
-17 21 -2 4595.88 1332.61 1
-4 21 -1 621.283 342.098 1
-17 21 1 513.3 242.945 1
-17 21 1 757.982 374.1 2
21 -17 -1 959.623 600.295 2
-17 -4 -1 162.364 342.196 1
-4 21 -1 486.133 406.422 4
21 -4 1 443.701 431.926 2
-4 -17 1 735.561 561.239 3
-17 -4 -4 165.345 32.3224 1
-4 21 -4 276.847 17.2797 1
-17 21 4 298.008 363.933 2
-17 21 4 296.858 236.336 1
21 -4 4 36.0594 310.744 2
21 -17 -4 -56.3219 306.378 4
21 -17 -4 211.268 436.059 2
-4 -17 4 -266.666 392.21 3
-4 21 -7 1054.05 703.568 1
-17 21 7 646.875 433.002 1
-17 21 7 345.071 246.772 2
21 -4 7 1316.52 840.868 2
21 -17 -7 1278.04 618.596 4
-17 21 7 369.964 258.577 4
-4 -17 7 1325.1 781.028 3
-17 -4 -7 679.496 368.933 1
-4 21 -10 204.148 188.853 1
-17 21 10 -192.524 337.854 1
-17 -4 -10 325.112 342.131 1
21 -4 10 -413.399 418.245 2
-17 21 10 82.9116 132.647 2
-17 21 10 116.403 153.572 4
-4 -17 10 170.216 218.973 3
-3 -18 -9 301.871 269.593 3
21 -18 9 708.406 728.628 2
-3 21 9 425.913 541.015 4
-18 21 -9 546.958 420.631 1
-3 -18 -6 1974.15 802.314 3
21 -18 6 569.789 250.5 2
-3 -18 -6 199.557 103.211 2
-3 21 6 1953.21 567.923 1
-3 21 6 1639.13 834.502 4
-18 21 -6 1624.91 798.38 1
-3 21 3 633.938 401.134 1
21 -18 3 -128.17 464.533 2
-3 21 3 2.73827 288.185 4
-3 -18 -3 80.422 206.937 2
-18 21 -3 581.455 533.181 1
-3 -18 -3 550.383 195.363 3
-18 -3 0 627.98 483.129 1
-3 21 0 1174.03 537.722 1
-18 21 0 805.935 529.707 1
21 -18 0 282.604 375.579 2
-3 21 0 886.271 473.478 4
21 -3 0 1409.27 757.633 2
-3 -18 0 1224.39 707.381 3
-18 -3 -3 623.528 481.842 1
-3 21 -3 382.887 294.564 1
-18 21 3 1065.74 514.736 2
-18 21 3 770.764 443.737 1
21 -18 -3 978.638 666.233 2
21 -3 3 101.861 249.036 2
-3 21 -3 627.144 399.294 4
-3 -18 3 978.995 665.286 3
-18 21 6 971.142 492.784 1
-18 -3 -6 1297.39 563.525 1
-3 21 -6 979.752 626.271 1
-18 21 6 448.141 311.991 2
21 -3 6 702.576 689.934 2
21 -18 -6 1342.23 637.046 4
-3 -18 6 1330.53 773.245 3
-3 21 -9 1290.99 841.987 1
-18 -3 -9 846.76 529.547 1
-18 21 9 257.291 172.693 2
21 -3 9 505.596 531.62 2
21 -18 -9 1386.11 655.159 4
-18 21 9 640.215 238.737 1
-18 21 9 1192.7 584.724 4
-3 -18 9 2062.27 956.73 3
-2 -19 -10 509.301 475.446 3
21 -19 10 -105.772 375.504 2
-2 21 10 212.056 154.328 4
-19 21 -10 -18.8371 241.416 1
-2 -19 -7 390.012 336.815 3
-2 -19 -7 92.9361 67.2776 2
21 -19 7 -83.3849 499.834 2
21 -2 -7 351.65 166.399 4
-2 21 7 360.606 206.717 1
-2 21 7 169.263 244.052 4
-19 21 -7 277.97 369.095 1
-2 -19 -4 187.849 387.923 3
-2 21 4 611.036 370.559 1
21 -19 4 -201.216 519.356 2
-2 21 4 507.346 547.798 4
-2 -19 -4 175.688 150.781 2
-19 21 -4 642.961 454.628 1
-2 21 1 691.016 428.143 1
-19 21 -1 743.109 583.093 1
-19 -2 1 92.8962 208.481 1
21 -19 1 365.587 174.51 2
-2 21 1 1118.03 581.66 4
-2 -19 -1 274.084 313.446 3
-2 21 -2 102.619 82.7764 1
-19 -2 -2 165.634 309.159 1
-19 21 2 245.195 87.1213 2
-19 21 2 477.062 334.54 1
21 -19 -2 89.3638 237.464 2
-2 21 -2 -111.114 55.5394 4
21 -2 2 -451.41 473.13 2
-2 -19 2 458.891 457.594 3
-2 21 -5 838.931 540.482 1
-19 -2 -5 1458.63 632.833 1
-19 21 5 1520.71 962.078 2
21 -2 5 1398.42 781.168 2
21 -19 -5 1328.97 659.068 4
21 -19 -5 1510.63 1174.73 2
-19 21 5 1722.78 901.287 1
-2 -19 5 1550.34 903.78 3
-2 21 -8 850.395 648.953 1
-19 -2 -8 34.0787 97.7908 1
-19 21 8 305.005 270.955 1
-19 21 8 65.2394 359.849 2
21 -2 8 533.899 538.737 2
21 -19 -8 442.724 510.165 4
-2 -19 8 678.237 576.572 3
-2 21 -11 345.024 467.382 1
-19 -2 -11 459.129 445.03 1
21 -2 11 -99.2892 187.567 2
-19 21 11 58.947 171.303 4
-19 21 11 298.101 239.2 1
-2 -19 11 -198.788 279.405 3
-1 -20 -8 697.229 490.555 3
21 -20 8 -161.489 551.247 2
-1 21 8 348.416 310.722 4
21 -1 -8 596.201 277.5 4
-1 21 8 546.611 212.133 1
-20 21 -8 635.274 587.166 1
-1 -20 -5 638.031 437.681 3
-1 21 5 423.213 262.163 1
21 -20 5 -82.9067 180.231 2
-1 -20 -5 -13.536 166.94 2
-1 21 5 264.783 282.102 4
-20 21 -5 -49.4964 409.979 1
-1 -20 -2 1096.46 640.681 3
-1 21 2 1265.82 544.642 1
-20 21 -2 2155.08 974.197 1
21 -20 2 492.863 421.925 2
-1 21 2 1689.13 869.136 4
-1 -20 1 303.755 375.091 3
-1 21 -1 -18.4389 224.224 1
-20 21 1 534.411 404.336 1
-20 -1 -1 277.254 312.842 1
21 -20 -1 199.11 282.791 2
-1 21 -1 253.043 359.947 4
21 -1 1 698.05 542.674 2
-1 21 -4 104.786 349.06 1
-20 -1 -4 -117.626 259.936 1
21 -1 4 336.887 473.847 2
-20 21 4 728.811 524.719 1
-1 21 -4 174.068 106.876 4
-1 -20 4 739.041 584.318 3
-1 21 -7 830.272 669.974 1
-20 21 7 375.392 404.986 1
-20 -1 -7 579.612 468.915 1
21 -20 -7 717.541 493.202 4
21 -1 7 71.4705 241.7 2
-1 -20 7 1456.73 821.862 3
-1 21 -10 -124.552 167.456 1
-20 -1 -10 295.604 344.114 1
-20 21 10 -49.6406 179.875 1
21 -20 -10 169.242 89.278 4
21 -1 10 295.112 592.883 2
-1 -20 10 -351.205 386.636 3
0 -21 -9 289.159 196.739 3
21 -21 9 -202.382 351.215 2
0 21 9 -243.51 460.742 4
21 0 -9 99.209 199.911 4
-21 21 -9 416.315 364.535 1
-21 21 -6 601.144 606.776 1
0 -21 -6 -219.688 394.791 3
0 21 6 431.443 326.107 1
21 -21 6 500.712 529.265 2
21 0 -6 35.9282 177.8 4
0 21 6 442.827 355.257 4
0 -21 -3 34.3833 115.282 3
0 21 3 59.8218 30.4967 1
-21 21 -3 686.975 591.505 1
21 -21 3 332.935 288.115 2
0 21 3 -41.9788 337.6 4
0 -21 0 444.075 529.691 3
0 21 0 90.9265 196.762 1
-21 21 0 354.438 185.485 1
21 -21 0 774.322 611.293 2
-21 0 0 318.254 421.004 1
0 21 0 315.444 493.352 4
0 -21 3 373.865 202.611 3
0 21 -3 67.626 268.704 1
-21 0 -3 -87.7345 43.1319 1
-21 21 3 783.635 523.165 1
21 -21 -3 349.24 298.542 2
0 21 -3 134.099 221.603 4
21 0 3 733.491 546.683 2
0 -21 6 -240.425 347.285 3
0 21 -6 130.247 232.912 1
-21 21 6 878.853 776.773 1
-21 0 -6 -80.0831 209.931 1
21 0 6 9.08486 360.405 2
21 -21 -6 130.033 248.476 2
0 -21 9 1054.48 677.804 3
0 21 -9 1130.83 536.205 1
-21 0 -9 647.76 450.663 1
21 -21 -9 1322.49 878.684 4
21 0 9 1236.31 889.969 2
-21 21 9 149.282 340.916 1
-22 21 -7 508.255 530.476 1
1 -22 -7 774.32 530.909 3
1 21 7 833.194 294.462 1
21 -22 7 -547.801 611.266 2
1 21 7 165.13 156.84 4
21 1 -7 208.369 179.37 4
1 -22 -4 115.855 221.54 3
1 21 4 50.8429 106.12 1
1 -22 -4 -14.2108 110.695 2
-22 21 -4 7.83353 423.508 1
21 -22 4 400.877 240.374 2
1 21 4 -322.58 531.893 4
1 21 1 407.846 233.22 1
1 -22 -1 555.613 492.132 3
-22 21 -1 593.504 304.008 1
21 -22 1 760.138 649.073 2
1 21 1 363.574 223.316 4
-22 1 1 532.438 402.378 1
1 21 -2 405.25 302.419 1
1 -22 2 1259.7 629.942 3
-22 1 -2 761.005 505.445 1
-22 21 2 580.151 559.731 1
21 -22 -2 233.729 632.847 2
1 21 -2 773.419 412.204 4
21 1 2 453.075 383.755 2
1 21 -5 1337.47 783.74 1
1 -22 5 915.482 631.211 3
-22 21 5 744.593 457.013 1
-22 1 -5 863.829 569.07 1
21 1 5 86.1797 347.384 2
1 21 -5 128.652 171.252 4
21 -22 -5 217.225 623.896 2
1 21 -8 1342.95 897.492 1
1 -22 8 814.389 455.754 3
-22 1 -8 590.939 304.391 1
21 1 8 1839.86 962.939 2
-22 21 8 1101.2 626.388 1
-23 21 -8 888.974 805.729 1
2 -23 -8 -12.1315 312.876 3
2 21 8 478.477 246.875 1
21 -23 8 257.188 642.695 2
2 21 8 105.531 96.0939 4
21 2 -8 550.475 339.749 4
2 21 8 272.776 140.452 1
2 21 5 286.592 253.342 1
2 -23 -5 320.047 368.363 3
-23 21 -5 127.41 302.979 1
2 -23 -5 88.1196 34.8099 2
21 -23 5 -519.058 565.2 2
21 2 -5 77.5323 201.559 4
2 21 5 496.93 556.592 4
2 -23 -5 47.4842 255.719 2
2 21 2 -63.8952 311.877 1
2 -23 -2 -179.898 232.736 3
-23 2 2 89.4718 235.291 1
-23 21 -2 -195.478 20.4368 1
21 -23 2 209.896 179.06 2
2 21 2 -295.215 247.628 4
2 -23 1 285.589 341.091 3
-23 2 -1 547.849 530.378 1
-23 21 1 845.663 511.608 1
21 -23 -1 314.767 565.069 2
2 21 -1 531.286 273.407 4
2 -23 4 205.51 329.165 3
21 -23 -4 868.47 1051.17 2
2 21 -4 -22.2285 147.751 4
-23 2 -4 389.374 404.436 1
21 2 4 305.544 451.567 2
-23 21 4 -93.4162 159.325 1
2 -23 7 493.888 517.086 3
-23 2 -7 282.276 451.802 1
-23 21 7 320.689 160.644 1
21 2 7 429.71 621.857 2
3 21 6 645.723 327.497 1
3 -24 -6 543.423 545.771 3
-24 21 -6 130.358 311.164 1
21 -24 6 316.783 671.157 2
21 3 -6 412.243 282.402 4
3 21 6 502.269 410.074 4
3 -24 -3 797.807 462.177 3
3 -24 -3 388.037 347.61 2
-24 21 -3 988.619 628.229 1
21 -24 3 809.757 623.296 2
-24 3 3 476.24 380.729 1
3 21 3 636.922 587.378 4
3 -24 0 107.781 213.341 3
-24 21 0 1081.46 751.96 1
21 -24 0 -93.0081 554.233 2
3 21 0 856.055 628.159 4
-24 3 0 315.044 246.897 1
3 -24 3 1812.34 922.818 3
21 -24 -3 1753.9 1158.28 2
3 21 -3 1695.33 690.67 4
21 3 3 1904.85 1126.21 2
-24 21 3 2093.46 897.674 1
-24 3 -3 1434.81 743.017 1
3 -24 6 1195.8 787.579 3
-24 21 6 256.601 301.413 1
-24 3 -6 614.07 465.598 1
21 3 6 349.71 566.919 2
3 21 -6 152.913 341.872 4
21 -24 -6 890.019 1846.23 2
4 -25 -4 163.612 331.38 3
-25 4 4 217.214 458.181 1
4 -25 -4 -54.7542 188.589 2
-25 21 -4 -40.3052 352.474 1
21 -25 4 -329.576 223.003 2
21 4 -4 277.416 355.455 4
4 21 4 -131.307 283.076 4
4 -25 -1 342.929 504.314 3
4 -25 -1 -95.9577 273.297 2
21 -25 1 126.545 212.634 2
-25 21 -1 228.869 225.276 1
4 21 1 282.594 305.347 4
-25 4 1 -196.816 380.248 1
-25 4 -2 -21.8003 225.99 1
4 -25 2 471.677 388.495 3
21 -25 -2 261.995 459.87 2
4 21 -2 383.737 528.025 4
-25 21 2 285.571 75.2501 1
4 -25 5 1847.49 1062.99 3
-25 21 5 1023.24 638.724 1
-25 4 -5 1085.16 676.4 1
4 21 -5 295.958 261.118 4
21 -25 -5 2323.4 1379.51 2
21 4 5 352.063 575.509 2
5 -26 -5 84.5437 77.5491 3
-26 21 -5 372.117 313.561 1
21 -26 5 -275.993 298.137 2
5 -26 -5 -47.5713 53.4841 2
21 5 -5 341.088 372.521 4
5 21 5 287.35 368.573 4
-26 5 5 62.9237 222.525 1
5 -26 -2 141.54 295.531 3
-26 5 2 351.736 544.946 1
5 -26 -2 322.64 204.135 2
21 -26 2 428.536 122.854 2
-26 21 -2 194.186 378.766 1
5 21 2 175.637 149.161 4
5 -26 1 578.304 539.881 3
5 -26 1 119.241 167.102 2
-26 5 -1 454.773 486.487 1
21 -26 -1 702.741 562.067 2
-26 21 1 539.189 411.097 1
5 -26 4 489.854 374.606 3
-26 21 4 624.687 458.066 1
-26 5 -4 -204.244 425.935 1
21 -26 -4 411.579 970.292 2
5 21 -4 312.549 475.237 4
21 5 4 -0.35565 267.032 2
6 -27 -3 23.1873 170.719 3
6 -27 -3 346.502 196.993 2
-27 6 3 407.235 376.042 1
21 -27 3 542.767 416.214 2
-27 21 -3 275.501 562.015 1
21 6 -3 301.451 438.64 4
6 21 3 180.494 221.591 4
6 -27 0 286.72 446.96 3
6 -27 0 -84.0818 151.302 2
-27 6 0 143.705 241.855 1
21 -27 0 -136.461 306.125 2
6 21 0 272.741 101.396 4
-27 21 0 365.02 400.64 1
6 -27 3 -227.639 487.129 3
-27 21 3 400.005 474.427 1
6 -27 3 34.4841 278.792 2
21 -27 -3 -158.395 637.327 2
-27 6 -3 -362.448 488.588 1
6 21 -3 777.216 619.825 4
-11 22 0 1450.23 620.53 1
22 -11 0 998.421 699.102 2
-11 -11 0 1308.13 643.786 2
-11 22 3 -118.685 279.571 2
-11 22 -3 704.653 615.76 1
22 -11 3 1115.52 779.108 2
-11 -11 -3 640.475 375 2
-11 22 3 777.242 455.53 4
22 -11 -3 666.14 290.787 2
-11 22 3 751.928 410.096 1
-11 22 6 431.589 239.993 2
-11 22 6 525.981 409.323 1
-11 22 -6 714.914 395.547 1
-11 -11 -6 274.712 364.287 2
22 -11 6 761.108 632.532 2
-11 22 6 1123.53 656.719 4
-11 -11 -6 398.263 428.024 3
-11 22 9 134.809 99.0394 1
-11 22 9 27.686 56.9123 2
-11 -11 -9 46.2363 370.464 2
-11 22 -9 592.237 553.178 1
22 -11 9 802.111 521.029 2
-11 -11 9 454.263 546.212 4
-11 22 9 -11.5471 238.481 4
-11 -11 -9 212.324 158.799 3
-11 -11 -12 106.681 350.617 2
-11 22 -12 302.062 515.302 1
22 -11 12 1214.17 859.335 2
-11 22 12 89.3587 107.974 2
-11 -11 12 216.096 121.586 4
-11 22 12 408.061 503.517 4
-11 -11 -12 306.43 268.54 1
-11 -11 -12 80.1827 125.915 3
-10 -12 -10 640.257 520.767 2
-12 22 -10 733.042 696.77 1
22 -12 10 288.466 649.364 2
-12 -10 10 52.0155 186.061 4
-10 22 10 512.797 198.112 4
-10 22 10 718.458 351.203 1
-10 -12 -10 603.744 408.902 3
-10 22 7 253.359 147.434 2
-12 22 -7 1184.01 694.469 1
-10 -12 -7 704.53 697.877 2
-10 22 7 341.556 280.221 1
22 -12 7 474.793 375.11 2
-10 22 7 1372.96 707.72 4
22 -10 -7 387.53 183.441 4
-10 -12 -7 983.118 508.786 3
-10 22 4 294.277 225.676 2
-12 22 -4 3467.3 1030 1
22 -12 4 3323.73 1172.97 2
-10 -12 -4 4058.39 1234.67 2
-10 22 4 2931.12 986.544 4
-10 -12 -4 3465.93 985.753 3
-10 22 4 4241.23 983.309 1
-10 22 1 1537.58 638.049 1
-12 22 -1 1007.22 595.809 1
22 -12 1 715.885 489.937 2
22 -10 -1 1935.16 893.163 2
-10 22 1 783.667 497.135 4
-10 -12 -1 444.214 301.051 2
-12 22 2 486.932 310.186 2
-10 22 -2 2995.28 930.44 1
22 -10 2 3525.18 1313.64 2
-12 -10 -2 1088.77 680.957 2
22 -12 -2 2688.63 1132.87 2
-12 22 2 3467.47 1103.95 4
-12 22 2 3339.57 935.99 1
-12 22 5 82.0236 144.829 2
-12 22 5 403.775 319.189 1
-10 22 -5 29.3885 304.679 1
-12 -10 -5 221.241 340.492 2
22 -10 5 -37.844 152.997 2
-12 22 5 611.907 419.121 4
-10 22 -8 530.449 512.977 1
-12 22 8 35.7257 125.6 2
-12 -10 -8 755.62 557.227 2
22 -10 8 1307.29 714.497 2
-10 -12 8 135.082 107.535 4
22 -12 -8 1283.7 492.054 4
-12 22 8 367.609 507.979 4
-12 -10 -8 488.133 340.031 3
-12 22 8 1445.8 533.621 1
-12 -10 -11 -140.105 482.622 2
-10 22 -11 353.496 102.736 1
22 -10 11 730.289 724.625 2
-12 22 11 -99.2718 142.681 2
-12 -10 -11 401.684 310.058 1
-10 -12 11 178.261 63.501 4
-12 22 11 221.768 148.111 1
-12 22 11 -465.609 464.68 4
-12 -10 -11 -315.786 382.506 3
-9 -13 -11 -354.177 406.667 2
-13 22 -11 -135.241 374.956 1
22 -13 11 -509.992 573.516 2
-13 -9 11 80.1131 124.062 4
-9 22 11 368.814 245.969 4
-9 -13 -11 355.36 333.899 3
-9 -13 -8 404.926 546.825 2
-13 22 -8 268.549 201.517 1
22 -13 8 79.341 155.899 2
-9 22 8 483.728 500.267 4
-9 22 8 524.405 381.562 1
-9 -13 -8 357.444 392.624 3
-9 22 5 2108.34 671.221 1
-13 22 -5 2359.85 879.465 1
22 -13 5 1681.3 933.281 2
-9 -13 -5 2791.06 1253.22 2
-9 22 5 2504.64 983.972 4
-9 -13 -5 1350.54 602.151 3
-13 22 -2 -3.92236 373.391 2
22 -13 2 -292.927 442.243 2
-9 22 2 486.071 342.688 1
-13 22 -2 1242.34 712.786 1
-9 22 2 664.816 449.312 4
-9 -13 -2 359.702 320.597 2
22 -9 -2 1098.92 661.074 2
-9 -13 -2 248.035 323.325 3
-13 22 1 2028.13 1066.98 2
-9 22 -1 4688.74 1198.12 1
22 -9 1 2413.74 1095.72 2
22 -13 -1 3400.33 1250.24 2
-9 -13 1 4515.17 1387.73 3
-13 22 1 5280.12 1290.79 1
-13 22 4 822.014 498.91 1
-13 22 4 530.156 269.338 2
-9 22 -4 308.296 330.031 1
-13 -9 -4 -29.9158 336.274 2
22 -9 4 392.154 476.689 2
-13 22 4 917.527 534.016 4
-9 -13 4 829.568 610.089 3
22 -13 -4 895.174 670.429 2
-13 -9 -7 745.345 468.286 1
-9 22 -7 887.306 533.587 1
-13 22 7 441.094 281.745 2
-13 -9 -7 -128.083 310.677 2
22 -9 7 462.454 618.485 2
-9 -13 7 1100.05 767.377 4
22 -13 -7 1041.71 392.327 4
-13 22 7 1290.29 690.366 4
-13 22 7 754.921 485.86 1
-9 -13 7 521.757 587.728 3
-9 22 -10 34.2378 493.287 1
-13 -9 -10 -63.5862 464.119 2
-13 22 10 -60.4326 198.922 2
22 -9 10 4.98509 116.879 2
-13 -9 -10 -22.1169 181.752 1
-13 22 10 253.919 257.272 4
-13 -9 -10 401.214 327.603 3
-9 -13 10 352.607 205.513 3
-13 22 10 -103.005 95.5799 1
-8 22 9 301.242 243.982 1
-8 -14 -9 -42.5568 105.466 2
22 -14 9 976.69 772.294 2
-14 22 -9 252.725 380.532 1
-8 22 9 742.795 534.14 4
-8 -14 -9 -65.6823 131.853 3
-8 22 6 1151.36 484.564 1
-8 -14 -6 760.364 514.387 2
22 -14 6 401.847 262.697 2
-14 22 -6 647.934 514.78 1
-8 22 6 1433.69 850.054 4
-8 -14 -6 186.095 335.286 3
22 -14 3 1708.38 878.334 2
-8 22 3 2756.54 811.574 1
-14 22 -3 1948.72 840.749 1
-8 -14 -3 807.885 536.705 2
-8 22 3 954.887 504.839 4
22 -8 -3 1052.43 642.39 2
-8 -14 -3 1035.16 511.118 3
-14 22 0 1099.05 854.387 2
-8 22 0 2891.43 948.307 1
22 -14 0 2206.98 936.742 2
22 -8 0 1708.83 931.884 2
-8 22 0 1687.17 679.654 4
-14 22 0 2643.85 913.243 1
-8 -14 0 2240.34 993.09 3
-14 22 3 458.737 417.956 1
-14 22 3 46.3919 150.877 2
-8 22 -3 -14.1629 169.13 1
-14 -8 -3 371.265 531.22 2
22 -8 3 231.673 244.1 2
-14 22 3 -10.9274 189.985 4
22 -14 -3 372.81 610.848 2
-8 -14 3 912.844 721.13 3
-8 22 -6 159.741 72.6761 1
-14 22 6 282.969 256.884 2
-14 -8 -6 690.288 250.409 2
22 -8 6 735.419 660.982 2
-14 22 6 -25.5416 69.6611 1
-14 -8 -6 550.858 309 1
22 -14 -6 670.309 307.883 4
-14 22 6 327.738 280.448 4
-8 -14 6 771.791 533.793 3
-8 22 -9 457.546 311.658 1
-14 22 9 279.922 194.684 1
-14 22 9 320.962 289.517 2
22 -8 9 327.22 246.685 2
-14 -8 -9 249.492 271.948 1
22 -14 -9 563.823 370.433 4
-14 22 9 732.653 417.953 4
-8 -14 9 272.335 558.391 3
-7 22 10 -1.43883 9.87802 1
-7 -15 -10 -249.152 310.672 2
22 -15 10 -211.682 532.235 2
-15 22 -10 357.317 312.33 1
-7 22 10 223.438 210.115 4
-7 -15 -10 -118.24 194.944 3
-7 22 7 1338.93 479.234 1
-7 -15 -7 1154.87 697.058 2
22 -15 7 1871.24 1021.3 2
-15 22 -7 2099.08 968.57 1
-7 22 7 1485.08 760.762 4
-7 -15 -7 968.291 470.718 3
22 -15 4 707.559 359.906 2
-7 -15 -4 471.038 366.023 2
-7 22 4 716.775 359.829 1
-15 22 -4 98.0427 368.033 1
-7 22 4 -285.743 489.181 4
-7 -15 -4 519.342 413.754 3
-15 22 -1 -268.317 273.856 2
-7 22 1 619.187 313.635 1
22 -15 1 479.688 570.09 2
-7 22 1 683.248 474.277 4
22 -7 -1 1086.11 688.481 2
-15 22 -1 828.968 428.667 1
-7 -15 -1 634.378 429.225 3
-15 22 2 815.211 450.218 1
-15 22 2 810.973 421.643 2
-7 22 -2 797.836 503.853 1
22 -7 2 590.546 614.256 2
22 -15 -2 1271.5 998.387 2
-7 22 -2 669.567 520.204 4
-7 -15 2 425.606 539.418 3
-7 22 -5 622.691 444.717 1
-15 22 5 1066.22 621.828 2
-15 22 5 241.866 38.553 1
-15 -7 -5 362.525 232.743 1
22 -7 5 560.096 418.467 2
22 -15 -5 370.912 383.794 4
-15 22 5 66.5188 195.853 4
-7 -15 5 -154.67 258.703 3
22 -15 -5 51.1711 258.578 2
-15 22 8 369.784 393.211 1
-7 22 -8 385.358 352.487 1
-15 22 8 174.024 179.328 2
-15 -7 -8 66.8894 50.2123 1
22 -7 8 895.675 675.099 2
22 -15 -8 239.513 148.12 4
-15 22 8 0.78894 79.0483 4
-7 -15 8 332.845 491.131 3
-7 22 -11 612.286 364.015 1
22 -7 11 -157.199 672.958 2
-15 22 11 108.466 332.642 2
-15 22 11 268.516 230.815 1
-15 -7 -11 277.852 231.38 1
-15 22 11 394.859 399.291 4
-7 -15 11 447.078 307.551 3
-6 -16 -11 265.931 306.693 3
22 -16 11 -185.037 92.7455 2
-16 22 -11 -164.847 293.698 1
-6 22 11 -64.8128 107.797 4
-6 -16 -8 661.245 323.753 2
-6 22 8 1077.89 449.67 1
22 -16 8 113.671 330.492 2
-16 22 -8 769.702 607.304 1
-6 22 8 383.919 338.031 4
-6 -16 -8 500.693 380.339 3
22 -16 5 369.458 402.363 2
-6 -16 -5 -196.651 668.361 2
-16 22 -5 236.675 331.084 1
-6 22 5 -24.099 440.431 4
-6 22 5 266.596 223.047 1
-6 -16 -5 -17.3661 67.1053 3
-6 22 2 2640.26 811.734 1
22 -16 2 1765.47 843.594 2
-6 22 2 1730.35 746.516 4
-6 -16 -2 1214.79 464.154 2
-16 22 -2 2006.68 918.321 1
22 -6 -2 2533.72 1172.77 2
-6 -16 -2 1717.45 735.694 3
-16 22 1 -117.752 349.973 1
-16 22 1 257.965 335.392 2
-6 22 -1 -198.741 253.807 1
22 -16 -1 228.561 263.968 2
22 -6 1 354.091 516.728 2
-6 22 -1 -4.61049 53.3616 4
-6 -16 1 495.799 420.257 3
-6 22 -4 135.581 148.001 1
-16 22 4 413.931 365.628 2
-16 22 4 590.461 349.277 1
-16 -6 -4 667.783 459.101 1
22 -6 4 1021.86 808.671 2
22 -16 -4 2097.99 1292.54 4
22 -16 -4 634.165 416.37 2
-6 -16 4 512.458 492.418 3
-6 22 -7 699.998 537.088 1
-16 22 7 239.341 163.564 2
-16 -6 -7 379.585 338.666 1
22 -6 7 256.513 389.207 2
22 -16 -7 598.693 408.509 4
-16 22 7 572.373 452.18 4
-6 -16 7 415.844 522.164 3
-16 22 7 981.392 633.641 1
-16 22 10 207.636 244.555 1
-6 22 -10 413.892 607.83 1
22 -6 10 -188.788 265.384 2
-16 22 10 96.0987 239.601 2
-16 -6 -10 2.01822 147.466 1
-16 22 10 39.3577 151.622 4
-6 -16 10 512.174 564.394 3
-5 -17 -9 531.48 444.729 3
-5 22 9 753.202 280.702 1
-5 -17 -9 160.418 180.133 2
22 -17 9 1334.1 895.79 2
-17 22 -9 717.399 731.784 1
-5 22 9 590.639 386.918 4
22 -17 6 688.032 487.781 2
-5 -17 -6 1052.19 158.16 2
-5 22 6 1711.31 875.56 4
-17 22 -6 1429.83 765.561 1
-5 22 6 1887.39 523.144 1
-5 -17 -6 1352.57 668.191 3
-5 22 3 2234.33 774.924 1
22 -17 3 730.696 261.186 2
-5 22 3 2039.36 932.453 4
-5 -17 -3 659.816 293.586 2
-17 22 -3 2012.17 973.424 1
-5 -17 -3 972.991 583.493 3
-17 22 0 873.921 601.248 1
-17 22 0 151.702 314.917 2
-5 22 0 194.91 198.328 1
22 -17 0 107.355 357.329 2
-5 22 0 111.035 221.014 4
22 -5 0 601.596 448.636 2
-5 -17 0 502.059 235.191 3
-5 22 -3 572.404 410.496 1
-17 22 3 681.755 501.054 2
-17 22 3 552.303 333.023 1
-17 -5 -3 394.617 399.187 1
22 -5 3 -114.227 497.72 2
22 -17 -3 730.604 704.632 2
-5 22 -3 604.346 538.3 4
-5 -17 3 603.95 452.425 3
-5 22 -6 317.384 109.246 1
-17 22 6 221.654 409.734 2
-17 -5 -6 931.6 490.452 1
22 -5 6 653.394 640.285 2
22 -17 -6 1014.83 588.27 4
-17 22 6 763.175 580.471 4
-17 22 6 739.684 500.65 1
-5 -17 6 501.029 542.897 3
-5 22 -9 691.365 452.952 1
-17 22 9 212.466 342.659 2
22 -5 9 842.062 622.823 2
-17 22 9 707.903 387 1
22 -17 -9 1156.06 666.34 4
-17 22 9 667.353 478.706 4
-17 -5 -9 79.1205 180.159 1
-5 -17 9 913.424 638.371 3
-4 -18 -10 491.232 484.34 3
22 -18 10 -98.564 172.001 2
-4 22 10 -53.5592 190.601 4
-18 22 -10 376.004 492.828 1
-4 -18 -7 78.1615 100.232 3
-4 -18 -7 79.141 118.618 2
22 -18 7 215.413 407.243 2
-4 22 7 -119.559 495.749 4
-18 22 -7 298.259 517.138 1
-4 22 7 293.389 228.755 1
-4 22 4 960.977 500.159 1
22 -18 4 1104.08 776.248 2
-4 22 4 1655.09 876.53 4
-4 -18 -4 854.79 545.107 2
-18 22 -4 969.701 651.208 1
-4 -18 -4 965.504 553.223 3
-4 22 1 249.071 100.02 1
22 -18 1 56.5636 150.689 2
22 -4 -1 224.474 327.382 2
-4 -18 -1 38.5236 66.9591 3
-4 22 -2 524.635 426.019 1
-18 22 2 456.009 406.463 1
-18 22 2 237.125 186.77 2
22 -18 -2 492.979 471.889 2
-18 -4 -2 44.4364 155.245 1
22 -4 2 651.788 623.527 2
-4 22 -2 -147.66 51.2551 4
-4 -18 2 319.225 366.884 3
-4 22 -5 1129.13 524.996 1
-18 22 5 932.412 562.033 2
22 -4 5 1191.57 806.475 2
-18 -4 -5 948.845 521.867 1
-18 22 5 1959.44 777.117 1
22 -18 -5 1427.86 670.021 4
22 -18 -5 1632.52 1139.79 2
-4 -18 5 1724.41 873.019 3
-4 22 -8 1543.03 774.018 1
-18 22 8 1081.21 697.963 1
-18 22 8 1029.58 632.031 2
22 -4 8 1493.72 907.376 2
22 -18 -8 1792.43 751.765 4
-18 22 8 467.926 385.869 4
-18 -4 -8 1047.54 515.019 1
-4 -18 8 1313.8 746.973 3
-3 -19 -8 699.816 501.354 3
-3 22 8 660.97 262.563 1
-3 -19 -8 232.443 181.019 2
22 -19 8 707.461 759.103 2
-3 22 8 741.336 535.425 4
22 -3 -8 915.412 325.693 4
-19 22 -8 945.547 740.603 1
-3 -19 -5 732.821 569.701 3
-3 22 5 799.728 467.483 1
22 -19 5 350.155 417.114 2
-3 -19 -5 -125.101 804.74 2
-3 22 5 839.927 479.502 4
-19 22 -5 452.104 328.401 1
-19 22 -2 1443.22 768.969 1
-3 22 2 830.94 447.758 1
22 -19 2 499.209 325.507 2
-3 22 2 790.457 643.723 4
-3 -19 -2 902.728 469.826 3
-3 22 -1 402.906 326.139 1
-19 22 1 407.573 401.814 1
22 -19 -1 889.749 802.996 2
-3 22 -1 373.741 330.15 4
22 -3 1 -117.209 112.921 2
-19 -3 -1 107.017 184.834 1
-3 -19 1 403.706 301.208 3
-3 22 -4 1618.83 684.628 1
-19 22 4 1122.04 633.519 2
-19 22 4 2125.2 865.407 1
22 -3 4 -143.574 399.341 2
-19 -3 -4 1004.26 593.45 1
22 -19 -4 1955.3 867.549 4
22 -19 -4 1387.21 1009.4 2
-3 22 -4 1338.64 620.193 4
-3 -19 4 2270.27 966.992 3
-3 22 -7 952.905 767.639 1
-19 22 7 281.459 242.891 1
-19 22 7 782.937 533.055 2
22 -3 7 -40.0139 476.968 2
22 -19 -7 1362.19 870.816 4
-19 -3 -7 488.136 374.728 1
-3 -19 7 1298.55 821.475 3
-3 22 -10 333.864 416.118 1
-19 22 10 469.115 462.701 1
-19 -3 -10 141.5 145.038 1
22 -3 10 728.899 599.777 2
-19 22 10 232.919 276.962 2
22 -19 -10 1324.71 655.699 4
-19 22 10 391.91 464.538 4
-3 -19 10 465.385 690.42 3
-2 -20 -9 -198.654 124.928 3
22 -20 9 584.099 632.107 2
-2 22 9 108.017 406.12 4
-20 22 -9 164.545 467.173 1
-2 -20 -6 175.758 188.221 3
-2 22 6 817.764 376.575 1
22 -20 6 -347.026 588.157 2
-2 -20 -6 69.4771 311.663 2
-2 22 6 783.844 592.035 4
-20 22 -6 156.754 168.304 1
-2 -20 -3 -82.0172 204.392 3
-20 22 -3 70.5401 76.5684 1
-2 22 3 158.409 263.667 1
22 -20 3 219.346 158.616 2
-2 22 3 621.151 713.672 4
-2 22 0 76.8066 149.822 1
-20 -2 0 100.841 224.287 1
-20 22 0 285.852 239.494 1
22 -20 0 -100.369 378.14 2
-2 22 0 -19.1871 61.2273 4
22 -2 0 98.972 317.068 2
-2 -20 0 321.275 374.298 3
-2 22 -3 431.114 395.901 1
-20 22 3 165.071 404.649 1
22 -20 -3 -363.543 644.775 2
-2 22 -3 246.968 220.427 4
22 -2 3 248.483 418.742 2
-20 -2 -3 294.766 143.413 1
-2 -20 3 302.8 286.523 3
-20 -2 -6 777.218 536.447 1
-20 22 6 795.409 574.304 1
-2 22 -6 466.898 109.811 1
-20 22 6 608.309 472.3 2
22 -2 6 1.80476 100.568 2
22 -20 -6 1295.22 703.979 4
-2 -20 6 1110.61 726.82 3
-2 22 -9 373.904 505.866 1
-20 -2 -9 125.228 174.032 1
22 -2 9 320.229 382.851 2
22 -20 -9 968.975 699.664 4
-20 22 9 -342.465 257.675 1
-2 -20 9 -23.8031 326.398 3
-1 -21 -7 656.957 341.646 3
22 -21 7 -266.981 497.902 2
-1 22 7 558.039 239.759 1
22 -1 -7 251.182 223.699 4
-1 22 7 573.716 408.114 4
-21 22 -7 558.326 304.498 1
-1 -21 -4 106.365 230.148 3
-21 22 -4 376.313 221.158 1
-1 22 4 411.049 313.134 1
22 -21 4 -260.648 418.883 2
-1 22 4 480.043 319.303 4
-1 -21 -4 -88.0113 98.4333 2
-1 -21 -1 701.464 543.321 3
-1 22 1 42.4361 222.204 1
-21 22 -1 514.42 506.235 1
22 -21 1 838.678 694.196 2
-21 -1 1 788.964 507.765 1
-1 22 1 674.837 511.741 4
-1 -21 2 753.578 522.061 3
-21 -1 -2 644.894 353.64 1
-1 22 -2 804.726 402.522 1
-21 22 2 1592.67 806.155 1
22 -21 -2 1145.43 770.002 2
-1 22 -2 402.372 263.888 4
22 -1 2 482.032 608.113 2
-1 -21 5 222.242 327.89 3
-1 22 -5 199.23 215.31 1
-21 -1 -5 477.669 383.506 1
22 -1 5 -7.54697 342.087 2
-1 22 -5 879.629 464.633 4
22 -21 -5 739.747 1162.82 2
-21 22 5 618.162 463.836 1
-1 -21 8 1499.24 862.337 3
-1 22 -8 1073.13 608.63 1
-21 -1 -8 619.217 434.972 1
-21 22 8 1075.1 703.603 1
22 -21 -8 1819.82 912.738 4
22 -1 8 1168.67 929.335 2
0 -22 -8 651.341 654.102 3
0 22 8 191.4 124.366 1
22 -22 8 91.7137 334.769 2
0 22 8 82.6409 128.69 1
0 22 8 525.411 469.217 4
22 0 -8 438.437 315.188 4
-22 22 -8 -204.3 325.629 1
0 -22 -5 207.466 264.688 3
-22 22 -5 -215.487 263.629 1
0 -22 -5 -12.1641 71.5704 2
0 22 5 164.052 193.129 1
22 -22 5 292.235 528.666 2
0 -22 -5 -817.942 735.341 2
0 22 5 198.241 117.843 4
0 -22 -2 989.608 624.521 3
0 22 2 781.952 433.374 1
-22 22 -2 471.662 458.995 1
-22 0 2 309.989 361.937 1
22 -22 2 793.871 710.297 2
0 22 2 -96.2525 193.492 4
0 -22 1 2113.56 864.115 3
0 22 -1 1419.26 566.808 1
-22 0 -1 920.505 488.535 1
-22 22 1 1620.6 717.672 1
22 -22 -1 183.804 207.305 2
0 22 -1 2048.63 851.835 4
22 0 1 1310.69 734.044 2
0 -22 4 918.798 642.576 3
0 22 -4 457.043 353.069 1
-22 0 -4 499.329 449.541 1
22 -22 -4 778.77 669.926 2
0 22 -4 886.9 530.965 4
22 0 4 1102.42 842.044 2
-22 22 4 1224.23 778.246 1
0 -22 7 1329 855.093 3
0 22 -7 1266.73 708.998 1
-22 22 7 620.61 415.953 1
-22 0 -7 942.585 644.917 1
22 0 7 1017.47 806.718 2
1 -23 -6 0.57948 229.265 3
-23 22 -6 -28.3059 325.918 1
1 22 6 116.836 160.953 1
22 -23 6 -459.727 235.865 2
22 1 -6 -50.9665 179.48 4
1 22 6 365.873 478.284 4
1 -23 -3 275.527 224.782 3
1 22 3 380.924 327.529 1
-23 22 -3 798.347 461.058 1
22 -23 3 306.119 493.965 2
1 22 3 139.455 347.94 4
-23 1 3 -73.879 249.884 1
1 22 0 428.907 310.73 1
1 -23 0 310.182 335.699 3
-23 1 0 362.313 483.734 1
-23 22 0 759.378 413.545 1
22 -23 0 -46.0157 388.062 2
1 22 0 716.605 665.519 4
1 22 -3 1332.76 697.876 1
1 -23 3 1590.65 881.429 3
-23 1 -3 1355.24 718.352 1
22 -23 -3 926.894 1029.11 2
-23 22 3 772.177 578.831 1
1 22 -3 1415.39 811.263 4
22 1 3 1065.1 784.447 2
1 22 -6 351.249 459.228 1
1 -23 6 1150.23 671.036 3
-23 22 6 675.848 505.896 1
-23 1 -6 364.812 377.198 1
22 1 6 83.4124 463.814 2
1 22 -6 607.866 502.978 4
22 -23 -6 1289.74 1469.03 2
2 -24 -7 -43.9495 402.229 3
-24 22 -7 284.621 508.137 1
2 22 7 376.358 237.117 1
22 -24 7 285.746 576.995 2
2 22 7 421.636 179.123 1
2 22 7 371.32 597.095 4
22 2 -7 661.007 391.715 4
2 22 4 22.3185 44.2311 1
2 -24 -4 -217.037 441.524 3
2 -24 -4 91.206 140.182 2
-24 22 -4 344.009 232.826 1
22 -24 4 -34.6189 225.46 2
2 22 4 676.97 666.876 4
2 22 1 266.379 244.605 1
2 -24 -1 638.083 430.58 3
-24 22 -1 509.024 337.233 1
22 -24 1 54.498 147.877 2
-24 2 1 406.396 326.409 1
2 22 1 -21.7655 217.424 4
2 -24 2 548.316 430.023 3
-24 2 -2 628.236 640.339 1
22 -24 -2 -383.527 676.232 2
-24 22 2 790.111 655.142 1
2 22 -2 280.473 245.008 4
22 2 2 -176.658 285.257 2
2 -24 5 951.286 656.84 3
-24 22 5 1808.9 882.655 1
-24 2 -5 1073.93 690.072 1
2 22 -5 919.946 631.878 4
22 -24 -5 1085.18 1528.8 2
22 2 5 1299.86 1128.97 2
3 22 5 17.44 154.335 1
3 -25 -5 260.128 479.86 3
-25 22 -5 185.157 514.813 1
3 -25 -5 154.997 177.916 2
22 -25 5 -293.426 594.202 2
22 3 -5 319.352 198.449 4
3 22 5 334.917 147.9 4
3 -25 -2 37.5749 319.535 3
3 -25 -2 -198.264 101.753 2
-25 22 -2 40.9774 482.86 1
22 -25 2 -150.682 395.637 2
3 22 2 850.453 737.144 4
-25 3 2 454.524 455.511 1
3 -25 1 456.501 423.414 3
-25 3 -1 694.444 361.805 1
22 -25 -1 410.065 175.657 2
-25 22 1 491.175 604.363 1
3 22 -1 464.982 432.271 4
-25 22 4 906.031 682.913 1
3 -25 4 245.388 388.705 3
22 -25 -4 620.853 784.604 2
3 22 -4 581.178 438.793 4
-25 3 -4 188.744 296.363 1
22 3 4 -124.407 239.979 2
4 -26 -3 -178.173 458.166 3
4 -26 -3 3.74047 102.969 2
-26 4 3 162.387 203.846 1
-26 22 -3 -62.2574 229.819 1
22 -26 3 138.736 497.773 2
4 22 3 757.111 722.246 4
4 -26 0 294.833 576.022 3
4 -26 0 -67.4485 103.11 2
22 -26 0 261.077 693.11 2
-26 22 0 -10.316 186.036 1
-26 4 0 43.6058 329.312 1
4 22 0 -202.517 184.608 4
4 -26 3 117.44 111.523 3
22 -26 -3 -68.6578 812.668 2
4 22 -3 3.61499 146.801 4
-26 4 -3 459.372 498.877 1
-26 22 3 162.249 103.687 1
5 -27 -1 151.147 346.914 3
5 -27 -1 -264.471 364.784 2
22 -27 1 302.528 46.0494 2
-27 22 -1 816.683 675.447 1
5 22 1 758.047 767.573 4
-27 5 1 400.783 395.114 1
-11 -12 -11 -266.854 436.257 2
-12 23 -11 537.015 250.638 1
-11 23 11 -8.896 114.797 2
23 -12 11 1358.62 1029.29 2
-11 23 11 539.235 270.157 1
-12 -11 11 1080.81 579.234 4
-11 23 11 282.316 422.062 4
-11 -12 -11 227.361 95.4898 3
-11 23 8 -28.0379 99.8106 2
-12 23 -8 425.857 381.443 1
-11 -12 -8 486.114 482.765 2
23 -12 8 293.832 261.28 2
23 -11 -8 1033.06 431.516 4
-11 23 8 212.676 440.858 4
-11 23 8 1076.28 476.485 1
-11 -12 -8 253.273 112.438 3
-11 23 5 681.605 466.956 1
-11 23 5 -378.368 271.404 2
-12 23 -5 80.0945 383.603 1
-11 -12 -5 470.346 243.833 2
23 -12 5 574.328 485.284 2
-11 23 5 351.135 175.566 4
-11 -12 -5 475.314 253.097 3
-12 23 -2 233.665 183.154 1
23 -12 2 326.634 328.613 2
-11 -12 -2 -138.724 262.943 2
-11 23 2 59.8067 333.918 1
-11 23 2 51.5064 265.524 4
23 -11 -2 985.602 765.197 2
-12 23 1 -11.8021 330.988 2
-11 23 -1 432.83 341.057 1
23 -11 1 555.327 626.366 2
-12 23 1 825.667 536.092 1
23 -12 -1 -320.639 599.045 2
-12 -11 -1 805.505 358.468 2
-12 23 4 534.089 406.083 1
-12 23 4 -1.72914 142.968 2
-11 23 -4 236.711 477.161 1
-12 -11 -4 126.924 583.766 2
23 -11 4 265.346 498.832 2
-12 23 4 427.56 304.426 4
23 -12 -4 1714.27 1002.23 2
-12 23 7 -76.0706 146.267 2
-11 23 -7 181.751 211.069 1
-12 -11 -7 884.446 652.435 2
23 -11 7 408.924 403.184 2
-12 23 7 691.784 418.972 1
-12 23 7 338.101 405.432 4
23 -12 -7 77.9426 85.6163 4
-12 -11 -7 260.266 336.339 3
-12 -11 -10 -90.2179 398.319 2
-11 23 -10 -564.04 608.668 1
-12 23 10 -127.122 156.871 2
23 -11 10 54.7933 171.358 2
-11 -12 10 -91.1909 30.0794 4
-12 23 10 384.315 274.375 1
-12 23 10 219.078 354.707 4
-12 -11 -10 -21.8924 104.593 3
-10 23 9 1873.46 639.327 1
-10 -13 -9 606.404 352.063 2
-13 23 -9 1158.72 637.895 1
23 -13 9 69.4469 160.302 2
-10 23 9 845.751 714.746 4
-10 -13 -9 548.154 442.779 3
-10 23 6 161.375 95.4935 2
-10 23 6 323.779 347.107 1
-13 23 -6 298.296 361.792 1
-10 -13 -6 487.358 906.417 2
23 -13 6 -129.528 356.562 2
-10 23 6 -352.576 469.585 4
-10 -13 -6 512.38 371.561 3
-13 23 -3 303.429 511.211 1
23 -13 3 49.9065 154.334 2
-10 -13 -3 209.748 441.11 2
-10 23 3 -264.718 447.803 4
-10 23 3 166.289 263.408 1
-10 -13 -3 -208.353 425.452 3
23 -10 -3 500.69 277.88 2
-13 23 0 732.096 420.367 2
-10 23 0 1186.96 601.995 1
23 -13 0 341.061 186.813 2
23 -10 0 404.729 428.731 2
-13 23 0 878.126 559.649 1
-10 23 0 720.54 452.706 4
-10 -13 0 414.088 339.039 3
-10 -13 0 249.209 298.06 2
-13 23 3 1294.87 579.649 1
-13 23 3 458.422 518.421 2
-10 23 -3 1766.52 787.087 1
-13 -10 -3 1464.56 746.386 2
23 -10 3 1127.65 832.312 2
-13 23 3 1375.6 684.154 4
23 -13 -3 1103.73 803.378 2
-13 23 6 427.932 405.531 2
-10 23 -6 275.518 286.662 1
-13 23 6 276.531 279.286 1
-13 -10 -6 851.305 797.107 2
23 -10 6 198.257 328.504 2
-13 23 6 -452.6 335.734 4
23 -13 -6 647.232 296.904 4
-13 23 9 -105.859 157.845 1
-10 23 -9 564.788 415.284 1
-13 -10 -9 506.19 383.921 1
-13 23 9 -312.007 279.429 2
-13 -10 -9 -140.437 397.095 2
23 -10 9 -159.936 290.236 2
23 -13 -9 403.102 279.41 4
-13 23 9 492.965 513.708 4
-10 -13 9 25.0888 328.407 3
-13 -10 -9 345.568 259.59 3
-9 -14 -10 -169.577 225.262 2
23 -14 10 567.096 766.572 2
-14 23 -10 -26.5943 589.611 1
-9 23 10 148.107 154.029 1
-9 23 10 -158.08 115.591 4
-9 -14 -10 150.46 342.078 3
-9 23 7 31.9352 222.695 1
-9 -14 -7 243.94 714.93 2
23 -14 7 349.276 498.366 2
-14 23 -7 -69.9879 144.956 1
-9 23 7 508.047 449.841 4
-9 -14 -7 -655.134 584.004 3
23 -14 4 -145.345 319.755 2
-14 23 -4 -141.871 286.76 1
-9 -14 -4 780.585 539.303 2
-9 23 4 1021.74 604.478 4
-9 23 4 741.462 506.336 1
-9 -14 -4 858.026 478.486 3
-14 23 -1 622.565 409.937 2
-9 23 1 653.83 429.572 1
23 -14 1 242.485 280.45 2
-14 23 -1 830.79 679.402 1
-9 23 1 -236.751 463.95 4
23 -9 -1 132.032 188.133 2
-9 -14 -1 422.272 383.533 2
-9 -14 -1 370.932 339.577 3
-14 23 2 292.615 252.668 1
-14 23 2 396.395 470.852 2
-9 23 -2 255.884 191.768 1
23 -9 2 -68.8671 129.704 2
23 -14 -2 839.823 534.172 2
-9 -14 2 -33.1519 316.959 3
-14 23 5 543.781 400.635 2
-9 23 -5 654.409 495.693 1
-14 23 5 223.507 271.226 1
-14 -9 -5 314.077 488.151 2
23 -9 5 14.8578 283.872 2
-14 23 5 323.193 410.308 4
-9 -14 5 54.4814 251.417 3
-14 23 8 150.703 300.988 1
-14 -9 -8 565.548 343.335 1
-9 23 -8 232.426 203.889 1
-14 23 8 256.171 241.676 2
-14 -9 -8 150.697 441.28 2
23 -9 8 131.852 50.4276 2
23 -14 -8 523.14 330.678 4
-14 23 8 219.038 310.577 4
-9 -14 8 616.18 643.404 3
-9 23 -11 -211.661 407.367 1
-14 -9 -11 -53.5906 174.988 1
-14 23 11 -216.62 124.552 1
23 -9 11 -463.003 712.149 2
-14 23 11 -240.183 202.854 2
-14 23 11 388.391 468.156 4
-14 -9 -11 18.7369 169.693 3
-9 -14 11 256.293 246.308 3
-8 -15 -8 60.8925 520.862 2
23 -15 8 -433.654 529.641 2
-8 23 8 85.5667 210.595 1
-15 23 -8 -158.135 188.53 1
-8 23 8 89.3127 296.565 4
-8 -15 -8 889.755 547.527 3
23 -15 5 905.102 640.017 2
-8 -15 -5 319.281 865.194 2
-15 23 -5 119.248 200.531 1
-8 23 5 521.428 663.783 4
-8 23 5 303.805 260.384 1
-8 -15 -5 -74.0145 340.653 3
-8 23 2 56.4249 235.126 1
23 -15 2 13.1507 411.125 2
-8 23 2 585.944 506.744 4
-15 23 -2 947.432 623.808 1
-8 -15 -2 256.016 176.068 2
23 -8 -2 430.895 429.623 2
-8 -15 -2 339.441 242.158 3
-15 23 1 520.649 422.946 1
-15 23 1 391.146 480.277 2
-8 23 -1 763.18 436.208 1
23 -15 -1 76.3771 168.262 2
23 -8 1 1034.24 688.551 2
-8 23 -1 801.674 608.141 4
-8 -15 1 191.399 169.178 3
-15 23 4 523.957 321.421 2
-15 23 4 791.671 518.862 1
-8 23 -4 1327.19 709.053 1
23 -8 4 751.07 528.517 2
-15 23 4 696.338 624.295 4
23 -15 -4 1597.29 955.79 2
-8 -15 4 1142.15 676.107 3
-8 23 -7 503.561 384.091 1
-15 23 7 247.137 297.597 2
23 -8 7 -217.418 464.452 2
23 -15 -7 91.1261 67.0231 4
-15 23 7 -746.933 635.559 4
-15 23 7 89.9762 284.563 1
-8 -15 7 214.88 408.951 3
-15 -8 -7 185.68 350.617 1
-8 23 -10 137.714 131.189 1
-15 -8 -10 41.6587 142.424 1
-15 23 10 349.322 248.451 2
23 -8 10 450.13 559.169 2
-15 23 10 710.425 626.739 4
-15 23 10 604.048 399.446 1
-8 -15 10 776.29 607.428 3
-7 -16 -9 239.71 127.008 2
23 -16 9 80.734 439.541 2
-16 23 -9 284.632 312.099 1
-7 23 9 487.355 430.47 4
-7 23 9 459.403 286.645 1
-7 -16 -9 529.953 407.351 3
23 -16 6 194.823 403.005 2
-7 -16 -6 363.614 58.8713 2
-16 23 -6 314.64 434.713 1
-7 23 6 802.93 676.133 4
-7 -16 -6 261.015 201.062 3
-7 23 6 710.016 334.657 1
-7 23 3 1209.8 539.593 1
23 -16 3 651.043 542.533 2
-7 23 3 1447.19 777.382 4
-7 -16 -3 644.873 440.662 2
-16 23 -3 1127.52 722.365 1
-7 -16 -3 1115.97 674.503 3
-16 23 0 1140.97 652.229 2
-7 23 0 1161.98 617.031 1
23 -16 0 306.467 462.317 2
-7 23 0 650.493 486.807 4
23 -7 0 1771.15 868.34 2
-7 -16 0 625.847 494.555 3
-16 23 0 1564.27 732.767 1
-16 23 3 712.781 435.307 1
-16 23 3 99.6733 49.0438 2
-7 23 -3 614.588 513.978 1
23 -7 3 299.814 476.601 2
23 -16 -3 387.675 595.492 2
-7 -16 3 168.873 311.128 3
-7 23 -6 175.817 195.708 1
-16 23 6 196.936 339.583 2
23 -7 6 -96.707 242.76 2
-16 23 6 -9.60053 340.766 1
23 -16 -6 481.989 354.041 4
-16 23 6 320.847 418.878 4
-16 -7 -6 539.131 417.237 1
-7 -16 6 -113.624 138.919 3
-7 23 -9 21.7731 288.753 1
-16 -7 -9 124.635 149.758 1
-16 23 9 513.108 308.416 1
-16 23 9 -167.573 346.693 2
23 -7 9 379.71 392.678 2
23 -16 -9 438.345 539.171 4
-16 23 9 503.855 453.831 4
-7 -16 9 547.254 513.126 3
-6 -17 -10 564.828 408.245 3
-6 -17 -10 -121.839 255.625 2
23 -17 10 504.289 487.834 2
-17 23 -10 360.744 636.857 1
-6 23 10 93.225 102.793 4
-6 23 7 177.1 68.8862 1
-6 -17 -7 217.069 317.544 2
23 -17 7 -783.04 851.917 2
-17 23 -7 -224.948 291.179 1
-6 23 7 292.087 332.739 4
-6 -17 -7 313.597 331.982 3
23 -17 4 407.671 476.807 2
-6 23 4 186.084 231.522 1
-6 -17 -4 904.617 647.584 2
-6 23 4 542.869 551.234 4
-17 23 -4 598.414 317.286 1
-6 -17 -4 585.076 441.142 3
-6 23 1 1195.42 614.059 1
23 -17 1 471.17 538.808 2
-6 23 1 1024.77 672.84 4
23 -6 -1 887.445 526.535 2
-6 -17 -1 701.072 518.203 3
-17 23 -1 786.863 567.759 1
-17 23 2 528.552 534.654 1
-6 23 -2 348.409 322.97 1
-17 23 2 560.498 416.314 2
23 -17 -2 297.451 382.622 2
23 -6 2 203.322 128.216 2
-6 23 -2 110.476 241.622 4
-6 -17 2 206.186 468.191 3
-6 23 -5 -131.301 349.156 1
-17 23 5 97.3191 127.967 2
-17 23 5 196.319 479.261 1
23 -6 5 -240.778 428.588 2
23 -17 -5 810.721 531.972 4
-17 -6 -5 456.506 400.123 1
23 -17 -5 -61.4178 561.164 2
-6 -17 5 -105.915 262.937 3
-6 23 -8 -286.853 290.964 1
-17 23 8 368.555 482.646 1
-17 -6 -8 142.39 171.772 1
-17 23 8 132.636 260.648 2
23 -6 8 75.5573 163.423 2
23 -17 -8 268.168 204.837 4
-17 23 8 335.969 539.15 4
-6 -17 8 289.324 345.963 3
-5 -18 -8 916.664 592.486 3
-5 23 8 1060.67 428.694 1
-5 -18 -8 173.592 197.006 2
23 -18 8 -21.6293 85.5838 2
23 -5 -8 344.953 149.494 4
-5 23 8 696.061 614.325 4
-18 23 -8 605.842 568.807 1
23 -18 5 902.564 673.746 2
-5 23 5 868.601 400.314 1
-5 -18 -5 77.5171 1021.34 2
-5 23 5 1128.63 797.57 4
-18 23 -5 696.684 506.754 1
-5 -18 -5 235.955 248.244 3
-5 23 2 260.803 201.812 1
23 -18 2 27.8451 74.3873 2
-5 23 2 344.167 153.472 4
-5 -18 -2 210.951 378.753 3
-18 23 -2 307.656 601.633 1
-18 23 1 1031.72 615.44 1
-5 23 -1 734.756 512.061 1
-18 23 1 641.351 492.184 2
23 -18 -1 353.494 493.095 2
-5 23 -1 1292.88 652.3 4
23 -5 1 1531.52 927.329 2
-5 -18 1 1256.41 711.528 3
-5 23 -4 56.44 253.538 1
-18 23 4 -64.3593 277.892 2
-18 23 4 1217.02 734.859 1
23 -5 4 494.786 593.78 2
23 -18 -4 414.718 401.474 4
23 -18 -4 259.384 142.493 2
-18 -5 -4 118.303 163.031 1
-5 -18 4 518.63 349.053 3
-18 23 7 2325.52 961.724 1
-5 23 -7 2446.46 941.232 1
-18 -5 -7 1812.23 693.572 1
-18 23 7 1211.44 636.708 2
23 -5 7 1671.9 885.542 2
23 -18 -7 3797.01 1114.48 4
-18 23 7 2200.92 904.111 4
-5 -18 7 2364.85 1069.42 3
-5 23 -10 -5.22972 528.408 1
-18 23 10 196.383 289.706 2
23 -5 10 775.713 659.109 2
23 -18 -10 -57.3133 410.416 4
-18 -5 -10 204.656 347.248 1
-18 23 10 201.602 242.088 4
-18 23 10 16.3736 88.9413 1
-5 -18 10 537.028 494.102 3
-4 -19 -9 99.3378 141.126 3
-4 -19 -9 -108.103 87.7619 2
23 -19 9 253.21 410.084 2
-4 23 9 420.322 239.144 1
-19 23 -9 56.9273 256.425 1
-4 -19 -6 234.71 119.899 3
23 -19 6 268.993 478.1 2
-4 23 6 786.719 321.785 1
-4 23 6 1104.78 817.417 4
-19 23 -6 430.291 415.948 1
-4 23 3 393.024 318.791 1
23 -19 3 340.422 414.343 2
-4 23 3 393.345 338.368 4
-4 -19 -3 115.44 298.597 2
-4 -19 -3 312.773 270.623 3
-19 23 -3 64.4451 253.853 1
-19 23 0 580.444 503.014 1
-4 23 0 128.856 127.569 1
23 -19 0 -571.671 603.896 2
-4 23 0 220.015 79.4603 4
23 -4 0 -209.869 456.313 2
-4 -19 0 435.663 413.079 3
-19 -4 -3 240.763 388.424 1
-4 23 -3 413.4 439.415 1
-19 23 3 603.714 363.498 2
-19 23 3 1025.4 671.106 1
23 -4 3 -276.76 409.014 2
23 -19 -3 112.711 344.009 2
23 -19 -3 961.45 306.993 4
-4 23 -3 -7.23023 325.551 4
-4 -19 3 474.168 481.275 3
-4 23 -6 1030.73 627.509 1
-19 23 6 1135.36 676.263 2
-19 -4 -6 1028.16 565.474 1
23 -4 6 1106.38 714.014 2
23 -19 -6 1795.47 839.589 4
-19 23 6 1332.51 748.228 1
-4 -19 6 1585.36 927.692 3
-4 23 -9 584.927 550.948 1
-19 23 9 7.44913 135.226 2
-19 23 9 520.765 402.293 1
23 -4 9 -32.3291 445.941 2
23 -19 -9 876.993 779.667 4
-19 -4 -9 66.2093 177.782 1
-19 23 9 276.308 324.676 4
-4 -19 9 824.202 617.964 3
-3 -20 -7 1234.46 650.964 3
-3 -20 -7 195.215 147.666 2
23 -20 7 1364.3 835.49 2
23 -3 -7 999.351 334.978 4
-3 23 7 1234.9 745.491 4
-3 23 7 1550.54 464.208 1
-20 23 -7 1672.65 840.29 1
-3 -20 -4 19.2761 25.9904 3
-3 23 4 317.619 359.559 1
23 -20 4 -552.247 439.513 2
-3 23 4 57.9542 168.179 4
-3 -20 -4 251.066 218.866 2
-20 23 -4 673.97 710.877 1
-20 23 -1 1078.42 728.654 1
-3 23 1 713.957 348.516 1
23 -20 1 609.321 656.215 2
-3 23 1 672.65 436.887 4
-3 -20 -1 44.0867 354.506 3
-20 -3 -2 121.527 221.832 1
-3 23 -2 280.311 319.741 1
-20 23 2 101.836 256.482 1
23 -20 -2 -264.383 524.178 2
-3 23 -2 534.171 554.061 4
23 -3 2 224.677 356.702 2
-3 -20 2 -8.33624 216.622 3
-3 23 -5 579.304 430.931 1
-20 23 5 307.67 327.989 2
-20 -3 -5 401.217 271.958 1
23 -3 5 249.836 168.605 2
23 -20 -5 469.179 543.649 4
-20 23 5 463.388 413.462 1
23 -20 -5 705.785 1038.04 2
-3 -20 5 765.773 700.902 3
-3 23 -8 598.23 609.497 1
-20 23 8 902.789 534.665 1
-20 23 8 546.634 309.725 2
23 -3 8 980.709 455.188 2
23 -20 -8 326.135 174.43 4
-20 -3 -8 322.829 327.988 1
-3 -20 8 862.779 729.18 3
-2 -21 -8 335.584 428.497 3
23 -21 8 -110.078 337.361 2
-2 23 8 83.846 93.0299 4
23 -2 -8 3.49787 76.0022 4
-2 23 8 67.9297 16.9233 1
-21 23 -8 77.5357 293.442 1
-2 -21 -5 369.904 268.904 3
-2 23 5 179.451 42.3123 1
23 -21 5 83.3831 126.691 2
-2 -21 -5 -192.927 719.997 2
-2 23 5 301.396 242.002 4
-21 23 -5 509.482 570.676 1
-2 -21 -2 406.886 445.522 3
-21 23 -2 -242.015 470.418 1
-2 23 2 148.66 201.015 1
23 -21 2 204.842 395.116 2
-2 23 2 341.437 497.924 4
-2 23 -1 158.442 210.401 1
-21 -2 -1 208.574 179.181 1
-21 23 1 0.59949 371.34 1
23 -21 -1 348.992 603.72 2
-2 23 -1 69.7826 390.415 4
23 -2 1 796.848 488.097 2
-2 -21 1 542.022 421.737 3
-2 23 -4 -161.724 327.2 1
-21 -2 -4 18.9658 156.372 1
-21 23 4 511.255 216.952 1
23 -2 4 -171.324 91.0253 2
23 -21 -4 808.224 799.641 2
-2 23 -4 -13.4591 246.577 4
-2 -21 4 -166.245 321.417 3
-2 23 -7 549.573 457.232 1
-21 23 7 464.021 386.2 1
23 -21 -7 1361.77 799.412 4
23 -2 7 515.536 750.619 2
-21 -2 -7 754.491 469.55 1
-2 -21 7 1219.48 906.073 3
-22 23 -6 -554.213 290.841 1
-1 -22 -6 339.265 424.426 3
-1 23 6 -9.52433 194.749 1
23 -22 6 162.101 483.073 2
-1 -22 -6 -78.4142 174.042 2
-1 23 6 -4.26368 173.144 4
-1 -22 -3 778.987 595.94 3
-22 23 -3 867.946 700.212 1
-1 23 3 276.333 134.541 1
23 -22 3 373.507 584.041 2
-1 23 3 268.732 342.325 4
-1 -22 0 240.149 79.8165 3
-1 23 0 578.648 342.229 1
-22 23 0 134.949 292.509 1
-22 -1 0 221.638 301.249 1
23 -22 0 -79.1374 516.991 2
-1 23 0 652.53 556.519 4
-1 -22 3 1871.45 919.989 3
-1 23 -3 870.506 451.933 1
-22 23 3 1827.95 827.733 1
23 -22 -3 599.664 497.741 2
-22 -1 -3 1306.62 706.06 1
-1 23 -3 2358.87 841.99 4
23 -1 3 1551.43 958.151 2
-1 -22 6 1289.05 760.728 3
-1 23 -6 662.302 619.401 1
-22 23 6 1050.93 750.024 1
23 -1 6 -67.8269 210.449 2
23 -22 -6 1528.93 1086.12 2
-22 -1 -6 686.984 533.144 1
-23 23 -7 506.095 513.571 1
0 -23 -7 -461.533 462.695 3
0 23 7 194.94 193.585 1
23 -23 7 1003.59 947.716 2
23 0 -7 214.92 186.001 4
0 23 7 816.107 752.602 4
0 -23 -4 92.7548 150.088 3
-23 23 -4 979.621 718.223 1
0 23 4 338.042 311.008 1
23 -23 4 -5.91911 353.889 2
0 23 4 682.175 735.426 4
0 -23 -4 109.501 191.012 2
0 -23 -1 212.749 285.623 3
0 23 1 237.009 160.144 1
-23 23 -1 995.373 702.017 1
23 -23 1 62.0362 473.593 2
0 23 1 38.2673 340.642 4
-23 0 1 -345.245 370.176 1
0 -23 2 400.301 225.993 3
0 23 -2 228.123 176.86 1
-23 23 2 1311.27 798.961 1
23 -23 -2 -678.304 856.504 2
0 23 -2 410.172 500.021 4
23 0 2 450.05 684.377 2
-23 0 -2 290.631 446.674 1
-23 23 5 1362.46 794.647 1
0 -23 5 2225.63 1011.19 3
0 23 -5 1557.88 806.767 1
-23 0 -5 898.269 484.11 1
23 0 5 231.388 561.422 2
0 23 -5 1351.08 691.474 4
23 -23 -5 1385.34 1610.19 2
1 -24 -5 268.455 98.8082 3
1 23 5 -49.3047 207.025 1
-24 23 -5 175.742 552.153 1
23 -24 5 120.23 251.859 2
1 -24 -5 -49.3499 230.432 2
1 23 5 268.281 258.563 4
1 -24 -2 -305.567 604.944 3
1 23 2 -73.8043 273.236 1
-24 1 2 146.251 220.861 1
-24 23 -2 453.323 319.36 1
23 -24 2 -136.11 322.081 2
1 23 2 71.0462 241.62 4
1 23 -1 463.707 410.297 1
1 -24 1 367.434 207.825 3
-24 1 -1 137.717 367.352 1
-24 23 1 643.432 570.373 1
23 -24 -1 -391.933 407.669 2
1 23 -1 563.125 496.966 4
1 23 -4 47.217 222.438 1
1 -24 4 343.872 519.076 3
-24 1 -4 329.701 326.928 1
23 -24 -4 -36.3028 610.066 2
1 23 -4 -312.772 433.276 4
23 1 4 171.642 411.35 2
-24 23 4 145.625 351.068 1
-25 2 3 -330.404 553.378 1
2 23 3 182.154 276.649 1
2 -25 -3 214.454 444.894 3
2 -25 -3 -18.2394 185.418 2
-25 23 -3 -27.8423 227.779 1
23 -25 3 -13.6456 416.547 2
2 23 3 697.2 540.057 4
2 23 0 72.0304 167.076 1
2 -25 0 536.674 372.105 3
-25 2 0 -402.467 393.34 1
-25 23 0 -220.417 480.722 1
23 -25 0 238.905 387.847 2
2 23 0 -26.9299 268.217 4
2 23 -3 331.098 341.119 1
2 -25 3 1067.2 796.939 3
-25 2 -3 220.831 154.545 1
23 -25 -3 -126.258 416.036 2
2 23 -3 6.78836 250.917 4
-25 23 3 1145.25 708.418 1
23 2 3 485.203 522.669 2
3 -26 -1 -0.33081 343.047 3
3 -26 -1 -68.3996 114.538 2
-26 3 1 372.988 554.726 1
-26 23 -1 195.967 247.309 1
23 -26 1 -516.849 575.522 2
3 23 1 -23.6645 38.6893 4
3 -26 2 1161.41 910.856 3
-26 3 -2 186.858 365.267 1
23 -26 -2 -102.86 231.204 2
3 23 -2 242.94 449.376 4
-26 23 2 237.681 579.766 1
-12 24 0 2093.01 786.665 1
24 -12 0 379.218 467.122 2
-12 24 3 -163.186 298.176 2
-12 24 -3 959.681 587.454 1
24 -12 3 -128.295 342.068 2
-12 -12 -3 190.651 193.757 2
-12 24 3 377.355 182.111 4
24 -12 -3 267.623 274.559 2
-12 24 3 182.528 261.323 1
-12 24 6 139.223 182.479 2
-12 24 6 395.963 313.662 1
-12 24 -6 326.733 64.8979 1
-12 -12 -6 370.891 1130.8 2
24 -12 6 147.153 106.836 2
-12 24 6 141.211 279.09 4
-12 -12 -6 205.551 59.9635 3
-12 24 9 281.306 168.971 1
-12 24 9 88.3515 132.481 2
-12 -12 -9 175.401 549.702 2
-12 24 -9 -204.01 375.387 1
24 -12 9 158.941 380.633 2
-12 -12 9 450.67 505.377 4
24 -12 -9 -127.467 150.02 4
-12 24 9 240.831 436.664 4
-12 -12 -9 -136.804 226.263 3
-11 -13 -10 94.0381 208.804 2
-13 24 -10 -6.03931 207.999 1
-11 24 10 142.046 291.02 1
24 -13 10 673.719 683.559 2
-13 -11 10 433.613 393.749 4
-11 24 10 51.5121 418.659 4
-11 -13 -10 186.394 251.829 3
-11 24 7 36.6399 97.353 2
-11 24 7 67.0278 220.099 1
-13 24 -7 792.803 431.461 1
-11 -13 -7 919.557 656.726 2
24 -13 7 156.461 283.614 2
-11 24 7 593.412 451.332 4
24 -11 -7 525.582 313.325 4
-11 -13 -7 498.049 409.02 3
-13 24 -4 611.042 574.157 1
24 -13 4 -139.121 304.012 2
-11 -13 -4 9.42177 315.582 2
-11 24 4 -542.878 567.237 4
-11 -13 -4 -236.506 234.734 3
-11 24 4 -157.528 248.429 1
-11 24 1 314.45 369.706 1
-13 24 -1 2.16701 308.462 1
24 -13 1 469.528 498.115 2
24 -11 -1 140.643 229.694 2
-11 -13 -1 -219.661 368.127 2
-11 24 1 -147.625 57.5046 4
-11 -13 -1 -586.344 693.16 3
-13 24 2 -229.98 338.31 2
-11 24 -2 558.449 480.031 1
24 -11 2 -304.69 471.114 2
24 -13 -2 -71.469 312.762 2
-13 24 2 465.476 375.763 4
-13 24 2 366.619 261.546 1
-13 24 5 963.651 510.101 2
-13 24 5 1023.7 527.407 1
-11 24 -5 -54.7245 261.296 1
-13 -11 -5 665.339 402.615 2
24 -11 5 47.9854 375.56 2
-13 24 5 1202.3 683.66 4
-13 24 8 -60.783 222.571 2
-11 24 -8 497.658 317.186 1
-13 -11 -8 847.778 677.167 2
24 -11 8 827.53 652.834 2
24 -13 -8 659.328 399.975 4
-13 24 8 1006.36 773.854 4
-13 24 8 176.391 157.591 1
-13 -11 -8 19.7788 105.473 3
-10 -14 -8 56.6992 301.035 2
-14 24 -8 -228.717 523.761 1
24 -14 8 504.155 581.521 2
-10 24 8 72.3917 394.198 1
-10 24 8 507.704 514.519 4
24 -10 -8 84.2997 77.9392 4
-10 -14 -8 128.588 298.509 3
-10 24 5 -37.4411 264.772 1
-14 24 -5 273.205 174.408 1
24 -14 5 -8.9462 261.255 2
-10 -14 -5 601.971 502.431 2
-10 24 5 552.458 529.322 4
-10 -14 -5 48.4023 276.89 3
24 -14 2 451.973 306.818 2
-10 24 2 55.8529 68.32 1
-14 24 -2 352.334 458.644 1
-10 -14 -2 99.5474 304.202 2
-10 24 2 140.683 291.03 4
24 -10 -2 -17.3292 255.769 2
-10 -14 -2 175.442 321.329 3
-14 24 1 203.535 342.272 2
-10 24 -1 35.0598 127.332 1
24 -10 1 -94.4793 363.35 2
24 -14 -1 -235.38 491.166 2
-10 -14 1 798.33 656.662 3
-14 24 1 -31.6259 244.06 1
-14 24 4 1616.7 701.855 1
-14 24 4 1982.72 746.796 2
-10 24 -4 1246.45 638.216 1
24 -10 4 805.49 665.815 2
-14 24 4 1790.21 862.877 4
-10 -14 4 686.676 752.022 3
24 -14 -4 1084.27 760.908 2
-14 24 7 214.99 310.209 2
-10 24 -7 -35.0766 161.814 1
-14 -10 -7 1188.69 1282.56 2
24 -10 7 -84.3819 450.664 2
-14 24 7 478.865 425.158 1
24 -14 -7 289.655 227.241 4
-14 24 7 -255.804 293.801 4
-10 -14 7 250.789 633.506 3
-10 24 -10 -251.816 284.322 1
-14 24 10 -120.772 117.131 2
24 -10 10 -28.9822 123.574 2
-14 24 10 78.5966 79.1953 1
-14 -10 -10 67.2681 130.532 1
-14 24 10 -118.752 378.681 4
-14 -10 -10 -204.842 235.556 3
-10 -14 10 330.503 153.836 3
-9 -15 -9 -18.8204 296.38 2
24 -15 9 -32.8843 312.162 2
-15 24 -9 -36.9921 387.209 1
-9 24 9 533.381 598.322 4
-9 24 9 50.4938 134.174 1
-9 -15 -9 -84.0794 253.122 3
-9 24 6 310.567 240.741 1
-9 -15 -6 -822.4 1075.36 2
24 -15 6 283.046 362.974 2
-15 24 -6 266.82 394.433 1
-9 24 6 432.501 448.478 4
-9 -15 -6 -209.59 250.703 3
24 -15 3 -462.871 666.331 2
-9 24 3 16.4888 66.6016 1
-15 24 -3 165.57 219.75 1
-9 -15 -3 -178.647 196.449 2
-9 24 3 415.339 499.647 4
24 -9 -3 225.817 416.747 2
-9 -15 -3 -133.613 427.241 3
-15 24 0 664.213 494.981 2
-9 24 0 1162.84 604.772 1
24 -15 0 718.743 547.596 2
24 -9 0 366.056 456.801 2
-9 24 0 523.43 329.087 4
-9 -15 0 918.548 656.075 3
-15 24 0 1327.93 710.415 1
-15 24 3 512.741 464.927 1
-15 24 3 795.363 501.423 2
-9 24 -3 963.427 542.107 1
24 -9 3 -476.352 306.191 2
24 -15 -3 1173.68 760.877 2
-9 -15 3 832.207 696.693 3
-15 24 6 561.99 436.806 2
-9 24 -6 -69.2014 157.916 1
-15 24 6 -7.972 137.44 1
24 -9 6 181.954 445.84 2
24 -15 -6 588.478 398.618 4
-15 24 6 181.298 27.8429 4
-9 -15 6 485.525 507.005 3
-15 24 9 420.564 443.144 1
-9 24 -9 -272.533 365.069 1
-15 24 9 193.995 278.596 2
-15 -9 -9 -142.5 94.7897 1
24 -9 9 -14.4839 250.655 2
24 -15 -9 356.922 295.795 4
-15 24 9 24.5178 469.491 4
-9 -15 9 405.841 621.154 3
-8 24 7 919.646 462.391 1
-8 -16 -7 852.479 190.84 2
24 -16 7 239.929 134.202 2
-16 24 -7 533.013 349.893 1
-8 24 7 955.1 736.544 4
-8 -16 -7 866.738 532.392 3
24 -16 4 744.39 689.221 2
-8 -16 -4 882.019 549.331 2
-16 24 -4 1603.47 821.967 1
-8 24 4 734.625 404.45 1
-8 24 4 857.627 654.767 4
-8 -16 -4 875.513 593.541 3
-16 24 -1 130.893 278.822 2
-8 24 1 -207.922 307.933 1
24 -16 1 157.555 503.958 2
-8 24 1 682.429 479.596 4
24 -8 -1 -238.952 544.643 2
-8 -16 -1 26.6171 227.377 2
-16 24 -1 349.379 390.377 1
-8 -16 -1 -57.7425 97.8977 3
-16 24 2 305.661 200.586 1
-16 24 2 647.688 600.083 2
-8 24 -2 275.01 274.682 1
24 -8 2 72.8531 188.466 2
24 -16 -2 1128.22 860.19 2
-8 -16 2 153.529 380.723 3
-8 24 -5 1108.27 581.769 1
-16 24 5 855.177 395.372 2
-16 24 5 1201 610.752 1
24 -8 5 708.619 636.124 2
24 -16 -5 1982.14 951.378 4
-16 24 5 878.746 615.043 4
24 -16 -5 133.211 698.9 2
-8 -16 5 1101.88 708.884 3
-16 24 8 505.81 436.584 1
-8 24 -8 221.356 236.402 1
-16 -8 -8 866.418 492.732 1
-16 24 8 -18.5092 201.232 2
24 -8 8 270.104 483.542 2
24 -16 -8 1089.18 600.226 4
-16 24 8 762.818 507.011 4
-8 -16 8 649.381 593.58 3
-7 24 8 2458.39 708.636 1
-7 -17 -8 183.173 370.528 2
24 -17 8 836.76 702.981 2
-17 24 -8 1784.27 909.26 1
-7 24 8 1387.4 761.85 4
-7 -17 -8 1170.05 726.364 3
24 -17 5 374.052 307.919 2
-7 -17 -5 -974.056 871.453 2
-7 24 5 84.6466 276.225 4
-17 24 -5 460.785 440.492 1
-7 24 5 440.721 361.962 1
-7 -17 -5 635.686 412.6 3
-7 24 2 286.663 232.119 1
24 -17 2 -327.511 524.893 2
-7 24 2 488.453 379.591 4
-7 -17 -2 128.606 130.834 2
-17 24 -2 167.783 77.6567 1
24 -7 -2 718.584 612.553 2
-7 -17 -2 -264.821 477.428 3
-17 24 1 860.733 560.317 1
-17 24 1 986.9 684.179 2
-7 24 -1 455.197 307.18 1
24 -17 -1 351.096 369.565 2
24 -7 1 859.913 675.378 2
-7 24 -1 1246.58 596.044 4
-7 -17 1 842.866 639.768 3
-7 24 -4 610.183 394.304 1
-17 24 4 799.814 414.063 2
-17 24 4 803.15 495.315 1
24 -7 4 506.431 304.756 2
24 -17 -4 174.567 460.028 2
-7 -17 4 523.985 480.634 3
-7 24 -7 -109.989 239.567 1
-17 -7 -7 244.224 382.524 1
-17 24 7 192.193 389.245 2
24 -7 7 -81.3484 232.88 2
24 -17 -7 1108.04 699.572 4
-17 24 7 395.16 116.261 4
-17 24 7 770.938 429.502 1
-7 -17 7 783.311 526.409 3
-6 -18 -9 -147.07 311.936 2
24 -18 9 -543.506 643.611 2
-18 24 -9 244.884 159.836 1
-6 24 9 381.311 411.995 4
-6 24 9 576.347 374.046 1
-6 -18 -9 54.5464 82.8895 3
24 -18 6 483.633 611.508 2
-6 -18 -6 547.768 138.536 2
-6 24 6 1274.47 775.818 4
-18 24 -6 659.473 533.296 1
-6 24 6 944.534 361.827 1
-6 -18 -6 329.625 350.594 3
-6 24 3 120.002 91.2957 1
24 -18 3 2.23337 246.64 2
-6 24 3 718.305 502.448 4
-6 -18 -3 175.953 132.985 2
-18 24 -3 1212.61 771.835 1
-6 -18 -3 518.22 499.905 3
-18 24 0 1232.83 735.746 1
-6 24 0 1111.34 573.573 1
24 -18 0 -57.0173 467.59 2
-6 24 0 182.095 305.049 4
24 -6 0 147.026 179.242 2
-6 -18 0 709.668 672.457 3
-6 24 -3 -47.4212 295.287 1
-18 24 3 157.412 374.529 2
-18 24 3 459.993 432.76 1
24 -6 3 92.6605 522.824 2
24 -18 -3 666.703 544.648 2
-6 -18 3 162.034 310.253 3
-6 24 -6 792.863 546.092 1
-18 -6 -6 755.153 428.929 1
-18 24 6 491.295 535.434 2
24 -6 6 584.177 460.88 2
24 -18 -6 1060.03 584.819 4
-18 24 6 1171.02 713.904 1
-6 -18 6 1262.41 804.446 3
-6 24 -9 175.643 191.354 1
-18 -6 -9 -48.0542 129.527 1
-18 24 9 294.392 381.226 1
-18 24 9 398.842 309.436 2
24 -6 9 714.198 449.071 2
24 -18 -9 592.257 491.091 4
-18 24 9 -23.4862 158.085 4
-6 -18 9 -170.106 227.042 3
-5 -19 -7 363.763 117.437 2
24 -19 7 709.75 703.909 2
-5 24 7 1022.01 629.34 4
-19 24 -7 878.815 606.553 1
-5 24 7 1049.82 428.062 1
-5 -19 -7 662.898 392.912 3
-5 24 4 116.158 88.1957 1
24 -19 4 450.281 521.091 2
-5 -19 -4 93.9085 455.678 2
-5 24 4 196.032 304.686 4
-19 24 -4 105.649 290.086 1
-5 -19 -4 494.081 415.407 3
-19 24 -1 421.646 454.182 1
-5 24 1 439.067 404.578 1
24 -19 1 -94.8781 444.094 2
-5 24 1 -372.848 599.514 4
24 -5 -1 -53.364 199.734 2
-5 -19 -1 -294.308 380.341 3
-5 24 -2 240.001 401.467 1
-19 24 2 441.346 460.399 1
-19 24 2 126.185 339.144 2
24 -19 -2 88.2017 230.285 2
24 -5 2 333.587 322.859 2
-5 24 -2 199.946 147.553 4
-5 -19 2 -101.83 164.755 3
-5 24 -5 990.558 680.387 1
-19 24 5 314.182 415.65 2
-19 -5 -5 -20.7326 185.048 1
-19 24 5 881.711 718.968 1
24 -5 5 93.4743 329.808 2
24 -19 -5 119.864 421.632 4
24 -19 -5 -99.1456 407.002 2
-5 -19 5 -77.2051 234.888 3
-5 24 -8 422.26 487.394 1
-19 24 8 -143.458 99.4878 1
-19 -5 -8 360.643 247.759 1
-19 24 8 129.53 243.149 2
24 -5 8 617.895 719.368 2
24 -19 -8 535.382 421.269 4
-19 24 8 228.094 223.013 4
-5 -19 8 493.094 531.757 3
-4 -20 -8 307.659 317.429 3
-4 24 8 141.671 118.168 1
-4 -20 -8 17.9485 169.266 2
24 -20 8 287.218 377.17 2
24 -4 -8 190.114 198.988 4
-4 24 8 17.562 238.613 4
-4 -20 -5 -59.5711 66.8071 3
-4 24 5 178.852 151.019 1
24 -20 5 94.3872 163.365 2
-4 -20 -5 -155.729 602.759 2
-4 24 5 373.062 430.522 4
-20 24 -5 -241.579 376.936 1
-20 24 -2 651.634 595.224 1
-4 24 2 -142.09 101.177 1
24 -20 2 19.5404 424.121 2
-4 24 2 104.16 442.384 4
-4 -20 -2 126.109 407.175 3
-4 24 -1 549.504 468.146 1
-20 24 1 934.021 491.516 1
24 -20 -1 -378.51 581.762 2
-4 24 -1 860.678 397.953 4
24 -4 1 265.857 485.049 2
-4 -20 1 495.796 508.576 3
-4 24 -4 1043.88 630.606 1
-20 -4 -4 406.109 199.22 1
-20 24 4 169.494 121.398 1
24 -4 4 88.2785 184.528 2
24 -20 -4 61.6623 168.9 2
-4 -20 4 879.868 705.064 3
-20 24 7 85.1664 238.234 1
-4 24 -7 336.383 497.168 1
-20 -4 -7 461.555 379.075 1
-20 24 7 55.5576 204.492 2
24 -4 7 824.587 655.509 2
24 -20 -7 210.568 438.804 4
-4 -20 7 301.401 225.216 3
-3 -21 -6 104.071 188.428 3
24 -21 6 305.827 400.075 2
-3 24 6 417.107 13.5947 1
-3 -21 -6 -153.341 204.55 2
-3 24 6 825.663 599.231 4
-21 24 -6 442.481 545.595 1
-3 -21 -3 683.785 524.764 3
-21 24 -3 1468.02 926.912 1
-3 24 3 1088.1 492.957 1
24 -21 3 444.87 492.736 2
-3 24 3 862.987 564.334 4
-3 -21 -3 476.997 192.434 2
-3 24 0 516.735 411.641 1
-21 24 0 648.84 531.651 1
24 -21 0 -302.667 475.227 2
-3 24 0 703.077 523.376 4
24 -3 0 444.42 459.01 2
-3 -21 0 8.29736 327.234 3
-3 24 -3 1674.16 743.646 1
-21 24 3 2916.57 1057.81 1
-21 -3 -3 1441.54 605.033 1
24 -21 -3 1845.21 1298.36 2
-3 24 -3 1567.29 765.555 4
24 -3 3 1092.89 783.647 2
-3 -21 3 1122.18 667.556 3
-3 24 -6 924.898 573.235 1
-21 -3 -6 706.446 565.294 1
24 -3 6 404.585 449.712 2
24 -21 -6 1096.13 1013.42 2
-3 -21 6 421.005 456.36 3
-21 24 6 725.389 492.839 1
-2 -22 -7 -220.836 385.566 3
-2 -22 -7 -23.7444 100.807 2
24 -22 7 -366.476 714.369 2
-2 24 7 -12.1249 190.755 1
24 -2 -7 -91.5716 142.664 4
-2 24 7 441.902 619.273 4
-22 24 -7 128.701 307.978 1
-2 -22 -4 109.566 228.167 3
-22 24 -4 0.36625 386.479 1
-2 24 4 233.01 299.922 1
24 -22 4 -346.715 231.086 2
-2 24 4 856.947 641.067 4
-2 -22 -4 -134.382 308.638 2
-2 -22 -1 339.202 403.298 3
-2 24 1 -35.8685 239.619 1
-22 24 -1 -120.689 634.863 1
24 -22 1 105.744 147.204 2
-2 24 1 206.347 87.0502 4
-2 -22 2 648.08 581.696 3
-2 24 -2 1096.12 571.99 1
-22 24 2 942.242 620.089 1
24 -22 -2 535.311 449.627 2
-22 -2 -2 -158.791 341.495 1
-2 24 -2 -175.129 199.181 4
24 -2 2 520.275 597.52 2
-2 24 -5 1215.75 714.596 1
-22 -2 -5 878.043 519.2 1
24 -2 5 636.984 761.101 2
24 -22 -5 568.386 925.923 2
-22 24 5 1542.75 827.307 1
-2 -22 5 1113.38 718.368 3
-1 -23 -5 -260.537 37.7004 3
-23 24 -5 -944.013 338.517 1
-1 24 5 418.513 322.477 1
24 -23 5 372.971 878.721 2
-1 -23 -5 142.76 839.041 2
-1 24 5 -46.9223 460.498 4
-1 -23 -2 180.811 213.675 3
-1 24 2 271.532 159.339 1
-23 24 -2 100.131 367.989 1
24 -23 2 643.656 719.193 2
-1 24 2 55.6734 255.291 4
-1 -23 1 -273.142 371.496 3
-1 24 -1 201.669 236.009 1
-23 24 1 -42.3606 199.603 1
24 -23 -1 92.2233 223.84 2
24 -1 1 112.171 277.192 2
-23 -1 -1 406.45 340.254 1
-1 -23 4 315.983 574.625 3
-1 24 -4 -128.551 147.7 1
-23 -1 -4 298.548 370.185 1
24 -23 -4 143.15 830.656 2
-23 24 4 -394.228 419.52 1
-1 24 -4 398.694 460.161 4
24 -1 4 322.649 223.898 2
0 -24 -3 -22.7108 225.609 3
0 24 3 -51.9781 214.374 1
-24 24 -3 401.94 118.884 1
24 -24 3 276.9 244.051 2
0 24 3 23.5078 241.711 4
0 -24 0 103.116 168.957 3
0 24 0 37.1783 179.437 1
-24 0 0 140.137 360.404 1
-24 24 0 -73.8716 320.643 1
24 -24 0 -512.769 683.846 2
0 24 0 177.29 302.143 4
0 -24 3 504.966 393.871 3
0 24 -3 263.583 431.221 1
-24 0 -3 665.625 486.931 1
-24 24 3 337.619 358.69 1
24 -24 -3 -36.0033 536.403 2
0 24 -3 677.091 568.31 4
24 0 3 256.146 392.884 2
1 -25 -1 115.639 175.292 3
1 24 1 162.305 263.96 1
-25 24 -1 466.439 574.942 1
-25 1 1 22.8953 364.09 1
24 -25 1 -160.172 403.594 2
1 24 1 -227.995 434.178 4
1 -25 2 602.896 537.138 3
1 24 -2 -203.97 173.835 1
-25 24 2 236.887 474.124 1
24 -25 -2 -310.295 466.773 2
1 24 -2 -62.7566 197.725 4
-25 1 -2 178.202 220.036 1
24 1 2 893.148 754.992 2
-12 25 8 68.2665 82.7527 2
-12 -13 -8 439.607 532.709 2
-13 25 -8 -152.143 376.334 1
25 -13 8 81.7894 286.641 2
-12 25 8 159.178 284.572 1
25 -12 -8 119.391 95.4128 4
-12 25 8 205.753 427.518 4
-12 -13 -8 -52.0696 214.263 3
-12 25 5 401.753 424.762 1
-12 25 5 -78.2259 123.034 2
-13 25 -5 413.353 155.671 1
-12 -13 -5 -243.004 469.137 2
25 -13 5 516.426 569.307 2
-12 25 5 296.568 474.116 4
-12 -13 -5 178.995 145.901 3
-13 25 -2 536.885 242.428 1
25 -13 2 -172.615 88.8331 2
-12 25 2 433.551 236.678 4
25 -12 -2 304.352 142.913 2
-12 -13 -2 386.868 465.191 3
-12 25 -1 3335.76 1088.85 1
25 -12 1 1340.01 1002.58 2
25 -13 -1 2282.11 1071.63 2
-13 25 1 4604.09 1262.96 1
-13 25 4 665.788 455.766 1
-13 25 4 315.32 254.524 2
-12 25 -4 94.331 194.452 1
-13 -12 -4 319.068 553.148 2
25 -12 4 -319.363 378.155 2
-13 25 4 889.051 753.924 4
25 -13 -4 193.198 573.377 2
-13 25 7 112.024 56.602 2
-12 25 -7 399.671 389.913 1
-13 -12 -7 361.141 305.164 2
-13 25 7 644.003 386.727 1
25 -12 7 589.04 665.33 2
-13 25 7 174.854 439.286 4
25 -13 -7 -166.241 135.574 4
-13 -12 -7 361.124 314.853 3
-11 -14 -9 279.144 372.95 2
-14 25 -9 50.9161 188.828 1
25 -14 9 1291.77 1089.09 2
-11 25 9 478.979 475.578 4
-11 -14 -9 -402.983 196.651 3
-11 25 9 932.484 620.741 1
-11 25 6 302.465 384.375 1
-14 25 -6 364.129 559.266 1
25 -14 6 -169.14 329.77 2
-11 25 6 -140.63 304.571 4
-11 -14 -6 119.233 165.866 3
-14 25 -3 208.93 465.273 1
25 -14 3 -346.281 411.305 2
-11 -14 -3 216.087 129.278 2
-11 25 3 763.61 489.43 4
-11 25 3 420.834 443.294 1
-11 -14 -3 120.334 266.141 3
25 -11 -3 142.446 36.0441 2
-14 25 0 888.947 504.175 2
-11 25 0 1202.6 801.451 1
25 -14 0 107.979 508.773 2
25 -11 0 963.848 784.462 2
-14 25 0 1230.55 668.798 1
-11 -14 0 1061.54 714.648 3
-14 25 3 799.426 565.625 1
-14 25 3 -239.836 429.521 2
-11 25 -3 182.512 265.733 1
25 -11 3 124.524 295.605 2
-14 25 3 888.591 655.89 4
25 -14 -3 711.135 736.935 2
-11 -14 3 -163.173 512.959 3
-14 25 6 133.691 252.046 2
-11 25 -6 272.998 217.523 1
-14 25 6 466.014 429.072 1
25 -11 6 3.58151 44.8917 2
-14 25 6 551.444 663.016 4
-11 -14 6 98.8117 347.176 3
-14 25 9 531.32 498.054 1
-14 25 9 19.1341 157.812 2
-11 25 -9 -432.005 468.95 1
25 -11 9 324.625 30.1182 2
25 -14 -9 75.9134 237.09 4
-14 25 9 224.638 266.505 4
-11 -14 9 -661.766 628.318 3
-14 -11 -9 117.557 276.757 3
-10 25 7 834.712 403.792 1
-10 -15 -7 639.712 959.323 2
25 -15 7 253.079 157.146 2
-15 25 -7 447.272 379.536 1
-10 25 7 973.612 879.517 4
-10 -15 -7 484.6 398.972 3
25 -15 4 134.507 123.261 2
-15 25 -4 -22.6503 159.359 1
-10 -15 -4 203.037 365.717 2
-10 25 4 137.696 135.479 4
-10 25 4 208.195 282.675 1
-10 -15 -4 -149.684 146.222 3
-15 25 -1 441.635 392.055 2
-10 25 1 528.309 493.489 1
25 -15 1 132.261 240.835 2
-15 25 -1 87.0195 359.193 1
-10 25 1 -443.118 375.747 4
25 -10 -1 286.232 439.584 2
-10 -15 -1 88.4727 242.386 2
-10 -15 -1 474.581 540.911 3
-15 25 2 1375.21 696.887 1
-15 25 2 1052.7 702.849 2
-10 25 -2 1378.72 750.214 1
25 -10 2 883.77 742.369 2
25 -15 -2 709.77 820.018 2
-10 -15 2 653.921 714.421 3
-15 25 5 -134.357 149.611 2
-15 25 5 390.385 525.5 1
-10 25 -5 172.403 360.576 1
25 -10 5 -11.3417 137.407 2
-15 25 5 173.572 280.419 4
-10 -15 5 706.873 827.54 3
-15 25 8 -68.4097 172.895 2
-10 25 -8 43.4746 46.6655 1
25 -10 8 -122.913 397.607 2
25 -15 -8 43.3146 83.5827 4
-15 25 8 261.74 468.398 4
-10 -15 8 446.581 431.423 3
-15 25 8 460.89 415.951 1
-9 -16 -8 32.2871 372.616 2
-9 25 8 847.606 509.528 1
25 -16 8 -211.362 242.342 2
-16 25 -8 306.036 333.896 1
-9 25 8 161.42 109.372 4
25 -9 -8 227.686 167.412 4
-9 -16 -8 201.898 282.371 3
25 -16 5 684.592 478.579 2
-9 -16 -5 -201.129 654.361 2
-16 25 -5 -583.604 513.768 1
-9 25 5 123.059 108.841 4
-9 25 5 301.247 199.924 1
-9 -16 -5 -157.587 384.575 3
-9 25 2 310.883 182.302 1
25 -16 2 339.755 498.504 2
-9 25 2 -55.3924 416.096 4
-9 -16 -2 -53.2784 210.062 2
-16 25 -2 86.3125 335.414 1
25 -9 -2 -175.193 342.666 2
-9 -16 -2 -291.555 377.552 3
-16 25 1 1089.11 621.335 1
-16 25 1 811.417 739.108 2
-9 25 -1 596.856 559.48 1
25 -16 -1 161.662 552.012 2
25 -9 1 -252.109 355.321 2
-9 25 -1 872.203 532.687 4
-9 -16 1 859.36 669.233 3
-16 25 4 509.101 503.493 2
-16 25 4 -52.398 354.55 1
-9 25 -4 612.424 425.289 1
25 -9 4 203.427 362.786 2
25 -16 -4 433.559 509.049 2
-9 -16 4 442.696 560.213 3
-9 25 -7 247.584 381.904 1
-16 25 7 67.6378 255.127 2
25 -9 7 -201.262 576.939 2
25 -16 -7 424.751 268.038 4
-16 25 7 74.639 363.112 1
-16 25 7 655.646 557.639 4
-9 -16 7 147.48 346.236 3
-8 -17 -6 196.308 434.277 2
25 -17 6 254.736 455.146 2
-17 25 -6 209.699 311.369 1
-8 25 6 557.288 457.94 4
-8 -17 -6 309.407 546.925 3
-8 25 6 958.063 496.619 1
25 -17 3 567.848 524.316 2
-8 25 3 235.13 310.785 1
-8 -17 -3 217.039 428.765 2
-8 25 3 252.735 342.916 4
-17 25 -3 548.521 548.033 1
-8 -17 -3 -218.466 398.944 3
-17 25 0 177.684 225.224 1
-17 25 0 190.369 156.041 2
-8 25 0 679.147 539.412 1
25 -17 0 252.356 443.129 2
-8 25 0 812.532 522.75 4
25 -8 0 168.641 306.32 2
-8 -17 0 213.97 312.063 3
-17 25 3 296.78 482.169 1
-17 25 3 361.204 384.839 2
-8 25 -3 -186.335 401.583 1
25 -8 3 -331.1 523.078 2
25 -17 -3 -247.387 263.803 2
-8 -17 3 686.975 723.505 3
-8 25 -6 972.086 571.227 1
-17 25 6 78.9249 265.639 2
-17 -8 -6 403.213 203.457 1
-17 25 6 363.908 406.435 1
25 -8 6 258.201 234.289 2
25 -17 -6 945.483 593.588 4
-17 25 6 493.106 373.668 4
-8 -17 6 624.199 744.653 3
-7 25 7 104.229 136.677 1
-7 -18 -7 -896.441 634.649 2
25 -18 7 40.1671 520.215 2
-18 25 -7 -78.4056 431.39 1
-7 25 7 -67.8605 313.205 4
-7 -18 -7 288.358 400.905 3
25 -18 4 -377.539 303.499 2
-7 25 4 602.264 376.867 1
-7 -18 -4 -32.0039 505.714 2
-7 25 4 420.225 558.175 4
-18 25 -4 -214.536 555.635 1
-7 -18 -4 105.517 285.499 3
-7 25 1 1461.78 629.973 1
25 -18 1 413.065 552.254 2
-7 25 1 1447.3 754.2 4
25 -7 -1 396.84 389.914 2
-7 -18 -1 744.847 513.525 3
-18 25 -1 985.765 508.198 1
-18 25 2 18.933 179.884 1
-18 25 2 12.1904 437.337 2
-7 25 -2 69.503 261.576 1
25 -18 -2 -151.298 107.983 2
25 -7 2 209.518 273.363 2
-7 25 -2 386.904 371.636 4
-7 -18 2 399.86 421.087 3
-7 25 -5 639.656 500.357 1
-18 25 5 1019.36 619.531 2
-18 -7 -5 663.108 354.638 1
-18 25 5 352.224 422.817 1
25 -7 5 150.303 459.234 2
25 -18 -5 621.543 299.98 4
25 -18 -5 651.489 146.432 2
-7 -18 5 356.176 238.676 3
-18 -7 -8 249.692 275.176 1
-18 25 8 -279.032 399.761 1
-7 25 -8 353.738 152.361 1
-18 25 8 39.8468 214.909 2
25 -7 8 215.779 152.245 2
25 -18 -8 624.675 557.045 4
-18 25 8 369.498 457.298 4
-7 -18 8 115.468 244.318 3
25 -19 5 954.723 583.842 2
-6 -19 -5 -373.52 883.727 2
-6 25 5 1423.48 592.748 1
-6 25 5 712.208 610.839 4
-19 25 -5 577.03 518.46 1
-6 -19 -5 610.787 466.23 3
-6 25 2 276.195 239.563 1
25 -19 2 127.834 210.941 2
-6 25 2 1059.62 698.861 4
-6 -19 -2 141.745 144.642 2
-6 -19 -2 -219.507 441.809 3
-19 25 -2 138.482 464.298 1
-19 25 1 255.852 432.437 1
-6 25 -1 277.396 190.258 1
25 -19 -1 -348.035 243.741 2
-6 25 -1 -151.962 432.238 4
25 -6 1 255.232 423.703 2
-6 -19 1 -69.8895 116.75 3
-6 25 -4 556.463 369.589 1
-19 -6 -4 200.656 239.053 1
-19 25 4 1092.98 612.787 2
-19 25 4 773.928 534.734 1
25 -6 4 195.219 450.811 2
25 -19 -4 -14.7562 587.063 4
25 -19 -4 -10.6915 382.456 2
-6 -19 4 327.736 352.746 3
-19 -6 -7 98.2478 214.062 1
-6 25 -7 519.058 474.07 1
-19 25 7 -41.3212 111.081 2
25 -6 7 565.343 506.306 2
25 -19 -7 911.438 435.812 4
-6 -19 7 717.208 718.346 3
-19 25 7 202.414 270.48 1
25 -20 6 312.466 300.797 2
-5 -20 -6 35.4894 1104.88 2
-5 25 6 440.406 233.303 1
-5 25 6 189.031 71.7886 4
-20 25 -6 635.895 464.335 1
-5 -20 -6 38.3543 201.986 3
-5 25 3 413.337 478.718 1
25 -20 3 431.994 633.718 2
-5 25 3 934.888 584.262 4
-5 -20 -3 269.557 121.619 2
-5 -20 -3 417.107 377.104 3
-20 25 -3 724.906 543.825 1
-20 25 0 473.529 522.722 1
-5 25 0 414.003 411.273 1
25 -20 0 -389.341 355.063 2
-5 25 0 297.486 360.628 4
25 -5 0 682.065 531.664 2
-5 -20 0 502.287 620.443 3
-5 25 -3 144.908 165.88 1
-20 25 3 980.329 597.977 1
-20 -5 -3 -205.295 333.311 1
25 -5 3 -234.22 470.371 2
25 -20 -3 -356.302 443.871 2
-5 25 -3 441.694 376.191 4
-5 -20 3 139.107 568.539 3
-20 -5 -6 -128.039 281.211 1
-5 25 -6 175.304 474 1
-20 25 6 -104.388 294.802 2
25 -5 6 296.091 193.615 2
25 -20 -6 5.06988 198.304 4
-20 25 6 372.956 353.614 1
-5 -20 6 1272.45 938.742 3
-4 25 4 490.306 351.569 1
25 -21 4 464.095 424.77 2
-4 -21 -4 877.986 745.414 2
-4 25 4 420.224 241.488 4
-21 25 -4 129.241 259.906 1
-4 -21 -4 163.015 113.012 3
-21 25 -1 586.378 438.908 1
-4 25 1 300.685 310.395 1
25 -21 1 -272.019 503.29 2
-4 25 1 361.14 449.43 4
-4 -21 -1 69.96 336.255 3
-4 25 -2 141.542 313.065 1
-21 25 2 245.304 380.977 1
-21 -4 -2 -295.813 247.381 1
25 -21 -2 -619.177 596.404 2
-4 25 -2 -61.3552 247.769 4
25 -4 2 321.537 468.24 2
-4 -21 2 865.576 644.694 3
-21 -4 -5 691.057 537.574 1
-4 25 -5 1267.67 636.104 1
25 -4 5 119.875 340.493 2
-21 25 5 1980.86 897.494 1
25 -21 -5 631.012 927.604 2
-4 -21 5 933.889 797.164 3
-3 -22 -5 175.591 74.296 3
-3 25 5 -7.54865 176.308 1
25 -22 5 -148.646 335.647 2
-3 -22 -5 -207.893 380.862 2
-3 25 5 -221.4 246.598 4
-3 -22 -2 -367.991 363.154 3
-22 25 -2 455.497 509.412 1
-3 25 2 294.113 406.093 1
25 -22 2 -18.7822 300.727 2
-3 25 2 237.319 459.775 4
-22 -3 -1 20.7663 115.685 1
-3 25 -1 1069.66 513.134 1
-22 25 1 676.608 341.193 1
-3 25 -1 246.539 246.885 4
25 -3 1 493.4 644.92 2
-3 -22 1 270.227 394.964 3
-3 25 -4 924.294 589.575 1
-22 -3 -4 456.091 487.923 1
-22 25 4 792.165 698.58 1
25 -3 4 658.874 817.917 2
25 -22 -4 58.738 754.962 2
-3 25 -4 513.857 276.799 4
-3 -22 4 601.417 482.123 3
-2 -23 -3 -111.162 110.894 3
-23 25 -3 272.283 315.842 1
-2 25 3 36.3044 75.9965 1
25 -23 3 -352.698 447.379 2
-2 25 3 -149.379 291.131 4
-2 -23 0 139.017 373.843 3
-2 25 0 -9.80981 164.818 1
-23 25 0 126.303 472.907 1
-23 -2 0 89.8159 313.963 1
25 -23 0 237.631 473.38 2
-2 25 0 -18.6909 166.092 4
-2 -23 3 12.2512 183.943 3
-2 25 -3 302.077 448.298 1
-23 -2 -3 420.575 397.128 1
-23 25 3 160.876 486.005 1
25 -23 -3 -251.722 179.014 2
-2 25 -3 163.796 83.5072 4
25 -2 3 510.709 651.182 2
-1 -24 -1 -66.0931 67.7215 3
-1 25 1 190.074 227.339 1
-24 -1 1 198.417 354.496 1
-24 25 -1 137.254 163.923 1
25 -24 1 -373.075 616.645 2
-1 25 1 -476.968 517.579 4
-1 -24 2 787.783 727.93 3
-1 25 -2 384.085 384.405 1
-24 -1 -2 520.651 488.274 1
-24 25 2 366.135 327.576 1
25 -24 -2 -324.046 675.159 2
-1 25 -2 375.785 292.932 4
25 -1 2 513.06 668.918 2
26 -13 0 1156.41 908.506 2
-13 26 0 6258.39 1570.89 1
-13 26 -3 252.154 287.868 1
26 -13 3 286.624 323.531 2
-13 26 3 41.8724 376.907 4
26 -13 -3 -469.834 590.594 2
-13 26 3 236.999 195.808 1
-13 26 6 -31.5234 262.044 2
-13 26 6 285.776 383.353 1
-13 26 -6 -525.667 597.751 1
-13 -13 -6 -141.686 724.626 2
26 -13 6 336.504 211.638 2
-13 26 6 159.558 229.097 4
-13 -13 -6 9.22077 210.779 3
-12 26 7 -33.1853 72.9461 2
-12 26 7 684.612 448.739 1
-12 -14 -7 -132.501 417.757 2
-14 26 -7 -45.8505 360.439 1
26 -14 7 252.96 386.123 2
-12 26 7 407.621 385.224 4
-12 -14 -7 -37.0165 63.3116 3
-14 26 -4 1098.69 556.714 1
26 -14 4 181.346 393.428 2
-12 -14 -4 638.822 606.758 2
-12 26 4 446.455 166.362 4
-12 -14 -4 679.912 420.327 3
-12 26 4 183.65 109.35 1
-12 26 1 478.448 376.897 1
-14 26 -1 66.5679 138.603 1
26 -14 1 76.3069 271.801 2
26 -12 -1 86.0473 210.607 2
-12 26 1 -115.516 357.882 4
-12 -14 -1 94.5669 209.451 3
-14 26 2 202.397 287.783 2
-12 26 -2 1107.25 647.078 1
26 -12 2 372.409 419.365 2
26 -14 -2 260.533 405.46 2
-14 26 2 291.816 184.971 1
-14 26 5 -315.806 343.968 2
-14 26 5 223.263 273.593 1
-12 26 -5 -357.952 454.463 1
26 -12 5 887.528 521.023 2
-14 26 5 770.412 584.995 4
-14 26 8 265.923 239.161 2
-12 26 -8 -76.6243 275.439 1
26 -12 8 36.1015 203.397 2
26 -14 -8 72.3948 136.598 4
-14 26 8 -180.795 136.464 4
-14 26 8 35.7063 197.777 1
-14 -12 -8 -462.343 347.178 3
-11 26 5 371.287 408.024 1
-11 -15 -5 346.678 918.335 2
26 -15 5 -410.052 434.733 2
-15 26 -5 807.235 636.372 1
-11 26 5 583.486 307.938 4
-11 -15 -5 617.475 544.224 3
26 -15 2 248.544 98.2037 2
-15 26 -2 1574.65 915.362 1
-11 26 2 1608.17 721.555 1
-11 -15 -2 668.133 604.692 2
-11 26 2 1733.21 679.797 4
26 -11 -2 657.381 707.771 2
-11 -15 -2 1172.85 702.24 3
-15 26 1 453.621 470.357 2
-11 26 -1 1312.24 735.013 1
26 -11 1 166.777 414.392 2
26 -15 -1 260.127 746.192 2
-11 -15 1 1077.39 468.019 3
-15 26 1 945.789 589.565 1
-15 26 4 734.805 629.406 2
-15 26 4 529.697 170.324 1
-11 26 -4 382.354 22.2787 1
26 -11 4 545.661 501.551 2
-15 26 4 738.897 546.098 4
-11 -15 4 1328.85 980.347 3
26 -15 -4 370.746 506.69 2
-15 26 7 -89.3306 201.202 2
-11 26 -7 510.799 278.466 1
26 -11 7 -89.0196 540.568 2
-15 26 7 705.248 498.339 1
26 -15 -7 629.571 330.553 4
-15 26 7 251.416 169.283 4
-11 -15 7 1120.81 1146.9 3
-10 26 6 44.7889 217.959 1
26 -16 6 255.785 315.125 2
-16 26 -6 -176.773 213.028 1
-10 26 6 -133.899 299.836 4
-10 -16 -6 254.02 182.275 3
26 -16 3 13.769 188.361 2
-10 -16 -3 98.3002 419.049 2
-16 26 -3 -20.0678 134.452 1
-10 26 3 851.363 600.215 1
-10 26 3 658.349 506.079 4
26 -10 -3 692.172 549.932 2
-10 -16 -3 161.905 281.984 3
-16 26 0 17.5048 278.768 2
-10 26 0 486.415 364.996 1
26 -16 0 -142.839 234.98 2
26 -10 0 322.679 513.361 2
-10 26 0 360.464 423.065 4
-10 -16 0 574.929 404.517 3
-16 26 0 814.252 546.722 1
-16 26 3 120.935 51.5453 1
-16 26 3 323.147 359.824 2
-10 26 -3 545.52 251.437 1
26 -10 3 -214.783 302.658 2
26 -16 -3 257.293 234.141 2
-10 -16 3 363.378 344.671 3
-16 26 6 68.1733 138.796 2
-10 26 -6 658.077 571.19 1
-16 26 6 22.136 182.05 1
26 -10 6 88.9165 381.415 2
26 -16 -6 255.978 323.87 4
-16 26 6 663.724 532.499 4
-10 -16 6 234.792 560.128 3
-9 26 7 177.91 204.967 1
-9 -17 -7 -922.744 1119.24 2
26 -17 7 1.3212 425.347 2
-17 26 -7 -276.077 541.698 1
-9 26 7 727.262 497.459 4
-9 -17 -7 247.32 180.374 3
26 -17 4 56.9283 330.642 2
-9 -17 -4 319.108 344.675 2
-17 26 -4 -233.988 306.78 1
-9 26 4 -188.106 93.8942 1
-9 26 4 221.075 187.179 4
-9 -17 -4 129.062 176.322 3
-9 26 1 86.166 283.49 1
26 -17 1 172.814 35.1179 2
-9 26 1 -299.375 431.376 4
-9 -17 -1 -34.9809 305.756 2
26 -9 -1 -539.834 511.045 2
-17 26 -1 324.898 370.843 1
-9 -17 -1 -384.597 533.721 3
-17 26 2 280.118 467.721 1
-17 26 2 549.164 291.651 2
-9 26 -2 316.63 278.987 1
26 -9 2 -293.571 341.342 2
26 -17 -2 119.431 449.332 2
-9 -17 2 -165.94 423.711 3
-17 26 5 231.176 306.237 2
-9 26 -5 458.03 553.312 1
-17 26 5 -121.92 136.479 1
26 -9 5 -30.3523 370.609 2
26 -17 -5 30.8861 309.956 4
-17 26 5 154.089 515.719 4
26 -17 -5 79.4486 356.201 2
-9 -17 5 129.047 202.671 3
26 -18 5 329.829 452.238 2
-8 -18 -5 -321.174 389.171 2
-8 26 5 998.816 787.851 4
-18 26 -5 -148.316 398.75 1
-8 26 5 695.658 451.598 1
-8 -18 -5 -491.089 479.059 3
-8 26 2 1283.63 646.697 1
26 -18 2 -953.742 881.758 2
-8 26 2 610.053 466.468 4
-8 -18 -2 7.35905 380.306 2
26 -8 -2 123.468 406.805 2
-18 26 -2 248.188 484.502 1
-8 -18 -2 483.543 344.592 3
-18 26 1 689.857 637.162 1
-8 26 -1 93.8992 172.747 1
26 -18 -1 -801.362 845.209 2
26 -8 1 773.873 594.301 2
-8 26 -1 -18.7142 252.105 4
-8 -18 1 416.324 660.901 3
-18 26 4 222.633 239.156 2
-8 26 -4 184.171 257.813 1
-18 26 4 49.9965 288.129 1
26 -8 4 -318.834 611.051 2
26 -18 -4 -128.79 753.354 2
-8 -18 4 -73.3003 304.132 3
-8 26 -7 506.26 549.189 1
-18 26 7 100.899 162.1 2
-18 -8 -7 331.874 253.158 1
26 -8 7 319.033 536.79 2
26 -18 -7 531.426 505.777 4
-18 26 7 332.859 328.921 4
-18 26 7 300.875 420.545 1
-8 -18 7 -41.2762 508.878 3
26 -19 6 393.068 613.277 2
-7 -19 -6 1123.46 838.741 2
-7 26 6 964.225 769.522 4
-19 26 -6 438.321 404.524 1
-7 26 6 23.8249 141.976 1
-7 -19 -6 257.685 385.136 3
-7 26 3 1040.21 590.79 1
26 -19 3 195.892 112.766 2
-7 26 3 144.094 346.737 4
-7 -19 -3 516.032 479.02 2
-19 26 -3 683.519 249.757 1
-7 -19 -3 98.0332 261.387 3
-19 26 0 15.8858 281.074 1
-7 26 0 311.253 79.8209 1
26 -19 0 -504.335 466.613 2
-7 26 0 201.991 235.258 4
26 -7 0 907.437 713.083 2
-7 -19 0 211.365 289.575 3
-19 26 3 1784.59 862.402 2
-7 26 -3 1791.81 774.556 1
-19 26 3 1287.81 633.414 1
26 -7 3 -496.075 720.156 2
26 -19 -3 51.1652 466.051 2
-7 -19 3 1316.44 927.498 3
-7 26 -6 438.317 436.696 1
-19 26 6 206.689 401.435 2
-19 -7 -6 225.631 365.18 1
26 -7 6 -63.9009 263.963 2
-19 26 6 317.924 84.7163 1
26 -19 -6 -439.549 185.411 4
-7 -19 6 -456.346 542.558 3
-6 26 4 59.0762 140.007 1
26 -20 4 -333.342 334.206 2
-6 -20 -4 815.033 645.551 2
-6 26 4 169.194 559.82 4
-20 26 -4 901.019 611.898 1
-6 -20 -4 71.8535 186.151 3
-20 26 -1 329.738 462.696 1
-6 26 1 558.187 193.868 1
26 -20 1 235.005 119.463 2
-6 26 1 388.069 446.711 4
26 -6 -1 384.793 533.77 2
-6 -20 -1 565.826 550.067 3
-6 26 -2 464.222 432.475 1
-20 26 2 206.122 314.038 1
26 -20 -2 -347.081 219.613 2
26 -6 2 -437.702 593.533 2
-6 26 -2 43.5912 164.125 4
-6 -20 2 539.04 642.447 3
-6 26 -5 -132.764 470.753 1
-20 26 5 -175.786 282.51 2
-20 -6 -5 -102.841 56.8891 1
-20 26 5 652.97 526.082 1
26 -6 5 322.911 487.795 2
26 -20 -5 643.28 569.453 4
26 -20 -5 446.658 897.336 2
-6 -20 5 -98.0075 170.383 3
26 -21 5 247.743 330.003 2
-5 26 5 482.69 438.93 1
-5 -21 -5 433.311 335.712 2
-5 26 5 8.67842 314.811 4
-21 26 -5 -32.8299 466.126 1
-5 -21 -5 529.278 545.167 3
-21 26 -2 -21.999 95.5635 1
-5 26 2 260.26 332.126 1
26 -21 2 -566.88 606.882 2
-5 26 2 243.781 509.163 4
-5 -21 -2 -17.8438 70.2742 3
-5 26 -1 245.85 204.131 1
-21 26 1 413.9 338.47 1
26 -21 -1 868.96 588.675 2
-5 26 -1 678.488 572.675 4
26 -5 1 293.684 345.877 2
-5 -21 1 792.673 707.713 3
-5 26 -4 505.316 469.333 1
-21 -5 -4 -122.119 67.0211 1
-21 26 4 65.83 333.421 1
26 -5 4 -86.4529 212.811 2
26 -21 -4 -564.066 303.31 2
-5 -21 4 53.0342 368.879 3
-22 26 -3 240.859 494.456 1
-4 26 3 97.6326 312.233 1
26 -22 3 -160.218 606.911 2
-4 26 3 447.483 629.287 4
-4 -22 -3 140.434 197.626 2
-4 -22 -3 -193.762 343.862 3
-4 26 0 351.823 420.926 1
-22 26 0 585.299 389.663 1
26 -22 0 -18.4878 686.27 2
-4 26 0 384.129 511.192 4
26 -4 0 -56.808 428.48 2
-4 -22 0 224.517 352.311 3
-4 26 -3 67.2827 289.41 1
-22 26 3 122.406 25.1004 1
-22 -4 -3 462.196 478.157 1
26 -22 -3 171.164 481.118 2
26 -4 3 576.215 639.015 2
-4 26 -3 -67.6489 54.7584 4
-4 -22 3 158.418 351.303 3
-3 -23 -1 711.157 652.196 3
-3 26 1 106.204 154.411 1
-23 26 -1 414.978 493.397 1
26 -23 1 -257.286 616.296 2
-3 26 1 939.871 686.316 4
-3 26 -2 64.4632 305.946 1
-23 26 2 674.047 640.286 1
26 -23 -2 853.31 863.401 2
-3 26 -2 171.051 324.828 4
26 -3 2 424.685 567.899 2
-23 -3 -2 275.133 451.861 1
-3 -23 2 915.403 757.433 3
-13 27 5 109.979 82.2668 1
-14 27 -5 113.354 344.971 1
-13 -14 -5 106.127 256.482 2
27 -14 5 -158.462 645.519 2
-13 27 5 7.35514 269.337 4
-13 -14 -5 1.44957 198.128 3
-14 27 -2 1125.61 516.23 1
27 -14 2 415.927 427.73 2
-13 27 2 1261.16 757.001 4
-13 27 2 380.961 323.283 1
27 -13 -2 138.65 649.224 2
-13 -14 -2 1094.03 740.929 3
-13 27 -1 1637.91 891.655 1
27 -13 1 583.569 571.259 2
27 -14 -1 412.804 566.707 2
-14 27 1 2008.88 880.62 1
-14 27 4 345.561 398.601 1
-14 27 4 55.6203 214.384 2
-13 27 -4 124.141 274.219 1
27 -13 4 -17.484 162.677 2
-14 27 4 234.25 103.801 4
27 -14 -4 617.542 645.544 2
-12 27 6 373.794 272.639 1
-12 -15 -6 345.967 962.982 2
-15 27 -6 -8.12361 195.693 1
27 -15 6 -261.853 377.569 2
-12 27 6 -15.2712 334.236 4
-12 -15 -6 170.846 180.072 3
-15 27 -3 561.317 518.904 1
27 -15 3 -132.4 183.759 2
-12 27 3 152.934 237.002 4
-12 27 3 -5.47402 287.485 1
-12 -15 -3 343.544 472.62 3
27 -12 -3 1052.97 826.235 2
-12 27 0 864.396 603.795 1
27 -15 0 -520.982 755.905 2
27 -12 0 -193.816 441.021 2
-15 27 0 325.41 391.737 1
-12 -15 0 551.594 361.216 3
-15 27 3 296.797 173.168 1
-15 27 3 84.564 106.918 2
-12 27 -3 -91.1735 247.081 1
27 -12 3 -233.461 256.355 2
-15 27 3 189.418 247.262 4
27 -15 -3 706.886 708.316 2
-12 -15 3 426.347 657.969 3
-15 27 6 505.056 462.734 2
-15 27 6 1711.76 796.728 1
-12 27 -6 -175.838 495.514 1
27 -12 6 -751.152 642.376 2
-15 27 6 1354.24 700.944 4
-12 -15 6 1257.36 1040.3 3
27 -16 4 1093.36 871.839 2
-11 -16 -4 578.201 728.744 2
-16 27 -4 599.202 533.069 1
-11 27 4 1143.87 769.785 4
-11 27 4 361.265 373.894 1
-11 -16 -4 1288.73 762.559 3
-11 27 1 1472.34 842.726 1
27 -16 1 403.007 581.455 2
-11 27 1 693.472 567.601 4
-16 27 -1 1245.13 736.224 1
27 -11 -1 251.758 761.025 2
-11 -16 -1 1047.46 757.637 3
-16 27 2 255.957 386.304 1
-16 27 2 319.301 330.269 2
-11 27 -2 -202.519 364.693 1
27 -11 2 85.3975 352.867 2
27 -16 -2 223.884 383.156 2
-11 -16 2 1407.26 944.707 3
-16 27 5 249.463 99.929 2
-16 27 5 227.698 284.356 1
-11 27 -5 681.848 498.262 1
27 -11 5 69.2906 199.954 2
-16 27 5 -630.261 654.704 4
-11 -16 5 -402.055 293.335 3
27 -17 5 365.017 434.916 2
-10 -17 -5 -168.966 501.524 2
-17 27 -5 -116.268 408.879 1
-10 27 5 407.16 415.377 4
-10 -17 -5 669.341 561.536 3
-10 27 5 600.165 425.892 1
-10 27 2 148.65 180.12 1
27 -17 2 594.898 660.836 2
-10 -17 -2 -177.126 411.116 2
-10 27 2 548.363 315.301 4
-17 27 -2 -549.267 551.261 1
27 -10 -2 408.914 508.835 2
-10 -17 -2 90.3753 334.312 3
-17 27 1 -33.6815 386.363 1
-17 27 1 37.7178 263.621 2
-10 27 -1 459.267 447.907 1
27 -17 -1 328.25 520.183 2
27 -10 1 -145.396 633.753 2
-10 -17 1 56.9282 88.3303 3
-17 27 4 522.26 353.123 2
-17 27 4 340.16 457.156 1
-10 27 -4 350.933 195.609 1
27 -10 4 272.105 576.706 2
27 -17 -4 984.965 751.206 2
-10 -17 4 524.916 689.253 3
27 -18 3 -81.3405 471.618 2
-9 27 3 1182.72 572.581 1
-9 -18 -3 -29.5838 227.961 2
-9 27 3 906.115 596.449 4
-18 27 -3 303.931 328.274 1
-9 -18 -3 578.564 444.722 3
-18 27 0 -217.409 386.581 1
-9 27 0 609.332 553.4 1
27 -18 0 -327.027 397.626 2
-9 27 0 460.683 433.362 4
27 -9 0 913.858 627.252 2
-9 -18 0 1242.34 820.29 3
-18 27 3 432.121 475.241 1
-18 27 3 373.505 291.119 2
-9 27 -3 324.109 367.385 1
27 -9 3 539.468 465.769 2
27 -18 -3 -439.915 822.579 2
-9 -18 3 572.278 750.555 3
27 -19 4 -641.775 518.158 2
-8 27 4 -66.773 33.2925 1
-8 -19 -4 328.497 275.298 2
-8 27 4 381.914 607.764 4
-19 27 -4 -345.356 380.33 1
-8 -19 -4 513.732 596.458 3
-19 27 -1 278.289 470.869 1
-8 27 1 -48.9903 255.754 1
27 -19 1 -380.4 341.024 2
-8 27 1 -317.941 339.506 4
-8 -19 -1 -13.1179 214.235 2
27 -8 -1 -128.624 255.307 2
-8 -19 -1 53.5379 323.065 3
-19 27 2 762.852 570.889 1
-8 27 -2 452.489 416.993 1
27 -19 -2 218.441 181.619 2
27 -8 2 538.956 694.948 2
-8 27 -2 56.3861 231.038 4
-8 -19 2 383.27 595.019 3
-19 27 5 558.882 554.595 2
-8 27 -5 -107.33 159.452 1
-19 27 5 701.467 627.328 1
27 -8 5 133.075 182.002 2
27 -19 -5 571.674 596.319 4
-8 -19 5 398.74 572.698 3
-20 27 -2 571.137 620.581 1
-7 27 2 280.107 395.581 1
27 -20 2 -394.929 663.023 2
-7 27 2 43.787 232.443 4
-7 -20 -2 -70.2652 363.127 2
-7 -20 -2 7.12913 250.932 3
-20 27 1 757.198 673.024 1
-7 27 -1 580.427 510.676 1
27 -20 -1 -263.906 518.074 2
-7 27 -1 364.308 502.043 4
27 -7 1 -32.3911 475.703 2
-7 -20 1 718.378 512.491 3
-7 27 -4 -18.1621 198.53 1
-20 27 4 413.421 577.179 2
-20 27 4 72.8206 287.25 1
27 -7 4 -375.742 703.232 2
-7 -20 4 84.497 363.505 3
-21 27 -3 254.162 352.003 1
-6 27 3 270.307 165.193 1
27 -21 3 -229.411 631.89 2
-6 27 3 -146.492 250.324 4
-6 -21 -3 -279.992 454.676 2
-6 -21 -3 -275.405 448.661 3
-21 27 0 14.3155 125.186 1
-6 27 0 332.463 329.62 1
27 -21 0 143.011 394.666 2
-6 27 0 5.95425 259.785 4
27 -6 0 560.321 682.113 2
-6 -21 0 -167.258 287.548 3
-6 27 -3 809.889 518.579 1
-21 27 3 163.102 92.6569 1
27 -6 3 -777.099 767.498 2
-6 27 -3 918.609 699.285 4
-6 -21 3 -192.884 449.495 3
-22 27 -1 866.945 677.212 1
-5 27 1 760.125 552.982 1
-5 27 1 -15.9998 353.354 4
-5 -22 -1 276.937 225.763 3
-14 28 0 3037.84 1125.44 1
28 -14 0 240.461 611.633 2
-14 28 -3 139.232 285.188 1
28 -14 3 568.044 666.588 2
-14 28 3 -113.228 191.209 4
-14 -14 -3 87.0452 410.472 3
28 -14 -3 315.138 572.211 2
-14 28 3 227.177 151.474 1
-13 28 4 456.217 361.965 1
-15 28 -4 204.719 366.326 1
28 -15 4 -373.683 495.674 2
-13 28 4 150.043 172.075 4
-13 -15 -4 -96.1762 265.265 3
28 -15 1 -18.2772 304.394 2
-15 28 -1 91.3839 377.07 1
-13 28 1 897.036 585.643 1
28 -13 -1 998.448 721.617 2
-13 -15 -1 321.268 633.033 3
-13 28 -2 818.184 602.331 1
28 -13 2 964.108 793.278 2
28 -15 -2 327.029 457.974 2
-13 -15 2 932.002 902.252 3
-15 28 2 577.031 538.754 1
28 -16 2 108.018 351.882 2
-16 28 -2 146.569 360.238 1
-12 28 2 424.633 293.225 1
-12 28 2 43.4934 212.832 4
28 -12 -2 -123.448 408.321 2
-12 -16 -2 612.932 563.904 3
-16 28 1 -74.3997 312.029 2
-12 28 -1 438.111 199.543 1
28 -12 1 66.112 364.841 2
28 -16 -1 55.1075 624.968 2
-12 -16 1 -406.561 744.76 3
-16 28 1 716.778 680.257 1
-16 28 4 135.492 99.472 2
-16 28 4 821.681 603.964 1
-12 28 -4 256.9 271.138 1
-16 28 4 1612.79 978.849 4
-12 -16 4 1183.2 1144.52 3
28 -17 3 379.807 500.077 2
-17 28 -3 638.774 566.702 1
-11 28 3 598.215 520.812 1
-11 28 3 633.418 409.374 4
28 -11 -3 861.279 785.502 2
-11 -17 -3 529.725 563.911 3
-11 28 0 853.562 560.288 1
28 -17 0 1152.91 920.058 2
28 -11 0 -265.28 214.118 2
-11 28 0 660.825 573.763 4
-11 -17 0 1261.83 798.984 3
-17 28 0 1094.98 702.554 1
-17 28 3 520.009 520.36 1
-17 28 3 664.011 624.338 2
-11 28 -3 290.502 253.301 1
28 -11 3 447.656 671.215 2
28 -17 -3 448.507 763.744 2
-11 -17 3 890.566 871.647 3
-10 28 1 817.796 597.074 1
28 -18 1 965.754 728.128 2
-10 28 1 512.328 484.833 4
28 -10 -1 170.226 452.613 2
-10 -18 -1 525.03 526.056 3
-18 28 -1 1109.88 658.462 1
-18 28 2 190.118 360.38 1
-18 28 2 -9.49858 268.296 2
-10 28 -2 246.665 218.209 1
28 -10 2 493.233 697.602 2
28 -18 -2 -16.9358 547.495 2
-10 -18 2 217.761 102.305 3
-9 28 2 699.454 442.431 1
-9 28 2 580.881 581.77 4
-9 -19 -2 313.042 258.084 2
-19 28 -2 433.581 322.248 1
-9 -19 -2 620.651 643.242 3
-19 28 1 65.8329 192.979 1
-9 28 -1 730.342 585.95 1
28 -19 -1 928.136 960.654 2
28 -9 1 704.911 777.639 2
-9 28 -1 683.754 708.332 4
-9 -19 1 255.172 447.104 3
#BEGIN Loops that were not found in dictionaries:
loop_
_smtbx_masks_void_nr
_smtbx_masks_void_average_x
_smtbx_masks_void_average_y
_smtbx_masks_void_average_z
_smtbx_masks_void_volume
_smtbx_masks_void_count_electrons
1 -0.410 -0.380 -0.217 21262.9 1470.3
#END Loops that were not found in dictionaries
