#------------------------------------------------------------------------------
#$Date: 2017-12-10 21:25:10 +0200 (Sun, 10 Dec 2017) $
#$Revision: 204138 $
#$URL: file:///home/coder/svn-repositories/cod/cif/7/22/77/7227784.cif $
#------------------------------------------------------------------------------
#
# This file is available in the Crystallography Open Database (COD),
# http://www.crystallography.net/
#
# All data on this site have been placed in the public domain by the
# contributors.
#
data_7227784
loop_
_publ_author_name
'Patyk-Ka\'zmierczak, Ewa'
'Warren, Mark R.'
'Allan, David R.'
'Katrusiak, Andrzej'
_publ_section_title
;
 Pressure inverse solubility and polymorphism of an edible
 \g-cyclodextrin-based metal-organic framework.
;
_journal_issue                   13
_journal_name_full               'Physical chemistry chemical physics : PCCP'
_journal_page_first              9086
_journal_page_last               9091
_journal_paper_doi               10.1039/c7cp00593h
_journal_volume                  19
_journal_year                    2017
_chemical_absolute_configuration rm
_chemical_formula_moiety         'C48 H80 O40, 2(KOH)'
_chemical_formula_sum            'C48 H82 K2 O42'
_chemical_formula_weight         1409.34
_chemical_name_common            '\g-cyclodextrin-metal-organic framework'
_chemical_name_systematic
'catena-((\m8-\g-Cyclodextrin)-di-potassium dihydroxide)'
_space_group_crystal_system      cubic
_space_group_IT_number           211
_space_group_name_Hall           'I 4 2 3'
_space_group_name_H-M_alt        'I 4 3 2'
_atom_sites_solution_hydrogens   geom
_atom_sites_solution_primary     direct
_audit_creation_date             2017-01-18
_audit_creation_method
;
Olex2 1.2
(compiled 2017.01.04 svn.r3372 for OlexSys, GUI svn.r5289)
;
_cell_angle_alpha                90.0
_cell_angle_beta                 90.0
_cell_angle_gamma                90.0
_cell_formula_units_Z            12
_cell_length_a                   30.898(3)
_cell_length_b                   30.898(3)
_cell_length_c                   30.898(3)
_cell_measurement_reflns_used    2119
_cell_measurement_temperature    295
_cell_measurement_theta_max      10.0680
_cell_measurement_theta_min      3.6860
_cell_volume                     29498(5)
_computing_cell_refinement       'CrysAlisPro 1.171.38.41 (Rigaku OD, 2015)'
_computing_data_collection       'CrysAlisPro 1.171.38.41 (Rigaku OD, 2015)'
_computing_data_reduction        'CrysAlisPro 1.171.38.41 (Rigaku OD, 2015)'
_computing_molecular_graphics    'Olex2 (Dolomanov et al., 2009)'
_computing_publication_material  'Olex2 (Dolomanov et al., 2009)'
_computing_structure_refinement  'ShelXL (Sheldrick, 2015)'
_computing_structure_solution    'ShelXS (Sheldrick, 2008)'
_diffrn_ambient_environment      'diamond-anvil cell'
_diffrn_ambient_pressure         1360000
_diffrn_ambient_temperature      295
_diffrn_detector                 'CCD plate'
_diffrn_detector_area_resol_mean 16.0338
_diffrn_detector_type            EosS2
_diffrn_measured_fraction_theta_full 0.791
_diffrn_measured_fraction_theta_max 0.791
_diffrn_measurement_details
;
List of Runs (angles in degrees, time in seconds):

  # Type    Start    End  Width  t~exp~   \w     \q     \k     \f   Frames
--------------------------------------------------------------------------
  1  \f    -35.00  19.75   0.75   35.00   0.00 -30.00   0.00    --    73
  2  \f    140.00 200.00   0.75   35.00   0.00 -30.00   0.00    --    80
  3  \f    160.00 217.00   0.75   35.00   0.00  30.00   0.00    --    76
  4  \f    -20.00  34.75   0.75   35.00   0.00  30.00   0.00    --    73
  5  \w    -24.00  24.00   0.75   35.00    --   30.00  39.46 -12.90   64
  6  \w    -24.00  24.00   0.75   35.00    --   30.00  39.46 167.10   64
  7  \w    -50.00  10.00   0.75   35.00    --  -30.00  39.46 167.10   80
  8  \w    -50.00  10.00   0.75   35.00    --  -30.00  39.46 -12.90   80
  9  \w    -64.00  -8.50   0.75   35.00    --  -30.00  81.40 -28.90   74
 10  \w    -64.00  -8.50   0.75   35.00    --  -30.00  81.40 151.10   74
 11  \w    -19.00   8.00   0.75   35.00    --   30.00  81.40 151.10   36
 12  \w    -19.00   8.00   0.75   35.00    --   30.00  81.40 -28.90   36
 13  \w    -43.00 -21.25   0.75   35.00    --   30.00 134.60 -56.90   29
 14  \w    -43.00 -21.25   0.75   35.00    --   30.00 134.60 123.10   29
 15  \w    -90.00 -36.00   0.75   35.00    --  -30.00 134.60 123.10   72
 16  \w    -90.00 -36.00   0.75   35.00    --  -30.00 134.60 -56.90   72
;
_diffrn_measurement_device       'four-circle diffractometer'
_diffrn_measurement_device_type  'New Xcalibur, EosS2'
_diffrn_measurement_method       '\w and \f scans'
_diffrn_orient_matrix_type
'CrysAlisPro convention (1999,Acta A55,543-557)'
_diffrn_orient_matrix_UB_11      0.0001905000
_diffrn_orient_matrix_UB_12      -0.0028041000
_diffrn_orient_matrix_UB_13      0.0227885000
_diffrn_orient_matrix_UB_21      0.0049426000
_diffrn_orient_matrix_UB_22      -0.0222873000
_diffrn_orient_matrix_UB_23      -0.0026850000
_diffrn_orient_matrix_UB_31      0.0223866000
_diffrn_orient_matrix_UB_32      0.0050083000
_diffrn_orient_matrix_UB_33      0.0002623000
_diffrn_radiation_monochromator  graphite
_diffrn_radiation_probe          x-ray
_diffrn_radiation_type           MoK\a
_diffrn_radiation_wavelength     0.71073
_diffrn_reflns_av_R_equivalents  0.1072
_diffrn_reflns_av_unetI/netI     0.0252
_diffrn_reflns_Laue_measured_fraction_full 0.791
_diffrn_reflns_Laue_measured_fraction_max 0.791
_diffrn_reflns_limit_h_max       15
_diffrn_reflns_limit_h_min       -15
_diffrn_reflns_limit_k_max       15
_diffrn_reflns_limit_k_min       -15
_diffrn_reflns_limit_l_max       7
_diffrn_reflns_limit_l_min       -7
_diffrn_reflns_number            9046
_diffrn_reflns_point_group_measured_fraction_full 0.837
_diffrn_reflns_point_group_measured_fraction_max 0.837
_diffrn_reflns_theta_full        10.220
_diffrn_reflns_theta_max         10.220
_diffrn_reflns_theta_min         3.230
_diffrn_source                   'fine-focus sealed X-ray tube'
_diffrn_source_type              'Enhance (Mo) X-ray Source'
_exptl_absorpt_coefficient_mu    0.165
_exptl_absorpt_correction_T_max  1.00000
_exptl_absorpt_correction_T_min  0.32866
_exptl_absorpt_correction_type   multi-scan
_exptl_absorpt_process_details
;
CrysAlisPro 1.171.38.41 (Rigaku Oxford Diffraction, 2015)
Empirical absorption correction using spherical harmonics,
 implemented in SCALE3 ABSPACK scaling algorithm.
;
_exptl_crystal_colour            'clear colourless'
_exptl_crystal_colour_lustre     clear
_exptl_crystal_colour_primary    colourless
_exptl_crystal_density_diffrn    0.952
_exptl_crystal_description       prism
_exptl_crystal_F_000             8928
_exptl_crystal_recrystallization_method
'Compressed crystal that was grown in situ from methano:water solution in the diamond-anvil cell at 0.2 GPa.'
_exptl_crystal_size_max          0.16
_exptl_crystal_size_mid          0.15
_exptl_crystal_size_min          0.1
_refine_diff_density_max         0.162
_refine_diff_density_min         -0.183
_refine_diff_density_rms         0.034
_refine_ls_abs_structure_details
;
 Flack x determined using 99 quotients [(I+)-(I-)]/[(I+)+(I-)]
 (Parsons, Flack and Wagner, Acta Cryst. B69 (2013) 249-259).
;
_refine_ls_abs_structure_Flack   0.06(15)
_refine_ls_extinction_method     none
_refine_ls_goodness_of_fit_ref   1.283
_refine_ls_hydrogen_treatment    constr
_refine_ls_matrix_type           full
_refine_ls_number_parameters     75
_refine_ls_number_reflns         283
_refine_ls_number_restraints     75
_refine_ls_restrained_S_all      2.078
_refine_ls_R_factor_all          0.0924
_refine_ls_R_factor_gt           0.0907
_refine_ls_shift/su_max          0.000
_refine_ls_shift/su_mean         0.000
_refine_ls_structure_factor_coef Fsqd
_refine_ls_weighting_details
'w=1/[\s^2^(Fo^2^)+(0.2000P)^2^] where P=(Fo^2^+2Fc^2^)/3'
_refine_ls_weighting_scheme      calc
_refine_ls_wR_factor_gt          0.2341
_refine_ls_wR_factor_ref         0.2350
_reflns_Friedel_coverage         0.590
_reflns_Friedel_fraction_full    0.929
_reflns_Friedel_fraction_max     0.929
_reflns_number_gt                275
_reflns_number_total             283
_reflns_threshold_expression     'I > 2\s(I)'
_iucr_refine_instructions_details
;

    1.res created by SHELXL-2014/7

TITL 1 in I432 #211
REM reset to I432 #211
CELL 0.71073 30.898413 30.898413 30.898413 90 90 90
ZERR 12 0.003004 0.003004 0.003004 0 0 0
LATT -2
SYMM -Y,+X,+Z
SYMM -X,-Y,+Z
SYMM +Y,-X,+Z
SYMM +X,-Z,+Y
SYMM +X,-Y,-Z
SYMM +X,+Z,-Y
SYMM +Z,+Y,-X
SYMM -X,+Y,-Z
SYMM -Z,+Y,+X
SYMM +Z,+X,+Y
SYMM +Y,+Z,+X
SYMM -Y,-Z,+X
SYMM +Z,-X,-Y
SYMM -Y,+Z,-X
SYMM -Z,-X,+Y
SYMM -Z,+X,-Y
SYMM +Y,-Z,-X
SYMM +Y,+X,-Z
SYMM -Y,-X,-Z
SYMM -X,+Z,+Y
SYMM -X,-Z,-Y
SYMM +Z,-Y,+X
SYMM -Z,-Y,-X
SFAC C H K O
UNIT 576 960 24 504
DFIX 1.5 0.002 C16 C15
DFIX 1.5 0.002 C14 C15
DFIX 2.4 O14 C15
DFIX 1.45 0.002 C14 O14
DFIX 1.5 C14 C13
DFIX 2.2 O2 C3
DFIX 1.45 0.002 O3 C3
DFIX 1.45 0.002 C11 O4
DFIX 3 C11 C14
DFIX 1.45 0.002 C4 O4
DFIX 1.5 0.002 C4 C3
DFIX 2 C12 O4
DFIX 3 C12 C15
DFIX 1.5 C12 C13
DFIX 1.45 C12 O12
DFIX 3 C15 C12
DFIX 1.5 0.002 C12 C11
DFIX 1.5 0.002 C2 C3
DFIX 1.45 0.002 C2 O2
DFIX 2.3 C2 O3
DFIX 2.8 C1 C4
DFIX 1.5 0.002 C2 C1
DFIX 1.45 0.002 O13 C13
DFIX 1.5 0.002 C6 C5
DFIX 1.5 0.002 C4 C5
DFIX 3 C2 C5
DFIX 3 C5 C2
DFIX 2.3 0.002 C5 C1
DFIX 2.5 O5 C6
DFIX 2.2 O15 C16
DFIX 1.45 0.002 O15 C15
DFIX 3 O5 C3
DFIX 3 O15 C13
DFIX 1.45 0.002 O15 C11
DFIX 1.45 0.002 O5 C1
DFIX 1.45 0.002 O5 C5
DFIX 1.45 0.002 C16 O16
DFIX 1.45 0.002 C6 O6
DANG 2.4 0.02 C13 C15
DANG 2.5 O14 C15
DANG 2.5 C13 O14
DANG 2.4 0.02 C11 C13
DANG 2.4 0.02 C15 C11
DANG 2.5 C11 C4
DANG 2.4 0.02 C12 C14
DANG 2.5 O2 C3
DANG 2.5 0.02 C4 C2
DANG 2.5 C4 C11
DANG 2.5 O4 C3
DANG 2.5 O4 C12
DANG 2.5 0.02 C3 C1
DANG 2.5 O2 C1
DANG 2.1 C3 O4
DANG 2.5 O3 C4
DANG 2.5 O3 C2
DANG 2.5 C14 C16
DANG 2.5 0.02 C5 C3
DANG 2.5 O4 C5
DANG 2.5 C6 C4
DANG 2.4 0.02 C14 O15
DANG 2.5 0.02 O5 C4
DANG 2.4 0.02 O15 C12
DANG 2.5 0.02 C2 O5
DANG 2.5 O4 O15
DANG 2.5 O15 C16
DANG 2.5 C6 O5
DANG 2.5 C1 C5
DANG 2.5 C1 C3
DANG 2.7 O6 C5
ISOR K1
 
L.S. 100
PLAN  5
TEMP 21.85
CONN 4 C16
CONN 1 H16
BOND
MORE -1
BOND $H
CONF
ABIN
fmap 2
acta 52
OMIT 0 2 14
OMIT 1 1 14
OMIT 0 3 11
OMIT 0 5 7
OMIT 4 4 12
OMIT 5 5 10
OMIT 0 4 8
OMIT -1 7 10
OMIT 2 7 13
OMIT 0 1 13
OMIT 0 1 5
OMIT 0 5 5
OMIT 0 4 12
OMIT 0 6 14
OMIT 1 7 10
OMIT 4 5 7
OMIT -2 7 13
OMIT 0 1 15
OMIT -4 5 7
OMIT -1 8 11
OMIT 1 8 11
OMIT 3 3 6
OMIT 0 1 11
OMIT -4 7 13
OMIT 4 5 5
OMIT 0 1 7
OMIT 6 10 10
OMIT 2 4 4
OMIT 0 7 9
OMIT -1 8 13
REM <olex2.extras>
REM <HklSrc "%.\\1.hkl">
REM </olex2.extras>
 
WGHT    0.200000
FVAR       0.25272   0.15683   0.26883
C1    1    0.848364    0.684978    0.627136    11.00000   21.00000
AFIX  13
H1    2    0.844091    0.715890    0.621470    11.00000   -1.20000
AFIX   0
C2    1    0.887138    0.680070    0.655974    11.00000   21.00000
AFIX  13
H2    2    0.883220    0.695839    0.683213    11.00000   -1.20000
AFIX   0
C3    1    0.894092    0.632677    0.663992    11.00000   21.00000
AFIX  13
H3    2    0.906604    0.622162    0.636810    11.00000   -1.20000
AFIX   0
C4    1    0.853526    0.606498    0.668952    11.00000   21.00000
AFIX  13
H4    2    0.844707    0.614299    0.698403    11.00000   -1.20000
AFIX   0
C5    1    0.814685    0.620564    0.643416    11.00000   21.00000
AFIX  13
H5    2    0.816687    0.608918    0.613983    11.00000   -1.20000
AFIX   0
C6    1    0.778639    0.598236    0.667133    11.00000   21.00000
AFIX  23
H6A   2    0.751110    0.606209    0.654321    11.00000   -1.20000
H6B   2    0.781992    0.567136    0.664473    11.00000   -1.20000
AFIX   0
C11   1    0.854069    0.537214    0.713160    11.00000   21.00000
AFIX  13
H11   2    0.855978    0.557590    0.737391    11.00000   -1.20000
AFIX   0
C12   1    0.896338    0.513351    0.711985    11.00000   21.00000
AFIX  13
H12   2    0.902275    0.501908    0.740963    11.00000   -1.20000
AFIX   0
C13   1    0.892805    0.475564    0.680651    11.00000   21.00000
AFIX  13
H13   2    0.898312    0.480401    0.649792    11.00000   -1.20000
AFIX   0
C14   1    0.854798    0.446125    0.694433    11.00000   21.00000
AFIX  13
H14   2    0.860163    0.435482    0.723825    11.00000   -1.20000
AFIX   0
C15   1    0.813529    0.471691    0.694232    11.00000   21.00000
AFIX  13
H15   2    0.807989    0.481848    0.664701    11.00000   -1.20000
AFIX   0
C16   1    0.772750    0.452175    0.711905    11.00000   21.00000
AFIX  23
H16B  2    0.749235    0.472602    0.707988    11.00000   -1.20000
H16A  2    0.765856    0.426415    0.695338    11.00000   -1.20000
AFIX   0
K1    3    0.804348    0.500000    0.804348    10.50000    0.28221    0.17560 =
         0.28221    0.02356    0.11616   -0.02356
O2    4    0.927011    0.692692    0.634667    11.00000   31.00000
AFIX  83
H2A   2    0.943220    0.671738    0.633098    11.00000   -1.50000
AFIX   0
O3    4    0.929735    0.630234    0.694401    11.00000   31.00000
AFIX  83
H3A   2    0.931003    0.605765    0.704598    11.00000   -1.50000
AFIX   0
O4    4    0.865347    0.561439    0.674591    11.00000   31.00000
O5    4    0.807474    0.666908    0.641341    11.00000   31.00000
O6    4    0.778911    0.610245    0.712524    11.00000   31.00000
AFIX  83
H6    2    0.783362    0.588690    0.727351    11.00000   -1.50000
AFIX   0
O12   4    0.933025    0.538189    0.698113    11.00000   31.00000
AFIX  83
H12A  2    0.953400    0.521901    0.693230    11.00000   -1.50000
AFIX   0
O13   4    0.917643    0.443031    0.703615    11.00000   31.00000
AFIX  83
H13A  2    0.922845    0.422740    0.687321    11.00000   -1.50000
AFIX   0
O14   4    0.851352    0.409450    0.665355    11.00000   31.00000
O15   4    0.817742    0.508976    0.722452    11.00000   31.00000
O16   4    0.775393    0.440685    0.757330    11.00000   31.00000
AFIX  83
H16   2    0.785569    0.416290    0.759707    11.00000   -1.50000
AFIX   0
 
OA    4    1.000000    0.500000    0.651565    10.50000   31.00000
HKLF 4
 
REM  1 in I432 #211
REM R1 =  0.0907 for     275 Fo > 4sig(Fo)  and  0.0924 for all     283 data
REM     75 parameters refined using     75 restraints
 
END  
     
WGHT      0.2000      0.0000 

REM Highest difference peak  0.162,  deepest hole -0.183,  1-sigma level  0.034
Q1    1   0.5000  0.5000  0.5000  10.04167  0.05    0.16
Q2    1   0.8239  0.4547  0.6901  11.00000  0.05    0.15
Q3    1   0.8069  0.4575  0.6818  11.00000  0.05    0.14
Q4    1   0.9988  0.5704  0.6847  11.00000  0.05    0.14
Q5    1   0.7752  0.6401  0.7631  11.00000  0.05    0.13

  REM The information below was added by Olex2.
  REM
  REM R1 = 0.0907 for 275 Fo > 4sig(Fo) and 0.0924 for all 10148 data
  REM n/a parameters refined using n/a restraints
  REM Highest difference peak 0.16, deepest hole -0.18
  REM Mean Shift 0, Max Shift 0.000.

  REM +++ Tabular Listing of Refinement Information +++
  REM R1_all = 0.0924
  REM R1_gt = 0.0907
  REM wR_ref = 0.2350
  REM GOOF = 1.283
  REM Shift_max = 0.000
  REM Shift_mean = 0
  REM Reflections_all = 10148
  REM Reflections_gt = 275
  REM Parameters = n/a
  REM Hole = -0.18
  REM Peak = 0.16
  REM Flack = 0.06(15)

  
;
_cod_data_source_file            c7cp00593h3.cif
_cod_data_source_block           CDMOF_a_1_36GPa
_cod_depositor_comments
'Adding full bibliography for 7227776--7227790.cif.'
_cod_original_cell_volume        29499(5)
_cod_database_code               7227784
#BEGIN Tags that were not found in dictionaries:
_shelx_shelxl_version_number     2014/7
_chemical_oxdiff_formula         'C48 H82 K2 O40'
_shelx_space_group_comment
;
The symmetry employed for this shelxl refinement is uniquely defined
by the following loop, which should always be used as a source of
symmetry information in preference to the above space-group names.
They are only intended as comments.
;
_reflns_odcompleteness_completeness 88.94
_reflns_odcompleteness_iscentric 1
_reflns_odcompleteness_theta     10.20
_olex2_refinement_description
;
1. Fixed Uiso
 At 1.2 times of:
  All C(H) groups, All C(H,H) groups
 At 1.5 times of:
  All O(H) groups
2. Restrained distances
 C16-C15
 1.5 with sigma of 0.002
 C14-C15
 1.5 with sigma of 0.002
 O14-C15
 2.4 with sigma of 0.02
 C14-O14
 1.45 with sigma of 0.002
 C14-C13
 1.5 with sigma of 0.02
 O2-C3
 2.2 with sigma of 0.02
 O3-C3
 1.45 with sigma of 0.002
 C11-O4
 1.45 with sigma of 0.002
 C11-C14
 3 with sigma of 0.02
 C4-O4
 1.45 with sigma of 0.002
 C4-C3
 1.5 with sigma of 0.002
 C12-O4
 2 with sigma of 0.02
 C12-C15
 3 with sigma of 0.02
 C12-C13
 1.5 with sigma of 0.02
 C12-O12
 1.45 with sigma of 0.02
 C15-C12
 3 with sigma of 0.02
 C12-C11
 1.5 with sigma of 0.002
 C2-C3
 1.5 with sigma of 0.002
 C2-O2
 1.45 with sigma of 0.002
 C2-O3
 2.3 with sigma of 0.02
 C1-C4
 2.8 with sigma of 0.02
 C2-C1
 1.5 with sigma of 0.002
 O13-C13
 1.45 with sigma of 0.002
 C6-C5
 1.5 with sigma of 0.002
 C4-C5
 1.5 with sigma of 0.002
 C2-C5
 3 with sigma of 0.02
 C5-C2
 3 with sigma of 0.02
 C5-C1
 2.3 with sigma of 0.002
 O5-C6
 2.5 with sigma of 0.02
 O15-C16
 2.2 with sigma of 0.02
 O15-C15
 1.45 with sigma of 0.002
 O5-C3
 3 with sigma of 0.02
 O15-C13
 3 with sigma of 0.02
 O15-C11
 1.45 with sigma of 0.002
 O5-C1
 1.45 with sigma of 0.002
 O5-C5
 1.45 with sigma of 0.002
 C16-O16
 1.45 with sigma of 0.002
 C6-O6
 1.45 with sigma of 0.002
 C13-C15
 2.4 with sigma of 0.02
 O14-C15
 2.5 with sigma of 0.04
 C13-O14
 2.5 with sigma of 0.04
 C11-C13
 2.4 with sigma of 0.02
 C15-C11
 2.4 with sigma of 0.02
 C11-C4
 2.5 with sigma of 0.04
 C12-C14
 2.4 with sigma of 0.02
 O2-C3
 2.5 with sigma of 0.04
 C4-C2
 2.5 with sigma of 0.02
 C4-C11
 2.5 with sigma of 0.04
 O4-C3
 2.5 with sigma of 0.04
 O4-C12
 2.5 with sigma of 0.04
 C3-C1
 2.5 with sigma of 0.02
 O2-C1
 2.5 with sigma of 0.04
 C3-O4
 2.1 with sigma of 0.04
 O3-C4
 2.5 with sigma of 0.04
 O3-C2
 2.5 with sigma of 0.04
 C14-C16
 2.5 with sigma of 0.04
 C5-C3
 2.5 with sigma of 0.02
 O4-C5
 2.5 with sigma of 0.04
 C6-C4
 2.5 with sigma of 0.04
 C14-O15
 2.4 with sigma of 0.02
 O5-C4
 2.5 with sigma of 0.02
 O15-C12
 2.4 with sigma of 0.02
 C2-O5
 2.5 with sigma of 0.02
 O4-O15
 2.5 with sigma of 0.04
 O15-C16
 2.5 with sigma of 0.04
 C6-O5
 2.5 with sigma of 0.04
 C1-C5
 2.5 with sigma of 0.04
 C1-C3
 2.5 with sigma of 0.04
 O6-C5
 2.7 with sigma of 0.04
3. Uiso/Uaniso restraints and constraints
Uanis(K1) \\sim Ueq: with sigma of 0.1 and sigma for terminal atoms of 0.2
4. Others
 Uiso(C1)=Uiso(C2)=Uiso(C3)=Uiso(C4)=Uiso(C5)=Uiso(C6)=Uiso(C11)=Uiso(C12)=
 Uiso(C13)=Uiso(C14)=Uiso(C15)=Uiso(C16)=FVAR(1)
 Uiso(O2)=Uiso(O3)=Uiso(O4)=Uiso(O5)=Uiso(O6)=Uiso(O12)=Uiso(O13)=Uiso(O14)=
 Uiso(O15)=Uiso(O16)=Uiso(OA)=FVAR(2)
5.a Ternary CH refined with riding coordinates:
 C1(H1), C2(H2), C3(H3), C4(H4), C5(H5), C11(H11), C12(H12), C13(H13),
 C14(H14), C15(H15)
5.b Secondary CH2 refined with riding coordinates:
 C6(H6A,H6B), C16(H16B,H16A)
5.c Tetrahedral OH refined with riding coordinates:
 O2(H2A), O3(H3A), O6(H6), O12(H12A), O13(H13A), O16(H16)
;
_shelx_fab_file
;
-7 -11 -8 21.8125 27.1334
-7 -10 -9 15.7563 -0.7420
-6 -11 -9 -17.2613 9.2599
-6 -11 -7 17.0687 25.2723
-6 -10 -8 -27.8267 -5.6659
-6 -9 -7 1.6160 -12.5824
-5 -13 -6 25.5600 -9.2901
-5 -12 -7 4.3402 11.2539
-5 -11 -8 10.7611 1.5389
-5 -11 -6 -16.8546 -7.6167
-5 -10 -9 -16.6555 -5.8218
-5 -10 -7 -53.3323 -26.8542
-5 -9 -8 5.9443 5.7088
-5 -9 -6 18.9603 -35.6658
-5 -8 -7 31.3664 -5.8232
-5 -7 -6 38.9753 16.0534
-4 -13 -7 3.9819 1.9261
-4 -13 -5 4.4300 18.8966
-4 -12 -8 32.4589 -39.0296
-4 -12 -6 30.9279 -5.7345
-4 -11 -9 21.3703 -4.5878
-4 -11 -7 0.1754 6.9261
-4 -11 -5 8.3377 29.2244
-4 -10 -8 -3.9362 -40.5481
-4 -10 -6 -22.8443 -85.9633
-4 -9 -7 -1.0043 -14.1266
-4 -9 -5 -23.8203 -34.6043
-4 -8 -6 34.8960 -36.0200
-3 -14 -5 -30.0477 -18.1336
-3 -13 -6 -27.1878 -16.7309
-3 -13 -4 -17.2410 -24.8966
-3 -12 -9 27.8009 16.1847
-3 -12 -7 6.9915 -10.8747
-3 -12 -5 -8.4072 -4.9049
-3 -11 -10 0.4910 17.8477
-3 -11 -8 -16.3764 26.7434
-3 -11 -6 -8.9155 -15.1747
-3 -11 -4 -30.2736 8.1940
-3 -10 -9 9.6663 -3.6297
-3 -10 -7 -23.2146 20.3130
-3 -10 -5 -61.6976 16.3918
-3 -9 -8 -11.4402 -1.1377
-3 -9 -6 -34.7142 25.3618
-3 -9 -4 40.9580 53.9771
-3 -8 -7 -56.4502 22.9041
-3 -8 -5 -54.9575 64.2539
-3 -7 -6 -29.2773 34.4409
-3 -7 -4 -41.9904 165.4528
-3 -6 -5 -46.1232 25.1864
-3 -5 -4 -43.7376 76.6474
-2 -15 -3 17.4968 26.3173
-2 -14 -6 12.4497 26.4219
-2 -14 -4 -43.3082 34.1085
-2 -13 -5 -6.4844 5.6438
-2 -13 -3 29.1864 71.3099
-2 -12 -8 28.6768 20.6932
-2 -12 -6 19.2819 -68.4918
-2 -12 -4 -51.7917 22.8192
-2 -11 -9 16.0964 21.0924
-2 -11 -7 -22.9785 25.3030
-2 -11 -5 -26.8504 -3.9009
-2 -11 -3 -19.7530 60.0839
-2 -10 -8 -26.2809 -38.8681
-2 -10 -6 15.7846 -43.9745
-2 -10 -4 75.8220 -11.2036
-2 -9 -7 37.6936 -8.3549
-2 -9 -5 -13.9782 36.4080
-2 -9 -3 16.4892 -24.4242
-2 -8 -6 -44.5405 -46.0500
-2 -8 -4 117.1076 60.2874
-2 -7 -5 2.1717 -2.4572
-2 -7 -3 6.6749 9.8734
-2 -6 -4 -11.3039 70.1085
-2 -5 -3 -16.5209 -30.9174
-1 -15 -2 66.7602 12.6171
-1 -14 -5 -1.7827 21.2209
-1 -14 -3 9.3769 39.1173
-1 -13 -8 14.8323 4.6657
-1 -13 -6 26.1970 -25.8627
-1 -13 -4 -12.8083 36.7116
-1 -13 -2 161.7692 10.9295
-1 -12 -9 53.7740 12.5109
-1 -12 -7 44.1346 10.3365
-1 -12 -5 -8.1559 -56.6690
-1 -12 -3 -35.7752 56.7503
-1 -11 -10 6.7476 -2.1095
-1 -11 -6 -45.0392 -30.9038
-1 -11 -4 25.8325 -36.6322
-1 -11 -2 62.5048 6.8771
-1 -10 -9 32.5954 -5.5714
-1 -10 -5 -17.9639 -22.0287
-1 -10 -3 7.0992 -36.0776
-1 -9 -8 -28.6782 -30.8927
-1 -9 -6 -36.2614 -29.9669
-1 -9 -4 120.7755 7.5430
-1 -9 -2 60.8696 -60.1775
-1 -8 -7 -35.5432 -32.6006
-1 -8 -5 -156.0467 -14.5542
-1 -8 -3 1.7372 -38.9935
-1 -7 -6 -92.0892 -33.2767
-1 -7 -4 36.5422 14.5656
-1 -7 -2 85.0389 19.1309
-1 -6 -5 -108.1328 -34.6770
-1 -6 -3 -58.5676 -9.1349
-1 -5 -4 -20.0758 47.2269
-1 -5 -2 8.0129 -10.7945
-1 -4 -3 -6.3467 -22.0445
0 4 4 -83.8028 0.0000
0 5 3 -57.2557 0.0000
0 6 0 -99.6009 0.0000
0 6 2 -185.0941 0.0000
0 6 4 60.6662 -0.0000
0 6 6 -149.4717 0.0000
0 7 3 -35.6680 0.0000
0 7 7 111.3888 -0.0000
0 8 0 -163.8103 0.0000
0 8 2 -45.1196 0.0000
0 8 6 48.2533 -0.0000
0 8 8 -7.1129 0.0000
0 9 1 -48.5019 0.0000
0 9 3 12.9586 -0.0000
0 9 5 -20.2831 0.0000
0 9 9 102.8589 -0.0000
0 10 0 -114.2533 0.0000
0 10 2 107.6613 -0.0000
0 10 4 85.9029 -0.0000
0 10 6 -36.5940 0.0000
0 10 8 40.9864 -0.0000
0 10 10 23.5492 -0.0000
0 11 5 -45.5727 0.0000
0 11 7 -20.5878 0.0000
0 11 9 38.4543 -0.0000
0 12 0 96.4204 -0.0000
0 12 2 -32.0909 0.0000
0 12 6 21.5886 -0.0000
0 12 8 20.6191 -0.0000
0 13 3 101.0290 -0.0000
0 13 5 17.0564 -0.0000
0 13 7 -10.4034 0.0000
0 14 0 -124.3542 0.0000
0 14 4 -31.5442 0.0000
0 15 3 66.3140 -0.0000
1 4 3 -6.3467 22.0445
1 5 2 8.0129 10.7945
1 5 4 -20.0758 -47.2269
1 6 1 198.7500 0.0000
1 6 3 -58.5676 9.1349
1 6 5 -108.1328 34.6770
1 7 2 85.0389 -19.1309
1 7 4 36.5422 -14.5656
1 7 6 -92.0892 33.2767
1 8 1 87.5160 -0.0000
1 8 3 1.7372 38.9935
1 8 5 -156.0467 14.5542
1 8 7 -35.5432 32.6006
1 9 2 60.8696 60.1775
1 9 4 120.7755 -7.5430
1 9 6 -36.2614 29.9669
1 9 8 -28.6782 30.8927
1 10 1 32.5642 0.0000
1 10 3 7.0992 36.0776
1 10 5 -17.9639 22.0287
1 10 9 32.5954 5.5714
1 11 2 62.5048 -6.8771
1 11 4 25.8325 36.6322
1 11 6 -45.0392 30.9038
1 11 10 6.7476 2.1095
1 12 1 -0.2800 -0.0000
1 12 3 -35.7752 -56.7503
1 12 5 -8.1559 56.6690
1 12 7 44.1346 -10.3365
1 12 9 53.7740 -12.5109
1 13 2 161.7692 -10.9295
1 13 4 -12.8083 -36.7116
1 13 6 26.1970 25.8627
1 14 3 9.3769 -39.1173
1 14 5 -1.7827 -21.2209
1 15 2 66.7602 -12.6171
2 4 2 -99.6407 0.0000
2 5 3 -16.5209 30.9174
2 5 5 83.5877 0.0000
2 6 2 36.0496 0.0000
2 6 4 -11.3039 -70.1085
2 6 6 180.9444 0.0000
2 7 3 6.6749 -9.8734
2 7 5 2.1717 2.4572
2 7 7 35.9976 -0.0000
2 8 2 -7.3486 0.0000
2 8 4 117.1076 -60.2874
2 8 6 -44.5405 46.0500
2 8 8 55.0657 0.0000
2 9 3 16.4892 24.4242
2 9 5 -13.9782 -36.4080
2 9 7 37.6936 8.3549
2 9 9 32.0313 -0.0000
2 10 2 -10.8245 0.0000
2 10 4 75.8220 11.2036
2 10 6 15.7846 43.9745
2 10 8 -26.2809 38.8681
2 10 10 -1.1380 0.0000
2 11 3 -19.7530 -60.0839
2 11 5 -26.8504 3.9009
2 11 7 -22.9785 -25.3030
2 11 9 16.0964 -21.0924
2 12 2 67.1629 -0.0000
2 12 4 -51.7917 -22.8192
2 12 6 19.2819 68.4918
2 12 8 28.6768 -20.6932
2 13 3 29.1864 -71.3099
2 13 5 -6.4844 -5.6438
2 14 2 6.0493 0.0000
2 14 4 -43.3082 -34.1085
2 14 6 12.4497 -26.4219
2 15 3 17.4968 -26.3173
3 4 3 -220.6149 0.0000
3 5 4 -43.7376 -76.6474
3 6 5 -46.1232 -25.1864
3 7 4 -41.9904 -165.4528
3 7 6 -29.2773 -34.4409
3 8 3 -91.2219 0.0000
3 8 5 -54.9575 -64.2539
3 8 7 -56.4502 -22.9041
3 9 4 40.9580 -53.9771
3 9 6 -34.7142 -25.3618
3 9 8 -11.4402 1.1377
3 10 3 -46.0019 -0.0000
3 10 5 -61.6976 -16.3918
3 10 7 -23.2146 -20.3130
3 10 9 9.6663 3.6297
3 11 4 -30.2736 -8.1940
3 11 6 -8.9155 15.1747
3 11 8 -16.3764 -26.7434
3 11 10 0.4910 -17.8477
3 12 3 -87.8162 0.0000
3 12 5 -8.4072 4.9049
3 12 7 6.9915 10.8747
3 12 9 27.8009 -16.1847
3 13 4 -17.2410 24.8966
3 13 6 -27.1878 16.7309
3 14 3 -50.8422 -0.0000
3 14 5 -30.0477 18.1336
4 6 4 110.2546 0.0000
4 6 6 -2.8399 0.0000
4 7 7 -59.4474 0.0000
4 8 4 -13.1080 0.0000
4 8 6 34.8960 36.0200
4 8 8 -17.9809 0.0000
4 9 5 -23.8203 34.6043
4 9 7 -1.0043 14.1266
4 9 9 22.9399 -0.0000
4 10 4 17.9652 0.0000
4 10 6 -22.8443 85.9633
4 10 8 -3.9362 40.5481
4 10 10 5.0617 0.0000
4 11 5 8.3377 -29.2244
4 11 7 0.1754 -6.9261
4 11 9 21.3703 4.5878
4 12 6 30.9279 5.7345
4 12 8 32.4589 39.0296
4 13 5 4.4300 -18.8966
4 14 4 -12.7642 0.0000
5 7 6 38.9753 -16.0534
5 8 5 -4.5533 0.0000
5 8 7 31.3664 5.8232
5 9 6 18.9603 35.6658
5 9 8 5.9443 -5.7088
5 10 7 -53.3323 26.8542
5 10 9 -16.6555 5.8218
5 11 6 -16.8546 7.6167
5 11 8 10.7611 -1.5389
5 12 5 1.5684 0.0000
5 12 7 4.3402 -11.2539
5 13 6 25.5600 9.2901
6 8 8 9.9620 -0.0000
6 9 7 1.6160 12.5824
6 9 9 -4.9399 0.0000
6 10 6 -57.4031 0.0000
6 10 8 -27.8267 5.6659
6 11 7 17.0687 -25.2723
6 11 9 -17.2613 -9.2599
6 12 6 48.0693 0.0000
7 10 9 15.7563 0.7420
7 11 8 21.8125 -27.1334
0 0 0 0.0 0.0
;
_olex2_exptl_crystal_mounting_method 'Diamond-anvil cell'
_olex2_submission_special_instructions 'No special instructions were received'
_oxdiff_exptl_absorpt_empirical_details
;
Empirical correction (ABSPACK) includes:
- Absorption correction using spherical harmonics
- Frame scaling
;
_oxdiff_exptl_absorpt_empirical_full_max 2.197
_oxdiff_exptl_absorpt_empirical_full_min 0.750
#END Tags that were not found in dictionaries
loop_
_space_group_symop_id
_space_group_symop_operation_xyz
1 'x, y, z'
2 '-y, x, z'
3 '-x, -y, z'
4 'y, -x, z'
5 'x, -z, y'
6 'x, -y, -z'
7 'x, z, -y'
8 'z, y, -x'
9 '-x, y, -z'
10 '-z, y, x'
11 'z, x, y'
12 'y, z, x'
13 '-y, -z, x'
14 'z, -x, -y'
15 '-y, z, -x'
16 '-z, -x, y'
17 '-z, x, -y'
18 'y, -z, -x'
19 'y, x, -z'
20 '-y, -x, -z'
21 '-x, z, y'
22 '-x, -z, -y'
23 'z, -y, x'
24 '-z, -y, -x'
25 'x+1/2, y+1/2, z+1/2'
26 '-y+1/2, x+1/2, z+1/2'
27 '-x+1/2, -y+1/2, z+1/2'
28 'y+1/2, -x+1/2, z+1/2'
29 'x+1/2, -z+1/2, y+1/2'
30 'x+1/2, -y+1/2, -z+1/2'
31 'x+1/2, z+1/2, -y+1/2'
32 'z+1/2, y+1/2, -x+1/2'
33 '-x+1/2, y+1/2, -z+1/2'
34 '-z+1/2, y+1/2, x+1/2'
35 'z+1/2, x+1/2, y+1/2'
36 'y+1/2, z+1/2, x+1/2'
37 '-y+1/2, -z+1/2, x+1/2'
38 'z+1/2, -x+1/2, -y+1/2'
39 '-y+1/2, z+1/2, -x+1/2'
40 '-z+1/2, -x+1/2, y+1/2'
41 '-z+1/2, x+1/2, -y+1/2'
42 'y+1/2, -z+1/2, -x+1/2'
43 'y+1/2, x+1/2, -z+1/2'
44 '-y+1/2, -x+1/2, -z+1/2'
45 '-x+1/2, z+1/2, y+1/2'
46 '-x+1/2, -z+1/2, -y+1/2'
47 'z+1/2, -y+1/2, x+1/2'
48 '-z+1/2, -y+1/2, -x+1/2'
loop_
_atom_site_label
_atom_site_type_symbol
_atom_site_fract_x
_atom_site_fract_y
_atom_site_fract_z
_atom_site_U_iso_or_equiv
_atom_site_adp_type
_atom_site_occupancy
_atom_site_site_symmetry_order
_atom_site_calc_flag
_atom_site_refinement_flags_posn
_atom_site_refinement_flags_adp
_atom_site_refinement_flags_occupancy
C1 C 0.8484(9) 0.6850(8) 0.6271(10) 0.157(10) Uiso 1 1 d D . .
H1 H 0.8441 0.7159 0.6215 0.188 Uiso 1 1 calc R . .
C2 C 0.8871(8) 0.6801(7) 0.6560(11) 0.157(10) Uiso 1 1 d D . .
H2 H 0.8832 0.6958 0.6832 0.188 Uiso 1 1 calc R . .
C3 C 0.8941(7) 0.6327(7) 0.6640(12) 0.157(10) Uiso 1 1 d D . .
H3 H 0.9066 0.6222 0.6368 0.188 Uiso 1 1 calc R . .
C4 C 0.8535(8) 0.6065(8) 0.6690(12) 0.157(10) Uiso 1 1 d D . .
H4 H 0.8447 0.6143 0.6984 0.188 Uiso 1 1 calc R . .
C5 C 0.8147(8) 0.6206(8) 0.6434(10) 0.157(10) Uiso 1 1 d D . .
H5 H 0.8167 0.6089 0.6140 0.188 Uiso 1 1 calc R . .
C6 C 0.7786(11) 0.5982(12) 0.6671(12) 0.157(10) Uiso 1 1 d D . .
H6A H 0.7511 0.6062 0.6543 0.188 Uiso 1 1 calc R . .
H6B H 0.7820 0.5671 0.6645 0.188 Uiso 1 1 calc R . .
C11 C 0.8541(9) 0.5372(8) 0.7132(10) 0.157(10) Uiso 1 1 d D . .
H11 H 0.8560 0.5576 0.7374 0.188 Uiso 1 1 calc R . .
C12 C 0.8963(8) 0.5134(10) 0.7120(14) 0.157(10) Uiso 1 1 d D . .
H12 H 0.9023 0.5019 0.7410 0.188 Uiso 1 1 calc R . .
C13 C 0.8928(9) 0.4756(11) 0.6807(13) 0.157(10) Uiso 1 1 d D . .
H13 H 0.8983 0.4804 0.6498 0.188 Uiso 1 1 calc R . .
C14 C 0.8548(9) 0.4461(9) 0.6944(12) 0.157(10) Uiso 1 1 d D . .
H14 H 0.8602 0.4355 0.7238 0.188 Uiso 1 1 calc R . .
C15 C 0.8135(7) 0.4717(10) 0.6942(10) 0.157(10) Uiso 1 1 d D . .
H15 H 0.8080 0.4818 0.6647 0.188 Uiso 1 1 calc R . .
C16 C 0.7727(10) 0.4522(12) 0.7119(12) 0.157(10) Uiso 1 1 d D . .
H16B H 0.7492 0.4726 0.7080 0.188 Uiso 1 1 calc R . .
H16A H 0.7659 0.4264 0.6953 0.188 Uiso 1 1 calc R . .
K1 K 0.8043(5) 0.5000 0.8043(5) 0.247(15) Uani 1 2 d S TU P
O2 O 0.9270(10) 0.6927(12) 0.6347(13) 0.269(10) Uiso 1 1 d D . .
H2A H 0.9432 0.6717 0.6331 0.403 Uiso 1 1 calc R . .
O3 O 0.9297(11) 0.6302(10) 0.6944(12) 0.269(10) Uiso 1 1 d D . .
H3A H 0.9310 0.6058 0.7046 0.403 Uiso 1 1 calc R . .
O4 O 0.8653(11) 0.5614(8) 0.6746(10) 0.269(10) Uiso 1 1 d D . .
O5 O 0.8075(8) 0.6669(9) 0.6413(11) 0.269(10) Uiso 1 1 d D . .
O6 O 0.7789(14) 0.6102(15) 0.7125(12) 0.269(10) Uiso 1 1 d D . .
H6 H 0.7834 0.5887 0.7274 0.403 Uiso 1 1 calc R . .
O12 O 0.9330(13) 0.5382(13) 0.6981(12) 0.269(10) Uiso 1 1 d D . .
H12A H 0.9534 0.5219 0.6932 0.403 Uiso 1 1 calc R . .
O13 O 0.9176(12) 0.4430(14) 0.7036(13) 0.269(10) Uiso 1 1 d D . .
H13A H 0.9228 0.4227 0.6873 0.403 Uiso 1 1 calc R . .
O14 O 0.8514(12) 0.4094(11) 0.6654(11) 0.269(10) Uiso 1 1 d D . .
O15 O 0.8177(8) 0.5090(9) 0.7225(10) 0.269(10) Uiso 1 1 d D . .
O16 O 0.7754(14) 0.4407(13) 0.7573(12) 0.269(10) Uiso 1 1 d D . .
H16 H 0.7856 0.4163 0.7597 0.403 Uiso 1 1 calc R . .
OA O 1.0000 0.5000 0.6516(19) 0.269(10) Uiso 1 2 d S T P
loop_
_atom_site_aniso_label
_atom_site_aniso_U_11
_atom_site_aniso_U_22
_atom_site_aniso_U_33
_atom_site_aniso_U_23
_atom_site_aniso_U_13
_atom_site_aniso_U_12
K1 0.282(19) 0.18(2) 0.282(19) 0.024(15) 0.116(19) -0.024(15)
loop_
_atom_type_symbol
_atom_type_description
_atom_type_scat_dispersion_real
_atom_type_scat_dispersion_imag
_atom_type_scat_source
C C 0.0033 0.0016 'International Tables Vol C Tables 4.2.6.8 and 6.1.1.4'
H H 0.0000 0.0000 'International Tables Vol C Tables 4.2.6.8 and 6.1.1.4'
K K 0.2009 0.2494 'International Tables Vol C Tables 4.2.6.8 and 6.1.1.4'
O O 0.0106 0.0060 'International Tables Vol C Tables 4.2.6.8 and 6.1.1.4'
loop_
_geom_angle_atom_site_label_1
_geom_angle_atom_site_label_2
_geom_angle_atom_site_label_3
_geom_angle
_geom_angle_site_symmetry_1
_geom_angle_site_symmetry_3
C2 C1 H1 108.2 . .
O5 C1 H1 108.2 . .
O5 C1 C2 118.5(17) . .
O14 C1 H1 108.2 7_556 .
O14 C1 C2 115(3) 7_556 .
O14 C1 O5 98(3) 7_556 .
C1 C2 H2 111.2 . .
C1 C2 C3 108.1(12) . .
C3 C2 H2 111.2 . .
O2 C2 C1 112(3) . .
O2 C2 H2 111.2 . .
O2 C2 C3 102.5(16) . .
C2 C3 H3 103.8 . .
C4 C3 C2 115.1(13) . .
C4 C3 H3 103.8 . .
O3 C3 C2 105.5(16) . .
O3 C3 H3 103.8 . .
O3 C3 C4 123(3) . .
C3 C4 H4 101.2 . .
C3 C4 C5 117.3(13) . .
C5 C4 H4 101.2 . .
O4 C4 C3 108.6(19) . .
O4 C4 H4 101.2 . .
O4 C4 C5 123(2) . .
C4 C5 H5 109.3 . .
C4 C5 C6 102(2) . .
C6 C5 H5 109.3 . .
O5 C5 C4 115.6(15) . .
O5 C5 H5 109.3 . .
O5 C5 C6 111.2(17) . .
C5 C6 H6A 109.6 . .
C5 C6 H6B 109.6 . .
H6A C6 H6B 108.1 . .
O6 C6 C5 110(3) . .
O6 C6 H6A 109.6 . .
O6 C6 H6B 109.6 . .
C12 C11 H11 106.4 . .
C12 C11 K1 104.3(17) . .
K1 C11 H11 67.2 . .
O4 C11 H11 106.4 . .
O4 C11 C12 91.4(14) . .
O4 C11 K1 164.1(17) . .
O4 C11 O15 131(3) . .
O15 C11 H11 106.4 . .
O15 C11 C12 112.5(15) . .
O15 C11 K1 44.3(15) . .
C11 C12 H12 108.6 . .
C11 C12 C13 109.3(17) . .
C13 C12 H12 108.6 . .
O12 C12 C11 116(3) . .
O12 C12 H12 108.6 . .
O12 C12 C13 106(3) . .
C12 C13 H13 119.3 . .
C12 C13 C14 109.3(19) . .
C14 C13 H13 119.3 . .
O13 C13 C12 101(3) . .
O13 C13 H13 119.3 . .
O13 C13 C14 82(2) . .
C13 C14 H14 108.9 . .
C15 C14 C13 109.6(17) . .
C15 C14 H14 108.9 . .
O14 C14 C13 110(3) . .
O14 C14 H14 108.9 . .
O14 C14 C15 110.3(17) . .
C14 C15 H15 108.7 . .
C14 C15 K1 101.3(17) . .
C16 C15 C14 120(3) . .
C16 C15 H15 108.7 . .
C16 C15 K1 71.4(14) . .
K1 C15 H15 143.6 . .
O15 C15 C14 109.8(15) . .
O15 C15 H15 108.7 . .
O15 C15 C16 100.1(15) . .
O15 C15 K1 39.6(13) . .
C15 C16 H16B 108.8 . .
C15 C16 H16A 108.8 . .
C15 C16 K1 83.6(15) . .
H16B C16 H16A 107.7 . .
K1 C16 H16B 92.2 . .
K1 C16 H16A 150.8 . .
O16 C16 C15 114(3) . .
O16 C16 H16B 108.8 . .
O16 C16 H16A 108.8 . .
O16 C16 K1 43(2) . .
C11 K1 C11 149.2(12) . 23_565
C16 K1 C11 65.0(6) 23_565 23_565
C16 K1 C11 89.7(8) 23_565 .
C16 K1 C11 89.7(8) . 23_565
C16 K1 C11 65.0(6) . .
C16 K1 C16 72.5(14) . 23_565
O2 K1 C11 104.9(7) 41_646 23_565
O2 K1 C11 104.9(7) 44_666 .
O2 K1 C11 89.7(7) 44_666 23_565
O2 K1 C11 89.7(7) 41_646 .
O2 K1 C16 82.8(11) 44_666 23_565
O2 K1 C16 82.8(11) 41_646 .
O2 K1 C16 153.0(13) 44_666 .
O2 K1 C16 153.0(13) 41_646 23_565
O2 K1 O2 123.3(19) 44_666 41_646
O2 K1 O3 53.8(7) 41_646 41_646
O2 K1 O3 97.1(10) 41_646 44_666
O2 K1 O3 53.8(7) 44_666 44_666
O2 K1 O3 97.1(10) 44_666 41_646
O3 K1 C11 57.1(8) 44_666 .
O3 K1 C11 143.5(7) 44_666 23_565
O3 K1 C11 57.1(8) 41_646 23_565
O3 K1 C11 143.5(7) 41_646 .
O3 K1 C16 122.1(8) 41_646 23_565
O3 K1 C16 105.1(9) 41_646 .
O3 K1 C16 105.1(9) 44_666 23_565
O3 K1 C16 122.1(8) 44_666 .
O3 K1 O3 121.2(17) 44_666 41_646
O15 K1 C11 127.7(12) . 23_565
O15 K1 C11 23.1(5) . .
O15 K1 C11 127.7(12) 23_565 .
O15 K1 C11 23.1(5) 23_565 23_565
O15 K1 C16 78.7(11) . 23_565
O15 K1 C16 42.3(7) . .
O15 K1 C16 78.7(11) 23_565 .
O15 K1 C16 42.3(7) 23_565 23_565
O15 K1 O2 122.8(9) 23_565 41_646
O15 K1 O2 90.6(9) 23_565 44_666
O15 K1 O2 90.6(9) . 41_646
O15 K1 O2 122.8(9) . 44_666
O15 K1 O3 79.9(9) 23_565 41_646
O15 K1 O3 138.2(9) 23_565 44_666
O15 K1 O3 138.2(9) . 41_646
O15 K1 O3 79.9(9) . 44_666
O15 K1 O15 109.1(15) 23_565 .
O16 K1 C11 85.9(11) . .
O16 K1 C11 73.7(11) 23_565 .
O16 K1 C11 73.7(11) . 23_565
O16 K1 C11 85.9(11) 23_565 23_565
O16 K1 C16 81.4(13) . 23_565
O16 K1 C16 81.3(13) 23_565 .
O16 K1 C16 23.3(8) 23_565 23_565
O16 K1 C16 23.3(8) . .
O16 K1 O2 160.8(14) 23_565 41_646
O16 K1 O2 71.7(12) 23_565 44_666
O16 K1 O2 160.8(14) . 44_666
O16 K1 O2 71.7(12) . 41_646
O16 K1 O3 141.9(11) 23_565 41_646
O16 K1 O3 82.2(12) . 41_646
O16 K1 O3 82.2(12) 23_565 44_666
O16 K1 O3 141.9(11) . 44_666
O16 K1 O15 70.4(13) 23_565 .
O16 K1 O15 64.3(12) . .
O16 K1 O15 64.3(12) 23_565 23_565
O16 K1 O15 70.4(13) . 23_565
O16 K1 O16 97(2) . 23_565
C2 O2 K1 112(2) . 42_566
C2 O2 H2A 109.5 . .
K1 O2 H2A 66.0 42_566 .
C3 O3 K1 121.9(18) . 42_566
C3 O3 H3A 109.5 . .
K1 O3 H3A 126.0 42_566 .
C11 O4 C4 122(2) . .
C1 O5 C5 105.1(3) . .
C6 O6 H6 109.5 . .
C12 O12 H12A 109.5 . .
C13 O13 H13A 109.5 . .
C1 O14 C14 114(3) 5_565 .
C11 O15 C15 115.4(16) . .
C11 O15 K1 113(2) . .
C15 O15 K1 119.3(18) . .
C16 O16 K1 114(3) . .
C16 O16 H16 109.5 . .
K1 O16 H16 118.9 . .
loop_
_geom_bond_atom_site_label_1
_geom_bond_atom_site_label_2
_geom_bond_distance
_geom_bond_site_symmetry_2
C1 H1 0.9800 .
C1 C2 1.501(3) .
C1 O5 1.449(3) .
C1 O14 1.29(4) 7_556
C2 H2 0.9800 .
C2 C3 1.501(3) .
C2 O2 1.450(3) .
C3 H3 0.9800 .
C3 C4 1.500(3) .
C3 O3 1.450(3) .
C4 H4 0.9800 .
C4 C5 1.501(3) .
C4 O4 1.450(3) .
C5 H5 0.9800 .
C5 C6 1.501(3) .
C5 O5 1.451(3) .
C6 H6A 0.9700 .
C6 H6B 0.9700 .
C6 O6 1.451(3) .
C11 H11 0.9800 .
C11 C12 1.500(3) .
C11 K1 3.41(3) .
C11 O4 1.450(3) .
C11 O15 1.450(3) .
C12 H12 0.9800 .
C12 C13 1.52(2) .
C12 O12 1.43(3) .
C13 H13 0.9800 .
C13 C14 1.55(2) .
C13 O13 1.450(3) .
C14 H14 0.9800 .
C14 C15 1.500(3) .
C14 O14 1.450(3) .
C15 H15 0.9800 .
C15 C16 1.500(3) .
C15 K1 3.52(3) .
C15 O15 1.451(3) .
C16 H16B 0.9700 .
C16 H16A 0.9700 .
C16 K1 3.36(4) .
C16 O16 1.450(3) .
K1 C11 3.41(3) 23_565
K1 C16 3.36(4) 23_565
K1 O2 2.94(4) 44_666
K1 O2 2.94(4) 41_646
K1 O3 2.97(3) 41_646
K1 O3 2.97(3) 44_666
K1 O15 2.58(3) .
K1 O15 2.58(3) 23_565
K1 O16 2.50(4) .
K1 O16 2.50(4) 23_565
O2 K1 2.94(4) 42_566
O2 H2A 0.8200 .
O3 K1 2.97(3) 42_566
O3 H3A 0.8200 .
O6 H6 0.8200 .
O12 H12A 0.8200 .
O13 H13A 0.8200 .
O14 C1 1.29(4) 5_565
O16 H16 0.8200 .
loop_
_geom_torsion_atom_site_label_1
_geom_torsion_atom_site_label_2
_geom_torsion_atom_site_label_3
_geom_torsion_atom_site_label_4
_geom_torsion
_geom_torsion_site_symmetry_1
_geom_torsion_site_symmetry_4
C1 C2 C3 C4 -37(3) . .
C1 C2 C3 O3 -176(3) . .
C1 C2 O2 K1 171.1(18) . 42_566
C2 C1 O5 C5 -64(3) . .
C2 C3 C4 C5 33(4) . .
C2 C3 C4 O4 178(3) . .
C2 C3 O3 K1 -31(3) . 42_566
C3 C2 O2 K1 -73(2) . 42_566
C3 C4 C5 C6 -161(3) . .
C3 C4 C5 O5 -41(4) . .
C3 C4 O4 C11 119(4) . .
C4 C3 O3 K1 -166(2) . 42_566
C4 C5 C6 O6 56(4) . .
C4 C5 O5 C1 52(3) . .
C5 C4 O4 C11 -98(4) . .
C6 C5 O5 C1 167(2) . .
C11 C12 C13 C14 -57(3) . .
C11 C12 C13 O13 -142(2) . .
C12 C11 O4 C4 -143(3) . .
C12 C11 O15 C15 -54(4) . .
C12 C11 O15 K1 88(2) . .
C12 C13 C14 C15 59(3) . .
C12 C13 C14 O14 -179(2) . .
C13 C14 C15 C16 -172(3) . .
C13 C14 C15 K1 -97(2) . .
C13 C14 C15 O15 -57(3) . .
C13 C14 O14 C1 131(4) . 5_565
C14 C15 C16 K1 92(2) . .
C14 C15 C16 O16 61(4) . .
C14 C15 O15 C11 55(3) . .
C14 C15 O15 K1 -84(2) . .
C15 C14 O14 C1 -108(3) . 5_565
C15 C16 O16 K1 49(4) . .
C16 C15 O15 C11 -178(3) . .
C16 C15 O15 K1 44(3) . .
K1 C11 C12 C13 100(2) . .
K1 C11 C12 O12 -141(3) . .
K1 C11 O4 C4 28(10) . .
K1 C11 O15 C15 -142(3) . .
K1 C15 C16 O16 -31(3) . .
K1 C15 O15 C11 139(3) . .
O2 C2 C3 C4 -156(3) . .
O2 C2 C3 O3 65(4) . .
O3 C3 C4 C5 163(3) . .
O3 C3 C4 O4 -52(4) . .
O4 C4 C5 C6 59(3) . .
O4 C4 C5 O5 180(3) . .
O4 C11 C12 C13 -83(3) . .
O4 C11 C12 O12 37(4) . .
O4 C11 O15 C15 60(4) . .
O4 C11 O15 K1 -159(2) . .
O5 C1 C2 C3 57(3) . .
O5 C1 C2 O2 170(2) . .
O5 C5 C6 O6 -67(4) . .
O12 C12 C13 C14 178(3) . .
O12 C12 C13 O13 93(3) . .
O13 C13 C14 C15 158(3) . .
O13 C13 C14 O14 -81(3) . .
O14 C1 C2 C3 -58(3) 7_556 .
O14 C1 C2 O2 54(3) 7_556 .
O14 C1 O5 C5 60(3) 7_556 .
O14 C14 C15 C16 66(4) . .
O14 C14 C15 K1 141(3) . .
O14 C14 C15 O15 -178(3) . .
O15 C11 C12 C13 54(3) . .
O15 C11 C12 O12 173(3) . .
O15 C11 O4 C4 95(3) . .
O15 C15 C16 K1 -28(2) . .
O15 C15 C16 O16 -59(4) . .
loop_
_refln_index_h
_refln_index_k
_refln_index_l
_refln_F_squared_meas
_refln_F_squared_sigma
_refln_scale_group_code
-2 -4 -2 1124.78 117.975 12
2 4 2 871.558 109.944 3
-4 3 1 68.0177 40.295 6
3 4 1 59.9014 28.0157 9
-3 4 -1 42.7134 46.5237 3
4 3 -1 31.6187 37.393 9
-4 -3 -1 77.7182 39.5332 5
3 -4 -1 44.1015 35.5833 4
-4 3 1 50.7123 31.0923 11
-3 -4 1 82.5366 42.02 14
-3 4 1 45.8178 34.9722 11
3 -4 1 182.341 75.149 4
3 4 -1 8.35192 38.5702 9
4 -3 -1 88.7687 39.9468 7
-3 4 1 85.5635 43.7241 3
-4 -3 1 74.289 38.9586 14
-3 -4 -1 19.0692 29.0299 5
-3 -4 -3 13581.1 516.157 12
3 -4 -3 12357.5 572.995 4
3 -4 -3 14093.3 538.302 7
-4 -3 -3 12986.2 512.839 12
-3 -4 -3 13483.6 566.296 5
-3 4 3 12762.1 549.6 3
-4 3 3 14273.4 557.097 6
-3 4 3 12841.6 532.49 6
4 4 0 16405 555.938 8
-4 4 0 15568.5 510.935 3
4 4 0 16657.4 568.461 9
-4 4 0 16835.3 558.86 6
4 -4 0 16108.2 517.551 10
4 -4 0 17911.7 579.08 7
-4 4 2 1933 177.356 6
4 -4 -2 2186.31 174.993 2
-4 -4 2 2032.28 183.181 14
4 -4 2 1861.79 194.618 10
-4 -4 -2 2069.34 187.836 5
-4 4 2 2248.23 183.041 3
-4 4 2 2082.95 184.603 1
4 -4 -2 1928.79 179.029 7
4 4 2 2056.3 186.187 8
4 4 2 2066.65 172.942 16
4 -4 -2 2078.48 188.624 4
4 -4 2 1873.03 218.007 7
4 -4 -2 2083.75 173.496 10
-4 4 2 2352.97 193.096 11
4 4 -2 1879.65 231.342 8
4 4 2 1717.47 169.936 9
0 5 1 77.3199 38.8919 3
0 -5 -1 103.529 41.5802 4
0 5 -1 45.3583 42.4798 1
0 -5 1 27.5283 50.3375 4
1 -5 0 72.9044 41.6858 5
-5 0 1 2.03622 35.8045 14
0 5 1 51.9735 32.9152 1
5 -1 0 25.7456 26.5799 10
0 -5 -1 51.576 42.1382 5
1 5 0 94.1899 55.8994 8
5 0 1 22.5674 32.103 15
-1 -5 0 70.482 50.2777 4
-5 0 -1 23.8957 38.828 13
5 0 -1 27.3024 35.4011 16
0 5 -1 23.2431 50.4669 8
-1 5 0 58.286 35.8786 6
5 0 -1 50.483 38.604 15
5 0 1 7.74464 33.2161 16
-5 0 1 96.2566 48.2179 11
0 5 -1 61.9743 45.4705 3
-5 1 0 16.5438 25.1249 6
-5 2 1 378.253 70.6751 6
5 -1 -2 379.148 79.7789 10
2 -5 -1 370.116 64.7636 7
-1 5 2 400.059 83.0529 3
5 2 -1 397.542 83.8994 15
-1 5 2 404.672 85.5725 1
-1 -5 -2 366.582 77.3166 4
-2 5 -1 443.493 102.071 3
2 -5 -1 383.601 74.7097 2
2 5 1 393.583 76.6373 9
5 -2 1 453.52 83.0817 10
-5 2 1 457.866 90.7216 11
5 2 -1 348.263 89.9614 9
-2 -5 1 532.399 117.332 4
1 5 -2 455.213 115.911 8
-1 -5 -2 375.567 71.8972 2
5 2 -1 280.87 67.7364 16
-5 -1 2 412.03 90.1304 14
2 -5 -1 379.026 80.4146 4
2 5 1 304.796 68.3833 3
5 -1 -2 442.535 84.4318 15
2 -5 -1 315.314 73.3161 5
-5 -1 2 282.512 69.3813 11
-1 5 2 376.241 75.341 6
2 5 1 313.697 71.1235 8
5 1 2 341.268 75.7846 15
2 -5 1 297.395 81.4972 7
-2 5 1 351.321 70.3485 1
-2 -5 -1 472.815 89.3279 5
2 5 -1 255.118 66.0839 9
-2 5 1 340.6 67.5267 3
-2 -5 -1 354.445 71.2812 4
5 2 1 382.618 74.5857 16
2 5 -1 369.958 82.1426 3
1 -5 -2 318.141 70.1776 2
1 5 2 348.858 74.5941 3
1 5 2 340.762 70.3068 1
-5 2 -1 398.132 73.8893 13
2 -5 1 319.833 89.969 2
-5 -1 -2 391.516 75.1476 12
-5 -1 -2 252.796 77.2208 13
-5 -2 1 378.685 71.9456 11
1 -5 -2 336.334 75.4678 5
5 -2 -1 311.616 65.2837 7
-2 5 1 232.5 59.2912 6
5 2 1 338.119 70.2093 9
5 -2 -1 277.333 66.1713 10
2 5 -1 349.893 87.5842 8
-5 1 2 283.367 69.0325 6
5 2 1 334.58 72.265 15
-5 1 2 386.327 81.3375 14
1 5 2 376.474 80.4975 8
-5 1 2 391.385 78.6881 11
1 -5 -2 311.385 74.0324 4
-5 -2 1 364.862 83.9537 14
5 -1 2 238.343 73.8364 15
-1 5 -2 564.099 144.442 1
5 -1 2 291.231 68.3115 10
5 1 -2 379.785 85.2906 15
-5 -3 -2 97.1235 50.0214 12
-5 -3 -2 6.55466 42.5188 5
-5 -3 -2 11.2952 49.1286 13
-2 5 3 49.3737 53.9529 1
-2 -5 -3 58.9792 45.5142 12
-2 5 3 45.5064 59.8314 3
-3 5 -2 41.3707 77.358 1
-5 3 2 18.4182 39.319 3
-2 -5 -3 67.7828 40.3018 5
5 3 -2 52.1254 56.4257 15
3 -5 -2 3.42657 35.8296 5
5 2 3 29.3424 36.0023 15
5 -3 2 3.27273 52.7375 7
5 3 -2 86.051 77.5661 9
3 5 2 8.28212 31.8359 3
3 5 2 36.043 38.8503 8
3 -5 -2 28.6196 38.1093 7
5 3 -2 75.7176 59.8448 16
-5 3 2 26.8275 46.8516 11
-5 3 2 34.8476 42.0458 6
5 -3 2 13.9844 51.577 10
3 -5 -2 38.6959 35.0319 4
3 -5 -2 34.3779 36.9411 2
-2 5 3 23.1573 42.1276 6
3 5 2 7.51701 45.3654 9
-5 3 2 49.5035 29.3472 14
-2 -5 -3 31.5668 41.2435 4
5 -3 0 2386.81 171.566 4
-3 5 0 2360.14 198.729 1
3 5 0 2293.48 199.045 8
3 -5 0 2615.49 200.59 2
3 5 0 2052.92 160.909 3
5 -3 0 2308.66 186.617 10
0 5 3 2299.68 220.103 3
3 5 0 2645.62 207.14 9
5 3 0 2182.83 181.018 15
5 -3 0 2406.32 194.663 7
-5 3 0 2450.41 193.085 6
-3 5 0 2419.44 197.264 3
0 -5 -3 2414.28 219.402 5
-3 5 0 2488.35 200.532 6
5 3 0 2359.2 197.912 9
3 -5 0 2452.05 198.057 7
-5 3 0 2457.73 161.857 3
5 -3 -2 69.4363 51.9774 4
-5 -2 -3 43.8067 52.1799 13
-3 5 2 64.9457 44.3404 6
3 5 -2 10.3571 57.3027 8
-3 5 2 41.2703 30.8049 11
-5 -3 2 50.3699 37.9297 14
-3 5 2 89.4299 52.8525 3
3 5 -2 20.9507 53.0302 9
5 3 2 95.9238 40.6153 15
2 5 3 167.429 78.2293 8
2 -5 -3 42.3429 50.0136 4
5 3 2 122.113 60.7162 9
5 3 2 42.4574 49.5314 16
-3 -5 -2 67.4436 48.4852 5
-3 -5 -2 29.6244 31.173 4
-5 2 3 72.5495 42.8115 11
5 -3 -2 30.1566 34.1313 10
2 5 3 4.22733 39.8976 3
3 -5 2 54.3115 63.2943 2
2 -5 -3 76.4854 53.834 2
-3 -5 -2 156.681 62.0913 13
2 -5 -3 7.15068 37.2438 7
3 -5 2 27.7639 52.7642 7
5 -3 -2 26.0843 36.2227 7
-3 -5 -2 60.3719 37.5231 12
-3 5 2 22.8138 40.1688 1
4 5 3 600.989 128.096 9
4 -5 -3 794.902 134.838 4
4 5 3 538.01 114.762 8
4 5 3 645.47 125.387 15
-5 4 3 707.661 124.828 3
4 -5 -3 850.923 121.88 2
-5 -4 -3 760.242 134.009 5
-5 4 3 673.48 120.607 11
-5 4 3 646.344 119.741 6
4 -5 -3 627.061 114.232 7
4 -5 -3 367.461 89.6442 10
4 5 3 476.8 109.804 16
5 -4 1 3870.15 257.654 10
4 -5 -1 3830.02 260.409 4
-5 4 1 4244.14 238.612 3
5 -4 1 4097.54 289.731 7
4 -5 -1 4138.3 249.167 2
4 5 1 4152.27 242.864 15
5 4 -1 3994.01 276.055 15
-4 5 -1 4186.96 299.799 6
5 4 -1 4323.08 305.978 8
-4 5 -1 3968.84 286.611 3
4 5 1 3977.53 238.765 16
-5 4 1 3880.92 262.664 6
4 5 1 4189.28 220.282 3
-5 4 1 4285.8 252.173 1
4 5 1 3909.52 268.274 9
4 -5 -1 4240.38 245.959 10
4 5 1 4066.98 272.392 8
-4 -5 1 4232.85 262.403 14
-4 5 -1 4371.19 325.049 1
5 -4 1 3908.92 283.187 2
4 -5 -1 4221.42 272.491 7
-5 -4 1 4149.16 277.359 14
5 4 1 3835.06 260.885 9
4 5 -1 4174.86 267.253 15
5 -4 -1 3643.67 240.853 10
4 5 -1 3977.08 255.135 3
5 -4 -1 4413.31 241.031 2
4 -5 1 4507.29 307.434 7
5 -4 -1 4405.35 274.373 7
-4 5 1 4001.31 262.367 1
5 4 1 3910.32 246.458 8
5 4 1 3958.25 256.594 15
5 4 1 3816.34 251.546 16
-5 4 -1 4395.08 300.141 6
5 -4 -1 3760.65 241.29 4
-4 5 1 4389.73 256.075 3
4 5 -1 4295.53 323.435 8
-5 4 -1 4196.29 274.565 3
4 -5 1 4264.55 304.074 2
-4 5 1 4162.34 271.594 6
-4 -5 -1 4249.81 234.349 4
-4 5 3 635.898 127.257 6
5 4 3 618.744 114.252 16
5 4 3 422.116 113.231 8
-4 5 3 829.707 125.828 11
5 -4 -3 639.912 108.643 2
-4 -5 -3 622.459 128.355 5
5 -4 -3 661.49 135.917 4
-4 5 3 611.109 113.447 1
5 -4 -3 342.381 82.6068 10
5 4 3 625.818 122.997 9
-4 5 3 691.762 132.294 3
5 4 3 568.498 120.384 15
5 -4 -3 544.994 109.149 7
5 -5 0 369.945 98.2217 7
-5 5 0 475.467 107.004 6
5 -5 0 362.263 86.4004 4
5 5 0 493.659 114.395 9
5 5 0 404.731 90.9412 8
5 -5 0 463.034 93.2421 10
5 5 0 449.722 96.8612 15
5 -5 0 453.756 98.6799 2
-5 5 0 439.834 99.3549 1
-5 5 0 368.01 84.2348 3
-5 -5 2 8863.09 439.579 14
5 -5 -2 8051.85 387.073 10
-5 -5 -2 9222.85 404.334 4
5 5 2 8351.97 395.746 16
5 5 2 8372.38 401.209 15
-5 5 2 7860.11 398.332 1
-5 5 -2 8615.65 525.11 3
5 5 -2 8199.68 446.607 15
5 -5 2 8007.66 427.545 10
5 -5 -2 8796.58 391.256 2
-5 5 2 8764.45 408.414 3
-5 5 2 8591.49 433.35 6
-5 5 2 7935.15 355.991 14
5 5 2 8145.23 365.794 3
5 -5 -2 8880.93 430.644 7
5 5 2 8194.03 412.626 8
5 -5 2 8256.89 481.273 7
5 5 2 8558.09 439.945 9
5 -5 -2 8476.58 418.435 4
5 5 -2 9137.03 550.376 8
-5 5 4 361.162 105.87 6
5 5 4 484.794 117.813 9
5 -5 -4 337.838 98.1267 7
-5 -5 -4 388.826 105.08 12
0 6 0 44375.1 1027.58 6
0 6 0 44008.9 1120.11 1
0 6 0 44347.4 1132.97 8
0 -6 0 43389.4 1101.85 2
-6 0 0 45255.9 979.22 6
6 0 0 44483.5 1085.11 15
6 0 0 44263.2 1069.09 10
0 6 0 47184.9 1115.4 3
6 1 -1 5947.3 336.595 15
-6 1 -1 5871.7 297.525 6
1 -6 -1 5916.12 291.382 7
-6 1 1 4426.84 254.66 6
1 6 -1 5577.65 347.684 9
-6 -1 1 5235.29 318.549 14
6 -1 -1 5154.93 300.206 15
-1 6 -1 5682.06 362.391 3
1 6 -1 6353.6 393.086 8
1 -6 -1 6243.07 311.626 2
1 6 1 5725.04 319.888 8
1 -6 1 5776.19 338.464 7
-1 6 1 5801.17 326.603 1
-1 6 1 5862.16 310.043 3
6 1 1 5415.68 287.178 9
6 -1 1 5919.79 312.16 15
-1 6 1 5784.91 307.749 8
6 -1 1 5759.91 310.236 10
6 1 -1 5781.95 299.996 10
6 1 1 6147.49 323.412 15
1 -6 1 5252.97 345.432 2
1 6 -1 5784.79 366.862 1
-1 -6 1 5191.51 347.843 2
-1 -6 -1 5822.77 294.076 2
1 6 1 6104.03 307.146 3
-6 1 1 5443.65 321.078 11
6 1 1 6252.67 309.35 10
-1 6 1 6155.81 302.926 6
-6 -1 1 5398.16 305.137 11
1 6 1 5613.31 309.966 1
6 -1 -1 5767.81 308.23 10
6 0 2 177.44 58.1439 9
6 -2 0 266.187 71.1292 7
-6 0 -2 51.2219 53.7712 13
6 0 2 72.7543 47.9795 15
6 -2 0 118.937 48.6752 15
-6 0 2 151.903 50.7988 6
6 -2 0 181.133 63.3456 10
-2 6 0 267.749 81.6406 1
0 -6 2 68.8626 47.9713 2
-2 6 0 173.869 64.9706 3
-2 6 0 127.829 57.2071 8
6 2 0 194.716 61.7671 16
2 6 0 267.026 79.889 9
-2 6 0 204.038 69.5919 6
2 6 0 121.87 58.8905 8
0 -6 -2 132.514 51.4984 4
0 6 2 90.9241 41.4301 6
0 -6 -2 190.792 64.2234 5
0 6 2 164.962 61.2436 3
2 -6 0 156.915 48.2103 7
-2 -6 0 243.764 81.9745 5
0 6 -2 135.167 78.3091 8
0 6 2 188.835 73.3264 8
6 2 0 111.242 51.0561 15
0 -6 -2 172.569 50.4704 12
2 -6 0 203.455 65.7898 2
2 6 0 149.636 47.1904 1
-2 -6 0 236.1 72.5306 4
-6 0 -2 57.2708 27.0702 12
6 -2 0 154.117 50.1724 16
2 -6 0 197.685 69.6059 4
6 2 0 157.044 54.1163 10
-6 2 0 198.562 61.7965 6
6 0 -2 100.74 55.4728 16
0 6 -2 134.378 96.7299 1
6 2 0 166.977 56.2911 9
6 0 2 248.755 82.0857 10
-6 0 2 175.827 64.9871 14
2 -6 0 156.692 53.2226 5
2 6 0 168.95 65.3709 3
0 -6 -2 198.625 58.2262 2
6 0 -2 130.329 63.6661 15
6 0 -2 95.382 56.0616 10
0 6 2 209.233 61.7749 1
-6 0 2 81.1532 40.5408 11
-2 -6 0 240.236 65.5965 2
6 0 2 121.644 56.8582 16
6 -2 2 142.267 71.9818 7
2 -6 2 36.9793 71.388 2
6 2 -2 50.2469 43.3909 16
6 2 2 21.131 43.0609 15
2 6 -2 41.0974 74.7253 8
2 -6 -2 70.7177 56.1382 4
-2 -6 -2 68.7178 34.8985 2
6 2 2 89.0703 69.1492 10
-6 2 2 67.8573 46.3466 14
-2 -6 -2 76.5256 42.4752 4
-6 2 -2 21.4461 38.2685 13
6 -2 -2 113.328 61.4067 7
6 2 -2 118.771 59.4837 10
2 -6 2 51.3253 73.2781 7
-6 -2 -2 10.9609 47.5402 13
-6 -2 -2 11.3146 30.5824 5
6 -2 2 33.9388 50.0334 10
6 -2 -2 38.4162 39.811 16
6 2 2 5.04092 34.1119 9
2 6 2 0.3107 41.5225 9
-2 6 2 11.2883 45.8571 6
-2 6 2 145.255 62.664 1
-6 2 2 72.9239 44.847 11
-2 6 -2 156.817 138.505 1
2 6 -2 103.454 63.3142 9
2 -6 -2 15.8167 41.6877 5
-2 6 2 53.8944 47.5079 3
6 2 -2 183.02 83.901 9
6 2 2 16.2959 52.9693 16
6 -2 2 60.9966 41.9145 15
-6 -2 2 81.1207 42.8871 11
6 2 -2 4.99271 39.8387 15
6 -2 2 24.7454 32.2035 16
-2 6 2 23.5168 36.7717 8
-6 2 2 109.856 64.8181 6
-6 -2 2 32.8198 44.6086 14
2 6 2 35.6231 48.3617 1
-2 6 2 39.9188 32.9244 11
6 -2 -2 66.3165 49.263 10
2 6 2 102.069 70.0556 8
-2 6 -2 41.441 86.7756 3
6 -2 -2 93.6518 58.4434 15
-6 -2 -2 67.3486 47.5168 12
2 -6 -2 81.7057 39.8606 7
-2 -6 -2 143.876 85.7228 5
-2 -6 -2 40.5936 42.0986 12
2 -6 -2 68.6315 42.9564 2
2 6 2 12.326 37.4421 3
-1 -6 -3 1181.22 157.666 5
-1 -6 -3 1716.84 175.429 2
-1 6 3 1399.28 171.703 8
6 -3 1 1522.92 167.718 10
-3 6 -1 1738.23 191.071 6
3 -6 -1 1532.62 164.391 7
3 6 1 1451.07 150.059 1
3 6 1 1389.49 163.674 8
6 3 -1 1573.72 191.046 9
-1 6 3 1206.32 153.914 6
-3 6 -1 1446.34 178.676 3
-1 6 3 1160.71 162.317 3
-3 -6 1 1528.54 150.227 14
6 -3 1 1422.42 167.741 7
-3 6 -1 1591.94 204.508 1
-1 6 3 898.215 159.373 1
-6 3 1 1381.87 150.655 6
3 -6 -1 1403.3 154.225 2
-6 -3 -1 1417.19 148.456 5
-6 -1 3 1430.9 174.278 14
-6 3 1 1563.46 135.237 3
-1 -6 -3 1704.76 191.591 4
-3 -6 1 1555.92 187.113 2
3 6 1 1654.52 148.7 3
6 3 -1 1456.71 172.452 15
3 6 1 1410.94 160.375 9
6 3 -1 1687.59 149.288 10
6 -3 1 1598.76 149.516 15
6 -3 1 1701.23 158.232 16
6 1 3 1300.48 174.547 15
1 6 3 1302.76 163.797 3
6 3 1 1717.03 175.327 16
-6 1 3 1450.24 178.512 11
1 -6 -3 1400.66 154.167 7
3 6 -1 1617.94 204.451 8
-6 -3 1 1451.62 165.648 14
-6 3 -1 1450.17 151.169 3
6 -3 -1 1574.26 166.456 7
6 -3 -1 1488.11 140.541 4
3 6 -1 1553.54 182.586 1
3 -6 1 1492.39 182.564 2
1 6 3 1535.4 162.786 9
6 -3 -1 1516.34 163.513 10
-3 6 1 1333.5 140.664 8
1 6 3 1477.98 194.305 8
1 -6 -3 1607.07 181.973 5
6 -3 -1 1538.85 152.153 15
-3 6 1 1474.54 156.447 3
-3 6 1 1349.73 162.661 1
-3 6 1 1589.2 161.061 6
3 -6 1 1514.69 176.892 7
1 -6 -3 1490.63 168.411 2
1 6 3 1381.04 176.525 1
6 3 1 1406.63 160.848 15
-6 3 -1 1458.98 160.329 13
-6 3 -1 1328.7 158.767 6
-3 -6 -1 1405.56 137.655 2
3 6 -1 1331.05 169.546 3
-6 -3 1 1625.74 152.696 11
6 3 1 1307.37 156.657 9
1 -6 -3 1444.42 182.408 4
-6 1 3 1435.41 171.107 14
6 3 -3 70.4138 67.43 16
3 -6 -3 87.5853 63.4354 4
3 -6 -3 89.5128 54.7166 7
3 -6 -3 121.538 71.1172 2
-3 6 3 85.2238 54.6931 11
3 -6 -3 11.338 31.9564 10
-3 -6 -3 78.0099 54.4323 12
-6 3 3 17.8882 40.8497 6
6 3 3 142.135 64.9229 16
-3 6 3 71.0799 71.5506 1
3 6 3 132.203 81.3433 1
6 3 3 119.191 56.9936 15
-6 3 3 73.1715 56.7696 11
6 -3 -3 64.7416 48.5182 10
-6 -3 -3 3.12015 44.3424 12
-3 -6 -3 67.4802 44.4865 4
6 3 3 16.3007 51.4813 8
-6 -3 -3 51.5909 59.9103 13
-3 6 3 16.093 42.4746 6
6 3 3 159.585 55.1773 9
-6 -3 3 141.579 72.1607 14
3 -6 -3 141.17 71.3637 5
-3 6 3 16.2062 45.7719 8
-3 -6 -3 14.9267 54.4145 5
-3 -6 -3 50.9647 54.6563 2
6 -3 -3 13.9848 46.5734 7
-3 6 3 48.9667 49.6437 3
3 6 3 98.1446 59.8409 3
3 6 3 63.4611 49.584 8
3 6 3 82.543 56.3423 9
4 6 2 319.458 75.2906 3
-2 6 4 210.109 111.312 3
-6 4 2 293.732 96.5453 11
4 6 2 258.676 68.5131 16
4 6 2 315.223 67.1288 1
6 -4 2 364.856 97.2986 10
-6 4 2 323.879 82.7248 1
4 6 2 341.078 94.8323 9
-6 4 2 406.093 88.931 14
-6 4 2 336.833 81.1971 3
6 4 -2 613.125 132.92 15
4 -6 -2 338.288 80.0551 5
-6 4 2 316.026 76.7791 6
4 -6 -2 375.717 100.166 4
4 -6 -2 324.519 73.4023 2
-6 -4 -2 282.789 97.9035 12
-6 -4 -2 553.776 113.754 5
4 -6 -2 327.653 75.5281 10
-6 -4 -2 384.488 107.985 13
6 4 -2 397.73 103.663 16
6 4 -2 341.871 123.356 8
-4 6 -2 138.03 70.8707 3
-4 6 -2 491.447 156.756 1
6 -4 2 281.795 101.001 7
-2 -6 -4 283.852 100.337 5
4 -6 -2 424.936 106.36 7
4 6 2 419.76 117.151 8
6 4 -2 171.535 94.4339 9
4 6 2 293.152 77.8632 15
-4 -6 0 9516.98 402.342 2
-4 6 0 10363.6 478.285 1
6 -4 0 9776.93 381.133 15
6 4 0 9399.53 436.366 15
4 6 0 10153.1 469.935 9
6 -4 0 9067.63 399.221 4
6 -4 0 9824.82 458.99 7
4 6 0 9483.6 383.983 3
4 -6 0 9942.64 464.234 7
-6 4 0 9779.75 388.448 3
6 4 0 9353.93 425.457 8
-4 6 0 9514.06 452.498 6
4 6 0 9364.68 406.92 1
-4 6 0 9330.05 435.436 3
-6 4 0 10204.7 450.189 6
6 -4 0 9271.27 423.781 10
6 -4 0 9485.61 407.891 2
4 6 0 8807.61 391.63 15
-6 4 0 10631.2 441.785 1
-6 -4 0 9472.19 368.175 11
4 6 0 9225.15 463.677 8
4 6 0 9423.99 405.726 16
6 4 0 8994.63 432.816 16
4 -6 0 9447.25 449.02 2
4 -6 0 9350.69 390.043 10
6 4 0 10102.1 465.847 9
-4 -6 -2 393.796 100.518 5
-4 6 2 231.348 79.8939 6
-4 6 2 317.002 80.4592 3
-4 -6 -2 184.721 72.4048 13
6 4 2 197.444 69.518 16
6 -4 -2 487.86 104.266 4
6 -4 -2 297.202 77.4569 10
6 4 2 323.666 80.8951 8
4 -6 2 333.588 119.299 7
4 6 -2 219.841 119.711 8
2 6 4 373.091 107.003 8
6 4 2 283.491 95.0849 9
-4 6 2 240.679 71.9129 11
-6 -4 2 438.458 112.213 14
4 -6 2 425.169 139.529 4
6 -4 -2 454.674 93.8279 16
4 -6 2 18.7281 103.676 2
-4 6 2 300.802 76.1707 1
6 -4 -2 446.191 84.2885 15
6 -4 -2 376.547 93.9329 7
4 6 -2 435.562 132.174 9
6 4 2 402.967 102.456 15
-4 -6 -2 357.338 73.9041 2
-4 6 2 223.887 57.8284 8
2 -6 -4 434.994 135.235 4
6 -4 -2 332.238 77.6032 2
-4 -6 -2 204.496 69.1811 4
4 -6 -4 5396.92 369.352 7
-6 4 4 5463.74 390.414 6
-4 -6 -4 5609.63 405.1 5
-4 6 4 5290.68 378.415 6
6 -4 -4 5287.53 372.053 7
4 6 4 5429.93 398.336 8
4 6 4 5383.04 371.684 9
4 -6 -4 5998.13 385.551 2
-6 4 4 5236.1 380.598 11
4 -6 -4 5699.1 427.769 4
-4 6 4 4915.05 386.133 3
-6 5 3 4298.39 319.219 3
5 6 3 5093.87 319.75 1
5 -6 -3 5094.86 325.697 2
5 6 3 4554.19 341.326 9
-6 5 3 4637.74 334.716 6
5 -6 -3 4446.19 298.781 10
5 6 3 4930.08 356.255 8
5 -6 -3 4480.64 345.389 4
5 6 3 5602 347.849 15
-6 -5 -3 4744.42 353.461 5
6 -5 3 4503.1 409.754 7
5 6 3 4771.74 313.846 16
-6 5 3 4623.69 320.936 1
-6 5 3 4923.96 348.505 11
5 -6 -3 4294.66 316.23 7
5 -6 -1 2266.17 207.595 2
-5 6 -1 1921.25 214.494 3
6 5 -1 2025.1 234.078 8
6 -5 1 2061.35 227.564 7
6 5 -1 1771.55 197.685 15
6 -5 1 1708.73 167.269 15
6 5 -1 2171.68 229.357 9
6 -5 1 1608.36 195.808 2
5 6 1 1819.68 204.563 9
-5 -6 1 2077.26 199.924 14
6 5 -1 2073.08 217.685 16
6 -5 1 2014.33 202.909 10
5 6 1 2104.19 196.362 16
5 6 1 2071.72 162.053 3
-6 5 1 2040.52 187.508 3
6 -5 -1 1726.14 179.14 4
5 6 -1 2074.6 244.496 8
-6 -5 1 1990.59 209.63 14
5 -6 1 2151.08 229.255 7
6 5 1 1846.66 194.668 16
5 6 -1 1975.3 197.627 15
5 6 -1 1710.05 169.246 3
5 6 -1 2021.37 206.317 16
-5 -6 -1 1961.11 173.817 4
6 -5 -1 1809.87 187.889 10
-5 6 1 2108.32 196.72 3
6 5 1 1950.52 206.209 9
-6 5 -1 1846.32 191.788 3
5 -6 1 2273.52 239.759 2
5 6 -1 2368.84 248.974 1
6 -5 -1 2021.38 182.792 2
-5 6 3 4330.89 322.843 1
6 -5 -3 4926.77 297.822 15
6 -5 -3 4612.12 344.341 4
6 -5 -3 4698.49 330.126 7
6 5 3 5004.39 341.82 15
-5 6 3 4473.11 284.446 8
6 -5 -3 4462.78 308.911 10
-5 -6 -3 4865.29 359.454 5
-5 6 3 4470.49 323.152 3
6 5 3 4405.46 338.419 9
6 5 3 4445.63 319.297 16
-5 -6 -3 5142.35 283.377 2
6 5 3 4529.74 333.196 8
-5 6 3 4100.36 321.884 6
-5 6 3 4652.82 330.393 11
6 -5 -3 5004.12 314.57 2
-6 6 0 6.54994 45.3579 13
6 6 0 101.931 63.1546 8
6 -6 0 63.6771 38.5059 5
6 -6 0 0.32881 53.0726 10
-6 -6 0 58.812 73.9599 5
-6 6 0 38.5975 54.8266 6
6 6 0 29.6512 71.888 9
6 -6 0 43.1352 60.4742 4
6 6 0 45.7971 42.4538 3
6 -6 0 69.571 73.3181 2
6 -6 0 138.006 77.5559 7
-6 6 0 139.473 84.8282 3
-6 6 0 144.427 102.448 1
6 6 0 60.5232 64.5617 16
-6 -6 0 37.7777 61.0035 4
6 6 0 26.444 62.476 15
6 6 2 4729.63 318.533 15
-6 6 2 5209.53 339.804 1
6 -6 -2 4327.48 295.187 10
6 6 2 4857.77 322.536 16
-6 -6 -2 5019.31 303.475 4
6 6 2 5052.64 343.149 8
-6 -6 2 4968.24 348.574 14
6 -6 -2 5010.44 283.392 5
-6 6 2 4645.47 284.825 14
-6 6 2 4895.73 348.677 6
6 -6 -2 4890.86 306.758 2
-6 6 2 4953.54 343.095 11
6 -6 2 4373.88 324.976 10
6 6 2 5149.45 353.271 9
6 6 -2 5220.72 371.584 15
-6 6 -2 4591.88 398.095 3
6 -6 -2 4746.02 326.584 7
-6 -6 -2 4580.38 246.135 2
6 -6 -4 1356.88 184.232 2
-6 6 4 1213.43 183.762 11
-6 6 4 819.041 155.763 3
-6 6 4 1146.47 199.749 6
-6 6 4 1408.07 210.141 1
6 -6 -4 1284.29 187.323 7
6 -6 -4 1239.43 200.229 4
0 7 -1 528.718 133.172 8
-1 7 0 536.257 111.984 8
7 1 0 486.562 112.04 16
7 0 -1 381.001 88.983 10
-7 0 1 412.56 84.5449 6
-1 -7 0 438.552 101.739 2
1 -7 0 478.611 105.662 2
-7 0 -1 498.908 89.2309 6
0 -7 1 469.405 120.045 2
0 -7 -1 452.737 90.2745 2
0 7 1 514.765 92.2407 6
-7 -1 0 504.532 74.4008 6
7 1 0 520.103 102.782 9
0 7 1 490.931 104.045 1
7 0 1 464.783 97.2057 10
1 7 0 505.677 83.761 6
7 0 1 469.114 104.72 16
7 1 0 411.524 104.599 15
7 0 -1 421.253 103.927 15
0 7 1 447.383 110.768 8
0 7 -1 568.95 132.34 1
0 7 -1 357.151 103.538 3
7 1 0 392.476 89.9076 10
7 -1 0 258.261 78.3422 10
0 -7 1 366.429 99.2337 7
7 0 1 349.932 90.6292 15
1 7 0 348.625 86.176 3
-7 1 0 371.414 72.523 6
-7 0 -1 523.202 95.4177 12
0 -7 -1 601.078 94.517 7
0 -7 -1 666.589 126.467 4
0 7 -1 441.671 88.1152 9
1 7 0 467.445 89.9318 9
1 7 0 414.928 108.666 8
-1 -7 0 570.282 128.591 5
1 7 0 495.306 112.489 1
0 7 1 421.196 89.9111 3
7 0 1 522.805 88.4184 9
-7 0 1 523.094 106.767 11
1 -7 0 396.726 86.3761 7
7 -1 0 467.257 90.1779 7
7 -1 0 567.439 111.536 15
-1 7 0 435.591 105.469 1
7 1 2 1268.85 154.266 9
-2 7 -1 1180.54 178.632 1
2 7 1 1283.19 149.121 9
2 7 1 1224.77 148.48 3
-1 7 2 1092.29 145.559 3
2 7 1 1069.73 109.452 6
1 -7 2 944.47 203.12 2
2 7 1 1136.89 157.011 8
1 7 -2 1162.56 188.191 8
-7 2 1 1162.22 144.395 6
7 -2 1 1398.08 163.317 7
2 -7 -1 1363.54 178.633 4
-7 1 -2 967.216 125.898 12
1 7 -2 1067.13 194.243 3
-7 2 1 1343.28 171.87 11
7 -2 1 1009.52 146.572 10
7 -2 1 1179.08 144.98 15
7 1 2 1080.68 148.785 16
-2 -7 1 1043.87 160.083 2
-7 -1 2 1039 148.737 11
-1 -7 -2 1211.45 164.369 5
-7 -2 -1 1304.86 132.907 5
-1 7 2 1470.63 170.921 8
7 2 -1 1222.18 166.858 15
-2 7 -1 1243 171.365 3
2 7 1 1241.6 153.657 1
-2 7 -1 1093.47 152.103 6
2 -7 -1 1232.13 146.403 2
7 -1 -2 1356.31 161.342 10
7 -1 -2 1322.82 145.004 7
-1 7 2 1289.81 170.832 1
7 1 2 1294.1 158.216 10
-7 -1 2 1433.3 183.457 14
2 -7 -1 1341.04 150.462 7
7 -1 -2 1283.97 168.926 15
7 2 -1 1211.21 144.363 10
7 1 2 1087.73 160.176 15
-1 -7 -2 1411.56 159.546 2
-1 7 2 1321.98 146.564 6
7 1 -2 1072.04 143.388 10
1 7 2 1251.51 141.109 9
7 2 1 823.153 132.482 9
1 7 2 1298.8 155.75 3
7 2 1 1153.26 142.072 10
-7 -2 1 1185 140.821 11
2 -7 1 1185.85 180.712 2
-7 2 -1 1065.32 137.381 6
2 -7 1 1189.31 160.918 7
-2 7 1 1065.05 138.617 6
-7 2 -1 1296.82 127.563 12
7 -2 -1 1344.84 143.423 7
-7 -1 -2 1086.48 149.947 12
-2 7 1 1193.41 161.734 1
7 1 -2 1292.04 176.229 15
1 7 2 1159.33 159.519 8
7 -1 2 1240.54 161.376 16
7 -1 2 1047.76 123.579 9
1 7 2 1274.52 156.832 1
7 -2 -1 1108.65 151.862 10
1 -7 -2 1216.65 139.923 7
-7 1 2 1130.3 141.691 6
7 -2 -1 1247 150.258 15
-2 7 1 1109.24 112.667 11
1 -7 -2 1418.84 162.762 2
7 -1 2 1081.29 158.071 10
-7 -2 1 999.999 148.613 14
-7 1 2 1215.95 164.265 14
-2 7 1 1189.26 154.593 3
-2 7 1 1393.3 158.954 8
-7 1 2 1226.59 163.612 11
1 7 2 1104.09 124.018 6
7 -1 2 1247.46 177.339 7
2 7 -1 1066.32 156.363 3
-1 7 -2 1047.48 196.404 3
7 -1 2 1022.32 158.217 15
7 2 1 1411.78 169.05 15
2 7 -1 1243.35 176.671 9
-2 -7 -1 1351.8 155.536 2
2 7 -1 1121.81 178.413 1
7 2 3 1211.6 158.725 9
3 -7 -2 1272.28 159.378 7
-2 7 3 1234.63 163.201 6
-2 -7 -3 1444.4 190.099 4
3 7 2 1454.87 165.882 9
-3 7 -2 1267.37 209.216 3
7 3 -2 1166.85 150.182 10
-7 3 2 1123.17 138.584 1
-2 -7 -3 1686.89 177.837 2
-7 3 2 1408.39 177.436 14
7 -3 2 1410.77 165.921 15
7 -2 -3 1181.89 158.741 10
7 -3 2 1232.65 195.066 7
-7 -2 3 1202.58 174.648 14
3 7 2 1323.24 179.225 8
3 7 2 1511.81 165.275 3
-7 3 2 1415.42 153.055 3
7 3 -2 1189.77 171.861 15
-7 3 2 1251.02 177.348 11
7 2 3 1512.6 188.15 16
7 -2 -3 1489 187.508 15
3 7 2 1401.81 164.161 1
-7 3 2 1676.6 182.751 6
-2 7 3 1454.59 189.293 3
3 -7 -2 1451.4 163.099 2
-7 -3 -2 1421.25 164.929 5
-2 7 3 1192.22 174.668 1
7 -3 2 1434.81 178.695 10
7 -2 -3 1243.37 162.014 7
-3 7 -2 1451.25 239.754 1
7 2 3 1228.54 169.17 15
3 -7 -2 1198.74 126.252 10
-2 7 3 1313.64 164.354 8
7 2 3 1352.79 183.839 10
7 3 0 2562.06 236.922 16
7 -3 0 2900.58 223.456 15
-3 7 0 2911.02 245.351 6
7 3 0 3139.39 222.859 10
7 3 0 2736.12 246.301 15
-3 -7 0 2642.49 223.615 2
0 -7 -3 3402.91 257.508 2
0 7 3 2767.74 219.603 9
7 -3 0 2704.12 230.51 10
-7 3 0 2882.35 228.957 6
7 0 -3 2865.94 245.1 10
-7 0 3 3038.9 274.497 14
3 -7 0 3149.48 255.125 7
0 -7 -3 2683.13 209.55 7
3 -7 0 2830 197.327 10
7 -3 0 3269.22 247.864 7
-7 3 0 3024.12 186.843 3
7 3 0 3204.83 259.477 9
-3 7 0 2822.45 239.041 3
3 7 0 2906.39 227.343 3
0 7 3 2989.11 267.84 1
7 0 3 2099.16 250.722 10
0 7 3 2827.05 259.69 8
3 -7 0 3084.83 260.713 2
-3 7 0 3091.63 269.855 1
0 -7 -3 2452.13 240.585 5
7 0 3 2993.51 263.604 16
3 7 0 2708.42 233.292 1
-3 7 0 2914.47 244.873 8
7 0 -3 2951.43 278.913 15
7 -3 0 2958.58 194.207 4
3 7 0 2985.8 264.103 8
7 3 0 3192.55 224.598 8
-3 -7 0 2937.32 202.3 14
7 3 2 1457.87 167.261 10
-3 7 2 1414.34 175.719 6
-7 2 3 1372.23 177.032 6
7 3 2 1293.82 171.179 16
-7 -3 2 1514.34 196.048 14
7 3 2 1302.55 167.513 15
-3 7 2 1218.4 151.561 8
-3 7 2 1566.4 182.577 1
7 3 2 1192.73 160.933 9
-3 7 2 1336.79 149.445 11
2 -7 -3 1342.19 173.91 5
2 7 3 1226.18 185.788 8
7 3 2 1491.74 152.33 8
2 7 3 1369.78 177.274 3
7 2 -3 1240.04 180.709 15
3 7 -2 1148.49 175.739 3
7 -3 -2 1488.7 175.078 10
3 -7 2 1297.61 198.678 7
2 -7 -3 1206.78 175.543 4
2 7 3 1507.21 190.703 1
7 -3 -2 1497.73 170.859 15
2 -7 -3 1503.74 174.916 2
3 7 -2 1569.63 256.064 1
2 7 3 1217.13 161.107 9
-3 -7 -2 1425.99 170.049 4
7 -2 3 1171.79 181.562 10
7 -3 -2 1569.64 171.276 4
-7 -2 -3 1471.09 175.288 12
3 -7 2 646.503 193.596 2
-7 2 3 1377.61 184.202 11
2 -7 -3 1520.54 173.042 7
-7 2 3 1162.57 168.62 14
-7 -3 2 1689.93 177.867 11
7 -3 -2 1545.27 170.263 7
-3 7 2 1686.7 182.823 3
-3 -7 -2 1386.33 152.478 2
-7 -4 -3 307.845 96.7447 12
-7 4 3 324.011 90.0797 1
-3 -7 -4 139.813 79.8144 2
7 4 -3 278.886 110.273 9
7 -3 -4 328.211 105.314 7
-3 7 4 204.708 95.8163 1
-7 4 3 260.342 89.7999 11
-3 -7 -4 360.124 116.266 5
-3 7 4 264.95 117.346 6
4 7 3 535.451 149.227 8
4 7 3 252.507 71.4838 1
4 -7 -3 378.089 104.932 2
-3 -7 -4 246.051 97.1265 12
4 -7 -3 175.353 70.6824 4
-3 7 4 256.521 103.801 8
-7 4 3 259.291 102.465 6
7 -3 -4 187.876 88.7078 10
4 7 3 269.611 82.6064 16
-7 4 3 270.833 78.5378 14
-7 4 3 168.55 83.8837 3
4 -7 -3 321.892 86.1555 5
7 -4 3 230.34 118.126 10
7 -4 3 286.131 99.677 7
-3 7 4 221.24 86.8182 3
4 -7 -3 441.717 106.503 7
-7 -4 -3 304.858 107.424 13
4 7 3 208.602 78.5656 3
-7 -4 -3 304.217 97.3566 5
-3 -7 -4 106.607 80.1131 4
4 7 3 269.931 88.5346 9
4 -7 -3 217.482 57.0286 10
7 4 -3 196.135 97.7469 16
7 3 4 448.282 120.599 15
7 4 -3 372.874 121.157 15
7 4 -1 5194.29 294.604 10
7 -4 1 5779.96 315.547 15
4 7 1 5875.3 310.508 3
4 -7 -1 5542.6 341.003 2
-1 -7 -4 5671.99 366.805 2
-4 -7 1 5144.46 363.299 2
-4 -7 1 5420.54 315.565 14
4 7 1 5200.27 288.622 15
-4 7 -1 5496.81 380.537 3
-1 -7 -4 6123.97 429.924 4
7 4 -1 5408.79 360.02 15
-4 7 -1 5741.86 410.522 1
7 -4 1 6701.36 359.349 4
-7 4 1 5879.26 296.791 3
4 7 1 5298.48 307.1 1
4 7 1 5456.13 353.95 9
-1 7 4 5201.68 386.827 3
4 -7 -1 5293.76 355.503 4
4 7 1 5292.47 290.653 16
4 -7 -1 5284.82 293.428 10
4 -7 -1 5778.93 351.009 7
-1 7 4 5633.14 416.559 1
-4 7 -1 5689.98 377.35 8
7 -4 1 5433.15 369.693 7
-7 4 1 5250.36 302.493 1
4 7 1 5464.11 351.03 8
7 -4 1 4935.03 344.067 2
-7 4 1 4857.66 331.246 6
7 -4 1 5487.62 347.321 10
-4 7 -1 5308.44 377.339 6
4 -7 1 5383.12 314.27 10
-4 7 1 5314.25 343.141 6
4 -7 1 5174.31 378.361 2
-7 4 -1 5553.7 319.999 3
7 -4 -1 5380.17 303.186 15
4 7 -1 5213.24 390.781 8
1 -7 -4 5385.99 376.354 5
-4 -7 -1 5388.19 297.12 2
-7 -4 1 5348.47 308.29 11
1 -7 -4 5931.08 422.34 4
1 7 4 5773.58 411.252 1
-7 -4 1 5662.72 366.685 14
7 -4 -1 4990.58 294.855 4
7 4 1 5211.97 346.854 9
4 7 -1 5958.86 397.791 1
-7 4 -1 5544.71 338.203 13
4 7 -1 5208.3 328.49 3
-4 7 1 5464.5 312.029 8
7 4 1 4761.74 329.355 16
7 4 1 5168.79 341.009 15
7 4 1 4971.05 300.247 8
7 -4 -1 5599.87 338.428 7
1 7 4 4952.45 384.751 8
-7 4 -1 5282.77 353.462 6
4 7 -1 5301.5 324.857 15
1 -7 -4 5357.31 385.886 2
-4 7 1 6041.18 371.684 1
7 -4 -1 6282.73 306.448 2
4 7 -1 5992.81 351.145 16
7 4 1 5569.38 299.437 10
1 7 4 5349.28 384.189 3
4 -7 1 5874.23 385.231 7
7 -4 -1 5330.92 336.888 10
-4 7 1 5613.63 341.556 3
-7 3 4 304.307 103.023 6
-4 7 3 347.621 90.6716 8
7 -4 -3 269.483 92.3655 10
-4 7 3 335.021 106.041 6
3 7 4 318.932 100.644 9
7 -4 -3 272.237 90.2555 16
-7 -3 -4 146.168 87.0733 13
3 -7 -4 238.021 80.9249 2
7 4 3 390.506 113.465 15
7 4 3 339.372 97.0301 16
-4 -7 -3 427.325 107.83 4
7 -4 -3 287.566 85.3509 15
-4 -7 -3 302.791 85.8494 13
-4 7 3 228.683 71.373 1
-4 -7 -3 425.335 124.096 5
-4 7 3 123.944 61.5286 3
-4 7 3 419.921 105.55 11
7 -4 -3 216.02 82.6383 2
3 -7 -4 339.645 120.07 4
-4 -7 -3 311.366 83.8699 12
7 -4 -3 253.952 112.547 4
-7 -4 3 230.49 73.8773 14
-7 -3 -4 219.228 93.4322 12
-4 -7 -3 369.174 95.891 2
7 4 3 270.496 90.221 8
7 -4 -3 297.36 85.1468 7
3 -7 -4 263.007 91.6338 7
-7 3 4 296.048 99.2881 11
7 4 3 254.178 98.6811 9
3 7 4 269.172 124.166 8
5 -7 -4 1067.36 193.232 4
5 7 4 1089.32 183.419 9
-7 5 4 757.983 158.631 6
5 7 4 1035.6 194.301 8
-7 5 4 1081.06 189.43 11
5 -7 -4 836.815 140.132 10
-7 5 4 1204.4 197.006 1
5 -7 -4 700.301 158.446 2
5 -7 -4 787.384 157.699 7
5 7 4 1024.65 157.878 16
5 7 4 790.632 180.382 1
-5 7 -2 138.697 117.166 3
5 -7 -2 101.372 55.7108 10
5 7 2 269.105 99.3964 8
-5 7 -2 328.847 164.283 1
5 7 2 137.33 55.9643 16
7 5 -2 125.021 106.896 9
7 -5 2 117.717 48.9283 16
5 7 2 227.48 78.5981 1
7 5 -2 45.1834 108.349 8
7 -5 2 207.761 97.5599 10
-7 -5 -2 115.078 80.806 12
5 -7 -2 245.038 89.1393 7
-7 5 2 165.681 83.204 11
7 5 -2 260.774 89.516 15
7 -5 2 314.358 115.76 4
-7 5 2 208.312 83.4353 6
5 -7 -2 257.115 93.3826 4
5 7 2 335.103 93.2531 15
7 -5 2 113.602 84.322 7
-5 -7 2 78.3306 99.5147 4
5 -7 -2 281.526 87.047 2
-7 -5 -2 184.088 75.3245 5
-7 -5 -2 276.622 101.361 13
5 7 2 189.368 99.9138 9
7 5 -2 261.685 72.2578 10
5 7 0 4363.39 331.975 9
-7 5 0 4319.16 273.213 3
7 -5 0 4261.85 294.424 4
-5 7 0 4097.31 307.173 6
5 -7 0 4032.19 318.922 7
-7 5 0 4571.6 291.901 13
5 7 0 4243.97 284.961 16
7 5 0 4473.68 315.74 16
5 7 0 3832.04 284.137 1
-5 -7 0 4327.39 292.757 14
7 -5 0 4321.75 294.594 2
5 -7 0 4484.54 286.613 10
7 5 0 4505.73 341.214 9
-7 5 0 4420.44 316.091 6
-7 5 0 4217.37 305.062 1
7 -5 0 3838.14 315.794 7
-5 7 0 4345.75 306.446 3
-5 7 0 4589.26 306.824 8
-7 -5 0 4312.26 258.326 11
5 7 0 3942.71 268.775 3
-5 7 0 4189.89 330.945 1
5 7 0 3733.3 274.979 15
5 7 0 4349.65 332.711 8
7 5 0 4143.81 310.808 15
7 5 0 4338.92 250.135 10
7 -5 0 4415.92 306.249 10
7 5 0 4216.99 307.571 8
5 -7 0 4045.04 319.34 2
7 -5 0 4316.38 263.728 15
-7 5 -2 239.335 130.402 3
-7 5 -2 232.999 153.438 1
-5 -7 -2 273.537 78.2836 2
7 -5 -2 283.408 106.237 7
-5 -7 -2 271.715 80.5746 4
-5 7 2 220.298 89.8272 6
-5 -7 -2 244.75 87.3431 13
7 5 2 338.164 105.706 15
-5 7 2 216.527 101.818 11
5 7 -2 314.993 111.489 15
7 -5 -2 308.667 90.0578 4
7 5 2 172.389 82.7398 8
7 -5 -2 200.646 77.043 15
7 5 2 194.4 89.3016 16
5 7 -2 174.498 95.0481 3
-5 7 2 270.424 77.1606 8
5 -7 2 79.2077 96.044 4
-7 -5 2 163.387 93.4858 14
5 -7 2 257.015 103.53 10
5 7 -2 241.027 109.595 8
7 -5 -2 282.001 73.8314 2
5 -7 2 39.6029 106.859 2
-5 7 2 306.881 93.3913 1
7 5 2 137.73 94.7044 9
-5 -7 -2 203.546 93.6387 12
5 7 -2 261.84 87.5082 16
-5 7 4 977.745 164.058 11
-5 7 4 1019.36 179.712 6
7 -5 -4 1031.37 164.304 2
-5 7 4 504.651 147.086 8
7 5 4 866.529 148.729 8
7 5 4 796.322 152.872 16
-5 7 4 1079.82 195.24 3
4 -7 -5 544.224 128.022 7
-5 -7 -4 917.578 182.725 5
7 -5 -4 722.865 156.095 7
-5 7 4 923.327 186.744 1
-5 -7 -4 858.847 141.704 2
7 5 4 846.535 163.219 9
7 5 4 1244.31 207.554 15
6 -7 -5 663.704 179.881 7
6 -7 -5 685.973 162.993 2
6 7 5 614.16 151.23 9
6 -7 -5 563.015 130.913 10
-7 -6 -5 463.836 110.666 12
-7 6 5 675.172 173.9 6
6 7 5 556.523 158.146 8
6 7 3 829.82 144.524 3
6 7 3 974.393 156.242 16
6 -7 -3 1021.75 150.996 10
6 7 3 805.303 161.987 9
-7 6 3 798.308 140.549 1
6 -7 -3 817.622 157.857 7
7 -6 3 691.471 178.047 10
-7 -6 -3 924.912 117.947 2
6 7 3 852.216 165.753 8
6 7 3 911.443 171.627 15
6 7 3 600.399 123.582 1
7 -6 3 1048.63 218.436 7
6 -7 -3 895.015 165.304 4
7 6 -3 941.031 200.774 15
6 -7 -3 988.705 160.031 2
-7 6 3 625.113 127.294 3
-6 7 -3 883.121 244.586 3
-7 6 3 1117.28 179.141 11
-7 6 3 1055.27 190.314 6
7 6 -1 1236.57 191.285 15
7 6 -1 1665.47 205.559 16
6 7 1 1494.66 185.013 15
7 6 -1 1706.32 237.523 8
-6 7 -1 1175.54 199.552 6
6 7 1 1593.71 164.406 1
7 -6 1 1211.39 181.42 2
6 7 1 1537.59 203.686 8
7 -6 1 1505.33 211.576 7
7 6 -1 1525.82 155.535 10
7 -6 1 1917.17 232.935 4
6 -7 -1 1339.81 188.395 2
6 7 1 1500.68 183.827 16
7 -6 1 1279.72 182.248 10
6 7 1 1230.89 189.523 9
7 -6 1 1628.31 163.377 15
-6 7 -1 1470.19 211.224 3
-6 7 -1 1614.94 231.067 1
6 7 1 1692.95 163.071 3
6 -7 -1 1561.48 212.949 7
-7 6 1 1333.69 163.741 3
-7 6 1 1523.42 202.25 6
-7 6 1 1327.6 184.988 1
-7 -6 -1 1390.9 140.711 4
-6 -7 1 1586.58 188.702 14
-7 -6 1 1359.36 190.629 14
-6 7 1 1270.46 191.254 1
6 7 -1 1790.63 211.385 15
-6 7 1 1524.17 161.803 8
6 7 -1 1407.53 203.436 9
7 6 1 1407.55 188.203 15
7 6 1 1217.74 169.748 8
-7 6 -1 1065.76 175.338 3
-6 7 1 1559.54 149.348 14
6 7 -1 1470.26 197.438 16
6 7 -1 1321.64 168.885 3
7 6 1 1520.12 138.288 3
-6 -7 -1 1335.5 145.337 2
7 -6 -1 1400.4 180.173 4
7 6 1 1588.74 204.75 16
7 -6 -1 1201.38 159.979 2
7 6 1 1297.6 196.891 9
6 7 -1 1649.27 244.715 8
7 -6 -1 1580.52 155.006 15
6 -7 1 1747.85 224.678 7
7 -6 -1 1379.19 176.981 10
-7 -6 1 1308.78 157.514 11
6 -7 1 1447.02 207.689 2
7 -6 -1 1417.54 195.198 7
-6 7 1 1812.99 211.764 6
-7 6 -1 1300.65 194.953 6
6 -7 1 1230.15 158.652 10
7 6 3 840.01 159.844 15
7 6 3 693.928 121.554 1
7 6 3 838.043 159.616 16
-6 -7 -3 785.259 146.717 4
-6 -7 -3 790.199 162.868 5
6 7 -3 826.985 220.072 9
6 -7 3 609.048 195.344 7
-7 -6 3 841.779 166.686 14
-6 -7 -3 720.26 121.08 2
-6 7 3 968.902 180.479 6
7 6 3 857.808 170.871 9
-6 7 3 737.018 125.465 8
-6 7 3 710.428 152.81 11
7 6 3 753.971 149.415 8
7 -6 -3 766.071 144.327 10
7 -6 -3 881.799 133.588 15
7 -6 -3 994.974 170.297 7
7 -6 -3 669.197 139.434 4
-6 7 3 602.589 139.496 1
7 -6 -3 976.232 146.528 2
-6 7 3 932.634 161.435 3
6 7 -3 588.941 141.371 15
7 6 5 944.837 195.091 9
-6 -7 -5 506.856 136.812 12
-6 7 5 648.151 162.383 1
7 -6 -5 497.43 161.068 7
7 -6 -5 808.136 155.192 10
-6 7 5 849.182 182.172 6
-7 7 0 2012.23 244.908 1
-7 7 0 2628.75 280.045 6
7 -7 0 2382.15 188.162 15
7 -7 0 2046.31 238.607 2
7 -7 0 2558.18 196.21 5
-7 7 0 2565.96 238.751 3
-7 7 0 2532.35 212.202 13
7 7 0 2363.62 246.974 16
7 7 0 2133.08 239.232 15
7 7 0 2255.55 260.699 9
-7 -7 0 2140.23 209.847 2
-7 -7 0 2169.14 180.898 11
7 -7 0 2365.99 268.437 7
7 7 0 1971.06 242.33 8
7 -7 0 2725.23 250.024 10
-7 7 2 1003.5 148.384 14
7 7 -2 790.777 202.253 9
-7 7 -2 1021.13 197.308 3
7 7 2 953.569 160.777 15
7 7 -2 814.836 144.432 3
7 -7 2 645.358 199.435 2
7 7 2 835.963 129.075 3
7 7 -2 980.631 187.203 16
7 -7 -2 1003.43 170.382 10
7 -7 -2 1071.03 133.725 5
-7 -7 2 1028.44 180.961 14
7 7 2 825.243 159.384 9
-7 7 2 887.005 168.003 1
-7 7 2 1049.76 127.234 8
7 7 2 948.911 169.698 16
-7 7 -2 785.358 227.807 1
-7 -7 -2 809.288 132.617 4
7 7 2 790.604 161.164 8
7 7 -2 764.295 162.013 15
-7 -7 -2 888.165 114.701 2
7 -7 -2 808.822 148.48 2
7 7 -2 879.09 222.49 8
7 -7 2 934.856 169.682 10
-7 7 2 948.159 151.582 3
-7 7 -2 1000.83 212.749 6
7 -7 -2 920.443 174.879 7
-7 7 2 998.732 165.637 6
7 -7 -2 719.512 153.331 4
-7 7 2 781.768 155.961 11
7 -7 -2 1173.24 135.176 15
7 -7 2 834.279 191.514 7
7 7 -2 879.452 121.238 10
7 -7 -4 1.72711 108.984 4
-7 -7 -4 1.79693 90.2236 13
7 7 4 118.843 117.929 9
-7 7 4 56.6112 104.272 11
7 7 4 100.153 105.892 8
-7 -7 -4 46.3624 97.8868 5
-7 7 4 11.3066 88.9205 1
7 -7 -4 86.7874 72.8602 2
-7 -7 -4 39.6912 92.0347 12
-7 7 4 83.0012 94.4602 6
-7 7 4 16.1203 60.06 8
-7 7 4 32.7639 97.866 3
7 7 4 71.4931 93.035 15
7 -7 -4 18.558 85.6219 7
0 -8 0 36134.3 968.831 7
0 8 0 34526.8 1032.07 3
8 0 0 35986 1007.63 10
0 8 0 34861.1 1062.57 1
0 8 0 34482.7 1065.5 8
0 8 0 36929.1 962.635 6
0 -8 0 35490.5 1049.43 2
8 0 0 35915.6 1022.58 15
1 8 1 17868.1 639.37 3
1 -8 1 16473.1 658.713 7
1 8 -1 13997 644.543 3
-1 8 -1 16357.3 732.76 8
1 8 1 17435.1 562.373 6
8 -1 1 15848.6 629.346 15
1 -8 -1 17735.3 609.366 7
8 -1 1 16301.9 637.307 16
8 1 1 17745.5 638.425 10
1 8 -1 15827.7 703.765 1
-1 -8 -1 16727.4 542.109 7
8 1 -1 16695.1 622.998 10
-1 8 1 16891.9 663.661 1
-8 1 -1 18148.5 593.563 12
1 -8 1 15776 703.819 2
-8 1 1 16428.1 578.201 6
1 8 1 17248.4 602.78 9
-8 -1 1 16279.3 636.351 11
-8 -1 -1 16341.5 615.773 12
8 -1 -1 18642.5 608.668 7
-1 8 1 17111.8 650.011 3
-1 8 -1 16760.9 729.962 1
1 8 1 15555.2 631.361 1
8 -1 1 17675.4 643.061 7
8 1 1 16580.3 602.136 9
8 1 1 16964.6 655.731 15
-1 8 -1 15833.5 649.124 6
-1 -8 -1 17091.9 630.582 2
8 -1 -1 17436.5 641.855 10
1 8 1 15844.7 649.719 8
-8 -1 -1 17098.8 529.5 6
8 -1 1 18066.5 661.846 10
1 8 -1 17087.5 746.287 8
1 8 -1 16975.3 681.557 9
8 -1 1 16362 551.174 9
-1 -8 1 15855.2 648.572 7
8 1 -1 16642.1 668.068 15
-8 -1 1 16893 549.039 6
-1 8 1 16426 639.272 8
-1 8 -1 15893.2 693.331 3
8 -1 -1 16103.6 635.512 15
-8 1 1 17329.7 660.197 11
-1 8 1 17814 612.834 6
-8 1 -1 16772 584.11 6
-1 -8 1 15912.9 697.252 2
8 1 1 17051.3 664.528 16
2 -8 0 7619.2 438.53 2
8 0 2 7658.88 388.219 9
8 -2 0 7737.09 421.782 10
2 8 0 7318.38 419.269 1
8 0 -2 7837.17 447.042 15
0 8 -2 6944.61 521.796 3
-8 2 0 7695.57 334.816 12
2 8 0 7679.85 457.983 8
8 0 2 7551.1 422.199 16
-8 0 2 7108.05 381.582 6
0 -8 -2 6975.6 349.792 7
0 8 -2 7547.88 544.149 1
8 -2 0 8289.81 411.042 7
0 8 2 7527.46 378.066 6
8 -2 0 7804.47 403.267 15
-8 -2 0 7673.54 338.592 5
2 8 0 7354.4 404.447 9
-8 0 -2 7923.33 402.851 12
-2 8 0 7209.77 400.359 6
0 8 2 7624.04 432.945 1
-8 0 2 7666.71 437.621 11
8 2 0 7823.87 411.709 9
8 2 0 6571.22 401.897 15
0 8 2 8054.17 434.457 8
8 0 -2 7548.43 413.754 10
-2 8 0 7164.98 437.706 1
2 8 0 8318.74 346.517 6
8 0 2 7722.18 444.891 7
8 0 2 8195.14 435.507 15
8 0 -2 7530.35 360.882 7
8 2 0 8186.32 398.88 10
2 8 0 7333 405.304 3
2 -8 0 7985.33 417.843 7
-8 2 0 8227.38 398.046 6
8 0 2 7286.84 415.823 10
0 -8 -2 7988.4 407.182 2
-8 0 2 7467.42 442.902 14
-2 8 0 6886.68 410.23 3
0 8 2 7855.99 363.226 9
2 -8 2 661.378 172.441 2
8 -2 2 648.397 101.706 9
8 -2 2 1146.55 171.605 10
8 -2 -2 772.819 137.634 15
2 8 -2 563.121 140.959 9
-8 2 2 759.485 153.914 11
-2 8 2 793.237 163.283 1
8 2 2 816.287 135.257 10
-2 -8 2 785.59 190.403 2
-2 8 -2 470.556 153.186 8
2 8 -2 569.663 167.143 3
2 8 -2 695.363 163.873 1
2 8 2 735.953 129.283 9
8 2 -2 871.916 163.78 16
-2 8 2 716.818 105.753 11
8 -2 2 986.825 171.119 7
8 -2 2 753.424 131.198 16
-2 8 -2 721.957 171.149 1
8 2 -2 724.45 168.038 9
2 8 2 679.467 138.502 8
8 -2 -2 732.398 151.006 10
2 -8 -2 650.455 144.414 4
8 2 2 800.232 144.997 15
8 -2 2 708.03 136.971 15
-2 8 2 703.759 115.357 8
8 -2 -2 780.983 131.624 7
2 8 2 708.232 129.778 3
-2 -8 -2 684.492 115.774 2
-8 2 2 628.143 113.289 6
-8 -2 2 729.034 144.85 14
-8 -2 -2 508.072 101.878 5
-2 8 2 857.001 146.739 3
8 2 2 636.015 129.145 9
2 8 2 710.412 105.154 6
8 2 -2 705.505 121.041 10
-8 2 2 670.969 134.646 14
2 -8 -2 724.132 120.353 7
8 2 -2 656.018 150.925 15
-8 -2 2 799.012 135.314 11
2 -8 2 501.549 154.353 7
2 -8 -2 711.518 128.834 2
8 2 2 731.734 145.573 16
-2 8 2 740.858 134.21 6
-2 8 -2 488.014 137.336 3
-8 -2 -2 703.378 133.056 12
2 8 2 746.032 128.232 1
-1 8 3 1123.59 164.959 3
-8 3 1 1378.67 130.227 3
-8 -1 3 1127.48 181.118 14
3 8 1 1233.01 121.906 6
-1 8 3 1207.91 188.218 1
-3 -8 1 859.46 162.595 2
8 -1 -3 1018.12 167.892 15
8 1 3 1429.97 182.057 9
-8 -3 -1 1204.27 148.459 5
8 -1 -3 1290.23 172.99 10
8 -3 1 1181.68 159.097 15
3 8 1 1071.96 154.778 9
8 -3 1 1247.69 183.725 7
8 3 -1 1284.32 188.144 15
-1 -8 -3 1275.02 147.934 7
-1 8 3 1221.93 175.203 8
3 -8 -1 1208.58 129.926 10
8 -1 -3 1268.87 159.694 7
-8 3 1 1191.96 154.735 6
8 -3 1 1116.3 137.835 4
3 -8 -1 1544.89 187.72 7
3 8 1 1303.96 171.223 1
8 3 -1 1132.12 146.284 10
-1 8 3 1301.64 168.144 6
3 8 1 1063.07 171.1 8
8 1 3 1277.08 184.722 15
8 1 3 1319.39 186.309 16
-1 -8 -3 1529.62 181.812 2
-3 8 -1 1182.7 184.549 3
-1 8 3 1147.03 131.188 9
3 8 -1 956.121 160.404 3
8 3 1 1256.89 155.353 10
3 8 -1 1021.69 127.002 15
3 -8 1 1022.13 177.435 2
8 -3 -1 1199.19 152.52 15
8 -1 3 1298.48 182.87 16
8 -1 3 1134.61 187.1 15
1 -8 -3 1256.76 180.181 4
-8 1 3 1164.58 165.293 6
-8 -3 1 1388.39 190.967 14
1 -8 -3 1336.5 163.101 7
-8 3 -1 1286.54 176.888 6
8 -1 3 1143.65 194.964 10
1 8 3 1423.5 170.531 9
-3 8 1 1106.93 152.897 8
8 -3 -1 1255.75 138.1 4
-8 1 3 1203.39 180.211 11
1 8 3 1213.28 180.168 8
-8 -3 1 924.244 144.494 11
1 -8 -3 1327.07 179.762 2
3 8 -1 1186.57 177.703 1
3 -8 1 970.435 142.414 10
-8 3 -1 1386.06 181.865 13
8 3 1 1281.31 171.222 9
1 8 3 1234.72 188.107 1
-3 -8 -1 1217 159.099 2
-8 3 -1 1070.17 119.851 12
8 1 -3 1310.69 200.526 15
-8 1 3 1285.64 189.756 14
1 8 3 1076.49 161.082 3
-3 8 1 1131.56 157.822 6
8 1 -3 1051.44 153.099 10
3 8 -1 1370.79 204.946 8
3 -8 1 1307.16 182.403 7
-3 8 3 7239.2 432.841 6
-3 8 3 7158.26 443.656 1
8 -3 3 7786.86 450.197 16
8 -3 -3 6950.45 413.175 10
8 3 -3 6783.86 411.136 10
-8 3 3 8068.59 471.121 11
3 8 3 7427.22 430.353 9
-8 -3 3 7662.54 478.323 14
-3 -8 -3 6834.96 420.344 4
8 -3 3 6987.13 455.053 10
8 3 3 7065.32 430.646 9
8 3 3 6389.07 425.751 16
-8 3 3 7316.46 380.9 1
-3 8 3 6379.43 401.835 8
8 -3 -3 7463.43 422.817 7
8 3 3 6832 436.464 10
8 3 3 6650.44 380.922 8
8 3 -3 6923.79 482.851 15
8 -3 3 7279.14 513.437 7
-3 -8 -3 7428 396.146 2
3 -8 -3 8297.01 443.994 2
3 -8 -3 7524.87 421.386 7
3 8 3 7175.02 422.25 3
8 3 3 8125.91 460.655 15
-8 3 3 6837.76 422.191 6
3 8 3 7659.57 434.625 1
3 -8 -3 6805.5 340.307 10
8 -3 -3 7447.32 433.129 15
-8 3 -3 6238.35 441.455 13
-8 3 3 6628.47 423.97 14
3 8 3 7409.7 460.47 8
-3 8 3 7657.83 446.482 3
-3 8 3 7355.65 394.824 11
-8 4 2 5353.53 383.267 11
4 -8 -2 5585.21 373.204 7
8 4 -2 5588.37 405.019 15
-8 4 2 5436.21 362.223 6
-2 8 4 5416.69 425.433 1
-2 -8 -4 5791.49 415.31 4
4 -8 -2 5784.98 310.853 10
8 -2 -4 6015.9 413.723 15
4 8 2 5512.89 309.777 16
8 -2 -4 5701.06 398.526 10
4 8 2 5822.85 400.898 8
8 2 4 5853.37 432.382 15
4 8 2 5768.91 377.021 9
4 8 2 5517.07 349.199 1
8 2 4 5595.39 409.032 16
-2 -8 -4 5867.72 374.201 2
4 -8 -2 6057.54 379.492 2
-4 8 -2 5899.61 493.813 1
-8 4 2 5316.69 316.478 3
-2 -8 -4 4334.13 303.773 7
8 -4 2 6912.85 433.78 4
-2 8 4 5810.04 409.043 8
8 4 -2 5335.15 438.402 8
8 -2 -4 4794.38 344.742 7
-4 8 -2 5033.37 441.544 3
-2 8 4 5533.89 406.22 3
4 8 2 5803.52 323.125 15
8 -4 2 6455.27 371.104 15
8 4 -2 5472.4 338.852 10
-8 -4 -2 5207.23 351.968 5
-2 8 4 5209.39 383.448 6
4 8 2 6624.63 368.872 3
-8 4 2 5417.16 357.269 14
8 -4 2 5548.2 384.485 10
4 -8 -2 4959.5 375.406 4
-2 -8 -4 5169.22 398.544 5
8 -4 2 5276.64 403.694 7
8 -4 0 458.167 93.4 15
4 -8 0 457.112 125.644 7
-8 4 0 332.916 70.9621 3
-4 -8 0 528.457 134.473 4
-4 8 0 331.312 99.2977 3
-4 -8 0 257.58 90.8563 2
8 -4 0 312.773 98.65 7
8 4 0 162.175 97.0143 16
8 4 0 378.882 101.987 10
8 -4 0 318.309 99.9756 10
0 -8 -4 329.325 94.3254 4
4 8 0 302.799 82.7159 3
4 8 0 455.747 106.843 16
4 8 0 404.629 92.3776 15
-4 -8 0 414.428 94.2525 14
8 4 0 508.907 130.543 9
-4 8 0 255.431 83.6804 6
0 8 4 179.617 117.226 8
8 -4 0 410.63 91.1169 2
4 -8 0 466.059 131.19 4
4 8 0 508.952 128.045 8
8 -4 0 380.089 102.332 16
8 -4 0 476.157 96.1213 4
4 8 0 445.657 133.007 9
4 -8 0 204.041 99.3664 2
0 8 4 182.335 85.5797 3
8 4 0 263.189 91.5406 15
0 -8 -4 291.656 104.977 2
0 -8 -4 339.933 107.714 7
4 -8 0 409.363 86.8828 10
-8 4 0 436.921 111.642 1
-8 -4 0 366.992 98.3877 11
0 8 4 307.774 121.217 1
4 8 0 486.042 116.342 1
8 4 0 466.6 98.4353 8
-4 8 0 431.049 132.917 1
-4 -8 0 591.855 155.216 5
-8 4 0 319.98 93.6422 6
4 8 -2 5066.01 355.92 15
2 -8 -4 5841.25 377.825 7
-4 -8 -2 5608.54 327.585 2
2 8 4 5206.46 394.331 3
4 8 -2 5286.56 453.801 8
8 -4 -2 5229.84 339.475 15
-8 4 -2 5886.16 410.258 3
2 8 4 5571.62 377.986 9
2 -8 -4 6235.8 400.228 2
-4 8 2 5585.34 341.71 8
8 -4 -2 5693.18 305.972 2
8 -4 -2 5652.01 352.578 4
2 8 4 5571.47 427.886 8
4 8 -2 5513.96 433.316 9
-8 -4 2 5803.81 408.133 14
-8 2 4 5274.82 400.877 11
8 4 2 6184.68 396.727 15
8 4 2 5040.22 374.992 16
4 -8 2 4433.19 416.159 2
8 4 2 5468.54 339.131 10
2 -8 -4 5829.21 427.499 4
8 4 2 5353.26 378.194 9
2 8 4 5407.83 408.183 1
2 -8 -4 4456.51 357.121 5
-4 8 2 5672.23 382.072 3
8 4 2 5585.22 336.595 8
-8 -4 2 5204.04 343.602 11
4 -8 2 5340.28 411.669 7
8 -4 -2 5639.38 370.687 7
-4 8 2 5799.12 347.432 11
-4 8 2 6051.54 381.454 6
-8 4 -2 6211.6 424.527 6
-8 4 4 2787.57 301.126 11
-8 4 4 2850.38 293.139 6
4 8 4 2815.9 278.853 3
8 4 4 2579.33 279.746 9
-4 8 4 2987.37 322.074 1
4 8 4 2733.89 285.282 9
-4 8 4 3378.16 320.017 3
4 -8 -4 3171.75 318.715 4
4 -8 -4 2820.56 272.684 7
8 -4 -4 2865.37 285.987 15
8 4 4 2396.49 264.373 8
-4 8 4 2361.97 261.815 8
-4 -8 -4 2795.34 308.964 4
-4 -8 -4 2807.84 249.537 2
8 4 4 3185.55 301.57 15
8 -4 -4 2286.72 249.51 7
4 8 4 3062.52 324.945 8
4 8 4 2859.91 289.644 1
8 -4 -4 2310.81 255.814 10
4 -8 -4 3080.5 289.335 2
8 4 4 2918.81 301.243 16
-4 8 4 2904.36 294.942 6
4 8 4 2528.5 242.344 16
4 -8 -4 2490.93 226.75 10
5 -8 -3 4305.5 297.034 10
5 8 3 4352.22 323.542 3
8 -5 3 4194.36 375.923 10
-8 5 3 4115.24 343.516 6
-8 5 3 3912.82 313.794 3
5 -8 -3 4761.89 328.605 5
-3 -8 -5 4078.92 380.306 5
-3 8 5 4203.96 406.788 1
-8 -5 -3 4218.11 345.889 5
8 -5 3 4313.33 337.416 16
-8 5 3 3620.98 300.263 1
8 5 -3 3576.72 354.546 15
5 -8 -3 4746.63 341.001 2
-8 5 3 4251.32 330.582 14
-3 8 5 4225.15 385.629 3
5 8 3 4449.3 332.115 1
8 -5 3 4193.74 408.95 7
5 -8 -3 4185.79 332.819 7
5 8 3 4796.2 331.384 15
-8 5 3 4678.19 386.406 11
5 8 3 4701.89 314.606 16
5 -8 -3 3854.19 340.251 4
-5 8 -3 3622.1 472.962 3
5 8 3 4639.39 361.792 9
5 8 3 4844.23 386.233 8
5 8 1 3403.35 261.935 1
-5 8 -1 3868.09 361.131 1
-1 8 5 3371.56 362.106 1
-5 8 -1 3456.94 323.532 3
8 5 -1 3165.12 237.428 10
-5 8 -1 3608.98 328.117 6
5 -8 -1 3752.84 267.922 10
-5 -8 1 3111.36 302.191 2
-1 8 5 3002.21 334.213 3
8 -5 1 3591.85 305.369 10
-8 5 1 3660.36 276.352 1
8 -5 1 2967.83 292.62 2
8 5 -1 3335.87 306.262 8
5 -8 -1 3479.28 302.75 2
5 8 1 3401.09 309.189 8
5 -8 -1 3576.1 309.239 7
8 5 -1 3992.34 321.504 15
-5 8 -1 3200.07 308.937 8
5 8 1 3315.95 253.896 16
8 -5 1 3878.2 331.865 7
-8 -5 1 3543.19 264.298 11
8 5 1 3720.31 259.293 10
8 -5 -1 3243.54 281.822 10
-8 -5 1 3322.95 301.243 14
-5 -8 -1 3155.41 253.114 2
5 -8 1 3754.97 335.753 7
5 8 -1 3189.81 280.518 15
5 8 -1 3286.95 339.623 8
1 -8 -5 2756.53 297.511 2
1 -8 -5 2181.16 284.917 4
5 -8 1 3461.48 334.573 2
1 8 5 3547.16 356.719 8
8 -5 -1 3525.24 254.102 15
5 8 -1 3357.02 308.534 1
8 5 1 3445.5 297.441 16
5 8 -1 3791.35 291.572 16
-5 8 1 3450.3 304.021 6
-8 5 -1 3343.73 262.105 3
8 -5 -1 3340.3 248.013 2
-5 8 1 3610.71 273.897 8
5 8 -1 3429.05 279.19 3
8 -5 -1 4028.03 322.714 7
8 5 1 3378.35 272.929 8
5 -8 1 3424.11 267.668 10
3 -8 -5 4176.12 401.661 4
-5 8 3 4109.96 345.757 6
8 -5 -3 4376.01 310.991 15
-5 -8 -3 4789.85 301.026 2
-5 8 3 4142.57 341.87 3
8 -5 -3 4588.09 350.228 7
-5 8 3 4333.74 348.389 1
-5 -8 -3 4297.03 335.518 4
3 8 5 3897.09 394.098 8
-5 8 3 4486.53 301.713 8
8 5 3 4644.28 353.02 16
5 -8 3 2688.76 381.434 7
8 -5 -3 4834.37 312.041 2
3 8 5 3980.35 343.698 9
-5 8 3 4823.68 348.851 11
3 -8 -5 3980.21 344.315 7
8 5 3 4509.85 366.534 15
8 5 3 4423.76 359.978 9
8 -5 -3 4733.49 366.848 4
8 -5 -3 4650.87 349.565 10
3 -8 -5 4265.97 381.245 2
-8 -5 3 4366.66 364.487 14
8 5 5 1628.66 226.966 9
5 -8 -5 1303.91 209.83 10
-5 8 5 1846.2 252.664 3
8 -5 -5 1669.46 234.612 7
5 -8 -5 1565.07 217.135 7
5 -8 -5 1776.94 276.913 4
-5 8 5 2111.81 281.553 1
8 -5 -5 1569.92 220.889 10
-5 8 5 1808.22 255.352 6
5 -8 -5 1979.59 255.432 2
-8 5 5 1567.55 236.804 11
5 8 5 1669.08 261.782 8
5 8 5 2127.42 270.389 9
-8 5 5 1709.43 263.016 6
-8 6 4 69.6466 110.913 11
6 -8 -4 39.7602 94.4617 7
-8 6 4 140 130.811 6
6 8 4 45.8809 71.7468 1
6 8 4 125.458 97.4481 9
6 -8 -4 62.6452 99.7818 4
-8 6 4 18.1108 81.1842 3
-8 -6 -4 103.135 104.465 5
-8 -6 -4 55.4145 120.921 13
-8 6 4 129.85 97.2138 1
6 -8 -4 28.7786 68.3371 2
-8 -6 -4 1.77111 75.4553 12
6 8 4 193.34 108.767 8
6 8 4 12.362 88.306 15
6 8 4 58.5973 68.8773 16
6 -8 -4 57.8499 74.6788 10
8 6 -2 1719.78 195.196 10
8 -6 2 2225.99 259.526 10
8 -6 2 1581.03 242.978 2
-6 8 -2 1673.14 274.16 3
8 6 -2 1643.87 207.021 3
-8 6 2 2140.99 219.524 3
-6 8 -2 1987.89 301.658 1
6 8 2 1884.32 237.057 9
-8 6 2 1821.71 224.986 6
-6 -8 2 1947.98 220.091 14
8 6 -2 1611.45 235.343 15
-6 8 -2 1802.45 271.949 6
-6 -8 0 501.226 119.902 2
8 6 0 656.667 82.1035 3
-8 6 0 593.897 141.163 1
8 -6 0 493.122 131.882 4
6 -8 0 504.94 143.686 2
8 -6 0 445.755 135.42 10
-6 -8 0 595.535 122.314 14
8 6 0 459.924 139.151 9
6 -8 0 664.167 129.762 10
-6 8 0 324.972 131.923 1
6 8 0 531.372 140.175 8
8 6 0 492.42 127.282 16
8 -6 0 452.048 101.86 15
6 -8 0 702.315 168.254 7
-8 6 0 703.056 134.396 13
-8 6 0 658.108 117.636 3
-6 8 0 617.463 138.923 8
-6 8 0 667.709 114.593 13
8 -6 0 700.509 149.582 2
6 8 0 591.565 121.53 1
6 8 0 469.725 107.127 3
6 8 0 640.558 138.474 16
-8 -6 0 502.926 135.297 5
-6 8 0 704.069 162.825 6
8 6 0 432.452 115.658 15
-8 -6 0 721.031 122.381 11
8 -6 0 530.563 133.157 7
6 8 0 672.624 163.7 9
-6 8 0 709.457 159.981 3
-8 6 -2 1922.02 260.685 6
8 6 2 1798.98 222.794 16
6 -8 2 1535.05 296.507 2
-6 8 2 1476.65 157.873 14
8 -6 -2 1879.22 191.942 15
6 8 -2 1940.3 240.44 15
6 -8 2 1845.34 227.024 10
-6 8 2 2166.41 245.729 11
-8 -6 2 1971.21 250.002 14
-6 -8 -4 27.8189 66.7388 2
-6 -8 -4 54.8428 70.9406 12
8 6 4 60.2699 69.9079 15
8 6 4 49.141 83.9421 8
8 -6 -4 265.911 135.954 4
8 6 4 12.2215 88.3724 9
8 -6 -4 109.559 98.6412 2
8 -6 -4 13.0085 85.8245 15
-6 8 4 54.6643 84.5353 8
-6 -8 -4 8.4173 94.8827 5
8 6 4 79.9643 103.935 16
8 -6 -4 75.8206 80.0523 10
-6 8 4 202.35 107.823 3
-6 8 4 89.0669 105.383 1
8 -6 -4 180.858 110.542 7
-6 -8 -4 76.4166 84.0119 13
-6 8 4 263.82 126.496 6
-6 8 4 56.3886 82.5302 11
-8 -7 -5 56.2792 80.3065 12
7 -8 -5 65.413 92.5 7
7 8 5 16.1815 113.061 9
7 -8 -5 90.8192 80.4479 2
-8 7 5 51.1082 93.6685 6
-8 7 5 35.9327 118.022 1
-8 7 5 28.8769 85.9585 11
7 -8 -5 87.6206 112.931 4
7 8 5 22.8427 97.2297 8
7 -8 -5 2.75264 96.3492 10
7 8 5 61.1825 82.0791 16
7 8 3 514.786 116.933 3
-8 7 3 240.099 87.7659 6
8 -7 3 379.062 124.624 10
7 -8 -3 606.359 133.054 10
7 -8 -3 578.51 141.603 4
7 -8 -3 305.487 91.3615 5
7 -8 -3 615.812 150.057 2
-8 -7 -3 255.892 93.5009 12
-8 7 3 344.336 95.6776 14
-8 -7 -3 477.217 92.4426 2
7 8 3 286.877 129.322 9
-8 7 3 631.94 159.941 11
-8 7 3 595.083 130.417 3
-8 -7 -3 548.128 174.196 13
8 7 -3 453.426 188.574 9
-8 7 3 567.086 142.254 1
-8 7 3 545.068 103.527 8
7 8 3 558.464 134.175 15
8 -7 3 468.502 166.146 7
8 7 -3 357.675 124.448 16
8 -7 3 626.776 200.352 4
8 7 -3 670.781 218.192 8
7 -8 -3 272.257 103.879 7
-7 8 -3 642.728 252.357 3
8 7 -3 387.748 142.314 15
7 -8 -3 503.588 98.1791 15
7 8 3 483.207 127.825 16
-8 -7 -3 604.05 150.092 5
7 8 3 493.788 155.201 8
7 8 3 597.861 119.106 1
8 7 -1 4457.38 392.007 8
-7 8 -1 4880.9 374.026 3
7 -8 -1 4877.63 347.838 10
-8 -7 -1 5246.26 287.184 2
8 -7 1 4253.16 366.686 2
-8 7 1 5250.56 381.204 1
8 7 -1 4677.93 283.895 10
8 7 -1 4855.33 283.7 3
7 8 1 5107.05 385.005 8
7 8 1 5644.73 315.469 3
7 8 1 4854.71 397.711 9
7 -8 -1 5326.05 271.809 15
7 8 1 4579.47 306.61 1
8 -7 1 5793.97 332.41 15
-8 -7 -1 5197.35 295.305 4
-8 -7 -1 5195.45 283.789 11
7 8 1 4800.7 357.499 16
-8 7 1 5116.98 341.291 3
-7 -8 1 5453.39 387.264 14
8 7 -1 5659.97 433.484 9
7 -8 -1 5663.85 391.063 2
8 7 -1 5368.26 397.835 16
8 7 -1 4700.96 379.721 15
8 -7 1 4464.49 351.128 10
-7 8 -1 5114.22 440.489 1
7 -8 -1 5008.83 390.948 7
-8 7 1 5468.56 401.177 6
-7 8 -1 4668.73 408.169 6
8 -7 1 5195.08 413.995 7
7 8 1 4903.23 356.391 15
8 -7 -1 5602.59 372.724 10
7 8 -1 5232.9 430.635 8
7 -8 1 4669.69 406.745 2
7 -8 1 5507.25 366.638 10
-8 -7 1 5077.69 390.739 14
8 7 1 4771.02 390.531 9
8 7 1 5083.1 294.908 10
8 -7 -1 4643.43 395.296 7
8 7 1 5121.25 281.398 3
8 -7 -1 4741.65 352.077 4
7 -8 1 5573.16 307.374 16
-8 7 -1 5718.5 381.677 3
8 7 1 4979.23 375.673 8
-7 -8 -1 4694.85 297.652 2
7 8 -1 4868.53 404.715 1
-7 8 1 5161.4 385.182 1
8 -7 -1 5189.97 304.394 15
8 -7 -1 5179.25 358.684 2
7 -8 1 4777.76 409.337 7
8 -7 -1 5115.05 276.834 5
-8 7 -1 5154.43 440.581 1
-7 -8 -1 5168.98 254.332 11
7 8 -1 4739.03 358.55 15
-7 8 1 5844.12 313.238 13
8 7 1 5114.81 285.884 1
-7 8 1 5685.01 375.525 3
-7 8 1 4805.68 311.565 8
-8 7 -1 5161.44 356.314 13
7 8 -1 4990.92 413.249 9
7 8 -1 5182.51 385.31 16
-8 7 -1 5273.17 413.176 6
-7 8 1 4811.57 287.576 14
-7 8 1 4947.1 381.559 6
8 7 1 5104.3 374.245 15
7 8 -1 4538.81 310.437 3
8 7 1 4584.85 359.213 16
7 -8 3 371.594 136.105 7
8 -7 -3 241.022 94.3723 7
-8 -7 3 612.062 147.167 14
-7 -8 -3 491.446 95.1845 2
7 -8 3 302.508 168.867 4
-7 8 3 299.086 93.4315 8
-7 8 3 453.669 144.837 6
8 7 3 611.364 171.197 9
8 7 3 625.227 147.928 16
7 8 -3 299.922 178.985 9
-7 -8 -3 489.029 139.442 4
8 -7 -3 498.129 132.471 4
8 -7 -3 580.5 117.8 15
8 7 3 459.104 135.645 15
8 -7 -3 590.449 130.105 2
7 8 -3 116.399 150.796 8
8 -7 -3 522.945 117.184 16
8 7 3 489.175 133.476 8
7 8 -3 303.93 118.188 15
-7 -8 -3 512.661 124.377 13
8 7 3 535.382 109.761 1
8 -7 -3 447.592 120.325 10
-7 8 3 676.667 149.02 3
-7 8 3 527.788 134.582 11
-8 7 -3 419.273 201.539 3
-7 8 3 846.809 177.304 1
8 7 5 90.8077 88.9734 16
-7 8 5 27.1273 97.6381 1
-7 8 5 99.5305 113.337 6
8 7 5 78.2657 117.04 9
-7 -8 -5 77.9669 66.8473 2
8 -7 -5 10.909 83.1178 2
-7 8 5 118.583 115.037 3
8 7 5 51.9094 117.08 8
8 -7 -5 79.8792 115.777 7
-7 -8 -5 14.7441 81.8484 12
-7 -8 -5 32.3157 88.302 5
8 -7 -5 20.7269 77.5481 10
8 8 0 5923.85 441.37 8
-8 8 2 5946.59 439.163 11
8 -8 -2 5926.68 403.598 2
8 8 -2 5502.36 329.513 10
8 -8 -2 5998.99 405.259 10
8 8 2 5793.15 363.603 10
8 8 -2 5633.22 442.043 15
-8 8 2 5882.35 437.984 6
-8 -8 -2 6363.8 329.746 2
8 8 2 5293.7 335.138 3
8 8 2 5873.03 406.802 15
8 -8 -2 4600.76 374.394 4
8 8 2 6380.68 426.517 16
-8 8 2 6272.46 376.911 14
8 8 -2 5910.86 504.992 8
8 -8 2 6217.8 498.648 7
8 -8 -2 6136.65 448.677 7
-8 -8 -2 5980.35 367.424 4
8 8 2 6074.33 459.839 9
8 8 2 6374.33 346.51 1
-8 8 2 6464.21 436.703 1
8 8 2 6213.47 441.615 8
-8 -8 2 6201.6 434.289 14
8 8 -2 5126.98 378.217 3
-8 8 2 6141.34 404.333 3
8 -8 2 4790 452.444 2
8 -8 2 5877.4 418.177 10
8 8 4 125.033 106.942 16
-8 8 4 94.7655 67.3956 8
8 -8 -4 80.7747 98.7655 7
8 -8 -4 5.72338 76.9586 15
-8 -8 -4 4.77081 93.6302 12
8 8 4 8.69414 82.5518 9
8 8 4 132.172 110.003 1
-8 8 4 104.096 115.361 1
-8 -8 -4 38.8021 97.6425 13
-8 -8 -4 120.588 60.7395 2
8 8 4 137.795 113.491 8
-8 8 4 100.525 111.526 6
-8 8 4 14.844 102.865 3
8 -8 -4 145.405 121.178 10
8 -8 -4 55.5773 112.214 4
8 8 4 20.2139 93.829 15
8 -8 -4 67.3902 100.129 2
-8 8 4 35.5997 81.2545 11
-8 -8 -4 46.3139 78.9702 5
8 8 -4 93.4766 164.098 9
-8 8 6 265.264 162.84 6
-8 -8 -6 289.141 130.216 12
8 -8 -6 90.9839 114.603 2
8 -8 -6 266.95 105.124 7
8 -8 -6 173.677 123.576 10
8 8 6 100.171 140.469 9
0 -9 -1 775.673 125.271 7
-9 0 -1 903.443 142.049 12
-9 0 1 765.284 145.825 11
0 9 1 851.7 138.502 6
0 -9 -1 969.504 164.013 2
-1 9 0 1036.63 176.778 1
-1 9 0 961.278 154.705 6
9 -1 0 767.666 142.042 15
0 9 -1 701.818 142.841 6
9 -1 0 782.55 141.865 10
0 9 -1 1049.76 195.381 3
9 0 1 775.171 140.832 10
0 -9 1 749.551 160.249 2
1 9 0 937.588 169.677 8
0 9 1 1041.72 146.193 9
0 9 1 1015.74 166.389 3
9 0 1 892.432 133.511 9
9 0 1 911.624 158.649 15
9 -1 0 1106.47 163.535 7
9 1 0 976.037 162.13 10
-1 9 0 943.794 133.958 9
1 -9 0 1105.05 197.418 2
0 9 1 980.582 161.244 1
0 9 -1 979.819 180.001 1
9 0 -1 948.402 134.524 7
9 0 -1 736.177 147.404 10
-1 9 0 628.674 151.281 8
0 9 1 923.987 164.221 8
9 -1 0 949.171 177.079 16
-1 9 0 583.994 131.713 3
1 9 0 902.469 161.733 3
1 9 0 767.191 141.88 1
9 1 0 949.681 159.831 15
-1 -9 0 943.373 174 2
1 -9 0 902.258 151.831 7
-9 0 1 904.859 132.527 6
9 0 1 1048.04 153.807 7
9 0 -1 799.924 147.453 15
0 -9 1 734.923 141.516 7
-1 -9 0 989.641 132.806 7
9 0 1 626.191 129.965 16
1 9 0 913.166 136.947 6
-9 0 -1 945.274 130.11 6
-9 -1 0 1062.66 124.989 6
0 9 -1 876.417 150.705 9
-1 9 2 3495.68 297.403 8
9 1 2 3684.99 283.973 9
9 -2 1 3859.82 303.27 15
-9 2 1 3138 263.167 6
9 -1 -2 3695.53 306.39 10
-9 -1 2 3841.72 307.473 11
2 9 1 4173.57 251.131 6
9 1 2 3685.46 310.764 16
-1 9 2 3538.25 240.677 9
-9 1 -2 3756.92 299.288 6
1 -9 2 2925.74 342.743 2
-9 1 -2 3592.59 273.576 12
9 -1 -2 3952.73 320.323 15
-1 -9 -2 3834.16 296.228 2
-1 -9 -2 3927.63 256.333 7
1 -9 2 3359.17 333.433 7
9 -1 -2 4137.8 288.875 7
-2 -9 1 3180.75 316.835 2
-9 -1 2 3897.95 282.413 6
2 9 1 3527.01 295.343 1
9 1 2 3229.61 295.449 15
1 9 -2 3316.99 367.244 8
1 9 -2 3714.84 362.315 3
-1 9 2 4125.09 314.666 3
9 2 -1 3253.5 320.266 16
2 9 1 3403.53 284.533 3
1 9 -2 3263.35 367.368 1
2 -9 -1 3574.28 283.62 7
9 -2 1 3757.83 306.693 7
-9 -2 -1 3644.39 210.192 6
2 9 1 3379.54 276.233 9
9 -2 1 3414.94 229.107 9
-2 9 -1 3970.75 359.936 3
-9 -1 2 3906.75 336.541 14
-1 9 2 3641.32 321.017 1
-9 -2 -1 3935.5 258.556 5
2 9 1 3644.17 321.86 8
9 2 -1 3531.81 308.513 15
9 1 2 3492.76 295.112 7
9 2 -1 3948.59 290.609 10
-9 2 1 3339.73 204.041 3
2 9 -1 3092.17 311.628 1
-9 -2 1 3241.09 279.216 11
-9 2 -1 3873.26 320.655 13
9 -1 2 3540.27 258.932 9
9 2 1 3976.77 294.513 10
2 9 -1 3856.89 338.007 3
1 9 2 3859.93 323.344 1
-9 -1 -2 3943.2 262.348 6
9 1 -2 3652.12 327.459 15
9 2 1 3580.76 290.421 9
2 9 -1 3260.5 311.192 9
-9 2 -1 4063.68 265.486 12
-9 -2 1 3556.04 240.941 6
1 -9 -2 3645.06 298.332 2
-2 -9 -1 3747.77 291.586 2
2 -9 1 3161.1 320.239 2
-9 1 2 3520.12 310.154 11
-1 -9 2 3298.47 343.782 2
1 9 2 4328.51 337.786 8
-2 9 1 3598.42 300.695 8
2 9 -1 3908.26 369.078 8
-1 9 -2 3469.4 374.753 8
-1 9 -2 2827.06 370.271 1
-9 1 2 3755.76 329.393 14
9 -1 2 3543.41 306.753 10
1 -9 -2 3628.34 270.947 7
-9 2 -1 3989.9 288.871 6
2 -9 1 3544.68 308.82 7
9 -1 2 3738.52 305.795 16
9 -2 -1 3565.36 292.295 15
9 -1 2 4220.33 325.582 15
9 1 -2 3551.83 296.966 10
-2 -9 -1 3334.27 221.462 7
-2 9 1 3490.83 226.612 11
-9 1 2 3405.29 274.458 6
1 9 2 3611.08 275.693 9
-2 9 1 3534.26 286.342 6
9 -2 -1 3936.51 248.483 4
-1 9 -2 3527.26 373.485 3
-9 3 2 103.834 61.9304 3
3 -9 -2 62.8392 49.1541 12
-3 -9 2 55.3884 109.888 2
9 -3 2 27.4563 75.4577 10
9 -3 2 19.7732 67.158 4
-2 9 3 23.8761 88.0086 8
9 2 3 2.9972 72.0795 9
-9 3 2 47.8696 68.0187 6
9 -3 2 59.4385 89.6525 7
-2 -9 -3 32.8123 68.8837 12
3 9 2 9.09832 53.3932 16
9 -3 2 74.193 87.124 15
9 -2 -3 130.776 96.1269 10
3 9 2 85.2651 68.8243 1
3 -9 -2 137.721 99.5093 5
-9 -2 3 61.4858 70.2775 11
-2 9 3 40.4279 58.6446 9
-9 -3 -2 66.5719 111.229 13
-9 3 2 31.8719 98.9122 11
-3 9 -2 121.783 123.977 1
-9 -3 -2 37.4033 64.1268 5
-2 9 3 107.422 89.1748 6
-2 -9 -3 143.487 103.039 5
9 -2 -3 21.5955 79.0143 16
3 9 2 181.376 111.62 9
9 2 3 28.1205 60.9621 8
3 9 2 24.5438 55.2392 6
2 -9 3 33.1649 128.395 2
-9 -3 -2 49.4083 96.3392 12
9 3 -2 190.503 139.776 9
-2 9 3 105.171 86.7598 3
-9 3 2 11.124 56.3007 1
9 3 -2 60.2552 84.0456 10
9 -2 -3 56.7996 82.1524 7
-2 -9 -3 18.6479 83.5729 4
3 9 2 73.4826 69.8699 8
9 3 -2 74.2184 126.989 15
3 9 2 47.935 75.7739 15
-3 -9 2 171.479 129.636 4
9 -2 -3 130.61 99.3962 15
9 3 -2 53.2867 101.006 16
-2 -9 -3 2.24575 78.1737 2
-3 9 -2 43.1037 95.4061 8
2 9 -3 74.9615 133.413 8
3 -9 -2 180.99 97.1322 7
-2 -9 -3 88.0067 69.085 7
-9 -3 -2 46.0924 50.1322 6
3 -9 -2 112.81 82.0429 2
3 -9 -2 24.1631 57.0346 10
2 -9 3 133.738 139.673 4
9 -3 2 65.0539 84.2874 16
9 2 3 57.6096 79.5088 16
-3 9 -2 20.6715 128.168 3
3 -9 -2 38.9761 97.7564 4
-9 2 -3 100.27 83.6139 13
9 2 3 72.0191 69.7372 15
3 9 2 108.725 86.0312 3
9 -3 2 33.4664 52.0492 9
-2 9 3 124.516 90.8014 1
-9 -2 3 11.8066 89.6211 14
-9 3 2 110.744 89.5975 14
9 2 3 79.3259 114.723 10
0 9 3 810.762 162.426 1
-9 0 3 926.959 182.965 14
3 9 0 817.463 111.348 6
3 9 0 905.253 123.377 16
9 -3 0 749.88 107 4
-9 0 3 927.334 169.576 11
9 -3 0 900.306 156.1 10
0 9 3 862.16 141.074 9
9 0 3 1005.23 151.151 9
-9 3 0 988.664 156.342 1
9 -3 0 779.969 149.347 15
9 -3 0 952.712 159.222 7
9 3 0 1005.2 144.603 10
0 9 -3 887.669 245.136 3
9 0 3 915.464 185.358 15
3 9 0 755.237 149.498 3
0 9 3 732.623 149.156 3
9 0 -3 592.541 115.418 7
3 9 0 806.196 159.657 1
3 -9 0 717.737 112.683 10
9 0 -3 849.686 155.768 10
3 9 0 819.478 173.661 9
-9 3 0 781.344 110.56 12
0 9 3 807.323 142.268 6
9 3 0 812.502 167.173 15
0 9 3 838.564 159.609 8
3 9 0 808.879 111.879 15
-3 9 0 725.946 143.525 6
3 9 0 588.987 154.234 8
-3 -9 0 962.975 124.353 14
9 3 0 1039.64 149.96 8
-3 9 0 801.236 160.865 8
0 -9 -3 932.031 156.902 2
9 0 3 701.512 153.691 16
-9 3 0 957.95 114.361 3
3 -9 0 511.318 132.79 7
0 -9 -3 1073.49 149.267 7
-9 3 0 734.866 138.854 6
9 0 3 691.022 144.841 10
-3 9 0 804.926 163.199 3
9 3 0 877.389 184.168 16
-3 9 0 605.685 148.206 1
-9 0 -3 842.703 142.218 12
3 -9 0 606.987 159.717 2
9 0 -3 904.998 179.919 15
-3 9 2 94.3152 77.745 3
9 -3 -2 177.844 73.747 4
-9 2 3 47.0603 87.2512 11
2 9 3 21.907 61.4027 9
3 9 -2 30.6555 129.877 3
-9 2 3 30.0182 80.5961 14
2 9 3 45.6948 104.982 3
-9 3 -2 43.3043 86.7815 6
9 -3 -2 112.392 57.429 2
2 -9 -3 44.0533 88.7316 5
9 3 2 167.184 67.7567 8
9 2 -3 23.2476 97.1672 15
9 3 2 99.7874 73.7667 10
3 9 -2 1.66219 122.858 8
-3 9 2 86.1897 94.9678 6
9 2 -3 105.194 78.0919 10
3 9 -2 83.8496 140.402 1
-3 -9 -2 134.019 103.987 5
-3 -9 -2 60.0102 79.4361 2
-3 9 2 55.7003 68.2195 1
2 -9 -3 13.3139 96.3561 4
3 9 -2 72.2632 116.095 9
9 2 -3 27.8332 114.9 9
-9 -3 2 0.8816 70.8984 11
2 9 3 134.595 72.9735 6
3 -9 2 142.68 160.769 2
9 -2 3 81.158 98.6285 15
2 9 3 15.6977 66.9382 8
2 -9 -3 46.4994 41.4491 10
-9 2 3 37.4546 93.04 6
-3 9 2 14.1106 84.5415 8
2 9 3 25.6394 70.2529 1
9 -3 -2 7.86777 80.1671 10
9 2 -3 185.144 112.642 16
9 2 -3 122.341 62.5187 7
-2 9 -3 190.834 216.18 3
9 -2 3 180.775 102.554 10
-3 -9 -2 73.5293 77.0716 12
9 -2 3 219.855 107.07 16
-2 9 -3 280.364 208.317 1
2 -9 -3 20.7327 97.862 2
2 -9 -3 46.6889 86.2219 7
9 -3 -2 303.497 115.063 16
9 -3 -2 0.51394 78.0058 7
-9 -3 2 54.495 91.7785 14
9 -3 -2 122.43 90.6827 15
-3 9 2 81.3323 68.4461 11
-9 -2 -3 37.2555 65.4904 12
-3 -9 -2 96.9231 69.4399 4
9 3 2 113.895 81.1732 16
9 3 2 129.118 81.0099 15
9 3 2 52.675 75.7718 9
3 -9 2 191.594 104.822 7
-9 -2 -3 110.424 109.008 13
-9 3 -2 22.7406 100.01 3
-9 3 -2 164.344 95.3127 13
-3 -9 -2 66.3938 75.5134 13
4 -9 -3 344.389 117.946 7
4 9 3 341.735 109.263 1
-3 9 4 236.249 120.922 3
-9 -4 -3 339.189 95.8257 5
9 -4 3 438.91 157.664 7
-3 9 4 311.423 103.349 1
4 9 3 439.864 98.1783 16
9 4 -3 227.428 99.2826 10
4 -9 -3 277.249 92.8674 10
9 -4 3 130.48 89.4282 10
-4 9 -3 510.887 191.567 3
4 -9 -3 386.287 107.301 5
-4 9 -3 242.161 212.6 1
4 9 3 368.625 111.803 9
9 3 4 530.219 162.647 15
9 4 -3 443.873 172.992 9
-3 -9 -4 253.321 92.3894 4
4 9 3 294.27 136.796 8
-3 -9 -4 170.846 78.7322 2
4 -9 -3 255.084 110.34 4
-3 -9 -4 365.157 95.4842 7
-9 4 3 452.699 141.792 11
9 -4 3 190.939 94.718 16
-9 4 3 260.276 115.704 14
4 9 3 385.375 110.344 15
9 3 4 284.207 104.906 9
9 3 4 431.765 155.393 16
9 -3 -4 297.403 133.22 10
9 -3 -4 287.863 127.521 16
9 4 -3 373.446 165.225 16
-9 4 3 321.593 100.146 1
-3 9 4 199.177 91.6684 6
9 -3 -4 371.273 110.375 15
-3 -9 -4 150.766 101.09 5
9 -4 3 378.177 113.261 15
-3 -9 -4 344.659 112.712 12
-9 -3 4 199.241 122.965 14
9 4 -3 269.946 138.545 15
-3 9 4 428.211 148.507 8
-9 4 3 321.05 88.8009 3
4 9 3 388.446 126.783 3
-9 -4 -3 370.472 131.615 12
9 -3 -4 248.706 115.692 7
-9 4 3 404.347 130.009 6
-9 -4 -3 450.729 145.945 13
4 -9 -3 280.033 123.057 2
4 9 1 2451.48 276.141 8
4 9 1 2334.76 235.533 1
-4 -9 1 2090.18 260.971 2
9 -1 -4 2323.18 266.177 10
9 1 4 2690.01 296.075 15
9 -4 1 2338.49 247.296 10
9 4 -1 1824 206.042 10
9 1 4 2132.15 263.003 16
9 -4 1 2046.35 256.945 2
-4 9 -1 2194.61 267.918 3
4 -9 -1 2981.76 298.222 7
-4 9 -1 2232.58 283.234 6
-9 -1 4 1958.53 263.908 14
-1 9 4 2041.61 239.929 6
4 9 1 2553.56 214.155 16
-1 9 4 2163.09 208.69 9
4 -9 -1 2340.08 264.143 2
4 9 1 2544.98 265.247 9
-4 9 -1 2418.6 306.743 1
-1 9 4 2661.73 291.183 8
4 9 1 2247.02 165.921 6
-4 -9 1 2266.98 212.243 14
-9 4 1 2388.21 245.396 6
-1 -9 -4 1786.5 229.013 2
9 -1 -4 1743.55 238.817 7
-1 -9 -4 2499.06 232.603 7
9 -4 1 2585.21 251.655 16
-1 9 4 2177.25 282.325 1
9 -4 1 2394.65 231.076 15
4 9 1 2201.89 227.761 3
9 -4 1 2509.97 278.157 7
4 -9 -1 2331.48 198.846 10
9 4 -1 2515.78 276.062 15
9 -1 -4 2176.77 277.145 15
-9 4 1 2311.22 193.249 3
-1 9 4 1987.14 250.586 3
1 9 4 2338.68 271.798 3
4 9 -1 2274.3 278.335 1
4 9 -1 2342.55 217.485 15
-9 -4 1 2244.68 223.52 11
4 -9 1 1949.06 276.99 2
9 -1 4 1754.31 268.847 16
9 1 -4 2568.9 302.922 15
4 -9 1 2193.1 216.811 10
9 1 -4 1857.64 245.829 10
-9 4 -1 2291.77 249.863 6
1 9 4 2503.56 272.143 1
9 -4 -1 2125.07 254.302 10
4 9 -1 2084.59 246.325 3
1 9 4 2752.51 258.363 9
1 -9 -4 2320.28 256.886 2
1 -9 -4 2768.7 259.493 7
9 -4 -1 2525.73 210.077 2
-4 -9 -1 2621.84 243.979 2
-9 4 -1 2376.6 210.263 3
1 -9 -4 2365.98 284.996 4
9 -4 -1 2312 207.223 4
-4 9 1 2255.74 240.204 8
4 9 -1 2522.42 246.065 16
-4 9 1 2504.01 265.061 6
1 9 4 2379.13 295.739 8
-9 1 4 2146.26 267.945 14
9 -4 -1 2399.64 240.023 15
-4 9 1 2275.65 267.405 1
-9 4 -1 2745.45 278.714 13
4 9 -1 2367.25 306.171 8
9 4 1 2123.83 248.439 9
9 -4 -1 2395.67 266.787 7
9 4 1 2293.94 226.127 10
4 9 -1 2141.51 267.866 9
-4 9 1 2611.24 266.664 3
-9 -4 1 2519.96 270.955 14
9 4 1 2471.86 261.082 15
9 4 1 2047.22 246.54 16
-9 1 4 2185.19 265.778 11
4 -9 1 1976.02 244.117 7
9 4 1 2362.21 230.478 8
3 9 4 296.698 132.595 3
9 -4 -3 381.004 116.377 10
-4 -9 -3 329.037 107.367 12
9 -4 -3 395.614 136.912 16
-4 9 3 274.951 94.2599 11
3 -9 -4 433.41 117.797 7
9 -4 -3 182.53 85.8375 4
-9 -3 -4 498.762 149.234 13
3 -9 -4 357.029 133.345 2
-9 3 4 385.842 135.718 14
9 -4 -3 440.556 134.467 7
3 -9 -4 238.357 110.898 5
-4 -9 -3 339.34 99.5117 2
3 9 4 240.849 76.9354 16
9 4 3 501.362 144.078 10
4 9 -3 530.839 230.106 8
-4 -9 -3 263.119 137.588 5
3 9 4 194.244 92.8749 9
9 4 3 175.953 101.008 9
4 -9 3 69.3435 109.068 2
-9 4 -3 197.519 117.659 13
-4 -9 -3 276.004 97.3142 13
-9 3 4 229.869 105.762 6
4 9 -3 164.952 132.756 9
9 4 3 525.285 169.211 16
3 -9 -4 303.851 135.273 4
3 9 4 263.145 114.759 8
9 -4 -3 479.813 106.435 2
-4 9 3 287.431 110.522 8
9 4 3 337.637 118.202 15
4 -9 3 149.643 151.403 4
-9 -4 3 373.965 132.135 14
-9 3 4 286.423 103.826 11
-4 9 3 450.349 154.253 1
9 3 -4 443.749 168.291 16
-9 -3 -4 394.182 129.78 12
-4 -9 -3 397.295 116.862 4
3 9 4 558.716 153.531 1
9 -4 -3 434.75 126.092 15
9 4 3 365.504 113.829 8
4 -9 3 250.136 125.949 7
3 -9 -4 314.578 93.5054 10
9 3 -4 536.229 183.749 15
-4 9 3 399.456 123.283 6
-4 9 3 368.833 125.07 3
-9 -5 -4 70.5925 104.897 12
-9 5 4 149.488 110.33 6
-9 5 4 53.7752 76.7023 1
-9 5 4 233.036 139.723 11
5 9 4 49.0908 90.6018 1
-4 9 5 272.237 137.758 6
5 -9 -4 81.1946 98.5852 10
-9 -5 -4 189.895 148.449 13
-4 -9 -5 63.7641 89.3054 12
9 4 5 58.9412 92.1792 9
5 -9 -4 144.357 79.812 5
-4 -9 -5 165.761 98.988 5
5 9 4 170.455 96.4462 9
5 9 4 138.441 78.3754 16
-4 9 5 17.848 89.0459 3
5 -9 -4 17.7305 107.615 4
-4 -9 -5 97.1363 83.221 2
-4 9 5 86.4788 90.5409 8
9 4 5 87.2451 106.899 16
9 -4 -5 272.381 123.083 10
5 -9 -4 216.246 110.081 7
-4 9 5 139.881 134.461 1
5 9 4 51.6479 117.36 8
9 -4 -5 28.3715 88.0366 7
5 -9 -4 250.28 114.745 2
5 9 4 128.586 76.3163 3
-9 5 2 125.379 102.659 6
-9 -5 -2 90.3038 84.8277 12
-2 9 5 128.139 138.059 8
-2 -9 -5 143.352 94.3708 5
-2 9 5 368.564 158.862 1
5 9 2 87.0066 85.781 9
-5 9 -2 451.226 159.443 1
-5 -9 2 11.0006 114.079 2
5 9 2 166.939 77.8358 16
-9 -5 -2 53.5375 112.397 5
-9 5 2 217.525 91.4872 3
9 5 -2 173.037 77.6505 10
9 -5 2 225.095 100.384 16
-2 -9 -5 37.6032 66.9433 4
5 9 2 267.986 131.275 8
-2 -9 -5 205.55 106.123 2
5 -9 -2 170.673 87.9472 5
5 -9 -2 31.6581 77.9698 4
9 5 -2 13.056 107.876 16
9 5 -2 194.319 128.691 8
5 9 2 160.174 83.005 3
-5 9 -2 70.8024 129.939 3
9 5 -2 135.861 118.715 15
-5 9 -2 14.3894 119.092 6
9 -5 2 96.3197 63.6912 15
-2 9 5 51.9939 90.3112 3
5 9 2 132.806 91.5866 15
-9 -5 -2 80.4125 136.353 13
-5 -9 0 511.082 136.53 2
-5 9 0 423.004 157.527 1
-9 5 0 468.763 102.563 3
-9 5 0 555.171 123.089 13
-5 -9 0 380.239 105.269 14
9 -5 0 347.567 99.6037 15
9 -5 0 459.057 146.356 10
0 -9 -5 447.141 136.319 5
0 -9 -5 268.327 88.6785 7
5 -9 0 375.119 139.852 7
9 -5 0 421.324 108.3 4
5 9 0 395.789 100.534 16
5 9 0 362.569 115.858 1
9 5 0 631.034 150.805 9
5 9 0 527.938 145.669 9
-9 5 0 503.353 139.615 1
0 -9 -5 538.899 162.761 4
0 -9 -5 439.774 139.18 2
0 9 5 348.09 130.68 8
0 9 5 430.193 160.224 1
5 9 0 491.066 139.899 8
5 -9 0 459.777 150.245 4
-5 9 0 475.771 156.588 6
9 -5 0 597.751 133.953 16
5 -9 0 543.439 121.459 10
-5 9 0 622.728 141.742 3
9 5 0 630.102 151.378 16
9 -5 0 596.415 173.55 7
9 5 0 323.958 135.998 15
-5 -9 0 608.288 173.124 5
5 9 0 391.8 114.017 3
0 9 5 609.294 169.962 3
9 -5 0 373.567 126.937 2
5 -9 0 403.66 145.504 2
-9 -5 2 140.277 64.009 11
5 -9 2 234.355 141.137 2
5 9 -2 29.0199 102.386 9
-5 9 2 286.495 99.4236 11
-9 5 -2 90.6258 129.98 6
9 5 2 31.7228 88.1952 10
5 9 -2 165.048 109.043 3
2 9 5 43.8827 80.5406 9
-5 -9 -2 112.15 87.5555 5
2 -9 -5 199.386 118.493 4
2 -9 -5 124.839 85.1557 2
-5 -9 -2 158.889 74.1325 4
9 -5 -2 124.002 70.93 4
9 -5 -2 119.072 79.0088 15
2 9 5 189.244 121.001 3
2 9 5 412.148 155.315 1
2 -9 -5 130.715 101.332 7
2 9 5 189.077 119.68 8
9 5 2 274.328 124.886 16
-9 5 -2 157.456 99.265 13
5 9 -2 95.3164 147.076 1
-5 9 2 108.599 93.6964 3
-5 -9 -4 108.271 85.8478 12
4 -9 -5 116.3 74.2467 10
9 5 4 110.602 87.6587 16
4 9 5 147.152 105.753 8
4 -9 -5 318.516 134.919 7
-5 -9 -4 105.595 92.5142 2
9 -5 -4 179.42 134.429 10
4 -9 -5 124.26 92.4804 4
4 -9 -5 73.048 92.746 2
-5 9 4 215.897 107.32 8
9 5 4 163.675 84.7348 8
9 -5 -4 124.409 82.7235 15
4 9 5 235.648 128.703 1
-5 9 4 27.6526 76.3532 11
-5 9 4 26.4966 97.3785 3
4 9 5 96.147 103.06 9
-5 -9 -4 12.6488 119.78 5
-5 -9 -4 204.679 105.858 4
9 -5 -4 202.151 106.611 2
-5 9 4 8.11732 104.971 6
-5 9 4 271.817 152.668 1
9 5 4 233.495 132.286 9
9 -5 -4 73.1082 99.7859 7
9 5 4 255.809 113.223 15
-9 4 5 171.092 138.1 11
-9 -6 -5 292.305 139.141 12
6 9 5 288.405 143.757 9
6 9 5 398.752 138.603 16
-9 6 5 201.201 109.893 11
6 9 5 331.347 131.296 1
6 -9 -5 343.521 159.753 4
6 9 5 252.558 122.171 8
6 -9 -5 359.385 140.85 7
-9 6 5 454.163 166.407 1
6 -9 -5 242.841 107.574 2
6 -9 -5 326.046 127.86 10
-9 6 5 383.382 135.471 6
-9 -6 -5 157.628 131.824 13
6 -9 -3 626.324 155.852 2
9 -6 3 797.688 183.291 10
9 6 -3 417.907 121.169 10
-9 6 3 703 159.841 6
9 6 -3 639.168 163.037 16
-6 9 -3 1130.12 288.687 3
6 -9 -3 859.703 153.17 10
6 9 3 645.258 157.631 9
-9 6 3 610.274 165.362 11
9 6 -3 672.459 197.817 15
-6 9 -3 1050.28 319.917 1
6 9 3 785.22 141.744 3
6 9 3 633.467 149.38 16
9 6 -3 666.419 172.696 9
6 -9 -3 785.956 137.669 5
6 9 3 627.921 169.767 8
6 -9 -3 636.069 158.045 4
6 -9 -3 729.158 161.45 7
9 -6 3 366.398 122.97 16
6 9 3 782.581 153.993 1
-9 -6 -3 610.935 155.388 12
6 9 3 647.606 137.759 15
-9 6 3 663.136 137.474 3
9 -6 3 737.879 196.938 7
-6 -9 3 561.862 213.49 4
-9 6 3 784.323 159.319 14
-9 6 3 725.79 142.844 1
-6 9 -1 554.55 169.086 3
6 9 1 764.947 150.528 1
9 6 -1 837.245 106.951 3
-6 9 -1 743.272 181.315 6
6 -9 -1 800.05 146.05 10
9 -6 1 421.399 129.979 10
6 -9 -1 1012.58 188.702 7
9 6 -1 622.555 160.326 8
-6 9 -1 569.328 194.825 1
-9 6 1 698.299 143.603 1
9 -6 1 732.407 160.392 4
-6 9 -1 479.93 150.248 8
9 -6 1 689.558 194.348 7
9 -6 1 705.779 181.427 2
6 9 1 707.556 139.056 16
6 9 1 939.673 184.214 9
9 6 -1 795.917 167.18 15
6 -9 -1 558.541 131.372 2
6 9 1 744.391 163.262 8
9 6 -1 793.541 155.608 16
9 -6 -1 1018 156.43 15
9 6 1 781.482 97.0132 3
-6 9 1 697.91 149.328 6
-9 6 -1 677.38 169.055 6
-9 6 -1 596.084 126.163 3
9 -6 -1 674.876 139.059 10
6 -9 1 580.575 165.538 7
6 -9 1 642.812 135.388 10
9 -6 -1 740.032 149.108 2
9 6 1 574.552 160.181 16
9 6 1 769.371 124.815 10
-6 -9 -1 570.929 150.59 5
9 6 1 683.986 164.992 9
-9 -6 1 892.676 187.839 5
6 9 -1 571.607 133.15 16
6 9 -1 932.925 163.887 15
9 6 1 792.294 157.585 8
-6 9 1 666.13 135.906 8
6 9 -1 628.97 170.561 8
6 9 -1 763.612 182.075 1
-6 9 1 829.554 177.832 1
6 -9 1 937.295 206.004 4
6 9 -1 679.504 150.666 3
-9 -6 1 594.96 148.336 14
6 -9 1 709.157 179.578 2
-6 -9 -1 732.663 130.387 2
-9 -6 1 424.467 113.109 11
-6 9 3 670.158 140.911 1
6 9 -3 362.79 153.571 9
6 -9 3 410.108 237.063 4
-6 -9 -3 513.298 145.196 5
9 -6 -3 423.979 133.8 10
-9 6 -3 769.886 237.755 3
9 6 3 771.991 180.319 10
6 9 -3 449.29 144.834 3
9 6 3 618.486 148.083 9
6 -9 3 600.724 199.903 2
9 6 3 739.689 158.95 15
6 -9 3 702.77 221.284 7
-6 -9 -3 724.161 159.36 4
9 6 3 528.794 124.663 8
-6 9 3 622.893 133.896 8
9 -6 -3 698.527 159.236 4
9 -6 -3 566.916 127.222 2
6 9 -3 345.11 157.761 8
-6 -9 -3 872.201 151.229 2
-6 9 3 802.293 174.817 6
9 6 3 601.999 154.408 16
9 -6 -3 619.444 133.72 16
9 -6 -3 615.815 151.17 7
9 -6 -3 604.597 128.026 15
6 9 -3 494.467 131.09 15
-6 9 3 814.171 154.921 11
-6 9 3 651.263 144.124 3
-9 -6 3 499.322 148.185 14
-6 9 5 331.514 130.344 6
9 -6 -5 274.068 113.009 10
-6 -9 -5 235.609 109.1 12
9 6 5 127.416 140.079 9
-6 9 5 143.328 119.754 3
5 -9 -6 32.2236 86.5871 2
9 -6 -5 299.994 99.9801 2
-6 -9 -5 86.7705 74.5081 2
-6 9 5 219.312 121.216 8
9 6 5 168.834 110.021 8
9 6 5 266.071 130.738 15
9 -6 -5 161.486 117.263 7
5 -9 -6 188.035 143.835 7
-6 9 5 301.085 154.783 1
-6 -9 -5 222.713 123.367 5
9 -6 -5 426.721 136.068 15
9 6 5 460.208 166.7 16
7 -9 -6 103.051 102.496 10
7 9 6 89.0651 93.1859 9
7 9 6 20.1126 92.9176 8
7 -9 -6 87.9198 111.547 7
-9 7 6 151.738 123.373 6
7 -9 -6 66.0642 103.94 2
-9 7 4 890.083 187.917 6
7 9 4 1245.86 198.555 16
-9 7 4 1236.89 220.204 1
7 -9 -4 1089.43 184.45 10
7 9 4 1153.6 224.029 9
-9 7 4 1007.43 189.202 3
-9 -7 -4 1184.13 139.219 2
-9 7 4 556.395 138.213 8
7 -9 -4 1016.96 196.457 4
7 9 4 981.776 202.381 8
7 9 4 1418.93 198.548 1
7 -9 -4 1008.24 186.434 7
7 -9 -4 1251.22 199.32 2
-9 7 4 1173.04 219.93 11
9 7 -4 1202.11 272.248 9
7 9 4 1342.27 213.306 15
9 7 -4 766.558 197.141 15
-9 -7 -4 1335.09 229.549 5
-9 -7 -2 517.905 147.496 12
-9 7 2 628.501 150.683 6
7 -9 -2 554.541 148.325 7
9 7 -2 533.14 125.503 3
9 -7 2 528.622 126.493 16
-9 -7 -2 530.766 89.7362 2
7 9 2 660.544 145.353 15
9 -7 2 568.018 145.042 10
-9 7 2 639.199 150.869 1
7 9 2 730.068 168.36 9
7 9 2 268.46 86.5134 1
9 7 -2 536.309 111.684 10
9 7 -2 582.764 174.756 9
7 9 2 395.377 140.897 8
7 -9 -2 518.492 153.044 4
9 -7 2 595.451 148.498 7
-7 -9 2 723.458 156.103 14
-9 7 2 621.822 156.259 11
-7 9 -2 482.765 198.047 1
-9 7 2 726.027 142.806 3
-9 7 2 628.952 152.212 14
7 9 2 666.096 138.299 16
9 7 -2 440.068 173.436 8
7 -9 -2 798.824 154.877 10
-7 9 -2 637.431 193.254 3
7 9 2 602.555 125.675 3
9 -7 2 314.668 145.919 2
7 -9 -2 530.49 129.844 2
9 7 -2 523.662 158.037 15
9 -7 2 644.726 174.426 4
-7 9 -2 596.489 178.663 6
9 7 0 2567.84 191.571 3
9 -7 0 2645.48 277.142 2
7 -9 0 2456.94 291.765 2
-9 -7 0 2410.97 223.443 11
7 -9 0 2485.77 254.143 10
-7 9 0 1909.64 269.105 1
7 9 0 2470.36 271.728 16
-9 7 0 2172.28 273.683 6
9 -7 0 2375.04 290.971 7
9 7 0 2779.68 317.16 9
7 9 0 2565.96 293.237 9
-7 -9 0 2631.38 264.675 2
-7 9 0 2521.73 262.591 8
7 9 0 2372.14 293.967 8
9 7 0 2301.75 263.701 8
7 9 0 2236.22 254.297 15
-9 7 0 2690.84 242.82 3
9 7 0 2251.85 267.609 15
9 7 0 2381.53 296.027 16
-7 9 0 2029.96 241.809 3
-7 -9 0 2595.45 262.675 14
7 -9 0 2373.98 286.453 7
-9 7 0 2972.85 267.706 13
-7 -9 -2 566.312 131.31 13
-7 9 2 658.029 142.858 3
7 9 -2 472.732 109.927 10
-9 7 -2 388.096 153.083 3
7 -9 2 774.2 165.69 10
7 -9 2 551.668 175.818 2
9 -7 -2 589.828 156.528 10
9 -7 -2 484.674 114.823 15
9 7 2 874.004 197.682 9
-7 9 2 687.422 174.579 1
9 7 2 780.478 174.751 15
7 9 -2 766.984 156.644 3
7 9 -2 681.549 193.092 9
9 -7 -2 694.268 150.682 7
9 7 2 568.206 130.91 10
-7 9 2 537.995 99.6212 14
-7 9 2 624.953 119.885 8
7 9 -2 651.984 157.488 16
9 -7 -2 545.388 126.572 4
7 9 -2 751.852 204.422 8
7 -9 2 643.178 191.008 4
7 -9 2 581.514 180.848 7
9 7 2 547.742 148.182 16
9 7 2 518.643 139.824 8
9 -7 -2 694.305 140.005 2
-7 9 2 364.741 125.397 11
-9 7 -2 806.712 194.46 6
-7 9 2 361.523 141.766 6
9 7 2 653.168 112.358 1
-9 -7 2 679.262 165.839 14
-7 -9 -2 605.954 159.776 12
7 9 -2 645.402 154.825 15
-7 9 4 880.325 182.565 11
-7 9 4 1182.95 220.775 1
9 7 4 1303.69 235.893 9
9 -7 -4 1279.2 200.903 10
9 -7 -4 1172.74 205.605 7
9 7 4 1053.83 194.555 15
9 -7 -4 937.81 165.357 15
9 7 4 953.564 182.443 8
9 -7 -4 976.86 202.438 4
-7 -9 -4 1049.46 148.024 2
9 -7 -4 1231.73 207.383 2
9 7 4 1264.48 165.678 1
9 7 4 1114.76 201.47 16
-7 9 4 754.12 193.704 6
-7 9 4 860.541 163.542 8
-7 9 4 1135.68 190.377 3
-7 9 6 181.161 130.356 6
9 -7 -6 3.2963 99.8702 10
-7 9 6 28.6905 111.669 1
9 -7 -6 287.801 160.275 7
-7 -9 -6 35.4597 85.0102 12
8 9 5 414.5 158.55 9
-9 8 5 346.855 129.872 11
-9 -8 -5 349.73 109.819 12
-9 8 5 455.928 184.919 6
-9 8 5 468.887 163.234 3
-9 8 5 303.404 109.899 1
-9 -8 -5 333.445 88.4211 2
8 -9 -5 279.07 152.62 4
-9 8 5 118.114 97.6773 8
8 9 5 426.385 177.766 8
8 -9 -5 367.053 134.255 2
8 9 5 300.927 151.887 1
8 -9 -5 283.016 119.497 10
8 9 5 378.162 136.912 16
-9 -8 -5 70.5539 152.241 13
8 -9 -5 222.607 140.741 7
8 -9 -5 516.522 119.41 15
-9 -8 -5 428.942 160.699 5
-9 -8 -3 136.122 99.6337 13
9 -8 3 263.305 111.735 7
-8 -9 3 89.1655 113.746 4
-9 8 3 123.953 92.0713 14
-9 -8 -3 153.293 134.454 12
8 9 3 149.487 73.4528 1
8 9 3 133.143 104.229 15
9 8 -3 452.715 190.929 8
-9 8 3 170.074 119.811 1
-9 8 3 151.125 65.7902 8
-9 8 3 260.439 123.754 11
9 -8 3 44.6141 73.0902 10
9 8 -3 293.047 140.946 15
-9 -8 -3 125.669 86.1277 5
-8 9 -3 454.318 235.43 3
9 8 -3 263.912 136.378 16
-9 8 3 117.147 105.279 3
9 -8 3 224.859 89.8627 16
9 8 -3 458.282 212.768 9
8 9 3 93.8087 107.798 8
8 9 3 99.7675 86.5096 16
8 9 3 164.512 97.873 3
-9 -8 -3 150.051 73.037 2
9 -8 3 148.421 103.741 4
9 8 -3 72.0813 95.9705 10
-9 8 3 131.607 122.615 6
8 9 3 122.599 97.6147 9
-9 -8 -1 712.952 127.013 2
8 9 1 1272.76 161.726 3
8 9 1 1045.53 166.99 1
-9 8 1 1025.45 169.09 3
-9 -8 -1 717.14 119.632 11
-9 8 1 870.129 174.451 6
9 -8 1 1039.17 228.856 2
9 8 -1 928.611 128.899 3
-8 9 -1 933.926 182.351 3
-8 9 -1 871.321 219.591 6
9 -8 1 1009.61 147.282 15
-9 8 1 939.574 184.419 1
9 -8 1 1250.94 202.432 10
-8 9 -1 736.6 207.027 1
9 8 -1 957.616 146.559 10
9 8 -1 741.964 180.843 15
8 -9 -1 928.757 117.847 15
8 9 1 873.727 191.162 9
9 8 -1 692.82 167.639 9
9 8 -1 1169.22 205.174 16
9 -8 1 885.071 192.293 7
8 9 1 849.407 188.674 8
-9 8 1 780.181 132.221 8
9 8 -1 601.662 172.51 8
-9 8 1 945.142 148.783 13
8 9 1 1095.28 207.608 16
-8 -9 1 945.824 194.505 14
8 -9 -1 933.1 163.378 10
8 -9 -1 747.657 184.553 2
8 9 1 991.722 170.884 15
8 -9 -1 810.453 170.443 7
8 -9 1 762.141 164.067 7
8 9 -1 824.838 120.058 10
9 8 1 1102.58 142.513 3
-8 -9 -1 1017.69 124.968 11
8 -9 1 822.195 203.052 2
-9 8 -1 704.576 195.756 1
8 9 -1 909.887 152.613 3
9 8 1 1004.91 140.672 1
-9 8 -1 1133.27 210.232 6
9 8 1 925.22 135.019 10
-9 -8 1 782.623 165.984 14
8 -9 1 1046.88 187.016 10
-8 9 1 793.204 191.267 6
9 -8 -1 1282.65 137.729 5
-8 9 1 901.319 172.265 1
-8 -9 -1 678.22 176.444 5
8 9 -1 727.85 134.535 15
9 8 1 1065.65 207.557 9
-9 8 -1 944.282 177.258 3
8 9 -1 1106.44 212.3 9
9 -8 -1 881.238 161.663 10
9 -8 -1 609.822 156.648 4
9 8 1 860.674 178.221 15
-8 9 1 992.064 175.269 8
8 9 -1 985.482 227.695 1
8 9 -1 632.544 178.556 8
9 8 1 960.614 177.86 16
-8 9 1 1326.93 191.796 3
-8 9 1 1207.84 160.856 13
8 9 -1 1178.99 185.145 16
9 8 1 832.025 183.548 8
9 -8 -1 882.949 144.517 15
9 -8 -1 678.011 164.95 7
-9 8 -1 1205.49 191.637 13
9 -8 -1 962.527 179.465 2
-8 9 1 961.956 149.199 14
9 -8 -3 48.7555 80.759 10
9 -8 -3 282.942 118.693 16
9 8 3 216.249 129.949 9
9 8 3 169.346 85.8906 1
-9 8 -3 206.469 210.366 6
8 -9 3 149.51 71.9936 10
-9 8 -3 229.149 178.695 3
-8 -9 -3 388.737 173.289 5
8 -9 3 339.433 180.918 4
8 9 -3 144.607 107.861 3
8 -9 3 18.991 125.36 2
-8 -9 -3 79.454 74.8674 2
8 9 -3 202.929 126.77 15
-9 -8 3 207.646 130.516 14
9 8 3 13.1285 117.217 16
8 9 -3 264.73 188.341 9
-8 -9 -3 47.1259 75.2972 4
9 -8 -3 338.173 123.223 2
9 -8 -3 107.421 111.257 4
9 8 3 202.532 126.288 8
-8 -9 -3 289.344 154.271 13
8 9 -3 143.026 155.4 8
9 8 3 228.928 116.604 15
8 9 -3 228.887 144.24 16
-8 -9 -3 296.393 133.278 12
9 -8 -3 78.5104 122.678 7
9 -8 -3 138.517 66.4536 15
8 -9 3 23.3225 156.745 7
-8 9 5 248.101 107.328 6
9 8 5 369.09 120.715 15
-8 9 5 155.744 118.728 11
9 -8 -5 222.185 126.573 2
-8 9 5 370.498 144.806 3
9 -8 -5 136.381 90.5091 10
-8 -9 -5 245.045 119.153 5
9 8 5 456.853 160.264 9
9 8 5 316.271 133.285 16
9 -8 -5 400.921 148.015 4
-8 -9 -5 316.821 108.443 2
-8 9 5 332.611 121.995 8
9 8 5 390.516 143.069 8
9 8 5 531.446 139.914 1
9 -8 -5 466.785 131.043 15
9 -8 -5 352.563 154.399 7
-8 9 5 529.715 161.091 1
-8 -9 -5 404.868 145.296 12
9 9 0 2493.14 227.921 3
9 9 -2 87.7644 105.794 3
9 -9 2 94.1191 112.541 10
9 -9 2 94.457 72.4927 16
-9 9 2 39.2714 120.841 6
9 -9 -2 211.882 94.8927 15
-9 -9 -2 4.60362 81.1648 2
9 9 -2 0.08736 113.237 8
9 9 -2 71.972 89.7453 10
-9 9 -2 44.7441 168.744 6
9 -9 -2 178.025 102.88 10
-9 -9 2 180.83 131.521 4
-9 -9 -2 185.177 97.5097 5
9 9 2 208.553 111.929 10
-9 9 2 9.3386 121.566 3
-9 9 -2 98.8495 201.549 1
9 9 2 60.094 107.074 9
9 -9 2 214.428 157.471 7
-9 -9 2 0.52858 133.631 5
-9 -9 -2 75.2847 134.725 12
9 9 -2 353.033 205.427 9
-9 9 2 165.005 107.485 1
-9 -9 -2 5.84328 75.8602 4
9 9 2 162.064 80.9351 1
9 -9 -2 108.489 104.02 4
9 9 2 120.822 103.332 8
9 -9 -2 335.749 153.946 2
-9 9 2 56.6128 95.0428 14
9 -9 -2 360.374 132.864 16
-9 9 2 205.174 101.643 8
9 9 2 587.384 182.523 16
9 -9 2 20.6165 127.549 4
9 9 -2 25.2135 142.329 15
9 9 -2 153.226 104.712 16
9 -9 -2 279.999 139.731 7
-9 -9 -2 6.15261 138.586 13
-9 9 -2 44.5834 125.001 3
9 9 2 238.125 127.083 15
9 -9 2 231.715 175.77 2
9 9 2 86.3166 68.0178 3
-9 9 2 69.0548 97.6934 11
-9 -9 2 62.8776 114.261 14
-9 -9 -4 242.101 104.874 13
-9 -9 -4 267.521 131.708 12
-9 9 4 174.85 161.126 6
-9 9 4 180.095 114.41 11
9 -9 -4 349.171 145.443 4
9 9 -4 147.925 145.259 15
9 9 4 572.286 167.951 16
-9 9 4 186.349 102.576 1
-9 9 4 245.696 102.621 3
-9 -9 -4 309.609 143.755 5
9 -9 -4 162.723 104.986 10
9 9 4 117.476 112.177 9
9 9 -4 155.263 141.949 9
-9 9 4 183.687 92.5342 8
9 9 4 406.378 114.212 8
-9 -9 -4 277.32 97.9432 2
9 -9 -4 76.7266 97.3624 2
9 -9 -4 353.754 145.811 7
9 -9 4 109.229 137.067 7
9 9 4 272.052 112.077 1
9 9 4 68.1883 106.303 15
-9 9 6 107.426 129.098 6
9 -9 -6 59.473 110.526 10
9 -9 -6 124.902 119.473 7
9 9 6 292.217 115.925 16
9 9 6 165.728 143.019 8
-9 -9 -6 170.403 104.299 12
10 0 0 1871.5 228.602 15
0 10 0 2401.88 265.762 3
0 -10 0 2486.84 246.03 7
0 10 0 2268.85 228.745 6
0 -10 0 2315.79 268.607 2
10 0 0 2687.64 237.013 7
0 10 0 2330.06 275.918 8
10 0 0 2658.57 274.622 16
0 10 0 1813.16 212.472 9
0 10 0 2216.12 272.785 1
10 0 0 2460.53 256.032 10
-10 0 0 2300.72 199.1 6
-10 1 -1 1387.54 178.695 12
-1 10 1 1727.87 150.666 11
1 -10 1 1877.66 264.691 2
1 10 1 1610.22 221.746 3
-1 10 1 1708.82 222.937 3
10 -1 1 2058.1 244.89 7
10 1 -1 2252.45 202.9 7
-1 10 1 1874.98 212.994 6
10 1 -1 1977.51 233.839 10
-10 1 -1 1653.57 192.331 6
-1 -10 -1 1738.03 189.7 7
1 10 -1 1535.19 231.711 3
-10 -1 1 1805.92 183.274 6
10 1 1 1766.17 226.09 10
1 10 -1 2187.81 273.48 1
10 -1 1 1957.09 234.687 10
-1 10 -1 1340.38 228.93 3
-1 10 -1 1268.21 193.818 9
-1 10 1 1980.83 199.66 9
-10 -1 1 1858.06 229.335 11
10 1 1 1592.4 229.305 16
10 -1 -1 1680.22 219.175 15
10 -1 1 1679.99 186.399 9
10 1 1 1843.96 208.213 9
1 10 1 1654.86 191.41 9
1 -10 -1 1959.75 248.261 2
1 10 -1 1977.78 240.454 9
-10 1 1 1568.27 181.022 6
-1 10 -1 1785.16 260.054 1
1 10 1 1896.95 234.864 1
-10 -1 -1 2180.28 189.792 5
1 -10 1 1772.94 221.363 7
10 -1 -1 1778.47 229.704 10
1 10 1 1910.7 238.374 8
-1 10 1 1704.69 223.793 8
-1 10 1 1943.77 254.697 1
-1 -10 1 1770 250.771 2
1 10 -1 1840.25 274.797 8
-1 -10 -1 1246.98 221.755 2
10 1 -1 1569.61 214.7 15
1 -10 -1 2207.99 225.932 7
-1 -10 1 1752.55 209.491 7
1 10 -1 1682.57 201.507 6
10 1 1 1933.33 213.554 7
-10 1 1 1563.49 223.462 11
10 1 1 1718.77 227.59 15
10 -1 1 1754.98 226.789 15
10 -1 -1 2197.55 224.808 7
-1 10 -1 1809.21 241.047 6
1 10 1 2084.77 203.465 6
-10 -1 -1 2059.01 182.442 6
2 -10 0 7163.79 426.904 7
-10 0 -2 6529.87 401.46 12
-10 2 0 6247.12 347.308 12
0 10 2 6060.17 440.894 1
-10 0 2 5992.36 426.151 11
0 10 2 6065.91 430.264 8
-2 -10 0 6161 369.67 7
10 -2 0 6281.72 409.368 10
10 0 2 6458.29 435.569 10
2 -10 0 6156.87 311.279 10
-10 -2 0 6221.61 321.419 5
10 2 0 6763.22 334.123 7
10 0 2 5587.56 367.827 9
10 2 0 6293.33 411.822 9
2 10 0 6734.66 425.133 9
-10 0 -2 6245.06 374.78 6
-2 10 0 6513.25 448.104 8
0 -10 -2 6431.71 405.386 2
-2 10 0 6445.85 447.958 3
0 10 2 6796.29 433.182 3
2 -10 0 6145.06 433.228 2
-2 -10 0 5412 404.527 2
10 0 -2 6034.43 401.34 10
10 2 0 6404.82 404.399 10
10 -2 0 5915.94 285.191 4
10 0 2 5876.5 426.499 16
0 -10 2 5127.98 463.603 2
-10 -2 0 5558.45 288.923 6
2 10 0 6108.87 442.664 8
0 10 -2 6664.68 537.827 8
-2 10 0 5437.72 431.598 1
0 10 2 6569.81 383.823 6
0 10 -2 5412.46 500.839 1
0 10 -2 5789.44 489.327 3
-10 0 2 5987.18 443.3 14
2 10 0 6003.59 410.933 3
10 0 -2 6462.53 363.43 7
0 -10 -2 6874.39 374.814 7
-10 2 0 6218.17 265.302 3
10 0 -2 5510.81 409.855 15
10 2 0 5820.82 424.052 15
10 -2 0 6457.08 414.361 15
10 0 2 4949.26 383.44 15
0 10 2 6779.22 374.291 9
10 -2 0 6839.8 412.026 7
2 10 0 5845.65 328.931 6
-10 0 2 5797.68 366.529 6
-10 2 0 6202.08 370.251 6
2 10 0 5559.42 423.875 1
-2 10 0 6415.4 419.237 6
-10 2 -2 22.2605 58.7994 12
-2 10 2 178.357 111.435 3
-10 2 2 178.005 76.6541 6
2 -10 -2 267.904 79.7819 7
-2 10 2 117.212 87.4184 6
10 -2 -2 255.438 108.395 10
2 -10 -2 122.391 77.5304 2
2 -10 2 119.715 132.633 2
-2 -10 2 132.125 129.674 2
2 10 -2 85.0412 135.696 3
-10 2 -2 215.063 100.341 3
-2 -10 -2 205.641 68.6482 13
-2 10 -2 220.807 124.706 3
-2 10 2 218.362 100.634 1
2 10 2 215.978 110.214 1
2 -10 -2 311.053 123.221 5
10 2 2 280.126 117.727 9
-10 -2 -2 99.271 136.238 13
10 -2 2 205.665 80.4399 9
-2 -10 -2 135.807 66.3021 7
-2 10 -2 130.384 170.07 1
2 10 2 137.872 89.6955 9
-2 10 2 183.156 67.796 9
10 -2 2 142.532 88.036 16
10 2 -2 311.507 130.883 9
10 -2 -2 156.829 105.621 9
2 10 -2 161.981 121.103 9
10 -2 -2 372.705 149.059 15
2 -10 -2 207.856 60.181 10
2 10 -2 221.29 154.129 1
-2 10 2 236.211 128.06 8
10 2 -2 196.978 103.22 15
10 2 2 247.997 79.1162 8
-2 -10 2 236.157 176.552 4
-2 -10 -2 242.697 106.34 4
2 -10 -2 148.622 123.225 4
10 2 2 238.196 130.218 15
10 -2 2 151.891 96.8153 7
-2 10 2 212.305 69.2177 11
2 10 -2 285.602 184.729 8
-2 10 -2 3.90053 102.566 8
-10 2 2 92.7704 94.6074 14
2 10 2 9.16074 78.0915 8
2 -10 2 180.569 162.109 4
10 -2 2 277.771 94.8441 4
-10 2 -2 48.8943 90.8671 13
-10 -2 -2 254.535 124.791 12
-10 -2 -2 99.9953 59.8488 6
10 -2 -2 212.661 90.7424 7
10 -2 2 258.711 98.8123 15
-10 2 -2 392.146 147.302 6
10 -2 -2 132.366 104.332 16
10 -2 2 162.751 138.541 10
10 2 2 194.414 116.165 16
2 -10 2 318.204 139.351 7
-10 -2 2 217.805 96.4683 14
-10 -2 2 168.527 84.7003 11
10 2 -2 112.254 92.6307 16
-3 10 -1 1747.5 263.296 3
-10 -1 3 2012.12 251.372 11
-1 10 3 2207.29 268.191 1
3 10 1 2191.62 232.587 3
10 3 -1 2423.68 245.133 10
10 1 3 2077.96 237.359 9
1 10 -3 1508.84 279.315 3
10 1 3 2002.64 249.04 16
10 -3 1 1864.07 238.883 10
10 -1 -3 2027.93 213.407 7
-1 10 3 2097.89 207.696 9
10 -3 1 2072.23 178.595 9
10 -3 1 2072.2 241.219 15
10 -3 1 1589.2 222.496 2
-10 -3 -1 2321.79 162.889 6
3 10 1 2284.4 255.322 9
-1 -10 -3 2181.53 210.838 7
3 -10 -1 1783.19 257.166 2
-3 10 -1 1624.81 262.464 1
10 1 3 1368.07 178.293 8
-10 -3 -1 1980.45 208.49 5
-1 10 3 2331.8 268.654 8
-10 3 1 2032.11 228.241 6
1 -10 3 1171.77 308.938 2
3 10 1 2027.37 265.379 8
10 -1 -3 2206.67 277.686 15
3 -10 -1 2101.99 182.631 10
-3 10 -1 1873.16 252.625 6
-1 -10 -3 2185.52 245.567 2
3 10 1 2064.5 186.46 16
3 10 1 2141.48 249.583 1
3 -10 -1 2284.4 245.278 7
3 10 1 1889.34 175.27 15
-3 10 -1 2184.62 279.338 8
10 1 3 2232.79 265.89 15
-1 10 3 2074.87 235.194 6
10 3 -1 2471.44 285.026 15
10 -3 1 2372.87 256.056 7
-10 3 1 2113.08 179.816 3
10 1 3 2194.67 257.769 10
-10 -1 3 2017.77 262.376 14
10 -1 -3 2114.06 255.599 10
1 10 -3 2308.11 374.59 1
3 10 1 2301.86 187.182 6
-1 10 3 2098.32 252.803 3
-10 3 -1 2274.52 201.171 12
10 3 1 2175.77 254.177 9
3 -10 1 1782.35 259.804 2
1 10 3 2262.98 271.028 1
-10 1 3 2063.86 275.687 11
10 1 -3 2083.22 248.95 10
10 -3 -1 1937.5 243.964 10
10 3 1 1784.43 228.823 15
3 10 -1 1992.58 251.557 3
3 10 -1 1838.36 251.682 1
10 3 1 2058.99 230.099 10
1 -10 -3 2265.92 240.899 7
10 -1 3 1930.98 256.901 10
-10 1 3 2318.83 278.427 14
10 -1 3 1893.19 210.239 9
1 10 3 2122.4 233.099 9
3 -10 1 1910.23 252.93 7
10 -3 -1 2249.34 188.271 2
10 -3 -1 2308.15 201.914 4
10 3 1 2079.99 195.644 8
-3 10 1 2198.3 249.539 8
3 10 -1 2282.84 207.159 15
-3 -10 -1 2349.4 186.903 14
1 10 3 2195.71 277.933 8
10 -3 -1 2529.65 244.044 15
3 10 -1 1864.17 263.758 8
-3 10 1 1928.06 247.155 3
-3 10 1 1783.26 233.974 1
-10 -3 1 2231.12 196.234 6
10 1 -3 2076.3 205.388 7
10 -1 3 2085.32 267.898 16
10 1 -3 2417.77 280.652 15
3 10 -1 2177.4 273.481 9
-3 -10 -1 2371.95 192.175 7
1 -10 -3 2132.78 247.444 2
1 10 3 2347.15 260.139 3
10 -3 -1 2430.56 247.941 7
10 -1 3 2408.12 271.854 15
-1 10 -3 1141.05 344.713 3
-3 -10 -1 1818.61 212.439 2
-10 3 -1 2297.39 185.205 3
1 10 3 1989.24 219.045 6
-10 -3 1 1883.75 250.792 14
-10 3 -1 2148.34 267.883 13
-10 -3 1 2102.93 229.547 11
-10 3 -1 2149.05 239.322 6
3 10 -1 2226.58 220.587 6
10 -3 -3 4133.14 349.274 15
10 -3 3 5152.55 398.791 15
-3 10 3 4682 328.259 11
-10 -3 3 4874.5 386.367 11
-10 3 3 5192.12 311.479 1
10 -3 -3 5244.11 286.448 2
10 3 -3 4853.21 364.774 10
10 -3 -3 4710.56 377.709 10
3 -10 -3 4615.76 279.641 10
10 -3 3 4640.54 390.411 10
10 3 3 4639.84 380.862 10
-10 3 3 4740.31 377.716 6
-10 -3 3 5246.34 424.208 14
10 3 3 5062.6 387.987 9
-3 10 3 5254.4 279.895 9
3 10 3 4814.37 375.209 9
-3 10 -3 3342.27 510.459 1
3 10 -3 2236.74 414.872 3
-3 -10 -3 4850.17 353.426 2
3 -10 -3 4669.23 362.293 2
3 10 3 5050.8 392.375 1
-3 10 3 4281.19 390.051 1
10 3 3 4748.7 318.916 8
-3 10 3 5116.06 379.661 8
3 10 3 5303.29 420.11 8
-3 10 -3 3411.86 442.686 3
10 -3 3 4272.87 422.293 7
10 3 -3 4983.73 425.92 15
10 -3 3 4719.91 382.242 16
10 3 3 4119.63 368.511 16
3 10 3 5238.94 293.945 16
10 -3 -3 4900.62 364.146 7
3 -10 -3 4768.7 362.59 7
-3 10 3 5434.12 402.275 3
3 10 3 4384.32 354.671 3
-10 3 3 4725.94 401.888 11
10 3 3 4878.03 394.234 15
-3 -10 -3 4901.68 282.548 7
3 10 3 5010.04 327.399 6
-10 3 3 4654.05 385.334 14
-3 10 3 4544.97 370.063 6
-10 3 -3 3942.42 382.165 13
4 10 2 1024.04 161.876 3
4 10 2 999.181 129.061 6
-2 10 4 991.337 176.528 6
-4 10 -2 889.73 214.897 6
4 10 2 1100.03 152.932 15
10 4 -2 1078.79 164.694 10
4 -10 -2 1089.47 138.443 10
10 -4 2 995.93 191.928 10
-2 10 4 1084.24 194.396 1
-4 10 -2 1113.78 227.812 3
10 -4 2 1016.65 132.405 9
-10 -4 -2 1122.32 176.844 5
-4 10 -2 630.858 184.655 1
10 2 4 1186.76 204.225 9
4 10 2 1170.54 188.165 1
4 10 2 1120.67 189.606 9
10 2 4 1064.17 205.713 15
-2 -10 -4 1098.81 155.561 7
4 -10 -2 1046.11 178.642 7
10 4 -2 1373.03 215.157 16
10 2 4 1156.97 212.433 16
-2 -10 -4 1319.63 200.172 2
4 10 2 933.451 172.466 8
4 10 2 1415.86 167.195 16
10 -2 -4 976.638 181.642 10
10 -2 -4 1143.1 206.16 15
10 -2 -4 921.711 163.043 7
-2 10 4 984.677 144.179 9
-4 10 -2 914.294 196.126 8
10 -4 2 1404.43 198.584 15
10 -4 2 974.852 181.748 16
-4 -10 2 1101.36 230.627 2
-2 10 4 1207.55 209.594 8
-10 4 2 1010.59 179.13 14
4 -10 -2 945.969 170.626 2
-10 4 2 1034.9 152.64 3
10 4 -2 924.025 195.521 15
-2 10 4 877.685 161.509 3
-10 4 2 1110.98 150.61 1
10 -4 2 1288.21 238.376 7
-10 4 2 1113.21 180.719 6
-10 4 2 1458.37 244.254 11
-10 -2 4 1029.79 205.867 14
-10 4 0 1982.96 170.363 12
10 -4 0 1737.9 203.028 2
10 4 0 1759.33 255.521 15
-10 0 4 1992.46 257.636 11
-10 -4 0 1611.36 201.881 11
10 0 -4 1862.03 211.337 7
4 10 0 1969.48 232.13 3
-4 10 0 2140.98 259.054 3
-10 4 0 1624.71 209.237 6
10 -4 0 2075.33 224.593 15
10 4 0 1948.91 217.761 10
10 -4 0 1710.03 224.667 10
4 10 0 1771.7 188.409 15
4 -10 0 1611.68 178.5 10
4 10 0 1604.54 229.153 1
0 10 4 1756.29 220.197 6
10 0 4 1915.44 229.106 9
0 10 4 1677.42 205.4 9
-4 -10 0 1369.28 205.951 2
10 0 4 1656.71 232.943 15
4 10 0 1739.36 239.632 9
0 10 4 2112.58 275.471 1
0 10 4 2037.95 267.762 8
10 4 0 1850.6 241.74 16
-4 10 0 1528.61 238.46 1
0 -10 -4 1910.1 234.649 2
4 10 0 1731.38 258.949 8
10 4 0 1917.44 222.145 8
-4 10 0 1624.84 228.172 8
10 4 0 1408.32 208.756 9
10 0 4 1005.83 226.677 16
10 0 4 1399.38 250.946 10
0 -10 -4 1703.54 200.016 7
0 10 4 1801.53 242.114 3
10 0 -4 1768.58 263.143 15
4 10 0 1867.97 196.085 16
-10 0 4 1944.02 271.093 14
-10 4 0 1682.56 166.134 3
10 0 -4 1743.03 236.071 10
-4 10 0 2015.47 251.602 6
4 -10 0 1586.16 224.024 7
10 -4 0 1804.71 185.453 4
10 -4 0 1978.11 240.567 7
-4 -10 0 1652.38 182.607 14
4 -10 0 1414.44 222.225 2
-10 -2 -4 947.714 172.377 12
-4 -10 -2 1031.34 163.992 2
-4 10 2 1250.6 176.119 11
-4 10 2 1061.6 196.85 6
10 2 -4 854.94 164.185 10
2 -10 -4 956.663 131.427 10
4 -10 2 811.081 214.034 2
-10 4 -2 1115.16 202.473 6
10 4 2 944.075 175.385 16
4 10 -2 1012.86 210.897 3
2 10 4 1182.61 193.252 9
-4 10 2 1149.33 213.492 1
10 4 2 1083.93 195.787 15
10 4 2 1183.75 207.516 9
-10 -4 2 868.645 182.776 14
4 10 -2 961.566 253.953 1
-10 4 -2 1208.74 174.999 3
10 -4 -2 1072.5 164.011 4
-10 2 4 964.196 195.231 11
2 -10 -4 948.509 172.98 5
2 10 4 968.864 196.205 8
10 4 2 977.465 150.259 8
2 10 4 1185.51 212.785 1
-4 10 2 1035.4 169.339 8
10 -4 -2 1101.49 176.81 15
2 -10 -4 988.913 179.035 2
4 10 -2 993.268 219.859 8
2 10 4 1225.82 135.133 16
10 -2 4 1170.65 211.437 16
-10 2 4 796.903 160.025 6
10 -4 -2 1300.33 148.119 2
2 -10 -4 1171.51 178.149 7
10 -4 -2 1043.39 190.039 10
10 -4 -2 1235.63 192.07 7
4 10 -2 940.1 159.216 15
4 -10 2 948.3 214.087 7
2 10 4 982.125 185.826 3
10 4 2 1232 183.188 10
-10 -4 2 1252.24 185.039 11
10 2 -4 1158.07 223.268 15
-10 2 4 1088.21 200.801 14
10 -2 4 1081.82 215.575 10
-4 10 2 933.244 173.262 3
4 -10 -4 113.544 97.0996 5
-10 -4 -4 44.555 84.9601 12
-10 4 4 44.6178 99.7484 6
-4 -10 -4 114.224 93.1979 12
-4 10 4 35.6838 83.8483 6
10 -4 -4 101.126 115.683 10
-10 4 4 124.57 103.791 11
10 4 -4 45.0082 96.3427 10
4 -10 -4 21.9326 62.4522 10
10 -4 4 88.9185 91.6634 10
-4 -10 -4 60.5433 131.134 5
-4 -10 -4 106.46 67.9529 7
10 4 4 67.7361 107.835 9
4 10 4 45.2716 97.162 9
-10 -4 -4 67.5892 104.058 13
10 -4 -4 59.948 92.3578 2
10 4 4 17.6496 74.1363 8
-4 -10 -4 36.8366 71.9984 4
4 -10 -4 121.23 123.783 4
-4 10 4 115.611 95.5337 8
4 10 4 49.9587 89.2385 8
4 10 4 58.297 97.7368 16
-10 4 4 38.6374 76.9827 1
-4 -10 -4 56.9577 85.4484 2
-4 10 4 26.5304 105.039 3
4 -10 -4 49.2933 87.0692 2
10 -4 -4 66.0849 79.8275 7
-10 4 4 45.1508 81.4062 14
4 -10 -4 81.708 101.268 7
10 4 -4 19.9385 109.217 15
10 4 -4 38.3185 111.467 16
10 -4 -4 84.3906 98.799 16
10 -4 -4 87.2945 72.4493 15
4 10 4 59.5898 83.7552 1
4 10 4 95.8733 85.1801 3
10 4 4 93.2561 101.145 15
10 4 4 20.5098 99.2038 16
-10 -4 4 45.2268 98.3446 14
-4 10 4 200.775 113.264 1
-3 10 5 880.004 173.879 6
-3 10 5 1110.9 241.588 1
-10 5 3 819.415 184.283 6
-3 -10 -5 824.276 174.369 2
-10 5 3 851.834 180.448 11
5 -10 -3 1091.99 191.742 2
-10 5 3 858.196 156.281 14
5 10 3 1243.08 191.829 1
5 -10 -3 1053.1 152.798 10
-10 -5 -3 867.658 167.887 5
10 3 5 1036.72 203.485 16
5 -10 -3 748.91 125.863 5
-5 10 -3 468.033 197.143 3
5 10 3 985.987 179.185 3
10 -3 -5 842.776 166.811 7
5 10 3 1026.14 187.509 9
10 5 -3 774.244 216.352 9
-3 -10 -5 698.489 182.973 4
10 5 -3 827.263 153.018 10
-3 10 5 774.011 185.984 8
5 10 3 853.199 186.701 8
-10 5 3 800.575 149.293 1
10 3 5 1010.42 203.495 15
5 10 3 1287.53 185.576 15
-3 10 5 922.983 199.135 3
-3 -10 -5 398.701 123.283 7
10 -5 3 888.176 213.433 7
10 -5 3 795.14 189.995 10
10 5 -3 731.548 170.684 16
5 -10 -3 1195.36 202.652 7
10 -3 -5 679.07 157.518 15
10 5 -3 663.269 180.247 15
-10 5 3 921.428 166.806 3
5 10 3 1094.6 168.952 16
-10 -5 -1 120.379 117.052 12
-1 -10 -5 175.454 86.6706 7
5 10 1 70.8301 79.9544 15
10 5 -1 217.305 118.916 10
5 10 1 151.818 60.0623 6
-5 -10 1 168.776 110.611 2
-5 10 -1 50.9938 88.1737 6
-5 10 -1 219.49 111.186 3
10 -5 1 212.914 132.507 2
10 -5 1 53.9956 96.6982 10
-10 5 1 57.7428 101.186 6
5 10 1 51.7118 93.1365 1
-1 -10 -5 264.661 123.511 5
-1 10 5 96.887 76.5395 9
-10 -5 -1 108.139 86.3924 5
5 -10 -1 160.008 96.2939 5
5 10 1 170.306 89.9186 9
10 -5 1 92.3 85.2908 15
-5 -10 1 305.729 169.366 5
10 5 -1 209.558 153.352 9
-1 -10 -5 248.874 129.636 4
-1 10 5 286.244 142.294 8
-1 -10 -5 35.8766 84.5339 2
-10 5 1 72.8876 69.6949 3
5 10 1 8.92638 73.5183 8
5 10 1 185.63 92.6343 16
-1 10 5 48.6538 96.1448 1
5 -10 -1 198.817 127.497 4
10 5 -1 143.143 135.522 8
10 -5 1 141.057 77.9594 4
10 5 -1 127.728 105.228 15
-10 5 1 192.007 100.734 1
-5 -10 1 96.9478 88.8104 4
-5 10 -1 356.118 143.818 8
10 -5 1 131.85 109.145 7
5 -10 -1 224.627 90.0289 10
-1 10 5 4.54275 104.581 3
5 -10 -1 553.062 158.871 2
5 10 1 104.067 77.9445 3
10 5 -1 75.3658 100.903 16
-5 -10 1 63.5145 62.0338 14
-5 10 -1 153.272 143.424 1
10 -5 1 2.73702 82.0961 16
-10 5 -1 359.247 128.726 13
10 -5 -1 146.075 101.364 15
10 -5 -1 168.29 95.8226 7
1 10 5 104.936 75.7466 9
-10 -5 1 119.13 64.3377 11
-5 10 1 137.408 84.0655 6
-10 5 -1 32.2737 83.033 6
5 10 -1 5.32787 63.4092 6
10 -5 -1 28.5619 71.5387 10
10 -5 -1 85.9994 84.0014 2
1 -10 -5 112.887 101.654 5
10 5 1 196.287 100.361 10
5 -10 1 88.9868 77.7992 10
-10 5 -1 97.0803 66.3064 3
5 10 -1 35.7921 113.32 3
-5 -10 -1 322.032 154.27 5
10 5 1 236.956 129.964 9
-10 -5 1 263.937 107.478 5
5 -10 1 4.49481 104.652 5
5 10 -1 41.6838 130.947 9
5 -10 1 51.8246 114.336 2
1 -10 -5 230.986 126.418 4
1 10 5 2.46809 100.642 8
1 -10 -5 88.9022 112.327 2
10 -5 -1 169.081 88.7842 4
10 5 1 0.53321 84.6145 8
-5 10 1 168.309 109.08 8
10 5 1 122.885 102.074 15
-5 -10 -1 59.5564 77.8992 4
5 10 -1 226.635 132.918 8
-5 10 1 32.8557 98.1188 3
5 -10 1 199.476 137.063 7
1 10 5 211.226 112.915 1
-5 10 1 36.2504 103.657 1
-10 5 -1 170.676 134.966 1
10 5 1 16.6621 99.9837 16
5 -10 1 99.3847 87.8439 4
-10 -5 1 113.646 94.2384 14
5 10 -1 61.1041 104.931 1
5 10 -1 3.268 87.5533 15
10 -5 -1 76.3211 100.496 16
1 10 5 242.714 113.639 3
-5 -10 -1 88.4679 96.3052 2
1 -10 -5 132.838 70.3132 7
5 10 -1 168.881 98.3926 16
3 -10 -5 663.15 146.867 10
10 -5 -3 1144.96 160.78 2
-5 10 3 861.044 165.548 6
-5 10 3 1092.89 212.346 1
3 -10 -5 643.276 157.596 5
10 5 3 833.292 175.033 10
5 -10 3 531.397 176.182 7
3 10 5 973.752 204.451 9
-5 -10 -3 801.894 185.782 5
5 -10 3 528.865 226.559 2
5 10 -3 735.803 201.035 3
10 5 3 802.665 186.011 9
-5 10 3 839.495 167.024 11
-10 5 -3 1020.48 256.276 3
-10 3 5 961.273 187.733 11
3 10 5 1060.38 216.14 3
10 -5 -3 816.322 168.738 4
3 10 5 778.652 211.922 8
10 5 3 942.623 169.199 8
3 -10 -5 760.052 168.185 2
-5 10 3 649.382 132.586 8
5 10 -3 742.35 234.625 8
-5 10 3 668.065 152.908 3
3 10 5 982.953 206.504 1
-5 -10 -3 909.352 159.564 2
10 -5 -3 1058.98 191.987 10
10 5 3 942.714 176.982 16
3 -10 -5 854.848 176.648 7
-10 -5 3 1152.08 217.79 14
10 -5 -3 740.013 151.214 7
10 -5 -3 895.67 160.334 15
10 5 3 900.291 165.017 15
-10 5 -3 650.291 175.451 13
-10 5 5 1315.73 247.381 6
-5 10 5 918.821 205.836 6
-10 5 5 962.372 211.033 11
10 5 5 1115.14 213.311 9
-5 10 5 1094.88 233.314 1
10 -5 -5 870.629 163.932 2
10 5 5 958.134 185.364 8
-5 10 5 906.206 202.665 8
5 10 5 1172.28 251.557 8
-5 -10 -5 950.302 171.431 2
5 -10 -5 1298.55 192.477 10
5 -10 -5 754.501 201.87 2
-10 5 5 1130.07 202.206 1
5 10 5 1292.37 220.447 1
5 10 5 1187.89 176.856 16
10 5 5 993.598 246.904 15
5 10 5 1172.86 231.944 9
10 -5 -5 1331.52 232.411 10
5 -10 -5 1245.09 227.065 7
10 -5 -5 1278.31 207.761 15
-5 10 5 986.501 196.3 3
10 5 5 1015.99 210.819 16
10 -5 -5 1000.22 212.807 7
-10 -5 -5 652.376 178.348 13
-10 6 4 1214.45 200.877 3
-10 6 4 793.035 184.683 6
-4 10 6 624.04 163.81 3
6 -10 -4 972.071 149.227 10
6 10 4 1162.81 202.811 3
10 -6 4 1140.65 219.086 10
-10 6 4 912.575 179.618 14
6 10 4 908.214 184.879 9
6 10 4 1137.58 224.257 8
-10 6 4 1242.36 239.665 11
6 10 4 1085.83 176.153 16
-4 10 6 1162.69 257.353 1
6 -10 -4 1401.42 223.475 2
10 6 -4 694.372 192.181 15
6 -10 -4 1351.4 217.496 7
6 10 4 1416.22 213.536 15
6 10 4 1159.57 203.728 1
10 6 -4 749.302 233.124 9
-10 -6 -4 1220.58 207.246 5
-10 6 4 1260.98 199.115 1
-6 10 -2 2721.76 365.136 6
-10 6 2 2715.92 250.515 3
10 6 -2 2869.59 219.105 3
-10 6 2 2489.17 299.263 11
10 6 -2 2502.99 247.606 10
6 -10 -2 2965.41 256.119 10
10 -6 2 2458.33 283.656 10
6 10 2 3007.62 337.675 9
6 10 2 2710.59 267.648 15
10 -6 2 2462.14 322.166 2
-2 10 6 3136.62 390.237 1
6 -10 -2 3455.53 325.614 2
-6 10 -2 2515.23 348.673 1
10 6 -2 2864.87 346.766 9
-10 6 2 3024.24 280.685 1
6 10 2 2734.31 270.117 1
-6 10 -2 2806.04 337.353 3
10 6 -2 3070.06 358.503 8
6 10 2 3131.12 279.335 16
10 -6 2 2717.17 316.203 7
10 6 -2 2563.66 323.614 16
-10 6 2 2705.57 279.94 14
10 6 -2 2727.31 332.129 15
6 10 2 2905.45 320.817 8
10 -6 2 2975.43 288.243 15
6 10 2 3280.72 293.331 3
-2 10 6 2332.74 355.116 3
-10 6 2 2862.89 298.245 6
6 -10 -2 3247.4 326.548 7
-10 6 0 2395.4 278.271 6
-6 -10 0 2360.84 256.42 2
6 -10 0 2730.12 243.371 10
10 -6 0 2589.19 250.635 15
-6 10 0 2356.18 307.733 1
-10 -6 0 2183.66 233.791 11
10 -6 0 2692.06 295.794 7
10 6 0 2409.68 287.194 15
6 10 0 2420.63 290.659 9
6 -10 0 2478.24 304.387 2
10 -6 0 2625.07 275.079 2
10 -6 0 2666.68 259.646 4
0 -10 -6 1119.09 234.744 2
0 10 6 2348.32 336.435 1
6 10 0 2081.26 273.953 8
10 6 0 2741.22 290.878 8
-6 10 0 2145.2 266.69 8
10 6 0 2360.48 288.834 16
6 10 0 2659.15 263.481 16
6 -10 0 2261.95 287.795 7
6 10 0 2257.03 243.961 15
-10 6 0 2691.39 240.972 3
-6 10 0 2860.28 305.599 3
10 6 0 2352.38 293.089 9
-6 -10 0 2481.88 254.391 14
-10 6 0 2682.9 272.994 13
10 -6 -2 3241.07 275.832 2
10 -6 -2 3338.06 321.731 7
-6 10 2 2741.93 282.762 11
10 -6 -2 2317.33 267.065 10
10 6 2 3043.65 317.536 15
10 6 2 2078.44 237.675 10
6 -10 2 2782.06 282.818 10
6 10 -2 2603.33 293.893 3
-10 -6 2 3009.95 287.93 11
10 6 2 2749.41 309.573 9
6 10 -2 2974.2 398.446 1
-10 6 -2 2691.92 346.391 6
6 10 -2 2798.91 349.034 9
10 -6 -2 2548.94 269.537 4
-6 10 2 3067.51 326.253 1
2 10 6 3197.61 382.982 8
10 6 2 2842.41 280.726 8
-6 10 2 2959.89 276.518 8
2 -10 -6 1963.89 294.846 2
6 10 -2 2696.67 293.939 15
6 10 -2 2592.07 334.985 8
10 6 2 2524.38 306.219 16
-6 10 2 3041.98 302.671 3
-10 6 -2 2987.13 299.323 3
10 -6 -2 2967.19 267.514 15
-6 10 2 2760.37 307.84 6
6 -10 2 2310.83 329.104 2
6 -10 2 2409.29 319.462 7
-10 -6 2 2590.51 318.229 14
10 -6 -4 1114.58 178.716 15
-6 10 4 1001.2 208.91 1
-6 10 4 1328.91 230.166 6
-6 10 4 1328.94 222.935 3
10 -6 -4 1162.75 196.256 7
10 -6 -4 670.292 152.283 10
10 6 4 1212.37 232.97 15
4 10 6 1186.55 241.329 9
10 -6 -4 500.98 149.652 4
4 -10 -6 874.388 224.362 4
4 10 6 866.512 200.745 8
10 6 4 1217.16 202.174 8
-6 10 4 1087.54 175.863 8
10 -6 -4 1066.66 153.058 2
10 6 4 1051.05 201.641 9
-10 -6 4 1128.91 211.72 14
4 -10 -6 1076.61 227.998 2
-6 10 4 1348.69 226.103 11
4 -10 -6 914.576 180.541 7
10 6 4 868.485 185.973 16
-6 10 6 1007.69 228.572 6
6 -10 -6 1381.26 214.16 10
6 -10 -6 1419.82 258.077 7
6 10 6 1096.23 230.106 9
-6 -10 -6 602.844 149.957 2
6 10 6 788.466 218.823 8
6 -10 -6 1393.53 286.395 2
-6 10 6 1290.07 263.663 3
10 -6 -6 866.6 193.952 7
-6 10 6 732.73 204.746 1
10 -6 -6 782.937 172.98 10
-10 -7 -5 276.734 108.549 12
-10 7 5 282.404 129.071 6
-10 7 5 544.916 168.101 11
7 -10 -5 525.512 134.013 10
-10 -7 -5 183.786 125.662 13
7 -10 -5 509.792 148.221 7
7 10 5 420.961 139.846 16
7 -10 -5 400.88 142.331 4
7 10 5 374.02 167.114 8
7 -10 -5 375.041 131.158 2
-10 7 5 256.444 125.77 1
7 10 5 405.788 130.439 1
7 -10 -5 381.833 86.6138 15
7 10 5 246.903 134.534 9
-10 -7 -3 430.407 168.873 12
-10 7 3 323.512 160.276 6
-10 7 3 454.315 168.353 11
-10 7 3 307.465 130.16 1
10 7 -3 25.9099 87.7275 10
7 -10 -3 285.084 127.582 10
7 10 3 102.593 88.6048 1
10 -7 3 11.1469 103.526 10
7 -10 -3 258.724 102.029 5
-7 10 -3 606.312 258.168 3
-10 -7 -3 60.2372 98.7011 5
7 10 3 121.277 94.7287 9
10 7 -3 438.077 203.876 9
-7 10 -3 411.82 244.463 1
7 -10 -3 137.307 120.592 4
7 10 3 27.8676 146.641 8
10 7 -3 85.6187 143.828 15
-10 -7 -3 195.3 70.5438 2
10 -7 3 225.758 109.483 16
10 -7 3 51.8723 106.81 4
7 10 3 4.64581 98.1939 16
-7 -10 3 126.55 131.485 4
7 -10 -3 164.438 123.219 2
10 7 -3 378.491 169.795 16
7 -10 -3 468.831 173.442 7
-10 7 3 168.771 142.335 14
7 10 3 136.55 92.442 3
7 10 3 131.383 104.333 15
10 -7 3 126.572 110.948 7
-10 7 3 17.2101 80.3092 3
-10 -7 -3 535.01 196.844 13
7 10 1 164.513 87.7918 16
-10 7 1 64.0629 91.4749 3
7 10 1 14.7649 78.3132 3
-10 7 1 26.9049 86.0523 6
10 7 -1 129.601 66.545 3
10 -7 1 42.5834 130.185 2
-7 10 -1 35.146 121.681 6
10 7 -1 55.7263 88.3239 10
7 -10 -1 72.9511 70.0424 5
7 -10 -1 21.0151 79.2152 10
-7 -10 1 60.294 112.099 2
10 -7 1 87.9444 96.3028 10
-10 7 1 63.3957 119.154 1
-10 -7 -1 66.2697 98.7642 5
10 -7 1 15.467 91.1424 16
-7 10 -1 62.4807 93.3487 3
-7 -10 1 116.479 129.741 5
7 10 1 52.2758 120.395 9
7 10 1 11.8345 101.226 15
10 7 -1 111.912 156.555 9
10 7 -1 23.7965 110.585 15
-10 -7 -1 69.7149 55.1659 4
7 10 1 9.51674 87.4332 8
7 -10 -1 9.16805 103.526 4
-7 10 -1 285.08 195.879 1
10 7 -1 233.947 160.471 8
10 -7 1 3.22387 99.3913 4
-7 -10 1 88.5436 100.438 4
-7 10 -1 24.4962 101.039 8
-7 -10 1 0.96431 78.357 14
10 -7 1 150.922 125.77 7
10 -7 1 35.8359 80.8137 15
7 -10 -1 187.335 116.076 2
10 7 -1 35.1291 132.775 16
7 -10 -1 117.122 132.849 7
7 10 1 127.171 108.143 1
-10 7 -1 214.281 189.298 1
-7 10 1 34.6443 111.494 6
-7 10 1 20.318 115.958 1
10 -7 -1 57.4036 82.729 2
7 -10 1 47.9386 134.828 2
10 7 1 27.1151 77.6807 16
-10 7 -1 92.6715 127.283 6
-7 -10 -1 76.8159 81.3295 2
-10 -7 1 2.6451 87.4172 11
7 10 -1 1.58091 102.586 3
10 -7 -1 63.4344 74.2104 10
7 -10 1 24.1791 91.6807 5
10 7 1 130.861 86.3019 10
10 -7 -1 116.546 114.123 7
7 -10 1 8.73004 69.5165 10
-7 10 1 91.2495 82.3545 14
-7 -10 -1 208.472 143.326 5
-10 -7 1 0.73483 130.821 5
10 7 1 7.52662 124.358 9
7 10 -1 124.9 118.065 9
7 -10 1 62.872 72.6348 16
10 7 1 96.2467 105.278 8
10 -7 -1 76.0123 91.9749 4
-7 -10 -1 68.6615 77.5045 4
-10 -7 1 79.7317 87.5304 14
-7 10 1 114.965 99.4539 8
7 10 -1 306.3 181.361 8
-10 -7 1 17.9797 59.7494 4
7 -10 1 148.466 128.921 4
7 10 -1 47.8052 95.2666 16
7 10 -1 129.359 146.347 1
-7 10 1 24.2873 109.012 3
-10 7 -1 22.4103 100.609 3
7 10 -1 155.751 127.689 15
10 7 1 35.965 90.5283 15
10 -7 -1 4.08611 84.5739 15
7 -10 1 42.8828 122.141 7
10 7 1 56.6011 52.1288 3
-10 7 -1 33.2634 99.1019 13
10 -7 -1 161.076 126.344 16
-7 10 1 1.90954 57.7756 13
10 7 3 124.599 53.9455 1
-7 -10 -3 277.393 161.155 12
10 -7 -3 215.988 122.066 15
-7 10 3 168.081 100.844 11
-7 10 3 238.651 162.997 6
-10 -7 3 156.84 128.229 14
10 -7 -3 540.328 163.634 10
7 -10 3 66.2142 115.451 4
10 -7 -3 103.496 110.577 16
-10 7 -3 280.774 248.779 3
-7 -10 -3 193.754 158.915 5
7 10 -3 412.831 192.514 3
7 -10 3 366.829 220.192 2
10 7 3 75.4981 100.246 9
10 7 3 10.6798 99.6805 16
7 10 -3 299.879 192.468 9
10 -7 -3 14.2449 90.2415 4
10 7 3 32.0859 95.5097 8
-7 10 3 302.174 117.66 8
-10 7 -3 229.056 225.499 6
7 10 -3 339.074 221.742 8
10 -7 -3 149.888 107.22 2
-7 -10 -3 341.187 110.867 2
-7 -10 -3 290.952 124.867 4
10 -7 -3 290.899 125.342 7
10 7 3 255.067 117.771 10
10 7 3 47.2414 100.245 15
7 10 -3 235.608 162.004 15
7 -10 3 21.2208 125.638 7
-7 10 3 8.76678 89.4483 1
-7 10 3 216.082 104.514 3
-7 -10 -3 357.696 153.525 13
-7 -10 -5 408.474 123.167 12
-7 10 5 588.455 167.563 11
-7 10 5 517.138 154.252 6
-7 10 5 504.854 169.929 1
10 -7 -5 442.566 136.56 10
10 7 5 552.593 186.037 15
-7 -10 -5 454.926 156.925 5
10 7 5 314.309 116.036 9
-7 10 5 522.848 159.675 8
10 7 5 450.148 139.061 8
10 -7 -5 504.918 130.451 2
-7 -10 -5 176.45 85.3291 2
10 -7 -5 476.647 161.057 7
10 -7 -5 510.424 139.939 15
10 7 5 349.841 142.399 16
-7 10 5 347.964 137.001 3
-10 8 6 346.656 148.293 11
8 10 6 629.858 177.795 9
8 -10 -6 61.4632 103.979 4
8 -10 -6 660.381 167.914 10
8 10 6 658.417 201.018 8
8 -10 -6 630.312 189.482 2
-10 8 6 783.031 216.684 6
8 10 6 67.0228 124.656 1
-10 8 6 380.548 160.485 1
8 10 6 625.083 179.605 16
8 -10 -6 678.034 171.815 7
-10 -8 -6 655.057 175.766 12
8 10 4 1533.02 218.422 1
-10 8 4 1593.02 239.76 1
8 10 4 1696.43 252.497 16
-10 8 4 1286.31 245.636 6
8 10 4 1436.9 254.478 9
8 -10 -4 1574.7 234.121 2
-10 8 4 1041.15 200.066 11
10 8 -4 1193.78 240.756 15
10 8 -4 1101.55 306.021 9
-10 8 4 1276.11 149.876 8
-10 8 4 1954.45 257.066 3
8 10 4 1640.37 275.312 8
8 -10 -4 1447.38 206.732 10
-10 -8 -4 1511.4 157.264 2
8 -10 -4 1544.74 249.92 7
8 -10 -4 1497.16 161.309 15
8 10 4 1783.35 241.957 15
10 -8 4 1053 268.513 7
-10 8 2 542.618 121.609 3
10 -8 2 740.944 157.557 16
-10 -8 -2 207.898 137.751 12
-10 8 2 364.267 132.682 6
-10 8 2 356.444 125.187 11
10 8 -2 506.777 132.319 10
-8 10 -2 169.974 133.433 6
8 10 2 416.302 124.259 16
8 -10 -2 468.993 122.442 10
-8 10 -2 372.85 164.605 3
10 8 -2 600.721 110.665 3
10 -8 2 486.801 212.716 2
-10 -8 -2 454.751 145.118 5
8 -10 -2 456.618 150.839 7
8 10 2 528.631 124.729 1
-8 -10 2 542.977 195.801 5
-8 -10 2 513.789 152.229 14
10 8 -2 586.64 153.879 9
-10 8 2 753.236 178.396 1
-10 -8 -2 683.908 123.424 4
8 10 2 281.69 110.711 8
8 -10 -2 488.331 156.629 4
-8 10 -2 507.585 172.405 1
10 8 -2 505.276 149.628 8
8 10 2 523.984 172.736 9
10 -8 2 695.848 191.05 4
-8 -10 2 728.581 171.342 4
10 -8 2 445.25 161.846 10
-10 -8 -2 415.812 148.991 13
10 8 -2 275.278 117.261 15
8 -10 -2 389.34 136.033 2
8 10 2 472.508 130.945 15
10 -8 2 405.981 169.742 7
10 8 -2 324.868 141.971 16
-10 8 2 507.224 149.692 14
8 -10 -2 663.577 110.776 15
8 10 2 739.274 150.396 3
-10 8 0 653.587 151.833 13
8 -10 0 861.183 203.1 2
10 8 0 552.839 148.89 1
10 -8 0 857.711 207.353 2
-10 8 0 940.723 216.677 6
-8 10 0 747.468 177.518 6
10 -8 0 810.868 172.877 10
8 10 0 1069.42 216.761 1
8 -10 0 950.422 178.199 10
-10 8 0 1054.06 215.073 1
10 8 0 613.23 183.286 9
8 10 0 517.375 170.182 9
8 10 0 509.593 169.946 8
10 8 0 672.818 180.877 8
-8 10 0 676.754 185.564 8
10 8 0 1098.69 228.979 16
8 10 0 819.605 182.406 16
-8 10 0 875.363 191.706 3
10 -8 0 1041.87 229.321 7
8 -10 0 722.475 196.683 7
10 -8 0 700.295 147.233 15
-8 -10 0 760.625 168.301 14
-8 10 2 396.58 128.793 3
-8 -10 -2 503.137 155.994 12
-8 10 2 494.243 139.682 6
-8 -10 -2 489.125 82.2457 11
-8 10 2 401.64 118.222 11
-10 8 -2 301.13 191.262 1
8 10 -2 542.692 162.438 15
-10 8 -2 385.835 138.616 6
10 8 2 661.873 140.437 10
8 -10 2 200.705 116.646 10
8 -10 2 166.795 147.501 2
-8 -10 -2 560.472 160.052 5
10 8 2 582.905 182.321 9
10 -8 -2 574.766 186.402 10
-10 -8 2 367.33 166.622 5
8 -10 2 785.993 199.06 5
8 10 -2 222.52 138.602 9
-8 10 2 752.95 182.216 1
-10 8 -2 517.311 150.698 3
-8 -10 -2 340.741 105.237 4
10 -8 -2 370.67 143.326 4
-10 -8 2 672.769 189.652 14
10 8 2 400.844 155.173 8
10 8 2 499.632 114.306 1
-8 10 2 562.833 131.426 8
8 10 -2 570.419 176.327 8
8 -10 2 989.628 243.824 4
8 -10 2 505.447 101.079 16
-10 -8 2 411.27 121.368 4
10 8 2 521.513 166.589 16
10 -8 -2 618.742 149.193 16
8 10 -2 300.594 126.344 16
10 -8 -2 413.944 130.218 7
10 -8 -2 517.209 143.365 2
10 8 2 511.687 113.11 3
10 -8 -2 347.436 116.07 15
-8 -10 -2 500.63 113.069 2
10 8 2 723.986 177.099 15
8 -10 2 634.846 193.82 7
-8 10 2 426.998 90.5161 14
-8 -10 -2 664.432 186 13
8 10 -2 389.745 100.678 10
-8 10 4 1211.08 221.464 6
-8 10 4 1480.2 234.824 11
-8 10 4 1492.26 254.422 1
10 -8 -4 1550.67 233.111 10
10 8 4 1470.8 267.967 9
10 -8 -4 1659.78 262.839 4
10 8 4 1577.6 237.747 8
-8 10 4 1380.71 204.815 8
-8 -10 -4 1190.9 175.422 2
10 -8 -4 1348.65 220.427 2
10 8 4 1216.96 210.82 16
10 -8 -4 1088.56 189.218 7
10 8 4 1283.7 152.792 1
8 -10 4 1180.88 283.192 7
10 8 4 1573.56 263.846 15
-8 10 4 1168.32 207.971 3
10 -8 -4 1190.91 189.096 15
-8 10 6 668.715 189.911 6
10 -8 -6 734.646 166.769 10
10 8 6 434.903 149.797 9
-8 10 6 556.8 137.634 1
-8 10 6 388.579 143.522 8
10 8 6 321.311 171.977 8
10 -8 -6 616.225 175.786 2
-8 -10 -6 466.859 159.13 12
10 8 6 569.502 171.496 16
10 -8 -6 600.158 175.272 7
-8 10 6 535.004 157.926 3
9 -10 -7 264.028 154.923 7
-10 -9 -5 543.948 160.945 12
-10 9 5 396.591 169.469 6
-10 -9 -5 457.553 180.52 13
9 -10 -5 1044.72 214.591 10
-10 -9 -5 443.513 166.129 5
9 10 5 791.378 204.136 9
9 -10 -5 673.367 167.874 4
-10 9 5 505.134 136.766 8
-10 -9 -5 457.145 106.555 2
9 10 5 667.111 196.861 8
9 -10 -5 704.773 209.512 2
9 10 5 608.486 163.525 16
9 10 5 513.169 174.092 1
9 -10 -5 531.946 117.872 15
-10 9 5 498.682 150.11 3
-10 9 5 871.653 216.414 11
9 -10 -5 767.995 211.433 7
9 10 5 648.374 180.202 15
-10 9 5 436.781 163.374 1
-10 -9 -3 644.389 209.625 13
-10 9 3 599.954 203.02 6
-10 9 3 665.956 201.696 11
9 -10 -3 485.691 178.202 2
10 9 -3 560.263 168.33 10
9 -10 -3 591.079 183.167 10
9 -10 -3 787.484 157.467 5
-9 10 -3 939.748 273.703 3
10 -9 3 398.86 158.451 10
-10 9 3 960.855 201.561 3
-10 -9 -3 631.459 207.806 12
-10 -9 -3 637.218 225.418 5
10 9 -3 739.319 187.537 3
9 10 3 687.019 150.47 1
9 10 3 549.566 180.127 15
10 9 -3 559.608 194.875 15
9 10 3 556.781 149.488 3
9 10 3 458.339 183.93 9
10 -9 3 639.912 224.792 4
-9 -10 3 823.736 247.425 5
10 9 -3 269.385 169.178 9
9 -10 -3 779.975 205.562 4
9 10 3 531.691 147.396 8
-10 9 3 362.087 120.397 8
-9 10 -3 253.653 265.749 1
10 9 -3 530.794 238.559 8
-10 9 3 492.008 164.869 1
-9 -10 3 405.837 163.788 4
9 10 3 644.333 189.714 16
10 9 -3 582.44 205.142 16
9 -10 -3 815.562 220.174 7
-10 -9 -3 570.98 119.659 2
-9 -10 3 366.306 148.981 14
9 -10 -3 690.957 140.956 15
-9 10 -3 499.564 221.085 6
-10 9 3 560.828 163.198 14
10 -9 3 831.219 244.306 7
9 10 1 541.314 129.046 3
-10 -9 -1 753.151 138.424 11
-10 -9 -1 674.833 143.951 2
-10 9 1 686.179 162.649 3
-10 9 1 568.033 178.882 6
10 9 -1 825.575 144.81 3
9 10 1 474.456 127.589 1
10 -9 1 375.805 172.197 2
-9 10 -1 886.333 204.014 3
-9 10 -1 888.059 233.925 6
10 9 -1 535.699 124.202 10
9 -10 -1 536.906 106.102 15
9 -10 -1 298.304 103.799 10
10 -9 1 441.109 147.787 10
9 10 1 666.197 124.384 10
-10 9 1 680.835 167.043 13
-9 -10 1 349.143 183.838 2
-10 -9 -1 319.733 162.499 5
10 -9 1 632.474 144.078 16
9 10 1 295.355 119.785 9
10 9 -1 614.306 178.055 16
10 9 -1 414.146 188.448 9
-10 -9 -1 599.629 121.866 4
9 10 1 595.347 165.011 8
9 -10 -1 815.219 145.53 16
9 -10 -1 316.403 139.992 4
10 9 -1 1044.74 241.753 8
-10 9 1 531.892 120.86 8
10 -9 1 556.308 152.789 4
-9 10 -1 226.418 146.432 1
9 10 1 763.889 167.952 16
9 -10 -1 654.154 163.522 7
10 9 -1 697.579 213.002 15
9 10 1 633.026 162.548 15
-10 9 1 696.851 193.06 1
10 -9 1 583.878 132.722 15
9 -10 -1 558.249 169.249 2
10 -9 1 626.913 199.768 7
-9 -10 1 473.399 155.982 14
-10 9 1 781.277 171.089 14
10 -9 -1 633.172 127.832 15
-9 -10 -1 706.726 114.2 11
-9 10 1 505.229 168.76 3
-9 10 1 699.219 194.978 6
9 -10 1 560.4 191.036 2
9 10 -1 664.726 151.133 3
-10 9 -1 717.297 174.306 3
-10 9 -1 623.745 209.715 6
9 10 -1 701.217 196.771 16
9 10 -1 671.002 128.24 10
10 9 1 658.138 195.189 16
10 -9 -1 843.279 198.924 10
10 9 1 686.163 143.596 10
9 -10 1 771.618 168.13 10
-9 -10 -1 374.312 131.338 5
-9 -10 -1 574.939 136.087 2
10 9 1 528.781 119.845 1
10 9 1 626.851 205.063 9
9 10 -1 421.969 186.701 9
10 9 1 655.876 187.465 15
10 9 1 792.179 196.241 8
10 -9 -1 519.969 159.541 4
-9 10 1 459.317 120.68 8
9 10 -1 757.339 255.596 8
-10 9 -1 513.502 149.802 13
-10 -9 1 513.63 126.125 4
9 -10 1 840.065 211.085 4
9 10 -1 491.17 183.177 1
-9 10 1 390.674 149.006 1
10 -9 -1 923.318 217.065 7
9 10 -1 674.025 185.332 15
-10 9 -1 425.64 184.89 1
9 -10 1 664.5 194.287 7
10 -9 -1 649.668 180.006 2
-10 -9 1 508.774 154.38 14
-9 10 1 581.313 138.772 14
10 9 1 530.036 114.281 3
-9 10 1 492.345 120.384 13
-9 -10 -3 423.832 190.043 13
-9 -10 -3 745.41 225.135 12
-9 10 3 422.466 146.36 11
9 10 -3 630.636 152.516 10
-10 9 -3 426.617 245.076 6
9 -10 3 596.879 216.482 4
-10 9 -3 687.115 216.622 3
10 9 3 675.894 149.593 1
10 -9 -3 557.302 187.457 2
9 -10 3 334.187 141.283 10
9 10 -3 369.202 151.563 3
-9 -10 -3 758.632 201.144 5
-9 10 3 593.235 188.201 1
9 -10 3 467.673 166.021 2
10 9 3 543.966 201.059 9
-10 -9 3 647.898 258.773 5
9 10 -3 261.839 171.366 9
10 -9 -3 665.065 174.108 16
-9 -10 -3 633.834 189.686 4
10 -9 -3 806.77 227.928 4
10 9 3 513.198 189.338 8
-9 10 3 480.903 123.357 8
9 10 -3 685.17 257.972 8
9 -10 3 549.666 131.742 16
9 10 -3 647.415 222.528 15
10 9 3 559.727 197.953 16
10 -9 -3 506.923 181.425 10
-9 -10 -3 533.299 124.659 2
10 -9 -3 599.821 192.907 7
-9 10 3 587.255 207.566 6
9 10 -3 263.834 183.437 16
10 -9 -3 615.308 160.582 15
10 9 3 701.603 196.465 15
9 -10 3 613.668 210.407 7
-10 -9 3 556.99 181.464 14
-9 10 3 742.883 186.698 3
-9 10 5 802.235 215.094 6
10 -9 -5 708.043 187.526 10
10 -9 -5 581.22 169.854 7
-9 -10 -5 478.783 183.642 5
-9 10 5 546.567 154.817 8
10 9 5 479.336 200.906 9
10 -9 -5 584.479 173.266 4
10 9 5 595.474 184.594 8
-9 -10 -5 497.245 134.493 2
10 -9 -5 522.743 156.347 2
10 9 5 572.996 133.701 1
10 9 5 402.638 174.289 16
-9 -10 -5 868.595 220.504 12
10 -9 -5 771.048 162.712 15
-9 10 5 904.094 201.739 3
10 9 5 581.502 181.326 15
-9 10 5 575.679 198.732 1
-9 -10 -5 553.606 201.869 13
-9 10 7 244.048 132.882 6
-10 10 0 2.23126 148.765 6
-10 10 0 121.053 141.385 3
10 10 0 158.608 143.131 15
-10 10 0 34.5088 143.01 1
10 -10 0 24.0286 101.606 5
-10 -10 0 272.134 99.4087 4
10 -10 0 27.5549 73.1553 15
10 -10 0 84.9745 106.899 7
-10 -10 0 245.23 135.991 14
-10 10 2 1237.41 203.119 3
10 -10 -2 952.165 191.056 2
-10 -10 -2 879.107 225.458 12
-10 -10 -2 1189.04 161.948 11
10 10 2 1571.71 251.149 16
-10 10 2 1018.45 217.711 6
-10 10 2 1220.23 237.764 11
10 10 -2 1106.13 243.547 16
10 10 -2 1250.28 170.061 10
-10 10 -2 1248.75 251.608 3
10 10 -2 1200 191.708 3
10 -10 -2 1138.08 212.151 10
10 -10 2 606.705 233.564 2
10 -10 2 1582.78 245.358 10
10 -10 -2 1278.89 164.423 5
10 10 2 1317.44 204.171 10
10 10 2 1380.82 226.565 15
10 10 2 1112.59 242.942 9
10 10 -2 1415.43 276.622 15
10 10 -2 1004.82 238.92 9
10 -10 -2 1022.62 190.812 4
10 10 2 1358.75 243.73 8
-10 10 2 1252.11 232.096 1
-10 10 2 1533.27 183.579 8
10 10 -2 1192.15 283.112 8
-10 10 -2 790.186 244.082 1
10 10 2 1402.62 196.001 1
10 -10 -2 1055.13 232.005 7
10 -10 -2 1310.85 177.758 15
10 -10 2 953.259 245.921 7
10 10 2 928.53 156.713 3
-10 -10 -2 1339.1 172.743 2
-10 -10 2 1256.77 233.451 14
-10 10 2 1152.35 188.025 14
-10 10 4 2868.46 358.492 6
-10 10 4 2764.48 334.22 3
-10 10 4 2727.54 361.48 11
10 10 4 3135.46 387.824 9
10 -10 -4 2789.21 330.292 10
-10 10 -4 2844.59 466.168 3
10 10 -4 2506.04 431.375 9
-10 10 4 2441.46 263.837 8
10 -10 -4 2558.34 347.626 4
10 10 4 3009.73 378.389 8
10 -10 -4 2461.68 249.87 15
10 -10 -4 3333.69 368.078 7
10 10 4 3691.11 388.744 15
10 10 -4 2644.31 405.366 15
10 -10 4 2059.48 346.992 7
-10 10 6 204.401 155.524 6
-10 -10 -6 85.9273 111.855 12
10 -10 -6 332.336 144.42 10
-10 10 6 235.887 151.339 3
-10 -10 -6 193.677 104.091 5
10 10 6 139.99 147.367 9
10 -10 -6 30.6413 86.6691 4
10 10 6 279.929 158.074 16
-10 10 6 174.202 105.716 8
-10 -10 -6 100.933 71.2494 2
10 10 6 43.0632 135.172 8
10 -10 -6 404.146 188.197 2
10 10 6 240.607 125.303 1
10 -10 -6 288.314 143.089 7
-10 10 6 182.07 111.83 11
10 -10 -6 259.943 132.041 15
-10 10 6 15.1178 151.053 1
-1 -11 0 583.592 141.867 2
11 0 -1 790.342 145.814 7
-1 11 0 652.799 161.577 3
-11 1 0 637.568 134.12 12
-11 0 1 676.903 123.952 6
-11 0 1 688.252 165.354 11
0 -11 1 706.677 178.335 2
0 11 1 713.066 168.736 3
-11 -1 0 707.039 112.39 6
-1 11 0 409.685 146.546 1
-11 1 0 821.222 135.7 6
0 11 1 521.069 124.121 6
1 11 0 904.188 189.765 3
-11 0 -1 793.261 143.173 12
-11 0 -1 743.133 130.963 6
1 11 0 834.116 154.252 6
-1 11 0 741.286 165.778 6
11 1 0 462.762 147.881 16
0 11 -1 475.679 129.983 6
0 11 -1 1064.49 225.073 3
11 0 -1 781.328 164.912 10
1 11 0 879.292 187.889 1
11 1 0 849.621 169.754 10
11 -1 0 703.353 148.777 10
11 0 1 867.498 176.948 10
-11 -1 0 787.343 110.261 5
11 0 1 625.94 129.326 9
11 1 0 781.611 165.407 9
0 -11 1 1116.04 267.497 5
0 11 1 932.1 153.196 9
1 11 0 420.926 117.59 9
-1 11 0 880.105 166.918 9
0 11 -1 435.134 127.652 9
11 0 -1 785.836 179.482 16
0 11 -1 630.181 178.742 1
0 11 1 742.174 171.972 8
11 0 1 488.408 128.776 7
1 11 0 747.677 173.733 8
-1 11 0 979.194 205.07 8
0 -11 -1 525.341 161.865 4
11 0 1 522.477 154.803 16
11 1 0 762.081 141.647 7
0 11 1 768.092 167.218 1
11 -1 0 634.852 161.087 15
11 -1 0 572.777 126.429 7
0 -11 -1 875.208 149.007 7
0 -11 -1 616.378 164.391 2
11 1 0 933.175 183.549 15
11 0 1 736.986 158.012 15
1 -11 0 910.755 163.958 7
-1 -11 0 736.262 146.177 7
0 -11 1 864.749 177.799 7
11 0 -1 898.385 199.525 15
1 -11 0 875.661 182.806 2
-11 1 -2 2796.95 269.548 12
-1 11 2 3074.81 222.505 11
2 11 1 2680.05 299.065 1
-11 -1 2 2690.21 296.821 11
-11 2 1 2908.9 313.099 11
2 -11 -1 2616.26 286.361 2
-2 -11 1 2843.44 323.209 2
11 -1 -2 2822.46 292.855 10
11 2 -1 2991.98 288.409 10
11 -2 1 3415.85 326.375 10
11 1 2 3127.58 298.955 10
2 -11 -1 2600.91 193.24 10
-2 11 -1 2955.68 342.758 3
1 -11 2 2533.98 339.1 2
-11 -2 -1 2875.07 242.048 5
1 11 -2 2763.54 342.905 3
11 1 2 2392.19 254.312 9
-1 11 2 3091 252.284 9
2 11 1 2967.96 284.901 9
-2 11 -1 2352.25 299.345 6
-1 -11 -2 2793.2 284.735 2
-11 -2 -1 2897.88 216.02 6
11 -2 1 2853.66 197.552 4
-1 11 2 3053.23 321.996 1
1 11 -2 2386.1 292.893 9
-1 11 2 3182.86 321.017 8
2 11 1 2854.84 321.439 8
-2 11 -1 2958.51 346.987 1
2 -11 -1 3141.22 294.411 7
-2 11 -1 2652.58 325.378 8
11 1 2 2857.98 306.906 15
1 11 -2 2421.54 327.772 1
1 11 -2 2169.01 308.416 8
-11 2 1 2560.4 189.42 3
11 -2 1 3183.69 308.711 7
11 -1 -2 3063.51 261.272 7
11 2 -1 3194.48 236.812 7
-1 -11 -2 2992.08 250.505 7
11 1 2 2845.24 302.926 16
-1 11 2 3157.65 315.062 3
11 -1 -2 2877.85 304.319 15
2 11 1 2826.76 298.02 3
11 2 -1 2969.24 317.674 15
11 -2 1 2859.52 295.535 15
1 -11 2 2800.68 321.084 7
-11 2 1 2840.21 267.057 6
-11 -1 2 3591.2 357.06 14
11 1 2 2466.74 290.467 7
-2 -11 1 2515.12 281.74 7
-11 -1 2 3106.98 272.623 6
-1 11 2 3380.17 297.916 6
2 11 1 2782.56 240.56 6
-11 1 -2 3017.69 280.902 6
-11 -1 -2 2807.68 279.111 12
-2 -11 -1 2990.13 246.168 7
-11 1 2 2734.86 305.573 11
-11 -2 1 2186.01 280.383 11
-2 11 1 2601.8 206.957 11
11 1 -2 2599.9 274.873 10
11 -2 -1 3246.68 300.178 10
11 2 1 3004.68 294.524 10
11 -1 2 3025.92 326.367 10
11 2 1 2667.34 294.236 15
2 11 -1 2839.78 307.589 3
-11 -2 1 3031.46 226.119 5
-1 11 -2 2131.8 328.23 3
11 -1 2 2735.1 251.98 9
11 2 1 2639.02 272.151 9
1 11 2 3056.4 280.288 9
1 11 2 3125.24 306.979 3
-2 11 1 3135.6 256.654 9
-1 11 -2 2099.82 345.495 1
2 11 -1 2251.3 293.077 1
2 -11 1 2881.73 316.968 7
-11 2 -1 2969.44 256.578 12
1 -11 -2 2983.39 303.048 2
-2 -11 -1 2564.81 296.221 2
11 -2 -1 3216.27 243.046 4
-11 1 2 3310.05 337.953 14
2 11 -1 2386.69 290.374 9
1 11 2 3122.41 329.128 1
1 11 2 2903.86 311.671 8
11 2 1 2952.46 224.249 8
-2 11 1 3118.92 321.003 1
1 -11 -2 3025.84 277.201 7
11 -2 -1 2730.65 273.27 7
11 1 -2 3341.69 259.912 7
-2 11 1 2644.71 298.46 8
2 11 -1 2542.15 323.928 8
-1 11 -2 2395.81 330.786 8
11 -1 2 2807.34 306.332 16
11 2 1 2991.68 311.787 16
1 11 2 2789.18 248.894 6
11 2 1 2674.16 256.016 7
11 -2 -1 2878.53 286.311 15
-2 11 1 2657.63 298.813 3
-11 2 -1 2991.47 190.395 3
11 -1 2 2978.26 295.344 15
11 1 -2 2689.15 301.503 15
-11 -1 -2 2990.34 241.849 6
2 -11 1 2550.85 319.624 2
11 -1 2 3302.81 331.45 7
-2 -11 -1 2964.68 198.909 14
-11 -2 1 2851.32 237.838 6
-2 11 1 2808.7 282.216 6
-11 2 -1 2892.93 267.439 6
2 11 -1 2757.13 250.762 6
-2 11 3 552.308 157.107 3
11 3 -2 342.314 130.793 10
3 11 2 312.729 116.695 3
-2 -11 -3 407.575 111.801 12
-2 11 3 42.2778 97.1858 6
-11 -3 -2 232.667 142.756 13
-11 -2 3 228.539 81.1755 11
11 -2 -3 482.598 137.453 15
3 -11 -2 358.416 83.1541 10
-11 -3 -2 322.387 74.7629 6
11 -2 -3 110.264 92.7431 10
-3 11 -2 134.692 138.67 1
-3 11 -2 22.1652 122.811 6
-11 3 2 236.946 109.894 11
-11 2 -3 79.1181 94.7926 13
-3 11 -2 151.565 177.265 3
11 -3 2 385.377 132.417 10
-3 -11 2 95.9942 174.116 2
-11 -3 -2 151.973 60.866 5
11 2 3 572.274 160.843 10
2 -11 3 163.873 125.797 2
-2 11 3 221.699 118.721 1
2 11 -3 365.124 191.272 3
-2 -11 -3 172.06 104.767 5
3 -11 -2 688.427 179.261 5
11 -3 2 169.223 71.8908 9
11 2 3 288.404 111.12 9
-2 11 3 196.271 86.9706 9
3 11 2 245.261 98.4018 9
-3 -11 2 768.706 244.178 5
11 3 -2 643.662 183.357 9
11 -3 2 359.964 98.91 4
3 11 2 303.525 99.9529 1
-11 3 2 242.66 127.533 14
11 2 3 370.509 97.2536 8
11 -2 -3 420.174 81.8103 2
11 -2 -3 88.5765 84.6039 7
-2 -11 -3 214.324 107.648 4
-2 11 3 267.678 103.05 8
3 11 2 559.713 169.324 8
11 -3 2 426.496 152.525 7
3 -11 -2 208.116 114.34 4
11 2 3 275.457 103.933 15
-3 11 -2 196.213 117.476 8
-11 3 2 379.199 101.422 3
2 11 -3 347.087 187.37 8
-3 -11 2 38.67 132.294 4
11 2 3 123.639 88.2893 16
11 -3 2 199.553 95.9641 16
2 -11 3 318.086 224.443 4
-2 -11 -3 421.243 128.096 2
3 11 2 382.771 88.199 16
11 3 -2 374.846 145.025 16
11 -2 -3 276.17 135.447 16
-2 -11 -3 347.711 87.5194 7
3 -11 -2 220.405 127.222 2
3 -11 -2 355.718 122.245 7
11 3 -2 248.027 119.006 15
11 -3 2 294.439 123.052 15
3 11 2 407.167 108.199 15
2 11 -3 200.653 160.968 1
-11 -2 3 271.433 99.3351 14
-11 0 -3 12.2863 82.6548 12
-3 -11 0 193.23 139.012 2
-11 3 0 22.7962 44.1758 3
-11 3 0 58.9501 84.9805 12
0 11 3 74.4692 65.2484 6
-11 -3 0 69.8362 57.8901 6
11 0 -3 22.634 92.582 15
-11 0 3 7.74926 107.66 11
11 3 0 44.5766 67.724 7
-11 0 3 40.239 74.2052 14
-11 -3 0 34.238 82.4655 11
11 -3 0 111.053 93.3324 2
3 11 0 4.96291 101.723 3
-3 11 0 33.8633 126.491 3
-11 3 0 60.6172 86.5888 6
3 11 0 13.7517 68.6181 6
-3 11 0 71.5761 118.179 6
11 0 -3 157.07 113.75 10
0 11 3 151.153 130.696 1
11 3 0 96.4362 90.8188 15
11 3 0 34.7632 72.788 10
11 -3 0 27.5214 89.3749 10
3 11 0 185.768 126.371 1
3 -11 0 32.7388 53.8223 10
0 -11 -3 35.1975 72.4379 12
0 11 -3 169.932 168.574 3
0 -11 -3 124.311 112.992 5
11 0 3 34.0931 73.6893 9
0 -11 3 70.9216 120.327 2
-11 -3 0 16.4077 69.9258 5
0 11 3 49.6031 77.6362 9
11 -3 0 200.309 127.658 15
3 -11 0 52.494 114.684 5
-3 -11 0 26.3103 115.61 5
11 -3 0 97.0692 69.4296 9
11 3 0 122.603 108.928 9
3 11 0 36.3745 101.696 9
3 11 0 5.1361 67.2942 16
-3 11 0 13.4528 61.2456 9
11 0 -3 2.16014 118.179 9
0 11 3 103.771 110.2 8
-11 0 3 47.3584 65.8693 6
0 -11 -3 74.132 98.8567 4
11 -3 0 45.5459 58.0491 4
3 11 0 49.8168 112.486 8
11 3 0 71.8989 72.5856 8
-3 11 0 29.8015 101.168 8
0 11 -3 65.7712 148.639 1
-11 3 0 8.92447 75.9129 1
-3 -11 0 28.7991 97.5459 4
3 -11 0 29.4383 110.849 4
0 11 -3 95.3134 133.811 8
11 3 0 35.9212 111.358 16
11 0 3 156.725 94.7348 16
0 -11 3 27.0373 186.612 4
11 -3 0 46.8768 88.2238 16
0 -11 -3 249.652 129.179 2
11 0 -3 15.2436 77.9052 7
11 0 -3 4.2354 108.803 16
0 -11 -3 53.5843 80.6683 7
3 11 0 3.67376 58.7064 15
11 -3 0 146.207 108.596 7
-3 11 0 107.287 104.641 1
-3 -11 0 13.4539 69.607 7
-3 -11 0 52.0472 56.1065 14
3 -11 0 83.5876 105.267 7
3 -11 0 120.797 136.446 2
0 11 3 119.474 115.754 3
2 -11 -3 305.732 79.35 12
-11 2 3 88.4558 99.5332 6
-3 11 2 275.378 106.614 3
11 -3 -2 419.217 152.188 16
-11 -3 2 386.466 118.346 11
-11 2 3 182.993 106.652 11
-3 11 2 364.291 100.086 11
-3 11 2 257.567 110.885 6
11 -2 3 287.654 103.216 15
-11 3 -2 431.792 129.747 6
2 -11 -3 336.284 77.3792 10
2 11 3 263.244 117.706 1
11 -3 -2 357.044 115.696 10
11 2 -3 311.074 126.961 15
11 -2 3 500.05 151.361 16
11 3 2 306.037 108.195 10
-11 3 -2 394.372 111.921 3
3 11 -2 13.2391 119.089 3
11 -3 -2 399.884 86.2266 2
11 -2 3 270.755 125.406 10
3 -11 2 399.327 179.725 2
-2 11 -3 227.947 156.622 3
2 -11 -3 431.91 143.722 5
11 -2 3 512.255 126.873 9
-3 -11 -2 332.076 150.439 5
-2 -11 3 185.383 169.446 2
11 3 2 111.526 84.0802 9
2 11 3 355.118 115.518 9
-3 11 2 282.822 88.4863 9
3 -11 2 663.783 195.598 5
-3 11 2 334.095 137.431 1
11 2 -3 252.848 167.629 9
3 11 -2 178.965 129.183 9
11 -3 -2 303.622 123.568 9
11 -3 -2 219.533 84.2696 4
2 11 3 332.41 119.878 8
2 -11 -3 388.678 143.11 4
-3 11 2 177.581 83.9705 8
-3 -11 -2 392.562 117.335 4
3 11 -2 381.141 158.976 8
3 -11 2 357.574 185.927 4
11 3 2 724.027 203.141 16
-2 -11 3 189.27 104.299 4
-11 -2 -3 192.071 76.1259 12
2 -11 -3 428.632 120.934 2
11 2 -3 440.435 155.771 16
11 2 -3 417.811 102.611 7
2 -11 -3 311.283 108.997 7
11 -3 -2 627.533 153.573 7
3 11 -2 355.024 106.879 15
-3 -11 -2 209.079 86.7719 2
-3 -11 -2 266.08 81.1046 7
11 -3 -2 352.936 109.624 15
11 2 -3 593.703 157.562 10
11 3 2 200.572 113.193 15
3 -11 2 13.8323 145.774 7
11 -2 3 460.25 161.079 7
-11 3 -2 310.25 123.649 13
-11 2 3 303.348 118.346 14
3 11 -2 473.597 187.709 1
-11 -3 2 321.231 146.917 14
2 11 3 229.971 103.258 3
-11 -2 -3 278.897 146.536 13
-2 11 -3 132.009 193.344 1
-11 -4 -3 310.907 105.685 13
-4 -11 3 349.483 178.159 4
-3 -11 -4 79.2704 91.371 12
-11 -4 -3 318.145 106.362 12
-3 11 4 315.498 127.729 6
-11 4 3 145.808 105.853 11
4 11 3 237.337 86.9039 16
11 4 -3 326.875 124.055 10
11 -3 -4 450.224 153.466 10
4 -11 -3 456.968 99.5969 10
-11 4 3 223.659 119.59 6
4 11 3 393.711 130.41 1
11 -4 3 394.023 150.033 10
11 3 4 393.518 157.115 10
11 4 -3 299.463 112.828 16
-4 11 -3 83.3193 195.018 3
-3 -11 -4 351.487 151.047 5
4 -11 -3 358.085 134.478 5
11 -4 3 378.868 98.4722 9
11 3 4 395.667 121.968 9
-3 11 4 301.186 100.475 9
4 11 3 474.723 145.331 9
4 11 3 452.063 133.805 15
11 4 -3 147.554 142.643 9
11 -3 -4 479.286 111.776 2
11 3 4 369.263 122.162 8
-3 -11 -4 287.167 133.548 4
-3 11 4 257.888 126.688 8
4 11 3 482.106 158.86 8
4 -11 -3 187.358 106.797 4
-3 -11 -4 379.75 127.722 2
-3 11 4 259.553 115.312 1
11 3 4 114.389 104.371 16
11 -4 3 298.175 130.351 16
11 4 -3 351.156 94.1797 7
-4 11 -3 35.5036 181.096 1
4 -11 -3 436.711 140.953 2
11 -4 3 461.785 146.663 4
11 -3 -4 407.181 129.547 7
11 -3 -4 290.873 126.639 15
-3 -11 -4 479.304 111.204 7
11 -3 -4 280.038 134.512 16
4 -11 -3 308.798 118.265 7
11 4 -3 47.0599 113.2 15
11 -4 3 434.709 125.151 15
-11 4 3 291.75 86.0958 1
11 -4 3 201.587 141.553 7
-11 -3 4 237.831 129.413 14
-11 4 3 308.886 131.508 14
11 3 4 397.392 131.435 15
-3 11 4 314.022 123.457 3
-11 -4 -3 332.27 132.693 5
4 11 3 308.839 114.068 3
4 11 1 730.486 120.359 15
-1 11 4 619.01 157.552 1
-1 -11 -4 421.999 114.269 12
-1 11 4 557.523 138.313 6
11 -1 -4 796.53 195.547 15
-11 -4 -1 682.024 160.747 12
4 11 1 1017.5 179.457 3
11 -4 1 582.401 136.245 15
11 -1 -4 783.573 164.143 7
4 11 1 792.133 114.957 6
-11 -4 -1 734.566 89.7667 6
-11 4 1 556.184 151.582 6
-11 -1 4 754.811 175.09 11
11 -1 -4 606.502 188.461 10
-4 11 -1 883.564 210.329 6
-4 11 -1 842.845 222.427 3
11 4 -1 755.221 154.344 10
4 11 1 841.082 135.55 16
11 -4 1 828.678 170.764 10
11 -4 1 574.96 153.332 2
11 1 4 638.152 168.341 10
-1 -11 -4 571.879 151.246 5
-11 -4 -1 576.041 119.74 5
11 1 4 685.161 158.058 9
-1 11 4 853.108 161.548 9
11 4 -1 771.133 169.547 15
4 11 1 857.245 174.105 9
11 4 -1 568.42 153.478 9
-4 11 -1 591.516 193.769 1
-1 11 4 721.331 191.744 8
-11 4 1 700.582 115.659 12
4 11 1 793.875 192.191 8
4 -11 -1 699.978 126.737 10
11 -4 1 797.682 134.729 4
11 4 -1 738.719 176.974 8
-4 11 -1 909.391 208.294 8
-1 -11 -4 791.234 165.561 2
11 1 4 1002.78 205.704 16
-11 4 1 900.13 135.978 1
11 4 -1 1099.6 197.029 16
-1 -11 -4 765.339 135.978 7
4 11 1 539.587 154.21 1
4 -11 -1 649.502 167.516 7
11 -4 1 726.89 176.123 7
4 -11 -1 431.91 154.501 2
11 1 4 870.676 189.278 15
-11 -1 4 612.231 147.146 14
-1 11 4 740.081 183.285 3
-11 4 1 506.161 92.9434 3
-11 1 -4 611.969 160.132 13
1 11 4 752.943 149.838 6
-11 4 -1 677.08 114.504 12
11 1 -4 606.174 143.961 7
4 -11 1 568.857 169.309 2
-11 -4 1 986.438 172.739 11
-11 4 -1 725.195 228.177 1
-4 11 1 880.511 191.125 3
-11 4 -1 691.204 121.717 3
-11 4 -1 858.624 196.657 6
11 1 -4 616.563 145.678 10
11 1 -4 954.719 213.059 15
4 11 -1 651.105 121.898 6
11 -4 -1 900.248 170.428 10
11 4 1 735.559 139.389 10
11 -1 4 280.344 127.209 10
4 -11 1 678.856 131.452 10
1 -11 -4 811.989 179.644 5
11 -1 4 725.401 157.561 9
1 11 4 698.826 157.343 9
11 4 1 711.25 157.702 9
-11 1 4 685.685 184.231 11
4 11 -1 795.66 191.791 9
1 -11 -4 518.895 151.4 4
4 11 -1 656.583 164.783 3
1 11 4 1099.4 224.195 8
11 -4 -1 855.843 142.452 4
11 4 1 561.986 121.547 8
-4 11 1 699.459 161.439 8
-4 -11 -1 858.446 203.285 4
-11 1 4 835.851 193.78 14
4 11 -1 637.282 191.604 8
-4 -11 -1 1046.51 142.657 7
1 -11 -4 767.47 176.683 2
4 -11 1 802.676 218.553 4
11 -1 4 621.859 158.643 16
1 -11 -4 799.818 165.118 7
11 4 1 885.953 195.235 16
-4 11 1 852.652 197.398 1
4 11 -1 858.585 155.692 15
11 -4 -1 822.793 159.38 15
11 4 1 851.722 179.745 15
1 11 4 813.524 191.282 1
4 -11 1 789.337 181.377 7
11 -1 4 776.963 160.009 15
11 -4 -1 681.869 118.927 2
-4 -11 -1 597.74 149.107 2
11 -4 -1 933.816 181.324 7
-4 -11 -1 756.183 125.335 14
1 11 4 793.304 175.909 3
-11 -4 1 485.548 155.873 14
4 11 -1 655.268 173.919 1
-4 11 3 351.198 137.355 3
-11 3 4 373.115 149.761 6
-4 -11 -3 402.233 131.095 12
3 -11 -4 282.209 116.366 7
-11 -4 3 301.525 86.1197 11
-4 11 3 347.551 136.964 6
-4 11 3 337.127 120.015 11
-11 3 4 528.406 170.666 11
3 11 4 423.732 130.667 3
-11 4 -3 244.981 126.616 13
11 3 -4 233.61 119.965 10
3 -11 -4 309.352 90.4671 10
-11 -3 -4 392.502 153.515 12
11 -4 -3 358.015 136.064 10
-11 4 -3 399.566 179.321 6
-4 11 3 270.368 122.88 1
11 4 3 576.265 167.496 10
11 -3 4 135.564 115.872 10
3 -11 -4 377.451 121.216 5
4 -11 3 296.312 195.457 2
4 11 -3 481.291 158.578 3
-4 -11 -3 302.513 127.842 5
-11 4 -3 410.282 141.411 3
3 11 4 302.486 110.616 9
11 4 3 384.715 131.202 9
4 11 -3 294.313 137.791 9
11 3 -4 511.814 179.254 16
11 4 3 493.555 136.51 8
3 -11 -4 437.039 140.493 4
3 11 4 674.685 184.4 8
-4 -11 -3 419.996 135.814 4
4 -11 3 680.505 229.377 4
-4 11 3 381.117 148.115 8
-11 3 4 321.521 102.342 1
11 -4 -3 298.982 94.7081 2
4 11 -3 112.342 123.689 8
3 -11 -4 106.937 113.849 2
11 -3 4 479.285 145.562 16
11 4 3 288.431 106.382 16
11 -4 -3 420.196 146.973 16
-4 -11 -3 398.957 129.691 2
3 11 4 230.73 107.37 1
11 -4 -3 290.065 121.087 7
-4 -11 -3 413.086 92.9339 7
11 3 -4 405.998 157.062 15
11 -4 -3 354.584 118.403 15
3 11 4 416.891 95.2541 16
11 4 3 492.969 153.526 15
-11 3 4 316.174 128.121 14
4 -11 3 277.048 140.395 7
-11 -4 3 268.815 127.842 14
-4 -11 -3 360.298 119.765 13
-11 -3 -4 385.117 158.464 13
-4 -11 -5 471.061 149.73 12
-11 -5 -4 725.038 176.973 12
-11 5 4 553.716 165.718 6
-11 5 4 589.783 158.839 11
-4 11 5 752.474 226.31 1
11 5 -4 621.275 196.556 10
11 -4 -5 517.814 182.975 10
5 -11 -4 695.101 152.413 10
11 4 5 693.936 196.056 15
5 11 4 725.722 181.67 1
5 -11 -4 546.836 163.981 5
-4 -11 -5 690.476 179.291 5
11 -5 4 631.47 166.659 10
-4 11 5 583.799 119.365 9
11 4 5 564.272 200.899 9
11 5 -4 606.077 204.943 9
-4 -11 -5 824.079 213.739 4
-4 11 5 858.835 207.788 8
5 -11 -4 738.158 208.946 4
5 11 4 938.645 230.525 8
11 -4 -5 559.518 172.149 7
-4 -11 -5 840.656 188.467 2
5 -11 -4 650.987 165.85 2
11 -5 4 645.272 172.596 16
11 4 5 873.161 202.709 16
-4 11 5 1190.42 239.31 6
5 11 4 445.298 145.768 3
-11 5 4 531.078 163.872 1
11 5 -4 507.364 184.046 16
5 -11 -4 748.762 179.032 7
11 -4 -5 784.212 204.842 15
11 5 -4 799.818 213.274 15
-4 11 5 635.442 178.881 3
-11 5 4 529.87 159.164 14
-4 -11 -5 496.148 131.337 7
-11 -5 -4 627.71 195.493 13
-2 11 5 1172.25 210.902 6
5 11 2 1343.66 144.299 6
5 11 2 1337.06 198.53 3
-11 5 2 1288.62 229.021 11
11 -2 -5 1286.58 207.814 10
11 5 -2 1538.88 206.476 10
-5 11 -2 1435.32 257.481 6
5 -11 -2 1368.4 179.212 10
-5 11 -2 1248.14 262.724 3
-5 11 -2 1224.92 258.063 1
11 -5 2 1175.15 207.988 10
-11 -5 -2 1342.78 206.404 5
-2 11 5 1188.68 182.918 9
-2 11 5 1499.74 251.654 3
5 11 2 1454.01 231.079 9
-11 5 2 1528.65 222.213 6
-2 11 5 1384.34 243.342 8
-2 -11 -5 1285.14 195.329 2
5 11 2 1677.29 263.9 8
11 -5 2 1335.79 235.357 7
11 5 -2 1250.5 233.687 8
11 -5 2 1476.24 200.167 4
11 2 5 1700.99 261.49 16
-2 -11 -5 1247.07 172.605 7
5 11 2 1446.09 193.048 16
5 11 2 1570.98 194.781 15
11 -2 -5 1050.58 203.024 15
-2 11 5 1563.59 260.922 1
5 -11 -2 1585.19 217.171 2
5 -11 -2 1490.29 230.449 7
11 5 -2 1255.47 228.549 15
11 -5 2 1748.09 228.395 15
11 -2 -5 1123.58 199.227 7
11 2 5 1199.29 279.074 15
-11 5 2 1279.83 168.759 3
-11 5 0 5288.02 289.275 12
-5 -11 0 5218.4 343.284 14
-11 -5 0 4829.86 358.61 11
11 -5 0 5978.89 451.425 7
11 0 -5 3915.35 426.743 10
11 5 0 5321.96 372.961 10
11 -5 0 5468.73 427.055 10
5 -11 0 5357.45 338 10
-11 5 0 4763.65 385.542 6
5 11 0 5986.9 292.042 6
5 -11 0 5586.98 436.268 7
11 -5 0 5179.86 379.386 15
0 11 5 6035.42 414.019 9
11 5 0 4921.36 418.331 9
5 11 0 5134.16 427.509 9
0 -11 -5 5717.21 446.533 2
0 11 5 5480.83 474.304 1
0 -11 -5 5623 473.296 4
5 -11 0 5188.35 445.956 2
-5 -11 0 4354.91 380.58 2
11 -5 0 5376.91 383.43 2
11 -5 0 5407.09 347.536 4
0 11 5 5141.64 465.244 8
5 11 0 5253.02 447.748 8
11 5 0 5471.56 389.854 8
-5 11 0 4617.29 405.46 8
-5 11 0 4870.08 436.369 1
5 11 0 4496.5 398.305 1
-11 5 0 5801.87 415.062 1
11 5 0 5334.13 427.709 15
0 -11 -5 5298.28 389.272 7
11 5 0 5468.95 433.023 16
5 11 0 5594.07 375.287 16
-11 5 0 6044.36 345.9 3
5 11 0 4592.48 329.436 15
5 11 0 5096.46 385.147 3
-5 11 0 5691.24 442.541 3
-11 5 0 5551.56 406.905 13
-5 11 0 4989.85 421.243 6
-11 2 5 1447.38 243.898 11
-11 -5 2 1186.38 193.297 11
5 11 -2 1415.46 211.177 15
-5 11 2 1369.73 197.555 11
-5 11 2 1157.77 205.053 6
11 -5 -2 1503.31 208.476 15
2 -11 -5 1351.47 172.418 10
11 5 2 1450.05 228.397 15
5 11 -2 1302.13 236.231 3
2 11 5 1288.26 207.094 9
11 5 2 1672.7 253.179 9
-5 11 2 1533.04 248.344 1
11 -5 -2 990.355 169.086 4
11 5 2 1323.06 184.746 8
2 -11 -5 1582.9 244.652 2
5 -11 2 1125.11 240.573 2
5 11 -2 1098.44 259.493 8
5 11 -2 673.14 254.458 1
11 5 2 1401.22 240.992 16
2 -11 -5 1431.64 213.805 7
2 11 5 1437.75 249.376 1
-5 -11 -2 1243.5 201.904 2
2 11 5 1199.13 217.112 3
5 -11 2 1687.86 274.74 7
-11 -5 2 1595.55 239.976 14
-11 5 -2 1434.4 243.66 13
-11 4 5 747.102 194.387 6
-11 -4 -5 588.103 166.94 12
11 -5 -4 639.515 166.911 7
-5 11 4 617.877 169.234 6
-5 11 4 769.563 179.245 11
-11 4 5 690.672 183.852 11
-5 11 4 1025.64 224.099 1
4 -11 -5 517.369 125.27 10
11 -5 -4 543.057 181.055 10
4 -11 -5 642.677 154.726 5
-5 -11 -4 692.823 204.902 5
4 11 5 801.646 201.041 9
11 5 4 695.629 178.696 9
-5 -11 -4 742.972 195.041 4
4 -11 -5 773.332 200.718 4
11 5 4 978.71 188.59 8
4 11 5 404.435 177.801 8
-5 11 4 634.691 155.421 8
11 -5 -4 812.211 155.109 2
4 -11 -5 736.179 194.343 2
-5 -11 -4 940.596 140.082 7
4 11 5 626.841 141.861 16
11 -5 -4 717.635 225.993 16
4 11 5 819.004 196.692 1
11 -5 -4 966.484 210.325 15
11 5 4 571.478 172.005 16
4 11 5 467.807 145.648 3
11 5 4 892.537 196.596 15
4 -11 -5 807.871 183.629 7
-11 -5 4 665.366 194.764 14
-5 11 4 1099.55 217.437 3
-11 -4 -5 492.189 216.273 13
-5 11 6 962.128 215.893 6
-5 -11 -6 485.701 140.285 12
11 -5 -6 899.849 216.49 10
6 -11 -5 841.315 164.568 10
6 11 5 1135.07 231.029 9
6 -11 -5 624.279 175.523 4
-5 11 6 972.552 226.336 8
-5 -11 -6 1075.42 190.389 2
6 11 5 1007.81 237.693 8
6 -11 -5 657.737 174.691 2
-11 6 5 712.905 167.532 1
6 11 5 858.927 167.902 16
-5 11 6 975.698 243.803 1
6 -11 -5 901.176 187.949 7
6 11 5 642.945 184.023 1
-5 11 6 766.676 203.95 3
-11 -6 -5 506.885 177.932 13
-3 11 6 29.105 111.312 3
-11 6 3 45.6409 108.577 6
-11 6 3 49.1953 123.548 11
-11 6 3 69.2461 90.8891 1
11 6 -3 103.837 170.53 15
6 -11 -3 44.0522 80.6175 10
6 -11 -3 66.0709 126.412 2
-3 -11 -6 38.7762 96.476 5
6 11 3 34.7894 87.7599 1
11 -6 3 13.3286 122.473 10
-11 -6 -3 67.6406 102.798 5
-6 11 -3 0.31107 176.353 3
6 -11 -3 106.585 106.48 5
6 11 3 64.9236 108.862 9
11 6 -3 9.71584 189.962 9
-3 11 6 123.732 105.665 8
-3 -11 -6 40.8532 94.274 2
6 -11 -3 195.754 148.745 4
6 11 3 132.73 108.702 8
6 11 3 15.4666 88.5355 15
-3 11 6 147.943 159.116 1
-11 -6 -3 10.267 147.123 12
11 -6 3 71.7396 99.9891 4
-6 -11 3 273.874 151.358 4
6 11 3 104.608 108.41 16
-11 -6 -3 171.873 124.202 13
11 6 -3 134.111 111.664 16
11 6 -3 42.2429 103.633 10
-6 11 -3 57.5462 185.92 1
6 -11 -3 69.7767 130.972 7
-11 6 3 76.1165 83.0902 3
11 -6 3 621.111 198.275 7
11 -6 3 76.2194 83.6423 16
-11 6 3 13.0428 119.333 14
6 11 3 43.5189 86.9371 3
-11 6 1 371.668 135.864 3
11 -6 1 355.478 126.023 16
-11 -6 -1 551.41 195.556 12
6 11 1 325.438 126.242 3
-11 6 1 333.332 129.514 6
-6 11 -1 178.023 138.175 3
-6 11 -1 401.089 181.206 6
11 6 -1 902.866 223.129 16
-6 -11 1 75.9157 109.296 2
11 6 -1 438.357 149.464 10
11 -6 1 145.313 145.147 2
6 -11 -1 328.815 104.255 10
11 -6 1 591.355 173.504 10
-1 -11 -6 219.011 140.091 5
-11 -6 -1 376.182 142.61 5
6 -11 -1 387.622 131.518 5
-6 -11 1 446.992 193.291 5
6 11 1 320.175 145.455 9
6 11 1 265.366 72.4241 6
11 6 -1 428.832 150.215 9
-1 -11 -6 297.817 153.891 4
-1 11 6 298.961 143.327 8
-1 -11 -6 445.451 137.728 2
-6 11 -1 477.521 189.508 1
6 11 1 284.705 167.833 8
6 -11 -1 286.481 147.709 4
11 6 -1 583.267 225.669 8
11 -6 1 241.35 129.34 4
-1 11 6 213.988 132.793 3
-6 11 -1 441.093 185.319 8
-1 11 6 82.5613 129.49 1
-6 -11 1 498.664 172.508 4
6 11 1 591.957 159.907 16
11 6 -1 507.504 177.802 15
6 -11 -1 339.715 137.212 7
6 11 1 292.846 102.574 15
11 -6 1 387.545 149.952 7
11 -6 1 237.919 99.2753 15
6 -11 -1 373.606 160.978 2
-6 -11 1 328.946 119.653 14
6 11 1 417.12 126.817 1
-11 6 1 602.122 167.48 1
-6 11 1 567.491 179.4 3
6 -11 1 373.131 168.25 2
-6 11 1 584.781 180.436 6
-11 6 -1 264.268 100.94 3
-11 6 -1 450.893 166.463 6
6 11 -1 406.018 151.97 3
6 11 -1 472.136 104.604 6
11 -6 -1 607.905 163.877 10
11 6 1 465.192 130.664 10
1 -11 -6 243.851 127.317 5
6 -11 1 320.343 117.071 10
6 11 -1 606.459 199.911 1
11 -6 -1 356.094 156.33 16
-11 6 -1 405.39 186.617 1
11 6 1 519.814 169.579 15
-6 -11 -1 580.742 200.28 5
6 11 -1 481.551 156.15 15
-11 -6 1 386.154 167.902 5
11 6 1 549.752 168.386 9
6 -11 1 438.081 142.549 5
6 11 -1 412.047 179.318 9
1 -11 -6 401.217 186.017 4
1 11 6 138.746 145.406 8
1 -11 -6 160.17 128.154 2
11 -6 -1 138.153 82.5843 4
11 6 1 282.738 141.384 8
-6 -11 -1 241.094 131.608 4
-6 11 1 327.881 150.364 8
6 11 -1 408.223 210.077 8
1 11 6 322.139 190.486 1
6 -11 1 127.803 110.327 4
6 11 -1 383.809 137.603 16
1 -11 -6 163.816 85.8605 7
11 6 1 370.522 152.129 16
-6 11 1 200.077 156.341 1
11 -6 -1 197.593 127.678 7
1 11 6 122.108 113.325 3
11 -6 -1 382.19 128.122 15
6 -11 1 212.188 135.493 7
11 -6 -1 500.667 135.521 2
-6 -11 -1 178.862 115.948 2
-11 -6 1 593.265 180.164 14
-6 -11 -1 249.811 120.681 14
-11 6 -1 354.395 141.829 13
-6 11 3 118.616 102.905 3
-6 -11 -3 149.06 152.676 12
-6 11 3 136.243 95.5891 6
11 -6 -3 4.14245 103.125 15
-6 11 3 170.418 122.887 11
11 -6 -3 79.2321 121.051 10
-11 6 -3 317.769 216.472 6
11 6 3 75.8402 93.6493 10
11 -6 -3 53.0728 103.975 16
-11 6 -3 92.1807 183.981 3
-6 11 3 95.6566 120.906 1
6 11 -3 238.952 147.407 3
6 -11 3 209.455 192.313 2
3 11 6 20.6458 104.296 9
-6 -11 -3 164.696 145.367 5
11 6 3 226.766 145.04 9
11 6 3 127.78 116.697 15
6 11 -3 66.0737 141.123 9
3 -11 -6 75.5402 100.466 4
11 -6 -3 198.331 119.357 4
3 11 6 5.30084 154.156 8
3 -11 -6 31.267 99.7391 2
-6 -11 -3 50.8116 108.176 4
11 6 3 79.3311 91.3809 8
-6 11 3 254.056 113.217 8
3 11 6 70.4848 143.595 1
6 11 -3 61.1057 195.921 8
6 -11 3 32.6385 129.555 7
6 -11 3 144.225 141.694 4
11 -6 -3 104.687 101.225 2
11 6 3 14.2229 109.553 16
3 -11 -6 235.699 129.098 7
-6 -11 -3 223.924 106.678 2
11 -6 -3 150.329 123.146 7
6 11 -3 27.6897 104.188 15
-11 -6 3 414.853 171.336 14
-6 -11 -3 59.2378 89.0872 13
-6 11 5 843.553 203.045 6
5 -11 -6 793.312 169.516 10
11 -6 -5 664.167 168.271 10
-6 -11 -5 675.245 181.849 5
5 11 6 1013.22 230.922 9
11 6 5 542.8 173.856 9
11 6 5 423.86 167.745 8
11 -6 -5 816.451 195.47 7
5 11 6 685.225 241.186 8
11 -6 -5 791.831 187.06 2
-6 11 5 435.365 163.267 8
5 -11 -6 740.61 190.932 2
-6 -11 -5 851.062 176.508 2
11 -6 -5 846.75 181.429 15
5 11 6 1130.85 230.221 1
11 6 5 1203.24 231.824 16
-6 -11 -5 869.183 133.488 7
5 -11 -6 927.119 191.093 7
-6 11 5 783.508 193.17 3
11 6 5 599.1 184.261 15
-6 11 5 906.542 234.891 1
-11 7 6 137.951 131.107 6
-11 7 6 470.153 184.794 11
7 -11 -6 375.467 104.256 10
7 11 6 584.996 195.012 9
7 -11 -6 537.447 181.815 4
7 11 6 590.744 192.161 8
7 -11 -6 695.499 177.566 2
-11 7 6 421.384 165.657 1
7 11 6 410.575 159.253 1
7 11 6 652.563 175.233 16
7 -11 -6 372.845 133.501 7
-11 -7 -4 40.0623 117.564 12
-11 7 4 57.4757 116.17 6
7 11 4 39.1191 147.906 1
-11 7 4 300.257 160.178 11
11 7 -4 20.6331 130.543 10
-11 7 4 124.465 111.532 3
7 -11 -4 196.085 126.371 10
7 -11 -4 189.211 112.427 5
-11 -7 -4 81.9702 104.597 5
11 -7 4 122.019 127.302 10
7 11 4 69.1943 118.512 9
11 7 -4 111.905 147.054 9
-11 -7 -4 33.5085 69.5596 2
7 -11 -4 141.717 150.142 4
7 11 4 404.191 217.73 8
7 -11 -4 41.3828 106.887 2
7 11 4 193.811 143.874 16
11 7 -4 230.295 196.124 16
7 -11 -4 1.37958 102.88 7
11 7 -4 196.385 230.299 15
7 -11 -4 122.901 65.1493 15
-11 7 4 163.88 160.594 14
11 -7 4 24.6023 151.938 7
-11 7 4 237.414 136.147 1
-11 -7 -4 270.204 208.264 13
-11 -7 -2 332.523 137.076 13
7 11 2 865.534 166.144 16
-11 -7 -2 557.12 124.408 12
-11 7 2 693.42 195.799 6
-11 7 2 530.09 183.241 11
7 -11 -2 573.836 165.885 7
11 7 -2 438.139 122.323 10
-7 11 -2 321.994 187.15 6
7 -11 -2 691.534 128.978 10
-7 11 -2 67.2442 132.987 3
11 7 -2 749.351 118.7 3
11 -7 2 809.422 183.822 10
7 -11 -2 598.09 128.518 5
11 -7 2 602.757 194.452 2
7 11 2 695.821 180.693 9
7 11 2 684.915 160.664 15
11 7 -2 860.959 238.327 9
-7 11 -2 494.237 190.818 1
-11 7 2 637.02 163.072 1
7 11 2 726.629 187.3 8
7 11 2 876.257 171.959 1
11 7 -2 890.046 195.51 8
7 11 2 763.913 155.417 3
11 7 -2 506.798 124.997 15
7 -11 -2 557.442 146.42 2
11 -7 2 141.261 145.875 7
11 -7 2 702.839 162.658 15
-7 -11 2 722.275 151.605 14
-11 7 2 469.058 160.261 14
-11 7 2 676.55 135.807 3
-11 7 0 2374.82 274.953 13
7 -11 0 2046.81 304.208 2
-11 -7 0 2027.16 230.694 11
-11 7 0 2201.05 276.776 6
7 -11 0 1856.33 232.652 10
-7 11 0 2636.82 304.688 3
11 7 0 1954.05 264.122 15
11 7 0 1805.69 274.87 9
7 11 0 1989.65 291.283 9
7 11 0 1983.73 261.009 1
7 11 0 2013.63 296.136 8
11 -7 0 2052.8 241.33 4
11 7 0 1871.48 274.7 16
7 11 0 1926.06 239.493 16
11 -7 0 2423.93 302.541 7
11 -7 0 2172.92 243.501 15
-7 -11 0 1912.81 239.311 14
-7 11 2 894.778 124.767 13
-7 -11 -2 603.999 162.651 13
-7 11 2 852.448 169.663 3
-7 11 2 590.725 179.086 6
-7 11 2 807.996 165.748 11
-11 7 -2 329.45 125.918 6
7 -11 2 604.704 164.321 7
11 -7 -2 482.982 121.131 2
7 -11 2 640.426 197.406 2
11 -7 -2 684.224 147.306 10
-11 7 -2 921.45 171.237 3
11 7 2 714.338 165.337 10
-11 7 -2 335.004 152.446 1
7 -11 2 638.791 156.282 10
-7 -11 -2 722.816 197.606 5
11 7 2 659.246 183.103 16
11 7 2 766.737 179.593 9
-11 -7 2 1076.6 225.884 5
7 11 -2 483.642 176.239 9
-7 11 2 693.252 167.239 1
11 -7 -2 604.515 137.748 4
11 7 2 584.151 149.455 8
-11 -7 2 804.258 151.682 11
-7 11 2 621.92 145.019 8
7 11 -2 624.055 208.378 8
7 -11 2 429.018 158.755 4
11 -7 -2 843.674 177.418 7
7 11 -2 917.4 197.28 3
7 11 -2 432.274 121.577 15
11 -7 -2 388.678 126.956 15
-7 -11 -2 822.818 155.33 2
11 7 2 450.961 130.823 15
7 11 -2 562.568 180.518 16
-11 -7 2 782.255 200.51 14
-11 7 -2 526.985 146.011 13
-7 11 4 344.745 177.776 6
-7 11 4 297.01 173.691 11
-7 11 4 12.3055 130.83 1
11 -7 -4 237.587 136.767 10
11 7 4 26.7783 105.278 9
11 -7 -4 15.9202 90.8762 4
-11 -7 4 173.483 156.632 14
11 7 4 142.213 140.948 8
-7 11 4 63.2953 117.582 8
11 -7 -4 38.1734 88.5611 2
11 7 4 55.6381 66.0358 1
11 7 4 33.5088 142.231 16
11 -7 -4 216.639 150.312 16
11 -7 -4 284.42 170.534 7
11 -7 -4 85.4856 93.2522 15
11 7 4 106.284 111.548 15
-7 11 4 45.6935 121.471 3
-7 11 6 451.913 175.715 6
-7 -11 -6 553.097 158.372 12
11 -7 -6 358.451 133.236 10
-7 -11 -6 475.227 198.949 5
11 7 6 571.473 196.323 9
11 -7 -6 334.27 134.391 2
-7 11 6 415.699 152.336 8
11 -7 -6 431.695 155.093 7
11 7 6 568.18 209.798 16
-7 11 6 444.818 221.603 1
-7 11 6 253.711 114.475 3
8 -11 -7 12.7231 142.011 2
8 -11 -7 40.4522 164.375 7
-11 8 5 1953.17 313.745 6
8 11 5 1712.31 294.338 9
-11 8 5 2073.97 225.356 8
-11 -8 -5 1079.36 183.084 2
8 11 5 1568.04 308.461 8
8 -11 -5 2040.62 268.762 10
8 -11 -5 2102.67 289.313 2
8 11 5 2087.04 281.63 16
8 -11 -5 2266.07 208.769 15
-11 8 5 2358.71 296.597 1
8 11 5 2118.01 297.255 1
8 -11 -5 1912.94 296.344 7
-11 8 3 227.722 162.151 6
11 8 -3 190.413 166.462 15
-11 8 3 55.114 93.3668 11
11 8 -3 97.7805 105.06 10
8 -11 -3 12.2049 97.1424 10
-8 11 -3 341.795 234.061 6
-8 11 -3 170.495 216.558 1
-8 11 -3 309.999 215.087 3
11 -8 3 170.495 139.008 10
8 -11 -3 156.623 125.533 5
8 11 3 139.466 126.312 16
-11 8 3 91.0754 107.165 1
11 8 -3 63.313 93.0372 3
-11 -8 -3 352.476 194.843 12
8 11 3 103.354 86.5775 1
8 11 3 182.365 132.32 9
-8 -11 3 179.699 202.375 5
-11 -8 -3 5.29186 64.88 2
11 8 -3 75.2441 184.009 9
8 -11 -3 80.031 115.186 4
8 11 3 66.2338 115.108 8
11 -8 3 84.3153 112.579 4
11 8 -3 116.009 207.146 8
11 -8 3 109.968 104.588 16
-8 -11 3 33.9664 129.115 4
-11 8 3 128.65 127.148 14
11 8 -3 186.96 164.95 16
8 -11 -3 239.227 141.616 2
-11 -8 -3 42.9496 167.672 13
8 -11 -3 29.0345 134.127 7
8 -11 -3 68.1417 62.0423 15
8 11 3 81.465 113.752 15
8 11 3 147.777 88.1941 3
11 -8 3 131.454 204.075 7
-11 8 3 42.7087 97.1891 3
-11 8 1 278.771 151.922 13
8 11 1 267.06 125.271 3
-11 8 1 65.7295 115.371 3
11 8 -1 167.77 87.6441 3
-11 -8 -1 112.956 110.077 11
-11 8 1 321.702 183.551 6
-11 -8 -1 38.3256 105.305 2
11 8 -1 686.757 230.713 15
-8 11 -1 199.404 145.066 3
11 -8 1 111.789 127.651 2
-8 11 -1 181.031 191.728 6
8 11 1 0.16545 104.46 1
11 8 -1 176.326 134.468 10
8 11 1 132.633 121.113 15
8 -11 -1 37.1763 110.053 10
11 -8 1 186.467 136.473 10
-8 -11 1 41.7552 122.207 2
8 -11 -1 3.89564 85.1748 5
-11 -8 -1 16.2524 103.206 5
11 -8 1 54.0703 52.7506 5
-8 -11 1 177.347 190.87 5
8 11 1 174.952 148.583 9
11 8 -1 147.353 132.125 9
-11 -8 -1 156.556 80.948 4
8 11 1 136.279 133.416 8
8 -11 -1 123.449 153.772 4
11 8 -1 84.2368 168.099 8
11 -8 1 201.19 116.047 4
-8 -11 1 179.48 124.869 4
-8 11 -1 165.897 143.23 8
8 -11 -1 86.3632 56.4401 15
11 -8 1 231.695 121.29 16
-8 11 -1 21.5798 119.832 1
11 8 -1 72.2754 124.491 16
8 -11 -1 230.492 121.849 16
8 11 1 15.4012 103.556 16
8 -11 -1 92.3118 108.392 7
11 -8 1 300.851 165.182 7
-11 8 1 273.535 161.47 1
11 -8 1 141.921 100.067 15
8 -11 -1 180.216 103.789 2
-8 -11 1 259.998 124.266 14
-8 -11 -1 173.137 132.805 2
-11 8 -1 0.25745 173.105 1
8 11 -1 298.88 180.219 1
-8 11 1 96.2355 144.627 3
-11 -8 1 122.234 86.2984 11
8 -11 1 160.579 144.88 2
-8 11 1 423.396 202.48 6
-11 8 -1 247.064 151.409 3
8 11 -1 267.349 144.466 3
-11 8 -1 78.7626 123.456 6
11 -8 -1 123.858 100.863 10
11 8 1 44.5043 96.6568 10
11 -8 -1 167.175 67.901 5
8 -11 1 37.9999 95.7324 10
-8 -11 -1 256.653 185.227 5
-11 -8 1 146.164 159.041 5
8 -11 1 51.331 111.23 5
11 8 1 99.0477 171.21 9
8 11 -1 459.418 202.937 9
8 11 -1 49.9895 117.032 16
-8 11 1 203.312 177.12 1
-8 -11 -1 62.3255 97.8033 4
11 -8 -1 75.6775 127.906 4
11 8 1 15.0123 131.594 8
-8 11 1 292.27 143.287 8
-11 -8 1 101.28 80.5755 4
8 11 -1 226.518 152.911 8
8 -11 1 261.836 166.128 4
8 -11 1 65.8019 66.33 16
11 8 1 2.71403 75.3535 1
11 8 1 276.326 166.061 16
11 -8 -1 51.1704 122.135 7
11 -8 -1 225.73 154.945 16
8 11 -1 238.482 160.404 15
11 8 1 385.635 191.75 15
11 -8 -1 88.5143 111.27 15
11 8 1 123.536 77.2558 3
11 -8 -1 47.1978 100.944 2
-8 11 1 88.7634 95.9769 14
8 -11 1 81.3159 132.497 7
-11 -8 1 243.064 152.29 14
-8 11 1 23.4744 74.9513 13
-11 8 -1 109.71 123.764 13
-8 -11 -3 45.3554 94.2984 12
-8 11 3 0.47913 83.6154 11
11 -8 -3 111.971 155.27 7
11 -8 -3 45.4123 96.549 10
-11 8 -3 65.2686 212.554 6
11 8 3 112.569 97.8146 1
-11 8 -3 101.382 200.061 3
11 8 3 68.6246 104.231 10
8 11 -3 148.893 126.726 3
-8 -11 -3 224.773 189.115 5
8 -11 3 174.21 194.654 2
-8 11 3 164.023 152.241 1
11 8 3 156.025 125.959 9
-11 -8 3 47.9753 165.122 5
8 11 -3 93.4513 179.098 9
11 -8 -3 57.7453 100.907 2
-8 -11 -3 15.8506 110.041 4
11 -8 -3 114.416 111.183 4
11 8 3 92.308 128.651 8
-8 11 3 13.2489 88.3338 8
8 11 -3 311.599 209.342 8
-8 11 3 38.8683 148.945 6
8 -11 3 74.4593 177.523 4
11 8 3 25.6158 126.2 16
-11 -8 3 116.116 120.156 4
11 -8 -3 135.062 133.742 16
-8 -11 -3 34.0417 78.2308 2
8 11 -3 284.308 161.104 15
11 -8 -3 72.0476 95.6492 15
11 8 3 147.158 129.614 15
8 -11 3 325.843 224.053 7
-11 -8 3 125.999 109.493 14
-8 11 3 248.642 153.021 3
-8 -11 -3 181.395 108.174 13
-8 11 5 2013.12 308.584 6
-8 11 5 2295.04 316.425 11
11 -8 -5 2369.57 309.861 10
11 8 5 2094.87 326.889 9
-8 11 5 2625.86 370.336 1
11 8 5 2475.31 324.185 8
-8 11 5 1926.34 275.669 8
-8 -11 -5 2202.97 249.802 2
11 -8 -5 2196.58 271.647 2
11 8 5 1198.16 231.329 1
11 8 5 2108.54 300.814 16
11 -8 -5 2233.77 271.886 15
-8 11 5 2298.16 329.809 3
11 8 5 2103.91 320.98 15
11 -8 -5 2010.47 300.448 7
-8 11 7 273.685 172.146 1
-8 11 7 160.545 134.121 6
-11 9 6 186.576 165.522 6
-11 -9 -6 288.09 144.072 12
9 11 6 248.335 143.833 9
9 -11 -6 117.802 127.847 4
9 -11 -6 51.4267 129.754 2
9 11 6 88.8545 134.226 1
9 -11 -6 163.166 167.522 7
-11 9 6 125.794 120.501 1
9 -11 -6 15.0603 72.1788 15
9 -11 -4 458.27 112.648 15
-11 -9 -4 660.652 183.002 12
-11 9 4 270.132 143.303 6
-11 9 4 155.287 127.415 11
9 11 4 445.561 149.225 1
9 -11 -4 469.323 149.79 10
-11 -9 -4 365.056 140.015 5
11 -9 4 380.911 143.908 10
9 -11 -4 302.079 133.469 2
9 11 4 527.022 191.803 9
11 9 -4 719.865 237.411 9
9 -11 -4 428.278 166.895 4
-11 9 4 284.908 92.6808 8
9 11 4 460.452 213.43 8
-11 -9 -4 434.169 103.39 2
11 -9 4 203.523 197.657 4
9 11 4 413.471 154.583 16
9 -11 -4 507.222 186.189 7
11 9 -4 412.977 222.105 15
9 11 4 914.028 244.602 3
-11 9 4 688.194 173.894 3
9 11 4 550.77 170.993 15
11 -9 4 400.514 214.027 7
-11 -9 -4 526.952 183.134 13
-11 9 2 366.371 141.756 3
-11 -9 -2 12.5436 142.528 13
-11 -9 -2 17.5363 141.903 12
-11 9 2 297.432 134.285 6
-11 9 2 152.977 118.857 11
9 -11 -2 162.344 74.1879 15
11 9 -2 559.542 218.842 15
-9 11 -2 626.37 235.734 6
11 9 -2 242.609 118.24 10
-9 11 -2 309.944 182.716 3
11 9 -2 201.341 89.2029 3
9 -11 -2 251.147 123.146 10
11 -9 2 481.319 163.72 10
11 -9 2 326.34 176.724 2
9 -11 -2 337.218 121.214 5
-11 -9 -2 167.43 127.01 5
9 11 2 205.052 115.223 9
-9 -11 2 12.8821 184.908 5
11 -9 2 211.002 108.783 5
11 9 -2 58.1164 108.214 9
-11 -9 -2 88.2241 79.6626 4
-11 9 2 172.483 128.736 1
9 -11 -2 303.429 156.745 4
9 11 2 225.235 154.348 8
-11 9 2 284.763 98.179 8
11 9 -2 460.912 201.38 8
11 -9 2 199.337 139.119 4
-9 -11 2 210.229 126.566 4
-9 11 -2 647.236 279.974 1
11 -9 2 328.961 118.688 16
9 11 2 254.435 134.725 16
11 9 -2 413.771 172.12 16
9 -11 -2 203.309 109.551 16
9 -11 -2 141.35 115.02 7
9 11 2 31.1572 101.568 15
11 -9 2 335.798 209.281 7
9 -11 -2 267.106 132.839 2
9 11 2 202.641 103.752 1
-9 -11 2 71.486 130.307 14
-11 -9 -2 242.163 108.044 2
-11 9 2 172.062 93.6555 14
9 11 2 331.343 122.919 3
11 9 0 969.383 138.74 3
9 -11 0 276.357 136.591 2
9 11 0 1237.95 216.398 1
11 -9 0 667.673 181.687 2
9 11 0 1121.8 168.479 3
-11 -9 0 700.059 140.426 11
-11 9 0 1015.57 189.336 3
-9 11 0 920.481 209.924 3
-11 9 0 880.12 205.583 6
-9 11 0 705.002 202.623 6
-9 -11 0 1003.15 233.106 2
11 9 0 671.712 197.751 15
11 9 0 799.123 156.295 10
9 11 0 918.914 132.335 10
9 -11 0 658.824 198.833 7
11 -9 0 853.519 187.721 10
9 -11 0 1010.43 191.54 10
-11 -9 0 924.519 239.303 2
-9 11 0 462.163 195.521 1
9 11 0 917.708 208.273 15
-9 -11 0 528.623 204.613 5
-11 9 0 544.47 176.468 1
11 9 0 819.55 205.133 9
9 11 0 490.732 144.743 9
-11 -9 0 935.623 141.179 4
9 11 0 650.452 175.321 8
11 -9 0 786.263 174.135 4
11 9 0 760.023 181.52 8
11 9 0 650.183 184.714 16
11 9 0 498.668 138.999 1
9 11 0 898.895 187.319 16
11 -9 0 989.675 215.722 7
-9 -11 0 818.305 164.024 14
11 -9 0 777.415 147.519 15
-11 -9 0 561.36 136.544 14
-11 9 0 1209.34 202.578 13
-9 11 2 236.994 99.5288 13
-9 -11 -2 114.241 140.521 13
-9 11 2 168.781 147.305 3
-9 -11 -2 162.299 147.664 12
-9 -11 -2 280.477 78.6608 11
-9 11 2 247.361 177.097 6
-11 9 -2 596.385 229.806 1
-9 11 2 14.7653 118.28 11
9 11 -2 235.386 99.7996 10
-11 9 -2 508.332 202.67 6
-11 9 -2 388.444 154.075 3
9 11 -2 259.9 150.126 3
11 -9 -2 113.437 96.0157 10
-9 11 2 112.651 77.8797 14
9 -11 2 239.565 193.773 2
11 9 2 335.259 136.977 10
9 -11 2 183.503 123.614 10
-9 -11 -2 235.515 165.097 5
11 9 2 277.4 169.032 9
-11 -9 2 104.045 149.623 5
9 -11 2 107.165 129.21 5
9 11 -2 390.521 206.421 9
-9 -11 -2 193.345 103.879 4
11 -9 -2 227.244 127.594 4
11 9 2 102.774 111.248 8
-9 11 2 91.8877 133.191 1
-9 11 2 279.278 126.103 8
9 11 -2 387.617 222.297 8
9 -11 2 39.278 156.233 4
-11 -9 2 319.293 104.965 4
9 -11 2 228.027 94.2277 16
11 9 2 22.0049 133.644 16
11 -9 -2 362.442 134.598 16
9 11 -2 165.011 123.457 16
11 -9 -2 247.556 135.301 7
9 11 -2 197.291 160.265 15
11 9 2 132.416 73.8961 3
11 9 2 377.585 106.087 1
11 -9 -2 233.023 103.327 15
11 -9 -2 154.642 108.062 2
11 9 2 175.467 133.293 15
9 -11 2 302.493 159.825 7
-9 -11 -2 458.096 149.986 2
-11 -9 2 263.443 140.687 14
11 -9 -4 409.114 135.033 15
-9 -11 -4 479.542 190.799 12
-9 11 4 488.861 179.715 6
-9 11 4 283.34 124.309 11
11 -9 -4 371.535 164.402 10
-9 11 4 545.275 183.655 1
-11 9 -4 262.021 254.525 6
-9 -11 -4 256.364 182.118 5
-11 9 -4 276.868 262.169 3
11 9 4 529.31 145.247 9
9 11 -4 315.172 183.217 9
-9 -11 -4 240.897 102.992 4
11 -9 -4 381.015 147.205 4
11 9 4 298.862 149.78 8
-9 11 4 391.754 125.37 8
-9 -11 -4 510.279 134.732 2
11 -9 -4 572.427 167.903 2
11 9 4 240.572 107.614 16
11 -9 -4 606.846 188.178 7
9 11 -4 285.622 157.64 15
11 9 4 360.683 123.684 1
11 9 4 480.89 171.419 15
-9 11 4 565.525 174.199 3
-9 -11 -4 496.901 190.92 13
-9 -11 -6 30.7709 117.816 12
-9 11 6 199.257 162.659 6
-9 -11 -6 243.971 143.93 5
11 9 6 96.4567 149.771 9
-9 11 6 46.1527 112.815 8
11 9 6 410.752 168.698 8
-9 -11 -6 161.997 92.9931 2
11 -9 -6 177.734 129.245 2
11 9 6 27.7219 130.852 16
11 -9 -6 180.689 136.805 7
11 -9 -6 19.5319 92.6222 15
-9 11 6 28.3839 146.067 1
-11 -10 -3 220.108 121.337 13
-11 -10 -3 68.7981 130.4 12
-11 10 3 104.461 146.891 6
-11 10 3 138.337 117.441 11
-10 11 -3 24.7104 206.111 1
11 10 -3 29.1728 86.3784 10
-10 11 -3 139.859 176.992 6
10 -11 -3 138.812 123.368 10
-10 11 -3 253.043 209.038 3
10 -11 -3 27.2745 71.062 5
11 10 -3 41.8831 132.447 3
11 -10 3 211.261 115.648 10
-11 -10 -3 42.085 132.45 5
10 11 3 38.5153 123.429 9
-11 10 3 82.3151 110.739 1
-10 -11 3 162.722 232.686 5
11 10 -3 300.339 222.043 9
10 11 3 46.0243 112.156 1
10 -11 -3 76.5547 127.212 4
10 11 3 5.0325 119.333 8
-11 10 3 56.6457 91.7729 8
11 10 -3 85.4997 193.434 8
11 -10 3 53.0395 141.628 4
11 -10 3 3.68886 90.9347 16
-10 -11 3 100.464 109.073 4
10 11 3 70.3714 133.79 16
11 10 -3 168.005 149.851 16
10 -11 -3 44.2797 119.906 2
10 -11 -3 119.751 131.769 7
-11 -10 -3 108.135 78.9725 2
10 -11 -3 50.4831 73.6123 15
10 11 3 86.6361 91.1351 3
10 11 3 162.966 132.593 15
11 10 -3 60.194 159.989 15
11 -10 3 53.7679 155.015 7
-10 -11 3 140.016 107.876 14
-11 10 3 35.4393 92.806 14
-11 10 3 113.381 118.759 3
-11 10 1 505.737 152.92 13
10 11 1 289.176 107.861 3
-11 10 1 379.164 126.374 3
-10 11 -1 31.447 199.123 1
-11 -10 -1 148.693 68.25 11
11 10 -1 172.293 85.5822 3
-11 -10 -1 293.814 134.918 2
-11 10 1 392.641 185.684 6
-10 11 -1 62.9987 130.487 3
-10 11 -1 56.7063 172.413 6
11 -10 1 295.177 223.13 2
-11 10 1 77.9734 126.306 1
11 10 -1 233.635 97.4407 10
10 -11 -1 367.414 136.109 10
11 -10 1 176.849 148.016 10
10 11 1 203.174 85.474 10
10 -11 -1 139.065 76.8987 5
11 10 -1 373.311 172.646 16
11 10 -1 76.9833 142.378 15
-11 -10 -1 233.529 145.48 5
11 -10 1 265.635 108.137 5
-10 -11 1 99.7476 169.75 5
10 11 1 375.634 179.724 9
11 10 -1 0.80534 177.509 9
10 11 1 136.412 90.8723 1
-11 -10 -1 195.932 82.1735 4
10 11 1 333.82 171.369 8
10 -11 -1 17.0414 142.833 4
-10 -11 1 387.305 140.4 4
11 -10 1 272.423 148.392 4
11 10 -1 405.107 239.201 8
-11 10 1 204.227 89.7411 8
11 -10 1 373.047 139.915 16
10 11 1 232.277 143.344 16
10 -11 -1 286.06 125.624 16
-11 10 1 207.852 122.372 14
10 -11 -1 332.815 157.534 7
10 11 1 100.988 153.111 15
11 -10 1 146.109 187.966 7
10 -11 -1 246.288 73.1656 15
11 -10 1 175.371 82.0329 15
-10 -11 1 219.56 99.4551 14
10 -11 -1 112.324 117 2
-10 11 1 165.189 121.187 1
-11 10 -1 459.266 224.407 1
-10 11 1 2.81748 150.586 3
-10 -11 -1 103.349 101.362 2
-10 -11 -1 281.363 97.6611 11
10 11 -1 252.455 105.242 3
-10 11 1 379.495 177.007 6
-11 10 -1 231.999 139.535 3
10 -11 1 292.374 175.262 2
-11 10 -1 198.296 134.206 6
10 11 -1 194.53 85.0625 10
11 -10 -1 352.625 156.899 10
11 10 1 234.079 100.481 10
10 -11 1 366.588 156.048 10
11 -10 -1 516.796 119.51 5
-10 -11 -1 174.065 170.764 5
-11 -10 1 7.0824 155.885 5
10 -11 1 313.151 108.788 5
10 11 -1 207.083 115.568 16
10 11 -1 319.304 143.563 9
-10 -11 -1 225.575 111.611 4
11 -10 -1 471.606 189.191 4
11 10 1 487.092 173.131 8
-11 -10 1 109.241 116.149 4
10 11 -1 346.035 199.481 8
10 -11 1 469.311 182.448 4
-10 11 1 282.054 103.691 8
11 10 1 91.3994 105.132 1
10 -11 1 35.8022 136.787 7
10 -11 1 308.345 124.245 16
11 10 1 36.9344 123.011 16
11 -10 -1 302.457 134.422 16
10 11 -1 281.131 130.683 15
11 -10 -1 279.674 159.01 7
11 10 1 44.7933 121.401 15
11 -10 -1 108.835 77.1277 15
-11 -10 1 287.736 156.865 14
-10 11 1 245.654 117.543 14
11 10 1 390.421 117.564 3
-11 10 -1 105.921 95.5414 13
11 -10 -1 315.882 132.416 2
-10 11 1 334.826 119.759 13
-10 -11 -3 86.3939 129.013 13
-10 -11 -3 123.001 148.652 12
10 11 -3 185.605 181.548 15
-10 11 3 125.378 113.985 6
-10 11 3 293.54 162.222 11
10 11 -3 42.9612 90.5045 10
-11 10 -3 71.8796 198.057 6
11 -10 -3 20.6407 86.3921 15
11 -10 -3 42.0412 130.293 10
-11 10 -3 183.452 162.473 3
10 11 -3 79.1282 135.209 3
10 -11 3 58.7826 116.041 10
-10 -11 -3 9.88671 113.379 5
10 -11 3 76.7902 195.382 2
11 10 3 56.3716 162.951 9
-11 -10 3 268.781 200.889 5
-10 11 3 166.312 168.611 1
10 11 -3 78.7879 221.354 9
11 10 3 5.57968 106.177 1
-10 -11 -3 28.6973 100.848 4
11 -10 -3 250.477 159.831 4
11 10 3 91.0195 150.857 8
-10 11 3 122.078 102.71 8
10 11 -3 76.7487 179.965 8
10 -11 3 192.22 145.889 4
10 -11 3 53.4598 74.7701 16
-11 -10 3 213.501 125.403 4
11 -10 -3 109.897 98.6721 16
10 11 -3 73.0122 129.176 16
11 -10 -3 175.187 150.53 2
11 -10 -3 324.655 164.704 7
-10 -11 -3 40.9566 85.4412 2
11 10 3 278.953 173.982 16
11 10 3 102.711 156.861 15
10 -11 3 80.6368 186.021 7
-11 -10 3 295.388 158.118 14
-10 11 3 165.427 113.886 3
0 -12 0 543.352 156.907 2
-12 0 0 505.341 116.014 12
-12 0 0 694.373 126.018 6
0 12 0 536.607 151.746 3
0 12 0 569.388 144.383 6
0 12 0 949.078 210.287 1
12 0 0 558.729 151.617 10
0 -12 0 689.479 177.163 5
0 12 0 559.641 132.236 9
0 12 0 495.518 182.183 8
12 0 0 655.307 158.009 16
12 0 0 537.598 132.582 7
12 0 0 595.952 151.709 15
0 -12 0 601.369 165.007 7
-12 1 -1 1367.99 190.911 12
-12 -1 1 1560.08 193.435 6
1 -12 1 1314.61 249.182 2
1 12 1 1501.78 223.141 3
-1 12 1 1436.35 232.638 3
-1 12 1 1333.57 143.667 11
-1 -12 1 1449.55 274.22 2
-12 -1 1 1122.1 198.564 11
1 12 1 1367.37 185.267 6
-12 1 1 1193.21 199.648 11
-1 12 1 1380.62 204.1 6
-12 -1 -1 1355.75 165.933 6
-12 1 -1 1424.47 181.523 6
-1 12 -1 1307.87 237.95 3
-1 12 -1 1046.62 224.763 6
1 12 -1 1237.47 222.087 3
1 12 -1 1059.53 185.376 6
12 1 -1 1336.55 216.21 10
12 -1 -1 1199.02 205.403 10
12 1 1 1247.84 222.378 10
12 -1 1 1646.37 242.86 10
-12 -1 1 1570.89 148.326 5
12 -1 1 1465.6 195.087 9
1 12 1 1353.28 204.26 9
-1 12 1 1514.1 201.055 9
1 12 -1 1385.69 232.916 9
-1 12 -1 1320.39 198.13 9
-1 12 -1 855.108 208.889 1
1 12 1 1276.07 238.293 8
-1 12 1 1325.64 210.066 8
1 12 -1 1070.65 240.316 8
-1 12 -1 1077.33 222.269 8
-12 1 1 1280.32 181.492 6
1 12 -1 1318.45 256.037 1
12 -1 1 1075.37 207.971 16
12 1 1 1579.91 237.847 16
1 12 1 1056.33 202.512 1
12 1 -1 1350.68 175.141 7
12 -1 -1 1398.83 195.033 7
-1 12 1 1298.6 226.332 1
12 1 -1 1150.13 204.931 15
12 -1 -1 1366.83 224.065 15
1 -12 -1 1691.4 222.526 7
-1 -12 -1 1233.33 176.245 7
12 1 1 1414.97 224.144 15
12 -1 1 1428.29 220.357 15
12 -1 1 1409.48 236.116 7
12 1 1 1437.43 202.514 7
1 -12 1 1496.8 227.215 7
1 -12 -1 1437.69 227.55 2
-1 -12 -1 1218.98 205.247 2
-1 -12 1 1439.32 235.024 7
-12 0 -2 262.459 109.632 13
2 -12 0 126.77 139.601 2
-2 -12 0 101.685 101.987 2
-12 0 -2 135.995 98.044 12
-12 0 2 123.829 90.8338 6
0 -12 -2 127.505 75.1341 12
0 12 2 88.3521 87.3165 3
-12 -2 0 205.181 79.4641 6
0 12 2 388.237 128.913 6
-12 0 2 299.018 111.745 11
-12 2 0 163.217 84.2349 6
2 12 0 101.347 149.375 3
-2 12 0 206.799 117.237 3
2 12 0 27.2837 95.3905 6
-2 12 0 155.983 134.18 6
-12 0 -2 76.2547 80.1157 6
12 0 -2 166.188 97.8548 10
0 -12 2 278.126 145.669 2
12 2 0 229.073 97.4948 10
12 -2 0 72.2402 97.4503 10
0 12 -2 29.2701 202.569 3
2 12 0 46.0274 144.531 1
12 0 2 390.242 145.373 10
-12 -2 0 107.392 67.7978 5
0 -12 -2 28.8283 120.701 5
12 0 -2 37.331 94.9175 16
12 0 2 125.121 77.9723 9
2 -12 0 232.267 126.853 5
-2 -12 0 152.307 125.271 5
0 12 2 206.097 100.808 9
12 -2 0 241.658 102.587 9
12 2 0 313.842 111.586 9
12 0 2 121.762 97.7523 16
0 -12 2 148.872 193.149 5
2 12 0 108.763 98.0128 9
12 -2 0 94.661 95.0729 7
12 0 -2 224.404 122.758 9
-2 12 0 212.567 92.4771 9
0 12 -2 61.3605 154.353 1
0 12 2 140.502 86.4789 1
12 -2 0 230.166 73.545 4
0 12 2 87.5327 152.099 8
0 -12 -2 40.4777 107.86 4
2 12 0 92.5611 112.524 8
-2 12 0 55.7585 99.8489 8
12 2 0 132.028 74.8554 8
-2 -12 0 497.643 175.465 4
2 -12 0 172.678 122.13 4
-2 12 0 167.105 138.466 1
0 12 -2 94.7614 146.239 8
0 -12 2 168.972 127.971 4
12 -2 0 71.0289 92.4697 16
-2 -12 0 24.1248 101.773 7
12 0 -2 15.3355 135.138 15
12 0 -2 109.787 99.1654 7
12 2 0 270.446 145.302 16
0 -12 -2 50.9461 77.4636 2
0 -12 -2 297.425 110.433 7
12 2 0 125.25 97.2955 7
12 2 0 163.721 159.386 15
12 -2 0 261.247 147.907 15
2 -12 0 227.97 133.96 7
12 0 2 199.702 120.292 15
12 0 2 239.718 138.196 7
-12 0 2 84.1849 102.719 14
-12 2 0 182.581 58.6046 3
-12 -2 2 834.032 156.265 6
-12 2 -2 874.328 168.452 12
-12 -2 -2 582.321 154.916 12
2 12 2 822.096 167.886 3
-2 -12 -2 457.002 108.666 12
-12 2 2 896.837 169.499 6
2 12 2 796.458 131.861 6
-2 12 2 818.943 134.613 11
-12 -2 2 682.325 169.761 11
-2 12 2 553.153 141.99 6
-12 2 2 759.277 176.289 11
-12 -2 -2 807.86 137.741 6
-12 2 -2 749.82 154.84 6
12 2 -2 655.8 148.378 10
12 -2 -2 600.946 152.885 10
-2 12 -2 473.575 213.256 1
-2 12 -2 931.502 235.156 6
-12 2 -2 689.712 110.82 3
2 -12 -2 987.376 116.719 10
-2 -12 2 1073.65 241.691 2
-2 12 -2 647.517 191.144 3
2 12 -2 927.082 230.864 3
12 2 2 550.049 172.193 10
12 -2 2 654.195 156.96 10
2 -12 -2 647.244 174.047 5
-2 -12 -2 538.855 158.601 5
12 -2 2 677.223 134.904 9
12 2 2 743.602 178.029 9
2 12 2 592.679 150.616 9
-2 12 2 786.001 144.405 9
2 -12 2 385.535 151.324 2
12 -2 -2 782.237 182.54 9
-2 12 2 575.051 177.283 1
2 12 2 629.598 144.276 1
2 12 2 980.508 207.857 8
-2 12 2 737.164 164.451 8
-2 -12 -2 516.639 153.252 4
2 12 -2 1179.71 286.242 8
-2 12 -2 753.173 231.114 8
12 -2 2 944.958 123.832 4
12 2 2 798.338 192.17 16
12 -2 2 785.344 179.059 16
2 12 -2 962.232 256.078 1
12 2 -2 695.659 124.226 7
2 12 -2 730.457 147.872 15
12 -2 -2 887.703 181.432 7
2 -12 -2 752.135 164.466 2
-2 -12 -2 576.293 113.153 7
-2 -12 -2 416.328 142.543 2
12 -2 -2 736.816 151.429 15
12 -2 2 723.163 172.807 7
2 -12 -2 1073.19 185.359 7
12 2 2 942.603 194.674 15
12 2 -2 986.699 213.734 15
12 -2 2 886.943 178.218 15
2 -12 2 524.441 153.68 7
12 2 2 631.673 145.722 7
-12 -2 2 989.129 209.982 14
-12 2 2 985.748 221.092 14
-2 -12 -2 855.578 112.161 14
-1 12 3 1339.89 248.331 3
-1 -12 -3 1626.88 226.292 2
-12 3 1 1533.39 175.173 12
-1 12 3 1267.13 192.156 6
3 12 1 1349.19 212.519 3
-12 -1 3 1405.5 230.852 11
-12 3 1 1384.76 207.175 6
-12 -3 -1 1289.88 144.435 6
12 -3 1 1502.61 234.334 7
-12 3 1 1214.82 227.987 11
-3 -12 1 1055.73 220.351 2
-3 12 -1 1116.14 219.705 6
-3 12 -1 1561.09 272.374 3
12 -1 -3 1001.02 199.542 10
12 3 -1 1246.98 213.773 10
-12 1 -3 1511.11 238.38 6
12 -3 1 1068.61 197.273 10
3 -12 -1 1214.88 146.398 10
12 1 3 1371.04 239.738 10
-1 12 3 1737.17 269.289 1
-12 -3 -1 1348.51 186.149 5
1 12 -3 1455 314.021 3
1 -12 3 803.691 238.186 2
12 1 3 1491.55 210.986 9
-1 12 3 1245.61 173.453 9
3 12 1 1224.02 206.892 9
12 1 3 1284.94 157.214 8
-3 12 -1 1584.75 305.718 1
-1 12 3 1816.92 263.061 8
1 12 -3 1230.15 369.068 1
3 12 1 1684.72 264.662 8
12 -3 1 1269.97 153.331 4
-3 12 -1 1341.4 258.43 8
12 3 -1 1319.27 224.693 8
1 12 -3 1088.92 302.848 8
12 1 3 1063.22 208.671 16
12 3 -1 1216.54 239.81 16
12 -1 -3 1345.34 210.336 7
-1 -12 -3 1597.22 193.08 7
12 -1 -3 1436.21 251.048 15
3 12 1 1365.16 229.953 1
12 3 -1 1187.75 226.467 15
3 -12 -1 1345.71 211.886 7
3 12 1 1134.45 141.868 15
12 -3 1 1335.01 206.497 15
-12 3 1 1397.78 170.328 1
12 1 3 1273.81 216.591 15
3 -12 -1 1167.56 218.473 2
-12 3 1 1100.54 139.008 3
-12 -1 3 1360.95 247.602 14
1 12 3 1114.58 205.259 3
-12 -3 1 1249.46 166.541 6
-12 1 3 1384.4 211.415 6
-12 3 -1 1237.3 170.674 12
1 12 3 1222.85 185.145 6
3 -12 1 1220 229.811 7
3 -12 1 755.824 191.792 2
-3 12 1 1417 239.875 3
-12 1 3 1386.31 246.769 11
-12 3 -1 1498.71 152.116 3
-3 12 1 1122.13 220.542 6
-12 3 -1 1326.33 221.664 6
12 1 -3 1228.7 226.552 10
3 12 -1 1938.83 288.845 3
3 12 -1 1136.77 187.025 6
-12 -1 -3 1497.89 205.257 6
12 -3 -1 1400.68 221.325 10
12 -3 -1 1377.19 209.293 15
12 3 1 1276.94 220.583 10
1 12 3 1415.37 246.696 1
-1 12 -3 935.614 288.468 3
12 1 -3 1368.37 187.058 7
1 12 3 1373.71 217.264 9
12 3 1 1206.56 208.388 9
-3 12 1 1270.33 169.051 9
3 12 -1 1402.79 256.771 9
1 12 3 1039.95 212.595 8
-3 12 1 1201.34 219.874 8
3 12 -1 1255.34 256.337 8
12 3 1 1155.84 215.466 16
1 -12 -3 1244.05 211.82 2
-3 12 1 1340.15 244.75 1
1 -12 -3 1231.02 198.423 7
3 12 -1 1265.63 171.061 15
12 -3 -1 1216.23 195.81 7
12 1 -3 1149.52 228.447 15
-1 12 -3 1245.87 329.797 1
12 3 1 1172.04 208.035 15
-3 -12 -1 1398.18 180.377 7
3 12 -1 1400.4 262.183 1
12 3 1 1223.51 180.024 7
-3 -12 -1 1219.73 203.631 2
-12 1 3 1499.42 266.94 14
-12 -3 1 1177.69 222.077 14
-12 -1 -3 1090.75 229.379 13
-3 12 3 1171.77 219.24 3
-12 3 3 1010.89 175.724 6
-3 12 3 1048.84 162.302 11
-3 12 3 1038.42 197.39 6
-12 -3 3 1236.43 215.318 11
-12 3 3 1252.98 237.588 11
12 3 -3 1248.79 232.361 10
12 -3 -3 1150.45 238.293 10
12 -3 -3 884.356 193.721 15
3 -12 -3 1336.4 170.767 10
-12 3 -3 1282.38 249.401 6
12 -3 3 1500.33 257.065 10
12 3 3 1356.28 239.907 10
-3 12 -3 756.828 238.322 3
3 -12 3 598.769 220.45 2
3 12 -3 1184.73 279.68 3
3 12 3 1152.51 214.378 1
-3 12 3 1680.01 289.941 1
-12 3 -3 1229.72 260.565 3
12 -3 3 1293.41 179.642 9
12 3 3 1247.64 214.558 9
-3 -12 3 928.04 231.998 2
3 12 3 1530.52 237.169 9
-3 12 3 1216.02 166.368 9
3 -12 3 1385.18 369.014 4
12 3 -3 1229.16 274.688 9
12 3 3 1219.22 180.755 8
12 3 -3 1389.28 274.936 16
3 12 3 1317.4 248.555 8
-3 12 3 1223.66 212.903 8
12 -3 -3 1177.38 160.604 2
-3 12 -3 861.246 284.349 1
3 12 -3 1042.37 269.674 8
12 -3 3 822.523 171.579 16
12 3 3 1496.68 262.609 16
3 12 3 1505.41 165.733 16
12 -3 3 1352.68 200.76 4
12 3 -3 1087.37 163.717 7
-3 -12 -3 1366.5 225.846 2
3 -12 -3 1362.39 234.842 2
12 -3 -3 1116.72 207.348 7
3 -12 -3 1474.02 248.628 7
12 3 -3 1170.98 248.402 15
12 3 3 1483.93 263.315 15
12 -3 3 937.118 182.53 15
-12 3 3 947.391 163.593 1
12 -3 3 1076.4 265.444 7
3 12 -3 962.901 268.691 1
-12 -3 3 1122.59 246.432 14
-12 3 3 1274.28 241.794 14
3 12 3 1628.96 250.824 3
-12 -4 -2 158.284 174.289 13
4 -12 -2 135.942 61.7346 12
-2 -12 -4 252.128 112.639 12
4 12 2 142.517 113.732 3
-2 12 4 387.874 147.753 6
4 12 2 179.302 85.1323 6
-12 -2 4 9.49286 102.781 11
-12 4 2 121.771 86.6188 6
-2 12 4 353.511 189.762 1
-12 4 2 63.4966 125.273 11
-4 12 -2 136.651 181.719 1
12 -2 -4 184.773 130.663 10
-4 12 -2 134.472 182.085 6
4 -12 -2 247.482 105.681 10
-4 12 -2 190.188 137.809 3
12 -4 2 31.2564 105.475 10
-4 -12 2 214.611 164.943 2
-12 -4 -2 114.785 88.4521 5
12 2 4 283.948 150.367 10
-2 -12 -4 181.8 177.408 5
12 2 4 250.912 137.759 9
-2 12 4 155.544 93.926 9
4 12 2 135.298 134.959 9
12 4 -2 113.978 160.756 9
12 -2 -4 52.9381 68.8565 2
12 2 4 141.553 102.837 8
-2 12 4 123.586 124.468 8
4 12 2 315.293 171.672 8
-4 12 -2 11.9669 146.414 8
12 -4 2 46.0891 71.7974 4
-2 -12 -4 141.315 116.986 2
-4 -12 2 246.443 208.912 4
12 -2 -4 137.804 135.122 7
12 2 4 136.49 132.736 16
12 -4 2 122.928 85.6845 16
12 4 -2 65.8171 132.371 16
12 4 -2 181.304 74.6262 7
-2 -12 -4 120.515 69.5534 7
12 -2 -4 250.495 127.767 15
4 -12 -2 208.294 149.346 2
-12 4 2 107.477 72.1231 3
12 -4 2 233.892 140.809 15
12 2 4 129.507 111.263 15
12 -4 2 20.154 142.159 7
-12 -2 4 39.0664 100.712 14
-2 12 4 338.704 156.354 3
-12 2 -4 165.187 132.746 13
12 -2 -4 220.394 136.311 16
4 -12 0 1536.67 263.943 2
0 12 4 1389.85 220.91 6
-12 -4 0 1299.22 152.907 6
-12 4 0 1675.76 188.926 12
-12 4 0 1343.4 164.131 3
-4 -12 0 1426.37 251.454 2
-12 0 4 1050.62 218.43 11
0 12 4 1398.43 264.924 1
-12 -4 0 1421.61 221.798 11
4 12 0 1453.99 232.552 3
-4 12 0 1322.03 242.998 3
-12 4 0 1286.97 218.85 6
12 -4 0 1180.5 195.046 2
4 12 0 1620.37 184.888 6
12 4 0 1733.74 273.682 15
-4 12 0 1580.4 267.574 6
12 0 -4 1492.55 253.905 10
-4 12 0 1151.96 244.056 1
12 4 0 1735.1 240.462 10
12 -4 0 1835.1 266.482 10
4 -12 0 1555.55 194.545 10
12 0 4 1528.35 270.55 10
12 0 4 1512.45 228.961 9
-12 -4 0 1677.99 217.717 5
0 12 4 1165.2 198.383 9
4 12 0 1557.11 266.368 1
12 4 0 1893.03 189.748 7
12 4 0 1616.61 256.985 9
4 12 0 2001.56 304.686 9
0 12 4 1336.9 254.213 8
12 -4 0 1571.17 186.446 4
4 12 0 1280.46 266.996 8
12 0 4 2006.57 300.738 15
-4 12 0 1599.61 275.873 8
4 12 0 1336.15 184.119 15
0 -12 -4 1652.43 252.137 2
12 0 4 1168.81 209.875 16
12 0 -4 1527.51 206.122 7
12 4 0 1392.05 234.187 16
0 -12 -4 1654.77 234.665 7
4 12 0 1664.63 209.718 16
12 0 -4 1713.74 301.179 15
12 -4 0 1627.36 259.942 7
4 -12 0 1494.81 249.43 7
12 -4 0 1380.88 215.591 15
-12 0 4 1507.79 266.896 14
-4 -12 0 1395.2 177.352 14
0 12 4 1776.35 265.178 3
-12 0 -4 1335.29 268.163 13
-12 2 4 111.406 92.2746 6
-12 -2 -4 106.135 113.499 12
4 12 -2 46.3868 162.43 1
-12 2 4 220.852 137.552 11
2 12 4 269.247 145.831 1
-12 -4 2 59.1511 114.634 11
-4 12 2 2.21845 75.0446 11
-4 12 2 25.9766 102.846 6
12 2 -4 5.35407 101.69 10
4 -12 2 343.78 190.124 2
2 -12 -4 200.353 81.9838 10
4 12 -2 308.264 176.758 3
12 -2 4 22.6372 132.144 10
2 -12 -4 208.089 119.488 5
4 12 -2 3.71859 102.746 15
12 -2 4 207.976 112.596 9
-4 -12 -2 160.416 167.716 5
2 12 4 200.368 109.618 9
12 4 2 172.878 100.539 9
-12 -4 2 364.238 142.067 5
-4 12 2 187.609 93.3594 9
4 -12 2 578.351 223.514 5
4 12 -2 126.419 126.1 9
12 -4 -2 178.309 113.141 9
12 -4 -2 244.342 112.818 4
-4 12 2 192.818 119.204 1
2 -12 -4 118.177 135.007 4
2 12 4 254.509 141.248 8
12 4 2 58.0463 78.2842 8
-4 -12 -2 146.184 157.286 4
4 12 -2 259.657 220.431 8
4 -12 2 444.247 208.523 4
2 -12 -4 258.391 160.738 2
12 -2 4 194.994 136.275 16
2 12 4 134.205 69.7554 16
2 12 4 61.0958 77.9269 6
12 4 2 238.427 136.099 16
12 2 -4 109.333 119.455 16
2 -12 -4 188.759 148.586 7
12 2 -4 30.3529 125.681 15
12 2 -4 56.7962 68.8928 7
12 -4 -2 310.491 127.629 15
-4 -12 -2 62.0332 118.594 2
12 4 2 90.6056 119.688 15
12 -2 4 167.148 113.071 15
4 -12 2 111.041 125.917 7
-12 2 4 28.1645 127.489 14
2 12 4 196.545 148.964 3
-12 -4 2 31.3558 85.9181 14
-12 -2 -4 35.1763 108.143 13
-12 4 -2 117.807 120.792 13
-4 -12 -2 84.6783 77.7625 13
-12 4 4 984.525 201.064 6
-4 -12 -4 618.848 144.379 12
-4 12 4 1229.87 235.004 6
-12 4 4 895.543 202.762 11
4 12 4 1174.86 218.987 1
-12 4 4 736.792 171.449 1
-4 12 4 1012.26 238.115 1
12 4 -4 1114.34 204.869 10
12 -4 -4 889.727 203.981 10
4 -12 -4 1085.86 149.555 10
12 -4 4 689.337 179.512 10
12 4 4 740.717 175.354 10
12 4 4 975.391 202.315 9
-4 12 4 1076.89 143.982 9
4 12 4 775.813 211.945 9
12 4 -4 766.259 228.305 9
12 4 4 1016.09 200.312 15
12 4 4 822.276 162.177 8
-4 12 4 1061.44 206.626 8
4 12 4 1065.35 241.377 8
12 -4 -4 965.804 160.284 2
4 -12 -4 1050.84 204.772 2
12 4 4 812.106 203.913 16
12 -4 -4 1273.21 203.616 7
12 -4 -4 929.294 228.158 16
4 -12 -4 704.37 154.975 7
12 4 -4 1155.91 245.471 15
12 -4 -4 1244.78 217.026 15
-12 -4 4 1173.21 238.922 14
-12 4 4 1066.8 220.23 14
-4 12 4 1187.4 235.975 3
-3 12 5 722.972 167.005 6
-12 5 3 1151.14 213.878 6
-12 5 3 921.346 197.393 11
12 -5 3 983.181 188.681 16
12 -3 -5 931.786 193.149 10
12 5 -3 967.285 174.085 10
5 -12 -3 1035.59 157.216 10
-12 -5 -3 960.01 196.117 5
12 -5 3 1277.62 250.3 10
12 -5 3 1203.12 160.216 9
5 12 3 996.008 196.436 1
-3 12 5 1022.68 167.631 9
12 3 5 929.167 179.897 9
5 12 3 1159.33 218.45 9
12 5 -3 545.743 191.889 9
-5 12 -3 888.909 275.652 1
-3 12 5 1203.31 236.577 8
-3 -12 -5 1085.49 196.334 2
12 3 5 894.525 217.382 16
12 5 -3 1033.63 151.475 7
5 12 3 1231.03 177.939 16
12 -3 -5 1275.15 216.576 7
12 5 -3 704.39 160.038 16
5 -12 -3 880.374 178.396 2
5 -12 -3 906.962 173.71 7
12 -3 -5 1240.83 233.402 15
12 5 -3 780.379 185.734 15
-12 5 3 840.472 154.377 3
5 12 3 1016.06 181.902 15
12 -5 3 993.668 191.291 15
-3 12 5 644.902 165.012 3
12 -5 3 642.466 210.78 7
-12 -3 5 1085.95 217.553 14
-12 5 3 1070.47 209.349 14
-3 12 5 1169.38 236.202 1
5 12 3 1156.11 211.834 3
-3 -12 -5 1032.74 169.928 7
-1 12 5 1441.03 233.261 6
-12 5 1 1819.15 174.388 12
-12 5 1 1674.25 196.646 3
5 12 1 1917.55 249.48 3
5 12 1 1690.44 169.079 6
-12 5 1 1718.06 243.134 6
-12 5 1 1359.1 232.908 11
12 -1 -5 1124.75 228.731 10
-5 -12 1 1310.96 241.465 2
-5 12 -1 1494.34 258.739 3
-5 12 -1 1482.67 247.937 6
12 5 -1 1807.07 231.09 10
12 -5 1 1629.26 239.393 10
5 -12 -1 1429.68 184.426 10
12 -5 1 1390.81 219.385 2
-1 12 5 1534.62 219.907 9
-1 12 5 2031.56 291.097 3
12 -5 1 1703.96 168.553 9
5 12 1 1140.44 226.777 9
12 5 -1 1529.17 252.792 9
-1 12 5 1770.35 273.383 8
-5 12 -1 1473.48 280.727 1
5 12 1 1255.45 227.398 8
-1 -12 -5 1822.26 255.048 2
12 -5 1 1526.77 187.56 4
-5 12 -1 1721.27 285.854 8
12 -1 -5 1442.64 223.441 7
12 5 -1 942.448 172.272 16
-1 -12 -5 1925.49 235.494 7
12 -5 1 1738.78 226.31 15
12 1 5 1058.63 259.267 16
12 -1 -5 1589.04 286.627 15
12 5 -1 1362.2 227.632 15
5 12 1 1431.7 188.95 15
5 -12 -1 1371.2 223.076 7
12 -5 1 1623.98 271.081 7
-12 5 1 1675.53 211.696 1
5 12 1 1961.84 221.821 16
12 1 5 1780.53 275.359 15
-1 12 5 1416.32 257.198 1
5 -12 -1 1645.01 262.472 2
5 12 1 1597.19 251.356 1
-12 -5 -1 1592.08 137.981 6
-12 5 -1 1813.76 258.585 13
5 12 -1 1461.23 268.674 1
1 -12 -5 1881.03 246.957 7
-12 1 5 1614.1 256.801 11
-5 12 1 1781.72 252.1 3
5 -12 1 1377 274.93 2
-12 -5 1 1804.04 241.123 11
-12 5 -1 1266.58 167.683 3
-5 12 1 1596.89 195.999 11
1 -12 -5 1748.27 176.355 10
-5 12 1 1588 247.114 6
-12 5 -1 1333.11 219.108 6
12 1 -5 1276.51 233.387 10
5 12 -1 1147.62 216.256 3
5 12 -1 1451.9 175.393 6
12 -5 -1 1740.94 253.6 10
12 5 1 1317.11 197.483 10
5 -12 1 1323.39 182.047 10
1 12 5 1611.25 247.862 9
12 5 1 1615.28 257.264 9
5 12 -1 1454.89 265.671 9
1 12 5 1346.4 246.344 8
12 -5 -1 1651.43 192.077 4
12 5 1 1233.3 184.033 8
-5 12 1 1478.76 237.145 8
1 -12 -5 1634.58 244.36 2
5 12 -1 935.536 250.665 8
12 5 1 1151.94 235.357 16
5 12 -1 1355.19 211.102 16
12 1 -5 740.528 206.085 15
-5 12 1 1768.7 277.336 1
5 12 -1 1384.85 198.375 15
12 -5 -1 1471.96 251.984 7
12 -5 -1 1409.35 206.052 15
12 5 1 1527.37 253.92 15
5 -12 1 1804.65 274.257 7
1 12 5 1562.79 259.999 3
1 12 5 1712.22 293.057 1
-5 -12 -1 1473.23 179.816 7
-12 1 5 1356.47 252.869 14
-5 -12 -1 1768.92 202.405 14
-5 -12 -1 1436.25 250.287 2
12 -5 -1 1561.82 192.997 2
-12 -5 1 1584.66 251.935 14
-5 12 3 1263.05 217.979 3
-12 3 5 815.443 196.53 11
-5 12 3 948.948 190.563 11
3 -12 -5 1126.36 159.999 10
12 -5 -3 987.167 203.109 10
12 5 3 935.149 193.645 10
-12 5 -3 924.596 215.076 3
5 12 -3 1053 252.196 3
5 -12 3 502.607 180.719 2
-5 12 3 936.073 212.011 1
-5 -12 -3 850.971 227.369 5
3 12 5 976.705 180.529 9
12 5 3 820.095 185.719 9
5 12 -3 880.943 217.88 9
12 -5 -3 1037.28 179.924 4
3 -12 -5 871.769 208.472 4
3 12 5 914.61 222.797 8
-5 12 3 1029.6 205.924 8
3 12 5 1251.86 234.714 3
3 -12 -5 1030.9 194.928 2
5 12 -3 715.815 248.829 8
3 12 5 725.215 152.078 16
12 -5 -3 947.978 156.511 2
12 5 3 868.563 185.839 16
12 -5 -3 925.706 215.45 16
3 -12 -5 1076.45 195.641 7
12 3 -5 758.106 200.737 16
-5 -12 -3 937.992 165.62 2
5 12 -3 736.381 199.076 15
12 3 -5 283.197 124.03 15
-5 -12 -3 1250.71 138.668 7
12 -5 -3 585.726 142.441 15
12 5 3 824.338 197.416 15
3 12 5 664.385 179.95 1
5 -12 3 1030.98 261.496 7
-12 -5 3 1145.58 216.111 14
-12 5 -3 1175.53 237.102 13
-5 12 5 169.709 150.079 1
-12 5 5 212.442 148.206 6
-12 -5 -5 233.302 156.216 12
-5 -12 -5 483.519 188.494 12
-5 12 5 196.31 107.43 6
-12 5 5 52.0673 103.475 11
12 -5 -5 184.349 152.71 10
5 -12 -5 407.686 178.859 5
-5 -12 -5 501.973 199.521 5
-5 12 5 341.732 125.438 9
12 5 5 179.59 131.946 9
5 12 5 188.541 136.179 9
-5 -12 -5 235.798 139.197 4
12 5 5 120.37 119.879 8
12 -5 -5 530.064 158.256 2
5 -12 -5 528.931 209.515 4
-5 12 5 273.443 163.267 8
5 12 5 427.626 187.958 8
-5 -12 -5 252.739 130.02 2
-12 5 5 106.542 114.439 1
5 -12 -5 329.654 191.309 2
5 12 5 190.157 111.266 16
12 5 5 215.308 154.704 16
12 -5 -5 197.259 156.356 7
5 -12 -5 425.36 189.015 7
12 -5 -5 386.78 170.833 15
5 12 5 196.909 111.816 3
12 5 5 233.643 128.421 15
-5 12 5 64.1332 152.717 3
5 12 5 195.465 155.105 1
-5 -12 -5 218.435 91.0601 7
-12 -5 -5 292.112 179.841 13
-4 12 6 316.122 126.111 6
-12 -6 -4 390.132 182.858 12
-12 6 4 419.979 147.486 6
-12 6 4 263.737 124.414 11
6 12 4 535.926 177.292 1
12 -4 -6 148.341 125.046 10
12 6 -4 134.912 105.645 10
6 -12 -4 271.207 103.551 10
-12 -6 -4 213.534 95.6902 5
-4 -12 -6 337.671 149.919 5
6 -12 -4 348.888 126.783 5
12 -6 4 293.832 162.752 10
6 12 4 662.437 214.185 9
12 6 -4 324.849 154.861 9
-4 -12 -6 247.307 148.677 4
-4 12 6 73.0434 139.345 8
6 -12 -4 231.351 147.962 4
-4 -12 -6 150.192 112.019 2
6 12 4 254.142 145.462 8
12 -6 4 364.81 159.698 16
6 12 4 272.909 126.607 16
-4 -12 -6 59.0178 71.2336 7
6 -12 -4 432.045 154.785 2
12 6 -4 350.494 161.209 16
6 -12 -4 161.742 115.388 7
-4 12 6 330.489 171.321 1
12 6 -4 9.14163 188.56 15
-4 12 6 293.813 152.713 3
6 12 4 475.104 154.512 3
6 12 4 421.524 154.066 15
-12 6 4 214.401 99.9977 14
12 -6 4 211.95 151.973 7
-12 6 4 533.699 168.427 1
-12 -6 -4 510.688 202.114 13
-12 -6 -2 509.043 172.933 13
6 12 2 615.567 174.212 3
-12 -6 -2 633.321 188.076 12
-12 6 2 564.627 97.9221 12
-12 6 2 334.183 139.158 6
-12 6 2 1187.36 250.866 11
12 6 -2 617.203 171.152 10
-6 12 -2 846.724 266.248 6
-6 12 -2 480.165 197.4 3
6 -12 -2 488.152 131.436 10
12 -6 2 619.191 174.275 10
-2 -12 -6 682.337 193.755 5
-6 12 -2 571.481 266.858 1
-12 -6 -2 683.918 155.496 5
-2 12 6 709.749 171.774 9
-6 -12 2 221.387 185.337 2
6 -12 -2 447.3 138.946 5
6 12 2 499.48 189.24 9
-6 -12 2 583.268 236.384 5
12 6 -2 875.324 278.089 9
-2 -12 -6 749.338 213.962 4
-12 6 2 592.751 152.605 1
-2 12 6 711.526 215.72 8
-2 -12 -6 505.543 167.95 2
6 12 2 565.136 180.382 8
6 -12 -2 500.678 154.452 4
6 12 2 503.911 170.681 1
12 6 -2 1223.75 272.198 8
12 -6 2 685.405 159.502 4
-6 -12 2 648.736 175.865 4
12 -6 2 692.606 174.631 16
6 12 2 848.511 170.547 16
12 6 -2 378.869 178.282 16
-2 12 6 442.194 216.542 1
6 -12 -2 564.426 177.494 7
12 6 -2 619.076 205.736 15
6 -12 -2 503.468 175.228 2
-2 12 6 696.066 219.516 3
6 12 2 454.743 142.923 15
12 -6 2 538.002 161.946 7
12 -6 2 410.561 130.414 15
-12 6 2 386.648 133.271 3
-12 6 2 603.181 194.562 14
-12 6 0 150.881 107.988 13
6 -12 0 319.849 160.649 2
-12 6 0 143.541 81.0532 3
-6 -12 0 95.0942 122.354 2
-12 -6 0 61.7444 76.7617 11
12 6 0 214.63 119.932 16
-6 12 0 65.6171 95.8011 3
-12 6 0 347.755 147.877 6
0 -12 -6 38.3937 116.662 5
6 -12 0 68.8469 82.021 10
0 12 6 154.381 127.464 9
-12 -6 0 78.8354 106.441 5
12 6 0 78.3675 136.109 9
6 12 0 95.6854 118.448 1
0 -12 -6 95.9095 161.637 4
0 12 6 81.6972 158.821 8
0 -12 -6 39.821 110.895 2
12 -6 0 96.8344 74.7394 4
6 12 0 13.1059 107.478 8
0 -12 -6 18.9475 103.965 7
0 12 6 278.113 201.665 1
6 12 0 16.4809 88.5097 16
12 6 0 270.072 190.779 15
12 -6 0 61.8327 149.483 7
0 12 6 231.26 182.301 3
12 -6 0 44.8267 85.9837 15
-6 -12 0 109.317 75.3513 14
-6 -12 -2 510.484 167.24 13
-6 12 2 928.265 204.084 3
-6 -12 -2 576.553 173.603 12
-12 -6 2 528.064 133.352 11
2 12 6 1103.27 283.55 1
-6 12 2 269.608 127.009 11
-6 12 2 792.266 215.146 6
6 12 -2 718.201 252.098 1
-12 6 -2 813.344 229.902 6
6 -12 2 563.852 221.069 2
-12 6 -2 640.972 158.77 3
12 -6 -2 611.832 181.852 10
6 12 -2 1097.56 244.276 3
2 -12 -6 174.739 97.998 5
12 6 2 460.465 179.221 10
2 12 6 278.35 149.343 9
-6 -12 -2 268.628 153.911 5
12 6 2 396.37 161.336 9
-12 -6 2 417.287 157.126 5
6 -12 2 343.702 161.48 5
6 12 -2 672.771 218.943 9
2 -12 -6 175.017 148.576 4
2 12 6 359.242 208.935 8
12 -6 -2 434.937 135.771 4
-6 12 2 570.507 211.994 1
2 -12 -6 301.669 139.762 2
-6 -12 -2 276.223 127.462 4
-6 12 2 497.638 141.418 8
6 12 -2 1235.61 303.753 8
6 -12 2 357.146 188.107 4
12 6 2 712.04 191.403 16
2 -12 -6 845.166 208.373 7
12 -6 -2 684.188 194.776 16
12 -6 -2 590.479 190.304 7
6 12 -2 802.984 196.875 15
12 -6 -2 659.818 148.4 2
2 12 6 821.154 229.378 3
12 -6 -2 762.608 177.799 15
-6 -12 -2 423.747 139.669 2
12 6 2 765.663 200.117 15
6 -12 2 438.613 201.665 7
-12 -6 2 231.755 109.024 14
-12 6 -2 512.347 187.654 13
-6 -12 -4 457.39 163.869 12
-6 12 4 190.474 143.285 6
-12 4 6 125.672 179.592 11
-6 12 4 395.405 160.353 11
4 -12 -6 275.071 116.379 10
-6 12 4 312.485 141.745 1
12 -6 -4 225.672 99.9153 10
-6 -12 -4 570.498 217.212 5
4 12 6 257.708 156.424 9
12 6 4 378.88 158.408 9
4 -12 -6 240.018 144.905 4
-6 -12 -4 446.9 140.84 4
4 12 6 427.962 169.932 8
12 6 4 368.615 127.901 8
-6 12 4 453.715 163.01 8
4 -12 -6 689.68 204.671 2
12 -6 -4 275.734 115.706 2
-6 -12 -4 277.64 121.832 2
12 6 4 313.342 158.087 16
4 12 6 158.111 136.929 1
4 -12 -6 401.013 177.126 7
12 -6 -4 576.947 223.346 16
-6 -12 -4 386.453 78.5107 7
12 -6 -4 324.741 169.587 7
12 -6 -4 452.157 178.437 15
12 6 4 121.849 123.372 15
-12 -6 4 446.204 186.263 14
-6 12 4 279.083 134.637 3
-6 -12 -4 190.478 95.9472 13
-12 -6 -6 33.0594 98.5245 12
-6 12 6 37.4892 120.708 6
-6 -12 -6 101.77 101.531 12
-12 6 6 1.29256 118.436 11
6 -12 -6 128.735 130.694 10
12 -6 -6 153.761 156.163 10
-6 -12 -6 59.012 135.059 5
12 6 6 107.312 122.444 9
6 12 6 3.81532 127.325 9
6 -12 -6 38.0193 128.821 4
12 -6 -6 55.6702 82.4922 2
-6 12 6 103.664 105.345 8
6 12 6 110.324 165.79 8
-6 -12 -6 93.3766 109.215 2
6 -12 -6 130.504 112.45 2
6 12 6 143.94 96.5806 16
12 6 6 0.77598 124.099 16
12 -6 -6 6.57892 131.756 7
6 -12 -6 11.4665 121.521 7
6 12 6 111.139 122.57 1
-6 12 6 105.09 165.737 1
-6 12 6 53.3919 112.77 3
-12 -7 -5 52.0352 124.909 12
-12 7 5 27.3898 141.682 6
-12 7 5 106.709 116.771 11
7 -12 -5 20.2392 97.3814 10
-5 -12 -7 126.598 128.268 5
7 12 5 38.129 137.478 9
-12 -7 -5 13.3906 62.5797 2
7 -12 -5 115.083 125.99 4
7 12 5 59.5115 160.119 8
7 -12 -5 44.8367 142.547 2
-5 12 7 92.0699 130.933 1
7 12 5 7.71978 100.768 16
7 -12 -5 180.767 146.63 7
7 -12 -5 13.4867 57.2219 15
-12 7 5 62.9016 109.961 1
-5 12 7 637.307 243.642 3
7 12 5 782.763 257.441 3
-12 -7 -5 48.1003 135.967 13
7 12 5 100.584 146.996 1
-12 -7 -3 66.7037 168.358 13
-12 -7 -3 92.0904 168.009 12
-12 7 3 117.641 104.334 6
-12 7 3 117.471 110.41 11
12 7 -3 138.152 134.993 10
7 -12 -3 35.3246 109.675 10
-7 12 -3 68.5414 209.76 6
-7 12 -3 136.953 211.326 3
12 -7 3 183.715 129.862 10
-12 7 3 93.2803 105.604 1
-12 -7 -3 70.4224 88.7366 5
7 -12 -3 109.789 129.745 5
12 -7 3 143.762 62.0564 9
12 7 -3 20.6083 85.1089 3
7 12 3 202.624 170.1 9
7 12 3 8.76365 114.018 1
-7 -12 3 211.174 214.329 5
12 7 -3 108.218 152.277 9
7 -12 -3 17.468 125.731 4
7 12 3 9.66612 141.139 8
-7 12 -3 124.813 241.813 1
12 -7 3 105.178 122.185 4
12 -7 3 19.2993 114.903 16
-7 -12 3 90.7131 159.606 4
7 12 3 65.9555 96.5678 16
12 7 -3 105.226 146.64 16
7 -12 -3 93.4582 125.94 2
7 -12 -3 96.6603 184.07 7
12 7 -3 185.94 151.102 15
7 12 3 6.71179 107.819 15
-12 7 3 36.5471 80.5013 3
12 -7 3 286.448 143.476 7
7 12 3 178.027 89.3406 3
-12 7 3 89.9103 97.3639 14
-12 7 1 673.843 160.726 3
-12 -7 -1 505.732 205.538 12
7 12 1 455.217 149.115 3
12 7 -1 557.969 87.9541 3
12 7 -1 174.143 159.54 16
-12 7 1 527.154 151.45 6
-12 -7 -1 510.883 139.704 11
7 12 1 454.983 136.158 15
-7 12 -1 225.758 135.299 3
7 12 1 488.272 173.664 1
-7 12 -1 446.051 157.179 6
12 7 -1 537.555 141.875 10
12 -7 1 554.203 187.645 2
-7 -12 1 570.982 192.906 2
7 -12 -1 687.711 180.384 10
12 -7 1 649.509 180.932 10
-7 -12 1 1302.86 307.721 5
7 12 1 302.526 143.367 9
12 7 -1 633.955 189.139 9
7 12 1 427.085 185.383 8
7 -12 -1 656.864 198.709 4
12 -7 1 616.9 166.854 4
12 7 -1 627.256 211.522 8
-7 -12 1 738.932 211.19 4
-7 12 -1 285.971 121.916 8
-7 12 -1 470.706 171.048 1
12 -7 1 512.067 149.412 16
7 12 1 575.73 149.589 16
12 7 -1 614.319 215.317 15
7 -12 -1 634.097 177.053 7
12 -7 1 524.228 196.212 7
12 -7 1 658.026 171.546 15
-7 -12 1 521.717 144.493 14
7 -12 -1 500.324 215.806 2
-12 7 1 546.269 176.102 1
-7 -12 -1 553.126 172.109 2
-7 12 1 52.2468 145.329 3
-12 -7 1 530.781 154.148 11
7 -12 1 296.933 209.695 2
-12 7 -1 557.881 137.839 3
-7 12 1 102.042 138.912 6
-12 7 -1 518.89 182.049 6
7 12 -1 485.179 82.0736 6
12 -7 -1 539.63 210.237 10
12 7 1 488.176 148.399 10
7 -12 1 560.027 146.734 10
-7 -12 -1 602.492 215.615 5
7 -12 1 890.087 212.321 5
12 7 1 114.41 127.809 9
-12 7 -1 668.775 237.463 1
7 12 -1 239.251 138.601 9
12 -7 -1 442.509 150.111 4
12 7 1 412.373 161.68 8
-7 -12 -1 675.757 177.645 4
-7 12 1 552.473 197.811 8
7 12 -1 458.933 183.457 8
7 -12 1 739.638 235.458 4
7 12 -1 467.314 204.254 1
12 7 1 783.682 206.743 16
7 12 -1 520.381 159.056 16
12 -7 -1 590.484 196.14 7
7 12 -1 323.31 131.564 15
12 7 1 704.717 194.276 15
12 -7 -1 460.002 147.978 15
7 -12 1 198.739 178.567 7
-7 12 1 321.341 138.192 1
-7 12 1 443.21 89.8 14
-12 -7 1 733.182 196.939 14
-7 -12 -1 385.587 130.257 14
12 -7 -1 571.365 154.561 2
-12 7 -1 543.682 171.748 13
-7 12 3 242.558 126.179 3
-7 -12 -3 165.847 134.681 12
-7 12 3 145.908 177.207 6
-7 12 3 156.89 139.622 11
12 -7 -3 57.9009 128.077 10
-12 7 -3 100.747 179.384 6
-12 7 -3 180.072 174.355 3
12 7 3 58.135 135.74 10
7 12 -3 90.2928 161.506 3
7 -12 3 325 246.799 2
-7 -12 -3 25.002 161.103 5
12 7 3 229.063 159.82 9
-7 12 3 24.0477 124.617 1
-12 -7 3 13.4925 151.866 5
7 12 -3 119.591 129.246 9
3 -12 -7 141.421 140.842 4
12 -7 -3 300.239 171.209 4
3 -12 -7 75.2735 111.598 2
-7 -12 -3 37.6821 122.497 4
12 7 3 60.1657 125.389 8
-7 12 3 2.65585 93.8489 8
7 12 -3 38.1453 164.888 8
7 -12 3 131.833 172.558 4
12 7 3 71.346 121.578 16
-12 -7 3 13.2103 85.727 4
12 -7 -3 124.654 160.293 16
12 -7 -3 51.8232 110.887 2
-7 -12 -3 165.326 95.472 2
12 -7 -3 41.2574 147.179 7
7 12 -3 165.187 123.217 15
12 -7 -3 9.26644 117.929 15
12 7 3 170.383 116.218 15
7 -12 3 351.037 230.58 7
-12 -7 3 127.997 131.709 14
-7 -12 -3 88.6598 109.239 13
-7 -12 -5 31.8294 99.4116 12
-7 12 5 204.751 164.199 6
-7 12 5 164.337 126.063 1
-7 12 5 13.5803 121.289 11
12 -7 -5 87.3984 109.681 10
-7 -12 -5 164.373 150.57 5
12 7 5 9.80703 108.492 9
5 -12 -7 94.7134 95.7319 4
-7 -12 -5 62.2676 88.8718 4
5 12 7 142.954 150.558 8
12 7 5 93.9641 116.143 8
5 -12 -7 190.403 167 2
-7 12 5 1.67159 114.541 8
12 -7 -5 87.3029 105.794 2
-7 -12 -5 42.4831 115.876 2
12 7 5 105.745 123.858 16
-7 -12 -5 73.5648 75.7482 7
5 -12 -7 11.9076 132.814 7
12 -7 -5 310.424 179.997 7
12 -7 -5 83.6041 135.125 15
12 7 5 183.337 112.705 15
-7 12 5 121.065 113.546 3
-12 -8 -4 18.1383 153.559 12
-12 8 4 233.661 189.717 6
-12 8 4 106.94 128.978 11
12 8 -4 113.341 111.768 10
8 -12 -4 57.9672 88.7893 10
8 12 4 114.24 107.305 1
8 -12 -4 82.5435 96.847 5
-12 -8 -4 61.108 101.833 5
12 -8 4 14.2445 129.517 10
8 12 4 0.69008 172.799 9
12 8 -4 123.125 194.785 9
8 -12 -4 71.4549 150.313 4
-12 8 4 7.30495 65.4035 8
8 12 4 47.5905 138.172 8
-12 -8 -4 73.8431 69.3445 2
12 -8 4 118.666 119.688 16
12 -8 4 50.6591 158.241 4
8 12 4 130.34 146.425 16
8 -12 -4 30.1255 126.054 2
12 8 -4 235.158 141.881 16
8 -12 -4 212.392 173.971 7
12 8 -4 7.95856 156.157 15
8 -12 -4 42.7405 75.4019 15
-12 8 4 104.361 121.659 3
8 12 4 67.3588 124.037 15
-12 8 4 84.2567 103.692 14
12 -8 4 18.0501 180.779 7
-12 -8 -4 25.8143 114.028 13
-12 -8 -2 1009.42 256.508 13
-12 -8 -2 869.051 230.741 12
-12 8 2 571.484 195.62 6
-12 8 2 488.614 197.368 11
-8 12 -2 675.433 222.779 6
12 8 -2 804.956 140.378 3
12 8 -2 686.041 182.643 10
-8 12 -2 901.79 276.221 3
8 -12 -2 723.851 173.115 10
12 -8 2 507.629 165.522 10
-12 -8 -2 901.215 223.876 5
12 -8 2 475.031 220.488 2
8 12 2 597.546 191.206 9
12 8 -2 1095.83 294.363 9
-8 12 -2 618.078 294.326 1
8 -12 -2 613.088 212.14 4
8 12 2 761.49 216.622 8
-12 8 2 863.335 214.312 1
12 8 -2 700.06 242.55 8
-8 -12 2 666.905 198.134 4
12 -8 2 693.067 187.18 16
8 12 2 794.14 197.059 16
8 12 2 563.096 156.897 1
12 8 -2 595.164 218.394 16
8 -12 -2 781.648 219.109 7
12 8 -2 744.816 249.111 15
8 -12 -2 749.733 211.809 2
8 12 2 648.775 169.5 15
8 -12 -2 530.516 99.1768 15
12 -8 2 748.912 237.541 7
12 -8 2 834.91 174.097 15
-8 -12 2 635.995 161.796 14
-12 8 2 583.023 181.027 14
-12 8 2 734.483 176.18 3
8 12 2 865.494 191.88 3
-12 8 0 1295.06 237.429 13
8 -12 0 887.954 240.379 2
12 -8 0 1172.42 234.224 2
-12 8 0 1082.93 198.23 3
8 12 0 1070.78 193.069 3
-12 -8 0 1016.14 196.239 11
-8 12 0 1158.61 251.005 3
-12 8 0 992.301 238.031 6
-8 -12 0 810.903 210.195 2
-8 12 0 1306.51 270.941 6
12 8 0 1205.08 192.237 10
12 -8 0 1357.67 240.039 10
8 -12 0 872.658 177.173 10
-8 12 0 1696.8 324.029 1
8 12 0 1361.5 267.154 9
-12 8 0 1412.41 271.593 1
8 12 0 1053.65 262.172 8
12 8 0 1407.75 263.425 8
-8 12 0 1146.35 245.076 8
12 8 0 1597.67 272.633 16
8 12 0 986.159 215.015 16
8 12 0 924.501 205.808 1
8 12 0 1150.03 214.662 15
12 8 0 1095.01 245.702 15
12 -8 0 1298.55 267.344 7
8 -12 0 1255.92 240.543 7
12 -8 0 1087.37 180.43 15
-8 -12 0 1112.17 197.637 14
-8 -12 -2 1002.32 252.572 13
-8 12 2 611.275 172.949 3
12 8 2 620.729 123.755 1
-8 -12 -2 992.895 258.206 12
-12 8 -2 459.984 262.834 1
-12 -8 2 656.507 173.665 11
-8 12 2 571.407 188.497 6
-8 12 2 519.189 183.765 11
8 12 -2 507.15 115.755 10
-12 8 -2 761.681 237.785 6
-12 8 -2 779.46 222.615 3
8 12 -2 809.579 228.214 3
8 -12 2 421.492 208.864 2
12 -8 -2 660.142 218.592 10
12 8 2 653.712 166.722 10
8 -12 2 592.604 169.058 10
12 8 2 716.567 223.125 9
-12 -8 2 545.749 179.395 5
8 -12 2 1041.05 248.558 5
8 12 -2 938.948 274.135 9
-8 -12 -2 797.441 185.297 4
12 8 2 660.806 188.426 8
-8 12 2 544.729 158.97 8
-8 12 2 785.44 226.32 1
8 12 -2 912.423 277.065 8
-12 -8 2 695.552 135.304 4
12 8 2 790.089 224.122 16
12 -8 -2 590.329 186.431 16
8 12 -2 733.728 219.181 16
12 -8 -2 1083.58 263.343 7
8 12 -2 767.622 229.293 15
12 -8 -2 710.285 192.364 15
12 8 2 540.589 176.228 15
12 -8 -2 765.957 184.706 2
8 -12 2 743.942 227.852 7
-8 -12 -2 914.569 188.638 2
-12 -8 2 533.455 180.629 14
-12 8 -2 637.422 233.652 13
-8 12 2 763.126 135.017 13
-8 12 4 20.9282 145.538 6
-8 12 4 93.6978 124.01 11
12 -8 -4 59.8345 163.5 10
-12 8 -4 145.811 237.149 6
-8 12 4 119.504 146.279 1
-8 -12 -4 88.9893 93.6236 5
-12 8 -4 610.947 326.806 3
12 8 4 260.402 183.056 9
8 12 -4 83.1852 170.585 9
12 -8 -4 102.451 123.435 4
12 8 4 5.19564 112.57 8
-8 12 4 153.373 130.757 8
12 8 4 27.7704 137.365 16
12 -8 -4 70.9262 95.858 2
-8 -12 -4 2.19992 86.265 2
12 -8 -4 120.549 163.223 16
12 -8 -4 56.0694 117.301 7
12 -8 -4 122.524 115.035 15
12 8 4 176.849 142.856 15
-12 -8 4 219.487 152.571 14
-8 12 4 106.995 108.279 3
12 8 4 7.17665 63.1262 1
-8 -12 -4 43.779 139.903 13
-12 -9 -3 454.932 216.379 13
-12 -9 -3 144.348 151.449 12
-12 9 3 444.871 176.521 6
-12 9 3 662.43 216.499 11
-9 12 -3 425.339 258.092 1
12 9 -3 404.211 144.341 10
-9 12 -3 282.335 213.411 6
9 -12 -3 140.448 108.411 10
9 -12 -3 401.364 116.643 5
12 -9 3 164.997 135.762 10
12 9 -3 155.652 101.128 3
-12 -9 -3 189.632 129.562 5
9 12 3 311.008 178.049 9
-12 9 3 340.312 142.548 1
-9 -12 3 96.809 162.4 5
12 9 -3 324.29 183.277 9
9 12 3 274.203 134.272 1
9 -12 -3 161.938 146.015 4
9 12 3 369.378 194.78 8
-12 9 3 269.511 91.6483 8
12 9 -3 84.0342 194.856 8
12 -9 3 394.642 165.174 4
-9 -12 3 195.689 134.952 4
12 -9 3 65.4882 99.7907 16
9 12 3 261.165 153.288 16
12 9 -3 175.65 140.995 16
9 -12 -3 128.681 125.211 2
9 -12 -3 284.106 194.059 7
-12 -9 -3 107.658 68.8761 2
12 9 -3 96.388 140.409 15
9 -12 -3 292.483 81.6111 15
9 12 3 256.202 125.622 15
9 12 3 236.608 112.341 3
12 -9 3 293.248 173.525 7
-12 9 3 191.962 119.419 3
-12 9 3 77.7189 115.521 14
-12 9 1 734.532 173.521 13
9 12 1 696.393 155.097 3
-12 9 1 776.328 161.375 3
-12 -9 -1 675.481 203.817 12
-12 9 1 637.375 176.689 1
12 9 -1 804.058 128.335 3
-12 -9 -1 668.126 138.871 11
-12 9 1 865.196 217.036 6
-9 12 -1 582.227 204.175 3
-9 12 -1 836.29 249.158 6
-12 -9 -1 1051.46 193.274 2
12 -9 1 474.542 193.322 2
12 9 -1 619.434 139.595 10
9 -12 -1 685.166 145.971 10
12 -9 1 911.425 233.442 10
-9 -12 1 153.114 154.541 2
9 -12 -1 682.65 154.053 5
-12 -9 -1 818.982 201.03 5
9 12 1 550.76 184.622 1
9 12 1 368.083 180.125 9
12 9 -1 508.511 168.5 9
9 12 1 700.812 208.55 8
9 -12 -1 633.554 194.37 4
12 -9 1 645.828 190.616 4
12 9 -1 579.781 196.811 8
9 12 1 880.533 198.968 16
12 9 -1 393.17 157.035 16
12 9 -1 656.765 181.31 15
-9 12 -1 685.823 230.51 1
9 -12 -1 824.152 223.249 7
9 12 1 733.606 167.385 15
12 -9 1 316.57 151.954 7
12 -9 1 729.655 174.933 15
9 -12 -1 628.363 98.5472 15
-9 -12 1 813.897 186.264 14
-12 9 1 706.84 165.827 14
9 -12 -1 399.328 171.666 2
-9 -12 -1 506.651 162.887 2
-9 12 1 1014.24 227.388 3
-12 -9 1 668.8 144.698 11
12 9 1 649.899 142.338 1
9 12 -1 231.202 157.991 15
-12 9 -1 596.888 221.915 1
-12 9 -1 629.377 167.027 3
-9 12 1 642.111 185.163 6
9 12 -1 634.802 169.839 3
9 -12 1 577.095 243.509 2
-12 9 -1 559.852 207.874 6
9 12 -1 653.14 109.696 10
12 -9 -1 453.569 159.064 10
12 9 1 828.818 177.899 10
12 -9 -1 704.975 108.925 5
9 -12 1 960.402 198.038 10
9 12 -1 536.429 161.604 16
-9 -12 -1 464.462 187.61 5
-12 -9 1 480.841 201.923 5
9 -12 1 810.828 188.251 5
12 9 1 446.571 197.208 9
9 12 -1 795.146 220.937 9
9 12 -1 460.303 185.627 1
12 9 1 683.936 172.029 8
-9 12 1 484.558 145.181 8
9 12 -1 914.777 256.869 8
9 -12 1 749.964 222.099 4
12 9 1 1083.63 247.472 16
12 -9 -1 762.342 171.734 16
12 -9 -1 625.241 175.321 7
12 9 1 373.813 171.523 15
12 -9 -1 601.489 150.154 15
9 -12 1 754.468 218.14 7
12 9 1 638.536 125.978 3
-9 12 1 640.5 117.144 14
-12 -9 1 745.867 213.131 14
-9 -12 -1 430.675 143.056 14
-9 12 1 1134.5 178.564 13
-12 9 -1 604.653 170.731 13
12 -9 -1 879.018 201.968 2
-9 12 1 441.365 157.547 1
-9 -12 -3 124.867 143.79 12
-9 12 3 248.507 168.682 6
-9 12 3 254.033 155.013 11
-9 -12 -3 218.555 66.5834 11
9 12 -3 184.459 73.6652 10
-12 9 -3 278.607 180.231 6
12 -9 -3 404.894 166.49 10
-12 9 -3 14.7685 164.442 3
9 12 -3 102.808 118.732 3
12 9 3 274.417 116.861 10
9 -12 3 109.901 183.288 2
-9 -12 -3 186.938 150.337 5
12 9 3 217.593 116.659 9
-12 -9 3 340.836 207.649 5
-9 12 3 48.563 119.737 1
9 12 -3 145.437 180.001 9
12 9 3 352.053 114.065 1
-9 -12 -3 360.794 126.617 4
12 -9 -3 294.334 143.42 4
12 9 3 189.963 136.855 8
-9 12 3 312.175 146.817 8
9 12 -3 1.13007 175.273 8
9 -12 3 542.953 247.255 4
9 -12 3 143.529 90.992 16
12 9 3 354.203 173.039 16
12 -9 -3 426.719 185.341 16
12 -9 -3 109.217 97.8192 2
12 -9 -3 281.683 151.558 7
9 12 -3 76.9037 153.74 15
-9 -12 -3 200.037 102.227 2
12 -9 -3 175.064 108.111 15
12 9 3 98.058 128.77 15
9 -12 3 76.5493 117.511 7
-12 -9 3 532.863 201.135 14
-9 12 3 608.498 214.632 3
-9 -12 -3 257.408 156.271 13
1 -13 0 59.8302 116.192 2
-1 -13 0 148.407 136.903 2
-13 0 -1 11.8991 95.0353 12
-13 1 0 62.2924 86.3089 12
-13 -1 0 87.3558 101.386 12
-13 0 1 15.3862 68.213 6
0 13 1 59.8021 108.358 3
-13 -1 0 103.19 86.5008 6
0 -13 1 204.85 168.131 2
-13 1 0 67.0311 102.145 6
-13 0 1 279.97 121.041 11
0 13 1 178.444 116.705 6
1 13 0 220.583 170.788 3
-1 13 0 24.8952 121.585 3
-13 0 -1 54.8697 98.8227 6
1 13 0 210.493 114.095 6
-1 13 0 82.048 142.485 6
0 13 -1 14.4067 127.794 3
0 13 -1 65.1334 121.551 6
13 0 -1 46.8309 147.083 10
13 1 0 88.254 116.529 10
13 -1 0 79.0446 123.582 10
-1 13 0 14.1685 140.257 1
13 0 1 20.0346 86.15 10
1 13 0 108.477 124.755 1
-13 -1 0 23.9995 63.0595 5
0 -13 -1 63.4031 115.84 5
1 -13 0 183.764 191.916 5
-1 -13 0 36.7253 123.901 5
13 0 1 34.0833 102.494 9
0 -13 1 17.662 168.327 5
13 1 0 113.434 89.3452 9
13 -1 0 89.7212 102.109 9
0 13 1 8.96445 92.6126 9
13 0 -1 80.9149 122.14 9
1 13 0 19.2683 106.298 9
-1 13 0 42.2607 91.3349 9
0 13 -1 31.3135 138.564 9
0 13 1 112.705 159.012 8
0 -13 -1 26.647 98.6269 4
1 13 0 167.637 128.617 8
-1 13 0 100.233 141.052 8
-1 -13 0 15.35 146.168 4
1 -13 0 5.77543 153.021 4
0 13 -1 1.35495 144.6 8
0 -13 1 182.237 200.5 4
0 13 -1 108.19 167.02 1
13 0 1 40.1467 86.5204 16
13 -1 0 312.762 174.582 16
13 1 0 257.269 162.804 16
13 0 -1 186.878 148.829 16
13 0 -1 28.139 108.03 7
0 13 1 158.494 127.39 1
13 0 -1 51.8239 133.298 15
13 -1 0 101.106 130.405 7
13 1 0 41.9665 127.482 7
13 1 0 61.9931 122.931 15
13 -1 0 132.871 115.486 15
0 -13 -1 109.535 118.909 7
13 0 1 76.4929 104.9 15
1 -13 0 6.57687 108.894 7
13 0 1 46.2367 118.379 7
-1 -13 0 82.5209 106.472 7
0 -13 1 17.05 94.2856 7
0 -13 -1 128.993 128.268 2
-1 13 2 3099.16 344.891 3
-1 13 2 2555.48 206.806 11
2 13 1 2246.1 284.11 3
-13 2 1 2381 259.461 6
-13 -1 2 2020.54 295.741 11
-13 2 1 2520.41 310.568 11
-2 -13 1 2028.94 298.61 2
2 -13 -1 2571.13 201.811 10
-13 1 -2 2478.14 257.022 6
-2 13 -1 2421.93 318.173 3
-2 13 -1 1851.03 251.944 6
1 -13 2 2194.83 345.017 2
13 -1 -2 2243.16 272.522 10
13 2 -1 2446.06 290.577 10
1 13 -2 1384.93 272.295 6
1 13 -2 1858.05 281.045 3
-13 -2 -1 2955.88 265.654 5
13 -2 1 2437.17 303.429 10
13 1 2 2402.08 296.099 10
13 -2 1 2642.46 259.758 9
-1 13 2 2713.3 264.442 9
13 1 2 2500.16 281.469 9
-1 -13 -2 2529.77 305.177 2
2 13 1 2570.58 292.432 9
13 -2 1 2506.31 184.924 4
13 1 2 2438.76 197.229 8
-1 13 2 2405.07 314.448 1
1 13 -2 1897.27 311.443 1
-1 13 2 2717.11 327.727 8
-2 13 -1 1675.02 300.244 1
2 13 1 2160.02 291.136 8
-2 13 -1 2272.59 317.574 8
1 13 -2 1570.95 291.792 8
13 2 -1 2892.41 299.044 8
13 2 -1 2962.31 252.529 7
-1 -13 -2 2539.27 261.832 7
13 1 2 2289.29 307.576 16
13 -2 1 2018.5 274.748 16
-13 2 1 1832.85 177.908 3
13 1 2 2629.87 315.425 15
13 -1 -2 2496.72 248.599 7
13 -1 -2 1670.4 239.804 15
13 2 -1 2389.49 298.573 15
2 -13 -1 2591.26 269.214 7
13 -2 1 2153.9 278.698 15
13 -2 1 2470.04 274.698 7
2 13 1 2055.38 278.504 1
13 1 2 1907.82 283.248 7
2 -13 -1 2684.03 321.736 2
1 -13 2 2631.08 318.981 7
-2 -13 1 2353.21 287.306 7
-13 -1 2 2674.39 271.91 6
-13 -1 2 2371.65 318.226 14
-1 13 2 2807.08 309.36 6
-13 2 -1 2827.74 269.555 12
1 13 2 2410.3 299.628 3
-2 13 1 2489.2 215.776 11
-2 13 1 2672.71 328.196 3
2 -13 1 2329.86 345.934 2
-13 1 2 2297.68 301.583 11
-13 -2 1 2537.03 306.945 11
-2 13 1 2771.74 318.575 6
-13 2 -1 2413.81 260.69 6
2 13 -1 2171.06 303.43 3
2 13 -1 2049.45 249.342 6
13 1 -2 2339.19 282.379 10
-1 13 -2 1992.46 278.305 6
13 -2 -1 2675.71 311.258 10
-1 13 -2 1673.28 297.086 3
13 2 1 2894.72 315.753 10
-13 -2 1 2486.76 217.373 5
13 -1 2 2289.59 311.524 10
-1 13 -2 1699.85 290.87 1
13 -1 2 2453.81 267.777 9
13 2 1 2664.58 300.695 9
1 13 2 2641.25 282.318 9
-2 13 1 2518.06 257.07 9
2 13 -1 2780.87 332.346 9
1 13 2 2628.32 327.615 1
1 13 2 2254.63 300.155 8
-2 13 1 1743.87 276.327 8
2 13 -1 1776 334.348 8
-1 13 -2 1718.2 325.638 8
-2 -13 -1 2770.27 257.505 7
13 -1 2 2448.5 321.251 16
-13 2 -1 2721.46 182.738 3
2 13 -1 2102.69 199.613 15
13 1 -2 2859.82 247.575 7
2 13 -1 2356.12 331.357 1
-2 13 1 2379.12 330.896 1
13 -2 -1 2901.69 287.6 7
1 -13 -2 2756.41 273.728 7
13 1 -2 2156.43 284.675 15
1 -13 -2 2162.62 281.582 2
13 -2 -1 2161.83 278.216 15
13 2 1 2441.39 304.843 15
13 -1 2 2192.89 282.341 15
13 2 1 2611.19 268.2 7
2 -13 1 2640.15 308.366 7
13 -1 2 2806.58 338.465 7
-2 -13 -1 2425.59 183.471 14
-13 -2 1 2759.73 250.416 6
-13 1 2 2444.02 269.042 6
1 13 2 2839.98 276.587 6
-13 1 2 2233.14 304.819 14
-13 -1 -2 2368.21 226.973 6
-2 13 3 1040.2 231.205 3
3 13 2 849.745 198.588 3
-13 -3 -2 388.367 152.772 12
3 13 2 1041.37 165.949 6
-13 3 2 922.493 178.269 6
-2 13 3 812.665 207.874 6
-13 -2 3 1056.97 220.151 11
-13 3 2 789.865 203.654 11
-13 -3 -2 1149.11 145.611 6
-3 13 -2 1001.29 310.086 1
13 -2 -3 963.223 224.638 10
13 3 -2 846.136 188.41 10
-13 2 -3 807.303 204.6 6
-3 13 -2 951.831 252.142 6
-3 13 -2 997.769 273.057 3
3 -13 -2 1038.05 147.029 10
-13 -3 -2 651.843 126.181 5
13 -3 2 983.21 212.692 10
13 2 3 1046.61 209.102 10
2 13 -3 301.193 248.435 3
2 -13 3 782.425 270.095 2
-2 13 3 1031.25 233.281 1
13 2 3 776.888 181.794 9
13 -3 2 860.92 150.328 9
-2 13 3 907.918 162.894 9
3 13 2 1101.21 215.715 9
-13 3 2 863.341 139.458 1
-3 -13 2 983.781 261.08 5
13 2 3 685.298 135.933 8
-2 13 3 840.859 206.326 8
3 13 2 1115.55 247.457 8
3 13 2 865.58 182.791 1
13 -2 -3 1132.63 128.701 2
13 -3 2 1322.01 166.516 4
2 13 -3 1434.85 374.931 8
13 2 3 731.073 193.574 16
13 -3 2 1025.94 228.98 16
3 13 2 1078.49 153.072 16
13 3 -2 792.819 218.759 16
13 -2 -3 869.433 220.647 16
13 -2 -3 971.846 165.389 7
-2 -13 -3 896.282 178.36 2
13 3 -2 1110.32 162.535 7
2 13 -3 937.796 302.764 1
-2 -13 -3 1161.47 177.334 7
3 -13 -2 1300.49 224.307 7
13 -2 -3 701.641 172.081 15
13 3 -2 1167.65 237.255 15
3 -13 -2 869.409 202.536 2
13 2 3 611.833 166.24 15
13 -3 2 886.938 187.765 15
3 13 2 942.136 153.371 15
13 -3 2 940.415 208.399 7
-13 -2 3 713.346 203.451 14
-13 3 2 1074.71 230.549 14
-13 0 -3 6264.81 447.499 12
-13 3 0 7282.68 433.707 12
-13 0 3 6455.42 508.762 11
-13 -3 0 6787.98 474.377 11
13 0 -3 6582.66 487.348 10
13 3 0 6769.75 475.88 10
13 -3 0 7521.57 512.078 10
13 0 3 6668.23 524.424 10
-13 -3 0 7332.95 406.213 5
0 13 -3 4809.71 527.464 3
13 0 3 7330.67 473.695 9
0 13 3 6878.78 449.512 9
-3 13 0 5615.94 382.162 9
0 -13 -3 6742.96 469.74 2
3 -13 0 5074.91 484.622 2
-3 -13 0 5512.82 466.328 2
13 -3 0 6668.34 359.495 4
0 13 3 7752.97 558.334 1
3 -13 0 7658.1 631.878 4
13 -3 0 6786.64 422.064 2
13 0 3 6481.35 328.383 8
0 13 3 7384.92 557.659 8
-3 13 0 5490.62 488.208 8
13 3 0 7141.1 455.152 8
3 13 0 6833.7 512.123 1
0 13 -3 5464.51 548.099 8
13 3 0 6467.2 514.629 16
13 0 -3 6838.76 431.324 7
0 -13 -3 6569.47 426.36 7
13 -3 0 8033.33 522.18 7
-3 -13 0 6849.55 453.169 7
-13 3 0 7064.22 331.03 3
0 13 3 7008.02 519.714 3
13 0 -3 6541.96 503.035 15
3 13 0 6358.73 344.595 15
13 3 0 6351.22 506.058 15
13 -3 0 7114.68 482.105 15
3 13 0 6742.09 503.318 3
-3 13 0 5913.24 497.706 3
13 0 3 6839.7 524.18 15
0 13 -3 4430.57 566.42 1
-13 0 3 7543.49 563.116 14
-13 0 3 7256.14 494.806 6
13 3 0 7785.63 415.886 7
-13 -3 0 6833.48 369.094 6
3 -13 0 6946.68 504.163 7
0 13 3 6449.62 454.875 6
-13 3 0 6782.03 451.014 6
3 13 0 6976.9 412.656 6
-3 13 0 6866.44 503.796 6
-13 0 -3 6537.11 439.481 6
-13 -2 -3 1025.15 245.145 13
2 13 3 1232.01 219.331 3
-13 2 3 1139.03 198.499 6
2 13 3 1149.36 188.847 6
-3 13 2 759.989 135.997 11
-13 -3 2 901.616 182.693 11
-13 2 3 1163.18 229.239 11
-3 13 2 708.489 188.454 6
-13 3 -2 664.8 173.624 6
3 -13 2 839.794 240.327 2
-13 3 -2 1017.28 148.348 3
13 2 -3 600.051 153.142 10
-13 -2 -3 1027.77 165.376 6
13 -3 -2 698.301 172.563 10
2 -13 -3 1088.98 125.028 10
3 13 -2 796.453 186.072 6
3 13 -2 1102.81 286.301 3
13 3 2 1440.98 240.313 10
13 -2 3 795.549 184.841 10
-2 13 -3 1272.5 330.961 3
2 -13 -3 718.589 173.37 5
-2 -13 3 626.644 247.333 2
13 -2 3 834.988 171.762 9
2 13 3 941.015 227.755 1
13 3 2 1012.09 221.236 9
2 13 3 1179.18 205.942 9
-3 13 2 898.217 134.452 9
3 -13 2 312.094 178.743 5
3 13 -2 1289.39 275.731 9
-2 13 -3 1409.67 394.253 1
-3 13 2 996.393 231.321 1
13 3 2 868.305 142.01 8
2 13 3 951.153 227.563 8
2 -13 -3 959.016 242.054 4
-3 -13 -2 628.758 196.357 4
-3 13 2 802.78 191.045 8
3 13 -2 1346.96 305.664 8
-2 13 -3 569.771 236.248 8
3 -13 2 1178.11 294.324 4
13 -2 3 899.554 220.552 16
13 -2 3 903.991 134.789 4
13 3 2 918.46 200.323 16
13 -3 -2 487.782 154.643 16
13 2 -3 766.943 224.272 16
13 2 -3 1314.91 179.388 7
2 -13 -3 590.782 172.64 2
3 13 -2 828.013 169.902 15
13 -3 -2 1189.15 213.002 7
2 -13 -3 852.61 157.512 7
3 13 -2 731.575 247.342 1
13 -3 -2 913.993 142.917 2
13 -3 -2 821.526 186.17 15
-3 -13 -2 1024.03 154.594 7
-3 -13 -2 786.752 171.248 2
13 3 2 469.87 150.085 15
13 -2 3 985.839 211.734 15
-13 2 3 894.183 127.528 1
3 -13 2 895.909 218.366 7
13 -2 3 793.89 186.858 7
-13 2 3 875.982 211.061 14
-13 -3 2 919.17 223.14 14
-3 -13 -2 928.807 130.763 14
-13 -4 -3 117.489 155.576 13
4 13 3 35.6038 81.6912 6
-3 -13 -4 152.817 129.467 12
-13 -4 -3 7.23506 111.16 12
-3 13 4 115.904 121.759 6
-13 4 3 63.2262 105.708 6
-13 -3 4 10.9587 84.7915 11
-13 4 3 36.9355 121.409 11
13 4 -3 109.676 131.958 10
13 -3 -4 191.663 155.246 10
-3 13 4 160.104 165.39 1
4 -13 -3 173.829 83.3267 10
-4 13 -3 113.845 213.766 6
-4 13 -3 162.251 261.469 1
-4 13 -3 373.224 263.21 3
13 -4 3 15.6606 109.951 10
13 3 4 62.4995 102.466 10
-3 -13 -4 198.566 209.161 5
4 -13 -3 463.709 194.124 5
13 -4 3 98.848 92.2848 9
13 3 4 126.632 125.5 9
-3 13 4 124.225 100.544 9
4 13 3 99.2272 140.43 1
4 13 3 89.7364 131.011 9
13 4 -3 12.4328 149.991 9
13 3 4 16.2391 91.3595 8
-3 -13 -4 4.92456 137.164 4
13 -3 -4 141.872 106.332 2
-3 13 4 124.392 137.856 8
4 -13 -3 244.34 153.05 4
4 13 3 54.1321 116.219 8
13 -4 3 342.561 188.797 16
13 3 4 255.073 185.044 16
-3 -13 -4 242.466 136.212 2
4 13 3 5.60972 83.8224 16
13 4 -3 143.197 90.6246 7
13 4 -3 21.5962 161.452 16
13 -3 -4 260.637 207.286 16
13 -3 -4 206.265 152.302 7
-3 -13 -4 244.282 118.339 7
4 -13 -3 115.158 163.445 2
4 -13 -3 189.158 147.231 7
13 -3 -4 166.483 124.137 15
13 4 -3 150.715 150.282 15
13 3 4 141.124 142.542 15
13 -4 3 178.156 146.092 15
4 13 3 47.0089 114.855 15
13 -4 3 89.2613 147.301 7
-13 -3 4 21.1546 136.712 14
-13 4 3 76.7213 99.0931 14
-3 13 4 192.742 137.318 3
-13 3 -4 119.579 177.738 13
4 13 3 56.2072 118.95 3
-1 -13 -4 709.459 175.019 12
-1 13 4 650.008 197.555 6
-13 4 1 551.581 129.037 12
-13 -4 -1 550.72 181.142 12
4 13 1 728.114 194.709 3
-13 -1 4 673.708 180.214 11
-13 4 1 721.998 142.695 1
-13 -4 -1 713.353 119.757 6
4 13 1 841.669 163.32 6
-13 4 1 441.104 152.18 6
-13 4 1 510.95 160.253 11
-4 -13 1 768.138 217.767 2
-4 13 -1 964.705 266.678 3
-1 13 4 820.839 232.798 1
-4 13 -1 351.098 172.838 6
13 -1 -4 908.816 219.186 10
13 4 -1 1455.74 257.689 10
13 -4 1 797.18 190.383 10
4 -13 -1 419.405 115.345 10
13 1 4 585.363 204.194 10
-13 -4 -1 496.337 141.811 5
-1 -13 -4 698.742 180.235 5
13 1 4 594.552 173.785 9
-1 13 4 545.633 137.135 9
4 -13 -1 559.816 150.659 5
13 -4 1 648.198 141.324 9
-4 -13 1 1059.67 284.042 5
4 13 1 746.154 228.053 9
13 4 -1 1020.16 284.745 9
13 -1 -4 376.263 122.698 2
13 1 4 557.785 134.171 8
-1 -13 -4 1036.02 273.41 4
-1 13 4 1072.63 260.383 8
-4 13 -1 547.772 277.695 1
4 13 1 966.008 254.067 8
4 -13 -1 589.003 216.53 4
13 -4 1 733.159 134.44 4
-4 13 -1 824.584 246.307 8
13 4 -1 683.8 225.905 8
-4 -13 1 458.11 154.958 4
13 1 4 640.575 202.806 16
-1 -13 -4 634.786 188.029 2
13 -4 1 656.588 183.387 16
13 4 -1 1995.67 359.65 16
13 -1 -4 1235.75 225.948 7
13 -1 -4 846.834 256.85 16
-1 -13 -4 888.953 181.553 7
13 -1 -4 838.748 215.315 15
13 4 -1 1063.01 177.92 7
4 -13 -1 469.765 154.489 7
4 13 1 849.075 148.511 15
13 -4 1 773.231 191.426 7
13 -4 1 955.992 213.149 15
13 1 4 738.271 206.237 15
-13 4 1 480.069 118.802 3
4 -13 -1 583.094 196.441 2
-13 -1 4 944.075 241.783 14
-1 13 4 1303.99 267.082 3
4 13 1 385.902 170 1
-13 1 -4 741.919 240.692 13
4 13 -1 1077.76 271.733 1
-13 4 -1 903.652 232.119 13
13 -4 -1 845.348 171.125 2
-13 -1 -4 591.715 187.578 12
1 -13 -4 777.315 156.532 12
-13 4 -1 724.558 147.629 12
1 13 4 807.347 192.08 6
-13 1 4 803.911 220.993 11
-4 13 1 807.875 234.369 3
4 -13 1 235.104 136.512 2
-13 4 -1 548.478 133.888 3
-13 -4 1 900.814 209.449 11
-4 13 1 699.678 192.609 6
-13 4 -1 801.512 203.711 6
1 13 4 673.084 211.332 1
4 13 -1 686.989 217.769 3
13 1 -4 955.735 207.465 10
4 13 -1 801.481 156.804 6
1 -13 -4 826.971 128.085 10
13 4 1 823.838 192.993 10
13 -1 4 712.334 202.544 10
1 -13 -4 859.023 200.524 5
13 -1 4 802.123 186.446 9
1 13 4 749.467 169.998 9
-4 -13 -1 834.44 240.217 5
-13 -4 1 888.117 168.53 5
13 4 1 725.104 206.771 9
4 -13 1 1046.63 264.394 5
4 13 -1 973.159 251.973 9
-4 13 1 814.138 160.578 9
1 -13 -4 1063.44 272.819 4
1 13 4 585.473 192.06 8
13 4 1 545.761 141.866 8
-4 13 1 737.511 208.47 8
4 13 -1 1045.21 257.776 8
4 -13 1 475.799 180.01 4
13 -1 4 623.688 199.334 16
1 -13 -4 598.157 174.701 2
13 4 1 508.202 213.534 16
13 1 -4 898.918 197.645 7
13 1 -4 1037.76 250.901 16
1 -13 -4 916.437 203.597 7
-13 4 -1 796.122 215.257 1
13 1 -4 1087.88 256.004 15
4 13 -1 496.882 143.833 15
13 -4 -1 816.345 212.37 15
13 4 1 507.507 181.165 15
-4 13 1 612.416 208.173 1
-4 -13 -1 642.718 142.156 7
4 -13 1 768.884 207.637 7
13 -1 4 799.242 214.955 15
13 4 1 722.162 156.222 7
13 -4 -1 683.867 215.217 16
-13 1 4 1136.43 262.098 14
1 13 4 857.499 224.733 3
-4 -13 -1 472.967 158.53 2
-13 -4 1 904.823 231.849 14
-13 -1 -4 751.282 244.755 13
-4 13 3 46.9098 146.394 3
-13 3 4 29.6742 117.055 6
-13 -3 -4 91.3961 131.659 12
-4 -13 -3 216.843 117.93 12
-13 -4 3 80.4218 119.088 11
-4 13 3 7.98792 115.082 11
-13 3 4 108.474 147.7 11
13 3 -4 326.603 210.993 10
3 13 4 99.4991 110.179 1
3 -13 -4 102.565 103.536 10
13 -4 -3 109.318 170.009 10
13 4 3 164.222 150.714 10
4 13 -3 21.274 156.392 3
4 -13 3 29.0212 190.192 2
13 -3 4 292.529 171.201 10
-13 4 -3 51.845 129.621 3
3 -13 -4 130.051 153.397 5
13 -3 4 22.1838 93.2651 9
-4 -13 -3 85.0912 128.707 5
13 4 3 197.172 132.912 9
3 13 4 20.1946 129.135 9
-4 13 3 252.358 182.026 1
-13 -4 3 11.2544 124.863 5
13 3 -4 268.15 184.684 9
4 13 -3 200.929 163.344 9
3 -13 -4 89.5114 154.799 4
-4 -13 -3 62.1489 136.907 4
3 13 4 37.1623 162.032 8
4 13 -3 432.304 277.207 8
-13 3 4 27.935 98.0885 1
13 -3 4 254.805 160.769 16
4 -13 3 335.907 249.278 4
13 -4 -3 38.3834 91.4291 2
3 13 4 90.115 93.0946 16
13 4 3 352.678 198.378 16
3 -13 -4 215.753 176.226 2
13 -4 -3 211.152 189.99 16
13 3 -4 75.1387 146.903 16
3 -13 -4 169.349 172.919 7
-4 -13 -3 222.591 134.119 2
13 3 -4 14.8803 220.507 15
-4 -13 -3 16.6404 69.6172 7
13 -4 -3 6.01825 135.924 15
13 3 -4 197.75 111.605 7
13 4 3 243.09 151.645 15
13 -3 4 53.0492 105.7 15
-13 3 4 37.9637 118.271 14
4 -13 3 140.666 108.916 7
3 13 4 39.3102 104.28 3
-13 -4 3 157.152 153.099 14
-4 -13 -3 67.6532 100.247 13
-13 4 -3 389.4 219.302 13
-13 -3 -4 132.917 141.344 13
-4 -13 -5 27.5331 86.3446 12
-13 -5 -4 276.741 125.002 12
-4 13 5 230.38 163.236 6
-13 5 4 349.724 165.955 6
-4 13 5 134.052 166.172 1
-13 5 4 408.608 159.828 11
13 5 -4 106.574 140.933 10
13 -4 -5 275.541 153.854 10
5 -13 -4 301.746 121.207 10
5 13 4 328.413 115.152 1
13 -5 4 236.678 161.121 10
5 -13 -4 299.999 147.071 5
-4 -13 -5 524.364 202.09 5
13 4 5 138.128 154.001 9
-4 13 5 169.733 80.4152 9
5 13 4 74.735 137.797 9
13 5 -4 475.82 217.048 9
-4 -13 -5 316.758 189.927 4
13 -4 -5 86.3859 92.4904 2
13 4 5 39.0117 81.6523 8
-4 13 5 239.952 160.112 8
5 -13 -4 380.363 178.704 4
5 13 4 182.421 185.374 8
-4 -13 -5 391.528 164.022 2
13 -5 4 47.5567 123.118 16
13 4 5 115.461 114.333 16
5 13 4 270.427 114.04 16
13 -5 4 247.506 167.977 4
5 -13 -4 363.891 169.218 2
13 -4 -5 320.501 156.576 7
-4 -13 -5 40.9314 86.9648 7
13 5 -4 424.234 207.625 16
13 -4 -5 165.835 160.951 16
5 -13 -4 132.361 117.746 7
13 -4 -5 101.033 118.541 15
13 5 -4 54.1064 177.941 15
13 4 5 47.7052 127.546 15
-13 -4 5 145.223 131.628 14
-4 13 5 309.015 192.071 3
-13 5 4 201.732 138.263 14
-13 5 4 178.918 120.801 1
-13 -5 -4 377.656 204.758 13
-2 13 5 1244.21 225.432 6
5 13 2 1140.55 204.171 3
5 13 2 1150.76 158.261 6
-2 13 5 1037.12 235.852 1
-13 5 2 810.307 171.037 6
-13 5 2 751.204 179.555 11
-13 -5 -2 1136.68 114.758 6
-5 13 -2 785.9 224.964 1
13 -2 -5 1130.47 253.926 10
-5 13 -2 724.336 193.926 6
13 5 -2 1090.4 185.313 10
-5 13 -2 1013.27 244.927 3
5 -13 -2 992.989 153.699 10
13 -5 2 1241.98 256.114 10
13 2 5 1384.17 256.339 9
-2 13 5 880.474 174.121 9
13 -5 2 1104.58 163.914 9
13 5 -2 980.706 194.013 9
-13 5 2 1265.11 194.609 1
-2 13 5 633.196 167.132 8
5 13 2 986.971 229.597 8
-2 -13 -5 1154.59 222.875 2
13 -5 2 1372.74 197.552 4
-5 13 -2 626.248 193.371 8
13 5 -2 951.147 219.773 8
5 13 2 1245.24 221.304 1
13 2 5 996.762 239.948 16
13 -2 -5 1154.26 208.132 7
5 13 2 1039.78 156.551 16
13 5 -2 996.655 211.314 16
-2 -13 -5 1554.97 210.784 7
13 5 -2 1183.82 128.388 7
13 -2 -5 1083.99 235.857 15
5 -13 -2 1047.9 190.925 7
13 5 -2 699.678 139.293 15
5 -13 -2 981.407 232.296 2
5 13 2 814.125 146.578 15
-13 5 2 999.048 166.404 3
13 -5 2 1301.01 219.84 15
13 -5 2 940.004 219.348 7
13 2 5 974.992 214.565 15
-2 13 5 794.958 175.046 3
-13 5 2 1036.98 211.754 14
-13 -5 0 1016.37 148.603 6
0 13 5 696.063 187.171 6
-13 5 0 886.624 209.363 13
0 13 5 1001.16 242.68 1
-13 5 0 1021.74 175.157 12
5 -13 0 582.28 191.262 2
-13 5 0 807.355 140.393 3
-5 -13 0 714.15 197.638 2
-13 0 5 1465.7 297.629 11
5 13 0 521.356 159.139 3
-13 -5 0 661.222 187.466 11
-5 13 0 936.571 235.104 3
-13 5 0 843.922 181.27 6
-5 13 0 510.244 160.894 6
13 -5 0 660.077 181.769 2
0 -13 -5 1007.73 142.604 10
13 0 -5 758.095 223.616 10
13 5 0 740.059 182.975 10
13 -5 0 875.596 234.63 10
-5 13 0 411.111 135.158 1
5 -13 0 725.462 153.215 10
0 13 5 1082.9 222.771 9
-13 -5 0 791.11 184.886 5
-5 -13 0 940.39 281.422 5
13 5 0 923.61 221.85 9
13 -5 0 1044.55 180.688 9
5 13 0 599.216 202.51 9
5 13 0 783.329 184.548 1
0 -13 -5 980.65 261.058 4
0 13 5 910.399 235.705 8
13 -5 0 1027.63 178.785 4
5 13 0 439.717 212.124 8
13 5 0 926.403 203.343 8
-5 -13 0 720.932 198.172 4
-5 13 0 338.333 176.411 8
0 -13 -5 991.426 240.027 2
13 0 5 1050.77 252.561 16
13 0 -5 1106.89 232.014 7
13 -5 0 890.228 206.626 16
13 5 0 822.519 201.842 16
5 13 0 635.191 167.084 16
0 -13 -5 762.264 206.531 7
13 0 -5 861.4 281.402 16
13 0 -5 1438.61 361.794 15
-13 5 0 628.241 185.293 1
5 13 0 703.574 151.828 15
13 5 0 692.8 233.84 15
13 -5 0 687.303 186.551 7
5 -13 0 794.138 214.993 7
13 -5 0 644.166 168.342 15
13 0 5 996.598 231.884 15
0 13 5 739.519 230.641 3
-13 0 5 928.993 258.563 14
-5 -13 0 851.563 158.88 14
-13 0 -5 496.117 207.732 13
2 13 5 1384.14 253.568 1
-5 13 2 1109.75 211.843 3
-13 2 5 1535.76 319.686 11
-13 -5 2 908.026 186.218 11
-5 13 2 1180.41 188.146 11
-5 13 2 1179.6 223.084 6
2 -13 -5 995.37 141.146 10
-13 5 -2 875.309 204.408 6
-13 5 -2 1052.7 173.16 3
5 -13 2 606.449 219.541 2
5 13 -2 1084.23 283.174 1
13 -5 -2 1236.73 208.979 10
5 13 -2 706.702 217.426 3
13 5 2 1048.25 195.145 10
2 13 5 1053.66 204.168 9
13 5 2 1279.19 235.118 9
-5 13 2 1080.39 140.261 9
5 13 -2 1115.06 254.602 9
13 -5 -2 1163.92 208.598 4
2 -13 -5 924.913 188.229 4
2 13 5 1235.07 257.671 8
13 5 2 1084.31 183.143 8
-5 13 2 1112 207.948 8
-5 13 2 1054.52 225.051 1
5 13 -2 247.725 188.929 8
2 13 5 1323.49 169.343 16
13 5 2 968.252 201.045 16
2 -13 -5 1255.09 225.157 7
13 -5 -2 1124.81 221.822 7
5 13 -2 828.847 167.744 15
13 -5 -2 760.249 145.588 15
13 -5 -2 909.212 159.541 2
-5 -13 -2 989.299 128.367 7
13 5 2 1334.51 238.192 15
2 13 5 739.225 178.728 3
5 -13 2 836.547 212.362 7
-13 2 5 1502.08 310.924 14
-13 -5 2 987.401 205.468 14
-13 5 -2 889.662 219.406 13
-13 4 5 300.91 156.11 6
-13 -4 -5 124.322 125.806 12
-5 -13 -4 531.676 185.038 12
4 13 5 333.869 178.805 1
-5 13 4 150.152 107.269 6
-5 13 4 130.458 109.106 11
-13 4 5 277.337 151.96 11
13 4 -5 179.701 135.932 10
13 -5 -4 272.127 174.74 10
-13 5 -4 132.173 218.592 6
-5 13 4 19.4795 162.884 1
4 -13 -5 28.4498 134.382 5
13 5 4 255.344 150.688 10
-5 -13 -4 462.625 181.355 5
-13 5 -4 458.412 255.241 3
4 13 5 409.578 188.477 9
13 5 4 93.9913 133.106 9
-5 13 4 73.3766 64.7809 9
4 -13 -5 113.649 122.617 4
-5 -13 -4 292.737 172.306 4
13 5 4 125.123 120.732 8
4 13 5 211.97 172.669 8
-5 13 4 53.1255 124.707 8
-13 4 5 61.7189 98.8902 1
13 -5 -4 249.804 91.5116 2
4 -13 -5 87.0898 145.295 2
4 13 5 166.402 98.9626 16
13 5 4 196.504 113.221 16
-5 -13 -4 457.656 168.421 2
13 -5 -4 196.414 198.267 16
13 4 -5 237.524 193.112 16
4 -13 -5 111.141 153.344 7
13 -5 -4 169.125 151.409 7
-5 -13 -4 304.006 105.176 7
13 4 -5 174.586 170.736 15
13 -5 -4 363.288 155.554 15
4 13 5 161.285 127.287 3
13 5 4 149.818 174.842 15
-13 4 5 317.096 181.087 14
-13 -5 4 593.939 215.948 14
-5 13 4 434.447 177.33 3
-13 -4 -5 167.177 164.735 13
-5 13 6 204.479 131.646 6
-5 -13 -6 354.402 146.38 12
-13 6 5 473.689 175.883 6
-13 -6 -5 275.988 127.061 12
6 13 5 423.585 155.888 1
-13 6 5 319.203 177.759 11
13 -5 -6 462.738 177.142 10
6 -13 -5 406.96 136.655 10
6 -13 -5 540.814 176.206 5
-5 -13 -6 726.779 252.906 5
-5 13 6 221.746 111.106 9
13 5 6 130.336 129.2 9
6 13 5 143.418 157.797 9
-5 -13 -6 341.24 127.284 4
6 -13 -5 438.156 151.939 4
-5 13 6 28.3612 128.277 8
6 13 5 444.562 206.481 8
-5 -13 -6 526.747 162.11 2
6 -13 -5 376.578 165.495 2
13 5 6 515.492 165.389 16
6 13 5 573.315 136.719 16
-5 -13 -6 413.338 147.839 7
13 -5 -6 443.682 164.632 7
6 -13 -5 428.562 161.177 7
-13 6 5 494.882 150.457 1
13 -5 -6 371.339 161.688 15
13 6 -5 390.935 222.231 15
6 13 5 330.928 141.481 3
-5 13 6 409.45 206.545 3
13 5 6 859.446 242.013 15
-5 13 6 467.315 235.957 1
-13 -6 -5 358.241 167.265 13
-13 -6 -3 1027.16 280.469 13
-3 13 6 714.128 231.873 6
-13 -6 -3 509.574 185.506 12
-13 6 3 1044.56 239.608 6
-13 6 3 603.97 178.867 11
-13 -6 -3 546.262 93.5026 6
13 6 -3 772.694 198.776 10
-6 13 -3 66.1599 229.733 6
6 -13 -3 411.23 139.807 10
-6 13 -3 933.272 270.729 3
-13 -6 -3 249.993 132.556 5
-3 -13 -6 580.625 181 5
13 -6 3 496.229 180.434 10
-13 6 3 557.604 148.067 1
6 -13 -3 724.515 171.031 5
-3 13 6 687.13 161.424 9
13 -6 3 459.943 126.533 9
-6 13 -3 611.703 285.991 1
6 13 3 463.524 171.237 9
-6 -13 3 315.193 202.857 5
6 13 3 512.784 183.919 1
13 6 -3 720.481 232.506 9
-3 -13 -6 462.483 179.076 4
-3 13 6 329.021 151.684 8
6 -13 -3 574.277 232.529 4
6 13 3 669.629 207.86 8
-3 -13 -6 530.534 177.598 2
13 -6 3 642.438 173.439 4
-6 -13 3 713.234 243.18 4
13 -6 3 574.632 173.505 16
6 13 3 229.379 123.879 16
13 6 -3 330.25 96.2696 7
-3 -13 -6 453.546 148.93 7
13 6 -3 392.302 162.046 16
6 -13 -3 989.747 245.21 2
6 -13 -3 655.492 192.329 7
13 6 -3 1017.58 309.934 15
-13 6 3 468.581 157.457 3
-3 13 6 394.697 173.798 3
-3 13 6 836.516 244.418 1
6 13 3 728.873 188.437 15
13 -6 3 684.403 177.521 15
13 -6 3 406.151 167.154 7
-13 6 3 678.702 201.139 14
6 13 3 571.332 194.528 3
-13 6 1 795.768 122.322 12
-13 -6 -1 566.377 170.144 12
6 13 1 762.661 127.475 6
6 13 1 976.374 206.249 3
-13 6 1 577.502 159.703 1
-13 6 1 588.976 178.54 6
-13 -6 -1 846.794 175.5 11
-13 6 1 824.244 221.942 11
6 13 1 756.769 190.703 1
-6 13 -1 648.779 222.459 3
-6 13 -1 1148.73 262.055 6
-6 -13 1 692.366 192.338 2
13 6 -1 847.065 190.616 10
6 -13 -1 661.447 134.537 10
-1 -13 -6 626.689 161.112 5
-13 -6 -1 727.32 165.033 5
-1 13 6 856.856 182.373 9
6 -13 -1 975.42 176.723 5
-6 -13 1 892.907 299.619 5
6 13 1 526.968 177.74 9
13 6 -1 674.878 224.048 9
-1 13 6 656.418 216.106 8
-1 -13 -6 586.617 156.251 2
6 13 1 1245.46 258.524 8
6 -13 -1 641.15 173.753 4
13 -6 1 662.289 135.591 4
13 6 -1 773.788 224.069 8
-6 -13 1 813.293 224.276 4
-6 13 -1 671.363 213.709 8
-6 13 -1 743.007 242.172 1
13 -6 1 612.328 203.863 16
-1 -13 -6 606.669 167.682 7
13 6 -1 714.2 228.703 16
6 13 1 609.293 160.623 16
-1 13 6 599.594 198.454 1
13 6 -1 680.224 193.99 15
6 -13 -1 513.65 179.073 7
6 13 1 568.361 148.707 15
-1 13 6 775.135 204.521 3
13 -6 1 800.018 177.967 15
-6 -13 1 735.348 145.446 14
6 -13 -1 628.73 211.144 2
-13 6 1 800.152 152.104 3
-13 6 -1 799.661 202.004 13
-6 -13 -1 634.396 168.693 2
13 -6 -1 845.661 171.711 2
-6 13 1 741.634 198.482 3
-13 -6 1 830.987 180.238 11
-13 6 -1 691.451 144.154 3
6 -13 1 989.393 260.498 2
-6 13 1 792.376 188.365 11
-6 13 1 1119.74 249.795 6
-13 6 -1 809.28 210.626 6
6 13 -1 694.636 137.485 6
13 -6 -1 690.393 173.252 10
6 13 -1 371.104 163.201 1
13 6 1 758.493 177.266 10
1 -13 -6 348.569 164.513 5
6 -13 1 848.353 169.727 10
1 13 6 565.32 156.943 9
-6 -13 -1 707.953 265.923 5
-13 -6 1 944.43 188.904 5
13 6 1 578.98 181.18 9
6 13 -1 1031.41 263.669 9
1 -13 -6 566.793 203.316 4
1 13 6 749.178 218.184 8
13 -6 -1 752.325 166.832 4
1 -13 -6 716.993 197.954 2
13 6 1 755.271 172.268 8
-6 13 1 539.6 166.374 8
6 13 -1 659.658 242.237 8
13 6 1 776.339 220.172 16
1 -13 -6 670.657 172.241 7
6 13 -1 1051.99 213.025 16
1 13 6 803.795 209.05 1
6 13 -1 880.578 188.923 15
13 -6 -1 689.1 177.354 7
13 -6 -1 769.264 171.577 15
13 6 1 886.766 217.212 15
1 13 6 1041.2 246.512 3
6 -13 1 918.245 225.609 7
-6 13 1 824.049 198.912 1
-6 -13 -1 876.596 168.065 7
-6 -13 -1 786.353 146.968 14
-13 -6 1 686.599 214.004 14
-6 13 3 24.8159 110.549 3
-6 -13 -3 699.174 218.156 12
-13 -6 3 247.878 130.319 11
-6 13 3 549.664 194.468 6
-6 13 3 540.748 171.62 11
3 -13 -6 470.881 135.946 10
-13 6 -3 253.202 199.749 6
13 -6 -3 912.836 234.125 10
-13 6 -3 271.244 175.783 3
3 -13 -6 259.675 133.56 5
6 13 -3 649.897 212.573 3
13 6 3 388.147 130.353 10
6 -13 3 782.313 281.131 2
-6 -13 -3 528.592 226.854 5
3 13 6 488.808 178.947 9
13 6 3 425.649 168.7 9
-6 13 3 727.763 238.118 1
-13 -6 3 340.06 143.281 5
6 13 -3 331.846 213.288 9
13 -6 -3 370.144 148.872 4
3 -13 -6 566.574 204.469 4
3 13 6 205.262 158.606 8
-6 -13 -3 399.878 173.244 4
13 6 3 695.578 176.916 8
-6 13 3 737.27 197.68 8
3 -13 -6 603.402 206.743 2
6 13 -3 534.384 210.174 8
3 13 6 251.592 118.39 16
6 -13 3 376.825 209.18 4
13 6 3 522.145 186.864 16
3 -13 -6 546.678 153.654 7
13 -6 -3 528.554 211.594 16
13 -6 -3 560.297 145.436 2
13 -6 -3 448.037 176.786 7
6 13 -3 378.384 176.09 15
-6 -13 -3 259.602 136.903 2
3 13 6 585.336 217.174 1
13 -6 -3 682.982 186.564 15
3 13 6 722.914 235.353 3
13 6 3 620.713 182.993 15
6 -13 3 672.884 233.639 7
-13 -6 3 531.896 174.129 14
-13 6 -3 153.588 144.425 13
-6 -13 -3 496.967 142.702 13
-6 -13 -5 332.585 153.747 12
-6 13 5 611.853 195.678 6
-13 5 6 222.154 176.768 11
-6 13 5 545.206 217.534 1
5 -13 -6 512.611 110.402 10
13 -6 -5 151.651 124.178 10
-6 -13 -5 703.534 205.76 5
-6 13 5 443.282 106.884 9
5 13 6 579.508 237.14 9
13 6 5 456.923 172.791 9
-6 -13 -5 361.796 163.91 4
5 -13 -6 215.999 138.339 4
13 6 5 200.357 129.798 8
5 13 6 324.879 182.253 8
-6 13 5 399.531 157.864 8
13 -6 -5 495.103 140.738 2
5 -13 -6 262.59 163.959 2
-6 -13 -5 453.947 133.429 2
5 13 6 524.425 144.155 16
13 6 5 670.924 211.565 16
-6 -13 -5 604.301 128.86 7
5 -13 -6 407.897 158.809 7
13 -6 -5 621.922 208.855 7
13 -6 -5 508.147 162.119 15
5 13 6 235.818 112.477 3
5 13 6 336.768 145.661 1
13 6 5 221.128 166.077 15
-13 -6 5 337.92 149.649 14
-6 13 5 443.258 181.639 3
-13 -5 -6 368.163 164.38 13
-13 -7 -4 34.2228 118.861 12
-13 7 4 127.935 119.47 6
-13 7 4 11.4307 104.442 11
-13 7 4 284.984 144.277 1
13 7 -4 64.5105 111.469 10
-4 -13 -7 52.3846 125.009 5
-13 -7 -4 265.202 146.08 5
7 13 4 271.015 147.827 1
7 -13 -4 62.2163 107.627 5
13 -7 4 52.2824 122.806 10
7 13 4 297.349 208.052 9
13 7 -4 309.628 187.34 9
-4 13 7 42.3934 161.941 8
-4 -13 -7 15.4428 100.856 2
7 -13 -4 5.38426 129.941 4
7 13 4 52.3471 116.57 8
-13 -7 -4 112.642 57.2366 2
13 -7 4 181.389 164.649 4
7 13 4 5.81279 107.997 16
7 -13 -4 20.7972 123.818 2
13 7 -4 14.5149 151.43 16
-4 13 7 155.571 168.623 1
7 -13 -4 103.902 140.195 7
13 7 -4 197.364 172.112 15
-13 7 4 68.8466 84.29 3
-4 13 7 28.506 140.592 3
7 13 4 103.718 117.21 3
7 13 4 160.104 110.644 15
-13 7 4 3.0307 105.159 14
13 -7 4 17.9881 174.033 7
-13 -7 -4 132.464 176.279 13
7 13 2 367.031 156.699 3
-13 -7 -2 78.9261 168.833 13
-13 7 2 367.133 81.0584 12
-13 -7 -2 334.846 160.362 12
-13 7 2 28.3707 97.01 6
-13 7 2 538.605 194.793 11
13 7 -2 328.334 71.1616 3
-7 13 -2 115.937 153.135 6
-7 13 -2 526.146 198.565 3
13 7 -2 386.294 128.437 10
7 -13 -2 332.519 116.558 10
-2 -13 -7 201.246 141.925 5
13 -7 2 313.412 160.397 10
-13 -7 -2 183.473 101.306 5
7 -13 -2 248.966 122.984 5
-7 -13 2 365.006 241.278 2
-7 13 -2 38.7246 189.393 1
7 13 2 500.549 189.046 9
-7 -13 2 107.958 194.066 5
13 7 -2 144.475 153.011 9
-2 -13 -7 170.888 165.198 2
7 -13 -2 20.4805 153.911 4
-13 7 2 311.699 105.944 1
13 -7 2 671.49 173.27 4
13 7 -2 419.184 202.594 8
-7 -13 2 520.546 189.623 4
13 -7 2 438.717 148.233 16
7 13 2 457.024 151.604 16
13 7 -2 89.6499 112.623 16
7 13 2 171.724 107.242 1
7 -13 -2 252.563 159.659 7
13 7 -2 130.409 114.967 15
7 13 2 206.132 129.206 15
7 -13 -2 246.972 132.055 2
13 -7 2 74.1783 143.914 7
13 -7 2 466.254 138.752 15
-13 7 2 263.838 121.522 3
-13 7 2 307.314 139.134 14
-13 7 0 1195.98 242.331 13
7 -13 0 866.594 251.855 2
-13 7 0 1360.24 208.163 3
7 13 0 1223.27 139.218 6
7 13 0 1303.54 220.241 3
-13 -7 0 1211.56 201.02 11
-7 13 0 1187 233.889 3
13 -7 0 1262.59 261.154 2
-13 7 0 1399.03 256.519 6
-7 13 0 903.859 243.92 6
13 7 0 1223.13 218.265 10
13 -7 0 1221.22 268.634 10
7 -13 0 1383.99 210.285 10
-7 13 0 950.742 237.539 1
-7 -13 0 1255.93 320.921 5
13 7 0 1070.81 245.527 9
7 13 0 1159.04 249.9 9
0 -13 -7 475.601 178.953 4
0 13 7 785.772 275.037 8
0 -13 -7 1247.73 246.861 2
13 -7 0 1543.81 226.296 4
7 13 0 1012.53 254.884 8
13 7 0 1190.81 242.909 8
7 -13 0 1628 329.198 4
-7 13 0 1148.87 232.632 8
7 13 0 932.56 232.28 1
0 13 7 1336.97 333.593 1
13 7 0 1257.58 264.873 16
7 13 0 1418.86 223.971 16
0 13 7 1725.79 361.213 3
7 13 0 1198.37 213.879 15
13 7 0 1035.15 245.189 15
13 -7 0 1596.99 287.21 7
7 -13 0 1741.44 292.439 7
13 -7 0 1341.73 230.939 15
-7 -13 0 1098.58 200.333 14
-7 -13 -2 307.549 116.517 13
-7 13 2 281.164 126.558 3
-7 -13 -2 354.117 148.479 12
-13 -7 2 314.851 143.688 11
-7 13 2 467.957 162.561 6
-7 13 2 409.101 153.204 11
-13 7 -2 87.365 107.196 3
-13 7 -2 279.944 194.537 6
7 13 -2 46.2298 148.131 3
7 -13 2 479.038 230.933 2
13 -7 -2 492.519 163.877 10
13 7 2 334.59 147.137 10
-7 -13 -2 287.561 211.629 5
13 7 2 470.716 206.647 9
-13 -7 2 259.547 105.27 5
7 -13 2 502.172 180.204 5
7 13 -2 362.603 174.925 9
2 13 7 206.22 156.253 8
13 -7 -2 178.449 108.189 4
-7 -13 -2 339.682 127.384 4
13 7 2 190.249 111.252 8
-7 13 2 406.031 149.466 8
7 13 -2 195.683 165.214 8
7 -13 2 279.928 151.959 4
-7 13 2 353.081 159.615 1
7 -13 2 232.433 75.0695 16
2 13 7 480.322 159.185 1
13 7 2 410.6 179.958 16
2 -13 -7 100.596 112.013 7
13 -7 -2 435.448 206.963 16
13 -7 -2 354.332 157.441 7
7 13 -2 134.312 115.648 15
13 -7 -2 280.135 111.937 15
13 7 2 355.206 176.895 15
13 -7 -2 271.766 125.168 2
7 -13 2 217.11 185.724 7
-7 -13 -2 334.067 126.516 2
7 13 -2 217.985 197.071 1
-13 -7 2 333.689 178.209 14
-13 7 -2 467.688 202.041 13
-7 -13 -4 155.952 114.504 12
-7 13 4 25.087 129.882 6
-7 13 4 47.2831 96.8436 11
13 -7 -4 76.7639 129.222 10
-13 7 -4 8.60866 231.133 6
-7 13 4 122.329 151.6 1
-13 7 -4 123.354 247.715 3
-7 -13 -4 199.996 132.87 5
4 13 7 184.494 139.026 9
13 7 4 72.4069 129.989 9
13 -7 -4 0.08475 86.7502 4
4 -13 -7 651.349 256.885 4
-7 -13 -4 278.712 139.018 4
4 13 7 227.432 170.891 8
13 7 4 50.3558 101.876 8
4 -13 -7 28.5915 136.02 2
-7 13 4 805.478 295.701 8
13 -7 -4 206.682 129.557 2
7 -13 4 297.902 250.01 4
4 13 7 306.651 159.677 1
13 7 4 107.706 169.181 16
4 -13 -7 28.9078 132.012 7
-7 -13 -4 190.421 134.314 2
13 -7 -4 84.5789 132.546 16
13 -7 -4 28.1411 113.675 7
-7 -13 -4 75.4265 61.2969 7
13 -7 -4 0.68184 124.786 15
13 7 4 167.198 66.9312 1
13 7 4 153.779 120.026 15
-13 -7 4 472.566 182.884 14
-7 13 4 64.2707 148.401 3
-7 -13 -4 220.37 119.349 13
-13 8 1 249.86 130.292 13
-13 8 1 392.235 142.614 3
8 13 1 228.514 135.085 3
13 8 -1 332.659 77.3406 3
-13 -8 -1 170.606 146.337 12
-13 -8 -1 41.5236 86.8924 11
-13 8 1 229.942 160.1 6
-13 8 1 181.906 134.417 11
-13 8 1 322.346 185.958 1
-8 13 -1 4.27374 124.019 3
-8 13 -1 455.709 183.002 6
13 8 -1 92.1946 109.031 10
13 -8 1 351.658 159.548 2
8 -13 -1 204.269 116.527 10
13 -8 1 23.0541 150.906 10
-8 -13 1 332.531 171.694 2
8 13 1 62.1482 124.247 1
-13 -8 -1 351.773 170.033 5
8 -13 -1 104.138 96.1511 5
-8 -13 1 72.7677 171.338 5
8 13 1 246.709 141.739 9
13 8 -1 419.106 207.898 9
8 13 1 124.839 169.373 8
8 -13 -1 405.838 201.764 4
13 -8 1 281.731 128.125 4
-8 -13 1 188.295 107.837 4
13 8 -1 304.472 179.506 8
-8 13 -1 147.971 129.353 8
13 -8 1 369.848 165.339 16
8 13 1 232.862 140.526 16
13 8 -1 120.695 121.387 16
-8 13 -1 97.9884 175.858 1
13 8 -1 340.369 169.8 15
8 -13 -1 353.236 186.273 7
8 13 1 442.42 174.566 15
13 -8 1 529.187 200.633 7
13 -8 1 173.165 120.874 15
-8 -13 1 262.781 112.817 14
8 -13 -1 196.426 156.999 2
13 -8 -1 242.08 146.766 2
-8 13 1 315.273 178.559 1
-8 -13 -1 204.604 103.183 2
-8 13 1 232.249 136.46 3
-13 -8 1 230.589 125.818 11
-13 8 -1 176.441 100.154 3
-8 13 1 96.7279 113.227 11
-8 13 1 270.425 158.564 6
8 13 -1 372.906 154.678 3
8 -13 1 339.564 190.201 2
8 13 -1 183.975 63.0056 6
-13 8 -1 87.9458 124.059 6
13 -8 -1 241.383 176.122 10
13 8 1 318.15 125.973 10
8 -13 1 121.837 94.1622 10
-8 -13 -1 311.067 192.484 5
-13 -8 1 227.442 167.965 5
8 -13 1 151.672 128.964 5
13 8 1 199.135 161.772 9
8 13 -1 212.895 135.021 9
-13 8 -1 5.13502 149.362 1
13 -8 -1 431.218 155.269 4
-8 -13 -1 157.966 111.101 4
-13 -8 1 267.653 86.7521 4
13 8 1 39.2171 118.76 8
-8 13 1 389.246 151.353 8
8 13 -1 317.273 165.214 8
8 -13 1 312.791 159.468 4
8 -13 1 228.665 87.8505 16
13 8 1 190.694 139.802 16
13 -8 -1 357.093 136.406 16
8 13 -1 138.738 257.178 16
8 13 -1 73.7497 154.886 15
13 -8 -1 312.894 140.515 7
13 8 1 191.059 133.326 15
13 -8 -1 695.201 193.865 15
8 -13 1 43.3007 169.538 7
8 13 -1 534.505 197.306 1
-8 13 1 288.514 85.6563 14
-13 -8 1 573.113 189.053 14
-8 -13 -1 401.365 149.109 14
-13 8 -1 325.402 154.86 13
0 -14 0 291.318 199.094 2
-14 0 0 31.2742 131.571 12
-14 0 0 183.535 125.522 6
0 14 0 58.5966 131.044 3
0 14 0 33.4688 129.271 6
14 0 0 75.0923 170.448 10
0 14 0 121.332 144.462 1
0 -14 0 314.131 189.884 5
14 0 0 7.06794 107.13 9
0 14 0 121.804 134.963 9
0 14 0 308.458 214.134 8
0 -14 0 231.163 154.152 4
14 0 0 3.64958 135.097 16
14 0 0 79.665 122.98 15
14 0 0 150.956 148.653 7
0 -14 0 16.1339 103.847 7
-14 1 -1 30.7047 196.326 13
-14 1 -1 328.503 125.437 12
-14 -1 -1 528.828 141.614 12
1 -14 -1 294.968 99.7717 12
-14 -1 1 405.754 144.571 6
-14 1 1 453.694 147.702 6
1 14 1 232.867 120.605 3
-1 14 1 333.222 139.318 3
-1 14 1 462.435 73.4394 11
1 -14 1 460.781 199.68 2
-14 -1 1 234.112 121.395 11
1 14 1 611.647 150.134 6
-14 1 1 157.998 154.449 11
-14 -1 -1 353.351 93.399 6
-1 14 1 383.337 113.446 6
-1 -14 1 616.819 248.068 2
-14 1 -1 114.129 106.525 6
1 14 -1 114.767 154.476 3
-1 14 -1 148.446 206.444 3
-1 14 -1 432.921 147.528 6
1 14 -1 359.705 123.433 6
14 1 -1 161.17 165.196 10
14 -1 -1 93.567 205.715 10
14 1 1 212.188 130.551 10
14 -1 1 244.318 128.05 10
-14 -1 1 311.812 87.6479 5
1 -14 -1 505.954 237.237 5
-1 -14 -1 444.354 250.258 5
14 -1 1 324.616 131.521 9
14 1 1 437.083 141.107 9
-1 -14 1 459.311 206.555 5
1 -14 1 664.436 236.45 5
1 14 1 542.333 161.694 9
14 1 -1 210.503 174.083 9
14 -1 -1 394.993 163.513 9
-1 14 1 483.345 117.37 9
1 14 -1 220.262 145.693 9
-1 14 -1 18.9757 156.33 9
1 14 1 422.966 159.046 8
-1 14 1 337.112 132.96 8
-1 -14 -1 292.141 191.789 4
1 -14 -1 22.4916 215.879 4
1 14 -1 225.448 236.748 8
-1 14 -1 243.729 152.754 8
-1 -14 1 539.999 236.019 4
1 -14 1 1131.81 329.703 4
-1 14 -1 237.347 145.321 1
14 -1 1 266.188 159.203 16
14 1 1 388.952 147.799 16
14 -1 -1 128.714 173.256 16
14 1 -1 16.7337 187.309 16
1 14 -1 160.937 173.586 1
14 1 -1 491.212 127.642 7
14 -1 -1 535.89 123.645 7
14 1 -1 201.381 172.168 15
14 -1 -1 230.598 207.099 15
14 1 1 441.365 129.233 15
-1 -14 -1 418.058 133.05 7
14 -1 1 1.70472 173.441 15
14 -1 1 524.825 158.818 7
14 1 1 498.798 137.5 7
1 -14 1 496.138 170.915 7
-1 14 1 361.996 126.622 1
-1 -14 1 261.114 147.463 7
1 -14 -1 565.362 193.481 2
1 14 1 346.049 124.701 1
-1 -14 -1 195.752 158.473 2
-14 0 -2 439.219 251.476 13
-14 0 -2 117.166 131.517 12
-14 0 2 190.348 138.637 6
-14 2 0 153.954 125.064 12
0 -14 -2 185.364 169.963 12
-2 -14 0 4.74155 148.534 2
0 14 2 17.6235 115.168 3
-14 -2 0 48.4385 113.685 12
-14 -2 0 48.1415 97.0484 6
0 14 2 324.331 136.258 6
-14 0 2 114.139 174.434 11
2 14 0 118.43 180.273 3
-14 2 0 64.8583 110.807 6
-14 -2 0 189.656 149.918 11
2 14 0 188.394 113.804 6
-14 0 -2 168.237 132.055 6
14 0 -2 544.45 288.59 10
0 14 -2 424.55 224.592 6
0 -14 2 71.9372 163.159 2
0 14 -2 231.451 189.053 3
14 2 0 144.843 183.557 10
14 -2 0 61.2238 145.784 10
14 0 2 57.1973 154.237 10
-14 -2 0 171.548 97.0799 5
0 -14 -2 471.768 279.596 5
14 0 2 187.076 154.108 9
-2 -14 0 255.317 191.108 5
2 14 0 41.636 164.143 1
0 14 2 110.303 112.687 9
14 2 0 133.988 120.221 9
14 -2 0 13.8232 129.762 9
0 -14 2 5.96913 184.31 5
2 14 0 90.6171 167.975 9
14 0 -2 390.301 258.982 9
0 14 -2 12.6778 167.993 1
14 -2 0 17.7936 78.7697 4
0 14 2 77.0069 118.683 8
0 -14 -2 263.156 199.228 4
2 14 0 234.27 193.207 8
-2 -14 0 201.911 163.32 4
14 2 0 25.1078 121.513 8
0 14 2 23.8875 131.796 1
0 -14 2 21.27 186.984 4
14 0 2 52.8908 119.812 16
14 -2 0 233.874 167.64 16
14 2 0 88.0877 162.895 16
14 0 -2 859.575 284.305 16
14 0 -2 231.617 210.964 7
14 0 -2 390.423 248.985 15
0 -14 -2 120.833 141.446 7
2 14 0 41.0795 78.2997 15
14 -2 0 70.6886 128.148 7
14 2 0 223.192 202.448 15
14 2 0 84.6087 133.668 7
14 -2 0 81.438 109.962 15
0 -14 -2 117.37 139.816 2
14 0 2 75.9403 133.014 15
-2 -14 0 197.907 146.569 7
14 0 2 66.3344 163.097 7
-14 2 0 93.7853 90.357 3
-14 0 2 42.6119 146.587 14
-14 2 -2 105.125 154.933 13
-14 -2 2 175.207 155.903 6
-14 -2 -2 183.769 219.643 13
-14 2 -2 99.8042 147.191 12
-14 -2 -2 243.577 154.844 12
2 -14 -2 33.4625 113.396 12
2 14 2 243.602 150.59 3
-2 -14 -2 277.213 181.23 12
-2 14 2 30.1998 139.139 3
-14 2 2 65.5476 111.476 6
2 14 2 3.32815 113.691 6
-2 14 2 13.1101 84.7647 11
-14 -2 2 50.6768 95.556 11
-2 14 2 225.945 145.01 6
-14 2 2 78.7368 158.373 11
-14 2 -2 19.0785 61.26 3
-14 -2 -2 57.0046 94.7818 6
-14 2 -2 195.063 156.333 6
2 -14 2 210.968 168.287 2
-2 14 -2 463.102 190.953 6
14 2 -2 384.529 217.899 10
2 14 -2 39.2132 139.682 6
14 -2 -2 152.317 144.008 10
-2 14 -2 40.5656 175.022 3
2 14 -2 357.622 216.527 3
-2 -14 2 37.9757 137.986 2
2 -14 -2 57.7692 60.8714 10
14 2 2 230.604 143.887 10
14 -2 2 13.8292 134.886 10
-2 14 -2 31.5833 172.468 1
2 -14 -2 207.719 188.473 5
-2 -14 -2 210.81 162.219 5
14 -2 2 91.1336 119.253 9
-14 -2 2 48.9328 80.2521 5
14 2 2 10.1412 112.08 9
2 14 2 108.151 133.517 9
-2 -14 2 126.598 153.049 5
2 -14 2 132.711 175.551 5
-2 14 2 5.21581 115.843 9
14 2 -2 389.028 226.498 9
14 -2 -2 157.452 195.794 9
2 14 -2 188.867 194.633 9
-14 2 2 153.735 104.721 1
14 2 2 35.4123 76.8535 8
2 14 2 50.6323 156.633 8
-2 14 2 50.5168 114.399 8
-2 -14 -2 313.799 181.722 4
2 -14 -2 146.085 167.69 4
14 -2 2 59.6283 58.508 4
2 14 -2 150.937 192.229 8
-2 14 2 5.44784 141.63 1
-2 14 -2 164.363 208.636 8
2 14 2 25.2919 107.547 1
-2 -14 2 23.7573 223.673 4
2 14 -2 64.4336 163.954 1
14 -2 2 79.3442 160.655 16
14 2 2 84.4209 149.765 16
14 -2 -2 324.607 244.34 16
14 2 -2 442.626 232.575 16
2 14 -2 130.108 104.106 15
14 2 -2 126.091 122.26 7
14 -2 -2 24.4726 111.614 7
2 -14 -2 149.804 136.607 7
14 2 -2 195.529 175.71 15
14 -2 -2 213.099 151.069 15
-2 -14 -2 33.3103 108.037 7
14 -2 -2 122.567 85.2442 2
2 -14 -2 8.62407 144.811 2
14 2 2 168.661 165.03 15
-2 -14 -2 175.698 144.029 2
14 -2 2 160.002 166.238 15
14 -2 2 238.669 205.548 7
2 -14 2 105.339 133.351 7
14 2 2 64.4268 123.243 7
-2 -14 -2 49.7242 64.0689 14
-14 -2 2 375.718 196.447 14
-14 2 2 20.2567 134.555 14
-2 -14 -2 38.3693 105.854 13
-1 14 3 1432.26 267.426 3
-14 1 -3 643.567 142.841 12
1 14 -3 824.166 320.455 1
3 14 1 982.898 210.943 1
-14 3 1 627.016 135.293 12
-1 14 3 1404.11 252.52 6
3 14 1 1222.82 256.621 3
-14 -1 3 1030.9 206.102 11
-14 3 1 807.823 178.017 6
-14 -3 -1 848.976 137.071 6
3 14 1 869.736 163.194 6
-14 3 1 809.003 217.787 11
-3 -14 1 579.982 169.393 2
-14 1 -3 1122.62 217.602 6
14 -1 -3 1129.69 229.214 10
14 3 -1 679.817 173.171 10
14 -3 1 855.372 182.555 10
1 14 -3 765.731 286.72 3
14 1 3 822.636 207.837 10
3 -14 -1 709.748 118.566 10
-14 -3 -1 918.249 163.125 5
1 -14 3 821.295 262.175 2
-14 3 1 905.607 155.915 1
-1 -14 -3 592.734 152.508 5
14 1 3 1016.99 205.838 9
14 -3 1 1023.11 177.778 9
-1 14 3 1116.26 198.156 9
3 14 1 1105.8 225.102 9
-1 14 3 1577.98 288.672 1
1 -14 3 1044.82 249.309 5
14 -1 -3 450.351 205.636 9
14 1 3 812.339 136.742 8
-1 14 3 866.765 219.499 8
14 -3 1 904.099 128.439 4
3 14 1 1069.88 253.622 8
3 -14 -1 483.566 217.501 4
1 14 -3 1149.74 339.194 8
14 3 -1 644.959 159.848 8
1 -14 3 1465.97 348.795 4
14 1 3 944.362 235.196 16
14 3 -1 615.674 192.033 16
14 -1 -3 1072.01 259.978 16
3 14 1 884.27 138.34 16
14 -1 -3 987.483 182.16 7
-1 -14 -3 656.985 212.535 2
-1 -14 -3 842.751 151.886 7
14 3 -1 1046.44 166.513 7
14 -1 -3 1109.01 241.85 15
14 3 -1 709.837 202.676 15
3 -14 -1 953.356 179.797 7
-14 3 1 812.974 118.265 3
3 14 1 936.63 149.485 15
14 -3 1 877.695 199.699 15
14 -3 1 1289.6 255.953 7
14 1 3 919.134 237.958 15
-14 -1 3 888.403 235.949 14
3 -14 -1 618.933 168.885 2
-14 1 -3 1211.96 265.472 13
1 14 3 889.768 195.171 3
-14 -3 1 804.963 138.304 6
-14 1 3 880.236 198.593 6
-14 -1 -3 971.03 194.829 12
-14 3 -1 921.887 162.604 12
14 -3 -1 682.578 128.534 2
1 14 3 743.183 168.67 6
-14 3 -1 1091.78 141.059 3
-3 14 1 901.502 240.433 3
-14 1 3 1318.35 255.339 11
3 -14 1 592.255 192.22 2
-14 -3 1 1069.94 205.587 11
-3 14 1 1083.17 179.538 11
-3 14 1 995.913 214.312 6
-14 3 -1 881.642 175.314 6
3 14 -1 1064.86 242.575 3
3 14 -1 894.194 181.052 6
-14 -1 -3 876.751 155.407 6
14 1 -3 979.59 211.126 10
14 -3 -1 990.728 202.511 10
1 -14 -3 896.235 111.409 10
14 3 1 875.859 199.24 10
-1 14 -3 949.199 281.138 3
14 -1 3 1057.6 243.554 10
-1 -14 3 240.017 153.712 2
1 -14 -3 294.689 165.327 5
14 -1 3 991.39 190.643 9
1 14 3 1318.12 233.372 9
14 3 1 1157.69 230.972 9
3 -14 1 687.43 257.038 5
1 14 3 1011 211.431 1
-1 -14 3 615.511 268.511 5
-3 14 1 1067.69 176.59 9
3 14 -1 951.728 228.016 9
14 -3 -1 893.136 122.796 4
-1 14 -3 1119.04 354.56 1
1 -14 -3 1004.58 231.347 4
1 14 3 1008.27 218.002 8
14 3 1 790.82 158.675 8
-3 14 1 733.04 209.22 8
3 14 -1 1033.9 288.838 8
-1 14 -3 635.174 231.897 8
-1 -14 3 766.971 238.264 4
14 -1 3 803.027 125.364 4
14 -1 3 937.413 221.088 16
14 3 1 648.08 202.787 16
14 1 -3 968.342 169.13 7
1 -14 -3 687.085 205.6 2
1 -14 -3 817.065 170.013 7
3 14 -1 998.13 161.249 15
14 1 -3 1187.35 258.007 15
14 -3 -1 1104.14 221.508 7
14 -3 -1 940.291 196.64 15
14 3 1 970.545 227.549 15
-3 -14 -1 1210.43 183.404 7
14 -1 3 1059.86 222.296 15
14 3 1 770.584 177.235 7
-3 -14 -1 812.714 125.658 14
-3 14 1 978.099 239.829 1
-14 1 3 683.445 118.977 1
14 -1 3 752.013 195.236 7
-14 1 3 1167.5 264.073 14
-14 -3 1 1010.21 249.991 14
3 14 -1 943.817 258.684 1
-3 -14 -1 573.152 170.88 2
-14 -1 -3 869.438 237.027 13
-14 -3 -3 313.708 225.142 13
-3 14 3 124.751 132.345 3
3 -14 -3 265.534 101.385 12
3 14 3 121.362 82.4392 6
-14 -3 -3 113.457 121.121 12
-3 -14 -3 239.654 156.415 12
-14 3 3 82.716 143.497 6
-3 14 3 244.269 105.021 11
-3 14 3 183.668 118.143 6
-14 -3 3 190.182 134.447 11
-14 3 3 432.671 195.96 11
-14 3 3 90.0212 79.4518 1
-14 -3 -3 174.31 105.435 6
14 3 -3 375.721 178.386 10
14 -3 -3 529.114 197.675 10
-3 14 -3 59.2256 169.647 6
3 -14 -3 170.609 107.809 10
-3 14 -3 32.0377 232.165 3
-3 14 -3 4.62173 174.031 1
-14 3 -3 253.863 148.663 3
3 14 -3 167.594 177.665 3
14 -3 3 88.1248 134.405 10
14 3 3 422.379 174.096 10
3 -14 3 8.91068 173.474 2
3 -14 -3 62.7874 120.468 5
-3 -14 -3 369.68 191.888 5
-3 -14 3 174.467 215.339 2
14 -3 3 74.1434 109.554 9
14 3 3 247.839 147.148 9
3 14 3 139.624 139.159 9
3 14 -3 125.4 211.001 1
-3 14 3 163.415 91.4497 9
-14 -3 3 217.656 128.389 5
-3 -14 3 265.425 235.966 5
3 -14 3 64.746 212.349 5
-3 14 3 354.344 193.528 1
3 14 3 25.2573 109.457 1
14 3 -3 187.356 224.69 9
14 3 3 116.873 111.911 8
-3 -14 -3 408.305 229.07 4
3 -14 -3 263.047 149.431 4
3 14 3 425.992 200.403 8
-3 14 3 7.62097 98.2358 8
3 14 -3 356.32 220.159 8
14 -3 3 258.256 103.698 4
3 -14 3 187.863 209.689 4
-3 -14 3 484.964 241.669 4
14 -3 3 293.599 144.181 16
14 3 3 601.768 249.038 16
14 -3 -3 170.438 92.8312 2
3 14 3 207.614 85.0137 16
14 -3 -3 476.981 223.398 16
14 3 -3 376.998 228.86 16
14 3 -3 156.349 118.545 7
14 -3 -3 377.787 167.547 7
3 -14 -3 152.956 173.114 2
-3 -14 -3 7.20682 96.6374 2
3 -14 -3 223.325 131.684 7
-3 -14 -3 127.354 122.172 7
14 3 -3 444.994 235.264 15
14 -3 -3 60.1218 139.743 15
14 3 3 36.8731 109.598 15
14 -3 3 313.055 166.612 15
14 -3 3 35.0571 136.165 7
-14 -3 3 125.72 151.039 14
-14 3 3 202.364 155.369 14
-14 3 -3 189.192 176.723 13
3 14 3 132.791 166.795 3
-14 -4 -2 402.641 203.357 13
4 -14 -2 562.731 127.966 12
-2 -14 -4 555.834 157.189 12
4 14 2 710.859 209.465 3
-14 -4 -2 394.452 191.133 12
-2 14 4 242.693 112.787 6
4 14 2 379.782 121.489 6
-14 4 2 287.388 133.55 6
-14 -2 4 339.237 148.209 11
-14 4 2 263.234 151.015 11
-14 -4 -2 369.862 92.6346 6
14 -2 -4 369.145 171.102 10
-4 14 -2 117.672 169.322 6
-4 14 -2 426.023 206.274 1
14 4 -2 755.939 236.65 10
-4 14 -2 338.043 200.872 3
-14 2 -4 279.83 211.799 6
4 -14 -2 238.448 100.883 10
-2 14 4 412.254 191.168 1
14 -4 2 138.291 134.491 10
-4 -14 2 420.706 226.434 2
-14 -4 -2 472.705 162.932 5
14 2 4 372.761 182.948 10
-2 -14 -4 547.276 190.411 5
4 -14 -2 341.2 148.985 5
14 2 4 566.22 199.745 9
14 -4 2 454.538 132.31 9
-2 14 4 347.626 124.002 9
4 14 2 334.476 157.407 9
-4 -14 2 465.164 252.498 5
14 4 -2 764.849 247.479 9
14 2 4 215.763 107.992 8
-2 -14 -4 436.165 199.83 4
14 -2 -4 317.954 104.801 2
-2 14 4 291.132 141.198 8
4 14 2 308.698 157.431 8
4 -14 -2 481.997 215.353 4
-14 4 2 447.872 129.611 1
14 -4 2 323.653 110.086 4
-4 14 -2 386.798 229.367 8
-4 -14 2 399.341 214.462 4
4 14 2 519.154 185.423 1
14 2 4 317.868 181.577 16
14 -4 2 836.9 218.396 16
4 14 2 249.346 87.311 16
-2 -14 -4 750.994 205.946 2
14 4 -2 341.814 168.908 16
14 -2 -4 250.263 193.58 16
14 -2 -4 382.063 151.996 7
14 4 -2 628.443 141.956 7
-2 -14 -4 289.749 138.065 7
14 -2 -4 425.483 175.87 15
4 -14 -2 646.031 200.996 7
-14 4 2 442.738 130.191 3
14 4 -2 336.707 209.549 15
4 -14 -2 236.628 151.862 2
14 -4 2 568.962 185.625 15
4 14 2 301.126 107.254 15
14 2 4 498.606 184.305 15
14 -4 2 224.692 186.16 7
-14 -2 4 460.401 197.407 14
-14 4 2 503.615 184.06 14
-2 14 4 180.942 135.441 3
-14 2 -4 280.189 170.545 13
-14 4 0 159.067 95.9198 3
0 -14 -4 47.8374 82.165 12
-14 -4 0 161.574 102.332 6
-14 4 0 19.6606 70.0729 12
0 14 4 166.684 148.685 6
-4 -14 0 220.804 150.011 2
-14 0 4 110.512 129.079 11
4 14 0 153.997 137.029 3
-14 -4 0 260.32 136.008 11
-14 4 0 85.6472 110.608 6
4 14 0 13.601 108.864 6
-4 14 0 348.807 195.55 6
-14 4 0 184.79 149.373 1
14 0 -4 307.09 173.23 10
-14 0 -4 156.805 145.918 6
14 -4 0 129.026 141.298 2
14 4 0 145.133 152.814 10
14 -4 0 70.1236 100.076 10
0 14 4 202.992 196.462 1
14 0 4 14.6046 117.737 10
4 -14 0 4.7328 69.5758 10
0 -14 -4 433.327 197.941 5
-14 -4 0 24.577 98.3177 5
14 0 4 313.12 133.912 9
0 14 4 54.5605 106.143 9
-4 -14 0 168.038 169.734 5
14 4 0 294.546 188.36 9
14 -4 0 237.833 145.422 9
4 14 0 14.6529 119.938 1
4 14 0 133.997 162.648 9
14 0 4 10.1893 59.6481 8
0 -14 -4 213.425 182.774 4
14 -4 0 84.1831 85.9863 4
0 14 4 136.766 143.903 8
4 14 0 283.514 176.198 8
-4 -14 0 148.263 156.107 4
-4 14 0 229.834 153.401 8
4 -14 0 120.091 181.61 4
14 4 0 200.762 146.598 8
14 0 4 372.531 181.938 16
14 -4 0 109.803 118.966 16
14 4 0 322.769 200.554 16
0 -14 -4 124.533 166.164 2
14 0 -4 126.722 148.045 7
14 0 -4 119.778 196.06 16
0 -14 -4 365.514 164.402 7
14 0 -4 292.788 190.032 15
4 14 0 37.9244 93.8967 15
14 4 0 349.007 202.353 15
14 -4 0 137.058 133.881 7
14 -4 0 228.216 140.344 15
4 -14 0 34.5476 115.892 7
14 4 0 42.2011 106.977 7
14 0 4 134.245 127.091 15
-4 -14 0 62.1844 102.64 7
-14 0 4 35.1309 125.42 14
0 14 4 50.9448 146.764 3
-14 0 -4 249.482 214.883 13
-14 2 4 312.881 154.552 6
2 14 4 410.042 162.218 6
-4 -14 -2 644.016 194.484 12
-4 14 2 307.962 153.927 3
-14 2 4 387.138 148.589 11
-14 -4 2 448.983 177.696 11
-4 14 2 314.925 137.152 11
-4 14 2 737.941 264.609 6
-14 4 -2 276.167 102.69 3
-14 4 -2 466.415 172.756 6
14 2 -4 245.401 127.854 10
4 -14 2 476.021 221.201 2
2 -14 -4 448.973 102.39 10
4 14 -2 94.0466 140.051 3
4 14 -2 280.282 130.731 6
14 -4 -2 440.698 178.483 10
-14 -2 -4 247.468 134.797 6
2 14 4 523.672 210.62 1
14 4 2 280.616 149.385 10
14 -2 4 303.924 175.579 10
2 -14 -4 290.367 156.96 5
14 -2 4 161.654 107.68 9
-4 -14 -2 983.205 291.327 5
2 14 4 365.405 174.584 9
-14 -4 2 553.132 150.719 5
14 4 2 658.541 186.277 9
4 -14 2 471.346 199.032 5
-4 14 2 456.986 126.7 9
4 14 -2 70.5627 143.782 9
14 -4 -2 550.366 194.769 9
14 2 -4 326.783 234.068 9
14 -4 -2 414.232 155.778 4
2 -14 -4 468.507 213.3 4
2 14 4 217.727 135.969 8
14 4 2 399.659 144.872 8
-4 -14 -2 578.747 211.698 4
-4 14 2 323.886 179.311 8
4 14 -2 88.407 145.228 8
-4 14 2 319.357 178.225 1
4 -14 2 572.12 248.394 4
-14 2 4 350.098 118.969 1
14 -2 4 551.689 192.158 16
2 14 4 426.346 102.843 16
14 4 2 204.375 166.643 16
14 2 -4 623.679 161.138 7
14 -4 -2 631.938 218.178 16
2 -14 -4 523.946 181.043 2
14 2 -4 611.981 249.306 16
2 -14 -4 260.099 143.281 7
4 14 -2 381.893 133.497 15
14 -4 -2 480.425 188.325 7
14 2 -4 235.154 174.665 15
14 -4 -2 570.32 212.353 15
-4 -14 -2 443.914 117.732 7
14 4 2 141.149 122.241 15
14 -4 -2 215.331 119.574 2
-4 -14 -2 272.655 172.647 2
14 -2 4 560.429 196.425 15
4 -14 2 481.062 184.498 7
-14 2 4 341.312 133.946 14
-14 -4 2 486.346 191.801 14
2 14 4 739.567 186.495 3
-4 -14 -2 450.677 121.375 14
-14 -2 -4 603.451 247.458 13
-4 -14 -2 406.663 127.521 13
4 14 -2 392.738 204.979 1
-14 4 -2 462.292 173.193 13
-14 -4 -4 897.961 204.934 12
-14 4 4 752.348 205.278 6
-4 14 4 1290.63 271.375 6
-14 -4 4 919.128 225.379 11
-14 4 4 751.175 205.89 11
14 4 -4 771.126 211.43 10
14 -4 -4 662.284 205.1 10
4 -14 -4 910.92 159.065 10
-14 -4 -4 732.76 139.594 6
-14 4 -4 201.562 220.085 6
14 -4 4 449.22 165.266 10
14 4 4 554.861 170.711 10
4 14 4 809.423 218.73 1
-4 14 4 813.468 210.492 1
-4 -14 -4 505.913 175.94 5
-14 4 -4 809.266 274.733 3
14 -4 4 713.94 159.693 9
14 4 4 703.386 204.261 9
4 14 4 776.802 216.962 9
-4 14 4 707.466 138.442 9
14 4 -4 861.847 292.101 9
-4 -14 -4 717.588 197.089 4
14 4 4 793.928 179.916 8
4 -14 -4 1148.63 294.371 4
-4 14 4 1376.17 270.612 8
14 -4 -4 546.737 118.087 2
14 -4 4 459.622 195.516 16
14 4 4 939.2 241.436 16
4 14 4 763.344 140.692 16
14 -4 4 653.391 201.731 4
14 4 -4 611.492 142.043 7
-4 -14 -4 582.633 168.42 2
4 -14 -4 1402.35 274.6 2
14 -4 -4 624.188 242.53 16
14 4 -4 593.094 211.796 16
14 -4 -4 593.94 170.963 7
4 -14 -4 699.671 197.094 7
-4 -14 -4 824.497 146.454 7
14 4 -4 751.148 224.474 15
14 -4 -4 665.573 203.625 15
14 4 4 811.194 213.949 15
14 -4 4 559.158 180.448 15
-14 4 4 428.044 146.281 1
-14 -4 4 889.239 238.174 14
-14 4 4 410.443 163.062 14
4 14 4 629.665 196.712 3
-4 14 4 990.659 252.866 3
-14 4 -4 760.451 234.637 13
-14 -4 -4 954.6 243.204 13
5 14 3 186.349 131.463 6
-14 -5 -3 11.2865 168.321 13
-3 -14 -5 11.2321 96.8824 12
-3 14 5 103.093 150.97 6
-14 -5 -3 33.2896 165.736 12
-14 5 3 109.592 138.482 6
-14 5 3 14.2894 141.722 11
-3 14 5 15.921 171.263 1
-14 -5 -3 4.3693 62.5559 6
14 -3 -5 81.5038 150.226 10
14 5 -3 118.6 130.573 10
-5 14 -3 322.167 179.861 6
-5 14 -3 295.09 261.995 1
5 -14 -3 18.443 89.6001 10
-5 14 -3 430.5 214.127 3
-14 -5 -3 78.8645 84.4339 5
14 -5 3 42.5188 159.123 10
-3 -14 -5 69.4917 120.012 5
5 -14 -3 194.074 147.562 5
-14 5 3 146.046 85.4563 1
14 3 5 158.963 128.461 9
14 -5 3 74.0919 100.531 9
-3 14 5 58.3749 103.268 9
5 14 3 232.622 169.497 9
-5 -14 3 520.679 255.423 5
14 5 -3 151.145 198.472 9
14 -3 -5 9.44372 82.3191 2
5 14 3 43.0936 126.317 1
14 3 5 116.389 101.847 8
-3 -14 -5 283.71 171.086 4
-3 14 5 86.2814 130.71 8
5 -14 -3 186.805 168.535 4
5 14 3 344.872 192.536 8
14 -5 3 55.3637 89.5849 4
-3 -14 -5 106.856 123.245 2
-5 -14 3 27.6211 177.294 4
14 3 5 46.5454 108.717 16
14 -5 3 55.5121 138.8 16
5 14 3 158.097 114.53 16
14 -3 -5 52.8579 112.662 7
14 5 -3 69.0267 144.682 16
14 5 -3 141.196 76.7931 7
14 -3 -5 165.486 131.212 16
-3 -14 -5 9.79448 97.2074 7
5 -14 -3 43.5937 128.783 2
14 -3 -5 145.286 150.372 15
5 -14 -3 60.4736 157.981 7
14 5 -3 339.221 187.693 15
14 -5 3 29.9055 96.8809 15
14 3 5 236.035 187.526 15
5 14 3 33.276 105.052 15
14 -5 3 124.148 177.581 7
-14 -3 5 69.7017 168.296 14
-3 14 5 136.152 169.768 3
-14 5 3 64.7921 163.663 14
5 14 3 162.149 151.02 3
-1 -14 -5 175.024 88.5588 12
-14 5 1 17.9426 63.0566 12
5 -14 -1 71.8679 64.1609 12
-14 -5 -1 5.49139 50.8222 6
-14 -5 -1 96.6098 120.548 12
5 14 1 48.4123 116.987 3
-14 -1 5 154.65 141.923 11
5 14 1 85.2515 73.4798 6
-14 5 1 58.6598 95.9727 6
-14 5 1 17.5006 152.684 11
5 14 1 137.191 145.677 1
-5 14 -1 210.712 148.685 3
-5 14 -1 210.203 207.893 6
-5 -14 1 91.9519 139.411 2
14 -1 -5 14.1455 125.352 10
14 5 -1 119.953 133.384 10
-14 5 1 127.623 148.839 1
5 -14 -1 25.037 88.2977 10
-1 -14 -5 230.898 192.427 5
14 1 5 105.076 129.591 10
-14 -5 -1 13.1874 91.7081 5
14 1 5 196.419 141.335 9
14 -5 1 58.1013 112.234 2
5 -14 -1 40.8786 135.331 5
-5 -14 1 653.297 263.394 5
5 14 1 22.5292 113.081 9
14 5 -1 111.313 170.077 9
-1 -14 -5 92.8837 113.721 4
5 14 1 167.414 185.227 8
5 -14 -1 75.9437 154.8 4
-5 -14 1 70.9284 127.017 4
-5 14 -1 58.5923 198.625 8
14 5 -1 3.01427 124.476 8
-1 -14 -5 18.2995 123.268 2
14 1 5 205.465 123.613 16
-5 14 -1 51.7991 146.336 1
14 -1 -5 35.9665 120.374 7
14 5 -1 23.5103 146.959 16
5 14 1 110.174 114.606 16
14 -1 -5 315.508 238.989 16
-1 -14 -5 68.4561 111.904 7
14 -1 -5 135.525 154.273 15
14 5 -1 54.9969 75.7162 7
14 5 -1 149.067 194.176 15
5 -14 -1 22.8495 118.626 7
5 14 1 51.5903 91.246 15
14 -5 1 134.457 136.745 7
14 1 5 207.345 172.318 15
-14 -1 5 39.5065 132.833 14
-1 14 5 7.80046 102.603 3
-14 5 1 67.6035 66.4407 3
5 -14 -1 245.361 176.723 2
-14 1 -5 17.2476 148.114 13
-5 -14 -1 227.289 125.555 2
14 -5 -1 171.235 126.137 2
-14 1 5 99.2534 134.489 11
-5 14 1 234.508 133.074 3
1 14 5 490.927 190.645 1
-14 -5 1 17.593 117.4 11
5 14 -1 94.3221 145.497 1
5 -14 1 14.5672 147.543 2
-5 14 1 183.022 114.09 11
-5 14 1 66.1384 140.962 6
5 14 -1 30.3861 151.159 3
5 14 -1 74.1369 105.75 6
14 1 -5 57.5577 129.509 10
14 -5 -1 12.7682 135.677 10
14 5 1 77.4975 108.899 10
14 -1 5 218.072 155.873 10
14 -1 5 28.1844 97.0383 9
1 14 5 31.1532 109.439 9
-14 -5 1 208.866 137.582 5
-5 -14 -1 739.953 295.064 5
5 -14 1 292.988 199.683 5
14 5 1 40.997 135.142 9
5 14 -1 241.819 203.791 9
14 -5 -1 15.5196 114.51 9
-14 5 -1 157.346 165.107 1
1 -14 -5 148.58 145.781 4
14 -5 -1 37.2822 74.0201 4
1 14 5 140.12 156.649 8
-5 -14 -1 102.658 128.593 4
14 5 1 5.89117 99.7238 8
-5 14 1 69.3375 107.297 8
5 14 -1 49.4798 167.301 8
5 -14 1 132.255 208.691 4
1 14 5 38.9964 62.0341 16
14 -1 5 49.7933 113.012 16
14 1 -5 48.0733 119.171 7
14 5 1 74.9282 152.306 16
14 -5 -1 201.563 136.054 16
14 1 -5 81.8586 157.187 16
14 1 -5 68.422 176.824 15
5 14 -1 67.2212 99.6362 15
14 -5 -1 46.9177 152.645 7
14 -5 -1 180.677 133.921 15
14 5 1 295.959 198.655 15
5 -14 1 251.024 162.089 7
14 -1 5 7.92956 117.225 15
-5 -14 -1 87.6096 113.158 7
1 14 5 51.3553 121.313 3
-14 1 5 182.253 147.735 14
-5 -14 -1 63.4808 79.147 14
-14 -5 1 122.575 169.499 14
-5 14 1 255.522 171.619 1
-14 -1 -5 121.936 144.432 13
-5 14 3 220.571 165.103 3
-14 -3 -5 43.5101 101.054 12
-5 -14 -3 116.946 173.584 12
-14 -5 3 9.72589 144.314 11
-14 3 5 14.6837 96.085 11
-5 14 3 39.1413 105.905 11
-5 14 3 73.1193 105.654 6
3 14 5 234.788 131.941 1
14 3 -5 69.9909 156.114 10
3 -14 -5 31.6587 81.9528 10
-14 5 -3 172.267 206.53 6
14 -5 -3 42.1422 107.092 10
-14 5 -3 64.0029 121.542 3
5 14 -3 51.8941 184.267 3
5 -14 3 72.6338 183.372 2
14 5 3 127.55 155.758 10
3 -14 -5 214.17 182.034 5
14 -3 5 46.0152 118.576 10
-5 -14 -3 68.297 175.905 5
3 14 5 48.05 111.417 9
14 5 3 31.4781 118.78 9
-14 -5 3 105.842 149.508 5
-5 14 3 96.0355 75.8765 9
5 -14 3 98.4921 144.431 5
5 14 -3 159.17 172.091 9
-5 14 3 376.026 187.026 1
3 -14 -5 72.4947 145.735 4
3 14 5 75.7622 159.293 8
-5 -14 -3 69.7048 120.27 4
14 5 3 41.4286 113.528 8
-5 14 3 229.523 173.171 8
-14 3 5 58.3568 88.4456 1
5 14 -3 75.9952 132.386 8
5 -14 3 194.368 184.079 4
3 -14 -5 63.7865 150.755 2
14 -3 5 34.7294 121.082 16
3 14 5 134.947 81.3214 16
14 5 3 31.9152 144.822 16
14 -5 -3 196.48 199.88 16
14 3 -5 546.129 230.786 16
14 -5 -3 34.9588 98.2307 2
3 -14 -5 99.0561 99.1072 7
14 -5 -3 111.466 124.041 7
5 14 -3 55.2176 115.423 15
14 3 -5 157.916 176.396 15
-5 -14 -3 137.234 164.666 2
-5 -14 -3 129.047 101.873 7
14 -5 -3 59.82 124.169 15
14 5 3 64.3001 110.783 15
3 14 5 20.4968 136.777 3
-14 3 5 171.124 139.39 14
5 -14 3 214.077 145.744 7
-14 -5 3 173.098 154.758 14
-5 -14 -3 108.995 98.5755 13
-14 -3 -5 24.539 106.622 13
-14 5 -3 135.67 184.282 13
-2 14 6 852.269 223.984 6
-14 -6 -2 784.112 246.836 13
6 14 2 774.022 136.365 6
-14 -6 -2 591.67 176.475 12
-14 6 2 690.099 124.833 12
-14 -6 -2 701.964 103.99 6
-14 6 2 950.82 198.537 6
-14 6 2 937.505 228.032 11
14 -2 -6 777.101 217.731 10
14 6 -2 573.742 171.11 10
6 -14 -2 392.647 122.637 10
14 -6 2 674.855 210.145 10
-2 -14 -6 740.83 223.266 5
-14 -6 -2 808.938 193.333 5
-6 -14 2 157.389 183.654 2
-2 14 6 808.787 179.52 9
14 -6 2 561.24 117.79 9
6 14 2 401.489 163.539 9
-6 -14 2 879.991 314.064 5
14 6 -2 483.294 219.235 9
-2 -14 -6 656.682 193.466 4
-2 14 6 770.337 218.501 8
6 -14 -2 718.256 217.655 4
-2 -14 -6 827.562 196.466 2
14 -6 2 719.618 176.909 4
-6 -14 2 744.239 204.355 4
14 6 -2 682.774 233.405 8
-14 6 2 665.258 178.047 1
14 -6 2 639.914 210.793 16
6 14 2 944.073 192.951 16
-2 -14 -6 440.136 151.375 7
14 6 -2 498.145 180.398 16
14 6 -2 808.359 130.456 7
6 -14 -2 749.517 208.844 7
14 6 -2 624.531 213.705 15
-2 14 6 670.969 203.722 3
6 -14 -2 312.685 147.657 2
14 -6 2 790.777 203.327 15
14 -6 2 461.634 169.158 7
-14 6 2 640.257 147.798 3
-14 6 2 659.601 210.84 14
-2 14 6 19.6926 202.525 1
-14 6 0 16.5478 144.724 13
-14 6 0 119.613 95.8821 3
6 -14 0 128.941 148.926 2
6 -14 0 32.2779 64.7449 12
-6 -14 0 96.0154 170.999 2
6 14 0 72.6093 123.85 3
-14 -6 0 119.028 129.841 11
-6 14 0 143.819 166.277 3
6 14 0 46.9149 69.7172 6
-14 6 0 183.992 150.969 6
-6 14 0 125.653 164.14 6
0 -14 -6 15.5756 65.6227 10
14 -6 0 106.45 125.957 2
14 6 0 46.6878 102.141 10
14 -6 0 34.3319 125.504 10
0 -14 -6 221.767 158.145 5
6 -14 0 10.4603 91.0946 10
0 14 6 84.4915 107.509 9
-14 -6 0 112.373 89.9496 5
-6 14 0 108.151 147.459 1
6 -14 0 141.175 135.076 5
-6 -14 0 40.8893 157.803 5
14 6 0 2.25236 143.559 9
14 -6 0 23.7066 85.8823 9
6 14 0 21.1021 124.552 9
0 -14 -6 29.4031 120.263 4
0 14 6 136.584 133.358 8
14 -6 0 30.5901 101.419 4
6 14 0 128.139 130.492 1
6 14 0 213.805 178.669 8
-6 -14 0 106.725 113.572 4
14 6 0 153.61 106.748 8
6 -14 0 53.0759 159.375 4
0 -14 -6 83.2006 110.711 2
-6 14 0 136.456 181.215 8
14 -6 0 143.371 141.712 16
14 6 0 332.783 194.926 16
0 -14 -6 53.3986 107.292 7
6 14 0 3.13991 97.8858 16
6 14 0 18.5601 104.808 15
14 6 0 1.25476 138.701 15
14 -6 0 163.815 140.703 7
6 -14 0 30.0586 125.971 7
14 -6 0 63.4735 120.034 15
0 14 6 418.475 227.41 3
-6 -14 0 72.0743 84.357 14
0 14 6 185.879 134.289 1
-14 6 0 178.235 151.808 1
-14 2 6 834.193 233.775 11
-14 -6 2 915.951 216.099 11
-6 14 2 711.121 164.219 11
-6 14 2 715.182 223.113 6
-14 6 -2 575.239 137.282 3
2 -14 -6 514.032 134.512 10
6 -14 2 344.976 190.611 2
6 14 -2 389.407 131.807 6
14 -6 -2 646.91 186.669 10
14 6 2 852.626 206.76 10
2 -14 -6 774.818 181.242 5
2 14 6 923.802 212.585 9
-14 -6 2 735.109 179.158 5
14 6 2 543.749 157.949 9
6 -14 2 1474.98 325.175 5
2 -14 -6 407.713 125.045 4
14 -6 -2 715.375 180.589 4
14 6 2 662.204 180.534 8
-6 14 2 642.484 192.108 8
2 -14 -6 972.297 216.604 2
6 -14 2 952.668 328.078 4
2 14 6 693.771 134.406 16
14 6 2 639.693 209.935 16
14 -6 -2 734.755 218.982 16
2 -14 -6 724.549 172.473 7
14 -6 -2 892.052 233.165 7
14 -6 -2 617.044 175.041 15
2 14 6 482.628 157.384 3
14 6 2 539.4 161.106 15
14 -6 -2 750.795 173.363 2
6 -14 2 510.663 191.599 7
2 14 6 815.136 258.776 1
-14 -6 2 1221.63 272.134 14
-15 0 -1 521.526 188.165 13
0 15 1 362.997 181.125 1
-15 0 -1 73.238 97.1854 12
-15 1 0 314.606 120.988 12
-15 -1 0 388.234 142.224 12
-1 -15 0 234.31 137.912 2
0 -15 -1 172.93 105.138 12
-15 0 1 189.93 95.9809 6
0 15 1 283.038 139.461 3
-15 -1 0 286.453 112.382 6
0 15 1 299.485 78.7292 11
-15 1 0 314.971 126.371 6
1 15 0 240.395 149.108 3
-15 0 1 171.937 106.019 11
0 15 1 432.722 165.084 6
-15 0 -1 460.542 134.71 6
-15 -1 0 249.689 136.303 11
0 -15 1 163.362 153.57 2
1 15 0 187.624 105.958 6
0 15 -1 169.413 176.042 3
0 15 -1 415.034 157.116 6
15 0 -1 106.05 126.754 10
15 1 0 11.1736 123.91 10
15 -1 0 511.758 178.856 10
15 0 1 324.502 150.564 10
-15 -1 0 326.267 100.376 5
-1 15 0 163.323 366.976 1
0 -15 -1 87.6533 159.138 5
1 -15 0 180.905 281.945 5
-1 -15 0 416.845 235.124 5
1 15 0 225.465 154.923 1
0 -15 1 348.81 219.855 5
15 0 1 535.524 175.371 9
15 1 0 404.845 125.653 9
15 -1 0 282.488 123.731 9
15 0 -1 391.655 186.561 9
0 15 1 263.692 128.187 9
1 15 0 200.951 113.757 9
0 15 -1 112.388 135.721 9
0 15 1 194.599 139.841 8
0 -15 -1 247.036 129.475 4
1 15 0 86.5803 141.53 8
-1 15 0 50.9979 129.954 8
-1 -15 0 286.059 164.146 4
0 15 -1 168.962 186.394 8
0 -15 1 385.281 243.573 4
15 1 0 519.642 120.07 8
15 0 1 439.43 186.909 16
15 -1 0 1.38866 131.155 16
15 1 0 500.329 206.36 16
15 0 -1 118.397 119.916 16
0 15 -1 125.324 172.576 1
15 0 -1 409.682 150.491 7
15 0 -1 451.308 195.055 15
15 1 0 524.15 154.549 15
15 -1 0 199.517 133.362 7
15 -1 0 353.911 177.825 15
15 1 0 185.376 133.519 7
0 -15 -1 475.378 166.671 7
15 0 1 327.402 160.321 15
15 0 1 49.6385 119.728 7
1 -15 0 67.2954 166.474 7
-1 -15 0 332.84 148.636 7
0 -15 1 348.733 155.493 7
0 -15 -1 273.906 160.068 2
-15 2 1 2554.2 276.448 12
-1 15 2 1997.66 206.073 11
2 15 1 2490.93 338.578 3
-15 2 1 2240.97 276.124 6
2 15 1 1887.05 322.965 1
-1 15 2 2107.2 289.507 6
-15 -1 2 2801.91 335.278 11
2 15 1 2452.29 270.738 6
-15 2 1 1700 297.872 11
2 -15 -1 1892.61 192.374 10
-2 15 -1 2118.54 338.117 6
1 15 -2 1579.39 327.657 3
1 15 -2 2246.12 315.965 6
15 -1 -2 2741.62 342.566 10
15 2 -1 2511.37 329.878 10
-15 -2 -1 1892 230.404 5
-15 -1 2 2731.28 223.079 5
15 -2 1 2632.67 341.737 10
15 1 2 1656.88 301.789 10
15 1 2 2381.35 300.053 9
-1 15 2 2470.52 287.503 9
2 15 1 2640.13 320.16 9
15 2 -1 2035.86 306.249 9
15 -2 1 2425.66 201.998 4
15 1 2 2541.71 216.188 8
1 15 -2 1765.67 354.374 1
-1 15 2 2707.08 351.49 8
2 15 1 1929.03 336.463 8
1 15 -2 1313 327.558 8
15 2 -1 3031.72 296.8 7
-1 15 2 2375.59 358.939 1
15 1 2 1881.54 308.534 16
-2 15 -1 1283.99 323.997 1
1 15 -2 1854.73 202.572 15
15 -1 -2 2792.78 317.144 7
15 -1 -2 1965.93 295.856 15
15 2 -1 2585.85 364.453 15
-1 -15 -2 2676.12 290.283 7
2 -15 -1 2355.31 299.909 7
15 -2 1 2477.33 326.888 15
15 1 2 3098.64 379.812 15
15 -2 1 2812.15 349.225 7
-1 -15 -2 1622.06 303.111 2
15 1 2 2423.13 348.706 7
1 -15 2 1980.65 327.066 7
-2 -15 1 2220.24 319.223 7
-15 -1 2 2517.69 286.86 6
-15 -1 2 2850.56 381.104 14
-15 -2 -1 2387.27 237.517 6
2 -15 -1 1481.54 265.734 2
-15 1 -2 2669.49 305.015 6
-2 15 1 1942.27 337.989 1
-15 2 -1 2358.83 287.435 12
-15 -2 1 2077.62 242.884 6
1 15 2 2713.1 362.24 3
-15 1 2 2723.29 301.081 6
1 15 2 2444.77 297.362 6
-15 1 2 1976.93 335.643 11
-15 -2 1 2422.9 331.073 11
2 -15 1 2121.56 331.992 2
-2 15 1 2184.04 292.422 6
1 -15 -2 2225.64 184.237 10
2 15 -1 2157.46 327.645 3
2 15 -1 1846.21 261.715 6
-1 15 -2 2391.62 335.882 6
-1 15 -2 1585.39 334.842 3
15 1 -2 2250.95 313.171 10
15 -2 -1 2578.67 350.094 10
-1 -15 2 1752.95 349.284 2
-15 -2 1 2355.21 231.739 5
15 2 1 2722.22 339.32 10
15 -1 2 2339.93 335.07 10
15 -1 2 2484.89 288.32 9
-1 15 -2 1602.37 366.011 1
1 15 2 2664.73 315.555 9
-2 15 1 2603.85 290.094 9
2 15 -1 2336.34 355.526 9
15 -1 2 2032.94 164.079 4
15 2 1 2559.65 250.261 8
1 15 2 2341.94 372.686 8
2 15 -1 1835.19 336.807 8
-1 15 -2 2046.47 366.961 8
15 1 -2 2927.62 299.864 7
1 15 2 2986.43 373.556 1
-15 2 -1 2289.09 175.197 3
2 15 -1 1974.23 187.063 15
15 -2 -1 2737.34 329.681 7
15 1 -2 2416 339.854 15
1 -15 -2 2865.27 306.666 7
15 -2 -1 2677.58 326.53 15
15 2 1 2685.91 345.073 15
15 -1 2 2295.27 308.685 15
-2 -15 -1 2178.65 248.912 7
1 -15 -2 2095.89 319.691 2
15 2 1 2195.53 284.195 7
2 -15 1 2560.52 349.083 7
15 -1 2 2481.88 333.23 7
2 15 -1 2657.4 387.401 1
-15 1 2 2916.97 395.484 14
-15 -2 1 2222.17 343.575 14
-15 2 -1 2558.34 301.211 6
-15 -1 -2 2446.82 261.687 6
3 -15 -2 791.166 161.819 12
-15 -3 -2 792.098 219.691 12
-2 -15 -3 663.287 198.519 12
15 -2 -3 748.209 224.764 10
15 3 -2 844.788 219.885 10
-3 -15 2 335.065 175.662 2
15 -3 2 1019.9 228.87 10
3 -15 -2 759.741 137.642 10
15 2 3 870.874 233.612 10
2 -15 3 295.246 186.901 2
-2 -15 -3 459.246 191.349 5
3 -15 -2 589.68 178.799 5
15 2 3 985.01 226.201 9
-15 -2 3 815.877 158.506 5
-2 15 3 564.949 120.894 9
-3 -15 2 605.548 231.145 5
2 -15 3 689.569 279.061 5
15 -2 -3 289.469 132.324 9
15 2 3 541.67 127.961 8
-2 -15 -3 652.772 165.275 4
3 -15 -2 432.739 178.09 4
15 -3 2 558.874 120.632 4
-3 -15 2 1187.61 323.313 4
2 -15 3 1259.87 355.7 4
15 2 3 820.651 238.669 16
15 -3 2 466.69 192.034 16
-15 3 2 780.547 142.88 1
15 3 -2 109.473 170.692 16
15 -2 -3 710.8 132.447 2
15 -2 -3 475.092 183.585 16
15 -2 -3 916.065 215.429 7
15 3 -2 572.869 137.825 7
-2 -15 -3 820.524 170.379 7
-2 -15 -3 446.961 176.425 2
3 -15 -2 381.026 129.126 7
15 2 3 528.522 171.242 15
15 -3 2 656.215 187.023 15
3 -15 -2 396.772 161.274 2
15 -3 2 914.883 265.339 7
-15 2 -3 337.736 199.831 13
-15 0 3 538.08 172.494 6
0 15 3 330.376 169.668 3
-15 0 -3 432.517 161.065 12
0 -15 -3 550.112 144.991 12
-15 3 0 339.229 104.568 12
-15 -3 0 574.769 124.029 6
-15 -3 0 333.17 140.064 12
0 15 3 402.379 145.389 6
-3 -15 0 372.281 181.909 2
-15 0 3 700.63 200.133 11
3 15 0 594.259 226.869 3
-15 3 0 206.138 111.468 6
-15 -3 0 365.393 157.548 11
3 15 0 314.288 124.939 6
-15 0 -3 413.373 139.051 6
15 0 -3 569.848 195.535 10
0 15 -3 444.724 228.707 6
15 3 0 666.339 196.475 10
15 -3 0 169.567 159.08 10
15 0 3 451.361 174.947 10
0 -15 3 107.583 177.906 2
-15 -3 0 419.08 120.254 5
15 -3 0 265.566 141.31 2
0 -15 -3 365.42 162.548 5
15 0 3 324.012 142.71 9
-3 -15 0 660.146 229.77 5
-15 0 3 534.169 102.42 5
0 15 3 684.817 186.511 9
15 3 0 447.22 170.252 9
15 -3 0 339.247 169.298 9
0 -15 3 453.46 228.996 5
3 15 0 285.396 151.112 1
3 15 0 667.034 202.943 9
15 0 -3 576.825 242.277 9
-15 3 0 124.375 122.82 1
0 15 3 488.99 214.058 1
15 -3 0 539.497 118.303 4
15 0 3 412.308 96.3835 8
0 -15 -3 610.196 212.785 4
0 15 3 832.078 228.363 8
-3 -15 0 184.803 187.476 4
0 -15 3 235.328 247.163 4
15 0 3 525.674 179.962 16
15 -3 0 196.946 114.618 16
15 3 0 540.033 217.509 16
15 0 -3 739.913 241.907 16
15 0 -3 676.465 172.804 7
0 -15 -3 416.033 149.831 7
0 -15 -3 388.956 153.831 2
15 0 -3 471.655 212.76 15
3 15 0 262.906 101.014 15
15 3 0 393.839 184.039 15
15 -3 0 233.325 126.977 7
15 -3 0 486.054 148.484 15
15 3 0 454.163 161.85 7
15 0 3 192.073 138.395 15
-3 -15 0 417.429 139.897 7
-15 3 0 410.837 81.8875 3
-15 0 3 413.374 204.997 14
-15 0 -3 150.688 141.075 13
-15 3 -2 635.582 213.884 13
-15 -2 -3 620.623 209.257 13
-15 3 -2 459.716 148.214 12
2 -15 -3 734.002 150.527 12
-15 -2 -3 474.418 165.311 12
-15 2 3 568.526 172.363 6
-3 -15 -2 646.712 201.896 12
3 -15 2 468.651 228.722 2
-15 2 3 467.59 110.137 1
15 -3 -2 491.39 165.286 10
15 3 2 521.247 179.923 10
15 -2 3 763.469 215.501 10
-2 -15 3 148.08 185.744 2
2 -15 -3 553.787 162.836 5
-3 -15 -2 658.066 228.979 5
15 -2 3 574.595 156.515 9
-15 -3 2 738.101 162.178 5
15 3 2 537.77 168.909 9
2 15 3 686.905 183.458 9
3 -15 2 970.046 300.964 5
-2 -15 3 656.224 296.159 5
-3 15 2 529.255 119.372 9
15 -3 -2 1087.05 250.921 9
2 -15 -3 881.924 264.239 4
15 3 2 620.321 133.477 8
-3 -15 -2 642.185 215.97 4
3 -15 2 574.867 251.331 4
15 -2 3 784.021 139.734 4
-2 -15 3 1019.46 340.675 4
15 -2 3 634.349 221.899 16
15 3 2 848.41 250.071 16
2 15 3 793.358 126.225 16
15 -3 -2 782.517 227.69 16
15 2 -3 678.144 204.249 16
15 2 -3 671.182 155.035 7
15 -3 -2 689.471 178.692 7
2 -15 -3 770.257 186.077 7
15 -3 -2 677.755 213.984 15
-3 -15 -2 587.549 148.278 7
15 3 2 536.895 184.189 15
15 -2 3 737.52 222.726 15
-3 -15 -2 360.168 117.129 2
3 -15 2 423.199 190.514 7
15 -3 -2 727.948 133.901 2
15 -2 3 530.948 245.077 7
#BEGIN Loops that were not found in dictionaries:
loop_
_smtbx_masks_void_nr
_smtbx_masks_void_average_x
_smtbx_masks_void_average_y
_smtbx_masks_void_average_z
_smtbx_masks_void_volume
_smtbx_masks_void_count_electrons
1 -0.330 -0.859 -0.733 13801.1 1602.4
2 0.000 0.250 0.500 9.1 0.0
3 0.000 0.500 0.250 9.1 0.0
4 0.000 0.500 0.750 9.1 0.0
5 0.000 0.750 0.500 9.1 0.0
6 0.250 0.000 0.500 9.1 0.0
7 0.250 0.500 0.000 9.1 0.0
8 0.500 0.000 0.250 9.1 0.0
9 0.500 0.000 0.750 9.1 0.0
10 0.500 0.250 0.000 9.1 0.0
11 0.500 0.750 0.000 9.1 0.0
12 0.750 0.000 0.500 9.1 0.0
13 0.750 0.500 0.000 9.1 0.0
#END Loops that were not found in dictionaries
