#------------------------------------------------------------------------------
#$Date: 2017-12-10 21:25:10 +0200 (Sun, 10 Dec 2017) $
#$Revision: 204138 $
#$URL: file:///home/coder/svn-repositories/cod/cif/7/22/77/7227787.cif $
#------------------------------------------------------------------------------
#
# This file is available in the Crystallography Open Database (COD),
# http://www.crystallography.net/
#
# All data on this site have been placed in the public domain by the
# contributors.
#
data_7227787
loop_
_publ_author_name
'Patyk-Ka\'zmierczak, Ewa'
'Warren, Mark R.'
'Allan, David R.'
'Katrusiak, Andrzej'
_publ_section_title
;
 Pressure inverse solubility and polymorphism of an edible
 \g-cyclodextrin-based metal-organic framework.
;
_journal_issue                   13
_journal_name_full               'Physical chemistry chemical physics : PCCP'
_journal_page_first              9086
_journal_page_last               9091
_journal_paper_doi               10.1039/c7cp00593h
_journal_volume                  19
_journal_year                    2017
_chemical_absolute_configuration rm
_chemical_formula_moiety         'C48 H80 O40, 2(KOH)'
_chemical_formula_sum            'C48 H82 K2 O42'
_chemical_formula_weight         1409.34
_chemical_name_common            '\g-cyclodextrin-metal-organic framework'
_chemical_name_systematic
'catena-((\m8-\g-Cyclodextrin)-di-potassium dihydroxide)'
_space_group_crystal_system      trigonal
_space_group_IT_number           155
_space_group_name_Hall           'R 3 2"'
_space_group_name_H-M_alt        'R 3 2 :H'
_atom_sites_solution_hydrogens   geom
_atom_sites_solution_primary     direct
_audit_creation_date             2017-01-19
_audit_creation_method
;
Olex2 1.2
(compiled 2017.01.04 svn.r3372 for OlexSys, GUI svn.r5289)
;
_cell_angle_alpha                90.0
_cell_angle_beta                 90.0
_cell_angle_gamma                120.0
_cell_formula_units_Z            18
_cell_length_a                   43.643(13)
_cell_length_b                   43.643(13)
_cell_length_c                   28.059(13)
_cell_measurement_reflns_used    1785
_cell_measurement_temperature    219.98(10)
_cell_measurement_theta_max      11.8570
_cell_measurement_theta_min      2.9400
_cell_volume                     46284(3)
_computing_cell_refinement       'CrysAlisPro 1.171.38.41 (Rigaku OD, 2015)'
_computing_data_collection       'CrysAlisPro 1.171.38.41 (Rigaku OD, 2015)'
_computing_data_reduction        'CrysAlisPro 1.171.38.41 (Rigaku OD, 2015)'
_computing_molecular_graphics    'Olex2 (Dolomanov et al., 2009)'
_computing_publication_material  'Olex2 (Dolomanov et al., 2009)'
_computing_structure_refinement  'ShelXL (Sheldrick, 2015)'
_computing_structure_solution    'ShelXS (Sheldrick, 2008)'
_diffrn_ambient_environment      'ispropanol:water mother liquor'
_diffrn_ambient_temperature      219.98(10)
_diffrn_detector                 'CCD plate'
_diffrn_detector_area_resol_mean 16.1544
_diffrn_detector_type            Eos
_diffrn_measured_fraction_theta_full 0.970
_diffrn_measured_fraction_theta_max 0.970
_diffrn_measurement_details
;
List of Runs (angles in degrees, time in seconds):

  # Type    Start    End  Width  t~exp~   \w     \q     \k     \f   Frames
--------------------------------------------------------------------------
  1  \w    -68.00  54.00   1.00   15.00    --  -18.72   0.00-150.00  122
  2  \w    -73.00  20.00   1.00   15.00    --  -18.72 -19.00  60.00   93
  3  \w    -40.00   8.00   1.00   15.00    --  -18.72  57.00  60.00   48
  4  \w    -25.00  23.00   1.00   15.00    --  -18.72 -99.00   0.00   48
;
_diffrn_measurement_device       'four-circle diffractometer'
_diffrn_measurement_device_type  'Xcalibur, Eos'
_diffrn_measurement_method       '\w scans'
_diffrn_orient_matrix_type
'CrysAlisPro convention (1999,Acta A55,543-557)'
_diffrn_orient_matrix_UB_11      -0.0054142000
_diffrn_orient_matrix_UB_12      -0.0127217000
_diffrn_orient_matrix_UB_13      0.0184868000
_diffrn_orient_matrix_UB_21      -0.0167542000
_diffrn_orient_matrix_UB_22      -0.0008704000
_diffrn_orient_matrix_UB_23      0.0008553000
_diffrn_orient_matrix_UB_31      -0.0066131000
_diffrn_orient_matrix_UB_32      -0.0136594000
_diffrn_orient_matrix_UB_33      -0.0171618000
_diffrn_radiation_monochromator  graphite
_diffrn_radiation_probe          x-ray
_diffrn_radiation_type           MoK\a
_diffrn_radiation_wavelength     0.71073
_diffrn_reflns_av_R_equivalents  0.1632
_diffrn_reflns_av_unetI/netI     0.1028
_diffrn_reflns_Laue_measured_fraction_full 0.970
_diffrn_reflns_Laue_measured_fraction_max 0.970
_diffrn_reflns_limit_h_max       28
_diffrn_reflns_limit_h_min       -28
_diffrn_reflns_limit_k_max       28
_diffrn_reflns_limit_k_min       -28
_diffrn_reflns_limit_l_max       18
_diffrn_reflns_limit_l_min       -18
_diffrn_reflns_number            21248
_diffrn_reflns_point_group_measured_fraction_full 0.969
_diffrn_reflns_point_group_measured_fraction_max 0.969
_diffrn_reflns_theta_full        13.698
_diffrn_reflns_theta_max         13.698
_diffrn_reflns_theta_min         2.762
_diffrn_source                   'fine-focus sealed X-ray tube'
_diffrn_source_type              'Enhance (Mo) X-ray Source'
_exptl_absorpt_coefficient_mu    0.158
_exptl_absorpt_correction_T_max  1.00000
_exptl_absorpt_correction_T_min  0.30559
_exptl_absorpt_correction_type   multi-scan
_exptl_absorpt_process_details
;
CrysAlisPro 1.171.38.41 (Rigaku Oxford Diffraction, 2015)
Empirical absorption correction using spherical harmonics,
 implemented in SCALE3 ABSPACK scaling algorithm.
;
_exptl_crystal_colour            'clear colourless'
_exptl_crystal_colour_lustre     clear
_exptl_crystal_colour_primary    colourless
_exptl_crystal_density_diffrn    0.910
_exptl_crystal_description       cube
_exptl_crystal_F_000             13392
_exptl_crystal_recrystallization_method
'Crystal grown from water solution by isopropanol vapour difussion method'
_exptl_crystal_size_max          0.5
_exptl_crystal_size_mid          0.48
_exptl_crystal_size_min          0.47
_refine_diff_density_max         0.176
_refine_diff_density_min         -0.193
_refine_diff_density_rms         0.034
_refine_ls_abs_structure_details
;
 Flack x determined using 770 quotients [(I+)-(I-)]/[(I+)+(I-)]
 (Parsons, Flack and Wagner, Acta Cryst. B69 (2013) 249-259).
;
_refine_ls_abs_structure_Flack   0.13(13)
_refine_ls_extinction_method     none
_refine_ls_goodness_of_fit_ref   1.181
_refine_ls_hydrogen_treatment    constr
_refine_ls_matrix_type           full
_refine_ls_number_parameters     330
_refine_ls_number_reflns         3100
_refine_ls_number_restraints     328
_refine_ls_restrained_S_all      1.337
_refine_ls_R_factor_all          0.0949
_refine_ls_R_factor_gt           0.0740
_refine_ls_shift/su_max          0.000
_refine_ls_shift/su_mean         0.000
_refine_ls_structure_factor_coef Fsqd
_refine_ls_weighting_details
'w=1/[\s^2^(Fo^2^)+(0.0558P)^2^] where P=(Fo^2^+2Fc^2^)/3'
_refine_ls_weighting_scheme      calc
_refine_ls_wR_factor_gt          0.1509
_refine_ls_wR_factor_ref         0.1618
_reflns_Friedel_coverage         0.853
_reflns_Friedel_fraction_full    0.967
_reflns_Friedel_fraction_max     0.967
_reflns_number_gt                2440
_reflns_number_total             3100
_reflns_threshold_expression     'I > 2\s(I)'
_iucr_refine_instructions_details
;

    heks.res created by SHELXL-2014/7

TITL heks in R32 #155
REM reset to R32 #155
CELL 0.71073 43.642843 43.642843 28.059279 90 90 120
ZERR 18 0.012934 0.012934 0.012784 0 0 0
LATT -3
SYMM -Y,+X-Y,+Z
SYMM +Y-X,-X,+Z
SYMM -Y+X,-Y,-Z
SYMM -X,-X+Y,-Z
SYMM +Y,+X,-Z
SFAC C H K O
UNIT 864 1440 36 756
DFIX 1.5 C64 C65
DFIX 1.5 C65 C66
DFIX 1.5 C2 C3
DFIX 1.5 C2 C1
DFIX 1.5 C23 C24
DFIX 1.5 C23 C22
DFIX 1.5 C15 C16
DFIX 1.5 C45 C46
DFIX 1.5 0.002 C35 C36
DFIX 1.5 C64 C63
DFIX 1.5 0.005 C4 C3
DFIX 3.5 C4 C1
DFIX 1.5 0.005 C4 C5
DFIX 2.5 C5 C3
DFIX 1.5 C13 C14
DFIX 1.5 C13 C12
DFIX 1.5 C42 C43
DFIX 1.5 C21 C22
DFIX 1.5 0.005 C6 C5
DFIX 1.5 C72 C73
DFIX 1.5 C26 C25
DFIX 1.45 O15 C11
DFIX 2.5 C2 O5
DFIX 1.45 O5 C1
DFIX 1.45 C31 O44
DFIX 1.45 0.005 C31 O35
DFIX 3 C33 O35
DFIX 1.45 O12 C12
DFIX 1.45 O23 C23
DFIX 1.45 0.005 C26 O26
DFIX 1.45 C6 O6
DFIX 2.45 C35 O36
DFIX 1.45 O22 C22
DFIX 1.45 C72 O72
DFIX 1.45 C16 O16
DFIX 1.45 O4 C4
DFIX 1.45 O3 C3
DFIX 1.45 O2 C2
DFIX 1.45 0.005 O63 C63
DFIX 1.45 O43 C43
DFIX 1.5 C14 C15
DFIX 1.5 C24 C25
DFIX 1.5 C65 C64
DFIX 1.45 O14 C1
DFIX 1.45 0.01 O15 C15
DFIX 1.45 0.01 C21 O25
DFIX 1.45 0.01 O25 C25
DFIX 1.45 0.01 O44 C44
DFIX 1.45 0.01 O54 C41
DFIX 1.45 O13 C13
DFIX 1.45 C12 O12
DFIX 1.45 C22 O22
DFIX 1.45 0.01 O14 C14
DFIX 1.5 C31 C32
DFIX 1.5 C33 C32
DFIX 1.45 O32 C32
DFIX 1.45 0.01 C5 O5
DFIX 1.45 C45 O45
DFIX 1.5 C62 C61
DFIX 1.45 C62 O62
DFIX 1.5 C75 O75
DFIX 1.45 O75 C71
DFIX 1.5 C75 C76
DFIX 1.45 0.005 O76 C76
DFIX 1.5 C62 C63
DFIX 1.5 C32 C33
DFIX 1.5 C36 C35
DFIX 1.45 C61 O74
DFIX 1.5 C61 C62
DFIX 1.45 C61 O65
DFIX 1.45 0.01 O36 C36
DFIX 1.45 O75 C75
DFIX 1.45 C41 O45
DFIX 1.45 0.01 C71 O75
DFIX 1.5 C71 C72
DFIX 1.45 O73 C73
DFIX 1.5 C74 C75
DFIX 1.5 0.005 C74 C73
DFIX 1.45 O34 C21
DFIX 1.45 0.01 C21 O34
DFIX 3.8 C6 K2
DFIX 3.8 C1 K2
DFIX 1.5 C43 C44
DFIX 1.5 0.01 C44 C43
DFIX 1.5 0.01 C72 C71
DFIX 1.45 0.01 C71 O4
DFIX 1.5 0.002 C35 C34
DFIX 1.5 C33 C34
DFIX 1.5 C34 C35
DFIX 1.45 0.01 C34 O34
DFIX 1.45 0.01 C33 O33
DFIX 1.45 O72 C72
DFIX 1.5 0.01 C41 C42
DFIX 1.5 0.01 C34 C33
DFIX 1.5 0.01 C44 C45
DFIX 1.45 0.01 C35 O35
DFIX 1.5 C52 C53
DFIX 1.5 C54 C55
DFIX 1.5 C54 C53
DFIX 1.5 C53 C52
DFIX 1.45 O54 C54
DFIX 1.45 O52 C52
DFIX 1.45 C51 O64
DFIX 1.5 C55 C56
DFIX 1.45 0.005 O56 C56
DFIX 1.5 C56 C55
DFIX 1.45 O64 C51
DFIX 1.45 C51 O55
DFIX 1.5 C51 C52
DFIX 1.45 C55 O55
DFIX 1.45 0.01 O55 C51
DFIX 1.45 0.01 O55 C55
DANG 2.5 C43 C45
DANG 2.5 C11 C13
DANG 2.5 C71 C73
DANG 2.5 C75 C73
DANG 2.5 O25 C24
DANG 2.5 C5 O4
DANG 2.5 O14 C2
DANG 2.5 O25 C22
DANG 2.5 C21 C25
DANG 2.5 C23 O24
DANG 2.5 C23 C25
DANG 2.5 C21 O22
DANG 2.5 C71 O72
DANG 2.5 C71 C4
DANG 2.5 O4 C3
DANG 2.5 O4 C5
DANG 2.5 O3 C2
DANG 2.5 C63 C65
DANG 2.5 C64 O65
DANG 2.5 C65 C61
DANG 2.5 C61 C63
DANG 2.5 C26 O25
DANG 2.5 C26 C24
DANG 2.5 0.01 C15 C11
DANG 2.5 0.01 C35 C31
DANG 2.5 0.01 C44 C31
DANG 2.5 C41 C45
DANG 2.5 C43 C41
DANG 2.5 C45 C41
DANG 2.5 0.01 C4 C71
DANG 2.5 0.01 C1 C14
DANG 2.5 0.01 C2 C4
DANG 2.5 0.01 C4 O5
DANG 2.5 0.02 O5 C4
DANG 2.5 0.02 O15 C12
DANG 2.5 O25 C26
DANG 2.5 0.02 C44 O45
DANG 2.5 C66 O65
DANG 2.5 C66 C64
DANG 2.5 C1 O2
DANG 2.5 C1 C3
DANG 2.5 C3 O2
DANG 2.5 C12 C14
DANG 2.5 0.02 O13 C14
DANG 2.5 0.02 O13 C12
DANG 2.5 C14 O15
DANG 2.5 O24 C23
DANG 2.5 O76 C75
DANG 2.5 C13 C15
DANG 2.5 O14 C13
DANG 2.5 O24 C25
DANG 2.5 0.01 C25 O24
DANG 2.5 C64 C62
DANG 2.5 C62 C64
DANG 2.5 O62 C61
DANG 2.5 O62 C63
DANG 2.5 0.02 O75 C76
DANG 2.5 C15 C13
DANG 2.5 C13 O14
DANG 2.5 O14 C15
DANG 2.5 O45 C44
DANG 2.5 C35 C33
DANG 2.5 C33 C31
DANG 2.5 C32 O35
DANG 2.5 C31 C35
DANG 2.5 O65 C64
DANG 2.5 C61 C65
DANG 2.5 C63 C61
DANG 2.5 C72 O75
DANG 2.5 C31 O32
DANG 2.5 C24 O23
DANG 2.5 C72 O4
DANG 2.5 O75 C74
DANG 2.5 0.01 C74 C76
DANG 2.5 C61 C74
DANG 2.5 0.02 O73 C74
DANG 2.5 0.02 C72 O73
DANG 2.5 0.01 C24 C11
DANG 2.5 0.02 C71 C75
DANG 2.5 0.02 O23 C24
DANG 2.5 0.02 O23 C22
DANG 2.5 0.01 O45 C42
DANG 2.5 0.01 C41 C43
DANG 2.5 0.01 C42 C44
DANG 2.5 0.01 O43 C42
DANG 2.5 0.01 O42 C43
DANG 2.5 0.01 O42 C41
DANG 2.5 0.01 O4 O75
DANG 2.5 0.01 O4 C72
DANG 2.5 0.01 O75 C72
DANG 2.5 0.01 O26 C25
DANG 2.5 C32 C34
DANG 2.5 C34 C32
DANG 2.5 O35 C34
DANG 2.5 O33 C34
DANG 2.5 0.01 C34 C21
DANG 2.45 0.01 C34 O33
DANG 2.45 0.01 O33 C32
DANG 2.5 0.01 C36 C34
DANG 2.5 0.01 C36 O35
DANG 2.5 0.01 C34 C36
DANG 2.4 0.02 O36 C35
DANG 2.5 C53 C55
DANG 2.5 0.02 C54 C41
DANG 2.5 0.02 C54 C52
DANG 2.5 0.01 C41 C54
DANG 2.5 O52 C51
DANG 2.5 O52 C53
DANG 2.5 0.01 C53 O52
DANG 2.5 0.01 C52 O55
DANG 2.5 C54 O55
DANG 2.5 O55 C56
DANG 2.5 C56 C54
DANG 2.5 O55 C54
DANG 2.5 C54 C56
DANG 2.5 C56 O55
DANG 2.5 C55 C51 C54 O55
DANG 2.5 0.01 C55 C51
SIMU
RIGU
 
L.S. 100
PLAN  20
CONN 1 H26
CONN 1 H52a
CONN 1 H46
BOND
MORE -1
BOND $H
CONF
ABIN
fmap 2
acta 52
OMIT -6 6 6
OMIT -1 4 7
OMIT -15 11 1
OMIT -4 4 7
OMIT -3 15 6
OMIT 0 0 15
OMIT 0 14 4
OMIT 4 10 6
OMIT -2 7 12
OMIT 1 8 11
OMIT -12 15 6
OMIT -2 11 8
OMIT -5 4 6
OMIT -4 5 6
OMIT 0 21 0
OMIT 0 10 5
OMIT -5 10 6
OMIT -5 12 1
OMIT 3 14 7
OMIT -9 11 10
OMIT 5 12 5
OMIT -3 14 4
OMIT 0 9 6
OMIT -10 10 1
OMIT 0 4 5
OMIT 0 15 3
OMIT 0 7 2
OMIT -4 4 10
OMIT -5 9 13
OMIT -4 16 4
OMIT -1 9 11
OMIT 0 17 7
OMIT -5 7 9
OMIT -3 3 6
OMIT -7 18 11
OMIT 0 3 15
OMIT -5 9 1
OMIT 0 14 7
OMIT 1 16 6
OMIT 1 10 0
OMIT 0 4 11
OMIT -4 12 2
OMIT -6 7 8
OMIT -2 2 5
OMIT 3 5 4
OMIT -5 10 0
OMIT 0 2 7
OMIT 1 6 4
OMIT 2 20 3
OMIT -13 13 1
OMIT -7 6 8
OMIT -1 16 1
OMIT 1 9 1
OMIT -5 11 11
OMIT -2 6 1
OMIT 0 20 7
OMIT 5 13 4
OMIT 0 8 10
OMIT -1 10 1
REM <olex2.extras>
REM <HklSrc "%.\\heks.hkl">
REM </olex2.extras>
 
WGHT    0.055800
FVAR       0.21682   0.16569   0.19401   0.24522   0.06471
C1    1    0.744497    0.662460    0.404649    11.00000    0.13253
AFIX  13
H1    2    0.753361    0.677477    0.376256    11.00000   -1.20000
AFIX   0
C2    1    0.728284    0.674619    0.445311    11.00000    0.11581
AFIX  13
H2    2    0.713509    0.683706    0.432381    11.00000   -1.20000
AFIX   0
C3    1    0.711457    0.651451    0.486951    11.00000    0.12932
AFIX  13
H3    2    0.729225    0.644875    0.495243    11.00000   -1.20000
AFIX   0
C4    1    0.679902    0.615829    0.476671    11.00000    0.13436
AFIX  13
H4    2    0.659847    0.618758    0.467503    11.00000   -1.20000
AFIX   0
C5    1    0.689138    0.599372    0.435931    11.00000    0.15876
AFIX  13
H5    2    0.704184    0.590982    0.449946    11.00000   -1.20000
AFIX   0
C6    1    0.659050    0.567343    0.412837    11.00000    0.25246
AFIX  23
H6A   2    0.646166    0.548657    0.435886    11.00000   -1.20000
H6B   2    0.667388    0.558361    0.387331    11.00000   -1.20000
AFIX   0
C11   1    0.861213    0.667947    0.370160    11.00000    0.10259
AFIX  13
H11   2    0.880206    0.674430    0.346849    11.00000   -1.20000
AFIX   0
C12   1    0.860610    0.701926    0.382589    11.00000    0.09905
AFIX  13
H12   2    0.858877    0.713722    0.353841    11.00000   -1.20000
AFIX   0
C13   1    0.829853    0.692137    0.415607    11.00000    0.12570
AFIX  13
H13   2    0.836479    0.685839    0.445885    11.00000   -1.20000
AFIX   0
C14   1    0.799158    0.659451    0.398399    11.00000    0.16809
AFIX  13
H14   2    0.794392    0.668407    0.368944    11.00000   -1.20000
AFIX   0
C15   1    0.797158    0.626951    0.379766    11.00000    0.12028
AFIX  13
H15   2    0.802974    0.615984    0.406086    11.00000   -1.20000
AFIX   0
C16   1    0.769530    0.597827    0.350347    11.00000    0.20146
AFIX  23
H16A  2    0.776373    0.580258    0.343698    11.00000   -1.20000
H16B  2    0.747180    0.586398    0.367333    11.00000   -1.20000
AFIX   0
C21   1    0.933714    0.622808    0.465341    11.00000    0.14706
AFIX  13
H21   2    0.954791    0.620321    0.467179    11.00000   -1.20000
AFIX   0
C22   1    0.951751    0.662001    0.468369    11.00000    0.11969
AFIX  13
H22   2    0.970400    0.672571    0.444181    11.00000   -1.20000
AFIX   0
C23   1    0.922044    0.667233    0.455057    11.00000    0.10940
AFIX  13
H23   2    0.906806    0.657248    0.483075    11.00000   -1.20000
AFIX   0
C24   1    0.896202    0.646585    0.415771    11.00000    0.07314
AFIX  13
H24   2    0.910875    0.658684    0.387944    11.00000   -1.20000
AFIX   0
C25   1    0.890949    0.611228    0.408161    11.00000    0.19051
AFIX  13
H25   2    0.872936    0.595140    0.430738    11.00000   -1.20000
AFIX   0
C26   1    0.879611    0.595995    0.358794    11.00000    0.16557
AFIX  23
H26A  2    0.869579    0.570550    0.360485    11.00000   -1.20000
H26B  2    0.861120    0.600507    0.347987    11.00000   -1.20000
AFIX   0
C31   1    0.934490    0.548416    0.620825    11.00000   31.00000
AFIX  13
H31   2    0.943523    0.535583    0.639361    11.00000   -1.20000
AFIX   0
C32   1    0.958485    0.587591    0.618089    11.00000   31.00000
AFIX  13
H32   2    0.979637    0.588984    0.603802    11.00000   -1.20000
AFIX   0
C33   1    0.951600    0.609419    0.584793    11.00000   31.00000
AFIX  13
H33   2    0.932251    0.610962    0.600161    11.00000   -1.20000
AFIX   0
C34   1    0.935924    0.592092    0.538242    11.00000   31.00000
AFIX  13
H34   2    0.956041    0.595317    0.518939    11.00000   -1.20000
AFIX   0
C35   1    0.912098    0.552847    0.541714    11.00000   31.00000
AFIX  13
H35   2    0.892861    0.553988    0.558093    11.00000   -1.20000
AFIX   0
C36   1    0.891375    0.535739    0.497469    11.00000   31.00000
AFIX  23
H36A  2    0.881996    0.550084    0.484866    11.00000   -1.20000
H36B  2    0.871491    0.512760    0.505624    11.00000   -1.20000
AFIX   0
C41   1    0.835356    0.490157    0.752060    11.00000    0.12296
AFIX  13
H41   2    0.827621    0.475908    0.781224    11.00000   -1.20000
AFIX   0
C42   1    0.863686    0.526333    0.763109    11.00000    0.08892
AFIX  13
H42   2    0.881644    0.520654    0.773829    11.00000   -1.20000
AFIX   0
C43   1    0.882743    0.547840    0.719949    11.00000    0.11595
AFIX  13
H43   2    0.869957    0.559415    0.708024    11.00000   -1.20000
AFIX   0
C44   1    0.886059    0.526934    0.680482    11.00000    0.11845
AFIX  13
H44   2    0.904763    0.522631    0.692058    11.00000   -1.20000
AFIX   0
C45   1    0.855783    0.490271    0.672977    11.00000    0.10178
AFIX  13
H45   2    0.837215    0.494780    0.661400    11.00000   -1.20000
AFIX   0
C46   1    0.853278    0.462683    0.638257    11.00000    0.05539
AFIX  23
H46A  2    0.856861    0.471566    0.605851    11.00000   -1.20000
H46B  2    0.830299    0.441386    0.640336    11.00000   -1.20000
AFIX   0
C51   1    0.707609    0.470541    0.779005    11.00000   51.00000
AFIX  13
H51   2    0.684041    0.456857    0.793263    11.00000   -1.20000
AFIX   0
C52   1    0.733261    0.487857    0.820166    11.00000   51.00000
AFIX  13
H52   2    0.732736    0.470955    0.843609    11.00000   -1.20000
AFIX   0
C53   1    0.766960    0.505577    0.790638    11.00000   51.00000
AFIX  13
H53   2    0.766220    0.522188    0.767809    11.00000   -1.20000
AFIX   0
C54   1    0.775381    0.481151    0.766509    11.00000   51.00000
AFIX  13
H54   2    0.775959    0.464381    0.789207    11.00000   -1.20000
AFIX   0
C55   1    0.747679    0.461389    0.726944    11.00000   51.00000
AFIX  13
H55   2    0.748366    0.478836    0.704333    11.00000   -1.20000
AFIX   0
C56   1    0.753658    0.435412    0.700383    11.00000   51.00000
AFIX  23
H56A  2    0.734221    0.421093    0.678973    11.00000   -1.20000
H56B  2    0.775658    0.446854    0.682594    11.00000   -1.20000
AFIX   0
C61   1    0.625779    0.512502    0.688989    11.00000    0.13842
AFIX  13
H61   2    0.604633    0.514901    0.687798    11.00000   -1.20000
AFIX   0
C62   1    0.651644    0.535310    0.725578    11.00000    0.16717
AFIX  13
H62   2    0.635495    0.523975    0.752427    11.00000   -1.20000
AFIX   0
C63   1    0.678570    0.526118    0.742786    11.00000    0.10331
AFIX  13
H63   2    0.699269    0.540517    0.722716    11.00000   -1.20000
AFIX   0
C64   1    0.671349    0.489701    0.735003    11.00000    0.15804
AFIX  13
H64   2    0.656662    0.475655    0.761832    11.00000   -1.20000
AFIX   0
C65   1    0.649878    0.473167    0.690467    11.00000    0.11467
AFIX  13
H65   2    0.663807    0.486876    0.662940    11.00000   -1.20000
AFIX   0
C66   1    0.640587    0.435783    0.683533    11.00000    0.18606
AFIX  23
H66A  2    0.660889    0.432458    0.686327    11.00000   -1.20000
H66B  2    0.628386    0.425983    0.653669    11.00000   -1.20000
AFIX   0
C71   1    0.632211    0.570861    0.527958    11.00000    0.15126
AFIX  13
H71   2    0.621224    0.575267    0.500322    11.00000   -1.20000
AFIX   0
C72   1    0.619779    0.583957    0.568939    11.00000    0.15281
AFIX  13
H72   2    0.594073    0.573103    0.572297    11.00000   -1.20000
AFIX   0
C73   1    0.638556    0.577078    0.609400    11.00000    0.07717
AFIX  13
H73   2    0.663230    0.592204    0.599581    11.00000   -1.20000
AFIX   0
C74   1    0.636073    0.541636    0.608111    11.00000    0.10720
AFIX  13
H74   2    0.610821    0.527901    0.615852    11.00000   -1.20000
AFIX   0
C75   1    0.633985    0.521307    0.563595    11.00000    0.18121
AFIX  13
H75   2    0.658086    0.527834    0.553998    11.00000   -1.20000
AFIX   0
C76   1    0.613147    0.482257    0.569476    11.00000    0.27237
AFIX  23
H76A  2    0.611730    0.471330    0.538836    11.00000   -1.20000
H76B  2    0.625819    0.475115    0.591023    11.00000   -1.20000
AFIX   0
K1    3    0.894396    0.789947    0.418417    11.00000    0.15695    0.15346 =
         0.21708   -0.07960   -0.02791    0.13376
K2    3    0.666667    0.639414    0.333333    10.50000    0.43575    0.24330 =
         0.36160   -0.16509   -0.33017    0.21787
K3    3    0.973761    0.640428    0.333333    10.50000    0.10979    0.10979 =
         0.42243   -0.06754    0.06754    0.02179
O2    4    0.761958    0.703008    0.462340    11.00000   21.00000
AFIX  83
H2A   2    0.761348    0.704313    0.491445    11.00000   -1.50000
AFIX   0
O3    4    0.708413    0.666684    0.531991    11.00000   21.00000
AFIX  83
H3A   2    0.693324    0.651006    0.548750    11.00000   -1.50000
AFIX   0
O4    4    0.670457    0.593210    0.518206    11.00000   21.00000
O5    4    0.710452    0.623786    0.398178    11.00000   21.00000
O6    4    0.636613    0.581837    0.393882    11.00000   21.00000
AFIX  83
H6    2    0.616343    0.569887    0.403914    11.00000   -1.50000
AFIX   0
O12   4    0.893145    0.726052    0.411104    11.00000   21.00000
AFIX  83
H12A  2    0.896554    0.714470    0.431249    11.00000   -1.50000
AFIX   0
O13   4    0.824852    0.722286    0.426550    11.00000   21.00000
AFIX  83
H13A  2    0.803799    0.715151    0.431245    11.00000   -1.50000
AFIX   0
O14   4    0.766337    0.650038    0.424679    11.00000   21.00000
O15   4    0.827426    0.641815    0.346492    11.00000   21.00000
O16   4    0.765826    0.613304    0.305266    11.00000   21.00000
AFIX  83
H16   2    0.784711    0.622566    0.290883    11.00000   -1.50000
AFIX   0
O22   4    0.966277    0.677260    0.515400    11.00000   21.00000
AFIX  83
H22A  2    0.955940    0.687182    0.525847    11.00000   -1.50000
AFIX   0
O23   4    0.928898    0.703919    0.456699    11.00000   21.00000
AFIX  83
H23A  2    0.948264    0.716724    0.468944    11.00000   -1.50000
AFIX   0
O24   4    0.869882    0.655148    0.409992    11.00000   21.00000
O25   4    0.923445    0.610269    0.417248    11.00000   21.00000
O26   4    0.907918    0.610119    0.323838    11.00000   21.00000
AFIX  83
H26   2    0.899652    0.609154    0.297271    11.00000   -1.50000
AFIX   0
O32   4    0.972289    0.604385    0.664099    11.00000   21.00000
AFIX  83
H32A  2    0.956916    0.594729    0.684492    11.00000   -1.50000
AFIX   0
O33   4    0.979174    0.645665    0.581726    11.00000   21.00000
AFIX  83
H33A  2    0.973585    0.656082    0.562358    11.00000   -1.50000
AFIX   0
O34   4    0.914854    0.600860    0.506413    11.00000   21.00000
O35   4    0.916004    0.531160    0.577206    11.00000   21.00000
O36   4    0.912270    0.531238    0.460781    11.00000   21.00000
AFIX  83
H36   2    0.904006    0.510100    0.455262    11.00000   -1.50000
AFIX   0
O42   4    0.862562    0.544197    0.804211    11.00000   21.00000
AFIX  83
H42A  2    0.869943    0.565071    0.797823    11.00000   -1.50000
AFIX   0
O43   4    0.919012    0.574096    0.726232    11.00000   21.00000
AFIX  83
H43A  2    0.922487    0.580476    0.754160    11.00000   -1.50000
AFIX   0
O44   4    0.897566    0.539428    0.632037    11.00000   21.00000
O45   4    0.840586    0.470915    0.714853    11.00000   21.00000
O46   4    0.883120    0.455013    0.653181    11.00000   21.00000
AFIX  83
H46   2    0.877993    0.444462    0.678716    11.00000   -1.50000
AFIX   0
O52   4    0.722221    0.511825    0.839321    11.00000   21.00000
AFIX  83
H52A  2    0.737956    0.526637    0.856296    11.00000   -1.50000
AFIX   0
O53   4    0.795335    0.524353    0.825172    11.00000   21.00000
AFIX  83
H53A  2    0.813716    0.526099    0.814831    11.00000   -1.50000
AFIX   0
O54   4    0.807453    0.496653    0.734815    11.00000   21.00000
O55   4    0.713745    0.445288    0.752522    11.00000   21.00000
O56   4    0.755217    0.414834    0.739961    11.00000   21.00000
AFIX  83
H56   2    0.775658    0.419208    0.743595    11.00000   -1.50000
AFIX   0
O62   4    0.660444    0.571111    0.739028    11.00000   21.00000
AFIX  83
H62A  2    0.670570    0.576141    0.764874    11.00000   -1.50000
AFIX   0
O63   4    0.689860    0.541210    0.789910    11.00000   21.00000
AFIX  83
H63A  2    0.699814    0.531850    0.803214    11.00000   -1.50000
AFIX   0
O64   4    0.704750    0.493155    0.741897    11.00000   21.00000
O65   4    0.617888    0.476966    0.693900    11.00000   21.00000
O66   4    0.614385    0.420742    0.729444    11.00000   21.00000
AFIX  83
H66   2    0.625873    0.421867    0.753171    11.00000   -1.50000
AFIX   0
O72   4    0.639945    0.623245    0.568084    11.00000   21.00000
AFIX  83
H72A  2    0.643301    0.630815    0.595463    11.00000   -1.50000
AFIX   0
O73   4    0.638512    0.594491    0.654034    11.00000   21.00000
AFIX  83
H73A  2    0.656682    0.599897    0.668943    11.00000   -1.20000
AFIX   0
O74   4    0.649409    0.530762    0.654189    11.00000   21.00000
O75   4    0.618351    0.533022    0.525911    11.00000   21.00000
O76   4    0.577494    0.468666    0.587580    11.00000   21.00000
AFIX  83
H76   2    0.568956    0.480007    0.576078    11.00000   -1.50000
AFIX   0
 
OA    4    0.753574    0.700604    0.592481    11.00000   41.00000
OB    4    0.949551    0.711353    0.571600    11.00000   41.00000
HKLF 4
 
REM  heks in R32 #155
REM R1 =  0.0740 for    2440 Fo > 4sig(Fo)  and  0.0949 for all    3100 data
REM    330 parameters refined using    328 restraints
 
END  
     
WGHT      0.0900     23.6321 

REM Highest difference peak  0.176,  deepest hole -0.193,  1-sigma level  0.034
Q1    1   0.9203  0.7592  0.4552  11.00000  0.05    0.18
Q2    1   0.9199  0.5703  0.5390  11.00000  0.05    0.17
Q3    1   0.8340  0.7566  0.4572  11.00000  0.05    0.16
Q4    1   0.7049  0.5073  0.7863  11.00000  0.05    0.16
Q5    1   0.6667  0.5770  0.8333  10.50000  0.05    0.15
Q6    1   0.9079  0.5648  0.6764  11.00000  0.05    0.15
Q7    1   0.8351  0.5576  0.7801  11.00000  0.05    0.14
Q8    1   0.9333  0.6270  0.5459  11.00000  0.05    0.14
Q9    1   0.7127  0.4462  0.7733  11.00000  0.05    0.14
Q10   1   0.9399  0.6315  0.2849  11.00000  0.05    0.14
Q11   1   0.9305  0.7102  0.5438  11.00000  0.05    0.13
Q12   1   0.9915  0.6570  0.3741  11.00000  0.05    0.13
Q13   1   0.6202  0.5597  0.5457  11.00000  0.05    0.13
Q14   1   0.8970  0.6148  0.4514  11.00000  0.05    0.13
Q15   1   0.6742  0.5792  0.4871  11.00000  0.05    0.13
Q16   1   0.8532  0.5073  0.6937  11.00000  0.05    0.13
Q17   1   0.8391  0.6873  0.3578  11.00000  0.05    0.13
Q18   1   0.8291  0.6974  0.4487  11.00000  0.05    0.13
Q19   1   0.9188  0.6155  0.3796  11.00000  0.05    0.13
Q20   1   0.7955  0.4873  0.7096  11.00000  0.05    0.12

  REM The information below was added by Olex2.
  REM
  REM R1 = 0.0740 for 2440 Fo > 4sig(Fo) and 0.0949 for all 21675 data
  REM n/a parameters refined using n/a restraints
  REM Highest difference peak 0.18, deepest hole -0.19
  REM Mean Shift 0, Max Shift 0.000.

  REM +++ Tabular Listing of Refinement Information +++
  REM R1_all = 0.0949
  REM R1_gt = 0.0740
  REM wR_ref = 0.1618
  REM GOOF = 1.181
  REM Shift_max = 0.000
  REM Shift_mean = 0
  REM Reflections_all = 21675
  REM Reflections_gt = 2440
  REM Parameters = n/a
  REM Hole = -0.19
  REM Peak = 0.18
  REM Flack = 0.13(13)

  
;
_cod_data_source_file            c7cp00593h5.cif
_cod_data_source_block           CDMOF_b_220K
_cod_depositor_comments
'Adding full bibliography for 7227776--7227790.cif.'
_cod_original_cell_volume        46284(20)
_cod_database_code               7227787
#BEGIN Tags that were not found in dictionaries:
_shelx_shelxl_version_number     2014/7
_chemical_oxdiff_formula         'C48 H82 K2 O40'
_shelx_space_group_comment
;
The symmetry employed for this shelxl refinement is uniquely defined
by the following loop, which should always be used as a source of
symmetry information in preference to the above space-group names.
They are only intended as comments.
;
_reflns_odcompleteness_completeness 98.55
_reflns_odcompleteness_iscentric 1
_reflns_odcompleteness_theta     13.67
_olex2_refinement_description
;
1. Fixed Uiso
 At 1.2 times of:
  All C(H) groups, H73A of O73, All C(H,H) groups
 At 1.5 times of:
  H2A of O2, H3A of O3, H6 of O6, H12A of O12, H13A of O13, H16 of O16, H22A
  of O22, H23A of O23, H76 of O76, H72A of O72, H66 of O66, H63A of O63, H62A
  of O62, H56 of O56, H53A of O53, H52A of O52, H46 of O46, H43A of O43, H42A
  of O42, H36 of O36, H33A of O33, H32A of O32, H26 of O26
2. Restrained distances
 C64-C65
 1.5 with sigma of 0.02
 C65-C66
 1.5 with sigma of 0.02
 C2-C3
 1.5 with sigma of 0.02
 C2-C1
 1.5 with sigma of 0.02
 C23-C24
 1.5 with sigma of 0.02
 C23-C22
 1.5 with sigma of 0.02
 C15-C16
 1.5 with sigma of 0.02
 C45-C46
 1.5 with sigma of 0.02
 C35-C36
 1.5 with sigma of 0.002
 C64-C63
 1.5 with sigma of 0.02
 C4-C3
 1.5 with sigma of 0.005
 C4-C1
 3.5 with sigma of 0.02
 C4-C5
 1.5 with sigma of 0.005
 C5-C3
 2.5 with sigma of 0.02
 C13-C14
 1.5 with sigma of 0.02
 C13-C12
 1.5 with sigma of 0.02
 C42-C43
 1.5 with sigma of 0.02
 C21-C22
 1.5 with sigma of 0.02
 C6-C5
 1.5 with sigma of 0.005
 C72-C73
 1.5 with sigma of 0.02
 C26-C25
 1.5 with sigma of 0.02
 O15-C11
 1.45 with sigma of 0.02
 C2-O5
 2.5 with sigma of 0.02
 O5-C1
 1.45 with sigma of 0.02
 C31-O44
 1.45 with sigma of 0.02
 C31-O35
 1.45 with sigma of 0.005
 C33-O35
 3 with sigma of 0.02
 O12-C12
 1.45 with sigma of 0.02
 O23-C23
 1.45 with sigma of 0.02
 C26-O26
 1.45 with sigma of 0.005
 C6-O6
 1.45 with sigma of 0.02
 C35-O36
 2.45 with sigma of 0.02
 O22-C22
 1.45 with sigma of 0.02
 C72-O72
 1.45 with sigma of 0.02
 C16-O16
 1.45 with sigma of 0.02
 O4-C4
 1.45 with sigma of 0.02
 O3-C3
 1.45 with sigma of 0.02
 O2-C2
 1.45 with sigma of 0.02
 O63-C63
 1.45 with sigma of 0.005
 O43-C43
 1.45 with sigma of 0.02
 C14-C15
 1.5 with sigma of 0.02
 C24-C25
 1.5 with sigma of 0.02
 C65-C64
 1.5 with sigma of 0.02
 O14-C1
 1.45 with sigma of 0.02
 O15-C15
 1.45 with sigma of 0.01
 C21-O25
 1.45 with sigma of 0.01
 O25-C25
 1.45 with sigma of 0.01
 O44-C44
 1.45 with sigma of 0.01
 O54-C41
 1.45 with sigma of 0.01
 O13-C13
 1.45 with sigma of 0.02
 C12-O12
 1.45 with sigma of 0.02
 C22-O22
 1.45 with sigma of 0.02
 O14-C14
 1.45 with sigma of 0.01
 C31-C32
 1.5 with sigma of 0.02
 C33-C32
 1.5 with sigma of 0.02
 O32-C32
 1.45 with sigma of 0.02
 C5-O5
 1.45 with sigma of 0.01
 C45-O45
 1.45 with sigma of 0.02
 C62-C61
 1.5 with sigma of 0.02
 C62-O62
 1.45 with sigma of 0.02
 C75-O75
 1.5 with sigma of 0.02
 O75-C71
 1.45 with sigma of 0.02
 C75-C76
 1.5 with sigma of 0.02
 O76-C76
 1.45 with sigma of 0.005
 C62-C63
 1.5 with sigma of 0.02
 C32-C33
 1.5 with sigma of 0.02
 C36-C35
 1.5 with sigma of 0.02
 C61-O74
 1.45 with sigma of 0.02
 C61-C62
 1.5 with sigma of 0.02
 C61-O65
 1.45 with sigma of 0.02
 O36-C36
 1.45 with sigma of 0.01
 O75-C75
 1.45 with sigma of 0.02
 C41-O45
 1.45 with sigma of 0.02
 C71-O75
 1.45 with sigma of 0.01
 C71-C72
 1.5 with sigma of 0.02
 O73-C73
 1.45 with sigma of 0.02
 C74-C75
 1.5 with sigma of 0.02
 C74-C73
 1.5 with sigma of 0.005
 O34-C21
 1.45 with sigma of 0.02
 C21-O34
 1.45 with sigma of 0.01
 C6-K2
 3.8 with sigma of 0.02
 C1-K2
 3.8 with sigma of 0.02
 C43-C44
 1.5 with sigma of 0.02
 C44-C43
 1.5 with sigma of 0.01
 C72-C71
 1.5 with sigma of 0.01
 C71-O4
 1.45 with sigma of 0.01
 C35-C34
 1.5 with sigma of 0.002
 C33-C34
 1.5 with sigma of 0.02
 C34-C35
 1.5 with sigma of 0.02
 C34-O34
 1.45 with sigma of 0.01
 C33-O33
 1.45 with sigma of 0.01
 O72-C72
 1.45 with sigma of 0.02
 C41-C42
 1.5 with sigma of 0.01
 C34-C33
 1.5 with sigma of 0.01
 C44-C45
 1.5 with sigma of 0.01
 C35-O35
 1.45 with sigma of 0.01
 C52-C53
 1.5 with sigma of 0.02
 C54-C55
 1.5 with sigma of 0.02
 C54-C53
 1.5 with sigma of 0.02
 C53-C52
 1.5 with sigma of 0.02
 O54-C54
 1.45 with sigma of 0.02
 O52-C52
 1.45 with sigma of 0.02
 C51-O64
 1.45 with sigma of 0.02
 C55-C56
 1.5 with sigma of 0.02
 O56-C56
 1.45 with sigma of 0.005
 C56-C55
 1.5 with sigma of 0.02
 O64-C51
 1.45 with sigma of 0.02
 C51-O55
 1.45 with sigma of 0.02
 C51-C52
 1.5 with sigma of 0.02
 C55-O55
 1.45 with sigma of 0.02
 O55-C51
 1.45 with sigma of 0.01
 O55-C55
 1.45 with sigma of 0.01
 C43-C45
 2.5 with sigma of 0.04
 C11-C13
 2.5 with sigma of 0.04
 C71-C73
 2.5 with sigma of 0.04
 C75-C73
 2.5 with sigma of 0.04
 O25-C24
 2.5 with sigma of 0.04
 C5-O4
 2.5 with sigma of 0.04
 O14-C2
 2.5 with sigma of 0.04
 O25-C22
 2.5 with sigma of 0.04
 C21-C25
 2.5 with sigma of 0.04
 C23-O24
 2.5 with sigma of 0.04
 C23-C25
 2.5 with sigma of 0.04
 C21-O22
 2.5 with sigma of 0.04
 C71-O72
 2.5 with sigma of 0.04
 C71-C4
 2.5 with sigma of 0.04
 O4-C3
 2.5 with sigma of 0.04
 O4-C5
 2.5 with sigma of 0.04
 O3-C2
 2.5 with sigma of 0.04
 C63-C65
 2.5 with sigma of 0.04
 C64-O65
 2.5 with sigma of 0.04
 C65-C61
 2.5 with sigma of 0.04
 C61-C63
 2.5 with sigma of 0.04
 C26-O25
 2.5 with sigma of 0.04
 C26-C24
 2.5 with sigma of 0.04
 C15-C11
 2.5 with sigma of 0.01
 C35-C31
 2.5 with sigma of 0.01
 C44-C31
 2.5 with sigma of 0.01
 C41-C45
 2.5 with sigma of 0.04
 C43-C41
 2.5 with sigma of 0.04
 C45-C41
 2.5 with sigma of 0.04
 C4-C71
 2.5 with sigma of 0.01
 C1-C14
 2.5 with sigma of 0.01
 C2-C4
 2.5 with sigma of 0.01
 C4-O5
 2.5 with sigma of 0.01
 O5-C4
 2.5 with sigma of 0.02
 O15-C12
 2.5 with sigma of 0.02
 O25-C26
 2.5 with sigma of 0.04
 C44-O45
 2.5 with sigma of 0.02
 C66-O65
 2.5 with sigma of 0.04
 C66-C64
 2.5 with sigma of 0.04
 C1-O2
 2.5 with sigma of 0.04
 C1-C3
 2.5 with sigma of 0.04
 C3-O2
 2.5 with sigma of 0.04
 C12-C14
 2.5 with sigma of 0.04
 O13-C14
 2.5 with sigma of 0.02
 O13-C12
 2.5 with sigma of 0.02
 C14-O15
 2.5 with sigma of 0.04
 O24-C23
 2.5 with sigma of 0.04
 O76-C75
 2.5 with sigma of 0.04
 C13-C15
 2.5 with sigma of 0.04
 O14-C13
 2.5 with sigma of 0.04
 O24-C25
 2.5 with sigma of 0.04
 C25-O24
 2.5 with sigma of 0.01
 C64-C62
 2.5 with sigma of 0.04
 C62-C64
 2.5 with sigma of 0.04
 O62-C61
 2.5 with sigma of 0.04
 O62-C63
 2.5 with sigma of 0.04
 O75-C76
 2.5 with sigma of 0.02
 C15-C13
 2.5 with sigma of 0.04
 C13-O14
 2.5 with sigma of 0.04
 O14-C15
 2.5 with sigma of 0.04
 O45-C44
 2.5 with sigma of 0.04
 C35-C33
 2.5 with sigma of 0.04
 C33-C31
 2.5 with sigma of 0.04
 C32-O35
 2.5 with sigma of 0.04
 C31-C35
 2.5 with sigma of 0.04
 O65-C64
 2.5 with sigma of 0.04
 C61-C65
 2.5 with sigma of 0.04
 C63-C61
 2.5 with sigma of 0.04
 C72-O75
 2.5 with sigma of 0.04
 C31-O32
 2.5 with sigma of 0.04
 C24-O23
 2.5 with sigma of 0.04
 C72-O4
 2.5 with sigma of 0.04
 O75-C74
 2.5 with sigma of 0.04
 C74-C76
 2.5 with sigma of 0.01
 C61-C74
 2.5 with sigma of 0.04
 O73-C74
 2.5 with sigma of 0.02
 C72-O73
 2.5 with sigma of 0.02
 C24-C11
 2.5 with sigma of 0.01
 C71-C75
 2.5 with sigma of 0.02
 O23-C24
 2.5 with sigma of 0.02
 O23-C22
 2.5 with sigma of 0.02
 O45-C42
 2.5 with sigma of 0.01
 C41-C43
 2.5 with sigma of 0.01
 C42-C44
 2.5 with sigma of 0.01
 O43-C42
 2.5 with sigma of 0.01
 O42-C43
 2.5 with sigma of 0.01
 O42-C41
 2.5 with sigma of 0.01
 O4-O75
 2.5 with sigma of 0.01
 O4-C72
 2.5 with sigma of 0.01
 O75-C72
 2.5 with sigma of 0.01
 O26-C25
 2.5 with sigma of 0.01
 C32-C34
 2.5 with sigma of 0.04
 C34-C32
 2.5 with sigma of 0.04
 O35-C34
 2.5 with sigma of 0.04
 O33-C34
 2.5 with sigma of 0.04
 C34-C21
 2.5 with sigma of 0.01
 C34-O33
 2.45 with sigma of 0.01
 O33-C32
 2.45 with sigma of 0.01
 C36-C34
 2.5 with sigma of 0.01
 C36-O35
 2.5 with sigma of 0.01
 C34-C36
 2.5 with sigma of 0.01
 O36-C35
 2.4 with sigma of 0.02
 C53-C55
 2.5 with sigma of 0.04
 C54-C41
 2.5 with sigma of 0.02
 C54-C52
 2.5 with sigma of 0.02
 C41-C54
 2.5 with sigma of 0.01
 O52-C51
 2.5 with sigma of 0.04
 O52-C53
 2.5 with sigma of 0.04
 C53-O52
 2.5 with sigma of 0.01
 C52-O55
 2.5 with sigma of 0.01
 C54-O55
 2.5 with sigma of 0.04
 O55-C56
 2.5 with sigma of 0.04
 C56-C54
 2.5 with sigma of 0.04
 O55-C54
 2.5 with sigma of 0.04
 C54-C56
 2.5 with sigma of 0.04
 C56-O55
 2.5 with sigma of 0.04
 C55-C51 = C54-O55
 2.5 with sigma of 0.04
 C55-C51
 2.5 with sigma of 0.01
3. Uiso/Uaniso restraints and constraints
All non-hydrogen atoms have similar U: within 2A with sigma of 0.04 and sigma
for terminal atoms of 0.08
4. Rigid body (RIGU) restrains
 All non-hydrogen atoms
 with sigma for 1-2 distances of 0.004 and sigma for 1-3 distances of 0.004
5. Others
 Uiso(O2)=Uiso(O3)=Uiso(O4)=Uiso(O5)=Uiso(O6)=Uiso(O12)=Uiso(O13)=Uiso(O14)=
 Uiso(O15)=Uiso(O16)=Uiso(O22)=Uiso(O23)=Uiso(O24)=Uiso(O25)=Uiso(O26)=
 Uiso(O32)=Uiso(O33)=Uiso(O34)=Uiso(O35)=Uiso(O36)=Uiso(O42)=Uiso(O43)=
 Uiso(O44)=Uiso(O45)=Uiso(O46)=Uiso(O52)=Uiso(O53)=Uiso(O54)=Uiso(O55)=
 Uiso(O56)=Uiso(O62)=Uiso(O63)=Uiso(O64)=Uiso(O65)=Uiso(O66)=Uiso(O72)=
 Uiso(O73)=Uiso(O74)=Uiso(O75)=Uiso(O76)=FVAR(1)
 Uiso(C31)=Uiso(C32)=Uiso(C33)=Uiso(C34)=Uiso(C35)=Uiso(C36)=FVAR(2)
 Uiso(OA)=Uiso(OB)=FVAR(3)
 Uiso(C51)=Uiso(C52)=Uiso(C53)=Uiso(C54)=Uiso(C55)=Uiso(C56)=FVAR(4)
6.a Ternary CH refined with riding coordinates:
 C1(H1), C2(H2), C3(H3), C4(H4), C5(H5), C11(H11), C12(H12), C13(H13),
 C14(H14), C15(H15), C21(H21), C22(H22), C23(H23), C24(H24), C25(H25), C31(H31),
  C32(H32), C33(H33), C34(H34), C35(H35), C41(H41), C42(H42), C43(H43),
 C44(H44), C45(H45), C51(H51), C52(H52), C53(H53), C54(H54), C55(H55), C61(H61),
  C62(H62), C63(H63), C64(H64), C65(H65), C71(H71), C72(H72), C73(H73),
 C74(H74), C75(H75)
6.b Secondary CH2 refined with riding coordinates:
 C6(H6A,H6B), C16(H16A,H16B), C26(H26A,H26B), C36(H36A,H36B), C46(H46A,H46B),
 C56(H56A,H56B), C66(H66A,H66B), C76(H76A,H76B)
6.c Tetrahedral OH refined with riding coordinates:
 O2(H2A), O3(H3A), O6(H6), O12(H12A), O13(H13A), O16(H16), O22(H22A),
 O23(H23A), O26(H26), O32(H32A), O33(H33A), O36(H36), O42(H42A), O43(H43A),
 O46(H46), O52(H52A), O53(H53A), O56(H56), O62(H62A), O63(H63A), O66(H66),
 O72(H72A), O73(H73A), O76(H76)
;
_shelx_fab_file
;
-24 -2 -1 17.3446 3.6121
-24 -1 -2 -4.2015 -12.3337
-24 -1 1 -18.0353 27.2091
-24 -1 4 5.7496 24.1619
-23 -3 -2 16.1741 2.7774
-23 -3 1 -7.4109 -15.5298
-23 -2 -3 14.1239 13.8301
-23 -2 0 -72.8827 9.0824
-23 -2 3 -20.8910 14.8147
-23 -1 -4 -7.5620 -28.9411
-23 -1 -1 -22.5664 10.6470
-23 -1 2 5.4907 -33.4779
-23 -1 5 2.7992 -14.3679
-22 -5 -2 11.3772 -29.0120
-22 -5 1 -25.8227 11.7145
-22 -4 -3 -10.2206 33.8813
-22 -4 0 26.5330 29.8327
-22 -4 3 -38.1029 -0.6331
-22 -3 -4 -33.5934 33.4293
-22 -3 -1 3.4949 -3.4728
-22 -3 2 -32.7283 14.0340
-22 -3 5 -2.2001 6.8401
-22 -2 -5 -55.1258 -47.9762
-22 -2 -2 29.0743 -0.6241
-22 -2 1 27.1688 35.5072
-22 -2 4 -38.1472 -29.7617
-22 -2 7 27.0685 47.5379
-22 -1 -6 56.0535 -15.1793
-22 -1 -3 -1.0020 16.6906
-22 -1 0 -64.1633 31.4361
-22 -1 3 -61.5351 2.0704
-22 -1 6 13.4162 27.2486
-21 -6 -3 12.6808 35.8183
-21 -6 0 -6.3850 -3.2228
-21 -6 3 -22.5324 43.2846
-21 -5 -4 -16.7320 66.8951
-21 -5 -1 19.1842 -5.1208
-21 -5 2 -44.5473 -16.1474
-21 -5 5 -13.3939 15.4515
-21 -4 -5 -13.6756 1.5650
-21 -4 -2 -33.6445 -32.6768
-21 -4 1 -18.4513 21.5058
-21 -4 4 8.4169 -2.4388
-21 -4 7 -28.0748 22.2779
-21 -3 -6 28.6305 -81.5399
-21 -3 -3 -34.9928 29.1754
-21 -3 0 -17.0120 41.8467
-21 -3 3 -70.9761 -31.2953
-21 -3 6 -46.1121 21.0110
-21 -2 -7 34.2378 -49.0362
-21 -2 -4 -37.9534 -34.2914
-21 -2 -1 -8.2142 -12.6707
-21 -2 2 15.0303 -45.9791
-21 -2 5 -1.0310 14.1345
-21 -2 8 8.1108 23.3269
-21 -1 -8 0.0357 28.3111
-21 -1 -5 24.3309 -114.5484
-21 -1 -2 -3.1584 33.7742
-21 -1 1 -10.6400 14.5367
-21 -1 4 -28.1041 -5.3538
-21 -1 7 42.3265 17.4734
-20 -8 0 40.1280 -4.0421
-20 -7 -4 -22.1971 21.2717
-20 -7 -1 39.2206 -6.0697
-20 -7 2 -31.2498 35.5796
-20 -7 5 -5.1178 -43.6953
-20 -6 -5 -57.6468 12.7250
-20 -6 -2 13.8061 -12.4052
-20 -6 1 -1.8035 56.8427
-20 -6 4 -46.0554 -39.2634
-20 -5 -6 4.2961 -34.1043
-20 -5 -3 -11.6487 49.4273
-20 -5 0 18.6607 61.4215
-20 -5 3 -32.9505 -6.7944
-20 -5 6 -11.7075 -34.2568
-20 -4 -7 -8.5323 -21.1280
-20 -4 -4 -45.4677 53.3014
-20 -4 -1 9.5421 43.3162
-20 -4 2 -15.1066 -42.1111
-20 -4 5 -42.4179 -17.3396
-20 -4 8 16.4271 19.6449
-20 -3 -8 25.7747 -7.9034
-20 -3 -5 6.8116 -24.0036
-20 -3 -2 -1.8713 -13.6470
-20 -3 1 -20.8706 -3.5966
-20 -3 4 -31.0243 -21.3430
-20 -3 7 6.3777 0.2198
-20 -2 -9 23.4365 53.1927
-20 -2 -6 -0.5996 -78.7496
-20 -2 -3 -33.6658 37.9154
-20 -2 0 -11.5223 14.5084
-20 -2 3 -29.0451 -14.5696
-20 -2 6 -24.7227 21.5426
-20 -2 9 -0.7622 30.1291
-20 -1 -10 -11.4720 9.7864
-20 -1 -7 -3.1630 -9.7966
-20 -1 -4 21.9983 23.1536
-20 -1 -1 -12.0420 -41.0174
-20 -1 2 -65.4433 -24.6472
-20 -1 5 -16.1178 9.6975
-20 -1 8 -12.5942 -23.4019
-19 -9 -1 32.0501 13.1903
-19 -9 2 -59.3966 -38.8358
-19 -8 -5 -16.1829 12.0030
-19 -8 -2 18.7469 5.0649
-19 -8 1 -24.3176 6.2869
-19 -8 4 12.6160 -13.4468
-19 -7 -6 12.3851 -39.0096
-19 -7 -3 -12.2212 78.3152
-19 -7 0 -4.7313 -32.2640
-19 -7 3 -59.0228 17.1678
-19 -7 6 6.8142 -38.9486
-19 -6 -7 -5.1834 -43.5763
-19 -6 -4 -33.2006 77.4691
-19 -6 -1 -46.3345 -32.7284
-19 -6 2 31.2568 17.8719
-19 -6 5 16.4215 -19.7693
-19 -6 8 -28.4894 31.4124
-19 -5 -8 65.9321 -0.5916
-19 -5 -5 -22.7910 -30.2389
-19 -5 -2 -18.0312 6.3395
-19 -5 1 -11.1959 2.7676
-19 -5 4 -5.9404 -10.1183
-19 -5 7 -31.1158 -47.5459
-19 -4 -9 28.2165 -22.9081
-19 -4 -6 -39.3926 -90.5319
-19 -4 -3 -37.1242 -23.7041
-19 -4 0 -28.5620 -29.7617
-19 -4 3 4.9767 -0.0863
-19 -4 6 -31.9656 -14.1467
-19 -4 9 -1.6519 24.7514
-19 -3 -10 19.5985 13.2102
-19 -3 -7 -3.7196 -90.6971
-19 -3 -4 23.3938 8.6347
-19 -3 -1 55.5267 16.3529
-19 -3 2 -27.4345 -25.4145
-19 -3 5 -17.1427 -14.7361
-19 -3 8 -23.9573 -37.8169
-19 -2 -11 9.0541 -1.6632
-19 -2 -8 -21.8864 -16.3035
-19 -2 -5 43.0453 -68.7423
-19 -2 -2 -45.7946 -46.3296
-19 -2 1 26.0633 -60.5724
-19 -2 4 38.3041 10.5538
-19 -2 7 12.7583 -14.9292
-19 -2 10 -31.9087 14.4858
-19 -1 -9 -46.2206 3.3463
-19 -1 -6 -37.1836 -72.5913
-19 -1 -3 36.6804 22.9566
-19 -1 0 -8.1813 33.0045
-19 -1 3 -28.3758 75.0704
-19 -1 6 -36.0050 21.1597
-19 -1 9 -16.1683 35.8606
-18 -10 -2 30.6475 -30.1653
-18 -10 1 11.0947 29.8655
-18 -9 -3 -8.2612 3.3321
-18 -9 0 79.4148 18.6379
-18 -9 3 -32.3892 -39.1226
-18 -9 6 -19.6815 4.0880
-18 -8 -7 -18.2820 8.7235
-18 -8 -4 -43.7033 13.0149
-18 -8 -1 19.1538 5.2239
-18 -8 2 -7.5381 -20.0450
-18 -8 5 9.1570 -7.3409
-18 -7 -8 25.6664 30.4624
-18 -7 -5 -23.5110 -29.6870
-18 -7 -2 14.7707 40.2982
-18 -7 1 52.2461 58.8249
-18 -7 4 10.9938 -1.4306
-18 -7 7 -26.9895 -42.1251
-18 -6 -9 46.9046 44.6792
-18 -6 -6 -82.9797 -57.3465
-18 -6 -3 -1.1039 72.9102
-18 -6 0 -46.6124 -11.9582
-18 -6 3 13.0117 21.3405
-18 -6 6 -53.0702 -83.2261
-18 -6 9 -1.0112 16.0368
-18 -5 -10 5.8353 -17.3437
-18 -5 -7 -33.3440 -31.7144
-18 -5 -4 40.7442 76.4350
-18 -5 -1 22.5540 10.8143
-18 -5 2 86.8170 10.4396
-18 -5 5 16.2886 -87.2212
-18 -5 8 25.0476 -42.9650
-18 -4 -11 44.8583 -21.2832
-18 -4 -8 50.3415 47.3306
-18 -4 -5 35.7433 31.8340
-18 -4 -2 26.8982 -2.6827
-18 -4 1 23.7543 2.1517
-18 -4 4 -48.0148 -42.8572
-18 -4 7 -58.4931 21.7309
-18 -4 10 -14.2973 46.2406
-18 -3 -9 4.9059 10.9358
-18 -3 -6 -15.5053 -6.6241
-18 -3 -3 10.1895 21.5940
-18 -3 0 -6.0229 -35.1098
-18 -3 3 -31.0336 -15.0590
-18 -3 6 -43.3066 -29.3849
-18 -3 9 34.7162 -26.9446
-18 -2 -10 34.6304 9.1042
-18 -2 -7 16.3554 5.1960
-18 -2 -4 65.6972 61.1541
-18 -2 -1 -36.2048 38.3887
-18 -2 2 -11.8860 -20.8492
-18 -2 5 -84.4430 35.1620
-18 -2 8 2.8297 33.5955
-18 -2 11 13.3580 53.5833
-18 -1 -11 -29.8340 7.5652
-18 -1 -8 -14.4481 -34.9469
-18 -1 -5 -104.7107 49.0589
-18 -1 -2 -23.3571 -38.5508
-18 -1 1 3.7180 -85.1430
-18 -1 4 -26.5256 0.9649
-18 -1 7 20.0894 -3.2974
-18 -1 10 21.3657 -0.9504
-17 -11 -3 21.8226 32.9833
-17 -11 0 3.4433 14.8544
-17 -11 3 -6.2957 -9.9098
-17 -10 -4 -5.4143 34.3871
-17 -10 -1 9.2553 -29.6700
-17 -10 2 -13.7161 -55.6767
-17 -10 5 -2.6842 34.4892
-17 -9 -5 51.3894 -30.6137
-17 -9 -2 -1.2922 14.4778
-17 -9 1 19.2339 -17.4895
-17 -9 4 6.1981 6.4548
-17 -9 7 -8.9026 5.0933
-17 -8 -6 14.0218 -12.1713
-17 -8 -3 -24.9347 47.8773
-17 -8 0 6.0723 -44.4140
-17 -8 3 -17.3770 12.3830
-17 -8 6 -66.5316 44.0600
-17 -7 -7 7.8793 -60.3403
-17 -7 -4 14.5735 52.1603
-17 -7 -1 -56.1209 -47.3034
-17 -7 2 16.3904 -20.4136
-17 -7 5 30.6702 15.7136
-17 -7 8 -9.9538 -65.0620
-17 -6 -8 37.6244 8.1683
-17 -6 -5 18.4362 -4.6429
-17 -6 -2 -32.7167 -50.8175
-17 -6 1 21.0995 27.5015
-17 -6 4 10.6097 58.7718
-17 -6 7 -77.2133 4.8191
-17 -6 10 -36.4411 16.0398
-17 -5 -9 46.5126 -50.2026
-17 -5 -6 -67.1386 -58.1766
-17 -5 -3 16.2782 -22.7670
-17 -5 0 -14.5667 1.8542
-17 -5 3 13.5707 53.1255
-17 -5 6 -3.5945 -60.3679
-17 -5 9 25.1786 -39.5918
-17 -4 -10 13.5778 -53.4117
-17 -4 -7 -38.3546 -5.2268
-17 -4 -4 30.5909 2.9450
-17 -4 -1 54.2303 -23.4701
-17 -4 2 73.8326 -49.9727
-17 -4 5 -43.6635 -1.6044
-17 -4 8 -34.4465 -47.4012
-17 -4 11 23.3459 41.8974
-17 -3 -11 -25.8073 -54.9081
-17 -3 -8 8.4247 4.1352
-17 -3 -5 8.4882 -27.5750
-17 -3 -2 59.7111 78.5078
-17 -3 1 72.8836 -1.2550
-17 -3 4 14.5246 117.5730
-17 -3 7 26.6158 -35.1138
-17 -3 10 64.5409 23.7128
-17 -2 -12 -14.3445 -21.3785
-17 -2 -9 -7.6554 -21.1630
-17 -2 -6 -4.9768 -4.7122
-17 -2 -3 0.7850 -0.0498
-17 -2 0 10.8129 -56.8819
-17 -2 3 -109.3580 73.2300
-17 -2 6 33.8218 -15.3518
-17 -2 9 31.9655 -17.5920
-17 -2 12 -66.7461 -2.7338
-17 -1 -13 -16.0767 7.7693
-17 -1 -10 0.9374 18.1732
-17 -1 -7 30.9435 -46.9917
-17 -1 -4 -11.4807 34.3872
-17 -1 -1 63.2876 35.2699
-17 -1 2 -1.9134 86.5267
-17 -1 5 53.9707 7.3146
-17 -1 8 37.1404 39.0710
-17 -1 11 -31.4244 87.1666
-16 -12 -4 4.4180 13.4951
-16 -12 -1 -19.8389 -14.4503
-16 -12 2 21.2106 24.3835
-16 -11 -5 12.6797 -26.1088
-16 -11 -2 2.4572 -60.2610
-16 -11 1 15.8471 67.8921
-16 -11 4 -36.2322 75.4550
-16 -10 -6 22.7216 -46.2246
-16 -10 -3 -16.3648 -31.2987
-16 -10 0 58.8957 -9.7931
-16 -10 3 -6.1357 10.8851
-16 -10 6 -25.8392 5.9905
-16 -9 -7 4.8887 10.8707
-16 -9 -4 -27.1725 24.0892
-16 -9 -1 7.4016 31.9871
-16 -9 2 5.4807 16.2976
-16 -9 5 -37.1620 -13.7181
-16 -9 8 29.6337 -34.4599
-16 -8 -8 -14.1377 16.5724
-16 -8 -5 30.5344 -16.4218
-16 -8 -2 -26.3257 -19.9675
-16 -8 1 11.8536 42.4553
-16 -8 4 -20.6610 -7.1656
-16 -8 7 -62.4592 35.5517
-16 -8 10 -1.4949 -16.2682
-16 -7 -9 -29.7785 21.7752
-16 -7 -6 -32.8268 -6.2890
-16 -7 -3 -7.0169 41.4237
-16 -7 0 -9.5440 55.7912
-16 -7 3 34.9909 -43.2827
-16 -7 6 -21.9278 -4.1842
-16 -7 9 56.0316 -40.9989
-16 -6 -10 14.3286 -15.7026
-16 -6 -7 -47.7557 31.3334
-16 -6 -4 93.1265 84.4575
-16 -6 -1 -36.3613 19.4573
-16 -6 2 53.6283 -69.6463
-16 -6 5 -50.2835 18.0822
-16 -6 8 -40.2065 -8.0255
-16 -6 11 4.1443 11.1574
-16 -5 -11 -31.4003 -21.2896
-16 -5 -8 28.2543 43.6144
-16 -5 -5 44.2988 35.1017
-16 -5 -2 -8.1607 -10.6199
-16 -5 1 74.7978 -19.5091
-16 -5 4 6.9426 52.2798
-16 -5 7 -44.9330 -35.3722
-16 -5 10 45.9391 20.6396
-16 -4 -12 11.4190 -58.1848
-16 -4 -9 75.9815 20.1357
-16 -4 -6 -12.7755 37.1044
-16 -4 -3 -27.8982 63.3053
-16 -4 0 -21.4649 -9.1916
-16 -4 3 -26.3473 75.2576
-16 -4 6 -73.9424 -8.3131
-16 -4 9 26.7508 65.1931
-16 -4 12 -9.6932 28.1393
-16 -3 -13 -5.1469 -6.9503
-16 -3 -10 -21.4702 -23.6853
-16 -3 -7 0.7572 51.2385
-16 -3 -4 -35.4025 52.2205
-16 -3 -1 -6.3185 14.9517
-16 -3 2 -15.3352 -21.3123
-16 -3 5 -55.0372 -8.4405
-16 -3 8 -3.8058 -1.6091
-16 -3 11 30.4883 3.1135
-16 -2 -11 18.6155 -32.5709
-16 -2 -8 1.9134 -39.8212
-16 -2 -5 -18.4749 26.8201
-16 -2 -2 -27.3967 31.8488
-16 -2 1 30.1140 3.8045
-16 -2 4 -12.6124 28.8920
-16 -2 7 25.3676 120.1134
-16 -2 10 81.6755 94.1842
-16 -2 13 9.0975 -24.8060
-16 -1 -12 14.1880 -15.0268
-16 -1 -9 -30.3451 -25.8254
-16 -1 -6 -47.9469 48.0326
-16 -1 -3 12.6773 -26.0509
-16 -1 0 -89.9114 -38.9061
-16 -1 3 -7.4054 -42.9970
-16 -1 6 10.3498 73.5346
-16 -1 9 62.6471 -75.7373
-16 -1 12 -32.2633 -43.0628
-15 -13 -2 -2.6616 63.9693
-15 -13 1 -25.5409 61.5396
-15 -13 4 -20.4781 18.7357
-15 -12 -6 -26.8549 -8.7270
-15 -12 -3 -6.3505 -35.8469
-15 -12 0 -27.7465 -31.0227
-15 -12 3 -16.0032 41.0223
-15 -12 6 -12.4192 -4.2879
-15 -11 -7 33.8013 -18.3679
-15 -11 -4 28.9935 5.2354
-15 -11 -1 -25.0472 42.2290
-15 -11 2 -32.3058 25.4034
-15 -11 5 0.1860 66.8149
-15 -11 8 -3.1903 -2.1989
-15 -10 -8 0.8706 0.5023
-15 -10 -5 45.1729 -0.2783
-15 -10 -2 -25.7705 -43.4833
-15 -10 1 -7.9055 14.0434
-15 -10 4 -35.6287 66.5278
-15 -10 7 -38.7348 27.0733
-15 -9 -9 -13.5725 -39.6986
-15 -9 -6 84.8499 -20.1399
-15 -9 -3 -24.0456 21.5391
-15 -9 0 -26.5743 2.7266
-15 -9 3 -6.7249 16.2678
-15 -9 6 -3.7662 -23.4000
-15 -9 9 50.0660 -34.1731
-15 -8 -10 -0.0858 -8.2740
-15 -8 -7 -16.9657 44.1736
-15 -8 -4 40.0203 114.9677
-15 -8 -1 -52.3764 4.3981
-15 -8 2 63.0988 -17.0978
-15 -8 5 -96.8695 32.4683
-15 -8 8 -50.6737 48.3224
-15 -8 11 11.7317 29.1982
-15 -7 -11 -21.6065 -20.4296
-15 -7 -8 4.9849 10.7023
-15 -7 -5 69.7028 -11.1492
-15 -7 -2 -29.4704 -20.3607
-15 -7 1 10.8570 -1.0237
-15 -7 4 -20.5538 29.8031
-15 -7 7 28.7175 -1.6328
-15 -7 10 -5.5684 -53.0568
-15 -6 -12 12.4343 4.2677
-15 -6 -9 4.1652 22.1517
-15 -6 -6 -28.8399 -2.8922
-15 -6 -3 -34.1541 -40.6723
-15 -6 0 58.0168 23.6482
-15 -6 3 -53.2925 63.4300
-15 -6 6 -110.1074 39.6543
-15 -6 9 0.0655 19.8036
-15 -6 12 -18.9021 -15.9532
-15 -5 -13 10.6720 28.0930
-15 -5 -10 -57.9214 -14.2054
-15 -5 -7 -34.2625 -76.3818
-15 -5 -4 4.3499 49.9272
-15 -5 -1 96.9713 -3.2364
-15 -5 2 -7.1896 21.6346
-15 -5 5 66.2909 12.5511
-15 -5 8 30.7895 -81.0066
-15 -5 11 12.8127 -15.5302
-15 -4 -11 4.1225 12.3175
-15 -4 -8 3.5710 -25.5084
-15 -4 -5 -12.9715 15.0208
-15 -4 -2 1.8389 24.9457
-15 -4 1 4.1317 17.4936
-15 -4 4 -25.9686 88.3740
-15 -4 7 -3.4663 -75.9438
-15 -4 10 -1.9757 -33.2944
-15 -4 13 -5.8512 -15.4657
-15 -3 -12 13.7059 -51.5980
-15 -3 -9 -37.3430 -109.5584
-15 -3 -6 -41.4530 44.3396
-15 -3 -3 57.6804 58.0715
-15 -3 0 -9.0355 25.2375
-15 -3 3 40.2663 119.9706
-15 -3 6 91.4059 6.5979
-15 -3 9 54.1982 67.9208
-15 -3 12 -8.7463 -49.2707
-15 -2 -13 62.5581 -0.8253
-15 -2 -10 -1.8467 17.0764
-15 -2 -7 28.4166 61.7613
-15 -2 -4 40.3215 4.3142
-15 -2 -1 44.0455 -16.4568
-15 -2 2 -7.2087 -32.3009
-15 -2 5 15.5917 -13.0088
-15 -2 8 -14.0305 -52.1796
-15 -2 11 -48.3913 13.6146
-15 -2 14 -11.2138 25.7866
-15 -1 -14 55.3995 -27.6426
-15 -1 -11 -44.2421 15.0404
-15 -1 -8 6.9883 -2.7083
-15 -1 -5 10.1553 11.2130
-15 -1 -2 40.1931 2.6498
-15 -1 4 93.0357 -11.4204
-15 -1 7 -32.9926 115.4369
-15 -1 10 -10.9727 102.2049
-15 -1 13 17.1910 22.4745
-14 -14 -3 -20.5116 13.5107
-14 -14 0 -26.5386 -22.8750
-14 -13 -4 -39.9659 -51.7080
-14 -13 -1 -27.8358 70.8495
-14 -13 2 -23.3850 95.1592
-14 -13 5 -43.4015 -36.2675
-14 -12 -8 -7.6072 -17.9711
-14 -12 -5 4.3982 -24.1010
-14 -12 -2 4.3710 24.5312
-14 -12 1 -53.8630 44.9307
-14 -12 4 -38.6659 43.2051
-14 -12 7 -0.3912 39.6280
-14 -11 -9 -24.2124 -8.7390
-14 -11 -6 20.8781 2.8616
-14 -11 -3 -6.8163 -58.7196
-14 -11 0 -26.7517 -18.8850
-14 -11 3 -51.6865 29.5976
-14 -11 6 -6.7076 -12.8369
-14 -11 9 23.7205 -17.8653
-14 -10 -10 11.4692 -9.6507
-14 -10 -7 16.3156 26.9571
-14 -10 -4 7.9408 75.8117
-14 -10 -1 -63.3185 -30.3079
-14 -10 2 6.8433 -13.2618
-14 -10 5 -31.4007 -39.3140
-14 -10 8 -26.0787 -25.6705
-14 -9 -11 -6.6972 12.5602
-14 -9 -8 -32.1795 76.8137
-14 -9 -5 18.1574 33.5372
-14 -9 -2 -43.6646 -19.6050
-14 -9 1 -27.8005 42.0052
-14 -9 4 -36.1818 7.9041
-14 -9 7 -13.2291 -38.1685
-14 -9 10 36.2749 -36.9731
-14 -8 -12 -2.8217 -7.6830
-14 -8 -9 22.5380 34.8596
-14 -8 -6 -51.4947 4.8937
-14 -8 -3 -5.8162 1.9727
-14 -8 0 -68.8294 -47.6285
-14 -8 3 67.2775 -38.7251
-14 -8 6 -78.4412 -71.9903
-14 -8 9 -21.4087 -28.5955
-14 -8 12 -19.7953 67.4479
-14 -7 -10 -61.3592 44.1513
-14 -7 -7 -46.4103 23.4408
-14 -7 -4 1.1899 11.4956
-14 -7 -1 -16.3224 87.1789
-14 -7 2 55.6621 -50.4295
-14 -7 5 -81.7718 -113.2664
-14 -7 8 23.5570 42.7110
-14 -7 11 21.1920 10.8210
-14 -6 -11 -24.7584 19.4608
-14 -6 -8 18.8502 -54.5808
-14 -6 -5 27.3355 -9.5766
-14 -6 -2 -41.2227 -3.2147
-14 -6 1 32.9144 -11.2563
-14 -6 4 -24.5584 -4.9129
-14 -6 7 -79.1139 19.1874
-14 -6 10 -36.3926 36.2793
-14 -6 13 -20.7224 -57.3082
-14 -5 -12 60.6018 21.6451
-14 -5 -9 -43.2892 -9.6457
-14 -5 -6 -7.0268 11.9881
-14 -5 -3 -78.5900 9.8652
-14 -5 0 -39.6868 8.6759
-14 -5 3 -42.7749 -60.6003
-14 -5 6 -81.9826 22.3906
-14 -5 9 20.2505 58.1542
-14 -5 12 -37.3256 -61.8116
-14 -4 -13 -10.2132 -12.9101
-14 -4 -10 -35.3207 -30.0435
-14 -4 -7 12.1378 -23.0534
-14 -4 -4 -41.2875 59.4966
-14 -4 -1 14.5685 17.3845
-14 -4 2 -20.7087 -36.8619
-14 -4 5 -48.0445 11.3523
-14 -4 8 9.1813 16.9877
-14 -4 11 3.7611 -54.4096
-14 -4 14 11.7235 13.6158
-14 -3 -14 41.1823 16.8294
-14 -3 -11 -42.6842 -20.4158
-14 -3 -8 15.6100 -32.2812
-14 -3 -5 -70.8856 -22.4125
-14 -3 -2 -18.9767 27.0343
-14 -3 1 -85.9380 -43.0238
-14 -3 4 -38.8737 -16.4574
-14 -3 7 -142.4202 65.8282
-14 -3 10 58.7733 44.3845
-14 -3 13 -30.4003 -19.7400
-14 -2 -12 -52.1077 -92.2084
-14 -2 -9 43.7199 -50.0682
-14 -2 -6 -41.4136 14.0051
-14 -2 -3 43.6313 -9.4404
-14 -2 0 -32.9027 -61.8196
-14 -2 3 31.4002 -74.1706
-14 -2 6 35.6533 150.7789
-14 -2 9 65.0212 39.8909
-14 -2 12 7.4007 -17.6681
-14 -1 -13 -15.7504 -70.0398
-14 -1 -10 20.0659 -2.2454
-14 -1 -7 16.1441 61.1903
-14 -1 -4 -3.8696 -38.1288
-14 -1 -1 60.5213 4.5029
-14 -1 2 -65.5779 -68.6471
-14 -1 5 -67.9029 21.9047
-14 -1 8 -86.2848 -11.5551
-14 -1 11 -35.7235 -67.8541
-14 -1 14 29.6439 36.0813
-13 -13 -6 27.5421 4.8637
-13 -13 -3 -33.5444 49.4413
-13 -13 0 -77.1847 64.3725
-13 -12 -7 14.0024 -0.9535
-13 -12 -4 -52.8121 10.2011
-13 -12 -1 -30.7864 55.5780
-13 -12 2 8.1707 0.2932
-13 -12 5 -9.3649 -41.3310
-13 -12 8 -29.1957 16.4658
-13 -11 -8 -3.1202 32.8089
-13 -11 -5 66.8125 49.3313
-13 -11 -2 -0.6121 44.4783
-13 -11 1 -15.2998 -14.4511
-13 -11 4 -47.9699 -1.6462
-13 -11 7 40.7815 38.4942
-13 -11 10 -20.6807 26.7182
-13 -10 -9 11.4016 18.9089
-13 -10 -6 28.2511 55.6396
-13 -10 -3 27.2483 10.6248
-13 -10 0 15.4549 -83.0203
-13 -10 3 48.7939 28.5808
-13 -10 6 -65.3203 11.8587
-13 -10 9 17.0312 8.7509
-13 -9 -10 -0.9771 9.9800
-13 -9 -7 34.8134 50.8928
-13 -9 -4 59.9129 72.2607
-13 -9 -1 -22.1084 16.6527
-13 -9 2 33.5778 -4.7772
-13 -9 5 -44.4082 -22.1124
-13 -9 8 10.9405 -65.0369
-13 -9 11 -20.1913 19.0512
-13 -8 -11 4.8954 21.6606
-13 -8 -8 62.3443 4.7447
-13 -8 -5 -18.5306 -30.0022
-13 -8 -2 19.0789 82.7900
-13 -8 1 -11.9538 50.0338
-13 -8 4 -52.5519 79.9932
-13 -8 7 -43.4684 -0.2584
-13 -8 10 -26.5650 -13.6851
-13 -7 -12 20.2857 15.3022
-13 -7 -9 6.6659 -104.0371
-13 -7 -6 -32.8803 8.3322
-13 -7 -3 -6.4426 -42.7206
-13 -7 0 16.5025 53.6881
-13 -7 3 -7.0678 -0.8715
-13 -7 6 36.6837 -118.2523
-13 -7 9 -11.9310 20.6709
-13 -7 12 -35.6547 -25.7984
-13 -6 -13 48.5465 58.4523
-13 -6 -10 -79.6440 54.1650
-13 -6 -7 -48.6097 -39.4923
-13 -6 -4 -19.5335 14.6802
-13 -6 -1 82.9215 67.1248
-13 -6 2 -25.5630 -39.3914
-13 -6 5 -46.2983 -1.9385
-13 -6 8 -23.7072 -4.8338
-13 -6 11 -1.9586 -28.7587
-13 -5 -14 11.8513 5.9253
-13 -5 -11 -35.1334 28.5244
-13 -5 -8 -30.4579 -102.3989
-13 -5 -5 6.1338 2.3234
-13 -5 -2 110.4287 69.3833
-13 -5 1 -15.9736 20.5766
-13 -5 4 35.6610 7.5289
-13 -5 7 85.1571 -61.7295
-13 -5 10 -39.9885 -25.9968
-13 -5 13 -10.6287 -55.6398
-13 -4 -12 -7.7389 53.0290
-13 -4 -9 -29.9597 22.4842
-13 -4 -6 60.2504 16.4121
-13 -4 -3 39.1873 89.5751
-13 -4 0 19.8138 -27.3917
-13 -4 3 -73.7344 31.4272
-13 -4 6 23.6134 25.8600
-13 -4 9 15.9125 -24.1055
-13 -4 12 -40.3400 -92.5639
-13 -3 -13 -25.7311 -0.0478
-13 -3 -10 20.2796 19.9528
-13 -3 -7 47.4914 17.3683
-13 -3 -4 24.1104 15.5452
-13 -3 -1 117.1271 -20.0334
-13 -3 2 -23.7744 24.3188
-13 -3 5 23.1521 -16.3189
-13 -3 8 -25.0430 -78.5671
-13 -3 11 -45.3072 83.2899
-13 -3 14 67.9236 -0.0391
-13 -2 -14 -44.2806 21.5742
-13 -2 -11 -16.0789 76.2214
-13 -2 -8 68.7152 35.6259
-13 -2 -5 -15.1233 23.4150
-13 -2 -2 35.2926 12.1581
-13 -2 1 -102.1825 9.8116
-13 -2 4 95.3888 -125.0788
-13 -2 7 -38.7937 53.3186
-13 -2 10 -36.5091 42.4063
-13 -2 13 55.9401 62.1544
-13 -1 -15 11.6315 27.4697
-13 -1 -12 -41.1988 -67.4022
-13 -1 -9 43.8997 -17.0188
-13 -1 -6 -13.9547 57.3626
-13 -1 -3 11.5054 -14.0922
-13 -1 0 -35.9074 -14.3951
-13 -1 3 77.9825 -68.2830
-13 -1 6 -84.7658 33.0022
-13 -1 9 -125.0950 133.2565
-13 -1 12 40.2509 28.7117
-13 -1 15 43.0955 -4.9416
-12 -12 -9 -26.4343 8.5960
-12 -12 -6 16.2013 -15.5373
-12 -12 -3 -36.3764 -21.2279
-12 -12 0 -7.9354 -120.0550
-12 -11 -10 -8.7124 2.2467
-12 -11 -7 0.7101 63.0196
-12 -11 -4 -25.9164 9.2416
-12 -11 -1 58.6591 38.0311
-12 -11 2 41.1137 34.3411
-12 -11 5 -46.1249 -122.4229
-12 -11 8 35.8362 -24.0468
-12 -11 11 14.4296 -4.5642
-12 -10 -11 28.4380 -33.3933
-12 -10 -8 12.1296 7.1121
-12 -10 -5 -7.7997 -37.3781
-12 -10 -2 -8.3247 46.1444
-12 -10 1 -9.7477 -91.4521
-12 -10 4 -72.3095 -6.1143
-12 -10 7 -1.4860 -45.4413
-12 -10 10 -32.2070 -8.7829
-12 -9 -12 28.1135 -31.2492
-12 -9 -9 12.3175 26.3394
-12 -9 -6 -77.2230 50.6514
-12 -9 -3 76.5070 50.9824
-12 -9 0 -31.3900 -4.9315
-12 -9 3 70.7618 -75.5887
-12 -9 6 13.9910 -30.2250
-12 -9 9 23.1188 -16.0184
-12 -9 12 -7.5980 41.3807
-12 -8 -13 -10.4657 0.2052
-12 -8 -10 -8.7078 2.4215
-12 -8 -7 20.7056 -25.7967
-12 -8 -4 -6.3318 7.8306
-12 -8 -1 -51.6516 36.9434
-12 -8 2 17.3983 -125.5728
-12 -8 5 7.1271 -55.0191
-12 -8 8 -61.1060 -39.4384
-12 -8 11 -12.7254 -9.6504
-12 -7 -14 36.2433 8.3707
-12 -7 -11 -46.0789 41.3878
-12 -7 -8 23.2602 -83.6157
-12 -7 -5 16.6715 -61.9058
-12 -7 -2 -28.4434 28.0797
-12 -7 1 -57.8245 -27.2019
-12 -7 4 59.0021 9.9611
-12 -7 7 -90.6821 -15.3353
-12 -7 10 13.1631 63.7341
-12 -7 13 -8.1465 -17.4867
-12 -6 -12 -41.6624 7.3701
-12 -6 -9 4.3196 -37.4150
-12 -6 -6 9.4240 -27.2825
-12 -6 -3 -34.3642 44.4007
-12 -6 0 -3.1292 -100.0356
-12 -6 3 54.5067 -75.1509
-12 -6 6 -6.0527 -62.4887
-12 -6 9 -54.5151 44.1451
-12 -6 12 6.3308 -37.1241
-12 -5 -13 -25.7012 -23.7306
-12 -5 -10 7.3809 17.4051
-12 -5 -7 41.5856 -20.9069
-12 -5 -4 -25.2823 -49.2265
-12 -5 -1 21.1286 -7.6441
-12 -5 2 -37.3511 -29.1593
-12 -5 5 -168.6817 -103.6357
-12 -5 8 23.5849 38.2434
-12 -5 11 7.8230 -25.4685
-12 -5 14 -10.0210 22.3075
-12 -4 -14 -37.9168 -40.7830
-12 -4 -11 -39.1442 -2.6541
-12 -4 -8 5.2820 -21.2919
-12 -4 -5 -49.5057 -93.9605
-12 -4 -2 2.9830 34.3257
-12 -4 1 65.0909 37.5725
-12 -4 7 42.7889 53.4969
-12 -4 10 28.2650 62.1265
-12 -4 13 -3.0022 -36.6928
-12 -3 -15 6.0203 6.2997
-12 -3 -12 -10.1248 -44.1914
-12 -3 -9 63.1274 26.9672
-12 -3 -3 56.7774 -48.3462
-12 -3 0 -63.2855 49.8544
-12 -3 3 -19.6755 -165.3901
-12 -3 9 58.2070 -58.6062
-12 -3 12 -31.9001 7.9077
-12 -3 15 -31.2129 -19.7077
-12 -2 -13 -41.9111 -75.5644
-12 -2 -10 -34.1306 13.6950
-12 -2 -7 -31.5828 16.0535
-12 -2 -4 5.6292 -55.9911
-12 -2 -1 94.5400 -5.6361
-12 -2 2 -31.7208 -94.4809
-12 -2 5 -69.2913 -10.7117
-12 -2 8 153.9969 -22.8634
-12 -2 11 -44.5377 15.8740
-12 -2 14 9.5069 21.0855
-12 -1 -14 33.1251 72.7320
-12 -1 -11 -82.0627 -12.9647
-12 -1 -8 -2.1264 -4.2612
-12 -1 -5 -8.4918 -13.4725
-12 -1 -2 -52.5095 -5.2316
-12 -1 1 -26.8311 43.4309
-12 -1 4 24.2925 4.8313
-12 -1 7 -0.3784 -56.9134
-12 -1 10 -58.5493 -31.3139
-12 -1 13 8.6179 24.5428
-12 -1 16 34.1871 21.2775
-11 -11 -12 6.0243 5.0132
-11 -11 -9 -0.5755 -22.4933
-11 -11 -6 30.9117 10.2286
-11 -11 -3 -5.8689 37.2023
-11 -11 0 128.7907 15.3895
-11 -10 -10 -15.5638 -40.0472
-11 -10 -7 4.4484 8.1247
-11 -10 -4 48.7495 39.9111
-11 -10 -1 78.7139 131.8177
-11 -10 2 67.4077 1.4787
-11 -10 5 -41.2197 26.5133
-11 -10 8 -8.1131 -9.2817
-11 -10 11 22.1868 6.9398
-11 -9 -11 2.4688 -49.9150
-11 -9 -8 58.6443 -31.4452
-11 -9 -5 -7.3144 15.7980
-11 -9 -2 49.9823 145.3676
-11 -9 1 -15.2491 -4.9685
-11 -9 4 -37.7200 50.8864
-11 -9 7 26.7476 -28.6339
-11 -9 10 -34.3150 4.8538
-11 -9 13 -15.0122 14.8022
-11 -8 -12 -23.1294 -7.1787
-11 -8 -9 -5.7267 11.6529
-11 -8 -6 43.4543 16.1931
-11 -8 -3 90.1618 8.3771
-11 -8 0 -34.4322 38.4554
-11 -8 3 16.3613 35.1139
-11 -8 6 -17.5175 61.0030
-11 -8 9 56.4420 69.0418
-11 -8 12 -5.1192 -17.4768
-11 -7 -13 -32.4953 35.8120
-11 -7 -10 -0.7802 27.1004
-11 -7 -7 7.4453 -52.6304
-11 -7 -4 51.3544 23.5914
-11 -7 -1 -16.2246 -21.9371
-11 -7 2 -24.0443 -21.6753
-11 -7 5 23.0659 -38.2181
-11 -7 8 37.0367 -85.0237
-11 -7 14 22.7737 -1.6148
-11 -6 -14 23.7864 -5.7761
-11 -6 -11 -5.8699 72.0549
-11 -6 -8 -15.8330 -28.7954
-11 -6 -5 43.3117 -29.2129
-11 -6 -2 24.7689 75.2451
-11 -6 1 -4.8897 94.9953
-11 -6 4 10.8902 -27.2382
-11 -6 7 120.0263 -0.3246
-11 -6 10 -38.7433 2.8283
-11 -6 13 19.5239 13.9118
-11 -5 -15 5.7804 25.9120
-11 -5 -12 -41.4307 -4.6263
-11 -5 -9 62.8910 -2.1269
-11 -5 -6 21.3561 35.8393
-11 -5 -3 88.5179 49.9150
-11 -5 0 90.0618 26.3646
-11 -5 3 13.7796 5.5147
-11 -5 6 65.1069 -105.0584
-11 -5 9 -56.9602 20.8201
-11 -5 12 6.6790 -34.6820
-11 -5 15 3.7341 -17.4562
-11 -4 -13 31.5031 15.6923
-11 -4 -10 23.8540 81.7523
-11 -4 -7 25.5540 80.3444
-11 -4 -4 57.6145 -7.5238
-11 -4 -1 16.0193 6.4155
-11 -4 2 12.8539 -1.1540
-11 -4 5 -52.3729 -64.2205
-11 -4 8 130.7803 5.9675
-11 -4 11 -14.2184 86.2534
-11 -4 14 -5.3740 -7.6876
-11 -3 -14 19.7472 -22.8336
-11 -3 -11 -22.7510 66.2731
-11 -3 -8 11.3228 52.7137
-11 -3 -5 15.2898 15.0013
-11 -3 -2 40.5463 -14.2234
-11 -3 1 48.4258 127.5348
-11 -3 7 -21.6372 40.9156
-11 -3 10 -78.5282 -4.6103
-11 -3 13 63.6194 25.6266
-11 -3 16 29.9454 -9.1839
-11 -2 -15 -24.0406 65.8586
-11 -2 -12 24.1719 29.7237
-11 -2 -9 -16.8374 36.8637
-11 -2 -6 111.7863 43.5367
-11 -2 -3 -2.2406 1.7215
-11 -2 0 -71.3005 65.3732
-11 -2 3 -38.7048 -53.3242
-11 -2 6 80.6124 -40.7388
-11 -2 9 19.7989 5.7184
-11 -2 12 31.2892 46.3483
-11 -2 15 -2.9591 3.1835
-11 -1 -16 -13.3177 -0.1328
-11 -1 -13 7.8329 16.4018
-11 -1 -10 -34.8369 -20.7602
-11 -1 -7 48.8751 20.1045
-11 -1 -4 -41.4748 12.9332
-11 -1 -1 -25.7525 -6.8780
-11 -1 2 11.1096 -35.2161
-11 -1 5 12.6921 72.4286
-11 -1 8 30.6032 -87.5235
-11 -1 11 -52.5947 65.2173
-11 -1 14 74.8236 -48.3836
-10 -10 -12 32.3437 18.9607
-10 -10 -9 -12.3538 -11.6346
-10 -10 -6 -26.4627 1.1508
-10 -10 -3 11.6971 -51.1441
-10 -10 0 35.6406 -48.7969
-10 -9 -13 10.7754 -1.8944
-10 -9 -10 -18.0919 9.5725
-10 -9 -7 32.5867 29.8926
-10 -9 -4 16.2555 -27.6467
-10 -9 -1 1.6711 168.0889
-10 -9 2 27.6680 3.4652
-10 -9 5 -2.6190 -39.0432
-10 -9 8 38.7274 23.0381
-10 -9 11 33.8631 20.2828
-10 -9 14 22.9714 -16.1036
-10 -8 -14 12.3911 5.3005
-10 -8 -11 -30.3575 -11.5419
-10 -8 -8 -2.1625 -18.3261
-10 -8 -5 56.7404 -48.6038
-10 -8 -2 -45.3853 9.8099
-10 -8 1 20.5259 -36.4274
-10 -8 4 -18.6917 -42.7493
-10 -8 7 -12.9442 47.5290
-10 -8 10 31.6999 76.0283
-10 -8 13 13.4666 -17.0589
-10 -7 -15 13.2995 -4.4220
-10 -7 -12 -50.7061 -65.1594
-10 -7 -9 -0.1499 55.8015
-10 -7 -6 66.3740 -17.7709
-10 -7 -3 49.9780 -9.5757
-10 -7 0 -85.2517 -28.1955
-10 -7 3 27.7399 -132.1661
-10 -7 6 7.9603 89.9445
-10 -7 9 42.3533 2.5130
-10 -7 12 -24.2108 -5.6827
-10 -7 15 -11.0793 26.5555
-10 -6 -13 -50.5860 -45.4826
-10 -6 -10 17.3297 21.5125
-10 -6 -7 -6.5227 -20.3307
-10 -6 -4 -50.6604 33.2464
-10 -6 -1 11.9614 -50.1797
-10 -6 2 3.8985 -16.6974
-10 -6 5 10.1330 -124.9363
-10 -6 8 80.4049 -22.1347
-10 -6 11 -6.5739 -3.6044
-10 -6 14 -8.4336 60.5457
-10 -5 -14 32.6183 -21.7684
-10 -5 -11 -75.6266 -72.7497
-10 -5 -8 72.1956 4.7813
-10 -5 -5 -30.4397 -99.8294
-10 -5 -2 -23.9476 -53.0889
-10 -5 1 32.8847 19.5522
-10 -5 4 -13.5290 -1.1303
-10 -5 7 36.4767 9.5126
-10 -5 10 -4.6215 -14.7700
-10 -5 13 -72.6481 4.5914
-10 -4 -15 -6.7259 -2.1173
-10 -4 -12 0.4916 -87.6912
-10 -4 -9 42.2489 76.4299
-10 -4 -6 -12.2581 -36.7659
-10 -4 -3 35.5474 57.9546
-10 -4 0 6.6699 -12.5796
-10 -4 3 -44.3677 2.1118
-10 -4 6 -6.2067 -133.6204
-10 -4 9 8.7413 18.1889
-10 -4 12 12.9853 57.1819
-10 -4 15 -40.9085 -12.6656
-10 -3 -16 2.8853 40.1210
-10 -3 -13 -1.5124 -44.9277
-10 -3 -10 -18.0896 -17.5237
-10 -3 -7 7.4540 0.3626
-10 -3 -4 -45.3398 -52.2900
-10 -3 -1 -7.9251 -32.0537
-10 -3 2 38.2445 -53.6898
-10 -3 5 -96.9384 54.8142
-10 -3 8 125.7662 15.0680
-10 -3 11 -83.4084 -29.0171
-10 -3 14 -0.4540 -2.4293
-10 -2 -14 -4.8736 -7.5794
-10 -2 -11 68.6802 25.7144
-10 -2 -8 -67.3803 29.2998
-10 -2 -5 41.6758 6.3396
-10 -2 -2 -50.2274 -33.6494
-10 -2 1 56.9158 59.6802
-10 -2 4 -145.2495 91.1459
-10 -2 7 62.7752 -166.2611
-10 -2 10 -14.0922 -22.9846
-10 -2 13 27.8210 18.6732
-10 -2 16 -3.9513 26.5446
-10 -1 -15 -5.6198 37.6243
-10 -1 -12 27.9874 99.0317
-10 -1 -9 10.9470 -26.1116
-10 -1 -6 18.5683 20.6259
-10 -1 -3 -17.4481 -38.6808
-10 -1 0 -14.2910 57.5332
-10 -1 3 63.5259 -1.7154
-10 -1 6 18.7949 21.4042
-10 -1 9 30.8800 -73.5235
-10 -1 12 -15.8708 10.5905
-10 -1 15 -16.4382 -11.5597
-9 -9 -12 -22.8898 1.9831
-9 -9 -9 20.1111 17.6329
-9 -9 -6 19.8366 72.1022
-9 -9 -3 -52.8068 -96.0626
-9 -9 0 56.9558 105.7894
-9 -8 -13 55.5859 -10.2877
-9 -8 -10 -22.9825 53.5771
-9 -8 -7 -58.4893 50.7252
-9 -8 -4 45.3260 -45.1115
-9 -8 -1 -14.9253 41.8847
-9 -8 2 -21.5283 -68.5259
-9 -8 5 4.5022 8.1390
-9 -8 8 45.9804 8.3206
-9 -8 11 -42.0726 76.0302
-9 -8 14 48.6853 19.2135
-9 -7 -14 23.9806 20.1618
-9 -7 -11 -38.1144 23.6161
-9 -7 -8 -44.5358 -52.4223
-9 -7 -5 -2.5511 33.3916
-9 -7 -2 40.4230 -31.4454
-9 -7 1 13.5189 0.3330
-9 -7 4 -44.5128 -31.0451
-9 -7 7 55.8923 37.0960
-9 -7 10 -53.1460 -9.7205
-9 -7 13 -11.4741 33.7186
-9 -6 -15 18.8127 15.4843
-9 -6 -12 32.9868 -80.3410
-9 -6 -9 7.4198 44.2462
-9 -6 -6 44.8552 7.6505
-9 -6 -3 -39.3415 -4.3422
-9 -6 0 24.6489 -53.5280
-9 -6 3 -19.9307 136.0744
-9 -6 6 119.9908 -35.4153
-9 -6 9 -71.5407 23.4744
-9 -6 12 -38.2653 -18.9555
-9 -6 15 15.3053 4.2375
-9 -5 -16 -8.6679 5.4012
-9 -5 -13 11.1097 47.1961
-9 -5 -10 -32.2393 13.2704
-9 -5 -7 11.8915 -4.8166
-9 -5 -4 -53.4551 49.0618
-9 -5 -1 106.9133 0.5072
-9 -5 2 -21.8224 105.5243
-9 -5 5 18.1098 17.9236
-9 -5 8 -19.2188 -50.3530
-9 -5 11 1.8837 97.1279
-9 -5 14 23.2960 -33.1775
-9 -4 -14 -13.0428 -3.1098
-9 -4 -11 47.3065 -32.6660
-9 -4 -8 31.3189 3.7590
-9 -4 -5 -26.3009 52.7068
-9 -4 -2 -70.2480 6.3468
-9 -4 1 -31.7761 61.3363
-9 -4 4 60.3031 55.0266
-9 -4 7 -34.3603 -112.6825
-9 -4 10 -14.6260 42.7655
-9 -4 13 5.6876 55.5118
-9 -4 16 5.6966 19.7571
-9 -3 -15 0.0637 27.5748
-9 -3 -12 46.1184 34.0559
-9 -3 -9 -40.2671 32.3683
-9 -3 -6 -0.7819 81.9803
-9 -3 -3 3.6238 82.3049
-9 -3 0 35.7378 59.8907
-9 -3 3 9.7861 65.4300
-9 -3 6 -107.9877 -75.6856
-9 -3 9 -19.4915 95.6627
-9 -3 12 -22.0651 23.6133
-9 -3 15 42.8548 -24.3257
-9 -2 -16 -34.6943 60.9113
-9 -2 -13 -54.2181 22.9869
-9 -2 -7 55.7385 85.6634
-9 -2 -4 -34.8989 -28.9410
-9 -2 -1 -57.4844 -72.8145
-9 -2 2 38.8444 -77.0638
-9 -2 5 4.3078 42.0866
-9 -2 11 -25.0390 25.0536
-9 -2 14 50.1617 -18.0028
-9 -2 17 -41.1502 23.1164
-9 -1 -17 -7.9288 24.2615
-9 -1 -14 -50.8744 -64.7237
-9 -1 -11 56.7380 62.9410
-9 -1 -8 -23.7158 27.4906
-9 -1 -5 0.7330 20.7890
-9 -1 -2 -59.3879 -3.7205
-9 -1 4 -75.0486 49.3569
-9 -1 7 -41.4786 14.8568
-9 -1 10 -47.4215 -34.9817
-9 -1 13 58.6265 -17.1394
-9 -1 16 -26.6691 -14.1555
-8 -8 -15 -24.2620 48.0295
-8 -8 -12 34.5446 -29.6513
-8 -8 -9 -56.0129 1.4401
-8 -8 -6 42.2695 61.0898
-8 -8 -3 -41.0888 -51.3697
-8 -8 0 34.5902 -84.5424
-8 -7 -16 12.3949 9.8284
-8 -7 -13 8.3087 -42.8758
-8 -7 -10 -78.4424 -5.0201
-8 -7 -7 -8.9183 -47.4089
-8 -7 -4 -102.1211 -85.2672
-8 -7 -1 52.8951 -12.5533
-8 -7 2 -50.0594 -12.4429
-8 -7 5 -39.9251 -13.2503
-8 -7 8 1.9501 -57.0490
-8 -7 11 58.9172 -23.4291
-8 -7 14 -0.8863 25.9157
-8 -6 -14 -13.2534 15.2325
-8 -6 -11 10.6169 -90.6859
-8 -6 -8 31.1984 -44.6749
-8 -6 -5 -15.7004 8.9084
-8 -6 -2 -103.2459 55.8279
-8 -6 1 -25.0076 26.8324
-8 -6 4 -30.1406 26.9663
-8 -6 7 53.7852 -54.1031
-8 -6 10 49.2293 26.3487
-8 -6 13 -72.7352 16.9637
-8 -6 16 9.4806 17.0718
-8 -5 -15 -23.9684 -37.4269
-8 -5 -12 17.2378 -108.3584
-8 -5 -9 -35.7583 32.9405
-8 -5 -6 -37.4189 -8.8029
-8 -5 -3 -88.2780 12.4524
-8 -5 0 35.0253 -91.4457
-8 -5 3 72.3453 -25.1128
-8 -5 6 -25.6497 14.3574
-8 -5 9 43.2377 50.7715
-8 -5 12 -79.6517 18.8766
-8 -5 15 -29.3891 -13.9197
-8 -4 -16 19.3698 34.3915
-8 -4 -13 -34.9480 -16.1883
-8 -4 -10 -29.6895 2.0192
-8 -4 -7 6.8551 -1.9333
-8 -4 -4 -22.7381 36.8562
-8 -4 -1 -13.2682 -29.7405
-8 -4 5 -13.1308 -20.5053
-8 -4 8 10.9462 -12.3836
-8 -4 11 -56.7837 42.6568
-8 -4 14 48.9605 74.8851
-8 -3 -17 -22.9262 6.0273
-8 -3 -14 -69.7013 -7.6161
-8 -3 -11 6.1098 18.4576
-8 -3 -8 -31.2571 -8.7491
-8 -3 -5 -77.6507 11.0798
-8 -3 -2 -132.0237 -91.1090
-8 -3 1 23.4409 1.0194
-8 -3 4 -4.5518 16.7651
-8 -3 7 -40.6204 50.0343
-8 -3 10 -64.0303 -3.8053
-8 -3 13 9.7723 26.6028
-8 -3 16 -39.9397 15.7847
-8 -2 -15 -2.4404 36.5539
-8 -2 -12 -32.0554 77.7340
-8 -2 -9 -23.6143 19.6537
-8 -2 -6 90.8446 58.4426
-8 -2 -3 32.1726 -8.8414
-8 -2 0 29.9407 -30.4668
-8 -2 3 -44.1060 59.5385
-8 -2 6 -152.8410 34.9799
-8 -2 9 48.8942 -41.9908
-8 -2 12 64.1095 7.7531
-8 -2 15 -34.0009 11.5955
-8 -1 -16 -44.7776 20.3903
-8 -1 -13 -26.2623 26.9429
-8 -1 -10 29.1092 8.8382
-8 -1 -7 58.5748 20.1980
-8 -1 -4 -118.0988 -52.0735
-8 -1 -1 105.4189 -13.0953
-8 -1 2 -38.1975 4.7415
-8 -1 5 -24.1409 44.3418
-8 -1 8 -14.0258 40.2058
-8 -1 14 -26.4337 8.4996
-8 -1 17 -16.1031 -9.1839
-7 -7 -15 -26.0864 -1.3624
-7 -7 -12 44.6046 -11.5266
-7 -7 -9 -38.2286 45.4831
-7 -7 -6 -8.6416 75.2136
-7 -7 -3 -48.7325 31.8333
-7 -7 0 198.9765 3.1873
-7 -6 -16 -22.5722 5.5270
-7 -6 -13 9.2289 -15.9957
-7 -6 -10 31.8711 -14.2076
-7 -6 -7 -22.4022 51.3968
-7 -6 -4 -69.3299 -130.1231
-7 -6 -1 33.0436 -28.8101
-7 -6 2 -63.2627 14.3573
-7 -6 5 -66.4207 -23.2346
-7 -6 8 -4.1934 5.4460
-7 -6 11 -0.8984 65.0342
-7 -6 14 -35.0778 -17.6873
-7 -5 -17 -26.2009 4.1289
-7 -5 -14 -47.3002 -10.8506
-7 -5 -11 49.8532 96.4530
-7 -5 -8 -73.6899 -7.6170
-7 -5 -5 33.3363 63.4820
-7 -5 -2 20.5872 115.9815
-7 -5 4 25.9673 -43.8144
-7 -5 7 -43.3986 90.0562
-7 -5 10 24.4739 81.3011
-7 -5 13 16.1258 80.5064
-7 -5 16 -46.8847 -25.6640
-7 -4 -15 -30.9047 22.9042
-7 -4 -12 8.3309 -32.5719
-7 -4 -9 -46.8880 16.6541
-7 -4 -6 35.5155 15.4485
-7 -4 -3 -44.0178 -42.7303
-7 -4 0 -66.5424 -121.5165
-7 -4 3 79.9991 16.0070
-7 -4 6 22.0181 -21.6682
-7 -4 9 -8.6496 38.2253
-7 -4 12 -41.1683 11.6189
-7 -4 15 -39.9565 26.1337
-7 -3 -16 -34.1278 9.7326
-7 -3 -13 -11.2161 25.3921
-7 -3 -10 -73.2163 15.3225
-7 -3 -7 70.2555 5.0878
-7 -3 -4 -7.2496 -8.7141
-7 -3 -1 47.6695 4.1509
-7 -3 2 -106.8666 78.5296
-7 -3 5 -6.1665 54.2780
-7 -3 8 -6.2787 -15.4633
-7 -3 11 -106.7956 55.3810
-7 -3 14 30.3326 -5.9279
-7 -3 17 11.4678 -12.8918
-7 -2 -17 -40.6830 -8.9149
-7 -2 -14 -1.4639 -19.8405
-7 -2 -11 -98.2155 33.2692
-7 -2 -8 -9.4029 -36.8359
-7 -2 -5 12.0050 9.2151
-7 -2 -2 -100.0313 -36.5194
-7 -2 1 -93.3289 -82.7402
-7 -2 4 193.0020 -49.2774
-7 -2 7 -69.2053 20.4337
-7 -2 10 36.9445 -37.2784
-7 -2 13 64.5461 10.7626
-7 -2 16 20.8458 10.0448
-7 -1 -15 34.1752 -15.8089
-7 -1 -12 -12.3454 23.9807
-7 -1 -9 45.4709 11.6157
-7 -1 -6 43.5172 -14.2708
-7 -1 -3 42.6821 47.3083
-7 -1 0 55.3975 -52.6057
-7 -1 3 108.2029 21.6492
-7 -1 6 -18.5582 66.5023
-7 -1 9 -28.1216 2.0063
-7 -1 12 -60.8437 -8.9052
-7 -1 15 29.6461 -28.6321
-6 -6 -15 -66.6181 40.8288
-6 -6 -12 24.1054 11.1859
-6 -6 -9 39.6250 54.5473
-6 -6 -6 69.6443 43.2101
-6 -6 -3 27.9842 3.7450
-6 -6 0 -131.3138 -16.4761
-6 -5 -16 -30.7894 11.1909
-6 -5 -13 -32.2110 -7.1513
-6 -5 -10 49.0882 24.6648
-6 -5 -7 -95.5081 -56.7393
-6 -5 -4 -60.4225 -171.3191
-6 -5 -1 -51.2857 -7.2829
-6 -5 2 -26.3708 11.0765
-6 -5 5 34.2937 -40.0301
-6 -5 8 -45.9084 22.4697
-6 -5 14 -34.1725 72.6725
-6 -5 17 -19.5999 -8.2145
-6 -4 -17 -27.6056 1.3754
-6 -4 -14 5.8670 52.5499
-6 -4 -11 -9.5729 20.7891
-6 -4 -8 -59.6256 -26.6466
-6 -4 -5 112.2512 -46.0868
-6 -4 -2 -124.3798 103.5846
-6 -4 1 -256.0869 34.9900
-6 -4 4 29.1271 -6.2702
-6 -4 7 30.9690 -29.1024
-6 -4 10 13.4980 30.9551
-6 -4 13 66.6921 79.0896
-6 -4 16 24.6530 1.5731
-6 -3 -15 25.5471 -34.2633
-6 -3 -12 -45.6879 4.2090
-6 -3 -9 32.3792 -50.2565
-6 -3 -6 -36.8304 5.6399
-6 -3 -3 -35.1356 54.5737
-6 -3 0 15.6792 -142.8588
-6 -3 3 38.4662 29.7022
-6 -3 6 -68.3708 61.3549
-6 -3 9 54.7115 78.5857
-6 -3 12 -1.0782 -25.7544
-6 -3 15 -57.7132 -31.4731
-6 -2 -16 16.6399 -7.7634
-6 -2 -13 26.3350 17.8079
-6 -2 -10 -137.4278 50.1967
-6 -2 -7 11.3339 24.4850
-6 -2 -4 -24.6152 22.4370
-6 -2 -1 -96.1284 -27.9529
-6 -2 2 -56.9387 80.2752
-6 -2 5 -4.8051 47.7200
-6 -2 8 -66.1795 29.1119
-6 -2 11 54.8985 -51.5786
-6 -2 14 32.9563 8.8211
-6 -2 17 -5.1247 -19.8746
-6 -1 -17 -20.3965 -51.5700
-6 -1 -14 -18.0431 -34.7353
-6 -1 -11 -0.5411 63.3577
-6 -1 -5 -56.6810 -1.5090
-6 -1 -2 62.5158 2.0048
-6 -1 1 -60.2760 -3.7034
-6 -1 4 67.2702 -24.0383
-6 -1 7 -18.5901 95.8858
-6 -1 10 32.5131 -64.5795
-6 -1 13 -57.6632 19.9011
-6 -1 16 -50.1252 -12.1225
-5 -5 -15 -19.8112 -18.1921
-5 -5 -12 0.4167 18.5563
-5 -5 -9 57.5270 38.3039
-5 -5 -3 72.4260 98.9531
-5 -4 -16 9.7686 -14.1825
-5 -4 -10 -1.4830 -68.3972
-5 -4 -7 -5.1084 40.3993
-5 -4 -4 -81.0084 -91.0069
-5 -4 2 -131.1203 3.7154
-5 -4 5 -21.1292 -80.3442
-5 -4 8 39.6890 -45.8170
-5 -4 11 9.0883 -5.7361
-5 -4 14 -57.8849 -6.0824
-5 -4 17 16.6865 13.5592
-5 -3 -17 -22.6632 -27.5259
-5 -3 -14 4.3615 -68.6046
-5 -3 -11 -11.3606 27.9301
-5 -3 -8 11.8575 -68.9053
-5 -3 -5 -61.3578 -30.9335
-5 -3 -2 11.3188 138.0585
-5 -3 1 27.1019 1.4600
-5 -3 4 -27.6150 -37.4178
-5 -3 7 -1.4430 -27.6265
-5 -3 10 1.8604 7.1545
-5 -3 13 40.8108 -2.9409
-5 -3 16 -18.1836 -42.3387
-5 -2 -18 9.3387 -62.3130
-5 -2 -15 65.4995 -40.3542
-5 -2 -12 49.9746 -7.2578
-5 -2 -6 -79.1577 11.7698
-5 -2 -3 19.0326 74.7922
-5 -2 0 106.3691 -107.9906
-5 -2 3 239.1615 -11.2567
-5 -2 6 -6.6278 45.7619
-5 -2 9 -16.7928 21.9614
-5 -2 15 -10.2449 -21.5138
-5 -2 18 12.5450 18.0845
-5 -1 -16 -25.3111 21.1340
-5 -1 -13 23.9427 -43.7986
-5 -1 -10 -3.8783 39.8254
-5 -1 -7 -86.4460 14.4270
-5 -1 -4 21.6399 -29.4749
-5 -1 -1 139.5528 0.4210
-5 -1 2 106.5208 -13.6385
-5 -1 5 -70.9176 39.2074
-5 -1 8 -59.3371 30.0418
-5 -1 11 -7.0308 -10.2548
-5 -1 14 -3.7473 -22.5775
-5 -1 17 -85.8675 -7.8992
-4 -4 -15 12.9203 -25.8612
-4 -4 -12 54.6155 6.3373
-4 -4 -9 104.3412 -8.0118
-4 -4 -6 -106.5657 -6.0129
-4 -4 -3 -119.8500 115.8037
-4 -4 0 141.8305 -9.9844
-4 -3 -16 21.0107 3.4698
-4 -3 -13 -27.7856 -17.5983
-4 -3 -10 33.4691 3.6534
-4 -3 -7 -93.7718 -41.2616
-4 -3 -4 -154.9766 2.7217
-4 -3 -1 185.2421 24.1044
-4 -3 2 -64.9073 35.3428
-4 -3 5 -179.9873 21.3713
-4 -3 8 8.7058 -30.9603
-4 -3 11 73.8357 7.2819
-4 -3 14 -36.9393 -42.0662
-4 -3 17 -56.0310 -18.6646
-4 -2 -17 -85.9030 -26.5496
-4 -2 -14 -1.7080 -52.6736
-4 -2 -11 4.0451 31.0406
-4 -2 -8 -67.0635 44.0927
-4 -2 -5 -162.0433 -31.4609
-4 -2 -2 41.1075 105.2606
-4 -2 4 -139.5556 20.7508
-4 -2 7 121.0692 -63.5771
-4 -2 10 -63.0348 2.5001
-4 -2 13 -11.9124 8.6211
-4 -2 16 -15.3100 13.4562
-4 -1 -18 48.4845 -31.8444
-4 -1 -15 25.4716 3.4606
-4 -1 -12 -23.4893 -2.2851
-4 -1 -9 51.0017 32.3328
-4 -1 -3 106.2794 19.1974
-4 -1 3 100.4591 -44.3761
-4 -1 6 -7.6158 -62.2573
-4 -1 9 -60.6669 48.2696
-4 -1 12 40.7481 5.9431
-4 -1 15 19.3813 16.9604
-4 -1 18 -3.8655 3.0447
-3 -3 -18 -17.4093 -15.0644
-3 -3 -15 38.1441 -23.7006
-3 -3 -12 79.2925 43.7397
-3 -3 -9 -32.8095 4.9065
-3 -3 -6 -106.5956 -130.4108
-3 -3 -3 -46.3650 78.3815
-3 -3 0 441.5168 38.0270
-3 -2 -16 18.9955 71.5118
-3 -2 -13 33.8282 -32.8843
-3 -2 -10 24.5990 -45.2452
-3 -2 -7 47.6139 1.2823
-3 -2 -4 -33.2217 -13.9179
-3 -2 2 9.3064 -17.2231
-3 -2 5 -59.3253 -63.3644
-3 -2 8 -34.7396 26.1709
-3 -2 11 53.4603 65.8459
-3 -2 14 -100.7598 -41.9853
-3 -2 17 13.0310 52.3923
-3 -1 -17 51.1215 30.9708
-3 -1 -14 -35.0857 -17.7283
-3 -1 -11 38.1029 -31.7057
-3 -1 -8 -64.5943 2.6722
-3 -1 -5 -8.5405 -36.6279
-3 -1 4 169.6102 -40.5265
-3 -1 10 -35.4692 63.4275
-3 -1 13 42.3421 -50.5975
-3 -1 16 29.4996 59.6564
-2 -2 -18 81.3330 4.9445
-2 -2 -15 -18.3094 37.7309
-2 -2 -12 4.5033 1.4894
-2 -2 -9 108.1152 -1.3980
-2 -2 -6 -89.5478 -125.9036
-2 -2 -3 -216.4657 4.1448
-2 -1 -16 73.3295 56.0403
-2 -1 -13 -54.9568 -10.1501
-2 -1 -10 74.7083 -8.6448
-2 -1 -7 -34.8377 -42.6627
-2 -1 -4 142.2143 11.0430
-2 -1 5 161.0218 -77.4920
-2 -1 8 -26.2985 -48.1052
-2 -1 11 34.7149 29.4292
-2 -1 14 -3.0012 -13.3460
-2 -1 17 59.6993 57.5626
-1 -1 -18 70.5044 6.9736
-1 -1 -15 50.9481 3.9356
-1 -1 -12 5.5404 1.7631
-1 -1 -9 5.0647 -18.2166
-1 -1 -6 53.5302 -70.6320
0 0 12 -20.7183 0.0000
0 0 18 90.7587 0.0000
1 0 -17 23.4147 0.0000
1 0 -14 2.0929 -0.0000
1 0 -11 3.8007 0.0000
1 0 -8 -65.5315 0.0000
1 0 -5 -118.4312 -0.0000
1 0 7 -24.0197 -0.0000
1 0 10 -12.1406 0.0000
1 0 13 19.6198 0.0000
1 0 16 1.7367 0.0000
1 1 6 53.5302 70.6320
1 1 9 5.0647 18.2166
1 1 12 5.5404 -1.7631
1 1 15 50.9481 -3.9356
1 1 18 70.5044 -6.9736
2 0 -16 4.5546 0.0000
2 0 -13 -16.8493 0.0000
2 0 -10 40.1242 -0.0000
2 0 -4 -90.8624 0.0000
2 0 8 3.3914 0.0000
2 0 11 -50.3566 0.0000
2 0 14 -25.1581 0.0000
2 0 17 -18.7704 0.0000
2 1 -17 59.6993 -57.5626
2 1 -14 -3.0012 13.3460
2 1 -11 34.7149 -29.4292
2 1 -8 -26.2985 48.1052
2 1 -5 161.0218 77.4920
2 1 4 142.2143 -11.0430
2 1 7 -34.8377 42.6627
2 1 10 74.7083 8.6448
2 1 13 -54.9568 10.1501
2 1 16 73.3295 -56.0403
2 2 3 -216.4657 -4.1448
2 2 6 -89.5478 125.9036
2 2 9 108.1152 1.3980
2 2 12 4.5033 -1.4894
2 2 15 -18.3094 -37.7309
2 2 18 81.3330 -4.9445
3 0 -18 96.1935 -0.0000
3 0 -12 17.3542 0.0000
3 0 -9 55.6959 -0.0000
3 0 -6 24.9265 -0.0000
3 0 9 59.9281 0.0000
3 0 12 20.5261 0.0000
3 0 15 51.9913 0.0000
3 0 18 78.8168 0.0000
3 1 -16 29.4996 -59.6564
3 1 -13 42.3421 50.5975
3 1 -10 -35.4692 -63.4275
3 1 -7 -83.0467 81.4453
3 1 -4 169.6102 40.5265
3 1 5 -8.5405 36.6279
3 1 8 -64.5943 -2.6722
3 1 11 38.1029 31.7057
3 1 14 -35.0857 17.7283
3 1 17 51.1215 -30.9708
3 2 -17 13.0310 -52.3923
3 2 -14 -100.7598 41.9853
3 2 -11 53.4603 -65.8459
3 2 -8 -34.7396 -26.1709
3 2 -5 -59.3253 63.3644
3 2 -2 9.3064 17.2231
3 2 4 -33.2217 13.9179
3 2 7 47.6139 -1.2823
3 2 10 24.5990 45.2452
3 2 13 33.8282 32.8843
3 2 16 18.9955 -71.5118
3 3 3 -46.3650 -78.3815
3 3 6 -106.5956 130.4108
3 3 9 -32.8095 -4.9065
3 3 12 79.2925 -43.7397
3 3 15 38.1441 23.7006
3 3 18 -17.4093 15.0644
4 0 -17 -40.4420 0.0000
4 0 -14 -34.7849 -0.0000
4 0 -8 -42.0037 0.0000
4 0 4 -122.7255 0.0000
4 0 13 -23.1774 0.0000
4 0 16 -29.9632 0.0000
4 1 -18 -3.8655 -3.0447
4 1 -15 19.3813 -16.9604
4 1 -12 40.7481 -5.9431
4 1 -9 -60.6669 -48.2696
4 1 -6 -7.6158 62.2573
4 1 -3 100.4591 44.3761
4 1 3 106.2794 -19.1974
4 1 9 51.0017 -32.3328
4 1 12 -23.4893 2.2851
4 1 15 25.4716 -3.4606
4 1 18 48.4845 31.8444
4 2 -16 -15.3100 -13.4562
4 2 -13 -11.9124 -8.6211
4 2 -10 -63.0348 -2.5001
4 2 -7 121.0692 63.5771
4 2 -4 -139.5556 -20.7508
4 2 -1 -148.4601 -1.8469
4 2 2 41.1075 -105.2606
4 2 5 -162.0433 31.4609
4 2 8 -67.0635 -44.0927
4 2 11 4.0451 -31.0406
4 2 14 -1.7080 52.6736
4 2 17 -85.9030 26.5496
4 3 -17 -56.0310 18.6646
4 3 -14 -36.9393 42.0662
4 3 -11 73.8357 -7.2819
4 3 -8 8.7058 30.9603
4 3 -5 -179.9873 -21.3713
4 3 -2 -64.9073 -35.3428
4 3 1 185.2421 -24.1044
4 3 4 -154.9766 -2.7217
4 3 7 -93.7718 41.2616
4 3 10 33.4691 -3.6534
4 3 13 -27.7856 17.5983
4 3 16 21.0107 -3.4698
4 4 0 141.8305 9.9844
4 4 3 -119.8500 -115.8037
4 4 6 -106.5657 6.0129
4 4 9 104.3412 8.0118
4 4 12 54.6155 -6.3373
4 4 15 12.9203 25.8612
5 0 -16 1.0547 -0.0000
5 0 -13 -86.0832 0.0000
5 0 -10 -3.4722 -0.0000
5 0 -7 -38.0476 -0.0000
5 0 -4 283.5787 0.0000
5 0 2 89.8941 0.0000
5 0 5 104.0140 0.0000
5 0 8 -30.2161 0.0000
5 0 11 -11.9001 -0.0000
5 0 14 71.6717 0.0000
5 0 17 -33.0889 0.0000
5 1 -17 -85.8675 7.8992
5 1 -14 -3.7473 22.5775
5 1 -11 -7.0308 10.2548
5 1 -8 -59.3371 -30.0418
5 1 -5 -70.9176 -39.2074
5 1 -2 106.5208 13.6385
5 1 1 139.5528 -0.4210
5 1 4 21.6399 29.4749
5 1 7 -86.4460 -14.4270
5 1 10 -3.8783 -39.8254
5 1 13 23.9427 43.7986
5 1 16 -25.3111 -21.1340
5 2 -18 12.5450 -18.0845
5 2 -15 -10.2449 21.5138
5 2 -12 9.2729 -4.5530
5 2 -9 -16.7928 -21.9614
5 2 -6 -6.6278 -45.7619
5 2 -3 239.1615 11.2567
5 2 0 106.3691 107.9906
5 2 3 19.0326 -74.7922
5 2 6 -79.1577 -11.7698
5 2 9 20.9031 -34.5508
5 2 12 49.9746 7.2578
5 2 15 65.4995 40.3542
5 2 18 9.3387 62.3130
5 3 -16 -18.1836 42.3387
5 3 -13 40.8108 2.9409
5 3 -10 1.8604 -7.1545
5 3 -7 -1.4430 27.6265
5 3 -1 27.1019 -1.4600
5 3 2 11.3188 -138.0585
5 3 5 -61.3578 30.9335
5 3 8 11.8575 68.9053
5 3 11 -11.3606 -27.9301
5 3 14 4.3615 68.6046
5 3 17 -22.6632 27.5259
5 4 -17 16.6865 -13.5592
5 4 -14 -57.8849 6.0824
5 4 -11 9.0883 5.7361
5 4 -8 39.6890 45.8170
5 4 -5 -21.1292 80.3442
5 4 -2 -131.1203 -3.7154
5 4 1 -45.5143 50.8293
5 4 4 -81.0084 91.0069
5 4 7 -5.1084 -40.3993
5 4 10 -1.4830 68.3972
5 4 13 9.6010 2.7505
5 4 16 9.7686 14.1825
5 5 0 4.8055 -37.8786
5 5 3 72.4260 -98.9531
5 5 6 80.0137 46.5709
5 5 9 57.5270 -38.3039
5 5 12 0.4167 -18.5563
5 5 15 -19.8112 18.1921
6 0 -18 16.6250 0.0000
6 0 -15 59.2792 0.0000
6 0 -12 -101.6106 0.0000
6 0 -9 60.2907 0.0000
6 0 -6 -107.6033 0.0000
6 0 -3 178.4571 -0.0000
6 0 0 22.4681 -0.0000
6 0 3 40.5206 0.0000
6 0 9 10.8947 -0.0000
6 0 12 -49.0412 0.0000
6 0 15 24.0671 -0.0000
6 0 18 5.1247 0.0000
6 1 -16 -50.1252 12.1225
6 1 -13 -57.6632 -19.9011
6 1 -10 32.5131 64.5795
6 1 -7 -18.5901 -95.8858
6 1 -1 -60.2760 3.7034
6 1 2 62.5158 -2.0048
6 1 5 -56.6810 1.5090
6 1 11 -0.5411 -63.3577
6 1 14 -18.0431 34.7353
6 1 17 -20.3965 51.5700
6 2 -17 -5.1247 19.8746
6 2 -14 32.9563 -8.8211
6 2 -11 54.8985 51.5786
6 2 -8 -66.1795 -29.1119
6 2 -5 -4.8051 -47.7200
6 2 -2 -56.9387 -80.2752
6 2 1 -96.1284 27.9529
6 2 4 -24.6152 -22.4370
6 2 7 11.3339 -24.4850
6 2 10 -137.4278 -50.1967
6 2 13 26.3350 -17.8079
6 2 16 16.6399 7.7634
6 3 -15 -57.7132 31.4731
6 3 -12 -1.0782 25.7544
6 3 -9 54.7115 -78.5857
6 3 -6 -68.3708 -61.3549
6 3 -3 38.4662 -29.7022
6 3 0 15.6792 142.8588
6 3 3 -35.1356 -54.5737
6 3 6 -36.8304 -5.6399
6 3 9 32.3792 50.2565
6 3 12 -45.6879 -4.2090
6 3 15 25.5471 34.2633
6 4 -16 24.6530 -1.5731
6 4 -13 66.6921 -79.0896
6 4 -10 13.4980 -30.9551
6 4 -7 30.9690 29.1024
6 4 -4 29.1271 6.2702
6 4 -1 -256.0869 -34.9900
6 4 2 -124.3798 -103.5846
6 4 5 112.2512 46.0868
6 4 8 -59.6256 26.6466
6 4 11 -9.5729 -20.7891
6 4 14 5.8670 -52.5499
6 4 17 -27.6056 -1.3754
6 5 -17 -19.5999 8.2145
6 5 -14 -34.1725 -72.6725
6 5 -11 -26.1387 -40.5628
6 5 -8 -45.9084 -22.4697
6 5 -5 34.2937 40.0301
6 5 -2 -26.3708 -11.0765
6 5 1 -51.2857 7.2829
6 5 4 -60.4225 171.3191
6 5 7 -95.5081 56.7393
6 5 10 49.0882 -24.6648
6 5 13 -32.2110 7.1513
6 5 16 -30.7894 -11.1909
6 6 0 -131.3138 16.4761
6 6 3 27.9842 -3.7450
6 6 6 69.6443 -43.2101
6 6 9 39.6250 -54.5473
6 6 12 24.1054 -11.1859
6 6 15 -66.6181 -40.8288
7 0 -17 -43.7759 -0.0000
7 0 -14 28.5305 0.0000
7 0 -11 41.4143 -0.0000
7 0 -8 -15.8609 0.0000
7 0 -5 190.6860 0.0000
7 0 1 5.9703 0.0000
7 0 4 12.7455 0.0000
7 0 7 51.2756 0.0000
7 0 10 -26.8496 0.0000
7 0 13 -5.9542 0.0000
7 0 16 -5.1612 0.0000
7 1 -15 29.6461 28.6321
7 1 -12 -60.8437 8.9052
7 1 -9 -28.1216 -2.0063
7 1 -6 -18.5582 -66.5023
7 1 -3 108.2029 -21.6492
7 1 0 55.3975 52.6057
7 1 3 42.6821 -47.3083
7 1 6 43.5172 14.2708
7 1 9 45.4709 -11.6157
7 1 12 -12.3454 -23.9807
7 1 15 34.1752 15.8089
7 2 -16 20.8458 -10.0448
7 2 -13 64.5461 -10.7626
7 2 -10 36.9445 37.2784
7 2 -7 -69.2053 -20.4337
7 2 -4 193.0020 49.2774
7 2 -1 -93.3289 82.7402
7 2 2 -100.0313 36.5194
7 2 5 12.0050 -9.2151
7 2 8 -9.4029 36.8359
7 2 11 -98.2155 -33.2692
7 2 14 -1.4639 19.8405
7 2 17 -40.6830 8.9149
7 3 -17 11.4678 12.8918
7 3 -14 30.3326 5.9279
7 3 -11 -106.7956 -55.3810
7 3 -8 -6.2787 15.4633
7 3 -5 -6.1665 -54.2780
7 3 -2 -106.8666 -78.5296
7 3 1 47.6695 -4.1509
7 3 4 -7.2496 8.7141
7 3 7 70.2555 -5.0878
7 3 10 -73.2163 -15.3225
7 3 13 -11.2161 -25.3921
7 3 16 -34.1278 -9.7326
7 4 -15 -39.9565 -26.1337
7 4 -12 -41.1683 -11.6189
7 4 -9 -8.6496 -38.2253
7 4 -6 22.0181 21.6682
7 4 -3 79.9991 -16.0070
7 4 0 -66.5424 121.5165
7 4 3 -44.0178 42.7303
7 4 6 35.5155 -15.4485
7 4 9 -46.8880 -16.6541
7 4 12 8.3309 32.5719
7 4 15 -30.9047 -22.9042
7 5 -16 -46.8847 25.6640
7 5 -13 16.1258 -80.5064
7 5 -10 24.4739 -81.3011
7 5 -7 -43.3986 -90.0562
7 5 -4 25.9673 43.8144
7 5 -1 1.8429 -154.3599
7 5 2 20.5872 -115.9815
7 5 5 33.3363 -63.4820
7 5 8 -73.6899 7.6170
7 5 11 49.8532 -96.4530
7 5 14 -47.3002 10.8506
7 5 17 -26.2009 -4.1289
7 6 -14 -35.0778 17.6873
7 6 -11 -0.8984 -65.0342
7 6 -8 -4.1934 -5.4460
7 6 -5 -66.4207 23.2346
7 6 -2 -63.2627 -14.3573
7 6 1 33.0436 28.8101
7 6 4 -69.3299 130.1231
7 6 7 -22.4022 -51.3968
7 6 10 31.8711 14.2076
7 6 13 9.2289 15.9957
7 6 16 -22.5722 -5.5270
7 7 0 198.9765 -3.1873
7 7 3 -48.7325 -31.8333
7 7 6 -8.6416 -75.2136
7 7 9 -38.2286 -45.4831
7 7 12 44.6046 11.5266
7 7 15 -26.0864 1.3624
8 0 -16 43.2597 -0.0000
8 0 -13 26.7413 0.0000
8 0 -7 26.0773 0.0000
8 0 -4 -32.0847 0.0000
8 0 -1 -152.7202 -0.0000
8 0 2 -41.4916 0.0000
8 0 5 75.5877 0.0000
8 0 8 -83.8984 0.0000
8 0 11 20.9926 -0.0000
8 0 14 -5.2446 -0.0000
8 0 17 -52.7170 0.0000
8 1 -17 -16.1031 9.1839
8 1 -14 -26.4337 -8.4996
8 1 -8 -14.0258 -40.2058
8 1 -5 -24.1409 -44.3418
8 1 -2 -38.1975 -4.7415
8 1 1 105.4189 13.0953
8 1 4 -118.0988 52.0735
8 1 7 58.5748 -20.1980
8 1 10 29.1092 -8.8382
8 1 13 -26.2623 -26.9429
8 1 16 -44.7776 -20.3903
8 2 -15 -34.0009 -11.5955
8 2 -12 64.1095 -7.7531
8 2 -9 48.8942 41.9908
8 2 -6 -152.8410 -34.9799
8 2 -3 -44.1060 -59.5385
8 2 0 29.9407 30.4668
8 2 3 32.1726 8.8414
8 2 6 90.8446 -58.4426
8 2 9 -23.6143 -19.6537
8 2 12 -32.0554 -77.7340
8 2 15 -2.4404 -36.5539
8 3 -16 -39.9397 -15.7847
8 3 -13 9.7723 -26.6028
8 3 -10 -64.0303 3.8053
8 3 -7 -40.6204 -50.0343
8 3 -4 -4.5518 -16.7651
8 3 -1 23.4409 -1.0194
8 3 2 -132.0237 91.1090
8 3 5 -77.6507 -11.0798
8 3 8 -31.2571 8.7491
8 3 11 6.1098 -18.4576
8 3 14 -69.7013 7.6161
8 3 17 -22.9262 -6.0273
8 4 -14 48.9605 -74.8851
8 4 -11 -56.7837 -42.6568
8 4 -8 10.9462 12.3836
8 4 -5 -13.1308 20.5053
8 4 -2 -86.2841 -61.7417
8 4 1 -13.2682 29.7405
8 4 4 -22.7381 -36.8562
8 4 7 6.8551 1.9333
8 4 10 -29.6895 -2.0192
8 4 13 -34.9480 16.1883
8 4 16 19.3698 -34.3915
8 5 -15 -29.3891 13.9197
8 5 -12 -79.6517 -18.8766
8 5 -9 43.2377 -50.7715
8 5 -6 -25.6497 -14.3574
8 5 -3 72.3453 25.1128
8 5 0 35.0253 91.4457
8 5 3 -88.2780 -12.4524
8 5 6 -37.4189 8.8029
8 5 9 -35.7583 -32.9405
8 5 12 17.2378 108.3584
8 5 15 -23.9684 37.4269
8 6 -16 9.4806 -17.0718
8 6 -13 -72.7352 -16.9637
8 6 -10 49.2293 -26.3487
8 6 -7 53.7852 54.1031
8 6 -4 -30.1406 -26.9663
8 6 -1 -25.0076 -26.8324
8 6 2 -103.2459 -55.8279
8 6 5 -15.7004 -8.9084
8 6 8 31.1984 44.6749
8 6 11 10.6169 90.6859
8 6 14 -13.2534 -15.2325
8 7 -14 -0.8863 -25.9157
8 7 -11 58.9172 23.4291
8 7 -8 1.9501 57.0490
8 7 -5 -39.9251 13.2503
8 7 -2 -50.0594 12.4429
8 7 1 52.8951 12.5533
8 7 4 -102.1211 85.2672
8 7 7 -8.9183 47.4089
8 7 10 -78.4424 5.0201
8 7 13 8.3087 42.8758
8 7 16 12.3949 -9.8284
8 8 0 34.5902 84.5424
8 8 3 -41.0888 51.3697
8 8 6 42.2695 -61.0898
8 8 9 -56.0129 -1.4401
8 8 12 34.5446 29.6513
8 8 15 -24.2620 -48.0295
9 0 -15 -28.9018 -0.0000
9 0 -12 119.4542 -0.0000
9 0 -9 -39.1404 -0.0000
9 0 -3 180.9909 0.0000
9 0 0 57.1196 -0.0000
9 0 3 -112.3469 -0.0000
9 0 6 114.8500 0.0000
9 0 9 8.1211 0.0000
9 0 12 5.1748 -0.0000
9 0 15 -62.0227 -0.0000
9 1 -16 -26.6691 14.1555
9 1 -13 58.6265 17.1394
9 1 -10 -47.4215 34.9817
9 1 -7 -41.4786 -14.8568
9 1 -4 -75.0486 -49.3569
9 1 2 -59.3879 3.7205
9 1 5 0.7330 -20.7890
9 1 8 -23.7158 -27.4906
9 1 11 56.7380 -62.9410
9 1 14 -50.8744 64.7237
9 1 17 -7.9288 -24.2615
9 2 -17 -41.1502 -23.1164
9 2 -14 50.1617 18.0028
9 2 -11 -25.0390 -25.0536
9 2 -8 112.8316 62.6587
9 2 -5 4.3078 -42.0866
9 2 -2 38.8444 77.0638
9 2 1 -57.4844 72.8145
9 2 4 -34.8989 28.9410
9 2 7 55.7385 -85.6634
9 2 10 5.7946 59.8380
9 2 13 -54.2181 -22.9869
9 2 16 -34.6943 -60.9113
9 3 -15 42.8548 24.3257
9 3 -12 -22.0651 -23.6133
9 3 -9 -19.4915 -95.6627
9 3 -6 -107.9877 75.6856
9 3 -3 9.7861 -65.4300
9 3 0 35.7378 -59.8907
9 3 3 3.6238 -82.3049
9 3 6 -0.7819 -81.9803
9 3 9 -40.2671 -32.3683
9 3 12 46.1184 -34.0559
9 3 15 0.0637 -27.5748
9 4 -16 5.6966 -19.7571
9 4 -13 5.6876 -55.5118
9 4 -10 -14.6260 -42.7655
9 4 -7 -34.3603 112.6825
9 4 -4 60.3031 -55.0266
9 4 -1 -31.7761 -61.3363
9 4 2 -70.2480 -6.3468
9 4 5 -26.3009 -52.7068
9 4 8 31.3189 -3.7590
9 4 11 47.3065 32.6660
9 4 14 -13.0428 3.1098
9 5 -14 23.2960 33.1775
9 5 -11 1.8837 -97.1279
9 5 -8 -19.2188 50.3530
9 5 -5 18.1098 -17.9236
9 5 -2 -21.8224 -105.5243
9 5 1 106.9133 -0.5072
9 5 4 -53.4551 -49.0618
9 5 7 11.8915 4.8166
9 5 10 -32.2393 -13.2704
9 5 13 11.1097 -47.1961
9 5 16 -8.6679 -5.4012
9 6 -15 15.3053 -4.2375
9 6 -12 -38.2653 18.9555
9 6 -9 -71.5407 -23.4744
9 6 -6 119.9908 35.4153
9 6 -3 -19.9307 -136.0744
9 6 0 24.6489 53.5280
9 6 3 -39.3415 4.3422
9 6 6 44.8552 -7.6505
9 6 9 7.4198 -44.2462
9 6 12 32.9868 80.3410
9 6 15 18.8127 -15.4843
9 7 -13 -11.4741 -33.7186
9 7 -10 -53.1460 9.7205
9 7 -7 55.8923 -37.0960
9 7 -4 -44.5128 31.0451
9 7 -1 13.5189 -0.3330
9 7 2 40.4230 31.4454
9 7 5 -2.5511 -33.3916
9 7 8 -44.5358 52.4223
9 7 11 -38.1144 -23.6161
9 7 14 23.9806 -20.1618
9 8 -14 48.6853 -19.2135
9 8 -11 -42.0726 -76.0302
9 8 -8 45.9804 -8.3206
9 8 -5 4.5022 -8.1390
9 8 -2 -21.5283 68.5259
9 8 1 -14.9253 -41.8847
9 8 4 45.3260 45.1115
9 8 7 -58.4893 -50.7252
9 8 10 -22.9825 -53.5771
9 8 13 55.5859 10.2877
9 9 0 56.9558 -105.7894
9 9 3 -52.8068 96.0626
9 9 6 19.8366 -72.1022
9 9 9 20.1111 -17.6329
9 9 12 -22.8898 -1.9831
10 0 -17 -35.2616 -0.0000
10 0 -14 28.6716 0.0000
10 0 -11 51.8008 0.0000
10 0 -8 -41.5741 0.0000
10 0 -2 31.9444 0.0000
10 0 4 -10.9088 -0.0000
10 0 7 34.0466 0.0000
10 0 10 8.2278 -0.0000
10 0 13 -1.7672 0.0000
10 0 16 13.7794 0.0000
10 1 -15 -16.4382 11.5597
10 1 -12 -15.8708 -10.5905
10 1 -9 30.8800 73.5235
10 1 -6 18.7949 -21.4042
10 1 -3 63.5259 1.7154
10 1 3 -17.4481 38.6808
10 1 6 18.5683 -20.6259
10 1 9 10.9470 26.1116
10 1 12 27.9874 -99.0317
10 1 15 -5.6198 -37.6243
10 2 -16 -3.9513 -26.5446
10 2 -13 27.8210 -18.6732
10 2 -10 -14.0922 22.9846
10 2 -7 62.7752 166.2611
10 2 -4 -145.2495 -91.1459
10 2 -1 56.9158 -59.6802
10 2 2 -50.2274 33.6494
10 2 5 41.6758 -6.3396
10 2 8 -67.3803 -29.2998
10 2 11 68.6802 -25.7144
10 2 14 -4.8736 7.5794
10 3 -14 -0.4540 2.4293
10 3 -11 -83.4084 29.0171
10 3 -8 125.7662 -15.0680
10 3 -5 -96.9384 -54.8142
10 3 -2 38.2445 53.6898
10 3 1 -7.9251 32.0537
10 3 4 -45.3398 52.2900
10 3 7 7.4540 -0.3626
10 3 10 -18.0896 17.5237
10 3 13 -1.5124 44.9277
10 3 16 2.8853 -40.1210
10 4 -15 -40.9085 12.6656
10 4 -12 12.9853 -57.1819
10 4 -9 8.7413 -18.1889
10 4 -3 -44.3677 -2.1118
10 4 0 6.6699 12.5796
10 4 3 35.5474 -57.9546
10 4 6 -12.2581 36.7659
10 4 9 42.2489 -76.4299
10 4 12 0.4916 87.6912
10 4 15 -6.7259 2.1173
10 5 -13 -72.6481 -4.5914
10 5 -10 -4.6215 14.7700
10 5 -7 36.4767 -9.5126
10 5 -4 -13.5290 1.1303
10 5 -1 32.8847 -19.5522
10 5 2 -23.9476 53.0889
10 5 5 -30.4397 99.8294
10 5 8 72.1956 -4.7813
10 5 11 -75.6266 72.7497
10 5 14 32.6183 21.7684
10 6 -14 -8.4336 -60.5457
10 6 -11 -6.5739 3.6044
10 6 -8 80.4049 22.1347
10 6 -5 10.1330 124.9363
10 6 -2 3.8985 16.6974
10 6 1 11.9614 50.1797
10 6 4 -50.6604 -33.2464
10 6 7 -6.5227 20.3307
10 6 10 17.3297 -21.5125
10 6 13 -50.5860 45.4826
10 7 -15 -11.0793 -26.5555
10 7 -12 -24.2108 5.6827
10 7 -9 42.3533 -2.5130
10 7 -6 7.9603 -89.9445
10 7 -3 27.7399 132.1661
10 7 0 -85.2517 28.1955
10 7 3 49.9780 9.5757
10 7 6 66.3740 17.7709
10 7 9 -0.1499 -55.8015
10 7 12 -50.7061 65.1594
10 7 15 13.2995 4.4220
10 8 -13 13.4666 17.0589
10 8 -10 31.6999 -76.0283
10 8 -7 -12.9442 -47.5290
10 8 -4 -18.6917 42.7493
10 8 -1 20.5259 36.4274
10 8 2 -45.3853 -9.8099
10 8 5 56.7404 48.6038
10 8 8 -2.1625 18.3261
10 8 11 -30.3575 11.5419
10 8 14 12.3911 -5.3005
10 9 -14 22.9714 16.1036
10 9 -11 33.8631 -20.2828
10 9 -8 38.7274 -23.0381
10 9 -5 -2.6190 39.0432
10 9 -2 27.6680 -3.4652
10 9 1 1.6711 -168.0889
10 9 4 16.2555 27.6467
10 9 7 32.5867 -29.8926
10 9 10 -18.0919 -9.5725
10 9 13 10.7754 1.8944
10 10 0 35.6406 48.7969
10 10 3 11.6971 51.1441
10 10 6 -26.4627 -1.1508
10 10 9 -12.3538 11.6346
10 10 12 32.3437 -18.9607
11 0 -16 -27.8160 0.0000
11 0 -13 103.1655 0.0000
11 0 -10 94.4677 0.0000
11 0 -7 53.3904 0.0000
11 0 -4 130.6471 0.0000
11 0 -1 -76.7896 -0.0000
11 0 2 -10.0756 0.0000
11 0 5 -18.1835 0.0000
11 0 8 45.5806 0.0000
11 0 11 -7.9665 0.0000
11 0 14 -56.1746 0.0000
11 1 -14 74.8236 48.3836
11 1 -11 -52.5947 -65.2173
11 1 -8 30.6032 87.5235
11 1 -5 12.6921 -72.4286
11 1 -2 11.1096 35.2161
11 1 1 -25.7525 6.8780
11 1 4 -41.4748 -12.9332
11 1 7 48.8751 -20.1045
11 1 10 -34.8369 20.7602
11 1 13 7.8329 -16.4018
11 1 16 -13.3177 0.1328
11 2 -15 -2.9591 -3.1835
11 2 -12 31.2892 -46.3483
11 2 -9 19.7989 -5.7184
11 2 -6 80.6124 40.7388
11 2 -3 -38.7048 53.3242
11 2 0 -71.3005 -65.3732
11 2 3 -2.2406 -1.7215
11 2 6 111.7863 -43.5367
11 2 9 -16.8374 -36.8637
11 2 12 24.1719 -29.7237
11 2 15 -24.0406 -65.8586
11 3 -16 29.9454 9.1839
11 3 -13 63.6194 -25.6266
11 3 -10 -78.5282 4.6103
11 3 -7 -21.6372 -40.9156
11 3 -4 -26.3752 21.6428
11 3 -1 48.4258 -127.5348
11 3 2 40.5463 14.2234
11 3 5 15.2898 -15.0013
11 3 8 11.3228 -52.7137
11 3 11 -22.7510 -66.2731
11 3 14 19.7472 22.8336
11 4 -14 -5.3740 7.6876
11 4 -11 -14.2184 -86.2534
11 4 -8 130.7803 -5.9675
11 4 -5 -52.3729 64.2205
11 4 -2 12.8539 1.1540
11 4 4 57.6145 7.5238
11 4 7 25.5540 -80.3444
11 4 10 23.8540 -81.7523
11 4 13 31.5031 -15.6923
11 5 -15 3.7341 17.4562
11 5 -12 6.6790 34.6820
11 5 -9 -56.9602 -20.8201
11 5 -6 65.1069 105.0584
11 5 -3 13.7796 -5.5147
11 5 0 90.0618 -26.3646
11 5 3 88.5179 -49.9150
11 5 6 21.3561 -35.8393
11 5 9 62.8910 2.1269
11 5 12 -41.4307 4.6263
11 5 15 5.7804 -25.9120
11 6 -13 19.5239 -13.9118
11 6 -10 -38.7433 -2.8283
11 6 -7 120.0263 0.3246
11 6 -4 10.8902 27.2382
11 6 -1 -4.8897 -94.9953
11 6 2 24.7689 -75.2451
11 6 5 43.3117 29.2129
11 6 8 -15.8330 28.7954
11 6 11 -5.8699 -72.0549
11 6 14 23.7864 5.7761
11 7 -14 22.7737 1.6148
11 7 -11 -47.3251 -28.9798
11 7 -8 37.0367 85.0237
11 7 -5 23.0659 38.2181
11 7 -2 -24.0443 21.6753
11 7 1 -16.2246 21.9371
11 7 4 51.3544 -23.5914
11 7 7 7.4453 52.6304
11 7 10 -0.7802 -27.1004
11 7 13 -32.4953 -35.8120
11 8 -12 -5.1192 17.4768
11 8 -9 56.4420 -69.0418
11 8 -6 -17.5175 -61.0030
11 8 -3 16.3613 -35.1139
11 8 0 -34.4322 -38.4554
11 8 3 90.1618 -8.3771
11 8 6 43.4543 -16.1931
11 8 9 -5.7267 -11.6529
11 8 12 -23.1294 7.1787
11 9 -13 -15.0122 -14.8022
11 9 -10 -34.3150 -4.8538
11 9 -7 26.7476 28.6339
11 9 -4 -37.7200 -50.8864
11 9 -1 -15.2491 4.9685
11 9 2 49.9823 -145.3676
11 9 5 -7.3144 -15.7980
11 9 8 58.6443 31.4452
11 9 11 2.4688 49.9150
11 10 -11 22.1868 -6.9398
11 10 -8 -8.1131 9.2817
11 10 -5 -41.2197 -26.5133
11 10 -2 67.4077 -1.4787
11 10 1 78.7139 -131.8177
11 10 4 48.7495 -39.9111
11 10 7 4.4484 -8.1247
11 10 10 -15.5638 40.0472
11 11 0 128.7907 -15.3895
11 11 3 -5.8689 -37.2023
11 11 6 30.9117 -10.2286
11 11 9 -0.5755 22.4933
11 11 12 6.0243 -5.0132
12 0 -15 -37.2923 0.0000
12 0 -12 38.3324 0.0000
12 0 -9 8.1328 0.0000
12 0 -6 98.2278 -0.0000
12 0 -3 -37.7441 -0.0000
12 0 0 -44.7962 0.0000
12 0 3 136.6784 0.0000
12 0 6 13.5238 -0.0000
12 0 9 4.4445 0.0000
12 0 12 -42.1683 -0.0000
12 0 15 8.7706 -0.0000
12 1 -16 34.1871 -21.2775
12 1 -13 8.6179 -24.5428
12 1 -10 -58.5493 31.3139
12 1 -7 -0.3784 56.9134
12 1 -4 24.2925 -4.8313
12 1 -1 -26.8311 -43.4309
12 1 2 -52.5095 5.2316
12 1 5 -8.4918 13.4725
12 1 8 -2.1264 4.2612
12 1 11 -82.0627 12.9647
12 1 14 33.1251 -72.7320
12 2 -14 9.5069 -21.0855
12 2 -11 -44.5377 -15.8740
12 2 -8 153.9969 22.8634
12 2 -5 -69.2913 10.7117
12 2 -2 -31.7208 94.4809
12 2 1 94.5400 5.6361
12 2 4 5.6292 55.9911
12 2 7 -31.5828 -16.0535
12 2 10 -34.1306 -13.6950
12 2 13 -41.9111 75.5644
12 3 -15 -31.2129 19.7077
12 3 -12 -31.9001 -7.9077
12 3 -9 58.2070 58.6062
12 3 -6 -186.2711 -164.1654
12 3 -3 -19.6755 165.3901
12 3 0 -63.2855 -49.8544
12 3 3 56.7774 48.3462
12 3 6 -2.1748 6.1496
12 3 9 63.1274 -26.9672
12 3 12 -10.1248 44.1914
12 3 15 6.0203 -6.2997
12 4 -13 -3.0022 36.6928
12 4 -10 28.2650 -62.1265
12 4 -7 42.7889 -53.4969
12 4 -4 -49.2923 140.2274
12 4 -1 65.0909 -37.5725
12 4 2 2.9830 -34.3257
12 4 5 -49.5057 93.9605
12 4 8 5.2820 21.2919
12 4 11 -39.1442 2.6541
12 4 14 -37.9168 40.7830
12 5 -14 -10.0210 -22.3075
12 5 -11 7.8230 25.4685
12 5 -8 23.5849 -38.2434
12 5 -2 -37.3511 29.1593
12 5 1 21.1286 7.6441
12 5 4 -25.2823 49.2265
12 5 7 41.5856 20.9069
12 5 10 7.3809 -17.4051
12 5 13 -25.7012 23.7306
12 6 -12 6.3308 37.1241
12 6 -9 -54.5151 -44.1451
12 6 -6 -6.0527 62.4887
12 6 -3 54.5067 75.1509
12 6 0 -3.1292 100.0356
12 6 3 -34.3642 -44.4007
12 6 6 9.4240 27.2825
12 6 9 4.3196 37.4150
12 6 12 -41.6624 -7.3701
12 7 -13 -8.1465 17.4867
12 7 -10 13.1631 -63.7341
12 7 -7 -90.6821 15.3353
12 7 -4 59.0021 -9.9611
12 7 -1 -57.8245 27.2019
12 7 2 -28.4434 -28.0797
12 7 5 16.6715 61.9058
12 7 8 23.2602 83.6157
12 7 11 -46.0789 -41.3878
12 7 14 36.2433 -8.3707
12 8 -11 -12.7254 9.6504
12 8 -8 -61.1060 39.4384
12 8 -5 7.1271 55.0191
12 8 -2 17.3983 125.5728
12 8 1 -51.6516 -36.9434
12 8 4 -6.3318 -7.8306
12 8 7 20.7056 25.7967
12 8 10 -8.7078 -2.4215
12 8 13 -10.4657 -0.2052
12 9 -12 -7.5980 -41.3807
12 9 -9 23.1188 16.0184
12 9 -6 13.9910 30.2250
12 9 -3 70.7618 75.5887
12 9 0 -31.3900 4.9315
12 9 3 76.5070 -50.9824
12 9 6 -77.2230 -50.6514
12 9 9 12.3175 -26.3394
12 9 12 28.1135 31.2492
12 10 -10 -32.2070 8.7829
12 10 -7 -1.4860 45.4413
12 10 -4 -72.3095 6.1143
12 10 -1 -9.7477 91.4521
12 10 2 -8.3247 -46.1444
12 10 5 -7.7997 37.3781
12 10 8 12.1296 -7.1121
12 10 11 28.4380 33.3933
12 11 -11 14.4296 4.5642
12 11 -8 35.8362 24.0468
12 11 -5 -46.1249 122.4229
12 11 -2 41.1137 -34.3411
12 11 1 58.6591 -38.0311
12 11 4 -25.9164 -9.2416
12 11 7 0.7101 -63.0196
12 11 10 -8.7124 -2.2467
12 12 0 -7.9354 120.0550
12 12 3 -36.3764 21.2279
12 12 6 16.2013 15.5373
12 12 9 -26.4343 -8.5960
13 0 -14 3.5278 -0.0000
13 0 -11 21.6082 0.0000
13 0 -8 47.1776 -0.0000
13 0 -5 24.2762 -0.0000
13 0 -2 -54.0376 0.0000
13 0 4 30.5664 0.0000
13 0 7 8.6079 0.0000
13 0 10 -18.9177 0.0000
13 0 13 -26.5918 0.0000
13 0 16 -82.9441 -0.0000
13 1 -15 43.0955 4.9416
13 1 -12 40.2509 -28.7117
13 1 -9 -125.0950 -133.2565
13 1 -6 -84.7658 -33.0022
13 1 -3 77.9825 68.2830
13 1 0 -35.9074 14.3951
13 1 3 11.5054 14.0922
13 1 6 -13.9547 -57.3626
13 1 9 43.8997 17.0188
13 1 12 -41.1988 67.4022
13 1 15 11.6315 -27.4697
13 2 -13 55.9401 -62.1544
13 2 -10 -36.5091 -42.4063
13 2 -7 -38.7937 -53.3186
13 2 -4 95.3888 125.0788
13 2 -1 -102.1825 -9.8116
13 2 2 35.2926 -12.1581
13 2 5 -15.1233 -23.4150
13 2 8 68.7152 -35.6259
13 2 11 -16.0789 -76.2214
13 2 14 -44.2806 -21.5742
13 3 -14 67.9236 0.0391
13 3 -11 -45.3072 -83.2899
13 3 -8 -25.0430 78.5671
13 3 -5 23.1521 16.3189
13 3 -2 -23.7744 -24.3188
13 3 1 117.1271 20.0334
13 3 4 24.1104 -15.5452
13 3 7 47.4914 -17.3683
13 3 10 20.2796 -19.9528
13 3 13 -25.7311 0.0478
13 4 -12 -40.3400 92.5639
13 4 -9 15.9125 24.1055
13 4 -6 23.6134 -25.8600
13 4 -3 -73.7344 -31.4272
13 4 0 19.8138 27.3917
13 4 3 39.1873 -89.5751
13 4 6 60.2504 -16.4121
13 4 9 -29.9597 -22.4842
13 4 12 -7.7389 -53.0290
13 5 -13 -10.6287 55.6398
13 5 -10 -39.9885 25.9968
13 5 -7 85.1571 61.7295
13 5 -1 -15.9736 -20.5766
13 5 2 110.4287 -69.3833
13 5 5 6.1338 -2.3234
13 5 8 -30.4579 102.3989
13 5 11 -35.1334 -28.5244
13 5 14 11.8513 -5.9253
13 6 -11 -1.9586 28.7587
13 6 -8 -23.7072 4.8338
13 6 -5 -46.2983 1.9385
13 6 -2 -25.5630 39.3914
13 6 1 82.9215 -67.1248
13 6 4 -19.5335 -14.6802
13 6 7 -48.6097 39.4923
13 6 10 -79.6440 -54.1650
13 6 13 48.5465 -58.4523
13 7 -12 -35.6547 25.7984
13 7 -9 -11.9310 -20.6709
13 7 -6 36.6837 118.2523
13 7 -3 -7.0678 0.8715
13 7 0 16.5025 -53.6881
13 7 3 -6.4426 42.7206
13 7 6 -32.8803 -8.3322
13 7 9 6.6659 104.0371
13 7 12 20.2857 -15.3022
13 8 -10 -26.5650 13.6851
13 8 -7 -43.4684 0.2584
13 8 -4 -52.5519 -79.9932
13 8 -1 -11.9538 -50.0338
13 8 2 19.0789 -82.7900
13 8 5 -18.5306 30.0022
13 8 8 62.3443 -4.7447
13 8 11 4.8954 -21.6606
13 9 -11 -20.1913 -19.0512
13 9 -8 10.9405 65.0369
13 9 -5 -44.4082 22.1124
13 9 -2 33.5778 4.7772
13 9 1 -22.1084 -16.6527
13 9 4 59.9129 -72.2607
13 9 7 34.8134 -50.8928
13 9 10 -0.9771 -9.9800
13 10 -9 17.0312 -8.7509
13 10 -6 -65.3203 -11.8587
13 10 -3 48.7939 -28.5808
13 10 0 15.4549 83.0203
13 10 3 27.2483 -10.6248
13 10 6 28.2511 -55.6396
13 10 9 11.4016 -18.9089
13 11 -10 -20.6807 -26.7182
13 11 -7 40.7815 -38.4942
13 11 -4 -47.9699 1.6462
13 11 -1 -15.2998 14.4511
13 11 2 -0.6121 -44.4783
13 11 5 66.8125 -49.3313
13 11 8 -3.1202 -32.8089
13 12 -8 -29.1957 -16.4658
13 12 -5 -9.3649 41.3310
13 12 -2 8.1707 -0.2932
13 12 1 -30.7864 -55.5780
13 12 4 -52.8121 -10.2011
13 12 7 14.0024 0.9535
13 13 0 -77.1847 -64.3725
13 13 3 -33.5444 -49.4413
13 13 6 27.5421 -4.8637
14 0 -13 11.0100 0.0000
14 0 -10 -22.6678 0.0000
14 0 -1 29.6611 0.0000
14 0 2 -0.0687 -0.0000
14 0 5 15.2946 -0.0000
14 0 8 -53.1284 0.0000
14 0 11 -65.5295 0.0000
14 0 14 -17.8924 -0.0000
14 1 -14 29.6439 -36.0813
14 1 -11 -35.7235 67.8541
14 1 -8 -86.2848 11.5551
14 1 -5 -67.9029 -21.9047
14 1 -2 -65.5779 68.6471
14 1 1 60.5213 -4.5029
14 1 4 -3.8696 38.1288
14 1 7 16.1441 -61.1903
14 1 10 20.0659 2.2454
14 1 13 -15.7504 70.0398
14 2 -12 7.4007 17.6681
14 2 -9 65.0212 -39.8909
14 2 -6 35.6533 -150.7789
14 2 -3 31.4002 74.1706
14 2 0 -32.9027 61.8196
14 2 3 43.6313 9.4404
14 2 6 -41.4136 -14.0051
14 2 9 43.7199 50.0682
14 2 12 -52.1077 92.2084
14 3 -13 -30.4003 19.7400
14 3 -10 58.7733 -44.3845
14 3 -4 -38.8737 16.4574
14 3 -1 -85.9380 43.0238
14 3 2 -18.9767 -27.0343
14 3 5 -70.8856 22.4125
14 3 8 15.6100 32.2812
14 3 11 -42.6842 20.4158
14 3 14 41.1823 -16.8294
14 4 -14 11.7235 -13.6158
14 4 -11 3.7611 54.4096
14 4 -8 9.1813 -16.9877
14 4 -5 -48.0445 -11.3523
14 4 -2 -20.7087 36.8619
14 4 1 14.5685 -17.3845
14 4 4 -41.2875 -59.4966
14 4 7 12.1378 23.0534
14 4 10 -35.3207 30.0435
14 4 13 -10.2132 12.9101
14 5 -12 -37.3256 61.8116
14 5 -9 20.2505 -58.1542
14 5 -6 -81.9826 -22.3906
14 5 -3 -42.7749 60.6003
14 5 0 -39.6868 -8.6759
14 5 3 -78.5900 -9.8652
14 5 6 -7.0268 -11.9881
14 5 9 -43.2892 9.6457
14 5 12 60.6018 -21.6451
14 6 -13 -20.7224 57.3082
14 6 -10 -36.3926 -36.2793
14 6 -7 -79.1139 -19.1874
14 6 -4 -24.5584 4.9129
14 6 -1 32.9144 11.2563
14 6 2 -41.2227 3.2147
14 6 5 27.3355 9.5766
14 6 8 18.8502 54.5808
14 6 11 -24.7584 -19.4608
14 7 -11 21.1920 -10.8210
14 7 -8 23.5570 -42.7110
14 7 -5 -81.7718 113.2664
14 7 -2 55.6621 50.4295
14 7 1 -16.3224 -87.1789
14 7 4 1.1899 -11.4956
14 7 7 -46.4103 -23.4408
14 7 10 -61.3592 -44.1513
14 8 -9 -21.4087 28.5955
14 8 -6 -78.4412 71.9903
14 8 -3 67.2775 38.7251
14 8 0 -68.8294 47.6285
14 8 3 -5.8162 -1.9727
14 8 6 -51.4947 -4.8937
14 8 9 22.5380 -34.8596
14 8 12 -2.8217 7.6830
14 9 -10 36.2749 36.9731
14 9 -7 -13.2291 38.1685
14 9 -4 -36.1818 -7.9041
14 9 -1 -27.8005 -42.0052
14 9 2 -43.6646 19.6050
14 9 5 18.1574 -33.5372
14 9 8 -32.1795 -76.8137
14 9 11 -6.6972 -12.5602
14 10 -8 -26.0787 25.6705
14 10 -5 -31.4007 39.3140
14 10 -2 6.8433 13.2618
14 10 1 -63.3185 30.3079
14 10 4 7.9408 -75.8117
14 10 7 16.3156 -26.9571
14 10 10 11.4692 9.6507
14 11 -9 23.7205 17.8653
14 11 -6 -6.7076 12.8369
14 11 -3 -51.6865 -29.5976
14 11 0 -26.7517 18.8850
14 11 3 -6.8163 58.7196
14 11 6 20.8781 -2.8616
14 11 9 -24.2124 8.7390
14 12 -7 -0.3912 -39.6280
14 12 -4 -38.6659 -43.2051
14 12 -1 -53.8630 -44.9307
14 12 2 4.3710 -24.5312
14 12 5 4.3982 24.1010
14 12 8 -7.6072 17.9711
14 13 -5 -43.4015 36.2675
14 13 -2 -23.3850 -95.1592
14 13 1 -27.8358 -70.8495
14 13 4 -39.9659 51.7080
14 14 0 -26.5386 22.8750
14 14 3 -20.5116 -13.5107
15 0 -15 -1.7347 0.0000
15 0 -12 -25.9189 0.0000
15 0 -9 -83.1119 0.0000
15 0 -6 54.0489 0.0000
15 0 0 2.3823 -0.0000
15 0 3 19.5330 0.0000
15 0 6 79.5754 0.0000
15 0 9 30.1665 -0.0000
15 0 12 -28.8669 0.0000
15 0 15 -16.1613 0.0000
15 1 -13 17.1910 -22.4745
15 1 -10 -10.9727 -102.2049
15 1 -7 -32.9926 -115.4369
15 1 -4 93.0357 11.4204
15 1 -1 2.4944 -5.6070
15 1 2 40.1931 -2.6498
15 1 5 10.1553 -11.2130
15 1 8 6.9883 2.7083
15 1 11 -44.2421 -15.0404
15 1 14 55.3995 27.6426
15 2 -14 -11.2138 -25.7866
15 2 -11 -48.3913 -13.6146
15 2 -8 -14.0305 52.1796
15 2 -5 15.5917 13.0088
15 2 -2 -7.2087 32.3009
15 2 1 44.0455 16.4568
15 2 4 40.3215 -4.3142
15 2 7 28.4166 -61.7613
15 2 10 -1.8467 -17.0764
15 2 13 62.5581 0.8253
15 3 -12 -8.7463 49.2707
15 3 -9 54.1982 -67.9208
15 3 -6 91.4059 -6.5979
15 3 -3 40.2663 -119.9706
15 3 0 -9.0355 -25.2375
15 3 3 57.6804 -58.0715
15 3 6 -41.4530 -44.3396
15 3 9 -37.3430 109.5584
15 3 12 13.7059 51.5980
15 4 -13 -5.8512 15.4657
15 4 -10 -1.9757 33.2944
15 4 -7 -3.4663 75.9438
15 4 -4 -25.9686 -88.3740
15 4 -1 4.1317 -17.4936
15 4 2 1.8389 -24.9457
15 4 5 -12.9715 -15.0208
15 4 8 3.5710 25.5084
15 4 11 4.1225 -12.3175
15 5 -11 12.8127 15.5302
15 5 -8 30.7895 81.0066
15 5 -5 66.2909 -12.5511
15 5 -2 -7.1896 -21.6346
15 5 1 96.9713 3.2364
15 5 4 4.3499 -49.9272
15 5 7 -34.2625 76.3818
15 5 10 -57.9214 14.2054
15 5 13 10.6720 -28.0930
15 6 -12 -18.9021 15.9532
15 6 -9 0.0655 -19.8036
15 6 -6 -110.1074 -39.6543
15 6 -3 -53.2925 -63.4300
15 6 0 58.0168 -23.6482
15 6 3 -34.1541 40.6723
15 6 6 -28.8399 2.8922
15 6 9 4.1652 -22.1517
15 6 12 12.4343 -4.2677
15 7 -10 -5.5684 53.0568
15 7 -7 28.7175 1.6328
15 7 -4 -20.5538 -29.8031
15 7 -1 10.8570 1.0237
15 7 2 -29.4704 20.3607
15 7 5 69.7028 11.1492
15 7 8 4.9849 -10.7023
15 7 11 -21.6065 20.4296
15 8 -11 11.7317 -29.1982
15 8 -8 -50.6737 -48.3224
15 8 -5 -96.8695 -32.4683
15 8 -2 63.0988 17.0978
15 8 1 -52.3764 -4.3981
15 8 4 40.0203 -114.9677
15 8 7 -16.9657 -44.1736
15 8 10 -0.0858 8.2740
15 9 -9 50.0660 34.1731
15 9 -6 -3.7662 23.4000
15 9 -3 -6.7249 -16.2678
15 9 0 -26.5743 -2.7266
15 9 3 -24.0456 -21.5391
15 9 6 84.8499 20.1399
15 9 9 -13.5725 39.6986
15 10 -7 -38.7348 -27.0733
15 10 -4 -35.6287 -66.5278
15 10 -1 -7.9055 -14.0434
15 10 2 -25.7705 43.4833
15 10 5 45.1729 0.2783
15 10 8 0.8706 -0.5023
15 11 -8 -3.1903 2.1989
15 11 -5 0.1860 -66.8149
15 11 -2 -32.3058 -25.4034
15 11 1 -25.0472 -42.2290
15 11 4 28.9935 -5.2354
15 11 7 33.8013 18.3679
15 12 -6 -12.4192 4.2879
15 12 -3 -16.0032 -41.0223
15 12 0 -27.7465 31.0227
15 12 3 -6.3505 35.8469
15 12 6 -26.8549 8.7270
15 13 -4 -20.4781 -18.7357
15 13 -1 -25.5409 -61.5396
15 13 2 -2.6616 -63.9693
15 14 1 -14.7629 -13.8566
16 0 -14 5.7915 0.0000
16 0 -11 -1.8538 0.0000
16 0 -8 132.5502 0.0000
16 0 -5 39.8372 0.0000
16 0 -2 43.9100 0.0000
16 0 1 18.5455 0.0000
16 0 4 129.8979 0.0000
16 0 7 32.3062 -0.0000
16 0 10 16.3655 0.0000
16 0 13 17.6188 0.0000
16 1 -12 -32.2633 43.0628
16 1 -9 62.6471 75.7373
16 1 -3 -7.4054 42.9970
16 1 0 -89.9114 38.9061
16 1 3 12.6773 26.0509
16 1 6 -47.9469 -48.0326
16 1 9 -30.3451 25.8254
16 1 12 14.1880 15.0268
16 2 -13 9.0975 24.8060
16 2 -10 81.6755 -94.1842
16 2 -7 25.3676 -120.1134
16 2 -4 -12.6124 -28.8920
16 2 -1 30.1140 -3.8045
16 2 2 -27.3967 -31.8488
16 2 5 -18.4749 -26.8201
16 2 8 1.9134 39.8212
16 2 11 18.6155 32.5709
16 3 -11 30.4883 -3.1135
16 3 -8 -3.8058 1.6091
16 3 -5 -55.0372 8.4405
16 3 -2 -15.3352 21.3123
16 3 1 -6.3185 -14.9517
16 3 4 -35.4025 -52.2205
16 3 7 0.7572 -51.2385
16 3 10 -21.4702 23.6853
16 3 13 -5.1469 6.9503
16 4 -12 -9.6932 -28.1393
16 4 -9 26.7508 -65.1931
16 4 -6 -73.9424 8.3131
16 4 -3 -26.3473 -75.2576
16 4 0 -21.4649 9.1916
16 4 3 -27.8982 -63.3053
16 4 6 -12.7755 -37.1044
16 4 9 75.9815 -20.1357
16 4 12 11.4190 58.1848
16 5 -10 45.9391 -20.6396
16 5 -7 -44.9330 35.3722
16 5 -4 6.9426 -52.2798
16 5 -1 74.7978 19.5091
16 5 2 -8.1607 10.6199
16 5 5 44.2988 -35.1017
16 5 8 28.2543 -43.6144
16 5 11 -31.4003 21.2896
16 6 -11 4.1443 -11.1574
16 6 -8 -40.2065 8.0255
16 6 -5 -50.2835 -18.0822
16 6 -2 53.6283 69.6463
16 6 1 -36.3613 -19.4573
16 6 4 93.1265 -84.4575
16 6 7 -47.7557 -31.3334
16 6 10 14.3286 15.7026
16 7 -9 56.0316 40.9989
16 7 -6 -21.9278 4.1842
16 7 -3 34.9909 43.2827
16 7 0 -9.5440 -55.7912
16 7 3 -7.0169 -41.4237
16 7 6 -32.8268 6.2890
16 7 9 -29.7785 -21.7752
16 8 -10 -1.4949 16.2682
16 8 -7 -62.4592 -35.5517
16 8 -4 -20.6610 7.1656
16 8 -1 11.8536 -42.4553
16 8 2 -26.3257 19.9675
16 8 5 30.5344 16.4218
16 8 8 -14.1377 -16.5724
16 9 -8 29.6337 34.4599
16 9 -5 -37.1620 13.7181
16 9 -2 5.4807 -16.2976
16 9 1 7.4016 -31.9871
16 9 4 -27.1725 -24.0892
16 9 7 4.8887 -10.8707
16 10 -6 -25.8392 -5.9905
16 10 -3 -6.1357 -10.8851
16 10 0 58.8957 9.7931
16 10 3 -16.3648 31.2987
16 10 6 22.7216 46.2246
16 11 -4 -36.2322 -75.4550
16 11 -1 15.8471 -67.8921
16 11 2 2.4572 60.2610
16 11 5 12.6797 26.1088
16 12 -2 21.2106 -24.3835
16 12 1 -19.8389 14.4503
16 12 4 4.4180 -13.4951
16 13 0 -11.0798 39.8612
17 0 -13 -23.8998 -0.0000
17 0 -10 -41.6026 0.0000
17 0 -4 1.3927 0.0000
17 0 -1 -22.4607 -0.0000
17 0 2 -39.3615 -0.0000
17 0 5 -19.4756 -0.0000
17 0 8 31.7785 0.0000
17 0 11 56.8001 0.0000
17 1 -11 -31.4244 -87.1666
17 1 -8 37.1404 -39.0710
17 1 -5 53.9707 -7.3146
17 1 -2 -1.9134 -86.5267
17 1 1 63.2876 -35.2699
17 1 4 -11.4807 -34.3872
17 1 7 30.9435 46.9917
17 1 10 0.9374 -18.1732
17 1 13 -16.0767 -7.7693
17 2 -12 -66.7461 2.7338
17 2 -9 31.9655 17.5920
17 2 -6 33.8218 15.3518
17 2 -3 -109.3580 -73.2300
17 2 0 10.8129 56.8819
17 2 3 0.7850 0.0498
17 2 6 -4.9768 4.7122
17 2 9 -7.6554 21.1630
17 2 12 -14.3445 21.3785
17 3 -10 64.5409 -23.7128
17 3 -7 26.6158 35.1138
17 3 -4 14.5246 -117.5730
17 3 -1 72.8836 1.2550
17 3 2 59.7111 -78.5078
17 3 5 8.4882 27.5750
17 3 8 8.4247 -4.1352
17 3 11 -25.8073 54.9081
17 4 -11 23.3459 -41.8974
17 4 -8 -34.4465 47.4012
17 4 -5 -43.6635 1.6044
17 4 -2 73.8326 49.9727
17 4 1 54.2303 23.4701
17 4 4 30.5909 -2.9450
17 4 7 -38.3546 5.2268
17 4 10 13.5778 53.4117
17 5 -9 25.1786 39.5918
17 5 -6 -3.5945 60.3679
17 5 -3 13.5707 -53.1255
17 5 0 -14.5667 -1.8542
17 5 3 16.2782 22.7670
17 5 6 -67.1386 58.1766
17 5 9 46.5126 50.2026
17 6 -10 -36.4411 -16.0398
17 6 -7 -77.2133 -4.8191
17 6 -4 10.6097 -58.7718
17 6 -1 21.0995 -27.5015
17 6 2 -32.7167 50.8175
17 6 5 18.4362 4.6429
17 6 8 37.6244 -8.1683
17 7 -8 -9.9538 65.0620
17 7 -5 30.6702 -15.7136
17 7 -2 16.3904 20.4136
17 7 1 -56.1209 47.3034
17 7 4 14.5735 -52.1603
17 7 7 7.8793 60.3403
17 8 -6 -66.5316 -44.0600
17 8 -3 -17.3770 -12.3830
17 8 0 6.0723 44.4140
17 8 3 -24.9347 -47.8773
17 8 6 14.0218 12.1713
17 9 -7 -8.9026 -5.0933
17 9 -4 6.1981 -6.4548
17 9 -1 19.2339 17.4895
17 9 2 -1.2922 -14.4778
17 9 5 51.3894 30.6137
17 10 -5 -2.6842 -34.4892
17 10 -2 -13.7161 55.6767
17 10 1 9.2553 29.6700
17 10 4 -5.4143 -34.3871
17 11 -3 -6.2957 9.9098
17 11 0 3.4433 -14.8544
17 11 3 21.8226 -32.9833
18 0 -12 -56.9039 0.0000
18 0 -9 103.1785 0.0000
18 0 -6 31.9349 -0.0000
18 0 -3 -16.5268 0.0000
18 0 0 -53.6097 0.0000
18 0 3 -36.4745 0.0000
18 0 6 -31.0651 -0.0000
18 0 9 25.3204 0.0000
18 0 12 -17.1130 -0.0000
18 1 -10 21.3657 0.9504
18 1 -7 20.0894 3.2974
18 1 -4 -26.5256 -0.9649
18 1 -1 3.7180 85.1430
18 1 2 -23.3571 38.5508
18 1 5 -104.7107 -49.0589
18 1 8 -14.4481 34.9469
18 1 11 -29.8340 -7.5652
18 2 -11 13.3580 -53.5833
18 2 -8 2.8297 -33.5955
18 2 -5 -84.4430 -35.1620
18 2 -2 -11.8860 20.8492
18 2 1 -36.2048 -38.3887
18 2 4 65.6972 -61.1541
18 2 7 16.3554 -5.1960
18 2 10 34.6304 -9.1042
18 3 -9 34.7162 26.9446
18 3 -6 -43.3066 29.3849
18 3 -3 -31.0336 15.0590
18 3 0 -6.0229 35.1098
18 3 3 10.1895 -21.5940
18 3 6 -15.5053 6.6241
18 3 9 4.9059 -10.9358
18 4 -10 -14.2973 -46.2406
18 4 -7 -58.4931 -21.7309
18 4 -4 -48.0148 42.8572
18 4 -1 23.7543 -2.1517
18 4 2 26.8982 2.6827
18 4 5 35.7433 -31.8340
18 4 8 50.3415 -47.3306
18 4 11 44.8583 21.2832
18 5 -8 25.0476 42.9650
18 5 -5 16.2886 87.2212
18 5 -2 86.8170 -10.4396
18 5 1 22.5540 -10.8143
18 5 4 40.7442 -76.4350
18 5 7 -33.3440 31.7144
18 5 10 5.8353 17.3437
18 6 -9 -1.0112 -16.0368
18 6 -6 -53.0702 83.2261
18 6 -3 13.0117 -21.3405
18 6 0 -46.6124 11.9582
18 6 3 -1.1039 -72.9102
18 6 6 -82.9797 57.3465
18 6 9 46.9046 -44.6792
18 7 -7 -26.9895 42.1251
18 7 -4 10.9938 1.4306
18 7 -1 52.2461 -58.8249
18 7 2 14.7707 -40.2982
18 7 5 -23.5110 29.6870
18 7 8 25.6664 -30.4624
18 8 -5 9.1570 7.3409
18 8 -2 -7.5381 20.0450
18 8 1 19.1538 -5.2239
18 8 4 -43.7033 -13.0149
18 8 7 -18.2820 -8.7235
18 9 -6 -19.6815 -4.0880
18 9 -3 -32.3892 39.1226
18 9 0 79.4148 -18.6379
18 9 3 -8.2612 -3.3321
18 10 -4 19.7862 22.5298
18 10 -1 11.0947 -29.8655
18 10 2 30.6475 30.1653
19 0 -11 -86.2985 -0.0000
19 0 -8 25.4249 0.0000
19 0 -5 -43.8692 0.0000
19 0 -2 -1.5292 0.0000
19 0 1 25.8628 0.0000
19 0 4 -35.5505 0.0000
19 0 7 40.4273 0.0000
19 0 10 -1.6006 0.0000
19 1 -9 -16.1683 -35.8606
19 1 -6 -36.0050 -21.1597
19 1 -3 -28.3758 -75.0704
19 1 0 -8.1813 -33.0045
19 1 3 36.6804 -22.9566
19 1 6 -37.1836 72.5913
19 1 9 -46.2206 -3.3463
19 2 -10 -31.9087 -14.4858
19 2 -7 12.7583 14.9292
19 2 -4 38.3041 -10.5538
19 2 -1 26.0633 60.5724
19 2 2 -45.7946 46.3296
19 2 5 43.0453 68.7423
19 2 8 -21.8864 16.3035
19 2 11 9.0541 1.6632
19 3 -8 -23.9573 37.8169
19 3 -5 -17.1427 14.7361
19 3 -2 -27.4345 25.4145
19 3 1 55.5267 -16.3529
19 3 4 23.3938 -8.6347
19 3 7 -3.7196 90.6971
19 3 10 19.5985 -13.2102
19 4 -9 -1.6519 -24.7514
19 4 -6 -31.9656 14.1467
19 4 -3 4.9767 0.0863
19 4 0 -28.5620 29.7617
19 4 3 -37.1242 23.7041
19 4 6 -39.3926 90.5319
19 4 9 28.2165 22.9081
19 5 -7 -31.1158 47.5459
19 5 -4 -5.9404 10.1183
19 5 -1 -11.1959 -2.7676
19 5 2 -18.0312 -6.3395
19 5 5 -22.7910 30.2389
19 5 8 65.9321 0.5916
19 6 -8 -28.4894 -31.4124
19 6 -5 16.4215 19.7693
19 6 -2 31.2568 -17.8719
19 6 1 -46.3345 32.7284
19 6 4 -33.2006 -77.4691
19 6 7 -5.1834 43.5763
19 7 -6 6.8142 38.9486
19 7 -3 -59.0228 -17.1678
19 7 0 -4.7313 32.2640
19 7 3 -12.2212 -78.3152
19 7 6 12.3851 39.0096
19 8 -4 12.6160 13.4468
19 8 -1 -24.3176 -6.2869
19 8 2 18.7469 -5.0649
19 8 5 -16.1829 -12.0030
19 9 -2 -59.3966 38.8358
19 9 1 32.0501 -13.1903
20 0 -10 -75.7059 0.0000
20 0 -4 5.4337 0.0000
20 0 -1 23.8504 -0.0000
20 0 2 -33.7170 0.0000
20 0 5 -41.9016 0.0000
20 0 8 -50.6096 0.0000
20 0 11 15.3410 0.0000
20 1 -8 -12.5942 23.4019
20 1 -5 -16.1178 -9.6975
20 1 -2 -65.4433 24.6472
20 1 1 -12.0420 41.0174
20 1 4 21.9983 -23.1536
20 1 7 -3.1630 9.7966
20 1 10 -11.4720 -9.7864
20 2 -9 -0.7622 -30.1291
20 2 -6 -24.7227 -21.5426
20 2 0 -11.5223 -14.5084
20 2 3 -33.6658 -37.9154
20 2 6 -0.5996 78.7496
20 2 9 23.4365 -53.1927
20 3 -7 6.3777 -0.2198
20 3 -4 -31.0243 21.3430
20 3 -1 -20.8706 3.5966
20 3 2 -1.8713 13.6470
20 3 5 6.8116 24.0036
20 3 8 25.7747 7.9034
20 4 -8 16.4271 -19.6449
20 4 -5 -42.4179 17.3396
20 4 -2 -15.1066 42.1111
20 4 1 9.5421 -43.3162
20 4 4 -45.4677 -53.3014
20 4 7 -8.5323 21.1280
20 5 -6 -11.7075 34.2568
20 5 -3 -32.9505 6.7944
20 5 0 18.6607 -61.4215
20 5 3 -11.6487 -49.4273
20 5 6 4.2961 34.1043
20 6 -4 -46.0554 39.2634
20 6 -1 -1.8035 -56.8427
20 6 2 13.8061 12.4052
20 6 5 -57.6468 -12.7250
20 7 -5 -5.1178 43.6953
20 7 -2 -31.2498 -35.5796
20 7 1 39.2206 6.0697
20 7 4 -22.1971 -21.2717
20 8 0 40.1280 4.0421
21 0 -9 -68.4441 0.0000
21 0 -6 66.9989 0.0000
21 0 -3 -2.0478 -0.0000
21 0 3 26.2310 0.0000
21 0 6 54.2098 0.0000
21 0 9 -30.6544 0.0000
21 1 -7 42.3265 -17.4734
21 1 -4 -28.1041 5.3538
21 1 -1 -10.6400 -14.5367
21 1 2 -3.1584 -33.7742
21 1 5 24.3309 114.5484
21 1 8 0.0357 -28.3111
21 2 -8 8.1108 -23.3269
21 2 -5 -1.0310 -14.1345
21 2 -2 15.0303 45.9791
21 2 1 -8.2142 12.6707
21 2 4 -37.9534 34.2914
21 2 7 34.2378 49.0362
21 3 -6 -46.1121 -21.0110
21 3 -3 -70.9761 31.2953
21 3 0 -17.0120 -41.8467
21 3 3 -34.9928 -29.1754
21 3 6 28.6305 81.5399
21 4 -7 -28.0748 -22.2779
21 4 -4 8.4169 2.4388
21 4 -1 -18.4513 -21.5058
21 4 2 -33.6445 32.6768
21 4 5 -13.6756 -1.5650
21 5 -5 -13.3939 -15.4515
21 5 -2 -44.5473 16.1474
21 5 1 19.1842 5.1208
21 5 4 -16.7320 -66.8951
21 6 -3 -22.5324 -43.2846
21 6 0 -6.3850 3.2228
21 6 3 12.6808 -35.8183
22 0 -8 21.9185 -0.0000
22 0 -5 11.3762 0.0000
22 0 -2 41.5603 0.0000
22 0 1 -27.1511 0.0000
22 0 4 -24.4148 0.0000
22 0 7 -10.0366 -0.0000
22 1 -6 13.4162 -27.2486
22 1 -3 -61.5351 -2.0704
22 1 0 -64.1633 -31.4361
22 1 3 -1.0020 -16.6906
22 1 6 56.0535 15.1793
22 2 -7 27.0685 -47.5379
22 2 -4 -38.1472 29.7617
22 2 -1 27.1688 -35.5072
22 2 2 29.0743 0.6241
22 2 5 -55.1258 47.9762
22 3 -5 -2.2001 -6.8401
22 3 -2 -32.7283 -14.0340
22 3 1 3.4949 3.4728
22 3 4 -33.5934 -33.4293
22 4 -3 -38.1029 0.6331
22 4 0 26.5330 -29.8327
22 4 3 -10.2206 -33.8813
22 5 -1 -25.8227 -11.7145
22 5 2 11.3772 29.0120
23 0 -7 17.6096 0.0000
23 0 -4 4.9250 -0.0000
23 0 -1 20.7059 0.0000
23 0 2 -22.8969 0.0000
23 0 5 57.2936 -0.0000
23 1 -5 2.7992 14.3679
23 1 -2 5.4907 33.4779
23 1 1 -22.5664 -10.6470
23 1 4 -7.5620 28.9411
23 2 -3 -20.8910 -14.8147
23 2 0 -72.8827 -9.0824
23 2 3 14.1239 -13.8301
23 3 -1 -7.4109 15.5298
23 3 2 16.1741 -2.7774
24 0 -3 -13.5234 0.0000
24 0 0 1.2565 0.0000
24 0 3 14.4916 0.0000
24 1 -4 5.7496 -24.1619
24 1 -1 -18.0353 -27.2091
24 1 2 -4.2015 12.3337
24 2 1 17.3446 -3.6121
25 0 -2 -37.4754 0.0000
25 0 1 -39.9450 0.0000
0 0 0 0.0 0.0
;
_olex2_exptl_crystal_mounting_method
'Crystal coated in isopropanol:water mother liquor and mounted in a quarts capillary'
_olex2_submission_special_instructions 'No special instructions were received'
_oxdiff_exptl_absorpt_empirical_details
;
Empirical correction (ABSPACK) includes:
- Absorption correction using spherical harmonics
- Frame scaling
;
_oxdiff_exptl_absorpt_empirical_full_max 1.989
_oxdiff_exptl_absorpt_empirical_full_min 0.608
#END Tags that were not found in dictionaries
loop_
_space_group_symop_id
_space_group_symop_operation_xyz
1 'x, y, z'
2 '-y, x-y, z'
3 '-x+y, -x, z'
4 'x-y, -y, -z'
5 '-x, -x+y, -z'
6 'y, x, -z'
7 'x+2/3, y+1/3, z+1/3'
8 '-y+2/3, x-y+1/3, z+1/3'
9 '-x+y+2/3, -x+1/3, z+1/3'
10 'x-y+2/3, -y+1/3, -z+1/3'
11 '-x+2/3, -x+y+1/3, -z+1/3'
12 'y+2/3, x+1/3, -z+1/3'
13 'x+1/3, y+2/3, z+2/3'
14 '-y+1/3, x-y+2/3, z+2/3'
15 '-x+y+1/3, -x+2/3, z+2/3'
16 'x-y+1/3, -y+2/3, -z+2/3'
17 '-x+1/3, -x+y+2/3, -z+2/3'
18 'y+1/3, x+2/3, -z+2/3'
loop_
_atom_site_label
_atom_site_type_symbol
_atom_site_fract_x
_atom_site_fract_y
_atom_site_fract_z
_atom_site_U_iso_or_equiv
_atom_site_adp_type
_atom_site_occupancy
_atom_site_site_symmetry_order
_atom_site_calc_flag
_atom_site_refinement_flags_posn
_atom_site_refinement_flags_adp
_atom_site_refinement_flags_occupancy
C1 C 0.7445(5) 0.6625(6) 0.4046(7) 0.133(12) Uiso 1 1 d D U .
H1 H 0.7534 0.6775 0.3763 0.159 Uiso 1 1 calc R . .
C2 C 0.7283(6) 0.6746(4) 0.4453(8) 0.116(10) Uiso 1 1 d D U .
H2 H 0.7135 0.6837 0.4324 0.139 Uiso 1 1 calc R . .
C3 C 0.7115(6) 0.6515(5) 0.4870(8) 0.129(11) Uiso 1 1 d D U .
H3 H 0.7292 0.6449 0.4952 0.155 Uiso 1 1 calc R . .
C4 C 0.6799(5) 0.6158(5) 0.4767(7) 0.134(11) Uiso 1 1 d D U .
H4 H 0.6598 0.6188 0.4675 0.161 Uiso 1 1 calc R . .
C5 C 0.6891(7) 0.5994(5) 0.4359(8) 0.159(13) Uiso 1 1 d D U .
H5 H 0.7042 0.5910 0.4499 0.191 Uiso 1 1 calc R . .
C6 C 0.6590(8) 0.5673(6) 0.4128(11) 0.252(18) Uiso 1 1 d D U .
H6A H 0.6462 0.5487 0.4359 0.303 Uiso 1 1 calc R . .
H6B H 0.6674 0.5584 0.3873 0.303 Uiso 1 1 calc R . .
C11 C 0.8612(5) 0.6679(6) 0.3702(9) 0.103(10) Uiso 1 1 d D U .
H11 H 0.8802 0.6744 0.3468 0.123 Uiso 1 1 calc R . .
C12 C 0.8606(5) 0.7019(5) 0.3826(8) 0.099(10) Uiso 1 1 d D U .
H12 H 0.8589 0.7137 0.3538 0.119 Uiso 1 1 calc R . .
C13 C 0.8299(6) 0.6921(6) 0.4156(9) 0.126(11) Uiso 1 1 d D U .
H13 H 0.8365 0.6858 0.4459 0.151 Uiso 1 1 calc R . .
C14 C 0.7992(5) 0.6595(6) 0.3984(10) 0.168(13) Uiso 1 1 d D U .
H14 H 0.7944 0.6684 0.3689 0.202 Uiso 1 1 calc R . .
C15 C 0.7972(5) 0.6270(6) 0.3798(9) 0.120(11) Uiso 1 1 d D U .
H15 H 0.8030 0.6160 0.4061 0.144 Uiso 1 1 calc R . .
C16 C 0.7695(8) 0.5978(8) 0.3503(10) 0.201(16) Uiso 1 1 d D U .
H16A H 0.7764 0.5803 0.3437 0.242 Uiso 1 1 calc R . .
H16B H 0.7472 0.5864 0.3673 0.242 Uiso 1 1 calc R . .
C21 C 0.9337(7) 0.6228(6) 0.4653(7) 0.147(12) Uiso 1 1 d D U .
H21 H 0.9548 0.6203 0.4672 0.176 Uiso 1 1 calc R . .
C22 C 0.9518(7) 0.6620(6) 0.4684(9) 0.120(11) Uiso 1 1 d D U .
H22 H 0.9704 0.6726 0.4442 0.144 Uiso 1 1 calc R . .
C23 C 0.9220(6) 0.6672(6) 0.4551(9) 0.109(10) Uiso 1 1 d D U .
H23 H 0.9068 0.6572 0.4831 0.131 Uiso 1 1 calc R . .
C24 C 0.8962(5) 0.6466(5) 0.4158(7) 0.073(9) Uiso 1 1 d D U .
H24 H 0.9109 0.6587 0.3879 0.088 Uiso 1 1 calc R . .
C25 C 0.8909(7) 0.6112(7) 0.4082(7) 0.191(14) Uiso 1 1 d D U .
H25 H 0.8729 0.5951 0.4307 0.229 Uiso 1 1 calc R . .
C26 C 0.8796(5) 0.5960(6) 0.3588(8) 0.166(13) Uiso 1 1 d D U .
H26A H 0.8696 0.5706 0.3605 0.199 Uiso 1 1 calc R . .
H26B H 0.8611 0.6005 0.3480 0.199 Uiso 1 1 calc R . .
C31 C 0.9345(5) 0.5484(6) 0.6208(6) 0.194(7) Uiso 1 1 d D U .
H31 H 0.9435 0.5356 0.6394 0.233 Uiso 1 1 calc R . .
C32 C 0.9585(8) 0.5876(5) 0.6181(9) 0.194(7) Uiso 1 1 d D U .
H32 H 0.9796 0.5890 0.6038 0.233 Uiso 1 1 calc R . .
C33 C 0.9516(7) 0.6094(5) 0.5848(7) 0.194(7) Uiso 1 1 d D U .
H33 H 0.9323 0.6110 0.6002 0.233 Uiso 1 1 calc R . .
C34 C 0.9359(7) 0.5921(4) 0.5382(7) 0.194(7) Uiso 1 1 d D U .
H34 H 0.9560 0.5953 0.5189 0.233 Uiso 1 1 calc R . .
C35 C 0.9121(7) 0.5528(4) 0.5417(6) 0.194(7) Uiso 1 1 d D U .
H35 H 0.8929 0.5540 0.5581 0.233 Uiso 1 1 calc R . .
C36 C 0.8914(5) 0.5357(6) 0.4975(7) 0.194(7) Uiso 1 1 d D U .
H36A H 0.8820 0.5501 0.4849 0.233 Uiso 1 1 calc R . .
H36B H 0.8715 0.5128 0.5056 0.233 Uiso 1 1 calc R . .
C41 C 0.8354(4) 0.4902(4) 0.7521(7) 0.123(11) Uiso 1 1 d D U .
H41 H 0.8276 0.4759 0.7812 0.148 Uiso 1 1 calc R . .
C42 C 0.8637(5) 0.5263(4) 0.7631(6) 0.089(9) Uiso 1 1 d D U .
H42 H 0.8816 0.5207 0.7738 0.107 Uiso 1 1 calc R . .
C43 C 0.8827(6) 0.5478(5) 0.7199(6) 0.116(11) Uiso 1 1 d D U .
H43 H 0.8700 0.5594 0.7080 0.139 Uiso 1 1 calc R . .
C44 C 0.8861(6) 0.5269(6) 0.6805(6) 0.118(11) Uiso 1 1 d D U .
H44 H 0.9048 0.5226 0.6921 0.142 Uiso 1 1 calc R . .
C45 C 0.8558(6) 0.4903(6) 0.6730(8) 0.102(10) Uiso 1 1 d D U .
H45 H 0.8372 0.4948 0.6614 0.122 Uiso 1 1 calc R . .
C46 C 0.8533(5) 0.4627(5) 0.6383(7) 0.055(8) Uiso 1 1 d D U .
H46A H 0.8569 0.4716 0.6059 0.066 Uiso 1 1 calc R . .
H46B H 0.8303 0.4414 0.6403 0.066 Uiso 1 1 calc R . .
C51 C 0.7076(5) 0.4705(5) 0.7790(7) 0.065(4) Uiso 1 1 d D U .
H51 H 0.6840 0.4569 0.7933 0.078 Uiso 1 1 calc R . .
C52 C 0.7333(5) 0.4879(5) 0.8202(6) 0.065(4) Uiso 1 1 d D U .
H52 H 0.7327 0.4710 0.8436 0.078 Uiso 1 1 calc R . .
C53 C 0.7670(5) 0.5056(5) 0.7906(7) 0.065(4) Uiso 1 1 d D U .
H53 H 0.7662 0.5222 0.7678 0.078 Uiso 1 1 calc R . .
C54 C 0.7754(4) 0.4812(5) 0.7665(7) 0.065(4) Uiso 1 1 d D U .
H54 H 0.7760 0.4644 0.7892 0.078 Uiso 1 1 calc R . .
C55 C 0.7477(5) 0.4614(5) 0.7269(7) 0.065(4) Uiso 1 1 d D U .
H55 H 0.7484 0.4788 0.7043 0.078 Uiso 1 1 calc R . .
C56 C 0.7537(5) 0.4354(5) 0.7004(6) 0.065(4) Uiso 1 1 d D U .
H56A H 0.7342 0.4211 0.6790 0.078 Uiso 1 1 calc R . .
H56B H 0.7757 0.4469 0.6826 0.078 Uiso 1 1 calc R . .
C61 C 0.6258(7) 0.5125(7) 0.6890(9) 0.138(12) Uiso 1 1 d D U .
H61 H 0.6046 0.5149 0.6878 0.166 Uiso 1 1 calc R . .
C62 C 0.6516(8) 0.5353(7) 0.7256(11) 0.167(14) Uiso 1 1 d D U .
H62 H 0.6355 0.5240 0.7524 0.201 Uiso 1 1 calc R . .
C63 C 0.6786(6) 0.5261(6) 0.7428(8) 0.103(10) Uiso 1 1 d D U .
H63 H 0.6993 0.5405 0.7227 0.124 Uiso 1 1 calc R . .
C64 C 0.6713(8) 0.4897(7) 0.7350(11) 0.158(13) Uiso 1 1 d D U .
H64 H 0.6567 0.4757 0.7618 0.190 Uiso 1 1 calc R . .
C65 C 0.6499(7) 0.4732(7) 0.6905(9) 0.115(11) Uiso 1 1 d D U .
H65 H 0.6638 0.4869 0.6629 0.138 Uiso 1 1 calc R . .
C66 C 0.6406(8) 0.4358(7) 0.6835(11) 0.186(14) Uiso 1 1 d D U .
H66A H 0.6609 0.4325 0.6863 0.223 Uiso 1 1 calc R . .
H66B H 0.6284 0.4260 0.6537 0.223 Uiso 1 1 calc R . .
C71 C 0.6322(5) 0.5709(4) 0.5280(7) 0.151(12) Uiso 1 1 d D U .
H71 H 0.6212 0.5753 0.5003 0.182 Uiso 1 1 calc R . .
C72 C 0.6198(6) 0.5840(5) 0.5689(7) 0.153(12) Uiso 1 1 d D U .
H72 H 0.5941 0.5731 0.5723 0.183 Uiso 1 1 calc R . .
C73 C 0.6386(6) 0.5771(6) 0.6094(8) 0.077(9) Uiso 1 1 d D U .
H73 H 0.6632 0.5922 0.5996 0.093 Uiso 1 1 calc R . .
C74 C 0.6361(7) 0.5416(5) 0.6081(8) 0.107(10) Uiso 1 1 d D U .
H74 H 0.6108 0.5279 0.6159 0.129 Uiso 1 1 calc R . .
C75 C 0.6340(7) 0.5213(6) 0.5636(9) 0.181(14) Uiso 1 1 d D U .
H75 H 0.6581 0.5278 0.5540 0.217 Uiso 1 1 calc R . .
C76 C 0.6131(6) 0.4823(5) 0.5695(11) 0.27(2) Uiso 1 1 d D U .
H76A H 0.6117 0.4713 0.5388 0.327 Uiso 1 1 calc R . .
H76B H 0.6258 0.4751 0.5910 0.327 Uiso 1 1 calc R . .
K1 K 0.89440(19) 0.78995(17) 0.4184(3) 0.151(3) Uani 1 1 d . U .
K2 K 0.6667 0.6394(3) 0.3333 0.325(11) Uani 1 2 d DS TU P
K3 K 0.9738(2) 0.6404(2) 0.3333 0.229(7) Uani 1 2 d S TU P
O2 O 0.7620(5) 0.7030(5) 0.4623(7) 0.1657(17) Uiso 1 1 d D U .
H2A H 0.7613 0.7043 0.4914 0.249 Uiso 1 1 calc R . .
O3 O 0.7084(5) 0.6667(5) 0.5320(7) 0.1657(17) Uiso 1 1 d D U .
H3A H 0.6933 0.6510 0.5488 0.249 Uiso 1 1 calc R . .
O4 O 0.6705(4) 0.5932(4) 0.5182(6) 0.1657(17) Uiso 1 1 d D U .
O5 O 0.7105(5) 0.6238(5) 0.3982(6) 0.1657(17) Uiso 1 1 d D U .
O6 O 0.6366(5) 0.5818(5) 0.3939(7) 0.1657(17) Uiso 1 1 d D U .
H6 H 0.6163 0.5699 0.4039 0.249 Uiso 1 1 calc R . .
O12 O 0.8931(5) 0.7261(5) 0.4111(7) 0.1657(17) Uiso 1 1 d D U .
H12A H 0.8966 0.7145 0.4312 0.249 Uiso 1 1 calc R . .
O13 O 0.8249(5) 0.7223(5) 0.4265(7) 0.1657(17) Uiso 1 1 d D U .
H13A H 0.8038 0.7152 0.4312 0.249 Uiso 1 1 calc R . .
O14 O 0.7663(5) 0.6500(5) 0.4247(7) 0.1657(17) Uiso 1 1 d D U .
O15 O 0.8274(6) 0.6418(5) 0.3465(6) 0.1657(17) Uiso 1 1 d D U .
O16 O 0.7658(5) 0.6133(5) 0.3053(7) 0.1657(17) Uiso 1 1 d D U .
H16 H 0.7847 0.6226 0.2909 0.249 Uiso 1 1 calc R . .
O22 O 0.9663(5) 0.6773(5) 0.5154(7) 0.1657(17) Uiso 1 1 d D U .
H22A H 0.9559 0.6872 0.5258 0.249 Uiso 1 1 calc R . .
O23 O 0.9289(5) 0.7039(5) 0.4567(6) 0.1657(17) Uiso 1 1 d D U .
H23A H 0.9483 0.7167 0.4689 0.249 Uiso 1 1 calc R . .
O24 O 0.8699(5) 0.6551(5) 0.4100(8) 0.1657(17) Uiso 1 1 d D U .
O25 O 0.9234(5) 0.6103(5) 0.4172(7) 0.1657(17) Uiso 1 1 d D U .
O26 O 0.9079(5) 0.6101(5) 0.3238(6) 0.1657(17) Uiso 1 1 d D U .
H26 H 0.8997 0.6092 0.2973 0.249 Uiso 1 1 calc R . .
O32 O 0.9723(5) 0.6044(5) 0.6641(7) 0.1657(17) Uiso 1 1 d D U .
H32A H 0.9569 0.5947 0.6845 0.249 Uiso 1 1 calc R . .
O33 O 0.9792(4) 0.6457(4) 0.5817(6) 0.1657(17) Uiso 1 1 d D U .
H33A H 0.9736 0.6561 0.5624 0.249 Uiso 1 1 calc R . .
O34 O 0.9149(5) 0.6009(5) 0.5064(8) 0.1657(17) Uiso 1 1 d D U .
O35 O 0.9160(5) 0.5312(4) 0.5772(7) 0.1657(17) Uiso 1 1 d D U .
O36 O 0.9123(5) 0.5312(5) 0.4608(6) 0.1657(17) Uiso 1 1 d D U .
H36 H 0.9040 0.5101 0.4553 0.249 Uiso 1 1 calc R . .
O42 O 0.8626(5) 0.5442(4) 0.8042(5) 0.1657(17) Uiso 1 1 d D U .
H42A H 0.8699 0.5651 0.7978 0.249 Uiso 1 1 calc R . .
O43 O 0.9190(4) 0.5741(5) 0.7262(7) 0.1657(17) Uiso 1 1 d D U .
H43A H 0.9225 0.5805 0.7542 0.249 Uiso 1 1 calc R . .
O44 O 0.8976(5) 0.5394(5) 0.6320(7) 0.1657(17) Uiso 1 1 d D U .
O45 O 0.8406(5) 0.4709(4) 0.7149(7) 0.1657(17) Uiso 1 1 d D U .
O46 O 0.8831(5) 0.4550(5) 0.6532(7) 0.1657(17) Uiso 1 1 d . U .
H46 H 0.8780 0.4445 0.6787 0.249 Uiso 1 1 calc R . .
O52 O 0.7222(5) 0.5118(5) 0.8393(6) 0.1657(17) Uiso 1 1 d D U .
H52A H 0.7380 0.5266 0.8563 0.249 Uiso 1 1 calc R . .
O53 O 0.7953(5) 0.5244(5) 0.8252(7) 0.1657(17) Uiso 1 1 d . U .
H53A H 0.8137 0.5261 0.8148 0.249 Uiso 1 1 calc R . .
O54 O 0.8075(5) 0.4967(5) 0.7348(7) 0.1657(17) Uiso 1 1 d D U .
O55 O 0.7137(4) 0.4453(4) 0.7525(6) 0.1657(17) Uiso 1 1 d D U .
O56 O 0.7552(5) 0.4148(5) 0.7400(7) 0.1657(17) Uiso 1 1 d D U .
H56 H 0.7757 0.4192 0.7436 0.249 Uiso 1 1 calc R . .
O62 O 0.6604(5) 0.5711(5) 0.7390(7) 0.1657(17) Uiso 1 1 d D U .
H62A H 0.6706 0.5761 0.7649 0.249 Uiso 1 1 calc R . .
O63 O 0.6899(5) 0.5412(5) 0.7899(7) 0.1657(17) Uiso 1 1 d D U .
H63A H 0.6998 0.5318 0.8032 0.249 Uiso 1 1 calc R . .
O64 O 0.7047(6) 0.4932(5) 0.7419(7) 0.1657(17) Uiso 1 1 d D U .
O65 O 0.6179(5) 0.4770(6) 0.6939(7) 0.1657(17) Uiso 1 1 d D U .
O66 O 0.6144(5) 0.4207(5) 0.7294(7) 0.1657(17) Uiso 1 1 d . U .
H66 H 0.6259 0.4219 0.7532 0.249 Uiso 1 1 calc R . .
O72 O 0.6399(5) 0.6232(5) 0.5681(7) 0.1657(17) Uiso 1 1 d D U .
H72A H 0.6433 0.6308 0.5955 0.249 Uiso 1 1 calc R . .
O73 O 0.6385(5) 0.5945(5) 0.6540(7) 0.1657(17) Uiso 1 1 d D U .
H73A H 0.6567 0.5999 0.6689 0.199 Uiso 1 1 calc R . .
O74 O 0.6494(6) 0.5308(6) 0.6542(9) 0.1657(17) Uiso 1 1 d D U .
O75 O 0.6184(4) 0.5330(4) 0.5259(6) 0.1657(17) Uiso 1 1 d D U .
O76 O 0.5775(5) 0.4687(5) 0.5876(7) 0.1657(17) Uiso 1 1 d D U .
H76 H 0.5690 0.4800 0.5761 0.249 Uiso 1 1 calc R . .
OA O 0.7536(6) 0.7006(7) 0.5925(10) 0.245(8) Uiso 1 1 d . U .
OB O 0.9496(7) 0.7114(7) 0.5716(9) 0.245(8) Uiso 1 1 d . U .
loop_
_atom_site_aniso_label
_atom_site_aniso_U_11
_atom_site_aniso_U_22
_atom_site_aniso_U_33
_atom_site_aniso_U_23
_atom_site_aniso_U_13
_atom_site_aniso_U_12
K1 0.157(8) 0.153(7) 0.217(8) -0.080(6) -0.028(6) 0.134(7)
K2 0.44(2) 0.243(11) 0.36(2) -0.165(10) -0.33(2) 0.218(12)
K3 0.110(7) 0.110(7) 0.42(2) -0.068(6) 0.068(6) 0.022(9)
loop_
_atom_type_symbol
_atom_type_description
_atom_type_scat_dispersion_real
_atom_type_scat_dispersion_imag
_atom_type_scat_source
C C 0.0033 0.0016 'International Tables Vol C Tables 4.2.6.8 and 6.1.1.4'
H H 0.0000 0.0000 'International Tables Vol C Tables 4.2.6.8 and 6.1.1.4'
K K 0.2009 0.2494 'International Tables Vol C Tables 4.2.6.8 and 6.1.1.4'
O O 0.0106 0.0060 'International Tables Vol C Tables 4.2.6.8 and 6.1.1.4'
loop_
_geom_angle_atom_site_label_1
_geom_angle_atom_site_label_2
_geom_angle_atom_site_label_3
_geom_angle
_geom_angle_site_symmetry_1
_geom_angle_site_symmetry_3
C2 C1 H1 117.3 . .
C2 C1 O5 95.8(11) . .
O5 C1 H1 117.3 . .
O14 C1 H1 117.3 . .
O14 C1 C2 110.0(18) . .
O14 C1 O5 95.0(18) . .
C1 C2 H2 111.5 . .
C3 C2 C1 119.8(18) . .
C3 C2 H2 111.5 . .
O2 C2 C1 95.3(16) . .
O2 C2 H2 111.5 . .
O2 C2 C3 105.6(19) . .
C2 C3 H3 101.1 . .
C2 C3 C4 116.2(14) . .
C4 C3 H3 101.1 . .
O3 C3 C2 119.9(18) . .
O3 C3 H3 101.1 . .
O3 C3 C4 113.0(19) . .
C3 C4 H4 109.4 . .
C3 C4 C5 108.3(13) . .
C5 C4 H4 109.4 . .
O4 C4 C3 110.6(18) . .
O4 C4 H4 109.4 . .
O4 C4 C5 109.8(18) . .
C4 C5 H5 105.2 . .
C6 C5 C4 117(3) . .
C6 C5 H5 105.2 . .
O5 C5 C4 115.3(12) . .
O5 C5 H5 105.2 . .
O5 C5 C6 108(2) . .
C5 C6 H6A 111.3 . .
C5 C6 H6B 111.3 . .
C5 C6 O6 102(2) . .
H6A C6 H6B 109.2 . .
O6 C6 H6A 111.3 . .
O6 C6 H6B 111.3 . .
C12 C11 H11 107.0 . .
O15 C11 H11 107.0 . .
O15 C11 C12 110.5(15) . .
O24 C11 H11 107.0 . .
O24 C11 C12 110(2) . .
O24 C11 O15 114.5(19) . .
C11 C12 H12 111.3 . .
C11 C12 K1 157.3(13) . .
C13 C12 C11 108.0(17) . .
C13 C12 H12 111.3 . .
C13 C12 K1 87.8(11) . .
K1 C12 H12 76.2 . .
O12 C12 C11 109.3(19) . .
O12 C12 H12 111.3 . .
O12 C12 C13 105.4(18) . .
O12 C12 K1 49.3(10) . .
C12 C13 H13 105.5 . .
C14 C13 C12 108.9(18) . .
C14 C13 H13 105.5 . .
O13 C13 C12 112.6(17) . .
O13 C13 H13 105.5 . .
O13 C13 C14 117.8(18) . .
C13 C14 H14 99.4 . .
C13 C14 O14 113.2(18) . .
C15 C14 C13 129.7(17) . .
C15 C14 H14 99.4 . .
C15 C14 O14 109.1(18) . .
O14 C14 H14 99.4 . .
C14 C15 H15 107.3 . .
C14 C15 C16 131(2) . .
C14 C15 O15 101.1(16) . .
C16 C15 H15 107.3 . .
O15 C15 H15 107.3 . .
O15 C15 C16 101(2) . .
C15 C16 H16A 110.1 . .
C15 C16 H16B 110.1 . .
H16A C16 H16B 108.4 . .
O16 C16 C15 108(2) . .
O16 C16 H16A 110.1 . .
O16 C16 H16B 110.1 . .
C22 C21 H21 97.9 . .
O25 C21 H21 97.9 . .
O25 C21 C22 112.1(17) . .
O25 C21 O34 122(2) . .
O34 C21 H21 97.9 . .
O34 C21 C22 121(2) . .
C21 C22 H22 109.9 . .
C23 C22 C21 99(2) . .
C23 C22 H22 109.9 . .
O22 C22 C21 116(2) . .
O22 C22 H22 109.9 . .
O22 C22 C23 111.8(18) . .
C22 C23 H23 100.5 . .
C22 C23 C24 123(2) . .
C22 C23 O23 116.4(17) . .
C24 C23 H23 100.5 . .
O23 C23 H23 100.5 . .
O23 C23 C24 110.8(16) . .
C23 C24 H24 99.7 . .
C25 C24 C23 114.4(17) . .
C25 C24 H24 99.7 . .
O24 C24 C23 113.4(17) . .
O24 C24 H24 99.7 . .
O24 C24 C25 123.8(17) . .
C24 C25 H25 108.0 . .
C24 C25 C26 116.4(18) . .
C24 C25 O25 111(2) . .
C26 C25 H25 108.0 . .
O25 C25 H25 108.0 . .
O25 C25 C26 104.9(14) . .
C25 C26 H26A 108.7 . .
C25 C26 H26B 108.7 . .
H26A C26 H26B 107.6 . .
O26 C26 C25 114.3(14) . .
O26 C26 H26A 108.7 . .
O26 C26 H26B 108.7 . .
C32 C31 H31 115.4 . .
O35 C31 H31 115.4 . .
O35 C31 C32 116.1(15) . .
O35 C31 O44 78.1(14) . .
O44 C31 H31 115.4 . .
O44 C31 C32 111(2) . .
C31 C32 H32 101.0 . .
C31 C32 K3 150.3(13) . 8_655
C33 C32 C31 121.4(19) . .
C33 C32 H32 101.0 . .
C33 C32 K3 87.4(10) . 8_655
K3 C32 H32 78.1 8_655 .
O32 C32 C31 114.0(17) . .
O32 C32 H32 101.0 . .
O32 C32 C33 113.9(19) . .
O32 C32 K3 39.5(11) . 8_655
C32 C33 H33 103.1 . .
C32 C33 C34 114.7(18) . .
C34 C33 H33 103.1 . .
O33 C33 C32 115.0(15) . .
O33 C33 H33 103.1 . .
O33 C33 C34 115.2(14) . .
C33 C34 H34 105.1 . .
C35 C34 C33 113.7(13) . .
C35 C34 H34 105.1 . .
C35 C34 O34 99.8(15) . .
O34 C34 C33 126(2) . .
O34 C34 H34 105.1 . .
C34 C35 H35 95.4 . .
C34 C35 C36 114.7(7) . .
C34 C35 O35 123.6(14) . .
C36 C35 H35 95.4 . .
C36 C35 O35 119.1(11) . .
O35 C35 H35 95.4 . .
C35 C36 H36A 109.0 . .
C35 C36 H36B 109.0 . .
C35 C36 O36 113.1(14) . .
H36A C36 H36B 107.8 . .
O36 C36 H36A 109.0 . .
O36 C36 H36B 109.0 . .
C42 C41 H41 110.1 . .
O45 C41 H41 110.1 . .
O45 C41 C42 119.3(12) . .
O45 C41 O54 105.4(17) . .
O54 C41 H41 110.1 . .
O54 C41 C42 101.3(16) . .
C41 C42 H42 98.2 . .
C41 C42 C43 114.0(11) . .
C43 C42 H42 98.2 . .
O42 C42 C41 121.6(12) . .
O42 C42 H42 98.2 . .
O42 C42 C43 118.4(12) . .
C42 C43 H43 108.5 . .
C44 C43 C42 114.2(12) . .
C44 C43 H43 108.5 . .
O43 C43 C42 116.6(16) . .
O43 C43 H43 108.5 . .
O43 C43 C44 100.1(18) . .
C43 C44 H44 102.5 . .
C43 C44 C45 117.1(15) . .
C45 C44 H44 102.5 . .
O44 C44 C43 125.9(19) . .
O44 C44 H44 102.5 . .
O44 C44 C45 102.9(18) . .
C44 C45 H45 102.1 . .
C44 C45 C46 128(2) . .
C46 C45 H45 102.1 . .
O45 C45 C44 115.1(16) . .
O45 C45 H45 102.1 . .
O45 C45 C46 103.7(19) . .
C45 C46 H46A 110.7 . .
C45 C46 H46B 110.7 . .
C45 C46 O46 105.3(18) . .
H46A C46 H46B 108.8 . .
O46 C46 H46A 110.7 . .
O46 C46 H46B 110.7 . .
C52 C51 H51 106.3 . .
O55 C51 H51 106.3 . .
O55 C51 C52 113.2(13) . .
O55 C51 O64 104.7(16) . .
O64 C51 H51 106.3 . .
O64 C51 C52 119.3(19) . .
C51 C52 H52 113.7 . .
C51 C52 C53 97.1(15) . .
C51 C52 K1 156.7(11) . 10_566
C53 C52 H52 113.7 . .
C53 C52 K1 93.5(10) . 10_566
K1 C52 H52 80.4 10_566 .
O52 C52 C51 102.2(16) . .
O52 C52 H52 113.7 . .
O52 C52 C53 114.8(14) . .
O52 C52 K1 54.5(10) . 10_566
C52 C53 H53 110.6 . .
C54 C53 C52 114.5(16) . .
C54 C53 H53 110.6 . .
C54 C53 O53 105.4(16) . .
O53 C53 C52 104.9(16) . .
O53 C53 H53 110.6 . .
C53 C54 H54 110.8 . .
C53 C54 C55 109.2(15) . .
C53 C54 O54 117.7(18) . .
C55 C54 H54 110.8 . .
O54 C54 H54 110.8 . .
O54 C54 C55 96.8(15) . .
C54 C55 H55 108.6 . .
C56 C55 C54 113.5(16) . .
C56 C55 H55 108.6 . .
O55 C55 C54 103.6(13) . .
O55 C55 H55 108.6 . .
O55 C55 C56 113.6(16) . .
C55 C56 H56A 111.8 . .
C55 C56 H56B 111.8 . .
H56A C56 H56B 109.6 . .
O56 C56 C55 99.7(16) . .
O56 C56 H56A 111.8 . .
O56 C56 H56B 111.8 . .
C62 C61 H61 113.2 . .
C62 C61 K1 104.9(18) . 9_565
K1 C61 H61 76.0 9_565 .
O65 C61 H61 113.2 . .
O65 C61 C62 111(2) . .
O65 C61 K1 45.4(13) . 9_565
O74 C61 H61 113.2 . .
O74 C61 C62 90(2) . .
O74 C61 K1 157.9(18) . 9_565
O74 C61 O65 114(2) . .
C61 C62 H62 94.6 . .
C61 C62 C63 119(2) . .
C63 C62 H62 94.6 . .
O62 C62 C61 127(2) . .
O62 C62 H62 94.6 . .
O62 C62 C63 112(2) . .
C62 C63 H63 103.8 . .
C64 C63 C62 117.9(19) . .
C64 C63 H63 103.8 . .
O63 C63 C62 108(2) . .
O63 C63 H63 103.8 . .
O63 C63 C64 118(2) . .
C63 C64 H64 106.3 . .
C63 C64 C65 113(2) . .
C65 C64 H64 106.3 . .
O64 C64 C63 102(2) . .
O64 C64 H64 106.3 . .
O64 C64 C65 122(3) . .
C64 C65 H65 108.2 . .
C66 C65 C64 113(2) . .
C66 C65 H65 108.2 . .
C66 C65 O65 112(2) . .
O65 C65 C64 106.6(19) . .
O65 C65 H65 108.2 . .
C65 C66 H66A 112.7 . .
C65 C66 H66B 112.7 . .
C65 C66 O66 95(2) . .
H66A C66 H66B 110.2 . .
O66 C66 H66A 112.7 . .
O66 C66 H66B 112.7 . .
C72 C71 H71 103.1 . .
O4 C71 H71 103.1 . .
O4 C71 C72 113.2(12) . .
O75 C71 H71 103.1 . .
O75 C71 C72 116.1(11) . .
O75 C71 O4 115.8(12) . .
C71 C72 H72 115.7 . .
C71 C72 C73 99.5(16) . .
C73 C72 H72 115.7 . .
O72 C72 C71 108.0(14) . .
O72 C72 H72 115.7 . .
O72 C72 C73 100.0(17) . .
C72 C73 H73 100.2 . .
C74 C73 C72 114.8(19) . .
C74 C73 H73 100.2 . .
O73 C73 C72 113.4(15) . .
O73 C73 H73 100.2 . .
O73 C73 C74 122.6(17) . .
C73 C74 H74 96.0 . .
C73 C74 C75 125.5(19) . .
C73 C74 O74 116.2(17) . .
C75 C74 H74 96.0 . .
C75 C74 O74 115.0(18) . .
O74 C74 H74 96.0 . .
C74 C75 H75 108.4 . .
C76 C75 C74 113.9(17) . .
C76 C75 H75 108.4 . .
O75 C75 C74 106.9(18) . .
O75 C75 H75 108.4 . .
O75 C75 C76 110.6(19) . .
C75 C76 H76A 108.5 . .
C75 C76 H76B 108.5 . .
H76A C76 H76B 107.5 . .
O76 C76 C75 115.1(18) . .
O76 C76 H76A 108.5 . .
O76 C76 H76B 108.5 . .
C52 K1 C12 145.4(6) 10_566 .
C52 K1 C61 110.4(5) 10_566 14_654
C61 K1 C12 82.0(6) 14_654 .
O12 K1 C12 24.4(4) . .
O12 K1 C52 131.0(6) . 10_566
O12 K1 C61 106.4(6) . 14_654
O12 K1 O13 60.9(5) . .
O12 K1 O45 90.7(6) . 15_664
O12 K1 O46 75.5(6) . 15_664
O12 K1 O52 132.1(6) . 10_566
O12 K1 O53 91.9(6) . 10_566
O12 K1 O66 158.4(6) . 14_654
O13 K1 C12 43.9(4) . .
O13 K1 C52 113.4(5) . 10_566
O13 K1 C61 60.1(6) . 14_654
O45 K1 C12 104.7(5) 15_664 .
O45 K1 C52 95.2(6) 15_664 10_566
O45 K1 C61 123.2(6) 15_664 14_654
O45 K1 O13 148.5(6) 15_664 .
O45 K1 O46 60.8(6) 15_664 15_664
O45 K1 O52 118.4(6) 15_664 10_566
O45 K1 O53 78.6(6) 15_664 10_566
O45 K1 O66 70.8(5) 15_664 14_654
O46 K1 C12 67.2(6) 15_664 .
O46 K1 C52 146.9(6) 15_664 10_566
O46 K1 C61 71.6(6) 15_664 14_654
O46 K1 O13 96.5(6) 15_664 .
O46 K1 O53 136.9(6) 15_664 10_566
O52 K1 C12 132.9(6) 10_566 .
O52 K1 C52 24.8(4) 10_566 10_566
O52 K1 C61 89.2(5) 10_566 14_654
O52 K1 O13 92.1(6) 10_566 .
O52 K1 O46 151.0(5) 10_566 15_664
O52 K1 O53 61.4(5) 10_566 10_566
O52 K1 O66 68.7(6) 10_566 14_654
O53 K1 C12 113.9(6) 10_566 .
O53 K1 C52 42.6(5) 10_566 10_566
O53 K1 C61 150.3(6) 10_566 14_654
O53 K1 O13 113.2(6) 10_566 .
O65 K1 C12 99.1(6) 14_654 .
O65 K1 C52 102.7(6) 14_654 10_566
O65 K1 C61 22.0(5) 14_654 14_654
O65 K1 O12 122.6(7) 14_654 .
O65 K1 O13 82.1(7) 14_654 .
O65 K1 O45 105.1(6) 14_654 15_664
O65 K1 O46 66.3(6) 14_654 15_664
O65 K1 O52 87.7(6) 14_654 10_566
O65 K1 O53 144.8(6) 14_654 10_566
O65 K1 O66 55.6(6) 14_654 14_654
O66 K1 C12 149.5(6) 14_654 .
O66 K1 C52 64.0(5) 14_654 10_566
O66 K1 C61 76.5(6) 14_654 14_654
O66 K1 O13 132.9(6) 14_654 .
O66 K1 O46 85.5(6) 14_654 15_664
O66 K1 O53 95.1(6) 14_654 10_566
O5 K2 O5 112.7(8) . 17_655
O5 K2 O72 113.2(5) 17_655 6_556
O5 K2 O72 85.8(4) . 6_556
O5 K2 O72 85.8(4) 17_655 14_654
O5 K2 O72 113.2(5) . 14_654
O5 K2 O73 133.3(5) 17_655 14_654
O5 K2 O73 81.6(5) . 14_654
O5 K2 O73 133.3(5) . 6_556
O5 K2 O73 81.6(5) 17_655 6_556
O6 K2 O5 58.6(6) . .
O6 K2 O5 77.0(6) 17_655 .
O6 K2 O5 58.6(6) 17_655 17_655
O6 K2 O5 77.0(6) . 17_655
O6 K2 O6 95.5(9) 17_655 .
O6 K2 O72 59.1(5) . 6_556
O6 K2 O72 154.4(7) 17_655 6_556
O6 K2 O72 59.1(5) 17_655 14_654
O6 K2 O72 154.4(7) . 14_654
O6 K2 O73 138.9(6) . 14_654
O6 K2 O73 84.4(5) 17_655 14_654
O6 K2 O73 138.9(6) 17_655 6_556
O6 K2 O73 84.4(5) . 6_556
O72 K2 O72 146.4(8) 14_654 6_556
O73 K2 O72 112.0(5) 14_654 6_556
O73 K2 O72 49.0(5) 14_654 14_654
O73 K2 O72 49.0(5) 6_556 6_556
O73 K2 O72 112.0(5) 6_556 14_654
O73 K2 O73 121.7(8) 14_654 6_556
C32 K3 C32 138.9(11) 5_766 15_664
O25 K3 C32 96.6(6) 18_545 15_664
O25 K3 C32 106.9(5) . 15_664
O25 K3 C32 106.9(5) 18_545 5_766
O25 K3 C32 96.6(6) . 5_766
O25 K3 O25 109.3(8) 18_545 .
O26 K3 C32 78.2(7) 18_545 5_766
O26 K3 C32 78.2(7) . 15_664
O26 K3 C32 142.4(8) 18_545 15_664
O26 K3 C32 142.4(8) . 5_766
O26 K3 O25 57.5(6) 18_545 18_545
O26 K3 O25 64.4(6) 18_545 .
O26 K3 O25 57.5(6) . .
O26 K3 O25 64.4(6) . 18_545
O26 K3 O26 66.3(9) 18_545 .
O26 K3 O32 80.2(6) . 15_664
O26 K3 O32 145.4(7) 18_545 15_664
O26 K3 O32 145.3(7) . 5_766
O26 K3 O32 80.2(6) 18_545 5_766
O26 K3 O33 102.8(6) 18_545 5_766
O26 K3 O33 102.8(6) . 15_664
O26 K3 O33 132.6(6) . 5_766
O26 K3 O33 132.6(6) 18_545 15_664
O32 K3 C32 21.3(5) 5_766 5_766
O32 K3 C32 21.3(5) 15_664 15_664
O32 K3 C32 131.2(7) 5_766 15_664
O32 K3 C32 131.2(7) 15_664 5_766
O32 K3 O25 90.9(6) 15_664 .
O32 K3 O25 115.8(6) 5_766 .
O32 K3 O25 115.8(6) 15_664 18_545
O32 K3 O25 90.9(6) 5_766 18_545
O32 K3 O32 134.2(10) 5_766 15_664
O32 K3 O33 61.5(6) 15_664 15_664
O32 K3 O33 61.5(6) 5_766 5_766
O32 K3 O33 93.4(6) 15_664 5_766
O32 K3 O33 93.4(6) 5_766 15_664
O33 K3 C32 110.5(7) 5_766 15_664
O33 K3 C32 110.5(7) 15_664 5_766
O33 K3 C32 43.4(3) 5_766 5_766
O33 K3 C32 43.4(3) 15_664 15_664
O33 K3 O25 149.8(5) 5_766 18_545
O33 K3 O25 75.9(5) 15_664 18_545
O33 K3 O25 149.9(5) 15_664 .
O33 K3 O25 75.9(5) 5_766 .
O33 K3 O33 115.2(8) 5_766 15_664
C2 O2 H2A 109.5 . .
C3 O3 H3A 109.5 . .
C4 O4 C71 116.2(15) . .
C1 O5 K2 101.1(12) . .
C5 O5 C1 127.0(16) . .
C5 O5 K2 111.4(16) . .
C6 O6 K2 119.2(16) . .
C6 O6 H6 109.5 . .
K2 O6 H6 131.3 . .
C12 O12 K1 106.3(13) . .
C12 O12 H12A 109.5 . .
K1 O12 H12A 130.6 . .
C13 O13 K1 109.6(12) . .
C13 O13 H13A 109.5 . .
K1 O13 H13A 140.8 . .
C1 O14 C14 115.9(15) . .
C15 O15 C11 112.3(14) . .
C16 O16 H16 109.5 . .
C22 O22 H22A 109.5 . .
C23 O23 H23A 109.5 . .
C24 O24 C11 129(2) . .
C21 O25 C25 105.9(18) . .
C21 O25 K3 122.8(15) . .
C25 O25 K3 110.7(14) . .
C26 O26 K3 131.3(14) . .
C26 O26 H26 109.5 . .
K3 O26 H26 118.9 . .
C32 O32 K3 119.3(15) . 8_655
C32 O32 H32A 109.5 . .
K3 O32 H32A 127.5 8_655 .
C33 O33 K3 111.2(10) . 8_655
C33 O33 H33A 109.5 . .
K3 O33 H33A 135.3 8_655 .
C21 O34 C34 115.5(13) . .
C31 O35 C35 117.3(12) . .
C36 O36 H36 109.5 . .
C42 O42 H42A 109.5 . .
C43 O43 H43A 109.5 . .
C44 O44 C31 114.9(15) . .
C41 O45 K1 109.2(14) . 8_655
C45 O45 C41 115.1(16) . .
C45 O45 K1 113.5(16) . 8_655
C46 O46 K1 109.7(12) . 8_655
C46 O46 H46 109.5 . .
K1 O46 H46 15.9 8_655 .
C52 O52 K1 100.8(12) . 10_566
C52 O52 H52A 109.5 . .
K1 O52 H52A 18.3 10_566 .
C53 O53 K1 113.2(12) . 10_566
C53 O53 H53A 109.5 . .
K1 O53 H53A 137.2 10_566 .
C41 O54 C54 113.3(13) . .
C51 O55 C55 114.1(12) . .
C56 O56 H56 109.5 . .
C62 O62 H62A 109.5 . .
C63 O63 H63A 109.5 . .
C64 O64 C51 117(2) . .
C61 O65 C65 113(2) . .
C61 O65 K1 112.5(17) . 9_565
C65 O65 K1 125.3(16) . 9_565
C66 O66 K1 124.3(14) . 9_565
C66 O66 H66 109.5 . .
K1 O66 H66 110.9 9_565 .
C72 O72 K2 118.1(12) . 9_565
C72 O72 H72A 109.5 . .
K2 O72 H72A 18.5 9_565 .
C73 O73 K2 127.7(12) . 9_565
C73 O73 H73A 109.5 . .
K2 O73 H73A 97.4 9_565 .
C61 O74 C74 119(2) . .
C71 O75 C75 111.3(15) . .
C76 O76 H76 109.5 . .
loop_
_geom_bond_atom_site_label_1
_geom_bond_atom_site_label_2
_geom_bond_distance
_geom_bond_site_symmetry_2
C1 H1 0.9800 .
C1 C2 1.568(19) .
C1 O5 1.607(19) .
C1 O14 1.427(18) .
C2 H2 0.9800 .
C2 C3 1.478(19) .
C2 O2 1.450(18) .
C3 H3 0.9800 .
C3 C4 1.502(7) .
C3 O3 1.465(18) .
C4 H4 0.9800 .
C4 C5 1.508(7) .
C4 O4 1.448(18) .
C5 H5 0.9800 .
C5 C6 1.504(7) .
C5 O5 1.460(13) .
C6 H6A 0.9700 .
C6 H6B 0.9700 .
C6 O6 1.50(2) .
C11 H11 0.9800 .
C11 C12 1.54(2) .
C11 O15 1.495(18) .
C11 O24 1.38(2) .
C12 H12 0.9800 .
C12 C13 1.506(19) .
C12 K1 3.50(2) .
C12 O12 1.507(16) .
C13 H13 0.9800 .
C13 C14 1.467(19) .
C13 O13 1.470(18) .
C14 H14 0.9800 .
C14 C15 1.473(19) .
C14 O14 1.475(13) .
C15 H15 0.9800 .
C15 C16 1.49(2) .
C15 O15 1.477(13) .
C16 H16A 0.9700 .
C16 H16B 0.9700 .
C16 O16 1.48(2) .
C21 H21 0.9800 .
C21 C22 1.49(2) .
C21 O25 1.441(13) .
C21 O34 1.461(12) .
C22 H22 0.9800 .
C22 C23 1.47(2) .
C22 O22 1.471(17) .
C23 H23 0.9800 .
C23 C24 1.511(18) .
C23 O23 1.475(19) .
C24 H24 0.9800 .
C24 C25 1.458(19) .
C24 O24 1.384(19) .
C25 H25 0.9800 .
C25 C26 1.509(19) .
C25 O25 1.462(13) .
C26 H26A 0.9700 .
C26 H26B 0.9700 .
C26 O26 1.451(7) .
C31 H31 0.9800 .
C31 C32 1.50(2) .
C31 O35 1.452(7) .
C31 O44 1.49(2) .
C32 H32 0.9800 .
C32 C33 1.469(17) .
C32 K3 3.51(2) 8_655
C32 O32 1.46(2) .
C33 H33 0.9800 .
C33 C34 1.493(12) .
C33 O33 1.433(13) .
C34 H34 0.9800 .
C34 C35 1.498(3) .
C34 O34 1.463(13) .
C35 H35 0.9800 .
C35 C36 1.497(3) .
C35 O35 1.442(12) .
C36 H36A 0.9700 .
C36 H36B 0.9700 .
C36 O36 1.452(13) .
C41 H41 0.9800 .
C41 C42 1.472(12) .
C41 O45 1.428(17) .
C41 O54 1.464(13) .
C42 H42 0.9800 .
C42 C43 1.503(16) .
C42 O42 1.407(16) .
C43 H43 0.9800 .
C43 C44 1.487(12) .
C43 O43 1.427(18) .
C44 H44 0.9800 .
C44 C45 1.495(13) .
C44 O44 1.457(13) .
C45 H45 0.9800 .
C45 C46 1.510(18) .
C45 O45 1.405(18) .
C46 H46A 0.9700 .
C46 H46B 0.9700 .
C46 O46 1.56(2) .
C51 H51 0.9800 .
C51 C52 1.521(18) .
C51 O55 1.461(11) .
C51 O64 1.482(16) .
C52 H52 0.9800 .
C52 C53 1.520(15) .
C52 K1 3.416(16) 10_566
C52 O52 1.456(16) .
C53 H53 0.9800 .
C53 C54 1.457(17) .
C53 O53 1.46(2) .
C54 H54 0.9800 .
C54 C55 1.548(18) .
C54 O54 1.504(17) .
C55 H55 0.9800 .
C55 C56 1.485(15) .
C55 O55 1.470(11) .
C56 H56A 0.9700 .
C56 H56B 0.9700 .
C56 O56 1.451(7) .
C61 H61 0.9800 .
C61 C62 1.482(18) .
C61 K1 3.49(3) 9_565
C61 O65 1.42(2) .
C61 O74 1.35(2) .
C62 H62 0.9800 .
C62 C63 1.50(2) .
C62 O62 1.46(2) .
C63 H63 0.9800 .
C63 C64 1.47(2) .
C63 O63 1.449(7) .
C64 H64 0.9800 .
C64 C65 1.511(17) .
C64 O64 1.40(3) .
C65 H65 0.9800 .
C65 C66 1.48(2) .
C65 O65 1.49(2) .
C66 H66A 0.9700 .
C66 H66B 0.9700 .
C66 O66 1.63(3) .
C71 H71 0.9800 .
C71 C72 1.501(11) .
C71 O4 1.478(12) .
C71 O75 1.448(11) .
C72 H72 0.9800 .
C72 C73 1.52(2) .
C72 O72 1.485(16) .
C73 H73 0.9800 .
C73 C74 1.496(7) .
C73 O73 1.465(17) .
C74 H74 0.9800 .
C74 C75 1.51(2) .
C74 O74 1.58(3) .
C75 H75 0.9800 .
C75 C76 1.49(2) .
C75 O75 1.481(17) .
C76 H76A 0.9700 .
C76 H76B 0.9700 .
C76 O76 1.452(7) .
K1 C52 3.416(16) 10_566
K1 C61 3.49(3) 14_654
K1 O12 2.77(2) .
K1 O13 3.00(2) .
K1 O45 2.82(2) 15_664
K1 O46 2.84(2) 15_664
K1 O52 2.83(2) 10_566
K1 O53 3.00(2) 10_566
K1 O65 2.69(2) 14_654
K1 O66 2.83(2) 14_654
K2 O5 2.95(2) 17_655
K2 O5 2.95(2) .
K2 O6 2.76(2) .
K2 O6 2.76(2) 17_655
K2 O72 3.360(19) 6_556
K2 O72 3.36(2) 14_654
K2 O73 3.150(19) 6_556
K2 O73 3.150(19) 14_654
K3 C32 3.51(2) 15_664
K3 C32 3.51(2) 5_766
K3 O25 3.03(2) .
K3 O25 3.03(2) 18_545
K3 O26 2.51(2) 18_545
K3 O26 2.51(2) .
K3 O32 2.557(19) 5_766
K3 O32 2.557(19) 15_664
K3 O33 2.976(17) 5_766
K3 O33 2.976(17) 15_664
O2 H2A 0.8200 .
O3 H3A 0.8200 .
O6 H6 0.8200 .
O12 H12A 0.8200 .
O13 H13A 0.8200 .
O16 H16 0.8200 .
O22 H22A 0.8200 .
O23 H23A 0.8200 .
O26 H26 0.8200 .
O32 K3 2.557(19) 8_655
O32 H32A 0.8200 .
O33 K3 2.976(17) 8_655
O33 H33A 0.8200 .
O36 H36 0.8200 .
O42 H42A 0.8200 .
O43 H43A 0.8200 .
O45 K1 2.82(2) 8_655
O46 K1 2.84(2) 8_655
O46 H46 0.8200 .
O52 K1 2.83(2) 10_566
O52 H52A 0.8200 .
O53 K1 3.00(2) 10_566
O53 H53A 0.8200 .
O56 H56 0.8200 .
O62 H62A 0.8200 .
O63 H63A 0.8200 .
O65 K1 2.69(2) 9_565
O66 K1 2.83(2) 9_565
O66 H66 0.8200 .
O72 K2 3.360(19) 9_565
O72 H72A 0.8200 .
O73 K2 3.151(19) 9_565
O73 H73A 0.8200 .
O76 H76 0.8200 .
loop_
_geom_torsion_atom_site_label_1
_geom_torsion_atom_site_label_2
_geom_torsion_atom_site_label_3
_geom_torsion_atom_site_label_4
_geom_torsion
_geom_torsion_site_symmetry_1
_geom_torsion_site_symmetry_4
C1 C2 C3 C4 -61(3) . .
C1 C2 C3 O3 157(2) . .
C2 C1 O5 C5 -44(3) . .
C2 C1 O5 K2 84.0(13) . .
C2 C1 O14 C14 -141.3(17) . .
C2 C3 C4 C5 48(3) . .
C2 C3 C4 O4 168(2) . .
C3 C4 C5 C6 -167(2) . .
C3 C4 C5 O5 -39(3) . .
C3 C4 O4 C71 139.7(17) . .
C4 C5 C6 O6 62(3) . .
C4 C5 O5 C1 44(4) . .
C4 C5 O5 K2 -79(2) . .
C5 C4 O4 C71 -101(2) . .
C5 C6 O6 K2 56(3) . .
C6 C5 O5 C1 177(2) . .
C6 C5 O5 K2 53(2) . .
C11 C12 C13 C14 -42(3) . .
C11 C12 C13 O13 -175.0(19) . .
C11 C12 O12 K1 171.0(14) . .
C12 C11 O15 C15 -70(2) . .
C12 C11 O24 C24 -127(2) . .
C12 C13 C14 C15 42(4) . .
C12 C13 C14 O14 -172.6(19) . .
C12 C13 O13 K1 -27(2) . .
C13 C12 O12 K1 -73.1(19) . .
C13 C14 C15 C16 -161(3) . .
C13 C14 C15 O15 -46(4) . .
C13 C14 O14 C1 93(3) . .
C14 C13 O13 K1 -155.4(19) . .
C14 C15 C16 O16 59(4) . .
C14 C15 O15 C11 55(3) . .
C15 C14 O14 C1 -115(2) . .
C16 C15 O15 C11 -170(2) . .
C21 C22 C23 C24 -41(3) . .
C21 C22 C23 O23 176(2) . .
C22 C21 O25 C25 -79(3) . .
C22 C21 O25 K3 49(3) . .
C22 C21 O34 C34 -90(3) . .
C22 C23 C24 C25 29(4) . .
C22 C23 C24 O24 179(2) . .
C23 C24 C25 C26 -154(2) . .
C23 C24 C25 O25 -34(3) . .
C23 C24 O24 C11 121(3) . .
C24 C25 C26 O26 77(3) . .
C24 C25 O25 C21 57(2) . .
C24 C25 O25 K3 -78.7(18) . .
C25 C24 O24 C11 -92(3) . .
C25 C26 O26 K3 21(3) . .
C26 C25 O25 C21 -176.8(18) . .
C26 C25 O25 K3 48(2) . .
C31 C32 C33 C34 -35(4) . .
C31 C32 C33 O33 -172(2) . .
C31 C32 O32 K3 162.9(18) . 8_655
C32 C31 O35 C35 -21(3) . .
C32 C31 O44 C44 -106(2) . .
C32 C33 C34 C35 32(4) . .
C32 C33 C34 O34 156(2) . .
C32 C33 O33 K3 -20(3) . 8_655
C33 C32 O32 K3 -52(3) . 8_655
C33 C34 C35 C36 170(2) . .
C33 C34 C35 O35 -29(4) . .
C33 C34 O34 C21 101(3) . .
C34 C33 O33 K3 -157(2) . 8_655
C34 C35 C36 O36 78(3) . .
C34 C35 O35 C31 23(4) . .
C35 C34 O34 C21 -130(2) . .
C36 C35 O35 C31 -176.4(18) . .
C41 C42 C43 C44 -34(3) . .
C41 C42 C43 O43 -149.7(18) . .
C42 C41 O45 C45 -44(3) . .
C42 C41 O45 K1 85(2) . 8_655
C42 C41 O54 C54 -114.6(17) . .
C42 C43 C44 C45 36(3) . .
C42 C43 C44 O44 169(2) . .
C43 C44 C45 C46 -175(2) . .
C43 C44 C45 O45 -41(3) . .
C43 C44 O44 C31 104(3) . .
C44 C45 C46 O46 62(3) . .
C44 C45 O45 C41 43(3) . .
C44 C45 O45 K1 -84(2) . 8_655
C45 C44 O44 C31 -118(2) . .
C45 C46 O46 K1 53.0(18) . 8_655
C46 C45 O45 C41 -172.1(17) . .
C46 C45 O45 K1 61.1(19) . 8_655
C51 C52 C53 C54 -65(2) . .
C51 C52 C53 O53 179.5(16) . .
C51 C52 O52 K1 -179.6(12) . 10_566
C52 C51 O55 C55 -66(2) . .
C52 C51 O64 C64 -121(2) . .
C52 C53 C54 C55 68(2) . .
C52 C53 C54 O54 177.3(17) . .
C52 C53 O53 K1 -25.3(18) . 10_566
C53 C52 O52 K1 -75.8(17) . 10_566
C53 C54 C55 C56 -179.4(17) . .
C53 C54 C55 O55 -56(2) . .
C53 C54 O54 C41 115(2) . .
C54 C53 O53 K1 -146.6(13) . 10_566
C54 C55 C56 O56 54(2) . .
C54 C55 O55 C51 56(2) . .
C55 C54 O54 C41 -129.2(16) . .
C56 C55 O55 C51 179.7(16) . .
C61 C62 C63 C64 -19(4) . .
C61 C62 C63 O63 -156(2) . .
C62 C61 O65 C65 -58(3) . .
C62 C61 O65 K1 91(2) . 9_565
C62 C61 O74 C74 -136.1(19) . .
C62 C63 C64 C65 31(4) . .
C62 C63 C64 O64 164(2) . .
C63 C64 C65 C66 -177(2) . .
C63 C64 C65 O65 -53(3) . .
C63 C64 O64 C51 123(2) . .
C64 C65 C66 O66 67(3) . .
C64 C65 O65 C61 70(3) . .
C64 C65 O65 K1 -74(2) . 9_565
C65 C64 O64 C51 -110(3) . .
C65 C66 O66 K1 46(2) . 9_565
C66 C65 O65 C61 -166(2) . .
C66 C65 O65 K1 51(3) . 9_565
C71 C72 C73 C74 -45(2) . .
C71 C72 C73 O73 166.7(17) . .
C71 C72 O72 K2 -163.8(13) . 9_565
C72 C71 O4 C4 -105(2) . .
C72 C71 O75 C75 -72(2) . .
C72 C73 C74 C75 32(4) . .
C72 C73 C74 O74 -169.6(19) . .
C72 C73 O73 K2 -32(3) . 9_565
C73 C72 O72 K2 -60.3(16) . 9_565
C73 C74 C75 C76 -148(2) . .
C73 C74 C75 O75 -26(3) . .
C73 C74 O74 C61 91(3) . .
C74 C73 O73 K2 -176.5(17) . 9_565
C74 C75 C76 O76 54(3) . .
C74 C75 O75 C71 41(2) . .
C75 C74 O74 C61 -108(3) . .
C76 C75 O75 C71 165.0(16) . .
K1 C12 C13 C14 154.4(19) . .
K1 C12 C13 O13 21.7(19) . .
K1 C52 C53 C54 135.3(16) 10_566 .
K1 C52 C53 O53 20.3(14) 10_566 .
K1 C61 C62 C63 79(3) 9_565 .
K1 C61 C62 O62 -118(3) 9_565 .
K1 C61 O65 C65 -148(2) 9_565 .
K1 C61 O74 C74 90(5) 9_565 .
K3 C32 C33 C34 153(2) 8_655 .
K3 C32 C33 O33 15(2) 8_655 .
O2 C2 C3 C4 -167(2) . .
O2 C2 C3 O3 51(3) . .
O3 C3 C4 C5 -168(2) . .
O3 C3 C4 O4 -47(3) . .
O4 C4 C5 C6 72(3) . .
O4 C4 C5 O5 -160(2) . .
O4 C71 C72 C73 -68.0(19) . .
O4 C71 C72 O72 36(2) . .
O4 C71 O75 C75 64(2) . .
O5 C1 C2 C3 49(2) . .
O5 C1 C2 O2 160.8(17) . .
O5 C1 O14 C14 120.7(18) . .
O5 C5 C6 O6 -70(3) . .
O12 C12 C13 C14 -159(2) . .
O12 C12 C13 O13 68(3) . .
O13 C13 C14 C15 172(3) . .
O13 C13 C14 O14 -43(3) . .
O14 C1 C2 C3 -48(2) . .
O14 C1 C2 O2 63(2) . .
O14 C1 O5 C5 67(2) . .
O14 C1 O5 K2 -165.3(11) . .
O14 C14 C15 C16 53(4) . .
O14 C14 C15 O15 167.8(19) . .
O15 C11 C12 C13 60(2) . .
O15 C11 C12 K1 -168(3) . .
O15 C11 C12 O12 173.8(17) . .
O15 C11 O24 C24 108(2) . .
O15 C15 C16 O16 -56(3) . .
O22 C22 C23 C24 -163(2) . .
O22 C22 C23 O23 54(3) . .
O23 C23 C24 C25 173.5(19) . .
O23 C23 C24 O24 -37(3) . .
O24 C11 C12 C13 -68(2) . .
O24 C11 C12 K1 64(5) . .
O24 C11 C12 O12 46(2) . .
O24 C11 O15 C15 55(3) . .
O24 C24 C25 C26 60(3) . .
O24 C24 C25 O25 -180(2) . .
O25 C21 C22 C23 66(3) . .
O25 C21 C22 O22 -174.2(19) . .
O25 C21 O34 C34 118(3) . .
O25 C25 C26 O26 -46(3) . .
O32 C32 C33 C34 -177(2) . .
O32 C32 C33 O33 46(4) . .
O33 C33 C34 C35 169(2) . .
O33 C33 C34 O34 -67(4) . .
O34 C21 C22 C23 -88(2) . .
O34 C21 C22 O22 32(3) . .
O34 C21 O25 C25 74(3) . .
O34 C21 O25 K3 -157.4(16) . .
O34 C34 C35 C36 33(3) . .
O34 C34 C35 O35 -166(2) . .
O35 C31 C32 C33 29(4) . .
O35 C31 C32 K3 -166(3) . 8_655
O35 C31 C32 O32 171(2) . .
O35 C31 O44 C44 140.1(18) . .
O35 C35 C36 O36 -84(3) . .
O42 C42 C43 C44 173(2) . .
O42 C42 C43 O43 57(3) . .
O43 C43 C44 C45 161(2) . .
O43 C43 C44 O44 -66(3) . .
O44 C31 C32 C33 -58(3) . .
O44 C31 C32 K3 107(4) . 8_655
O44 C31 C32 O32 85(3) . .
O44 C31 O35 C35 86(2) . .
O44 C44 C45 C46 42(3) . .
O44 C44 C45 O45 177(2) . .
O45 C41 C42 C43 39(3) . .
O45 C41 C42 O42 -169(2) . .
O45 C41 O54 C54 120.5(17) . .
O45 C45 C46 O46 -76(2) . .
O52 C52 C53 C54 -172.4(18) . .
O52 C52 C53 O53 73(2) . .
O53 C53 C54 C55 -176.8(16) . .
O53 C53 C54 O54 -68(2) . .
O54 C41 C42 C43 -76(2) . .
O54 C41 C42 O42 76(2) . .
O54 C41 O45 C45 69(2) . .
O54 C41 O45 K1 -162.3(11) . 8_655
O54 C54 C55 C56 58(2) . .
O54 C54 C55 O55 -178.2(14) . .
O55 C51 C52 C53 61.3(19) . .
O55 C51 C52 K1 178(2) . 10_566
O55 C51 C52 O52 178.6(15) . .
O55 C51 O64 C64 111(2) . .
O55 C55 C56 O56 -64(2) . .
O62 C62 C63 C64 175(2) . .
O62 C62 C63 O63 39(3) . .
O63 C63 C64 C65 163(2) . .
O63 C63 C64 O64 -64(3) . .
O64 C51 C52 C53 -62.5(19) . .
O64 C51 C52 K1 54(4) . 10_566
O64 C51 C52 O52 55(2) . .
O64 C51 O55 C55 66(2) . .
O64 C64 C65 C66 61(4) . .
O64 C64 C65 O65 -175(2) . .
O65 C61 C62 C63 31(4) . .
O65 C61 C62 O62 -165(3) . .
O65 C61 O74 C74 111(2) . .
O65 C65 C66 O66 -54(2) . .
O72 C72 C73 C74 -155.8(19) . .
O72 C72 C73 O73 56(2) . .
O73 C73 C74 C75 176(2) . .
O73 C73 C74 O74 -25(4) . .
O74 C61 C62 C63 -85(3) . .
O74 C61 C62 O62 78(3) . .
O74 C61 O65 C65 42(3) . .
O74 C61 O65 K1 -169.2(17) . 9_565
O74 C74 C75 C76 53(3) . .
O74 C74 C75 O75 175.4(19) . .
O75 C71 C72 C73 70(2) . .
O75 C71 C72 O72 173.4(18) . .
O75 C71 O4 C4 117.1(19) . .
O75 C75 C76 O76 -66(3) . .
loop_
_refln_index_h
_refln_index_k
_refln_index_l
_refln_F_squared_meas
_refln_F_squared_sigma
_refln_scale_group_code
0 0 -12 15988.9 1235.19 1
0 0 -15 750.208 278.347 1
0 0 -18 17.9899 152.795 1
1 0 -17 314.674 220.442 1
0 -1 -17 121.173 184.525 1
-1 1 -17 626.867 328.843 1
-1 0 14 138.182 94.0555 3
-1 1 -14 21.4408 155.076 1
0 -1 -14 20.3388 181.565 1
-1 1 -11 2149.53 441.584 1
0 -1 -11 2469.8 438.842 1
-1 1 -8 1363.77 293.005 1
-1 1 -5 34505.5 1286.37 1
-1 0 -7 541.14 232.492 1
-1 0 -10 4054.17 552.389 1
-1 0 -13 70.785 111.788 1
0 1 -13 344.988 173.115 1
0 1 -16 209.875 200.961 1
1 -1 -16 -15.7449 124.834 1
-2 1 -6 1306.8 302.393 1
-2 1 -9 813.354 251.527 1
-2 1 -12 305.572 149.546 1
-2 1 -15 -65.4249 246.539 1
1 -2 -15 160.674 137.695 1
1 -2 -18 53.9769 223.69 1
1 1 -18 616.542 361.247 1
-2 1 -18 471.974 393.118 1
-1 2 -6 1656.72 335.987 1
-1 -1 -6 1845.89 331.703 1
-1 2 -9 929.052 307.895 1
-1 -1 -9 752.153 244.889 1
-1 -1 -12 269.479 147.972 1
-1 2 -12 152.038 185.929 1
-1 -1 15 230.812 132.895 3
-1 2 -15 -71.0529 213.327 1
-1 -1 -15 -222.177 256.159 1
-1 -1 -18 698.191 335.274 1
-1 2 -18 242.643 311.166 1
2 -1 -18 299.641 263.216 1
-2 2 -16 353.698 198.504 1
0 -2 -16 544.028 305.596 1
0 -2 -13 79.4215 177.396 1
-2 2 -13 221.51 114.146 1
-2 2 -10 1676.35 385.512 1
0 -2 -10 1994.57 371.206 1
-2 2 -7 4513.67 584.707 1
2 -2 4 2687.47 386.1 1
-2 2 -4 2659.04 360.587 1
2 0 5 2133.2 354.827 1
-2 0 -5 3406.59 423.134 1
0 -2 5 2543.76 285.06 3
2 0 5 2491.87 475.84 2
-2 0 -8 5734.31 603.564 1
0 -2 8 5402.75 425.426 3
0 -2 11 707.209 152.466 3
-2 0 -11 960.364 279.183 1
0 2 -14 454.103 181.03 1
-2 0 -14 235.486 156.788 1
0 -2 14 500.288 168.631 3
-2 0 -17 -47.7707 125.802 1
2 -2 -17 -166.378 238.319 1
0 2 -17 181.84 139.913 1
1 -3 -17 227.625 179.112 1
-3 2 -17 695.954 376.921 1
-3 2 -14 466.13 288.378 1
1 -3 -14 214.949 101.072 1
-3 2 -11 798.557 286.664 1
2 -3 8 47.0285 55.2363 3
-3 2 -8 712.057 282.493 1
1 2 5 363.089 167.585 2
2 -3 5 1108.98 297.594 1
-3 2 -5 852.035 251.216 1
-3 1 -4 428.674 134.057 1
2 1 4 227.043 97.4737 1
-3 1 -4 398.366 185.41 2
2 1 4 540.457 176.982 2
1 -3 4 386.488 103.628 3
1 -3 7 6196.54 486.607 3
2 1 7 5476.9 726.782 2
-3 1 -7 5608.54 658.268 1
-3 1 -10 833.593 266.262 1
1 -3 10 705.295 179.873 3
1 -3 13 408.504 108.256 3
-3 1 -13 21.0269 173.69 1
1 2 -16 125.985 205.586 1
-3 1 -16 599.24 336.911 1
2 2 3 1311.7 237.285 2
2 -4 3 1154.34 214.217 3
2 2 6 5873.67 706.455 2
2 2 6 4645.93 467.261 1
2 -4 6 5495.77 489.33 3
-4 2 -6 6211.79 690.559 1
2 2 9 -182.241 329.724 2
2 -4 9 290.498 114.335 3
-4 2 -9 200.171 147.086 1
-4 2 -12 192.432 114.258 1
2 2 12 655.333 247.15 2
-4 2 -15 255.757 147.203 1
2 2 15 302.734 366.958 2
2 -4 -18 40.2978 176.204 1
-4 2 -18 4.21653 267.7 1
2 2 -18 136.205 156.786 1
-2 3 -17 147.223 192.13 1
3 -2 17 118.152 465.894 2
-2 -1 17 277.861 176.446 3
-1 -2 -17 274.094 228.936 1
-2 3 -14 131.574 211.153 1
-1 -2 -14 122.004 146.454 1
-1 -2 -11 993.345 270.26 1
-2 3 -11 562.816 183.668 1
-2 3 -8 618.452 256.26 1
-1 -2 -8 605.882 216.253 1
-1 -2 -5 870.361 184.905 1
-2 3 -5 961.634 260.056 1
3 -2 5 970.702 299.687 1
3 -2 5 557.562 244.023 2
3 -1 4 335.117 181.172 2
-2 -1 -4 424.923 129.256 1
3 -1 4 428.698 178.037 1
-1 3 -4 439.885 161.877 1
-1 3 -4 442.988 111.388 3
-2 -1 -4 172.365 78.7325 2
3 -1 7 5389.16 650.138 1
-1 3 -7 6923.85 755.648 1
3 -1 7 5299.66 780.299 2
-2 -1 -7 7146.12 671.361 1
3 -1 10 884.588 396.098 2
-1 3 -10 867.917 285.692 1
-2 -1 -10 702.997 226.97 1
-1 -2 13 468.094 220.312 3
-2 -1 -13 313.74 164.094 1
3 -1 13 377.493 371.578 2
-2 -1 -16 504.482 306.545 1
3 -1 16 306.242 364.356 2
-1 -2 16 914.96 284.875 3
-1 3 -16 488.045 288.997 1
3 -3 18 1342.66 864.838 2
-3 0 18 917.556 286.785 3
0 -3 -18 766.603 309.495 1
-3 3 -18 470.737 260.81 1
-3 3 -15 846.348 304.968 1
0 -3 -15 532.513 170.733 1
0 -3 -12 537.144 202.34 1
-3 3 -12 205.913 158.035 1
-3 3 -9 5087.27 681.607 1
0 -3 -9 5961.2 592.698 1
3 -3 6 -60.1077 159.034 1
-3 3 -6 212.173 230.172 1
3 -3 6 387.533 259.088 2
-3 0 -6 17371.6 1035.11 1
3 0 6 18617.5 1316.74 2
0 -3 6 16075.7 804.224 3
3 0 6 16314.7 1042.83 1
-3 0 -9 641.782 204.215 1
3 0 9 852.574 278.691 2
0 -3 9 759.787 147.805 3
-3 0 -12 114.831 147.309 1
3 0 12 553.216 318.606 2
0 -3 12 708.398 181.228 3
0 -3 15 2549.57 412.886 3
3 0 15 3249.45 954.565 2
-3 0 -15 1960.73 466.551 1
0 3 -15 1333.99 334.63 1
3 0 18 1067.96 785.887 2
-3 0 -18 314.854 258.259 1
0 -3 18 578.627 211.85 3
0 3 -18 285.342 171.565 1
1 -4 -16 596.692 229.294 1
-4 3 -16 1004.04 465.193 1
-4 3 -13 462.319 281.131 1
1 -4 -13 320.295 148.809 1
-4 3 -10 1040.54 331.199 1
-4 3 -7 1521.12 373.811 1
1 3 7 863.423 294.385 2
1 3 4 2385.78 273.006 3
3 -4 4 2317.53 423.483 1
1 3 4 2312.9 321.305 2
-4 3 -4 2112.37 415.4 2
-4 3 -4 2341.75 413.708 1
3 -4 4 2342.63 444.036 2
-4 1 -5 8519.55 753.705 1
1 -4 5 7461.49 558.563 3
3 1 5 7163.55 751.901 2
-4 1 -5 7499.15 787.688 2
3 1 5 8079.44 643.966 1
3 1 8 1779.08 446.323 2
3 1 8 1302.7 302.529 1
1 -4 8 1686.93 272.179 3
-4 1 -8 1894.97 370.509 1
3 1 11 400.765 177.269 2
-4 1 -11 90.7363 128.732 1
1 -4 11 263.614 137.266 3
3 1 14 844.167 492.305 2
1 -4 14 414.867 172.298 3
-4 1 -14 327.381 267.038 1
3 1 17 1732.86 797.916 2
-4 1 -17 916.168 340.557 1
1 3 -17 781.586 402.863 1
2 -5 -17 30.8375 169.113 1
2 3 17 283.601 476.823 2
-5 3 -17 271.063 299.732 1
-5 3 -14 516.23 274.363 1
2 3 14 1129.2 508.764 2
2 3 11 -235.513 358.756 2
-5 3 -11 -61.1858 217.66 1
2 3 8 4450.52 672.289 2
-5 3 -8 5316.67 717.092 1
3 -5 8 6079.05 581.961 3
2 3 5 3063.06 330.575 1
-5 3 -5 3825.78 564.509 1
3 -5 5 3929.85 621.312 1
3 -5 5 2826.5 386 3
2 3 5 3066.4 436.529 2
-5 3 -5 3869.15 637.623 2
-5 2 2 1997.17 320.847 1
-5 2 -4 8360.02 849.484 2
2 -5 4 7586.23 605.03 3
-5 2 -4 8640.53 765.766 1
3 2 4 6870.88 524.229 1
3 2 4 6669.06 636.732 2
2 -5 4 6676.12 701.629 1
3 -5 -4 9421.16 511.505 1
-5 2 -7 -38.9169 189.839 1
3 2 7 270.611 146.682 1
3 2 7 331.768 144.93 2
2 -5 7 353.771 165.891 3
-5 2 -7 51.181 219.798 2
-5 2 -10 971.428 321.342 1
3 2 10 551.548 181.428 2
2 -5 10 1283.43 325.161 3
3 2 13 548.593 330.178 2
-5 2 -13 303.274 178.651 1
-5 2 -16 732.839 332.753 1
3 2 16 1559.04 742.411 2
3 3 3 1862.56 296.193 2
3 -6 3 2023.41 345.568 3
-6 3 3 2470.77 395.818 1
3 -6 3 1954.66 377.8 1
3 3 -3 2177.04 279.759 4
-6 3 -3 2289.1 448.706 2
-6 3 -3 2626.29 437.643 1
3 -6 6 10392.4 789.175 3
3 -6 -6 8175.81 499.42 1
-6 3 -6 10011.2 936.45 1
3 -6 6 9847.96 995.675 1
3 3 6 9773.47 899.113 2
-6 3 -6 8801.53 1001.36 2
3 3 6 9228.54 652.48 1
-6 3 -9 2218.13 493.868 1
3 3 9 2565.3 535.809 2
3 -6 9 3360.77 454.983 3
3 3 12 4482.2 861.366 2
3 -6 12 4242.42 568.755 3
-6 3 -12 4264.46 716.73 1
-6 3 -15 355.457 210.696 1
3 3 15 607.845 397.143 2
3 3 18 839.213 623.138 2
-6 3 -18 499.923 262.273 1
3 -6 -18 277.4 133.524 1
4 -2 3 1124 294.656 2
-2 -2 -6 5518.3 515.036 1
4 -2 6 5345.49 683.969 1
-2 4 -6 4952.32 415.431 3
4 -2 6 5884.28 844.819 2
-2 4 -6 4917.01 631.792 1
4 -2 9 183.472 191.198 1
-2 -2 -9 313.973 145.431 1
-2 4 -9 -109.436 182.932 1
4 -2 9 33.2952 184.31 2
-2 4 -12 437.401 214.407 1
-2 -2 -12 679.73 219.406 1
4 -2 12 1187.71 401.304 2
-2 -2 -15 299.345 165.159 1
4 -2 15 313.565 236.314 2
-2 4 15 567.096 202.202 3
-2 -2 15 643.617 245.567 3
-2 4 -15 133.644 208.517 1
-2 4 -18 275.16 259.344 1
4 -2 18 98.6212 322.823 2
-2 -2 18 683.866 257.272 3
-2 -2 -18 226.875 179.468 1
-1 -3 -16 606.174 259.203 1
-3 4 -16 336.241 167.067 1
-1 -3 -13 227.769 131.046 1
-1 4 13 485.812 152.407 3
-3 4 -13 322.398 227.109 1
-3 4 -10 1025.83 278.793 1
-1 4 10 1165.88 200.79 3
-1 -3 -10 1425.3 300.636 1
4 -3 10 1037.88 340.251 2
-1 4 7 917.444 197.817 3
4 -3 7 638.141 273.806 2
-3 4 -7 760.833 295.857 1
4 -3 7 782.147 275.393 1
-1 -3 -7 1049.81 228.212 1
-3 4 -7 932.512 173.282 3
4 -3 4 2184.04 411.81 1
4 -3 4 1965.18 414.84 2
-1 -3 -4 2422.59 273.107 3
-1 4 4 2323.18 315.93 3
-3 4 -4 2304.46 385.119 1
-3 4 -4 2072.34 285.751 3
4 -1 5 8481.21 878.775 2
-1 4 -5 6538.3 648.747 1
-3 -1 -5 8710.44 657.975 1
-1 4 -5 7083.17 516.092 3
4 -1 5 7971.06 732.387 1
-3 -1 -5 7556.08 738.863 2
4 -1 8 1614.85 454.708 2
-3 -1 -8 1439.35 288.963 1
-1 4 -8 1811.67 390.099 1
4 -1 8 1911.73 422.384 1
-3 -1 -11 295.737 140.075 1
-1 -3 11 694.942 252.175 3
4 -1 11 763.035 424.647 2
-1 4 -11 621.866 231.026 1
-1 4 -14 133.897 133.258 1
-3 -1 -14 378.158 238.136 1
-1 -3 14 392.136 225.324 3
-1 -3 17 1097.71 340.038 3
-3 -1 -17 1223.22 459.399 1
-1 4 -17 736.239 270.555 1
4 -1 17 1449.46 598.852 2
-4 4 -17 137.654 200.78 1
0 -4 -17 78.9885 155.265 1
4 -4 17 700.005 645.307 2
-4 4 -14 783.856 255.735 1
0 -4 -14 688.194 262.935 1
4 -4 14 791.247 442.91 2
0 -4 -11 2633.25 446.564 1
4 -4 11 2208.53 617.783 2
0 4 11 1969.5 257.692 3
-4 4 -11 2722.05 562.65 1
-4 4 -8 2652.72 513.333 1
-4 4 -8 2506.6 280.244 3
0 4 8 2121.02 270.705 3
4 -4 8 2705.44 638.105 2
4 -4 8 2360.54 510.956 1
0 -4 -8 3431.97 404.572 1
0 4 5 1609.61 248.733 3
4 -4 5 1714.7 401.54 1
0 -4 -5 2305.26 334.038 3
4 -4 5 1704.84 466.829 2
-4 4 -5 1873.79 395.9 1
-4 0 -4 39452.9 1691.45 2
-4 0 -4 45309.1 1513.04 1
4 -4 -4 48071.5 1343.51 1
4 0 4 39576.9 1509.81 1
4 0 4 39101.1 1726.6 2
0 -4 4 38637.8 1355.08 3
4 0 7 954.075 361.419 2
-4 0 -7 876.558 295.234 2
-4 0 -7 874.3 258.451 1
0 -4 7 665.391 191.446 3
4 0 7 693.194 208.324 1
4 0 10 1083.73 393.273 2
-4 0 -10 564.68 224.677 1
0 -4 10 749.038 178.573 3
-4 0 -13 691.366 331.762 1
0 -4 13 1744.78 380.444 3
0 4 -13 394.06 194.123 1
4 0 13 1558.33 599.21 2
-4 0 -16 -141.858 221.65 1
4 0 16 319.798 295.77 2
0 -4 16 410.358 211.095 3
0 4 -16 453.663 254.223 1
4 -5 18 47.6117 557.909 2
-5 4 -18 733.698 425.018 1
1 4 18 293.398 343.683 2
1 -5 -18 -92.1783 197.78 1
-5 4 -15 320.519 323.954 1
1 -5 -15 169.665 108.511 1
4 -5 15 -107.31 618.653 2
1 4 15 -313.353 439.307 2
1 4 12 631.067 228.474 2
1 -5 -12 733.844 196.815 1
-5 4 -12 929.032 308.548 1
-5 4 -9 467.738 229.46 1
1 4 9 399.607 143.448 2
4 -5 9 -26.2055 275.334 2
-5 4 -9 562.993 142.487 3
1 4 9 661.46 137.066 3
-5 4 -6 1599.83 475.224 2
1 4 6 1384.54 245.54 3
1 4 6 1489.33 361.891 2
4 -5 6 1898.32 493.434 1
-5 4 -6 1947.43 462.143 1
4 -5 6 1612.59 500.194 2
4 -5 3 596.57 190.462 2
1 4 3 433.328 146.807 3
1 -5 -3 544.778 143.616 3
-5 4 -3 647.761 234.17 1
4 -5 3 578.906 216.52 1
-5 4 -3 536.036 215.455 2
-5 1 -3 316.108 113.5 2
4 1 3 324.673 112.096 1
4 -5 -3 482.425 115.326 1
-5 1 -3 196.379 63.3467 1
4 -5 -3 513.907 162.03 4
4 1 3 215.674 69.9518 2
1 -5 3 350.838 109.829 3
-5 4 3 257.063 109.737 1
-5 1 -6 5787.19 696.735 1
4 1 6 4345.96 543.159 1
-5 1 -6 4987.79 750.5 2
1 -5 6 4517.64 496.806 3
4 1 6 4989.26 685.217 2
-5 1 -9 177.553 111.811 1
1 -5 9 343.534 92.8447 3
4 1 9 348.374 160.511 1
-5 1 -12 477.244 154.142 1
4 1 12 1214.09 496.2 2
-5 1 -15 426.592 229.031 1
1 -5 15 531.517 218.91 3
4 1 15 757.353 561.433 2
1 4 -18 -155.776 210.182 1
-5 1 -18 51.6784 299.636 1
1 -5 18 360.145 214.328 3
-6 4 -16 180.882 170.402 1
2 4 16 535.364 386.667 2
2 -6 -16 93.6653 122.42 1
2 4 13 320.146 299.396 2
-6 4 -13 1332.13 506.827 1
-6 4 -10 406.188 118.629 3
-6 4 -10 775.928 336.932 1
2 4 10 404.78 195.093 2
-6 4 -7 8000.78 984.121 2
-6 4 -7 8435.21 925.908 1
4 -6 7 8809.16 1032.41 1
2 4 7 8080.97 844.508 2
4 -6 4 3171.22 518.968 1
-6 4 -4 2873.89 494.728 1
2 4 4 2732.65 339.988 2
-6 4 -4 2778.13 517.884 2
4 -6 4 3202.02 565.43 2
-6 2 1 2254.94 372.76 2
2 -6 -1 2097.18 343.901 3
-6 4 -1 2438.73 392.442 2
-6 2 -2 1350 309.473 2
4 -6 -2 1807.86 270.61 1
-6 4 2 2392.64 361.324 1
2 -6 2 1746.97 320.269 3
4 2 2 1552.72 276.99 2
2 4 -2 2013.73 287.241 4
-6 4 2 2371.66 352.589 2
2 -6 2 1451.94 304.236 1
4 -6 -2 1433.36 301.809 4
-6 2 -2 1139.1 252.532 1
4 2 2 1680.1 252.507 1
4 2 5 34878.6 1363.24 1
4 2 5 36170.8 1703.68 2
-6 2 -5 37992.5 1961.69 2
4 -6 -5 39057.6 1212.12 1
-6 2 -5 38826.5 1753.88 1
2 -6 5 36843 1494.05 3
4 2 8 2554.71 535.315 2
2 -6 8 3190.66 462.107 3
-6 2 -8 3175.64 651.628 2
-6 2 -8 3506.79 574.555 1
4 2 8 3248.17 485.312 1
-6 2 -11 1269.74 381.381 1
4 2 11 1382.67 416.025 2
2 -6 11 1094.47 259.29 3
2 -6 14 425.034 224.68 3
-6 2 -14 -148.132 199.72 1
4 2 14 -137.698 244.297 2
-6 2 -17 249.029 286.461 1
4 2 17 917.924 553.274 2
-7 4 -17 832.106 470.099 1
3 4 17 107.023 499.317 2
3 -7 -17 209.941 182.056 1
-7 4 -14 274.833 180.277 1
3 4 14 399.086 192.727 2
3 4 11 179.28 232.552 2
-7 4 -11 134.024 179.489 1
-7 4 -11 351.665 100.462 3
-7 4 -8 347.933 214.568 2
-7 4 -8 988.705 327.882 1
3 4 8 384.976 150.672 1
3 4 8 418.783 239.06 2
3 4 5 9262.89 777.806 2
3 4 5 8826.68 570.462 1
-7 4 -5 10463.6 1091.32 2
4 -7 5 9729.67 1056.92 2
3 -7 -5 9995.59 535.905 1
-7 4 -5 9312.88 945.951 1
4 -7 5 9976.4 1029.82 1
4 -7 2 3118.22 482.042 1
-7 3 2 3730.44 500.445 1
3 -7 -2 3446.58 367.76 1
4 3 -2 3618.23 405.559 4
4 -7 2 2863.4 438.84 2
-7 4 -2 3476.59 510.817 1
-7 3 2 3258.05 477.801 2
-7 4 -2 4115.18 586.063 2
3 4 2 2993.71 302.639 1
3 4 2 2922.4 337.12 2
3 -7 -2 3295.44 533.92 4
3 -7 1 775.219 209.367 2
3 4 -1 443.225 163.716 4
3 -7 1 540.873 188.618 4
4 -7 -1 909.109 175.517 2
3 -7 1 784.441 246.306 3
4 3 1 567.36 162.565 2
-7 4 1 502.246 183.449 1
3 -7 1 969.035 259.099 1
4 -7 -1 798.019 182.011 1
-7 3 -1 609.546 193.457 1
-7 4 1 652.717 205.512 2
4 3 1 777.835 184.546 1
4 -7 -1 583.013 186.387 4
-7 3 -1 722.251 242.829 2
4 -7 -4 3521.08 367.027 1
3 -7 4 1677.41 402.366 1
4 3 4 1530.21 258.796 1
-7 4 4 2234.49 432.252 1
-7 3 -4 2317.44 526.942 2
-7 3 -4 2613.55 491.271 1
4 3 4 1803.83 356.046 2
3 -7 4 1548.03 340.993 3
4 3 7 1928.18 449.256 2
-7 3 -7 3024.74 597.787 1
4 3 7 2123.92 348.931 1
3 -7 7 2008.41 386.73 3
4 -7 -7 2461.45 320.74 1
-7 3 -7 2072.75 512.906 2
4 3 10 1421.57 413.784 2
-7 3 -10 1623.83 510.031 1
4 3 10 1266.36 313.415 1
3 -7 13 895.31 173.487 3
-7 3 -13 596.902 267.555 1
4 3 13 618.212 391.549 2
4 3 16 940.021 604.458 2
-7 3 -16 351.879 231.525 1
4 -8 0 66927.1 2094.38 1
4 -8 0 65294.4 2312.84 4
-8 4 0 71625.6 2310.76 1
4 -8 0 68651.4 1934.48 2
-8 4 0 70378.8 2347.81 2
4 4 -3 3615.66 428.058 4
-8 4 -3 4303.63 617.675 1
4 4 3 3254.76 364.784 1
4 -8 3 3242.14 541.634 2
-8 4 3 3512.53 553.317 2
-8 4 3 3983.37 593.261 1
4 -8 3 3557.69 516.188 3
4 -8 -3 3573.37 607.947 4
-8 4 -3 5174.41 728.732 2
4 -8 -3 4471.73 433.03 1
4 4 3 3744.9 460.091 2
4 -8 3 3349.46 562.367 1
4 4 6 761.561 229.017 2
4 -8 6 1426.82 430.457 1
4 4 6 1235.37 234.586 1
-8 4 -6 1458.5 398.142 1
-8 4 -6 1981.8 505.749 2
4 -8 -6 1559.18 241.656 1
4 -8 6 1628.36 332.831 3
4 -8 -9 5655.13 514.867 1
4 -8 9 6158.43 732.515 3
-8 4 -9 5647.95 867.821 1
4 4 9 4301.26 539.325 1
-8 4 -9 5011.82 901.684 2
4 4 9 5061.51 789.933 2
4 4 12 186.504 267.716 2
-8 4 -12 320.496 198.374 1
4 4 15 238.351 292.864 2
-8 4 -15 346.813 214.633 1
-2 -3 -17 608.091 296.03 1
5 -3 17 -216.194 315.317 2
-2 5 17 257.87 111.276 3
-3 5 -17 189.318 204.307 1
-3 -2 17 518.879 309.434 3
5 -3 14 940.389 552.951 2
-2 5 14 654.218 204.781 3
-3 5 -14 548.622 187.687 1
-2 -3 -14 505.523 205.291 1
-3 5 -11 144.467 142.103 1
-2 -3 -11 465.814 210.634 1
-2 -3 -8 4026.6 337.471 3
-2 -3 -8 5531.13 557.456 1
5 -3 8 5246.49 838.655 2
-3 5 -8 5089.91 452.793 3
-3 5 -8 4763.56 689.688 1
5 -3 8 5158.45 764.501 1
5 -3 5 3259.3 625.112 2
-2 -3 -5 3311.09 332.081 3
-3 5 -5 3014.89 493.246 1
5 -3 5 3090.51 547.159 1
-3 5 -5 2665.42 338.622 3
-2 -3 -5 3738.62 355.479 1
-2 -3 -5 2989.12 420.142 2
-3 -2 2 1939.71 270.153 4
-3 -2 -4 7202 502.705 1
-3 -2 -4 8175.64 706.856 2
5 -2 4 8596.5 800.7 1
-2 5 -4 7946.83 713.306 1
-2 5 -4 8193.61 592.444 3
5 -2 4 7908.31 848.345 2
5 -3 -4 9176.9 676.128 1
5 -2 7 31.4585 123.348 1
-2 5 -7 681.894 233.692 1
5 -2 7 148.274 273.62 2
-3 -2 -7 533.771 176.56 1
-2 5 -7 249.931 89.7353 3
5 -2 10 828.778 374.654 1
-3 -2 -10 557.695 204.087 1
-2 5 -10 348.062 156.719 1
5 -2 10 -16.781 305.034 2
-2 5 -13 185.802 150.141 1
-3 -2 -13 284.589 130.974 1
5 -2 16 809.215 530.234 2
-2 -3 16 825.56 317.636 3
-2 5 -16 239.081 207.937 1
-3 -2 -16 538.026 269.355 1
-1 -4 -18 -35.2983 240.556 1
-4 5 -18 -94.2132 266.813 1
5 -4 18 79.4386 647.682 2
-1 -4 -15 -42.6238 150.909 1
5 -4 15 6.19265 370.638 2
-1 5 15 75.446 67.9317 3
-4 5 -15 70.7221 233.262 1
-4 5 -12 873.747 315.624 1
-1 -4 -12 1063.74 270.461 1
-1 5 12 875.942 197.604 3
-1 -4 -9 368.307 144.809 1
-1 5 9 667.905 142.035 3
-4 5 -9 536.117 150.174 3
5 -4 9 682.815 345.342 2
-4 5 -9 780.444 244.495 1
5 -4 9 723.943 250.277 1
5 -4 6 1792.16 477.879 1
-4 5 -6 1557.34 281.771 3
-4 5 -6 1647.88 396.958 1
-1 -4 -6 2287.27 294.966 1
-1 -4 -6 2198.02 306.541 3
-1 5 6 1497.24 281.714 3
5 -4 6 1607.9 504.953 2
-1 -4 -3 688.827 171.545 3
-4 5 -3 782.865 236.69 1
5 -4 3 530.103 232.539 2
-4 5 -3 725.049 231.241 2
5 -1 -3 618.62 176.917 1
-1 5 3 750.431 192.985 3
5 -4 3 645.607 238.408 1
5 -4 -3 516.354 150.403 1
-4 -1 -3 396.184 122.268 1
-4 5 3 464.818 144.345 4
-4 -1 -3 326.446 160.829 2
-1 5 -3 482.916 144.954 3
-1 -4 3 443.982 131.379 4
-4 5 3 343.243 104.202 1
-1 5 -3 358.678 124.379 1
5 -1 3 191.687 137.9 2
-1 -4 3 369.371 136.668 3
5 -1 3 375.453 144.444 1
5 -1 6 5192.71 658.925 1
5 -1 6 5624.94 812.193 2
-4 -1 -6 5393.25 580.842 1
-1 5 -6 4537 472.002 3
-4 -1 -6 4571.2 648.768 2
-1 -4 6 4865.22 547.22 3
-1 5 -9 682.231 256.584 1
5 -1 9 729.323 271.848 1
5 -1 9 220.563 256.566 2
-1 -4 9 678.46 169.441 3
-4 -1 -9 331.812 105.362 1
5 -1 12 1962.99 651.035 2
-4 -1 -12 1128.16 307.028 1
-1 5 -12 1051.96 284.998 1
-1 -4 12 1375.02 315.637 3
-1 5 -15 -272.08 341.862 1
5 -1 15 690.806 464.609 2
-4 -1 -15 512.642 193.294 1
-1 -4 15 524.348 250.879 3
-1 5 -18 303.1 301.903 1
-1 -4 18 46.3188 129.036 3
5 -1 18 -41.0024 513.239 2
-4 -1 -18 247.708 183.283 1
0 -5 -16 577.048 290.283 1
5 -5 16 612.765 617.173 2
-5 5 -16 797.418 380.177 1
0 5 13 708.098 177.051 3
-5 5 -13 353.211 143.151 1
0 -5 -13 772.53 202.709 1
-5 5 -10 88.4688 74.0373 3
0 -5 -10 145.965 98.5991 1
-5 5 -10 -279.425 311.243 1
0 5 10 187.683 104.793 3
5 -5 10 118.679 179.249 1
5 -5 10 5.39163 328.909 2
0 -5 -7 16594.6 727.51 1
-5 5 -7 16859 866.432 3
5 -5 7 17522.4 1466.19 1
0 5 7 15490.3 849.541 3
5 -5 7 17267 1573.55 2
-5 5 -7 16341.6 1287.19 1
-5 5 -4 18032.4 1263.23 2
5 -5 4 17385.1 1308.92 2
0 5 4 15531.4 852.463 3
-5 5 -4 17845.5 1191.13 1
0 -5 -4 16080.1 844.305 3
5 -5 4 19524 1324.94 1
5 0 2 19361.2 974.515 1
-5 5 2 27619 962.863 4
0 5 -2 24967.1 1081.3 4
-5 0 -2 19747.8 1105.56 2
5 0 2 20025.4 1120.76 2
0 5 -2 27184.2 1153.88 3
-5 5 2 28567.1 1152.31 1
0 -5 2 22077.8 1150.95 4
-5 0 -2 20980 987.211 1
0 -5 2 23724.2 1130.59 3
-5 5 2 28860.4 1094.64 2
5 -5 -5 2425.22 356.695 1
0 -5 5 1536.7 299.943 3
5 0 5 1302.14 283.835 1
5 0 5 1389.05 371.325 2
-5 0 -5 1349.98 395.57 2
-5 0 -5 1859.11 372.054 1
-5 0 -8 2433.03 461.182 1
0 -5 8 1924.33 328.843 3
5 0 8 1697.53 336.31 1
5 0 8 1865.48 439.999 2
-5 0 -8 1779.4 443.37 2
5 0 11 2808.15 723.027 2
5 0 11 2437.51 552.959 1
0 -5 11 2181.38 407.216 3
-5 0 -11 1315.17 320.498 1
5 0 14 894.764 551.242 2
0 5 -14 485.757 274.228 1
0 -5 14 479.162 217.832 3
-5 0 -14 122.695 170.762 1
5 0 17 1297.06 610.956 2
-5 0 -17 382.178 228.488 1
0 5 -17 540.55 345.394 1
0 -5 17 408.768 199.402 3
-6 5 -17 188.46 163.723 1
1 -6 -17 -0.7209 136.595 1
1 -6 -14 383.733 182.067 1
1 5 14 84.8731 254.457 2
-6 5 -14 368.048 324.095 1
5 -6 14 189.641 471.845 2
1 5 11 2008.67 298.845 3
-6 5 -11 1937.04 261.196 3
1 -6 -11 2354.53 360.6 1
5 -6 11 2366.75 625.047 2
-6 5 -11 2007.86 507.549 1
1 5 11 2778.34 609.977 2
5 -6 8 1174.35 420.409 1
-6 5 -8 721.361 237.294 1
5 -6 8 914.985 290.999 2
1 5 8 334.594 207.083 2
1 5 8 344.37 87.413 3
1 5 5 6068.16 545.255 2
5 -6 5 5348.71 741.809 1
-6 5 -5 6216.33 812.341 2
5 -6 5 6155.66 849.397 2
-6 5 -5 6576.04 799.955 1
1 5 5 4967.3 504.832 3
-6 1 2 421.747 156.054 1
5 -6 2 129.035 81.7995 1
5 -6 2 671.369 255.623 2
-6 5 -2 469.917 172.813 2
1 5 2 345.467 118.892 3
-6 5 -2 634.201 219.952 1
1 -6 -2 623.399 183.705 3
5 1 1 33123.7 1341.33 2
1 -6 1 33219 1478.21 4
-6 1 -1 32332.9 1473.42 2
5 1 1 33207.2 1239.95 1
1 5 -1 36741 1405.29 4
5 -6 -1 36088.6 1391.31 4
-6 1 -1 33592.6 1357.29 1
-6 5 1 34222.9 1390.42 2
-6 5 1 33627 1390.94 1
5 -6 -1 34061.9 1309.79 1
1 -6 1 34111.3 1397 3
-6 5 4 5658.97 477.117 4
1 -6 4 4385.7 531.031 3
5 1 4 3213.68 434.583 1
5 -6 -4 5818.51 541.805 1
-6 1 -4 4011.41 634.865 2
-6 5 4 5135.88 553.713 1
-6 1 -4 3711.88 507.897 1
5 1 4 3597.11 533.563 2
-6 1 -7 1933.29 467.992 2
5 1 7 1802.04 428.554 2
5 -6 -7 1595.48 278.557 1
1 -6 7 1613.63 341.302 3
-6 1 -7 1567.14 361.841 1
5 1 7 2206.1 441.564 1
-6 1 -10 2107.4 492.783 1
1 -6 10 2638.92 470.761 3
5 1 10 2449.49 492.488 1
5 1 10 2065.88 624.024 2
-6 1 -13 590.268 298.748 1
1 -6 13 692.632 291.228 3
5 1 16 396.849 334.715 2
1 5 -16 213.323 134.755 1
-6 1 -16 106.591 186.679 1
1 -6 16 588.908 307.968 3
-7 5 -18 445.803 375.681 1
2 -7 -18 146.135 208.374 1
2 5 18 428.053 567.564 2
5 -7 15 -22.5878 309.745 2
2 5 15 228.901 343.354 2
-7 5 -15 10.4902 215.724 1
2 -7 -15 -167.147 169.532 1
5 -7 12 412.329 291.237 2
2 5 12 121.172 213.044 2
-7 5 -12 348.043 192.684 1
-7 5 -12 243.709 73.1257 3
5 -7 9 5597.44 951.343 1
2 5 9 5018.87 706.923 2
5 -7 9 7230.89 1158.67 2
-7 5 -9 5185.07 815.272 1
2 5 6 795.079 196.081 2
-7 5 -6 1540.42 435.476 1
-7 5 -6 1565.35 426.555 2
5 -7 6 1148.73 400.02 1
5 -7 6 1210.48 505.838 2
-7 2 3 11544.6 875.974 1
5 -7 3 9754.37 976.191 1
2 -7 -3 10928.2 857.665 3
2 5 3 10721.7 594.424 2
-7 5 -3 8086.6 829.983 1
5 2 -3 9779.39 573.138 4
5 -7 3 10141.1 1006.26 2
-7 5 -3 9543.64 946.562 2
2 -7 0 407.803 188.196 4
5 -7 0 285.522 157.978 2
5 -7 0 159.093 139.077 1
2 -7 0 -19.7681 79.3036 3
-7 2 0 445.627 205.521 2
2 -7 0 263.546 125.859 1
-7 5 0 171.104 156.857 2
5 2 0 187.397 80.5878 1
-7 2 0 275.413 164.394 1
-7 5 0 176.19 156.386 1
2 5 0 133.579 77.8903 4
5 -7 0 23.0285 116.751 4
-7 5 3 3369.12 447.964 1
-7 2 -3 2872.28 453.433 1
5 2 3 3738.72 500.193 2
2 5 -3 2778.43 383.452 4
-7 2 -3 3167.05 539.68 2
5 -7 -3 3647.64 518.027 4
2 -7 3 3253.25 462.713 3
5 2 3 2931.78 380.879 1
5 -7 -3 3851.43 410.545 1
-7 5 3 3084.92 432.271 2
2 -7 6 5761.54 652.878 3
-7 2 -6 6519.97 863.321 2
5 2 6 6052.41 640.801 1
5 -7 -6 6249.13 541.564 1
5 2 6 5432.41 713.983 2
-7 2 -6 6197.13 736.671 1
2 -7 9 1115.74 309.038 3
5 2 9 968.776 262.854 1
-7 2 -9 1021.25 396.102 2
-7 2 -9 1108.42 335.756 1
5 2 9 488.487 273.353 2
2 -7 12 -197.379 256.069 3
5 2 12 185.927 167.269 2
-7 2 -12 140.772 240.511 1
2 -7 15 1378.03 379.478 3
-7 2 -15 1207.98 488.949 1
5 2 15 1208.38 531.243 2
5 2 18 606.362 720.067 2
-7 2 -18 531.827 367.677 1
2 5 -18 454.986 398.112 1
3 5 16 1231.19 567.849 2
5 -8 16 1079.59 643.823 2
-8 5 -16 830.329 384.494 1
-8 5 -13 204.066 256.396 1
5 -8 13 832.733 465.345 2
-8 5 -13 293.384 112.517 3
3 5 13 -11.2763 364.738 2
3 5 10 45.1909 254.737 2
-8 5 -10 535.344 262.986 1
5 -8 7 3287.7 696.707 2
3 5 7 3551.47 550.25 2
-8 5 -7 3792.26 660.542 1
5 -8 7 4434.61 761.622 1
3 -8 -7 2835.73 304.886 1
3 5 7 2971.9 354.12 1
-8 5 -7 3387.92 722.049 2
3 5 4 2992.82 403.75 2
-8 5 -4 2258.8 541.275 2
5 -8 4 2454.56 563.986 2
-8 5 -4 2763.41 559.296 1
5 -8 4 2932.18 611.89 1
5 3 -4 2482.17 339.103 4
-8 3 4 3335.9 507.729 1
3 -8 -1 9651.31 703.785 1
-8 5 -1 10832.9 914.753 1
-8 3 1 12197.3 950.386 1
-8 3 1 11166 959.09 2
-8 5 -1 10744.8 933.271 2
3 -8 -1 9300.27 579.291 2
5 -8 1 9538.21 863.477 1
3 -8 -1 9524.08 850.39 3
5 -8 1 9744.98 851.621 2
3 -8 -1 9975.61 941.153 4
-8 5 2 2269.53 423.943 2
-8 5 2 2039.09 390.941 1
3 -8 2 2310.24 435.202 1
5 3 2 2378.78 348.757 1
-8 3 -2 1858.27 405.787 2
3 -8 2 1995.08 392.566 3
-8 3 -2 2405.77 431.663 1
5 3 2 2001.49 339.995 2
5 -8 -2 2784.78 513.045 4
5 -8 -2 2487.22 317.632 2
3 -8 2 2238.38 430.539 4
3 5 -2 2812.75 417.329 4
5 -8 -2 2753.32 379.618 1
-8 3 -5 4695.59 770.492 2
-8 3 -5 5955.74 762.226 1
3 -8 5 4402.08 598.852 3
5 3 5 4316.47 489.533 1
-8 5 5 6965.63 764.187 1
5 3 5 4424.1 632.85 2
5 -8 -5 6960.79 580.546 1
-8 3 -8 1427.22 432.251 1
5 3 8 648.6 189.101 1
3 -8 8 1003.86 300.928 3
5 3 8 926.263 317.2 2
5 -8 -8 1461.61 277.148 1
-8 3 -8 1051.44 405.908 2
5 3 11 357.114 354.681 2
5 3 11 -172.744 219.31 1
-8 3 -11 342.306 271.73 1
3 -8 14 290.548 216.131 3
5 3 14 466.9 321.866 2
-8 3 -14 664.959 375.818 1
5 3 17 1070.15 707.059 2
-8 3 -17 -40.4129 291.633 1
5 -9 17 105.064 507.478 2
-9 5 -17 55.1127 322.426 1
4 5 17 258.791 389.034 2
-9 5 -14 810.016 174.534 3
4 5 14 1197.63 434.48 2
-9 5 -14 1159.42 372.83 1
-9 5 -11 904.023 307.213 1
4 5 11 151.482 148.423 2
4 -9 -8 248.44 125.575 1
4 5 8 -310.827 250.618 2
-9 5 -8 115.343 286.754 1
4 5 8 -52.2807 115.751 1
-9 5 -8 -198.255 341.507 2
5 -9 8 389.726 317.855 1
5 -9 8 -4.04673 162.288 2
5 -9 5 1889.52 516.361 1
4 5 5 1919.31 387.055 2
4 -9 -5 2620.29 312.77 1
4 5 5 1771.92 294.587 1
-9 5 -5 2096.56 508.931 1
5 -9 5 2658.69 617.002 2
-9 5 -5 2064.9 544.022 2
-9 4 2 5372.97 699.721 2
4 -9 -2 5705.42 547.916 1
-9 5 -2 5945.22 745.394 1
-9 4 2 4942.84 671.126 1
5 -9 2 5768.38 739.833 1
4 5 2 4881.83 463.869 1
4 -9 -2 5123.53 774.824 4
4 5 2 5024.18 509.072 2
5 -9 2 5537.04 701.133 2
5 4 -2 6024 616.042 4
-9 5 -2 5881.25 769.541 2
5 -9 -1 4767.43 552.886 1
-9 5 1 6148.89 766.937 1
-9 5 1 5965.4 748.771 2
4 -9 1 4800.71 608.783 1
4 -9 1 4790.61 697.047 4
5 4 1 6700.65 605.029 1
5 -9 -1 4909.26 662.302 4
-9 4 -1 6720.06 819.104 2
4 -9 1 5127.06 612.006 2
5 -9 -1 5064.31 498.866 2
4 -9 1 4912.39 684.029 3
-9 4 -1 6351.16 731.957 1
4 5 -1 6884.08 735.156 4
5 4 4 2170.67 431.465 2
-9 4 -4 2822.38 596.737 2
4 -9 4 2272.33 455.283 3
5 4 4 2119.79 335.163 1
5 -9 -4 2774.24 380.699 1
4 5 -4 2736.74 436.01 4
5 -9 -4 2922.81 578.959 4
-9 5 4 2413.55 483.208 2
4 -9 4 1519.8 456.812 1
-9 4 -4 2328.6 530.433 1
-9 5 4 2707.74 505.92 1
5 4 7 646.864 163.815 2
5 -9 -7 1267.44 263.344 1
-9 4 -7 856.906 331.992 1
-9 4 -7 993.07 367.883 2
-9 5 7 667.771 167.686 4
4 -9 7 718.51 272.618 3
5 4 7 976.357 254.434 1
-9 4 -10 5420.37 877.553 1
-9 4 -10 4761.17 901.767 2
5 4 10 3992.12 571.657 1
5 4 10 4362.67 777.887 2
5 -9 -10 4034.27 472.719 1
4 -9 10 5871.95 796.644 3
-9 4 -13 1231.97 464.284 1
5 4 13 611.549 345.533 2
-9 4 -16 -103.205 264.987 1
5 4 16 414.586 282.329 2
5 -10 0 3510.23 481.047 2
5 -10 0 3756.65 547.883 1
5 -10 0 3124.42 588.747 4
-10 5 0 3671.96 603.356 2
-10 5 0 3765.15 582.861 1
-10 5 -3 5157.14 715.866 1
5 -10 -3 4742.36 408.44 2
-10 5 3 3844.36 610.29 2
-10 5 -3 5712.89 825.549 2
5 -10 -3 4872.47 780.288 4
5 -10 3 4278.78 678.529 1
5 -10 3 4289.15 676.517 2
5 5 3 4460.56 529.387 2
-10 5 3 5144.66 713.421 1
5 5 3 4379.02 483.588 1
5 -10 -3 4196.35 488.475 1
5 5 -3 4451.13 539.599 4
5 -10 6 1474.74 376.389 3
5 5 6 1649.91 386.52 2
5 5 6 1455.57 272.136 1
-10 5 -6 1899.77 539.9 2
-10 5 -6 1598.38 453.991 1
5 -10 -6 2232.6 318.29 1
5 -10 6 2207.43 613.526 2
5 -10 6 1212.31 406.724 1
-10 5 -9 1511.09 523.821 2
5 -10 -9 1499.5 287.467 1
5 5 9 530.552 265.138 2
5 5 9 526.551 186.139 1
-10 5 -9 1031.43 374.899 1
5 5 12 634.659 393.073 2
-10 5 -12 530.22 220.367 1
5 -10 -12 799.118 204.068 1
5 5 15 91.9521 290.499 2
-10 5 -15 82.3212 73.4662 3
-10 5 -15 3.26304 277.878 1
-3 6 0 2963.91 380.383 4
-3 6 0 1880.51 263.125 2
-3 6 3 2285.93 431.43 4
-3 6 -3 1975.55 347.996 1
-3 -3 3 1887.22 305.221 4
6 -3 -3 2817.16 411.522 1
-3 -3 -3 1811.84 307.989 2
6 -3 3 1958.24 401.182 1
-3 6 -3 1938.97 325.034 3
6 -3 3 1764.05 458.217 2
-3 6 -6 8576.92 867.506 1
6 -3 6 9756.05 1025.31 1
-3 6 -6 9062.56 666.391 3
-3 -3 -6 9420.28 637.35 1
-3 -3 -6 9616.31 829.055 2
-3 -3 -6 9267.06 586.451 3
6 -3 6 10154.4 1128.5 2
-3 6 -9 2253.51 341.305 3
-3 -3 -9 3113.87 464.962 1
-3 6 -9 2117.5 461.988 1
6 -3 9 3261.97 631.628 1
6 -3 9 2888.61 639.576 2
-3 -3 -9 2488.68 273.153 3
-3 -3 -12 3509.13 571.714 1
-3 6 -12 2884.43 603.056 1
6 -3 12 3630.93 841.085 2
6 -3 12 3753.83 731.005 1
6 -3 15 -317.825 486.516 2
-3 6 15 416.078 200.657 3
-3 -3 -15 280.135 167.65 1
-3 6 -15 -75.2425 231.923 1
-3 -3 -18 61.3959 205.403 1
-3 -3 18 253.31 274.006 3
-3 6 -18 273.556 274.394 1
-3 6 18 -6.29319 92.0522 3
-2 6 16 186.731 109.901 3
6 -4 16 -252.144 323.05 2
-4 6 -16 226.79 242.742 1
-2 -4 -16 -109.525 133.619 1
6 -4 13 731.066 291.144 2
-2 6 13 347.616 130.832 3
-4 6 -13 607.572 273.893 1
-2 -4 -13 54.6415 183.47 1
-2 6 10 532.629 108.815 3
6 -4 10 911.184 442.262 2
-2 -4 -10 796.981 236.214 1
-4 6 -10 650.461 180.518 3
6 -4 10 885.098 346.653 1
-4 6 -10 1227.31 424.658 1
6 -4 7 8263.78 1002.27 1
-4 6 -7 8384.98 639.316 3
-2 -4 -7 6879.63 506.704 3
6 -4 7 9356.45 1135.81 2
-2 -4 -7 9174.13 637.518 1
-2 6 7 8958.79 741.947 3
-4 6 -7 8246.67 910.195 1
6 -4 4 2589.12 505.388 2
-2 6 4 3307.8 428.814 3
-2 -4 -4 2787.31 360.491 2
-4 6 -4 3106.02 407.854 3
-2 -4 -4 2631.72 350.698 3
6 -2 -4 2381.95 377 1
-4 -2 4 2308.35 283.495 4
6 -4 4 2986.86 518.361 1
-4 6 -4 2865.88 460.241 1
-4 6 -1 1969.56 340.615 2
-2 6 1 2136.79 358.452 4
-4 6 -1 2066.46 361.514 1
-2 6 1 2192.86 281.696 1
-2 -4 -1 2170.74 334.404 3
-2 6 1 2246.91 354.581 3
-4 -2 -2 1634.06 307.17 2
-2 6 -2 1950.18 331.714 3
6 -2 2 1655.56 338.56 1
-2 6 -2 2224.21 346.26 1
6 -2 2 1520.87 326.725 2
-2 -4 2 1578.29 292.641 4
-4 6 2 2030.96 286.917 1
6 -4 -2 2011.81 347.105 1
6 -4 -2 1916.85 334.103 2
-4 6 2 1778.93 294.56 4
-4 -2 -2 1655.45 237.689 1
-2 6 -5 38966.8 1416.96 3
6 -2 5 36812.5 1846.49 1
6 -2 5 39668 2094.82 2
-4 -2 -5 34291.8 1615.31 2
6 -4 -5 38834.5 1491.63 1
-2 6 -5 36836.8 1691.71 1
-4 -2 -5 32766 1231.28 1
6 -2 8 2644.56 593.201 2
-2 6 -8 3881.54 629.122 1
6 -2 8 2598.88 556.185 1
-4 -2 -8 2857.88 459.266 1
-4 -2 -8 2352.92 277.767 3
-2 6 -8 3395.82 444.919 3
6 -2 11 1608.73 595.018 2
-2 6 -11 900.132 323.3 1
-4 -2 -11 737.187 185.709 1
6 -2 11 1392.06 451.525 1
-2 -4 14 -73.215 149.338 3
-4 -2 -14 106.241 132.008 1
6 -2 14 351.213 291.47 2
-2 6 -14 45.9411 116.392 1
-4 -2 -17 146.359 172.657 1
-2 -4 17 342.627 226.624 3
-2 6 -17 565.649 399.307 1
6 -2 17 -94.5508 293.073 2
-5 6 -17 -111.181 235.112 1
6 -5 17 -89.8584 479.7 2
-1 -5 -17 -248.254 247.662 1
6 -5 14 4.75366 275.849 2
-1 6 14 55.2719 101.563 3
-5 6 -14 270.255 182.442 1
-1 -5 -14 233.469 152.175 1
-1 -5 -11 2639.49 426.228 1
-5 6 -11 1974.19 290.677 3
6 -5 11 2592.01 778.726 2
6 -5 11 2807.48 656.862 1
-5 6 -11 2218.54 503.922 1
-1 6 11 2236.3 336.054 3
-1 6 8 482.299 125.053 3
-1 -5 -8 581.963 153.836 1
6 -5 8 889.713 346.99 1
6 -5 8 -174.153 294.43 2
-5 6 -8 106.916 228.371 1
-5 6 -8 452.028 131.665 3
-1 6 5 5705.22 562.87 3
6 -5 5 5825.5 903.16 2
-5 6 -5 5772.18 729.266 1
-1 -5 -5 4865.85 488.872 3
6 -5 5 5854.63 781.408 1
6 -5 2 700.01 319.213 2
6 -5 2 160.315 116.559 1
6 -1 -2 661.136 199.141 1
-1 6 2 413.744 189.007 4
-5 6 -2 392.503 159.187 1
-1 -5 -2 514.088 164.02 3
-1 6 2 488.478 158.713 3
-5 6 -2 560.036 190.801 2
6 -1 1 32655.2 1376.25 1
-5 -1 -1 31383.9 1328.76 2
6 -5 -1 31492.6 1321.65 2
-1 6 -1 38585.4 1413.54 4
-5 6 1 33976.8 1311.87 1
6 -5 -1 34412.8 1418.22 1
-1 6 -1 35649.9 1376.9 3
-1 6 -1 35838.1 1270.71 1
-5 6 1 32531.8 1201.19 2
-5 -1 -1 32150.9 1197.01 1
6 -1 1 30579.4 1401.79 2
-1 -5 1 34677.6 1503.58 4
-5 6 1 33281.4 1201.7 4
-1 -5 1 31982.4 1377.79 3
-1 6 -4 5865.11 557.245 3
6 -5 -4 5149.08 556.123 1
6 -1 4 3338.6 518.11 1
6 -1 4 3369.03 616.789 2
-5 -1 -4 3214.95 493.884 2
-5 6 4 5701.34 613.61 4
-5 6 4 5122.03 495.755 1
-1 -5 4 3723.42 488.946 3
-5 -1 -4 3567.27 432.041 1
6 -1 7 1737.14 381.708 1
-5 -1 -7 2068.03 481.588 2
-5 -1 -7 1926.78 379.334 1
6 -5 -7 1726.64 325.51 1
6 -1 7 1559.7 401.607 2
-1 -5 7 1628.87 334.32 3
6 -1 10 2140.4 517.073 1
-1 -5 10 2877.59 488.061 3
6 -1 10 2590.86 646.425 2
-1 6 -10 1704.26 428.209 1
-5 -1 -10 2732.47 502.108 1
-5 -1 -13 523.194 275.24 1
6 -1 13 -71.3985 292.397 2
-1 -5 16 555.264 299.829 3
6 -1 16 720.742 454.96 2
-5 -1 -16 180.516 169.905 1
-1 6 -16 149.07 204.057 1
0 6 18 -463.41 558.122 2
6 -6 18 637.787 427.222 2
-6 6 -18 709.095 370.819 1
0 -6 -18 -284.218 257.628 1
0 -6 -15 130.144 159.546 1
6 -6 15 904.395 441.692 2
0 6 15 1280.21 595.237 2
-6 6 -15 718.696 302.246 1
-6 6 -12 482.086 149.659 1
-6 6 -12 173.821 59.06 3
0 -6 -12 183.352 120.984 1
0 6 12 218.852 83.3307 3
0 -6 -9 1525.65 264.598 1
-6 6 -9 943.629 228.354 3
-6 6 -9 1397.19 479.633 1
0 6 9 1190.45 264.258 3
0 6 9 1001.67 337.826 2
-6 6 -6 1125.42 437.027 1
0 6 6 894.044 280.241 3
0 -6 -6 1513.17 345.504 3
6 -6 6 997.005 534.857 2
6 -6 6 1036.3 382.324 1
-6 6 -6 681.828 277.114 2
0 6 6 696.049 247.988 2
-6 6 -3 139345 3535.38 2
6 0 -3 142065 2921.44 1
0 -6 -3 138122 2757.5 3
-6 6 -3 135866 3422.82 1
0 6 3 136781 2764.66 3
6 -6 3 131178 3617.19 2
6 -6 3 132077 3543.35 1
0 6 0 1086.87 301.157 4
-6 6 0 410.737 189.533 1
0 -6 0 439.436 237.804 3
-6 0 0 1049.79 272.5 1
6 -6 0 476.685 197.275 2
6 0 0 1314.23 302.921 1
6 -6 0 420.389 184.336 1
-6 6 0 741.868 245.719 2
0 -6 0 744.131 270.547 4
6 0 0 1252.28 308.557 2
-6 0 0 1084.05 299.838 2
0 6 0 1075.44 296.454 3
-6 0 -3 7667.62 664.457 1
6 -6 -3 8779.31 702.019 1
0 -6 3 8370.24 775.93 4
6 0 3 7988.42 698.289 1
-6 6 3 8944.52 671.102 2
0 -6 3 8786.32 760.296 3
-6 6 3 7731.38 574.663 4
0 6 -3 7606.51 669.688 3
6 -6 -3 8674.7 675.813 4
-6 6 3 8279.29 677.847 1
6 0 3 8038.55 802.141 2
-6 0 -3 8132.37 792.275 2
0 -6 6 2347.5 407.617 3
-6 0 -6 2465.57 504.273 2
6 0 6 2379.88 546.005 2
6 0 6 2434.4 450.534 1
-6 0 -6 2449.61 430.278 1
6 -6 -6 3127.92 415.126 1
0 -6 9 9924.22 941.724 3
-6 0 -9 8324.79 1030.83 2
6 0 9 10341.9 1251.43 2
6 0 9 9617.14 1029.94 1
-6 0 -9 9816.87 991.931 1
-6 0 -12 -92.5104 208.453 1
6 0 12 -95.1875 258.197 1
0 -6 12 180.325 168.971 3
-6 0 -15 415.741 214.089 1
0 -6 15 396.331 246.551 3
0 6 -15 71.8139 143.505 1
0 -6 18 1126.41 417.6 3
-6 0 -18 116.889 256.968 1
0 6 -18 465.894 317.637 1
6 0 18 290.122 592.752 2
-7 6 -16 869.89 347.803 1
1 6 16 1095.64 626.024 2
1 -7 -16 832.21 303.568 1
6 -7 16 1441.03 736.646 2
-7 6 -13 163.079 73.1297 3
6 -7 13 310.018 233.745 2
1 -7 -13 232.104 115.343 1
-7 6 -13 -25.9852 132.302 1
1 6 13 21.2693 305.771 2
6 -7 10 2939.31 698.939 1
1 -7 -10 2383.1 324.414 1
1 6 10 1714.83 409.572 2
6 -7 10 2330.72 698.325 2
-7 6 -10 2180.23 548.871 1
1 6 10 1455.85 283.62 3
-7 6 -10 2001.1 316.001 3
1 6 7 529.364 187.594 2
-7 6 -7 1057.29 364.672 1
6 -7 7 764.855 326.436 1
1 6 7 492.342 147.531 3
6 -7 7 1445.53 485.103 2
-7 6 -7 835.407 343.388 2
1 6 4 -103.042 114.898 3
6 -7 4 -322.09 269.881 1
-7 6 -4 -35.974 128.391 2
6 -7 4 211.048 169.104 2
-7 6 -4 174.427 181.649 1
1 -7 -4 524.863 229.539 3
1 -7 -1 3410.74 466.355 3
-7 6 -1 4135.14 566.013 2
1 -7 -1 3683.44 574.224 4
-7 1 1 3779.93 521.487 2
-7 1 1 3867.45 484.414 1
1 6 1 3592.17 533.352 4
1 6 1 3706.83 468.451 3
6 1 -1 3213.22 440.174 1
6 -7 1 3297.56 502.933 2
-7 6 -1 3317.7 513.667 1
6 -7 1 3370.25 538.948 1
1 -7 2 36302.3 1742.69 4
-7 1 -2 35408.9 1688.26 2
1 6 -2 42662.1 1676.23 3
-7 6 2 39398.9 1559.97 2
6 -7 -2 43996.4 1486.71 2
6 -7 -2 38082 1482.83 1
6 1 2 33842.2 1545.14 2
-7 1 -2 37550.1 1588.7 1
1 -7 2 37433.7 1628.87 3
1 6 -2 41896.5 1565.3 4
6 1 2 33837.1 1394.55 1
-7 6 2 38789.3 1601.16 1
6 -7 -2 40212 1576.97 4
6 -7 -5 4968.15 540.287 1
-7 1 -5 4619.23 723.037 2
-7 6 5 5448.61 542.795 4
-7 1 -5 3928.81 566.598 1
-7 6 5 5380.76 620.196 1
6 1 5 4246.51 646.408 2
1 -7 5 4451.83 614.571 3
6 1 5 4591.53 559.623 1
-7 1 -8 4665.28 711.754 1
1 -7 8 4865.83 642.686 3
6 1 8 4297.07 768.858 2
6 1 8 4728.71 673.122 1
6 -7 -8 5241.72 575.118 1
-7 1 -8 4748.5 804.172 2
-7 1 -11 863.646 213.685 1
6 1 11 1193.77 423.15 2
1 -7 11 1557.95 398.607 3
6 1 11 1013.5 386.37 1
-7 1 -14 256.928 228.057 1
1 -7 14 319.339 260.918 3
6 1 14 538.331 453.056 2
1 -7 17 -22.289 157.047 3
-7 1 -17 491.553 304.896 1
6 1 17 795.365 715.783 2
1 6 -17 563.659 399.792 1
6 -8 17 -297.024 445.761 2
2 -8 -17 -96.4328 227.392 1
2 6 17 -154.299 316.094 2
-8 6 -17 -308.722 423.164 1
2 6 14 788.016 406.902 2
6 -8 14 1447.5 669.819 2
-8 6 -14 339.461 129.402 3
-8 6 -14 696.145 225.693 1
2 -8 -14 645.231 239.26 1
2 6 11 1624.46 412.113 2
-8 6 -11 1628.29 275.062 3
-8 6 -11 2069.54 556.86 1
6 -8 11 2561.51 797.023 2
2 6 8 4199.95 594.856 2
-8 6 -8 5065.36 813.744 1
-8 6 -8 4244.55 829.702 2
6 -8 8 5264.42 904.652 1
6 -8 8 6000.27 1051.43 2
2 -8 -8 4191.66 343.375 1
6 -8 5 17689.4 1485.16 1
2 6 5 15892.7 888.497 2
-8 6 -5 16993.4 1364.36 1
-8 6 -5 15657.2 1384.09 2
6 -8 5 16835.1 1526.21 2
2 6 5 15001.7 981.829 3
6 2 -2 1778.88 295.835 4
2 -8 -2 476.752 127.534 1
-8 2 2 1882.4 373.092 2
-8 2 2 1517.81 333.216 1
6 -8 2 831.025 301.677 1
6 -8 2 892.935 272.509 2
2 -8 -2 653.239 275.204 3
-8 6 -2 1490.86 413.724 2
2 -8 -2 957.457 343.393 4
-8 6 -2 767.549 260.693 1
2 6 2 1526.58 331.806 3
2 6 -1 9096.63 813.851 4
-8 2 -1 6016.51 709.589 2
6 2 1 6765.97 615.881 1
6 -8 -1 7391.99 694.997 1
2 -8 1 6623.73 707.003 3
-8 2 -1 7684.07 769.538 1
-8 6 1 7427.51 765.546 2
2 -8 1 5988.39 610.559 1
6 -8 -1 6973.66 628.45 2
6 2 1 6041.61 649.329 2
2 -8 1 7031.97 786.728 4
6 -8 -1 7522.41 780.778 4
-8 6 1 7336.81 757.128 1
6 2 4 2125.45 448.074 2
-8 6 4 3852.32 562.159 2
6 -8 -4 2512.08 478.504 4
2 -8 4 3083.8 528.097 3
-8 6 4 4002.37 379.339 4
-8 2 -4 2126.44 452.625 1
-8 6 4 4075.3 572.105 1
6 2 4 2587.1 400.818 1
6 -8 -4 2383.69 382.106 1
-8 2 -4 2564.01 533.184 2
6 2 7 454.693 210.281 1
2 -8 7 496.64 214.513 3
6 2 7 666.424 325.009 2
-8 2 -7 470.533 168.588 1
6 -8 -7 745.247 214.696 1
-8 6 7 420.168 99.374 4
-8 2 -7 266.875 133.965 2
-8 2 -10 1757.21 528.95 2
6 2 10 1684.09 418.604 2
6 -8 -10 1321.19 266.266 1
-8 2 -10 1922.44 470.304 1
2 -8 10 1797.26 423.168 3
6 2 10 1088.47 270.916 1
-8 2 -13 544.826 289.513 1
2 -8 13 838.578 190.364 3
6 2 16 -403.018 452.344 2
-8 2 -16 -317.878 271.435 1
2 -8 16 119.746 206.436 3
3 6 15 448.431 442.126 2
6 -9 15 500.532 393.189 2
-9 6 -15 259.834 131.356 3
-9 6 -15 282.325 151.487 1
6 -9 12 -296.34 518.508 2
-9 6 -12 287.613 155.233 1
3 6 12 -90.9669 298.067 2
3 6 9 2954.27 592.811 2
6 -9 9 3343.91 708.775 1
-9 6 -9 3401 719.393 1
6 -9 9 3145.05 729.159 2
-9 6 -9 2126.17 570.188 2
3 -9 -9 3922.73 389.927 1
-9 6 -6 3705.91 746.034 2
6 -9 6 2554.39 606.168 1
3 6 6 3227.1 460.523 2
-9 6 -6 3327.41 605.272 1
6 -9 6 3090.79 650.66 2
6 3 -3 4198.91 486.272 4
6 -9 3 2745.01 584.785 2
-9 3 3 3901.39 588.545 2
3 6 3 3231.1 378.158 2
-9 6 -3 2717.89 581.39 1
-9 3 3 3431.51 530.156 1
3 -9 -3 2873.75 355.232 1
-9 6 -3 2058.44 425.201 2
3 6 3 3028.07 326.404 1
6 -9 3 2708.72 548.506 1
3 -9 -3 1969.72 497.086 4
6 -9 0 8005.71 808.669 1
-9 3 0 7471.85 789.086 1
6 -9 0 7806.88 749.286 2
3 -9 0 7676.75 884.236 4
3 -9 0 6675.97 639.19 1
3 -9 0 7598.43 786.918 3
-9 6 0 7773.29 842.856 2
-9 6 0 6677.34 770.791 1
3 6 0 6863.63 788.625 4
-9 3 0 7236.22 818.909 2
6 3 0 8252.23 721.847 1
3 -9 0 6736.41 572.105 2
6 -9 0 8055.86 857.906 4
6 3 3 980.885 331.85 2
3 -9 3 1197.99 362.811 1
3 6 -3 573.169 212.139 4
3 -9 3 1149.91 360.858 3
6 -9 -3 1068.91 386.141 4
6 3 3 494.689 228.626 1
3 -9 3 885.999 357.23 4
6 -9 -3 910.306 244.924 1
6 -9 -3 915.884 238.017 2
-9 3 -3 851.811 299.259 2
-9 3 -3 696.523 255.096 1
-9 6 3 466.609 202.052 2
-9 6 3 909.525 307.729 1
-9 3 -6 2610.41 625.517 2
-9 3 -6 2769.9 570.975 1
6 -9 -6 2626.11 415.013 1
6 3 6 1996.97 378.16 1
3 -9 6 2285.75 438.882 3
6 3 6 1448.07 370.209 2
-9 6 6 2128.7 289.85 4
6 3 9 1326.23 351.846 1
6 -9 -9 2389.85 383.989 1
-9 3 -9 1571.9 476.608 1
6 3 9 1775 502.738 2
-9 3 -9 1927.25 604.318 2
6 3 12 1286.75 369.826 1
6 -9 -12 1154.03 266.371 1
-9 3 -12 1726.53 482.561 1
6 3 12 2104.73 624.662 2
3 -9 12 2072.49 485.001 3
3 -9 15 466.523 251.798 3
-9 3 -15 150.851 266.783 1
6 3 15 948.432 615.885 2
-10 6 -16 320.684 278.89 1
4 6 16 759.597 549.199 2
-10 6 -16 81.2217 75.9202 3
6 -10 16 -106.075 452.336 2
4 6 13 1048.94 499.725 2
6 -10 13 1277.63 719.798 2
-10 6 -13 1300.29 458.024 1
-10 6 -10 1844.47 516.26 1
4 6 10 1231.66 262.789 1
4 6 10 1192.16 353.293 2
4 -10 -10 1796.18 286.636 1
4 -10 -7 2249.94 291.689 1
-10 6 -7 2023.05 565.383 2
6 -10 7 2257.41 637.077 2
4 6 7 1968.04 303.853 1
4 6 7 2273.39 440.591 2
-10 6 -7 2224.77 560.735 1
6 -10 7 1929.42 551.851 1
6 -10 4 3768.61 667.794 2
-10 4 4 3692.82 630.309 1
6 4 -4 3561.56 459.94 4
-10 6 -4 5212.14 857.943 2
4 6 4 3697.7 476.228 2
-10 4 4 3229.39 577.494 2
4 -10 -4 5107.09 470.115 1
4 6 4 3576.24 397.421 1
-10 6 -4 5548.23 795.852 1
6 -10 4 3010.12 606.608 1
-10 4 1 38849.9 1961.6 2
6 -10 1 34512.4 1859.17 1
6 -10 1 35137.3 1789.11 2
-10 6 -1 35818.3 1860.12 1
4 -10 -1 31769.4 1917.54 4
4 -10 -1 33768.5 1844.05 3
6 -10 1 33181.3 1967.68 4
-10 4 1 37951.7 1902.27 1
-10 6 -1 37890.7 1966.95 2
4 -10 -1 31486.3 1465.47 1
4 -10 -1 32278.1 1277.02 2
4 6 -2 5844.9 690.877 4
6 4 2 6466.1 694.619 2
4 -10 2 6309.82 743.757 1
6 -10 -2 6524.43 567.427 2
6 -10 -2 6247.94 635.01 1
-10 4 -2 5941.48 804.68 2
4 -10 2 6598.27 891.875 4
4 -10 2 7118.98 834.388 3
-10 6 2 6507.01 784.591 1
6 -10 -2 5879.71 757.361 4
-10 4 -2 6176.17 775.004 1
6 4 2 6234.22 617.878 1
4 -10 2 6540.86 738.225 2
-10 6 2 6257.38 757.732 2
-10 4 -5 7914.7 1051.71 2
6 4 5 6818.47 655.567 1
4 -10 5 7843.36 936.483 3
4 -10 5 5941.24 875.51 1
6 4 5 6506.72 774.006 2
-10 4 -5 7147.74 892.088 1
-10 6 5 7222.31 829.916 1
6 -10 -5 8087.75 686.4 1
6 4 8 2482.54 566.259 2
-10 4 -8 3597.56 729.225 1
4 -10 8 3386.59 644.79 3
-10 6 8 2793.84 387.549 4
-10 4 -8 2499.51 657.959 2
6 4 8 2344.5 424.464 1
6 -10 -8 3918.01 497.422 1
-10 4 -11 1035.01 376.9 1
6 -10 -11 492.876 176.161 1
6 4 11 651.289 294.677 2
4 -10 11 1346.54 424.038 3
6 4 11 575.386 196.775 1
6 -10 -14 1068.56 297.981 1
4 -10 14 1543.26 469.417 3
-10 4 -14 1586.65 492.793 1
6 4 14 1405.13 573.074 2
6 4 17 847.659 557.389 2
-10 4 -17 336.29 191.736 1
6 -11 17 -439.814 354.444 2
-11 6 -17 26.0534 72.0916 3
-11 6 -17 -529.186 365.244 1
-11 6 -14 698.247 344.102 1
5 -11 -14 125.094 89.3287 1
5 6 14 501.803 366.272 2
6 -11 14 414.461 395.04 2
5 -11 -11 820.403 231.919 1
-11 6 -11 554.899 278.553 1
5 6 11 574.678 227.511 1
5 6 11 524.73 234.531 2
6 -11 11 1218.55 515.311 2
6 -11 8 14019.7 1584.33 2
-11 6 -8 11103.4 1283.76 1
5 -11 -8 13749.5 846.825 1
5 6 8 10231.2 785.366 1
5 6 8 10376.4 1045.35 2
-11 6 -8 12100.2 1453.56 2
6 -11 8 12808 1503.88 1
5 6 5 2629.95 444.497 2
6 5 -5 2125.45 354.14 4
-11 5 5 2254.89 499.81 1
6 -11 5 3653.08 719.711 1
5 -11 -5 3092.92 376.056 1
-11 6 -5 2470.1 543.646 1
6 -11 5 3173.35 685.698 2
5 6 5 2674.21 365.911 1
-11 6 -5 3327.06 700.253 2
-11 6 -2 4223.45 692.051 1
6 5 -2 4934.68 691.798 4
5 -11 -2 2718.06 385.557 2
-11 6 -2 4121.25 693.121 2
5 -11 -2 3243.39 702.066 4
6 -11 2 2504.14 537.539 2
5 6 2 4828.38 553.559 1
6 -11 2 2632.74 555.307 1
5 -11 -2 2687.34 444.905 1
-11 5 2 4685.2 774.769 1
6 -11 2 2489.68 566.641 4
-11 5 2 4447.27 731.329 2
-11 6 1 5593.59 759.8 2
5 -11 1 6516.99 786.182 1
6 -11 -1 6126.9 699.892 1
6 5 1 5518.91 602.896 1
5 -11 1 6059.7 877.044 4
-11 5 -1 5305.67 748.737 1
6 -11 -1 6046.39 625.213 2
5 6 -1 6460.9 799.587 4
6 -11 -1 5552.56 796.646 4
-11 6 1 6557.05 863.203 1
5 -11 1 5818.19 704.673 2
-11 5 -1 6100.32 805.773 2
5 -11 4 11300.8 1161.88 2
6 -11 -4 10618.8 1159.52 4
-11 6 4 15226.4 1288.73 2
6 5 4 11614.7 988.081 2
-11 6 4 13954.1 1209.61 1
5 -11 4 11737 1119.86 3
-11 5 -4 11512.8 1147.42 1
-11 5 -4 11873.5 1265.97 2
6 -11 -4 11133.5 818.179 1
5 -11 4 10759.7 1119.08 1
6 5 4 12026.1 869.352 1
5 6 -4 11754.4 890.001 4
-11 5 -7 605.667 237.484 1
5 -11 7 1354.52 548.885 1
6 5 7 377.032 162.815 1
6 -11 -7 722.552 210.672 1
5 -11 7 665.568 310.927 3
-11 5 -7 862.494 409.621 2
6 5 7 604.481 241.453 2
6 -11 -10 2917.23 443.439 1
6 5 10 2162.89 378.274 1
-11 5 -10 2480.69 648.898 1
6 5 10 1615.31 353.848 2
5 -11 10 3291.18 655.955 3
-11 5 -13 1455.27 469.281 1
6 5 13 1778.35 576.151 2
6 -11 -13 1268.97 320.381 1
-11 5 -16 304.44 187.67 1
-11 5 -16 244.92 93.9596 3
6 -11 -16 264.145 87.5781 1
-12 6 0 2805.16 574.481 1
6 -12 0 1912.7 395.47 2
-12 6 0 2566.89 551.394 2
6 -12 0 2115.97 441.374 1
6 -12 0 1889.29 429.283 4
-12 6 -3 5245.66 779.39 1
6 -12 -3 4267.47 452.271 2
6 6 -3 5512.24 663.885 4
6 6 3 4851.73 627.589 2
6 6 3 4604.16 564.647 1
-12 6 3 5878.39 856.2 2
6 -12 3 2504.16 606.514 4
6 -12 3 3081.45 619.48 1
-12 6 3 4890.1 803.035 1
-12 6 -3 5014.03 811.229 2
6 -12 -3 3387.22 666.557 4
6 -12 3 4313.69 731.557 2
6 -12 -3 4189.12 539.247 1
-12 6 6 6493.82 899.226 1
6 -12 6 8533.72 1243.88 2
6 -12 6 8692.69 1200.13 1
6 -12 -6 7455.78 645.013 1
-12 6 -6 6848.53 990.384 1
-12 6 -6 7029.21 1122.52 2
6 6 6 6262.45 628.433 1
6 6 6 5793.79 783.743 2
6 -12 9 905.765 484.093 2
6 6 9 823.089 219.027 1
6 6 9 626.117 231.864 2
-12 6 -9 1326.01 486.867 1
6 -12 -9 1957.83 364.294 1
6 6 12 2881.37 685.617 2
-12 6 -12 2555.88 742.431 1
6 6 12 1991.16 428.741 1
6 -12 -12 2115.11 407.217 1
6 -12 12 2808.02 890.656 2
6 -12 -15 585.044 232.242 1
6 -12 15 -15.3305 507.038 2
-12 6 -15 185.042 232.507 1
6 6 15 -47.6668 234.449 2
-4 7 -17 179.663 186.699 1
7 -4 17 347.303 540.148 2
-3 7 17 376.09 158.444 3
-3 -4 -17 380.622 318.985 1
-3 -4 -14 499.941 247.249 1
-4 7 -14 343.718 136.348 1
-3 7 14 326.52 201.163 3
-4 7 -11 75.4796 85.2704 3
-3 -4 -11 260.248 173.684 1
-4 7 -11 30.1824 234.882 1
7 -4 11 252.368 185.775 1
7 -4 11 677.603 369.772 2
-4 7 -8 756.181 304.47 1
-3 -4 -8 304.453 81.8776 1
7 -4 8 320.452 319.84 2
-4 7 -8 588.225 171.706 3
7 -4 8 588.775 328.767 1
-3 -4 -8 472.05 165.637 3
7 -4 5 10190.4 1065.12 1
-4 -3 5 8981.42 689.402 4
7 -4 5 10381.1 1164.59 2
-3 -4 -5 10159.7 729.2 3
-4 7 -5 9495.83 909.541 1
-4 7 -5 9760.95 761.857 3
7 -3 -5 10745.3 849.91 1
-3 -4 -5 9343.67 782.547 2
-3 -4 -5 8922.9 528.742 1
-4 7 -2 3305.14 487.78 1
7 -4 2 3236.45 526.89 2
-3 -4 -2 3278.82 374.511 2
-4 7 -2 2881.35 431.255 3
7 -4 2 3395.54 514.88 1
7 -3 -2 3788.21 495.347 1
-4 7 -2 3050.43 457.195 2
-3 7 2 3122.78 473.97 3
-3 7 2 3380.66 359.403 1
-3 7 2 3354.29 499.299 4
-4 -3 2 2797.1 400.236 4
-4 7 1 636.854 178.897 4
-3 -4 1 598.295 177.293 4
7 -4 -1 864.045 239.567 1
-4 -3 -1 580.473 172.022 2
-4 7 1 723.925 158.642 2
-3 7 -1 956.876 248.019 3
-4 7 1 870.137 202.712 1
-3 7 -1 794.352 221.018 1
7 -4 -1 518.471 184.293 2
7 -3 1 804.404 211.57 1
7 -3 1 632.594 219.757 2
-4 7 4 2561.42 310.268 1
7 -3 4 2163.89 470.492 1
-3 7 -4 2451.38 417.512 3
-3 -4 4 2493.61 399.45 4
-4 7 4 2348.05 465.454 4
-4 -3 -4 1675.12 351.849 2
7 -3 4 1829.53 487.701 2
-3 7 -4 2151.08 427.418 1
-4 -3 -4 2448.31 326.123 1
7 -4 -4 3086.07 481.129 1
-4 -3 -7 1802.09 311.709 1
-3 7 -7 2129.16 358.048 3
7 -3 7 1342.97 318.169 1
7 -3 7 1703.53 536.681 2
7 -4 -7 2200.61 422.601 1
-4 -3 -7 1991.85 432.848 2
-3 7 -7 1489.37 391.582 1
-4 -3 -7 1910.07 292.486 3
7 -3 10 1759.35 514.694 1
-3 7 -10 1183.92 350.519 1
-4 -3 -10 1539.8 354.318 1
-3 7 -10 1270.01 293.621 3
-4 -3 -10 1454.98 224.827 3
7 -3 13 1143.66 412.709 1
-3 7 -13 422.752 201.967 1
-4 -3 -13 416.497 140.299 1
7 -3 13 998.117 611.457 2
-3 7 -16 448.975 223.636 1
-3 -4 16 786.43 324.654 3
7 -3 16 1515.49 763.782 2
-4 7 16 511.825 206.599 3
-4 -3 -16 772.167 339.879 1
7 -5 18 -18.2224 305.763 2
-2 -5 -18 65.8256 224.419 1
-5 7 -18 -487.315 357.615 1
-2 7 18 -15.4055 109.203 3
7 -5 15 -43.4752 380.314 2
-5 7 -15 31.2796 189.803 1
-2 7 15 334.863 161.206 3
-2 -5 -15 157.19 187.328 1
7 -5 12 108.929 322.741 2
-5 7 -12 210.36 69.2571 3
-2 7 12 41.0742 150.914 3
-5 7 -12 446.853 207.876 1
-2 -5 -12 180.122 121.649 1
7 -5 12 287.34 165.007 1
7 -5 9 5422.48 931.939 1
-2 7 9 5033.08 604.918 3
-2 -5 -9 5240.32 541.164 1
-5 7 -9 4913.07 779.182 1
-5 7 -9 4559.3 496.433 3
-2 -5 -9 4351.78 456.547 3
7 -5 9 5909.13 1055.39 2
-5 7 -6 1102.98 354.788 1
-2 -5 -6 1066.41 269.034 3
-2 -5 -6 930.898 266.295 2
7 -5 6 1142.74 402.106 1
7 -5 6 809.528 369.961 2
-5 7 -6 1170.33 254.29 3
-2 7 6 859.989 232.632 3
-2 -5 -3 10905.7 628.212 2
-2 7 3 8746.12 875.769 4
-5 -2 3 10487.9 707.251 4
7 -2 -3 10550.1 838.854 1
-5 7 -3 12961.4 1043.11 2
-2 -5 -3 10917.4 780.988 3
7 -5 3 8062.8 859.196 1
7 -5 3 9213.78 982.565 2
-2 7 3 10779.6 857.248 3
-5 7 -3 11532.6 1002.38 1
-5 -2 0 384.486 179.352 2
7 -2 0 83.0572 85.0969 2
-5 -2 0 229.661 120.245 1
-2 7 0 285.907 154.674 1
7 -5 0 226.498 192.539 2
7 -2 0 247.076 167.529 1
7 -5 0 199.919 153.5 1
-2 7 0 348.573 158.141 4
-2 -5 0 438.053 214.4 4
-5 7 0 53.4128 130.11 1
-2 7 0 278.476 132.522 3
-2 -5 0 239.978 142.68 3
-5 7 0 -50.2375 82.9651 2
-5 7 3 3463 385.293 1
-2 7 -3 3298.1 441.218 3
-5 -2 -3 3017.54 373.523 1
-2 -5 3 3198.84 440.539 4
7 -2 3 3241.23 486.534 1
7 -5 -3 3820.64 494.597 1
7 -2 3 3119.19 538.353 2
-5 7 3 3246.53 338.104 2
-5 7 3 3314.26 450.809 4
7 -5 -3 3141.06 313.538 4
-5 -2 -3 2805.38 421.682 2
-2 7 -3 2874.32 446.193 1
-5 -2 -6 5672.35 561.314 1
7 -2 6 5199.83 737.269 1
-2 7 -6 6316.24 750.267 1
7 -2 6 5981.83 874.313 2
7 -5 -6 5710.48 627.885 1
-2 7 -6 6507.24 633.299 3
-5 -2 -6 5859.81 748.255 2
-5 -2 -9 748.06 168.238 3
-5 -2 -9 1146.68 307.508 1
7 -2 9 917.82 405.04 2
7 -2 9 747.099 292.655 1
-2 7 -9 626.049 248.845 1
-5 -2 -9 822.491 275.041 2
-2 -5 12 102.319 166.761 3
-2 7 -12 65.7455 240.692 1
7 -2 12 340.405 179.936 1
7 -2 12 417.621 355.753 2
-5 -2 -12 325.162 178.458 1
-5 -2 -15 1040.83 365.186 1
-2 7 -15 791.604 294.857 1
7 -2 15 1168.56 587.504 2
-2 -5 15 829.479 273.832 3
-5 -2 -18 504.808 293.033 1
7 -2 18 1225.93 632.826 2
-2 7 -18 91.8982 204.07 1
-2 -5 18 1000.7 442.401 3
-6 7 -16 546.633 267.355 1
7 -6 16 1229.86 660.438 2
-1 -6 -16 536.542 166.264 1
-1 7 16 1065.5 274.454 3
-6 7 -13 177.073 160.983 1
-1 -6 -13 61.5272 125.963 1
-6 7 -13 255.772 120.505 3
-1 7 13 305.739 168.625 3
-1 -6 -10 1889.23 317.334 1
-6 7 -10 1509.98 284.3 3
7 -6 10 2698.21 749.125 2
-1 7 10 1825 354.141 3
-6 7 -10 2747.79 620.135 1
7 -6 10 2388.52 609.515 1
-1 -6 -7 866.607 237.14 3
-1 7 7 1089.91 258.044 3
-6 7 -7 1329.02 414.555 1
-6 7 -7 1068.23 240.312 3
7 -6 7 754.108 440.361 2
7 -6 7 1011.89 445.148 1
7 -1 -4 295.063 189.452 1
-1 -6 -4 403.576 171.43 3
-6 7 -4 184.337 152.746 2
7 -6 4 160.372 224.502 1
-6 7 -4 172.855 169.47 1
-1 7 4 437.069 230.775 3
7 -6 4 -316.297 313.587 2
7 -6 1 3779.92 551.81 2
-6 7 -1 3453.67 493.93 1
-1 7 1 3801.13 539.541 4
-6 -1 1 3724.63 510.789 2
-6 7 -1 3930.36 529.113 2
-1 -6 -1 3483.05 493.852 3
7 -1 -1 4115.91 539.849 2
-1 7 1 3804.06 506.903 3
-6 -1 1 3456.59 458.342 1
-1 7 1 3490.31 360.758 1
7 -6 1 3902.88 554.171 1
7 -1 -1 3444.97 471.437 1
-1 -6 2 36467.8 1658.43 4
-6 7 2 41200.6 1555.78 1
7 -1 2 36111.3 1731.47 2
-1 -6 2 36637.1 1625.59 3
7 -1 2 33006.8 1509.27 1
7 -6 -2 38904.9 1576.94 2
7 -6 -2 39437.6 1631.01 1
7 -6 -2 40191.3 1423.33 4
-1 7 -2 44607.9 1656.9 4
-6 7 2 41098.2 1469.85 2
-1 7 -2 43796.1 1627.55 1
-6 7 2 41673.2 1421.84 4
-1 7 -2 41735.2 1615.66 3
-6 -1 -2 32792.1 1545.22 2
-6 -1 -2 36890 1428.23 1
7 -1 5 4568.53 661.099 1
-6 -1 -5 4410.32 553.969 1
7 -1 5 4781.3 746.839 2
-1 7 -5 4696.1 551.438 3
-6 7 5 4682.56 511.268 1
-6 -1 -5 4882.19 683.47 2
7 -6 -5 5093.04 603.392 1
-1 -6 5 4835.99 629.372 3
-6 7 5 5316 639.1 4
7 -6 -8 4984.11 589.876 1
-1 7 -8 4976.31 740.929 1
-1 -6 8 4248 589.241 3
7 -1 8 4064.48 801.816 2
-6 -1 -8 4193.19 677.21 2
-6 -1 -8 5087.33 662.175 1
7 -1 8 4553.71 721.974 1
-6 -1 -11 1265.63 362.564 1
7 -1 11 1653.69 512.806 2
-1 -6 11 1247.59 307.248 3
-1 7 -11 584.886 181.815 1
7 -1 11 1265.4 424.324 1
-6 -1 -11 945.841 173.757 3
-1 -6 14 266.151 240.839 3
7 -1 14 -141.88 414.98 2
-1 7 -14 -290.488 252.281 1
-6 -1 -14 71.6552 265.568 1
-1 -6 17 711.293 435.119 3
-1 7 -17 157.487 216.149 1
7 -1 17 652.693 567.796 2
-6 -1 -17 10.5101 200.979 1
7 -7 17 464.529 596.186 2
-7 7 -17 203.845 178.067 1
0 7 17 111.911 263.309 2
0 -7 -17 339.987 229.762 1
-7 7 -14 364.71 136.699 3
-7 7 -14 232.525 173.442 1
0 -7 -14 206.133 191.41 1
0 7 14 372.901 270.954 2
0 7 14 405.453 179.13 3
7 -7 14 552.116 423.247 2
0 -7 -11 211.707 119.745 1
-7 7 -11 -15.3379 136.617 1
0 7 11 -475.363 438.133 2
0 7 11 -323.268 220.374 3
-7 7 -11 -124.238 151.202 3
7 -7 11 136.626 245.612 1
7 -7 11 334.654 440.815 2
7 -7 8 6883.43 1106.5 2
0 7 8 5528.43 617.99 3
7 -7 8 4916.81 892.625 1
0 7 8 5711.69 689.051 2
-7 7 -8 7328.51 1008.69 1
0 -7 -8 6684.19 458.158 1
0 -7 -5 48219.7 1756.57 3
-7 7 -5 42992.9 2157.57 1
-7 7 -5 46483.9 2356.3 2
7 -7 5 47791 2542.04 2
7 -7 5 47880.9 2474.47 1
0 7 5 44777.8 1716.89 3
7 -7 2 3982.21 675.678 1
0 -7 -2 5392.31 655.348 3
0 7 2 5401.7 720.257 4
0 7 2 7166.13 716.6 3
7 -7 2 3649.14 654.787 2
-7 7 -2 5018.54 688.302 2
-7 7 -2 4860.98 668.81 1
-7 0 2 6647.26 691.517 1
7 0 -2 9029.13 794.764 1
-7 7 1 52302.6 1893.9 1
7 -7 -1 51709.9 1883 1
0 7 -1 55637.3 1917.26 4
-7 7 1 49629.6 1784.78 2
0 7 -1 54167.6 1886.08 3
0 -7 1 49711 2106.78 4
7 -7 -1 48795.8 1806.44 2
7 0 1 51534.4 1828.33 1
0 -7 1 49657.5 1909.05 3
7 0 1 48913.7 1910.17 2
-7 0 -1 51071.7 1994.47 2
-7 0 -1 47364.1 1751.35 1
7 0 4 3101.67 608.873 2
-7 7 4 7330.67 705.57 2
-7 0 -4 3792.53 631.002 2
-7 0 -4 4203.82 595.745 1
0 -7 4 4329.78 721.442 4
-7 7 4 7652.6 665.922 4
0 -7 4 3857.53 640.355 3
7 -7 -4 8333.14 816.299 1
7 -7 -4 6475.21 698.621 4
0 7 -4 8528.14 796.395 3
-7 7 4 8494.37 792.528 1
7 0 7 354.278 231.899 1
-7 0 -7 313.727 132.726 1
-7 0 -7 200.44 212.756 2
0 -7 7 513.153 201.563 3
7 -7 -7 669.175 211.644 1
7 0 7 244.235 247.69 2
7 0 10 1204.16 338.265 1
7 -7 -10 1464.8 343.703 1
0 -7 10 1409.39 409.408 3
7 0 10 1469.29 505.345 2
-7 0 -10 1486.65 429.17 1
-7 0 -10 1492.8 473.342 2
7 0 13 638.397 379.489 1
-7 0 -13 364.961 302.467 1
0 -7 13 717.929 318.98 3
0 7 -13 247.399 128.026 1
7 0 16 286.393 310.161 2
0 7 -16 313.387 193.348 1
0 -7 16 702.579 289.132 3
-7 0 -16 365.787 265.239 1
7 -8 15 627.152 501.142 2
-8 7 -15 380.235 134.776 3
1 -8 -15 295.982 236.493 1
1 7 15 485.771 220.304 2
-8 7 -15 596.791 279.687 1
7 -8 12 575.625 371.88 2
1 7 12 139.334 84.0379 3
1 -8 -12 340.066 119.248 1
1 7 12 420.385 201.339 2
-8 7 -12 433.267 194.571 1
-8 7 -12 316.853 101.396 3
1 -8 -9 1554.93 229.116 1
7 -8 9 1242.16 544.111 2
-8 7 -9 1593.06 505.883 1
1 7 9 1134.4 273.823 3
7 -8 9 142.245 326.739 1
1 7 9 1352.06 370.971 2
7 -8 6 1286.87 443.754 2
1 -8 -6 2180.23 417.294 3
1 7 6 1110.83 263.941 2
-8 7 -6 1565.3 482.563 2
1 7 6 1179.94 328.888 3
7 -8 6 1121 437.942 1
-8 7 -6 1922.64 523.296 1
7 -8 3 505.633 246.843 2
7 -8 3 853.847 335.38 1
7 1 -3 353.176 148.468 4
-8 7 -3 214.659 227.89 2
1 7 3 507.206 224.215 3
1 -8 -3 243.489 171.551 3
7 1 -3 292.802 156.804 1
7 1 0 1373.89 376.975 2
-8 1 0 2232.06 439.572 1
-8 7 0 2025.54 434.906 2
1 7 0 3094.57 497.452 4
1 -8 0 1542.86 369.906 3
1 7 0 2066.98 417.208 3
7 -8 0 1536.75 362.693 2
-8 7 0 1768.26 433.559 1
7 -8 0 1625.85 376.907 1
1 -8 0 1962.37 475.1 4
7 1 0 1635.3 346.527 1
-8 1 0 2177 446.139 2
-8 1 -3 2865.37 532.086 2
1 -8 3 2847.55 519.226 4
-8 1 -3 2618.88 460.311 1
7 1 3 2422.66 412.061 1
7 -8 -3 3428.26 526.156 4
1 -8 3 2865.08 471.539 3
7 -8 -3 2896.1 437.457 1
-8 7 3 2762.87 433.59 2
7 1 3 2965.7 519.467 2
7 -8 -3 2966.27 434.907 2
-8 7 3 2954.08 484.248 1
1 7 -3 2489.94 429.489 4
-8 7 6 1082.71 292.106 1
-8 1 -6 1449.76 443.637 2
7 1 6 743.723 281.812 2
1 -8 6 840.252 265.995 3
7 1 6 666.271 243.244 1
-8 1 -6 914.11 309.424 1
7 -8 -6 1426.93 332.578 1
-8 7 6 923.319 222.122 4
-8 1 -9 1139.15 335.856 1
7 1 9 354.535 260.561 2
1 -8 9 1514.97 373.34 3
7 -8 -9 999.595 257.708 1
-8 1 -9 1048.48 382.694 2
7 1 9 934.344 255.1 1
-8 1 -12 286.715 216.877 1
1 -8 12 818.238 335.097 3
7 1 12 138.683 159.939 1
7 1 12 492.284 419.908 2
1 -8 15 841.672 427.502 3
-8 1 -15 367.801 159.05 1
2 -9 -16 472.705 212.814 1
-9 7 -16 1299 490.251 1
-9 7 -16 633.738 170.79 3
7 -9 16 919.929 595.814 2
2 7 16 1402.7 673.203 2
2 7 13 1046 417.003 2
2 -9 -13 614.992 194.895 1
-9 7 -13 1186.3 466.634 1
7 -9 13 730.457 541.87 2
-9 7 -13 1325.97 270.526 3
2 7 10 3642.23 615.421 2
-9 7 -10 3929.6 769.034 1
7 -9 10 4312.63 922.479 2
7 -9 10 5006.19 964.914 1
2 7 7 2727.22 451.781 2
-9 7 -7 2894.31 642.838 1
7 -9 7 3463.25 791.546 2
7 -9 7 2355.89 571.059 1
-9 7 -7 3357.24 701.697 2
2 7 7 1687.71 327.592 3
2 -9 -4 38631.3 1802.95 3
7 2 -4 32831 1130.34 4
2 7 4 36797.4 1652.22 3
2 7 4 35828.1 1159.28 2
7 -9 4 37370.8 2230.18 2
-9 7 -4 32009.4 2006 2
-9 7 -4 32955.8 1910.4 1
7 -9 4 33470.6 2099.34 1
2 -9 -1 4172.43 455.52 1
2 -9 -1 5750.96 814.709 4
2 7 1 5263.42 717.058 4
7 -9 1 5244.87 699.527 2
7 -9 1 5592.44 734.628 1
2 -9 -1 4434.84 627.676 3
-9 7 -1 6235.62 763.173 2
-9 2 1 5502.74 718.85 2
-9 2 1 4850.38 647.152 1
7 2 -1 4857.33 595.352 1
2 7 1 5262.81 634 3
-9 7 -1 5950.18 747.509 1
-9 7 2 3255.62 554.192 1
7 2 2 2827.89 454.19 1
7 2 2 2997.5 513.873 2
2 -9 2 2995.68 487.268 3
2 -9 2 3586.13 613.953 4
-9 2 -2 3028.68 555.114 1
7 -9 -2 3316.67 455.459 2
7 -9 -2 3698.09 576.976 4
2 7 -2 3214.78 516.356 4
-9 2 -2 2568.7 523.485 2
7 -9 -2 3237.81 472.203 1
-9 7 2 3437.97 538.231 2
-9 7 5 111.737 194.075 2
-9 2 -5 238.187 211.298 1
-9 7 5 210.591 115.287 4
2 -9 5 47.856 151.798 3
7 -9 -5 426.561 182.1 1
-9 7 5 422.916 222.041 1
-9 2 -5 583.285 304.757 2
7 2 5 355.212 181.898 1
7 2 5 440.22 130.34 2
7 2 8 2614.33 488.281 1
-9 2 -8 3582.49 645.292 1
7 2 8 2931.08 608.308 2
-9 7 8 2639.56 424.358 4
2 -9 8 3001.3 589.332 3
7 -9 -8 2844.96 444.74 1
-9 2 -8 3255.39 711.519 2
-9 2 -11 716.519 284.3 1
-9 2 -11 709.758 379.224 2
2 -9 11 904.296 297.565 3
7 2 11 835.525 361.636 2
7 -9 -11 362.781 170.874 1
7 2 11 664.449 261.468 1
7 2 14 540.901 272.161 2
7 2 14 226.044 123 1
-9 2 -14 846.454 376.317 1
2 -9 14 921.56 351.454 3
2 -9 17 -260.54 254.727 3
-9 2 -17 159.236 180.735 1
7 2 17 476.795 331.313 2
3 -10 -17 -163.969 193.473 1
3 7 17 852.621 516.605 2
7 -10 17 -362.964 604.5 2
-10 7 -17 -41.4319 301.625 1
-10 7 -17 24.6107 52.3912 3
-10 7 -14 935.774 400.364 1
7 -10 14 1295.3 807.51 2
3 7 14 1312.03 405.048 2
-10 7 -14 876.335 221.353 3
7 -10 11 628.232 254.766 2
3 7 11 757.718 325.007 2
3 -10 -11 639.786 178.682 1
-10 7 -11 154.827 249.542 1
-10 7 -8 1037.24 367.058 1
7 -10 8 973.134 440.395 1
7 -10 8 497.412 222.14 2
3 -10 -8 1751.93 253.012 1
-10 7 -8 735.931 280.171 2
3 7 8 512.977 236.531 2
3 7 8 532.945 153.024 1
-10 7 -5 5629.37 915.218 2
7 -10 5 4939.23 858.233 2
7 3 -5 3634.33 398.311 4
-10 7 -5 5509.91 812.991 1
3 7 5 4036.81 455.57 2
7 -10 5 5517.46 889.859 1
7 -10 2 6163.5 864.459 2
3 -10 -2 6236.32 901.897 4
3 -10 -2 6356.07 800.483 3
-10 3 2 8322.81 937.321 1
-10 7 -2 6601.07 860.049 1
7 3 -2 7793.75 737.966 4
-10 7 -2 7179.59 906.331 2
3 -10 -2 5400.47 535.636 1
7 -10 2 6044.18 854.826 1
-10 3 2 7940.81 921.999 2
7 -10 -1 13622.5 964.43 2
3 -10 1 12617.6 967.894 1
7 -10 -1 14936.5 1224.98 4
7 -10 -1 15013.7 1089.48 1
3 -10 1 13660.1 1227.58 4
-10 7 1 15031.8 1242.63 2
-10 3 -1 15048.6 1200 1
7 3 1 14234.8 1004.42 1
3 -10 1 15151 1180.85 3
7 3 1 15128.3 1126.48 2
3 7 -1 13865.7 1162.37 4
-10 3 -1 14488.4 1245.62 2
-10 7 1 14396.8 1200.26 1
3 7 -4 254.113 194.178 4
-10 3 -4 716.175 303.798 2
7 3 4 215.533 99.8529 1
3 -10 4 -28.4234 183.526 3
7 -10 -4 378.3 166.111 1
-10 3 -4 589.055 231.609 1
-10 7 4 949.394 337.533 2
7 3 4 948.329 317.625 2
-10 7 4 956.155 344.403 1
7 -10 -4 420.767 241.87 4
7 3 7 140.968 136.743 2
-10 3 -7 667.73 286.866 2
-10 3 -7 111.012 198.098 1
7 3 7 757.098 263.864 1
-10 7 7 900.661 229.587 4
7 -10 -7 654.858 221.499 1
3 -10 7 781.616 280.345 3
7 -10 -10 1199.9 291.587 1
7 3 10 1079.58 421.297 2
-10 3 -10 1125.59 492.661 2
-10 3 -10 1476.03 466.678 1
7 3 10 568.411 226.386 1
7 3 13 1126.9 572.061 2
7 3 13 623.637 333.357 1
3 -10 13 586.988 226.423 3
7 -10 -13 547.858 215.102 1
-10 3 -13 400.893 225.955 1
7 -10 -16 22.512 112.032 1
-10 3 -16 -0.23461 234.052 1
3 -10 16 -109.238 267.873 3
7 3 16 232.114 236.407 2
-11 7 -15 424.562 167.34 3
-11 7 -15 446.513 287.409 1
4 7 15 836.467 423.531 2
7 -11 15 505.134 490.395 2
7 -11 12 1363.52 766.491 2
-11 7 -12 2137.97 615.962 1
4 -11 -12 1504.45 302.42 1
4 7 12 1352.73 432.418 2
4 -11 -9 6226.36 536.322 1
-11 7 -9 6540.34 1073.35 2
-11 7 -9 6588.09 1016 1
4 7 9 5438.18 513.744 1
4 7 9 6809.4 836.458 2
4 -11 -6 2884.67 315.845 1
4 7 6 2838.1 481.415 2
-11 7 -6 3647.26 675.59 1
-11 7 -6 3437.18 735.467 2
7 -11 6 2822.66 671.853 1
4 7 6 2317.76 308.923 1
7 -11 6 2513.37 644.776 2
-11 4 3 2909.06 582.588 1
-11 4 3 3116.03 620.477 2
7 4 -3 3271.39 483.384 4
-11 7 -3 2948.38 565.871 1
4 -11 -3 2805.46 406.627 1
7 -11 3 2843.95 573.996 2
4 -11 -3 2715.07 646.331 4
7 -11 3 1892.19 495.398 1
-11 7 -3 3492.03 619.936 2
4 7 3 2287.29 335.315 1
7 4 0 3933.13 563.212 1
7 -11 0 4274.28 716.943 4
-11 7 0 4793.26 759.118 2
4 -11 0 3129.67 484.77 1
-11 4 0 4749.86 716.593 1
4 7 0 5461.64 769.128 4
-11 7 0 4782.6 742.259 1
4 -11 0 4258.05 700.047 3
4 -11 0 3367.49 664.443 4
-11 4 0 4602.37 730.25 2
7 -11 0 4622.36 655.192 1
7 -11 0 4373.34 610.852 2
4 -11 0 4301.52 532.957 2
4 7 -3 879.226 312.887 4
7 -11 -3 281.42 150.348 4
7 4 3 210.147 183.77 2
4 -11 3 308.068 247.734 3
-11 4 -3 488.853 266.226 1
7 -11 -3 -162.964 204.709 1
4 -11 3 556.851 229.76 1
-11 7 3 458.035 316.158 1
-11 4 -3 437.712 281.458 2
-11 7 3 187.738 147.199 2
7 -11 -3 77.1235 114.041 2
7 4 3 27.9037 95.1568 1
4 -11 3 222.656 241.796 4
-11 4 -6 1597.38 466.254 1
7 4 6 1550.62 411.989 2
7 4 6 1557.4 340.194 1
-11 7 6 1205.79 329.177 1
4 -11 6 1296.03 407.367 3
-11 4 -6 1149.9 419.934 2
7 -11 -6 1694.99 341.438 1
7 4 9 9240.47 1121.07 2
7 4 9 8941.89 894.678 1
-11 4 -9 9439.25 1326.83 2
7 -11 -9 10466.3 897.349 1
-11 4 -9 9520.9 1192.51 1
-11 7 9 9651.18 818.074 4
4 -11 9 10266.2 1152.5 3
7 4 12 389.236 179.365 1
-11 4 -12 20.5771 283.249 1
7 -11 -12 330.791 164.056 1
4 -11 12 245.16 245.443 3
7 4 12 159.994 251.562 2
7 4 15 86.0315 316.247 2
-11 4 -15 120.642 196.789 1
4 -11 15 630.635 343.143 3
7 -11 -15 136.3 106.988 1
-12 7 -16 280.287 144.07 3
5 -12 -16 104.961 120.125 1
5 7 16 713.351 417.439 2
-12 7 -16 963.621 414.916 1
7 -12 16 231.727 542.555 2
5 7 13 2288.27 645.493 2
7 -12 13 1960.09 669.655 2
5 -12 -13 1756.68 358.644 1
-12 7 -13 2461.58 668.7 1
7 -12 10 4759.41 1071.45 2
5 -12 -10 3836.84 476.634 1
5 7 10 3044.93 622.072 2
5 7 10 2823.31 419.223 1
-12 7 -10 2732.09 643.661 1
-12 7 -7 1979.06 580.551 2
7 -12 7 2598.6 690.067 1
5 7 7 1944.51 411.048 2
5 7 7 1911.15 306.752 1
5 -12 -7 2452.83 330.4 1
7 -12 7 1877.29 575.481 2
-12 7 -7 2405.88 557.679 1
7 5 -4 1121.93 279.99 4
-12 7 -4 1028.39 470.371 2
5 -12 -4 511.719 352.01 4
5 -12 -4 587.893 196.944 1
-12 7 -4 854.043 229.598 1
-12 5 4 939.464 331.935 2
5 7 4 742.495 253.18 2
5 7 4 767.202 216.194 1
7 -12 4 417.569 274.697 2
7 -12 4 942.735 427.568 1
-12 5 4 813.891 322.157 1
-12 7 -1 4600.02 741.783 2
7 -12 1 3980.8 643.616 2
7 -12 1 4568.02 710.607 1
-12 5 1 3247.41 617.73 2
5 -12 -1 4125.01 522.875 2
-12 7 -1 4780.13 735.134 1
7 -12 1 4012.23 761.515 4
5 -12 -1 3755.86 713.793 4
-12 5 1 4471.28 714.023 1
5 -12 -1 3675.51 544.797 1
7 5 -1 5216.66 708.044 4
-12 7 2 462.195 211.276 2
7 5 2 414.957 250.027 2
5 -12 2 72.6763 189.419 3
7 -12 -2 342.671 148.618 2
7 5 2 243.151 120.671 1
-12 5 -2 202.992 182.696 2
5 -12 2 292.466 212.396 2
-12 7 2 254.662 173.375 1
7 -12 -2 356.735 257.834 4
5 7 -2 84.2271 143.29 4
5 -12 2 835.692 316.243 4
-12 5 -2 370.15 230.532 1
5 -12 2 601.682 305.86 1
7 -12 -2 151.036 149.075 1
7 5 5 186.786 140.832 1
7 5 5 70.1509 130.082 2
5 7 -5 432.114 168.267 4
-12 5 -5 109.329 263.067 2
-12 7 5 232.282 212.594 2
-12 5 -5 160.147 163.817 1
-12 7 5 562.954 275.659 1
5 -12 5 384.867 292.062 1
7 -12 -5 304.573 260.518 4
7 -12 -5 413.353 192.983 1
5 -12 5 291.982 149.386 3
7 5 8 888.392 367.928 2
-12 7 8 649.987 174.762 4
7 5 8 1277.09 321.156 1
7 -12 -8 2111.66 388.11 1
-12 5 -8 1296.08 503.53 2
5 -12 8 2278.51 572.358 3
-12 5 -8 1721.69 512.908 1
-12 7 11 681.749 223.527 4
5 -12 11 2160.88 607.633 3
-12 5 -11 1721.7 563.975 1
7 5 11 800.513 399.625 2
7 -12 -11 1231.65 336.101 1
7 5 11 861.509 295.564 1
-12 5 -14 518.524 175.495 1
7 -12 -14 430.988 214.03 1
7 5 14 721.162 405.18 2
-12 5 -17 149.854 87.6585 3
7 5 17 49.8378 410.444 2
-12 5 -17 784.756 438.928 1
7 -12 -17 421.267 274.868 1
6 -13 -14 66.105 129.998 1
6 7 14 -208.691 324.397 2
-13 7 -14 -39.1221 244.881 1
7 -13 11 1587.88 708.057 2
6 7 11 1054.04 271.218 1
-13 6 11 1093.02 245.224 4
6 7 11 1078.49 369.434 2
-13 7 -11 1217.32 505.255 1
6 -13 -11 1840.19 354.77 1
6 -13 -8 2657.58 412.809 1
-13 7 -8 1640.97 557.042 1
6 7 8 1309.24 335.427 1
6 7 8 929.146 406.63 2
7 -13 8 1575.34 574.859 2
6 7 5 11349.6 871.227 1
-13 6 5 11816 1291.98 2
-13 7 -5 12895.2 1389.61 1
7 6 -5 10502.2 896.172 4
6 7 5 10704.5 978.468 2
7 -13 5 11819 1365.75 1
-13 7 -5 13361 1528.7 2
7 -13 5 12203 1416.17 2
6 -13 -5 13010 907.486 1
6 -13 -5 10378.6 1297.48 4
-13 6 5 11827 1237.52 1
6 -13 -2 3356.19 675.514 4
7 -13 2 3588.24 663.929 2
7 -13 2 3152.8 715.88 4
6 7 2 3423.04 500.351 1
-13 6 2 3628.52 670.906 2
6 -13 -2 3503.09 542.889 1
-13 7 -2 4606.8 780.83 2
-13 7 -2 4175.26 713.548 1
-13 6 2 3716.08 679.673 1
7 6 -2 4035.4 631.262 4
7 -13 2 4153.16 733.652 1
6 -13 -2 3619.05 458.346 2
7 -13 -1 1118.38 354.843 4
7 -13 -1 1115.53 260.64 2
6 -13 1 2112.75 528.336 4
-13 7 1 1895.2 484.578 2
7 -13 -1 1722.24 395.329 1
6 7 -1 1288.06 395.706 4
-13 6 -1 1770.52 472.922 1
7 6 1 1445.33 343.569 1
6 -13 1 1369.55 363.175 2
-13 6 -1 2156.39 533.233 2
6 -13 1 1593.69 405.216 1
-13 7 1 1101.34 334.82 1
7 -13 -4 589.87 159.844 2
6 -13 4 341.711 224.167 1
-13 7 4 960.153 365.248 2
7 -13 -4 641.802 336.852 4
7 -13 -4 826.259 246.932 1
-13 6 -4 546.425 267.723 2
7 6 4 698.832 235.623 1
7 6 4 804.682 272.321 2
6 7 -4 584.039 204.737 4
-13 7 4 513.625 255.737 1
-13 6 -4 747.846 313.517 1
6 -13 4 704.4 284.046 2
6 -13 7 9497.85 1271.82 1
-13 7 7 6810.91 977.319 1
7 6 7 7323.27 932.487 2
-13 6 -7 8223.3 1103.43 1
-13 6 -7 8858.11 1307.62 2
7 6 7 7775.82 764.064 1
6 -13 7 9337.48 1163.05 3
6 -13 7 9566.4 1309.6 2
7 -13 -7 8092.51 721.84 1
-13 7 10 678.419 182.29 4
7 6 10 1221.94 283.296 1
-13 6 -10 1623.26 509.03 1
7 6 10 1126.88 376.003 2
7 6 13 1906.55 446.449 1
-13 6 -13 2220 650.076 1
7 6 13 1019.12 392.891 2
7 -13 -13 1729.27 368.549 1
6 -13 16 98.0417 456.961 2
7 -13 -16 337.711 213.298 1
-13 6 -16 104.965 299.51 1
7 6 16 -253.498 526.445 2
7 7 0 448.894 151.201 4
7 -14 0 972.588 331.637 2
7 -14 0 535.102 205.356 1
-14 7 0 565.299 181.441 1
7 -14 0 753.663 392.449 4
-14 7 0 323.09 280.078 2
-14 7 3 347.378 298.827 2
7 -14 -3 23.5153 150.732 1
7 -14 -3 -40.8917 281.399 4
7 -14 -3 196.448 127.746 2
7 7 -3 92.705 116.821 4
7 -14 3 -402.228 357.585 4
-14 7 -3 492.599 282.702 1
-14 7 3 -122.908 189.655 1
7 -14 3 246.113 217.556 2
-14 7 -3 724.82 353.174 2
7 -14 3 -612.425 326.233 1
7 7 3 437.821 183.825 1
7 7 -6 1076.02 350.184 4
7 -14 6 603.355 360.909 1
7 7 6 557.393 252.132 1
-14 7 -6 808.608 466.471 2
7 7 6 850.622 303.994 2
-14 7 -6 980.996 446.966 1
-14 7 6 1237.67 461.019 2
7 -14 6 591.805 385.293 2
7 -14 -6 756.186 246.093 1
-14 7 6 1092.54 409.713 1
7 -14 -9 3532.53 492.217 1
7 7 9 3533.3 724.627 2
7 -14 9 4849.01 1054.86 2
-14 7 -9 3377.97 781.943 1
7 7 9 3543.62 536.717 1
-14 7 12 362.502 151.788 4
7 7 12 218.143 141.207 1
7 7 12 -191.517 298.113 2
-14 7 -12 372.644 155.878 1
7 -14 12 478.473 486.413 2
7 -14 -12 593.359 197.958 1
7 -14 -15 1039.51 291.886 1
-14 7 -15 1459.59 610.58 1
7 7 15 897.203 441.524 2
7 -14 15 1457.03 654.515 2
-4 8 0 65177.2 1787.71 2
-4 8 0 68436.1 2031.46 4
-4 8 0 68522.3 2272.08 3
8 -4 0 72237.1 2382.99 2
8 -4 0 73155.7 2337.72 1
-4 8 0 70471 2119.89 1
-4 8 -3 3447.44 492.417 3
-4 8 3 4291.46 426.6 1
8 -4 3 4369.67 662.82 1
-4 -4 -3 3346.09 351.054 1
-4 -4 3 3610.95 504.83 4
-4 8 3 3933.77 615.07 4
-4 -4 -3 3504.26 473.359 2
-4 8 -3 2944.68 505.925 1
8 -4 -3 4819.79 609.741 1
8 -4 3 4145.28 710.215 2
-4 8 -6 1801.14 425.161 1
-4 -4 -6 1122.55 207.938 1
8 -4 6 1272.31 470.082 2
-4 8 -6 1502.57 299.887 3
8 -4 -6 1207.77 287.861 1
8 -4 6 1470.69 433.116 1
-4 -4 -6 1384.89 302.528 2
-4 -4 -6 1380.1 273.014 3
-4 8 -9 4652.54 548.818 3
8 -4 9 5258.5 982.028 2
-4 -4 -9 4064.71 448.67 3
8 -4 9 5172.86 886.42 1
-4 -4 -9 5062.3 578.217 1
-4 8 -9 5753.82 854.188 1
-4 8 -12 216.463 136.528 1
-4 -4 -12 529.278 185.239 1
8 -4 12 -55.0924 268.911 1
8 -4 15 328.564 523.164 2
-4 8 -15 524.13 293.406 1
-4 -4 -15 270.749 216.941 1
-4 8 15 157.155 103.608 3
8 -5 16 812.655 468.777 2
-3 -5 -16 459.664 210.605 1
-3 8 16 559.762 194.413 3
-5 8 -16 700.411 371.888 1
-3 8 13 593.931 257.422 3
-5 8 -13 65.4289 231.15 1
-3 -5 -13 261.425 104.815 1
8 -5 13 98.1566 336.39 2
8 -5 10 754.141 284.982 1
-5 8 -10 372.657 264.626 1
-3 -5 -10 690.387 192.202 1
-3 -5 -10 676.712 194.823 3
-3 8 10 414.353 152.142 3
8 -5 10 1163.36 499.155 2
-3 -5 -7 2758.43 322.944 1
-5 8 -7 3411.28 465.129 3
-3 -5 -7 3057.04 411.873 3
-3 8 7 3711.2 554.337 3
-5 8 -7 3118.47 565.759 1
8 -5 7 4043.15 743.04 1
8 -5 7 3198.2 712.379 2
-3 -5 -7 3541.19 495.107 2
8 -5 4 2692.85 560.771 1
8 -5 4 2549.73 566.727 2
-3 -5 -4 4261.92 546.971 3
8 -3 -4 2730.4 449.608 1
-5 8 -4 3148.1 500.803 3
-3 8 4 3880.11 580.581 3
-5 8 -4 3981.1 650.677 1
-5 -3 4 2431.75 367.813 4
-3 -5 -4 2593.05 387.782 2
-3 8 4 2789.67 543.641 4
-3 -5 -1 9771.31 683.452 2
8 -3 -1 12137.1 970.844 2
-5 8 -1 10304.4 851.104 2
8 -5 1 10867.5 988.911 2
-5 8 -1 10260.9 898.869 1
-3 8 1 10927.4 887.556 4
-3 8 1 9919.19 874.011 3
8 -5 1 11724.8 974.018 1
-3 8 1 10008.7 717.336 1
8 -3 -1 12628.1 957.531 1
-3 -5 2 2390.18 415.971 4
-5 8 2 2530.47 316.51 2
-5 8 2 2436.1 349.767 1
8 -3 2 2181.78 458.692 2
-3 8 -2 2428.1 425.488 3
-5 8 2 1968.67 358.23 4
-3 8 -2 1936.96 377.853 1
8 -5 -2 2603.69 448.025 2
-5 -3 -2 2717.08 399.554 2
-5 -3 -2 2483.06 330.858 1
8 -5 -2 2508.06 450.986 1
8 -3 2 2565.28 473.153 1
-3 -5 5 4899 622.386 4
-5 -3 -5 4841.11 500.576 1
8 -5 -5 6377.68 713.131 1
-5 8 5 6247.77 520.192 1
-5 8 5 6425.09 783.679 4
-3 8 -5 6683.84 677.834 3
-3 8 -5 6507.12 784.926 1
8 -3 5 4666.93 717.716 1
8 -3 5 5098.35 857.406 2
-5 -3 -5 4570.78 608.358 2
8 -3 8 970.74 333.342 1
-3 8 -8 926.811 250.858 3
-5 -3 -8 1095.91 262.514 1
-3 8 -8 916.48 287.047 1
8 -5 -8 1289.4 331.293 1
-5 -3 -8 985.605 217.678 3
8 -3 8 1078.38 350.849 2
-5 -3 -8 764.467 236.954 2
8 -3 11 751.553 347.897 1
-3 8 -11 282.903 213.846 1
8 -3 11 844.302 441.087 2
-5 -3 -11 112.09 84.5297 3
-5 -3 -11 144.475 134.412 1
-3 -5 14 603.224 269.887 3
8 -3 14 531.242 300.362 1
8 -3 14 930.429 517.727 2
-5 -3 -14 307.716 228.611 1
-3 8 -14 -276.653 284.648 1
-3 8 -17 705.719 277.253 1
-5 -3 -17 956.114 415.544 1
8 -3 17 -76.8274 590.081 2
-3 -5 17 405.083 169.085 3
-2 -6 -17 -29.4805 135.483 1
-2 8 17 510.294 220.114 3
-6 8 -17 261.418 245.656 1
8 -6 17 -28.4218 419.771 2
-6 8 -14 1091 464.697 1
-2 -6 -14 610.539 237.411 1
8 -6 14 1455.28 559.121 2
-2 -6 -11 1890.49 354.242 1
8 -6 11 3087.94 821.24 2
8 -6 11 2506.82 678.332 1
-6 8 -11 1522.62 445.773 1
-6 8 -11 1998.62 331.415 3
-2 8 11 1664.4 317.948 3
-2 8 8 4500.68 595.554 3
-2 -6 -8 4296.42 404.285 1
-2 -6 -8 4118.13 502.938 3
8 -6 8 5007.62 908.696 1
8 -6 8 4944.73 973.889 2
-6 8 -8 5128.88 833.138 1
-6 8 -8 5152.14 593.47 3
8 -6 5 16214.4 1547.21 2
-2 -6 -5 17202.8 1063.53 3
-6 8 -5 17183.4 1132.5 3
-2 8 5 17340.8 1151.81 3
-6 8 -5 17969.6 1385.97 1
-6 -2 5 14224.4 790.132 4
-2 -6 -5 17027.7 925.256 2
8 -2 -5 14815.7 1085.32 1
8 -6 5 16485.7 1452.09 1
-2 8 2 851.051 319.109 3
8 -2 -2 1382.18 350.102 1
8 -6 2 459.017 224.055 2
-2 8 2 1036.86 366.89 4
-2 8 2 987.183 210.975 1
-2 -6 -2 1114.32 206.955 2
8 -6 2 645.938 267.339 1
-6 8 -2 1389.5 387.111 1
-2 -6 -2 743.637 252.456 3
-6 8 -2 1390.24 402.763 2
-2 8 -1 7207.7 718.627 3
8 -6 -1 8107.37 801.678 1
-6 8 1 7657.55 663.101 4
-6 8 1 7549.75 639.398 2
8 -6 -1 7680.12 809.686 2
-2 8 -1 7416.35 721.879 4
8 -2 1 6812.63 730.562 1
-6 -2 -1 6352.59 669.848 2
-2 -6 1 7015.37 757.737 3
-6 -2 -1 6276.84 580.747 1
8 -2 1 7083.01 788.736 2
-2 -6 1 7735.45 831.486 4
-6 8 1 7861.38 704.411 1
-2 8 -1 6439.93 616.261 1
8 -2 4 2725.54 506.766 1
-6 8 4 2725.31 473.226 4
-2 -6 4 2653.56 468.699 3
8 -6 -4 3526.89 415.44 4
-6 -2 -4 2160 360.646 1
8 -2 4 2056.8 522.194 2
-6 8 4 3154.89 448.796 1
-6 -2 -4 2511.46 476.018 2
-2 8 -4 3243.55 478.885 3
-2 8 -4 3601.56 565.693 1
8 -6 -4 3591.26 537.744 1
-6 8 4 2652.93 361.074 2
-2 -6 4 2824.33 481.268 4
-6 -2 -7 687.776 216.778 1
-2 8 -7 533.751 189.157 3
8 -6 -7 467.28 166.637 1
8 -2 7 301.641 162.76 1
-6 -2 -7 585.951 299.722 2
8 -2 7 766.034 312.854 2
-2 8 -7 712.322 313.329 1
-2 -6 7 766.213 258.59 3
-6 -2 -10 1747.64 459.163 2
8 -2 10 1263.14 335.586 1
8 -6 -10 1566.34 366.748 1
-2 -6 10 1506.23 421.602 3
-6 -2 -10 1515.78 321.512 1
-6 -2 -10 1301.53 238.035 3
8 -2 10 1926.79 560.65 2
-2 8 -10 1107.42 364.421 1
8 -2 13 668.026 318.874 1
-6 -2 -13 965.125 353.239 1
-2 8 -13 401.48 216.419 1
-2 -6 13 1034 354.542 3
-2 8 -16 143.511 232.337 1
8 -2 16 -402.51 362.305 2
-6 -2 -16 85.5574 216.022 1
-2 -6 16 3.63467 239.29 3
-1 -7 -15 481.32 251.746 1
-1 8 15 254.745 223.644 2
-1 8 15 531.927 187.635 3
-7 8 -15 244.18 255.356 1
8 -7 15 891.09 747.549 2
8 -7 12 447.907 528.924 2
-1 -7 -12 343.47 184.793 1
-7 8 -12 243.533 292.312 1
-7 8 -12 184.606 99.1826 3
-1 8 12 174.772 152.094 3
-1 8 9 705.487 192.342 3
-1 -7 -9 1502.58 351.442 3
8 -7 9 1391.55 538.681 2
-1 8 9 1121.59 247.87 2
-1 -7 -9 1565.33 273.815 1
-7 8 -9 1503.1 297.341 3
-7 8 -9 470.553 244.867 1
8 -7 9 809.594 317.926 1
-1 8 6 1375.69 328.746 3
-1 -7 -6 1630.79 375.082 3
-1 8 6 1505.12 266.563 2
8 -7 6 690.238 258.62 2
-7 8 -6 1743.1 492.909 2
-7 -1 6 1345.17 234.023 4
-7 8 -6 1793.4 455.12 1
8 -7 6 958.203 365.901 1
-7 8 -3 190.713 198.006 1
8 -1 -3 170.334 115.974 1
8 -7 3 70.1096 176.546 2
-1 -7 -3 495.63 227.078 3
-1 8 3 52.2891 143.49 4
-1 8 3 317.545 185.008 3
8 -7 3 383.042 158.128 1
-7 8 -3 278.881 240.438 2
-7 8 0 1470.73 379.349 1
8 -1 0 1589.12 366.593 1
8 -1 0 1889.56 420.15 2
-1 -7 0 1952.3 466.719 4
8 -7 0 1410.73 377.017 2
-1 8 0 2207.34 412.473 4
-7 -1 0 1521.98 372.281 2
-7 -1 0 1785.14 380.887 1
-1 -7 0 1349.27 362.836 3
-1 8 0 1669.35 368.952 3
-1 8 0 1480.58 297.064 1
-7 8 0 2005.61 417.61 2
8 -7 0 2124.62 451.746 1
8 -1 3 2915.6 583.272 2
8 -1 3 2652.52 445.639 1
-7 -1 -3 2695.84 501.844 2
-7 8 3 3410.47 493.747 1
-1 8 -3 3341.05 490.298 3
8 -7 -3 2965.2 484.827 1
-1 -7 3 2727.65 473.939 3
-1 -7 3 2956.34 502.069 4
-7 -1 -3 2933.48 446.214 1
-7 8 3 2817.8 411.822 2
-7 8 3 2721.03 417.984 4
8 -7 -3 3137.95 421.187 4
8 -7 -3 3308.17 502.645 2
8 -1 6 656.573 247.306 1
-7 -1 -6 1223.62 361.558 2
-7 8 6 541.935 152.337 1
-7 8 6 1182.28 290.095 4
-7 -1 -6 556.203 177.783 1
-1 -7 6 306.206 172.905 3
8 -7 -6 1081.31 310.927 1
8 -1 6 1126.54 415.575 2
-1 8 -6 964.905 263.512 3
8 -1 9 1028.04 383.225 2
8 -7 -9 1024.47 260.074 1
-1 -7 9 1224.34 394.511 3
-1 8 -9 1268.61 384.74 1
8 -1 9 1090.37 304.568 1
-7 -1 -9 1160.8 395.497 2
-7 -1 -9 1233.56 387.184 1
-1 8 -12 453.319 324.875 1
8 -1 12 751.038 525.737 2
-7 -1 -12 183.444 81.3699 3
-7 -1 -12 15.8546 224.203 1
8 -1 12 565.141 332.783 1
8 -1 15 1014.67 419.666 1
-1 -7 15 706.227 375.671 3
-1 8 -15 552.25 377.636 1
8 -1 15 1036.02 517.897 2
-7 -1 -15 -176.071 346.126 1
8 -8 16 326.206 361.652 2
-8 8 -16 205.181 208.454 1
0 -8 -16 185.76 176.161 1
0 8 16 184.156 312.614 2
0 8 13 -32.0991 179.489 3
0 -8 -13 384.338 195.391 1
-8 8 -13 301.155 130.103 3
8 -8 13 -202.207 386.947 2
0 8 13 680.998 292.605 2
-8 8 -13 122.783 166.429 1
0 8 10 1883 379.132 3
0 8 10 2354.15 488.226 2
-8 8 -10 3608.52 795.328 1
0 -8 -10 3226.64 395.232 1
-8 8 -10 2914.67 453.353 3
8 -8 10 2542.78 686.181 2
8 -8 10 3194.31 790.84 1
0 -8 -7 3842.66 524.023 3
0 8 7 3921.83 455.806 2
-8 8 -7 3301.18 681.281 2
-8 8 -7 3645.69 685.095 1
8 -8 7 4007.38 810.572 2
8 -8 7 4403.3 827.686 1
0 8 7 3575.71 507.731 3
0 -8 -4 55664.6 2050.24 3
-8 8 -4 55161.3 2514.36 1
8 0 -4 55889 2117.78 1
8 -8 4 53748.1 2637.36 1
8 -8 4 53003.4 2688.24 2
0 8 4 52914 1988.74 3
-8 8 -4 55598.1 2561.4 2
-8 0 1 4931.06 621.628 1
0 8 1 5570.28 650.34 3
-8 8 -1 6499.15 756.484 2
-8 8 -1 6253.36 764.612 1
-8 0 1 5266.07 674.858 2
8 0 -1 4836.12 608.55 1
0 -8 -1 5020.2 667.876 3
0 -8 -1 5125.49 776.968 4
8 -8 1 5668.85 729.96 1
8 -8 1 6156.04 778.311 2
0 8 1 6029.94 776.206 4
0 -8 2 16941.7 1324.81 4
8 0 2 20821.1 1310.79 1
-8 0 -2 19740.2 1259.02 1
8 -8 -2 18877.2 1168.24 2
8 -8 -2 19084.1 1189.82 4
-8 8 2 23375.2 1395.42 1
0 -8 2 21023.8 1349.18 3
8 -8 -2 18407.4 1208.81 1
8 0 2 20270.2 1409.05 2
-8 0 -2 18307.8 1338.79 2
-8 8 2 25213.2 1370.1 2
0 8 -5 2997.41 469.4 3
-8 8 5 2537.84 405.845 4
8 0 5 2588.41 507.342 2
8 0 5 3274.95 550.21 1
8 -8 -5 2991.76 466.986 1
-8 8 5 2265.26 417.052 1
0 -8 5 2687.26 520.719 4
-8 8 5 2940.6 461.583 2
-8 0 -5 2580.95 432.119 1
-8 0 -5 3219.14 612.868 2
0 -8 5 2584.2 488.569 3
8 -8 -5 2270.25 391.002 4
-8 0 -8 14949.7 1482.3 2
-8 0 -8 15466.7 1234.66 1
0 -8 8 17619.4 1352.72 3
8 -8 -8 14566.2 1061.07 1
-8 8 8 15695.7 1229.36 4
8 0 8 15418.1 1342.97 1
8 0 8 17199.7 1647.52 2
8 0 11 2360.2 737.709 2
8 0 11 1221.19 430.822 1
-8 0 -11 677.702 370.907 1
0 -8 11 1328.6 468.914 3
8 -8 -11 1465.17 361.212 1
-8 0 -11 1081.71 477.955 2
8 0 14 912.124 329.267 2
-8 0 -14 459.937 293.274 1
8 0 14 1227.5 474.052 1
0 -8 14 818.446 380.088 3
0 8 -14 441.419 229.297 1
-8 0 -17 248.064 170.764 1
0 8 -17 -291.459 273.863 1
8 0 17 871.175 658.297 2
0 -8 17 429.246 303.26 3
8 -9 17 -67.7317 384.318 2
1 -9 -17 335.468 201.237 1
1 8 17 -531.552 593.643 2
-9 8 -17 1.77826 167.534 1
-9 8 -14 305.212 270.192 1
1 -9 -14 906.764 273.314 1
1 8 14 774.65 471.688 2
8 -9 14 1563.88 862.438 2
-9 8 -14 621.035 184.701 3
-9 8 -11 412.561 305.08 1
1 -9 -11 246.691 100.717 1
1 8 11 480.26 225.023 3
-9 8 -11 282.079 100.092 3
1 8 11 389.979 190.946 2
8 -9 11 -85.0347 490.67 2
8 -9 8 3428.11 797.518 2
1 8 8 1998.93 406.686 3
-9 8 -8 2528.05 593.038 1
1 8 8 2726.95 452.192 2
8 -9 8 3684.86 843.471 1
-9 8 -8 2995.45 761.617 2
-9 8 -5 275.803 217.456 1
8 -9 5 -57.9228 265.634 1
1 8 5 301.756 90.0032 2
1 -9 -5 503.904 180.241 3
1 8 5 444.817 167.011 3
8 -9 5 385.233 209.558 2
8 -9 2 1101.55 382.593 1
-9 8 -2 2065.35 520.4 1
-9 8 -2 1962.6 486.531 2
8 -9 2 1183.34 434.017 2
1 -9 -2 1120.04 356.743 3
8 1 -2 1400.96 386.868 1
1 8 2 1379.06 414.816 4
-9 1 2 1887.5 465.463 1
1 8 2 1423.03 363.591 3
1 -9 -2 1213.81 424.655 4
-9 1 2 1846.07 437.394 2
-9 1 -1 1997.96 425.447 1
8 -9 -1 3065.33 571.979 4
1 -9 1 2072.39 436.228 4
8 1 1 2792.99 498.814 1
1 8 -1 2880.48 532.557 4
8 -9 -1 2702.25 449.548 2
8 1 1 2510.14 504.828 2
1 8 -1 2824.12 506.15 3
-9 8 1 3263.31 557.793 1
-9 1 -1 2514.09 527.46 2
1 -9 1 2465.73 468.475 3
-9 8 1 2982.84 541.283 2
8 -9 -1 2903.77 500.603 1
-9 1 -4 9631.87 1045.03 2
8 -9 -4 10723.4 929.153 1
-9 8 4 9059.73 852.557 2
-9 8 4 8705.35 677.665 4
1 -9 4 11011.5 1152.03 4
-9 8 4 9911.42 938.154 1
8 -9 -4 10267 956.822 4
8 1 4 8740.9 994.041 2
1 -9 4 9750.28 996.623 3
-9 1 -4 9162 907.098 1
8 1 4 9242.39 875.117 1
8 -9 -7 8027.11 797.323 1
-9 8 7 6769.98 711.563 4
-9 1 -7 7306.98 1012.63 2
1 -9 7 7567.78 889.242 3
-9 1 -7 7795.01 910.8 1
8 1 7 7549.47 870.811 1
8 1 7 6640.53 933.941 2
1 -9 10 1605.37 459.009 3
8 1 10 909.376 400.132 2
8 -9 -10 1133.83 276.17 1
-9 1 -10 1645.3 539.842 2
-9 1 -10 1055.19 396.028 1
8 1 10 1320.51 395.407 1
8 1 13 173.698 295.943 1
8 -9 -13 729.951 250.51 1
8 1 13 1784.42 675.279 2
-9 1 -13 612.289 319.215 1
1 -9 13 1648.46 518.533 3
1 -9 16 830.233 374.533 3
-9 1 -16 900.829 478.98 1
8 1 16 34.3458 269.304 2
1 8 -16 -360.324 319.417 1
2 -10 -15 249.427 149.154 1
-10 8 -15 516.987 417.044 1
2 8 15 3.3702 257.873 2
-10 8 -15 265.615 69.994 3
2 8 12 1535.4 413.827 2
8 -10 12 1722.95 672.893 2
-10 8 -12 960.591 225.963 3
-10 8 -12 1578.87 462.435 1
2 -10 -12 1358.32 261.056 1
-10 8 -9 2068.9 631.635 2
-10 8 -9 1792.29 516.455 1
8 -10 9 2208.39 612.1 1
2 8 9 1774.69 402.933 2
2 8 9 1240.46 317.208 3
8 -10 9 2645.79 766.261 2
8 -10 6 2959.8 728.657 1
-10 8 -6 2991.08 715.769 2
8 -10 6 3332.72 787.144 2
2 8 6 2504.97 375.117 2
2 8 6 1723.58 378.874 3
2 -10 -6 3144.98 547.695 3
-10 8 -6 3088 685.994 1
8 2 -3 12093.1 1030.34 1
8 -10 3 7259.08 994.249 1
2 -10 -3 7469.98 1018.1 4
-10 2 3 13799.5 1234.9 2
-10 8 -3 8707.94 1029.26 2
2 8 3 11159 963.45 3
2 -10 -3 8116.47 904.641 3
8 -10 3 6981.83 1014.62 2
-10 8 -3 8789.93 1050.22 1
-10 2 3 11205.6 1066.59 1
8 2 -3 11409 793.389 4
-10 2 0 2457.62 548.815 1
8 -10 0 953.497 405.344 1
-10 2 0 1644.2 507.356 2
-10 8 0 1780.63 525.77 2
8 -10 0 1136 365.29 2
2 -10 0 1182.68 459.519 3
2 8 0 2344.09 525.22 4
2 -10 0 1592.04 491.414 4
8 2 0 2052.57 471.823 1
8 -10 0 1341.39 456.457 4
-10 8 0 1382.88 469.988 1
8 -10 -3 5165.75 619.517 1
8 2 3 5115.25 718.134 2
8 2 3 5150.37 654.551 1
-10 2 -3 5078.23 780.921 2
2 -10 3 5590.58 810.664 4
8 -10 -3 5858.81 734.503 4
2 -10 3 5629 751.428 3
-10 8 3 5952.84 758.708 1
8 -10 -3 5373.77 594.577 2
2 8 -3 5440.39 647.43 4
-10 8 3 5651.85 721.999 2
-10 2 -3 4662.65 692.487 1
-10 2 -6 6682.88 963.855 2
-10 8 6 5149.78 520.276 4
-10 8 6 5260.67 699.11 1
2 -10 6 7030.33 869.024 3
-10 2 -6 5877.85 786.277 1
8 2 6 7006.48 795.399 1
8 -10 -6 6065.15 681.912 1
8 2 6 6453.24 872.524 2
2 -10 9 2580.67 544.207 3
8 2 9 1861.89 423.298 1
-10 8 9 2299.5 446.847 4
-10 2 -9 2405.7 549.158 1
-10 2 -9 1872.57 504.053 2
8 -10 -9 2293.39 427.539 1
8 2 9 1878.06 571.094 2
2 -10 12 3768.67 728.75 3
8 -10 -12 2288.04 457.25 1
8 2 12 3677.96 873.307 2
-10 2 -12 2681.06 615.196 1
8 2 12 2896.9 631.228 1
2 -10 15 239.161 325.977 3
-10 2 -15 -47.849 279.896 1
8 2 15 83.8576 292.868 1
8 -10 -15 289.43 127.27 1
8 2 15 400.782 267.242 2
-11 8 -16 -129.889 133.157 3
-11 8 -16 102.581 394.548 1
3 8 16 -221.751 304.396 2
8 -11 16 -195.501 637.653 2
3 -11 -16 -166.503 163.782 1
3 -11 -13 324.708 127.64 1
8 -11 13 82.5534 248.192 2
-11 8 -13 117.895 289.92 1
-11 8 -10 3645.15 755.241 1
3 8 10 3712.78 594.335 2
8 -11 10 5304.53 1069.61 2
3 -11 -10 3919.79 397.773 1
-11 8 -7 856.769 357.517 1
3 8 7 503.789 230.519 2
8 -11 7 1079.51 411.01 2
8 -11 7 1188.67 501.67 1
-11 8 -7 650.916 362.984 2
3 8 4 3388.61 350.325 1
-11 8 -4 4078.64 731.22 1
8 3 -4 3702.88 455.726 4
-11 3 4 3030.26 575.954 1
8 -11 4 3345.33 692.773 1
-11 8 -4 4388.47 764.56 2
8 -11 4 3417.99 690.183 2
3 -11 -4 3039.45 336.98 1
3 -11 -4 4300.26 676.297 3
-11 3 4 3340.1 588.745 2
3 8 4 3031.01 376.432 2
3 -11 -1 5067.49 487.249 2
-11 8 -1 5881.62 828.033 1
3 -11 -1 4699.77 534.223 1
-11 8 -1 5880.75 820.282 2
-11 3 1 4962.75 767.547 2
8 3 -1 5609.43 707.468 1
3 -11 -1 5285.58 767.363 3
8 -11 1 5559.51 790.964 2
3 -11 -1 4452.69 769.701 4
-11 3 1 5093.4 787.042 1
8 -11 1 5634.57 792.388 1
3 8 1 4940.63 783.452 4
-11 3 -2 9430.39 1136.52 2
3 8 -2 9875.89 978.716 4
8 -11 -2 9786.32 865.344 2
8 3 2 8721.94 922.861 2
3 -11 2 9410.78 1016.96 3
-11 3 -2 9968.21 1059.27 1
8 -11 -2 9386.01 1026.92 4
3 -11 2 8605.15 1028.88 4
8 -11 -2 9996.24 916.62 1
8 3 2 8914.36 866.604 1
-11 8 2 8905.63 987.487 2
-11 8 2 10365.5 1076.94 1
8 -11 -5 7830.08 756.511 1
-11 3 -5 7473.69 1028.11 2
8 3 5 7548.84 911.395 2
-11 8 5 8320.87 926.383 2
8 -11 -5 7326.24 921.189 4
-11 3 -5 7981.93 950.247 1
8 3 5 7626.03 783.473 1
3 -11 5 7883.83 967.058 3
-11 8 5 8239.51 936.456 1
8 3 8 3177.4 688.894 2
-11 3 -8 3154.4 671.502 1
8 -11 -8 3731.74 560.704 1
-11 3 -8 3632.38 825.763 2
-11 8 8 2806.01 420.228 4
3 -11 8 5112.24 873.431 3
8 3 8 3066.94 556.156 1
3 -11 11 3464.98 690.286 3
8 3 11 2417.69 691.467 2
-11 3 -11 1776.52 489.695 1
8 -11 -11 1984.25 430.781 1
8 3 11 2050.05 485.683 1
3 -11 14 -50.6386 175.072 3
8 3 14 169.989 168.947 1
-11 3 -14 -232.433 246.74 1
8 -11 -14 329.022 137.876 1
8 -11 -17 64.3611 110.803 1
3 -11 17 -18.6381 183.911 3
-11 3 -17 147.323 274.536 1
4 8 14 -71.5466 225.492 2
-12 8 -14 -249.838 280.27 1
4 -12 -14 -79.7611 110.942 1
4 -12 -11 1003.32 256.719 1
-12 8 -11 153.885 243.491 1
4 8 11 172.26 169.547 2
8 -12 11 209.181 358.398 2
4 8 8 1157.27 222.5 1
8 -12 8 1795.4 618.642 2
8 -12 8 1602.81 549.106 1
-12 8 -8 3133.08 742.148 1
4 -12 -8 3939.66 364.341 1
4 8 8 2104.15 470.293 2
-12 8 -8 3125.66 841.496 2
8 -12 5 947.864 427.346 1
4 -12 -5 906.556 226.063 1
8 -12 5 1042.45 448.145 2
-12 4 5 2096.27 519.377 1
-12 8 -5 960.441 426.494 1
-12 8 -5 1087 401.553 2
8 4 -5 1550.99 305.201 4
4 8 5 1421.2 282.941 1
4 8 5 1211.25 278.116 2
-12 4 2 112.077 178.396 1
8 -12 2 31.5352 147.449 2
4 -12 -2 -13.1898 143.4 2
-12 8 -2 301.941 248.139 2
-12 8 -2 56.6617 161.004 1
-12 4 2 232.184 255.261 2
4 -12 -2 -173.737 292.083 4
4 -12 -2 118.906 133.735 1
8 -12 2 789.335 356.798 1
8 4 -2 627.354 279.662 4
4 -12 -2 298.168 244.51 3
4 8 -1 1196.07 351.544 4
-12 4 -1 457.527 304.131 2
4 -12 1 776.383 262.297 2
4 -12 1 908.492 256.796 1
8 -12 -1 1014.38 365.56 4
4 -12 1 861.879 285.629 3
-12 8 1 852.057 335.32 1
8 -12 -1 983.373 317.117 1
8 4 1 1116.34 343.118 1
-12 8 1 1236.57 416.686 2
4 -12 1 572.898 305.275 4
8 -12 -1 1154.05 294.772 2
-12 4 -1 617.003 286.681 1
-12 4 -4 5320.88 834.054 1
8 -12 -4 5419.41 616.289 2
4 8 -4 4369.64 616.827 4
-12 8 4 4571.32 758.963 1
8 -12 -4 5411.49 885.616 4
-12 8 4 4143.32 699.602 2
8 -12 -4 4279.42 611.848 1
-12 4 -4 5574.4 930.731 2
4 -12 4 4418.78 910.712 4
4 -12 4 4542.86 830.082 3
8 4 4 4181.11 674.408 2
4 -12 4 4006.4 690.501 1
8 4 4 3885.66 568.306 1
-12 4 -7 7566.79 1146.76 2
-12 8 7 7158.8 976.124 1
8 4 7 5415.67 868.099 2
4 -12 7 7637.78 1032.2 3
8 -12 -7 8531.3 835.973 1
-12 8 7 6328.62 536.447 4
-12 4 -7 7407.93 1020.99 1
8 4 7 6482.85 762.702 1
-12 8 10 8155.44 818.691 4
8 4 10 7326.86 1102.08 2
8 4 10 8056.44 904.03 1
-12 4 -10 8198.22 1113.35 1
8 -12 -10 8116.5 839.751 1
4 -12 10 9383.64 1152.57 3
-12 4 -13 706.141 364.494 1
8 4 13 440.861 421.78 2
4 -12 13 591.248 372.401 3
8 -12 -13 423.857 163.354 1
8 4 13 121.747 112.206 1
-12 4 -16 -228.016 285.88 1
8 4 16 -156.227 540.872 2
8 -12 -16 -73.0405 211.406 1
4 -12 16 -338.848 348.657 3
5 -13 -15 82.4756 75.4386 1
5 8 15 192.712 206.752 2
-13 8 -15 263.964 303.892 1
8 -13 15 -418.415 757.933 2
5 8 12 390.216 280.132 2
5 -13 -12 1141.27 283.76 1
8 -13 12 687.168 491.248 2
-13 8 -12 1120.12 506.914 1
-13 8 -9 2633.71 722.326 1
8 -13 9 1415.59 517.052 2
5 8 9 2077.23 488.618 2
5 -13 -9 2489.86 349.659 1
5 8 9 1315.64 274.989 1
8 5 -6 1136.77 292.959 4
8 -13 6 803.897 355.362 1
8 -13 6 1521.25 473.828 2
5 -13 -6 1376.02 249.297 1
-13 5 6 1331.96 441.772 1
5 8 6 1074.59 292.101 2
-13 8 -6 1589.97 583.124 2
-13 8 -6 1264.19 459.767 1
5 8 6 1121.65 252.134 1
5 8 3 1786.45 334.584 1
-13 8 -3 2106.5 608.309 1
8 -13 3 853.901 293.1 1
8 5 -3 1902.2 427.729 4
-13 5 3 1721.03 499.52 2
-13 8 -3 2103.82 566.475 2
5 -13 -3 662.682 164.265 2
5 -13 -3 815.953 324.729 4
5 -13 -3 1110.98 278.971 1
-13 5 3 1550.71 448.466 1
8 -13 3 919.194 381.858 2
-13 5 0 2206.26 498.38 2
5 -13 0 2678.83 503.481 1
8 -13 0 2871.37 634.406 4
-13 5 0 2485.6 526.933 1
5 -13 0 2140.2 365.061 2
5 8 0 2170.68 527.795 4
-13 8 0 2442.27 528.942 2
5 -13 0 2933.51 567.848 3
8 5 0 2293.05 418.178 1
-13 8 0 2671.45 579.392 1
5 -13 0 2624.04 605.245 4
8 -13 0 2509.64 537.995 1
8 -13 0 2849.19 515.91 2
8 -13 -3 3810.86 509.787 2
5 -13 3 3514.19 681.97 3
8 5 3 3933.32 636.188 2
5 8 -3 4439.4 638.437 4
5 -13 3 4466.86 725.307 2
-13 5 -3 3639.51 733.926 2
5 -13 3 4657.14 903.523 4
-13 8 3 4496.84 748.146 1
8 5 3 3868.11 566.341 1
5 -13 3 4087.05 666.331 1
-13 5 -3 4214.02 723.297 1
8 -13 -3 4559.28 625.911 1
8 -13 -3 3610.72 668.482 4
-13 8 3 4122.24 699.369 2
8 -13 -6 3228.37 498.553 1
5 -13 6 3277.45 671.855 3
8 5 6 3250.44 632.074 2
-13 8 6 4095.48 751.252 2
-13 8 6 3838.73 707.859 1
8 5 6 3353.77 522.685 1
-13 5 -6 3892.78 746.048 1
-13 5 -6 3329.62 767.176 2
5 -13 9 653.75 287.714 3
8 -13 -9 963.213 312.746 1
-13 8 9 546.648 142.994 4
-13 5 -9 1153.86 490.574 1
8 5 9 104.071 173.817 2
8 5 9 509.641 194.485 1
8 5 12 1019.41 333.834 1
-13 8 12 902.901 263.75 4
8 -13 -12 1316.41 346.044 1
8 5 12 1204.76 518.348 2
5 -13 12 2009.26 619.635 3
-13 5 -12 1431.45 487.168 1
8 5 15 332.544 342.9 2
-13 5 -15 -305.595 397.855 1
8 -13 -15 147.477 166.459 1
8 5 15 -78.474 318.208 1
6 -14 -16 -59.47 131.813 1
-14 8 -16 513.085 431.139 1
6 8 16 -318.46 422.673 2
8 -14 16 386.529 446.034 2
6 -14 -13 344.189 147.454 1
6 8 13 729.932 338.35 2
8 -14 13 237.645 282 2
-14 6 13 304.154 172.676 4
-14 8 -13 693.605 459.695 1
8 -14 10 105.127 312.117 2
6 -14 -10 240.184 134.098 1
6 8 10 194.523 182.99 2
6 8 10 51.4117 169.842 1
-14 8 -10 476.115 274.258 1
6 8 7 1398.51 413.243 2
-14 8 -7 1686.96 520.287 1
8 -14 7 927.148 452.186 2
6 8 7 1295.84 292.406 1
6 -14 -7 962.418 224.099 1
6 -14 -4 2264.81 423.632 1
-14 6 4 3036.3 692.069 2
6 -14 -4 1903.83 282.597 2
6 -14 -4 2100.04 582.364 4
8 -14 4 2302.2 600.214 1
6 8 4 2757.37 460.11 1
-14 6 4 3389.37 711.304 1
6 8 4 2520.88 471.809 2
8 6 -4 3465.63 556.319 4
-14 8 -4 3924.76 775.014 1
-14 8 -4 3758.8 837.784 2
8 -14 4 1841.06 559.296 2
-14 6 1 1376.83 422.371 1
6 -14 -1 803.528 341.195 4
6 -14 -1 1410.47 355.242 1
6 -14 -1 1093.26 305.398 2
8 -14 1 915.907 282.044 1
8 -14 1 606.226 163.664 2
-14 8 -1 572.007 240.785 1
8 -14 1 522.276 186.016 4
-14 8 -1 1242.93 383.799 2
8 6 -1 768.458 290.182 4
-14 6 1 1307.39 400.969 2
8 -14 -2 1474.85 386.902 1
6 -14 2 1608.71 419.114 2
-14 6 -2 1748.33 488.462 2
8 6 2 1647.6 362.438 1
-14 8 2 1465.32 483.175 1
6 8 -2 2552.93 578.101 4
6 -14 2 1770.85 439.483 1
8 -14 -2 2061.26 387.668 2
-14 8 2 2167.24 523.558 2
8 -14 -2 1792.66 443.567 4
6 -14 2 1855.78 658.158 4
-14 6 -2 2102.3 511.59 1
8 -14 -5 1324.23 439.542 4
6 -14 5 1257.83 362.773 3
-14 6 -5 951.865 455.859 1
6 -14 5 1090.11 397.255 1
8 6 5 1117.54 338.747 1
-14 8 5 661.208 246.204 1
-14 8 5 974.653 415.708 2
-14 6 -5 764.782 372.132 2
6 8 -5 1107.82 314.5 4
8 -14 -5 1159.78 320.287 1
8 6 5 1376.44 420.887 2
6 -14 5 1812.37 580.3 2
-14 6 -8 1957.92 576.216 1
6 -14 8 2780.43 713.277 2
8 6 8 1147.66 339.873 2
6 -14 8 2075.82 558.953 3
8 -14 -8 1180.4 306.423 1
8 6 8 1725.92 409.495 1
8 6 11 2842.7 501.562 1
8 6 11 3105.78 726.976 2
-14 6 -11 3349.14 742.137 1
-14 8 11 2359.69 365.483 4
8 -14 -11 3840.63 598.202 1
8 6 14 1424.34 366.9 1
-14 8 14 751.035 263.565 4
-14 6 -14 1338.2 516.102 1
8 6 14 1346.62 461.473 2
8 -14 -14 1337.2 380.378 1
-15 7 14 490.886 213.232 4
8 -15 14 144.712 288.594 2
-15 8 -14 583.059 368.651 1
7 8 14 26.6186 156.991 2
7 -15 -14 314.316 105.526 1
8 -15 11 8115.44 1559.33 2
-15 8 -11 6195.81 1088.29 1
7 8 11 5448.26 655.465 1
7 -15 -11 5939.47 644.749 1
7 8 11 6333.66 994.545 2
8 -15 8 686.629 337.465 2
7 8 8 754.082 378.968 2
-15 8 -8 1145.72 533.836 1
7 8 8 939.769 279.756 1
7 -15 -8 829.571 253.09 1
-15 7 5 3749.85 752.387 2
-15 8 -5 6333.39 1061.31 2
8 -15 5 7862.23 1147.57 2
7 8 5 5427.56 656.329 1
7 -15 -5 6610.26 700.044 1
8 -15 5 7687.33 1193.21 1
-15 8 -5 5842.74 985.897 1
7 -15 -5 5159.6 953.986 4
-15 7 5 4825.68 837.542 1
7 8 5 6007.46 760.717 2
8 7 -5 4050.5 574.841 4
7 -15 -2 3963.31 842.922 4
7 8 2 3294.5 520.61 1
8 -15 2 4664.76 796.607 1
8 -15 2 4739.55 766.302 2
8 -15 2 4558.03 963.062 4
-15 7 2 3276.77 625.965 1
-15 8 -2 3993.41 800.579 2
7 -15 -2 3917.87 508.742 2
-15 7 2 3057.12 636.435 2
8 7 -2 3605.71 639.87 4
-15 8 -2 3515.36 693.625 1
7 -15 -2 4029.32 621.599 1
-15 7 -1 12175.1 1285.61 1
-15 7 -1 11866.5 1297.83 2
-15 8 1 10755.3 1262.21 2
7 -15 1 11807.7 1147.44 2
7 -15 1 11707.6 1232.29 1
8 -15 -1 11933.8 1039.55 2
8 -15 -1 11241.2 1143.14 1
7 -15 1 11405.8 1511.55 4
7 8 -1 9624.95 1101.75 4
-15 8 1 10225.7 1182.16 1
8 -15 -1 11050.1 1416.15 4
8 7 1 8932.94 918.959 1
8 -15 -4 2765.63 695.653 4
8 -15 -4 3223.36 475.342 2
7 -15 4 3816.21 783.533 2
8 -15 -4 3257.08 565.76 1
-15 7 -4 3205.13 745.903 1
7 -15 4 3907.87 973.898 4
-15 8 4 3482.77 734.458 1
-15 7 -4 3580.07 821.953 2
7 -15 4 3675.35 759.061 1
8 7 4 2630.92 482.006 1
-15 8 4 3027.35 631.382 2
8 7 4 2806.88 554.234 2
7 8 -4 3415.29 596.87 4
-15 7 -7 4202.06 850.476 1
-15 8 7 3376.48 786.167 2
8 7 7 3270.69 549.597 1
8 7 7 3239.86 669.29 2
8 -15 -7 2862.72 459.18 1
7 -15 7 4807 1017.44 2
-15 8 7 2962.21 730.242 1
7 -15 10 2223.55 797.748 2
8 -15 -10 1920.55 395.684 1
8 7 10 1575.67 389.351 1
8 7 10 1567.47 523.382 2
-15 7 -10 1878.44 631.376 1
7 -15 13 -94.6506 409.443 2
-15 8 13 241.035 103.202 4
8 7 13 157.244 228.291 2
-15 7 -13 201.47 168.653 1
8 7 13 416.415 210.23 1
8 -15 -13 259.777 130.871 1
7 -15 16 61.5791 341.033 2
-15 8 16 296.202 198.837 4
8 7 16 188.639 218.876 2
8 -16 0 9965.67 1131.07 1
8 8 0 9567.13 1195.84 4
-16 8 0 9751.47 1193.62 1
8 8 0 9547.51 1024.85 1
8 -16 0 9792 1029.59 2
8 -16 0 8961.73 1375.48 4
-16 8 0 10165.3 1259.3 2
8 8 3 9110.79 931.679 1
8 -16 -3 9953.24 842.969 2
-16 8 3 9144.82 1196.19 2
8 -16 3 9459.92 1220.53 1
-16 8 -3 10552.6 1289.21 1
8 -16 3 9016.43 1419.65 4
8 -16 3 9872.48 1273.41 2
-16 8 3 10444.9 1262.42 1
8 -16 -3 10643.1 1066.49 1
8 -16 -3 9456.94 1368.74 4
-16 8 -3 11721.2 1422.04 2
8 8 -3 9426.46 1028.83 4
-16 8 -6 6420.39 1076.36 1
8 -16 6 8236.06 1264.95 2
8 8 6 6855.31 775.038 1
-16 8 6 6905.2 1077.12 2
8 8 6 6559.69 873.2 2
8 -16 -6 6374.3 709.413 1
8 8 -6 5383.79 704.384 4
8 -16 -6 5955.86 1059.91 4
-16 8 6 6241.78 1012.89 1
8 -16 9 420.13 287.41 2
-16 8 -9 1001.5 477.378 1
8 8 9 389.538 220.145 1
8 8 9 349.235 227.643 2
8 -16 -9 616.861 233.922 1
8 8 12 -29.1841 99.0994 1
8 -16 12 513.597 599.812 2
8 -16 -12 391.966 123.536 1
-16 8 -12 298.396 358.937 1
8 8 12 -14.055 243.615 2
8 8 15 443.422 377.246 2
8 -16 15 773.523 657.651 2
-16 8 15 506.756 217.401 4
-16 8 -15 460.083 481.64 1
8 -16 -15 1048.29 398.793 1
9 -5 17 -58.2153 506.125 2
-4 9 17 181.284 169.714 3
-4 -5 -17 367.75 128.449 1
-5 9 -17 -44.348 200.378 1
9 -5 14 2000.04 788.694 2
-4 9 14 1351.64 368.196 3
-5 9 -14 1456.31 499.577 1
-4 -5 -14 1433.74 335.891 1
9 -5 11 1100.56 382.179 2
9 -5 11 622.135 265.795 1
-4 9 11 641.356 145.818 3
-5 9 -11 727.242 205.674 3
-4 -5 -11 724.45 193.667 3
-5 9 -11 464.64 199.257 1
-4 -5 -11 633.354 212.222 1
9 -5 8 -275.513 297.566 1
9 -4 -8 43.781 197.508 1
-4 9 8 591.159 273.804 3
-4 -5 -8 94.5397 126.921 3
9 -5 8 -98.654 352.822 2
-5 9 -8 242.353 148.939 3
-4 -5 -8 -83.8823 191.741 2
-4 -5 -8 140.592 116.143 1
-5 9 -8 340.253 295.182 1
9 -5 5 1834.5 511.655 1
-5 -4 5 1451.46 321.6 4
9 -5 5 2115.87 633.275 2
-4 -5 -5 1822.49 259.755 1
-4 9 5 2236.99 475.892 3
-4 -5 -5 2221.15 424.372 2
-4 9 5 2169.42 280.198 1
-5 9 -5 1573.2 327.352 3
-4 -5 -5 1878.53 378.99 3
9 -4 -5 2645.94 471.163 1
-5 9 -5 1762.96 398.558 1
-4 9 5 1917.29 499.198 4
9 -4 -2 5542.56 683.094 1
-4 9 2 5496.65 526.356 1
-4 -5 -2 5223.72 529.506 2
9 -5 2 5814.74 744.966 1
-5 9 -2 5344.55 700.257 3
-5 9 -2 4851.78 630.364 2
-4 9 2 5592 702.42 4
-4 9 2 5354.77 702.685 3
-5 9 -2 5404.35 702.797 1
9 -5 2 6131.27 841.22 2
9 -4 -2 5742.35 741.445 2
-5 9 1 5466.8 614.371 1
-5 9 1 5459.16 528.788 2
9 -5 -1 6457.51 742.827 1
-5 9 1 5263.5 654.743 4
9 -4 1 6125.21 751.315 1
-4 9 -1 6169.85 725.858 3
9 -5 -1 6078.3 753.156 2
-5 -4 -1 5700.88 612.807 2
-4 9 -1 6626.9 703.326 4
9 -4 1 6331.52 792.203 2
-4 9 -1 6239.85 724.339 1
-4 9 -4 1967 411.622 1
-5 -4 -4 2520.35 348.358 1
-5 9 4 2249.48 293.302 2
-4 -5 4 2055.71 400.34 4
9 -4 4 2181.78 586.183 2
-4 9 -4 2474.33 465.661 3
-5 -4 -4 1983.45 390.857 2
9 -5 -4 3062.29 525.111 1
9 -4 4 2508.96 534.869 1
-5 9 4 3155.69 602.91 4
-5 9 4 3204.78 414.4 1
-5 -4 -7 474.088 144.242 1
-4 9 -7 448.778 126.894 3
9 -4 7 615.58 329.548 1
9 -5 -7 968.538 325.958 1
9 -4 7 353.36 177.564 2
-5 -4 -7 579.051 140.489 3
-4 9 -7 915.918 342.929 1
-5 -4 -7 496.463 215.443 2
-5 -4 -10 3830.63 450.931 3
-4 9 -10 3880.38 697.74 1
-5 -4 -10 4338.73 569.141 1
-4 9 -10 3948.16 538.625 3
9 -4 10 4775.47 886.003 1
9 -4 10 5624.96 1093.71 2
9 -4 13 1288.71 634.472 2
9 -4 13 938.017 401.004 1
-5 -4 -13 668.888 216.858 1
-4 9 -13 405.525 136.686 1
-5 -4 -13 678.334 172.642 3
9 -4 16 544.832 462.216 2
-5 9 16 156.417 137.936 3
-4 -5 16 232.746 136.14 3
-4 9 -16 -249.339 261.862 1
-5 -4 -16 -20.4752 170.665 1
9 -6 15 725.254 711.573 2
-3 -6 -15 873.168 334.278 1
-6 9 -15 44.0417 194.913 1
-3 9 15 516.743 233.298 3
-3 9 12 284.315 129.071 3
9 -6 12 323.65 337.592 2
-3 -6 -12 7.94404 119.602 1
-6 9 -12 -123.347 311.485 1
-6 9 -12 63.5749 128.183 3
-6 9 -9 3850.86 732.547 1
-3 9 9 2578.78 478.112 3
-3 -6 -9 2536.46 367.544 1
9 -6 9 3487.87 854.142 2
9 -6 9 3258.65 700.93 1
-6 9 -9 3635.93 523.239 3
-3 -6 -9 2188.95 362.972 3
-6 9 -6 3581.65 663.712 1
-3 9 6 3268.13 517.096 3
9 -6 6 3354.57 692.432 1
9 -3 -6 3519.26 557.803 1
-3 -6 -6 3510.24 489.685 2
-6 -3 6 2787.82 392.783 4
9 -6 6 3519.45 714.579 2
-3 -6 -6 3130.14 473.84 3
-6 9 -6 3535.97 538.047 3
-6 9 -3 3852.36 646.86 1
-6 9 -3 3293.27 601.766 2
-3 9 3 2956.4 363.32 1
-3 9 3 2923.77 526.933 3
9 -3 -3 2720.99 493.062 1
-3 -6 -3 4240.51 605.38 3
-3 9 3 3123.41 590.544 4
-3 -6 -3 3291.99 407.603 2
9 -6 3 2667.48 552.893 1
9 -6 3 3001.05 625.703 2
-6 9 0 7868.63 726.039 2
-6 -3 0 7119.59 738.071 2
-3 9 0 7889.63 790.751 3
9 -3 0 8172.36 843.395 1
-3 -6 0 8302.41 834.965 3
9 -6 0 6867.03 803.803 2
-3 9 0 7003.84 746.552 4
9 -3 0 7836.98 844.63 2
-6 9 0 8140.9 794.296 1
-3 9 0 7471.06 703.038 1
9 -6 0 7290.46 800.014 1
-3 -6 3 763.68 295.559 4
-3 9 -3 622.573 256.707 1
-6 9 3 823.941 220.877 2
-6 9 3 723.105 250.687 1
9 -6 -3 585.515 265.008 2
-6 -3 -3 888.731 249.823 1
9 -3 3 808.797 364.263 2
-6 -3 -3 944.898 303.171 2
-3 9 -3 518.716 195.783 3
-6 9 3 400.185 180.852 4
9 -6 -3 1332.98 272.143 4
9 -3 3 686.111 301.789 1
9 -6 -3 364.914 228.897 1
-3 -6 6 1580.15 390.713 4
-6 9 6 2085.65 341.971 1
-6 9 6 2091.96 459.179 4
-3 9 -6 2104.15 385.964 3
9 -3 6 2477.59 593.28 2
-6 -3 -6 2181.21 463.145 2
-3 9 -6 1512.39 361.035 1
9 -6 -6 2847.83 515.729 1
-6 -3 -6 2146.58 372.667 1
9 -3 6 1882.46 454.786 1
9 -3 9 2618.32 718.875 2
-3 9 -9 1895.13 516.772 1
9 -3 9 1590.22 515.915 1
9 -6 -9 1570.94 369.822 1
-6 -3 -9 1619.89 336.548 1
-3 9 -9 1489.29 361.697 3
-6 -3 -9 1718.42 509.442 2
-6 -3 -12 1281.14 230.395 3
-3 9 -12 1040.63 367.374 1
9 -3 12 1393.87 487.819 2
-3 -6 12 1908.13 548.086 3
9 -3 12 1314.37 453.846 1
-6 -3 -12 1431.14 365.052 1
-3 9 -15 293.309 227.071 1
-6 -3 -15 524.302 301.837 1
-3 -6 15 1.66791 184.44 3
-2 9 16 785.551 297.759 3
-2 -7 -16 767.778 287.449 1
-7 9 -16 387.966 287.612 1
-7 9 -13 1424.04 498.081 1
-7 9 -13 1172.08 254.277 3
9 -7 13 1541.21 675.586 2
-2 -7 -13 727.06 267.046 1
-2 9 13 824.405 265.263 3
9 -7 10 3948.41 851.495 2
9 -7 10 5130.08 961.03 1
-7 9 -10 3498.89 688.811 1
-2 -7 -10 3689.27 416.401 1
-2 9 10 3563.92 516.814 3
-2 -7 -10 3686.31 486.703 3
-7 9 -10 3995.45 522.479 3
-7 9 -7 2880.33 476.725 3
-7 9 -7 2873.7 605.11 1
-7 -2 7 2159.85 334.383 4
9 -7 7 2474.94 638.915 1
-2 -7 -7 2378.35 418.42 3
9 -7 7 2758.43 720.874 2
-2 9 7 2199.01 403.724 3
-7 9 -4 39439 2136.56 2
-2 9 4 33834.5 1969.7 4
9 -2 -4 34276.9 1710.77 1
9 -7 4 32132 2031.88 1
-7 9 -4 39130.1 2089.59 1
-2 -7 -4 38200 1254.3 2
-2 9 4 36217.9 1755.9 3
9 -7 4 33521.3 2159.63 2
-2 -7 -4 37980.9 1697.08 3
-2 9 1 5194.67 542.616 1
9 -7 1 5693.04 749.596 1
9 -7 1 5713.45 793.258 2
-2 9 1 5463.93 705.12 4
9 -2 -1 5928.06 736.439 2
-7 -2 1 5317.77 715.779 2
-7 9 -1 5272.12 694.499 1
9 -2 -1 5977.63 711.191 1
-2 9 1 5818.33 722.724 3
-2 -7 -1 5361.75 684.359 3
-7 9 -1 5052.46 643.129 2
9 -7 -2 3396.91 566.529 1
-2 -7 2 2976.27 514.893 3
-7 9 2 3215.69 447.429 2
-7 9 2 3447.24 492.128 1
-7 -2 -2 2751.4 487.438 2
-2 9 -2 3099.8 488.179 1
-2 9 -2 2364.41 443.412 4
-2 -7 2 3321.95 550.289 4
9 -2 2 3745.27 594.183 1
9 -7 -2 3225.28 541.574 2
9 -2 2 2804.31 552.5 2
-2 9 -2 2999.17 478.524 3
-7 -2 -2 2618.49 424.178 1
-7 9 2 2979.8 460.471 4
9 -7 -5 390.793 185.997 4
9 -2 5 63.707 146.565 2
-7 -2 -5 -24.0145 241.146 2
9 -7 -5 344.581 193.966 1
9 -2 5 178.985 150.282 1
-7 9 5 68.0902 165.851 4
-2 -7 5 -421.106 328.682 3
-7 -2 -5 -107.393 176.43 1
-2 -7 5 185.896 167.194 4
-2 9 -5 203.506 146.613 1
-7 9 5 -2.36942 129.862 2
-2 9 -5 405.012 146.558 3
-7 9 5 391.046 147.804 1
9 -7 -8 2919.22 504.14 1
-7 -2 -8 2183.72 497.55 2
9 -2 8 2477.85 586.191 2
-2 9 -8 3180.08 610.651 1
-7 -2 -8 2777.12 456.736 1
-2 -7 8 3090.53 557.021 3
9 -2 8 3433.6 693.199 1
-2 9 -8 2687.9 444.734 3
9 -2 11 303.722 243.087 1
-7 -2 -11 576.729 180.465 3
9 -2 11 249.509 264.234 2
9 -7 -11 473.355 220.723 1
-7 -2 -11 561.078 303.433 2
-2 9 -11 136.26 152.026 1
-2 -7 11 1080.6 498.102 3
-7 -2 -11 746.745 265.189 1
9 -2 14 628.307 315.13 2
-7 -2 -14 294.677 222.612 1
-2 9 -14 1.40227 318.69 1
9 -2 14 606.3 314.361 1
-2 -7 14 505.05 244.191 3
-7 -2 -14 202.148 78.8454 3
9 -2 17 1104.77 738.71 2
-7 -2 -17 51.4094 148.128 1
-2 -7 17 664.474 363.768 3
-2 9 -17 344.572 300.672 1
-8 9 -17 208.24 287.668 1
-1 9 17 236.974 318.537 2
-1 -8 -17 -65.4236 140.308 1
-1 9 17 -89.6567 153.24 3
9 -8 17 160.412 452.785 2
-1 -8 -14 778.664 208.86 1
-1 9 14 625.998 297.458 3
-8 9 -14 745.663 395.657 1
-1 9 14 879.554 370.653 2
9 -8 14 1355.67 813.172 2
-8 9 -14 733.92 217.915 3
-1 9 11 127.43 151.029 2
-1 9 11 380.102 142.663 3
-8 9 -11 159.901 93.5199 3
9 -8 11 145.453 338.672 2
-1 -8 -11 542.564 161.337 1
-8 9 -11 487.759 160.747 1
-1 -8 -8 2373.51 418.301 3
-1 9 8 2317.69 345.361 2
-8 9 -8 1925.03 528.006 1
-8 -1 8 1730.03 296.188 4
-8 9 -8 1888.69 393.612 3
-1 9 8 1942.35 394.127 3
9 -8 8 3324.7 822.54 1
9 -8 8 2828.02 744.68 2
-1 -8 -5 419.915 150.211 3
9 -1 -5 582.119 158.707 1
9 -8 5 260.459 249.262 2
9 -8 5 622.368 268.286 1
-1 -8 -5 640.124 154.124 2
-8 9 -5 881.698 235.146 1
-1 9 5 358.961 94.9473 3
-8 9 -5 656.624 358.689 2
9 -8 2 1062.01 451.026 2
-1 9 2 1601.64 426.292 4
9 -1 -2 1972.93 458.28 1
9 -8 2 1194.01 426.969 1
-8 9 -2 2484.81 552.684 2
-1 -8 -2 1421.43 423.461 3
-1 9 2 1632.39 403.669 3
-1 9 2 1669.04 300.46 1
-8 9 -2 2131.82 521.406 1
9 -1 1 2196.2 475.823 2
-8 9 1 2691.37 487.608 1
-1 9 -1 3004.93 468.985 1
-1 9 -1 3280.95 557.296 4
-8 9 1 2801.91 441.149 2
-8 -1 -1 2130.32 455.154 2
9 -8 -1 2682.6 520.688 2
9 -8 -1 2987.16 532.307 1
-1 -8 1 2674.92 576.896 4
9 -1 1 2336.9 468.754 1
-1 -8 1 2581.46 524.535 3
-1 9 -1 2985.41 521.911 3
-8 -1 -1 2517.21 467.355 1
-8 -1 -4 9637.64 872.099 1
-8 -1 -4 8441.41 933.879 2
-1 -8 4 9018.46 978.674 4
-1 9 -4 9589.44 891.049 3
9 -8 -4 10756.1 965.476 1
-8 9 4 9017.23 794.725 4
9 -1 4 9331.62 926.796 1
9 -1 4 10339.1 1139.4 2
-8 9 4 10078.8 900.939 1
-1 -8 4 9829.01 981.071 3
9 -8 -4 9750.41 811.165 4
-8 9 4 9528.99 811.462 2
9 -1 7 8027.89 1089.88 2
9 -8 -7 7826.92 819.478 1
-8 -1 -7 7225.6 969.973 2
-1 -8 7 7633.17 913.63 3
-8 9 7 6639.92 800.419 4
-8 9 7 7233.11 753.577 1
-8 -1 -7 6504.51 732.914 1
9 -1 7 7953.3 975.571 1
-1 9 -7 7151.96 790.519 3
-8 -1 -10 842.926 287.895 1
9 -1 10 1230.72 387.797 1
9 -1 10 1651.8 568.377 2
-8 -1 -10 1750.59 505.491 2
-1 -8 10 1660.71 458.846 3
9 -8 -10 1344.76 345.891 1
-1 9 -10 1108.19 375.579 1
-8 -1 -13 798.675 383.466 1
-8 -1 -13 494.054 155.431 3
9 -8 -13 537.283 242.578 1
-1 9 -13 585.751 329.075 1
9 -1 13 736.63 293.011 1
9 -1 13 768.044 277.903 2
-1 -8 16 433.364 195.639 3
-8 -1 -16 665.798 352.811 1
-1 9 -16 305.034 245.228 1
9 -1 16 937.067 626.443 2
0 9 15 -317.674 372.905 2
-9 9 -15 -47.5938 72.8411 3
0 -9 -15 -76.942 98.1076 1
9 -9 15 159.967 440.643 2
-9 9 -15 49.7464 259.3 1
0 9 15 213.133 134.044 3
9 -9 12 3087.32 850.01 2
0 -9 -12 1599.02 287.008 1
-9 9 -12 2094.4 555.728 1
-9 9 -12 1441.65 298.069 3
0 9 12 2031.96 486.786 2
0 9 12 1803.38 415.436 3
9 -9 9 2225.17 627.869 1
0 9 9 2114.44 390.317 2
-9 9 -9 2094.26 592.571 1
0 9 9 1668.89 367.547 3
9 -9 9 3089.47 803.54 2
-9 9 -6 3685.63 741.319 2
9 -9 6 3264.04 781.266 2
-9 9 -6 3686.49 782.442 1
0 9 6 2684.7 481.253 3
9 -9 6 2932.18 689.864 1
0 -9 -6 3979.12 571.42 3
9 -9 3 24465.2 1842.72 2
0 9 3 27439.4 926.586 1
0 9 3 29070.8 1578.26 3
0 9 3 26984.5 1821.4 4
0 -9 -3 27651.6 1573.26 3
-9 9 -3 27312 1814.55 1
-9 9 -3 28972 1881.82 2
9 -9 3 23554 1779.24 1
9 0 -3 32052 1669.65 1
-9 0 0 864.892 322.868 2
9 -9 0 234.011 252.324 2
-9 9 0 269.334 256.658 1
0 -9 0 352.06 328.313 4
9 0 0 161.034 151.848 1
-9 0 0 297.895 255.273 1
-9 9 0 84.5847 210.922 2
0 9 0 160.132 162.791 4
0 9 0 424.557 267.638 3
9 0 0 847.955 379.72 2
9 -9 0 492.561 267.725 1
0 -9 0 594.828 307.581 3
-9 9 3 3694.26 519.753 2
9 0 3 3954.45 589.839 1
0 9 -3 3887.66 567.197 3
9 0 3 3727.02 650.311 2
0 9 -3 3661.11 537.693 4
-9 9 3 4194.2 576.98 1
0 -9 3 4451.24 718.623 4
-9 0 -3 4204.59 706.026 2
9 -9 -3 4517.4 590.544 2
0 -9 3 4350.73 648.929 3
-9 0 -3 3629.63 532.505 1
9 -9 -3 4378.84 589.828 4
9 -9 -3 4233.07 580.358 1
-9 0 -6 644.279 313.194 2
9 -9 -6 1094.75 342.579 1
-9 0 -6 12.6604 147.485 1
9 0 6 10.3217 138.143 1
-9 9 6 335.037 165.929 2
0 -9 6 492.339 285.77 4
9 0 6 136.69 164.076 2
-9 9 6 344.871 204.553 4
-9 9 6 871.454 308.433 1
0 -9 6 49.371 129.01 3
9 0 9 1759.07 387.118 1
-9 0 -9 2292.95 590.271 2
-9 0 -9 2536.37 502.307 1
9 0 9 2006.96 560.514 2
9 -9 -9 2390.95 458.938 1
0 -9 9 2669.99 619.731 3
-9 9 9 2657.16 544.493 4
9 0 12 1414.39 605.987 2
9 0 12 1485.98 464.561 1
-9 0 -12 1690.71 459.679 1
0 -9 12 2670.53 627.252 3
9 -9 -12 1957.48 423.806 1
0 -9 15 2032.85 573.766 3
9 0 15 1994.52 724.725 2
-9 0 -15 1542.55 522.145 1
0 9 -15 787.92 383.379 1
9 0 15 1598.14 587.36 1
9 -9 -15 803.686 292.739 1
1 -10 -16 410.373 209.13 1
9 -10 16 629.047 539.87 2
-10 9 -16 181.725 196.208 1
-10 9 -16 128.94 96.0531 3
1 9 16 320.851 356.461 2
1 -10 -13 2364.36 374.034 1
-10 9 -13 1927.27 620.036 1
1 9 13 2287.5 479.293 3
-10 9 -13 1743.6 346.32 3
9 -10 13 3337.19 1089.07 2
1 9 13 2315.13 618.781 2
1 9 10 1134.97 344.529 2
1 9 10 876.234 222.166 3
-10 9 -10 1303.81 408.062 1
9 -10 10 1193.88 468.151 2
-10 9 -7 2247.6 612.643 2
1 -10 -7 2772.31 530.778 3
1 9 7 2845.12 408.337 2
9 -10 7 2914.79 713.574 1
9 -10 7 2547.36 655.06 2
1 9 7 2594.78 495.151 3
-10 9 -7 2618.31 639.767 1
9 -10 4 487.871 232.066 2
9 1 -4 168.026 110.261 1
9 1 -4 735.168 181.477 4
-10 9 -4 636.986 282.844 2
1 9 4 688.833 249.027 3
-10 9 -4 348.21 239.317 1
9 -10 4 632.43 369.552 1
1 -10 -4 309.865 193.397 3
1 9 1 3557.58 573.481 3
9 -10 1 3915.32 664.385 2
-10 9 -1 4837.26 768.938 1
1 -10 -1 4445.67 692.597 3
9 1 -1 4053.88 612.743 1
1 -10 -1 4818.38 837.805 4
9 -10 1 4106.48 667.975 1
-10 1 1 5337.35 750.843 2
-10 9 -1 4633.78 719.3 2
1 9 1 4319.86 713.893 4
-10 1 1 4433.98 674.466 1
9 1 2 1040.44 366.722 2
-10 9 2 1909.15 433.325 1
9 1 2 1285.31 348.794 1
1 9 -2 2210.13 494.398 4
-10 1 -2 1149.68 408.982 2
-10 1 -2 1365.12 393.147 1
1 -10 2 1566.64 406.745 3
1 9 -2 1325.66 405.799 3
9 -10 -2 2461.99 482.548 1
-10 9 2 1511.92 367.701 2
9 -10 -2 1111.18 377.147 4
9 -10 -2 1545.73 373.791 2
1 -10 2 1332.74 402.755 4
9 1 5 2261.22 447.09 1
-10 1 -5 1908.09 412.303 1
1 -10 5 2620.83 625.412 4
-10 9 5 1901.91 329.884 4
9 1 5 2205.66 525.406 2
9 -10 -5 2279.64 460.614 4
-10 9 5 2136.4 430.894 2
1 -10 5 2581.89 535.298 3
9 -10 -5 2687.87 484.712 1
-10 1 -5 1912.13 475.877 2
-10 9 5 2429.03 469.86 1
-10 9 8 1735.9 385.802 4
-10 1 -8 2241.56 649.283 2
9 1 8 2024.15 599.713 2
-10 1 -8 3003.2 622.245 1
9 -10 -8 2293.42 469.032 1
9 1 8 1712.04 448.426 1
1 -10 8 2082.34 571.239 3
-10 1 -11 1504.05 449.353 1
1 -10 11 2873.17 676.29 3
9 -10 -11 1406.47 355.112 1
9 1 11 1209.71 416.019 1
9 1 11 1161.78 529.123 2
-10 1 -11 1416.04 549.591 2
-10 1 -14 842.179 417.018 1
9 -10 -14 419.634 173.072 1
9 1 14 -265.425 441.031 2
9 1 14 622.228 351.394 1
1 -10 14 292.036 147.84 3
-10 1 -17 -275.272 298.229 1
1 -10 17 158.269 253.446 3
9 1 17 294.509 494.484 2
1 9 -17 7.40981 203.702 1
2 -11 -17 50.2126 127.324 1
9 -11 17 754.551 653.695 2
2 9 17 781.51 389.14 2
-11 9 -17 814.294 532.918 1
-11 9 -17 52.4831 114.559 3
2 -11 -14 232.552 114.751 1
9 -11 14 415.624 482.403 2
2 9 14 239.853 247.018 2
-11 9 -14 360.726 176.959 3
-11 9 -14 173.917 216.528 1
2 9 11 181.128 191.688 2
9 -11 11 869.565 390.085 2
-11 9 -11 263.728 274.025 1
2 -11 -11 369.345 107.025 1
2 -11 -11 315.949 112.419 1
-11 9 -8 1623.58 513.827 1
2 9 8 1289.8 347.633 2
9 -11 8 891.449 349.978 1
9 -11 8 682.666 288.678 2
-11 9 -8 823.769 300.822 2
2 9 8 783.613 317.037 3
2 9 5 3923.26 595.815 3
2 -11 -5 4337.2 689.446 3
-11 9 -5 4624.37 805.253 1
-11 9 -5 4404.79 813.169 2
2 9 5 3785.4 394.546 2
9 -11 5 5333.35 930.048 2
9 -11 5 4762.03 886.952 1
9 2 -5 3916.61 398.57 4
9 -11 2 3710.31 713.08 1
2 9 2 3340.12 561.458 3
2 -11 -2 3225.86 582.807 3
-11 9 -2 3541.12 639.579 1
2 -11 -2 3321.96 719.261 4
9 2 -2 3645.87 569.938 1
-11 9 -2 3925.9 703.042 2
-11 2 2 3532.89 598.016 1
9 -11 2 3857.6 732.602 2
-11 2 2 3700.64 674.643 2
2 9 2 3185.53 631.148 4
9 2 1 13453.3 1154.35 2
2 -11 1 13265.6 1205.48 3
9 -11 -1 13395.7 1081.87 2
-11 2 -1 12794.8 1217.22 2
9 2 1 13793.6 1098.28 1
-11 9 1 14529.4 1254 1
9 -11 -1 15401.2 1373.91 4
9 -11 -1 14457 1174.48 1
-11 2 -1 13115.1 1167.41 1
-11 9 1 14394.2 1226.55 2
2 -11 1 13513.4 1331.06 4
2 9 -1 14611.2 1251.14 4
2 -11 4 4896.73 745.781 3
-11 9 4 3944.14 602.889 2
-11 9 4 4789.58 690.472 1
9 -11 -4 5930.29 703.613 1
2 -11 4 4965.32 805.976 4
9 2 4 4755.26 744.215 2
-11 2 -4 5528.73 854.347 2
9 -11 -4 5426.05 777.235 4
2 9 -4 4336 617.707 4
-11 2 -4 4178.39 667.891 1
9 2 4 4663.31 628.191 1
9 -11 -4 5624.73 670.825 2
-11 9 7 1923.31 343.728 4
9 -11 -7 3127.62 567.957 1
-11 9 7 2274.51 504.895 1
-11 2 -7 2639.18 586.403 1
-11 2 -7 3286.44 772.016 2
9 2 7 2514.09 614.944 2
2 -11 7 2651.99 568.801 3
9 2 7 2686.77 526.713 1
-11 9 10 2420.8 467.759 4
9 2 10 2943.5 720.561 2
9 2 10 2846.91 576.555 1
2 -11 10 3451.44 703.229 3
-11 2 -10 2192.86 635.388 2
-11 2 -10 2616.87 595.616 1
9 -11 -10 2507.09 476.07 1
2 -11 13 236.923 199.53 3
9 2 13 -97.2265 182.681 1
9 -11 -13 269.658 182.671 1
9 2 13 645.213 353.788 2
-11 2 -13 212.064 218.497 1
-11 2 -16 195.473 289.173 1
9 2 16 413.951 272.247 1
9 -11 -16 41.0449 167.546 1
2 -11 16 347.198 345.241 3
9 2 16 262.2 341.954 2
-12 9 -15 482.33 189.433 3
3 9 15 336.499 371.278 2
-12 9 -15 414.352 334.281 1
3 -12 -15 209.603 68.5887 1
3 -12 -15 264.146 126.748 1
9 -12 15 11.483 384.059 2
9 -12 12 1045.75 559.032 2
3 -12 -12 509.223 133.401 1
3 -12 -12 691.214 195.441 1
3 9 12 731.787 285.441 2
-12 9 -12 652.37 335.184 1
3 9 9 3455.24 573.939 2
-12 9 -9 3789.79 774.066 1
-12 9 -6 5994.65 1029.57 2
3 9 6 5009.24 548.863 2
9 -12 6 6202 1065.25 1
9 -12 6 6240.26 1078.44 2
9 3 -6 4252.2 482.134 4
-12 9 -6 5288.7 908.444 1
-12 9 -3 2389.79 629.259 2
-12 9 -3 2697.74 636.825 1
9 3 -3 1995.43 420.07 1
9 3 -3 2059.76 384.052 4
9 -12 3 1710.91 537.253 2
9 -12 3 1454.62 484.746 1
3 -12 -3 1712.28 448.403 3
-12 3 3 2355.76 552.447 2
3 -12 -3 1396.64 254.538 1
-12 3 3 2111 509.263 1
3 -12 -3 1927.25 545.416 4
3 -12 0 612.682 252.976 3
3 9 0 449.235 285.766 4
9 -12 0 780.445 295.337 1
-12 9 0 936.314 356.811 1
9 -12 0 578.535 242.171 2
9 3 0 326.127 165.7 1
-12 3 0 756.808 311.504 2
9 -12 0 496.547 319.032 4
-12 9 0 261.525 188.207 2
-12 3 0 343.181 210.068 1
3 -12 0 242.148 271.481 4
3 -12 3 3656.22 655.624 3
-12 9 3 4479.94 694.28 2
9 -12 -3 4824.56 782.565 4
9 -12 -3 5076.24 666.88 1
-12 3 -3 4355.25 763.518 2
3 9 -3 3829.67 604.849 4
-12 9 3 4390.85 676.905 1
-12 3 -3 4629.9 743.265 1
3 -12 3 4562.38 815.161 4
9 -12 -3 4478.97 593.832 2
9 3 3 4373.89 662.01 2
9 3 3 4342.03 626.695 1
-12 9 6 2163.47 555.37 1
3 -12 6 998.992 375.535 3
9 -12 -6 1954.81 426.31 1
9 -12 -6 1615.56 469.931 4
-12 3 -6 1878.29 582.948 2
-12 3 -6 1652.22 461.57 1
-12 9 6 1838.15 508.602 2
9 3 6 1367.81 324.467 1
9 3 6 2070.66 531.253 2
-12 3 -9 1587.04 503.562 1
3 -12 9 3074.51 685.024 3
9 3 9 2135.33 646.999 2
9 3 9 2110.86 508.09 1
-12 9 9 1732.56 385.717 4
-12 3 -9 2476.83 686.271 2
9 -12 -9 1983.45 402.251 1
9 3 12 745.701 382.647 2
-12 9 12 1436.75 431.874 4
9 -12 -12 1250.21 356.648 1
3 -12 12 1137.38 419.326 3
-12 3 -12 802.451 203.218 1
9 3 12 1364.87 428.662 1
3 -12 15 372.379 429.19 3
9 3 15 568.263 345.807 2
-12 3 -15 30.0444 166.677 1
9 -12 -15 117.336 102.929 1
9 3 15 -49.9708 311.393 1
4 9 16 -167.599 335.076 2
4 -13 -16 25.4196 94.5697 1
-13 9 -16 219.427 300.593 1
4 -13 -16 70.2504 102.118 1
-13 9 -16 72.495 135.236 3
9 -13 16 383.929 621.129 2
9 -13 13 1168.77 723.6 2
-13 9 -13 718.836 411.659 1
4 9 13 665.586 331.202 2
4 -13 -13 728.362 190.514 1
4 -13 -10 319.685 111.248 1
4 9 10 -159.767 231.199 2
-13 9 -10 50.5205 166.588 1
4 9 10 197.884 89.1762 1
9 -13 7 3776.76 908.135 1
-13 9 -7 3692.54 786.039 1
4 9 7 3218.59 517.491 2
-13 9 -7 3396.47 785.229 2
4 -13 -7 2974.1 310.411 1
9 -13 7 4614.82 958.806 2
4 9 7 2560.06 311.974 1
-13 9 -4 1969.26 528.075 1
-13 4 4 2128.58 551.269 1
4 9 4 2086.68 339.098 1
9 -13 4 1674.71 526.872 1
9 4 -4 2196.68 416.546 4
9 -13 4 1480.23 528.913 2
4 -13 -4 1987.69 337.614 1
-13 9 -4 2384.23 600.351 2
-13 4 4 2195.54 552.308 2
4 -13 -4 1857.32 598.522 4
4 -13 -1 4383.73 848.707 4
-13 4 1 4230.85 747.763 2
4 -13 -1 4012.62 492.488 2
9 4 -1 3758.98 601.774 1
9 -13 1 4360.2 760.276 1
-13 9 -1 3744.55 658.842 1
-13 9 -1 4055.5 739.692 2
4 -13 -1 3864.34 552.346 1
4 9 1 3849.47 714.9 4
-13 4 1 4183.93 685.787 1
4 -13 -1 4173.35 733.879 3
9 -13 1 4427.4 836.159 4
9 -13 1 3776.82 679.889 2
-13 9 2 299.061 211.299 2
-13 4 -2 338.336 204.463 2
4 9 -2 578.47 256.121 4
9 -13 -2 557.697 298.045 1
9 4 2 218.282 196.927 1
9 -13 -2 440.961 161.881 4
9 4 2 202.966 181.958 2
9 -13 -2 368.509 176.773 2
-13 4 -2 248.673 202.931 1
4 -13 2 520.677 288.54 3
-13 9 2 86.0697 256.675 1
4 -13 2 493.207 365.362 4
4 -13 2 620.415 227.752 1
4 -13 5 75.8307 287.179 3
9 -13 -5 -154.838 228.412 1
-13 9 5 277.554 180.854 1
9 4 5 57.5382 105.302 1
9 -13 -5 349.619 233.773 4
-13 4 -5 195.48 168.95 2
-13 4 -5 160.037 149.412 1
4 -13 5 229.355 283.481 4
4 9 -5 373.26 231.124 4
-13 9 5 82.4702 121.76 2
9 4 5 -169.065 305.539 2
4 -13 8 3234.37 713.955 3
-13 4 -8 3669.58 737.366 1
-13 4 -8 3542.33 817.91 2
-13 9 8 4246.95 803.076 1
9 4 8 2983.38 688.029 2
9 4 8 3499.27 584.735 1
-13 9 8 3374.7 428.67 4
9 -13 -8 4442.87 647.612 1
-13 9 11 351.52 140.811 4
9 4 11 573.733 245.289 1
9 4 11 815.641 356.357 2
9 -13 -11 1039.54 338.048 1
4 -13 11 1277.74 395.276 3
-13 4 -11 357.311 270.48 1
9 4 14 533.193 149.988 1
9 4 14 112.261 234.116 2
9 -13 -14 246.509 178.753 1
4 -13 14 236.423 243.171 3
-13 4 -14 48.721 285.136 1
5 -14 -14 85.7886 82.6357 1
9 -14 14 10.2187 317.717 2
5 9 14 -454.572 360.633 2
-14 9 -14 -247.034 252.636 1
5 9 11 2692.25 609.88 2
5 9 11 2327.5 341.898 1
9 -14 11 3543.75 1057.35 2
5 -14 -11 3143.43 403.318 1
-14 9 -11 2877.97 768.595 1
9 -14 8 1905.04 697.497 2
5 9 8 1686.05 296.531 1
5 -14 -8 1791.52 260.151 1
5 9 8 2103.93 480.164 2
-14 9 -8 2054.63 610.227 1
-14 9 -5 713.641 375.843 1
9 -14 5 -42.9512 179.837 1
5 9 5 475.076 197.828 1
-14 9 -5 1382.62 496.176 2
5 -14 -5 239.719 164.136 1
5 9 5 635.587 247.048 2
-14 5 5 684.884 331.595 1
-14 5 5 688.189 393.771 2
9 5 -5 612.182 240.845 4
9 -14 5 612.121 405.429 2
9 -14 2 1228.01 317.961 2
-14 9 -2 2276.3 591.91 1
-14 5 2 1343.88 483.401 2
5 -14 -2 852.518 266.07 1
9 5 -2 1583.3 408.111 1
9 -14 2 1739.33 565.895 1
5 -14 -2 1298.55 290.019 2
-14 9 -2 2037.71 522.092 2
9 5 -2 1686.76 413.774 4
-14 5 2 1338.42 433.244 1
9 -14 2 779.362 315.925 4
5 -14 -2 1473.17 585.978 4
9 -14 -1 5964.03 738.426 2
-14 5 -1 6035.78 924.539 2
-14 9 1 6028.65 892.54 2
9 -14 -1 6878.16 1054.38 4
-14 9 1 5574.62 840.162 1
5 -14 1 6157.98 814.181 1
-14 5 -1 5740.39 840.475 1
5 -14 1 4967.75 919.477 4
5 -14 1 5444.84 838.148 3
5 9 -1 4541.55 724.628 4
9 5 1 4904.88 674.722 1
9 -14 -1 7221.43 913.093 1
5 -14 1 5902.75 721.137 2
5 -14 4 411.11 192.379 3
5 9 -4 66.6685 108.5 4
9 5 4 166.578 139.237 1
-14 9 4 723.485 326.431 1
9 -14 -4 592.773 358.009 4
-14 5 -4 308.604 184.105 2
5 -14 4 357.329 235.542 4
-14 5 -4 698.502 354.536 1
9 5 4 182.413 135.167 2
-14 9 4 150.255 148.251 2
5 -14 4 257.033 234.757 1
9 -14 -4 305.022 156.621 2
9 -14 -4 -20.3456 208.525 1
5 -14 7 1130.99 406.462 3
9 -14 -7 1117.32 317.653 1
-14 5 -7 950.402 367.058 1
9 5 7 1583.8 419.001 1
-14 5 -7 1316.35 530.521 2
9 5 7 1235.34 361.273 2
-14 9 7 1213.73 405.516 1
-14 9 7 1436.52 477.317 2
-14 9 10 321.74 164.094 4
9 5 10 368.635 221.84 1
9 -14 -10 518.491 234.835 1
9 5 10 429.938 266.509 2
-14 5 -10 192.197 240.306 1
5 -14 10 924.149 426.578 3
9 5 13 135.049 160.589 1
9 -14 -13 10.797 149.675 1
9 5 13 1.58512 203.334 2
-14 9 13 294.64 180.096 4
5 -14 13 7.85392 266.081 3
-14 5 -13 31.7688 242.111 1
9 -14 -16 -84.942 157.118 1
9 5 16 304.386 332.21 1
-14 5 -16 -29.3349 292.71 1
9 5 16 748.36 508.644 2
9 -15 15 -192.006 339.204 2
6 -15 -15 522.796 213.164 1
-15 6 15 82.4632 120.908 4
-15 9 -15 -89.135 302.78 1
6 9 15 296.625 272.165 2
6 9 12 855.705 371.951 2
6 -15 -12 746.457 200.843 1
-15 9 -12 916.125 407.322 1
9 -15 12 331.429 271.679 2
6 9 12 503.852 175.527 1
9 -15 9 -34.038 453.203 2
6 9 9 452.539 147.985 1
6 9 9 1.11295 154.63 2
6 -15 -9 439.079 135.132 1
-15 9 -9 480.115 376.038 1
-15 9 -6 2160.75 597.399 1
6 9 6 1601.39 348.5 1
-15 6 6 1577.66 529.125 2
9 6 -6 1489.64 392.98 4
6 9 6 1758.33 431.073 2
-15 6 6 1519.75 516.02 1
9 -15 6 1366.44 507.212 2
6 -15 -6 2069.33 376.849 1
-15 9 -3 1508.04 536.998 1
-15 6 3 818.842 334.815 2
9 -15 3 1142.99 429.5 2
6 9 3 1178.99 326.49 1
6 -15 -3 1300.04 352.73 1
9 -15 3 883.667 328.594 1
-15 6 3 904.269 392.234 1
-15 9 -3 1478.77 517.944 2
6 -15 -3 861.473 196.856 2
6 -15 -3 1753.1 654.503 4
9 6 -3 697.684 221.232 4
-15 9 0 10620 1255.98 1
9 -15 0 9014.99 990.518 2
-15 6 0 10069.1 1234.96 2
9 -15 0 10109.8 1378.87 4
6 -15 0 10150 983.884 2
6 -15 0 8837.38 1010.48 1
9 -15 0 10750.1 1175.85 1
9 6 0 8130.45 940.321 1
-15 6 0 10232.7 1195.24 1
6 -15 0 9362.16 1329.06 4
-15 9 0 11524.1 1355.42 2
6 9 0 9161.01 1120.47 4
6 -15 3 3008.41 815.492 4
6 -15 3 1963.19 620.572 3
6 -15 3 2641.71 611.372 2
-15 6 -3 2084.58 611.066 2
9 -15 -3 2664.01 645.628 4
6 -15 3 2120.57 568.425 1
9 6 3 1775.86 405.066 1
9 6 3 1655.58 447.726 2
-15 9 3 2049.13 530.803 2
9 -15 -3 2731.27 557.409 1
6 9 -3 2242.84 493.018 4
-15 6 -3 2789.27 669.279 1
-15 9 3 1933.2 509.688 1
9 -15 -3 2285.89 450.61 2
6 -15 6 3074.41 684.367 3
-15 6 -6 2379.57 629.687 1
-15 9 6 2212.28 564.975 2
6 9 -6 1860.97 429.718 4
9 -15 -6 2282.43 443.171 1
9 6 6 2631.57 504.987 1
9 -15 -6 2536.87 614.141 4
-15 9 6 2164.81 596.488 1
6 -15 6 2681.76 638.884 1
9 6 6 1915.98 478.763 2
-15 6 -6 2819.57 725.399 2
6 -15 6 3133.48 735.898 2
6 -15 9 1038.33 384.651 3
9 6 9 611.16 255.537 1
-15 6 -9 912.743 430.385 1
9 6 9 534.504 307.326 2
9 -15 -9 995.341 287.687 1
-15 6 -12 833.192 412.498 1
9 -15 -12 757.646 280.828 1
6 -15 12 1168.21 562.382 3
-15 9 12 597.212 212.213 4
9 6 12 276.066 145.961 1
9 6 12 591.264 331.144 2
9 -15 -15 1159.1 399.851 1
-15 6 -15 177.829 206.354 1
9 6 15 1438.83 687.934 2
-15 9 15 691.575 324.952 4
9 6 15 365.25 276.932 1
7 -16 -13 373.889 225.462 1
9 -16 13 -176.752 599.971 2
7 9 13 328.537 150.202 1
7 9 13 375.631 277.979 2
-16 9 -13 -59.2074 270.045 1
9 -16 10 2445.61 810.13 2
7 9 10 1606.82 500.835 2
-16 9 -10 2012.06 635.674 1
7 -16 -10 2118.01 356.148 1
7 9 10 1892.38 374.92 1
9 -16 7 900.556 475.565 2
7 9 7 1013.46 287.73 1
-16 7 7 316.75 180.925 1
7 -16 -7 557.182 157.94 1
9 7 -7 663.778 249.431 4
7 9 7 628.353 263.373 2
-16 9 -7 1074.05 471.05 1
9 -16 4 6015.6 1017.55 1
7 -16 -4 5388.26 678.968 1
7 -16 -4 4731.28 1000.73 4
-16 9 -4 6002.03 1025.12 2
-16 9 -4 7220.68 1081.6 1
9 -16 4 5542.73 966.683 2
-16 7 4 6185.91 1013.76 2
-16 7 4 5642.52 914.952 1
7 -16 -4 5412.06 534.366 2
9 7 -4 5760.94 762.286 4
7 9 4 5257.05 654.494 1
9 7 -1 3233.79 599.174 1
9 7 -1 3229.15 643.047 4
7 -16 -1 3458.63 553.159 2
7 -16 -1 3372.61 624.69 1
7 -16 -1 3609.93 849.792 4
-16 9 -1 3808.35 767.621 2
-16 9 -1 3741.23 765.321 1
9 -16 1 3457.09 646.11 2
-16 7 1 3819.66 737.397 1
9 -16 1 3416.85 735.722 1
9 -16 1 2883.86 761.996 4
-16 7 1 2888.93 632.536 2
7 9 1 3257.44 728.537 4
-16 9 2 2515.99 641.105 1
9 -16 -2 2510.8 705.577 4
-16 7 -2 3723.28 829.804 2
9 -16 -2 2556.88 560.927 1
9 -16 -2 2411.92 463.917 2
7 -16 2 3333.22 862.278 4
7 9 -2 1952.06 477.416 4
7 -16 2 2297.79 588.458 1
-16 7 -2 2256 590.553 1
7 -16 2 2384.99 574.044 2
-16 9 2 2151.94 561.102 2
9 7 2 2074.08 472.253 1
-16 9 5 1479.72 507.382 1
7 -16 5 3070.37 695.87 2
9 -16 -5 1861.65 417.107 1
9 -16 -5 2047.63 659.164 4
-16 7 -5 1700.62 566.681 1
7 9 -5 1118.7 310.163 4
9 7 5 1259.3 367.833 2
-16 9 5 1505.97 488.794 2
9 7 5 1497.15 350.493 1
9 -16 -5 2394.42 416.918 2
7 -16 5 1703.93 516.814 1
-16 9 8 416.766 232.865 1
7 -16 8 351.529 375.189 2
9 7 8 196.263 203.774 2
-16 7 -8 206.449 191.422 1
9 7 8 248.247 190.657 1
9 -16 -8 342.745 160.054 1
-16 7 -11 2213.94 696.218 1
7 -16 11 3341.52 947.704 2
9 7 11 2206.72 512.079 1
9 -16 -11 1922.1 419.782 1
9 7 11 1699.54 587.447 2
9 7 14 405.908 223 1
9 7 14 130.768 232.725 2
-16 9 14 50.1758 98.205 4
9 -16 -14 603.1 305.076 1
-16 7 -14 -337.7 367.757 1
8 9 14 797.087 383.783 2
8 -17 -14 644.95 235.52 1
9 -17 14 311.232 372.636 2
8 9 14 882.609 308.711 1
-17 9 -14 1039 508.063 1
8 9 11 348.633 193.54 1
9 -17 11 82.7305 513.724 2
8 9 11 606.549 418.749 2
-17 9 -11 688.116 391.378 1
8 -17 -11 416.527 209.182 1
-17 9 -8 1337.38 502.887 1
9 -17 8 2343.03 820.394 2
8 -17 -8 1364.76 327.369 1
8 9 8 1580.86 367.126 1
8 9 8 1099.11 429.696 2
8 9 5 2102.73 449.4 1
9 8 -5 2518.51 520.521 4
8 -17 -5 2191.12 358.773 2
9 -17 5 1557.5 461.472 2
8 -17 -5 2171.81 711.726 4
8 9 5 1939.14 475.11 2
-17 8 5 2920.54 695.129 1
-17 9 -5 3351.7 723.953 1
8 -17 -5 1961.91 417.942 1
8 9 2 1049.09 335.059 1
9 -17 2 926.171 459.25 1
8 -17 -2 493.229 237.197 2
9 -17 2 702.404 347.708 2
-17 9 -2 1920.27 603.055 2
-17 8 2 911.305 385.305 1
8 -17 -2 624.368 279.325 1
-17 9 -2 2285.34 633.806 1
9 -17 2 815.536 303.326 4
8 -17 -2 743.443 207.801 4
-17 8 2 859.5 379.527 2
9 8 -2 930.429 362.124 4
-17 9 1 1566.67 555.732 1
-17 8 -1 1832.79 607.519 1
8 -17 1 1568.07 675.862 4
9 -17 -1 879.136 400.491 4
9 8 1 1657.19 459.155 1
8 -17 1 1587.37 461.325 1
9 -17 -1 1598.75 445.429 2
9 -17 -1 1501.28 419.035 1
8 -17 1 1108.78 465.469 2
-17 9 1 2102.77 645.508 2
8 9 -1 1474.38 472.819 4
-17 8 -1 2312.83 650.079 2
-17 9 4 550.727 331.407 2
9 -17 -4 712.662 446.867 4
8 -17 4 725.565 302.541 2
9 -17 -4 346.302 130.929 1
8 -17 4 641.741 299.793 1
9 8 4 500.924 241.096 1
-17 9 4 -9.25558 254.802 1
9 8 4 642.403 285.05 2
9 -17 -4 600.712 224.925 2
8 9 -4 615.907 306.748 4
-17 8 -4 1070.94 411.756 1
-17 8 -7 868.348 465.757 1
9 8 7 435.052 263.009 1
9 8 7 432.192 260.153 2
8 -17 7 896.408 467.069 2
8 9 -7 594.619 264.882 4
-17 9 7 725.716 445.84 1
9 -17 -7 200.034 132.325 1
9 -17 -10 1058.58 313.276 1
8 -17 10 1129.61 685.95 2
9 8 10 1034.15 323.716 1
9 8 10 447.879 310.534 2
-17 8 -10 974.626 466.528 1
9 -17 -13 -416.929 302.374 1
-17 8 -13 -578.62 472.491 1
9 8 13 146.286 249.219 2
9 8 13 361.883 235.936 1
8 -17 13 83.473 417.187 2
-18 9 0 2286.45 660.857 1
9 -18 0 2213.98 580.909 1
9 -18 0 2824.85 640.042 2
9 9 0 2039.34 507.729 1
9 9 0 2190.93 584.311 4
9 9 3 3484.95 599.798 1
9 -18 3 5147.46 948.817 1
9 9 -3 3753.87 688.11 4
9 -18 -3 5212.44 1093.53 4
9 -18 3 5130.49 870.7 2
9 -18 -3 4589.44 609.825 2
-18 9 -3 5528.73 1032.18 1
9 -18 -3 4922.16 761.21 1
-18 9 3 3634.06 773.398 1
9 -18 -6 612.696 268.716 1
9 -18 6 379.535 200.634 2
9 9 -6 427.879 134.746 4
-18 9 6 212.91 164.148 1
9 9 6 683.59 330.002 2
-18 9 -6 207.241 186.152 1
9 9 6 370.793 96.6627 1
9 -18 -9 262.425 151.238 1
9 9 9 406.358 330.865 2
9 -18 9 -101.033 218.12 2
-18 9 -9 327.566 393.283 1
9 9 9 840.798 330.248 1
-18 9 -12 614.256 425.122 1
9 9 12 347.652 200.964 1
9 9 12 -27.355 205.009 2
9 -18 -12 215.157 122.182 1
9 -18 12 210.957 385.085 2
-5 10 0 4101.21 580.956 1
-5 10 0 3849.07 481.322 2
10 -5 0 4428.68 638.63 1
-5 10 0 3505.4 583.959 3
10 -5 0 4090.03 653.584 2
-5 10 0 3649.75 549.904 4
-5 -5 -3 3988.72 410.171 1
-5 10 3 4172.1 377.394 2
10 -5 3 5171.33 844.098 2
-5 -5 3 4147.58 650.412 4
-5 10 3 3805.14 637.729 4
-5 10 -3 4367.87 607.202 3
-5 10 -3 4199.44 657.776 1
10 -5 3 4388.87 712.959 1
-5 -5 -3 4050.27 531.844 2
-5 10 3 5051.82 534.197 1
10 -5 -3 4564.11 657.53 1
-5 10 3 5407.32 732.671 3
-5 -5 -6 1878.39 316.433 1
10 -5 6 1678.84 483.51 1
10 -5 -6 1903.72 448.233 1
-5 -5 -6 1475.04 371.461 2
-5 10 6 1940.45 291.448 1
10 -5 6 965.885 363.778 2
-5 10 -6 2078.22 483.902 1
-5 -5 -6 1372.77 324.868 3
-5 10 -6 1981.86 414.756 3
-5 10 6 1870.78 470.227 4
-5 -5 6 1358.18 335.753 4
-5 -5 -9 581.391 214.693 1
-5 -5 -9 893.049 299.887 2
-5 10 -9 1227.79 452.791 1
10 -5 9 863.701 267.317 1
-5 10 -9 1099.95 305.821 3
10 -5 -9 692.145 229.267 1
10 -5 9 1833.33 592.541 2
-5 -5 -9 566.698 175.941 3
-5 10 12 192.117 181.95 3
10 -5 12 622.774 302.593 1
-5 10 -12 836.35 348.62 1
-5 10 -12 742.243 231.458 3
-5 -5 -12 758.022 254.984 1
-5 -5 -12 421.712 121.96 3
-5 10 15 374.414 211.527 3
-5 10 -15 -43.4693 222.52 1
10 -5 15 665.08 530.543 2
-5 -5 -15 338.396 218.731 1
10 -6 16 -492.429 557.374 2
-4 -6 -16 189.368 166.434 1
-6 10 -16 -529.747 443.833 1
-4 10 16 245.729 146.873 3
-4 -6 -13 778.732 255.637 1
10 -6 13 918.682 445.901 2
-6 10 -13 815.68 340.96 1
-4 10 13 558.169 215.842 3
-6 10 -13 1144.94 313.629 3
-4 10 10 1984.62 406.381 3
10 -6 10 2372.55 656.789 1
10 -6 10 2901.87 808.75 2
-6 10 -10 1263.57 423.7 1
-4 -6 -10 1572.36 312.777 3
-4 -6 -10 1593.73 312.521 1
-6 10 -10 1781.03 381.309 3
10 -6 7 2544.04 665.041 1
-4 10 7 2394.64 478.365 3
-4 -6 -7 2056.08 294.101 1
-4 -6 -7 2236.33 432.938 2
-4 -6 -7 2139.39 374.528 3
-6 10 -7 2969.88 492.139 3
10 -6 7 1953.96 557.087 2
10 -4 -7 1824.94 402.576 1
-6 10 -7 2583.24 578.642 1
-6 -4 7 1679.44 365.849 4
-6 10 -4 3034.25 528.142 3
10 -4 -4 4487.92 638.741 1
-4 10 4 3254.33 655.832 4
-6 10 -4 2976.76 600.554 1
10 -6 4 3524.92 730.641 2
-4 -6 -4 2755.42 433.986 2
10 -6 4 4392.5 784.747 1
-4 10 4 3787.19 625.098 3
-4 10 4 4264.81 424.507 1
-4 -6 -4 4393.32 617.949 3
-6 -4 4 4573.09 642.404 4
-6 10 -1 33295.8 1793.07 3
-6 10 -1 34993.1 1697.4 2
-4 10 1 34919.7 1856.78 3
10 -4 -1 37526 1895.41 2
-4 -6 -1 32467.8 1446.05 2
10 -4 -1 34605.5 1779.85 1
10 -6 1 37875.7 2043.13 2
10 -6 1 36314.2 1914.36 1
-4 10 1 34893.3 1540.41 1
-6 10 -1 38034.1 1899.06 1
-4 10 1 34914.9 1722.8 4
-6 10 2 7274.92 596.519 2
-6 -4 -2 6209.12 689.975 2
10 -6 -2 5701.33 726.964 2
10 -6 -2 5924.4 727.682 1
-6 10 2 4862.25 637.977 4
-4 -6 2 6519.49 796.403 4
-6 10 2 6340.28 654.178 1
10 -4 2 6738.57 921.846 2
10 -4 2 6233.38 788.808 1
-4 10 -2 7313.23 803.559 1
-6 -4 -2 5623.78 552.654 1
-4 10 -2 7269.46 780.304 3
10 -6 -5 6641.3 788.455 1
10 -4 5 7453.24 1053.72 2
-4 10 -5 8574.65 851.427 3
-6 -4 -5 7166.24 642.101 1
-6 10 5 7816.79 650.214 1
-4 -6 5 5949.24 706.89 4
-6 -4 -5 7035.1 792.045 2
-4 10 -5 8672.14 940.912 1
10 -6 -5 6161.03 485.154 4
-6 10 5 7796.65 588.329 2
-6 10 5 7551.41 898.597 4
10 -4 5 6518.92 906.576 1
-6 -4 -8 2521.94 404.523 1
-6 -4 -8 2556.94 536.596 2
-4 10 -8 2628.53 471.547 3
10 -4 8 2994.59 718.518 2
10 -6 -8 2552.33 490.571 1
-4 10 -8 2559.43 579.283 1
10 -4 8 2790.72 695.887 1
-6 -4 -11 436.176 136.864 3
-6 -4 -11 566.542 233.283 1
-4 10 -11 412.466 177.868 1
10 -4 11 1108.49 397.851 1
10 -4 11 1069.48 453.378 2
10 -6 -11 463.337 129.049 1
-4 10 -11 885.744 220.79 3
-6 -4 -14 754.141 181.409 3
10 -4 14 1892.76 792.848 2
-4 -6 14 1319.81 420.922 3
-6 -4 -14 990.666 344.598 1
-4 10 -14 902.193 420.781 1
-6 10 17 393.89 233.478 3
-4 -6 17 331.635 348.328 3
-4 10 -17 25.338 244.812 1
10 -4 17 346.93 421.344 2
-6 -4 -17 788.464 355.826 1
-3 -7 -17 266.051 230.752 1
10 -7 17 -453.532 678.019 2
-7 10 -17 378.364 354.478 1
-3 10 17 444.521 294.207 3
10 -7 14 879.657 506.899 2
-3 -7 -14 558.792 144.086 1
-7 10 -14 535.909 192.4 3
-7 10 -14 1012.76 391.033 1
-3 10 14 1097.87 361.485 3
10 -7 11 1432.12 632.824 2
10 -7 11 1230.45 463.627 1
-7 10 -11 505.758 204.498 1
-3 -7 -11 833.191 213.037 1
-3 10 11 824.74 251.968 3
-3 -7 -11 892.56 253.516 3
-7 10 -11 790.816 221.647 3
-3 10 8 1080.03 303.06 3
10 -3 -8 1313.26 406.841 1
-3 -7 -8 615.96 212.298 3
-7 -3 8 538.818 151.838 4
-3 -7 -8 512.209 243.177 2
-7 10 -8 1433.25 446.123 1
10 -7 8 454.519 350.552 1
10 -7 8 863.286 457.52 2
-7 10 -8 1044.37 324.524 3
-3 -7 -8 745.299 178.458 1
-3 10 5 4307.31 751.847 4
-3 -7 -5 5163.09 552.5 2
-3 10 5 4315.58 631.391 3
-7 10 -5 3894.23 685.058 1
-7 10 -5 4072.46 598.273 3
-7 -3 5 4591.37 553.509 4
10 -7 5 4912.2 845.373 1
-3 -7 -5 4030.1 554.279 3
10 -3 -5 4666.91 626.796 1
10 -7 5 5293.15 930.626 2
-7 10 -2 6408.93 810.597 2
-3 10 2 7436.38 906.142 4
10 -7 2 7120.8 925.035 2
-3 -7 -2 6178.18 578.711 2
10 -7 2 5983.5 847.809 1
-3 -7 -2 8289.57 909.757 3
10 -3 -2 7256.41 828.124 1
10 -3 -2 8293.98 983.548 2
-7 10 -2 6779.71 926.461 1
-3 10 2 7246.72 653.565 1
-3 10 2 6022.61 811.21 3
-7 -3 -1 11862 877.727 1
10 -7 -1 14065.1 1191.11 1
-3 10 -1 16952.5 1156.98 4
10 -7 -1 13889 1169.25 2
-3 -7 1 12425.1 1194.86 4
10 -3 1 15599.3 1253.54 1
-7 -3 -1 14368.1 1091.43 2
-7 10 1 14719 1100.25 1
-3 10 -1 15432.7 1106.91 1
-3 -7 1 13913.8 1172.25 3
-7 10 1 14226 962.541 2
-3 10 -1 14976.8 1167.62 3
-7 10 1 12805.6 981.037 4
10 -3 1 15438.7 1298.59 2
-7 -3 -4 224.538 107.997 1
-7 10 4 866.057 269.125 1
10 -7 -4 409.488 158.432 4
-3 -7 4 -191.848 134.101 4
10 -3 4 155.613 120.046 1
-3 10 -4 159.943 164.736 1
10 -7 -4 76.7926 121.35 1
-7 10 4 294.359 221.88 4
10 -3 4 693.281 393.703 2
-7 10 4 500.397 203.115 2
-7 -3 -4 729.681 258.262 2
-3 -7 4 282.868 190.415 3
-3 10 -4 563.867 257.012 3
-7 10 7 546.835 201.826 1
-7 -3 -7 400.4 169.397 1
-3 -7 7 349.511 191.396 4
-7 10 7 615.233 227.56 4
-3 10 -7 786.939 311.052 1
10 -3 7 1166.25 528.286 2
10 -7 -7 658.352 258.698 1
10 -3 7 520.865 240.452 1
-3 10 -7 660.535 191.546 3
-3 -7 7 889.774 292.221 3
-7 -3 -7 533.491 229.377 2
10 -3 10 1586 543.675 2
10 -3 10 1195.13 411.723 1
-3 10 -10 1490.3 419.239 3
-3 10 -10 1140.88 411.327 1
-7 -3 -10 1359.6 498.058 2
10 -7 -10 931.355 295.58 1
-3 -7 10 970.422 333.757 3
-7 -3 -10 1327.39 351.639 1
10 -3 13 397.293 294.72 2
-3 10 -13 356.15 235.915 1
10 -3 13 403.981 172.35 1
10 -7 -13 414.302 181.249 1
-7 -3 -13 179.873 104.525 3
-7 -3 -13 254.787 213.534 1
10 -3 16 745.652 456.936 2
-7 -3 -16 295.295 271.149 1
-3 -7 16 107.773 169.951 3
-3 10 -16 319.914 176.965 1
-2 10 15 368.618 188.598 2
-2 -8 -15 387.2 189.951 1
-2 10 15 662.641 291.836 3
-8 10 -15 557.474 339.515 1
-8 10 -15 109.653 116.635 3
10 -8 15 345.625 531.465 2
-2 -8 -12 1854.39 325.755 1
10 -8 12 1941.47 819.412 2
-8 10 -12 1771.79 488.493 1
-8 10 -12 1255.68 287.678 3
-2 10 12 1644.64 387.783 3
10 -8 9 2853.72 778.383 2
-2 -8 -9 2035.21 412.161 3
-8 10 -9 1701.66 376.285 3
-2 10 9 1874.24 336.833 2
-8 10 -9 1542.43 403.658 1
10 -8 9 1889.55 600.529 1
-2 10 9 1150.36 283.599 3
-2 -8 -6 2417.26 453.411 3
-8 10 -6 2202.49 563.488 2
10 -2 -6 2601.84 486.586 1
10 -8 6 3068.56 757.326 1
-2 10 6 2621.36 478.574 3
-8 -2 6 2548.28 374.794 4
-8 10 -6 2362.81 566.673 1
-2 -8 -6 2689.49 383.681 2
10 -8 6 2852 761.73 2
10 -8 3 6701.08 920.112 1
-2 -8 -3 10013.1 652.387 2
-2 10 3 9358.5 1074.54 4
-2 10 3 9797.6 667.329 1
-2 10 3 9660.06 988.915 3
-2 -8 -3 10789 1012.89 3
10 -2 -3 9807.69 978.915 1
-8 10 -3 9639.01 1110.09 1
-8 10 -3 9843.1 1091.67 2
10 -8 3 7239.88 1011.98 2
-8 10 0 1050.56 344.309 2
10 -8 0 1849.59 527.295 1
10 -2 0 2770.38 591.084 1
-2 10 0 3229 602.246 4
-8 -2 0 2583.72 465.787 1
-8 -2 0 2487.16 500.737 2
-2 10 0 1460.94 438.135 1
-2 -8 0 1760.26 477.423 4
10 -8 0 2020.48 593.666 2
-8 10 0 1854.72 502.367 1
-2 10 0 2190.62 537.124 3
-2 -8 0 620.617 398.276 3
10 -2 0 2712.54 596.06 2
-8 -2 -3 4681.54 595.595 1
10 -2 3 5605.14 865.132 2
10 -8 -3 4737.92 680.993 2
-8 10 3 5393.88 606.733 2
-8 -2 -3 5175.69 710.01 2
-8 10 3 5905.79 680.267 1
-2 -8 3 5589.85 764.04 3
-2 -8 3 5266.45 723.243 4
10 -2 3 5207.41 704.118 1
-2 10 -3 6233.38 742.8 3
-8 10 3 5677.17 636.439 4
-2 10 -3 5687.26 725.816 1
10 -8 -3 5259.16 712.736 1
10 -8 -3 6332.06 652.502 4
-8 10 6 6327.68 672.735 1
-8 -2 -6 6556.33 848.402 2
-8 10 6 6186.89 651.371 2
-2 10 -6 6282.82 781.562 1
10 -8 -6 6018.39 740.364 1
-2 10 -6 6261.22 725.998 3
-8 10 6 6345.73 786.202 4
10 -2 6 6633.3 878.961 1
10 -2 6 6603.51 987.297 2
-2 -8 6 6903.87 904.168 4
-2 -8 6 6161.47 811.921 3
-8 -2 -6 6488.38 708.001 1
-2 10 -9 1844.56 380.273 3
-8 -2 -9 1684.71 489.971 2
-8 10 9 2046.64 513.292 4
10 -8 -9 1862.25 415.741 1
10 -2 9 1097.05 272.013 1
-2 -8 9 2931.15 651.1 3
-8 -2 -9 1967.84 430.1 1
-2 10 -9 2265.46 539.23 1
10 -2 9 2264.91 685.478 2
-2 10 -12 2247.4 586.266 1
-8 -2 -12 3037.07 734.42 2
10 -2 12 3994.5 1008.43 2
10 -2 12 3680.77 812.993 1
-2 -8 12 3250.03 690.509 3
10 -8 -12 2148.41 446.076 1
-8 -2 -12 2476.28 544.354 1
-8 -2 -12 2385.03 367.633 3
-2 10 -15 -268.989 363.506 1
10 -2 15 614.234 500.261 2
-8 -2 -15 297.069 109.642 3
-2 -8 15 558.863 414.648 3
-8 -2 -15 909.359 363.981 1
-9 10 -16 154.397 194.744 1
-1 -9 -16 361.023 181.397 1
-1 10 16 416.54 232.7 3
-1 10 16 55.4076 314.655 2
10 -9 16 404.124 302.353 2
-9 10 -16 226.733 123.162 3
-1 10 13 2259.17 491.992 2
-1 -9 -13 2155.86 373.803 1
-9 10 -13 2475.53 649.275 1
-1 10 13 1804.89 432.323 3
10 -9 13 2498.48 765.221 2
-9 10 -13 2011.71 398.659 3
-1 -9 -10 953.895 269.332 3
10 -9 10 1642.52 591.924 2
-9 10 -10 1149.53 437.384 1
-1 10 10 713.017 252.625 3
-1 10 10 721.926 236.441 2
-9 10 -10 976.518 316.998 3
10 -9 7 2435.86 625.752 1
-9 10 -7 2870.64 696.782 2
-9 10 -7 3513.09 740.516 1
-1 10 7 2504.31 318.966 2
-9 -1 7 2512.97 347.175 4
10 -9 7 3184.96 792.386 2
-1 10 7 2869.7 514.167 3
-1 -9 -7 2844.25 502.127 3
10 -1 -4 372.055 168.098 1
-1 10 4 345.96 175.182 4
-9 10 -4 465.701 157.657 1
10 -9 4 742.295 382.123 1
-1 -9 -4 385.754 189.93 3
10 -9 4 -44.2423 306.131 2
-1 10 4 557.473 139.727 3
-9 10 -1 4841.22 706.585 2
-9 -1 1 5100.82 702.687 1
-1 10 1 5138.96 759.776 4
10 -1 -1 4160.56 645.323 1
10 -1 -1 4718.44 728.605 2
-1 10 1 4469.96 507.929 1
-1 -9 -1 3885.56 717.152 4
-1 10 1 4121.78 614.607 3
10 -9 1 4547.01 756.298 2
10 -9 1 4900.07 747.134 1
-1 -9 -1 4060.54 651.373 3
-9 10 -1 4709.37 752.846 1
-9 -1 1 4455.45 679.452 2
10 -1 2 1336.38 422.257 2
10 -9 -2 1705.27 419.599 1
-1 -9 2 1662.26 460.442 4
-9 10 2 1632.81 407.275 1
-9 -1 -2 1033.51 338.099 1
-9 -1 -2 1487.12 420.134 2
-1 -9 2 1713.95 457.78 3
10 -9 -2 1413.67 342.654 4
10 -9 -2 1401.57 401.03 2
10 -1 2 883.55 280.926 1
-1 10 -2 1390.28 418.071 4
-9 10 2 1509.47 370.703 2
-1 10 -2 1101.85 334.053 3
-1 10 -2 1473.03 337.293 1
-1 -9 5 1744.65 385.237 4
-9 10 5 2038.41 410.138 4
10 -1 5 2663.79 623.546 2
-1 10 -5 2061.15 411.157 3
-9 -1 -5 2083.6 490.571 2
10 -9 -5 1943.15 401.346 1
10 -9 -5 2274.29 402.392 4
-9 10 5 1808.08 407.856 1
10 -1 5 2413.4 510.734 1
-1 -9 5 1695.53 443.579 3
-9 -1 -5 1913.89 384.355 1
-9 10 5 1788.44 365.663 2
-9 -1 -8 1691.77 459.383 2
-9 -1 -8 1500.47 370.451 1
10 -1 8 1317.37 347.648 2
-9 10 8 1918.21 424.577 4
10 -1 8 2175.11 522.994 1
10 -9 -8 1939.32 452.605 1
-1 -9 8 2581.29 690.976 3
-1 10 -8 1677.72 467.871 1
-1 10 -11 1031.23 426.068 1
10 -9 -11 915.505 321.877 1
-1 -9 11 1516.86 469.576 3
-9 -1 -11 1083.06 360.489 1
10 -1 11 1511.46 560.948 2
-9 -1 -11 1420.82 515.525 2
10 -1 11 1545.17 496.245 1
-9 -1 -14 527.378 318.017 1
10 -1 14 577.461 363.863 1
-1 10 -14 299.448 153.32 1
-1 -9 14 159.249 229.479 3
10 -1 14 626.562 325.441 2
-9 -1 -14 311.411 141.742 3
10 -9 -14 247.673 161.271 1
10 -1 17 -535.327 469.657 2
-9 -1 -17 5.29442 174.371 1
-1 -9 17 211.512 374.481 3
-1 10 -17 12.2867 214.481 1
0 10 17 -16.5279 245.293 2
0 -10 -17 337.153 209.553 1
-10 10 -17 -80.5217 333.936 1
-10 10 -17 203.097 65.4162 3
10 -10 17 265.617 306.094 2
0 -10 -14 270.755 125.841 1
10 -10 14 366.648 657.617 2
-10 10 -14 21.6936 90.3887 3
0 10 14 364.306 239.568 3
-10 10 -14 397.079 259.414 1
0 10 14 582.813 332.46 2
10 -10 11 1887.02 786.854 2
0 -10 -11 1314.86 211.669 1
0 10 11 1367.27 344.581 3
-10 10 -11 1697.1 363.703 3
-10 10 -11 1655.01 505.398 1
0 10 11 1483.6 385.806 2
0 -10 -8 836.233 277.787 3
-10 10 -8 812.485 370.679 2
10 -10 8 1220.38 521.864 2
10 -10 8 790.855 453.49 1
-10 10 -8 294.336 225.551 1
0 10 8 1029.68 267.28 2
0 10 8 110.695 102.258 3
-10 10 -5 1558.25 501.855 2
10 -10 5 907.652 474.013 1
10 -10 5 1137.35 533.246 2
10 0 -5 1173.62 333.221 1
0 -10 -5 1142.8 356.518 3
-10 10 -5 760.097 272.75 1
0 10 5 856.228 240.469 3
10 0 -5 958.633 170.565 4
-10 10 -2 7341.29 951.301 1
10 -10 2 7189.43 965.536 2
-10 0 2 6426.04 878.061 2
10 0 -2 6227.09 762.27 1
0 -10 -2 6707.39 828.524 3
10 -10 2 7378.66 991.629 1
-10 10 -2 8564.67 1034.5 2
-10 0 2 6691.44 812.55 1
0 10 2 6931.17 809.207 3
0 10 2 8024.4 1004.3 4
10 -10 -1 3129.6 580.653 1
-10 10 1 4283.74 665.641 2
10 0 1 4285.54 726.954 2
10 -10 -1 2944.04 584.292 2
-10 10 1 4110.18 676.304 1
10 0 1 4439.24 679.941 1
0 10 -1 4135.69 634.406 3
-10 0 -1 3067.54 626.659 2
0 -10 1 3428.33 611.704 3
-10 0 -1 3189.15 597.465 1
0 10 -1 5034.24 739.907 4
0 -10 1 3193.38 668.626 4
10 0 4 3375.62 576.091 1
-10 10 4 3736.9 597.459 2
0 10 -4 4106.72 610.706 3
-10 0 -4 3376.69 648.504 2
10 -10 -4 3345.15 530.576 4
10 0 4 3410.72 686.979 2
10 -10 -4 3445.73 551.802 1
-10 0 -4 3151.58 554.361 1
10 -10 -4 3591.31 564.241 2
-10 10 4 3463.67 588.297 1
0 -10 4 3644.53 700.353 4
-10 10 4 3476.11 490.972 4
0 -10 4 3477.33 640.234 3
-10 0 -7 6456.19 1034.24 2
10 -10 -7 8121.33 933.373 1
0 -10 7 7389.84 975.01 3
10 0 7 7129.92 1072.67 2
-10 0 -7 6432.27 860.161 1
10 0 7 6496.16 889.737 1
-10 10 7 7247.44 811.537 4
-10 10 7 8586.18 946.647 1
-10 0 -10 1355.86 393.72 1
10 0 10 1331.82 334.089 1
-10 0 -10 1535.22 446.411 2
10 0 10 1813.35 545.972 2
10 -10 -10 1502.03 390.501 1
-10 10 10 1584.19 405.097 4
0 -10 10 2552.17 615.647 3
10 0 13 665.024 359.167 2
10 0 13 -36 274.761 1
-10 0 -13 -94.6329 145.404 1
0 10 -13 -257.048 265.325 1
10 -10 -13 193.176 128.721 1
0 -10 13 575.736 379.428 3
-10 0 -16 50.3625 63.6808 3
-10 0 -16 303.136 226.277 1
10 0 16 173.062 290.997 2
0 10 -16 137.346 360.625 1
0 -10 16 -164.259 336.357 3
1 -11 -15 218.522 113.173 1
-11 10 -15 780.826 451.848 1
-11 10 -15 64.0625 127.144 3
1 10 15 88.4241 301.112 2
10 -11 15 254.046 470.159 2
1 10 12 414.535 225.378 2
1 -11 -12 560.98 161.82 1
1 -11 -12 428.486 132.969 1
10 -11 12 36.7105 288.308 2
1 10 12 78.0428 142.974 3
-11 10 -12 196.724 143.746 3
-11 10 -9 2304.49 618.667 1
10 -11 9 2815.6 916.287 2
1 10 9 1819.45 344.194 2
1 10 9 1230.28 381.028 3
1 10 6 917.737 330.696 3
-11 10 -6 801.521 360.365 2
10 -11 6 1273.65 369.642 2
10 -11 6 954.823 372.231 1
1 10 6 1145.52 215.75 2
-11 10 -6 1321.56 435.202 1
1 -11 -6 1220.08 336.847 3
-11 10 -3 4910.76 845.363 1
1 10 3 5239.64 863.133 4
-11 1 3 4811.21 737.242 1
-11 10 -3 4459.38 771.427 2
-11 1 3 4925.25 793.927 2
1 -11 -3 5114.2 732.647 3
10 -11 3 4190.34 791.176 1
1 10 3 4464.08 659.805 3
10 1 -3 3394.48 590.068 1
10 -11 3 4283.32 831.41 2
-11 1 0 989.955 332.169 1
1 -11 0 783.211 284.265 4
1 -11 0 663.736 202.113 3
1 10 0 726.805 332.498 4
-11 10 0 885.045 300.083 1
10 1 0 1142.83 349.369 2
10 1 0 1061.17 313.901 1
-11 10 0 1224.06 370.47 2
10 -11 0 823.675 255.928 2
10 -11 0 1057.51 312.602 1
1 10 0 774.63 249.6 3
-11 1 0 1202.81 393.425 2
-11 10 3 373.061 187.95 1
10 1 3 479.667 129.525 1
10 -11 -3 482.499 234.153 1
1 -11 3 58.7202 144.812 3
10 -11 -3 472.448 114.352 2
-11 1 -3 498.096 283.197 2
1 -11 3 437.667 202.833 4
10 -11 -3 318.417 169.125 4
-11 10 3 626.655 231.894 2
1 10 -3 812.915 298.124 4
1 10 -3 248.592 124.388 3
10 1 3 383.269 212.771 2
-11 1 -3 459.299 209.706 1
10 1 6 902.485 303.121 1
-11 10 6 624.196 218.553 4
1 -11 6 956.384 328.836 3
-11 1 -6 1100.16 407.889 2
10 -11 -6 751.76 271.871 4
10 -11 -6 1252.36 348.55 1
-11 10 6 774.206 297.677 1
-11 1 -6 1109.22 379.128 1
10 1 6 1034.86 363.812 2
-11 10 6 722.694 242.834 2
1 -11 6 1797.65 515.761 4
-11 1 -9 1280.26 507.254 1
10 -11 -9 661.707 259.245 1
10 1 9 553.642 261.156 1
-11 1 -9 1164.76 506.743 2
-11 10 9 792.906 195.632 4
10 1 9 728.09 341.173 2
1 -11 9 1075.45 367.58 3
10 -11 -12 1500.08 374.905 1
10 1 12 806.884 523.19 2
10 1 12 403.454 269.021 1
-11 10 12 729.082 293.664 4
-11 1 -12 643.079 295.185 1
1 -11 12 1152.78 446.635 3
-11 1 -15 191.318 217.1 1
10 1 15 585.661 325.08 1
10 -11 -15 170.395 156.739 1
1 -11 15 51.2292 316.832 3
2 10 16 162.076 249.394 2
-12 10 -16 -151.667 254.986 1
-12 10 -16 224.639 144.023 3
2 -12 -16 -113.054 87.266 1
10 -12 16 -88.3309 533.655 2
2 -12 -13 513.959 160.906 1
2 10 13 302.571 168.989 2
2 -12 -13 496.317 164.001 1
-12 10 -13 510.639 261.834 3
-12 10 -13 332.022 300.758 1
10 -12 10 3523.8 911.119 2
2 10 10 2547.43 464.946 2
2 10 10 2379.46 500.195 3
-12 10 -10 2443.5 641.397 1
-12 10 -7 2928.86 715.242 2
2 10 7 2561.09 389.162 2
2 -12 -7 2610.3 553.076 3
10 -12 7 3086.7 766.535 1
10 -12 7 4847.27 1041.98 2
2 10 7 2173.87 452.108 3
-12 10 -7 2282.17 575.719 1
2 -12 -4 3776.23 658.503 3
10 -12 4 3337.23 781.318 2
-12 10 -4 4016.85 797.145 2
-12 2 4 3149.8 604.752 1
10 -12 4 2938.38 725.864 1
10 2 -4 3087.26 551.771 1
10 2 -4 3511.72 453.535 4
-12 10 -4 4303.51 800.268 1
-12 2 4 3723.44 724.917 2
2 10 4 2498.96 471.03 3
10 -12 1 3871.75 722.706 2
2 -12 -1 3419.03 619.451 3
-12 10 -1 4409.89 719.22 2
-12 10 -1 4353.32 766.741 1
-12 2 1 4507.22 742.318 1
10 -12 1 3614.34 746.794 1
2 10 1 5085.88 726.503 3
2 10 1 6513.6 920.629 4
10 2 -1 4985.96 723.27 1
-12 2 1 5390.93 870.272 2
2 -12 -1 3605.17 766.318 4
2 -12 2 2393.88 498.866 3
-12 2 -2 3543.45 641.731 1
2 -12 2 3018.74 704.713 4
-12 2 -2 2646.8 592.043 2
-12 10 2 3521.09 651.748 1
10 2 2 2623.25 489.654 1
10 -12 -2 2931.51 628.229 4
10 -12 -2 3389.7 554.53 2
-12 10 2 2999.21 580.802 2
10 -12 -2 3143.8 563.997 1
2 10 -2 3265.66 583.037 4
10 2 2 2577.8 535.081 2
10 -12 -5 1129.34 346.157 1
2 -12 5 588.078 246.113 3
10 -12 -5 1553.01 444.817 4
-12 2 -5 1066.09 441.448 2
-12 10 5 858.683 327.473 1
10 2 5 1124.85 355.918 1
-12 10 5 1143.77 309.439 2
10 2 5 1028.92 396.26 2
-12 2 -5 1145.65 331.523 1
2 -12 5 882.536 372.579 4
-12 10 8 2127.41 579.029 1
-12 2 -8 2376.4 561.174 1
10 2 8 2285.68 533.496 1
-12 2 -8 3099.41 780.379 2
10 2 8 2501.23 621.351 2
10 -12 -8 3040.14 570.46 1
-12 10 8 1967.69 373.802 4
2 -12 8 2754.2 622.841 3
2 -12 11 2015.89 595.356 3
10 2 11 1646.31 541.281 2
10 -12 -11 1689.2 401.356 1
-12 10 11 2085.61 501.239 4
10 2 11 1989.62 511.285 1
-12 2 -11 1437.21 441.151 1
10 -12 -14 405.24 251.392 1
2 -12 14 313.73 288.789 3
10 2 14 148.926 202.012 1
-12 2 -14 373.44 179.661 1
3 -13 -14 183.245 86.5448 1
10 -13 14 720.362 626.203 2
3 -13 -14 412.492 184.067 1
-13 10 -14 89.1749 252.283 1
3 10 14 -85.5203 276.703 2
-13 10 -11 958.404 499.064 1
10 -13 11 886.67 590.415 2
3 10 11 1121.43 379.249 2
10 -13 8 19016.2 2098.1 2
3 10 8 14677.6 1084.31 2
-13 10 -8 16383.5 1694.08 1
3 -13 -5 3222.22 636.646 3
-13 10 -5 2862.64 703.026 2
3 10 5 2368.51 318.734 1
10 -13 5 1642.56 547.34 1
10 3 -5 3000.41 423.084 4
-13 10 -5 2552.21 620.382 1
10 -13 5 1637.54 469.983 2
3 -13 -2 765.988 367.512 4
10 -13 2 897.743 362.192 2
3 -13 -2 1163.92 224.71 2
3 -13 -2 1441.51 410.861 3
-13 3 2 1447.72 456.181 2
10 -13 2 1764.34 514.357 1
-13 10 -2 1881.1 497.927 1
-13 3 2 1633.87 438.158 1
3 10 2 1533.29 433.913 4
10 3 -2 1430.56 393.758 1
-13 10 -2 2234.87 552.376 2
-13 10 1 864.918 367.207 1
10 -13 -1 664.678 273.787 1
10 -13 -1 705.45 299.313 4
10 3 1 921.436 321.351 2
10 -13 -1 992.625 312.928 2
-13 3 -1 1132.08 396.979 2
-13 10 1 1464.64 440.308 2
3 -13 1 592.645 307.871 4
-13 3 -1 699.584 195.018 1
3 10 -1 1245.84 475.981 4
10 3 1 661.081 272.219 1
3 -13 1 705.904 328.895 3
10 3 4 3672.84 617.856 1
10 -13 -4 3483.9 676.982 4
3 10 -4 3713.07 601.208 4
-13 3 -4 3522.28 745.682 2
3 -13 4 3373 786.489 4
-13 10 4 3089.52 622.716 2
10 -13 -4 3380.91 584.441 1
3 -13 4 3724.91 660.85 3
-13 3 -4 3317.58 660.777 1
10 -13 -4 3206.94 546.175 2
10 3 4 4004.41 692.964 2
-13 10 4 3437.25 628.217 1
-13 10 7 734.878 325.77 1
-13 10 7 407.416 199.497 4
-13 3 -7 512.315 274.527 2
10 3 7 282.098 188.009 2
10 -13 -7 511.003 235.224 1
-13 10 7 663.848 354.564 2
3 -13 7 785.545 413.811 3
-13 3 -7 442.875 301.253 1
10 3 7 790.951 343.49 1
-13 3 -10 1274.23 453.142 1
-13 10 10 1838.49 397.083 4
3 -13 10 1074.58 403.734 3
10 3 10 1847.36 469.918 2
10 3 10 2074.19 519.263 1
10 -13 -10 1554.92 421.147 1
-13 10 13 306.88 171.535 4
10 3 13 444.774 305.123 2
-13 3 -13 37.3383 221.864 1
10 -13 -13 349.744 255.589 1
10 3 13 132.028 141.721 1
3 -13 13 -18.6309 160.723 3
10 -13 -16 957.706 391.169 1
10 3 16 1451.76 598.994 2
10 3 16 893.408 376.229 1
-13 3 -16 749.61 382.176 1
3 -13 16 1939.08 637.657 3
10 -14 15 151.559 420.315 2
4 -14 -15 253.101 108.415 1
4 10 15 345.642 246.28 2
4 -14 -15 296.391 133.771 1
-14 10 -15 157.598 272.862 1
4 10 12 978.81 385.118 2
4 -14 -12 798.356 185.347 1
-14 10 -12 806.908 499.47 1
-14 10 -9 836.925 523.384 1
4 10 9 576.346 241.825 2
10 -14 9 573.138 473.049 2
4 10 6 1571.98 350.917 2
10 -14 6 2134.66 705.498 1
10 -14 6 2345.66 701.83 2
-14 10 -6 2186.54 615.115 2
4 -14 -6 1879.12 273.934 1
10 4 -6 1410.4 308.719 4
4 10 6 1239.73 265.707 1
-14 10 -6 2554.36 719.825 1
-14 10 -3 308.575 206.201 2
4 -14 -3 592.82 286.651 3
-14 10 -3 440.457 255.162 1
10 -14 3 691.566 417.389 2
4 -14 -3 154.523 80.4774 2
-14 4 3 786.001 345.626 2
10 4 -3 635.6 326.737 1
10 -14 3 443.942 208.175 1
4 -14 -3 236.732 168.737 4
4 -14 -3 284.511 98.0179 1
10 4 -3 836.415 307.821 4
-14 4 3 944.66 391.499 1
4 -14 0 1581.57 603.963 4
4 -14 0 2309.43 568.403 3
-14 10 0 2129.42 539.498 1
10 -14 0 1573.33 442.119 1
-14 4 0 1691.02 466.491 2
4 -14 0 1551.02 334.924 2
10 -14 0 1748.15 449.392 2
10 4 0 1751.74 449.091 1
-14 10 0 2701.08 580.421 2
4 -14 0 1900.77 422.05 1
-14 4 0 1588.58 483.061 1
4 10 0 3468.64 729.264 4
10 -14 0 1920.21 574.485 4
4 -14 3 1126.15 325.414 3
-14 4 -3 1482.97 451.871 1
-14 10 3 1114.79 330.181 2
10 -14 -3 1824.58 559.027 4
10 -14 -3 1301.28 355.446 1
-14 10 3 1430.95 404.106 1
10 -14 -3 1225.39 301.193 2
-14 4 -3 2078.71 581.441 2
10 4 3 1793.35 432.526 1
4 10 -3 1350.82 347.066 4
4 -14 3 1503.42 538.518 4
10 4 3 1667.99 446.588 2
4 -14 6 2325.47 693.416 4
10 -14 -6 2777.62 522.444 1
10 4 6 2646.48 553.604 1
10 -14 -6 3134.42 691.142 4
10 4 6 2144.22 541.305 2
-14 4 -6 3492.73 818.404 2
-14 10 6 2291.86 574.373 1
-14 4 -6 2454.01 592.323 1
-14 10 6 2653.81 590.685 2
4 -14 6 2378.94 588.702 3
10 4 9 1105.02 333.933 1
-14 4 -9 965.284 427.447 1
10 4 9 752.168 351.831 2
-14 10 9 698.887 198.136 4
10 -14 -9 883.967 272.893 1
4 -14 9 185.155 214.81 3
10 -14 -12 732.73 299.876 1
4 -14 12 638.978 417.074 3
10 4 12 410.668 217.148 1
10 4 12 810.891 293.055 2
-14 10 12 524.152 251.836 4
-14 4 -12 787.296 381.069 1
4 -14 15 176.606 245.653 3
10 4 15 -165.322 296.951 1
10 4 15 115.556 382.737 2
10 -14 -15 -74.7702 203.62 1
-14 4 -15 156.895 313.316 1
-14 10 15 128.62 158.877 4
10 -15 13 474.863 260.747 2
-15 10 -13 287.826 190.56 1
5 10 13 578.453 240.849 2
5 -15 -13 439.016 164.128 1
5 -15 -10 355.915 121.186 1
5 10 10 298.974 110.739 1
10 -15 10 1.41161 370.186 2
5 10 10 457.09 323.147 2
-15 10 -10 214.41 329.578 1
5 10 7 1758.3 309.957 1
10 -15 7 1940.46 614.393 2
5 10 7 2023.09 434.737 2
5 -15 -7 2536.17 349.197 1
-15 10 -7 2153.17 622.011 1
10 -15 4 9394.63 1323.31 2
-15 5 4 3379.43 670.393 1
5 10 4 3731.44 512.67 1
10 5 -4 2960.75 515.686 4
-15 10 -4 6375.66 1078.68 2
5 -15 -4 5127.92 592.232 1
5 -15 -4 3105.38 781.409 4
-15 10 -4 5657.25 967.838 1
-15 5 4 3230.83 701.962 2
10 -15 4 6840 1164.72 1
5 -15 -1 1995.22 633.195 4
5 -15 -1 1563.29 406.497 1
5 -15 -1 1607.23 359.267 2
5 -15 -1 1030.99 418.834 3
-15 5 1 1521.09 477.821 2
10 -15 1 1748.22 459.8 2
-15 10 -1 2748.4 644.686 2
10 -15 1 1418.43 471.97 4
10 5 -1 1577.05 426.743 1
-15 5 1 1790.6 497.765 1
-15 10 -1 2619.84 649.225 1
10 -15 1 1248.12 421.681 1
5 10 1 1516.07 503.198 4
5 -15 2 756.345 289.881 1
-15 10 2 1321.07 428.953 2
-15 10 2 926.13 287.501 1
-15 5 -2 1399.67 465.354 2
5 10 -2 1370.17 380.373 4
10 5 2 1189.08 357.562 1
5 -15 2 1550.4 487.528 4
10 5 2 1061.61 367.185 2
10 -15 -2 1278.47 358.868 2
5 -15 2 984.352 317.067 2
10 -15 -2 1649.98 450.093 1
10 -15 -2 1425.4 508.49 4
5 -15 2 966.608 422.302 3
-15 5 -2 1193.41 427.779 1
-15 10 5 79.1685 241.947 1
5 -15 5 192.64 210.1 3
5 10 -5 299.512 236.554 4
10 5 5 288.202 239.652 2
-15 10 5 82.5615 143.227 2
-15 5 -5 462.064 352.631 1
10 5 5 349.357 247.6 1
-15 5 -5 433.658 309.044 2
5 -15 5 870.314 411.141 4
10 -15 -5 863.467 412.137 4
10 -15 -5 258.48 159.992 1
10 -15 -5 481.364 226.403 2
10 -15 -8 747.165 279.002 1
-15 5 -8 615.263 372.446 1
-15 10 8 449.766 218.662 1
5 -15 8 737.499 264.041 3
-15 10 8 980.969 453.831 2
10 5 8 989.341 376.531 2
10 5 8 613.573 205.69 1
-15 5 -11 1214.35 526.557 1
-15 10 11 744.914 236.638 4
10 5 11 573.258 290.256 1
10 5 11 741.695 393.886 2
5 -15 11 843.912 486.122 3
10 -15 -11 952.281 400.72 1
-15 5 -14 494.016 291.132 1
10 -15 -14 361.56 200.327 1
10 5 14 298.262 244.357 1
10 5 14 290.806 217.278 2
-15 10 14 287.021 177.28 4
5 -15 14 212.155 302.08 3
10 -16 14 419.498 506.742 2
6 10 14 481.616 347.859 2
6 -16 -14 603.069 232.879 1
-16 10 -14 286.766 228.103 1
-16 10 -11 696.479 332.385 1
10 -16 11 1665.73 652.445 2
6 10 11 1466.61 462.307 2
6 -16 -11 1223.87 233.168 1
6 10 11 917.533 217.924 1
-16 10 -8 987.089 370.343 1
10 -16 8 1660.81 552.323 2
6 10 8 2019.31 502.568 2
6 -16 -8 1425.32 263.018 1
6 10 8 1458.91 299.578 1
10 -16 5 1074.55 472.94 2
10 6 -5 1236.77 366.917 4
-16 10 -5 1405.1 585.546 1
6 -16 -5 767.412 209.246 1
6 10 5 1637.98 351.544 1
-16 6 5 1054.66 346.111 1
6 -16 -5 1523.74 667.642 4
-16 6 5 1072.65 431.096 2
10 6 -2 4622.69 715.018 1
-16 10 -2 6435.3 1062.38 2
-16 6 2 5428.19 932.032 2
6 10 2 5114.84 924.808 4
10 -16 2 5021.22 847.041 2
-16 10 -2 6691.98 1024.22 1
6 -16 -2 5423.15 1089.87 4
10 -16 2 5579.35 982.108 1
6 -16 -2 5485.3 626.383 2
10 6 -2 4351.96 677.534 4
10 -16 2 5182.74 1074.3 4
6 -16 -2 5411.73 744.448 1
-16 6 2 4985.2 845.798 1
6 -16 1 10918.7 1106.15 2
6 -16 1 10482.2 1253.09 3
10 -16 -1 11625 1100.26 2
-16 10 1 12281.4 1388.22 2
-16 6 -1 11913.4 1398.63 2
-16 10 1 10691.6 1275.59 1
-16 6 -1 10525.9 1241.51 1
6 10 -1 10539.2 1226.23 4
6 -16 1 11613.2 1579.88 4
6 -16 1 11735.2 1218.82 1
10 -16 -1 12141.7 1262.51 1
10 6 1 9363.74 1025.29 1
10 -16 -1 12174.9 1547.3 4
-16 6 -4 1078.86 464.297 1
6 -16 4 1951.05 675.994 4
-16 6 -4 1722.17 515.211 2
6 -16 4 1230.93 535.15 3
6 10 -4 1478.74 423.484 4
6 -16 4 1105.8 466.241 2
6 -16 4 1545.95 560.259 1
10 -16 -4 947.163 369.832 1
-16 10 4 1342.23 484.555 2
10 -16 -4 1511.38 564.705 4
10 -16 -4 1360.34 367.955 2
10 6 4 1467.29 490.805 2
-16 10 4 1401.68 425.173 1
10 6 4 1322.54 383.06 1
6 -16 7 1404.86 392.886 3
10 6 7 1209.14 390.388 1
-16 10 7 883.597 428.19 1
-16 6 -7 1250.74 490.555 1
10 6 7 1303.66 429.826 2
10 -16 -7 714.617 257.312 1
-16 10 7 1438.49 526.44 2
-16 6 -10 1660.77 632.1 1
10 -16 -10 1418.81 420.981 1
10 6 10 1346.46 431.364 1
10 6 10 1548.2 604.82 2
6 -16 10 2150.99 786.086 3
6 -16 13 245.949 422.734 3
10 6 13 656.08 257.436 1
-16 6 -13 324.874 306.086 1
10 6 13 1013.1 473.62 2
10 -16 -13 934.714 389.006 1
-16 10 13 535.556 186.384 4
10 -17 15 -668.012 713.235 2
7 10 15 425.011 321.791 2
7 -17 -15 -323.713 189.42 1
-17 10 -15 544.542 416.123 1
7 10 12 300.252 176.185 1
10 -17 12 389.192 372.408 2
7 10 12 691.375 354.157 2
7 -17 -12 433.806 165.877 1
-17 10 -12 243.553 303.072 1
7 10 9 1202.59 276.124 1
10 -17 9 1359.13 670.885 2
7 10 9 1697.98 531.935 2
7 -17 -9 1154.27 269.816 1
-17 10 -9 1412.51 511.521 1
-17 7 6 1017.5 404.781 1
-17 10 -6 874.288 458.851 1
10 -17 6 601.498 384.113 2
7 -17 -6 385.999 175.851 1
7 10 6 1070.03 315.08 1
10 7 -6 913.887 280.746 4
7 10 6 817.675 307.794 2
-17 7 3 1792.85 539.644 1
7 -17 -3 2176.22 386.507 2
10 7 -3 2144.46 482.187 4
7 -17 -3 2136.18 473.914 1
10 -17 3 4138.65 859.362 2
-17 10 -3 3661.07 852.024 1
-17 7 3 1367.85 490.311 2
7 10 3 1837.58 405.091 1
10 -17 3 3953.16 841.568 1
7 -17 -3 2209.25 691.193 4
-17 10 0 4854.79 871.926 1
-17 10 0 4782.31 888.837 2
7 -17 0 6844.89 867.048 2
10 -17 0 6514.62 913.859 2
-17 7 0 6416.39 1028.52 2
10 -17 0 7078.6 1051.37 1
7 -17 0 6965.58 948.98 1
-17 7 0 5869.61 943.044 1
7 10 0 5086.57 842.36 4
7 -17 0 6696.76 1262.16 4
10 7 0 4461.87 704.248 1
10 -17 0 6870.08 1255.17 4
7 -17 3 820.481 339.254 1
7 -17 3 1073.86 459.933 2
10 -17 -3 266.181 157.871 1
10 7 3 533.84 206.483 1
-17 7 -3 631.026 423.531 1
7 10 -3 657.984 300.872 4
10 -17 -3 764.517 375.065 4
-17 10 3 722.844 229.009 1
-17 10 3 528.471 212.899 2
10 -17 -3 1230.21 349.556 2
7 -17 6 1520.78 518.515 3
7 -17 6 1689.79 522.379 2
10 7 6 1345.66 456.21 2
10 -17 -6 1578.98 586.787 4
-17 7 -6 1438.88 505.298 1
-17 10 6 1308.58 489.384 1
7 10 -6 1396.66 375.697 4
10 7 6 1954.07 477.202 1
10 -17 -6 1541.62 396.216 1
-17 10 6 1485.79 564.637 2
10 -17 -9 3123.85 559.326 1
7 -17 9 2804.03 840.357 2
-17 7 -9 3799.45 842.339 1
10 7 9 3701.43 805.517 2
10 7 9 3505.22 638.398 1
7 -17 9 4279.68 928.849 3
-17 7 -12 150.098 179.035 1
10 7 12 229.219 214.442 1
10 7 12 -52.1939 229.79 2
7 -17 12 -174.39 348.821 2
10 -17 -12 -184.591 266.173 1
10 7 15 79.638 212.988 1
7 -17 15 -444.39 499.798 2
-17 10 15 -94.6492 182.945 4
10 7 15 3.25819 286.365 2
10 -17 -15 -116.076 275.52 1
-17 7 -15 -324.785 321.341 1
8 10 13 841.399 262.735 1
10 -18 13 537.294 627.951 2
8 -18 -13 371.938 151.116 1
8 10 13 970.301 428.097 2
-18 10 -13 17.1331 177.373 1
10 -18 10 400.593 232.117 2
8 10 10 540.027 233.8 1
8 10 10 666.329 358.653 2
8 -18 -10 233.35 157.076 1
-18 10 -7 1798.76 668.127 1
-18 8 7 1271.42 480.107 1
10 -18 7 1119.12 571.743 2
8 -18 -7 1202.08 334.507 1
8 10 7 1682.43 412.222 1
10 8 -7 879.195 312.738 4
8 10 7 1111.23 389.158 2
10 8 -4 956.877 357.386 4
10 -18 4 416.962 312.273 2
-18 8 4 464.76 344.173 1
8 -18 -4 670.745 203.485 1
-18 10 -4 592.52 329.757 1
8 10 4 753.868 176.025 1
8 -18 -4 1063.04 257.333 2
10 -18 1 1247.15 390.02 1
8 10 1 1270.06 390.921 1
8 -18 -1 1265.24 399.671 1
10 -18 1 1036.08 398.481 2
8 -18 -1 1442.15 414.959 2
-18 8 1 1599.87 559.599 1
10 8 -1 926.124 389.168 4
-18 10 -1 1730.36 578.079 1
8 10 1 1482.52 492.766 4
10 8 -1 1104.81 374.505 1
-18 10 2 1663.13 522.673 2
8 -18 2 1941.84 532.211 2
10 8 2 1936.56 505.187 1
-18 10 2 1226.63 450.287 1
8 -18 2 1507.25 471.619 1
10 -18 -2 1501.96 426.339 1
10 -18 -2 2152.96 475.468 2
10 -18 -2 2051.51 670.261 4
8 10 -2 1791.5 512.933 4
-18 8 -2 1852.45 590.11 1
8 -18 5 311.293 216.941 2
8 10 -5 442.353 265.152 4
10 -18 -5 456.998 195.553 2
10 -18 -5 38.6556 267.43 4
-18 8 -5 554.749 297.01 1
10 -18 -5 673.006 331.418 1
-18 10 5 478.607 280.938 1
10 8 5 734.589 347.297 2
10 8 5 493.982 223.516 1
-18 10 8 1431.69 566.365 1
8 -18 8 827.017 359.944 2
10 8 8 1735.78 537.674 2
10 8 8 1745.79 446.99 1
-18 8 -8 1775.68 683.809 1
10 -18 -8 1610.85 393.265 1
-18 8 -11 410.167 290.08 1
8 -18 11 491.918 326.042 2
10 8 11 438.358 227.053 1
10 -18 -11 446.03 178.519 1
10 8 11 352.7 242.343 2
10 8 14 40.9391 290.771 2
10 -18 -14 2.45087 206.583 1
8 -18 14 -63.8489 465.518 2
10 8 14 312.317 193.408 1
-18 8 -14 -180.456 300.787 1
9 10 14 350.969 178.784 1
9 -19 -14 173.832 121.704 1
10 -19 14 826.512 682.759 2
9 10 14 524.286 316.275 2
-19 10 -14 206.802 361.903 1
-19 10 -11 957.555 518.406 1
9 -19 -11 568.587 215.197 1
9 10 11 751.207 227.635 1
9 10 11 965.113 462.095 2
10 -19 11 1042.46 408.799 2
9 10 8 1941.8 463.445 1
-19 10 -8 2127.18 685.812 1
9 10 8 2011.3 636.723 2
-19 9 8 1491.14 574.928 1
9 -19 -8 1937.8 428.908 1
10 -19 8 1995.79 743.235 2
9 10 5 667.32 241.425 1
9 -19 -5 453.352 181.46 2
9 -19 -5 100.767 117.059 1
-19 9 5 617.283 293.509 1
10 -19 5 504.322 298.317 2
-19 10 -5 431.392 243.437 1
10 9 -5 788.496 321.798 4
10 -19 2 480.604 244.18 1
10 -19 2 707.063 240.247 2
9 -19 -2 848.396 279.543 2
-19 9 2 479.114 278.059 1
-19 10 -2 1050.71 480.615 1
10 9 -2 715.162 328.388 4
9 -19 -2 817.872 223.096 1
9 10 2 577.396 249.879 1
10 -19 -1 1926.78 429.032 2
-19 9 -1 3383.18 759.422 1
9 -19 1 2215.01 575.896 1
10 -19 -1 2351.2 596.527 1
9 -19 1 1984.45 485.666 2
-19 10 1 2117.75 666.575 1
9 10 -1 2779.31 700.201 4
10 9 1 2300.91 533.58 1
10 -19 -4 327.018 168.453 2
-19 9 -4 558.941 307.843 1
9 -19 4 1032.55 413.191 2
10 9 4 206.522 125.938 1
9 10 -4 496.647 223.651 4
-19 10 4 486.873 221.527 1
10 -19 -4 218.32 126.101 1
9 -19 7 -519.454 530.527 2
-19 9 -7 -239.743 379.961 1
10 -19 -7 -10.2966 152.186 1
-19 10 7 -65.4624 342.026 1
10 9 7 699.506 363.747 1
10 9 7 647.546 277.438 2
9 10 -7 560.939 310.717 4
-19 9 -10 554.47 424.983 1
9 -19 10 499.411 458.966 2
10 9 10 72.7758 315.779 2
10 9 10 277.214 198.07 1
10 -19 -10 159.753 173.007 1
-19 9 -13 712.421 501.92 1
10 -19 -13 -48.8345 146.63 1
9 -19 13 593.896 388.451 2
10 9 13 105.352 120.652 1
10 9 13 335.981 305.247 2
10 -20 0 1194.22 399.44 1
10 10 0 424.517 214.479 4
-20 10 0 541.82 462.087 1
10 10 0 755.172 295.488 1
10 -20 0 1379.15 430.526 2
10 10 3 1152.87 389.837 1
10 -20 -3 1495.79 343.878 2
10 10 -3 813.258 355.86 4
10 -20 3 1230.84 435.688 2
10 -20 -3 1473.78 472.151 1
-20 10 3 685.594 301.358 1
-20 10 -3 1885.58 621.338 1
10 -20 6 3000.76 875.017 2
10 10 -6 1497.71 428.265 4
10 -20 -6 2051.17 468.253 1
-20 10 -6 2752.41 754.473 1
10 10 6 2191.5 505.977 1
10 10 6 2050.21 588.059 2
-20 10 6 1816.65 608.967 1
10 10 9 597.643 310.097 1
10 -20 9 958.492 516.743 2
-20 10 -9 821.337 478.91 1
10 -20 -9 548.724 175.956 1
10 10 9 583.018 370.063 2
-20 10 9 299.985 333.569 1
-20 10 -12 884.827 549.183 1
10 -20 12 1233.92 465.523 2
10 10 12 1130.16 458.351 2
10 10 12 717.747 258.069 1
10 -20 -12 1207.79 350.093 1
-5 -6 -17 311.351 263.31 1
-6 11 -17 -458.069 425.968 1
-5 11 17 220.323 153.167 3
11 -6 17 172.145 537.954 2
-6 11 -14 -29.2627 209.048 1
11 -6 14 675.802 519.458 2
-5 11 14 318.11 233.968 3
-6 11 -14 299.416 134.569 3
-5 -6 -14 196.503 64.0467 3
-5 -6 -14 581.558 252.959 1
11 -6 11 423.826 437.939 2
-6 11 -11 526.481 253.245 1
11 -5 -11 545.301 198.451 1
11 -6 11 887.379 429.061 1
-5 -6 -11 438.728 124.86 1
-5 11 11 347.682 125.074 3
-5 -6 -11 291.478 142.978 3
-6 11 -11 908.188 270.227 3
-6 -5 8 11014.4 1050.81 4
-5 -6 -8 10614.6 1042.04 2
-5 -6 -8 10468.7 745.535 1
11 -6 8 12873.6 1633.85 2
-6 11 -8 12203.2 1051.4 3
-5 -6 -8 10446.8 923.173 3
-6 11 -8 11153.7 1210.41 1
-5 11 8 13136.1 1243.93 3
11 -6 8 11831.6 1442.43 1
11 -5 -8 9897.37 1027.59 1
-5 11 5 3095.46 554.082 3
-5 11 5 2664.74 561.984 4
-6 11 -5 2421.48 537.019 1
-5 11 5 2791.15 356.695 1
-5 -6 -5 2811.64 438.243 2
11 -6 5 2715.51 636.091 2
-5 -6 -5 2592.53 328.268 1
11 -6 5 2642.9 622.928 1
-6 -5 5 2509.18 470.048 4
11 -5 -5 2525.7 490.557 1
-6 11 -5 2984.64 515.181 3
-5 -6 -5 3273.88 509.086 3
11 -5 -2 4143.28 644.738 1
-6 11 -2 3051.87 599.203 2
11 -6 2 4207.63 705.594 1
-6 11 -2 3294.47 655.454 3
-5 -6 -2 4508.26 547.951 2
11 -5 -2 4159.54 725.41 2
11 -6 2 5154.13 850.703 2
-5 11 2 3546.18 681.291 3
-5 11 2 4002.61 727.534 4
-6 11 -2 4415.27 804.852 1
-5 11 2 3155.18 393.018 2
-5 11 2 3498.57 526.244 1
-6 11 1 6858.33 642.679 2
-5 11 -1 6084.08 774.473 3
11 -5 1 7046.66 858.978 1
11 -5 1 7091.76 906.21 2
-5 11 -1 5339.97 692.383 4
11 -6 -1 6255.29 810.76 1
-6 -5 -1 5652.8 664.967 2
-6 11 1 5178.22 734.054 4
11 -6 -1 5873.55 819.257 2
-6 11 1 7205.52 874.788 3
-6 11 1 6193.93 706.94 1
-5 11 -1 6276.55 796.012 1
-6 -5 -4 11044.5 987.559 2
11 -5 4 11269.2 1200.87 1
11 -5 4 11133.6 1318.61 2
-5 -6 4 11862.2 1094.87 4
11 -6 -4 12341.1 1122 1
-6 11 4 12390.3 898.643 1
-6 -5 -4 11077.6 781.719 1
-5 11 -4 13696.6 1232.78 1
-6 11 4 12031.5 755.616 2
-6 11 4 12984 1196.87 4
-5 11 -4 12576 1104.13 3
11 -6 -4 10807.4 654.942 4
-6 11 7 470.426 173.301 1
11 -6 -7 406.233 205.415 1
-6 11 7 267.783 173.565 4
-6 -5 -7 563.265 243.422 2
-5 -6 7 549.818 210.776 4
11 -5 7 948.779 520.285 2
-6 -5 -7 511.313 191.162 1
11 -5 7 225.509 149.946 1
-5 11 -7 615.952 347.352 1
-5 11 -7 646.931 265.185 3
-6 -5 -10 2456.94 563.964 2
-5 11 -10 2448.12 553.619 1
-6 -5 -10 2304.42 398.074 1
-6 -5 -10 2168.67 383.672 3
-5 11 -10 2337.83 434.35 3
11 -5 10 2714.01 764.708 2
11 -6 -10 1324.89 343.376 1
11 -5 10 2936.28 667.009 1
-5 11 -13 999.989 318.689 3
-6 -5 -13 1482.87 367.861 1
11 -5 13 2282.49 916.084 2
-5 11 -13 1195.36 457.165 1
-6 -5 -13 1259.18 301.578 3
-6 11 16 168.862 225.898 3
-5 11 -16 13.9966 287.934 1
11 -5 16 975.745 681.284 2
-6 -5 -16 223.275 176.645 1
-5 -6 16 925.079 458.701 3
-4 -7 -15 644.745 226.548 1
-7 11 -15 351.375 234.665 3
-7 11 -15 156.795 153.173 1
-4 11 12 1115.74 377.459 3
11 -7 12 2483.37 882.226 2
-7 11 -12 1199.34 322.61 3
-4 -7 -12 1331.61 318.729 3
-4 -7 -12 1447.74 325.082 1
-7 11 -12 1122.55 408.879 1
-4 -7 -9 5159.15 478.118 1
11 -4 -9 3932.1 640.176 1
-4 -7 -9 7012.27 809.94 2
11 -7 9 9080.97 1355.71 1
-7 11 -9 6488.53 951.104 1
11 -7 9 8015.14 1307.37 2
-4 -7 -9 6147.53 690.699 3
-7 -4 9 4694.34 631.732 4
-4 11 9 6701.94 829.337 3
-7 11 -9 5334.18 676.497 3
-4 11 6 2991.99 558.302 3
-4 -7 -6 2308.34 282.11 1
-7 11 -6 3119.99 637.723 1
-7 11 -6 2559.8 475.86 3
11 -7 6 2638.13 618.103 1
-4 11 6 2411.71 294.18 1
11 -4 -6 2635.68 515.168 1
-7 -4 6 2907.75 471.616 4
-4 -7 -6 2488.15 427.691 2
11 -7 6 2805.16 767.223 2
-4 -7 -6 2480.52 465.803 3
-4 11 6 2867.05 640.571 4
-7 11 -3 2163.77 477.903 2
-4 -7 -3 2092.23 362.369 2
-4 11 3 3121.53 438.794 1
-7 11 -3 2503.84 563.077 1
11 -7 3 2231.23 595.119 2
-4 11 3 2365.28 541.959 3
-7 11 -3 2373.75 498.101 3
11 -4 -3 2941.54 509.96 1
-4 11 3 2921.1 616.466 4
-4 -7 -3 2690.82 528.257 3
11 -7 3 2455.69 563.469 1
-7 11 0 4467.41 597.045 2
11 -7 0 5339.47 787.318 1
11 -4 0 5358.43 749.954 2
-4 11 0 3654.96 598.301 3
11 -7 0 5214.31 818.907 2
11 -4 0 5347.81 739.469 1
-7 11 0 4637.33 681.966 1
-7 -4 0 3564.39 565.5 2
-4 11 0 4698.63 662.027 4
-4 11 0 3941.78 576.537 1
-4 11 -3 440.528 272.589 1
-7 -4 -3 273.394 127.293 2
11 -4 3 683.651 269.251 1
-4 -7 3 534.342 212.226 4
-7 11 3 289.227 123.376 2
-7 11 3 549.254 256.181 4
-7 11 3 202.304 164.96 1
-7 -4 -3 225.671 117.535 1
-4 11 -3 455.825 204.566 3
11 -4 3 426.193 319.763 2
11 -7 -3 262.08 194.544 2
11 -7 -3 256.182 141.607 1
-4 11 -6 972.343 195.805 1
11 -7 -6 877.819 348.779 1
-7 -4 -6 1024.59 345.623 2
11 -4 6 1202.79 426.53 2
-7 11 6 1011.4 364.359 4
11 -4 6 1737.96 523.613 1
-7 -4 -6 1277.32 281.203 1
-7 11 6 1061.62 250.453 1
-4 11 -6 1069.73 293.338 3
-7 11 6 1304.37 259.086 2
-4 -7 6 895.719 282.393 4
11 -7 -9 7341.13 866.611 1
-7 11 9 7425.74 1050.39 4
-7 -4 -9 8404.72 1041.32 2
11 -4 9 10823.5 1469.05 2
-4 11 -9 9459.08 1147.33 1
-4 11 -9 9082.07 909.199 3
-7 -4 -9 7717.27 765.997 1
11 -4 9 9949.99 1313.11 1
11 -7 -12 156.955 196.819 1
-4 11 -12 92.8818 151.197 3
11 -4 12 134.046 227.882 1
-4 11 -12 -42.7082 256.069 1
-4 -7 12 503.71 444.178 3
-7 -4 -12 135.737 144.504 1
-7 -4 -12 158.478 85.9589 3
-7 -4 -15 280.315 112.076 3
-4 11 -15 685.886 403.052 1
11 -4 15 691.581 787.461 2
-7 -4 -15 232.631 182.99 1
-4 -7 15 769.171 253.11 3
-8 11 -16 344.27 181.278 3
-3 -8 -16 239.028 159.499 1
-3 11 16 -19.2434 148.792 3
-3 -8 -13 466.418 167.795 1
-8 11 -13 142.286 139.909 3
-8 11 -13 290.222 293.791 1
-3 11 13 168.474 191.193 3
-8 11 -10 2879.24 488.862 3
-3 -8 -10 3227.37 486.876 3
11 -8 10 4309.45 868.045 1
11 -8 10 2997.96 776.289 2
-3 -8 -10 3028.05 334.957 1
-3 11 10 3451 594.545 3
-8 11 -10 3184.77 648.006 1
-8 11 -7 316.805 258.287 1
-3 -8 -7 838.091 239.745 2
11 -8 7 1355.25 577.616 2
11 -8 7 476.505 348.562 1
-3 11 7 439.555 203.066 3
-8 -3 7 431.492 144.682 4
-8 11 -7 485.082 208.254 3
11 -3 -7 550.525 232.89 1
-3 -8 -7 629.028 220.148 3
-3 11 4 3658.12 688.498 4
-3 11 4 3607.97 594.044 3
-3 -8 -4 3522.38 445.737 2
-8 11 -4 2785.47 605.948 2
11 -8 4 2991.1 677.914 2
-8 11 -4 2915.07 563.524 1
11 -8 4 4283.19 828.002 1
-3 11 4 3871.36 393.122 1
-3 -8 -4 2719.19 495.258 3
11 -3 -4 3672.94 596.297 1
-3 11 1 4777.17 711.865 4
-8 11 -1 5995.21 780.35 2
-3 -8 -1 4799.48 714.386 3
11 -8 1 5637.9 848.649 2
11 -8 1 5453.04 803.11 1
-8 -3 1 4987.87 764.898 2
11 -3 -1 5491.22 729.481 1
11 -3 -1 5349.58 786.364 2
-3 11 1 5060.31 597.204 1
-3 11 1 5043.62 715.071 3
-8 11 -1 5954.96 830.949 1
-8 11 2 9955.94 938.056 1
-8 11 2 9896.68 844.856 2
11 -3 2 9915.69 1155.62 2
11 -3 2 9480.81 1040.04 1
-8 -3 -2 9457.39 1000.61 2
11 -8 -2 10214.2 1091.17 1
11 -8 -2 9828.37 1046.62 2
-8 11 2 8816.11 869.098 4
-3 11 -2 9439.31 954.403 3
-3 11 -2 9827.7 963.715 4
-8 -3 -2 9117.22 825.736 1
-3 -8 2 7277.16 930.156 3
-3 -8 2 7904.68 994.791 4
-3 11 -2 8471.42 871.14 1
11 -3 5 7830.07 1030.65 1
-8 -3 -5 7042.07 876.674 2
-3 11 -5 6909.85 850.629 1
-8 11 5 6951.14 654.119 2
-3 11 -5 7312.35 808.616 3
11 -8 -5 6819.28 821.688 1
-8 -3 -5 6878.01 709.04 1
-8 11 5 7532.51 765.761 1
-8 11 5 7482.94 865.112 4
-3 -8 5 7335.98 906.945 4
-3 -8 5 8304.88 977.155 3
11 -3 5 8473.5 1166.42 2
11 -8 -5 7364.04 650.012 4
-8 -3 -8 2761.8 484.129 1
-3 11 -8 3441.18 697.084 1
-8 11 8 3087.22 708.534 4
-3 -8 8 3031.86 682.4 4
11 -3 8 4600.22 914.114 2
11 -3 8 2592.8 668.389 1
-3 -8 8 2327.11 548.201 3
-8 -3 -8 2349.07 557.952 2
-3 11 -8 3217.34 563.258 3
11 -8 -8 2633.15 528.485 1
11 -3 11 1513.2 501.062 2
-3 11 -11 2215.84 589.922 1
-8 -3 -11 2171.39 595.971 2
-3 11 -11 2102.85 438.739 3
-3 -8 11 3358.43 771.652 3
11 -3 11 1781.5 576.624 1
11 -8 -11 1838.53 413.893 1
-8 -3 -11 1405.99 385.754 1
-3 11 -14 278.704 193.371 1
11 -3 14 4.15391 284.684 2
-8 -3 -14 584.215 347.606 1
-3 -8 14 31.8313 279.663 3
-8 -3 -14 26.2882 56.9745 3
-3 11 -17 -51.9862 238.051 1
-3 -8 17 114.065 243.488 3
-8 -3 -17 70.0025 237.852 1
-2 11 17 22.2213 255.681 2
11 -9 17 302.749 393.017 2
-9 11 -17 25.4538 339.418 1
-2 -9 -17 121.914 137.217 1
-9 11 -17 -92.1034 146.511 3
-2 11 17 -54.2027 188.326 3
11 -9 14 -377.482 711.261 2
-2 11 14 58.4714 182.007 2
-9 11 -14 198.505 363.787 1
-2 -9 -14 194.374 77.0705 1
-9 11 -14 -12.034 122.867 3
-2 11 14 -341.856 275.647 3
-9 11 -11 174.438 94.5381 3
-2 -9 -11 309.275 213.189 3
11 -9 11 122.037 332.935 2
-9 11 -11 387.936 397.184 1
-2 11 11 306.187 147.064 2
-2 -9 -11 342.242 114.208 1
-2 11 11 25.22 104.883 3
-2 -9 -8 946.736 311.771 3
-9 11 -8 1337.39 366.941 3
11 -2 -8 1169.45 375.394 1
-2 11 8 1571.68 287.784 2
11 -9 8 754.89 390.836 2
11 -9 8 935.058 354.01 1
-9 11 -8 1559.68 516.145 1
-9 -2 8 468.789 173.041 4
-2 11 8 1157.34 307.009 3
11 -2 -5 4053.69 633.355 1
-2 -9 -5 4376.17 449.106 2
-2 11 5 3704.53 718.687 4
-9 11 -5 3809.98 722.107 2
11 -9 5 4885.88 924.271 2
11 -9 5 4249.38 791.668 1
-9 11 -5 4454.94 786.404 1
-2 11 5 4455.24 641.771 3
-2 -9 -5 4150.23 605.041 3
-2 11 2 3053.24 524.492 3
11 -9 2 3635.7 719.731 2
-9 11 -2 3542.88 638.524 2
-9 11 -2 4320.48 694.17 1
11 -2 -2 3563.48 572.188 1
-2 11 2 3917.04 456.746 1
-2 11 2 3886.02 676.041 4
-2 -9 -2 4255.38 676.293 3
11 -9 2 3927.27 754.126 1
11 -9 -1 15010.9 1281.96 1
-2 -9 1 14393.6 1396.59 4
-9 11 1 15149.7 1117.92 2
11 -9 -1 14729.1 1269.97 2
-9 -2 -1 12592.3 1130.28 2
11 -2 1 13596.1 1269.28 2
11 -2 1 14742 1232.24 1
-9 11 1 14749.4 1197.84 1
-2 -9 1 12716.4 1177.11 3
-2 11 -1 13821.4 1154.19 3
-2 11 -1 13147.9 1106.19 4
-9 -2 -1 12814.1 1046.71 1
-2 11 -1 13470.7 1024.47 1
-9 -2 -4 4647.29 722.149 2
-2 11 -4 4025.76 602.031 1
11 -9 -4 5396.68 736.126 1
-9 11 4 5220.12 676.808 1
-9 11 4 4369.5 583.168 4
-2 -9 4 4824.06 765.095 4
11 -2 4 5305.37 881.774 2
11 -9 -4 5933.16 655.052 4
-2 11 -4 4570.66 658.928 3
-9 -2 -4 5347.01 680.662 1
-2 -9 4 5304.85 745.999 3
11 -2 4 4589.51 716.672 1
-9 11 4 5347.64 626.381 2
-2 -9 7 2320.52 504.648 3
-9 -2 -7 2405.13 584.782 2
11 -9 -7 2292.6 494.818 1
-9 11 7 1757.33 399.386 4
-2 11 -7 2022.42 472.053 1
11 -2 7 2132.91 606.04 2
-9 -2 -7 2418.2 462.398 1
-2 -9 7 3367.83 663.798 4
11 -2 7 2462.4 550.38 1
-9 11 7 1911.05 399.327 2
-2 11 -7 2254.98 457.957 3
-9 11 7 2244.14 416.938 1
-2 11 -10 1688.83 444.666 1
-9 -2 -10 1978.16 444.284 1
11 -9 -10 2269.53 471.706 1
-9 -2 -10 2814.57 682.148 2
11 -2 10 2602.25 737.397 2
11 -2 10 2710.21 630.945 1
-9 11 10 2163.95 556.209 4
-2 -9 10 3441.44 728.685 3
-2 11 -13 -59.8905 224.259 1
-2 -9 13 101.146 289.968 3
11 -2 13 -17.1769 266.419 1
-9 -2 -13 -33.2933 113.207 3
-9 -2 -13 77.1986 139.337 1
11 -9 -13 153.075 130.417 1
11 -2 16 477.167 365.467 2
-9 -2 -16 156.746 232.299 1
-2 -9 16 -129.665 172.038 3
-9 -2 -16 104.68 65.5135 3
11 -10 15 322.441 363.356 2
-10 11 -15 86.4558 152.68 1
-1 -10 -15 201.478 189.464 1
-1 11 15 159.69 179.312 3
-10 11 -15 375.07 179.37 3
-1 11 15 176.517 250.478 2
-10 11 -12 283.66 117.343 3
-1 11 12 286.139 149.231 2
-1 -10 -12 294.997 109.603 1
-10 11 -12 113.404 306.019 1
-1 11 12 182.529 114.583 3
11 -10 12 151.346 473.995 2
-10 11 -9 1546.24 366.903 3
-1 -10 -9 1645.17 414.039 3
-1 11 9 1819.53 330.834 2
-10 11 -9 1594.07 477.043 1
-1 11 9 1493.27 367.856 3
-10 -1 9 1508.16 305.103 4
-1 -10 -6 1146.89 301.88 3
-10 11 -6 1046.92 436.236 2
11 -10 6 908.977 422.999 2
-1 -10 -6 1007.69 208.789 2
11 -10 6 1183.37 525.469 1
11 -1 -6 1061.07 269.51 1
-10 11 -6 1153.89 419.586 1
-1 11 6 1137.06 330.188 3
-10 11 -3 4870.93 794.547 2
-1 -10 -3 3967.41 396.158 2
11 -10 3 4612.7 850.513 2
-1 11 3 4916.47 801.334 4
-1 -10 -3 4468.76 694.417 3
-1 11 3 4094.02 641.035 3
-10 11 -3 4704.4 790.221 1
11 -1 -3 3725.77 610.666 1
11 -10 3 4168.51 794.434 1
-1 11 3 4539.37 445.575 1
11 -1 0 1077.32 393.048 2
-10 -1 0 1017.42 351.961 2
-10 11 0 989.923 314.676 1
11 -10 0 814.623 274.176 1
-1 11 0 992.734 303.532 1
11 -1 0 645.038 242.407 1
-10 -1 0 930.051 292.912 1
-1 11 0 1067.32 312.569 3
-1 11 0 1130.1 329.815 4
-10 11 0 1376.14 376.257 2
-1 -10 0 1314.99 457.807 4
11 -10 0 1296.58 387.029 2
-1 -10 0 898.887 282.425 3
-1 11 -3 588.097 223.472 1
-10 11 3 373.844 150.885 1
11 -10 -3 327.475 119.443 4
-1 11 -3 715.344 223.092 3
-10 -1 -3 609.752 266.312 2
-1 -10 3 906.959 270.587 4
11 -1 3 593.083 326.739 2
-10 -1 -3 436.312 173.987 1
11 -10 -3 757.446 257.842 1
11 -1 3 380.743 204.706 1
11 -10 -3 227.387 110.573 2
-10 11 3 392.834 206.328 2
-1 11 -3 690.499 246.012 4
-1 -10 3 231.939 167.038 3
-1 -10 6 1078.01 361.649 3
11 -10 -6 847.745 324.714 1
-10 -1 -6 551.75 274.567 2
-1 11 -6 876.065 238.301 3
11 -1 6 644.673 333.265 2
-1 11 -6 747.506 285.546 1
11 -10 -6 379.8 167.929 4
-10 11 6 1043.64 293.723 2
-10 11 6 618.368 250.472 4
-10 -1 -6 1039.97 313.404 1
-1 -10 6 395.703 256.618 4
11 -1 6 1193.77 390.305 1
-10 11 6 713.919 245.875 1
-1 11 -9 800.141 350.681 1
11 -1 9 795.487 347.074 1
-10 11 9 713.583 198.679 4
-10 -1 -9 1102.04 455.85 2
11 -1 9 432.783 216.28 2
-10 -1 -9 595.22 300.972 1
11 -10 -9 610.243 273.128 1
-1 -10 9 757.784 354.896 3
11 -10 -12 470.497 255.116 1
11 -1 12 433.956 333.472 1
11 -1 12 118.061 440.925 2
-1 11 -12 808.367 368.332 1
-10 -1 -12 818.284 397.092 1
-1 -10 12 1398.2 485.752 3
-1 -10 15 559.577 358.137 3
-1 11 -15 -71.0314 143.953 1
11 -1 15 703.337 349.522 2
-10 -1 -15 -101.045 265.514 1
-10 -1 -15 296.897 160.805 3
11 -11 16 -443.641 737.952 2
-11 11 -16 -40.2295 134.127 3
0 -11 -16 -33.1122 122.727 1
-11 11 -16 450.95 448.158 1
0 11 16 382.993 363.319 2
0 11 13 -385.783 292.771 2
11 -11 13 231.305 373.145 2
-11 11 -13 190.226 200.389 1
0 -11 -13 58.0758 54.0212 1
0 11 13 -152.903 279.184 3
-11 11 -13 -356.727 201.004 3
-11 0 10 3.16674 72.9167 4
11 -11 10 92.3099 289.62 2
0 11 10 33.5188 111.446 2
-11 11 -10 -136.548 195.827 1
0 11 10 -125.805 162.995 3
11 -11 7 8805.89 1322.86 2
11 -11 7 8281.94 1285.43 1
-11 11 -7 7430.13 1173.05 2
-11 11 -7 7657.96 1085.28 1
0 -11 -7 8145.31 906.001 3
0 11 7 7074.83 868.952 3
11 0 -4 3159.18 595.279 1
11 -11 4 2701.84 718.563 2
0 11 4 2659.84 517.744 3
0 11 4 2720.09 311.944 1
0 11 4 3044.76 726.637 4
11 -11 4 2848.13 743.628 1
0 -11 -4 3413.32 611.793 3
-11 11 -4 2783.49 675.459 1
-11 11 -4 3168.2 708.508 2
-11 0 1 7537.33 949.494 1
-11 11 -1 7754.44 1043.03 2
11 -11 1 6565.17 967.255 2
0 11 1 6752.37 867.862 3
0 11 1 10280.7 1138.02 4
-11 0 1 8275.81 1020.39 2
-11 11 -1 7315.95 1008.9 1
0 -11 -1 7329.26 1102.99 4
11 0 -1 7921.47 921.059 1
0 -11 -1 5045.12 801.778 3
11 -11 1 5653.26 904.717 1
11 -11 -2 252.579 163.279 1
-11 11 2 158.44 124.357 2
-11 0 -2 8.78288 135.052 1
-11 11 2 -136.208 262.148 1
11 -11 -2 127.346 138.839 2
0 11 -2 291.52 217.606 3
0 -11 2 -291.042 283.277 4
11 0 2 202.498 134.67 2
-11 0 -2 -179.595 249.363 2
11 -11 -2 506.164 269.586 4
0 11 -2 277.623 204.494 4
11 0 2 -278.922 266.306 1
0 -11 2 -47.0759 138.516 3
11 0 5 -44.432 197.701 1
0 -11 5 182.659 217.627 3
-11 11 5 386.274 190.326 2
-11 0 -5 260.948 121.843 2
0 11 -5 96.4982 95.1224 3
11 -11 -5 -64.951 190.044 1
-11 11 5 325.666 227.101 1
-11 11 5 37.4415 120.487 4
11 0 5 -76.1986 174.772 2
-11 0 -5 522.611 275.582 1
0 -11 5 396.591 305.683 4
11 -11 -5 16.1536 156.83 4
0 -11 8 1720.33 449.179 3
-11 11 8 1786.09 414.384 1
11 -11 -8 2064.07 444.487 1
-11 0 -8 1816.17 445.42 1
-11 0 -8 1828.84 556.792 2
11 0 8 1945.92 580.891 2
-11 11 8 1725.19 391.028 4
11 0 8 2273.14 556.767 1
-11 0 -11 1204.39 401.248 1
-11 11 11 1019.34 436.893 4
11 0 11 863.981 355.472 1
11 0 11 2003.91 686.962 2
11 -11 -11 936.294 343.949 1
0 -11 11 1421.4 536.303 3
-11 0 -14 798.76 293.597 1
11 0 14 858.968 313.764 1
11 -11 -14 306.187 193.879 1
11 0 14 661.93 242.357 2
0 11 -14 -11.6176 245.162 1
0 -11 14 794.675 475.435 3
-12 11 -14 643.692 224.39 3
1 11 14 801.877 278.644 2
1 -12 -14 567.787 162.505 1
1 -12 -14 384.246 125.923 1
11 -12 14 555.213 635.901 2
-12 11 -14 -243.146 315.556 1
-12 1 11 249.214 83.0466 4
1 11 11 348.779 207.657 2
11 -12 11 435.74 254.331 2
-12 11 -11 88.7345 177.749 1
1 11 11 419.153 244.139 3
11 -12 8 6480.3 1185.86 2
-12 11 -8 8796.7 1280.16 1
1 11 8 8246.67 688.729 2
1 11 8 7090.64 914.008 3
1 -12 -8 9214.83 1045.51 3
-12 11 -5 1725.95 500.818 2
1 11 5 1160.48 302.055 3
11 -12 5 2076.91 674.181 1
11 1 -5 1225.6 352.215 1
11 1 -5 1426.41 252.831 4
1 -12 -5 1805.22 438.235 3
11 -12 5 2710.52 716.118 2
-12 11 -5 2396 603.81 1
11 1 -2 1440.05 396.805 1
-12 1 2 1573.99 499.625 2
-12 11 -2 1270 396.932 1
1 11 2 1481.42 367.752 3
-12 11 -2 1516.91 451.507 2
1 -12 -2 1054.32 330.775 3
11 -12 2 1223.14 424.774 2
11 -12 2 1127.16 400.431 1
-12 1 2 1579.1 429.628 1
1 11 2 2072.9 540.427 4
1 -12 -2 862.557 384.483 4
11 1 1 3543.77 702.88 2
11 -12 -1 4251.7 726.27 2
11 -12 -1 4118.06 707.062 1
-12 1 -1 3713.45 716.677 2
1 -12 1 4202.04 704.772 3
-12 1 -1 4162.19 695.107 1
-12 11 1 3987.49 721.809 1
11 1 1 3946.72 655.406 1
1 11 -1 4334.64 730.566 4
1 -12 1 4035.44 803.99 4
11 -12 -1 4801.54 824.306 4
-12 11 1 4511.18 748.943 2
1 11 -1 4066.98 683.223 3
-12 1 -4 2193.67 514.721 2
-12 11 4 1898.6 468.337 1
1 11 -4 1525.01 384.188 4
11 -12 -4 2165.16 493.113 1
11 1 4 2623.8 563.498 1
-12 11 4 2303.25 484.108 2
11 -12 -4 2743.95 578.869 4
11 -12 -4 1897.31 430.865 2
11 1 4 2207.47 539.172 2
1 -12 4 2782.39 649.669 4
-12 1 -4 1987.22 473.305 1
1 11 -4 2283.54 520.987 3
1 -12 4 2066.29 507.432 3
1 -12 7 916.541 513.844 4
11 -12 -7 1029.42 348.659 1
-12 1 -7 48.1611 180.651 2
11 1 7 712.24 356.624 2
11 1 7 549.295 242.178 1
-12 11 7 680.528 284.922 1
-12 1 -7 580.17 341.685 1
-12 11 7 382.327 200.476 4
-12 11 7 720.071 291.389 2
1 -12 7 321.524 252.508 3
-12 1 -10 189.013 146.004 1
11 -12 -10 314.319 100.738 1
1 -12 10 575.965 275.006 3
11 1 10 -4.06244 337.417 2
11 1 10 741.368 328.713 1
-12 11 10 -188.672 272.032 4
11 -12 -13 272.011 171.762 1
11 1 13 848.987 373.479 2
1 -12 13 221.798 250.961 3
11 1 13 611.127 235.362 1
-12 11 13 143.668 303.475 4
-12 1 -13 590.885 341.519 1
1 11 -16 149.791 149.484 1
-12 1 -16 600.864 325.178 1
11 -12 -16 400.534 208.23 1
1 -12 16 1123.45 508.864 3
11 1 16 780.904 404.109 1
11 1 16 449.005 331.859 2
2 -13 -15 300.777 159.28 1
2 11 15 408.405 173.117 2
2 -13 -15 530.588 188.387 1
-13 11 -15 370.182 120.547 3
11 -13 15 756.19 696.344 2
-13 11 -15 -270.008 377.072 1
-13 11 -12 486.979 387.713 1
11 -13 12 245.459 233.645 2
2 11 12 114.83 136.821 2
11 -13 9 1276.59 606.104 2
-13 11 -9 2882.34 742.057 1
2 11 9 2510.03 428.832 2
2 11 9 2214.55 518.693 3
11 -13 6 7449.4 1213.5 2
2 11 6 5973.93 525.14 2
-13 11 -6 4200.64 811.303 1
2 11 6 4785.44 745.475 3
2 -13 -6 5190.49 804.528 3
11 2 -6 4250 448.709 4
11 -13 6 5610.92 1025.9 1
-13 11 -6 3548.91 774.513 2
11 2 -3 2192.61 517.325 1
-13 11 -3 2241.64 605.089 1
-13 2 3 2526.1 585.415 1
11 -13 3 2703.21 676.37 1
2 11 3 2730.64 631.223 4
11 -13 3 2581.15 718.236 2
-13 11 -3 2615.68 621.271 2
2 11 3 1903.31 430.62 3
-13 2 3 2505.48 596.125 2
2 -13 -3 1499.95 545.603 4
2 -13 -3 2259.07 546.042 3
2 -13 0 3481.56 690.028 3
-13 11 0 3252.75 746.122 1
-13 11 0 3439.48 718.221 2
-13 2 0 2358.5 602.436 2
2 -13 0 2344 618.719 4
11 2 0 3699.89 689.623 1
11 -13 0 2826.09 697.71 4
11 -13 0 2828.71 648.346 1
11 -13 0 3431.63 688.443 2
2 11 0 4924.2 842.166 4
2 11 0 3579.49 685.708 3
-13 2 0 3553.61 688.499 1
2 -13 3 1832.93 507.578 3
-13 11 3 1284.24 316.466 1
11 -13 -3 2087.46 557.611 4
2 11 -3 1346.08 369.095 4
-13 2 -3 1857.07 502.414 2
-13 11 3 2230.45 516.865 2
11 -13 -3 1792.01 419.204 2
11 -13 -3 1819.45 468.082 1
2 -13 3 2480.4 697.851 4
11 2 3 1296.24 400.857 1
-13 2 -3 1591.3 448.022 1
11 2 3 1869.9 473.432 2
-13 11 6 863.323 361.328 1
2 -13 6 1368.4 589.148 4
11 2 6 908.643 306.942 1
-13 2 -6 1035.28 420.418 2
11 -13 -6 1263.98 323.476 1
11 -13 -6 928.394 310.565 4
11 2 6 632.891 350.296 2
-13 2 -6 1186.29 485.188 1
-13 11 6 760.463 277.737 2
2 -13 6 966.493 402.667 3
-13 2 -9 360.902 272.318 1
-13 11 9 302.598 130.756 4
11 2 9 436.579 228.213 1
11 2 9 94.7446 161.586 2
11 -13 -9 301.813 261.931 1
2 -13 9 150.07 241.056 3
2 -13 12 690.467 327.087 3
-13 2 -12 1210.91 475.994 1
11 2 12 685.612 255.213 1
11 -13 -12 886.02 294.154 1
11 2 12 -37.1885 219.904 2
-13 11 12 947.764 331.431 4
11 2 15 1316.96 625.058 2
-13 11 15 -39.3646 222.652 4
2 -13 15 1056.44 609.503 3
11 2 15 1047.87 431.585 1
-13 2 -15 713.86 263.216 1
11 -13 -15 341.472 279.165 1
3 -14 -16 110.651 150.026 1
11 -14 16 -281.83 696.804 2
3 -14 -16 110.941 77.2867 1
-14 11 -16 198.002 395.739 1
3 11 16 254.745 258.479 2
-14 11 -16 143.05 117.052 3
11 -14 13 1447.5 678.845 2
3 11 13 991.236 384.933 2
-14 11 -13 703.101 443.953 1
-14 11 -10 382.601 254.586 1
11 -14 10 643.1 345.084 2
3 11 10 132.1 103.691 2
3 11 7 5453.59 596.792 2
11 -14 7 6226.83 1269.51 2
-14 11 -7 6212.91 1066.29 1
3 -14 -4 967.639 351.448 3
11 -14 4 933.083 399.548 2
-14 11 -4 1340.17 499.758 2
11 -14 4 1116.24 565.552 1
11 3 -4 910.671 372.248 1
-14 11 -4 826.193 434.676 1
11 3 -4 689.119 229.857 4
-14 3 4 613.455 284.193 1
-14 3 4 644.532 377.296 2
3 -14 -1 1395.84 439.885 3
-14 11 -1 1263.73 427.877 1
11 -14 1 835.508 298.599 2
-14 11 -1 1274.06 474.712 2
-14 3 1 1046.84 367.917 2
11 3 -1 983.698 359.754 1
3 11 1 1158.14 422.7 4
11 -14 1 1332.04 471.41 1
-14 3 1 1137.72 393.935 1
3 -14 -1 1353.24 513.198 4
-14 3 -2 231.947 227.204 1
11 3 2 313.478 133.733 1
11 3 2 231.253 213.411 2
11 -14 -2 200.255 138.977 1
-14 11 2 164.85 196.156 2
11 -14 -2 388.51 120.449 2
3 -14 2 139.824 167.859 3
3 -14 2 321.511 372.613 4
3 11 -2 -200.883 251.659 4
-14 3 -2 111.996 145.916 2
-14 11 2 552.148 268.727 1
11 -14 -2 42.1025 277.459 4
11 -14 -5 1136.97 329.705 1
11 3 5 1224.07 446.285 2
3 11 -5 547.009 295.807 4
11 3 5 984.019 328.589 1
-14 3 -5 1337.83 522.507 2
11 -14 -5 1096.64 434.547 4
3 -14 5 1014.15 407.321 3
-14 11 5 656.739 344.57 2
-14 3 -5 1218.35 440.516 1
-14 11 5 1010.64 367.766 1
11 -14 -5 1191.47 363.504 2
3 -14 5 1143.87 611.674 4
-14 11 8 1027.93 400.242 2
-14 3 -8 809.042 374.197 1
11 3 8 1070.83 448.842 1
11 -14 -8 1417.7 389.642 1
11 3 8 1757.46 552.41 2
-14 11 8 499.031 184.173 4
-14 11 8 773.823 362.639 1
3 -14 8 1055.71 454.117 3
3 -14 11 1027.3 462.102 3
-14 3 -11 982.812 440.501 1
11 3 11 1224.25 496.059 2
11 3 11 1567.89 467.459 1
-14 11 11 765.831 208.711 4
11 -14 -11 1049.76 375.404 1
-14 11 14 345.601 190.2 4
11 3 14 305.351 163.756 1
11 3 14 1030.73 570.448 2
11 -14 -14 266.381 274.917 1
-14 3 -14 637.23 315.505 1
3 -14 14 528.721 460.902 3
4 -15 -14 537.081 149.674 1
11 -15 14 964.313 548.192 2
-15 11 -14 380.558 333.609 1
4 -15 -14 451.37 151.228 1
4 11 14 -92.4071 161.071 2
4 11 11 419.172 270.351 2
11 -15 11 391.087 235.784 2
-15 11 -11 526.996 424.804 1
11 -15 8 933.052 451.732 2
4 11 8 1423.09 372.526 2
-15 11 -8 1140.77 465.101 1
4 -15 -5 1833.23 295.832 1
4 -15 -5 1749.59 477.455 3
-15 4 5 1305.94 424.66 1
11 -15 5 2912.65 793.092 1
-15 4 5 2018.42 605.747 2
4 11 5 2011.28 328.557 1
11 4 -5 2191.53 417.458 4
11 -15 5 2416.52 711.608 2
-15 11 -5 2156.58 644.366 2
-15 11 -5 1790.28 522.212 1
4 -15 -2 710.89 356.538 3
-15 4 2 669.216 252.692 1
-15 11 -2 1068.79 469.14 1
11 -15 2 679.61 399.655 2
-15 11 -2 1085.42 478.352 2
11 4 -2 829.895 344.192 1
4 -15 -2 712.582 230.184 1
4 11 2 576.48 391.338 4
-15 4 2 1018.97 412.09 2
4 -15 -2 884.182 217.5 2
11 -15 2 646.757 381.318 1
4 -15 -2 635.945 350.324 4
-15 4 -1 390.405 263.629 1
11 -15 -1 252.772 213.078 2
11 -15 -1 262.764 187.87 1
4 11 -1 315.212 311.903 4
-15 4 -1 73.0462 201.887 2
-15 11 1 55.7164 136.973 2
-15 11 1 85.2662 300.971 1
11 -15 -1 348.773 219.059 4
4 -15 1 -341.349 336.85 4
4 -15 1 263.808 141.06 3
11 4 1 -80.9797 121.059 1
4 -15 4 557.756 347.728 3
11 -15 -4 358.388 214.088 1
-15 11 4 177.21 168.813 2
-15 11 4 582.482 284.582 1
-15 4 -4 129.053 211.403 2
11 -15 -4 643.098 291.801 2
4 11 -4 368.498 236.259 4
4 -15 4 319.998 297.817 4
11 4 4 398.639 191.921 1
11 4 4 486.116 315.407 2
-15 4 -4 972.021 422.312 1
11 -15 -4 167.29 279.944 4
-15 11 7 696.31 333.861 2
4 -15 7 1210.41 451.015 3
11 4 7 1171.05 402.702 1
-15 11 7 182.178 230.886 1
11 -15 -7 682.888 258.23 1
-15 4 -7 1089.26 464.428 1
11 -15 -7 310.807 204.57 4
11 4 7 720.878 344.24 2
4 -15 10 8.24536 310.537 3
-15 4 -10 449.238 326.931 1
11 -15 -10 563.246 347.763 1
11 4 10 408.082 241.367 1
11 4 10 413.468 270.35 2
-15 11 10 300.356 176.363 4
-15 11 13 525.818 235.583 4
11 -15 -13 627.455 269.745 1
11 4 13 75.1565 263.003 2
4 -15 13 455.504 335.139 3
-15 4 -13 321.845 204.976 1
11 4 13 411.54 274.035 1
5 -16 -15 276.547 121.369 1
5 11 15 140.029 169.642 2
5 -16 -15 332.544 110.369 1
11 -16 15 -150.573 464.724 2
-16 11 -15 70.1224 268.83 1
-16 11 -12 628.407 446.933 1
11 -16 12 610.066 572.765 2
5 11 12 682.997 359.142 2
11 -16 9 1102.51 572.021 2
5 11 9 382.629 143.108 1
5 11 9 359.18 236.863 2
-16 11 -9 537.775 413.962 1
-16 11 -6 3332.96 758.026 1
5 11 6 3441.8 466.429 1
5 11 6 3388.25 521.964 2
-16 5 6 2762.06 646.202 1
11 5 -6 2741.61 455.629 4
11 -16 6 3577.68 885.538 2
5 -16 -6 3581.97 441.76 1
11 -16 3 7419.76 1170.59 2
5 -16 -3 5447.54 522.625 2
-16 11 -3 8774.17 1260.91 2
-16 5 3 7621.87 1174.53 2
-16 5 3 7350.32 1087.96 1
11 -16 3 7241.48 1175.42 1
11 5 -3 7127.18 971.844 1
5 -16 -3 4914.84 1044.69 4
5 -16 -3 6474.06 1085.17 3
11 5 -3 6638.57 852.782 4
5 11 3 7972.87 1209.08 4
-16 11 -3 8160.1 1210.56 1
5 -16 -3 5715.7 689.328 1
5 -16 0 2981.34 717.017 3
5 -16 0 2558.25 512.751 1
5 -16 0 2923.8 524.882 2
11 -16 0 3316.89 871.475 4
5 -16 0 2569.62 698.264 4
11 -16 0 3085.31 634.538 2
11 5 0 2916.42 629.259 1
11 -16 0 3651 758.306 1
5 11 0 2811.65 662.687 4
-16 11 0 3529.85 741.103 2
-16 5 0 3363.56 727.684 2
-16 11 0 3125.57 733.482 1
-16 5 0 2519.15 614.159 1
5 -16 3 1761.57 514.306 3
11 -16 -3 2333.84 488.519 2
11 5 3 1734.64 422.32 1
-16 11 3 1426.98 426.642 1
11 -16 -3 2321.4 641.576 4
-16 5 -3 1011.15 336.412 1
-16 5 -3 1664.42 529.506 2
11 -16 -3 2089.31 495.396 1
5 11 -3 1853.23 453.279 4
-16 11 3 1360.72 403.429 2
11 5 3 1144.26 390.37 2
5 -16 3 1637.95 672.223 4
-16 11 6 1894.16 530.085 1
5 -16 6 2500.6 691.544 3
11 -16 -6 2108.23 543.647 4
11 5 6 1592.15 414.699 1
5 11 -6 1492.03 429.254 4
-16 5 -6 2528.09 704.898 1
11 5 6 1962.48 557.958 2
-16 11 6 2145.06 538.232 2
11 -16 -6 2154.16 466.007 1
-16 5 -9 206.708 265.634 1
11 -16 -9 555.443 263.127 1
5 -16 9 291.311 214.322 3
11 5 9 545.306 372.461 2
-16 11 9 28.1994 138.969 2
11 5 9 408.202 281.588 1
-16 11 9 272.607 320.001 1
-16 11 12 161.24 89.5142 4
11 5 12 -183.897 291.727 1
5 -16 12 117.367 247.45 3
11 5 12 51.8156 199.407 2
11 -16 -12 167.399 183.481 1
-16 5 -12 -133.097 177.684 1
5 -16 15 653.058 337.951 3
11 5 15 439.216 248.413 1
11 5 15 919.495 632.348 2
-16 11 15 353.77 216.693 4
11 -16 -15 631.732 293.631 1
-16 5 -15 500.915 300.883 1
11 -17 13 246.722 648.798 2
6 11 13 -452.411 360.135 2
-17 11 -13 -393.219 366.363 1
6 -17 -13 -42.4746 78.3697 1
11 -17 10 648.448 504.127 2
6 -17 -10 388.911 136.875 1
6 11 10 390.35 157.051 1
-17 11 -10 -82.5291 350.535 1
6 -17 -7 246.055 105.3 1
-17 11 -7 451.615 265.411 1
11 -17 7 583.696 319.728 2
6 11 7 748.941 322.122 2
6 11 7 534.849 187.746 1
11 6 -7 231.148 162.678 4
6 -17 -4 2106.74 317.243 2
11 6 -4 2932.61 598.88 4
-17 11 -4 3235.21 739.567 1
11 -17 4 2707.51 648.841 2
6 11 4 2816.69 488.257 1
6 -17 -4 1912.8 414.353 1
-17 6 4 2682.77 698.298 1
6 -17 -1 2927.35 512.733 1
6 -17 -1 3811.97 750.717 3
6 -17 -1 4428.58 637.883 2
11 -17 1 4349.82 868.559 1
-17 6 1 2931.98 695.183 1
11 6 -1 3723.22 682.102 1
11 -17 1 3245.46 875.265 4
-17 11 -1 3735.27 779.947 2
11 -17 1 4134.54 797.241 2
-17 6 1 3046.88 657.883 2
-17 11 -1 3571.74 751.358 1
6 -17 -1 3999.86 941.391 4
6 11 1 4383.5 862.397 4
-17 6 -2 42.3628 306.483 1
6 -17 2 664.381 363.061 2
-17 11 2 486.848 376.115 1
6 11 -2 385.636 174.557 4
11 -17 -2 26.0662 214.822 1
-17 11 2 339.033 276.817 2
6 -17 2 355.451 300.107 3
11 -17 -2 582.789 289.074 2
6 -17 2 -256.036 222.779 1
11 -17 -2 122.023 375.389 4
11 6 2 25.2129 151.967 1
6 -17 5 2950 710.965 2
11 -17 -5 2782.09 552.509 1
-17 6 -5 2225.84 614.911 1
6 -17 5 3254.36 813.406 3
11 6 5 2095.31 578.535 2
11 -17 -5 2875.62 717.697 4
11 -17 -5 3130.33 551.616 2
11 6 5 2346.2 512.627 1
6 11 -5 2749.47 567.304 4
-17 11 5 2684.15 657.971 1
-17 11 5 2149.39 582.766 2
11 -17 -8 614.034 261.787 1
11 6 8 620.56 272.708 1
6 -17 8 64.6825 307.511 3
-17 6 -8 787.217 407.654 1
-17 11 8 176.321 204.254 1
11 6 8 494.995 343.434 2
11 -17 -11 1877.29 489.341 1
-17 6 -11 799.357 325.558 1
6 -17 11 938.241 327.418 3
11 6 11 2562.98 771.944 2
11 6 11 1559.83 452.464 1
-17 6 -14 332.553 239.08 1
6 -17 14 499.813 513.956 3
11 -17 -14 666.367 349.886 1
11 6 14 289.421 327.279 2
11 6 14 484.79 197.165 1
-17 11 14 861.612 302.359 4
11 -18 14 168.442 380.802 2
7 11 14 -74.0521 166.286 2
7 -18 -14 22.293 70.2137 1
7 11 11 1932.83 595.828 2
7 11 11 1106.99 276.633 1
-18 11 -11 1130.98 463.029 1
7 -18 -11 1075.06 239.023 1
7 11 8 1793.7 405.318 1
-18 11 -8 2483.8 803.044 1
7 -18 -8 1636.15 331.294 1
11 -18 8 2944.02 947.447 2
7 11 8 2157.17 531.56 2
-18 7 5 2662.35 704.328 1
11 -18 5 5193.13 1041.32 2
-18 11 -5 4591.03 965.35 1
7 11 5 3663.47 581.636 1
11 7 -5 3627.45 623.713 4
7 -18 -5 3933.87 584.364 1
7 11 2 7618.87 893.67 1
7 -18 -2 7220.06 893.231 1
-18 11 -2 9205.83 1282.57 1
11 7 -2 6273.7 918.606 4
-18 7 2 7505.72 1115.11 1
11 7 -2 5920.48 858.868 1
7 11 2 6599.32 1142.3 4
11 -18 2 8163.3 1185.76 2
11 -18 2 7439.26 1154.37 1
7 -18 -2 8172.54 811.075 2
-18 11 1 428.914 288.075 1
-18 11 1 903.021 443.117 2
7 -18 1 1201.01 472.767 1
-18 7 -1 1053.38 461.542 1
7 -18 1 1238.25 441.307 2
11 7 1 826.959 346.197 1
11 -18 -1 715.145 350.047 1
11 -18 -1 844.666 591.973 4
7 11 -1 619.392 301.235 4
11 -18 -1 897.389 306.849 2
11 7 4 1497.97 428.023 1
11 -18 -4 1671.58 480.707 1
-18 11 4 1117.2 420.474 2
7 -18 4 2368.31 645.448 2
-18 7 -4 1557.3 567.198 1
11 -18 -4 1376.18 549.122 4
11 -18 -4 1621.11 434.884 2
7 11 -4 858.616 346.769 4
-18 11 4 1215.9 485.975 1
7 -18 4 1708.87 616.415 3
11 7 4 1656.84 515.04 2
11 -18 -7 612.164 394.093 4
11 7 7 803.338 395.604 2
7 -18 7 1145.35 433.275 3
7 -18 7 1108.98 360.393 2
11 7 7 741.565 254.59 1
7 11 -7 420.107 183.928 4
-18 7 -7 399.558 254.478 1
-18 11 7 1179.06 455.289 1
11 -18 -7 911.88 326.795 1
7 -18 10 379.602 462.725 3
7 -18 10 418.432 556.238 2
11 7 10 -151.476 349.88 2
-18 7 -10 209.019 198.481 1
11 7 10 490.152 330.408 1
11 -18 -10 334.25 275.643 1
7 -18 13 1505.1 746.875 2
11 7 13 1217.11 408.105 1
11 -18 -13 858.203 362.584 1
11 7 13 1026.62 484.395 2
-18 7 -13 723.535 468.043 1
11 -19 12 384.138 312.016 2
8 11 12 167.345 119.743 1
8 11 12 414.811 296.549 2
8 -19 -12 441.694 178.534 1
-19 11 -12 617.81 394.059 1
-19 11 -9 79.5874 324.747 1
11 -19 9 182.249 472.861 2
8 11 9 114.21 104.312 1
8 11 9 578.26 362.694 2
8 -19 -9 36.6398 95.3472 1
11 8 -6 699.27 296.533 4
11 -19 6 475.759 392.094 2
8 -19 -6 319.429 172.801 1
-19 11 -6 699.522 430.213 1
-19 8 6 48.6972 210.446 1
8 11 6 323.063 186.619 2
8 11 6 527.439 251.06 1
8 -19 -3 5307.66 633.64 2
11 -19 3 6456.25 1122.59 2
11 8 -3 3625.1 703.743 4
-19 11 -3 6095.81 1066.54 1
8 11 3 4057.4 662.767 1
-19 8 3 3410.76 773.894 1
8 -19 -3 4924.19 777.603 1
8 -19 0 6249.68 890.73 2
11 -19 0 6414.68 949.895 2
-19 8 0 5400.82 998.569 1
11 -19 0 6648.68 1059.73 1
8 11 0 4996.49 913.667 4
8 -19 0 5617.31 900.132 1
-19 11 0 4750.79 906.391 1
11 8 0 4547.06 768.941 1
11 8 3 187.543 133.323 1
8 -19 3 228.967 255.702 2
8 -19 3 361.07 230.491 1
8 11 -3 -122.826 262.873 4
11 -19 -3 331.1 208.728 1
-19 11 3 -132.701 245.941 1
11 -19 -3 161.425 121.951 2
-19 8 -3 434.12 158.374 1
8 -19 6 1377.91 577.573 2
11 8 6 1409.26 444.304 1
11 -19 -6 796.941 302.257 1
-19 11 6 1179.56 475.06 1
-19 8 -6 1582.16 553.198 1
8 11 -6 442.594 194.627 4
11 8 6 1015.5 431.298 2
11 -19 -9 1108.15 384.752 1
8 -19 9 1472.75 682.301 2
-19 8 -9 1506.51 522.217 1
11 8 9 1632.36 651.503 2
-19 11 9 875.335 480.13 1
11 8 9 1152.64 421.157 1
11 8 12 743.104 453.048 2
11 -19 -12 269.997 208.219 1
8 -19 12 -412.569 503.461 2
11 8 12 154.027 253.92 1
-19 8 -12 389.183 414.638 1
-20 11 -13 247.981 432.494 1
11 -20 13 732.548 396.229 2
9 11 13 -48.7953 125.028 1
9 11 13 -252.317 293.763 2
9 -20 -13 -39.0475 114.353 1
9 11 10 937.592 436.965 2
-20 11 -10 1032.81 516.72 1
11 -20 10 1020.79 540.073 2
9 11 10 858.76 242.385 1
9 -20 -10 593.296 178.547 1
11 -20 7 786.852 431.609 2
-20 11 -7 1345.82 641.085 1
9 -20 -7 1353.86 366.495 1
9 11 7 848.431 318.959 1
11 9 -7 651.475 259.174 4
-20 9 7 214.795 237.45 1
9 11 7 1202.02 486.133 2
-20 9 4 1747.18 557.079 1
9 -20 -4 2164.31 487.302 1
11 -20 4 1869.69 537.231 2
9 -20 -4 1525.07 319.784 2
9 11 4 1629.03 420.563 1
-20 11 -4 2616.08 721.875 1
11 9 -4 1589.9 456.561 4
9 11 1 3873.74 817.611 4
9 -20 -1 4521.62 800.08 1
11 9 -1 3098.51 673.123 1
11 -20 1 5289.49 929.331 2
-20 9 1 4872.74 958.609 1
9 11 1 3787.43 674.084 1
9 -20 -1 4379.94 709.759 2
-20 11 -1 5175.6 1019.68 1
11 -20 1 4967.17 939.185 1
11 9 -1 2384.17 598.159 4
9 -20 2 1021.37 379.541 1
11 9 2 1104.32 354.504 1
9 -20 2 1580.94 529.036 2
11 -20 -2 759.335 243.725 1
-20 11 2 1374.74 561.056 1
11 -20 -2 1227.54 403.186 2
9 11 -2 1381.71 461.653 4
-20 9 -2 1289.39 490.565 1
11 9 5 149.119 112.297 1
-20 11 5 136.138 249.846 1
11 -20 -5 158.721 176.012 1
9 -20 5 335.753 182.969 2
-20 9 -5 38.21 208.847 1
11 -20 -5 243.743 211.213 2
11 9 5 67.2614 255.623 2
9 11 -5 250.008 234.738 4
9 -20 8 1605.42 715.228 2
11 9 8 1526.41 429.946 1
11 -20 -8 1695.3 415.972 1
-20 9 -8 1422.4 557.219 1
-20 11 8 1620.48 540.246 1
11 9 8 1523 553.676 2
9 -20 11 500.082 348.825 2
-20 9 -11 91.974 261.123 1
11 -20 -11 207.653 153.598 1
11 9 11 -458.362 340.914 2
11 9 11 264.268 216.815 1
10 11 11 361.409 220.033 1
-21 11 -11 468.706 320.871 1
10 -21 -11 339.11 131.368 1
11 -21 11 152.957 266.876 2
10 11 11 6.41395 284.779 2
11 -21 8 478.698 345.639 2
10 11 8 84.2862 194.789 1
10 -21 -8 764.964 249.167 1
11 10 -8 491.001 258.996 4
10 11 8 140.735 261.161 2
-21 10 8 -44.5803 393.331 1
-21 11 -8 554.745 418.298 1
11 -21 5 6190.02 1209.95 2
10 -21 -5 5100.65 633.081 2
10 11 5 4290.25 749.404 1
10 -21 -5 4621.57 734.717 1
-21 11 -5 5908.74 1135.13 1
11 10 -5 3808.28 719.412 4
-21 10 5 3159.59 798.131 1
10 11 2 1075 337.861 1
10 -21 -2 2779.15 619.016 1
11 -21 2 2301.34 665.786 2
10 -21 -2 2041.11 446.979 2
-21 10 2 2360.36 672.037 1
11 10 -2 1697.82 516.391 4
-21 11 -2 3787.73 901.477 1
11 10 1 1266.6 411.942 1
-21 10 -1 2354.91 727.941 1
10 -21 1 3019.75 707.167 1
11 -21 -1 2591.04 657.48 1
-21 11 1 2402.38 745.646 1
10 -21 1 2234.71 633.944 2
10 11 -1 1455.07 458.174 4
11 -21 -1 1939.18 503.293 2
10 -21 4 1387.77 510.422 2
10 11 -4 702.704 266.441 4
11 -21 -4 361.351 282.768 1
-21 10 -4 1118.5 495.099 1
-21 11 4 677.686 306.423 1
11 10 4 570.653 357.464 1
11 -21 -4 593.579 261.104 2
10 11 -7 2198.13 520.44 4
-21 11 7 2653.04 783.23 1
10 -21 7 2557.28 767.93 2
11 -21 -7 2409.04 529.751 1
11 10 7 2517.78 524.157 1
-21 10 -7 2890.71 853.129 1
11 10 7 2649.44 694.257 2
10 -21 10 1329.85 720.044 2
11 -21 -10 1397.01 372.095 1
11 10 10 1039.33 531.089 2
-21 10 -10 573.766 398.742 1
11 10 10 1290.39 366.379 1
-22 11 0 1527.7 659.286 1
11 11 0 1026.79 356.144 1
11 -22 0 1100.61 450.424 1
11 11 0 1298.8 501.079 4
11 -22 0 1827.64 585.635 2
11 -22 3 1475.68 602.1 2
11 11 3 452.229 298.883 1
11 -22 -3 681.993 374.159 1
11 11 -3 829.049 437.128 4
-22 11 3 1182.2 572.631 1
11 -22 -3 432.825 252.562 2
-22 11 -3 1035.34 636.239 1
-22 11 6 333.07 250.777 1
11 -22 6 716.323 340.11 2
-22 11 -6 775.036 410.808 1
11 11 -6 654.814 339.744 4
11 11 6 738.731 332.652 1
11 -22 -6 224.922 111.958 2
11 -22 -6 774.948 329.43 1
11 11 9 386.781 204.277 1
11 11 9 133.405 184.989 2
11 -22 9 550.849 482.086 2
11 -22 -9 -64.5156 115.278 1
-22 11 9 541.558 425.455 1
-22 11 -9 226.21 328.378 1
-22 11 -12 -737.223 446.215 1
11 -22 12 -578.698 576.488 2
11 -22 -12 687.716 242.957 1
11 11 12 72.8201 190.498 1
11 11 12 363.972 209.908 2
-6 12 0 1863.83 458.314 3
-6 12 0 2003.51 379.708 2
12 -6 0 2549.52 506.527 1
-6 12 0 2413.04 477.737 1
12 -6 0 2411.23 537.552 2
-6 12 0 2030.92 458.208 4
-6 12 3 3907.73 426.904 2
-6 -6 -3 4053.08 588.683 2
-6 12 -3 4612.5 739.723 3
12 -6 -3 4781.06 781.159 2
-6 12 3 4720.67 791.663 3
12 -6 3 3884.12 722.452 1
12 -6 3 4379.09 832.411 2
-6 12 3 4457.61 766.123 4
12 -6 -3 3887.73 616.931 1
-6 -6 3 3750.41 660.028 4
-6 12 3 4438.77 597.498 1
-6 12 -3 5600.46 844.368 1
-6 -6 -6 6148.03 766.784 2
12 -6 6 8943.1 1338.83 2
-6 12 6 5806.87 500.543 2
-6 12 6 5904.8 928.08 4
12 -6 -6 5773.97 784.78 1
-6 12 6 6440.54 875.815 3
-6 12 6 6789.56 621.492 1
-6 12 -6 6633.36 821.329 3
-6 -6 6 6065.12 779.277 4
12 -6 6 7528.28 1144.11 1
-6 -6 -6 6205.65 604.171 1
-6 -6 -6 6605.5 798.356 3
-6 12 -6 6214.23 938.48 1
-6 12 9 835.318 391.685 4
-6 -6 9 981.027 308.263 4
-6 12 9 942.624 262.95 3
-6 -6 -9 821.414 267.983 3
-6 -6 -9 1116.25 266.799 1
-6 12 -9 1084.36 361.368 1
12 -6 9 978.275 324.85 1
12 -6 9 749.996 441.269 2
-6 -6 -9 1006.32 309.722 2
12 -6 -9 516.241 239.804 1
-6 12 -9 729.171 210.374 3
-6 -6 -12 1914.94 379.102 1
-6 12 12 1610.17 372.92 3
-6 12 -12 2128.3 450.838 3
-6 12 -12 1920.31 545.587 1
12 -6 12 3175.58 952.668 2
-6 -6 -12 1695.31 371.211 3
-6 12 15 -22.3761 233.172 3
-6 -6 -15 114.588 65.9377 3
-6 12 -15 29.3458 164.325 1
12 -6 15 408.874 309.748 2
-6 -6 -15 395.71 240.077 1
-5 12 16 566.328 318.587 3
-7 12 -16 63.6013 201.515 1
-5 -7 -16 681.284 251.746 1
12 -7 16 471.192 442.035 2
-7 12 -13 1720.12 549.528 1
12 -7 13 2869.25 904.91 2
-5 -7 -13 2092.27 392.692 3
-5 -7 -13 1719.72 329.285 1
-7 12 -13 1824.51 429.117 3
-5 12 13 2183.6 488.909 3
-5 12 10 3618.01 642.118 3
-5 -7 -10 2734.74 389.129 1
-5 -7 -10 3070.14 596.527 2
-7 12 -10 3129.33 694.017 1
12 -7 10 4289.07 975.864 1
12 -7 10 3681.22 929.348 2
-7 -5 10 3314.92 610.013 4
-7 12 -10 3493.35 595.175 3
12 -5 -10 1958.35 448.895 1
-5 -7 -10 2297.02 427.597 3
-5 12 7 2169.83 515.467 3
-5 -7 -7 2198.83 416.129 2
-7 12 -7 1370.71 425.616 1
12 -7 7 1495.84 498.875 2
-5 -7 -7 1718.39 276.562 1
12 -5 -7 2173.43 509.924 1
12 -7 7 2461.4 660.789 1
-5 12 7 1880.88 532.261 4
-7 12 -7 2130.34 455.365 3
-7 -5 7 1636.62 362.379 4
-5 -7 -7 1487.74 368.59 3
-5 12 7 1755.08 278.313 1
-5 12 4 931.568 374.183 4
-5 12 4 1022.86 251.424 1
-5 12 4 917.948 403.621 3
-7 12 -4 982.599 393.544 1
12 -5 -4 845.286 283.389 1
12 -7 4 808.851 343.483 2
-5 -7 -4 654.182 244.535 2
-7 -5 4 583.777 275.799 4
-7 12 -4 683.969 294.173 3
12 -7 4 1185.1 481.265 1
-5 -7 -4 621.333 256.646 3
-7 12 -1 4497.04 630.754 2
12 -7 1 4468.83 711.24 1
12 -7 1 4635.66 799.099 2
12 -5 -1 5039.48 795.43 2
-7 12 -1 4350.46 727.537 1
12 -5 -1 4890.69 717.576 1
-5 -7 -1 4331.77 587.07 2
-5 12 1 4018.92 679.271 4
-7 12 -1 3856.73 662.226 3
-5 12 1 4628.13 621.895 1
-5 12 1 4830.82 696.957 3
-7 12 2 466.673 244.127 1
-7 -5 -2 349.626 222.268 2
12 -5 2 142.924 133.096 1
-5 12 -2 459.131 231.469 1
-7 12 2 229.137 119.764 2
12 -7 -2 420.048 213.655 1
-5 -7 2 378.372 167.597 4
12 -5 2 347.508 208.33 2
-7 12 2 549.445 243.301 4
-5 12 -2 486.507 264.077 3
12 -7 -2 428.108 311.483 2
-5 12 -5 304.388 206.301 1
12 -7 -5 243.663 86.8991 4
12 -7 -5 -38.2695 100.807 1
12 -5 5 332.256 271.012 1
-5 12 -5 562.276 235.814 3
-7 -5 -5 337.3 180.124 2
12 -5 5 528.551 178.947 2
-7 12 5 234.73 100.641 2
-7 -5 -5 5.87102 116.464 1
-7 12 5 50.9718 221.395 4
-7 12 5 42.7819 137.455 1
-5 -7 5 551.21 160.482 4
-7 -5 -8 1307.49 334.457 1
-5 12 -8 1935.87 542.873 1
12 -7 -8 833.917 344.828 1
-7 -5 -8 1355.51 385.03 2
-7 12 8 1313 515.646 4
12 -5 8 1788.4 577.182 2
-5 12 -8 1329.78 362.945 3
12 -5 8 1873.63 595.619 1
-5 -7 8 827.251 339.336 4
12 -5 11 1596.91 533.92 1
12 -5 11 1756.77 529.095 2
-7 -5 -11 913.444 238.325 3
-7 -5 -11 1433.93 468.68 2
12 -7 -11 1183.25 355.135 1
-7 -5 -11 1085.91 323.592 1
-5 12 -11 1001.37 251.042 3
-5 12 -11 1528.73 514.133 1
-7 -5 -14 421.429 233.024 1
-5 12 -14 145.255 152.736 1
12 -5 14 817.912 477.267 2
-5 -7 14 562.137 368.986 3
-7 -5 -14 86.6415 79.8562 3
-7 12 17 660.782 214.608 3
-7 -5 -17 325.23 275.261 1
-5 12 -17 449.572 358.107 1
12 -5 17 -197.82 401.212 2
-5 -7 17 417.759 261.238 3
12 -8 14 497.2 599.889 2
-8 12 -14 -395.939 239.812 1
-4 12 14 240.531 145.44 3
-8 12 -14 362.048 226.446 3
-4 -8 -14 223.956 156.314 1
-4 -8 -11 431.055 195.024 3
-4 -8 -11 196.772 123.654 1
-8 12 -11 -32.7829 232.235 1
12 -8 11 454.372 533.818 2
-4 12 11 549.674 119.243 3
-8 12 -11 289.616 150.236 3
-4 -8 -8 1897.06 452.14 2
-8 12 -8 1508.65 481.25 1
12 -8 8 2219.33 721.957 2
12 -8 8 2199.78 669.453 1
-4 -8 -8 2286.46 314.371 1
-8 -4 8 2351.44 438.541 4
-4 12 8 1897.68 483.573 3
-8 12 -8 1407.66 398.472 3
12 -4 -8 2766.53 608.154 1
-4 -8 -8 1986.31 462.382 3
-8 12 -5 1287.07 426.377 3
12 -4 -5 1178.99 403.427 1
-4 12 5 1203.67 245.149 1
12 -8 5 410.133 170.731 1
-8 12 -5 1773.13 484.534 1
-4 -8 -5 811.25 230.528 2
-4 12 5 1847.89 540.777 4
-4 12 5 1315.88 385.441 3
-4 -8 -5 1293.82 420.83 3
12 -8 5 1324.5 440.713 2
-8 -4 5 1210.11 372.371 4
12 -8 2 -514.659 319.329 1
-4 12 2 150.601 185.196 3
-8 12 -2 181.136 184.129 2
12 -4 -2 111.564 114.596 1
-4 12 2 486.598 191.133 1
12 -8 2 406.687 283.778 2
-8 12 -2 -69.48 218.049 1
-4 12 2 -60.6552 162.136 4
12 -4 -2 155.067 211.904 2
-4 -8 -2 202.72 162.716 3
-4 -8 -2 266.463 132.228 2
-4 12 -1 1150.44 348.024 3
-4 12 -1 964.081 274.902 1
-4 -8 1 1092.76 375.659 3
-8 12 1 1456.83 319.272 2
12 -8 -1 1360.78 434.247 1
-4 12 -1 992.016 285.94 4
-8 -4 -1 690.955 227.697 2
-8 12 1 1083.74 309.516 4
12 -4 1 1017.77 288.477 1
12 -4 1 976.258 386.426 2
-4 -8 1 1029.73 379.141 4
12 -8 -1 1076.57 382.953 2
-8 12 1 932.21 279.685 1
-8 -4 -4 3903.11 667.563 2
12 -4 4 5231.04 1015.94 2
-8 12 4 4801.47 656.166 1
-8 -4 -4 4713.86 617.451 1
-4 12 -4 3818.59 663.713 1
12 -8 -4 5188.36 788.653 1
-8 12 4 4492.91 571.569 2
12 -8 -4 4513.38 543.75 4
-8 12 4 3675.94 652.552 4
12 -4 4 4826.36 842.696 1
-4 12 -4 3944.16 624.305 3
-4 -8 4 3530.95 615.717 4
12 -8 -7 6116.28 845.012 1
-8 12 7 7044.68 734.336 1
12 -4 7 7239.99 1199.34 2
-8 12 7 6997.85 963.674 4
-8 12 7 6754.25 679.632 2
-8 -4 -7 6120.52 703.701 1
-4 -8 7 7044.08 970.286 4
-8 -4 -7 6486.1 912.859 2
-4 12 -7 6034.77 779.518 3
-4 12 -7 6995.3 914.969 1
12 -4 7 6979.49 1047.4 1
-8 -4 -10 6163.35 713.817 1
-8 -4 -10 6869.54 1008.57 2
-4 -8 10 7722.02 1059.74 3
12 -4 10 8132.02 1361.87 2
-4 12 -10 7278.22 999.295 1
-8 12 10 7645.43 1152.69 4
-4 12 -10 6422.68 794.885 3
12 -8 -10 6349.27 855.683 1
12 -4 10 8532.06 1256.05 1
-4 12 -13 113.313 159.083 1
-4 -8 13 293.356 245.681 3
-8 -4 -13 330.853 80.8721 3
-8 -4 -13 424.198 198.009 1
-8 -4 -16 53.8356 74.4965 3
-4 12 -16 81.3919 194.772 1
-8 -4 -16 276.06 206.822 1
-4 -8 16 471.919 256.15 3
-3 12 15 84.0816 209.823 2
12 -9 15 262.373 546.741 2
-9 12 -15 714.453 433.249 1
-9 12 -15 244.241 137.752 3
-3 -9 -15 84.6394 117.273 1
-3 12 15 111.336 252.623 3
-3 -9 -12 498.262 155.172 1
12 -9 12 1226.98 585.156 2
-9 12 -12 1048.18 451.75 1
-3 -9 -12 490.044 226.141 3
-9 12 -12 548.473 192.504 3
-3 12 12 1328.13 423.686 3
-3 12 9 3420.16 437.068 2
-9 12 -9 4330.46 821.412 1
-9 -3 9 2691.58 454.589 4
-3 12 9 2823.59 567.152 3
-3 -9 -9 3999.48 612.339 3
-9 12 -9 3988 616.017 3
-3 -9 -6 5211.38 589.127 2
-9 12 -6 4127.64 790.53 2
12 -9 6 6571.79 1147.85 2
-9 12 -6 5567.79 889.608 1
-9 -3 6 5581.73 662.193 4
-3 12 6 4693.39 892.375 4
-3 -9 -6 4813.3 719.982 3
-3 12 6 4995.65 758.201 3
-9 12 -6 4324.39 686.43 3
12 -3 -6 4073.1 670.168 1
12 -9 6 6122.45 1081.95 1
-3 -9 -3 2178.31 471.048 3
-3 -9 -3 1788.65 311.047 2
-9 12 -3 2596.04 615.321 1
-9 12 -3 2470.31 596.261 2
12 -3 -3 1522.55 396.359 1
12 -9 3 2762.51 685.772 2
-3 12 3 1764.01 330.848 1
-3 12 3 2112.61 539.165 4
12 -9 3 2239.79 615.682 1
-3 12 3 1993.8 477.122 3
-9 -3 0 581.166 260.461 1
12 -9 0 1129.58 420.821 1
-9 12 0 897.204 257.066 2
-3 -9 0 601.779 295.562 3
-3 -9 0 622.686 301.121 4
12 -3 0 608.584 254.723 2
-3 12 0 334.109 198.591 1
-3 12 0 487.624 236.389 3
12 -9 0 583.315 221.987 2
-9 -3 0 704.348 254.836 2
12 -3 0 565.574 254.076 1
-9 12 0 468.941 211.831 1
-3 12 0 351.89 238.183 4
-9 12 3 4413.74 568.727 2
-3 12 -3 3960.5 634.317 1
-9 12 3 4278.26 618.34 1
-3 -9 3 4180.47 733.23 3
12 -9 -3 4992.07 764.154 1
12 -3 3 4798.66 855.76 2
12 -3 3 3854.92 704.147 1
-9 12 3 4098.09 590.076 4
12 -9 -3 4770.04 626.378 4
-9 -3 -3 4063.28 583.867 1
-3 -9 3 4901.12 787.125 4
-9 -3 -3 4030.56 656.788 2
12 -9 -3 3934.97 646.998 2
-3 12 -3 3640.69 593.828 3
-3 12 -6 1864.85 528.974 1
12 -9 -6 1502.97 477.758 1
-3 -9 6 1726.28 447.421 4
-9 12 6 1698.08 422.201 4
12 -9 -6 1487.45 318.799 4
-9 -3 -6 1681.58 481.387 2
12 -3 6 1678.98 505.107 2
-9 12 6 1700.2 391.931 1
12 -3 6 1968.13 556.897 1
-3 -9 6 1480.71 421.139 3
-9 12 6 1868.71 392.936 2
-3 12 -6 1675.83 406.178 3
-9 -3 -6 1532.37 375.861 1
-3 12 -9 1508.21 389.341 1
-9 -3 -9 1969.57 545.485 2
-9 -3 -9 1422.17 358.783 1
12 -3 9 1921.29 599.06 2
12 -3 9 2310.65 622.588 1
-3 -9 9 1744.24 588.068 4
-9 12 9 1606.82 543.304 4
12 -9 -9 1137.79 353.932 1
-3 -9 9 1678.06 507.32 3
-3 12 -9 1937.08 449.074 3
-9 -3 -12 1200.35 358.802 1
-3 12 -12 643.683 277.705 1
-9 -3 -12 1474.1 527.244 2
12 -3 12 369.297 244.746 1
12 -3 12 1434.28 575.081 2
12 -9 -12 490.83 257.599 1
-3 -9 12 1150.55 350.524 3
-3 12 -15 315.969 166.667 1
12 -3 15 733.711 595.894 2
-9 -3 -15 486.318 284.563 1
-3 -9 15 287.759 255.562 3
-9 -3 -15 171.389 119.436 3
-2 12 16 514.205 430.762 2
12 -10 16 -45.6476 382.175 2
-10 12 -16 -628.432 539.863 1
-2 -10 -16 -85.807 100.807 1
-10 12 -16 289.063 201.642 3
-2 12 16 -212.372 165.157 3
-2 12 13 66.728 128.924 2
-10 12 -13 223.912 314.835 1
-2 12 13 -74.8392 130.221 3
-2 -10 -13 128.575 67.196 1
-10 12 -13 341.861 165.613 3
-2 -10 -10 2714.59 513.495 3
-10 12 -10 2766.77 532.901 3
-2 12 10 2944.42 454.246 2
12 -10 10 4292.19 1018.3 2
-10 12 -10 2445.27 648.355 1
-2 12 10 2463.81 495.418 3
-10 -2 10 2152.75 372.825 4
-10 12 -7 2541.72 671.993 2
12 -10 7 3724.73 889.023 2
-2 12 7 2461.31 543.107 3
-2 -10 -7 2134.6 458.391 3
12 -10 7 3125.19 782.379 1
-10 12 -7 2853.92 680.951 1
12 -2 -7 2079.92 529.642 1
-2 -10 -7 2499.69 375.884 2
-10 -2 7 2055.28 380.072 4
-2 -10 -4 3377.71 399.415 2
-10 12 -4 3104.73 663.559 1
12 -10 4 3765.64 810.233 2
12 -2 -4 2807.09 520.084 1
-2 12 4 3687.59 396.74 1
-2 12 4 3348.34 744.763 4
12 -10 4 3111.44 714.325 1
-2 -10 -4 2995.96 581.874 3
-2 12 4 2636.76 540.705 3
-10 12 -4 2778.45 635.045 2
-2 12 1 4009.62 563.353 1
-10 12 -1 4668.67 768.116 2
-10 -2 1 4446.15 741.532 2
12 -2 -1 4248.13 666.129 1
12 -10 1 3850.49 772.731 2
-2 -10 -1 4320.62 760.457 3
-10 12 -1 4593.69 791.497 1
-2 12 1 5088.46 777.364 4
-2 12 1 3843.05 666.641 3
12 -2 -1 3934.52 674.878 2
12 -10 1 3604.74 721.713 1
-10 -2 -2 2551.19 510.42 1
12 -10 -2 3577.23 654.727 1
-10 12 2 3324.22 562.624 1
12 -10 -2 2753.63 550.26 2
-2 12 -2 3794.97 613.093 1
-10 12 2 3516.14 547.93 2
-10 -2 -2 3140.58 633.909 2
-2 -10 2 3100.36 679.028 4
12 -2 2 2351.49 499.446 1
12 -2 2 3002.99 651.042 2
-2 12 -2 3058.84 563.927 4
-2 -10 2 2442.92 529.448 3
-2 12 -2 3164.32 559.491 3
-2 12 -5 860.061 312.322 1
-10 -2 -5 712.614 252.75 1
-10 12 5 537.557 240.238 1
-10 12 5 1074.01 309.437 2
-10 -2 -5 982.309 403.785 2
-2 12 -5 445.968 210.618 3
-2 -10 5 1495.59 489.328 4
12 -2 5 678.124 229.183 1
12 -2 5 783.62 333.62 2
-10 12 5 652.869 256.845 4
12 -10 -5 1111.36 387.032 1
-2 -10 5 1176.53 381.595 3
12 -10 -5 1611.61 392.067 4
-10 -2 -8 2252.11 548.088 2
-2 -10 8 2190.32 626.657 4
12 -2 8 2398.76 573.467 1
-2 12 -8 2254.72 549.723 1
12 -10 -8 1971.93 490.67 1
12 -2 8 2327.28 658.952 2
-10 -2 -8 1798.32 442.188 1
-10 12 8 2195.66 463.67 1
-2 12 -8 1886.83 464.755 3
-10 12 8 2303.57 569.271 4
-2 -10 8 2467.07 614.102 3
-10 12 8 2621.2 531.411 2
12 -10 -11 1534.29 416.439 1
-2 12 -11 2096.63 572.915 1
12 -2 11 1604.19 499.27 1
12 -2 11 2489.84 768.117 2
-10 12 11 1681.5 537.954 4
-10 -2 -11 1625.07 393.123 1
-10 -2 -11 2104.63 626.391 2
-2 -10 11 1964.59 623.346 3
12 -2 14 516.722 437.275 2
-2 -10 14 1248.86 620.029 3
-2 12 -14 7.93766 181.145 1
-10 -2 -14 460.986 208.061 3
-10 -2 -14 587.504 310.066 1
-1 12 14 314.171 153.236 2
12 -11 14 291.013 438.88 2
-11 12 -14 806.115 489.22 1
-1 12 14 823.918 349.831 3
-1 -11 -14 821.141 204.702 1
-11 12 -14 662.471 205.547 3
-11 12 -11 81.9676 161.451 3
-1 -11 -11 653.94 309.824 3
-1 12 11 472.744 229.342 2
-11 -1 11 443.588 176.255 4
12 -11 11 259.594 322.731 2
-11 12 -11 961.883 526.26 1
-1 12 11 23.4223 159.226 3
-1 12 8 6408.87 501.633 2
12 -11 8 7073.62 1271.52 2
-11 -1 8 7761.03 681.822 4
-11 12 -8 7448.03 1153.85 1
-1 12 8 6514.93 894.35 3
-1 -11 -8 7967.32 938.673 3
12 -1 -5 1104.13 377.195 1
-1 -11 -5 1556.76 419.514 3
-11 12 -5 1455.59 413.065 2
12 -11 5 2141.16 626.041 1
12 -11 5 2088.87 572.897 2
12 -1 -5 1330.73 216.016 4
-1 12 5 2327.56 623.023 4
-11 12 -5 2194.1 581.963 1
-1 12 5 1614.66 411.089 3
-1 12 2 1142.19 281.768 1
-11 12 -2 1649.5 519.681 2
-11 -1 2 965.471 357.824 2
12 -11 2 565.941 217.023 2
-1 12 2 1361.26 424.482 4
-11 12 -2 1611.47 552.085 1
12 -11 2 948.894 358.619 1
12 -1 -2 858.328 300.791 1
-1 12 2 1370.9 404.187 3
-1 -11 -2 817.951 290.866 3
-11 12 1 4149.13 661.487 2
12 -11 -1 4251.84 741.347 1
-11 12 1 4691.49 747.894 1
12 -1 1 3990.04 742.075 2
-1 12 -1 3960.9 678.933 4
-1 -11 1 3669.79 747.05 4
-11 -1 -1 3332.99 666.262 2
-11 -1 -1 4555.33 704.712 1
-1 12 -1 3779.25 681.342 3
12 -1 1 3662.07 663.647 1
-1 12 -1 3558.68 557.637 1
-1 -11 1 4070.47 756.259 3
12 -11 -1 3912.42 734.165 2
-11 -1 -4 1983.27 424.072 1
12 -11 -4 2207.58 484.655 2
12 -1 4 2003.27 483.251 1
-1 12 -4 1661.55 417.863 1
12 -11 -4 1990.85 449.461 1
-11 -1 -4 2048.7 562.384 2
12 -11 -4 3035.62 537.267 4
12 -1 4 2620.35 603.898 2
-11 12 4 2001.6 401.22 2
-1 12 -4 1675.62 438.192 3
-1 -11 4 3209.45 698.385 4
-11 12 4 2003.99 408.192 4
-1 -11 4 1726.57 436.812 3
-11 12 4 2226.01 457.047 1
-1 12 -7 702.326 345.624 1
-11 12 7 1240.53 403.894 1
-11 -1 -7 373.653 257.234 2
-1 12 -7 129.631 93.9353 3
12 -1 7 213.802 251.335 2
-11 -1 -7 327.992 270.299 1
12 -11 -7 446.787 278.994 1
-11 12 7 472.517 219.305 4
-1 -11 7 147.749 236.591 4
-11 12 7 577.756 320.984 2
12 -1 7 164.257 195.012 1
-1 -11 7 287.948 254.993 3
-1 12 -10 415.827 327.491 1
-11 -1 -10 374.184 238.39 1
-11 -1 -10 150.655 134.955 2
12 -1 10 298.68 323.862 2
12 -1 10 261.232 152.966 1
12 -11 -10 208.815 129.902 1
-11 12 10 889.752 411.299 4
-11 -1 -13 342.436 154.612 1
-1 12 -13 189.471 218.656 1
12 -11 -13 769.249 243.842 1
12 -1 13 646.709 360.247 1
12 -1 13 371.408 281.609 2
-11 12 13 -206.451 272.66 4
12 -1 16 1074.07 797.037 2
-1 -11 16 737.107 475.812 3
-1 12 -16 1420.58 610.47 1
-11 -1 -16 731.797 239.578 3
-11 -1 -16 641.743 294.392 1
0 -12 -15 -42.845 88.8283 1
0 12 15 -419.463 336.807 2
0 12 15 119.548 207.174 3
-12 12 -15 377.592 281.845 1
-12 12 -15 278.982 229.293 3
12 -12 12 -398.429 339.06 2
0 12 12 -113.339 208.698 2
-12 12 -12 -232.584 208.632 1
-12 0 12 90.9778 70.3253 4
0 12 12 -322.584 250.218 3
-12 12 -12 -108.592 218.449 3
0 12 9 307.4 147.315 2
12 -12 9 -190.645 326.06 2
-12 12 -9 133.239 172.426 1
0 -12 -9 251.186 218.897 3
0 12 9 237.096 131.596 3
12 0 -6 3609.67 653.902 1
-12 12 -6 5253.89 983.425 2
0 -12 -6 4758.41 736.331 3
12 -12 6 5466.28 1058.47 2
12 -12 6 5157.83 1081.99 1
12 0 -6 3051.15 331.509 4
-12 12 -6 5261.72 919.875 1
0 12 6 3789.99 645.047 3
0 12 3 738.632 211.883 1
-12 12 -3 939.433 455.676 2
-12 12 -3 504.426 369.783 1
12 -12 3 687.628 383.581 2
12 0 -3 614.16 270.859 1
0 12 3 50.2461 213.379 3
0 12 3 702.663 329.717 4
12 -12 3 931.996 480.089 1
-12 0 3 1117.01 396.79 2
0 -12 -3 294.178 153.118 3
-12 12 0 9685.61 1140.76 1
-12 12 0 10219.1 1134.27 2
12 -12 0 9497.16 1106.39 2
12 0 0 8184.97 950.457 1
-12 0 0 8670.79 1064.93 2
12 0 0 8958.37 1071.38 2
0 12 0 8866.71 1032.91 4
0 -12 0 7898.68 1138.93 4
-12 0 0 8413.67 970.288 1
0 12 0 9174.86 1002.97 3
0 -12 0 9174.14 1048.85 3
12 -12 0 9766.93 1165.03 1
12 -12 -3 -133.839 177.956 1
12 0 3 -15.2882 200.742 1
0 12 -3 -152.981 115.288 3
-12 0 -3 -185.205 210.43 1
0 -12 3 321.057 251.761 4
-12 0 -3 -226.066 290.178 2
-12 12 3 80.0738 229.003 2
12 0 3 -49.6949 183.309 2
12 -12 -3 71.6645 152.058 2
12 -12 -3 193.693 233.837 4
-12 12 3 396.42 226.304 1
0 12 -3 -294.164 207.836 4
0 -12 3 218.003 242.936 3
12 0 6 -24.3264 278.853 1
-12 0 -6 202.637 113.564 1
-12 0 -6 562.355 286.64 2
12 0 6 -54.651 182.234 2
0 -12 6 138.822 223.582 3
-12 12 6 264.964 139.869 4
12 -12 -6 356.645 164.206 4
0 -12 6 455.545 201.792 4
12 -12 -6 287.98 205.433 1
-12 12 6 219.117 167.715 1
-12 12 6 269.573 198.341 2
0 12 -6 202.654 121.632 3
-12 0 -9 4797.43 775.034 1
-12 0 -9 4742.51 1000.65 2
12 0 9 6498.63 999.614 1
-12 12 9 4951.47 804.292 1
12 -12 -9 5490.63 793.405 1
12 0 9 4128.26 890.189 2
-12 12 9 4889.52 719.677 4
0 -12 9 6451.26 1008.88 3
-12 0 -12 481.21 294.182 1
12 -12 -12 174.567 102.348 1
12 0 12 970.67 510.241 1
12 0 12 168.724 358.965 2
-12 12 12 260.109 262.449 4
0 -12 12 661.271 347.127 3
0 12 -12 224.268 175.739 1
0 12 -15 432.006 319.332 1
12 -12 -15 519.642 256.024 1
12 0 15 1010.14 447.684 1
12 0 15 1578.17 612.11 2
0 -12 15 1629.44 665.795 3
-12 12 15 547.222 201.121 4
-12 0 -15 1300.26 471.701 1
1 12 16 210.894 228.086 2
1 -13 -16 -24.9719 71.0821 1
1 -13 -16 40.0616 56.341 1
-13 12 -16 32.1563 116.946 3
-13 12 -13 514.283 168.046 3
12 -13 13 -310.807 676.004 2
1 12 13 37.391 158.743 2
-13 12 -13 177.89 216.641 1
-13 1 13 238.379 113.195 4
1 12 13 440.369 281.31 3
1 12 10 4617.04 579.54 2
12 -13 10 6328.56 1380.35 2
-13 12 -10 4009.39 896.293 1
1 12 10 4543.15 756.65 3
-13 12 -7 2422.64 673.024 1
1 -13 -7 1811.73 471.68 3
1 12 7 1969.07 280.641 2
12 -13 7 2955.43 867.43 2
1 12 7 2290.81 543.234 3
12 1 -4 4379.95 727.924 1
-13 12 -4 4728.39 863.282 2
-13 1 4 5547.03 937.948 2
12 -13 4 4942.22 941.535 2
12 1 -4 4373.25 513.892 4
12 -13 4 4992.14 995.028 1
1 12 4 4515.5 842.08 4
-13 12 -4 4213.86 798.419 1
1 12 4 4294.75 675.934 3
1 -13 -4 4745.31 785.739 3
-13 12 -1 59.0252 197.67 1
1 -13 -1 47.3162 170.76 3
12 1 -1 264.346 140.37 1
-13 12 -1 355.835 179.469 2
12 -13 1 -147.278 174.479 2
12 -13 1 399.634 351.803 1
1 -13 -1 -105.478 205.844 4
1 12 1 635.979 306.448 4
-13 1 1 -317.44 310.385 2
-13 1 1 93.3203 132.088 1
1 12 1 39.7562 201.829 3
12 -13 -2 1594.65 414.232 1
12 -13 -2 1235.12 359.365 2
12 1 2 997.808 352.731 2
-13 1 -2 1768.56 465.197 1
-13 12 2 1686.61 472.643 2
1 12 -2 1361.3 397.257 4
12 -13 -2 1604.83 425.881 4
1 -13 2 1481.71 412.267 4
-13 1 -2 1302.29 442.075 2
1 12 -2 854.467 353.123 3
-13 12 2 1466.8 423.596 1
12 1 2 918.956 357.876 1
1 -13 2 1702.48 490.298 3
12 -13 -5 719.891 307.053 4
-13 12 5 243.382 156.727 2
-13 12 5 162.643 167.011 1
1 -13 5 420.169 221.938 4
12 1 5 61.4136 192.117 1
12 -13 -5 414.744 200.11 1
-13 1 -5 574.42 335.217 2
-13 1 -5 652.924 291.915 1
12 1 5 396.192 398.833 2
1 -13 5 439.663 300.027 3
12 -13 -8 2656.93 561.195 1
-13 12 8 1636.06 493.269 1
-13 1 -8 2490.21 653.581 2
-13 1 -8 2651.97 605.288 1
1 -13 8 2669.33 690.979 3
12 1 8 2623.12 715.847 2
-13 12 8 2087.67 398.801 4
12 1 8 2548.76 609.566 1
-13 12 8 2318.94 554.292 2
1 -13 8 3073.32 847.436 4
-13 1 -11 2118.97 608.537 1
12 1 11 1873.09 508.183 1
12 1 11 2018.75 669.023 2
-13 12 11 1728.07 492.291 4
1 -13 11 2882.6 756.93 3
12 -13 -11 1436.56 427.152 1
12 1 14 1951.47 540.97 1
-13 12 14 1502.42 482.349 4
12 -13 -14 718.688 302.062 1
12 1 14 1731.49 638.325 2
1 -13 14 1574.71 570.05 3
-13 1 -14 1567.31 552.26 1
-14 12 -14 201.589 201.204 3
12 -14 14 -36.9057 498.03 2
2 12 14 -124.49 180.71 2
-14 12 -14 -398.607 399.163 1
-14 2 14 453.448 163.643 4
12 -14 11 317.204 294.843 2
2 12 11 956.824 308.217 2
-14 12 -11 1465.27 573.878 1
2 12 8 962.417 343.701 3
2 -14 -8 1147.95 404.742 3
12 -14 8 445.011 297.742 2
2 12 8 1224.29 284.273 2
-14 12 -8 1662.94 554.911 1
12 2 -5 803.443 333.546 1
12 -14 5 614.162 431.29 1
2 12 5 430.992 162.13 3
12 -14 5 266.434 241.238 2
2 12 5 925.743 206.614 1
12 2 -5 993.706 251.984 4
-14 12 -5 479.624 230.373 2
-14 12 -5 339.834 240.607 1
2 -14 -5 594.315 233.366 3
2 -14 -2 3333.46 674.458 3
12 -14 2 5415.77 1001.5 1
-14 12 -2 5361.56 927.401 1
-14 12 -2 4802.48 858.97 2
2 12 2 5072.38 783.733 3
-14 2 2 5117.82 932.713 2
12 -14 2 5048.4 892.862 2
2 12 2 6283.77 1021.28 4
-14 2 2 5520.42 897.269 1
12 2 -2 4169.32 708.994 1
2 -14 -2 4443.23 934.192 4
-14 2 -1 672.299 336.197 1
12 2 1 546.876 297.224 1
2 12 -1 748.885 312.304 3
-14 12 1 510.273 309.278 2
-14 2 -1 598.279 326.048 2
2 -14 1 711.649 340.628 4
-14 12 1 51.3734 194.494 1
12 -14 -1 543.883 223.688 2
12 -14 -1 762.5 325.34 4
2 -14 1 407.072 281.198 3
2 12 -1 685.085 368.191 4
12 -14 -1 480.342 302.861 1
12 2 1 394.462 271.936 2
2 -14 4 2167.07 541.332 3
2 -14 4 2818.15 792.077 4
12 -14 -4 2334.91 524.484 1
12 2 4 1985.93 440.627 1
-14 12 4 1748.42 457.863 1
12 2 4 1192.79 324.282 2
-14 2 -4 2981.86 694.746 2
-14 12 4 2020.03 454.306 2
-14 2 -4 2407.58 575.665 1
2 12 -4 1786.82 445.598 4
12 -14 -4 2888.34 677.732 4
12 -14 -4 1470.82 428.103 2
-14 2 -7 1590.2 601.298 2
-14 12 7 1057.37 352.321 1
12 -14 -7 1648.49 475.283 1
2 -14 7 2427.65 738.247 4
-14 2 -7 1395.76 468.189 1
12 -14 -7 1478.45 464.188 4
-14 12 7 1277.78 312.46 4
12 2 7 1034.07 437.283 2
12 2 7 1705.2 504.021 1
-14 12 7 1022.92 402.748 2
2 -14 7 1870.56 590.192 3
-14 2 -10 1521.33 520.835 1
12 2 10 1104.78 400.925 2
12 2 10 1041.02 411.138 1
12 -14 -10 812.299 351.552 1
-14 12 10 1189.75 347.394 4
2 -14 10 1058.55 401.763 3
12 -14 -13 336.292 199.699 1
12 2 13 533.005 344.495 1
2 -14 13 149.168 304.496 3
12 2 13 59.926 347.903 2
-14 12 13 646.255 320.588 4
-14 2 -13 352.12 299.2 1
12 -15 15 -191.972 390.3 2
3 12 15 -341.604 269.812 2
-15 12 -15 494.432 213.755 3
-15 12 -15 909.107 464.839 1
12 -15 12 3182.29 952.297 2
3 12 12 2887.06 563.211 2
-15 12 -12 2359.56 750.501 1
12 -15 9 1484.12 766.999 2
3 12 9 1046.41 304.446 2
-15 12 -9 1596.26 628.092 1
3 12 6 8950.2 636.83 1
12 3 -6 8058.69 711.273 4
3 -15 -6 10234.1 1230.5 3
-15 12 -6 11173.2 1420.17 1
3 -15 -3 1155.88 418.578 3
-15 12 -3 2514.82 712.957 1
3 -15 -3 1070.9 210.209 2
3 -15 -3 2018.57 737.959 4
-15 12 -3 3468.24 814.29 2
12 -15 3 1928.6 579.177 2
-15 3 3 1612.3 481.786 1
3 12 3 1602.87 561.828 4
12 -15 3 1988.74 621.873 1
12 3 -3 1411.31 432.957 1
-15 3 3 1510.07 545.749 2
3 -15 0 2826.35 631.16 3
-15 12 0 3427.55 737.509 2
12 -15 0 3076.1 637.985 2
3 -15 0 3394.74 832.12 4
-15 12 0 3312.87 774.138 1
3 12 0 3214.62 662.461 4
12 -15 0 3238.74 721.025 1
12 -15 0 3366.37 799.728 4
-15 3 0 2814.26 610.262 1
12 3 0 2438.67 548.896 1
-15 3 0 2331.66 634.395 2
3 -15 3 129.271 218.803 3
-15 12 3 233.402 155.717 1
3 12 -3 -30.3379 202.773 4
-15 3 -3 505.261 336.223 2
12 -15 -3 -5.00108 113.697 2
12 -15 -3 233.503 172.782 4
3 -15 3 -142.445 224.831 4
12 3 3 0.35861 169.724 2
-15 3 -3 344.615 281.979 1
-15 12 3 65.9668 137.644 2
12 3 3 -84.0463 135.07 1
12 -15 -3 -159.149 251.337 1
3 -15 6 1097.72 410.591 3
12 -15 -6 714.921 271.256 1
12 3 6 728.474 401.041 1
-15 3 -6 693.945 519.067 2
12 -15 -6 1130.61 471.551 4
-15 12 6 561.593 329.939 2
12 3 6 984.786 475.335 2
-15 12 6 665.537 310.752 1
3 -15 6 2442.68 820.908 4
-15 3 -6 857.954 385.067 1
-15 3 -9 457.749 328.843 1
12 3 9 293.961 268.973 1
12 3 9 469.748 462.139 2
12 -15 -9 264.465 238.74 1
-15 12 9 212.809 158.247 4
-15 12 9 218.414 227.926 1
3 -15 9 170.468 278 3
-15 12 9 549.021 322.073 2
3 -15 12 548.319 418.756 3
-15 3 -12 700.654 411.384 1
12 3 12 1385.99 473.884 1
12 3 12 826.151 476.325 2
-15 12 12 696.618 277.27 4
12 -15 -12 353.068 239.733 1
3 -15 15 34.9169 323.74 3
12 3 15 8.47738 267.07 1
12 -15 -15 492.949 253.292 1
-15 3 -15 -2.44685 334.343 1
12 3 15 624.694 236.885 2
-15 12 15 175.336 205.841 4
12 -16 13 374.762 380.091 2
-16 12 -13 -349.09 348.32 1
4 12 13 255.851 132.729 2
-16 12 -10 615.239 329.712 1
4 12 10 9.28388 111.534 2
12 -16 7 777.482 513.215 2
12 4 -7 856.834 256.927 4
4 12 7 722.481 185.829 1
4 12 7 615.528 196.549 2
-16 12 -7 777.269 364.887 1
4 12 4 9130.02 787.099 1
12 -16 4 12559.9 1548.5 2
12 4 -4 7853.25 1015.37 1
4 12 4 8670.24 1336.74 4
-16 4 4 8480.39 1134.77 1
4 -16 -4 8333.22 1357.19 4
4 -16 -4 9708.37 1224.24 3
-16 12 -4 13513 1543.5 1
12 4 -4 8741.66 901.876 4
12 -16 4 10643.1 1489.4 1
12 -16 1 8040.2 1138.24 2
-16 12 -1 9361.55 1270.87 2
-16 12 -1 8534.66 1176.38 1
-16 4 1 7220.76 1079.03 2
4 -16 -1 7047.9 743.756 2
12 4 -1 6398.72 908.984 1
4 12 1 8622.34 1203.16 4
12 -16 1 7460.77 1260.46 4
-16 4 1 7301.34 1087.08 1
4 -16 -1 6928.04 1231.12 4
4 -16 -1 7279.16 1107.46 3
12 -16 1 6960.88 1098.79 1
4 -16 2 -202.433 386.924 3
-16 4 -2 292.928 174.415 1
12 4 2 159.117 152.156 1
12 -16 -2 322.49 278.281 1
-16 4 -2 267.042 323.757 2
12 -16 -2 318.906 209.52 2
4 12 -2 -12.643 166.93 4
12 -16 -2 449.834 213.758 4
4 -16 2 33.5692 206.576 4
-16 12 2 225.31 144.264 2
12 4 2 461.973 320.042 2
-16 12 2 846.067 482.267 1
4 -16 5 4625.04 889.925 3
-16 4 -5 3429.65 768.917 1
12 -16 -5 4439.58 696.008 2
12 4 5 3519.97 679.953 1
12 -16 -5 4550.72 937.349 4
-16 12 5 4079.43 767.349 2
12 4 5 3805.58 748.65 2
4 12 -5 3656.19 653.904 4
-16 12 5 3737.67 741.384 1
12 -16 -5 4299.93 702.649 1
12 4 8 516.442 338.646 2
-16 12 8 522.226 292.771 1
12 -16 -8 572.838 281.966 1
-16 4 -8 305.785 356.252 1
-16 12 8 1054.33 446.827 2
4 -16 8 1139.82 488.054 3
12 4 8 417.972 191.17 1
4 -16 11 -3.53488 380.583 3
-16 4 -11 -28.2459 177.692 1
12 4 11 -37.3252 210.478 2
12 4 11 292.678 245.267 1
12 -16 -11 -184.587 206.688 1
-16 12 11 201.117 144.748 4
4 -16 14 303.632 353.835 3
-16 4 -14 466.322 336.869 1
12 4 14 297.811 153.314 1
12 -16 -14 662.393 363.08 1
12 4 14 1166.42 648.768 2
-16 12 14 422.863 242.73 4
12 -17 14 245.215 664.731 2
5 12 14 388.472 198.801 2
-17 12 -14 265.204 255.659 1
12 -17 11 1375.57 707.673 2
-17 12 -11 1944.32 746.683 1
5 12 11 2270.45 586.275 2
5 -17 -8 817.059 189.45 1
5 12 8 2064.96 476.084 2
12 -17 8 1065.13 652.175 2
5 12 8 1076.13 253.121 1
-17 12 -8 1357.31 562.479 1
5 -17 -5 694.348 247.131 1
-17 12 -5 1640.92 479.895 1
-17 5 5 628.226 424.78 1
12 -17 5 796.552 491.469 2
12 5 -5 1082.1 328.006 4
5 12 5 1297.04 322.564 1
5 -17 -2 2515.3 667.262 3
-17 5 2 1965.26 483.245 1
5 -17 -2 2583.52 423.403 2
5 12 2 2398.29 651.829 4
12 -17 2 2476.58 643.772 2
-17 12 -2 3997.68 906.148 1
-17 12 -2 3337.71 778.313 2
12 5 -2 1789.92 503.602 1
5 -17 -2 1820.73 404.709 1
12 -17 2 1970.59 670.978 4
12 -17 2 2505.07 673.23 1
5 -17 1 74.586 170.907 2
-17 5 -1 306.737 275.969 1
5 -17 1 146.844 272.239 3
12 -17 -1 302.332 361.372 2
-17 12 1 287.278 364.732 2
12 -17 -1 52.5271 207.244 1
12 -17 -1 701.719 474.928 4
5 12 -1 391.406 358.057 4
12 5 1 243.918 199.537 1
-17 12 1 26.2822 225.962 1
5 -17 4 1956.64 542.785 3
12 -17 -4 1665.21 462.823 1
-17 12 4 1513.58 464.245 1
12 -17 -4 2019.06 670.287 4
12 5 4 1522.47 397.709 1
5 12 -4 1908.33 485.605 4
-17 12 4 1948.81 551.275 2
12 -17 -4 2368.79 496.183 2
12 5 4 2139.29 593.59 2
-17 5 -4 1922.71 604.798 1
12 -17 -7 684.789 343.803 1
5 -17 7 1047.8 561.698 3
12 -17 -7 670.468 346.972 4
-17 12 7 889.674 415.282 2
-17 5 -7 476.483 383.832 1
-17 12 7 416.336 201.521 1
12 5 7 693.889 260.093 1
12 5 7 1089.74 453.081 2
5 -17 10 343.507 344.902 3
-17 5 -10 177.351 312.625 1
12 -17 -10 580.408 332.35 1
12 5 10 586.952 291.944 2
12 5 10 118.907 158.232 1
12 -17 -13 348.676 244.009 1
5 -17 13 592.709 263.378 3
-17 5 -13 254.011 201.204 1
12 5 13 712.803 361.994 1
12 5 13 -181.547 334.94 2
-17 12 13 309.659 178.26 4
12 -18 12 622.318 687.645 2
6 12 12 32.0617 245.336 2
-18 12 -12 13.1569 259.529 1
6 12 12 117.79 85.882 1
-18 12 -9 1289.59 457.074 1
6 -18 -9 994.883 219.956 1
12 -18 9 1414.6 577.01 2
6 12 9 2036.8 505.705 2
6 12 9 1312 256.663 1
6 12 6 596.247 224.936 1
6 -18 -6 183 141.456 1
12 6 -6 101.406 174.532 4
12 -18 6 168.011 252.319 2
-18 12 -6 194.78 267.949 1
6 -18 -3 3515.87 458.916 2
12 -18 3 4671.71 974.973 2
-18 12 -3 4506.89 946.044 1
6 12 3 3703.99 590.416 1
-18 6 3 2982.43 713.862 1
6 12 3 3821.06 916.794 4
6 -18 -3 3289.92 571.16 1
12 6 -3 3565.96 635.761 4
6 -18 0 1182.28 370.343 1
6 -18 0 1479.87 559.023 3
6 -18 0 1600.76 461.434 2
12 -18 0 1620.47 508.522 1
12 -18 0 1692.69 497.079 2
-18 6 0 1886.45 573.727 1
12 6 0 1250.95 419.556 1
6 12 0 1841.29 559.681 4
-18 12 0 1604.7 609.465 2
-18 12 0 1275.24 495.683 1
12 -18 0 1801.75 760.628 4
6 -18 3 4172.87 777.012 3
-18 12 3 3001.69 729.483 1
12 6 3 3272.86 658.874 1
12 -18 -3 3042.2 633.056 1
12 -18 -3 4474.92 1060.79 4
6 12 -3 2658.46 630.256 4
-18 12 3 2997.86 718.792 2
6 -18 3 4208.36 816.057 2
12 -18 -3 3332.97 610.441 2
12 6 3 3251.66 701.326 2
-18 6 -3 4355.9 877.05 1
6 -18 6 287.753 306.469 3
12 -18 -6 607.741 442.593 4
-18 12 6 -32.7409 166.73 1
-18 6 -6 599.004 348.919 1
12 6 6 579.39 201.949 1
6 12 -6 489.192 270.358 4
12 -18 -6 328.434 178.27 1
12 6 6 794.882 406.166 2
12 -18 -9 1125.91 347.696 1
-18 6 -9 1594.85 619.298 1
-18 12 9 1616.88 546.102 1
6 -18 9 1656.32 548.4 3
12 6 9 1483.84 569.636 2
12 6 9 2014.97 543.85 1
6 -18 12 -258.538 397.707 3
-18 6 -12 -431.254 322.769 1
12 -18 -12 415.484 263.739 1
12 6 12 206.352 144.465 1
12 6 12 595.105 438.32 2
7 12 13 391.658 144.929 1
7 12 13 -28.297 226.848 2
12 -19 13 361.659 672.378 2
7 -19 -13 243.383 93.5727 1
-19 12 -13 -97.7573 301.924 1
-19 12 -10 863.498 473.899 1
12 -19 10 210.658 388.206 2
7 12 10 580.814 203.383 1
7 -19 -10 414.505 157.708 1
7 12 10 1220.17 462.607 2
7 -19 -7 906.448 284.31 1
-19 12 -7 1837.87 675.086 1
-19 7 7 584.652 423.566 1
12 -19 7 1152.3 547.051 2
7 12 7 722.706 299.699 2
7 12 7 984.399 277.857 1
12 7 -7 1037.9 339.935 4
7 -19 -4 1216.49 314.949 1
12 -19 4 88.4234 199.522 2
7 12 4 905.749 281.369 1
-19 12 -4 809.118 407.84 1
7 -19 -4 830.104 229.95 2
12 7 -4 864.372 351.539 4
-19 7 4 1044.29 427.173 1
12 7 -1 762.328 343.882 1
-19 12 -1 1017.9 423.406 1
12 -19 1 885.756 363.149 1
12 -19 1 805.153 351.509 2
7 -19 -1 984.661 353.587 2
7 12 1 1065.25 369.683 4
-19 7 1 761.142 329.973 1
7 -19 -1 1029 346.167 1
-19 7 -2 1690.8 552.527 1
7 -19 2 2628.63 710.21 3
-19 12 2 1805.13 572.051 1
7 -19 2 2125.39 539.738 2
12 -19 -2 2143.82 586.891 1
12 -19 -2 2055.54 515.996 2
7 -19 2 1939.96 559.363 1
7 12 -2 1131.21 396.948 4
12 7 2 1289.11 411.771 1
12 7 5 -185.174 312.428 1
7 -19 5 457.388 291.451 3
7 -19 5 374.722 356.724 2
12 -19 -5 -60.1783 217.944 1
12 -19 -5 -16.3513 164.688 2
-19 7 -5 909.575 462.696 1
7 12 -5 50.8227 183.415 4
12 7 5 581.343 366.004 2
-19 12 5 -99.5166 239.418 1
7 -19 8 1137.87 504.713 3
7 -19 8 726.872 382.527 2
12 7 8 757.035 199.012 1
-19 12 8 19.1041 163.172 1
-19 7 -8 648.06 358.272 1
12 7 8 843.305 434.453 2
12 -19 -8 994.113 363.043 1
7 -19 11 620.525 400.561 3
7 -19 11 218.797 377.736 2
12 -19 -11 575.171 273.651 1
-19 7 -11 -433.104 323.895 1
12 7 11 -319.097 345.121 2
12 7 11 321.428 171.47 1
7 -19 14 1341.35 685.697 2
12 7 14 -0.31046 316.548 2
-20 12 -11 81.8823 233.47 1
12 -20 11 396.642 466.615 2
8 -20 -11 228.008 139.367 1
8 12 11 47.5854 86.012 1
8 12 11 16.6088 249.651 2
-20 8 8 143.561 265.93 1
-20 12 -8 646.16 481.166 1
12 -20 8 671.267 455.009 2
8 -20 -8 846.761 243.173 1
8 12 8 1082.82 329.405 1
8 12 8 264.944 194.328 2
12 8 -8 523.307 232.847 4
8 -20 -5 3615.91 444.816 2
12 -20 5 5971.84 1196.17 2
-20 12 -5 4951.18 1040.4 1
-20 8 5 3264.91 842.43 1
12 8 -5 3147.46 628.057 4
8 -20 -5 4440.03 669.93 1
8 12 5 3996.94 649.613 1
-20 8 2 3111.39 830.786 1
8 -20 -2 3440.49 678.923 1
-20 12 -2 5495.75 1027.58 1
8 12 2 3078.32 593.172 1
12 -20 2 3991.02 869.071 2
8 -20 -2 3535.52 565.397 2
8 12 2 3484.27 854.82 4
12 8 -2 2969.5 689.021 4
8 -20 1 3568.52 784.48 1
-20 8 -1 3058.75 770.495 1
8 -20 1 3626.75 733.688 2
12 8 1 2703.52 618.572 1
8 12 -1 2662.14 674.057 4
12 -20 -1 4086.77 798.269 1
12 -20 -1 3515.5 717.284 2
-20 12 1 3177.62 802.886 1
8 12 -4 37.52 224.828 4
8 -20 4 -99.077 162.148 2
12 8 4 449.72 203.664 1
12 -20 -4 175.919 285.929 1
12 -20 -4 127.684 148.955 2
-20 12 4 75.8931 247.839 1
-20 8 -4 496.49 389.896 1
-20 12 7 1017.72 437.7 1
8 -20 7 1303.55 662.734 2
8 12 -7 345.014 185.895 4
12 8 7 1094.2 437.319 1
-20 8 -7 872.768 406.934 1
12 -20 -7 578.667 310.689 1
12 8 7 735.821 375.773 2
-20 8 -10 -25.5092 200.383 1
12 8 10 -238.214 248.917 2
12 -20 -10 -36.1172 179.759 1
12 8 10 140.996 181.417 1
-20 8 -13 76.5567 217.481 1
8 -20 13 410.134 523.814 2
12 -20 -13 44.6737 176.207 1
12 8 13 94.7274 184.003 1
12 8 13 -113.285 377.991 2
-21 12 -12 -228.116 324.902 1
12 -21 12 983.581 821.07 2
9 12 12 30.9881 91.793 1
9 -21 -12 283.772 176.16 1
9 12 12 861.642 503.722 2
9 12 9 -33.8533 127.386 1
9 -21 -9 42.2082 95.9085 1
9 12 6 341.92 231.398 1
9 -21 -6 146.771 171.366 1
12 -21 6 498.985 453.515 2
-21 9 6 669.766 434.228 1
-21 12 -6 1140.05 613.85 1
12 9 -6 338.213 177.122 4
9 -21 -3 331.596 192.645 1
12 -21 3 945.247 354.799 2
9 12 3 918.949 342.031 1
9 -21 -3 713.61 246.658 2
-21 12 -3 1040.7 486.014 1
12 9 -3 839.423 340.582 4
-21 9 3 792.284 525.783 1
-21 12 0 2293.45 712.186 1
9 -21 0 2960.32 736.875 1
12 9 0 1837.27 515.77 1
12 -21 0 2613.45 596.769 1
-21 9 0 2700.04 745.344 1
9 -21 0 2473.86 584.4 2
12 -21 0 2377.84 593.214 2
12 9 0 1961.09 586.762 4
9 12 0 1036.96 450.554 4
9 -21 3 1117.32 524.566 2
12 -21 -3 751.635 327.34 1
-21 12 3 463.46 371.091 1
12 -21 -3 1239.9 385.22 2
-21 9 -3 1574.68 550.686 1
12 9 3 981.965 417.481 1
9 12 -3 895.237 400.545 4
9 -21 6 379.834 278.436 2
12 9 6 993.381 476.746 2
-21 12 6 1072.95 456.441 1
12 -21 -6 1181.08 449.621 1
12 -21 -6 1756.62 421.427 2
-21 9 -6 983.082 501.234 1
12 9 6 1377.82 445.901 1
9 12 -6 918.458 354.073 4
12 9 9 422.396 259.234 1
9 -21 9 280.754 239.105 2
-21 9 -9 44.2585 269.237 1
12 9 9 987.832 500.038 2
-21 12 9 337.103 391.801 1
12 -21 -9 166.212 117.068 1
9 -21 12 87.9384 483.987 2
-21 9 -12 35.6126 390.127 1
12 9 12 297.121 207.992 1
12 9 12 370.593 271.599 2
12 -21 -12 290.641 201.718 1
-22 12 -10 40.1763 250.117 1
12 -22 10 817.352 392.395 2
10 12 10 930.029 471.234 2
10 -22 -10 949.211 250.38 1
10 12 10 604.993 283.869 1
10 12 7 785.845 297.163 1
12 -22 7 465.334 344.105 2
10 -22 -7 430.313 211.24 1
-22 12 -7 611.548 386.086 1
12 10 -7 297.941 192.795 4
-22 10 7 922.815 351.364 1
-22 10 4 3933.59 942.21 1
10 -22 -4 3265.34 663.507 1
12 -22 4 5486.18 1102.99 2
10 -22 -4 3690.97 573.934 2
12 10 -4 2895.17 672.848 4
10 12 4 3411.17 687.378 1
-22 12 -4 4682.36 1022.31 1
10 12 1 337.152 246.456 1
10 -22 -1 1035.34 415.92 1
12 -22 1 713.748 284.283 2
10 -22 -1 1290.94 470.984 2
12 10 -1 324.826 145.353 4
-22 10 1 1078.99 500.186 1
10 12 1 458.672 335.131 4
-22 12 -1 931.293 504.625 1
12 10 2 2722.56 629.055 1
10 -22 2 3465 800.548 2
12 -22 -2 3500.82 744.44 1
-22 12 2 3196.07 815.678 1
12 -22 -2 3323.9 636.599 2
10 12 -2 2691.45 657.524 4
-22 10 -2 4213.98 935.045 1
-22 12 5 -107.673 354.792 1
12 10 5 113.482 175.468 1
10 12 -5 760.074 368.578 4
10 -22 5 117.927 228.153 2
12 -22 -5 559.112 344.463 1
12 -22 -5 237.152 180.215 2
-22 10 -5 569.408 374.3 1
10 -22 8 744.427 456.544 2
12 10 8 577.499 333.212 1
-22 10 -8 1108.77 552.513 1
12 -22 -8 643.624 274.472 1
-22 12 8 1292.75 563.078 1
10 12 -8 280.946 188.445 4
12 10 8 960.809 447.443 2
10 -22 11 161.922 341.91 2
12 -22 -11 163.119 103.194 1
-22 10 -11 133.257 189.383 1
12 10 11 452.228 245.787 1
12 10 11 175.26 271.791 2
-23 12 -11 247.197 297.324 1
11 -23 -11 61.1597 118.304 1
11 12 11 645.267 304.315 1
11 12 11 696.751 485.816 2
-23 11 8 881.281 569.723 1
12 -23 8 1022.67 662.602 2
11 -23 -8 1209.55 411.828 1
-23 12 -8 198.204 192.373 1
11 12 8 1030.77 443.492 1
12 11 -8 377.942 274.319 4
11 12 8 1307.06 555.429 2
12 -23 5 21.4887 381.374 2
11 -23 -5 669.815 297.153 1
11 12 5 540.276 204.507 1
-23 11 5 279.591 228.288 1
11 -23 -5 500.272 229.962 2
12 11 -5 -28.8572 140.128 4
-23 12 -5 702.054 425.664 1
11 -23 -2 541.248 139.848 1
12 -23 2 415.452 247.14 2
11 -23 -2 210.515 200.832 2
-23 11 2 254.218 416.969 1
11 12 2 -324.643 271.266 4
11 12 2 564.059 293.887 1
12 11 -2 621.821 403.168 4
-23 12 -2 375.71 314.262 1
-23 11 -1 713.354 401.682 1
12 11 1 411.17 398.888 4
11 12 -1 212.593 254.594 4
12 -23 -1 440.202 289.816 1
-23 12 1 427.417 203.803 1
11 -23 1 652.431 256.986 2
12 -23 -1 364.611 261.815 2
12 11 1 494.461 173.029 1
12 -23 -4 661.169 326.343 2
11 -23 4 257.227 194.483 2
12 -23 -4 364.673 193.414 1
12 11 4 393.248 370.214 1
-23 12 4 597.021 544.913 1
-23 11 -4 749.895 425.62 1
11 12 -4 303.395 327.585 4
11 -23 7 -151.051 377.14 2
12 11 7 332.554 273.551 1
12 -23 -7 -65.7339 154.671 1
-23 12 7 129.222 345.717 1
-23 11 -7 372.957 294.073 1
12 11 7 677.634 344.599 2
11 12 -7 -149.695 244.705 4
11 -23 10 556.444 409.628 2
-23 11 -10 -58.9298 431.707 1
12 -23 -10 481.998 276.54 1
12 11 10 -63.2032 198.138 2
12 11 10 212.251 172.019 1
-24 12 0 2076.67 649.383 1
12 -24 0 2104.24 549.09 2
12 12 0 948.106 314.17 4
12 12 3 104.814 138.963 1
12 -24 -3 918.044 434.192 1
12 -24 3 1022.72 620.555 2
-24 12 -3 94.5231 235.121 1
12 -24 -3 144.645 138.23 2
12 12 -3 415.165 325.736 4
-24 12 3 226.066 339.861 1
-24 12 6 -183.952 317.68 1
12 -24 6 238.977 413.43 2
12 -24 -6 -77.6948 213.422 1
12 12 -6 289.995 198.495 4
-24 12 -6 740.014 480.596 1
12 -24 -6 73.4796 100.734 2
12 12 6 527.69 355.917 1
12 -24 9 -310.47 363.539 2
12 12 9 294.335 136.513 1
-24 12 -9 -13.9336 316.023 1
12 -24 -9 544.693 286.336 1
-24 12 9 314.975 572.6 1
12 12 9 -120.129 315.337 2
-6 -7 -14 558.654 213.786 3
-6 13 14 549.99 315.117 3
-7 13 -14 688.126 337.539 1
-7 13 -14 285.986 133.365 3
-6 -7 -14 194.637 144.397 1
-6 13 11 1903.09 522.224 3
-6 -7 -11 1444.53 446.462 2
-6 -7 -11 948.748 276.618 1
13 -7 11 2201.77 743.407 2
-7 -6 11 1277.75 449.863 4
-7 13 -11 1418.72 492.416 1
-6 -7 -11 1015.78 306.27 3
-7 13 -11 995.685 294.068 3
-6 13 8 1926.95 530.29 3
-6 -7 -8 1361.99 310.564 1
-6 -7 -8 1535.6 475.021 2
-7 13 -8 2361.01 664.671 1
13 -6 -8 1890.09 536.666 1
13 -7 8 1778.53 631.595 2
13 -7 8 1340.55 506.786 1
-6 13 8 1959.72 685.286 4
-7 -6 8 1346.13 408.351 4
-6 -7 -8 1466.91 433.09 3
-7 13 -8 1389.41 412.719 3
-6 -7 -5 10182.5 731.039 1
-6 13 5 9940.55 615.637 2
13 -7 5 13457.5 1624.83 2
-6 -7 -5 11006 1025.87 2
-6 13 5 11708.9 857.447 1
13 -6 -5 11960.6 1195.33 1
-7 -6 5 10756 1145.57 4
-6 13 5 11066.5 1248.46 4
-7 13 -5 11650.1 1267.54 1
-6 -7 -5 11922.4 1142.89 3
-7 13 -5 10128.7 1061.22 3
-6 13 5 12172 1276.43 3
13 -7 5 13491.6 1535.01 1
13 -6 -5 8996.82 574.113 4
-6 13 2 3502.49 532.544 1
-6 13 2 4118.38 710.315 3
-7 13 -2 3076.35 603.296 3
-6 13 2 3773.43 456.563 2
13 -7 2 4398.46 764.728 1
-7 13 -2 4205.69 731.889 1
13 -6 -2 4423.9 736.283 2
13 -7 2 4538.81 817.819 2
-6 13 2 3493.38 641.086 4
-6 -7 -2 3356.06 527.067 2
13 -6 -2 4264.34 697.65 1
-6 13 -1 1501.67 430.383 3
-7 13 1 1489.81 398.754 3
-7 13 1 1208.34 281.853 2
13 -7 -1 2201.54 532.209 1
13 -6 1 1844.91 502.762 2
-6 13 -1 1700.29 451.165 1
13 -7 -1 1824.86 428.98 2
-7 13 1 948.929 264.905 1
-7 13 1 1107.47 312.911 4
-7 -6 -1 1636.63 369.014 2
13 -6 1 2179.5 542.377 1
-6 13 -4 829.597 274.205 3
13 -7 -4 252.101 154.413 1
-6 13 -4 385.929 265.505 1
-7 13 4 785.769 252.442 1
-7 13 4 656.331 167.508 2
13 -6 4 569.157 301.621 2
-7 -6 -4 386.554 144.951 1
-7 -6 -4 721.44 287.689 2
-7 13 4 346.074 193.241 4
-6 -7 4 375.338 253.551 4
13 -6 4 631.577 346.501 1
-7 -6 -7 7676.13 954.434 2
13 -6 7 9369.21 1394.72 2
-7 13 7 7030.64 612.712 2
-6 13 -7 8017.97 1035 1
-7 -6 -7 7429.08 716.295 1
-6 -7 7 8032.15 972.311 4
13 -7 -7 7269.16 949.314 1
-7 13 7 7275.95 683.643 1
-6 13 -7 7513.75 899.566 3
-7 13 7 7053.48 1054.32 4
13 -6 7 9139.11 1293.88 1
13 -7 -10 933.354 325.443 1
-7 -6 -10 1349.7 450.49 2
-6 13 -10 637.121 317.383 1
13 -6 10 1010.63 375.137 2
13 -6 10 1345.29 531.372 1
-7 -6 -10 698.539 196.161 1
-7 13 10 1389.16 425.796 4
-6 -7 10 974.368 437.804 4
-7 -6 -10 696.796 225.067 3
-6 13 -10 1399.68 357.351 3
-7 -6 -13 1308.13 326.084 1
-7 13 13 2102.03 597.304 3
-6 13 -13 2384.68 698.421 1
13 -6 13 2187.2 772.745 2
-6 13 -13 1329.85 362.203 3
-7 -6 -13 1856.88 379.52 3
-7 -6 -16 205.797 195.722 1
-7 -6 -16 37.2217 111.105 3
-7 13 16 -88.0987 205.955 3
-6 13 -16 -194.561 371.403 1
13 -6 16 -475.026 689.286 2
-6 -7 16 168.551 241.205 3
-5 13 15 238.714 148.62 3
-8 13 -15 212.51 202.037 1
13 -8 15 421.863 542.484 2
-8 13 -15 399.742 212.367 3
-5 -8 -15 220.738 156.872 1
-5 -8 -12 875.808 251.893 1
-8 13 -12 863.035 368.896 1
-5 13 12 813.668 300.802 3
-8 -5 12 1444.26 449.118 4
-8 13 -12 411.063 155.315 3
-5 -8 -12 357.724 214.943 3
-8 -5 9 1709.69 394.176 4
-5 -8 -9 1802.95 317.028 1
-5 13 9 1640.62 399.914 3
13 -5 -9 1589.87 488.271 1
-5 -8 -9 1680.26 416.449 3
-5 -8 -9 2143.26 508.47 2
-8 13 -9 1339.17 468.558 1
13 -8 9 1443.36 537.291 2
13 -8 9 1909.32 628.526 1
-8 13 -9 1509.07 392.629 3
-5 13 9 809.773 180.345 4
-5 13 6 962.884 333.092 3
-8 13 -6 978.284 347.548 3
13 -5 -6 1015.33 348.344 1
-8 13 -6 1446.34 449.786 1
-5 -8 -6 964.345 282.822 2
13 -8 6 566.794 307.839 2
-5 -8 -6 1092.2 340.361 3
13 -8 6 1504.27 534.006 1
-5 13 6 1180.03 451.921 4
-5 13 6 1436.86 267.702 1
-8 -5 6 762.283 255.725 4
-8 13 -3 1171.54 391.098 3
13 -8 3 1508.55 485.658 1
-8 13 -3 1425.93 431.662 2
-5 13 3 1599.06 455.998 3
13 -5 -3 1428.76 404.743 1
-8 13 -3 1540.22 480.68 1
13 -8 3 1466.34 504.737 2
-5 -8 -3 1880.19 386.178 2
-5 13 3 926.123 273.599 1
-5 -8 -3 1259.84 390.682 3
-5 13 3 2242.3 537.83 4
-5 13 0 2782.22 573.717 3
-8 13 0 2271.58 461.209 1
13 -8 0 2436.09 558.327 2
-5 13 0 2502.44 502.973 1
-5 13 0 2112.12 459.045 4
13 -5 0 2534.69 541.027 1
-8 13 0 3008.52 506.354 2
-8 -5 0 2548.52 490.156 2
13 -8 0 2967 616.402 1
13 -5 0 2684.03 576.035 2
-8 13 3 4428.7 541.868 2
-8 13 3 3787.14 605.147 4
-8 13 3 4125.36 588.776 1
13 -5 3 4922 841.831 1
-8 -5 -3 3312.66 480.555 1
-8 -5 -3 3749.63 639.933 2
13 -5 3 3816.69 832.774 2
13 -8 -3 4320.16 733.186 2
13 -8 -3 4379.96 716.296 1
-5 13 -3 4033.88 654.783 3
-5 -8 3 4180.44 734.583 4
-5 13 -3 4458.61 748.664 1
-8 13 6 3972.1 497.73 2
-5 13 -6 3601.6 704.498 1
-5 13 -6 3857.24 669.878 3
13 -8 -6 2839.6 575.841 1
-8 -5 -6 3375.99 513.508 1
13 -5 6 3848.93 798.76 1
-8 -5 -6 3110.66 578.109 2
13 -5 6 3291.05 771.848 2
-5 -8 6 3069.15 621.243 4
-8 13 6 3939.45 571.56 1
13 -8 -6 2758.02 356.172 4
-8 13 6 3673.47 699.686 4
13 -8 -9 572.522 283.915 1
-5 13 -9 431.334 184.842 1
-8 -5 -9 829.068 434.629 2
13 -5 9 110.646 359.077 2
13 -5 9 623.561 298.947 1
-8 13 9 115.429 334.818 4
-8 -5 -9 598.854 184.825 1
-5 -8 9 757.407 377.757 4
-5 13 -9 585.447 273.289 3
-8 -5 -12 1158.45 327.495 1
-8 -5 -12 1707.3 550.937 2
-5 13 -12 1232.61 476.287 1
13 -5 12 1175.48 593.476 2
-5 -8 12 1630.6 556.501 3
-5 13 -12 861.263 309.489 3
-8 -5 -12 844.618 260.993 3
-8 -5 -15 315.805 221.671 1
-5 13 -15 366.714 219.368 1
13 -5 15 856.022 598.336 2
-5 -8 15 522.408 255.027 3
-8 -5 -15 262.356 116.098 3
13 -9 16 259.055 314.716 2
-9 13 -16 508.313 499.903 1
-4 13 16 314.713 307.374 3
-4 -9 -16 83.7945 96.8952 1
-9 13 -16 365.823 240.482 3
-4 -9 -13 715.33 250.585 3
-4 -9 -13 752.715 205.675 1
13 -9 13 307.225 437.66 2
-9 13 -13 466.736 164.837 1
-9 13 -13 787.585 272.696 3
-4 13 13 877.472 325.676 3
-9 -4 10 -131.72 236.066 4
-9 13 -10 562.457 237.54 3
13 -9 10 -123.862 445.258 2
-9 13 -10 381.016 200.039 1
-4 13 10 147.679 168.262 3
-4 -9 -10 313.206 122.511 1
-4 -9 -10 654.523 243.454 3
-4 13 7 2925.03 603.343 3
-4 -9 -7 2998.81 487.467 2
-9 13 -7 3355.62 601.781 3
13 -9 7 3668.2 858.39 2
-9 13 -7 3190.18 713.904 1
13 -9 7 4173.18 941.685 1
-4 13 7 2385.21 649.111 4
13 -4 -7 2945.23 573.37 1
-4 13 7 2371.21 275.468 1
-4 -9 -7 3391.52 605.054 3
-9 -4 7 3918.61 595.697 4
-4 13 4 1660.07 473.9 3
-9 13 -4 1495.53 457.972 3
-9 13 -4 2050.28 557.402 2
13 -9 4 1685.55 553.991 2
-9 13 -4 1937.55 589.622 1
-4 13 4 1927.96 560.095 4
-4 -9 -4 1821.49 465.107 3
13 -9 4 2248.12 697.675 1
-4 13 4 2143.57 357.573 1
13 -4 -4 1926.76 431.839 1
-4 -9 -4 2074.08 370.472 2
13 -9 1 4447.64 786.808 1
-9 -4 1 3926.53 686.081 2
13 -4 -1 5057.01 796.102 2
-4 13 1 3487.93 547.679 1
13 -4 -1 5421.27 775.996 1
-4 13 1 3766.33 669.486 3
-9 13 -1 4887.43 777.816 1
-9 13 -1 4333.32 662.047 2
13 -9 1 4296.46 766.622 2
-4 -9 -1 3899.53 726.324 3
-4 13 1 3733.29 618.096 4
13 -4 2 445.757 308.468 2
-9 13 2 609.106 222.277 1
-9 13 2 801.236 304.335 4
-4 13 -2 297.297 226.536 1
-9 13 2 939.952 337.749 2
13 -4 2 711.277 323.458 1
13 -9 -2 713.526 357.111 1
-9 -4 -2 451.623 293.381 2
-4 13 -2 68.9763 157.151 4
-4 -9 2 490.658 278.299 3
13 -9 -2 459.85 333.032 2
-4 -9 2 -13.375 309.592 4
-9 -4 -2 545.224 251.276 1
-4 13 -2 455.691 176.065 3
13 -9 -5 78.1457 174.49 1
-4 13 -5 68.4308 123.773 1
-9 13 5 226.933 141.461 2
-9 13 5 45.0959 119.772 4
13 -9 -5 435.838 131.189 4
-9 -4 -5 111.146 139.241 2
-4 13 -5 262.15 179.03 3
-9 13 5 370.806 206.955 1
-9 -4 -5 36.4424 107.694 1
13 -4 5 234.431 163.565 2
-4 -9 5 236.267 246.55 4
-4 -9 5 10.3065 204.183 3
13 -4 5 40.3131 156.336 1
-4 13 -8 3481.06 702.298 1
-4 13 -8 3247.96 594.45 3
-9 -4 -8 3865.26 578.708 1
-9 13 8 3508.11 532.939 2
-9 -4 -8 3603.72 715.787 2
13 -9 -8 2814.65 606.698 1
13 -4 8 3867.73 886.602 2
13 -4 8 3907.15 826.299 1
-9 13 8 3629.41 742.013 4
-4 -9 8 3988.32 787.304 4
-4 -9 8 3173.14 670.217 3
-9 13 8 3641.4 567.343 1
-4 13 -11 681.492 384.181 1
-9 -4 -11 1286.5 463.099 2
13 -9 -11 391.828 215.616 1
-9 -4 -11 643.399 274.43 1
13 -4 11 715.572 326.232 1
13 -4 11 1420.18 553.179 2
-9 13 11 580.663 286.456 4
-4 -9 11 977.54 468.064 3
-4 13 -11 959.242 338.893 3
-9 -4 -14 392.414 198.077 1
-4 13 -14 -229.054 232.731 1
13 -4 14 433.01 447.247 2
-4 -9 14 333.283 181.804 3
-9 -4 -14 428.857 199.188 3
-3 -10 -14 295.817 160.825 1
-3 13 14 203.809 142.22 2
13 -10 14 -126.398 399.311 2
-10 13 -14 174.552 404.594 1
-10 13 -14 -35.1868 179.597 3
-3 13 14 -84.7558 140.388 3
-3 -10 -11 1091.91 330.741 3
-10 13 -11 645.823 305.575 3
-3 13 11 1161.13 311.823 2
13 -10 11 1259.02 589.165 2
-10 13 -11 1242.1 545.84 1
-10 -3 11 563.668 228.73 4
-3 13 11 1000.13 410.472 3
13 -10 8 16197.8 2030.07 2
-10 13 -8 13881.7 1532.13 1
-3 13 8 15443.3 1433.66 3
-3 -10 -8 15147.3 1320.9 3
-10 -3 8 14668.7 1123.8 4
-3 -10 -8 14756.1 1061.12 2
-10 13 -8 13032.9 1247.61 3
-10 13 -5 1546.85 511.975 2
13 -3 -5 2151.8 507.226 1
13 -10 5 2200.82 692.023 2
-3 -10 -5 2330.37 381.18 2
-10 13 -5 1742.63 557.42 1
-3 13 5 2879.48 712.336 4
13 -10 5 2246.74 649.59 1
-3 -10 -5 2035.78 517.867 3
-3 13 5 2373.41 581.463 3
-3 13 5 2404.09 331.936 1
-10 13 -2 1239.71 370.294 1
-3 13 2 1637.04 327.379 1
13 -3 -2 1154.82 327.571 1
13 -10 2 1692.95 549.388 2
-3 -10 -2 1519.25 422.839 3
-3 13 2 1017.7 417.529 4
13 -10 2 1553.44 491.273 1
-10 13 -2 1630.44 458.64 2
-3 13 2 1220.92 369.388 3
-10 -3 -1 510.239 212.812 2
-10 13 1 1124.67 333.18 1
-3 13 -1 1088.8 348.236 1
13 -10 -1 975.827 411.428 1
-3 -10 1 779.875 301.594 3
-10 13 1 1404.76 378.123 2
13 -3 1 1261.95 376.907 1
-3 13 -1 528.841 193.004 4
13 -3 1 916.531 308.345 2
-3 -10 1 502.866 221.865 4
-10 -3 -1 735.296 265.674 1
-3 13 -1 842.33 275.339 3
13 -10 -1 1336.98 403.313 2
-3 -10 4 3351.01 624.951 4
13 -10 -4 4013.85 666.931 1
13 -3 4 3767.69 724.579 1
13 -10 -4 3814.69 544.836 4
-10 -3 -4 2938.16 630.122 2
-10 13 4 3236.08 518.469 2
-10 13 4 3627.95 599.118 1
13 -3 4 3642.29 749.802 2
-10 13 4 2712.71 501.56 4
-3 13 -4 3750.62 652.481 3
-3 -10 4 3426.71 629.609 3
13 -10 -4 3535.5 639.705 2
-10 -3 -4 3188.63 535.751 1
-3 13 -4 4571.61 718.09 1
-3 13 -7 281.709 146.069 1
13 -10 -7 626.399 303.954 1
-10 -3 -7 960.66 404.796 2
-10 13 7 763.845 279.892 2
13 -3 7 374.584 310.873 1
13 -3 7 247.686 185.951 2
-3 -10 7 711.827 346.573 4
-10 13 7 523.388 292.594 4
-10 -3 -7 462.686 224.332 1
-3 -10 7 160.913 163.753 3
-3 13 -7 120.297 122.404 3
-10 13 7 735.461 289.978 1
-3 13 -10 1605.5 440.46 1
-10 -3 -10 1503.09 561.141 2
-10 -3 -10 1440.94 395.256 1
13 -10 -10 842.802 342.342 1
13 -3 10 2170.37 732.867 2
13 -3 10 1566.17 476.064 1
-10 13 10 1842.26 598.914 4
-3 -10 10 1895.95 613.289 4
-3 13 -10 1231.1 313.166 3
-3 -10 10 1546.59 489.701 3
-10 -3 -13 -5.27387 165.762 1
-3 13 -13 403.544 238.685 1
13 -3 13 102.449 283.105 2
-10 13 13 48.104 242.381 4
-10 -3 -13 217.963 117.448 3
-3 -10 13 258.665 226.5 3
-3 13 -16 1019.23 543.46 1
13 -3 16 682.128 434.67 2
-10 -3 -16 693.682 210.603 3
-3 -10 16 2061.1 679.457 3
-10 -3 -16 947.596 368.166 1
-2 13 15 218.773 188.332 2
13 -11 15 339.163 460.542 2
-11 13 -15 70.7064 188.561 1
-11 13 -15 317.844 135.971 3
-2 -11 -15 177.593 105.75 1
-2 13 15 261.993 178.589 3
-2 -11 -12 333.944 191.593 3
-11 13 -12 453.395 266.956 3
-2 13 12 443.798 225.293 2
13 -11 12 302.41 389.653 2
-11 13 -12 219.546 297.08 1
-11 -2 12 334.608 168.218 4
-2 13 12 207.521 190.919 3
-2 -11 -9 2198.08 501.549 3
-11 -2 9 2148.52 398.382 4
-11 13 -9 1958.08 485.65 3
-2 13 9 2131.12 303.024 2
13 -11 9 2056.47 801.886 2
-11 13 -9 1942.12 514.669 1
-2 13 9 2515.27 563.462 3
-11 13 -6 6712.34 1054.61 2
-2 -11 -6 5274.91 525.774 2
-2 13 6 5645.11 999.587 4
13 -11 6 5211.28 1065.34 2
-2 13 6 4921.52 770.127 3
13 -11 6 5092.94 1015.21 1
-2 -11 -6 5056.6 765.295 3
-11 13 -6 6201.46 1015.14 1
13 -2 -6 3702.48 668.84 1
13 -11 3 2368.16 676.04 1
-2 -11 -3 2257.24 364.154 2
-11 13 -3 2823 646.446 2
-2 13 3 1998.57 333.488 1
13 -2 -3 1902.38 476.257 1
-11 13 -3 2460.97 688.463 1
-2 13 3 1986.74 547.644 4
13 -11 3 2893.62 730.888 2
-2 13 3 2143.23 525.366 3
-2 -11 -3 2693.94 597.32 3
13 -11 0 3667.82 758.622 1
13 -2 0 2591.94 545.479 1
-11 -2 0 3625.61 590.438 1
-11 13 0 3578.18 772.381 1
-11 13 0 3152.71 671.808 2
-2 13 0 3250.77 563.176 1
-2 -11 0 3354.12 839.057 4
-2 13 0 3330.41 656.748 4
-2 -11 0 2880.31 637.146 3
-11 -2 0 3297.45 664.287 2
13 -2 0 2759.94 593.034 2
13 -11 0 2450.53 606.861 2
-2 13 0 2849.02 623.852 3
-2 13 -3 1736.24 428.967 1
13 -2 3 1531.16 451.66 2
13 -11 -3 1818.47 502.416 1
13 -2 3 2258.44 515.546 1
-2 -11 3 2227.9 556.122 3
-11 13 3 1787.98 425.231 2
-11 13 3 1568.59 396.169 1
13 -11 -3 1725.5 442.053 2
-11 -2 -3 2107.7 535.434 2
-11 -2 -3 1499.83 368.943 1
-2 -11 3 1719.67 525.82 4
13 -11 -3 2097.3 489.352 4
-2 13 -3 1025.99 336.208 4
-2 13 -3 1651.16 418.183 3
-2 13 -6 746.27 315.907 1
-11 13 6 607.356 277.595 4
-11 -2 -6 736.961 294.822 2
-11 13 6 808.748 321.932 1
-2 -11 6 936.737 345.252 3
13 -2 6 1242 537.428 2
-11 13 6 678.983 270.505 2
13 -11 -6 1124.25 353.402 4
13 -11 -6 922.446 376.653 1
-2 -11 6 1634.69 552.511 4
-2 13 -6 384.269 209.657 3
-11 -2 -6 808.846 297.332 1
13 -2 6 934.015 419.247 1
-11 -2 -9 404.928 282.721 2
13 -11 -9 529.902 301.597 1
-11 13 9 78.9327 114.422 1
-11 13 9 335.352 219.116 4
-11 -2 -9 4.88996 144.414 1
13 -2 9 557.499 377.162 2
13 -2 9 114.052 235.27 1
-11 13 9 95.9887 181.749 2
-2 13 -9 537.405 308.424 1
-2 13 -9 346.648 155.23 3
-2 -11 9 438.337 371.997 3
-11 -2 -12 569.009 294.576 1
13 -2 12 527.427 370.31 1
13 -2 12 966.35 434.136 2
-11 13 12 1148.91 495.935 4
-2 13 -12 478.119 314.861 1
13 -11 -12 272.163 94.9925 1
-2 -11 12 1014.34 394.963 3
-2 13 -15 668.373 449.675 1
13 -2 15 -236.069 496.082 2
-11 -2 -15 610.354 325.85 1
-11 -2 -15 520.233 232.175 3
-2 -11 15 535.753 448.792 3
-1 13 16 274.547 277.861 2
13 -12 16 1072.38 793.832 2
-12 13 -16 -148.829 412.107 1
-1 13 16 504.329 308.896 3
-1 -12 -16 164.089 91.2908 1
-12 13 -16 340.798 222.362 3
-12 13 -13 64.5674 184.304 3
-1 13 13 256.791 143.477 2
13 -12 13 -582.715 835.843 2
-12 -1 13 161.574 101.807 4
-12 13 -13 146.401 240.736 1
-1 13 13 94.5173 160.587 3
-1 13 10 4853.22 547.351 2
-12 13 -10 4015.78 680.657 3
13 -12 10 6690.59 1428.15 2
-1 -12 -10 4868.95 766.395 3
-12 13 -10 4798.58 968.493 1
-12 -1 10 3546.14 486.696 4
-1 13 10 3931.34 703.797 3
-1 -12 -7 2020.47 474.366 3
13 -12 7 2016.83 707.557 2
-12 13 -7 2886.79 722.986 1
-1 13 7 2199.49 486.904 3
-12 13 -4 5310.27 969.12 2
-1 -12 -4 4259.19 439.279 2
-1 13 4 4578.08 868.631 4
13 -12 4 4830.23 956.631 2
13 -1 -4 3046.66 597.322 1
13 -12 4 5314.2 991.738 1
-1 13 4 4070.07 443.919 1
-12 13 -4 5332.26 933.684 1
-1 13 4 4422.28 721.236 3
-1 -12 -4 4355.16 718.237 3
13 -1 -1 446.818 191.679 1
-1 -12 -1 76.0148 249.9 4
13 -1 -1 -171.264 170.636 2
-12 13 -1 79.9626 215.577 2
-12 -1 1 1.03992 173.606 1
13 -12 1 81.9591 178.38 2
-1 13 1 317.249 208.868 4
-12 13 -1 24.4037 143.524 1
-1 13 1 -9.658 121.49 1
-12 -1 1 289.12 254.94 2
13 -12 1 47.3736 129.535 1
-1 13 1 367.512 164.749 3
-1 -12 -1 113.053 209.886 3
-12 -1 -2 1302.66 380.097 1
-1 13 -2 1313.06 372.735 1
13 -12 -2 1692.85 492.619 1
13 -12 -2 1383.08 424.742 2
-12 13 2 1194.81 425.829 1
-12 13 2 1456.46 367.367 2
-1 -12 2 1147.39 409.579 4
13 -1 2 820.285 320.144 1
13 -1 2 1470.55 477.619 2
-1 13 -2 1334.37 409.105 4
13 -12 -2 1583.28 510.743 4
-1 13 -2 1235.99 374.978 3
-1 -12 2 2042.77 582.007 3
-12 -1 -2 1236.35 433.27 2
-1 13 -5 386.805 160.721 1
-12 -1 -5 304.26 226.984 1
-12 13 5 185.441 169.779 1
13 -1 5 690.469 392.06 1
-12 -1 -5 508.996 181.85 2
13 -12 -5 537.736 297.93 1
-1 -12 5 1375.36 650.265 4
13 -12 -5 575.891 249.238 4
-12 13 5 621.892 253.842 4
13 -1 5 174.403 319.019 2
-1 13 -5 342.086 156.259 3
-12 13 5 519.929 244.315 2
-1 -12 5 657.508 388.377 3
13 -12 -8 2484.1 554.041 1
-1 13 -8 1687.88 472.043 1
-12 13 8 1945.66 472.79 4
-12 -1 -8 2234.5 682.117 2
13 -1 8 3037.9 821.958 2
-12 -1 -8 1720.35 471.806 1
13 -1 8 3060.64 692.47 1
-12 13 8 2326.33 554.047 1
-1 -12 8 2263.18 660.182 4
-12 13 8 2305.8 511.494 2
-1 -12 8 2579.67 660.923 3
-1 13 -8 1936 506.647 3
-12 13 11 1004.46 367.722 4
-1 13 -11 1518.26 477.678 1
13 -12 -11 1369.26 438.762 1
-12 -1 -11 2078.81 546.506 1
13 -1 11 904.125 453.167 2
13 -1 11 1443.86 475.905 1
-1 13 -14 757.86 386.515 1
-12 -1 -14 1865.53 549.068 1
13 -1 14 2066.22 768.845 2
-12 13 14 672.345 438.358 4
-13 13 -14 162.809 174.959 3
13 -13 14 473.27 583.54 2
0 13 14 178.389 168.27 2
0 13 14 -42.2547 168.776 3
-13 13 -14 -61.0858 371.7 1
-13 0 14 227.21 145.501 4
0 13 11 3446.42 506.11 2
13 -13 11 4414.82 1212.67 2
-13 13 -11 3591.8 831.021 1
-13 0 11 2840.12 388.605 4
0 13 11 3093.97 649.212 3
0 -13 -8 1742.54 490.17 3
13 -13 8 1711.39 739.939 2
-13 13 -8 1768.51 562.537 1
0 13 8 1601.61 425.447 3
13 0 -5 2392.4 592.353 1
-13 13 -5 1837.74 639.426 2
0 -13 -5 1375.57 463.666 3
13 -13 5 835.692 408.407 2
13 -13 5 731.786 498.88 1
13 0 -5 2893.33 399.901 4
0 13 5 2587.97 733.631 4
-13 13 -5 1628.57 576.345 1
0 13 5 2080.87 519.364 3
0 13 5 2046.36 287.85 1
13 0 -2 11211.3 1194.33 1
-13 13 -2 13051.1 1456.06 2
-13 0 2 12266.6 1257.05 1
13 -13 2 12387.7 1454.41 2
0 -13 -2 10499.4 1436.02 4
-13 0 2 11525.4 1350.35 2
0 13 2 9988.39 829.287 1
0 13 2 13966.5 1471.77 4
0 13 2 11709.4 1205.97 3
0 -13 -2 10857.6 1219.66 3
13 -13 2 10968.7 1371.23 1
-13 13 -2 12441.1 1435.45 1
13 0 1 2658.58 538.041 1
-13 0 -1 2877 613.125 1
0 13 -1 3126.5 630.55 4
-13 13 1 3179.98 651.494 1
-13 13 1 3261.65 638.283 2
13 -13 -1 2857.78 620.103 2
0 -13 1 3040.77 703.301 4
-13 0 -1 2633.04 636.278 2
13 0 1 3317.21 703.056 2
13 -13 -1 3477.78 677.368 1
0 13 -1 2563.7 592.72 3
0 -13 1 3256.91 680.611 3
13 -13 -4 4884.96 798.868 4
-13 0 -4 3754.48 714.01 1
13 -13 -4 3857.08 726.104 1
13 0 4 3660.29 728.675 1
13 0 4 4220.66 892.126 2
-13 0 -4 3757.88 779.53 2
-13 13 4 3391.18 632.784 2
0 -13 4 4368.5 961.856 4
13 -13 -4 3674.21 657.43 2
0 13 -4 3511.05 648.368 3
0 13 -4 2332.47 499.059 4
0 -13 4 3971.52 789.693 3
-13 13 4 3193.08 621.416 1
-13 13 7 533.929 254.529 1
-13 13 7 395.17 181.15 2
-13 0 -7 764.451 433.375 2
13 0 7 266.226 351.707 2
-13 13 7 541.852 262.715 4
0 -13 7 678.019 383.985 3
0 -13 7 892.26 524.385 4
-13 0 -7 -77.3068 204.561 1
13 -13 -7 119.875 216.093 1
13 0 7 601.692 271.618 1
13 -13 -7 125.083 113.475 4
-13 0 -10 6991.24 967.665 1
13 0 10 8832.48 1411.78 2
13 -13 -10 6145.58 911.178 1
-13 13 10 6588.67 904.507 4
0 -13 10 8544.35 1347.15 4
13 0 10 9013.73 1247.45 1
0 -13 10 8399.94 1233.27 3
-13 0 -13 6081.71 971.053 1
0 13 -13 4551.23 902.719 1
13 0 13 7303.8 1397.28 2
13 -13 -13 5801.39 914.559 1
-13 13 13 6816 1097.64 4
0 -13 13 7397.31 1273.61 3
13 0 13 7003.06 1169.88 1
0 -13 16 1506.23 624.027 3
-13 13 16 911.192 543.375 4
13 0 16 1111.69 672.089 2
-14 13 -15 213.972 158.882 3
13 -14 15 -274.535 715.643 2
-14 1 15 95.0881 110.88 4
1 13 15 342.926 223.718 2
-14 13 -15 564.979 427.82 1
13 -14 12 -482.503 377.095 2
1 13 12 535.758 209.924 2
-14 13 -12 277.498 375.984 1
1 13 12 304.629 291.119 3
1 13 9 5930.76 611.898 2
13 -14 9 6551.01 1273.87 2
1 13 9 6100.08 937.848 3
1 -14 -9 7305.81 1013.98 3
-14 13 -9 6326.72 1159.86 1
1 -14 -6 997.161 348.044 3
13 1 -6 927.757 219.525 4
-14 13 -6 1410.61 443.815 1
1 13 6 1169.26 377.666 3
1 -14 -3 461.778 219.305 3
-14 13 -3 921.966 463.997 1
-14 13 -3 700.425 353.19 2
-14 1 3 1261.45 400.331 1
1 13 3 902.252 289.062 4
13 -14 3 502.303 213.471 2
13 1 -3 538.641 270.666 1
13 -14 3 630.226 320.86 1
1 13 3 775.391 297.625 3
-14 1 3 1105.43 468.022 2
1 13 0 488.319 328.251 4
-14 13 0 345.174 238.629 1
-14 1 0 327.006 139.414 1
-14 13 0 658.08 302.685 2
13 1 0 801.316 322.612 1
1 -14 0 1127.97 500.053 4
13 -14 0 769.839 356.221 2
13 -14 0 654.739 288.538 1
1 13 0 402.617 188.788 3
-14 1 0 711.945 323.647 2
1 -14 0 410.562 207.375 3
13 1 0 290.885 182.631 2
-14 1 -3 6715.71 1064.72 2
-14 13 3 5836.22 848.764 2
13 -14 -3 6961.26 931.943 2
13 1 3 5308.6 899.906 2
13 1 3 5779.13 868.889 1
-14 13 3 6304.07 889.218 1
1 -14 3 6960.3 1036.77 3
1 13 -3 5485.97 822.096 3
1 13 -3 5910.99 830.888 4
-14 1 -3 6101.96 910.403 1
13 -14 -3 8794.72 1143.93 4
1 -14 3 7783.3 1237.06 4
13 -14 -3 7288.86 964.258 1
-14 1 -6 683.602 344.427 1
13 1 6 415.315 356.422 1
-14 13 6 461.627 371.821 1
13 -14 -6 720.204 320.465 1
-14 1 -6 995.786 474.452 2
1 -14 6 105.112 253.126 4
13 -14 -6 429.839 308.132 4
-14 13 6 124.256 198.98 2
13 1 6 477.587 229.706 2
1 -14 6 -409.152 256.724 3
-14 1 -9 1329.16 521.361 1
-14 13 9 278.117 156.398 4
13 1 9 1179.45 509.871 2
-14 13 9 650.111 363.952 1
13 -14 -9 770.379 322.181 1
-14 13 9 411.177 278.483 2
13 1 9 424.64 306.719 1
1 -14 9 822.295 485.096 3
-14 1 -12 737.079 317.072 1
13 -14 -12 692.506 360.553 1
13 1 12 476.469 177.336 1
13 1 12 1228.04 535.319 2
-14 13 12 638.532 295.332 4
1 -14 12 1485.64 637.951 3
-14 1 -15 1381.44 502.603 1
13 1 15 2112.44 654.189 1
13 1 15 2412.56 773.241 2
13 -14 -15 718.512 296.729 1
-14 13 15 1684.11 514.385 4
1 13 -15 1586.82 557.03 1
1 -14 15 2625.58 759.266 3
13 -15 13 421.771 394.244 2
2 13 13 588.077 293.952 2
-15 13 -13 574.471 418.424 1
13 -15 10 8.74589 328.554 2
2 13 10 113.612 101.204 2
2 13 10 -121.445 124.564 3
2 -15 -7 1464.46 433.48 3
13 -15 7 1684.99 575.405 2
13 2 -7 1052.45 215.565 4
-15 13 -7 1069.31 399.432 1
2 13 7 1429.26 466.698 3
2 -15 -4 1196.47 462.522 3
2 13 4 878.553 311.943 3
13 2 -4 2036.62 414.729 4
-15 13 -4 1861.12 546.426 2
13 2 -4 1352.24 425.107 1
13 -15 4 1604.61 607.309 2
-15 13 -4 1659.79 575.625 1
13 -15 4 1591.33 466.766 1
-15 2 4 1982.87 587.605 1
-15 2 4 1562.41 564.545 2
2 13 4 2444.28 671.644 4
2 -15 -1 3251.76 662.089 3
-15 13 -1 4325.32 878.886 2
-15 2 1 2879.9 674.887 2
-15 13 -1 4150.95 843.105 1
13 -15 1 4039.03 809.915 1
13 -15 1 3759.23 785.439 2
-15 2 1 3256.97 655.237 1
2 -15 -1 2873.41 739.076 4
2 13 1 4921.47 895.761 4
2 13 1 3367.8 681.586 3
13 2 -1 2537.82 585.06 1
2 -15 2 -239.039 408.675 4
2 -15 2 729.912 392.005 3
2 13 -2 196.987 253.857 4
-15 2 -2 532.05 293.721 1
-15 13 2 300.891 224.969 2
-15 13 2 583.73 376.173 1
13 -15 -2 547.025 290.484 2
-15 2 -2 488.462 334.205 2
13 -15 -2 383.674 271.376 4
13 2 2 454.227 288.746 2
13 -15 -2 309.056 208.579 1
13 2 2 -25.4365 154.482 1
2 -15 5 885.335 411.761 3
13 -15 -5 516.341 239.816 1
-15 13 5 964.29 444.407 1
13 2 5 910.418 367.107 1
-15 2 -5 1289.79 493.477 2
-15 13 5 1288.35 455.19 2
13 2 5 325.118 207.398 2
2 13 -5 51.2213 162.334 4
13 -15 -5 705.458 289.222 4
13 -15 -5 932.811 395.574 2
2 -15 5 1295.1 597.428 4
-15 2 -5 651.661 335.353 1
-15 2 -8 3188.48 673.934 1
-15 13 8 2257.88 567.522 1
13 2 8 2887.83 770.106 2
13 -15 -8 2974.12 670.298 1
-15 13 8 1577.92 366.929 4
-15 13 8 2587.97 602.647 2
13 2 8 3131.18 721.718 1
2 -15 8 4129.37 881.764 3
2 -15 11 1260.73 499.518 3
-15 2 -11 1729.76 556.774 1
13 2 11 1196.8 556.867 2
-15 13 11 782.791 282.006 4
13 2 11 1228.29 462.297 1
13 -15 -11 1046.03 412.146 1
2 -15 14 586.627 412.938 3
-15 2 -14 773.982 440.345 1
13 -15 -14 337.768 225.491 1
13 2 14 -86.3903 235.578 2
-15 13 14 -266.746 158.243 4
13 2 14 198.29 220.659 1
13 -16 14 477.019 577.06 2
3 13 14 1078.31 365.594 2
-16 13 -14 552.406 363.816 1
13 -16 11 638.659 377.386 2
-16 13 -11 1081.26 525.87 1
3 13 11 1538.19 385.886 2
13 -16 8 8476.5 1567.03 2
3 13 8 7756.54 754.532 2
-16 13 -8 7531.23 1263.41 1
13 -16 5 15712 1858.11 2
-16 3 5 15073.4 1576.07 1
3 13 5 14713.7 1802.04 4
13 3 -5 13778.9 1070.58 4
3 -16 -5 14463.4 1545.01 3
3 13 5 14360.3 920.036 1
-16 13 -5 16279.8 1754.74 1
3 -16 -2 3474.75 733.207 3
-16 13 -2 5108.6 964.082 1
-16 13 -2 4617.88 907.129 2
13 -16 2 4141 851.279 2
13 -16 2 3627.96 816.028 1
3 -16 -2 3091 830.041 4
3 13 2 5891.92 1014.45 4
-16 3 2 4415.26 871.507 2
-16 3 2 4199.49 849.7 1
13 3 -2 4842.28 853.351 1
3 -16 1 641.984 274.548 3
-16 3 -1 980.833 397.521 2
13 3 1 210.448 186.542 1
-16 13 1 538.141 351.708 2
13 -16 -1 724.621 345.459 2
-16 3 -1 391.475 291.837 1
-16 13 1 1239.33 500.174 1
13 -16 -1 1308.81 438.499 1
3 -16 1 829.833 468.808 4
3 13 -1 1252.67 453.672 4
13 -16 -1 1389.19 578.224 4
13 3 1 1193.5 435.112 2
-16 3 -4 103.916 147.956 1
3 -16 4 825.717 420.917 3
-16 13 4 215.891 153.617 1
-16 3 -4 626.11 403.729 2
-16 13 4 209.251 257.133 2
13 -16 -4 630.475 485.379 4
13 3 4 443.623 202.154 1
13 3 4 269.472 229.801 2
13 -16 -4 378.538 254.368 2
3 13 -4 82.2879 152.099 4
13 -16 -4 92.6451 166.409 1
3 -16 7 9442.24 1342.3 3
13 3 7 8948.78 1305.53 2
13 -16 -7 8424.88 1184.37 4
-16 3 -7 9256.23 1193.69 1
-16 13 7 7318.14 1061.05 2
13 3 7 8920.84 1149.34 1
13 -16 -7 9699.11 1135.44 1
-16 13 7 8605.35 1201.26 1
3 -16 10 794.615 436.129 3
-16 13 10 537.139 203.678 4
-16 3 -10 1036.89 504.734 1
-16 13 10 672.547 287.185 1
13 3 10 894.145 547.693 2
13 3 10 726.406 347.628 1
13 -16 -10 680.033 289.835 1
-16 13 10 127.835 167.385 2
3 -16 13 -282.185 366.524 3
-16 3 -13 392.202 313.604 1
-16 13 13 87.1615 178.077 4
13 3 13 600.224 365.348 1
13 3 13 184.454 275.482 2
13 -16 -13 538.404 352.026 1
13 -17 12 2352.48 803.166 2
4 13 12 1738.02 453.07 2
-17 13 -12 1502.55 585.104 1
4 13 9 -31.6684 209.299 2
13 -17 9 787.647 592.787 2
-17 13 -9 9.96804 330.598 1
-17 13 -6 3231.96 825.107 1
13 -17 6 2327.11 685.866 2
4 -17 -6 2361.16 659.995 3
13 4 -6 1947.82 395.596 4
4 13 6 2653.05 402.687 1
-17 4 3 2377.88 672.253 1
4 -17 -3 2718.22 613.09 3
4 -17 -3 1889.47 320.772 2
-17 13 -3 2670.54 675.339 1
13 -17 3 1731.32 597.321 2
13 4 -3 2353.31 478.624 4
4 13 3 2775.76 712.869 4
-17 13 0 670.708 436.751 1
-17 13 0 547.331 278.753 2
13 -17 0 342.188 317.242 2
13 -17 0 475.571 318.092 1
4 -17 0 684.078 312.967 3
4 13 0 1057.68 461.87 4
13 -17 0 1228.66 649.529 4
-17 4 0 32.1159 187.649 1
13 4 0 515.439 339.354 1
13 4 3 1721.61 447.934 1
-17 13 3 1737.37 501.845 1
-17 4 -3 1801.2 517.696 1
-17 13 3 2225.64 615.906 2
13 -17 -3 2615.45 738.066 4
4 -17 3 1950.25 626.891 3
4 13 -3 972.486 334.401 4
13 4 3 1315.42 456.149 2
13 -17 -3 1975.83 460.203 2
13 -17 -3 2056.52 518.937 1
4 -17 6 789.603 297.284 3
4 13 -6 1564.66 439.263 4
13 4 6 724.446 307.135 1
-17 4 -6 1091.99 468.727 1
13 4 6 655.245 305.499 2
-17 13 6 1012.94 366.779 2
13 -17 -6 844.674 429.057 4
13 -17 -6 1135.57 412.631 1
-17 13 6 973.607 374.758 1
4 -17 9 449.101 308.687 3
13 -17 -9 344.951 251.19 1
-17 4 -9 467.953 394.567 1
-17 13 9 -138.256 308.628 1
13 4 9 -206.527 296.055 2
13 4 9 431.017 249.309 1
4 -17 12 209.283 277.998 3
-17 4 -12 611.795 366.976 1
13 -17 -12 148.015 234.619 1
13 4 12 241.1 162.576 1
13 4 12 -353.434 434.765 2
-17 13 12 155.232 154.413 4
13 -18 13 1425.51 858.718 2
5 13 13 435.046 341.74 2
-18 13 -13 386.067 416.014 1
13 -18 10 100.855 314.31 2
-18 13 -10 792.138 385.88 1
5 13 10 1354.54 437.253 2
-18 13 -7 2238.07 750.425 1
5 13 7 2182.08 379.191 1
13 -18 7 2055.22 719.576 2
13 5 -7 1583.03 344.683 4
5 13 4 5167.19 654.798 1
5 -18 -4 4828.06 955.209 3
5 -18 -4 3418.87 371.543 2
-18 13 -4 5526.19 1051.83 1
-18 5 4 3421.78 794.963 1
13 -18 4 5825.35 1074.67 2
13 5 -4 4430.6 699.81 4
5 13 4 3941.58 947.408 4
5 -18 -1 2034.61 586.766 3
5 -18 -1 2798.24 511.468 2
13 -18 1 3429.43 767.699 2
13 -18 1 2946.18 702.638 1
-18 13 -1 3864.56 868.637 1
13 5 -1 2790.64 637.028 1
-18 5 1 3154.6 785.648 1
5 13 1 3184.7 779.259 4
5 -18 2 1677.14 519.889 3
-18 13 2 1083.93 389.518 1
-18 5 -2 1685.95 596.481 1
13 -18 -2 1395.58 420.509 2
13 5 2 1355.49 342.369 1
13 -18 -2 1189.41 411.443 1
13 -18 -2 1716.84 715.241 4
-18 13 2 1354.06 524.177 2
5 13 -2 524.761 290.891 4
13 -18 -5 4032.71 746.988 2
5 13 -5 2244.88 552.68 4
5 -18 5 5005.57 1027.4 3
13 -18 -5 3915.36 913.434 4
13 5 5 3052.9 741.584 2
13 5 5 3222.03 707.473 1
-18 5 -5 4592.63 922.102 1
13 -18 -5 3954.42 742.021 1
-18 13 5 2548.35 661.528 1
-18 13 5 2694.79 651.715 2
5 -18 8 1561.73 552.204 3
-18 13 8 1310.28 446.901 1
13 -18 -8 1853.01 499.67 1
13 5 8 2000.23 558.421 1
13 5 8 1980.78 637.076 2
-18 5 -8 2252.03 664.819 1
5 -18 11 495.142 570.199 3
-18 5 -11 881.744 509.525 1
13 -18 -11 670.432 361.692 1
13 5 11 1034.32 489.579 2
13 5 11 804.957 402.795 1
5 -18 14 -236.937 328.585 3
13 -18 -14 283.492 289.191 1
13 5 14 252.26 237.096 1
-18 5 -14 332.954 365.117 1
13 5 14 716.55 435.611 2
-18 13 14 345.916 229.922 4
13 -19 11 710.445 552.814 2
6 13 11 745.969 306.569 2
-19 13 -11 427.878 410.029 1
-19 13 -8 1067.55 531.918 1
13 -19 8 1252.67 627.487 2
6 13 8 1269.57 295.876 1
6 -19 -8 1180.37 256.299 1
13 6 -8 685.514 259.342 4
6 13 8 1732.5 509.137 2
6 13 5 374.329 188.132 1
6 -19 -5 373.752 196.187 1
13 6 -5 368.684 222.543 4
-19 13 -5 -10.0578 245.422 1
13 -19 5 -88.3069 394.462 2
-19 6 5 -191.404 304.763 1
6 -19 -2 2756.57 729.952 3
-19 6 2 2789.34 673.761 1
6 -19 -2 3053.3 514.916 2
13 -19 2 3295.54 791.076 2
-19 13 -2 4591.09 1025.77 1
13 6 -2 2382.75 544.767 4
6 -19 -2 1868.17 458.358 1
6 13 2 2085.52 633.241 4
6 -19 1 1824.48 470.814 2
-19 6 -1 1077.63 441.787 1
13 -19 -1 1748.37 473.803 1
13 -19 -1 1444.84 394.056 2
6 13 -1 1099.5 453.952 4
6 -19 1 1187.8 480.338 3
-19 13 1 2017.28 709.907 1
13 6 1 1020.01 371.014 1
13 -19 -4 5727 844.61 2
-19 6 -4 5899.55 1056.81 1
6 -19 4 6418.19 1058.3 2
13 6 4 5037.07 845.738 1
-19 13 4 5170.59 976.453 1
6 13 -4 4248.95 748.988 4
6 -19 4 7120.28 1223.79 3
13 6 4 4264.71 838.291 2
13 -19 -4 5933.89 896.69 1
6 -19 7 -353.746 311.102 3
13 6 7 430.892 240.301 1
-19 13 7 287.944 327.949 1
-19 6 -7 409.202 317.116 1
6 13 -7 143.128 202.396 4
13 6 7 56.5236 149.907 2
13 -19 -7 -47.848 194.133 1
13 -19 -10 498.678 337.702 1
-19 6 -10 731.219 324.108 1
6 -19 10 427.847 268.092 3
-19 13 10 641.21 405.299 1
13 6 10 136.256 208.852 2
13 6 10 154.421 220.774 1
6 -19 13 964.746 545.934 3
-19 6 -13 436.411 361.078 1
13 -19 -13 244.629 212.798 1
13 6 13 335.078 315.965 1
13 6 13 1044.81 458.486 2
13 -20 12 1731.54 887.688 2
7 13 12 2829.2 707.019 2
-20 13 -12 2032.28 779.219 1
7 13 9 256.127 109.999 1
-20 13 -9 -156.091 253.894 1
7 -20 -9 351.273 123.549 1
13 -20 9 159.298 481.199 2
7 13 9 235.082 214.594 2
7 -20 -6 1653.78 383.035 1
-20 7 6 1149.69 433.572 1
7 13 6 1398.33 381.593 1
-20 13 -6 2400.44 712.907 1
13 -20 6 2075.44 750.041 2
13 7 -6 1053.31 335.392 4
7 13 3 5152.24 742.891 1
7 -20 -3 5009.56 593.266 2
-20 7 3 4857.48 971.325 1
13 7 -3 4566.82 788.009 4
13 -20 3 5593.62 1084.67 2
-20 13 -3 5692.06 996.683 1
7 13 3 5026.34 1031.18 4
7 -20 -3 4695.15 737.371 1
7 -20 0 2024.75 562.757 1
7 -20 0 1881.32 563.828 3
7 -20 0 1399.34 411.922 2
13 -20 0 1301.39 452.649 1
13 -20 0 1554.57 509.175 2
13 7 0 1214.14 363.37 1
-20 7 0 2007.3 656.224 1
-20 13 0 1445.5 447.594 1
7 13 0 1729.92 509.235 4
-20 7 -3 988.953 555.662 1
7 -20 3 1089.06 483.365 3
7 -20 3 331.082 244.642 2
-20 13 3 797.311 461.388 1
13 7 3 1021.92 376.359 1
13 -20 -3 810.077 460.475 1
13 -20 -3 517.444 219.289 2
7 13 -3 390.965 207.875 4
13 7 6 1177.44 502.216 1
7 -20 6 1740.59 687.246 3
-20 13 6 750.954 358.601 1
7 -20 6 1199.02 487.851 2
7 13 -6 408.606 248.262 4
13 -20 -6 782.651 362.22 1
-20 7 -6 1155.64 511.848 1
13 7 6 1252.44 514.737 2
13 -20 -6 947.487 372.468 2
7 -20 9 1887.6 671.57 3
7 -20 9 956.22 491.673 2
-20 7 -9 1179.64 482.248 1
13 7 9 1157.1 607.864 2
13 7 9 1020.73 401.063 1
13 -20 -9 777.97 323.531 1
-20 13 9 488.331 313.308 1
7 -20 12 764.632 535.567 3
7 -20 12 564.765 344.953 2
13 -20 -12 641.934 301.66 1
-20 7 -12 1073.16 419.717 1
13 7 12 257.118 250.464 2
13 7 12 939.401 409.226 1
-21 13 -10 265.682 223.514 1
8 -21 -10 419.479 175.932 1
13 -21 10 1110.68 708.654 2
8 13 10 1641.32 626.419 2
8 13 10 755.688 232.749 1
8 -21 -7 417.941 155.922 1
-21 13 -7 590.285 378.723 1
13 -21 7 945.713 554.788 2
13 8 -7 518.517 174.974 4
8 13 7 926.785 290.151 1
-21 8 7 -81.4478 304.534 1
8 -21 -4 2557.28 564.357 1
8 13 4 1906.23 405.929 1
13 -21 4 3000.3 827.619 2
-21 13 -4 4018.88 973.887 1
8 -21 -4 2088.18 381.165 2
-21 8 4 1930.33 722.196 1
13 8 -4 1772.47 493.741 4
13 8 -1 1102.06 383.637 4
-21 13 -1 3241.55 867.49 1
8 -21 -1 1885.52 463.618 2
8 -21 -1 989.038 335.675 1
13 -21 1 1867.05 521.148 2
8 13 1 1504.06 570.208 4
-21 8 1 1758.55 559.953 1
-21 8 -2 2227.93 655.042 1
-21 13 2 2134.91 689.718 1
8 -21 2 4081.9 828.96 2
13 -21 -2 3746.86 800.754 1
13 -21 -2 3145.57 673.278 2
8 13 -2 2034.14 589.083 4
13 8 2 2800.54 680.228 1
8 -21 5 1234.78 577.089 3
-21 8 -5 576.769 385.413 1
8 -21 5 1215.71 513.738 2
13 -21 -5 1103.23 429.479 1
8 13 -5 280.513 165.662 4
13 -21 -5 438.805 234.064 2
-21 13 5 1683.13 610.299 1
13 8 5 1012.75 432.842 2
13 8 5 625.353 309.278 1
8 -21 8 189.314 605.809 3
-21 13 8 -231.375 412.52 1
8 -21 8 530.567 375.314 2
13 8 8 368.561 257.502 1
-21 8 -8 557.995 406.816 1
13 8 8 39.3598 186.109 2
13 -21 -8 385.625 220.279 1
8 -21 11 1016.92 734.805 2
13 -21 -11 552.659 237.004 1
-21 8 -11 703.011 374.88 1
13 8 11 79.9256 227.37 2
13 8 11 622.619 338.132 1
-22 13 -11 177.326 400.123 1
13 -22 11 -370.829 602.969 2
9 -22 -11 226.802 153.016 1
9 13 11 144.807 187.826 2
9 13 11 -20.3785 102.002 1
9 -22 -8 608.281 222.216 1
13 -22 8 65.6883 294.753 2
-22 13 -8 543.437 332.135 1
9 13 8 301.696 205.013 1
13 9 -8 331.279 256.143 4
-22 9 8 4.79442 242.318 1
9 13 8 1239.98 534.66 2
-22 9 5 1308.32 495.155 1
9 -22 -5 2405.05 541.357 1
13 -22 5 2824.36 853.58 2
9 -22 -5 1934.06 354.508 2
-22 13 -5 3536.13 949.964 1
9 13 5 2120.09 500.45 1
13 9 -5 1590.88 471.739 4
9 -22 -2 757.729 294.493 1
-22 13 -2 717.853 456.829 1
-22 9 2 553.824 466.745 1
13 -22 2 654.551 455.105 2
9 -22 -2 598.617 287.72 2
9 13 2 517.566 389.348 4
13 9 -2 517.508 358.653 4
9 13 2 555.866 333.434 1
9 -22 1 6932.21 1066.15 2
-22 13 1 5704.54 1099.1 1
-22 9 -1 6167.44 1135.51 1
13 9 1 3219.49 709.251 1
13 -22 -1 5643.75 994.179 1
9 13 -1 3656.38 848.84 4
13 -22 -1 4828.68 831.803 2
-22 13 4 474.285 316.173 1
9 -22 4 430.332 268.112 2
13 9 4 488.759 239.953 1
13 -22 -4 476.365 369.267 1
13 -22 -4 484.482 256.862 2
-22 9 -4 -131.237 284.628 1
9 13 -4 122.314 173.778 4
-22 13 7 749.251 383.671 1
9 -22 7 1133.69 496.762 2
13 9 7 1229.92 499.823 1
-22 9 -7 855.828 498.677 1
9 13 -7 640.324 303.03 4
13 9 7 1426.46 602.639 2
13 -22 -7 470.712 319.08 1
9 -22 10 47.449 449.682 2
13 9 10 91.0647 316.296 2
-22 9 -10 253.703 370.983 1
13 -22 -10 336.527 185.606 1
-22 13 10 245.17 194.449 1
13 9 10 365.561 308.429 1
10 13 9 1397.21 394.31 1
-23 10 9 1569.59 676.391 1
13 -23 9 1635.21 820.394 2
10 -23 -9 1664.22 405.081 1
-23 13 -9 1041.53 505.981 1
10 13 9 1449.86 559.661 2
-23 10 6 733.553 437.374 1
10 13 6 188.039 175.938 1
10 -23 -6 283.217 178.512 1
13 -23 6 377.897 473.651 2
-23 13 -6 373.188 313.871 1
13 10 -6 81.2182 182.892 4
10 -23 -6 341.053 167.358 2
10 -23 -3 73.498 291.184 1
13 -23 3 -277.153 377.481 2
10 13 3 656.801 369.161 4
10 -23 -3 -1.21975 195.494 2
10 13 3 208.262 257.284 1
-23 10 3 137.385 341.32 1
-23 13 -3 619.58 471.345 1
13 10 -3 586.542 293.179 4
-23 13 0 516.855 380.013 1
10 -23 0 1390.16 405.426 2
-23 10 0 644.47 377.644 1
13 -23 0 1017.84 380.04 2
10 13 0 1322.09 519.664 4
13 10 0 381.898 288.189 4
10 -23 3 1499.23 496.705 2
13 -23 -3 1844.61 587.557 1
-23 13 3 1272.47 658.171 1
13 -23 -3 1741.25 537.274 2
10 13 -3 1422.1 497.06 4
13 10 3 1287.86 472.363 1
-23 10 -3 1673.71 549.34 1
10 -23 6 480.159 340.537 2
-23 13 6 -147.603 310.763 1
13 -23 -6 190.315 214.898 1
-23 10 -6 788.089 421.975 1
13 10 6 666.262 340.068 2
10 13 -6 -99.8076 210.778 4
13 -23 -6 -37.0548 139.938 2
13 10 6 403.29 344.667 1
-23 13 9 -391.978 454.75 1
13 10 9 -61.8061 245.864 1
10 -23 9 322.641 365.901 2
-23 10 -9 292.699 220.686 1
13 10 9 140.83 203.916 2
13 -23 -9 13.0674 113.123 1
11 13 10 117.466 199.826 1
13 -24 10 -92.8646 383.811 2
-24 13 -10 512.398 256.442 1
11 -24 -10 291.928 205.148 1
11 13 10 254.899 330.548 2
11 -24 -7 952.325 341.397 1
13 -24 7 576.932 431.765 2
-24 13 -7 1059.36 574.47 1
-24 11 7 169.587 195.8 1
13 11 -7 908.237 330.372 4
11 13 7 634.424 242.554 1
-24 13 -4 -221.198 203.644 1
-24 11 4 -96.8624 330.897 1
11 -24 -4 20.7318 178.16 1
13 -24 4 41.757 302.218 2
11 -24 -4 -35.2173 218.171 2
13 11 -4 -53.4309 150.796 4
11 13 4 436.689 263.592 1
-24 13 -1 -250.445 495.761 1
13 11 -1 417.256 153.999 4
11 13 1 -54.9704 332.246 4
13 -24 1 223.331 191.86 2
11 -24 -1 235.199 161.332 2
-24 11 1 695.699 510.184 1
-24 11 -2 497.736 318.635 1
11 -24 2 448.346 240.398 2
-24 13 2 181.364 291.871 1
13 -24 -2 121.889 134.705 2
11 13 -2 909.706 373.584 4
11 13 -5 435.923 243.013 4
-24 13 5 794.155 376.597 1
13 11 5 581.772 363.753 1
11 -24 5 622.282 269.91 2
-24 11 -5 939.915 521.336 1
13 -24 -5 726.104 328.952 1
13 -24 -5 1385.45 438.616 2
11 -24 8 1055.76 685.238 2
-24 13 8 135.608 351.343 1
13 11 8 466.009 274.124 1
13 -24 -8 190.478 232.999 1
-24 11 -8 96.0344 426.23 1
11 13 -8 -14.0141 131.218 4
13 11 8 177.798 213.748 2
13 12 -8 -277.897 325.021 4
13 -25 8 539.105 452.95 2
12 -25 -8 -68.225 223.367 1
-25 13 -8 -80.6047 426.392 1
12 13 8 285.466 181.885 1
-25 12 8 541.001 403.152 1
12 -25 -5 829.938 392.171 1
13 -25 5 165.008 353.526 2
-25 12 5 360.722 217.303 1
12 13 5 578.342 365.757 1
12 -25 -5 473.707 259.181 2
-25 13 -5 1005.13 569.664 1
13 12 -5 553.677 248.561 4
13 -25 2 556.595 299.553 2
12 -25 -2 1245.18 404.639 2
13 12 -2 909.937 394.609 4
12 13 2 785.855 423.112 4
-25 12 2 554.752 466.964 1
-25 13 -2 1319.86 524.138 1
-25 12 -1 3646.55 952.147 1
12 13 -1 3070.86 822.402 4
-25 13 1 1738.36 599.9 1
13 12 1 3211.98 896.998 4
12 -25 1 3525.71 882.708 2
13 -25 -1 2988.86 715.796 2
12 -25 4 370.071 414.693 2
13 -25 -4 673.915 383.626 1
13 12 4 356.044 375.174 1
13 -25 -4 257.371 255.172 2
12 13 -4 214.971 251.839 4
-25 12 -4 689.567 419.001 1
-25 13 4 215.334 262.008 1
12 -25 7 373.057 508.539 2
13 -25 -7 176.404 214.247 1
-25 12 -7 456.594 449.22 1
12 13 -7 470.955 352.682 4
13 12 7 468.651 289.668 1
-25 13 7 26.6254 215.776 1
-26 13 0 5943.96 1267.88 1
13 -26 0 5698.08 1013.92 2
13 13 0 4155.55 1035.55 4
13 -26 3 -271.039 396.97 2
13 -26 -3 163.043 155.484 2
13 13 -3 432.052 365.607 4
-26 13 3 187.358 360.984 1
-26 13 -3 498.999 440.879 1
13 13 6 -134.388 145.1 1
13 -26 -6 271.586 263.993 1
13 -26 -6 201.451 125.124 2
13 -26 6 -756.326 409.172 2
-26 13 6 340.957 401.603 1
-26 13 -6 460.997 444.849 1
13 13 -6 130.478 257.626 4
-7 14 0 441.915 187.98 3
-7 14 0 821.551 251.645 2
14 -7 0 451.203 205.602 1
-7 14 0 542.623 230.154 1
14 -7 0 514.34 236.215 2
-7 14 0 228.944 119.986 4
-7 14 -3 66.2033 187.419 3
14 -7 3 277.364 247.17 1
-7 14 3 299.262 165.084 2
-7 14 -3 468.197 309.045 1
-7 14 3 358.209 256.254 1
-7 14 3 294.641 315.981 3
14 -7 -3 437.715 172.183 2
-7 14 3 191.22 232.1 4
-7 -7 -3 429.248 254.282 2
14 -7 -3 186.848 150.435 1
-7 14 6 638.303 301.964 3
-7 14 6 896.3 474.205 4
-7 14 -6 265.752 204.217 1
-7 -7 -6 938.914 361.122 2
-7 -7 -6 599.613 197.468 1
14 -7 6 353.636 158.22 1
14 -7 6 -335.869 396.996 2
-7 14 6 325.663 132.409 2
14 -7 -6 822.458 338.863 1
14 -7 -6 920.442 185.099 4
-7 14 -6 372.476 236.351 3
-7 -7 6 1236.15 394.406 4
-7 14 6 553.965 206.308 1
-7 14 9 3197.27 630.558 3
-7 -7 -9 3584.9 715.788 2
-7 14 -9 3573.66 667.936 1
-7 -7 -9 3629.02 514.977 1
14 -7 9 3305.03 884.699 2
-7 -7 -9 3463.76 617.348 3
-7 14 9 2789.69 697.582 4
-7 -7 9 3305.77 674.083 4
-7 14 -9 3300.42 589.04 3
-7 14 12 92.7614 227.909 3
-7 -7 -12 893.786 382.733 2
-7 14 -12 142.659 146.681 1
-7 -7 -12 76.4025 124.448 1
14 -7 12 -402.508 638.752 2
-7 -7 12 352.533 271.943 4
-7 14 -12 -76.0636 217.568 3
-7 -7 -12 65.004 117.896 3
-7 -7 -15 1078.42 312.331 3
-7 14 15 841.36 283.322 3
-7 14 -15 588.571 389.25 1
14 -7 15 947.983 502.709 2
-7 -7 -15 1059.53 341.367 1
-7 14 -15 633.884 283.462 3
-6 14 16 148.538 227.398 3
-8 14 -16 -328.677 388.241 1
14 -8 16 -15.0572 315.301 2
-8 14 -16 28.119 131.932 3
-6 -8 -16 136.704 145.067 1
-6 14 13 96.3844 179.153 3
-6 -8 -13 596.465 202.866 1
-8 14 -13 623.777 425.403 1
-8 -6 13 971.587 448.736 4
14 -8 13 609.486 491.764 2
-8 14 -13 118.804 196.537 3
-6 -8 -13 420.046 228.654 3
-6 14 10 460.459 228.651 3
-6 -8 -10 512.091 271.178 2
-8 14 -10 368.613 283.209 1
-8 14 -10 558.235 242.517 3
14 -8 10 568.198 258.598 2
-6 14 10 319.182 186.345 4
-6 -8 -10 422.812 180.772 1
-8 -6 10 181.486 133.277 4
-6 -8 -10 168.85 167.772 3
-8 14 -7 962.144 337.746 3
-6 14 7 886.322 290.992 3
-6 14 7 470.495 345.759 4
-8 14 -7 723.681 311.903 1
-6 -8 -7 742.183 274.232 2
-6 14 7 1437.08 304.126 1
14 -8 7 502.975 340.004 2
-6 -8 -7 866.977 249.306 1
-6 14 7 717.581 177.121 2
-8 -6 7 496.061 233.12 4
14 -8 7 541.661 240.58 1
14 -6 -7 730.457 279.957 1
-6 -8 -7 913.982 320.299 3
-8 14 -4 2460.16 566.245 3
-6 14 4 2154.7 300.597 2
-6 14 4 3048.4 716.97 4
14 -6 -4 3063.02 583.805 1
-8 14 -4 3209.97 718.935 1
14 -8 4 2817.11 784.585 2
-6 -8 -4 2632.46 525.815 2
-6 14 4 2287.73 615.272 3
-6 -8 -4 2842.25 633.95 3
14 -8 4 2804.91 729.772 1
-6 14 4 2763.39 483.159 1
-8 14 -1 1072.92 388.546 3
-8 14 -1 1418.36 385.528 2
14 -8 1 997.726 364.748 1
-6 14 1 1002.34 292.109 1
14 -8 1 1417.03 461.267 2
-8 14 -1 1129.27 374.882 1
14 -6 -1 1006.41 290.724 2
14 -6 -1 1412.91 436.685 1
-6 -8 -1 1613.42 391.477 2
-6 14 1 817.867 287.952 3
-6 14 1 377.152 193.535 4
-6 14 -2 1708.69 441.539 3
14 -8 -2 1668.17 492.124 1
-8 14 2 2012.37 503.899 3
14 -6 2 2820.58 736.242 2
14 -6 2 1961.36 552.716 1
-8 14 2 1855.79 389.693 2
-6 14 -2 1913.26 519.441 1
-8 -6 -2 1975.54 446.227 2
-8 14 2 1925.08 471.101 4
14 -8 -2 1404.16 447.049 2
-8 14 2 1756.83 411.232 1
14 -8 -5 589.089 218.876 1
-6 14 -5 855.339 358.715 1
-8 14 5 955.005 255.934 2
-8 -6 -5 793.165 306.598 2
-8 -6 -5 737.64 236.251 1
14 -6 5 1121.55 505.802 2
-8 14 5 1097.3 437.015 4
-8 14 5 1025.81 304.35 1
14 -8 -5 868.218 203.833 4
14 -6 5 1135.31 488.214 1
-6 -8 5 623.619 236.98 4
-6 14 -5 651.595 294.816 3
-8 14 8 1965.89 364.424 2
-8 -6 -8 1623.27 353.908 1
-6 14 -8 812.134 322.202 1
-8 -6 -8 1439.96 441.992 2
-6 -8 8 1782.94 500.301 4
14 -6 8 1243.25 539.919 2
-8 14 8 1533.69 325.303 1
14 -6 8 1372.82 441.477 1
-8 14 8 1553.09 475.827 4
14 -8 -8 658.575 279.317 1
-6 14 -8 1765.34 432.302 3
-8 -6 -11 3614.42 767.993 2
-6 14 -11 3589.87 756.232 1
14 -6 11 4723.86 1135.68 2
-6 14 -11 2729.89 517.468 3
-8 -6 -11 2967.77 497.411 1
-8 14 11 3664.78 864.836 4
-6 -8 11 3945.34 861.266 4
-8 -6 -11 3282.91 564.891 3
-8 14 14 887.682 333.821 3
-8 -6 -14 825.922 244.348 1
-6 14 -14 663.46 387.147 1
14 -6 14 1489.87 711.923 2
-6 -8 14 459.53 352.136 3
-6 14 -14 717.076 263.95 3
-8 -6 -14 836.774 281.953 3
-5 -9 -14 580.281 262.961 3
-5 -9 -14 73.233 104.428 1
-5 14 14 -603.363 381.674 3
-9 14 -14 -371.144 423.607 1
14 -9 14 1.34724 387.902 2
-9 14 -14 -208.883 200.566 3
-5 14 11 2752.44 639.228 3
-5 -9 -11 2312.44 357.232 1
-9 14 -11 2901.19 696.653 1
14 -9 11 4040.95 1147.69 2
-9 -5 11 2709.5 576.282 4
-5 -9 -11 2142.02 474.046 3
-9 14 -11 2166.83 476.368 3
-5 14 8 1993.98 540.366 3
-9 14 -8 2220.94 521.764 3
-5 -9 -8 2079.62 470.376 2
-9 14 -8 2251.92 581.352 1
14 -9 8 2929.17 823.103 2
-5 14 8 2450.81 726.342 4
-9 -5 8 1943.31 436.096 4
-5 -9 -8 1425.91 241.859 1
-5 -9 -8 1827.53 446.134 3
-5 14 5 -63.0166 218.615 3
-9 14 -5 304.528 191.452 3
-5 14 5 548.614 215.726 1
-9 14 -5 523.862 354.657 1
14 -9 5 659.304 345.883 2
-5 -9 -5 549.678 240.181 2
-5 14 5 691.213 373.184 4
14 -5 -5 125.113 109.704 1
14 -9 5 296.706 241.318 1
-5 -9 -5 597.803 267.12 3
-5 14 2 1252.14 389.312 3
14 -9 2 1822.49 527.793 1
14 -5 -2 1659.2 450.305 1
-9 14 -2 1836.42 486.873 3
-9 14 -2 1637.42 462.115 2
-9 14 -2 2164.69 554.986 1
-5 14 2 1508.85 326.359 1
14 -9 2 1659.26 574.183 2
-5 14 2 729.327 328.082 4
-5 -9 -2 1291.21 265.076 2
-5 -9 -2 1582.93 427.6 3
14 -5 -2 1919.86 525.034 2
-9 14 1 6484.81 762.619 2
-5 14 -1 5698.68 828.368 3
14 -9 -1 7297.07 985.272 1
14 -5 1 6148.97 919.468 1
14 -5 1 6497.22 977.314 2
14 -9 -1 6230.39 928.998 2
-9 -5 -1 5833.27 815.342 2
-5 14 -1 4352.81 638.171 4
-5 -9 1 6358.83 890.58 3
-5 14 -1 5873.31 775.79 1
-9 14 1 6210.1 800.19 1
14 -5 4 212.439 255.679 1
-9 14 4 225.016 173.148 4
-5 14 -4 282.727 163.962 1
-9 14 4 170.01 184.263 1
-9 14 4 399.95 186.037 2
-5 -9 4 54.6577 259.171 4
-9 -5 -4 581.14 248.641 2
14 -5 4 409.653 374.768 2
-9 -5 -4 -63.84 98.0255 1
14 -9 -4 -255.595 246.281 4
14 -9 -4 231.504 162.202 1
14 -9 -4 428.691 247.568 2
-5 14 -4 358.518 142.842 3
-5 14 -7 1228.33 384.347 3
-5 14 -7 1465.04 468.373 1
-9 -5 -7 1399.32 367.324 1
-9 14 7 1453.5 320.165 2
14 -9 -7 597.037 286.253 1
-9 -5 -7 1377.6 462.407 2
14 -5 7 1311.45 518.695 2
-5 -9 7 1456.62 464.007 4
-9 14 7 971.534 334.883 4
-9 14 7 1567.17 383.322 1
14 -5 7 2071.25 623.282 1
14 -9 -7 885.534 197.555 4
-5 14 -10 352 273.437 1
-9 -5 -10 308.538 202.069 2
14 -5 10 467.378 232.279 2
-5 -9 10 364.171 307.705 3
14 -5 10 507.786 441.238 1
-9 -5 -10 350.795 251.126 1
-5 -9 10 164.576 301.853 4
-9 14 10 366.621 221.73 4
-5 14 -10 655.699 242.375 3
14 -9 -10 102.624 157.372 1
-9 -5 -13 -122.815 192.221 2
-5 14 -13 -62.8444 278.12 1
-9 -5 -13 149.957 99.2376 1
14 -5 13 931.601 663.406 2
-5 14 -13 181.644 157.283 3
-5 -9 13 -8.83449 273.174 3
-9 -5 -13 5.08987 153.785 3
-9 14 13 -93.3008 370.387 4
-9 -5 -16 142.763 177.779 1
-5 14 -16 -290.167 289.376 1
14 -5 16 -291.744 423.458 2
-5 -9 16 241.927 293.668 3
-9 -5 -16 41.6941 93.4087 3
-4 -10 -15 583.58 214.142 1
-4 14 15 558.294 238.227 2
-10 14 -15 250.679 290.243 1
-10 14 -15 278.537 118.123 3
-4 14 15 686.093 290.544 3
-4 -10 -12 1253.97 365.524 3
-4 14 12 913.186 293.329 2
14 -10 12 1455.5 787.979 2
-10 14 -12 1105.63 484.819 1
-4 -10 -12 408.133 142.728 1
-10 -4 12 764.425 297.494 4
-10 14 -12 712.678 305.026 3
-4 14 12 956.034 347.989 3
-4 14 9 454.462 245.454 3
-10 14 -9 250.271 149.288 3
-4 14 9 232.478 115.553 2
-4 14 9 -368.499 452.782 4
-4 -10 -9 632.344 256.638 2
14 -10 9 1057.05 629.127 2
-10 14 -9 433.764 303.47 1
-10 -4 9 360.897 133.103 4
-4 -10 -9 308.502 134.167 3
-10 14 -6 1113.63 424.653 3
-10 14 -6 881.009 392.439 2
14 -4 -6 1638.38 494.693 1
-4 -10 -6 1135.55 304.654 2
14 -10 6 2508.57 826.367 2
-4 14 6 1434.08 280.028 1
-10 14 -6 1640.64 533.504 1
14 -10 6 1878.14 637.984 1
-4 14 6 1161.47 531.273 4
-4 14 6 1782.56 532.891 3
-4 -10 -6 1190.33 406.521 3
-4 14 3 499.722 284.44 3
-10 14 -3 236.169 356.151 2
14 -4 -3 778.204 285.588 1
-4 14 3 541.108 296.634 4
14 -10 3 137.568 294.05 2
-4 14 3 298.502 173.551 1
-4 -10 -3 374.7 154.251 2
-10 14 -3 1057.21 463.297 1
14 -10 3 -173.06 278.233 1
-4 -10 -3 397.254 222.747 3
-10 14 0 1688.35 479.677 1
14 -10 0 1522.49 514.706 1
-4 14 0 2199.98 550.385 3
-4 14 0 1736.05 425.301 1
-10 14 0 1777.09 451.201 2
14 -10 0 2602.79 672.686 2
-4 14 0 1551.83 440.661 4
14 -4 0 2176.33 558.768 2
14 -4 0 1858.33 464.667 1
-10 -4 0 2178.07 528.882 2
-4 -10 0 1990.62 576.936 3
-4 14 -3 1511 373.325 1
-10 -4 -3 1377.07 346.665 1
-4 -10 3 1429.81 472.194 4
14 -4 3 1654.94 498.013 1
-10 14 3 1671.99 411.062 1
-10 14 3 1661.19 365.97 2
14 -10 -3 1433.29 450.505 1
-10 -4 -3 1655.9 459.587 2
14 -4 3 2068.91 594.898 2
-10 14 3 1037.15 325.772 4
14 -10 -3 1458.15 481.107 2
-4 -10 3 1779.33 518.082 3
-4 14 -3 1085.19 344.524 3
14 -10 -6 2436.42 628.826 1
-4 14 -6 2305.51 567.583 1
-10 14 6 2556.77 494.588 1
-10 -4 -6 2461.79 502.17 1
-10 -4 -6 2614.16 593.908 2
-4 -10 6 2512.46 621.341 3
14 -4 6 3173.07 813.63 2
-10 14 6 2307.42 440.868 2
-4 -10 6 2446.93 626.993 4
-10 14 6 2353.23 561.368 4
14 -10 -6 2254.9 412.62 4
14 -4 6 2563.8 658.181 1
-4 14 -6 2405.45 510.738 3
-4 14 -9 1102.17 448.263 1
-10 -4 -9 600.775 332.31 2
14 -4 9 1203.67 559.359 2
-10 14 9 555.186 269.807 4
14 -10 -9 833.16 319.702 1
14 -4 9 1316.18 477.716 1
-4 -10 9 986.435 457.465 4
-10 -4 -9 1239.15 345.792 1
-4 14 -9 685.834 239.379 3
-10 14 9 675.583 240.443 1
-10 14 9 1068.5 276.357 2
-4 -10 9 688.447 301.339 3
-4 14 -12 0.43621 205.866 1
-10 -4 -12 1020.68 393.67 2
-10 -4 -12 514.567 225.173 1
14 -4 12 898.065 405.533 2
-4 14 -12 517.984 280.663 3
-4 -10 12 890.956 528.242 4
-4 -10 12 404.236 325.846 3
-10 14 12 643.013 264.107 4
-10 -4 -15 448.579 264.677 1
-4 14 -15 -268.959 301.391 1
14 -4 15 191.994 439.039 2
-4 -10 15 580.382 278.712 3
-10 -4 -15 267.208 132.566 3
-3 -11 -16 36.7481 95.501 1
-3 14 16 -321.554 331.713 2
14 -11 16 396.348 628.72 2
-11 14 -16 -214.309 327.401 1
-11 14 -16 67.4377 129.468 3
-3 14 16 182.05 134.138 3
-3 -11 -13 486.773 279.455 3
-3 14 13 480.859 250.917 2
14 -11 13 1133.26 570.07 2
-11 14 -13 851.046 461.589 1
-11 -3 13 458.03 231.566 4
-3 14 13 200.856 179.125 3
-11 14 -13 -37.472 162.514 3
-3 -11 -10 270.326 160.207 3
-3 14 10 236.758 117.207 2
14 -11 10 430.714 450.25 2
-11 14 -10 486.699 311.066 1
-11 14 -10 149.722 169.942 3
-11 -3 10 497.948 222.558 4
-3 14 10 -173.857 289.945 3
-3 -11 -7 5024.66 598.263 2
14 -11 7 6279.82 1247.77 2
-3 -11 -7 5197.24 789.5 3
-3 14 7 5314.42 843.673 3
-11 14 -7 5117.95 824.234 3
-3 14 7 4584.02 987.241 4
-11 14 -7 6781.83 1077.32 1
-11 14 -4 758.798 405.019 1
-11 14 -4 301.604 230.599 2
14 -11 4 606.988 342.429 2
-3 14 4 725.883 220.062 1
14 -11 4 650.616 266.049 1
-3 14 4 1123.42 449.091 4
-3 -11 -4 526.995 174.165 2
14 -3 -4 568.333 260.723 1
-3 -11 -4 791.797 311.956 3
-3 14 4 848.971 328.22 3
-3 -11 -1 1518.05 472.148 3
14 -3 -1 767.791 226.953 1
14 -11 1 1128.09 479.281 1
-3 14 1 1050.53 284.161 1
-11 14 -1 1062.93 397.115 2
14 -11 1 1288.5 457.574 2
-3 14 1 451.162 160.075 4
14 -3 -1 669.73 223.655 2
-11 -3 1 669.467 268.949 2
-11 14 -1 856.947 328.579 1
-3 14 1 1263.9 373.253 3
-3 14 -2 334.079 240.172 1
-11 14 2 563.999 274.05 1
14 -11 -2 147.029 256.95 1
-3 -11 2 566.446 267.231 3
-3 14 -2 438.548 226.558 3
-11 14 2 294.027 177.342 2
14 -3 2 209.387 131.748 1
-3 -11 2 114.362 235.518 4
-11 -3 -2 438.613 243.155 2
14 -11 -2 412.696 310.949 2
-3 14 -2 219.235 232.692 4
-11 -3 -2 444.658 199.547 1
14 -3 2 542.277 338.266 2
14 -3 5 1063.49 482.266 1
-3 14 -5 977.32 397.327 1
14 -11 -5 682.053 301.151 1
-11 -3 -5 593.33 204.526 1
-11 -3 -5 693.664 280.366 2
14 -3 5 1817.87 623.622 2
-3 -11 5 1013.46 454.339 4
-11 14 5 576.12 275.509 4
14 -11 -5 980.512 279.574 4
-3 -11 5 826.039 319.1 3
-11 14 5 648.748 228.416 2
-3 14 -5 526.672 202.969 3
-11 14 5 842.38 348.025 1
14 -3 8 1442.81 491.949 1
-3 14 -8 963.219 411.076 1
14 -11 -8 874.95 385.651 1
-11 -3 -8 978.282 431.195 2
-11 14 8 1282.58 355.46 1
-11 14 8 993.117 384.578 4
14 -3 8 1349.08 562.69 2
-3 -11 8 1709.51 668.89 4
-11 -3 -8 1124.61 383.434 1
-11 14 8 1208.58 363.379 2
-3 14 -8 902.012 324.802 3
-3 -11 8 1059.56 549.702 3
-3 14 -11 1184.77 484.09 1
-11 -3 -11 1037.43 479.178 2
-11 -3 -11 1120.89 368.8 1
14 -3 11 835.259 215.498 2
14 -11 -11 1094.53 371.4 1
14 -3 11 1320.06 563.176 1
-11 14 11 958.28 383.538 4
-3 14 -11 948.333 335.98 3
-3 -11 11 2487.28 764.811 3
-3 14 -14 273.95 196.446 1
-11 -3 -14 328.564 207.161 1
14 -3 14 948.746 594.152 2
-11 14 14 802.255 487.402 4
-11 -3 -14 395.491 229.397 3
-3 -11 14 568.138 245.753 3
-2 14 14 137.621 133.825 2
14 -12 14 176.523 302.04 2
-12 14 -14 -166.005 371.573 1
-12 -2 14 55.1562 168.14 4
-2 14 14 271.821 240.35 3
-12 14 -14 -2.9969 132.833 3
-2 -12 -11 700.372 290.771 3
-12 14 -11 599.959 278.158 3
-2 14 11 1064.62 266.151 2
14 -12 11 739.992 473.945 2
-12 14 -11 688.228 502.854 1
-12 -2 11 594.549 176.368 4
-2 14 11 504.542 336.138 3
-2 -12 -8 1081.45 339.615 3
-2 -12 -8 1382.64 294.308 2
-2 14 8 918.157 387.989 4
14 -12 8 918.122 466.086 2
-12 14 -8 1183.55 314.321 1
-2 14 8 1447.82 437.543 3
-12 14 -5 790.734 372.15 2
14 -2 -5 1008.38 395.936 1
14 -12 5 866.977 432.684 2
-2 -12 -5 607.729 192.419 2
14 -12 5 184.535 237.243 1
-2 14 5 765.656 201.857 1
-2 14 5 989.577 463.071 4
-12 14 -5 879.38 430.191 1
-2 14 5 488.23 187.18 3
-2 -12 -5 469.222 181.801 3
-12 14 -2 5776.9 962.126 2
14 -12 2 6048.03 1025.44 2
-2 14 2 4170.94 746.379 3
14 -2 -2 3035.38 632.88 1
-12 -2 2 4304.22 809.283 2
-2 14 2 4881.18 862.591 4
-2 14 2 4695.15 591.376 1
-2 -12 -2 4475.29 763.724 3
14 -12 2 4993.42 922.869 1
-12 14 -2 6438.01 1019.64 1
-12 -2 -1 543.179 299.819 1
14 -2 1 1087.16 435.706 2
-2 14 -1 552.036 253.721 1
14 -12 -1 1054.95 457.912 1
-12 14 1 706.547 333.389 1
-2 14 -1 485.498 292.044 4
-12 14 1 734.082 328.664 2
-2 -12 1 532.345 385.841 4
14 -12 -1 816.239 371.218 2
-12 -2 -1 521.064 277.237 2
14 -2 1 509.398 193.909 1
-2 -12 1 531.475 308.273 3
-2 14 -1 480.526 278.582 3
-2 14 -4 2345.92 548.394 1
14 -2 4 2477.22 641.481 1
-12 14 4 2504.78 505.681 1
14 -12 -4 2609.78 607.076 1
-12 -2 -4 1970.24 552.452 2
-12 14 4 1786.73 371.948 2
-12 -2 -4 1931.15 471.703 1
-2 -12 4 2203.76 569.613 4
14 -12 -4 2673.36 546.732 4
-12 14 4 1714.74 417.482 4
14 -12 -4 2114.18 519.108 2
14 -2 4 2596.13 750.374 2
-2 14 -4 1673.14 441.622 3
-2 -12 4 1760.63 496.51 3
-2 14 -7 455.667 365.648 1
-2 -12 7 1489.75 510.41 3
-12 -2 -7 1413.99 510.682 2
14 -12 -7 1420.62 392.38 4
14 -2 7 1492.59 536.161 2
-12 14 7 1529.45 435.538 2
14 -2 7 1132.97 361.779 1
-2 -12 7 1516.5 620.218 4
-12 14 7 1438.8 458.638 1
-2 14 -7 1133.08 335.092 3
14 -12 -7 1127.37 378.313 1
-12 -2 -7 782.77 352.336 1
-12 14 7 668.937 290.003 4
-2 14 -10 1266.33 475.148 1
-12 -2 -10 956.397 378.253 2
14 -12 -10 1130.39 415.654 1
-12 -2 -10 960.305 369.453 1
14 -2 10 390.727 316.76 2
14 -2 10 923.826 468.087 1
-12 14 10 1292.18 539.445 4
-2 -12 10 1696.49 653.195 4
-2 14 -10 1187.32 355.414 3
-12 14 10 1347.51 417.058 2
-2 -12 10 941.316 540.247 3
-2 14 -13 438.608 306.434 1
-12 -2 -13 624.148 335.796 1
14 -2 13 -144.459 499.878 2
-12 14 13 535.817 470.646 4
-2 -12 13 1322.48 575.038 3
-13 14 -15 282.387 274.159 3
-1 14 15 361.389 274.393 2
14 -13 15 312.605 606.916 2
-13 14 -15 686.22 476.909 1
-1 14 15 598.53 306.576 3
-13 -1 15 189.473 180.143 4
-13 14 -12 377.933 200.427 3
-1 -13 -12 563.303 257.427 3
14 -13 12 713.094 593.374 2
-1 14 12 108.605 121.973 2
-13 14 -12 374.382 337.697 1
-13 -1 12 257.144 128.406 4
-1 14 12 715.921 409.053 3
14 -13 9 6953.5 1397.89 2
-1 14 9 5920.43 922.513 3
-1 -13 -9 6297.96 901.502 3
-13 14 -9 6973.82 1210.61 1
-1 -13 -6 1328.66 426.009 3
-1 14 6 849.79 464.829 4
-13 14 -6 2000.42 596.129 1
14 -1 -6 1014.23 205.773 4
-1 14 6 1446.62 372.967 3
-1 14 3 792.166 207.15 1
-13 14 -3 903.159 347.259 2
14 -13 3 1223.79 525.181 2
-13 14 -3 705.596 381.23 1
14 -13 3 736.123 429.6 1
-1 14 3 577.095 208.947 4
-13 -1 3 919.102 369.356 2
-1 14 3 796.537 229.955 3
-1 -13 -3 443.799 246.88 3
14 -1 -3 844.379 292.946 1
-1 14 0 506.102 193.839 1
14 -1 0 568.674 254.555 1
-13 14 0 913.309 403.694 1
-13 -1 0 864.97 330.093 1
-13 14 0 736.861 332.216 2
14 -13 0 344.339 227.064 2
-1 -13 0 799.723 408.379 4
-1 14 0 560.404 263.281 4
-13 -1 0 739.139 327.319 2
14 -1 0 913.197 397.23 2
-1 14 0 565.373 242.843 3
14 -13 0 919.88 379.019 1
-1 -13 0 173.694 197.857 3
-13 14 3 8134.54 996.098 2
-13 -1 -3 6215.82 1001.47 2
14 -1 3 6954.21 1101.96 2
14 -1 3 6908.41 994.01 1
14 -13 -3 6652.74 955.173 2
-13 14 3 6191.7 884.938 1
-1 14 -3 6153.69 842.779 1
-1 -13 3 6703.34 1122.82 4
14 -13 -3 8242.77 1096.85 4
-1 14 -3 5346.34 806.438 4
-1 14 -3 5754.68 860.427 3
-1 -13 3 7279.15 1050.61 3
-13 -1 -3 6389.49 889.698 1
14 -13 -3 5815.74 915.497 1
-13 -1 -6 287.475 140.34 1
-1 14 -6 457.409 322.172 1
-13 14 6 264.559 216.142 2
14 -1 6 621.888 361.747 1
-13 14 6 352.72 263.005 1
-13 -1 -6 248.566 276.556 2
14 -13 -6 521.842 245.883 1
14 -1 6 -87.2424 287.019 2
14 -13 -6 137.243 131.388 4
-1 -13 6 862.713 459.994 4
-13 14 6 605.85 281.59 4
-1 14 -6 -34.8305 116.615 3
-1 -13 6 129.535 227.035 3
14 -13 -9 1018.84 416.481 1
-1 14 -9 823.603 385.885 1
-13 -1 -9 814.948 396.101 2
-13 14 9 279.842 121.496 4
-13 14 9 -104.202 296.101 1
14 -1 9 538.795 442.658 2
-13 -1 -9 776.147 330.947 1
14 -1 9 1533.81 631.536 1
-13 14 9 84.5333 222.096 2
-13 -1 -12 582.38 262.642 1
14 -13 -12 870.25 307.234 1
14 -1 12 65.9782 304.507 1
14 -1 12 -474.144 544.628 2
-13 14 12 553.593 205.023 4
-1 14 -12 367.832 204.402 1
-1 -13 12 1418.93 601.163 3
-1 14 -15 1342.14 477.033 1
-13 -1 -15 1613.42 522.276 1
-13 14 15 2243.76 811.592 4
14 -1 15 2175.17 864.188 2
-1 -13 15 2430.86 789.386 3
14 -14 13 979.833 630.802 2
-14 14 -13 624.489 261.231 3
0 14 13 1427.97 403.689 2
-14 14 -13 926.631 406.898 1
-14 0 13 621.792 200.4 4
0 14 13 749.534 293.796 3
0 -14 -10 881.774 345.439 3
14 -14 10 1713.06 628.641 2
0 14 10 1290.99 271.063 2
-14 14 -10 1305.66 425.298 1
0 14 10 1054.24 329.292 3
0 -14 -7 819.861 420.206 3
14 -14 7 622.725 434.031 2
0 14 7 116.138 237.481 4
-14 14 -7 565.785 401.989 1
14 0 -7 368.935 128.168 4
0 14 7 984.105 356.073 3
0 -14 -4 3185.26 673.841 3
0 -14 -4 3089 351.591 2
-14 14 -4 3269.94 695.707 2
14 -14 4 4403.85 908.291 2
14 0 -4 1750.77 477.92 1
14 -14 4 3718.93 884.017 1
0 14 4 2790.95 593.275 3
-14 14 -4 3888.14 873.878 1
0 14 4 2997.79 740.442 4
-14 0 4 2507.93 597.017 2
0 14 4 3353.72 420.354 1
0 -14 -1 -23.3344 215.935 4
-14 14 -1 -228.507 237.329 1
-14 14 -1 533.111 335.979 2
14 -14 1 216.711 170.828 2
-14 0 1 418.083 267.227 1
14 0 -1 264.376 169.581 1
-14 0 1 362.489 294.546 2
0 14 1 150.868 111.738 1
14 -14 1 66.5714 179.658 1
0 14 1 617.327 376.201 4
0 -14 -1 115.529 266.038 3
0 14 1 275.352 222.449 3
14 0 2 2431.07 673.027 2
14 -14 -2 2388.5 602.924 1
14 -14 -2 3103.23 725.719 4
0 14 -2 1674.96 424.588 3
-14 0 -2 1911.18 563.383 2
-14 14 2 1791.64 441.73 2
-14 14 2 2174.41 588.136 1
0 -14 2 2092.24 638.809 3
14 -14 -2 2517.84 649.603 2
0 14 -2 2122.63 547.594 4
14 0 2 2028.22 550.503 1
0 -14 2 1833.24 598.167 4
-14 0 -2 2752.57 638.397 1
-14 0 -5 255.447 125.486 1
-14 14 5 239.092 213.937 1
14 0 5 476.476 394.625 2
14 0 5 724.777 382.425 1
14 -14 -5 418.765 266.883 1
-14 0 -5 357.517 308.362 2
-14 14 5 -66.4972 250.816 2
0 -14 5 211.384 266.199 4
0 14 -5 370.621 248.256 3
14 -14 -5 443.633 316.287 4
14 -14 -5 428.876 244.31 2
0 -14 5 51.2755 186.104 3
-14 0 -8 7617.28 1203.93 2
14 0 8 8806.17 1381.16 2
-14 0 -8 8392.67 1105.4 1
-14 14 8 6561.12 951.894 2
14 -14 -8 9051.92 1162.42 1
-14 14 8 5799.43 782.161 4
0 -14 8 12423.4 1738.22 4
0 -14 8 9652.92 1379.59 3
-14 14 8 7905.69 1088.63 1
14 0 8 9265.03 1259.63 1
0 14 -11 590.15 321.732 1
14 -14 -11 656.262 331.737 1
-14 0 -11 893.882 383.699 1
14 0 11 418.089 328.606 2
14 0 11 538.197 305.373 1
-14 14 11 581.361 356.457 2
-14 14 11 274.765 163.211 4
0 -14 11 1017.65 457.121 3
0 14 -14 2045.63 612.237 1
-14 0 -14 1752.29 543.697 1
14 0 14 3013.18 970.213 2
-14 14 14 3355.29 859.718 4
0 -14 14 2163.51 691.743 3
-15 14 -14 264.86 123.456 3
14 -15 14 475.231 689.409 2
1 14 14 190.104 162.826 2
-15 14 -14 197.579 233.534 1
14 -15 11 846.276 626.116 2
1 14 11 697.771 238.368 2
-15 14 -11 540.774 402.228 1
1 14 11 367.518 129.693 3
1 -15 -8 1910.07 490.816 3
14 -15 8 2315.6 832.987 2
-15 14 -8 881.509 326.443 1
1 14 8 1553.09 464.076 3
1 -15 -5 4585.31 833.864 3
14 -15 5 3425.21 909.175 2
14 1 -5 4719.92 570.344 4
1 14 5 4943.52 1001.85 4
1 14 5 4387.21 794.712 3
1 14 5 4422.41 459.693 1
-15 14 -5 6384.85 1149.42 1
1 14 2 1571.93 540.164 4
1 -15 -2 1418.41 482.848 3
14 1 -2 1070.1 390.334 1
-15 14 -2 2709.27 771.472 1
-15 1 2 665.101 389.119 2
-15 14 -2 1955.94 622.527 2
14 -15 2 662.335 294.966 2
1 -15 -2 330.752 365.703 4
14 -15 2 1467.18 591.7 1
-15 1 2 1228.13 462.295 1
1 14 2 982.816 408.34 3
-15 1 -1 851.466 352.386 1
14 -15 -1 1160.41 471.022 2
14 1 1 669.39 229.82 1
-15 1 -1 454.807 207.349 2
-15 14 1 1189.1 454.322 2
-15 14 1 1320.05 446.733 1
1 -15 1 1721.13 654.568 4
14 -15 -1 1452.97 494.661 1
1 14 -1 1119.56 369.076 4
14 -15 -1 1384.96 513.928 4
1 14 -1 687.891 300.501 3
14 1 1 1419.43 451.452 2
1 -15 1 960.587 403.525 3
-15 14 4 2138.97 572.25 1
14 -15 -4 1917.3 483.096 1
1 -15 4 2167.77 616.786 4
-15 1 -4 1843.7 699.713 1
-15 1 -4 1624.26 781.284 2
14 1 4 1677.5 475.93 1
-15 14 4 1960.98 492.439 2
14 -15 -4 1605.49 445.584 4
14 1 4 1537.11 453.914 2
1 14 -4 947.939 363.417 4
14 -15 -4 1850.7 475.603 2
1 14 -4 728.507 268.598 3
1 -15 4 1409.68 473.257 3
-15 14 7 1289.19 449.608 1
14 1 7 1343.14 480.466 1
14 -15 -7 1678.06 526.625 4
14 -15 -7 2394.16 597.607 1
14 1 7 2288.63 700.492 2
1 -15 7 1978.72 684.443 3
-15 14 7 1290.4 440.994 2
-15 1 -7 1493.97 512.167 1
-15 14 10 682.954 367.265 1
-15 1 -10 1003.93 452.117 1
14 1 10 534.112 369.633 2
-15 14 10 216.825 138.764 4
14 -15 -10 392.455 228.969 1
14 1 10 630.666 275.104 1
-15 14 10 805.274 335.284 2
1 -15 10 1244 467.728 3
14 -15 -13 1168.85 439.302 1
-15 1 -13 1110.67 443.428 1
-15 14 13 844.487 326.59 4
14 1 13 625.727 277.467 1
14 1 13 1405.26 547.023 2
1 -15 13 885.831 417.815 3
14 -16 12 1274.69 747.019 2
2 14 12 515.371 279.53 2
-16 14 -12 249.511 355.269 1
14 -16 9 1056.18 658.674 2
2 -16 -9 1544.33 535.895 3
2 14 9 683.268 209.847 2
-16 14 -9 463.078 306.079 1
2 14 9 870.334 382.37 3
2 -16 -6 1627.04 427.035 3
14 -16 6 846.933 422.38 2
2 14 6 1550.27 265.261 1
14 2 -6 1327.9 299.399 4
2 14 6 723.626 190.871 4
2 14 6 1070.27 387.459 3
-16 14 -6 1610.83 498.562 1
-16 14 -3 1947.73 612.579 1
-16 2 3 1351.65 529.745 1
-16 14 -3 2443.5 646.497 2
14 -16 3 2502.74 693.243 2
2 14 3 2709.32 704.112 4
2 -16 -3 1547.57 512.062 3
2 14 3 1360.93 383.722 3
2 -16 0 2699.87 643.572 3
2 14 0 2516.45 586.66 3
-16 2 0 2774.81 677.604 1
-16 2 0 2383.63 589.621 2
-16 14 0 2751.3 681.561 1
-16 14 0 2916.99 721.639 2
2 14 0 2378.68 616.71 4
14 -16 0 3557.11 759.365 2
14 2 0 2368.07 626.846 1
14 -16 0 3408.26 750.781 1
2 -16 0 2481.63 747.12 4
14 -16 0 2950.73 780.577 4
2 -16 3 571.136 344.263 3
-16 2 -3 163.321 185.758 1
-16 2 -3 458.423 312.944 2
-16 14 3 564.121 276.124 2
14 -16 -3 770.566 314.531 2
14 -16 -3 141.559 290.443 4
2 14 -3 341.044 255.633 4
14 2 3 734.813 355.97 2
14 2 3 487.511 185.26 1
-16 14 3 -70.199 170.329 1
14 -16 -3 317.833 168.555 1
2 -16 6 3540.61 821.717 3
-16 2 -6 2950.01 708.293 1
14 -16 -6 3203.14 669.443 1
14 2 6 2249.28 615.247 1
-16 14 6 2488.47 637.115 1
14 2 6 2313.89 701.828 2
-16 14 6 1771.99 509.545 2
14 -16 -6 2694.01 699.984 4
2 -16 9 948.247 426.087 3
-16 14 9 1137.78 317.634 4
-16 14 9 823.635 401.25 1
-16 2 -9 1062.37 367.251 1
14 -16 -9 993.685 398.925 1
14 2 9 1918.42 712.53 2
-16 14 9 858.257 417.052 2
14 2 9 1011.84 424.982 1
2 -16 12 1222.23 584.152 3
-16 2 -12 1583.75 566.305 1
14 2 12 774.517 239.353 1
14 2 12 841.589 646.629 2
-16 14 12 1028.74 389.266 4
14 -16 -12 944.212 431.45 1
14 -17 13 2186.46 791.244 2
3 14 13 1527.15 439.244 2
-17 14 -13 868.103 507.184 1
14 -17 10 413.417 278.833 2
3 14 10 528.673 216.54 2
-17 14 -10 105.983 199.47 1
3 -17 -7 4420.45 871.123 3
14 -17 7 3384.03 925.012 2
3 14 7 3296.11 399.053 1
14 3 -7 3990.19 533.63 4
-17 14 -7 4416.37 953.588 1
3 14 4 1081.12 515.593 4
3 -17 -4 855.571 348.242 3
-17 14 -4 538.985 181.531 1
14 -17 4 1331.26 507.378 2
14 3 -4 759.68 265.172 4
-17 3 4 643.937 363.896 1
14 3 -1 -19.1141 203.875 1
3 -17 -1 481.553 191.532 3
3 14 1 231.153 200.248 4
-17 3 1 -135.745 229.26 1
-17 14 -1 553.395 405.868 1
-17 14 -1 113.942 278.068 2
14 -17 1 29.8359 246.879 2
14 -17 1 182.085 241.599 1
3 -17 2 1675.6 597.175 3
14 3 2 1290.48 407.794 1
-17 3 -2 1449.74 463.151 1
14 3 2 1352.01 490.966 2
14 -17 -2 1768.04 673.886 4
-17 14 2 1388.36 506.432 2
-17 14 2 1581.9 508.521 1
3 14 -2 818.316 372.037 4
14 -17 -2 1461.28 417.633 2
14 -17 -2 1943.83 547.465 1
3 -17 5 2742.73 773.037 3
14 -17 -5 2425.54 583.345 1
-17 14 5 2170.25 607.235 1
14 3 5 2495.72 609.244 1
14 -17 -5 2284.8 664.564 4
14 3 5 1972.8 571.67 2
-17 14 5 2213.84 615.809 2
3 14 -5 1428.33 378.747 4
14 -17 -5 2029.81 529.508 2
-17 3 -5 1681.6 556.611 1
-17 14 8 15.7226 202.245 1
3 -17 8 319.898 180.244 3
14 3 8 673.213 343.676 1
14 -17 -8 -4.46868 130.123 1
-17 3 -8 504.261 293.022 1
14 3 8 570.509 366.775 2
14 -17 -8 229.06 197.866 4
-17 14 8 310.982 229.095 2
14 3 11 1240.78 492.58 1
3 -17 11 1245.64 632.392 3
-17 3 -11 633.557 319.688 1
14 3 11 981.867 478.542 2
14 -17 -11 681.804 279.186 1
-17 14 11 541.768 239.104 4
3 -17 14 -116.804 428.008 3
-17 3 -14 -4.14452 283.134 1
14 3 14 -145.419 337.127 1
14 3 14 839.44 615.777 2
-17 14 14 47.6875 188.423 4
14 -17 -14 338.351 299.466 1
14 -18 14 422.999 602.152 2
4 14 14 233.808 242.76 2
-18 14 -14 -401.444 402.38 1
14 -18 11 69.9731 437.24 2
4 14 11 -22.0561 208.563 2
-18 14 -11 -171.419 384.401 1
4 14 8 339.915 125.63 1
14 -18 8 -270.257 283.282 2
14 4 -8 174.733 153.047 4
-18 14 -8 206.346 307.481 1
4 -18 -5 574.476 368.643 3
-18 14 -5 166.099 322.638 1
-18 4 5 318.582 180.268 1
14 -18 5 509.342 309.676 2
14 4 -5 598.336 235.686 4
4 14 5 881.469 471.204 4
4 14 5 783.577 246.404 1
4 -18 -2 1061.2 342.651 3
4 -18 -2 507.588 152.06 2
4 14 2 714.587 443.317 4
-18 14 -2 1089.6 535.2 1
14 -18 2 122.561 324.87 2
-18 4 2 -117.726 347.053 1
4 -18 1 1782.88 473.585 3
-18 4 -1 1886.12 571.459 1
14 -18 -1 3639.04 1008.32 4
4 14 -1 2011.02 635.109 4
-18 14 1 2716.37 731.578 2
14 4 1 1948.22 543.343 1
14 -18 -1 2326.97 555.323 2
14 -18 -1 2369.11 621.362 1
-18 14 1 2851.85 836.102 1
4 -18 4 2417.97 683.831 3
-18 4 -4 2107.65 589.224 1
-18 14 4 3025.33 850.71 1
-18 14 4 1957.59 607.817 2
14 -18 -4 3687.37 978.643 4
14 -18 -4 1921.22 500.6 2
4 14 -4 1114.76 349.457 4
14 4 4 1996.85 579.899 2
14 4 4 2111.27 547.553 1
14 -18 -4 2114.5 568.959 1
4 -18 7 469.531 389.55 3
14 -18 -7 522.65 344.477 1
-18 14 7 376.049 171.578 1
14 4 7 637.272 419.329 2
14 4 7 634.526 337.999 1
-18 14 7 120.466 205.099 2
14 -18 -7 364.617 238.473 4
-18 4 -7 749.623 367.833 1
4 -18 10 1422.98 527.295 3
14 -18 -10 1349.28 465.701 1
14 4 10 1780.64 564.959 1
-18 4 -10 1467.43 579.918 1
14 4 10 774.525 353.715 2
-18 14 10 1688.49 674.639 1
14 -18 -13 261.979 236.742 1
4 -18 13 35.711 381.203 3
-18 4 -13 105.431 200.643 1
14 4 13 -176.985 222.2 1
14 4 13 -262.912 507.015 2
-18 14 13 76.2855 110.26 4
14 -19 12 737.745 674.804 2
-19 14 -12 1335.24 600.976 1
5 14 12 661.327 280.014 2
14 -19 9 472.897 391.088 2
5 14 9 475.538 270.126 2
5 14 9 303.756 125.286 1
-19 14 -9 -79.0111 259.911 1
-19 14 -6 408.439 436.433 1
14 -19 6 357.655 328.119 2
5 14 6 -64.1594 175.234 1
14 5 -6 250.777 133.188 4
-19 5 6 354.571 422.721 1
5 -19 -3 169.487 167.693 3
5 -19 -3 447.509 166.421 2
-19 14 -3 985.073 521.923 1
14 -19 3 937.395 515.769 2
5 14 3 1394.21 601.699 4
14 5 -3 455.925 288.132 4
-19 5 3 1083.59 399.122 1
14 5 0 633.82 379.778 1
5 -19 0 -217.798 370.419 3
5 -19 0 106.505 219.625 2
14 -19 0 252.162 292.716 2
14 -19 0 141.156 186.249 1
5 14 0 103.017 263.133 4
-19 14 0 -10.1577 200.337 1
-19 5 0 26.4455 166.469 1
5 14 -3 1403.9 444.512 4
5 -19 3 5338.83 1097.46 3
-19 14 3 2338.49 710.065 1
14 5 3 2468.17 638.259 1
-19 5 -3 3048.36 781.258 1
14 -19 -3 3158.18 710.006 2
14 -19 -3 3450.68 748.407 1
14 -19 -3 3902.19 1002.64 4
14 5 3 2797.16 727.3 2
5 -19 6 230.55 286.665 3
14 -19 -6 269.862 276.505 4
14 5 6 221.314 182.189 1
5 14 -6 198.405 228.849 4
-19 5 -6 136.813 345.343 1
14 5 6 -44.1061 247.676 2
-19 14 6 361.472 259.451 1
14 -19 -6 171.259 152.997 2
14 -19 -6 -5.2405 175.175 1
5 -19 9 232.929 333.361 3
14 -19 -9 521.528 321.608 1
-19 14 9 501.465 426.175 1
-19 5 -9 949.703 466.334 1
14 5 9 287.771 269.342 2
14 5 9 631.159 267.814 1
5 -19 12 429.109 356.017 3
-19 5 -12 90.0331 254.185 1
14 -19 -12 43.1195 176.32 1
14 5 12 -166.648 144.605 1
14 -20 13 507.336 510.042 2
-20 14 -13 699.054 506.488 1
6 14 13 248.81 183.214 2
-20 14 -10 41.3923 378.885 1
14 -20 10 -188.373 324.854 2
6 14 10 -148.834 92.8598 1
6 14 10 365.916 284.789 2
14 -20 7 1331.69 566.727 2
14 6 -7 917.405 279.901 4
-20 14 -7 1527.45 540.758 1
6 14 7 1176.14 314.041 1
6 -20 -4 -6.43805 140.993 1
-20 6 4 128.707 211.773 1
-20 14 -4 289.253 349.439 1
14 -20 4 -34.9172 243.401 2
6 14 4 302.389 128.472 1
6 -20 -4 70.231 75.2972 2
14 6 -4 237.841 246.645 4
6 14 4 461.132 311.624 4
6 -20 -1 1253.49 495.544 3
6 -20 -1 783.991 302.262 2
6 14 1 1102.61 478.249 4
14 -20 1 1028.15 358.864 2
-20 14 -1 2139.4 699.826 1
-20 6 1 1215.61 601.63 1
6 -20 2 7342.68 1048.34 2
14 -20 -2 8728.01 1130.78 2
-20 14 2 8490.5 1329.33 1
-20 6 -2 7783 1233.05 1
6 14 -2 6484.84 1072.47 4
14 6 2 6271.79 1005.56 1
6 -20 2 8738.22 1344.99 3
14 -20 -2 8359.9 1196.18 1
6 -20 5 736.796 431.808 3
-20 14 5 -215.716 210.259 1
14 -20 -5 298.348 282.786 2
14 -20 -5 247.678 251.589 1
6 14 -5 213.751 239.427 4
14 6 5 397.522 323.325 1
14 6 5 -65.0853 168.87 2
-20 6 -5 -53.0658 150.311 1
6 -20 8 517.323 522.518 3
14 6 8 182.9 167.2 1
-20 6 -8 61.8714 263.982 1
-20 14 8 57.9888 323.68 1
14 6 8 49.2985 179.281 2
14 -20 -8 210.752 227.925 1
6 -20 11 -197.981 433.688 3
14 -20 -11 252.481 284.716 1
-20 6 -11 644.982 410.649 1
14 6 11 270.392 407.07 2
14 6 11 449.596 196.57 1
-21 14 -11 284.012 341.911 1
7 -21 -11 359.716 115.461 1
14 -21 11 786.118 646.476 2
7 14 11 530.968 157.811 1
7 14 11 1258.98 447.416 2
7 -21 -8 259.396 159.711 1
14 7 -8 413.186 249.225 4
-21 14 -8 669.537 517.588 1
14 -21 8 237.474 297.523 2
7 14 8 501.563 221.152 1
7 -21 -5 3561.19 591.446 1
14 7 -5 2719.66 569.273 4
14 -21 5 4481.4 1133.72 2
-21 14 -5 4539.38 987.644 1
-21 7 5 2220.53 711.703 1
7 14 5 4216.06 684.242 1
7 -21 -2 974.373 363.54 1
-21 7 2 186.825 277.931 1
-21 14 -2 1099.66 438.715 1
7 -21 -2 477.427 196.291 2
14 -21 2 823.163 481.13 2
14 7 -2 475.765 228.756 4
7 14 2 551.638 236.247 4
7 -21 1 952.806 340.687 1
7 -21 1 1429.17 625.647 3
7 -21 1 1847.67 540.142 2
-21 7 -1 1325.4 542.653 1
14 -21 -1 1533.28 510.301 1
14 -21 -1 1166.52 426.464 2
7 14 -1 1345.96 532.649 4
14 7 1 1144.32 423.305 1
-21 14 1 2628.32 809.912 1
14 7 4 792.98 355.683 1
7 -21 4 507.917 325.09 3
7 -21 4 1960.48 650.607 2
14 -21 -4 1971.33 583.407 1
-21 14 4 1018.27 355.047 1
14 -21 -4 931.653 395.271 2
7 14 -4 924.397 362.554 4
14 7 4 1205.4 512.266 2
-21 7 -4 1288.31 561.629 1
7 -21 7 742.412 601.544 3
7 -21 7 83.4594 290.274 2
-21 14 7 -92.2289 283.23 1
14 7 7 454.321 321.137 1
14 7 7 518.281 375.846 2
7 14 -7 342.382 184.336 4
14 -21 -7 471.44 234.746 1
-21 7 -7 94.3558 220.569 1
7 -21 10 509.846 347.593 3
7 -21 10 68.6922 375.484 2
-21 7 -10 271.958 285.674 1
14 7 10 641.725 454.707 2
-21 14 10 445.661 465.501 1
14 7 10 34.417 130.98 1
14 -21 -10 -52.9862 167.799 1
8 -22 -9 483.534 191.019 1
-22 14 -9 776.216 662.65 1
8 14 9 626.947 207.149 1
14 -22 9 -349.038 575.098 2
8 14 9 948.283 444.785 2
8 -22 -6 565.021 208.941 1
14 -22 6 848.749 552.479 2
8 14 6 821.048 307.887 1
-22 14 -6 1147.97 617.097 1
-22 8 6 849.211 370.553 1
14 8 -6 799.225 305.037 4
8 -22 -3 1342.83 407.026 1
-22 8 3 1247.19 422.462 1
8 14 3 2099.52 815.898 4
14 -22 3 2355.79 783.032 2
8 -22 -3 1675.42 383.732 2
8 14 3 1700.58 447.051 1
-22 14 -3 2253.41 549.825 1
14 8 -3 1697.61 467.293 4
8 -22 0 2507.58 628.407 1
8 -22 0 2854.7 633.429 2
14 -22 0 3170.15 775.023 2
-22 8 0 3082.87 808.744 1
8 14 0 2740.29 729.722 4
-22 14 0 3416.44 924.531 1
-22 8 -3 176.85 382.318 1
8 -22 3 155.511 254.745 2
-22 14 3 -205.312 338.441 1
14 8 3 -9.45706 189.838 1
14 -22 -3 124.661 181.869 1
14 -22 -3 -21.7742 150.341 2
8 14 -3 545.931 352.551 4
14 8 6 940.898 509.377 2
-22 8 -6 178.301 243.211 1
8 -22 6 935.26 556.887 3
-22 14 6 734.104 439.011 1
8 -22 6 520.525 378.088 2
14 8 6 230.21 245.438 1
8 14 -6 327.452 261.214 4
14 -22 -6 9.94864 170.149 2
14 -22 -6 734.028 306.205 1
8 -22 9 334.844 465.379 3
14 8 9 -58.8112 232.406 1
8 -22 9 116.153 457.885 2
-22 8 -9 325.977 339.949 1
14 8 9 355.748 216.571 2
14 -22 -9 167.706 220.771 1
-22 14 9 -90.6715 280.256 1
8 -22 12 1142.69 802.661 2
9 -23 -10 -18.5337 95.1664 1
-23 14 -10 193.809 332.219 1
14 -23 10 143.837 340.704 2
9 14 10 230.941 193.101 2
9 14 10 170.369 92.3039 1
9 -23 -7 -120.839 125.684 1
14 -23 7 -151.787 516.611 2
-23 9 7 -100.236 363.791 1
14 9 -7 -48.6804 190.519 4
9 14 7 570.894 330.611 1
9 -23 -4 679.591 353.028 1
9 14 4 878.882 403.216 1
14 -23 4 215.077 217.708 2
-23 9 4 26.0924 199.023 1
9 -23 -4 603.749 244.487 2
-23 14 -4 1539.94 684.525 1
9 14 4 585.26 415.899 4
14 9 -4 795.406 322.421 4
14 9 -1 483.633 281.314 4
9 -23 -1 792.795 272.16 1
9 -23 -1 954.199 341.18 2
-23 9 1 359.308 329.254 1
14 -23 1 523.396 283.732 2
9 14 1 93.0528 287.315 4
-23 14 -1 739.877 454.946 1
9 14 -2 -51.6309 257.146 4
-23 9 -2 1111.76 509.877 1
9 -23 2 -57.4855 389.163 2
-23 14 2 57.8027 289.994 1
14 -23 -2 762.845 351.727 2
9 -23 5 744.958 511.9 2
14 -23 -5 295.05 267.573 1
14 -23 -5 28.6207 153.657 2
9 14 -5 -8.75325 313.554 4
-23 9 -5 1000.71 476.788 1
-23 14 5 316.044 342.559 1
14 9 5 427.797 279.458 1
-23 14 8 521.977 461.823 1
9 -23 8 149.213 402.273 2
14 9 8 338.285 326.997 1
-23 9 -8 925.177 447.327 1
14 -23 -8 298.992 245.378 1
14 9 8 728.73 462.807 2
9 14 -8 308.803 211.869 4
9 -23 11 301.708 650.761 2
-23 9 -11 -325.519 303.908 1
14 9 11 184.896 260.048 2
14 -23 -11 158.827 268.435 1
14 9 11 -290.871 399.87 1
-24 10 8 408.81 400.14 1
10 -24 -8 319.765 148.709 1
14 -24 8 96.7623 332.244 2
-24 14 -8 492.144 245.471 1
10 14 8 407.671 197.989 1
14 10 -8 82.4726 119.821 4
14 10 -5 515.667 335.159 4
10 -24 -5 314.804 123.458 1
14 -24 5 -421.353 469.77 2
-24 10 5 -233.471 451.664 1
-24 14 -5 403.086 471.25 1
10 14 5 123.645 254.219 1
10 -24 -5 294.83 149.08 2
10 -24 -2 217.863 179.972 1
14 -24 2 58.2282 254.549 2
10 -24 -2 397.534 254.931 2
10 14 2 -458.255 524.475 4
10 14 2 341.786 249.056 1
14 10 -2 306.148 161.255 4
-24 14 -2 709.366 265.193 1
-24 10 2 426.094 300.698 1
-24 14 1 272.527 404.079 1
-24 10 -1 226.811 418.356 1
10 -24 1 176.814 235.478 2
14 -24 -1 449.757 261.864 2
10 14 -1 -4.35213 283.43 4
10 -24 4 1199.22 504.413 2
10 14 -4 1292.46 443.839 4
14 -24 -4 1993.07 553.513 2
14 10 4 1694.92 599.822 1
14 -24 -4 1757.53 561.285 1
-24 14 4 1361.63 618.046 1
-24 10 -4 1769.87 695.954 1
-24 14 7 112.855 347.691 1
10 -24 7 -436.76 498.537 2
14 -24 -7 148.025 127.097 1
-24 10 -7 -250.933 195.238 1
14 10 7 273.705 317.322 1
10 14 -7 19.9933 161.155 4
14 10 7 451.686 449.14 2
10 -24 10 124.247 376.179 2
-24 10 -10 34.6182 332.896 1
14 10 10 -474.814 449.786 2
14 10 10 -251.33 304.97 1
14 -24 -10 -377.833 299.42 1
-24 14 10 392.839 268.431 1
11 -25 -9 770.878 297.662 1
11 14 9 -44.0623 242.908 1
-25 11 9 -416.835 473.845 1
-25 14 -9 444.451 295.033 1
14 11 -9 480.453 222.575 4
-25 11 6 -141.423 308.862 1
11 14 6 445.08 316.571 1
11 -25 -6 -161.918 197.927 1
14 11 -6 181.612 237.384 4
14 -25 6 715.288 505.642 2
-25 14 -6 1072.05 603.083 1
11 -25 -6 154.203 126.046 2
11 -25 -3 462.683 228.798 1
14 -25 3 709.283 456.348 2
11 14 3 393.302 265.99 1
11 14 3 142.017 217.907 4
14 11 -3 -70.1882 264.37 4
11 -25 -3 89.4742 165.73 2
-25 14 -3 153.26 361.632 1
-25 11 3 -251.474 473.065 1
11 -25 0 543.248 338.314 2
-25 11 0 898.361 481.167 1
14 -25 0 1493.94 571.492 2
14 11 0 753.785 402.483 4
11 14 0 859.499 435.587 4
-25 11 -3 445.787 329.704 1
11 -25 3 682.936 430.484 2
14 -25 -3 430.397 205.8 2
-25 14 3 177.469 231.268 1
11 14 -3 819.824 433.63 4
-25 11 -6 652.585 437.488 1
11 -25 6 734.236 409.607 2
-25 14 6 510.207 377.749 1
14 -25 -6 -58.9559 169.849 1
11 14 -6 -286.082 214.508 4
14 -25 -6 324.851 225.189 2
14 11 6 40.1336 162.127 1
11 -25 9 725.285 606.482 2
14 11 9 -342.301 295.062 1
14 -25 -9 225.74 228.409 1
-25 11 -9 -229.09 221.541 1
14 11 9 780.204 395.086 2
-25 14 9 105.037 246.544 1
14 12 -7 -1.89783 165.872 4
12 -26 -7 453.143 281.165 1
14 -26 7 -29.132 314.975 2
-26 12 7 276.497 236.378 1
-26 14 -7 342.401 273.598 1
12 14 7 601.538 337.103 1
14 12 -4 68.2437 156.387 4
-26 12 4 12.2875 339.914 1
12 -26 -4 680.455 330.999 1
14 -26 4 1243.94 562.706 2
12 -26 -4 624.414 348.725 2
-26 14 -4 342.769 364.407 1
12 14 4 536.62 328.383 1
14 12 -1 257.341 163.727 4
14 -26 1 20.7498 216.787 2
12 -26 -1 57.0813 167.736 2
-26 12 1 -270.28 299.083 1
12 14 1 240.76 227.416 4
-26 12 -2 1115.42 555.336 1
12 -26 2 592.785 448.269 2
-26 14 2 641.747 337.551 1
14 -26 -2 574.579 349.142 2
12 14 -2 811.271 457.001 4
12 14 -5 74.0029 174.508 4
-26 14 5 282.129 287.789 1
14 12 5 -68.9625 150.879 1
12 -26 5 497.758 442.675 2
14 -26 -5 446.073 259.559 1
14 -26 -5 143.038 197.189 2
-26 12 -5 747.151 454.678 1
12 14 -8 489.793 380.172 4
12 -26 8 -564.148 572.528 2
-26 14 8 62.3241 389.51 1
14 -26 -8 569.836 286.842 1
14 12 8 443.851 356.849 1
-26 12 -8 841.624 564.602 1
14 12 8 -66.1236 272.713 2
13 -27 -5 301.833 226.747 1
14 -27 5 -30.7343 238.721 2
-27 13 5 837.411 424.167 1
13 14 5 -295.859 422.555 1
14 13 -5 1049.12 457.921 4
-27 14 -5 69.4037 350.718 1
13 -27 -5 190.426 254.124 2
14 -27 2 581.354 471.244 2
13 -27 -2 1300.39 509.977 2
-27 13 2 981.88 537.146 1
13 14 2 526.877 479.598 4
-27 14 -2 1857.8 780.432 1
14 13 -2 665.074 365.662 4
-27 13 -1 2476.24 795.311 1
13 -27 1 1264.51 503.655 2
-27 14 1 1377.13 603.589 1
14 -27 -1 1800.55 612.048 2
14 13 1 484.389 273.088 4
13 14 -1 567.226 220.626 4
14 -27 -4 529.664 338.613 2
13 -27 4 659.347 477.035 2
-27 13 -4 753.898 482.622 1
-27 14 4 -556.092 513.068 1
13 14 -4 328.08 337.753 4
-28 14 0 3268.89 981.209 1
14 -28 0 3226.41 858.161 2
14 14 0 1528.75 697.149 4
14 -28 3 -190.193 455.499 2
14 -28 -3 427.505 220.051 2
14 14 3 -543.782 520.956 4
14 14 -3 411.31 389.215 4
-28 14 3 112.88 318.202 1
-28 14 -3 305.004 248.947 1
-7 15 14 710.274 398.085 3
-8 15 -14 51.5359 176.258 1
-7 -8 -14 668.395 247.097 1
15 -8 14 1004.02 724.501 2
-8 -7 14 117.934 273.291 4
-8 15 -14 642.763 335.986 3
-7 -8 -14 489.192 219.75 3
-7 -8 -11 5958.43 933.849 2
-7 -8 -11 5808.13 667.909 1
15 -8 11 6968.03 1447.83 2
-8 -7 11 7097.08 1071.28 4
-7 15 11 5399.81 1163.2 4
-7 -8 -11 5774.66 773.934 3
-8 15 -11 5014.59 777.069 3
-7 15 11 7663.92 1115.53 3
-8 15 -11 5679.74 1031.15 1
-7 15 8 1453.45 320.847 1
-7 15 8 1199.2 407.337 3
-8 15 -8 875.188 277.9 1
-7 -8 -8 1037.04 369.359 2
15 -8 8 1004.34 515.643 2
-7 -8 -8 906.596 352.189 3
-7 15 8 1139.21 466.009 4
-8 -7 8 670.854 338.482 4
-7 15 8 1202.03 266.67 2
-7 -8 -8 737.713 253.25 1
-8 15 -8 578.575 270.868 3
-8 -7 5 4623.59 800.888 4
-7 15 5 4822.88 613.202 1
-7 15 5 5646.21 500.963 2
-7 -8 -5 5322.78 768.904 2
15 -8 5 6566.2 1119.37 2
15 -7 -5 4821.36 798.399 1
-7 15 5 4839.83 871.83 4
-7 -8 -5 6322.17 904.675 3
-8 15 -5 5546.72 834.319 3
-7 15 5 5428.96 922.427 3
-8 15 -5 5102.78 909.23 1
15 -8 5 7182.67 1156.47 1
-7 15 2 3746.94 722.624 3
-8 15 -2 3262.6 641.686 3
-7 15 2 3972.81 498.769 2
15 -8 2 4232.97 847.784 1
-8 15 -2 3639.08 704.848 1
-7 15 2 3123.93 575.172 4
-7 -8 -2 3479.61 577.819 2
-7 15 2 3495.22 587.115 1
15 -8 2 4862.43 935.451 2
15 -7 -2 3745.85 701.443 1
15 -7 -2 3485.53 687.167 2
-8 15 1 10571.1 945.958 2
15 -7 1 12888.9 1407.62 1
15 -7 1 13528.4 1512.2 2
15 -8 -1 12469.8 1325.66 1
15 -8 -1 12520.8 1363.22 2
-8 -7 -1 9591.22 1032.39 2
-8 15 1 8036.19 947.012 4
-7 15 -1 10496.6 1174.03 3
-8 15 1 10296.5 1192.51 3
-7 15 -1 11520.6 1183.29 1
-8 15 1 10732.2 1094.53 1
15 -7 4 2763.37 761.392 1
-7 15 -4 2902.16 634.217 3
15 -8 -4 2642.11 557.123 1
-8 15 4 3359.03 713.606 3
-8 15 4 2761 432.661 2
-8 15 4 2597.58 502.993 1
-7 15 -4 3353.28 738.306 1
15 -7 4 4467.57 1015.76 2
-8 -7 -4 2820 584.286 2
-7 -8 4 2219.27 555.505 4
-8 15 4 2170.76 603.424 4
-7 -8 7 2571.6 637.839 4
-8 15 7 3049.46 658.163 3
-8 15 7 3173.06 458.509 2
-7 15 -7 3571.26 740.991 1
-8 15 7 3040.63 704.282 4
-8 -7 -7 3225.8 659.004 2
15 -7 7 4591.96 1040.39 2
-8 15 7 3337.32 535.983 1
15 -8 -7 2296.86 585.404 1
15 -8 -7 1741.06 263.782 4
-8 -7 -7 3422.32 527.402 1
15 -7 7 4996.95 1038.34 1
-7 15 -7 3236.85 618.797 3
-8 15 10 1217.36 421.984 3
-8 -7 -10 1364.34 499.21 2
-7 15 -10 1674.98 475.42 1
15 -7 10 2277.08 831.01 2
-8 15 10 1582.31 552.163 4
-7 15 -10 1745.96 460.778 3
-8 -7 -10 1764.23 498.313 3
-7 -8 10 1660.51 538.775 4
-8 -7 -10 1530.48 390.15 1
-8 15 13 341.414 243.838 3
-8 -7 -13 624.362 325.997 2
-7 15 -13 69.5583 214.336 1
-8 -7 -13 312.359 137.476 1
15 -7 13 515.553 593.333 2
-8 -7 -13 421.743 210.124 3
-8 15 13 -43.5228 385.671 4
-7 -8 13 168.04 178.352 4
-7 15 -13 131.944 96.4087 3
-8 -7 -16 415.169 171.772 3
-8 15 16 -16.2299 220.767 3
-8 -7 -16 60.7196 146.064 1
15 -7 16 307.376 345.702 2
-7 -8 16 318.594 392.284 3
-6 15 15 -44.5472 181.891 3
-6 -9 -15 99.6183 114.358 3
-6 -9 -15 409.33 205.529 1
-9 15 -15 42.7205 168.082 1
15 -9 15 855.448 655.903 2
-9 -6 15 815.086 436.542 4
-9 15 -15 -145.491 204.171 3
-6 15 12 845.938 331.704 3
-9 15 -12 749.337 474.753 1
15 -9 12 236.333 418.139 2
-6 -9 -12 571.85 214.288 1
-9 -6 12 1254.91 425.236 4
-9 15 -12 692.71 313.354 3
-6 -9 -12 404.259 180.325 3
-9 15 -9 346.642 96.3891 3
-6 15 9 894.279 333.198 3
-9 -6 9 225.851 169.414 4
-6 -9 -9 531.385 227.497 2
-9 15 -9 131.198 229.039 1
15 -9 9 -107.829 479.542 2
-6 15 9 462.073 180.788 2
-6 15 9 561.648 359.957 4
-6 -9 -9 151.551 175.498 3
-6 -9 -9 455.541 158.162 1
-6 15 6 1118.35 437.802 3
-9 15 -6 1094.42 379.361 3
-6 15 6 1304.35 563.535 4
-9 15 -6 236.26 157.055 1
-6 -9 -6 1098.86 405.432 2
15 -9 6 1306.78 611.001 2
-6 15 6 1648.51 353.808 1
-9 -6 6 1059.17 363.066 4
15 -6 -6 1512.44 474.888 1
-6 -9 -6 1136.82 433.316 3
15 -9 6 1224.71 526.473 1
-6 15 3 1209.78 377.123 3
-9 15 -3 1160.17 433.511 3
15 -6 -3 514.506 277.397 1
-9 15 -3 1234.22 431.631 2
-6 -9 -3 1174.01 413.61 3
-9 15 -3 850.069 268.273 1
15 -9 3 1032.34 391.829 2
15 -9 3 1381.76 534.947 1
-6 15 3 1120.35 338.83 4
-6 -9 -3 1124.38 318.009 2
-6 15 3 887.962 266.122 1
15 -6 -3 1131.16 360.714 2
15 -9 0 12889.5 1414.21 1
-9 15 0 9315.14 962.495 2
15 -9 0 12423.5 1405.86 2
15 -6 0 10483.5 1198.98 1
15 -6 0 11656.7 1309.73 2
-9 -6 0 10126 1105.42 2
-6 15 0 7666.39 926.404 4
-6 15 0 8458.01 1042.29 3
-9 15 0 9934.65 1213.68 3
-6 15 0 9451.46 1022.03 1
-9 15 0 10528.2 1146.31 1
-6 15 -3 2338.69 566.708 3
-9 15 3 1692.3 417.65 1
15 -6 3 2577.84 632.742 1
15 -9 -3 2497.35 630.184 1
-6 15 -3 2265.04 577.636 1
-9 15 3 2600.48 464.509 2
-9 15 3 1685.4 456.181 4
15 -6 3 2370.7 736.385 2
-9 -6 -3 2264.93 536.835 2
15 -9 -3 2829.84 687.444 2
-6 -9 3 1457.78 532.403 4
-9 -6 -6 1830.94 398.025 1
15 -9 -6 1924.77 458.474 1
-6 15 -6 2285.47 601.527 1
-9 -6 -6 2272.58 542.662 2
15 -6 6 2292.69 736.18 2
-9 15 6 2774.97 461.596 2
15 -9 -6 1418.79 252.005 4
-9 15 6 1998.27 548.641 4
15 -6 6 2442.37 663.156 1
-9 15 6 1957.97 397.419 1
-6 -9 6 2624.89 638.59 4
-6 15 -6 2439.45 576.42 3
-9 -6 -9 706.596 255.688 1
-6 -9 9 914.43 385.682 4
-6 15 -9 648.827 364.481 1
-9 -6 -9 728.939 364.779 2
-9 15 9 1100.08 324.839 1
15 -6 9 291.353 276.491 2
-9 15 9 619.513 327.142 4
-9 15 9 819.477 270.888 2
-6 15 -9 317.686 202.769 3
-9 15 12 -262.592 468.374 4
-9 -6 -12 1037.64 435.488 2
-6 15 -12 498.704 284.11 1
15 -6 12 476.824 230.733 2
-6 -9 12 619.506 379.335 3
-9 -6 -12 760.065 270.96 1
-6 -9 12 605.469 309.692 4
-9 -6 -12 700.521 304.981 3
-6 15 -12 394.063 282.833 3
-9 15 15 852.239 342.943 3
-9 -6 -15 698.313 229.033 1
-6 15 -15 441.837 304.869 1
15 -6 15 505.631 677.639 2
-9 -6 -15 895.993 283.612 3
-6 -9 15 547.381 247.585 3
-5 -10 -13 566.398 264.952 3
15 -10 13 837.861 366.593 2
-10 15 -13 662.218 353.77 1
-5 -10 -13 159.935 81.8349 1
-10 -5 13 774.373 295.443 4
-5 15 13 134.657 233.403 3
-10 15 -13 23.4837 170.253 3
-5 15 10 338.234 287.899 3
-10 15 -10 428.75 238.1 3
-5 -10 -10 705.558 306.753 2
-5 -10 -10 448.544 127.107 1
15 -10 10 158.863 250.464 2
-10 15 -10 334.841 311.84 1
-10 -5 10 127.791 157.136 4
-5 15 10 -173.89 269.005 4
-5 -10 -10 214.499 112.69 3
-5 15 7 1857.36 504.647 3
-10 15 -7 1450.51 400.708 3
-5 15 7 1605.88 296.386 1
-5 -10 -7 1541.92 393.799 2
15 -10 7 1916.83 660.411 2
-10 15 -7 1258.26 414.269 1
-5 15 7 2148.29 634.949 4
-5 -10 -7 1714.45 481.562 3
-10 -5 7 1729.79 445.463 4
-5 15 4 3753.91 704.271 3
-10 15 -4 4916.96 857.026 2
15 -10 4 7667.77 1265.6 2
-5 -10 -4 4977.72 678.499 2
15 -10 4 6806.23 1121.57 1
15 -5 -4 3546.99 678.639 1
-5 15 4 3950.12 781.24 4
-10 15 -4 4806.4 800.91 3
-5 -10 -4 4875.1 788.023 3
-10 15 -4 5563.25 940.841 1
-5 15 4 4328 559.378 1
-5 15 1 1561.01 485.986 3
15 -10 1 2120.57 635.412 1
-10 15 -1 1982.91 531.418 2
-5 15 1 1392.94 395.24 1
-10 -5 1 2256.79 574.266 2
-10 15 -1 1824.03 505.307 1
-5 15 1 1719.94 455.369 4
15 -5 -1 2248.2 580.237 2
-5 -10 -1 1732.08 545.932 3
15 -10 1 2617.7 654.324 2
15 -5 -1 2613.68 556.923 1
15 -10 -2 2052.16 537.497 2
-10 15 2 1556.88 412.787 1
-5 15 -2 1524.57 428.878 1
-10 -5 -2 1045.77 324.063 1
-10 15 2 1665.57 377.404 2
15 -5 2 1226.3 474.898 1
15 -10 -2 1651.91 510.118 1
15 -5 2 1257.16 485.353 2
-10 -5 -2 1510.66 468.449 2
-5 -10 2 1656.44 521.81 4
-10 15 2 763.254 265.263 4
-5 15 -2 769.69 195.995 4
-5 -10 2 1049.59 393.092 3
-5 15 -2 1003.44 270.069 3
15 -5 5 -155.863 288.384 1
-10 -5 -5 218.899 221.859 1
15 -10 -5 -110.604 156.5 1
-5 15 -5 222.634 224.108 1
-10 15 5 416.042 231.078 2
-10 -5 -5 89.4149 178.977 2
15 -5 5 427.72 378.947 2
-5 -10 5 263.208 312.537 4
-10 15 5 601.752 289.538 1
-10 15 5 253.279 266.083 4
15 -10 -5 53.0851 144.775 4
-5 -10 5 -50.5318 224.139 3
-5 15 -5 460.364 316.601 3
-10 15 8 777.992 261.457 1
-10 -5 -8 402.773 198.262 1
-5 15 -8 183.756 168.07 1
15 -10 -8 379.519 254.016 1
-10 -5 -8 521.014 243.684 2
15 -5 8 431.398 192.788 2
-10 15 8 575.891 281.661 4
15 -5 8 929.327 374.193 1
-5 -10 8 974.259 415.209 4
-10 15 8 765.602 258.666 2
-5 -10 8 380.511 198.417 3
-5 15 -8 380.179 164.154 3
-5 15 -11 1565.99 482.417 1
-10 -5 -11 1437.13 539.972 2
15 -5 11 2411.84 847.715 2
-10 15 11 738.892 345.287 4
-10 -5 -11 609.087 297.309 1
-5 -10 11 1290.83 621.847 4
-5 -10 11 479.002 399.889 3
-5 15 -11 1064.18 339.326 3
-5 15 -14 72.8143 241.621 1
-10 -5 -14 754.335 270.195 1
15 -5 14 934.729 731.995 2
-10 15 14 213.37 261.539 4
-5 -10 14 387.511 281.294 3
-10 -5 -14 420.603 236.314 3
-4 -11 -14 533.394 236.992 3
-4 15 14 268.863 172.181 2
15 -11 14 660.476 543.896 2
-11 15 -14 594.797 349.412 1
-4 -11 -14 447.386 149.435 1
-11 -4 14 784.21 294.114 4
-11 15 -14 98.8478 118.483 3
-4 15 14 916.184 377.077 3
-4 -11 -11 584.172 290.856 3
-11 15 -11 176.034 112.157 3
-4 15 11 273.788 108.783 2
15 -11 11 -212.759 395.671 2
-11 15 -11 243.57 295.548 1
-11 -4 11 -61.1263 255.133 4
-4 15 11 127.689 167.744 3
-11 15 -8 1183.63 420.252 3
-4 -11 -8 1674.56 400.362 2
15 -11 8 660.093 553.896 2
-11 15 -8 724.813 287.914 1
-11 -4 8 743.75 261.429 4
-4 15 8 1076.23 573.456 4
-4 -11 -8 1211.49 411.881 3
-4 15 8 1742.81 526.901 3
-11 15 -5 1753.69 518.62 2
15 -11 5 2024.79 583.846 2
-4 15 5 1543.75 534.676 4
-4 -11 -5 2264.92 399.517 2
-11 15 -5 1814.9 576.58 1
15 -11 5 2136.74 570.818 1
15 -4 -5 1710.36 490.192 1
-4 15 5 1837.82 302.311 1
-4 -11 -5 2153.66 510.318 3
-4 15 5 2133.34 535.179 3
15 -4 -2 680.933 264.926 1
-11 15 -2 1053.94 463.626 2
-4 15 2 335.922 183.06 1
15 -11 2 1348.29 589.498 2
-4 15 2 1058.59 414.666 4
-11 15 -2 1073.68 458.782 1
-4 -11 -2 779.349 300.51 2
-4 -11 -2 626.804 319.993 3
15 -4 -2 703.024 334.344 2
15 -11 2 1230.3 543.444 1
-4 15 2 482.732 276.873 3
-11 15 1 487.862 311.935 1
-4 15 -1 338.746 179.584 1
15 -11 -1 504.324 369.095 1
-11 15 1 756.115 337.503 2
-4 15 -1 687.045 305.806 4
-11 -4 -1 558.008 266.304 2
15 -4 1 -125.936 212.928 1
15 -11 -1 -6.00737 273.269 2
-4 15 -1 403.106 182.117 3
15 -4 1 418.856 229.921 2
-11 -4 -1 386.983 218.178 1
-4 -11 1 166.964 231.781 4
-4 -11 1 310.073 210.265 3
-4 15 -4 975.414 387.456 1
15 -4 4 893.423 420.381 1
-11 -4 -4 346.78 242.882 1
15 -11 -4 82.3152 149.084 4
-11 15 4 984.52 347.181 2
-11 15 4 1178.71 421.577 1
15 -4 4 429.282 287.036 2
-11 15 4 720.448 322.333 4
-11 -4 -4 498.962 226.449 2
15 -11 -4 308.325 171.539 1
-4 -11 4 745.689 359.858 3
15 -11 -4 1000.09 387.626 2
-4 -11 4 335.561 335.244 4
-4 15 -4 329.163 259.065 3
15 -11 -7 732.037 335.84 1
-4 15 -7 702.188 327.69 1
-11 -4 -7 676.951 276.866 1
-11 -4 -7 1000.79 473.61 2
-11 15 7 1125.85 331.011 1
15 -4 7 610.836 424.262 2
15 -11 -7 1089.09 332.624 4
-11 15 7 563.541 171.559 2
-11 15 7 685.636 308.921 4
-4 -11 7 752.503 301.152 4
15 -4 7 1264.09 504.569 1
-4 -11 7 887.359 422.295 3
-4 15 -7 875.624 300.114 3
-4 15 -10 165.093 167.508 1
-4 -11 10 589.918 314.996 3
-11 -4 -10 343.057 308.15 2
15 -4 10 243.665 391.482 2
-4 -11 10 501.819 346.306 4
-11 -4 -10 389.788 253.928 1
-11 15 10 114.828 157.164 4
-11 15 10 478.44 312.026 2
-4 15 -10 522.42 266.482 3
-4 15 -13 385.609 357.639 1
-11 -4 -13 219.262 183.599 1
15 -4 13 638.338 326.15 2
-11 15 13 -87.3714 324.102 4
-4 -11 13 104.985 286.993 3
-3 15 15 -465.991 288.245 2
-12 15 -15 99.4422 323.544 1
-12 -3 15 -109.261 247.415 4
-3 -12 -15 106.336 63.8915 1
-3 15 15 75.159 251.086 3
-12 15 -15 190.778 162.429 3
-12 15 -12 1963.28 489.717 3
-3 -12 -12 2587.98 540.232 3
-3 15 12 2089.32 391.17 2
15 -12 12 2749.62 980.072 2
-12 -3 12 2539.57 518.854 4
-12 15 -12 2498.04 710.52 1
-3 15 12 2501.03 639.571 3
-12 15 -9 814.826 260.528 3
-3 -12 -9 1261.29 335.446 2
15 -12 9 1523.52 740.919 2
-12 15 -9 1152.74 519.126 1
-12 -3 9 647.034 250.032 4
-3 15 9 1294.17 622.39 4
-3 15 9 205.64 201.169 3
-3 -12 -9 1175.36 387.884 3
-12 15 -6 11127.7 1409.33 2
-3 -12 -6 9453.05 766.722 2
15 -12 6 14178.2 1841.97 2
-3 15 6 9325 1353.06 4
-3 15 6 9821.32 1188.43 3
-3 -12 -6 10877.9 1229.08 3
-12 15 -6 11223.1 1439.57 1
-3 15 6 8773.66 604.204 1
-12 15 -3 1408.76 503.276 2
-12 15 -3 1723.28 558.241 1
-3 15 3 2052.88 414.185 1
15 -12 3 1649.57 654.309 2
15 -3 -3 2703.63 613.401 1
-3 15 3 1921.28 541.581 4
15 -12 3 2033 637.952 1
-3 -12 -3 1554.84 346.054 2
-3 -12 -3 1459.5 478.668 3
-3 15 3 1958.34 561.53 3
15 -12 0 3273.48 723.395 1
-12 -3 0 2828.56 589.079 1
-3 15 0 2798.25 536.039 1
-12 15 0 3440.74 678.203 2
15 -12 0 3643.21 813.689 2
-3 15 0 2894.9 631.22 4
-12 -3 0 3244.57 691.659 2
15 -3 0 3669.62 760.407 2
-12 15 0 4268.04 815.277 1
-3 -12 0 1384.46 525.558 4
-3 -12 0 2972.51 644.326 3
15 -3 0 2559.64 613.557 1
-3 15 0 3151.25 650.143 3
-3 15 -3 80.7385 188.305 1
-12 -3 -3 125.615 120.931 1
15 -12 -3 590.26 331.738 1
15 -3 3 244.52 173.655 1
-12 15 3 101.209 230.149 1
-12 15 3 225.792 183.339 2
-12 -3 -3 214.67 229.636 2
15 -3 3 229.016 263.749 2
15 -12 -3 668.736 311.958 2
-3 -12 3 -33.7671 323.352 4
15 -12 -3 29.1658 238.436 4
-3 15 -3 273.71 198.37 4
-3 -12 3 523.393 367.553 3
-3 15 -3 138.912 141.542 3
15 -3 6 1038.82 417.87 1
-3 15 -6 680.044 222.301 1
-12 15 6 535.333 321.892 1
15 -3 6 1186.72 539.936 2
-12 -3 -6 707.225 310.047 1
-12 -3 -6 859.735 443.406 2
-12 15 6 602.601 276.798 4
-12 15 6 274.146 144.32 2
15 -12 -6 375 205.314 4
-3 -12 6 761.784 342.495 4
15 -12 -6 395.361 257.529 1
-3 15 -6 273.349 192.271 3
-3 -12 6 1064.28 506.663 3
15 -3 9 423.964 364.039 1
-12 15 9 380.937 235.006 1
-3 15 -9 235.712 319.358 1
15 -12 -9 299.308 324.459 1
-12 -3 -9 451.758 351.894 2
15 -3 9 519.098 297.15 2
-3 -12 9 323.955 312.31 4
-12 15 9 308.713 282.211 4
-12 -3 -9 693.578 351.266 1
-12 15 9 143.968 143.014 2
-3 15 -9 362.857 204.404 3
-3 -12 9 204.974 165.146 3
-3 15 -12 -190.007 353.218 1
-12 -3 -12 809.593 316.427 1
15 -3 12 43.4993 347.761 2
-3 -12 12 589.435 480.229 4
-3 -12 12 1025.04 410.871 3
-12 15 12 794.407 344.044 4
-3 15 -15 316.673 328.051 1
-12 -3 -15 -158.624 295.856 1
15 -3 15 533.982 444.897 2
-12 15 15 475.244 261.441 4
-12 -3 -15 154.368 147.41 3
-3 -12 15 245.592 232.084 3
-13 15 -13 324.624 239.155 3
-2 -13 -13 549.511 243.417 3
-2 15 13 827.847 281.862 2
15 -13 13 826.22 572.17 2
-13 15 -13 667.77 453.175 1
-13 -2 13 447.201 220.596 4
-2 15 13 845.501 398.055 3
-2 -13 -10 271.821 240.231 3
-13 15 -10 191.44 154.144 3
15 -13 10 277.096 499.407 2
-13 15 -10 134.317 186.737 1
-2 15 10 68.4318 168.078 3
-2 -13 -7 1608.21 289.058 2
15 -13 7 1640.16 511.901 2
-2 15 7 1532.85 560.188 4
-13 15 -7 1662.61 594.368 1
-2 15 7 1129.65 370.126 3
-2 -13 -7 1435.99 392.946 3
-13 15 -4 1918.97 588.593 2
-2 15 4 1414.01 309.763 1
15 -13 4 993.931 473.698 2
15 -13 4 1419.44 548.621 1
-2 15 4 2549.73 706.681 4
-2 -13 -4 1480.93 310.664 2
-13 15 -4 1671.44 563.403 1
-2 15 4 1997.17 504.585 3
-2 -13 -4 1374.42 457.428 3
15 -2 -4 750.918 327.969 1
-13 15 -1 4482.36 855.61 1
-13 -2 1 3095.96 652.112 1
-2 15 1 3088.83 707.736 4
-13 15 -1 4685.51 861.118 2
-2 15 1 3186.01 541.371 1
15 -2 -1 2543.81 564.884 1
15 -13 1 3937.84 806.349 2
-13 -2 1 3692.79 719.75 2
15 -13 1 4509.41 887.327 1
15 -2 -1 2665.06 591.839 2
-2 15 1 2579.85 582.546 3
-2 -13 -1 3758.2 775.459 3
15 -2 2 356.397 231.766 1
-2 15 -2 135.028 144.775 1
15 -13 -2 516.445 383.861 1
-13 15 2 -14.2675 288.738 1
-13 15 2 311.259 115.351 2
-13 -2 -2 159.628 162.372 1
-13 -2 -2 443.537 335.391 2
-2 15 -2 -48.5694 140.342 4
15 -13 -2 322.705 336.116 2
-2 -13 2 -374.219 355.963 4
15 -2 2 567.874 342.389 2
-2 15 -2 307.798 208.697 3
-2 -13 2 542.074 399.799 3
-2 15 -5 545.414 260.98 1
15 -2 5 1164.93 497.467 1
-13 -2 -5 424.561 235.98 1
-13 -2 -5 995.142 410.251 2
15 -13 -5 411.036 231.017 1
15 -2 5 1448.35 562.476 2
-13 15 5 534.011 248.37 2
15 -13 -5 1111.19 307.653 4
-2 -13 5 133.449 186.461 4
-13 15 5 815.542 285.535 4
-2 15 -5 599.366 286.612 3
15 -13 -5 862.394 454.821 2
-2 -13 5 748.732 436.1 3
-13 15 5 462.745 236.056 1
-2 15 -8 2594.19 669.381 1
-13 15 8 2612.57 574.771 1
-13 -2 -8 3359.54 816.468 2
15 -2 8 2432.64 774.389 2
-13 15 8 1877.62 485.675 4
-13 15 8 2880.84 615.737 2
-2 -13 8 4652.82 1060.6 4
15 -2 8 3177.88 752.082 1
-13 -2 -8 2435.46 613.092 1
-2 15 -8 2446.67 574.656 3
15 -13 -8 2740.4 664.44 1
-2 -13 8 3097.66 745.649 3
-2 15 -11 943 425.843 1
15 -13 -11 717.002 225.028 1
-13 -2 -11 982.959 339.506 1
15 -2 11 1984.57 755.637 2
15 -2 11 1596.54 547.033 1
-13 15 11 1403.23 557.383 4
-13 15 11 760.364 320.307 2
-2 -13 11 962.311 429.304 3
-2 15 -14 155.967 307.508 1
-13 -2 -14 382.81 215.614 1
-2 -13 14 184.393 273.307 3
15 -2 14 657.445 439.223 2
-13 15 14 11.309 290.702 4
15 -14 14 -341.534 429.398 2
-1 15 14 321.653 184.679 2
-14 15 -14 391.105 274.832 1
-14 15 -14 26.6411 129.005 3
-14 -1 14 21.2712 139.976 4
-1 15 14 140.618 196.951 3
-14 15 -11 564.906 312.641 3
15 -14 11 1466.72 608.765 2
-1 15 11 947.232 231.883 2
-14 15 -11 433.371 305.102 1
-1 -14 -11 155.455 146.805 3
-1 15 11 729.419 390.637 3
-1 -14 -8 1429.82 452.493 3
15 -14 8 1507.87 690.363 2
-14 15 -8 1292.11 505.285 1
-1 15 8 1635.48 706.894 4
-1 15 8 1637.8 523.212 3
-1 -14 -5 3655.28 418.414 2
-14 15 -5 2850.62 787.244 2
15 -14 5 3902.99 986.336 2
-1 15 5 5435.74 1091.82 4
-14 15 -5 3432.01 863.747 1
-1 15 5 5249.47 901.16 3
-1 15 5 4727.77 501.476 1
-1 -14 -5 3611.15 753.135 3
-14 15 -2 1620.47 601.702 1
-1 15 2 1719.37 425.502 1
-14 15 -2 1540.69 506.268 2
-14 -1 2 1705.56 520.45 1
15 -14 2 1097.58 580.717 2
15 -1 -2 2066.09 549.442 1
15 -14 2 1674.87 638.695 1
-14 -1 2 1789.02 621.919 2
-1 15 2 1602.56 485.73 3
-1 -14 -2 1155.59 482.958 3
-1 15 2 3258.49 743.97 4
15 -14 -1 1215.5 462.387 1
-1 15 -1 1230.69 398.839 1
-1 15 -1 875.875 358.151 3
-14 15 1 863.927 339.765 1
-14 15 1 1382.5 474.757 2
-14 -1 -1 580.844 287.79 1
15 -14 -1 925.75 413.845 2
-14 -1 -1 1144.47 394.411 2
-1 15 -1 1074.09 413.24 4
-1 -14 1 553.421 392.937 4
15 -1 1 1373.84 446.6 2
-1 -14 1 1091.88 401.87 3
15 -1 1 433.438 165.311 1
-1 15 -4 1307.19 397.691 1
15 -14 -4 1196.61 452.362 1
15 -1 4 1816.52 603.13 1
-14 -1 -4 1894.5 556.042 2
-14 -1 -4 1318.37 401.545 1
-14 15 4 1342.65 392.299 2
-1 -14 4 1314.81 510.385 4
15 -1 4 1689.62 755.821 2
15 -14 -4 1565.05 450.878 4
15 -14 -4 1916.79 539.591 2
-14 15 4 1464.23 406.117 1
-1 15 -4 1345.94 428.415 3
-1 15 -4 620.111 205.496 4
-1 -14 4 1576.83 629.351 3
15 -1 7 1313.44 525.622 1
-1 15 -7 1337.77 418.888 1
-14 15 7 795.053 288.643 4
15 -14 -7 1019.15 368.027 4
-14 -1 -7 1312.67 519.373 2
15 -1 7 2541.57 780.748 2
-14 15 7 1275.71 407.5 1
-1 -14 7 1533.29 679.125 4
15 -14 -7 1721.46 508.328 1
-14 15 7 986.028 416.884 2
-1 -14 7 2355.55 751.233 3
-14 -1 -7 1035.68 357.905 1
-1 15 -10 390.026 299.137 1
15 -1 10 858.902 438.186 1
-14 15 10 619.132 321.412 1
15 -1 10 1181.3 535.108 2
-14 -1 -10 919.224 330.478 1
-14 15 10 582.624 310.636 4
-14 15 10 685.461 324.454 2
-1 -14 10 1424.45 553.48 3
15 -14 -10 949.67 415.799 1
-1 15 -13 643.218 345.409 1
-14 -1 -13 536.961 239.38 1
-1 -14 13 847.347 496.206 3
15 -1 13 494.327 539.68 2
-14 15 13 647.917 411.371 4
15 -15 15 -17.7422 479.641 2
0 15 15 -177.741 193.189 2
-15 0 15 379.303 182.02 4
0 15 15 127.973 183.713 3
15 -15 12 446.857 330.123 2
0 15 12 599.591 235.264 2
-15 15 -12 125.157 473.104 1
0 15 12 388.126 270.838 3
0 -15 -9 3128.85 680.97 3
15 -15 9 3754.49 1210.79 2
-15 15 -9 2694.37 782.979 1
0 15 9 1808.09 513.308 3
0 -15 -6 321.505 201.585 3
0 15 6 852.035 195.982 1
15 0 -6 616.726 160.775 4
15 -15 6 -140.149 410.973 2
0 15 6 218.401 279.272 4
-15 15 -6 47.1307 365.76 1
0 15 6 564.724 170.562 3
-15 15 -3 5760.26 987.85 1
-15 15 -3 5674.93 997.566 2
15 -15 3 4689.82 941.353 2
0 15 3 3277.66 778.947 4
0 15 3 3364.6 628.427 3
0 15 3 3931.99 503.897 1
0 -15 -3 4351.02 774.01 3
-15 0 0 473.117 268.659 2
0 15 0 247.32 224.255 4
15 0 0 684.812 305.809 1
-15 15 0 1375.83 462.614 1
-15 15 0 1001.62 387.242 2
0 -15 0 915.051 482.653 4
15 -15 0 1167.1 488.816 2
15 -15 0 1642.8 561.658 1
-15 0 0 1114.45 366.376 1
0 15 0 820.478 308.131 3
15 0 0 1026.26 391.06 2
0 -15 0 901.123 460.837 3
0 15 -3 2079.47 502.876 4
-15 15 3 2711.9 652.834 2
15 0 3 1954.98 557.862 2
-15 0 -3 2622.93 631.21 2
15 0 3 2134.89 581.818 1
0 -15 3 2925.4 840.553 4
-15 0 -3 2594.72 635.663 1
-15 15 3 2476.14 717.1 1
15 -15 -3 3249.6 800.342 2
15 -15 -3 4758 1029.31 4
0 -15 3 2795.56 740.5 3
15 -15 -3 4254.08 895.001 1
-15 0 -6 3321.45 702.567 1
-15 0 -6 4580.9 959.367 2
15 -15 -6 4930.51 882.976 1
-15 15 6 4276.88 791.86 2
15 0 6 3937.28 841.243 1
-15 15 6 3837.71 766.709 1
0 -15 6 4510.77 1012.44 4
15 0 6 5428.75 1045.95 2
15 -15 -6 4118.21 808.705 4
0 -15 6 4431.63 893.836 3
15 0 9 1369.22 594.806 2
-15 0 -9 1505.4 488.476 1
-15 15 9 1267.56 457.535 2
15 -15 -9 1584.16 490.842 1
-15 15 9 1013.97 323.114 4
15 0 9 1820.86 588.779 1
0 -15 9 1626.37 555.633 3
-15 15 9 880.61 265.674 1
0 15 -12 706.731 374.113 1
15 -15 -12 -45.7362 259.329 1
-15 0 -12 758.873 344.617 1
15 0 12 1108.84 509.405 2
15 0 12 1427.11 571.696 1
-15 15 12 414.582 311.214 4
-15 15 12 142.75 220.12 2
0 -15 12 926.483 472.016 3
15 0 15 631.897 446.479 2
-15 15 15 267.656 290.955 4
0 -15 15 1000.09 537.186 3
15 -16 13 -81.2904 460.912 2
1 15 13 726.478 266.143 2
-16 15 -13 366.275 402.205 1
1 15 13 577.539 332.874 3
1 -16 -10 1777.89 580.795 3
15 -16 10 1899.29 826.751 2
1 15 10 1482.07 312.243 2
-16 15 -10 1686.27 659.257 1
1 15 10 1178.34 425.817 3
1 -16 -7 3478.97 727.027 3
-16 15 -7 4907.9 1029.47 1
15 -16 7 5219.22 1321.41 2
1 15 7 3555.28 994.075 4
15 1 -7 3188.16 414.588 4
1 15 7 3396.65 708.5 3
-16 15 -4 3555.44 781.646 1
1 -16 -4 3543.7 717.434 3
1 -16 -4 2559.93 325.287 2
15 -16 4 2440.87 695.819 2
1 15 4 3112.5 685.721 3
1 15 4 3186.49 437.708 1
1 15 4 3412.98 828.109 4
1 -16 -1 68.1229 151.515 3
-16 1 1 365.708 293.707 1
-16 15 -1 616.27 477.336 1
-16 15 -1 940.717 491.579 2
1 15 1 1337.9 504.465 4
15 -16 1 558.717 400.674 2
15 -16 1 351.436 283.782 1
15 1 -1 417.649 134.908 1
15 -16 -2 574.396 302.758 4
-16 15 2 326.127 230.083 2
-16 1 -2 471.326 368.203 2
1 15 -2 245.637 229.83 4
-16 15 2 716.442 421.698 1
-16 1 -2 789.54 421.351 1
15 1 2 497.206 359.145 2
15 -16 -2 618.305 361.372 2
15 -16 -2 621.137 360.299 1
15 1 2 607.058 269.623 1
1 -16 2 90.1712 223.092 3
15 -16 -5 2640.6 684.616 4
-16 1 -5 1939.57 574.356 1
15 -16 -5 1845.81 525.25 1
-16 15 5 2040.87 657.078 1
15 1 5 1794.62 528.937 1
-16 15 5 1947.12 545.117 2
1 15 -5 1124.2 416.711 4
15 1 5 1128.92 516.022 2
15 -16 -5 1553.48 533.759 2
1 -16 5 2115.48 589.292 3
15 1 8 278.025 238.174 2
-16 15 8 1057.75 421.74 1
15 -16 -8 325.335 265.603 1
15 -16 -8 387.995 241.788 4
-16 1 -8 519.236 274.71 1
-16 15 8 251.572 262.337 2
-16 15 8 63.2747 170.402 4
15 1 8 613.647 237.88 1
1 -16 8 896.551 516.529 3
-16 1 -11 1238.15 457.094 1
15 1 11 1319.86 637.007 2
15 1 11 1362.81 501.182 1
-16 15 11 617.577 263.436 4
15 -16 -11 1953.18 624.557 1
-16 15 11 1760.76 598.764 2
1 -16 11 2207.49 738.054 3
1 15 -14 437.701 402.421 1
-16 1 -14 375.61 248.699 1
15 1 14 570.345 555.622 2
-16 15 14 983.322 443.16 4
1 -16 14 638.291 469.772 3
2 15 14 425.307 227.693 2
-17 15 -14 55.1783 251.232 1
2 15 11 7.04253 111.181 2
15 -17 11 -192.05 415.787 2
-17 15 -11 -156.462 294.462 1
2 -17 -8 1139.07 394.485 3
15 -17 8 632.061 584.914 2
2 15 8 1276.13 448.313 3
-17 15 -8 342.274 230.532 1
-17 15 -5 3858.65 863.895 1
2 -17 -5 2996.04 739.589 3
15 -17 5 2867.19 837.263 2
2 15 5 3420.87 879.41 4
15 2 -5 2664.15 484.564 4
2 -17 -2 3016.65 718.567 3
-17 15 -2 3612.32 843.391 1
-17 2 2 3112.46 714.901 1
-17 15 -2 3655.84 854.21 2
15 -17 2 3440.31 805.314 2
2 15 2 3105.9 795.817 4
2 -17 1 1914.06 605.704 3
15 2 1 2355.56 606.275 1
-17 15 1 2339.51 653.492 2
-17 15 1 1802.02 622.823 1
15 -17 -1 2343.69 598.719 2
15 -17 -1 2091.28 602.646 1
2 15 -1 1264.32 446.577 4
15 -17 -1 2940.86 861.789 4
15 2 1 1373.61 472.566 2
-17 2 -1 1787.98 576.287 1
15 -17 -4 486.022 300.586 1
2 -17 4 625.732 416.412 3
-17 2 -4 285.496 274.646 1
15 -17 -4 634.981 476.578 2
15 -17 -4 269.342 274.525 4
-17 15 4 292.949 167.979 1
-17 15 4 196.725 196.81 2
15 2 4 826.5 482.584 2
2 15 -4 330.083 162.2 4
15 2 4 427.322 340.579 1
2 -17 7 679.631 528.688 3
15 2 7 -48.7752 161.456 1
15 -17 -7 192.215 197.765 1
15 2 7 -36.4693 244.241 2
15 -17 -7 345.228 261.06 4
-17 2 -7 595.664 392.806 1
-17 15 7 603.434 337.872 2
-17 15 7 153.493 173.691 1
2 -17 10 799.268 475.449 3
-17 15 10 420.813 444.003 1
-17 2 -10 217.743 156.921 1
15 -17 -10 239.377 274.79 1
15 2 10 499.573 452.021 2
15 2 10 280.843 246.748 1
-17 15 10 -120.034 130.217 4
-17 15 10 155.022 298.142 2
2 -17 13 1375.8 651.976 3
-17 2 -13 642.186 403.163 1
-17 15 13 412.904 264.645 4
15 2 13 -25.3608 331.953 1
15 2 13 335.06 403.77 2
15 -17 -13 358.294 251.262 1
15 -18 12 1363.42 689.499 2
3 15 12 609.534 276.037 2
-18 15 -12 -342.128 270.194 1
15 -18 9 1188.71 744.186 2
-18 15 -9 784.35 517.521 1
-18 15 -6 282.395 248.098 1
15 3 -6 1254.19 318.033 4
3 -18 -6 1071.52 469.086 3
3 15 6 914.005 239.138 1
15 -18 6 974.121 550.511 2
3 -18 -3 1506.7 514.71 3
3 -18 -3 1661.35 312.337 2
-18 15 -3 3154.19 826.77 1
-18 3 3 1722.5 562.454 1
15 -18 3 1947.98 698.529 2
3 15 3 2622.55 809.557 4
15 -18 0 2751.72 713.59 1
3 -18 0 1407.33 488.253 3
-18 3 0 1000.94 420.104 1
-18 15 0 1881.79 641.911 2
-18 15 0 2001.97 633.726 1
15 -18 0 1292.69 351.772 2
3 15 0 1412.96 531.626 4
15 3 0 921.074 371.419 1
15 -18 0 2027.71 714.83 4
3 -18 3 4144.87 922.247 3
-18 3 -3 3576.83 831.454 1
-18 15 3 3251.65 725.858 2
15 3 3 3028.39 713.897 1
15 -18 -3 3006.56 683.053 2
15 -18 -3 4106.48 981.532 4
3 15 -3 2438 614.592 4
15 -18 -3 3180.98 695.081 1
15 3 3 2855.04 753.448 2
-18 15 3 3095.93 780.706 1
3 -18 6 131.43 383.272 3
15 -18 -6 217.587 130.075 1
15 3 6 195.849 137.862 1
-18 15 6 487.696 205.571 1
15 -18 -6 -59.207 317.911 4
-18 15 6 225.059 235.549 2
15 3 6 463.585 373.554 2
3 15 -6 -10.8556 167.192 4
15 -18 -6 285.906 190.992 2
-18 3 -6 376.751 362.118 1
3 -18 9 1676.81 596.474 3
-18 15 9 924.811 420.515 1
15 -18 -9 1363.79 489.182 1
-18 3 -9 1583.74 535.69 1
15 3 9 1287.82 529.567 2
15 3 9 1966.71 618.558 1
3 -18 12 1060.14 542.927 3
-18 3 -12 1459.09 575.173 1
15 3 12 621.557 450.912 2
15 3 12 512.344 301.307 1
15 -18 -12 705.795 420.075 1
-18 15 12 95.9722 118.153 4
15 -19 13 -43.9613 435.349 2
4 15 13 202.607 288.637 2
-19 15 -13 -95.7515 370.18 1
15 -19 10 517.639 408.23 2
4 15 10 889.223 336.159 2
-19 15 -10 152.28 222.585 1
-19 15 -7 186.052 183.093 1
4 15 7 241.541 123.395 1
15 -19 7 499.611 242.762 2
15 4 -7 264.094 144.965 4
-19 4 4 -301.558 401.632 1
4 -19 -4 -274.01 326.345 3
-19 15 -4 520.05 308.933 1
15 4 -4 61.5327 159.473 4
4 -19 -4 72.2344 82.4657 2
15 -19 4 -304.904 220.566 2
4 15 4 -20.7257 337.858 4
4 -19 -1 250.513 247.466 3
4 -19 -1 249.891 154.451 2
-19 4 1 611.961 323.635 1
15 -19 1 170.55 300.44 2
-19 15 -1 740.569 498.42 1
4 15 1 482.842 242.598 4
4 -19 2 2319.89 678.61 3
15 4 2 1726.36 522.17 1
-19 4 -2 2243.83 659.241 1
15 -19 -2 1904.66 618.169 1
15 -19 -2 2526.83 638.517 2
4 15 -2 2110.65 606.762 4
15 4 2 1829.52 547.34 2
-19 15 2 3266.89 853.517 1
-19 4 -5 794.491 462.603 1
4 -19 5 943.322 515.192 3
-19 15 5 458.586 347.511 1
15 4 5 115.854 151.426 1
15 4 5 749.699 354.35 2
15 -19 -5 309.555 203.07 4
15 -19 -5 355.589 180.939 1
4 15 -5 348.862 264.096 4
15 -19 -5 935.13 375.273 2
4 -19 8 541.28 241.233 3
15 -19 -8 366.661 271.692 1
15 4 8 437.214 219.486 1
-19 15 8 302.609 368.145 1
15 4 8 391.657 337.173 2
15 -19 -8 479.723 336.11 4
-19 4 -8 123.24 300.547 1
4 -19 11 1229.07 581.569 3
15 -19 -11 924.297 441.363 1
-19 4 -11 544.226 408.913 1
-19 15 11 600.615 373.754 1
15 4 11 970.817 436.108 1
15 4 11 570.44 411.957 2
15 -20 11 -207.31 609.535 2
5 15 11 860.654 385.085 2
-20 15 -11 580.929 483.026 1
-20 15 -8 256.353 224.093 1
15 -20 8 447.875 634.043 2
5 15 8 382.856 173.085 1
15 5 -8 219.45 94.9445 4
5 -20 -5 384.311 342.505 3
-20 15 -5 1082.93 688.869 1
15 -20 5 1279.49 639.794 2
-20 5 5 655.191 335.639 1
5 15 5 1149.36 616.821 4
15 5 -5 1068.4 341.352 4
5 15 5 899.507 266.639 1
5 -20 -2 671.41 323.349 3
5 -20 -2 877.725 303.622 2
15 -20 2 593.577 342.194 2
-20 15 -2 1125.19 503.604 1
-20 5 2 872.52 503.002 1
5 15 2 628.157 286.987 4
5 -20 1 486.435 359.049 3
5 -20 1 109.474 180.587 2
-20 15 1 44.0995 178.173 1
15 -20 -1 515.534 324.316 2
-20 5 -1 -37.2343 177.906 1
5 15 -1 589.502 390.215 4
5 -20 4 105.644 231.132 3
-20 5 -4 939.051 540.484 1
-20 15 4 289.027 230.704 1
15 -20 -4 409.872 276.795 2
5 15 -4 227.246 167.976 4
15 5 4 -321.328 420.424 2
15 -20 -4 882.94 446.991 1
15 5 4 340.393 207.531 1
5 -20 7 1025.29 584.51 3
-20 15 7 117.246 355.459 1
15 5 7 556.745 165.476 1
-20 5 -7 829.497 457.647 1
15 5 7 604.62 351.651 2
15 -20 -7 383.214 187.009 1
5 -20 10 705.143 566.536 3
-20 15 10 -381.381 350.242 1
15 -20 -10 273.359 269.045 1
-20 5 -10 517.994 394.172 1
15 5 10 746.45 259.802 2
15 5 10 1173.48 486.841 1
5 -20 13 120.86 409.343 3
15 5 13 398.915 247.182 1
15 5 13 535.193 391.618 2
15 -21 12 261.034 489.223 2
6 15 12 780.732 440.31 2
-21 15 -12 198.301 523.679 1
-21 15 -9 179.235 219.886 1
6 15 9 318.757 115.58 1
15 -21 9 87.5157 386.093 2
-21 6 6 483.171 262.441 1
-21 15 -6 1551.46 599.363 1
15 -21 6 2139.65 861.397 2
6 15 6 1531.84 346.502 1
15 6 -6 1458.58 415.637 4
6 -21 -3 1551.73 554.912 3
6 -21 -3 2427.16 427.642 2
15 -21 3 2532.85 733.78 2
-21 15 -3 4349.17 986.491 1
15 6 -3 2106.36 571.107 4
6 15 3 3009.3 776.846 4
-21 6 3 1613.35 577.464 1
6 -21 0 893.684 430.774 3
6 -21 0 1364.92 435.679 2
-21 15 0 1695.06 569.256 1
15 -21 0 980.57 378.951 2
6 15 0 1144.81 546.099 4
-21 6 0 1358.31 508.301 1
6 -21 3 585.782 512.09 3
6 -21 3 584.599 227.812 2
-21 15 3 -15.1882 373.772 1
15 6 3 247.723 145.915 1
-21 6 -3 285.163 216.843 1
15 -21 -3 304.735 168.324 2
6 15 -3 390.386 237.604 4
15 -21 -3 242.673 181.948 1
6 -21 6 -254.738 423.748 3
15 6 6 436.115 313.242 1
15 -21 -6 -315.407 242.438 1
6 15 -6 415.969 271.446 4
15 6 6 45.7282 258.759 2
-21 6 -6 307.981 324.549 1
-21 15 6 -168.51 432.578 1
15 -21 -6 -32.348 199.599 2
6 -21 9 509.871 394.821 3
15 6 9 575.91 402.214 1
-21 15 9 41.9315 200.729 1
-21 6 -9 848.761 388.208 1
15 6 9 412.956 305.54 2
15 -21 -9 167.544 169.17 1
6 -21 12 1088.74 666.745 3
15 -21 -12 281.003 231.237 1
15 6 12 431.924 228.947 1
-21 6 -12 -78.1152 253.909 1
15 6 12 868.721 489.525 2
-22 15 -10 -86.4597 438.13 1
15 -22 10 -198.648 641.878 2
7 15 10 -2.41934 67.8689 1
7 15 10 529.007 321.184 2
15 7 -7 1087.78 326.712 4
-22 15 -7 2360.1 906.161 1
15 -22 7 1213.47 577.396 2
-22 7 7 956.352 401.557 1
7 15 7 1840.75 439.503 1
7 -22 -4 826.566 254.738 1
7 15 4 405.186 166.781 1
15 -22 4 -97.3587 397.96 2
-22 15 -4 433.978 314.631 1
7 -22 -4 627.73 199.222 2
15 7 -4 913.086 399.248 4
7 15 4 1351.64 629.14 4
-22 7 4 665.174 295.921 1
7 -22 -1 946.05 453.715 3
7 -22 -1 838.69 306.421 2
15 -22 1 706.078 192.752 2
7 15 1 1190.65 554.253 4
-22 15 -1 835.14 383.511 1
-22 7 1 1296.21 530.995 1
7 -22 2 341.742 477.911 3
-22 15 2 1163.97 553.859 1
7 -22 2 905.105 387.907 2
-22 7 -2 425.706 344.426 1
15 -22 -2 1075.66 423.242 2
7 15 -2 504.799 329.714 4
7 -22 5 666.765 556.848 3
7 -22 5 520.992 449.748 2
15 -22 -5 1013.53 493.738 1
-22 15 5 44.0711 207.221 1
7 15 -5 -319.732 263.433 4
15 -22 -5 -113.552 139.653 2
15 7 5 766.089 447.306 1
15 7 5 292.559 317.836 2
-22 7 -5 717.209 397.628 1
-22 15 8 473.286 455.195 1
7 -22 8 496.119 411.543 3
7 -22 8 -32.9626 347.306 2
15 7 8 438.948 244.347 1
-22 7 -8 1259.7 557.466 1
15 7 8 232.112 217.16 2
15 -22 -8 720.572 316.916 1
7 -22 11 1011.04 679.64 3
7 -22 11 254.587 369.253 2
-22 15 11 345.506 388.747 1
-22 7 -11 86.4038 303.145 1
15 7 11 1479.56 736.926 2
15 7 11 565.607 344.596 1
15 -22 -11 1138.51 454.861 1
8 -23 -11 -134.975 106.324 1
-23 15 -11 -13.9299 415.145 1
8 15 11 41.0814 81.4013 1
8 15 11 -22.8402 231.348 2
8 -23 -8 86.9446 122.362 1
15 -23 8 -146.947 356.24 2
8 15 8 -33.7802 173.371 1
15 8 -8 -23.7586 154.787 4
8 15 5 830.579 339.487 1
8 -23 -5 611.514 264.687 1
-23 8 5 303.309 400.088 1
15 -23 5 77.1241 387.821 2
-23 15 -5 731.71 288.708 1
8 15 5 298.026 410.681 4
15 8 -5 702.099 384.648 4
8 -23 -5 730.171 220.487 2
8 -23 -2 54.045 154.477 1
-23 8 2 7.55177 259.714 1
8 -23 -2 336.289 165.78 2
15 -23 2 706.35 368.98 2
15 8 -2 388.445 261.98 4
8 15 2 296.469 315.023 4
-23 15 -2 477.437 228.133 1
-23 15 1 -67.0381 212.833 1
8 -23 1 1141.08 445.566 2
8 15 -1 97.967 218.742 4
-23 8 -1 486.632 455.774 1
15 -23 -1 828.224 338.585 2
15 -23 -4 845.197 289.275 2
-23 8 -4 1654.1 578.585 1
8 -23 4 1912.42 747.429 3
8 -23 4 1556.28 664.707 2
-23 15 4 1315.11 517.092 1
15 -23 -4 628.749 314.431 1
8 15 -4 655.709 372.375 4
8 -23 7 466.676 405.744 3
8 -23 7 153.909 307.256 2
-23 15 7 749.13 592.793 1
15 8 7 297.745 322.401 1
8 15 -7 -92.3193 258.312 4
-23 8 -7 936.318 544.729 1
15 8 7 549.187 472.549 2
15 -23 -7 124.596 273.057 1
8 -23 10 1064.85 659.186 3
8 -23 10 507.847 465.937 2
-23 15 10 83.2246 271.251 1
-23 8 -10 224.503 347.236 1
15 8 10 777.409 533.296 2
15 -23 -10 246.298 214.791 1
15 8 10 1025.55 452.343 1
9 -24 -9 68.8826 156.51 1
-24 15 -9 -156.549 335.893 1
15 -24 9 685.469 585.176 2
9 15 9 334.281 217.611 1
15 9 -9 104.589 177.828 4
15 9 -6 493.793 301.373 4
9 -24 -6 -361.951 245.332 1
15 -24 6 391.661 327.423 2
9 15 6 -150.584 176.749 1
-24 15 -6 -7.84123 289.337 1
-24 9 6 -200.34 465.351 1
9 -24 -3 207.226 124.027 1
-24 15 -3 473.913 402.781 1
9 15 3 -191.476 287.093 1
-24 9 3 -166.969 371.446 1
15 -24 3 196.891 242.833 2
9 -24 -3 -104.666 183.935 2
9 15 3 227.262 403.188 4
15 9 -3 -221.395 162.688 4
9 -24 0 757.61 337.379 2
15 -24 0 498.739 269.021 2
-24 9 0 537.165 402.23 1
9 15 0 1358.9 628.861 4
-24 15 0 732.388 439.807 1
-24 9 -3 988.403 657.974 1
9 -24 3 734.803 457.397 2
9 15 -3 551.868 256.866 4
-24 15 3 259.812 362.619 1
15 -24 -3 896.551 409.292 2
-24 15 6 33.6473 189.495 1
9 -24 6 1230.16 609.872 2
-24 9 -6 1289.08 622.047 1
15 -24 -6 208.798 181.875 1
15 9 6 931.898 531.2 1
9 15 -6 238.2 247.9 4
15 -24 -6 542.459 290.851 2
15 9 6 427.559 260.487 2
9 -24 9 72.1673 255.024 2
15 9 9 592.67 327.6 1
-24 15 9 -25.6034 216.141 1
-24 9 -9 271.271 271.511 1
15 -24 -9 69.6716 200.05 1
15 9 9 22.9804 283.967 2
-25 10 7 138.774 288.01 1
10 -25 -7 159.024 137.652 1
15 -25 7 -530.688 617.72 2
-25 15 -7 918.535 524.145 1
15 10 -7 331.535 252.901 4
10 15 7 589.423 294.891 1
10 -25 -4 -225.126 213.781 1
10 15 4 251.331 311.127 1
15 -25 4 167.647 294.576 2
-25 10 4 139.533 309.048 1
10 -25 -4 122.33 112.63 2
10 15 4 323.182 384.074 4
-25 15 -4 166.39 312.89 1
15 10 -4 -87.3362 137.541 4
10 -25 -1 475.218 269.78 2
15 -25 1 823.196 525.105 2
15 10 -1 -28.6924 199.991 4
10 15 1 -86.9516 348.725 4
-25 10 1 213.628 327.927 1
-25 15 -1 335.678 237.57 1
-25 10 -2 2181.31 697.114 1
10 -25 2 1695.18 615.64 2
-25 15 2 1526.49 665.112 1
15 -25 -2 1389.89 474.168 2
10 15 -2 589.942 361.442 4
15 10 5 524.618 391.738 1
10 -25 5 526.64 423.922 2
15 -25 -5 -17.4637 203.919 1
10 15 -5 317.889 166.485 4
15 -25 -5 287.975 281.177 2
-25 15 5 -314.987 382.868 1
-25 10 -5 322.137 379.02 1
10 -25 8 861.071 556.888 2
15 10 8 592.158 371.401 1
15 -25 -8 537.418 360.101 1
-25 10 -8 483.596 448.886 1
10 15 -8 221.147 262.765 4
15 10 8 195.478 227.27 2
-25 15 8 388.033 553.668 1
11 -26 -8 159.552 190.748 1
11 15 8 205.921 289.466 1
15 -26 8 -556.547 656.857 2
-26 15 -8 -505.776 465.617 1
15 11 -8 381.618 210.358 4
-26 11 8 -181.337 302.03 1
11 -26 -5 609.043 275.351 1
15 -26 5 596.916 490.189 2
11 15 5 400.869 303.576 1
-26 15 -5 252.524 323.172 1
11 -26 -5 841.081 304.745 2
-26 11 5 226.43 335.721 1
15 11 -5 406.534 298.318 4
15 -26 2 1892.55 676.82 2
11 -26 -2 1951.17 535.795 2
-26 15 -2 1136.06 511.385 1
11 15 2 869.474 475.658 4
15 11 -2 1156.98 457.615 4
-26 11 2 2046.62 771.356 1
-26 15 1 1880.63 751.521 1
11 -26 1 1845.03 660.705 2
-26 11 -1 1201.77 557.442 1
15 11 1 678.481 429.122 4
15 -26 -1 1481.62 543.885 2
11 15 -1 1093.18 620.111 4
11 -26 4 825.991 352.381 2
15 -26 -4 787.773 364.447 2
11 15 -4 499.844 341.29 4
-26 15 4 1086.72 578.658 1
-26 11 -4 1569.61 695.447 1
11 -26 7 154.308 419.826 2
15 -26 -7 620.347 429.648 1
-26 15 7 463.535 507.918 1
15 11 7 460.558 416.614 1
-26 11 -7 333.868 208.104 1
11 15 -7 237.228 265.748 4
12 -27 -6 -87.8045 244.753 1
12 15 6 -85.3497 320.595 1
15 -27 6 -668.66 669.617 2
15 12 -6 -245.374 282.373 4
12 -27 -6 80.4136 159.376 2
-27 15 -6 208.771 472.887 1
-27 12 6 -293.933 372.708 1
-27 12 3 213.029 304.136 1
15 -27 3 -138.709 412.753 2
12 -27 -3 40.0404 173.818 2
15 12 -3 145.436 167.097 4
12 15 3 -655.628 549.62 4
-27 15 -3 241.992 296.381 1
-27 15 0 1319.42 568.057 1
12 -27 0 127.74 180.233 2
-27 12 0 393.855 396.975 1
15 -27 0 499.565 407.071 2
15 12 0 40.1475 185.449 4
12 15 0 533.683 341.05 4
-27 12 -3 45.1295 222.912 1
12 -27 3 717.234 612.513 2
15 -27 -3 -151.02 372.467 2
-27 15 3 -75.9697 491.568 1
12 15 -3 69.9528 190.052 4
12 -27 6 1060.61 596.351 2
-27 15 6 249.382 298.735 1
15 -27 -6 929.979 489.701 1
12 15 -6 257.117 293.523 4
15 -27 -6 510.358 330.313 2
-27 12 -6 935.647 575.139 1
15 12 6 535.058 310.275 1
-28 13 4 -7.37634 305.047 1
15 -28 4 -408.844 484.161 2
13 -28 -4 488.724 281.675 2
13 15 4 794.186 664.485 4
15 13 -4 522.438 361.307 4
-28 15 -4 611.329 506.039 1
-28 15 -1 892.57 527.85 1
15 -28 1 349.497 369.189 2
13 -28 -1 326.438 192.288 2
-28 13 1 829.891 641.757 1
13 15 1 451.655 397.251 4
15 13 -1 -678.859 552.143 4
-28 13 -2 613.222 431.824 1
13 -28 2 952.876 576.353 2
15 -28 -2 1553.51 576.388 2
-28 15 2 1046.9 561.731 1
13 15 -2 529.08 411.684 4
15 13 2 247.743 352.565 4
15 14 1 389.96 370.272 4
14 15 -1 507.17 381.685 4
16 -8 0 10468.5 1270.99 1
16 -8 0 9722.52 1218.95 2
-8 16 0 8823.49 1138.9 3
-8 16 0 8411.88 988.307 4
-8 16 0 10305.8 1164.35 1
-8 16 3 10077.6 807.1 2
16 -8 3 12569.1 1581.36 2
-8 -8 -3 10969.4 1126.25 2
16 -8 -3 9493.78 1243.17 2
16 -8 -3 9852.21 1208.41 1
-8 16 3 8548.6 1037.16 4
-8 16 -3 8940.56 1110.67 3
-8 16 3 9880.23 1174.06 3
-8 16 -3 9441.21 1176.28 1
-8 16 3 10583.8 1031.69 1
16 -8 3 11429 1408.96 1
-8 -8 -6 5588.4 624.344 1
-8 16 6 6779.01 591.072 2
-8 -8 -6 7090.07 923.854 2
-8 16 6 6641.55 741.653 1
16 -8 6 7014.93 1256.68 2
-8 -8 6 7485.33 1093.87 4
-8 16 6 6022.9 980.952 4
-8 16 -6 5712.71 881.539 3
-8 16 6 7127.21 1011.57 3
16 -8 -6 6434.81 566.65 4
-8 16 -6 5954.45 924.39 1
-8 16 9 63.1983 252.586 3
-8 16 9 536.271 201.216 2
-8 16 -9 776.423 358.587 1
-8 -8 -9 423.672 271.216 2
16 -8 9 295.569 399.122 2
-8 -8 -9 529.623 236.38 1
-8 16 9 83.7303 369.44 4
-8 -8 9 226.606 196.448 4
-8 16 9 245.629 165.335 1
-8 -8 -9 214.649 152.524 3
-8 16 -9 -38.6334 233.504 3
-8 16 12 243.795 260.437 3
-8 -8 -12 453.591 307.288 2
-8 16 -12 334.025 349.717 1
16 -8 12 629.864 445.172 2
-8 16 12 -354.749 608.824 4
-8 -8 12 503.726 259.027 4
-8 -8 -12 324.169 209.441 1
-8 -8 -12 530.254 306.989 3
-8 16 -12 -2.42797 176.645 3
-8 16 15 557.995 394.107 3
-8 16 -15 672.414 451.559 1
-8 -8 -15 220.419 110.479 1
16 -8 15 871.331 701.393 2
-8 16 -15 359.753 135.713 3
-8 -8 -15 486.044 215.307 3
-7 16 13 646.87 293.568 3
-9 16 -13 105.85 233.405 1
16 -9 13 42.3417 499.126 2
-7 16 13 -113.678 407.476 4
-7 -9 -13 313.933 133.483 1
-9 -7 13 771.762 381.434 4
-9 16 -13 198.83 244.182 3
-7 -9 -13 556.605 277.947 3
-7 16 10 2155.07 573.934 3
-7 -9 -10 1894.28 523.649 2
-9 16 -10 1691.69 509.352 1
16 -9 10 2795.87 948.736 2
-7 -9 -10 1945.27 389.575 1
-9 -7 10 2148.19 565.04 4
-7 16 10 2298.14 737.129 4
-7 16 10 1978.89 360.707 2
-7 -9 -10 1955.4 473.245 3
-9 16 -10 1896.8 497.267 3
-9 16 -7 825.718 325.098 3
-7 16 7 1321.74 441.079 3
-9 16 -7 485.587 258.122 1
-7 -9 -7 956.656 329.237 2
16 -9 7 661.425 374.256 2
-7 16 7 518.263 318.062 4
-9 -7 7 835.835 348.679 4
-7 -9 -7 385.141 206.233 3
-7 16 7 409.901 191.14 1
-7 16 4 5046.47 483.855 2
16 -9 4 7017.48 1233.32 2
-7 -9 -4 6003.2 814.267 2
16 -7 -4 4717.6 820.152 1
-7 16 4 4815.06 859.392 4
-7 -9 -4 6309.58 957.427 3
-7 16 4 5600.38 942.989 3
-9 16 -4 5262.32 839.948 3
-9 16 -4 5811.86 980.169 1
16 -9 4 6576.49 1086.27 1
-7 16 4 5580.36 698.117 1
-7 16 1 3936.14 755.606 3
-9 16 -1 3879.19 735.832 3
-9 16 -1 3275.89 635.928 2
16 -9 1 3928.59 838.841 1
-7 16 1 3094.49 607.149 1
16 -9 1 4043.87 862.372 2
16 -7 -1 3765.93 727.581 1
-7 16 1 2843.12 587.052 4
16 -7 -1 4125.4 809.54 2
-9 16 -1 3352.62 683.655 1
-7 -9 -1 2993.05 533.734 2
-7 16 -2 3407.91 726.813 3
-9 16 2 2679.74 635.052 3
-9 16 2 2444.99 444.705 2
16 -7 2 3320.11 752.473 1
-7 16 -2 1765.32 437.183 1
16 -9 -2 3371.46 740.751 1
16 -7 2 3758.88 909.285 2
-9 16 2 2004.06 478.24 4
16 -9 -2 2988.98 716.028 2
-9 16 2 2143.63 519.665 1
-9 -7 -2 2093.15 498.535 2
16 -9 -5 1126.3 390.938 1
-9 16 5 1914.5 542.624 3
-7 16 -5 1650.97 506.085 1
-9 16 5 1578.1 314.136 2
-9 16 5 1570.23 362.227 1
-9 -7 -5 1422.93 395.984 2
16 -7 5 2388.57 703.497 2
16 -9 -5 2068.57 396.218 4
-7 -9 5 1123.11 371.98 4
-9 16 5 1881.59 569.875 4
-9 -7 -5 1046.89 265.603 1
16 -7 5 1990.54 660.653 1
-7 16 -5 1514.5 399.142 3
-7 16 -8 697.24 315.211 1
-9 -7 -8 926.809 389.057 2
16 -7 8 484.467 542.022 2
-9 -7 -8 149.246 148.925 1
-9 16 8 525.168 199.222 2
-9 16 8 805.488 441.572 4
-7 -9 8 98.2201 333.196 4
-9 16 8 529.044 241.967 1
-7 16 -8 431.359 224.873 3
-9 16 11 1192.66 342.51 3
-9 -7 -11 2070.66 573.712 2
-7 16 -11 1220.8 412.867 1
16 -7 11 2687.47 955.589 2
-9 16 11 1306.42 461.098 4
-7 -9 11 2111.47 700.51 4
-9 -7 -11 2351.87 490.565 1
-9 -7 -11 1254.37 392.33 3
-7 16 -11 1673.01 469.478 3
-9 16 14 -30.0818 301.449 3
-9 -7 -14 -202.128 321.633 2
-7 16 -14 62.4031 200.153 1
-7 -9 14 1038.02 544.272 4
16 -7 14 254.52 451.715 2
-9 -7 -14 130.041 207.825 1
-9 16 14 804.717 575.492 4
-7 16 -14 422.885 255.378 3
-7 -9 14 71.4172 251.029 3
-9 -7 -14 528.285 272.253 3
-6 16 14 673.559 388.372 3
-6 -10 -14 390.813 250.188 3
-10 -6 14 864.776 402.726 4
-10 16 -14 363.015 354.797 1
16 -10 14 683.316 698.179 2
-6 -10 -14 871.966 246.939 1
-10 16 -14 35.7536 118.147 3
-6 16 11 1555.37 531.596 3
-6 -10 -11 2002.47 515.024 2
-10 -6 11 1578.8 437.807 4
-10 16 -11 1214.12 454.879 1
16 -10 11 1603.69 802.4 2
-6 16 11 1464.99 698.447 4
-6 -10 -11 1179.32 243.333 1
-6 -10 -11 1009.72 355.737 3
-10 16 -11 1203.96 409.323 3
-6 16 8 1852.51 614.835 4
-6 16 8 1701.33 464.338 3
-10 16 -8 1494.45 451.118 3
-10 -6 8 1357.61 378.119 4
-6 -10 -8 1375.68 411.494 2
-10 16 -8 1689.24 527.011 1
16 -10 8 1925.21 778.038 2
-6 16 8 1554.78 274.165 1
-6 -10 -8 1075.07 360.155 3
-6 16 5 1502.35 521.25 3
-10 16 -5 899.381 319.277 3
-6 16 5 1102.06 291.142 1
-10 16 -5 1627.37 512.685 1
16 -10 5 729.435 469.891 2
-6 -10 -5 1370.38 413.103 2
-6 16 5 1356.54 551.196 4
-6 -10 -5 844.711 360.838 3
-10 16 -2 4982.92 818.967 2
16 -10 2 6590.03 1099.25 2
-6 -10 -2 4943.71 704.821 2
16 -6 -2 5170.94 867.737 1
-6 16 2 4727.41 811.788 4
16 -6 -2 5758.37 934.992 2
-6 16 2 5367.59 883.605 3
-10 16 -2 4696.4 865.917 3
-6 -10 -2 5325.05 897.78 3
-6 16 2 5504.44 738.497 1
-10 16 -2 5637.41 923.479 1
16 -10 2 7384.04 1125.01 1
-10 16 1 11679 1098.21 2
16 -10 -1 12941.1 1453.84 1
16 -6 1 13652.6 1447.37 1
16 -6 1 13226.9 1484.79 2
16 -10 -1 13109 1505.41 2
-10 -6 -1 10879.3 1188.24 2
-6 16 -1 8933.09 1007.04 4
-6 -10 1 11992.4 1445.68 3
-6 16 -1 11170.3 1250.76 3
-6 16 -1 10898.9 1193.53 1
-10 16 1 11582.5 1211.1 1
16 -6 4 1395.09 597.475 1
-6 16 -4 1477.26 500.963 1
-10 16 4 1192.83 378.225 1
-10 16 4 1381.04 359.245 2
-10 -6 -4 1459.44 488.861 2
16 -6 4 1948.02 665.613 2
-10 -6 -4 1105.95 336.839 1
-10 16 4 919.105 407.563 4
16 -10 -4 1476.88 502.845 1
-6 -10 4 769.072 316.731 4
16 -10 -4 1748.68 549.483 2
-6 16 -4 1080.23 412.304 3
16 -6 7 1444.94 565.922 1
16 -10 -7 656.785 328.958 1
-6 16 -7 1067.59 411.469 1
-10 16 7 912.62 291.975 1
-10 -6 -7 1107.47 387.57 2
16 -6 7 1606.48 619.195 2
-10 16 7 737.119 243.316 2
16 -10 -7 680.873 213.906 4
-6 -10 7 1177.35 499.815 4
-10 16 7 1425.8 510.154 4
-10 -6 -7 868.88 309.089 1
-6 16 -7 1105.19 391.73 3
-6 16 -10 1485.58 502.489 1
-10 -6 -10 2006.46 657.035 2
-10 16 10 750.879 431.68 4
16 -6 10 2115.92 739.259 2
-6 -10 10 1470.63 591.536 4
-10 16 10 2003.22 488.571 2
-6 -10 10 1025.34 499.698 3
-6 16 -10 1185.84 388.773 3
-10 -6 -10 1704.54 485.871 1
-10 -6 -13 178.389 159.503 2
-6 16 -13 505.109 322.366 1
16 -6 13 740.223 492.167 2
-10 -6 -13 141.28 132.135 1
-10 -6 -13 305.214 267.936 3
-10 16 13 192.168 267.674 4
-6 16 -13 309.28 212.285 3
-6 -10 13 -84.7718 247.742 4
-6 -10 13 203.567 238.933 3
-5 -11 -15 159.291 172.016 3
-5 16 15 59.9608 173.5 2
-5 -11 -15 148.626 127.257 1
16 -11 15 922.074 509.872 2
-11 16 -15 276.085 270.986 1
-11 -5 15 368.135 342.338 4
-11 16 -15 89.2472 165.243 3
-5 16 15 324.472 367.538 3
-5 16 12 634.795 192.323 2
16 -11 12 1174.43 789.288 2
-11 16 -12 571.026 405.379 1
-11 -5 12 619.175 230.709 4
-5 -11 -12 391.797 137.79 1
-11 16 -12 69.7743 250.162 3
-5 16 12 401.821 357.528 3
-5 -11 -12 736.567 383.176 3
-5 16 9 221.67 129.837 3
-11 16 -9 641.728 318.171 3
-5 -11 -9 589.088 277.754 2
16 -11 9 -94.1681 319.143 2
-11 16 -9 663.923 414.097 1
-5 16 9 -246.876 387.878 4
-11 -5 9 317.963 251.277 4
-5 -11 -9 179.514 225.628 3
-5 16 6 3158.21 735.804 3
-5 16 6 3134.85 414.589 1
-11 16 -6 3652.05 710.626 3
-5 -11 -6 3361.81 560.369 2
16 -11 6 3813.52 942.683 2
-11 16 -6 3276.25 743.281 1
-5 16 6 3244.59 823.331 4
-5 -11 -6 3838.53 738.506 3
-11 16 -3 6609.83 1003.75 2
16 -11 3 8546.58 1295.02 2
-5 -11 -3 6921.09 797.779 2
16 -5 -3 5265.65 800.705 1
-5 16 3 6132.02 1003.23 4
-5 -11 -3 6729.92 1041.86 3
-5 16 3 6049.45 960.216 3
-5 16 3 6483.85 772.263 1
-11 16 -3 8144.46 1200.61 1
16 -11 3 6407.07 1095.71 1
16 -11 0 3283.89 763.566 1
-11 16 0 3158.52 610.733 2
-5 16 0 2873.57 577.537 1
16 -11 0 3605.2 788.072 2
-5 16 0 2290.74 507.664 4
16 -5 0 3020.42 698.365 1
-11 -5 0 3334.84 678.853 2
-5 -11 0 3123.47 746.426 3
-11 16 0 3435.01 746.602 1
16 -5 0 3522.06 758.434 2
-5 16 0 3063.56 639.942 3
-5 16 -3 1418.07 411.302 1
-11 16 3 1489.16 411.777 1
16 -5 3 1881.02 591.496 1
-11 16 3 1601.95 362.388 2
16 -11 -3 1717.58 531.352 1
-11 -5 -3 1588.85 537.606 2
16 -5 3 2174.45 719.613 2
-11 -5 -3 1135.93 356.913 1
-11 16 3 812.906 259.679 4
-5 -11 3 1238.9 436.16 4
16 -11 -3 2646.19 666.85 2
-5 -11 3 1650.21 532.22 3
-5 16 -3 1647.4 486.517 3
-5 16 -6 1982.4 534.256 1
-11 -5 -6 2215.78 571.016 2
-11 16 6 2358.18 430.508 2
16 -5 6 2394.4 747.563 2
-5 -11 6 3462.18 831.43 4
16 -11 -6 2597.16 476.032 4
-11 -5 -6 1405.14 400.83 1
-5 -11 6 2085.91 685.449 3
-11 16 6 1208.22 390.397 4
16 -11 -6 2027.82 581.905 1
-5 16 -6 1629.6 460.945 3
16 -5 6 1823.6 572.429 1
-11 16 6 1870.22 428.323 1
-11 -5 -9 705.396 273.342 1
-5 16 -9 561.683 253.735 1
-11 -5 -9 357.098 152.313 2
16 -5 9 -12.0082 265.44 2
-5 -11 9 119.811 294.621 4
-11 16 9 757.049 417.51 4
-11 16 9 205.666 212.313 2
-5 -11 9 519.299 286.13 3
-5 16 -9 115.666 97.5254 3
-11 16 9 266.269 145.248 1
-5 16 -12 164.412 225.846 1
-11 -5 -12 230.222 351.244 2
16 -5 12 236.567 381.305 2
-11 -5 -12 127.724 124.685 1
-11 16 12 235.628 214.051 4
-5 -11 12 425.884 366.427 4
-5 -11 12 399.215 391.34 3
-5 16 -15 282.593 282.395 1
-11 -5 -15 112.295 132.907 1
16 -5 15 24.0496 508.74 2
-11 16 15 -332.873 577.831 4
-5 -11 15 123.351 200.067 3
-11 -5 -15 626.635 285.493 3
-4 -12 -13 618.48 241.891 3
-4 16 13 267.536 106.339 2
16 -12 13 -116.486 488.502 2
-12 16 -13 275.916 314.288 1
-12 -4 13 455.231 340.782 4
-4 16 13 243.229 229.136 3
-12 16 -13 440.54 272.491 3
-12 16 -10 -76.0492 122.167 3
-4 -12 -10 175.051 169.915 2
16 -12 10 -379.489 473.713 2
-12 -4 10 -25.9364 171.946 4
-12 16 -10 -293.193 423.9 1
-4 16 10 12.2308 465.41 4
-4 16 10 -4.21169 134.166 3
-4 -12 -10 -169.181 194.331 3
-12 16 -7 849.49 391.809 3
-4 -12 -7 979.507 272.669 2
16 -12 7 760.303 514.318 2
-12 16 -7 1196.35 341.434 1
-4 16 7 698.979 168.017 1
-4 16 7 329.032 224.481 4
-4 -12 -7 737.118 343.201 3
-4 16 7 801.598 336.78 3
-12 16 -4 10445.6 1298 2
16 -12 4 13298.4 1671.09 2
-4 -12 -4 10466 913.743 2
-4 16 4 9310.63 1259.87 4
-4 -12 -4 10628.1 1264.01 3
-4 16 4 9656.2 1224.03 3
-4 16 4 10208.1 878.24 1
-12 16 -4 10399.5 1346.53 1
-12 16 -1 8044.78 1070.36 2
16 -12 1 9372.79 1308.24 2
-12 -4 1 7061.72 1054.87 2
16 -4 -1 8245.2 1186.66 2
16 -4 -1 8860.36 1112.86 1
-4 16 1 6969.24 963.436 4
-4 -12 -1 6946.67 1095.36 3
-4 16 1 7591.73 1083.88 3
-4 16 1 7238.85 880.673 1
-12 16 -1 7628.53 1136.08 1
16 -12 1 9909.71 1330.94 1
-4 16 -2 -302.958 249.99 4
-4 16 -2 160.144 131.967 1
-12 16 2 165.935 144.298 1
16 -12 -2 343.191 289.176 1
-12 16 2 248.646 153.184 2
16 -4 2 493.812 387.983 1
-4 -12 2 104.767 172.248 4
-12 -4 -2 350.844 281.976 2
16 -4 2 305.845 289.879 2
16 -12 -2 375.406 363.563 2
-12 -4 -2 38.0165 175.1 1
-4 -12 2 16.1794 194.213 3
-4 16 -2 332.618 303.864 3
16 -4 5 3191.1 745.63 1
-12 16 5 4374.86 684.318 2
-4 16 -5 4068.67 753.261 1
16 -12 -5 4921.01 919.336 1
-12 16 5 4530.15 751.739 1
16 -4 5 4774.8 999.254 2
-12 -4 -5 3558.84 781.084 2
16 -12 -5 5349.33 774.273 4
-4 -12 5 4064.32 869.047 4
-12 -4 -5 4307.98 721.368 1
-12 16 5 3188.22 596.73 4
-4 -12 5 4586.75 906.231 3
-4 16 -5 3715.39 690.28 3
16 -12 -8 445.408 358.303 1
-12 -4 -8 794.211 333.339 1
-4 16 -8 391.259 258.703 1
-12 -4 -8 598.018 323.702 2
16 -4 8 646.94 358.386 2
-12 16 8 404.456 252.944 2
-12 16 8 633.858 403.805 4
-4 -12 8 2113.92 815.087 4
16 -4 8 558.173 352.515 1
-4 -12 8 1013.62 638.41 3
-12 16 8 761.43 356.023 1
-4 16 -8 321.161 186.003 3
-4 16 -11 -27.7617 197.266 1
-4 -12 11 380.111 294.239 3
16 -4 11 428.32 407.131 2
-12 -4 -11 465.101 285.827 1
-4 -12 11 915.12 569.382 4
-12 16 11 -94.6648 246.773 2
-12 16 11 110.542 320.984 4
-4 16 -14 267.648 267.165 1
-12 -4 -14 751.28 368.869 1
16 -4 14 701.242 509.372 2
-12 16 14 141.464 205.302 4
-12 -4 -14 344.117 269.932 3
-4 -12 14 -78.3926 284.366 3
-13 16 -14 556.766 267.851 3
-3 -13 -14 1316.25 429.271 3
-3 16 14 1146.65 330.1 2
16 -13 14 1187.25 816.056 2
-13 16 -14 1319.68 559.11 1
-13 -3 14 735.389 253.502 4
-3 16 14 1130.25 487.761 3
-3 -13 -11 981.338 348.778 3
-13 16 -11 1112.23 399.459 3
16 -13 11 1208.18 695.87 2
-3 16 11 844.005 196.667 2
-13 16 -11 751.847 332.273 1
-13 -3 11 1154.98 329.655 4
-3 16 11 1548.9 491.611 3
-3 -13 -8 6687.91 689.031 2
16 -13 8 7401.41 1512.09 2
-3 16 8 6871.89 1360.07 4
-3 16 8 7848.21 1122.74 3
-3 -13 -8 6722.64 1024.44 3
-13 16 -8 5609.25 916.201 3
-13 16 -8 6941.51 1246.99 1
-13 16 -5 13587.8 1559.63 2
16 -13 5 15542.4 1944.24 2
-3 -13 -5 16397 1067.23 2
-3 16 5 15314 1754.5 4
-3 -13 -5 15217.8 1542.25 3
-3 16 5 14501.6 1517.59 3
-3 16 5 14591.2 936.894 1
-13 16 -5 16131.6 1733.18 1
-13 16 -2 4058.88 857.909 2
-3 16 2 3178.91 557.065 1
16 -3 -2 3045.88 617.782 1
-3 16 2 3949.31 810.748 4
16 -13 2 4253.5 945.306 2
-3 16 2 4073.27 832.597 3
16 -13 2 3944.58 859.449 1
-13 -3 2 3536.27 804.613 2
-13 16 -2 4443.2 931.7 1
-3 -13 -2 4016 858.952 3
-13 -3 -1 369.087 168.136 1
16 -13 -1 1088.4 514.921 1
16 -13 -1 877.319 417.027 2
-3 16 -1 757.856 287.384 1
-13 16 1 1051 424.037 1
-13 16 1 1376.79 447.848 2
-3 16 -1 913.826 388.412 4
16 -3 1 792.037 387.909 1
-13 -3 -1 683.395 292.739 2
-3 -13 1 318.814 183.62 4
16 -3 1 1270.61 447.156 2
-3 -13 1 819.444 373.093 3
-3 16 -1 909.133 393.246 3
-13 -3 -4 -206.719 241.957 1
-3 16 -4 582.959 318.677 1
-3 -13 4 6.8325 354.751 4
16 -3 4 -31.6162 189.478 1
16 -13 -4 887.656 391.749 1
-13 16 4 131.135 165.841 2
-13 -3 -4 781.541 300.404 2
-13 16 4 149.229 128.109 1
16 -13 -4 297.092 321.113 4
16 -13 -4 580.906 393.193 2
16 -3 4 19.3487 231.876 2
-13 16 4 203.503 113.495 4
-3 -13 4 392.078 393.244 3
-3 16 -4 330.532 139.989 3
-13 -3 -7 8369.52 1278.83 2
16 -3 7 9544.27 1472.86 2
-13 16 7 8226.79 1008.35 2
16 -13 -7 8373.2 1164.29 1
-13 -3 -7 8921.71 1082.77 1
-3 -13 7 12021.9 1694.07 4
-13 16 7 6478.45 890.021 4
-13 16 7 8184.51 1022.36 1
16 -13 -7 8274.56 983.741 4
-3 -13 7 9636.75 1349.49 3
-3 16 -7 7544.23 1078.53 1
16 -3 7 9375.72 1346.54 1
-3 16 -10 1005.72 476.221 1
16 -3 10 227.136 289.857 2
-13 16 10 404.527 301.008 4
-13 -3 -10 594.4 266.993 1
-3 -13 10 178.19 416.756 4
-13 16 10 717.48 329.884 1
-3 -13 10 1137.35 525.356 3
-13 16 10 427.129 277.635 2
-3 16 -13 -493.526 372.037 1
-13 -3 -13 58.5032 139.633 1
16 -3 13 -11.2244 262.821 2
-13 16 13 333.995 332.31 4
-3 -13 13 269.263 323.823 3
-14 16 -12 412.181 224.901 3
-2 -14 -12 229.325 206.937 3
16 -14 12 231.627 314.615 2
-2 16 12 334.232 164.214 2
-14 16 -12 172.903 361.662 1
-14 -2 12 -84.7133 146.182 4
-2 16 12 620.748 317.33 3
-2 -14 -9 1402.77 487.856 3
16 -14 9 67.3511 426.846 2
-14 16 -9 756.472 457.293 1
-2 16 9 679.935 438.148 4
-2 16 9 1041.99 387.334 3
-2 -14 -6 1413.76 275.209 2
16 -14 6 874.552 417.235 2
16 -2 -6 1081.44 221.092 4
-2 16 6 1105.57 454.668 4
-2 16 6 1370.91 247.655 1
-14 16 -6 1928.28 580.832 1
-2 16 6 1426.93 434.025 3
-2 -14 -6 1586.69 493.408 3
-2 16 3 2015.51 405.201 1
-14 16 -3 2358.21 644.875 2
16 -14 3 2953.16 808.895 2
-2 16 3 2294.37 618.639 4
-2 -14 -3 1247.88 282.312 2
-14 16 -3 1848.64 523.665 1
-2 16 3 1419.14 433.469 3
-2 -14 -3 1363.98 481.418 3
16 -2 0 2802.97 649.525 1
-2 16 0 2254.9 473.522 1
-14 16 0 3469.48 776.074 1
-14 -2 0 2778.67 598.618 1
-14 16 0 3316.91 713.829 2
-2 -14 0 1714 608.57 4
16 -14 0 3388.23 771.504 2
-2 16 0 2267.44 581.579 4
-14 -2 0 2483.05 649.165 2
16 -2 0 2630.52 615.848 2
-2 16 0 2573.24 617.256 3
-2 -14 0 2602.11 641.714 3
16 -14 0 2734.53 704.803 1
-2 16 -3 301.182 310.423 1
-14 -2 -3 714.61 331.75 1
-2 -14 3 375.846 206.572 4
16 -14 -3 463.854 220.04 1
-14 16 3 265.398 129.98 2
16 -2 3 250.22 181.548 1
-14 16 3 649.173 272.588 1
-14 -2 -3 395.162 208.347 2
16 -2 3 -240.201 384.153 2
16 -14 -3 743.175 301.399 2
16 -14 -3 926.58 459.253 4
-2 16 -3 182.117 149.295 4
-2 -14 3 578.367 375.914 3
-2 16 -6 2113.53 562.91 1
16 -2 6 3002.33 756.306 1
-14 16 6 2584.39 623.176 1
-14 -2 -6 2375.79 561.154 1
-14 -2 -6 1861.85 569.401 2
16 -14 -6 2749.45 664.753 1
-14 16 6 2340.44 564.055 2
16 -14 -6 2758.37 619.569 4
-2 -14 6 3291.49 899.729 4
-14 16 6 1560.51 385.777 4
-2 -14 6 2487.32 620.79 3
16 -2 6 2129.22 743.685 2
-2 16 -9 853.983 373.696 1
16 -2 9 2240.92 721.228 2
-14 16 9 770.737 332.93 1
-14 16 9 607.733 350.417 4
-14 16 9 657 235.318 2
16 -2 9 1439.96 605.635 1
-14 -2 -9 1325.11 430.631 1
16 -14 -9 809.621 353.134 1
-2 -14 9 1165.87 540.431 3
-2 16 -12 849.596 397.655 1
16 -2 12 1167.81 583.851 2
-14 -2 -12 973.926 350.741 1
-14 16 12 620.764 395.983 4
-14 16 12 811.792 415.763 2
-2 -14 12 2274.68 734.347 3
-15 16 -13 525.931 305.236 3
16 -15 13 958.233 806.347 2
-1 16 13 326.736 172.658 2
-15 16 -13 900.255 408.909 1
-1 16 13 177.518 135.165 3
-1 -15 -10 1546.91 498.205 3
16 -15 10 1547.93 706.19 2
-1 16 10 1377.71 477.047 3
-15 16 -10 1513.3 627.544 1
-1 -15 -7 3997.16 804.973 3
16 -15 7 4264.54 1170.26 2
-15 16 -7 3726.24 915.609 1
-1 16 7 4087.52 1112.18 4
16 -1 -7 2402.75 309.622 4
-1 16 7 4181.4 825.146 3
-1 -15 -4 3022.77 409.271 2
-15 16 -4 2638.65 774.229 2
16 -15 4 3369.66 849.404 2
-15 16 -4 3229.75 806.459 1
-1 16 4 2781.07 636.398 3
-1 16 4 3218.52 772.648 4
-1 16 4 3302.76 475.074 1
-1 -15 -4 2543.54 665.799 3
-15 -1 1 632.264 310.2 2
-1 16 1 234.29 106.991 1
-15 16 -1 754.671 506.09 1
16 -1 -1 412.304 230.036 1
-15 16 -1 407.744 319.702 2
16 -15 1 548.648 320.608 2
-15 -1 1 392.948 203.69 1
16 -15 1 621.818 420.193 1
-1 -15 -1 298.489 202.893 3
-1 16 1 917.874 465.068 4
-1 16 -2 266.959 215.693 1
16 -15 -2 505.455 380.899 1
-15 -1 -2 298.061 307.82 1
-15 16 2 855.799 442.657 2
-15 16 2 346.106 410.69 1
-15 -1 -2 442.728 244.941 2
-1 -15 2 544.201 383.828 4
16 -15 -2 334.507 155.696 2
16 -1 2 413.021 227.4 1
16 -1 2 696.289 397.742 2
16 -15 -2 796.089 411.265 4
-1 16 -2 69.4579 183.552 4
-1 -15 2 553.445 382.085 3
-1 16 -5 1977.81 563.72 1
-15 16 5 1541.08 417.604 1
16 -1 5 2740.61 757.692 1
16 -15 -5 1836.32 539.497 1
-15 -1 -5 1300.02 439.66 1
-15 -1 -5 1611.43 501.061 2
-15 16 5 1958.08 525.715 2
-1 -15 5 2997.38 1094.54 4
16 -1 5 2762.88 894.3 2
16 -15 -5 2458.7 647.538 4
16 -15 -5 2141.74 648.019 2
-1 -15 5 2953.74 890.587 3
-1 16 -8 271.782 244.679 1
-15 16 8 169.931 184.77 1
-15 16 8 565.998 294.925 2
16 -1 8 467.543 370.62 2
16 -15 -8 280.057 221.477 4
16 -15 -8 683.775 305.753 1
-15 16 8 376.814 217.104 4
-15 -1 -8 460.049 251.52 1
16 -1 8 847.498 357.858 1
-1 -15 8 193.705 292.015 3
-1 16 -11 1422.55 547.448 1
16 -1 11 784.209 517.13 2
-15 -1 -11 1315.64 432.042 1
-15 16 11 1135.22 464.114 4
-15 16 11 1424.96 543.971 2
-1 -15 11 2515.22 758.249 3
-1 16 -14 341.733 357.698 1
-15 -1 -14 1061.44 438.46 1
16 -1 14 -218.257 277.603 2
-15 16 14 482.937 219.496 4
-1 -15 14 -0.33496 413.09 3
-16 16 -14 91.7962 161.96 3
16 -16 14 849.339 550.998 2
0 16 14 440.096 222.564 2
-16 16 -14 897.813 607.829 1
0 16 14 314.446 278.204 3
0 -16 -11 168.434 188.71 3
0 16 11 149.842 108.125 2
-16 16 -11 -86.1533 203.772 1
0 16 11 -294.984 271.019 3
16 -16 8 6223.62 1363.3 2
0 16 8 5930.59 1301.48 4
0 16 8 8127.13 1174.93 3
0 -16 -8 6292.71 1014.58 3
-16 16 -8 7172.18 1246.04 1
0 -16 -5 464.251 270.219 3
0 16 5 671.336 204.661 1
16 -16 5 -10.2757 254.041 2
0 16 5 700.122 324.958 4
-16 16 -5 91.8307 284.682 1
0 16 2 1072.01 392.958 1
-16 16 -2 1471.97 648.426 1
-16 16 -2 1021.23 546.124 2
16 -16 2 248.266 366.826 2
-16 0 2 1183.07 609.854 1
0 -16 -2 149.345 333.374 3
16 0 1 2473.45 625.371 1
-16 16 1 3691.21 830.661 1
-16 16 1 3204.94 771.081 2
-16 0 -1 2513.24 612.743 1
16 -16 -1 3827.81 853.869 2
0 16 -1 2704.1 650.115 4
16 -16 -1 3281.03 839.384 4
16 0 1 3479.15 817.615 2
16 -16 -1 3823.32 892.132 1
0 -16 1 2766.12 756.758 3
16 -16 -4 15140.9 1594.41 1
-16 16 4 14075.9 1472.69 2
16 0 4 11356.1 1394.69 1
16 0 4 13063.7 1597.31 2
16 -16 -4 13713 1470.26 2
-16 16 4 12476.6 1411.23 1
16 -16 -4 17788 1842.93 4
0 16 -4 10376.4 1159.96 4
-16 0 -4 11958.5 1392.6 1
0 -16 4 12647.4 1528.45 3
-16 0 -7 102.629 295.792 1
16 0 7 552.921 375.125 1
16 -16 -7 118.464 245.664 4
-16 16 7 -31.4103 251.626 1
16 -16 -7 520.449 277.534 1
16 0 7 1057.27 556.626 2
-16 16 7 31.1092 157.442 2
0 -16 7 500.078 507.429 3
0 16 -10 12.7863 243.731 1
16 0 10 574.066 403.501 2
-16 16 10 -155.582 339.04 1
-16 0 -10 44.2013 163.601 1
16 -16 -10 29.255 278.396 1
16 0 10 150.501 149.645 1
-16 16 10 -36.9324 137.208 4
-16 16 10 49.8292 142.653 2
0 -16 10 254.189 433.236 3
0 16 -13 4.84317 238.164 1
-16 0 -13 93.6373 183.49 1
16 0 13 -91.4773 365.074 2
-16 16 13 326.904 233.036 4
0 -16 13 386.759 509.095 3
16 -17 12 -339.9 291.612 2
-17 16 -12 574.121 564.323 1
1 16 12 366.435 198.211 2
1 16 12 1091.95 459.725 3
1 -17 -9 1095.84 346.927 3
16 -17 9 1054.57 475.932 2
-17 16 -9 992.57 540.748 1
16 -17 6 6076.62 1381.79 2
16 1 -6 5739.65 648.938 4
1 16 6 6428.58 1312.04 4
1 -17 -6 6253.16 994.426 3
1 16 6 5655.05 530.51 1
-17 16 -6 7455.2 1283.61 1
1 -17 -3 244.377 225.412 3
-17 16 -3 -187.761 296.441 1
16 -17 3 130.344 227.956 2
-17 1 3 275.741 220.286 1
1 -17 0 1633.51 593.199 3
-17 16 0 2175.23 713.147 1
-17 16 0 2008.48 655.104 2
16 -17 0 1750.8 589.408 2
-17 1 0 1527.73 523.946 1
1 16 0 1374.62 494.776 4
-17 16 3 776.907 390.277 2
-17 1 -3 174.406 232.138 1
16 -17 -3 896.644 462.689 2
16 -17 -3 356.531 252.573 4
1 16 -3 770.428 378.773 4
16 1 3 1192.03 490.032 1
-17 16 3 979.085 410.493 1
16 1 3 1177.81 480.835 2
16 -17 -3 1182.59 441.369 1
1 -17 3 777.426 430.059 3
-17 1 -6 527.887 198.763 1
16 -17 -6 1282.99 468.907 1
16 1 6 1591.75 578.499 1
-17 16 6 769.773 500.263 1
-17 16 6 1288.75 515.984 2
16 -17 -6 1378.1 542.532 4
16 1 6 1168.6 533.607 2
1 -17 6 968.73 520.163 3
16 -17 -9 718.556 403.489 1
16 1 9 623.273 435.002 2
-17 16 9 154.462 267.987 1
-17 16 9 328.352 283.832 2
-17 1 -9 480.171 292.51 1
-17 16 9 158.787 112.861 4
16 1 9 1003.67 414.481 1
1 -17 9 539.707 400.468 3
-17 1 -12 243.132 301.947 1
16 1 12 2.80803 348.143 2
-17 16 12 -81.4523 123.906 4
16 -17 -12 405.408 267.197 1
1 -17 12 597.957 396.193 3
16 -18 13 503.201 622.41 2
2 16 13 535.522 275.163 2
-18 16 -13 -55.0306 229.315 1
16 -18 10 314.509 324.974 2
-18 16 -10 177.036 226.183 1
2 16 10 633.525 234.671 2
2 -18 -7 1661.03 566.553 3
2 16 7 1636.98 256.345 1
16 -18 7 1844.29 693.186 2
2 16 7 1423.55 648.014 4
2 16 7 1599.98 273.011 1
16 2 -7 1921.11 364.763 4
-18 16 -7 1919.8 717.825 1
2 -18 -4 219.614 290.631 3
-18 16 -4 -23.9236 349.376 1
16 -18 4 316.922 355.479 2
2 16 4 855.186 440.515 4
-18 2 4 788.343 372.273 1
2 -18 -1 1135.21 524.517 3
-18 16 -1 1295.48 517.084 1
16 -18 1 942.539 432.579 2
2 16 1 1183.58 390.925 4
-18 2 1 1265.68 432.893 1
2 -18 2 3534.69 847.778 3
16 2 2 2332.97 582.15 1
-18 16 2 2609.03 701.367 2
-18 16 2 2018.58 614.422 1
2 16 -2 2291.56 609.155 4
16 -18 -2 3331.43 766.001 2
16 -18 -2 3748.02 938.837 4
-18 2 -2 2290.73 639.057 1
16 -18 -2 2075.13 583.494 1
16 2 2 1939.59 616.166 2
2 -18 5 564.126 513.477 3
16 -18 -5 365.682 229.148 1
-18 2 -5 400.135 292.346 1
-18 16 5 539.182 340.857 1
16 2 5 1116.84 490.546 1
16 -18 -5 826.534 413.864 4
-18 16 5 391.718 351.132 2
2 16 -5 461.353 273.423 4
16 -18 -5 365.58 376.59 2
16 2 5 891.566 456.154 2
2 -18 8 98.2273 254.789 3
16 2 8 393.005 360.892 1
-18 16 8 10.0172 154.408 1
16 -18 -8 253.768 327.397 1
16 -18 -8 278.589 140.2 4
-18 16 8 195.569 221.804 2
-18 2 -8 -131.352 240.628 1
16 2 8 -54.2494 265.435 2
2 -18 11 288.875 283.854 3
-18 16 11 673.4 492.239 1
-18 2 -11 391.282 314.409 1
16 -18 -11 428.624 202.166 1
16 2 11 795.872 438.368 2
16 2 11 153.845 212.582 1
-18 16 11 459.041 267.874 4
16 -19 11 265.997 452.418 2
3 16 11 1405.04 401.996 2
-19 16 -11 1105.77 567.711 1
3 -19 -8 395.677 369.223 3
3 16 8 287.121 116.547 1
16 -19 8 33.2068 280.512 2
3 16 8 476.892 148.041 1
16 3 -8 382.544 150.644 4
-19 16 -8 137.834 247.94 1
3 -19 -5 44.2487 165.565 3
-19 16 -5 404.293 269.129 1
-19 3 5 606.822 315.067 1
16 -19 5 440.896 400.672 2
3 16 5 267.163 483.569 4
16 3 -5 338.908 166.149 4
3 -19 -2 190.069 185.346 3
-19 3 2 350.731 342.177 1
-19 16 -2 146.657 346.347 1
16 -19 2 -384.637 405.921 2
3 16 2 66.4313 227.913 4
3 -19 1 1590.46 624.551 3
3 16 -1 2429.13 750.325 4
16 -19 -1 1998.41 621.06 2
-19 16 1 3174.64 928.961 1
-19 3 -1 2237.73 766.33 1
3 -19 4 1410.4 522.811 3
-19 16 4 1108.56 457.084 1
-19 3 -4 1603.15 542.165 1
16 -19 -4 1782.32 672.75 4
-19 16 4 1248.16 493.995 2
16 3 4 1007.05 363.63 1
16 -19 -4 1302.96 522.485 2
3 16 -4 960.136 309.811 4
16 3 4 1439.74 529.636 2
16 -19 -4 1331.09 501.289 1
3 -19 7 282.004 388.108 3
16 -19 -7 -229.25 161.745 1
16 3 7 -187.188 398.832 1
16 -19 -7 -238.482 193.301 4
16 3 7 -1.96939 352.225 2
-19 16 7 249.135 255.755 1
-19 3 -7 139.36 159.432 1
3 -19 10 106.759 245.408 3
16 -19 -10 277.499 246.186 1
-19 3 -10 548.873 351.568 1
-19 16 10 113.522 251.105 1
16 3 10 463.686 342.08 2
16 3 10 724.856 446.205 1
3 -19 13 2094.89 785.565 3
-19 3 -13 906.266 496.948 1
16 3 13 952.316 436.933 1
16 3 13 1828.58 582.469 2
16 -19 -13 1157.71 468.452 1
-19 16 13 911.011 315.689 4
16 -20 12 734.771 490.14 2
4 16 12 1405.17 452.556 2
-20 16 -12 955.575 554.48 1
16 -20 9 381.804 297.627 2
-20 16 -9 899.855 530.7 1
4 -20 -6 243.716 279.671 3
-20 16 -6 554.8 372.623 1
4 16 6 181.321 133.351 1
16 -20 6 -390.488 495.691 2
4 16 6 638.308 583.569 4
16 4 -6 304.619 204.976 4
4 -20 -3 2029.18 613.329 3
4 -20 -3 2423.35 417.371 2
-20 16 -3 3899.44 968.69 1
-20 4 3 1365.47 524.418 1
16 -20 3 3711.92 979.129 2
4 16 3 2603.66 807.28 4
4 -20 0 243.404 383.676 3
-20 4 0 -85.9327 190.855 1
16 -20 0 461.386 274.464 2
-20 16 0 369.853 276.611 1
4 16 0 93.6 292.796 4
16 4 3 561.319 358.41 1
-20 16 3 751.662 381.976 1
4 -20 3 814.126 456.613 3
-20 4 -3 463.758 254.393 1
16 -20 -3 390.574 243.045 2
16 -20 -3 1093.44 407.889 1
4 16 -3 467.76 277.43 4
16 4 3 584.737 337.608 2
4 -20 6 -76.7213 408.875 3
-20 16 6 143.613 307.709 1
16 4 6 -89.0496 250.781 1
16 4 6 -135.063 172.535 2
4 16 -6 315.427 124.139 4
16 -20 -6 556.944 201.194 2
16 -20 -6 157.627 179.046 1
-20 4 -6 207.034 329.532 1
16 4 9 272.072 251.829 1
4 -20 9 802.922 552.574 3
16 -20 -9 179.226 280.05 1
-20 4 -9 319.649 215.145 1
-20 16 9 214.788 384.205 1
4 -20 12 681.288 392.467 3
16 -20 -12 203.681 291.415 1
-20 4 -12 39.281 292.636 1
16 4 12 -180.128 321.633 1
16 4 12 621.987 532.009 2
-21 16 -10 287.947 276.934 1
16 -21 10 -483.801 548.834 2
16 5 -7 1243.83 345.983 4
-21 16 -7 838.368 431.071 1
5 16 7 1467.09 382.327 1
16 -21 7 1433.65 687.462 2
5 -21 -4 518.26 509.903 3
-21 16 -4 2624.89 858.579 1
5 -21 -4 467.322 160.208 2
16 -21 4 95.2067 265.564 2
16 5 -4 629.122 282.911 4
5 16 4 2147.2 732.168 4
-21 5 4 -336.501 326.354 1
5 -21 -1 2080.86 641.722 3
5 -21 -1 1546.06 366.887 2
-21 5 1 960.646 451.497 1
16 -21 1 1328.27 425.384 2
-21 16 -1 1818.37 639.241 1
5 16 1 1399.06 540.268 4
5 -21 2 468.659 435.094 3
-21 5 -2 594.648 464.589 1
16 -21 -2 -269.493 338.656 2
5 16 -2 -9.66372 259.768 4
-21 16 2 -64.2222 189.374 1
5 -21 5 114.01 386.873 3
-21 5 -5 810.089 409.354 1
-21 16 5 -78.4447 172.3 1
16 5 5 522.063 410.716 1
5 16 -5 -56.9219 233.992 4
16 -21 -5 293.204 254.75 2
16 5 5 60.436 366.855 2
16 -21 -5 -293.457 307.492 1
5 -21 8 487.05 369.627 3
16 5 8 3.41205 208.054 1
-21 16 8 313.233 297.696 1
16 5 8 -264.558 409.677 2
-21 5 -8 496.973 378.177 1
16 -21 -8 -97.611 261.101 1
16 5 11 991.483 589.04 2
5 -21 11 869.895 527.799 3
-21 16 11 978.246 563.23 1
16 -21 -11 1010.04 461.931 1
-21 5 -11 1204.86 524.86 1
16 5 11 902.958 484.021 1
-22 16 -11 -182.53 396.144 1
16 -22 11 -968.644 510.707 2
-22 16 -8 1564.82 640.363 1
16 -22 8 944.091 545.625 2
6 16 8 884.297 270.216 1
16 6 -8 724.02 243.708 4
-22 6 5 -226.462 384.422 1
-22 16 -5 257.995 422.756 1
16 -22 5 523.621 474.897 2
6 16 5 -358.644 332.974 4
6 16 5 206.029 140.29 1
16 6 -5 -427.498 302.819 4
6 -22 -2 2074.42 736.976 3
6 -22 -2 1889.03 407.429 2
-22 6 2 2229.83 745.081 1
16 -22 2 2651.61 743.908 2
-22 16 -2 3492.31 913.093 1
6 16 2 2074.61 709.07 4
6 -22 1 483.948 207.055 3
6 -22 1 -6.96043 252.651 2
16 -22 -1 -263.167 419.423 2
-22 6 -1 358.825 375.636 1
6 16 -1 12.3357 202.255 4
-22 16 1 406.579 298.282 1
6 -22 4 1008.93 585.65 3
6 -22 4 27.7329 289.761 2
-22 6 -4 370.868 420.804 1
-22 16 4 378.492 465.201 1
16 -22 -4 445.138 207.402 2
16 -22 -4 805.15 397.467 1
6 16 -4 196.245 189.592 4
16 6 4 395.3 453.279 2
16 6 7 655.279 480.134 2
6 -22 7 393.917 332.025 3
-22 16 7 142.72 193.631 1
16 6 7 440.685 314.448 1
6 16 -7 373.557 308.767 4
-22 6 -7 440.874 416.394 1
16 -22 -7 282.771 259.412 1
16 -22 -10 169.169 203.765 1
6 -22 10 -208.984 439.111 3
-22 6 -10 392.441 388.002 1
16 6 10 851.492 501.214 2
-22 16 10 449.478 452.191 1
16 6 10 493.291 354.547 1
-23 16 -9 618.32 589.897 1
7 16 9 424.449 171.456 1
16 -23 9 425.693 337.255 2
16 7 -9 265.777 201.103 4
-23 16 -6 581.613 286.856 1
16 -23 6 541.968 351.699 2
7 16 6 810.05 299.445 1
-23 7 6 108.947 261.716 1
7 16 6 879.57 573.271 4
16 7 -6 751.035 362.592 4
7 16 3 1071.48 368.001 1
7 -23 -3 1560.31 357.801 2
16 -23 3 1773 628.923 2
-23 16 -3 1854.68 726.812 1
7 16 3 -40.7395 379.709 4
-23 7 3 772.697 422.737 1
16 7 -3 803.451 359.573 4
7 -23 0 744.843 412.498 3
7 -23 0 681.532 368.586 2
16 -23 0 1162.55 545.259 2
7 16 0 872.209 388.543 4
-23 7 0 1017.36 546.169 1
-23 16 0 1484.16 558.609 1
7 -23 3 457.154 374.286 3
7 -23 3 945.271 505.919 2
-23 16 3 312.518 372.6 1
-23 7 -3 66.9877 305.997 1
16 -23 -3 543.708 297.237 2
7 16 -3 -18.5041 183.038 4
7 -23 6 490.169 583.948 3
7 -23 6 -234.217 457.974 2
16 7 6 -102.502 207.717 1
16 -23 -6 222.603 234.821 1
7 16 -6 69.5202 150.288 4
16 -23 -6 364.089 261.126 2
16 7 6 248.159 326.484 2
-23 16 6 46.7315 188.131 1
-23 7 -6 98.2712 230.995 1
-23 16 9 653.084 357.641 1
7 -23 9 -395.458 461.6 3
7 -23 9 111.819 490.307 2
16 7 9 763.31 437.057 1
-23 7 -9 552.941 384.013 1
16 7 9 920.209 518.704 2
16 -23 -9 558.982 348.803 1
8 16 10 184.863 175.54 1
16 -24 10 -416.462 733.77 2
8 16 7 112.845 173.381 1
-24 8 7 -301.193 489.735 1
-24 16 -7 748.906 571.387 1
16 -24 7 806.865 663.517 2
16 8 -7 449.498 236.099 4
8 -24 -4 988.106 372.159 1
16 -24 4 582.213 397.4 2
8 -24 -4 784.846 235.391 2
-24 16 -4 991.126 579.594 1
16 8 -4 829.216 406.105 4
8 16 4 822.066 660.83 4
-24 8 4 641.182 186.579 1
8 16 4 782.655 310.388 1
8 16 1 299.371 176.029 4
8 -24 -1 152.622 303.715 2
16 -24 1 102.397 327.176 2
-24 16 -1 321.371 322.181 1
-24 8 1 373.031 243.484 1
8 -24 2 -179.079 400.222 3
-24 16 2 690.329 418.252 1
8 -24 2 2.00346 301.198 2
8 16 -2 94.4667 229.432 4
-24 8 -2 583.135 475.188 1
16 -24 -2 -219.624 296.562 2
-24 16 5 944.122 570.051 1
8 -24 5 1927.42 776.742 3
8 -24 5 733.747 468.918 2
16 -24 -5 1176.72 521.459 2
8 16 -5 609.256 334.578 4
16 8 5 870.272 378.727 2
-24 8 -5 946.196 520.637 1
8 -24 8 330.338 381.188 3
8 -24 8 446.674 322.126 2
16 8 8 538.245 290.675 1
-24 16 8 546.743 283.372 1
16 -24 -8 1130.94 468.862 1
-24 8 -8 133.664 345.58 1
16 8 8 36.0588 355.004 2
8 16 -8 189.209 148.468 4
9 -25 -8 382.269 197.198 1
16 -25 8 899.785 567.181 2
-25 16 -8 746.34 539.233 1
9 16 8 309.443 243.504 1
16 9 -8 455.661 188.549 4
-25 9 8 -54.7091 345.676 1
9 -25 -5 367.577 243.692 1
-25 9 5 602.778 476.191 1
16 -25 5 482.609 406.508 2
-25 16 -5 296.726 238.021 1
9 -25 -5 127.589 115.523 2
16 9 -5 89.6102 174.75 4
9 16 5 607.749 613.735 4
9 16 5 355.118 221.743 1
9 -25 -2 176.523 209.053 1
-25 9 2 768.12 512.151 1
9 -25 -2 89.8346 239.163 2
9 16 2 -216.953 236.689 1
16 -25 2 -231.916 491.75 2
16 9 -2 -174.565 206.253 4
9 16 2 -308.756 407.156 4
-25 16 -2 494.088 399.364 1
-25 16 1 1148.45 640.089 1
9 -25 1 663.457 398.926 2
-25 9 -1 1269.75 665.929 1
16 -25 -1 1495.03 515.251 2
9 16 -1 547.882 353.042 4
-25 9 -4 807.772 564.885 1
9 -25 4 655.018 420.333 2
-25 16 4 177.149 203.129 1
16 -25 -4 619.186 358.675 2
9 16 -4 300.603 339.083 4
9 -25 7 938.568 638.744 2
-25 16 7 311.738 346.949 1
16 9 7 689.18 506.685 1
16 -25 -7 646.697 337.7 1
9 16 -7 322.439 296.129 4
-25 9 -7 343.311 309.851 1
16 9 7 16.1784 236.264 2
10 -26 -6 -180.315 242.07 1
16 -26 6 -182.171 460.949 2
10 16 6 -310.871 344.021 1
16 10 -6 -169.143 267.234 4
-26 10 6 -190.477 387.688 1
-26 16 -6 265.017 342.267 1
10 -26 -6 70.0623 92.8616 2
10 -26 -3 14.8839 193.956 1
-26 10 3 -254.748 277.931 1
16 -26 3 361.255 346.615 2
10 -26 -3 421.349 244.348 2
-26 16 -3 601.168 345.678 1
10 16 3 -211.844 455.307 4
16 10 -3 -8.10466 154.234 4
10 16 3 664.879 355.947 1
-26 16 0 334.746 432.349 1
10 -26 0 394.936 376.369 2
16 -26 0 217.18 387.379 2
-26 10 0 578.334 467.4 1
16 10 0 60.5857 340.366 4
10 16 0 652.077 418.414 4
-26 10 -3 270.652 278.355 1
10 -26 3 304.399 287.207 2
-26 16 3 214.156 444.401 1
10 16 -3 531.626 334.417 4
16 -26 -3 783.476 501.154 2
-26 16 6 425.962 422.611 1
10 -26 6 -224.099 440.151 2
10 16 -6 12.3146 183.621 4
16 -26 -6 177.784 347.878 2
-26 10 -6 442.331 503.051 1
11 -27 -4 685.146 398.166 1
11 16 4 940.284 438.858 1
16 -27 4 992.305 557.817 2
-27 11 4 783.166 557.242 1
11 -27 -4 669.076 331.274 2
11 16 4 656.943 721.695 4
-27 16 -4 1438.71 577.993 1
16 11 -4 824.043 414.979 4
11 -27 -1 1735.34 544.65 2
16 -27 1 1512.29 624.125 2
16 11 -1 166.469 375.607 4
11 16 1 783.144 521.704 4
-27 11 1 1373.98 609.888 1
-27 16 -1 1160.93 661.161 1
-27 11 -2 322.555 334.869 1
11 -27 2 576.09 259.777 2
-27 16 2 176.465 207.567 1
16 -27 -2 461.086 275.107 2
11 16 -2 12.4514 191.33 4
11 16 -5 21.105 225.004 4
11 -27 5 480.083 431.483 2
16 -27 -5 19.2863 217.732 2
-27 16 5 64.2253 380.214 1
-27 11 -5 731.827 570.614 1
16 -28 2 -420.004 491.34 2
12 -28 -2 993.5 398.488 2
12 16 2 -555.981 555.784 4
16 12 -2 138.832 330.796 4
-28 12 2 55.9485 206.524 1
-28 16 -2 135.046 405.96 1
12 -28 1 494.751 200.453 2
-28 12 -1 1061.51 598.57 1
16 -28 -1 637.827 287.26 2
12 16 -1 415.286 220.376 4
16 12 1 114.54 293.791 4
-28 12 -4 618.176 495.933 1
12 -28 4 455.81 498.325 2
16 -28 -4 640.334 435.7 2
12 16 -4 80.9456 288.091 4
-28 16 4 -197.597 310.462 1
16 13 0 226.06 365.477 4
13 16 0 435.361 333.102 4
-8 17 14 1141.14 465.8 3
-9 17 -14 822.55 390.182 1
17 -9 14 1557.4 855.76 2
-8 -9 -14 671.331 231.904 1
-8 17 14 614.998 682.859 4
-9 -8 14 1124.75 542.238 4
-9 17 -14 601.592 301.984 3
-8 -9 -14 795.12 325.52 3
-8 17 11 906.907 380.775 3
-8 -9 -11 549.752 311.585 2
-9 17 -11 380.094 288.112 1
-8 -9 -11 549.294 264.732 1
17 -9 11 592.529 348.341 2
-8 17 11 511.35 511.692 4
-9 -8 11 1009.1 453.067 4
-8 17 11 582.309 243.407 2
-8 -9 -11 661.251 356.255 3
-9 17 -11 471.057 238.542 3
-8 17 8 615.001 366.379 3
-9 -8 8 1337.44 516.143 4
-9 17 -8 1581.64 564.403 1
-8 -9 -8 1782.85 515.669 2
-8 17 8 1255.85 331.263 1
17 -9 8 1275.7 670.945 2
-8 17 8 957.039 232.959 2
-8 17 8 1400.52 566.531 4
-8 -9 -8 438.418 242.78 3
-8 -9 -8 775.494 250.804 1
-9 17 -8 965.723 385.54 3
-9 17 -5 2021.64 581.663 3
-8 17 5 2093.16 565.513 3
-8 17 5 2039.24 325.256 2
-8 17 5 2178.28 437.035 1
-9 17 -5 2690.91 708.363 1
17 -9 5 3526.29 929.404 2
-8 -9 -5 1914.49 486.04 2
-8 17 5 1997.56 617.116 4
-9 -8 5 967.965 397.563 4
-8 -9 -5 2317.12 548.587 3
-8 17 2 832.927 380.855 3
-9 17 -2 778.87 365.048 3
-8 17 2 941.649 315.106 2
17 -9 2 2412.93 697.869 1
-9 17 -2 715.648 344.127 1
17 -9 2 2730.47 819.581 2
17 -8 -2 1742.38 488.515 1
-8 17 2 922.339 314.78 1
-8 17 2 782.378 361.112 4
-8 -9 -2 1557.36 407.72 2
17 -8 -2 1362.94 485.933 2
-8 17 -1 1349.14 388.13 3
-9 17 1 978.508 327.867 3
-9 17 1 1198.25 366.898 2
17 -8 1 3191.86 743.623 1
-8 17 -1 876.548 444.115 1
17 -9 -1 2988.64 661.969 1
17 -8 1 2331.17 609.688 2
17 -9 -1 2752.79 719.326 2
-9 17 1 424.581 281.447 4
-9 -8 -1 1795.24 544.389 2
-9 17 1 779.428 291.212 1
-8 17 -4 837.933 414.77 3
-9 17 4 624.895 210.844 3
-9 17 4 431.22 228.742 1
-9 17 4 1071.68 274.183 2
-8 17 -4 1038.51 398.079 1
17 -8 4 684.218 372.414 2
-9 -8 -4 701.542 324.166 2
-8 -9 4 240.835 188.733 4
-9 17 4 666.559 294.311 4
-9 17 7 511.186 224.206 1
-9 17 7 158.667 190.6 3
-8 17 -7 898.923 447.008 1
-9 -8 -7 385.663 224.686 2
-9 17 7 440.519 177.332 2
17 -8 7 477.288 412.333 2
-8 -9 7 339.24 234.173 4
17 -9 -7 421.556 161.657 4
-9 17 7 125.852 202.766 4
-9 -8 -7 2.77483 135.125 1
-8 17 -7 487.859 262.324 3
-9 17 10 1205.66 437.662 3
-8 17 -10 943.18 406.519 1
-9 -8 -10 987.314 416.812 2
-9 -8 -10 1382.65 404.377 1
17 -8 10 1319.51 667.118 2
-9 17 10 599.908 281.73 4
-8 -9 10 1471.76 572.403 4
-9 17 10 848.58 240.066 2
-9 -8 -10 246.881 155.19 3
-8 17 -10 276.202 122.948 3
-9 -8 -13 -240.294 320.704 2
-8 17 -13 75.3703 256.584 1
17 -8 13 414.048 426.274 2
-9 17 13 -144.989 427.209 4
-9 -8 -13 -465.28 301.817 1
-8 -9 13 329.856 312.017 4
-9 -8 -13 353.483 276.3 3
-7 -10 -15 278.95 211.858 3
-7 17 15 -152.019 350.412 3
-10 17 -15 -405.905 421.129 1
17 -10 15 248.622 565.257 2
-7 -10 -15 260.789 160.624 1
-10 -7 15 32.8644 296.929 4
-10 17 -15 268.185 214.278 3
-7 17 12 1000.12 487.547 3
-7 -10 -12 892.847 386.841 2
-10 17 -12 45.025 273.235 1
17 -10 12 -104.28 357.46 2
-7 -10 -12 783.312 254.865 1
-7 17 12 -203.604 556.479 4
-10 -7 12 545.13 326.131 4
-7 -10 -12 786.357 381.847 3
-10 17 -12 289.514 151.047 3
-10 17 -9 759.637 252.045 3
-7 17 9 1294.14 541.54 3
-7 17 9 973.629 409.797 4
-7 -10 -9 1360.26 467.695 2
-10 17 -9 1103.26 510.087 1
-7 -10 -9 953.473 234.972 1
17 -10 9 776.004 532.061 2
-7 17 9 859.522 208.626 2
-7 17 9 854.087 217.034 1
-7 -10 -9 813.546 337.726 3
-10 -7 9 1092.67 471.844 4
-7 17 6 640.372 306.854 3
-10 17 -6 610.742 264.543 3
-7 17 6 769.873 253.856 1
-10 17 -6 948.033 390.771 1
-7 -10 -6 378.428 222.313 2
17 -10 6 853.432 450.214 2
-10 -7 6 672.894 304.446 4
-7 17 6 524.495 330.436 4
-7 -10 -6 661.821 315.402 3
-7 17 3 2637.06 724.793 3
-10 17 -3 2271.72 623.189 3
-7 -10 -3 2637.19 554.953 2
-10 17 -3 3222.82 742.795 1
17 -10 3 4137.48 998.997 2
-7 17 3 2144.06 598.101 4
-7 17 3 2450.91 506.004 1
-7 -10 -3 2217.32 598.915 3
17 -7 -3 2307.88 638.389 2
17 -10 0 7139.38 1098.98 1
-10 17 0 6311.95 837.541 2
17 -7 0 5686.99 960.116 1
-10 -7 0 5635.33 860.839 2
17 -10 0 5845.36 1020.57 2
17 -7 0 5680.95 996.058 2
-7 17 0 4067.72 676.365 4
-7 17 0 6074.92 961.54 3
-10 17 0 5955.16 916.496 3
-7 17 0 6831.42 925.076 1
-10 17 0 5894.82 923.113 1
-7 17 -3 724.233 305.785 3
-10 17 3 629.681 174.722 3
-10 17 3 649.554 206.582 1
17 -7 3 794.898 276.316 1
-10 17 3 650.364 207.305 2
-7 17 -3 447.721 163.387 1
-7 -10 3 673.83 332.702 4
17 -7 3 1116.69 446.962 2
17 -10 -3 539.269 184.749 1
-10 -7 -3 692.132 349.691 2
-10 17 3 562.12 264.953 4
17 -10 -3 845.579 375.984 2
17 -10 -6 2293.92 404.923 4
-10 17 6 1449.52 430.399 4
-7 17 -6 1518.25 465.719 1
-10 17 6 1774.86 375.423 2
-10 -7 -6 1626.73 501.352 2
17 -7 6 1750.28 619.176 2
-10 17 6 1569.57 389.874 1
-10 -7 -6 1521.13 401.037 1
-7 -10 6 1935.55 577.686 4
-7 17 -6 2268.54 600.319 3
-7 17 -9 2754.27 671.981 1
-10 17 9 3358.86 578.855 1
-10 -7 -9 3311.08 754.629 2
-10 -7 -9 2885.85 561.297 1
17 -7 9 2960.53 889.967 2
-10 17 9 2104.54 617.314 4
-10 17 9 3676.99 563.4 2
-7 -10 9 3129.05 779.229 4
-10 -7 -12 -432.123 275.157 2
-7 17 -12 -163.381 242.963 1
17 -7 12 146.416 257.032 2
-7 -10 12 267.039 177.836 4
-10 17 12 -163.53 324.079 4
-10 -7 -12 603.568 304.28 1
-7 -10 12 673.218 415.321 3
-10 -7 -12 398.414 304.619 3
-7 17 -15 -388.702 372.836 1
17 -7 15 356.413 283.788 2
-10 -7 -15 568.287 254.044 1
-10 17 15 -460.147 559.385 4
-7 -10 15 548.9 542.428 4
-7 -10 15 789.297 456.692 3
-10 -7 -15 343.022 261.531 3
-6 17 13 -185.824 271.377 3
17 -11 13 -329.625 330.551 2
-11 17 -13 -68.6452 197.511 1
-6 -11 -13 201.764 110.384 1
-6 17 13 292.591 391.631 4
-11 -6 13 95.2944 233.144 4
-11 17 -13 119.281 144.308 3
-6 -11 -13 356.014 257.483 3
-6 17 10 372.824 279.125 3
-11 17 -10 353.626 241.08 3
-6 -11 -10 431.184 291.292 2
17 -11 10 98.8398 277.684 2
-11 17 -10 222.017 173.922 1
-6 17 10 543.919 511.692 4
-11 -6 10 545.259 271.84 4
-6 -11 -10 555.93 303.434 3
-6 17 7 924.083 346.649 3
-11 17 -7 449.899 254.185 3
-6 17 7 613.667 229.758 1
-6 -11 -7 919.942 350.841 2
17 -11 7 671.762 443.51 2
-11 17 -7 338.138 354.495 1
-6 17 7 467.454 426.148 4
-6 -11 -7 509.087 284.264 3
-6 17 4 1919.25 499.266 3
-11 17 -4 2353.47 589.893 3
-11 17 -4 2269.59 625.211 2
-6 -11 -4 2457.75 502.806 2
17 -11 4 3108.74 901.533 2
-11 17 -4 3546.74 820.498 1
-6 17 4 3179.11 723.649 4
-6 17 4 2091.3 440.401 1
-6 -11 -4 3157.78 745.191 3
-6 17 1 3166.49 639.479 3
17 -11 1 3487.5 769.616 1
-11 17 -1 3955.51 711.464 2
-6 17 1 2757.27 598.758 4
-6 17 1 3681.52 617.644 1
17 -11 1 4911.52 986.292 2
17 -6 -1 2165.28 537.695 1
17 -6 -1 4651.41 920.888 2
-6 -11 -1 4025.7 791.337 3
-11 -6 1 3166.55 698.557 2
-11 17 -1 3455.72 712.136 1
-11 17 2 237.736 238.467 1
-11 17 2 119.026 151.955 2
-6 17 -2 489.228 291.72 1
17 -6 2 778.506 403.404 1
17 -11 -2 276.715 231.79 1
17 -6 2 1078 464.151 2
-11 -6 -2 262.645 245.202 2
17 -11 -2 714.809 323.794 2
-11 17 2 345.013 155.857 4
-6 -11 2 400.309 308.945 3
-6 17 -2 -31.2896 242.572 3
-6 17 -5 2837.92 661.926 1
-11 17 5 2921.32 515.754 2
-11 -6 -5 2695.3 655.565 2
-11 17 5 2998.39 592.347 1
17 -6 5 2899.1 851.233 2
-6 -11 5 2627.38 697.301 4
-11 17 5 2268.57 517.112 4
17 -11 -5 3809.15 631.763 4
-6 -11 5 2390.41 676.612 3
-11 -6 -5 2345.96 489.98 1
-6 17 -8 447.817 258.045 1
-11 -6 -8 -67.4333 169.838 2
17 -6 8 894.718 530.621 2
-11 -6 -8 579.333 283.267 1
17 -11 -8 222.256 154.653 4
-11 17 8 359.538 234.989 1
-6 -11 8 1101.75 512.759 4
-11 17 8 76.7124 185.522 4
-11 17 8 280.247 109.22 2
-6 -11 8 404.595 238.622 3
-6 17 -11 1495.42 535.443 1
-11 -6 -11 1591.17 547.534 2
17 -6 11 1699.42 596.935 2
-11 17 11 2088.79 710.333 4
-6 -11 11 2593.24 817.196 4
-11 17 11 2045.12 484.715 2
-6 -11 11 1155.11 533.399 3
-11 -6 -11 1222.98 342.143 1
-6 17 -14 748.51 407.713 1
17 -6 14 1309.27 805.099 2
-11 -6 -14 872.352 303.411 1
-11 17 14 724.656 510.558 4
-6 -11 14 1189.56 619.88 4
-6 -11 14 1066.42 635.206 3
-11 -6 -14 1233.88 401.769 3
-5 -12 -14 128.131 175.977 3
-5 17 14 146.756 131.047 2
17 -12 14 -200.257 499.867 2
-12 17 -14 755.503 533.125 1
-12 -5 14 405.181 348.554 4
-12 17 -14 -45.3458 172.443 3
-5 17 14 133.922 191.889 3
-12 17 -11 1177.77 386.269 3
-5 -12 -11 1772.23 476.517 2
-5 17 11 873.701 203.961 2
17 -12 11 2225.85 930.866 2
-12 17 -11 872.482 484.333 1
-5 17 11 752.646 391.982 4
-12 -5 11 998.554 393.018 4
-5 -12 -11 1484.4 450.903 3
-5 17 11 1200.52 474.508 3
-12 17 -8 1178.3 470.917 3
-5 -12 -8 888.584 349.986 2
-5 17 8 1098.38 237.58 1
17 -12 8 810.089 458.977 2
-12 17 -8 1191 448.229 1
-5 17 8 1801.24 709.175 4
-5 -12 -8 1224.83 481.059 3
-5 17 8 1470.85 505.999 3
-12 17 -5 888.382 391.403 3
-12 17 -5 839.82 411.93 2
17 -12 5 -138.43 391.182 2
-5 -12 -5 761.493 316.111 2
-12 17 -5 686.386 396.103 1
-5 17 5 766.293 363.99 4
-5 17 5 456.413 153.988 1
-5 -12 -5 678.437 359.835 3
-5 17 5 662.278 349.384 3
-12 17 -2 3313.26 721.394 2
-5 17 2 2105.57 490.329 1
17 -12 2 4197.64 956.396 2
-5 17 2 1804.35 508.616 4
-12 17 -2 2823.67 736.274 1
-5 -12 -2 2057.61 486.265 2
-5 -12 -2 2212.88 605.705 3
17 -5 -2 2949.3 721.733 2
-12 -5 2 2896.37 723.758 2
-5 17 2 2299.22 616.469 3
-12 17 1 1109.06 440.803 1
17 -12 -1 252.742 265.211 1
-5 17 -1 141.824 128.175 1
-12 17 1 346.344 228.359 2
17 -5 1 395.011 376.592 1
17 -12 -1 -123.617 198.28 2
-12 -5 -1 17.9416 181.562 2
17 -5 1 728.973 316.517 2
-5 17 -1 422.699 244.866 4
-5 -12 1 821.794 399.477 3
-5 17 -1 588.001 326.516 3
-5 17 -4 1749.63 490.003 1
17 -5 4 1893.53 630.603 1
-12 17 4 2477.19 525.03 2
-12 17 4 2249.82 523.272 1
17 -12 -4 1932.53 527.444 1
-12 -5 -4 1678.92 494.659 2
-5 -12 4 2616.28 733.335 4
17 -5 4 2410.6 726.984 2
-12 17 4 1474.69 372.113 4
17 -12 -4 3129.73 665.042 4
17 -12 -4 1979.86 570.277 2
-5 -12 4 1520.31 584.489 3
-12 -5 -4 2374.84 503.735 1
-5 17 -7 597.67 432.655 1
-12 17 7 507.674 264.443 1
-12 -5 -7 1310.1 547.182 2
17 -5 7 209.456 424.037 2
-12 17 7 326.236 115.185 2
-12 -5 -7 295.473 173.102 1
-5 -12 7 1510.25 667.916 4
-12 17 7 593.263 368.582 4
17 -12 -7 532.064 246.442 4
-5 -12 7 289.224 371.714 3
-5 17 -10 680.149 380.614 1
-12 -5 -10 2.37771 234.239 2
-12 17 10 394.852 239.849 1
17 -5 10 185.568 343.322 2
-12 17 10 627.16 444.883 4
-5 -12 10 1098.96 496.383 4
-12 17 10 209.877 155.456 2
-5 -12 10 269.669 312.862 3
-12 -5 -10 953.488 338.888 1
-5 17 -13 188.369 350.1 1
-12 17 13 463.77 523.938 4
17 -5 13 266.355 563.175 2
-12 -5 -13 225.671 227.589 1
-12 -5 -13 79.5238 173.118 3
-5 -12 13 108.205 288.86 3
-4 -13 -12 983.093 399.611 3
-13 17 -12 969.322 353.969 3
-4 17 12 941.185 228.2 2
17 -13 12 1253.81 736.265 2
-13 17 -12 1274.92 413.825 1
-13 -4 12 1200.43 355.093 4
-4 17 12 1208.7 636.83 4
-4 17 12 1229.23 444.764 3
-13 17 -9 13.2054 210.591 3
-4 -13 -9 190.836 122.181 2
17 -13 9 -76.0463 438.352 2
-13 17 -9 -101.345 321.598 1
-4 17 9 -115.2 205.423 4
-4 17 9 -42.8303 294.625 3
-4 -13 -9 400.315 315.619 3
17 -13 6 2904.07 807.752 2
-4 -13 -6 2750.08 463.572 2
-4 17 6 2549.23 743.159 4
-13 17 -6 1890.33 635.257 1
-4 -13 -6 2218.57 613.726 3
-4 17 6 2213.8 593.233 3
-4 17 6 2344.61 376.863 1
-13 17 -3 1958.6 539.446 2
-4 17 3 2980.01 516.234 1
17 -13 3 2818.42 768.039 2
-4 17 3 2734.78 748.065 4
-13 17 -3 2131.53 630.744 1
-4 -13 -3 2449.65 480.607 2
-4 -13 -3 2838.62 677.217 3
-4 17 3 1988.69 517.543 3
-13 17 0 1413.77 520.547 1
17 -13 0 762.697 342.429 1
-4 17 0 659.978 276.772 1
-13 17 0 1419.77 512.143 2
17 -13 0 1487.45 611.47 2
-4 17 0 726.127 363.21 4
-13 -4 0 751.058 371.814 2
17 -4 0 486.225 340.956 2
17 -4 0 659.933 372.243 1
-4 -13 0 467.283 390.211 3
-13 -4 -3 2236.42 543.414 1
-4 17 -3 1466.36 383.589 1
17 -13 -3 1946.46 571.543 1
-13 17 3 1885.68 462.347 1
17 -4 3 2241.1 644.237 1
-13 17 3 2574.41 549.154 2
-13 -4 -3 2129.86 587.968 2
-4 -13 3 1950.15 576.248 4
17 -4 3 2320.57 692.532 2
17 -13 -3 1539.62 538.014 2
-4 17 -3 1034.42 372.253 4
-4 -13 3 2041.82 632.731 3
-13 17 6 641.887 291.014 1
-4 17 -6 896.66 377.744 1
-13 -4 -6 1475.16 568.966 2
-13 17 6 1048.74 402.011 2
17 -4 6 933.838 532.028 2
-4 -13 6 1082.72 642.67 4
17 -13 -6 644.615 365.165 1
17 -13 -6 1410.78 380.79 4
-13 -4 -6 840.419 355.736 1
-13 17 6 486.337 180.968 4
-4 -13 6 1749.44 634.193 3
-13 -4 -9 613.577 404.845 1
-4 17 -9 795.436 396.294 1
-13 17 9 343.079 153.731 1
-13 -4 -9 238.644 205.546 2
-13 17 9 522.913 300.546 2
17 -4 9 730.128 398.058 2
-13 17 9 630.582 352.296 4
-4 -13 9 940.256 498.165 4
-4 -13 9 367.544 419.504 3
-4 17 -12 513.444 309.071 1
17 -4 12 -83.0175 273.191 2
-13 -4 -12 -34.0622 151.461 1
-13 17 12 259.266 311.528 4
-13 17 12 160.039 214.834 2
-4 -13 12 -36.8886 371.047 3
-14 17 -13 1026.61 374.307 3
-3 -14 -13 1299.68 447.571 3
17 -14 13 1909.63 761.78 2
-3 17 13 1083.23 271.817 2
-14 17 -13 663.817 376.489 1
-14 -3 13 2225.56 529.392 4
-3 17 13 1604.96 527.427 3
-3 -14 -10 408.666 158.081 3
17 -14 10 -677.037 565.314 2
-14 17 -10 314.434 396.776 1
-3 17 10 529.594 432.719 4
-3 17 10 779.259 397.363 3
-3 17 7 3273.78 381.132 1
-3 -14 -7 3470.32 492.11 2
17 -14 7 4066.96 1041.59 2
-3 17 7 4328.29 1061.82 4
-14 17 -7 3949.73 905.769 1
-3 -14 -7 3980.3 847.766 3
-14 17 -4 1333.99 552.468 2
-3 17 4 846.26 195.434 1
17 -14 4 1548.58 676.765 2
-3 17 4 1099.04 504.294 4
-3 -14 -4 1191.03 282.678 2
-14 17 -4 1715.16 560.112 1
-3 -14 -4 1253.43 502.2 3
-14 17 -1 392.166 243.584 1
-3 17 1 88.9126 142.78 1
-14 17 -1 148.493 192.651 2
17 -14 1 -5.03305 195.479 2
-3 17 1 -17.6056 142.827 4
-14 -3 1 185.466 224.892 2
17 -3 -1 -142.76 191.068 2
-3 -14 -1 -70.4408 170.699 3
-3 17 -2 1407.06 426.632 1
17 -14 -2 1129.22 524.699 1
-14 -3 -2 1501.39 459.576 1
-14 17 2 1451.5 499.083 1
-14 17 2 1757.55 466.434 2
17 -3 2 1653.3 608.969 1
-3 -14 2 1644.18 653.261 4
-14 -3 -2 1132.61 417.9 2
17 -14 -2 1035.05 444.035 2
17 -3 2 1311.11 550.504 2
-3 17 -2 1119.13 377.056 4
-3 -14 2 1154.68 472.008 3
-3 17 -5 1913.12 546.109 1
17 -3 5 2219.91 684.512 1
17 -3 5 2054.86 710.063 2
17 -14 -5 2115.02 618.619 1
-14 17 5 1841.42 516.2 2
-14 -3 -5 1384.3 452.951 2
-3 -14 5 1594.44 617.979 4
17 -14 -5 2653.16 644.317 4
-14 17 5 1015.72 328.274 4
-14 -3 -5 1839.99 521.008 1
-14 17 5 1921.77 571.071 1
17 -14 -5 1950.93 593.03 2
-3 -14 5 1610.33 547.304 3
-3 17 -8 -350.43 351.197 1
-14 -3 -8 114.333 142.038 1
-14 -3 -8 173.332 300.885 2
17 -3 8 355.712 284.016 2
17 -14 -8 657.791 264.129 4
-3 -14 8 640.663 535.173 4
-14 17 8 -50.5513 300.576 2
-14 17 8 -31.1757 191.887 4
-14 17 8 356.266 209.837 1
-3 -14 8 499.974 234.771 3
-3 17 -11 796.925 411.708 1
-14 17 11 927.566 382.875 1
17 -3 11 1129.83 514.912 2
-14 17 11 441.616 285.663 4
-14 -3 -11 1073.92 399.384 1
-14 17 11 580.342 184.459 2
-3 -14 11 918.618 606.429 3
-3 17 -14 146.552 222.808 1
-14 -3 -14 194.922 172.285 1
17 -3 14 163.399 345.524 2
-15 17 -14 194.155 206.627 3
17 -15 14 -68.7897 361.43 2
-2 17 14 337.877 182.323 2
-15 17 -14 -82.4466 305.147 1
-15 -2 14 321.454 105.86 4
-2 17 14 448.771 146.604 3
-2 -15 -11 256.003 235.357 3
17 -15 11 596.085 578.131 2
-15 17 -11 -173.366 407.584 1
-2 -15 -8 1166.04 489.174 3
-2 -15 -8 874.372 226.941 2
17 -15 8 556.935 454.416 2
-15 17 -8 853.726 346.43 1
-2 17 8 751.035 487.262 4
-2 -15 -5 2822.8 424.184 2
-2 17 5 3251.23 440.115 1
17 -15 5 3214.18 930.323 2
-2 17 5 3256.13 834.413 4
-15 17 -5 2949.71 830.354 1
-2 -15 -5 2448.02 665.813 3
-2 17 2 2937.34 553.934 1
-15 17 -2 2698.8 668.597 2
17 -15 2 3830.66 957.716 2
-2 17 2 2527.31 689.659 4
-2 -15 -2 2858.08 682.282 3
-15 17 -2 3791.89 930.445 1
-2 17 -1 2063.6 529.41 1
-15 17 1 2481.4 711.033 1
-15 -2 -1 2118.5 570.885 1
-15 17 1 3001.7 715.821 2
17 -15 -1 2074.96 597.165 2
-15 -2 -1 2059.63 618.023 2
17 -2 1 2408.96 712.247 2
-2 17 -1 2044.09 557.081 4
-2 -15 1 2667.88 660.278 3
-2 17 -4 384.067 288.455 1
17 -15 -4 544.231 298.526 1
17 -2 4 255.878 319.012 1
-15 17 4 352.792 130.609 2
-15 -2 -4 132.984 210.734 2
17 -2 4 874.818 452.271 2
-15 17 4 336.369 411.639 1
17 -15 -4 -204.376 436.292 4
-2 17 -4 255.039 154.272 4
17 -15 -4 964.603 449.589 2
-2 -15 4 518.817 353.434 3
-15 -2 -4 124.505 133.033 1
-2 17 -7 193.682 254.135 1
-15 -2 -7 77.9958 173.656 1
-15 17 7 588.99 288.739 1
17 -15 -7 488.667 363.857 4
17 -15 -7 429.552 336.648 1
17 -2 7 14.7243 278.423 2
-15 17 7 296.192 219.981 2
-15 17 7 -41.8968 196.133 4
-2 -15 7 980.815 486.827 3
-2 17 -10 235.705 173.857 1
-15 17 10 22.8567 242.978 1
17 -2 10 126.077 420.418 2
-15 17 10 468.612 368.899 4
-15 17 10 698.818 334.616 2
-15 -2 -10 380.075 216.233 1
-2 -15 10 207.084 317.733 3
-2 17 -13 686.833 373.551 1
17 -2 13 798.545 485.337 2
-15 -2 -13 416.756 300.206 1
-15 17 13 498.768 394.122 4
-15 17 13 543.18 295.888 2
-2 -15 13 -250.301 432.066 3
-1 -16 -12 514.409 326.033 3
17 -16 12 698.413 525.07 2
-1 17 12 201.272 140.503 2
-16 17 -12 211.769 202.937 1
-1 -16 -9 906.215 323.229 3
17 -16 9 1294.78 647.691 2
-1 17 9 -140.855 385.173 4
-16 17 -9 878.085 484.331 1
-1 -16 -6 4849.69 454.9 2
17 -16 6 6942.72 1414.54 2
17 -1 -6 5027.7 548.361 4
-1 17 6 6836.18 1314.93 4
-1 -16 -6 6262.32 1003.76 3
-1 17 6 5597.14 553.837 1
-16 17 -6 6878.62 1241.89 1
-1 17 3 125.769 147.587 1
17 -16 3 -20.2268 223.687 2
-1 17 3 549.05 227.767 4
-1 -16 -3 297.816 342.486 3
-16 17 -3 664.054 373.723 1
-1 17 0 1542.16 428.706 1
-16 17 0 1958.82 647.27 1
17 -1 0 1753.48 595.927 2
-16 17 0 1837.16 573.214 2
-16 -1 0 1820.23 498.133 1
17 -16 0 1696.82 605.301 2
-1 17 0 1661.29 512.862 4
-1 -16 0 1624.14 578.289 3
-1 17 -3 710.507 323.54 1
-16 -1 -3 933.295 401.563 1
17 -16 -3 981.15 486.089 1
-16 17 3 1183.29 490.793 2
17 -1 3 903.029 446.007 1
-16 17 3 885.864 540.844 1
17 -16 -3 1046.6 439.272 2
17 -1 3 977.728 412.227 2
17 -16 -3 1434.89 566.291 4
-1 17 -3 539.737 290.437 4
-1 -16 3 921.149 431.826 3
-1 17 -6 1034.07 448.335 1
17 -1 6 1241.9 482.445 1
-16 17 6 443.633 174.801 1
17 -16 -6 840.314 423.284 4
-16 -1 -6 979.796 422.488 1
17 -16 -6 1167.4 411.616 1
-16 17 6 992.518 390.733 2
17 -1 6 169.76 172.85 2
-1 -16 6 979.599 494.195 3
-1 17 -9 723.587 310.4 1
-16 17 9 527.48 238.672 1
17 -1 9 -81.692 349.409 2
-16 17 9 519.762 399.675 2
-16 17 9 196.231 228.038 4
-16 -1 -9 326.693 227.212 1
-1 -16 9 577.283 475.754 3
-1 17 -12 675.43 469.285 1
17 -1 12 -310.57 536.545 2
-16 -1 -12 89.1406 153.889 1
-16 17 12 298.963 259.58 4
-16 17 12 259.714 216.027 2
-1 -16 12 -9.12927 290.621 3
17 -17 13 -295.302 709.485 2
0 17 13 -48.5775 133.678 2
-17 17 -13 459.879 523.048 1
0 -17 -10 651.725 357.155 3
17 -17 10 886.334 624.81 2
-17 17 -10 84.0737 263.636 1
0 -17 -7 818.707 361.618 3
17 -17 7 1230.5 636.047 2
0 17 7 1454.3 715.07 4
0 17 7 979.984 189.153 1
17 0 -7 1112.86 240.999 4
-17 17 -7 1033.87 417.318 1
-17 17 -4 733.932 456.751 1
0 -17 -4 657.724 314.841 3
0 17 4 40.0095 138.493 1
17 -17 4 110.173 256.001 2
0 17 4 813.352 362.516 4
0 -17 -4 121.977 92.4542 2
0 17 1 459.604 185.173 1
-17 17 -1 849.935 402.46 1
-17 17 -1 875.329 404.399 2
17 -17 1 706.382 482.437 2
0 17 1 977.078 510.883 4
-17 0 1 320.249 205.626 1
0 -17 -1 436.537 307.597 3
0 17 -2 1048.52 332.557 1
-17 0 -2 1378.81 418.715 1
-17 17 2 1594.79 560.772 2
-17 17 2 2211.75 645.316 1
17 -17 -2 1787.07 595.781 2
0 17 -2 1240.46 475.127 4
17 -17 -2 2570.71 771.247 4
17 0 2 1123.35 460.977 2
0 -17 2 1600.02 602.563 3
-17 17 5 565.049 368.012 1
17 -17 -5 -51.3546 153.951 1
17 0 5 -115.077 282.335 1
-17 0 -5 224.061 254.134 1
-17 17 5 113.701 179.116 2
17 -17 -5 -102.348 242.358 4
17 0 5 -295.288 212.099 2
0 17 -5 -101.624 280.07 4
17 -17 -5 219.743 159.176 2
0 -17 5 201.295 324.195 3
17 0 8 704.192 403.448 1
0 17 -8 -211.332 238.838 1
17 -17 -8 297.754 200.292 1
17 -17 -8 304.849 227.554 4
-17 17 8 112.009 260.638 2
-17 0 -8 428.667 353.595 1
0 -17 8 214.631 333.154 3
-17 17 8 188.138 265.07 1
17 0 8 226.999 298.285 2
0 17 -11 -76.0365 167.885 1
-17 17 11 -92.7305 294.958 1
17 0 11 633.281 473.742 2
-17 0 -11 -113.398 367.838 1
-17 17 11 -52.5635 169.835 4
-17 17 11 -518.028 450.572 2
0 -17 11 -66.0437 290.223 3
1 -18 -11 623.775 411.451 3
17 -18 11 41.8839 385.589 2
-18 17 -11 229.688 355.029 1
1 17 11 341.022 159.224 2
1 -18 -8 1782.34 601.972 3
17 -18 8 2238.48 913.767 2
1 17 8 1275.42 710.348 4
17 1 -8 1132.28 248.446 4
-18 17 -8 1674.51 644.709 1
-18 17 -5 1220.36 602.478 1
1 -18 -5 852.598 455.82 3
1 17 5 949.557 253.249 1
17 -18 5 52.0523 220.599 2
17 1 -5 912.552 308.786 4
1 17 5 1055.28 597.658 4
1 -18 -2 606.967 282.745 3
-18 1 2 -392.673 412.651 1
-18 17 -2 537.537 363.552 1
17 -18 2 487.569 372.729 2
1 17 2 265.5 164.049 4
1 -18 1 1614.13 609.157 3
-18 1 -1 1705.87 554.072 1
-18 17 1 3321.68 915.121 2
-18 17 1 2711.33 814.349 1
1 17 -1 1172.23 442.746 4
17 -18 -1 2460.63 775.091 4
17 -18 -1 2152.04 641.557 2
17 1 1 1955.15 656.127 2
17 -18 -4 597.567 306.221 1
17 -18 -4 0.95764 431.741 4
-18 1 -4 377.01 301.946 1
-18 17 4 46.1749 145.691 2
17 -18 -4 278.098 158.332 2
17 1 4 -25.68 265.353 2
1 17 -4 -277.87 210.889 4
-18 17 4 537.232 365.411 1
1 -18 4 -387.779 306.653 3
-18 1 -7 863.071 452.625 1
17 1 7 520.776 415.741 1
17 -18 -7 596.421 391.466 1
17 -18 -7 420.716 186.762 4
-18 17 7 152.643 271.482 2
-18 17 7 27.7519 279.11 1
17 1 7 326.175 355.173 2
1 -18 7 384.111 326.248 3
-18 17 10 290.565 258.991 1
17 1 10 1270.6 572.24 2
-18 1 -10 549.828 312.359 1
-18 17 10 561.958 356.492 2
-18 17 10 387.741 247.487 4
1 -18 10 268.773 421.301 3
1 17 -13 647.631 315.131 1
-18 1 -13 652.409 412.168 1
17 1 13 2010.66 915.06 2
-18 17 13 444.825 257.179 4
1 -18 13 1250.82 709.914 3
17 -19 12 642.192 444.639 2
2 17 12 370.714 219.852 2
-19 17 -12 10.2099 353.603 1
2 -19 -9 84.6616 157.479 3
17 -19 9 997.547 623.408 2
-19 17 -9 272.463 472.41 1
-19 17 -6 632.91 392.588 1
2 17 6 420.292 168.458 1
2 -19 -6 165.562 330.371 3
17 -19 6 413.007 427.169 2
17 2 -6 -199.454 209.396 4
2 17 6 -43.8708 227.879 4
2 -19 -3 417.068 193.543 3
-19 17 -3 876.228 429.182 1
17 -19 3 944.125 496.568 2
-19 2 3 957.433 424.375 1
2 17 3 1564.13 603.693 4
2 -19 0 1247.67 460.101 3
-19 17 0 688.405 332.258 1
-19 2 0 986.818 424.466 1
17 -19 0 1069.13 366.737 2
2 17 0 862.082 357.783 4
2 -19 3 391.112 386.222 3
-19 17 3 666.772 418.155 2
-19 2 -3 888.249 464.26 1
17 -19 -3 335.279 241.731 2
17 -19 -3 453.496 339.376 4
2 17 -3 807.993 391.674 4
17 2 3 333.65 331.642 2
-19 17 3 1328.48 549.699 1
2 -19 6 909.766 586.619 3
17 -19 -6 -274.867 290.656 1
-19 2 -6 39.4739 150.921 1
17 2 6 200.318 165.017 1
-19 17 6 -172.56 312.962 1
-19 17 6 117.567 267.246 2
17 2 6 -1003.71 489.638 2
2 17 -6 384.751 293.366 4
17 -19 -6 -69.2807 318.971 4
17 -19 -6 -66.6233 159.926 2
2 -19 9 516.949 331.155 3
17 -19 -9 636.225 441.289 1
-19 17 9 467.838 356.479 1
17 2 9 701.653 460.962 2
17 -19 -9 71.1691 233.395 4
-19 2 -9 655.914 347.607 1
17 2 9 409.907 291.146 1
2 -19 12 393.866 229.757 3
17 2 12 -41.6658 288.345 2
-19 17 12 -81.7563 201.379 4
17 -20 10 1309.68 645.899 2
-20 17 -10 1052.82 466.637 1
3 17 7 425.219 175.555 1
-20 17 -7 491.325 503.748 1
3 -20 -7 1291.06 547.64 3
17 -20 7 524.341 448.376 2
3 17 7 592.102 572.831 4
17 3 -7 218.689 109.922 4
3 17 7 767.972 250.36 1
3 -20 -4 1159.22 362.426 3
-20 3 4 607.61 374.305 1
-20 17 -4 1928.45 707.581 1
3 -20 -4 893.313 227.076 2
17 -20 4 964.693 410.482 2
17 3 -4 1106.74 339.127 4
3 17 4 1397.62 704.41 4
-20 3 1 766.001 376.49 1
3 -20 -1 505.409 262.338 3
3 17 1 -31.5781 326.235 4
-20 17 -1 626.152 484.888 1
17 -20 1 721.47 467.907 2
3 -20 2 696.331 389.38 3
-20 3 -2 744.324 326.911 1
3 17 -2 826.155 333.828 4
-20 17 2 1445.26 640.452 1
17 -20 -2 968.965 451.016 2
17 3 2 943.212 387.975 2
3 -20 5 821.782 511.636 3
-20 3 -5 -26.5938 216.8 1
-20 17 5 -232.505 242.619 1
3 17 -5 99.2665 166.608 4
17 3 5 -119.845 286.844 2
17 -20 -5 -130.069 261.44 2
3 -20 8 828.199 589.437 3
-20 17 8 211.341 191.291 1
17 -20 -8 369.887 334.776 1
17 3 8 678.499 388.991 1
17 3 8 557.596 469.007 2
17 -20 -8 636.352 482.141 4
-20 3 -8 791.064 408.619 1
3 -20 11 784.359 521.182 3
17 -20 -11 398.803 310.203 1
-20 17 11 308.832 350.419 1
-20 3 -11 75.9595 312.196 1
17 3 11 613.925 465.297 2
17 -21 11 -547.751 560.357 2
-21 17 -11 -147.144 213.33 1
-21 17 -8 638.756 548.303 1
17 -21 8 430.172 502.679 2
4 17 8 540.787 409.14 4
17 4 -8 12.5797 120.921 4
4 17 8 434.272 176.733 1
4 -21 -5 754.806 429.869 3
-21 17 -5 1673.89 658.506 1
17 -21 5 1499.49 736.913 2
4 17 5 1466.74 708.084 4
17 4 -5 1040.8 327.496 4
-21 4 5 699.253 182.477 1
4 -21 -2 4912.04 1035.11 3
4 -21 -2 4293.19 609.476 2
-21 17 -2 5774.28 1157.96 1
17 -21 2 4854.16 1038.31 2
4 17 2 4375.5 986.712 4
-21 4 2 3726.09 849.306 1
4 -21 1 400.238 264.868 3
17 -21 -1 998.37 516.229 2
4 17 -1 705.41 280.702 4
-21 17 1 1276.04 555.191 1
-21 4 -1 608.087 230.867 1
4 -21 4 410.268 375.363 3
-21 17 4 224.293 170.354 1
-21 4 -4 457.782 436.036 1
4 17 -4 333.002 207.468 4
17 -21 -4 -21.1256 285.434 2
17 4 4 232.28 262.79 2
4 -21 7 1122.14 559.742 3
17 4 7 724.943 441.822 1
17 4 7 1028.69 509.272 2
-21 17 7 876.698 387.643 1
-21 4 -7 1106.75 530 1
17 -21 -7 897.943 493.698 1
4 -21 10 362.759 372.528 3
17 -21 -10 177.81 434.396 1
-21 17 10 -122.017 314.932 1
17 4 10 582.566 358.265 2
-21 4 -10 403.343 459.955 1
17 4 10 419.481 328.932 1
-22 17 -9 553.282 406.636 1
5 17 9 555.66 180.644 1
17 -22 9 460.377 530.217 2
17 5 -9 792.276 277.121 4
5 -22 -6 1504.88 597.599 3
5 17 6 1979.07 418.799 1
-22 17 -6 1480.04 738.342 1
17 -22 6 1667.67 754.022 2
5 17 6 2285.14 793.578 4
17 5 -6 1283.75 406.182 4
-22 5 6 814.914 254.534 1
5 -22 -3 1968.75 690.436 3
-22 5 3 2213.71 731.695 1
5 -22 -3 1850.6 384.218 2
-22 17 -3 2656.59 807.044 1
17 -22 3 1631.68 674.088 2
5 17 3 1801.71 714.491 4
17 5 -3 835.112 359.573 4
-22 5 0 520.086 335.327 1
5 -22 0 449.042 378.304 3
5 -22 0 505.492 308.748 2
17 -22 0 305.655 384.272 2
-22 17 0 884.174 536.288 1
5 17 0 324.416 308.783 4
5 -22 3 263.563 193.119 3
-22 17 3 -26.7509 176.891 1
-22 5 -3 530.156 431.958 1
17 -22 -3 626.343 347.327 2
5 17 -3 481.835 312.699 4
17 5 3 305.614 281.678 2
-22 5 -6 803.519 413.034 1
5 -22 6 1065.19 565.652 3
-22 17 6 785.706 470.959 1
5 17 -6 445.88 313.157 4
17 5 6 386.002 272.283 2
17 -22 -6 598.789 325.044 2
17 -22 -9 276.956 210.229 1
5 -22 9 66.2146 321.465 3
17 5 9 606.06 208.788 1
17 5 9 931.744 596.106 2
-22 17 9 435.314 218.531 1
-22 5 -9 1083.42 534.292 1
-23 17 -10 -437.549 405.738 1
17 -23 10 262.67 512.149 2
6 17 10 -75.6689 81.5218 1
-23 17 -7 382.559 343.811 1
6 17 7 839.886 323.285 1
17 -23 7 339.588 282.009 2
6 17 7 654.825 632.851 4
17 6 -7 478.035 273.9 4
6 -23 -4 -54.9954 239.56 3
-23 17 -4 308.325 391.053 1
6 -23 -4 722.724 231.536 2
17 -23 4 702.037 528.062 2
6 17 4 570.838 261.158 1
-23 6 4 325.32 296.966 1
6 17 4 509.325 258.221 4
17 6 -4 157.775 306.754 4
6 -23 -1 398.693 448.594 3
-23 6 1 311.832 270.678 1
6 -23 -1 1087.72 437.369 2
17 -23 1 525.585 276.69 2
-23 17 -1 983.628 471.396 1
6 17 1 1069.23 576.99 4
6 -23 2 154.808 449.814 3
6 -23 2 306.272 306.819 2
6 17 -2 233.426 257.02 4
-23 6 -2 423.726 381.642 1
17 -23 -2 492.224 311.509 2
-23 17 2 303.332 389.418 1
6 -23 5 545.013 435 3
-23 6 -5 331.079 256.334 1
17 -23 -5 -43.5938 294.026 2
-23 17 5 700.376 467.198 1
6 17 -5 267.59 351.373 4
17 6 5 284.815 376.289 2
6 -23 8 -243.339 551.457 3
17 6 8 389.996 251.626 1
-23 17 8 1187.96 630.539 1
17 6 8 -128.435 290.815 2
-23 6 -8 399.197 329.596 1
17 -23 -8 -125.096 320.962 1
-24 17 -8 1562.87 753.356 1
17 -24 8 1443.88 843.716 2
17 7 -8 1104.01 340.051 4
7 17 8 1539.8 415.284 1
-24 17 -5 542.055 423.366 1
17 -24 5 112.031 346.931 2
7 17 5 221.19 192.085 1
7 -24 -5 202.491 107.887 2
7 17 5 -87.3207 244.7 4
17 7 -5 224.389 310.663 4
-24 7 5 545.318 369.259 1
7 -24 -2 316.648 324.615 3
7 -24 -2 958.665 363.97 2
-24 7 2 174.532 196.275 1
17 -24 2 83.1524 334.352 2
17 7 -2 321.373 209.488 4
-24 17 -2 316.064 304.675 1
7 17 2 121.463 206.068 4
7 -24 1 472.669 402.522 3
7 -24 1 1315.17 525.622 2
7 17 -1 736.813 308.557 4
17 -24 -1 1251.43 580.009 2
-24 7 -1 1172.66 632.983 1
-24 17 1 1235.91 477.238 1
7 -24 4 531.271 266.67 3
7 -24 4 699.883 361.253 2
-24 7 -4 611.85 412.065 1
-24 17 4 1012.52 480.251 1
17 -24 -4 1155.11 471.645 2
7 17 -4 813.135 329.949 4
7 -24 7 539.006 360.125 3
-24 17 7 137.791 420.442 1
7 -24 7 763.492 431.89 2
7 17 -7 676.399 366.351 4
17 7 7 827.471 597.611 2
-24 7 -7 617.666 485.825 1
-25 8 6 1096.11 683.57 1
8 17 6 1081.33 650.165 4
17 -25 6 277.577 312.615 2
-25 17 -6 807.824 541.455 1
8 17 6 770.893 343.831 1
17 8 -6 767.061 367.034 4
8 17 3 226.866 266.962 1
17 8 -3 101.809 157.324 4
8 -25 -3 305.982 142.743 2
17 -25 3 212.338 424.489 2
-25 8 3 277.822 395.243 1
-25 17 -3 718.403 389.122 1
8 17 3 -168.466 332.318 4
8 -25 0 -47.9658 366.092 2
17 -25 0 -281.283 400.717 2
8 17 0 437.754 332.212 4
-25 8 0 333.711 426.496 1
-25 17 0 971.578 640.966 1
8 -25 3 195.515 251.762 3
8 -25 3 61.1366 289.191 2
-25 17 3 44.3788 296.648 1
-25 8 -3 65.9317 209.759 1
8 17 -3 465.263 284.943 4
17 -25 -3 -434.608 282.419 2
8 -25 6 427.077 248.282 3
8 -25 6 608.062 532.333 2
8 17 -6 845.61 364.207 4
17 -25 -6 387.843 256.356 2
-25 17 6 -288.616 454.849 1
17 8 6 -62.2808 376.032 2
-25 8 -6 687.543 484.448 1
9 17 7 53.9743 194.186 1
17 -26 7 573.798 451.178 2
-26 17 -7 366.3 407.592 1
17 9 -7 574.136 291.265 4
-26 9 7 -191.635 370.986 1
9 -26 -4 229.917 317.453 1
17 -26 4 683.659 452.359 2
9 -26 -4 -211.165 160.669 2
-26 17 -4 87.911 264.246 1
9 17 4 -202.401 408.215 4
17 9 -4 164.452 165.088 4
9 17 4 137.26 259.885 1
-26 9 4 -515.266 306.384 1
9 -26 -1 190.204 178.494 2
17 -26 1 -302.791 407.559 2
17 9 -1 246.084 219.785 4
9 17 1 320.484 360.755 4
-26 17 -1 222.065 395.602 1
-26 9 1 -335.835 286.616 1
-26 17 2 203.493 251.826 1
9 -26 2 632.559 447.824 2
-26 9 -2 -208.311 245.887 1
17 -26 -2 92.0904 232.523 2
9 17 -2 225.029 160.204 4
-26 9 -5 636.506 465.158 1
9 -26 5 214.118 230.793 2
-26 17 5 98.8259 275.92 1
17 -26 -5 264.226 233.669 2
9 17 -5 -243.606 335.071 4
10 -27 -5 101.247 147.492 1
-27 10 5 -39.838 334.6 1
17 -27 5 -731.367 495.062 2
-27 17 -5 868.704 478.581 1
10 17 5 -97.9176 292.245 4
17 10 -5 358.495 330.707 4
10 -27 -5 519.21 229.726 2
10 17 5 -90.7661 357.491 1
-27 10 2 -28.2155 215.739 1
10 -27 -2 401.847 160.064 2
17 -27 2 -243.85 513.398 2
17 10 -2 310.994 338.302 4
10 17 2 -230.189 464.992 4
-27 17 -2 269.252 296.799 1
-27 17 1 464.367 261.088 1
10 -27 1 613.86 375.721 2
-27 10 -1 118.67 348.854 1
17 -27 -1 261.923 283.817 2
10 17 -1 -16.6093 185.618 4
-27 10 -4 49.147 288.441 1
10 -27 4 313.776 265.579 2
17 -27 -4 570.526 343.239 2
-27 17 4 -99.1131 235.713 1
10 17 -4 230.572 184.419 4
-28 11 3 1046.26 408.009 1
17 -28 3 715.917 273.595 2
11 -28 -3 1302.74 430.339 2
11 17 3 447.068 356.874 4
17 11 -3 960.817 553.343 4
-28 17 -3 1156.58 588.222 1
-28 17 0 829.97 581.462 1
11 -28 0 1336.46 551.062 2
17 -28 0 849.292 534.973 2
17 11 0 102.941 241.973 4
-28 11 0 1341.03 654.198 1
11 17 0 674.105 444.086 4
-28 11 -3 314.138 414.731 1
11 -28 3 338.132 271.767 2
17 -28 -3 314.282 385.824 2
-28 17 3 625.756 409.922 1
11 17 -3 71.1767 178.164 4
-9 18 0 1747.33 518.372 1
18 -9 0 3070.39 724.665 2
-9 18 0 1565.58 486.009 4
-9 -9 0 1715.62 503.15 2
-9 18 3 4485.07 584.331 2
-9 -9 -3 4745.26 793.709 2
-9 18 -3 3813.29 823.971 1
-9 18 3 2741.55 597.151 4
18 -9 -3 4177.54 895.236 2
-9 18 3 4170.09 691.661 1
-9 18 6 282.127 148.881 2
-9 18 -6 248.493 273.914 1
-9 -9 -6 554.813 306.396 2
-9 18 6 205.147 186.679 1
18 -9 6 294.11 312.725 2
-9 -9 6 263.246 285.971 4
-9 18 6 -362.04 414.167 4
18 -9 -6 295.05 152.822 4
-9 -9 -6 200.996 196.784 3
-9 18 -9 883.971 518.435 1
-9 -9 -9 529.893 366.312 2
-9 -9 -9 717.953 272.71 1
18 -9 9 634.667 443.942 2
-9 18 9 8.72486 228.03 4
-9 18 9 586.314 200.868 2
-9 -9 9 558.317 364.793 4
-9 -9 -9 390.967 182.256 3
-9 18 9 289.153 186.19 1
-9 -9 -12 -16.338 171.9 2
-9 -9 -12 254.493 166.28 1
-9 18 -12 183.51 284.782 1
18 -9 12 -220.274 302.52 2
-9 18 12 162.722 282.215 4
-9 -9 12 379.849 271.639 4
-9 18 12 172.795 204.589 2
-9 -9 -12 417.069 369.553 3
-8 -10 -13 272.292 187.388 2
-8 -10 -13 1066.22 345.865 1
-10 18 -13 -24.3517 302.018 1
18 -10 13 860.967 749.884 2
-8 18 13 -39.3486 348.884 4
-10 -8 13 299.295 213.829 4
-8 -10 -13 621.664 275.427 3
-8 -10 -10 405.647 248.108 2
-10 18 -10 97.4121 253.626 1
18 -10 10 -72.9756 336.166 2
-8 -10 -10 377.492 217.143 1
-8 18 10 788.683 497.864 4
-8 18 10 681.475 232.47 2
-10 -8 10 431.265 364.602 4
-8 -10 -10 98.0177 192.057 3
-8 18 7 1013.7 207.954 2
-10 18 -7 1009.12 472.921 1
-8 -10 -7 1098.74 353.432 2
-10 -8 7 878.622 380.946 4
18 -8 -7 818.299 186.753 4
-8 18 7 1207.24 596.917 4
-8 18 7 983.216 306.685 1
-8 -10 -7 1283.84 494.097 3
-10 18 -4 123.791 155.372 1
18 -10 4 297.142 346.757 2
-8 -10 -4 551.959 232.586 2
-8 18 4 813.906 380.679 4
-8 -10 -4 718.208 417.841 3
-8 18 4 757.388 220.179 1
-10 18 -1 1421.2 395.628 2
-8 18 1 1664.82 432.184 1
-10 18 -1 1338.21 436.492 1
-8 18 1 723.265 259.196 4
18 -8 -1 1555.22 583.906 2
18 -10 1 2665.13 777.125 2
-8 -10 -1 872.775 355.599 2
-10 18 2 1847.4 400.804 2
-8 18 -2 1949.75 538.457 1
18 -8 2 1716.08 633.041 2
-10 -8 -2 1801.79 501.337 2
-10 18 2 843.389 299.905 4
18 -10 -2 1883.54 590.463 2
-10 18 2 1417.86 390.158 1
-10 18 5 435.549 167.683 2
-8 18 -5 295.418 161.403 1
-10 18 5 712.751 311.629 1
-10 -8 -5 478.167 303.787 2
18 -8 5 385.545 341.276 2
-8 -10 5 28.358 323.037 4
-10 18 5 552.455 313.562 4
-8 18 -8 1205.88 511.571 1
-10 -8 -8 1346.87 356.946 1
-10 18 8 1166.34 350.033 1
-10 -8 -8 1128.34 456.378 2
18 -8 8 851.08 597.965 2
-10 18 8 1226.47 294.026 2
18 -10 -8 1141.45 244.451 4
-8 -10 8 882.243 374.747 4
-10 18 8 1918.42 572.144 4
-10 -8 -11 173.541 261.114 2
-8 18 -11 225.224 254.346 1
-10 -8 -11 668.602 298.949 1
18 -8 11 1440.62 686.16 2
-10 18 11 628.125 339.652 4
-8 -10 11 625.201 409.958 4
-10 18 11 463.92 183.195 2
-10 -8 -11 657.543 349.321 3
-8 18 -14 422.788 352.42 1
18 -8 14 448.855 704.573 2
-10 18 14 1151.73 731.065 4
-10 -8 -14 -37.7206 159.337 1
-8 -10 14 836.027 456.544 4
-8 -10 14 307.923 357.323 3
-10 -8 -14 352.706 145.543 3
-7 -11 -14 237.78 146.367 1
-11 18 -14 161.001 193.059 1
18 -11 14 588.268 591.824 2
-7 18 14 123.459 657.015 4
-11 -7 14 89.145 180.329 4
-7 -11 -14 422.332 237.035 3
-7 -11 -11 1396.24 274.988 1
-7 -11 -11 2722.38 611.526 2
-11 18 -11 1228.11 546.363 1
18 -11 11 1208.11 687.669 2
-7 18 11 1977.87 728.135 4
-11 -7 11 1506.54 461.82 4
-7 18 11 1061.07 274.209 2
-7 -11 -11 1498.44 488.434 3
-7 18 8 1866.81 358.689 1
-7 -11 -8 1792.24 462.233 2
-11 18 -8 1087.12 392.492 1
18 -11 8 1900.14 742.042 2
-11 -7 8 1559.69 463.651 4
-7 18 8 1246.57 520.203 4
-7 -11 -8 1112.56 450.52 3
-7 -11 -5 4488.78 737.749 2
-7 18 5 4672.4 918.717 4
-11 18 -5 4260.74 873.296 1
18 -11 5 5461.85 1154.38 2
-7 -11 -5 4238.58 795.282 3
-7 18 5 4082.71 590.213 1
-11 18 -2 8033.17 1075.84 2
18 -11 2 9486.27 1438.46 2
-7 -11 -2 6775.96 890.292 2
18 -7 -2 8721.26 1222.41 2
-7 18 2 6324.88 932.896 4
-7 -11 -2 9033.8 1221.06 3
-7 18 2 7661.93 943.376 1
-11 18 -2 7828.73 1199.62 1
-11 18 1 1115.34 364.312 2
-7 18 -1 931.564 345.057 1
18 -7 1 535.655 275.206 2
18 -11 -1 1220.64 481.543 2
-11 -7 -1 1164.8 339.019 2
-7 18 -1 558.213 183.003 4
-7 -11 1 1007.18 513.228 3
-11 18 1 1156.21 414.523 1
-11 18 4 2041.02 529.353 1
-7 18 -4 1671.04 587.852 1
-11 18 4 1704.74 412.135 2
-7 -11 4 741.009 297.274 4
-11 -7 -4 1730.58 585.687 2
18 -7 4 1351.84 600.507 2
-11 18 4 1286.57 432.917 4
18 -11 -4 1570.81 581.601 2
-11 18 7 727.523 304.199 1
-7 18 -7 71.0825 227.575 1
-11 -7 -7 548.183 276.234 1
-11 -7 -7 1156.65 491 2
-11 18 7 949.186 246.235 2
18 -7 7 524.019 440.467 2
-7 -11 7 1307.15 534.695 4
18 -11 -7 878.805 246.461 4
-11 18 7 583.722 339.125 4
-11 18 10 511.641 208.327 1
-7 18 -10 154.307 228.782 1
-11 -7 -10 966.078 432.365 2
-11 -7 -10 592.365 305.341 1
18 -7 10 630.433 453.79 2
-11 18 10 240.204 343.018 4
-11 18 10 722.109 242.797 2
-7 -11 10 882.614 482.628 4
-7 -11 10 696.039 446.968 3
-7 18 -13 341.845 342.039 1
18 -7 13 1604.66 772.23 2
-11 18 13 381.993 312.48 4
-7 -11 13 370.074 348.014 4
-11 -7 -13 854.133 342.529 1
-7 -11 13 379.836 448.529 3
-11 18 13 621.344 383.405 2
-11 -7 -13 857.285 389.923 3
-6 -12 -12 27.8405 210.997 2
-6 18 12 -11.5436 95.2729 2
18 -12 12 0.45367 381.61 2
-12 18 -12 27.6219 269.27 1
-6 18 12 -2.79963 256.905 4
-12 -6 12 375.239 192.681 4
-6 18 12 93.4609 67.4606 2
-6 -12 -12 -111.214 274.932 3
-6 -12 -9 1844.05 471.209 2
18 -12 9 1460.06 631.67 2
-6 18 9 1219.87 256.608 1
-12 18 -9 1071.45 491.393 1
-6 18 9 853.345 552.272 4
-6 -12 -9 1444.1 507.867 3
-12 -6 9 2037.9 528.479 4
-6 18 6 459.862 208.793 1
18 -12 6 -247.119 395.508 2
-6 -12 -6 414.063 234.516 2
-12 18 -6 586.874 388.36 1
-6 18 6 602.059 406.13 4
-6 -12 -6 195.337 140.141 3
-12 18 -3 3437.11 740.76 2
18 -12 3 5599.28 1131.75 2
-12 18 -3 3432.41 806.76 1
-6 18 3 3031.92 752.361 4
-6 -12 -3 4077.8 664.624 2
-6 -12 -3 4504.51 901.443 3
-6 18 3 4355.39 680.652 1
-12 18 0 1614.27 479.8 2
-6 18 0 1610.77 487.251 1
18 -12 0 1869.07 667.939 2
-6 18 0 688.366 355.857 4
18 -6 0 2412.83 686.36 2
-12 -6 0 1039.07 367.288 2
-6 -12 0 1027.91 482.843 3
-12 18 0 1791.6 580.777 1
18 -6 3 4123.55 997.796 2
-12 18 3 4060.48 737.212 1
-6 18 -3 3444.54 686.267 1
-12 18 3 3925.53 647.228 2
-12 -6 -3 3646.01 634.995 1
-12 -6 -3 3362.36 714.969 2
-6 -12 3 3162.79 807.154 4
-12 18 3 2505.37 548.96 4
18 -12 -3 3122.96 760.772 2
-6 -12 3 3708.54 774.178 3
-6 18 -6 424.474 269.336 1
-12 -6 -6 358.633 232.583 1
-12 18 6 309.644 131.646 2
-12 -6 -6 816.259 494.204 2
18 -6 6 1016.33 551.018 2
-6 -12 6 545.343 454.414 4
18 -12 -6 494.605 268.489 4
-12 18 6 103.535 132.279 4
-12 18 6 766.127 321.026 1
-6 -12 6 619.991 375.555 3
-12 18 9 1864.04 463.352 1
-6 18 -9 1195.58 467.328 1
-12 -6 -9 1419.05 533.921 2
-12 -6 -9 1569.66 474.467 1
18 -6 9 1106.37 627.928 2
-12 18 9 2123.66 567.487 2
-12 18 9 1061.76 467.133 4
-6 -12 9 2395.18 849.477 4
-6 -12 9 1482.76 574.754 3
-6 18 -12 289.109 236.083 1
18 -6 12 -223.294 324.824 2
-12 18 12 32.6512 392.573 4
-6 -12 12 214.101 433.492 4
-12 18 12 -212.984 178.893 2
-6 -12 12 107.643 247.893 3
-12 -6 -12 -310.166 223.192 1
-5 -13 -13 437.669 250.889 3
-5 18 13 370.677 155.45 2
18 -13 13 -99.0982 319.166 2
-13 18 -13 632.463 486.02 1
-5 18 13 -558.042 583.098 4
-13 -5 13 101.916 190.086 4
-5 -13 -10 1321.5 397.76 2
18 -13 10 581.54 562.143 2
-13 18 -10 635.567 436.052 1
-5 18 10 436.387 427.659 4
-13 -5 10 743.753 293.155 4
-5 -13 -10 809.527 325.277 3
-5 18 7 1961.17 338.171 1
-5 -13 -7 1955.74 454.47 2
18 -13 7 2065.94 805.005 2
-13 18 -7 2288.24 684.785 1
-5 18 7 2772.97 883.409 4
-5 -13 -7 2045.99 638.381 3
-5 -13 -4 4721.17 682.906 2
-13 18 -4 4568.26 873.841 2
18 -13 4 6453.08 1246.94 2
-13 18 -4 4839.83 996.613 1
-5 18 4 3189.81 801.106 4
-5 -13 -4 5275.59 954.678 3
-5 18 4 4793.44 660.048 1
-13 18 -1 3055 708.448 2
-5 18 1 2653.11 628.127 1
-5 18 1 2430.85 563.148 4
18 -13 1 4187.8 943.744 2
-13 -5 1 2429.84 579.901 2
18 -5 -1 4348.68 888.089 2
-13 18 -1 3157.19 805.957 1
-5 -13 -1 3112.2 763.478 3
-13 18 2 1886.93 537.723 1
-5 18 -2 1459.05 403.228 1
-13 18 2 1795.63 474.74 2
-5 -13 2 764.739 341.206 4
-13 -5 -2 1317.89 405.646 1
-13 -5 -2 1432.71 498.945 2
18 -5 2 1657.14 646.13 2
18 -13 -2 954.828 476.988 2
-5 18 -2 745.115 339.405 4
-5 -13 2 1416.66 513.203 3
-5 18 -5 3752 757.517 1
-13 18 5 3582.8 640.025 2
-13 -5 -5 3048.74 661.051 1
-13 -5 -5 3084.18 789.051 2
18 -5 5 5038.61 1196.14 2
-5 -13 5 3159.75 860.211 4
-13 18 5 3350.05 687.148 1
18 -13 -5 4389.89 767.319 4
-13 18 5 2313.67 541.019 4
-5 -13 5 2919.67 810.108 3
18 -13 -5 3170.97 775.349 2
-5 18 -8 1275.54 522.474 1
-13 -5 -8 1786.12 648.555 2
-13 -5 -8 1790.14 500.233 1
18 -5 8 2245.14 765.925 2
-13 18 8 1873.12 503.404 1
-13 18 8 1374.26 449.173 4
-13 18 8 1826.04 495.128 2
18 -13 -8 1648.36 433.83 4
-5 -13 8 1952.53 658.014 4
-5 -13 8 1874.32 630.934 3
-5 18 -11 451.074 347.367 1
-13 18 11 487.044 277.185 1
18 -5 11 931.709 746.525 2
-13 18 11 26.7962 252.477 4
-13 18 11 89.2878 240.996 2
-5 -13 11 535.852 405.637 3
-13 -5 -11 854.524 367.149 1
-5 18 -14 283.794 370.767 1
18 -5 14 343.764 559.294 2
-13 -5 -14 326.769 244.179 1
-13 18 14 -639.23 364.996 4
-13 -5 -14 66.0374 153.763 3
-5 -13 14 124.972 238.524 3
-4 -14 -14 -82.3045 169.505 3
-4 18 14 253.457 131.526 2
-14 18 -14 -279.145 441.389 1
-14 -4 14 -386.806 365.687 4
-4 -14 -11 611.819 326.676 3
18 -14 11 -16.459 464.736 2
-14 18 -11 63.0527 319.12 1
-4 18 11 920.429 604.727 4
-4 -14 -8 306.388 160.91 2
18 -14 8 88.4384 242.336 2
-14 18 -8 400.674 338.324 1
-4 18 8 700.093 577.939 4
-4 -14 -8 540.7 306.129 3
18 -14 5 919.04 339.118 2
-4 18 5 588.452 164.334 1
-4 -14 -5 904.954 289.268 2
-14 18 -5 821.807 453.686 1
-4 18 5 776.915 414.427 4
-4 -14 -5 695.211 403.416 3
-14 18 -2 543.32 285.825 2
-4 18 2 379.913 235.464 1
18 -14 2 883.93 572.549 2
-4 18 2 413.093 296.074 4
-14 18 -2 228.621 366.265 1
18 -4 -2 875.545 409.321 2
-4 -14 -2 371.246 277.739 3
-14 18 1 2121.25 609.489 1
-4 18 -1 1787.57 475.981 1
-14 18 1 2623.07 612.069 2
18 -14 -1 2733.74 761.516 2
-14 -4 -1 3077.96 766.094 2
-4 18 -1 1536.09 485.153 4
18 -4 1 3448.51 864.557 2
-14 -4 -1 2125.42 534.833 1
-4 -14 1 2633.58 756.323 3
-4 18 -4 1747.35 473.855 1
-14 18 4 2359.5 551.95 2
-14 18 4 2256.26 562.609 1
-14 -4 -4 2406.78 641.309 2
-4 -14 4 1798.01 657.987 4
18 -4 4 3731.62 948.459 2
18 -14 -4 3786.71 859.71 4
18 -14 -4 2522.34 733.472 2
-14 -4 -4 2354.02 597.945 1
-4 -14 4 2961.58 808.491 3
-4 18 -7 735.59 393.756 1
-14 18 7 484.703 287.688 1
-14 -4 -7 1005.46 462.414 2
-14 18 7 479.483 310.373 2
-14 -4 -7 426.216 260.232 1
18 -4 7 385.432 427.496 2
18 -14 -7 181.316 139.741 4
-4 -14 7 824.124 515.096 4
-14 18 7 69.4664 125.7 4
-4 -14 7 498.483 410.582 3
-14 -4 -10 1361.85 436.065 1
-4 18 -10 1574.99 588.918 1
-14 18 10 1442.53 518.379 4
18 -4 10 1361.82 638.722 2
-14 18 10 1190.51 483.671 2
-14 18 10 1277.72 453.995 1
-4 -14 10 2140.68 722.148 3
-4 18 -13 52.5635 333.166 1
18 -4 13 -168.656 515.449 2
-14 -4 -13 5.12558 134.97 1
-14 18 13 -480.531 188.905 4
-14 18 13 -242.316 223.576 2
-4 -14 13 222.792 364.586 3
-3 -15 -12 1278.24 452.65 3
18 -15 12 1144.74 610.42 2
-15 18 -12 230.174 302.607 1
-3 18 12 633.946 725.889 4
-3 -15 -9 764.035 323.746 3
-3 -15 -9 457.091 194.3 2
18 -15 9 491.383 688.806 2
-3 18 9 933.979 527.646 4
-15 18 -9 995.453 546.822 1
18 -15 6 533.839 328.166 2
-3 -15 -6 1269.79 306.13 2
-3 18 6 1029.52 435.656 4
-3 18 6 823.771 199.542 1
-15 18 -6 1123.02 471.075 1
-3 -15 -6 934.731 483.819 3
-15 18 -3 2950.24 770.01 2
-3 18 3 1586.56 415.432 1
18 -15 3 2851.2 843.338 2
-3 18 3 2712.5 766.105 4
-3 -15 -3 2315.27 453.611 2
-15 18 -3 2384.37 727.304 1
-3 -15 -3 2565.6 702.116 3
-15 18 0 2009.27 591.763 1
-3 18 0 1407.12 381.444 1
-15 -3 0 1976.94 568.14 1
-3 18 0 1191.32 461.981 4
-15 18 0 2528.84 684.942 2
18 -15 0 2528.76 768.27 2
18 -3 0 1514.38 572.59 2
-3 -15 0 1539.7 532.132 3
-3 18 -3 2379.42 607.165 1
-15 18 3 3665.96 758.357 2
-15 18 3 3371.43 745.425 1
-15 -3 -3 2321.32 665.02 2
-15 -3 -3 2713.83 661.631 1
18 -3 3 3908.05 902.952 2
18 -15 -3 3312.95 812.308 2
18 -15 -3 3831.91 903.322 4
-3 18 -3 1866.2 450.578 4
-3 -15 3 2834.82 778.069 3
-15 18 6 221.131 171.291 1
-3 18 -6 99.0711 237.383 1
-15 18 6 -70.343 248.907 2
18 -3 6 1182.86 585.966 2
-15 -3 -6 298.898 253.115 1
18 -15 -6 572.847 269.022 4
-15 18 6 -150.719 170.974 4
-3 -15 6 505.516 543.156 3
-15 -3 -9 1686.25 540.99 1
-3 18 -9 1157.3 449.546 1
-15 18 9 1204.25 442.917 1
18 -3 9 1009.35 571.737 2
-15 18 9 987.679 373.463 4
-3 -15 9 1455.63 522.059 3
-15 18 9 1048.44 428.809 2
-3 18 -12 834.119 470.636 1
18 -3 12 867.585 658.15 2
-15 18 12 262.788 296.542 4
-15 -3 -12 932.865 450.533 1
-15 18 12 292.241 231.912 2
-3 -15 12 1075.66 394.353 3
-2 -16 -13 463.308 288.539 3
18 -16 13 746.231 605.458 2
-2 18 13 243.037 143.388 2
-16 18 -13 -43.7613 230.982 1
-2 -16 -10 541.988 337.52 3
18 -16 10 93.8454 334.15 2
-2 18 10 443.577 364.228 4
-16 18 -10 406.789 392.328 1
-2 -16 -7 1800.66 537.761 3
-2 -16 -7 1554.27 279.483 2
18 -16 7 2205.44 697.784 2
-2 18 7 1811.32 695.563 4
18 -2 -7 1226.22 236.64 4
-16 18 -7 1866.61 576.596 1
-2 18 7 1756.46 274.815 1
-2 18 4 884.073 459.663 4
-2 18 4 338.454 201.326 1
18 -16 4 365.35 323.376 2
-2 -16 -4 -67.6676 131.496 2
-16 18 -4 412.022 341.085 1
-2 -16 -4 -200.159 339.407 3
-16 18 -1 1283.21 572.837 1
-2 18 1 1025.86 307.008 1
-16 -2 1 1804.15 565.754 1
-16 18 -1 806.901 353.563 2
18 -16 1 1525.95 571.934 2
-2 18 1 1587.59 527.97 4
18 -2 -1 1318.74 485.038 2
-2 -16 -1 881.513 382.298 3
-2 18 -2 1934.26 511.601 1
-16 18 2 2323.69 670.602 1
-16 18 2 3082.75 734.454 2
18 -16 -2 2409.24 719.123 2
-2 18 -2 1443.58 484.123 4
18 -2 2 3669.05 914.701 2
-16 -2 -2 2431.97 641.503 1
-2 -16 2 3425.87 841.52 3
-2 18 -5 349.694 275.786 1
-16 18 5 533.341 327.929 2
18 -2 5 338.999 368.586 2
18 -16 -5 492.7 195.109 4
-16 -2 -5 -1.02037 198.025 1
18 -16 -5 671.15 505.448 2
-16 18 5 650.835 243.654 1
-2 -16 5 782.304 475.741 3
-2 18 -8 -126.64 312.616 1
-16 -2 -8 441.157 225.791 1
18 -2 8 -588.685 526.108 2
18 -16 -8 -10.9534 159.066 4
-16 18 8 -132.651 178.02 2
-16 18 8 -129.573 220.06 1
-16 18 8 12.1134 180.111 4
-2 -16 8 228.444 322.691 3
-16 18 11 252.657 175.215 1
-2 18 -11 190.266 245.503 1
18 -2 11 503.542 456.882 2
-16 18 11 474.763 339.096 4
-16 18 11 792.971 353.251 2
-16 -2 -11 322.955 262.655 1
-2 -16 11 262.937 388.765 3
-1 -17 -11 199.151 230.34 3
-17 18 -11 86.5059 391.342 1
18 -17 11 559.559 609.797 2
-1 18 11 -388.154 371.779 4
-1 -17 -8 1691.98 507.271 3
18 -17 8 652.859 435.154 2
-1 18 8 2124.69 825.978 4
18 -1 -8 828.511 180.436 4
-17 18 -8 1209.29 514.704 1
-1 -17 -5 114.358 208.233 3
-1 18 5 999.594 301.906 1
18 -17 5 1306.76 764.609 2
-1 -17 -5 563.729 224.676 2
-1 18 5 1166.5 493.31 4
-17 18 -5 661.258 326.678 1
-17 18 -2 1217.95 550.276 1
-17 -1 2 423.51 156.917 1
-1 18 2 475.224 231.156 1
18 -17 2 143.044 197.283 2
-1 18 2 749.68 341.077 4
-1 -17 -2 403.169 294.239 3
-17 -1 -1 1230.74 418.945 1
-1 18 -1 1700.1 514.48 1
-17 18 1 2424.39 679.22 1
-17 18 1 2087.17 655.45 2
18 -17 -1 2093.15 675.688 2
-1 18 -1 1098.37 455.884 4
18 -1 1 3668.16 925.877 2
-1 -17 1 2755.53 772.38 3
-1 18 -4 342.194 226.993 1
-17 18 4 382.56 346.215 2
18 -1 4 -121.326 219.097 2
18 -17 -4 336.069 212.915 4
-17 18 4 170.005 267.936 1
18 -17 -4 41.2574 199.58 2
-1 18 -4 -88.4451 179.356 4
-17 -1 -4 -12.2371 278.366 1
-1 -17 4 192.89 351.744 3
-1 18 -7 173.175 193.507 1
-17 -1 -7 408.977 301.992 1
-17 18 7 408.626 371.134 1
-17 18 7 220.987 203.016 2
18 -1 7 -12.5896 300.161 2
18 -17 -7 -92.9722 311.542 4
-1 -17 7 337.481 302.058 3
-1 18 -10 6.42575 182.888 1
18 -1 10 -24.2517 336.081 2
-17 18 10 235.641 318.754 2
-17 18 10 334.016 194.938 4
-17 -1 -10 162.612 170.374 1
-17 18 10 699.494 409.326 1
-1 -17 10 980.07 475.669 3
-1 18 -13 -130.622 346.335 1
18 -1 13 576.043 445.643 2
-17 -1 -13 316.099 158.144 1
-17 18 13 734.843 408.105 4
0 -18 -12 395.001 258.774 3
18 -18 12 701.544 655.542 2
-18 18 -12 273.509 194.478 1
0 -18 -9 2210.69 682.851 3
18 -18 9 898.947 475.043 2
0 18 9 991.968 658.262 4
-18 18 -9 2055.64 793.529 1
0 -18 -6 1291.51 555.013 3
0 18 6 864.749 232.303 1
18 -18 6 570.778 505.692 2
18 0 -6 580.251 204.398 4
0 18 6 1226.63 604.633 4
-18 18 -6 842.949 537.948 1
0 -18 -3 1011.58 449.449 3
0 18 3 1227.14 328.984 1
-18 18 -3 2110.76 713.07 1
18 -18 3 2071.03 757.748 2
0 18 3 1554.48 614.611 4
0 18 0 1038.34 308.395 1
-18 0 0 1398.52 526.32 1
-18 18 0 2446.94 809.712 1
-18 18 0 2211.77 692.304 2
18 -18 0 1509.03 486.772 2
0 18 0 939.407 433.441 4
18 0 0 1881.92 670.751 2
0 -18 0 1090.66 416.543 3
-18 0 -3 876.84 423.796 1
0 18 -3 1005.41 391.995 1
-18 18 3 1448.31 549.933 2
-18 18 3 1660.79 617.755 1
18 -18 -3 1457.94 518.291 2
18 -18 -3 1664.06 698.355 4
0 18 -3 997.654 444.281 4
18 0 3 1477.87 626.861 2
0 -18 3 1201.07 489.543 3
0 18 -6 100.438 159.968 1
-18 18 6 528.353 307.538 1
-18 0 -6 691.604 394.242 1
-18 18 6 885.068 460.62 2
18 -18 -6 1023.03 492.4 4
18 0 6 699.738 467.17 2
18 -18 -6 812.181 448.906 2
0 -18 6 804.02 482.176 3
0 18 -9 184.64 197.911 1
-18 18 9 629.129 451.668 1
18 -18 -9 448.288 281.88 4
18 0 9 1151.29 526.119 2
-18 18 9 265.58 169.346 2
-18 18 9 300.848 176.623 4
-18 0 -9 301.405 295.813 1
0 -18 9 1223.31 608.187 3
0 18 -12 200.289 324.238 1
18 0 12 847.901 530.843 2
-18 0 -12 463.83 319.172 1
-18 18 12 276.455 143.426 4
0 -18 12 -186.955 430.513 3
1 -19 -10 -185.708 270.817 3
18 -19 10 348.678 459.532 2
1 18 10 26.9079 412.263 4
-19 18 -10 195.209 372.735 1
1 -19 -7 644.687 402.301 3
1 18 7 526.009 167.97 1
1 18 7 793.93 203.115 1
18 -19 7 498.117 559.55 2
1 18 7 599.971 584.327 4
18 1 -7 433.907 177.707 4
-19 18 -7 496.541 341.437 1
1 -19 -4 611.029 455.687 3
1 18 4 508.792 185.927 1
-19 18 -4 967.769 531.805 1
18 -19 4 672.57 395.827 2
1 18 4 1279.2 591.06 4
1 -19 -1 706.205 325.691 3
-19 18 -1 489.387 370.879 1
-19 1 1 477.858 261.49 1
18 -19 1 410.194 302.144 2
1 18 1 570.621 414.136 4
1 -19 2 443.198 416.621 3
-19 1 -2 122.473 356.164 1
-19 18 2 780.861 393.554 2
-19 18 2 32.7259 173.042 1
18 -19 -2 735.476 403.62 2
1 18 -2 470.113 287.222 4
18 1 2 566.603 344.194 2
-19 18 5 443.936 200.314 1
-19 1 -5 241.551 307.528 1
-19 18 5 447.546 271.376 2
18 -19 -5 1093.45 573.631 4
18 1 5 652.515 447.73 2
1 18 -5 -126.187 236.055 4
18 -19 -5 518.973 399.31 2
1 -19 5 592.864 552.628 3
-19 1 -8 1416.35 531.183 1
18 -19 -8 900.398 472.537 4
-19 18 8 538.123 334.195 2
18 1 8 849.583 500.055 2
-19 18 8 913.597 475.777 1
1 -19 8 1370.84 563.195 3
18 1 11 1038.71 502.674 2
-19 1 -11 430.304 191.974 1
-19 18 11 631.509 292.822 4
-19 18 11 651.692 450.726 1
1 -19 11 1190.76 591.676 3
18 -20 11 -301.87 521.649 2
-20 18 -11 338.805 360.399 1
2 -20 -8 -410.189 393.157 3
2 18 8 415.167 155.276 1
2 18 8 247.137 93.6739 1
18 -20 8 261.173 327.629 2
2 18 8 -714.593 597.888 4
18 2 -8 299.985 161.814 4
-20 18 -8 -39.4875 236.304 1
2 18 5 732.998 235.073 1
2 -20 -5 1121.74 578.05 3
-20 18 -5 1224.5 551.996 1
18 -20 5 956.672 654.706 2
18 2 -5 855.595 334.411 4
2 18 5 1101.56 550.061 4
2 -20 -2 2291.42 727.31 3
-20 18 -2 3123.28 880.828 1
18 -20 2 2407.43 627.242 2
-20 2 2 1259.26 470.351 1
2 18 2 3270.19 853.693 4
2 -20 1 297.008 304.237 3
-20 2 -1 -191.969 249.763 1
-20 18 1 240.431 187.205 1
18 -20 -1 345.659 376.675 2
2 18 -1 649.398 413.607 4
2 -20 4 324.672 303.797 3
-20 18 4 331.751 306.479 1
-20 2 -4 -357.434 298.119 1
18 -20 -4 -13.3936 220.925 2
2 18 -4 193.115 215.68 4
18 2 4 71.4373 222.733 2
2 -20 7 955.762 625.212 3
-20 2 -7 855.443 439.461 1
18 -20 -7 760.659 506.23 4
-20 18 7 1135.26 563.844 1
18 2 7 858.436 451.252 2
2 -20 10 514.869 401.783 3
18 2 10 -54.0904 287.735 2
-20 2 -10 364.283 317.494 1
-20 18 10 299.325 335.179 1
3 -21 -9 692.182 333.132 3
18 -21 9 119.39 478.834 2
3 18 9 919.13 664.34 4
-21 18 -9 659.265 572.131 1
3 -21 -6 1155.54 532.585 3
-21 18 -6 923.274 686.81 1
18 -21 6 1204.96 759.485 2
3 18 6 1656.98 377.422 1
3 18 6 2142.63 882.775 4
18 3 -6 1134.02 352.705 4
3 -21 -3 256.957 266.018 3
-21 3 3 342.237 165.373 1
3 -21 -3 299.317 82.0235 2
18 -21 3 243.305 261.581 2
3 18 3 300.602 197.645 4
3 -21 0 1242.03 489.655 3
-21 3 0 741.744 437.865 1
-21 18 0 1789.28 690.635 1
18 -21 0 1510.63 610.58 2
3 18 0 1045.34 475.479 4
3 -21 3 729.496 459.328 3
-21 3 -3 543.287 202.762 1
18 -21 -3 1238.4 530.616 2
3 18 -3 627.36 347.037 4
18 3 3 614.776 449.979 2
-21 18 3 1172.53 545.208 1
3 -21 6 1625.02 659.128 3
-21 3 -6 1216.97 434.155 1
-21 18 6 1125.43 526.082 1
18 3 6 1462.23 558.465 2
3 18 -6 640.032 382.746 4
18 -21 -6 1677.15 611.062 2
3 -21 9 1400.87 579.233 3
-21 18 9 2007.6 762.313 1
18 3 9 1703.53 648.292 2
-21 3 -9 1445.12 626.031 1
18 -22 10 725.691 555.471 2
-22 18 -10 221.118 334.944 1
4 -22 -7 -212.933 349.025 3
-22 18 -7 -449.874 224.887 1
18 -22 7 644.371 498.447 2
4 18 7 325.283 359.067 4
4 18 7 415.465 186.269 1
18 4 -7 -19.3241 151.486 4
4 -22 -4 550.579 220.662 3
4 -22 -4 512.367 179.177 2
-22 18 -4 1144.07 568.678 1
-22 4 4 859.747 347.014 1
18 -22 4 1021.01 599.93 2
18 4 -4 135.281 137.45 4
4 18 4 1819.63 694.545 4
4 -22 -1 548.942 470.594 3
4 -22 -1 339.488 220.649 2
18 -22 1 690.48 367.817 2
-22 18 -1 1144.33 561.965 1
-22 4 1 475.123 424.368 1
4 18 1 999.216 517.528 4
4 -22 2 939.255 413.547 3
18 -22 -2 218.642 264.279 2
4 18 -2 58.6674 199.256 4
-22 4 -2 5.93348 300.694 1
-22 18 2 615.477 387.113 1
4 -22 5 1539.6 605.953 3
-22 4 -5 2166.38 727.496 1
-22 18 5 1051.13 550.178 1
4 18 -5 437.037 329.781 4
18 -22 -5 2034.26 658.456 2
18 4 5 1384.24 617.708 2
4 -22 8 1677.64 805.122 3
-22 18 8 1236.44 511.375 1
18 4 8 2107.68 813.723 2
-22 4 -8 1524.21 668.368 1
4 -22 11 -675.398 698.84 3
-23 18 -8 616.961 319.486 1
18 -23 8 397.862 312.994 2
5 18 8 347.624 450.969 4
18 5 -8 845.054 321.78 4
5 18 8 795.823 267.874 1
5 -23 -5 414.848 371.851 3
-23 18 -5 246.076 396.279 1
18 -23 5 1112.49 548.333 2
5 18 5 1038.79 624.251 4
18 5 -5 572.229 239.249 4
5 18 5 632.995 266.317 1
-23 5 5 753.835 446.288 1
5 -23 -2 359.246 237.318 3
5 -23 -2 78.1202 195.902 2
18 -23 2 472.724 410.391 2
-23 18 -2 1110.56 525.82 1
5 18 2 635.416 321.046 4
-23 5 2 -548.988 419.008 1
5 -23 1 686.245 245.333 3
5 -23 1 1055.69 395.685 2
18 -23 -1 935.592 419.73 2
5 18 -1 808.15 453.766 4
-23 18 1 1048.22 587.716 1
-23 5 -1 542.665 348.493 1
5 -23 4 294.426 314.59 3
-23 18 4 823.753 535.301 1
-23 5 -4 411.587 427.923 1
18 -23 -4 480.495 331.347 2
5 18 -4 63.1382 180.336 4
18 5 4 745.429 539.333 2
-23 5 -7 1993.93 601.866 1
5 -23 7 3456.35 1042.65 3
18 5 7 2731.59 903.233 2
5 18 -7 1821.4 564.897 4
-23 18 7 2590.23 797.062 1
5 -23 10 150.196 415.694 3
-23 18 10 -80.7323 280.441 1
18 5 10 -6.84754 449.309 2
-23 5 -10 520.316 421.846 1
-24 18 -9 71.2869 359.324 1
18 -24 9 220.502 366.478 2
6 18 9 103.028 79.9774 1
18 6 -9 56.5929 121.743 4
6 18 6 1256.08 344.304 1
-24 18 -6 1006.4 560.296 1
18 -24 6 1008.72 465.839 2
6 18 6 876.176 570.42 4
18 6 -6 819.139 350.073 4
-24 6 6 588.25 361.273 1
-24 6 3 -240.126 565 1
6 -24 -3 238.85 303.235 3
6 -24 -3 119.779 118.617 2
18 -24 3 930.373 640.888 2
-24 18 -3 305.082 356.917 1
18 6 -3 657.761 376.228 4
6 18 3 -455.868 299.382 4
-24 6 0 1214.01 595.2 1
6 -24 0 1049.18 530.793 3
6 -24 0 1076.84 423.764 2
18 -24 0 651.883 444.983 2
6 18 0 355.474 227.009 4
-24 18 0 1816.62 711.437 1
6 -24 3 430.587 467.15 3
-24 18 3 -82.6194 196.332 1
6 -24 3 521.486 427.649 2
-24 6 -3 83.0801 299.759 1
6 18 -3 458.317 213.401 4
18 -24 -3 185.61 266.851 2
6 -24 6 1700.75 938.068 3
-24 6 -6 862.201 529.917 1
-24 18 6 1547.79 612.235 1
6 18 -6 346.832 193 4
18 -24 -6 1564.54 551.826 2
18 6 6 1635.97 639.547 2
6 -24 9 310.701 385.905 3
-24 18 9 211.062 297.648 1
18 6 9 712.755 546.573 2
-24 6 -9 673.195 578.563 1
-25 18 -7 274.906 509.139 1
7 18 7 199.805 197.919 1
18 -25 7 662.775 585.754 2
7 18 7 1256.32 702.113 4
18 7 -7 -58.7648 231.095 4
-25 7 7 -145.396 213.691 1
-25 7 4 -694.863 553.682 1
18 -25 4 -274.853 268.492 2
7 -25 -4 332.835 155.922 2
-25 18 -4 740.416 375.062 1
7 18 4 258.766 283.378 4
18 7 -4 284.093 279.07 4
7 18 4 569.733 295.949 1
7 -25 -1 1582.8 675.055 3
-25 7 1 1077.63 535.381 1
7 -25 -1 1311.02 418.807 2
18 -25 1 1085.29 539.042 2
7 18 1 1018.62 519.688 4
-25 18 -1 383.995 235.423 1
-25 18 2 -96.5087 255.158 1
7 -25 2 -255.081 443.468 3
7 -25 2 77.3794 313.6 2
-25 7 -2 536.222 431.498 1
18 -25 -2 330.774 297.393 2
7 18 -2 228.274 229.51 4
7 -25 5 441.121 372.819 3
7 -25 5 1036.75 534.053 2
-25 7 -5 938.922 497.487 1
-25 18 5 988.122 571.291 1
18 -25 -5 1746.33 626.944 2
7 18 -5 745.814 335.259 4
18 7 5 892.374 506.677 2
7 -25 8 665.782 667.912 3
7 -25 8 -29.0325 274.831 2
-25 18 8 452.882 323.747 1
18 7 8 508.682 435.336 2
-25 7 -8 494.779 418.23 1
-26 8 5 -131.325 355.479 1
8 18 5 -119.91 213.869 1
18 -26 5 513.49 607.006 2
-26 18 -5 705.909 555.23 1
8 -26 -5 36.1325 88.7441 2
8 18 5 160.322 415.054 4
18 8 -5 18.5273 170.456 4
8 -26 -2 557.65 307.717 2
-26 8 2 892.955 546.872 1
18 -26 2 922.793 600.284 2
18 8 -2 436.874 376.156 4
8 18 2 -297.82 486.683 4
-26 18 -2 641.784 450.067 1
-26 18 1 749.766 458.781 1
8 -26 1 176.542 298.07 3
8 -26 1 704.565 327.994 2
18 -26 -1 439.915 367.403 2
8 18 -1 -384.579 294.365 4
-26 8 -1 727.459 495.089 1
8 -26 4 1014.83 531.611 3
8 -26 4 -58.408 276.671 2
-26 8 -4 570.984 391.16 1
-26 18 4 238.071 414.791 1
18 -26 -4 246.885 236.708 2
8 18 -4 184.728 230.331 4
-26 18 7 605.763 420.313 1
8 -26 7 450.234 549.484 3
8 -26 7 785.79 353.199 2
8 18 -7 221.82 285.277 4
18 8 7 371.701 249.09 2
-26 8 -7 482.198 429.967 1
9 18 6 553.373 652.809 4
18 9 -6 579.561 336.66 4
9 -27 -3 805.911 278.957 2
18 -27 3 1089.6 611.202 2
-27 9 3 676.56 331.831 1
18 9 -3 539.878 324.202 4
9 18 3 932.807 534.769 4
-27 18 -3 746.686 437.039 1
9 18 3 866.615 389.086 1
9 -27 0 716.583 392.408 2
18 -27 0 283.992 232.576 2
9 18 0 507.601 473.033 4
-27 9 0 532.403 434.355 1
-27 18 0 508.963 241.975 1
9 -27 3 668.518 470.241 2
-27 18 3 53.8618 255.937 1
-27 9 -3 72.662 374.858 1
9 18 -3 153.317 330.049 4
18 -27 -3 230.39 300.243 2
10 18 4 846.566 668.621 4
18 10 -4 -58.9132 182.667 4
10 -28 -1 597.411 275.15 2
18 -28 1 735.587 457.356 2
18 10 -1 -124.335 315.744 4
10 18 1 354.047 352.726 4
-28 18 -1 505.929 334.817 1
-28 10 1 516.827 337.18 1
-28 18 2 347.748 316.937 1
10 -28 2 316.785 361.449 2
-28 10 -2 390.555 482.201 1
18 -28 -2 540.887 212.654 2
10 18 -2 530.277 448.183 4
-9 -10 -14 200.016 268.734 2
-9 -10 -14 326.272 219.68 1
-10 19 -14 -178.907 371.546 1
19 -10 14 505.934 738.836 2
-9 19 14 316.847 420.607 4
-10 -9 14 161.474 341.626 4
-9 -10 -14 451.145 255.351 3
-9 -10 -11 577.827 235.521 1
-9 -10 -11 936.06 433.208 2
-10 19 -11 551.268 326.35 1
19 -10 11 240.363 423.723 2
-9 19 11 -99.4598 341.755 4
-10 -9 11 1090.9 509.226 4
-9 19 11 972.615 313.705 2
-9 -10 -11 656.215 416.523 3
-9 19 8 1556.44 396.193 1
-10 19 -8 1092.51 511.527 1
-9 19 8 1416.48 263.556 2
-9 -10 -8 1514.72 529.736 2
19 -10 8 1910.98 837.169 2
-10 -9 8 1221.17 508.961 4
-9 19 8 915.274 475.545 4
-9 -10 -8 1832.46 604.804 3
-9 19 5 441.781 166.787 2
-9 19 5 1053.45 353.98 1
-10 19 -5 607.253 333.969 1
19 -10 5 983.124 413.555 2
-9 -10 -5 812.262 423.046 2
-9 19 5 460.909 252.088 4
-9 -10 -5 280.604 176.326 3
-10 19 -2 720.422 398.784 1
19 -10 2 1069.17 456.117 2
-9 19 2 970.389 310.091 1
-9 19 2 380.115 263.349 4
-9 -10 -2 1044.36 391.059 2
19 -9 -2 1189.21 507.415 2
-10 19 1 2380.49 503.41 2
-9 19 -1 2207.65 609.987 1
19 -9 1 3830.04 894.676 2
-10 19 1 2777.79 646.988 1
19 -10 -1 3273.81 866.634 2
-10 19 1 1673.49 489.852 4
-10 -9 -1 2686.82 655.659 2
-10 19 4 777.831 335.069 1
-10 19 4 507.219 201.582 2
-10 -9 -4 505.72 322.651 2
-9 19 -4 350.932 297.808 1
19 -9 4 644.96 308.213 2
-10 19 4 221.011 125.137 4
19 -10 -4 -66.2977 237.675 2
-9 19 -7 -111.661 298.842 1
-10 -9 -7 269.758 119.428 1
-10 19 7 329.955 174.214 2
-10 -9 -7 456.097 357.111 2
-9 -10 7 -143.603 193.376 4
19 -10 -7 175.986 90.3275 4
-10 19 7 257.065 159.514 4
-10 19 7 36.1735 208.154 1
-10 -9 -10 -196.861 216.692 1
-9 19 -10 49.1446 197.083 1
-10 -9 -10 -39.6255 153.06 2
-10 19 10 99.1813 118.84 2
-10 19 10 206.08 189.021 1
-10 19 10 63.0234 346.517 4
-9 -10 10 574.907 407.073 4
-10 -9 -10 341.193 283.339 3
-10 -9 -13 -0.13969 117.52 1
-10 -9 -13 520.537 316.284 2
-9 19 -13 -323.442 422.306 1
19 -9 13 779.151 624.486 2
-10 19 13 -198.292 270.774 4
-9 -10 13 615.079 481.103 4
-10 19 13 309.245 261.947 2
-10 -9 -13 -68.7934 261.774 3
-8 -11 -12 510.175 327.829 2
-11 19 -12 -294.365 228.684 1
-8 -11 -12 154.981 143.029 1
19 -11 12 50.9812 461.085 2
-11 -8 12 -262.335 318.234 4
-8 19 12 849.953 530.342 4
-8 19 12 -16.108 93.8074 2
-8 -11 -12 539.276 349.696 3
-8 -11 -9 394.315 224.441 2
-11 19 -9 637.439 441.37 1
19 -11 9 505.738 283.146 2
-11 -8 9 124.671 241.644 4
-8 19 9 538.805 475.74 4
-8 19 9 303.704 174.565 1
-8 -11 -9 270.21 237.313 3
-8 19 6 554.962 236.299 1
-11 19 -6 9.23304 200.074 1
-8 -11 -6 982.563 407.855 2
19 -11 6 269.724 519.246 2
-8 19 6 661.045 382.646 4
-8 -11 -6 540.411 301.928 3
19 -11 3 7374.54 1307.74 2
-8 -11 -3 5322.88 849.445 2
-11 19 -3 4850.55 927.804 1
-8 19 3 4059.98 753.303 4
-8 -11 -3 4467.73 892.967 3
19 -8 -3 4046.85 834.868 2
-8 19 3 4667.05 733.007 1
-11 19 0 5045.72 788.944 2
-11 -8 0 4883.09 878.74 2
19 -11 0 6022.37 1100.32 2
19 -8 0 6125.94 1061.13 2
-8 19 0 3259.3 646.902 4
-8 19 0 5801.15 898.923 1
-11 19 0 5676.01 910.166 1
-11 19 3 257.005 145.21 1
-11 19 3 278.773 177.23 2
-8 19 -3 -50.1076 386.09 1
19 -8 3 -62.18 191.649 2
-11 19 3 458.004 291.012 4
19 -11 -3 447.467 336.107 2
-11 -8 -3 594.76 323.319 2
-11 -8 -6 786.322 250.046 1
-8 19 -6 1175.77 419.774 1
-11 19 6 1280.15 342.185 2
-11 -8 -6 1319.78 443.309 2
19 -8 6 1583.42 726.096 2
-11 19 6 1227.05 363.853 1
-8 -11 6 1268.24 527.414 4
-11 19 6 990.745 394.957 4
19 -11 -6 1436.84 356.636 4
-11 -8 -9 1199.21 388.267 1
-8 19 -9 956.327 372.053 1
-11 -8 -9 723.36 448.177 2
19 -8 9 1340.35 740.87 2
-11 19 9 1097.95 346.39 2
-8 -11 9 625.073 308.736 4
-11 19 9 17.8341 337.862 4
-11 19 9 739.374 336.792 1
-11 -8 -12 663.665 258.617 1
-11 -8 -12 -244.614 350.586 2
-8 19 -12 422.685 322.153 1
19 -8 12 199.655 469.485 2
-11 19 12 173.385 323.633 4
-8 -11 12 1190.15 607.983 4
-11 19 12 442.754 351.399 2
-8 -11 12 158.76 269.279 3
-11 -8 -12 869.492 337.2 3
-7 19 13 324.336 164.506 2
-7 -12 -13 187.308 110.185 1
-12 19 -13 -98.7247 359.439 1
19 -12 13 273.23 295.813 2
-7 19 13 -660.769 735.538 4
-12 -7 13 -10.3584 266.819 4
-7 19 13 579.841 217.705 2
-7 -12 -13 -101.201 262.86 3
-7 -12 -10 318.997 287.076 2
-12 19 -10 669.616 402.767 1
19 -12 10 393.049 326.462 2
-12 -7 10 805.67 363.532 4
-7 19 10 1115.04 611.706 4
-7 -12 -10 598.537 316.205 3
-7 -12 -7 824.78 321.193 2
19 -12 7 614.372 575.023 2
-12 19 -7 774.732 433.337 1
-7 19 7 1221.41 297.094 1
-7 19 7 1562.88 628.548 4
-7 -12 -7 1706.63 630.791 3
-12 19 -4 1185.4 390.16 2
19 -12 4 1295.84 550.405 2
-12 19 -4 1178.91 442.863 1
-7 -12 -4 1038 355.216 2
-7 19 4 1254.86 510.188 4
-7 19 4 549.665 229.276 1
-7 -12 -4 181.512 230.525 3
-12 19 -1 647.045 255.859 2
-7 19 1 1213.1 475.563 1
19 -12 1 1287.12 535.079 2
-12 19 -1 1015.21 399.087 1
-7 19 1 55.6202 311.168 4
19 -7 -1 1547.47 550.211 2
-7 -12 -1 480.329 188.095 3
-12 -7 1 976.724 464.521 2
-7 -12 -1 1176.82 388.03 2
-12 19 2 2092.37 541.101 1
-12 19 2 1781.95 477.93 2
-7 19 -2 2306.09 615.12 1
19 -7 2 3520.24 882.45 2
-12 -7 -2 1466.31 517.718 2
19 -12 -2 2421.83 712.634 2
-7 -12 2 1554.35 575.154 3
-12 -7 -5 -357.951 299.539 1
-7 19 -5 94.3725 149.887 1
-12 19 5 202.138 247.566 2
-12 19 5 164.015 202.831 1
-12 -7 -5 494.249 300.897 2
19 -7 5 569.362 490.504 2
-7 -12 5 -511.409 436.378 4
-12 19 5 250.846 243.977 4
19 -12 -5 671.05 376.128 4
-7 -12 5 473.192 498.582 3
-12 19 8 1071.97 492.661 4
-12 -7 -8 793.011 335.778 1
-7 19 -8 470.751 221.119 1
-12 19 8 580.757 287.816 1
-12 -7 -8 696.468 331.801 2
-12 19 8 508.764 237.066 2
19 -7 8 778.573 379.607 2
19 -12 -8 648.14 199.053 4
-7 -12 8 822.161 513.931 4
-7 -12 8 907.161 573.011 3
-12 19 11 24.8093 173.601 1
-7 19 -11 -15.6275 215.889 1
-12 -7 -11 4.30476 204.639 1
-12 -7 -11 317.232 265.843 2
19 -7 11 -99.3027 280.546 2
-12 19 11 204.814 360.289 4
-12 19 11 364.366 276.821 2
-7 -12 11 -69.7219 412.465 4
-7 -12 11 197.058 233.737 3
19 -7 14 397.224 431.966 2
-12 19 14 380.408 306.224 4
-12 19 14 -260.776 300.807 2
-7 -12 14 37.5906 542.792 3
-12 -7 -14 52.3769 191.291 3
-6 -13 -11 1207.72 423.227 2
19 -13 11 433.047 335.615 2
-13 19 -11 1002.55 608.672 1
-13 -6 11 743.725 357.988 4
-6 19 11 154.661 280.976 4
-6 -13 -11 608.395 292.265 3
-6 -13 -8 1295.56 389.793 2
19 -13 8 1037.4 801.806 2
-13 19 -8 1019.71 548.793 1
-6 19 8 1225.96 538.022 4
-6 19 8 1339.27 301.403 1
-6 -13 -8 828.445 433.324 3
19 -13 5 457.485 377.47 2
-6 -13 -5 405.98 268.9 2
-13 19 -5 680.232 339.283 1
-6 19 5 83.1861 167.291 4
-6 19 5 189.394 180.083 1
-6 -13 -5 573.138 360.706 3
-13 19 -2 2540.2 639.058 2
-6 19 2 2175.52 543.501 1
19 -13 2 4242.21 1007.94 2
-6 19 2 2107.21 604.877 4
-13 19 -2 2994.39 750.007 1
-6 -13 -2 2432.65 549.907 2
-6 -13 -2 2258.41 600.595 3
19 -6 -2 4037.17 846.865 2
-13 19 1 1344.3 505.493 1
-13 19 1 1245.22 375.238 2
-6 19 -1 955.707 357.74 1
19 -13 -1 2001.6 731.576 2
-13 -6 -1 1519.42 524.585 2
19 -6 1 1158.91 458.849 2
-6 19 -1 930.654 335.909 4
-6 -13 1 1190 470.737 3
-13 -6 -4 4844.24 794.098 1
-13 19 4 5877.6 845.963 2
-13 19 4 6535.87 973.443 1
-13 -6 -4 5178.84 962.729 2
19 -6 4 7136.2 1322.83 2
19 -13 -4 6713.4 1134.75 2
-6 -13 4 6303.56 1219.27 4
-13 19 4 3590.57 692.21 4
-6 -13 4 6069.44 1157.68 3
-6 19 -4 5697.53 944.35 1
-13 19 7 -79.4272 192.668 1
-13 -6 -7 262.188 273.471 1
-6 19 -7 9.85654 222.018 1
-13 -6 -7 444.656 371.025 2
-13 19 7 143.972 190.941 2
19 -6 7 -279.127 302.026 2
-6 -13 7 662.107 581.965 4
19 -13 -7 279.686 170.991 4
-13 19 7 121.794 213.949 4
-6 -13 7 527.709 448.788 3
-6 19 -10 755.331 438.12 1
-13 -6 -10 694.122 352.519 1
19 -6 10 1247.51 578.459 2
-13 19 10 689.188 312.857 1
-13 19 10 873.897 382.755 2
-13 19 10 637.43 357.633 4
-6 -13 10 1084.56 451.138 4
-6 -13 10 539.03 322.392 3
-6 19 -13 613.914 427.069 1
19 -6 13 1029.97 814.118 2
-13 19 13 578.158 513.265 4
-13 19 13 292.092 224.509 2
-13 -6 -13 168.158 145.143 3
-13 -6 -13 323.023 228.337 1
-6 -13 13 960.432 514.639 3
-5 -14 -12 985.101 436.149 3
19 -14 12 720.662 906.97 2
-14 19 -12 620.807 440.722 1
-14 -5 12 24.8903 246.138 4
-5 19 12 693.683 397.431 4
-5 -14 -9 716.265 254.626 2
19 -14 9 1055.14 695.352 2
-14 19 -9 961.169 591.754 1
-5 19 9 406.984 567.258 4
-5 -14 -9 433.102 295.829 3
19 -14 6 137.894 260.231 2
-5 -14 -6 414.335 214.07 2
-14 19 -6 736.491 339.521 1
-5 19 6 587.242 467.706 4
-5 -14 -6 197.327 266.133 3
-5 19 6 760.355 251.361 1
-14 19 -3 462.697 333.23 2
-5 19 3 164.019 166.917 1
19 -14 3 854.826 534.077 2
-5 19 3 1073.49 543.401 4
-14 19 -3 159.021 186.98 1
-5 -14 -3 487.775 233.399 2
-5 -14 -3 497.877 292.854 3
-14 19 0 -37.0367 243.91 1
-14 19 0 -365.364 286.097 2
-5 19 0 -22.5196 218.172 1
19 -14 0 -308.743 220.896 2
-5 19 0 38.2963 264.816 4
-14 -5 0 295.201 134.67 2
19 -5 0 551.532 446.665 2
-5 -14 0 -488.34 441.162 3
-14 -5 -3 1956.04 546.381 1
-5 19 -3 2618.04 668.604 1
-14 19 3 2912.35 701.283 1
-14 19 3 3623.9 727.887 2
-14 -5 -3 2230.58 643.164 2
19 -14 -3 2758.68 796.619 2
-5 -14 3 3155.4 884.128 3
-5 19 -6 189.708 265.257 1
-14 -5 -6 345.611 260.208 1
-14 19 6 -121.616 157.373 2
-14 -5 -6 64.7181 209.487 2
19 -5 6 601.767 509.938 2
-5 -14 6 4.37331 303.284 4
19 -14 -6 228.539 220.868 4
-14 19 6 474.176 250.49 4
-14 19 6 318.52 200.083 1
-5 -14 6 274.531 301.297 3
-5 19 -9 37.7703 208.842 1
-14 -5 -9 538.727 317.104 1
19 -5 9 1160.09 699.817 2
-14 19 9 231.423 152.026 2
-14 19 9 337.886 297.974 4
-5 -14 9 287.482 257.893 3
-14 19 9 400.075 229.924 1
-5 19 -12 557.89 391.645 1
19 -5 12 417.05 512.173 2
-14 19 12 150.687 247.081 4
-14 19 12 130.573 248.675 2
-5 -14 12 1208.44 609.014 3
-14 -5 -12 607.602 361.224 1
-4 -15 -13 810 335.323 3
19 -15 13 270.3 565.964 2
-15 19 -13 711.234 191.047 1
-15 -4 13 108.071 140.447 4
-4 19 13 -107.868 536.441 4
-4 -15 -10 757.063 260.011 2
19 -15 10 429.084 456.01 2
-15 19 -10 164.623 251.049 1
-4 19 10 -509.192 362.374 4
-4 -15 -10 430.487 355.779 3
-4 19 7 169.683 75.2349 1
-4 -15 -7 313.019 114.308 2
19 -15 7 125.168 300.978 2
-4 19 7 -236.008 345.246 4
-15 19 -7 89.1765 238.534 1
-4 -15 -7 468.771 293.825 3
-4 19 4 -136.37 195.737 1
19 -15 4 -188.361 432.036 2
-4 19 4 131.124 285.126 4
-4 -15 -4 190.488 201.671 2
-15 19 -4 -84.8073 171.784 1
-4 -15 -4 774.997 435.983 3
-15 19 -1 353.681 292.849 2
-4 19 1 68.1071 211.639 1
19 -15 1 86.0144 196.32 2
-4 19 1 725.943 393.562 4
19 -4 -1 707.785 388.018 2
-4 -15 -1 -612.642 456.538 3
-15 19 -1 89.985 215.011 1
-15 -4 -2 2092.52 564.022 1
-4 19 -2 1761.86 524.429 1
-15 19 2 2411.38 707.988 1
-15 19 2 2533.14 633.238 2
19 -15 -2 4324.79 1028.63 2
19 -4 2 3557.46 912.204 2
-4 19 -2 1931.28 571.586 4
-4 -15 2 2748.53 817.556 3
-4 19 -5 613.849 311.569 1
-15 -4 -5 763.398 420.958 1
-15 19 5 1364.43 479.501 2
19 -4 5 325.871 240.156 2
-15 19 5 708.126 431.634 1
19 -15 -5 327.245 278.614 4
-15 19 5 748.609 360.968 4
19 -15 -5 875.677 422.248 2
-4 -15 5 554.231 353.806 3
-4 19 -8 72.7319 235.202 1
-15 -4 -8 20.9927 191.725 1
-15 19 8 -307.746 282.102 1
19 -4 8 360.663 346.898 2
-15 19 8 121.763 242.85 2
19 -15 -8 -113.955 285.771 4
-15 19 8 238.983 205.135 4
-4 -15 8 36.4205 276.033 3
-15 -4 -11 700.373 331.669 1
-4 19 -11 440.196 402.84 1
19 -4 11 1762.63 790.854 2
-15 19 11 810.849 395.647 1
-15 19 11 306.027 206.712 4
-15 19 11 176.233 221.289 2
-4 -15 11 815.401 489.752 3
-3 -16 -11 1177.38 493.048 3
19 -16 11 1394.22 794.392 2
-16 19 -11 591.54 362.659 1
-3 19 11 915.69 717.656 4
-3 -16 -8 505.574 210.361 2
19 -16 8 174.578 368.704 2
-16 19 -8 360.098 382.964 1
-3 19 8 327.518 227.184 4
-3 -16 -8 -124.357 262.414 3
19 -16 5 923.051 572.206 2
-3 19 5 361.956 185.715 1
-3 -16 -5 718.234 273.258 2
-3 19 5 835.441 523.817 4
-16 19 -5 84.2836 329.541 1
-3 -16 -5 791.605 416.389 3
-3 19 2 314.85 217.018 1
-16 19 -2 575.298 349.537 2
19 -16 2 -409.584 468.758 2
-3 19 2 511.888 450.103 4
-3 -16 -2 478.987 293.284 3
-16 19 -2 28.9701 168.108 1
-3 19 -1 1755.52 550.445 1
-16 19 1 2857.25 833.646 1
-16 -3 -1 2446.53 654.727 1
-16 19 1 3113.66 784.175 2
19 -16 -1 2213.67 836.768 2
-3 19 -1 1741.54 536.356 4
19 -3 1 3137.19 861.163 2
-3 -16 1 1790.33 636.576 3
-3 19 -4 995.896 310.071 1
-16 -3 -4 934.154 406.401 1
-16 19 4 1076.22 397.916 2
-16 19 4 1227.37 413.029 1
19 -3 4 1561.45 672.401 2
19 -16 -4 2619.76 809.806 4
19 -16 -4 1424.56 563.821 2
-3 -16 4 1207.84 504.899 3
-3 19 -7 63.5721 252.892 1
-16 19 7 -376.615 179.258 1
-16 -3 -7 -152.124 245.725 1
-16 19 7 -294.253 312.585 2
19 -3 7 117.348 363.931 2
19 -16 -7 645.293 357.166 4
-16 19 7 91.25 201.055 4
-3 -16 7 274.181 421.901 3
-16 -3 -10 353.095 292.693 1
-3 19 -10 242.503 236.168 1
19 -3 10 977.492 584.504 2
-16 19 10 663.973 337.056 1
-16 19 10 190.739 151.987 2
-16 19 10 148.812 216.293 4
-3 -16 10 571.568 488.27 3
-3 19 -13 343.298 258.5 1
19 -3 13 825.831 643.957 2
-16 19 13 1111.93 431.683 4
-16 -3 -13 862.763 382.863 1
-16 19 13 1302.73 569.525 2
-3 -16 13 1023.55 572.462 3
-2 -17 -12 -122.984 308.387 3
19 -17 12 -107.228 662.474 2
-2 19 12 -12.0454 296.988 4
-17 19 -12 -198.828 319.673 1
-2 -17 -9 442.909 290.604 3
19 -17 9 -76.2721 308.096 2
-2 19 9 531.812 364.177 4
-17 19 -9 32.7825 302.848 1
19 -17 6 675.275 509.466 2
-2 -17 -6 372.214 165.911 2
-2 19 6 229.153 71.6348 1
-2 19 6 -113.597 337.777 4
-17 19 -6 395.144 330.65 1
-2 -17 -6 797.346 442.951 3
-2 19 3 1031.93 298.283 1
19 -17 3 748.018 479.456 2
-2 19 3 1038.34 460.577 4
-2 -17 -3 1504.25 587.825 3
-17 19 -3 991.628 424.993 1
-2 19 0 425.361 244.498 1
-17 19 0 439.157 328.281 1
-17 19 0 659.763 363.307 2
19 -17 0 750.809 442.6 2
-17 -2 0 655.886 383.993 1
-2 19 0 1157.25 458.55 4
19 -2 0 645.048 354.879 2
-2 -17 0 1144.44 436.641 3
-2 19 -3 630.435 257.117 1
-17 19 3 777.129 321.238 2
-17 -2 -3 414.608 348.043 1
-17 19 3 262.045 260.991 1
19 -17 -3 380.566 250.224 2
19 -2 3 450.82 377.268 2
19 -17 -3 423.89 352.51 4
-2 19 -3 643.465 343.709 4
-2 -17 3 421.06 315.51 3
-2 19 -6 253.702 291.378 1
-17 19 6 -113.13 196.253 1
-17 19 6 26.4219 244.139 2
-17 -2 -6 292.393 221.505 1
19 -2 6 -2.85001 254.172 2
19 -17 -6 -17.7769 307.284 4
-2 -17 6 517.305 403.536 3
-17 19 9 376.629 188.417 1
-2 19 -9 306.112 176.932 1
-17 -2 -9 -92.5061 272.979 1
19 -2 9 769.362 429.456 2
19 -17 -9 228.492 237.013 4
-17 19 9 654.758 401.396 2
-17 19 9 367.989 261.415 4
-2 -17 9 707.306 418.509 3
-2 19 -12 266.117 336.323 1
-17 19 12 516.403 396.859 1
19 -2 12 746.986 539.11 2
-17 19 12 657.815 448.371 4
-17 19 12 345.443 197.983 2
-17 -2 -12 310.342 294.33 1
-2 -17 12 53.0131 351.771 3
-1 -18 -10 916.334 459.571 3
19 -18 10 -438.349 569.898 2
-1 19 10 -445.213 450.434 4
-18 19 -10 210.047 326.066 1
-1 -18 -7 400.707 349.327 3
19 -18 7 774.872 594.184 2
-1 19 7 701.247 205.687 1
-1 19 7 843.349 628.534 4
19 -1 -7 420.652 171.025 4
-18 19 -7 728.79 543.876 1
-1 19 4 1114.97 360.875 1
19 -18 4 559.571 433.362 2
-1 19 4 1294.89 592.459 4
-1 -18 -4 766.776 207.714 2
-18 19 -4 1021.82 453.814 1
-1 -18 -4 147.998 278.088 3
-1 19 1 596.267 268.065 1
-18 19 -1 -105.65 268.767 1
19 -18 1 1047.5 451.708 2
-1 19 1 619.829 452.882 4
-18 -1 1 361.924 203.174 1
-1 -18 -1 902.369 474.368 3
-1 19 -2 216.495 176.676 1
-18 19 2 280.604 148.505 2
-18 19 2 532.461 333.175 1
-18 -1 -2 656.561 392.185 1
19 -18 -2 303.175 199.919 2
-1 19 -2 379.969 310.464 4
19 -18 -2 991.696 475.894 4
19 -1 2 515.711 397.791 2
-1 -18 2 601.966 282.526 3
-1 19 -5 442.666 236.682 1
-18 19 5 1058.77 501.489 2
-18 -1 -5 318.541 198.162 1
19 -18 -5 505.657 446.006 4
19 -1 5 749.704 475.535 2
19 -18 -5 525.329 349.47 2
-1 -18 5 862.367 503.682 3
-18 19 5 676.364 399.737 1
-1 19 -8 811.118 396.577 1
-18 -1 -8 1017.34 489.08 1
-18 19 8 899.56 380.502 2
19 -18 -8 1021.8 459.934 4
19 -1 8 1049.15 615.311 2
-18 19 8 1194.39 566.383 1
-1 -18 8 1100.22 689.164 3
-1 19 -11 463.627 392.996 1
-18 19 11 380.422 254.721 1
19 -1 11 905.272 610.155 2
-18 19 11 413.612 227.489 2
-18 19 11 166.23 203.837 4
-18 -1 -11 533.493 240.899 1
0 -19 -11 537.462 286.736 3
19 -19 11 681.434 752.89 2
0 19 11 740.015 815.462 4
-19 19 -11 429.634 400.625 1
0 -19 -8 208.756 254.54 3
19 -19 8 213.052 438.374 2
0 19 8 195.806 280.778 4
19 0 -8 260.079 103.637 4
-19 19 -8 -179.093 262.046 1
-19 19 -5 948.168 529.612 1
0 -19 -5 436.889 234.031 3
0 19 5 538.685 221.685 1
19 -19 5 212.123 386.817 2
0 19 5 242.015 217.063 4
0 -19 -5 405.86 162.517 2
0 -19 -2 -573.303 339.034 3
0 19 2 -112.325 212.384 1
-19 19 -2 171.783 368.479 1
-19 0 2 -417.115 477.331 1
19 -19 2 -220.961 354.836 2
0 19 2 176.885 367.828 4
0 19 -1 0.9848 119.827 1
-19 19 1 -6.24369 242.785 1
19 -19 -1 4.25889 266.957 2
0 19 -1 146.756 265.423 4
-19 0 -1 622.102 338.851 1
19 0 1 -138.622 270.188 2
0 -19 1 -258.737 442.686 3
0 19 -4 1399.53 489.264 1
-19 19 4 1708.35 583.455 2
19 -19 -4 2071.24 752.262 4
19 -19 -4 1220.99 500.777 2
19 0 4 1989.15 666.987 2
0 19 -4 1506.76 466.324 4
-19 0 -4 805.029 466.075 1
-19 19 4 1148.43 398.163 1
0 -19 4 1960.83 602.063 3
0 19 -7 3722.52 793.914 1
-19 0 -7 4680.4 945.248 1
-19 19 7 4116.17 911.051 1
-19 19 7 4882.16 976.571 2
19 -19 -7 5262.09 1114.2 4
19 0 7 5681.05 1232.22 2
0 -19 7 5149.78 1124.5 3
0 19 -10 430.345 365.742 1
19 0 10 589.763 594.336 2
-19 19 10 736.386 378.857 1
-19 19 10 264.719 198.977 4
-19 0 -10 202.138 159.756 1
0 -19 10 471.973 391.062 3
1 -20 -9 578.331 404.732 3
19 -20 9 -13.1713 409.206 2
1 19 9 833.048 581.695 4
-20 19 -9 152.964 270.628 1
-20 19 -6 167.598 283.958 1
1 -20 -6 -11.9398 239.026 3
1 19 6 116.255 137.69 1
19 1 -6 -206.048 199.033 4
1 19 6 -582.662 531.376 4
1 -20 -3 2514.57 695.433 3
1 19 3 1792.59 451.387 1
-20 1 3 2317.17 719.179 1
-20 19 -3 2241.18 713.965 1
19 -20 3 3166.52 924.911 2
1 19 3 2937.59 900.135 4
1 -20 0 606.373 398.611 3
-20 19 0 1581.6 601.864 1
19 -20 0 1121.18 548.881 2
1 19 0 474.376 286.723 4
-20 1 0 666.112 423.063 1
1 -20 3 1113.38 485.093 3
19 -20 -3 1589.1 551.12 2
1 19 -3 722.847 311.707 4
-20 19 3 900.34 437.704 1
19 1 3 1526.73 590.566 2
-20 1 -3 1364.7 549.236 1
-20 19 6 1553.38 690.058 1
-20 1 -6 2270.78 720.351 1
19 1 6 1791.27 665.67 2
19 -20 -6 1719.25 609.151 4
19 -20 -6 1376.71 605.003 2
1 -20 6 2003.91 767.827 3
-20 1 -9 -60.3717 193.293 1
-20 19 9 328.719 433.301 1
19 -20 -9 -12.0956 309.88 4
19 1 9 1009.8 707.958 2
1 -20 9 287.813 469.392 3
2 -21 -10 108.481 282.436 3
19 -21 10 -681.549 723.03 2
2 19 10 407.432 574.221 4
-21 19 -10 459.163 499.758 1
-21 19 -7 513.671 435.906 1
2 -21 -7 541.373 429.443 3
2 19 7 265.042 136.733 1
19 -21 7 -402.517 390.745 2
2 19 7 1228.93 697.722 4
2 19 7 293.01 164.669 1
19 2 -7 250.284 183.944 4
2 19 4 63.2104 125.188 1
2 -21 -4 -170.517 373.667 3
19 -21 4 95.8131 279.184 2
2 19 4 351.405 466.471 4
-21 2 4 205.508 216.509 1
2 -21 -1 689.367 408.729 3
-21 2 1 231.368 184.142 1
-21 19 -1 1005.29 517.935 1
19 -21 1 446.801 262.883 2
2 19 1 1075.12 528.671 4
2 -21 2 -13.1024 228.625 3
-21 2 -2 -288.956 274.737 1
19 -21 -2 6.5142 179.369 2
-21 19 2 358.436 283.976 1
2 19 -2 182.554 228.637 4
19 2 2 260.101 182.929 2
2 -21 5 2712.38 857.878 3
-21 19 5 697.242 195.367 1
-21 2 -5 1231.35 552.288 1
19 2 5 1479.72 706.674 2
2 19 -5 688.289 325.553 4
19 -21 -5 1124.09 658.237 2
2 -21 8 828.818 448.38 3
-21 2 -8 908.631 523.493 1
19 2 8 -167.931 404.913 2
-21 19 8 736.254 385.884 1
2 -21 11 165.734 291.45 3
-21 19 11 19.0778 321.933 1
19 2 11 -6.51778 319.895 2
-21 2 -11 239.252 355.433 1
-22 19 -8 1511.7 657.325 1
3 -22 -8 715.218 381.099 3
3 19 8 858.946 199.606 1
3 19 8 976.842 243.34 1
19 -22 8 715.778 594.351 2
3 19 8 957.463 533.756 4
19 3 -8 791.701 263.107 4
3 -22 -5 623.419 448.157 3
-22 19 -5 845.225 537.862 1
19 -22 5 936.755 470.216 2
19 3 -5 35.7514 140.464 4
3 19 5 773.013 505.188 4
3 -22 -2 966.322 384.134 3
-22 19 -2 1013.91 432.969 1
-22 3 2 1327.56 566.639 1
19 -22 2 341.997 196.456 2
3 19 2 1040.57 553.727 4
3 -22 1 245.245 402.732 3
-22 3 -1 579.417 451.575 1
19 -22 -1 748.387 450.263 2
-22 19 1 1160.77 506.014 1
3 19 -1 423.465 199.666 4
3 -22 4 876.682 502.789 3
-22 19 4 1952.18 736.941 1
-22 3 -4 486.163 352.655 1
19 -22 -4 1875.39 643.556 2
3 19 -4 894.379 325.616 4
19 3 4 1826.74 661.826 2
3 -22 7 1046.32 640.562 3
-22 3 -7 1266.39 594.951 1
-22 19 7 1288.31 772.412 1
19 3 7 219.591 385.33 2
3 -22 10 1825.44 790.247 3
19 3 10 947.333 587.863 2
-22 19 10 562.717 370.25 1
-22 3 -10 662.248 366.99 1
-23 19 -9 -400.694 541.911 1
4 19 9 589.013 155.136 1
19 -23 9 31.1545 356.552 2
4 19 9 353.006 129.655 1
4 19 9 -634.908 363.627 4
19 4 -9 584.837 226.92 4
4 -23 -6 -75.3567 329.067 3
-23 19 -6 -8.20667 298.391 1
19 4 -6 565.51 298.51 4
19 -23 6 185.396 325.695 2
4 19 6 284.326 419.76 4
4 19 6 349.779 113.03 1
4 -23 -3 -81.0229 416.582 3
4 -23 -3 30.0559 118.164 2
-23 19 -3 786.591 570.712 1
19 -23 3 373.089 470.175 2
4 19 3 989.978 551.596 4
-23 4 3 267.221 304.873 1
4 -23 0 265.117 214.61 3
-23 4 0 571.168 446.309 1
19 -23 0 275.444 418.925 2
-23 19 0 987.938 531.906 1
4 19 0 463.235 405.174 4
4 -23 3 901.067 595.574 3
-23 4 -3 473.411 374.461 1
19 -23 -3 110.82 191.249 2
4 19 -3 -35.8314 206.381 4
19 4 3 372.668 387.425 2
-23 19 3 1062.64 606.472 1
4 -23 6 1301.06 611.431 3
-23 4 -6 902.764 547.231 1
-23 19 6 878.097 521.994 1
4 19 -6 994.849 379.058 4
19 4 6 1278.4 686.41 2
19 -23 -6 1102.49 501.901 2
4 -23 9 1099.91 473.286 3
-23 19 9 201.496 248.292 1
19 4 9 218.616 226.45 2
-23 4 -9 549.725 477.065 1
-24 19 -7 573.774 527.007 1
19 -24 7 -28.3217 332.373 2
5 19 7 1540.8 905.867 4
5 19 7 824.714 282.485 1
19 5 -7 653.134 282.141 4
5 -24 -4 168.459 533.781 3
-24 5 4 -518.391 416.56 1
5 -24 -4 138.558 79.4936 2
-24 19 -4 480.062 458.132 1
19 -24 4 645.293 429.884 2
19 5 -4 -63.5846 141.017 4
5 19 4 -537.479 526.214 4
5 -24 -1 -244.49 481.832 3
5 -24 -1 -244.656 230.854 2
19 -24 1 22.7246 385.03 2
-24 5 1 -180.744 440.247 1
-24 19 -1 313.718 415.149 1
5 19 1 -194.522 318.248 4
5 -24 2 632.16 339.8 3
19 -24 -2 272.701 325.693 2
5 19 -2 11.4469 230.231 4
-24 5 -2 476.114 469.807 1
-24 19 2 567.443 498.523 1
5 -24 5 356.735 535.179 3
-24 5 -5 1106.93 585.826 1
-24 19 5 -37.9699 218.891 1
5 19 -5 43.3485 172.258 4
19 -24 -5 281.257 183.537 2
19 5 5 252.281 342.274 2
5 -24 8 664.648 626.078 3
-24 19 8 552.341 198.562 1
19 5 8 415.395 292.008 2
-24 5 -8 593.655 393.008 1
6 19 8 183.927 149.51 1
-25 19 -8 -672.892 629.814 1
19 -25 8 439.306 579.499 2
6 19 8 475.543 478.249 4
19 6 -8 137.085 213.233 4
6 19 5 1069.9 406.704 1
19 -25 5 684.872 247.432 2
-25 6 5 267.458 303.303 1
6 19 5 1553.67 770.428 4
19 6 -5 996.115 426.254 4
6 -25 -2 165.131 394.305 3
6 -25 -2 100.187 206.588 2
19 -25 2 445.254 229.387 2
-25 19 -2 47.1509 312.211 1
6 19 2 -5.78225 213.812 4
-25 6 2 94.6536 211.304 1
6 -25 1 -117.536 281.392 3
6 -25 1 -241.567 336.245 2
19 -25 -1 -301.642 297.041 2
6 19 -1 153.697 339.551 4
-25 19 1 484.872 326.517 1
-25 6 -1 -85.7255 186.79 1
6 -25 4 1148.04 456.331 3
6 -25 4 667.125 454.837 2
-25 19 4 138.633 413.223 1
-25 6 -4 687.991 494.516 1
19 -25 -4 1348.19 590.941 2
6 19 -4 479.974 272.166 4
19 6 4 563.645 405.193 2
6 -25 7 142.002 469.049 3
-25 6 -7 -166.928 364.573 1
6 19 -7 420.108 322.793 4
19 6 7 324.655 408.573 2
-25 19 7 728.175 433.989 1
7 19 6 -23.3532 199.739 1
-26 7 6 307.484 433.253 1
-26 19 -6 613.371 445.408 1
19 -26 6 64.7895 371.744 2
7 19 6 21.7088 326.011 4
19 7 -6 460.751 217.11 4
7 -26 -3 265.996 187.278 2
19 -26 3 1027.15 598.432 2
-26 19 -3 901.454 500.891 1
19 7 -3 145.614 260.377 4
7 19 3 580.017 618.777 4
-26 7 3 452.864 404.823 1
-26 7 0 -102.005 245.245 1
7 -26 0 536.525 424.062 3
7 -26 0 330.306 221.313 2
19 -26 0 295.611 304.2 2
7 19 0 -108.599 199.822 4
-26 19 0 201.685 265.594 1
7 -26 3 1927.32 816.635 3
-26 19 3 1353.82 727.255 1
7 -26 3 1711.87 690.079 2
-26 7 -3 1126.8 608.055 1
19 -26 -3 1173.2 468.026 2
7 19 -3 357.434 244.671 4
7 -26 6 98.5484 288.052 3
-26 7 -6 109.096 250.129 1
7 -26 6 1192.66 522.504 2
-26 19 6 -673.021 625.371 1
7 19 -6 -208.604 329.307 4
19 -26 -6 538.122 326.592 2
19 7 6 164.265 214.344 2
-27 8 4 -149.337 346.081 1
8 19 4 322.031 146.661 1
19 -27 4 296.863 391 2
8 -27 -4 82.3178 136.342 2
-27 19 -4 85.6035 393.606 1
8 19 4 109.628 363.457 4
19 8 -4 248.962 310.226 4
-27 8 1 208.291 434.814 1
8 -27 -1 224.221 268.82 2
19 -27 1 62.965 309.217 2
8 19 1 32.9199 325.708 4
-27 19 -1 -84.9857 423.767 1
8 -27 2 567.293 327.097 3
-27 19 2 510.588 309.609 1
8 -27 2 582.331 298.748 2
-27 8 -2 344.976 368.783 1
19 -27 -2 438.779 379.289 2
8 19 -2 134.345 255.353 4
8 -27 5 693.863 660.742 3
8 -27 5 407.229 435.529 2
-27 8 -5 -416.655 456.237 1
-27 19 5 589.181 420.462 1
19 -27 -5 -189.711 479.695 2
8 19 -5 -30.5496 276.539 4
-28 9 2 870.969 627.722 1
9 -28 -2 -41.0298 282.726 2
19 -28 2 266 294.796 2
19 9 -2 203.446 241.816 4
9 19 2 505.733 355.921 4
-28 19 -2 135.453 321.329 1
-28 19 1 44.6547 261.775 1
9 -28 1 159.326 203.222 2
19 -28 -1 -361.763 470.239 2
9 19 -1 -307.92 393.907 4
-28 9 -1 463.814 512.732 1
-10 20 0 869.526 455.543 1
20 -10 0 716.403 366.606 2
-10 -10 0 1235.54 465.808 2
-10 20 3 1248.34 353.894 2
-10 20 -3 1572.9 484.93 1
20 -10 3 1949.78 736.009 2
-10 -10 -3 1047.3 420.505 2
-10 20 3 936.932 425.074 4
20 -10 -3 1292.81 454.363 2
-10 20 3 1001.93 347.765 1
-10 20 6 1700.95 358.966 2
-10 20 -6 2256.11 680.124 1
-10 20 6 1621.47 451.01 1
-10 -10 -6 2659.04 681.533 2
20 -10 6 2835 973.317 2
-10 -10 6 1689.45 581.965 4
-10 20 6 1874.11 591.731 4
-10 -10 -6 2043.19 545.458 3
-10 20 -9 -57.9925 389.559 1
-10 -10 -9 668.275 321.672 2
-10 20 9 444.707 176.682 2
20 -10 9 202.204 238.975 2
-10 20 9 275.938 219.504 1
-10 -10 9 784.87 494.518 4
-10 -10 -9 764.245 262.077 1
-10 20 9 691.782 421.455 4
-10 -10 -9 385.695 241.319 3
-10 -10 -12 602.763 295.256 2
-10 20 -12 -169.175 333.719 1
20 -10 12 357.423 576.406 2
-10 20 12 1623.3 765.923 4
-10 -10 12 881.257 498.394 4
-10 20 12 918.459 321.421 2
-10 -10 -12 1002.16 348.807 1
-10 -10 -12 902.541 400.717 3
-9 -11 -13 -20.9714 101.008 1
-9 -11 -13 -34.8341 226.703 2
-11 20 -13 29.4145 202.964 1
20 -11 13 -59.6953 432.264 2
-9 20 13 -361.882 302.793 4
-11 -9 13 -61.1033 243.628 4
-9 20 13 21.1337 111.706 2
-9 -11 -13 -202.151 266.858 3
-9 -11 -10 1144.3 397.28 2
-11 20 -10 1088.77 572.702 1
20 -11 10 852.222 665.922 2
-9 20 10 958.64 280.376 1
-9 20 10 520.811 163.92 2
-11 -9 10 1337.78 537.68 4
-9 20 10 271.972 346.016 4
-9 -11 -10 929.667 403.201 3
-9 20 7 509.562 142.245 2
-11 20 -7 1010.44 487.451 1
-9 -11 -7 1376.28 496.564 2
20 -11 7 365.078 366.071 2
-11 -9 7 830.049 403.845 4
-9 20 7 867.636 320.323 1
-9 20 7 1370.24 640.406 4
20 -9 -7 779.622 220.697 4
-9 -11 -7 815.538 428.762 3
-11 20 -4 2151.91 601.396 1
20 -11 4 1986.45 669.778 2
-9 -11 -4 2177.54 548.231 2
-9 20 4 1428.04 444.583 4
-9 -11 -4 1939.22 628.221 3
-9 20 4 1784.63 454.448 1
-9 20 1 4398.3 813.053 1
-11 20 -1 3668.7 852.251 1
20 -11 1 5501.05 1083.58 2
-9 20 1 3245.7 655.844 4
20 -9 -1 5560.09 1088.77 2
-9 -11 -1 4092.86 793.175 2
-11 -9 1 3639.76 816.904 2
-11 20 2 1198.33 348.662 2
-9 20 -2 761.031 362.253 1
20 -9 2 1781.96 615.639 2
-11 -9 -2 1084.69 403.551 2
-11 20 2 669.975 233.788 4
20 -11 -2 1599.35 645.19 2
-11 20 2 793.266 299.504 1
-11 20 5 190.476 91.9866 2
-11 20 5 204.708 261.707 1
-9 20 -5 259.312 351.995 1
-11 -9 -5 243.137 278.237 2
-9 -11 5 341.637 283.413 4
20 -9 5 221.806 301.265 2
-11 20 5 313.767 233.938 4
-11 20 8 1492.16 420.668 1
-9 20 -8 1265.63 512.083 1
-11 -9 -8 1337.87 429.683 1
-11 -9 -8 1373.7 516.984 2
-11 20 8 1313.98 334.826 2
20 -9 8 1951.44 852.858 2
20 -11 -8 1634.99 333.027 4
-9 -11 8 1953.27 742.939 4
-11 20 8 1545.61 624.009 4
-11 -9 -11 423.993 280.221 2
-9 20 -11 257.807 311.462 1
20 -9 11 35.1043 367.647 2
-11 20 11 189.933 188.223 2
-11 20 11 -65.6148 271.762 4
-9 -11 11 -177.478 336.615 4
-11 20 11 333.965 233.243 1
-11 -9 -11 319.022 281.955 1
-11 -9 -11 507.294 370.095 3
-8 -12 -11 -125.652 262.372 2
-12 20 -11 -74.7113 249.433 1
20 -12 11 320.224 620.938 2
-12 -8 11 -619.531 475.154 4
-8 20 11 418.303 406.489 4
-8 -12 -11 268.133 279.996 3
-8 -12 -8 448.768 249.098 2
-12 20 -8 968.294 405.434 1
20 -12 8 797.113 449.615 2
-8 20 8 -86.9593 263.85 4
-8 20 8 530.231 250.971 1
-8 -12 -8 610.475 417.485 3
-8 20 5 3855.6 622.073 1
-12 20 -5 4132.32 914.374 1
20 -12 5 4843.64 1185.45 2
-8 -12 -5 4004.18 739.66 2
-8 20 5 3892.98 875.535 4
-8 -12 -5 3573.97 811.995 3
-12 20 -2 3313.23 703.513 2
20 -12 2 5421.53 1134.66 2
-8 20 2 2460.59 534.257 1
-12 20 -2 4008.11 859.112 1
-8 20 2 2112.73 575.351 4
-8 -12 -2 3519.39 702.78 2
-8 -12 -2 3705.7 843.068 3
20 -8 -2 3804.29 891.777 2
-12 20 1 3395.47 658.373 2
-8 20 -1 3133.13 715.887 1
20 -8 1 4697.62 971.524 2
20 -12 -1 4007.51 910.238 2
-12 -8 -1 2417.89 614.776 2
-8 20 -1 1645.95 467.521 4
-8 -12 1 2477.96 695.286 3
-12 20 1 2862.97 688.266 1
-12 20 4 450.126 207.011 1
-12 20 4 487.011 229.992 2
-8 20 -4 497.515 369.185 1
-8 -12 4 -530.706 370.294 4
-12 -8 -4 149.681 225.56 2
20 -8 4 11.3498 260.854 2
-12 20 4 203.951 183.292 4
-8 -12 4 14.0975 310.395 3
20 -12 -4 -59.9916 184.919 2
-8 20 -7 359.078 370.315 1
-12 -8 -7 906.013 360.086 1
-12 20 7 768.226 261.758 2
-12 -8 -7 997.556 450.389 2
20 -8 7 372.941 324.352 2
-8 -12 7 1379.72 621.805 4
20 -12 -7 700.044 243.307 4
-12 20 7 122.978 192.7 4
-8 -12 7 689.729 495.987 3
-12 20 7 762.173 306.831 1
-8 20 -10 156.471 172.818 1
-12 20 10 -54.0056 145.037 1
-12 -8 -10 621.295 383.159 2
20 -8 10 302.817 442.847 2
-12 20 10 -157.524 210.967 2
-8 -12 10 -106.541 494.898 4
-12 20 10 306.829 264.43 4
-8 -12 10 151.304 264.934 3
-12 -8 -10 -89.6059 150.61 1
-12 -8 -13 266.774 256.215 1
-8 20 -13 267.056 241.169 1
20 -8 13 -447.895 471.222 2
-12 20 13 352.843 407.667 4
-12 20 13 -48.302 277.818 2
-8 -12 13 33.4902 442.453 3
-12 -8 -13 167.197 270.434 3
-7 -13 -12 1786.5 516.93 2
20 -13 12 1376.31 711.335 2
-13 20 -12 1051.92 556.946 1
-13 -7 12 982.107 552.101 4
-7 20 12 1351.68 819.339 4
-7 -13 -12 1441.34 554.018 3
-7 -13 -9 242.104 191.292 2
20 -13 9 126.147 408.935 2
-13 20 -9 133.362 252.785 1
-7 20 9 348.958 162.864 1
-7 20 9 559.851 501.726 4
-7 -13 -9 358.339 244.384 3
-7 20 6 1105.84 274.219 1
20 -13 6 2260.83 879.144 2
-7 -13 -6 1188.57 382.452 2
-13 20 -6 1615.1 611.636 1
-7 20 6 1475.46 640.727 4
-7 -13 -6 1270.91 453.81 3
-13 20 -3 4947.88 924.127 2
-7 -13 -3 6079.17 888.396 2
20 -13 3 4964.25 1081.28 2
-13 20 -3 4726.37 982.883 1
-7 20 3 4349.49 869.027 4
-7 -13 -3 5820.02 1055.53 3
20 -7 -3 4903.94 1023.01 2
-7 20 3 4995.21 761.539 1
-13 20 0 1626.03 503.656 2
-7 20 0 1343.67 410.311 1
20 -13 0 1889.89 647.409 2
-7 20 0 619.226 300.998 4
20 -7 0 2000.77 690.718 2
-13 -7 0 1318.78 500.89 2
-7 -13 0 1852.21 674.06 3
-13 20 0 2515.26 668.715 1
-13 20 3 895.004 369.621 1
-13 20 3 749.574 346.933 2
-7 20 -3 558.074 365.568 1
-7 -13 3 238.167 239.258 4
-13 -7 -3 534.641 248.03 2
20 -7 3 1777.82 686.801 2
-13 20 3 939.915 359.457 4
20 -13 -3 914.505 450.498 2
-7 -13 3 218.885 342.591 3
-7 20 -6 959.602 447.494 1
-13 -7 -6 985.942 446.654 1
-13 20 6 1161.99 396.809 2
-13 -7 -6 559.833 296.192 2
20 -7 6 1170.71 649.497 2
-7 -13 6 982.668 517.12 4
-13 20 6 1464 471.314 1
20 -13 -6 785.65 297.886 4
-13 20 6 328.355 201.238 4
-7 -13 6 639.579 470.396 3
-7 20 -9 1248.13 401.914 1
-13 -7 -9 892.382 443.851 2
20 -7 9 1319.45 774.338 2
-13 20 9 931.557 390.095 2
-7 -13 9 1127.3 542.437 4
-13 20 9 686.575 296.181 1
-13 20 9 546.414 362.03 4
-7 -13 9 881.32 609.349 3
-13 -7 -9 723.607 309.938 1
-7 20 -12 -185.38 429.235 1
-13 -7 -12 433.223 280.58 1
20 -7 12 225.658 396.118 2
-13 20 12 1101.27 564.619 4
-13 20 12 781.347 376.802 2
-13 -7 -12 1115.97 474.569 3
-7 -13 12 1087.39 616.979 3
-6 -14 -13 497.191 367.815 3
20 -14 13 -242.866 628.742 2
-14 20 -13 925.972 514.2 1
-6 20 13 540.963 631.501 4
-14 -6 13 284.403 307.328 4
-6 -14 -10 -35.831 160.681 2
20 -14 10 -571.091 745.991 2
-14 20 -10 -44.4601 299.859 1
-6 20 10 797.498 532.574 4
-6 -14 -10 -1.64219 330.44 3
-6 20 7 1411.86 334.482 1
-6 -14 -7 1123.63 357.483 2
20 -14 7 687.796 366.549 2
-14 20 -7 1562.98 594.616 1
-6 20 7 1014.47 497.879 4
-6 -14 -7 1054.61 363.717 3
20 -14 4 136.545 493.607 2
-6 20 4 80.8604 193.233 1
-6 -14 -4 99.9985 177.987 2
-14 20 -4 -289.535 409.484 1
-6 20 4 361.698 387.715 4
-6 -14 -4 -120.879 383.953 3
-14 20 -1 1058.09 431.575 2
-6 20 1 1247.12 365.491 1
20 -14 1 1619.87 618.61 2
-6 20 1 1166.98 481.884 4
20 -6 -1 1163.6 477.99 2
-14 20 -1 1031.97 413.986 1
-6 -14 -1 741.113 312.83 3
-14 20 2 8749.51 1192.37 1
-14 20 2 9127.21 1151.13 2
-14 -6 -2 7442.03 1171.75 2
20 -6 2 9690.22 1466.56 2
20 -14 -2 8750.43 1436.06 2
-6 20 -2 4968.01 866.247 4
-6 -14 2 7356.23 1337.33 3
-6 20 -2 7517.65 1080.96 1
-6 20 -5 -145.184 375.275 1
-14 -6 -5 560.343 337.401 1
-14 20 5 122.718 140.579 2
-14 -6 -5 -305.585 350.148 2
-14 20 5 -58.1603 145.45 1
20 -6 5 619.081 482.057 2
20 -14 -5 313.902 255.677 4
-14 20 5 46.2014 191.748 4
-6 -14 5 518.957 513.414 3
20 -14 -5 362.673 320.556 2
-6 20 -8 184.605 207.997 1
-14 20 8 183.104 186.965 1
-14 20 8 -53.9898 196.598 2
20 -6 8 427.378 395.949 2
20 -14 -8 552.795 231.143 4
-14 20 8 84.8516 160.921 4
-6 -14 8 704.418 447.388 3
-14 -6 -8 -79.5871 196.37 1
-6 20 -11 -64.8131 298.607 1
-14 20 11 566.666 319.881 1
-14 -6 -11 186.113 215.635 1
20 -6 11 824.034 469.816 2
-14 20 11 456.664 321.02 2
-14 20 11 371.528 345.976 4
-6 -14 11 499.162 530.47 3
-5 -15 -11 1188.84 370.992 2
20 -15 11 709.061 575.164 2
-15 20 -11 785.712 310.177 1
-5 20 11 403.856 633.572 4
-5 -15 -11 1392.73 563.111 3
-5 -15 -8 690.069 313.915 2
20 -15 8 -71.894 324.357 2
-15 20 -8 -45.8217 321.224 1
-5 20 8 101.59 101.021 1
-5 20 8 894.306 568.187 4
-5 -15 -8 216.082 303.882 3
20 -15 5 1799.04 808.906 2
-5 -15 -5 992.223 352.798 2
-5 20 5 352.513 379.568 4
-5 20 5 1018.35 323.501 1
-15 20 -5 863.211 398.238 1
-5 -15 -5 692.484 395.869 3
-15 20 -2 616.445 350.738 2
-5 20 2 784.144 322.179 1
20 -15 2 835.268 466.454 2
-5 20 2 391.744 206.925 4
-15 20 -2 312.25 192.228 1
20 -5 -2 1372.12 541.606 2
-5 -15 -2 757.034 278.778 3
-15 20 1 745.97 509.236 1
-5 20 -1 -252.02 295.664 1
-15 20 1 140.978 131.492 2
20 -15 -1 992.057 468.751 2
-5 20 -1 -117.594 217.319 4
20 -5 1 329.035 293.158 2
-5 -15 1 -323.852 269.892 3
-5 20 -4 282.847 209.141 1
-15 -5 -4 -349.223 384.05 1
-15 20 4 70.0347 137.66 2
-15 20 4 659.298 339.523 1
20 -5 4 21.9295 266.958 2
20 -15 -4 412.568 407.529 4
20 -15 -4 801.972 497.949 2
-5 -15 4 -84.1286 212.682 3
-15 -5 -7 619.684 336.411 1
-15 20 7 664.126 350.948 1
-5 20 -7 613.446 339.308 1
-15 20 7 616.566 320.469 2
20 -5 7 790.429 516.633 2
20 -15 -7 675.34 317.977 4
-15 20 7 51.1383 190.285 4
-5 -15 7 193.547 213.207 3
-5 20 -10 205.607 330.56 1
-15 20 10 198.814 195.913 1
-15 -5 -10 409.323 252.753 1
20 -5 10 1191.9 727.778 2
-15 20 10 1062.26 518.434 2
-15 20 10 69.5492 191.478 4
-5 -15 10 670.235 502.308 3
20 -5 13 -31.8123 266.029 2
-15 20 13 786.204 490.308 4
-15 20 13 516.126 382.853 2
-5 -15 13 796.007 634.776 3
-15 -5 -13 -351.348 397.406 1
-4 -16 -12 1249.95 445.587 3
20 -16 12 1116.55 730.45 2
-16 20 -12 906.444 567.506 1
-4 20 12 759.052 710.022 4
-4 -16 -9 1019.71 297.455 2
20 -16 9 647.47 510.215 2
-4 20 9 750.63 490.091 4
-16 20 -9 335.558 399.427 1
-4 -16 -9 740.077 399.581 3
20 -16 6 -415.515 460.702 2
-4 -16 -6 383.254 244.797 2
-4 20 6 194.593 293.919 4
-16 20 -6 529.725 430.759 1
-4 20 6 403.786 175.511 1
-4 -16 -6 80.5182 257.051 3
-4 20 3 2310.85 532.083 1
20 -16 3 3600.67 960.541 2
-4 20 3 2136.45 629.53 4
-4 -16 -3 2244.29 513.777 2
-16 20 -3 1796.87 604.932 1
-4 -16 -3 2323.47 668.117 3
-16 20 0 -6.58028 346.105 1
-4 20 0 94.9125 194.985 1
-16 20 0 522.038 368.185 2
20 -16 0 375.979 336.283 2
-4 20 0 -143.46 306.769 4
20 -4 0 378.215 373.561 2
-4 -16 0 735.654 392.661 3
-4 20 -3 786.678 430.124 1
-16 20 3 1161.96 438.599 2
-16 20 3 398.909 164.017 1
-16 -4 -3 311.023 277.11 1
20 -4 3 610.966 425.508 2
20 -16 -3 1236.32 479.781 2
-4 20 -3 523.5 308.5 4
20 -16 -3 930.409 551.894 4
-4 -16 3 473.504 281.953 3
-16 -4 -6 -224.672 257.108 1
-4 20 -6 359.316 366.048 1
-16 20 6 190.1 124.708 2
20 -4 6 575.881 466.655 2
20 -16 -6 434.989 351.064 4
-16 20 6 95.5936 166.398 4
-4 -16 6 -80.6963 344.041 3
-16 20 6 242.839 239.962 1
-4 20 -9 597.404 311.311 1
-16 -4 -9 628.889 329.436 1
20 -4 9 506.389 411.848 2
20 -16 -9 343.939 254.842 4
-16 20 9 10.3777 216.756 2
-16 20 9 94.3526 135.622 4
-16 20 9 266.677 293.437 1
-4 -16 9 301.379 209.6 3
-4 20 -12 147.045 279.858 1
20 -4 12 816.077 593.631 2
-16 20 12 26.2854 197.932 4
-16 20 12 280.521 422.197 2
-16 20 12 281.156 245.118 1
-4 -16 12 831.68 534.65 3
-16 -4 -12 754.396 404.788 1
-3 -17 -10 1288.66 472.258 3
20 -17 10 718.908 315.087 2
-3 20 10 964.964 712.625 4
-17 20 -10 607.292 474.289 1
-3 -17 -7 409.617 166.056 2
20 -17 7 -373.666 405.317 2
20 -3 -7 357.321 155.784 4
-3 20 7 435.165 327.198 4
-17 20 -7 420.879 234.879 1
-3 20 7 458.338 158.569 1
-3 -17 -7 526.289 366.334 3
-3 20 4 1010.68 307.837 1
20 -17 4 213.727 295.527 2
-3 20 4 881.181 404.967 4
-3 -17 -4 871.2 261.193 2
-17 20 -4 638.643 379.365 1
-3 -17 -4 1458.73 503.381 3
-17 20 -1 1134.68 493.687 1
-3 20 1 530.923 242.635 1
-17 20 -1 647.847 359.823 2
20 -17 1 521.717 441.84 2
-3 20 1 858.703 466.855 4
20 -3 -1 827.995 463.725 2
-3 -17 -1 717.917 488.642 3
-3 20 -2 1017.4 419.508 1
-17 20 2 1168.71 442.724 1
-17 20 2 752.234 226.393 2
-17 -3 -2 1035.54 405.722 1
20 -17 -2 1057.16 459.138 2
-3 20 -2 760.493 383.993 4
20 -3 2 956.331 569.441 2
-3 -17 2 1122.69 575.951 3
-3 20 -5 180.703 207.746 1
-17 -3 -5 21.7438 151.963 1
-17 20 5 -21.7986 180.135 2
20 -3 5 -67.8851 317.289 2
20 -17 -5 72.5568 281.783 4
-17 20 5 597.812 435.901 1
20 -17 -5 118.543 275.107 2
-3 -17 5 -399.096 472.33 3
-3 20 -8 549.408 385.957 1
-17 -3 -8 797.635 485.81 1
-17 20 8 293.663 340.686 1
-17 20 8 190.372 315.535 2
20 -3 8 -28.6169 380.786 2
20 -17 -8 490.87 304.12 4
-17 20 8 466.475 289.836 4
-3 -17 8 75.4669 316.032 3
-17 -3 -11 462.178 282.438 1
-3 20 -11 261.66 345.438 1
-17 20 11 375.135 251.36 1
20 -3 11 269.805 306.739 2
-17 20 11 1190.03 548.781 2
-17 20 11 299.351 251.834 4
-3 -17 11 771.381 521.587 3
-2 -18 -11 24.9364 163.285 3
20 -18 11 559.874 440.758 2
-2 20 11 165.036 572.682 4
-18 20 -11 20.7475 315.291 1
-2 -18 -8 -252.233 384.187 3
-2 20 8 -20.0369 50.9826 1
-2 -18 -8 214.62 98.5087 2
20 -2 -8 246.956 108.396 4
-2 20 8 298.127 337.696 4
-18 20 -8 207.047 338.133 1
-2 20 5 833.591 269.479 1
20 -18 5 155.56 389.504 2
-2 -18 -5 1200.65 333.321 2
-2 20 5 791.585 380.676 4
-18 20 -5 1084.11 563.538 1
-2 -18 -5 1322.51 534.569 3
-18 20 -2 2654.73 763.095 1
-2 20 2 1593.55 421.142 1
20 -18 2 2241.67 842.244 2
-2 20 2 1989.54 597.479 4
-2 -18 -2 2408.51 695.065 3
-2 20 -1 -119.104 186.016 1
-18 20 1 196.781 206.552 1
-18 20 1 1055.89 470.119 2
20 -18 -1 -179.14 184.938 2
-2 20 -1 -175.127 285.787 4
-18 -2 -1 507.938 273.167 1
20 -2 1 543.857 421.188 2
-2 -18 1 119.44 209.798 3
-2 20 -4 132.592 232.957 1
-18 -2 -4 862.167 444.962 1
-18 20 4 -39.8521 259.106 2
-18 20 4 265.273 258.536 1
20 -2 4 492.198 334.547 2
20 -18 -4 380.628 551.566 4
20 -18 -4 19.8139 295.797 2
-2 20 -4 294.295 249.629 4
-2 -18 4 457.578 354.665 3
-2 20 -7 985.87 452.571 1
-18 20 7 159.362 273.471 1
-18 -2 -7 661.739 483.686 1
-18 20 7 1032.6 517.988 2
20 -2 7 815.501 553.739 2
20 -18 -7 766.194 358.587 4
-2 -18 7 831.394 628.809 3
-2 20 -10 154.145 209.147 1
-18 -2 -10 671.119 454.247 1
-18 20 10 55.4846 287.807 1
20 -2 10 802.777 430.05 2
-18 20 10 756.174 480.075 2
-18 20 10 -44.6417 241.218 4
-2 -18 10 1073.23 642.117 3
-1 -19 -9 988.194 386.424 3
20 -19 9 587.084 631.626 2
-1 20 9 530.114 327.515 4
-19 20 -9 215.118 243.924 1
-1 -19 -6 -92.9614 299.168 3
-1 20 6 200.16 144.947 1
20 -19 6 -144.388 527.156 2
-1 -19 -6 131.279 112.531 2
20 -1 -6 153.52 164.36 4
-1 20 6 -360.84 300.926 4
-19 20 -6 878.818 524.13 1
-19 20 -3 3921.44 956.693 1
-1 20 3 2403.06 510.553 1
20 -19 3 2253.88 804.616 2
-1 20 3 2047.47 649.304 4
-1 -19 -3 2271.55 732.733 3
-19 -1 0 1375.11 527.865 1
-1 20 0 615.754 307.973 1
-19 20 0 1445.37 543.43 1
20 -19 0 896.141 503.273 2
-1 20 0 506.389 361.828 4
20 -1 0 903.653 473.59 2
-1 -19 0 584.436 485.616 3
-1 20 -3 957.476 352.496 1
-19 -1 -3 1341.81 489.347 1
-19 20 3 1282.43 481.279 2
-19 20 3 1645.31 596.963 1
20 -19 -3 1276.03 536.131 2
20 -19 -3 1422.67 713.896 4
-1 20 -3 970.749 339.551 4
20 -1 3 1262.19 577.835 2
-1 -19 3 968.461 462.44 3
-1 20 -6 972.151 357.353 1
-19 20 6 1745.55 645.258 1
-19 20 6 1473.5 565.727 2
-19 -1 -6 1522.57 573.947 1
20 -19 -6 2484.75 803.326 4
20 -1 6 2377.62 845.169 2
20 -19 -6 2183.2 798.696 2
-1 -19 6 3934.55 1122.05 3
-19 20 9 -90.6381 164.607 1
-1 20 -9 549.497 430.431 1
-19 -1 -9 487.102 322.731 1
20 -19 -9 175.738 174.668 4
20 -1 9 581.005 364.361 2
-19 20 9 819.224 429.603 2
-1 -19 9 885.109 497.036 3
0 -20 -10 315.956 301.628 3
20 -20 10 -98.4141 688.115 2
0 20 10 -155.992 332.111 4
-20 20 -10 -405.344 408.071 1
0 -20 -7 977.385 459.095 3
0 20 7 1012.69 258.444 1
20 -20 7 1443.96 783.705 2
0 20 7 1451.18 709.084 4
20 0 -7 1097.57 316.242 4
-20 20 -7 778.826 477.296 1
0 -20 -4 -355.946 248.717 3
-20 20 -4 132.881 301.982 1
0 20 4 310.408 176.715 1
20 -20 4 286.373 459.348 2
0 20 4 1029.61 632.028 4
0 -20 -4 461.789 171.917 2
0 -20 -1 -127.037 219.241 3
0 20 1 97.8114 138.081 1
-20 0 1 -169.049 460.856 1
-20 20 -1 362.11 222.674 1
20 -20 1 256.643 269.695 2
0 20 1 -48.408 199.133 4
0 20 -2 401.248 325.357 1
-20 0 -2 545.483 309.284 1
-20 20 2 1168.56 477.579 1
20 -20 -2 502.564 340.973 2
0 20 -2 -111.227 170.667 4
20 0 2 379.818 401.378 2
0 -20 2 822.749 495.578 3
20 0 5 7723.83 1414.74 2
20 -20 -5 7272.47 1249.79 2
-20 20 5 7568.97 1268.5 1
20 -20 -5 10589.6 1758.43 4
-20 0 -5 5844.98 1093.72 1
0 20 -5 3894.86 755.721 4
0 -20 5 7369.41 1398.88 3
0 20 -5 5507.63 926.849 1
0 20 -8 -109.766 206.659 1
-20 0 -8 40.0443 249.028 1
20 -20 -8 163.644 350.867 4
20 0 8 223.222 260.031 2
-20 20 8 114.428 198.16 1
0 -20 8 -274.155 222.661 3
0 20 -11 116.888 212.965 1
-20 20 11 -308.764 476.398 1
20 0 11 -297.581 386.743 2
-20 20 11 167.126 171.166 4
-20 0 -11 -12.4879 319.689 1
0 -20 11 47.5102 359.76 3
1 -21 -8 773.265 474.108 3
20 -21 8 119.808 424.244 2
1 20 8 546.591 158.1 1
1 20 8 142.024 268.22 4
20 1 -8 784.101 254.623 4
1 20 8 723.104 204.513 1
-21 20 -8 512.967 353.703 1
1 -21 -5 -5.82852 258.014 3
-21 20 -5 -51.2562 259.208 1
1 20 5 215.586 156.713 1
20 -21 5 57.9913 289.376 2
1 20 5 591.333 542.569 4
1 -21 -5 -185.408 127.686 2
1 -21 -2 1225.96 530.934 3
1 20 2 912.402 359.367 1
-21 20 -2 1899.87 723.191 1
20 -21 2 1774.55 730.269 2
-21 1 2 676.666 273.3 1
1 20 2 1428.34 608.703 4
1 20 -1 403.115 251.228 1
1 -21 1 1069.16 488.526 3
-21 20 1 387.188 271.398 1
20 -21 -1 441.129 255.078 2
-21 1 -1 257.893 277.052 1
1 20 -1 132.598 159.639 4
20 1 1 449.941 344.985 2
1 -21 4 1075.62 680.488 3
20 -21 -4 618.422 482.287 2
1 20 -4 371.161 285.944 4
20 1 4 -14.2504 184.638 2
-21 1 -4 550.358 463.766 1
-21 20 4 750.299 528.745 1
-21 1 -7 141.722 341.317 1
-21 20 7 590.944 537.079 1
20 1 7 1288.79 674.563 2
1 -21 7 1568.52 751.254 3
1 -21 10 615.69 436.762 3
1 20 -10 143.875 231.584 1
-21 20 10 37.1478 251.486 1
20 1 10 224.059 376.57 2
-21 1 -10 256.608 391.713 1
2 -22 -9 229.951 249.858 3
20 -22 9 -683.719 722.172 2
2 20 9 586.617 565.564 4
20 2 -9 240.688 183.241 4
-22 20 -9 103.917 503.929 1
2 -22 -6 110.075 305.893 3
2 20 6 454.969 140.827 1
-22 20 -6 1026.22 579.013 1
20 -22 6 243.659 532.28 2
20 2 -6 374.69 190.783 4
2 20 6 1242.86 743.483 4
2 20 3 92.5053 135.15 1
2 -22 -3 -57.9342 297.218 3
-22 2 3 247.668 338.821 1
-22 20 -3 -299.854 328.087 1
20 -22 3 511.098 429.729 2
2 20 3 345.827 431.32 4
2 -22 0 370.638 403.311 3
-22 20 0 1060.91 525.155 1
20 -22 0 -8.78774 272.273 2
2 20 0 352.82 414.877 4
-22 2 0 -163.087 370.889 1
2 -22 3 622.002 468.607 3
20 -22 -3 550.907 265.352 2
2 20 -3 401.355 340.851 4
-22 20 3 1032 528.277 1
20 2 3 494.741 436.704 2
-22 2 -3 -78.5563 302.173 1
2 -22 6 1509.6 630.077 3
-22 20 6 1021 552.216 1
-22 2 -6 906.1 537.949 1
20 2 6 1235.68 576.456 2
2 20 -6 341.607 137.985 4
20 -22 -6 531.087 274.809 2
2 -22 9 272.063 390.734 3
-22 2 -9 94.4466 340.053 1
-22 20 9 202.178 413.105 1
20 2 9 298.112 244.827 2
3 -23 -7 1489.25 626.803 3
3 20 7 1096.39 283.67 1
-23 20 -7 1437.36 626.958 1
3 20 7 1376.52 315.201 1
20 -23 7 1365.92 483.082 2
3 20 7 2109.69 878.036 4
20 3 -7 1498.76 385.408 4
3 -23 -4 -169.978 310.807 3
3 -23 -4 -151.745 104.693 2
-23 20 -4 -90.44 340.134 1
20 -23 4 -311.723 500.342 2
3 20 4 -190.233 268.115 4
-23 3 4 -6.38052 304.105 1
-23 3 1 666.91 420.035 1
3 -23 -1 237.142 329.79 3
-23 20 -1 1698.23 654.383 1
20 -23 1 1095.13 508.09 2
3 20 1 455.399 286.821 4
3 -23 2 406.222 323.384 3
-23 3 -2 15.1721 294.92 1
20 -23 -2 406.72 415.444 2
3 20 -2 -271.9 360.341 4
-23 20 2 447.05 447.24 1
3 -23 5 863.624 567.602 3
-23 20 5 413.259 200.955 1
-23 3 -5 100.204 322.07 1
3 20 -5 287.211 157.123 4
20 -23 -5 749.7 492.154 2
20 3 5 303.919 379.212 2
3 -23 8 -11.5582 375.802 3
-23 3 -8 589.757 434.391 1
20 3 8 788.558 560.353 2
-23 20 8 303.143 325.022 1
4 20 8 363.533 170.102 1
4 -24 -8 410.832 448.747 3
-24 20 -8 128.022 277.928 1
4 20 8 546.108 205.578 1
20 -24 8 735.98 570.289 2
4 20 8 977.859 711.278 4
20 4 -8 306.613 185.117 4
4 -24 -5 66.7245 414.757 3
-24 20 -5 812.95 596.633 1
-24 4 5 -333.381 516.687 1
20 -24 5 60.7256 351.58 2
20 4 -5 233.71 242.154 4
4 20 5 603.745 449.694 4
4 -24 -2 -124.572 259.018 3
4 -24 -2 -10.1653 153.382 2
-24 4 2 56.9672 277.162 1
-24 20 -2 263.748 312.078 1
20 -24 2 671.131 440.616 2
4 20 2 232.295 290.451 4
4 -24 1 189.455 242.834 3
-24 4 -1 810.898 386.348 1
20 -24 -1 541.505 293.463 2
4 20 -1 842.593 410.334 4
4 -24 4 976.413 569.647 3
-24 20 4 1216.11 526.978 1
-24 4 -4 1455.51 567.659 1
20 -24 -4 1191.41 463.013 2
4 20 -4 573.581 359.731 4
20 4 4 158.683 222.557 2
4 -24 7 565.267 393.24 3
-24 4 -7 224.288 192.172 1
-24 20 7 328.691 340.106 1
20 4 7 139.184 330.832 2
4 20 -7 346.931 238.027 4
5 -25 -6 482.322 420.321 3
-25 20 -6 745.906 355.859 1
20 -25 6 161.779 342.31 2
5 20 6 327.924 281.648 4
20 5 -6 10.1764 206.41 4
5 20 6 694.592 243.435 1
5 -25 -3 -228.592 458.284 3
5 -25 -3 37.4986 178.234 2
-25 20 -3 398.68 565.007 1
20 -25 3 82.5767 230.411 2
-25 5 3 135.35 304.473 1
5 20 3 -161.515 312.205 4
5 -25 0 -101.879 434.225 3
5 -25 0 -121.361 300.795 2
-25 5 0 288.728 330.071 1
20 -25 0 266.341 358.924 2
-25 20 0 682.314 432.375 1
5 20 0 351.201 312.932 4
-25 20 3 996.002 536.748 1
5 -25 3 567.878 485.086 3
20 -25 -3 193.108 251.631 2
-25 5 -3 -254.184 385.476 1
5 20 -3 -93.2655 171.486 4
5 -25 6 -194.054 443.763 3
-25 5 -6 -465.592 350.535 1
-25 20 6 399.919 425.157 1
5 20 -6 393.168 357.783 4
20 -25 -6 44.2769 269.422 2
20 5 6 237.685 280.228 2
6 -26 -4 -14.9229 279.206 3
6 -26 -4 -7.21163 86.387 2
-26 20 -4 -546.674 384.889 1
20 -26 4 604.342 350.486 2
20 6 -4 374.611 258.29 4
6 20 4 -260.17 282.005 4
-26 6 4 -127.734 368.67 1
6 -26 -1 120.26 386.419 3
6 -26 -1 841.873 259.343 2
-26 6 1 814.372 502.989 1
20 -26 1 856.136 378.087 2
-26 20 -1 942.037 457.037 1
6 20 1 336.167 274.526 4
6 -26 2 218.777 297.151 3
6 -26 2 498.599 403.889 2
20 -26 -2 468.282 391.311 2
6 20 -2 233.375 237.132 4
-26 6 -2 -203.293 414.62 1
-26 20 2 275.831 218.777 1
6 -26 5 1315.99 661.209 3
6 -26 5 702.797 401.175 2
-26 6 -5 392.985 365.177 1
-26 20 5 227.457 273.52 1
6 20 -5 194.429 357.413 4
20 -26 -5 37.1565 202.277 2
20 6 5 309.092 462.609 2
7 20 5 599.204 497.247 4
7 -27 -2 -311.471 338.993 3
7 -27 -2 201.125 246.824 2
20 -27 2 -106.629 283.878 2
20 7 -2 -184.56 343.238 4
-27 20 -2 36.3686 375.073 1
7 20 2 151.644 465.184 4
-27 7 2 42.0392 222.321 1
7 -27 1 1011.77 609.982 3
7 -27 1 466.65 313.752 2
20 -27 -1 280.509 349.781 2
7 20 -1 852.952 393.194 4
-27 20 1 332.15 411.969 1
-27 7 -1 680.109 479.292 1
7 -27 4 -598.828 587.831 3
7 -27 4 199.213 304.325 2
-27 20 4 81.0601 491.666 1
-27 7 -4 47.4503 379.015 1
20 -27 -4 -193.854 379.654 2
7 20 -4 374.357 389.708 4
-28 8 0 -52.6753 354.764 1
8 -28 0 -132.229 319.054 2
20 -28 0 -75.3152 384.198 2
8 20 0 -97.6003 396.92 4
-28 20 0 553.618 464.793 1
-10 -11 -11 519.888 326.193 2
-10 -11 -11 423.106 206.76 1
-11 21 -11 38.0681 258.999 1
21 -11 11 -60.721 329.147 2
-10 21 11 23.1743 116.152 2
-11 -10 11 -87.6611 415.708 4
-10 21 11 709.048 481.662 4
-10 -11 -11 65.5647 158.723 3
-10 21 8 169.962 102.031 2
-11 21 -8 931.404 498.036 1
-10 -11 -8 470.01 268.027 2
21 -11 8 -34.1924 379.167 2
21 -10 -8 318.791 139.04 4
-10 21 8 581.044 402.617 4
-10 -11 -8 105.854 322.307 3
-11 -10 8 585.714 391.997 4
-10 21 8 308.4 191.556 1
-10 21 5 4516.02 774.791 1
-10 21 5 4256.14 523.853 2
-10 -11 -5 5137.5 931.471 2
-11 21 -5 3787.64 902.588 1
21 -11 5 6060.33 1343.31 2
-10 21 5 3566.04 795.078 4
-10 -11 -5 4778.74 983.282 3
-11 21 -2 2440.21 703.049 1
21 -11 2 3231.34 967.21 2
-10 -11 -2 2210.63 604.253 2
-10 21 2 1968.07 552.334 4
-10 21 2 2552.58 602.504 1
21 -10 -2 2984.29 819.094 2
-11 21 1 2495.2 572.214 2
-10 21 -1 2141.85 615.24 1
21 -10 1 2440.73 752.793 2
-11 21 1 1964.8 532.093 1
21 -11 -1 2519.03 815.385 2
-11 21 1 1352.33 425.162 4
-11 -10 -1 2031.33 600.458 2
-11 21 4 500.651 244.038 1
-11 21 4 475.212 214.599 2
-10 21 -4 378.764 229.091 1
21 -10 4 846.821 484.788 2
-11 -10 -4 839.79 333.906 2
-11 21 4 416.418 233.357 4
21 -11 -4 1566.5 653.476 2
-11 21 7 2617.93 429.768 2
-10 21 -7 1721.46 543.632 1
-11 -10 -7 2089.97 624.2 2
21 -10 7 2457.14 968.148 2
-10 -11 7 2658.49 767.633 4
-11 21 7 2256.02 486.449 1
-11 21 7 2091.26 667.886 4
21 -11 -7 2961.5 482.499 4
-11 -10 -7 2118.52 615.838 3
-11 -10 -10 918.617 334.874 1
-11 21 10 1122.32 367.062 1
-11 -10 -10 1097.03 446.527 2
-10 21 -10 1169.09 455.055 1
-11 21 10 855.74 243.953 2
21 -10 10 204.476 367.613 2
-10 -11 10 1063.48 548.158 4
-11 21 10 870.645 534.805 4
-11 -10 -10 1335.6 567.574 3
-9 -12 -12 102.487 132.733 2
-12 21 -12 94.0169 226.865 1
21 -12 12 18.4114 516.421 2
-9 21 12 97.8117 78.8918 2
-12 -9 12 92.8303 339.815 4
-9 21 12 -138.05 324.994 4
-9 -12 -12 -148.665 252.131 3
-9 21 9 403.206 247.052 1
-9 -12 -9 156.307 207.798 2
-12 21 -9 40.9579 375.971 1
21 -12 9 1.27348 456.607 2
-12 -9 9 823.436 547.609 4
-9 21 9 49.9961 348.164 4
-9 -12 -9 -82.941 399.511 3
-9 21 6 581.632 261.512 1
-12 21 -6 248.967 285.994 1
-9 -12 -6 455.885 283.45 2
21 -12 6 472.078 524.842 2
-9 21 6 193.204 353.119 4
-9 -12 -6 384.7 243.636 3
-12 21 -3 939.915 432.991 1
21 -12 3 1539.65 569.489 2
-9 -12 -3 1099.49 389.339 2
-9 21 3 992.545 489.267 4
-9 21 3 573.079 296.13 1
-9 -12 -3 679.256 261.349 3
21 -9 -3 926.002 639.893 2
-12 21 0 1576.1 463.29 2
-9 21 0 1870.36 529.935 1
21 -12 0 2933.11 872.263 2
-12 21 0 2288.01 603.242 1
21 -9 0 2591.36 767.7 2
-9 21 0 1306.76 451.466 4
-9 -12 0 2594.85 802.951 3
-12 -9 0 2034.77 634.821 2
-12 21 3 673.938 352.859 1
-12 21 3 975.543 312.698 2
-9 21 -3 251.141 278.247 1
21 -9 3 1404.25 666.858 2
-12 -9 -3 1239.54 468.414 2
-12 21 3 275.033 142.078 4
21 -12 -3 827.375 455.23 2
-12 21 6 1477.67 378.988 2
-9 21 -6 967.187 508.607 1
-12 -9 -6 1310.94 450.035 2
-12 21 6 1434.81 378.01 1
21 -9 6 2042.44 859.751 2
-9 -12 6 585.467 315.233 4
-12 21 6 711.674 395.703 4
21 -12 -6 1825.65 436.783 4
-9 21 -9 833.056 401.965 1
-12 -9 -9 754.137 418.333 2
-12 21 9 282.742 145.424 1
-12 21 9 250.249 148.293 2
21 -9 9 1442.69 796.298 2
-9 -12 9 904.274 624.516 4
-12 21 9 593.479 479.599 4
-12 -9 -9 116.794 271.251 3
-12 -9 -9 643.642 289.389 1
-9 21 -12 803.761 392.716 1
21 -9 12 -211.701 496.015 2
-12 21 12 96.8311 223.784 2
-12 21 12 -198.638 270.686 4
-9 -12 12 484.952 345.736 4
-12 -9 -12 203.179 231.356 1
-9 -12 12 92.9879 272.32 3
-12 -9 -12 -164.242 299.471 3
-8 -13 -10 240.167 253.857 2
-8 21 10 385.76 180.879 1
21 -13 10 592.279 552.385 2
-13 21 -10 -178.532 336.936 1
-13 -8 10 588.229 320.064 4
-8 21 10 1349.7 711.86 4
-8 -13 -10 222.456 178.485 3
-8 21 7 610.711 192.894 1
-8 -13 -7 1249.55 442.991 2
21 -13 7 186.362 391.665 2
-13 21 -7 1020.45 504.448 1
-8 21 7 770.951 379.944 4
-8 -13 -7 1132.98 554.344 3
21 -13 4 4705.98 1192.87 2
-13 21 -4 2290.32 728.772 1
-8 -13 -4 2865.84 665.489 2
-8 21 4 2134.86 661.303 4
-8 21 4 2854.9 595.957 1
-8 -13 -4 2973.95 749.378 3
-13 21 -1 2727.47 693.549 2
-8 21 1 1403.2 540.31 1
21 -13 1 3397.6 990.251 2
-13 21 -1 2502.12 749.167 1
-8 21 1 1417.71 499.313 4
21 -8 -1 2296.81 712.133 2
-8 -13 -1 2607.47 745.594 3
-8 -13 -1 1529.12 495.071 2
-13 21 2 3810.07 834.064 1
-13 21 2 3213.84 635.03 2
-8 21 -2 3168.61 771.605 1
21 -8 2 4747.98 1034.39 2
-13 -8 -2 2315.94 686.631 2
21 -13 -2 2359.15 743.568 2
-8 -13 2 2120.52 764.247 3
-13 21 5 1238.38 373.786 2
-8 21 -5 1060.86 539.496 1
-13 21 5 968.195 409.945 1
-13 -8 -5 1064.77 500.037 2
-8 -13 5 649.94 508.653 4
21 -8 5 541.251 529.879 2
-13 21 5 878.726 441.047 4
-8 -13 5 854.774 707.793 3
-13 21 8 92.2378 183.042 1
-8 21 -8 -0.49953 179.886 1
-13 -8 -8 523.04 322.912 2
-13 21 8 243.252 236.019 2
21 -8 8 120.494 415.985 2
-8 -13 8 1147.15 603.06 4
21 -13 -8 509.391 237.614 4
-13 21 8 322.428 381.906 4
-13 -8 -8 573.972 224.563 1
-8 -13 8 518.151 531.749 3
-8 21 -11 520.609 426.496 1
21 -8 11 350.87 378.131 2
-13 21 11 418.432 281.532 2
-13 21 11 283.276 270.68 4
-13 -8 -11 467.758 297.149 1
-13 -8 -11 537.572 428.481 3
-8 -13 11 790.845 526.486 3
-13 21 11 391.67 300.824 1
-7 -14 -11 1091.76 401.433 2
21 -14 11 651.426 574.169 2
-14 21 -11 618.163 404.326 1
-7 21 11 696.403 460.671 4
-7 -14 -11 604.467 376.313 3
-7 -14 -8 344.102 264.702 2
21 -14 8 -131.61 564.168 2
-14 21 -8 621.217 317.16 1
-7 21 8 457.09 170.909 1
-7 21 8 751.647 379.45 4
-7 -14 -8 -98.0262 277.229 3
21 -14 5 4749.99 1230.83 2
-7 -14 -5 4248.78 766.75 2
-14 21 -5 4124.7 977.405 1
-7 21 5 3562.72 882.925 4
-7 -14 -5 3692.78 867.96 3
-7 21 5 4170.65 673.746 1
-14 21 -2 1068.19 352.225 2
-7 21 2 342.901 257.064 1
21 -14 2 1067.38 480.199 2
-7 21 2 528.489 306.075 4
-14 21 -2 968.886 512.157 1
-7 -14 -2 1058.78 351.344 2
21 -7 -2 1808.78 776.802 2
-7 -14 -2 641.176 435.285 3
-14 21 1 1852.06 623.699 1
-14 21 1 1455.54 477.069 2
-7 21 -1 1120.93 588.406 1
21 -14 -1 2791.02 832.849 2
21 -7 1 1647.8 656.031 2
-7 21 -1 556.631 324.02 4
-7 -14 1 1547.84 640.607 3
-7 21 -4 1188.53 431.799 1
-14 21 4 760.615 307.404 2
-14 21 4 1407.42 474.299 1
-14 -7 -4 1265.07 574.013 2
21 -7 4 1617.62 678.181 2
-14 21 4 1064.39 393.439 4
21 -14 -4 1353.89 544.045 2
-7 -14 4 1318.55 541.339 3
-7 21 -7 599.919 410.994 1
-14 21 7 825.482 323.495 2
-14 -7 -7 257.395 274.855 2
21 -7 7 1134.94 623.559 2
21 -14 -7 399.605 311.896 4
-14 21 7 703.875 270.164 4
-14 -7 -7 500.559 161.492 1
-7 -14 7 -44.2731 371.253 3
-14 21 7 64.0398 147.598 1
-14 21 10 384.954 236.012 1
-7 21 -10 4.15619 165.34 1
21 -7 10 530.019 374.291 2
-14 21 10 175.802 241.175 2
-14 21 10 352.649 373.165 4
-14 -7 -10 434.839 317.279 1
-7 -14 10 786.538 563.172 3
-6 -15 -12 386.178 188.876 2
21 -15 12 619.247 343.246 2
-15 21 -12 25.6335 291.185 1
-6 21 12 660.627 655.589 4
-6 -15 -12 684.708 347.801 3
-6 21 9 279.588 134.835 1
-6 -15 -9 731.792 296.995 2
21 -15 9 374.612 412.088 2
-15 21 -9 551.247 414.54 1
-6 21 9 -8.60511 411.855 4
-6 -15 -9 496.706 290.436 3
21 -15 6 1252.75 581.741 2
-6 -15 -6 1797.57 478.787 2
-15 21 -6 1527.78 592.347 1
-6 21 6 1264.22 662.784 4
-6 -15 -6 673.072 476.712 3
-6 21 6 1498.69 370.62 1
-6 21 3 2965.43 591.995 1
21 -15 3 4067.23 1055.11 2
-6 21 3 2099.46 644.32 4
-6 -15 -3 2761.68 587.513 2
-15 21 -3 2374.61 635.423 1
-6 -15 -3 2455.09 697.391 3
-15 21 0 1249.72 595.833 1
-15 21 0 1258.29 478.775 2
-6 21 0 1011.56 427.471 1
21 -15 0 2057.43 712.068 2
-6 21 0 838.72 290.504 4
21 -6 0 1782.84 601.089 2
-6 -15 0 1046.96 402.195 3
-15 -6 -3 346.699 269.752 1
-6 21 -3 3.53584 243.818 1
-15 21 3 556.427 241.834 1
-15 21 3 266.111 217.989 2
21 -6 3 311.644 345.788 2
21 -15 -3 608.705 433.758 2
-6 -15 3 -155.789 199.532 3
-6 21 -6 347.949 314.573 1
-15 21 6 388.366 250.308 2
21 -6 6 447.58 496.356 2
21 -15 -6 281.858 346.568 4
-15 21 6 49.2866 176.263 1
-15 21 6 -444.485 301.717 4
-15 -6 -6 137.857 178.86 1
-6 -15 6 606.931 404.702 3
-6 21 -9 407.443 247.88 1
-15 21 9 372.959 295.372 2
21 -6 9 411.541 343.059 2
21 -15 -9 -6.31156 168.981 4
-15 21 9 54.8808 225.73 1
-15 21 9 -43.6792 268.362 4
-15 -6 -9 389.342 205.502 1
-6 -15 9 202.632 248.809 3
-6 21 -12 889.969 404.701 1
-15 -6 -12 729.207 375.715 1
-15 21 12 199.617 296.597 1
21 -6 12 420.495 298.439 2
-15 21 12 498.493 409.884 2
-15 21 12 347.06 348.169 4
-6 -15 12 1156.99 599.797 3
-5 -16 -10 117.406 115.195 2
21 -16 10 -248.012 527.762 2
-16 21 -10 212.026 241.297 1
-5 21 10 832.889 488.824 4
-5 -16 -10 13.4991 165.788 3
-5 21 7 1006.57 254.082 1
-5 -16 -7 1158.58 308.513 2
21 -16 7 693.982 593.102 2
-5 21 7 1004.1 469.26 4
-16 21 -7 911.458 479.31 1
-5 -16 -7 1600.91 608.763 3
-5 21 4 960.095 378.628 1
21 -16 4 437.217 512.593 2
-5 21 4 1154.64 558.905 4
-5 -16 -4 769.325 345.03 2
-16 21 -4 515.328 430.043 1
-5 -16 -4 773.24 403.539 3
-16 21 -1 2048.74 656.118 2
-5 21 1 937.164 289.289 1
21 -16 1 2595.67 856.239 2
-5 21 1 744.899 397.945 4
21 -5 -1 937.307 522.173 2
-5 -16 -1 1358.54 478.977 3
-16 21 -1 1654.02 592.886 1
-5 21 -2 437.087 316.428 1
-16 21 2 402.024 264.32 1
-16 -5 -2 152.955 287.214 1
-16 21 2 975.484 453.872 2
21 -16 -2 557.359 482.789 2
21 -5 2 524.853 429.623 2
-5 21 -2 419.37 220.81 4
-5 -16 2 615.476 469.225 3
-5 21 -5 197.716 225.098 1
-16 21 5 -164.74 219.832 2
-16 21 5 -33.0899 194.027 1
21 -5 5 722.24 490.605 2
21 -16 -5 -380.8 321.023 4
21 -16 -5 406.066 367.111 2
-5 -16 5 -122.831 336.782 3
-16 -5 -5 121.305 284.393 1
-5 21 -8 63.6799 240.788 1
-16 21 8 175.016 140.039 1
-16 21 8 -62.1117 134.927 2
21 -5 8 671.594 639.24 2
21 -16 -8 83.8364 213.477 4
-16 21 8 242.607 174.058 4
-16 -5 -8 474.082 438.318 1
-5 -16 8 372.539 302.524 3
-5 21 -11 822.554 372.586 1
-16 -5 -11 929.265 504.616 1
21 -5 11 655.941 356.416 2
-16 21 11 1340.06 597.451 2
-16 21 11 854.677 429.801 4
-16 21 11 865.986 365.222 1
-5 -16 11 1002.22 547.11 3
-4 -17 -11 550.385 411.341 3
21 -17 11 -222.221 597.308 2
-4 21 11 -621.161 696.911 4
-17 21 -11 -362.598 385.768 1
-4 21 8 233.243 104.032 1
-4 -17 -8 533.677 214.233 2
21 -17 8 1022.82 735.223 2
-4 21 8 -402.941 302.917 4
-17 21 -8 307.384 221.238 1
-4 -17 -8 344.583 323.221 3
21 -17 5 815.36 412.137 2
-4 21 5 1388.37 365.26 1
-4 -17 -5 1666.67 424.893 2
-4 21 5 1822 643.379 4
-17 21 -5 792.69 367.584 1
-4 -17 -5 1176.25 539.883 3
21 -17 2 5416.67 1169.21 2
-4 21 2 3671.37 893.494 4
-4 -17 -2 3602.39 820.401 3
-4 21 2 4449.69 766.469 1
-17 21 -2 4313.69 1002.27 1
-4 21 -1 481.546 294.866 1
-17 21 1 915.59 439.128 1
-17 21 1 808.705 431.025 2
21 -17 -1 503.175 394.351 2
-17 -4 -1 293.984 186.292 1
-4 21 -1 135.994 156.177 4
21 -4 1 1322.95 616.373 2
-4 -17 1 704.697 432.229 3
-17 -4 -4 214.708 301.096 1
-4 21 -4 88.2317 235.471 1
-17 21 4 90.9961 161.321 2
-17 21 4 -242.335 287.376 1
21 -4 4 829.476 545.733 2
21 -17 -4 437.604 357.7 4
21 -17 -4 453.79 337.413 2
-4 -17 4 154.89 242.997 3
-17 21 7 680.583 446.899 1
-4 21 -7 671.695 342.979 1
-17 21 7 1190.33 479.177 2
21 -4 7 684.627 510.975 2
21 -17 -7 1794 686.455 4
-17 21 7 669.864 313.857 4
-4 -17 7 1747.85 689.982 3
-17 -4 -7 1028.76 456.743 1
-4 21 -10 536.248 295.12 1
-17 21 10 436.339 223.894 1
-17 -4 -10 282.144 263.267 1
21 -4 10 221.711 254.694 2
-17 21 10 148.932 175.502 2
-17 21 10 229.728 215.013 4
-4 -17 10 149.746 240.374 3
-3 -18 -9 738.559 426.902 3
-3 -18 -9 532.094 191.146 2
21 -18 9 701.851 588.581 2
-3 21 9 360.4 426.233 4
-18 21 -9 -203.204 464.584 1
21 -18 6 1382.94 690.521 2
-3 -18 -6 1642.62 400.037 2
-3 21 6 1588.1 374.169 1
-3 21 6 1923.45 818.847 4
-18 21 -6 1476.92 657.062 1
-3 -18 -6 1931.33 690.112 3
-3 21 3 103.054 145.021 1
21 -18 3 780.247 239.096 2
-3 21 3 684.009 380.488 4
-3 -18 -3 597.426 215.271 2
-3 -18 -3 60.3202 347.96 3
-18 21 -3 816.264 473.85 1
-3 21 0 920.781 408.136 1
-18 21 0 1411.53 626.16 1
-18 -3 0 1363.99 510.811 1
21 -18 0 1435.07 537.331 2
-3 21 0 1109.5 428.661 4
21 -3 0 1949.87 730.856 2
-3 -18 0 678.769 478.593 3
-18 -3 -3 823.873 397.523 1
-3 21 -3 127.459 228.215 1
-18 21 3 1024.04 390.124 2
-18 21 3 1203.55 503.768 1
21 -18 -3 846.899 440.309 2
21 -3 3 883.02 369.323 2
21 -18 -3 1737.31 788.298 4
-3 21 -3 510.047 268.457 4
-3 -18 3 440.776 460.504 3
-18 21 6 965.271 450.575 1
-18 -3 -6 1370.47 496.865 1
-3 21 -6 1331.62 439.997 1
-18 21 6 1024.2 437.704 2
21 -3 6 1477.08 647.298 2
21 -18 -6 1746.77 650.701 4
21 -18 -6 1294.62 515.703 2
-3 -18 6 1348.82 597.598 3
-3 21 -9 815.166 427.151 1
-18 -3 -9 1011.46 508.54 1
-18 21 9 981.319 512.623 2
21 -18 -9 1001.36 445.481 4
21 -3 9 2137.27 894.979 2
-18 21 9 480.306 305.816 4
-18 21 9 1410.32 583.547 1
-3 -18 9 1572.67 745.861 3
-2 -19 -10 -28.8837 266.786 3
21 -19 10 4.8897 293.583 2
-2 21 10 541.64 492.081 4
-19 21 -10 -310.109 389.151 1
-2 -19 -7 -68.5137 340.982 3
-2 -19 -7 167.681 115.628 2
21 -19 7 146.895 420.076 2
21 -2 -7 227.902 130.92 4
-2 21 7 395.66 156.476 1
-19 21 -7 -346.654 332.847 1
-2 21 4 -40.1549 164.986 1
21 -19 4 -307.602 400.96 2
-2 21 4 -2.08481 389.501 4
-2 -19 -4 489.893 225.215 2
-2 -19 -4 -51.8386 300.036 3
-2 21 1 285.234 210.693 1
-19 21 -1 1023.28 515.985 1
21 -19 1 338.864 326.443 2
-2 21 1 393.942 316.263 4
-19 -2 1 76.2021 303.062 1
-2 -19 -1 1444.33 638.532 3
-2 21 -2 216.868 163.357 1
-19 -2 -2 -6.50742 179.63 1
-19 21 2 69.7915 191.582 2
-19 21 2 403.219 311.913 1
21 -19 -2 599.603 418.573 2
-2 21 -2 -23.282 253.746 4
21 -2 2 227.299 425.418 2
-2 -19 2 26.66 366.664 3
-2 21 -5 1240.95 484.929 1
-19 -2 -5 1295.84 587.615 1
-19 21 5 1642.42 749.989 2
21 -19 -5 1783.93 673.133 4
21 -2 5 2173.11 804.322 2
21 -19 -5 1627.09 647.96 2
-19 21 5 1169.95 618.784 1
-2 -19 5 1162.93 741.807 3
-2 21 -8 487.717 284.437 1
-19 -2 -8 587.714 356.109 1
-19 21 8 1063.57 510.982 1
-19 21 8 28.003 366.44 2
21 -19 -8 476.188 261.166 4
21 -2 8 143.345 484.721 2
-2 -19 8 459.862 346.591 3
-2 21 -11 559.975 441.8 1
-19 -2 -11 -302.302 383.108 1
21 -2 11 -82.9014 452.044 2
-19 21 11 254.045 320.265 2
-19 21 11 58.6586 199.065 4
-19 21 11 252.581 349.582 1
-2 -19 11 299.278 461.37 3
-1 -20 -8 706.793 366.207 3
21 -20 8 -173.194 508.285 2
-1 21 8 272.906 441.657 4
21 -1 -8 506.242 184.928 4
-1 21 8 518.766 151.103 1
-20 21 -8 987.814 566.305 1
-20 21 -5 682.569 491.744 1
-1 -20 -5 2.03454 231.792 3
-1 21 5 247.123 201.93 1
21 -20 5 -76.6175 258.189 2
-1 21 5 648.874 372.541 4
-1 -20 -5 156.104 147.721 2
-1 21 2 1538.33 474.703 1
-20 21 -2 2503.2 803.45 1
21 -20 2 1292.64 601.729 2
-1 21 2 1771.17 661.125 4
-1 -20 -2 1455.72 628.136 3
-1 21 -1 414.579 202.539 1
-20 21 1 143.895 277.63 1
-20 -1 -1 -147.535 248.783 1
21 -20 -1 204.799 259.863 2
-1 21 -1 402.565 352.036 4
21 -1 1 610.854 426.458 2
-1 -20 1 248.384 342.698 3
-1 21 -4 445.614 388.276 1
-20 -1 -4 384.246 391.069 1
21 -1 4 1016.42 577.344 2
21 -20 -4 847.364 576.986 2
-20 21 4 671.4 406.127 1
-1 21 -4 261.294 198.233 4
-1 -20 4 799.256 463.004 3
-1 21 -7 278.717 177.967 1
-20 21 7 316.071 240.057 1
-20 21 7 38.0818 207.47 2
-20 -1 -7 641.669 419.62 1
21 -20 -7 370.087 234.935 4
21 -1 7 945.719 561.466 2
-1 -20 7 1132.48 678.55 3
-1 21 -10 615.496 481.392 1
-20 -1 -10 296.484 338.52 1
-20 21 10 389.384 250.016 1
21 -20 -10 296.074 211.035 4
21 -1 10 1036.79 753.806 2
-1 -20 10 530.051 365.106 3
0 -21 -9 342.697 323.109 3
21 -21 9 893.25 721.733 2
0 21 9 144.378 529.566 4
21 0 -9 90.1665 82.9445 4
-21 21 -9 228.715 326.534 1
-21 21 -6 220.517 381.996 1
0 -21 -6 254.744 235.332 3
0 21 6 386.024 188.99 1
21 -21 6 794.866 739.47 2
21 0 -6 180.698 150.874 4
0 21 6 612.031 429.182 4
0 -21 -3 175.461 398.085 3
0 21 3 449.747 257.961 1
-21 21 -3 715.493 502.317 1
21 -21 3 408.134 231.379 2
0 21 3 6.59542 288.624 4
0 -21 0 -227.292 374.055 3
0 21 0 249.897 149.828 1
-21 21 0 435.838 386.382 1
21 -21 0 452.618 461.475 2
-21 0 0 733.936 418.549 1
0 21 0 343.613 289.124 4
0 21 -3 125.737 235.831 1
-21 0 -3 -17.8954 305.259 1
-21 21 3 873.054 585.491 1
21 -21 -3 211.965 278.21 2
0 21 -3 -155.514 209.309 4
21 0 3 720.472 444.231 2
0 -21 3 749.136 496.054 3
0 21 -6 -134.686 282.737 1
-21 21 6 78.699 271.795 1
-21 0 -6 139.232 208.705 1
21 0 6 198.786 384.247 2
21 -21 -6 79.4569 268.054 2
0 -21 6 393.801 465.673 3
0 21 -9 821.855 445.125 1
-21 0 -9 1066.83 585.448 1
21 -21 -9 974.421 460.599 4
21 0 9 1405.14 734.67 2
0 -21 9 1182.73 599.789 3
-21 21 9 1453.05 658.934 1
-22 21 -7 441.923 539.955 1
1 -22 -7 803.342 371.444 3
1 21 7 536.565 215.185 1
21 -22 7 681.378 535.302 2
1 21 7 758.514 514.084 4
21 1 -7 122.622 152.924 4
1 -22 -4 553.644 495.405 3
-22 21 -4 878.286 507.088 1
21 -22 4 1206.16 590.977 2
1 21 4 867.609 563.46 4
1 -22 -1 431.818 422.313 3
1 21 1 767.131 311.073 1
-22 21 -1 808.221 494.569 1
21 -22 1 907.811 598.714 2
1 21 1 329.987 313 4
-22 1 1 278.064 277.336 1
1 -22 2 579.825 474.128 3
1 21 -2 607.593 288.088 1
-22 1 -2 528.127 395.37 1
-22 21 2 1347.81 467.249 1
21 -22 -2 1201.13 500.077 2
1 21 -2 1306.87 434.312 4
21 1 2 1425.47 631.078 2
1 -22 5 81.3309 266.375 3
1 21 -5 421.253 305.538 1
-22 21 5 1162.39 569.2 1
-22 1 -5 408.912 310.329 1
21 1 5 806.757 492.985 2
1 21 -5 239.203 294.56 4
21 -22 -5 1387.19 606.658 2
1 -22 8 283.583 316.427 3
1 21 -8 741.327 359.233 1
-22 1 -8 1110.61 553.427 1
21 1 8 1910.67 877.26 2
-22 21 8 1325.86 653.703 1
-23 21 -8 386.394 374.281 1
2 -23 -8 410.814 335.966 3
2 21 8 130.054 60.4047 1
21 -23 8 -118.235 483.169 2
2 21 8 416.025 323.518 4
21 2 -8 -38.2788 163.659 4
2 21 8 7.98064 117.39 1
2 -23 -5 258.218 382.592 3
2 21 5 579.783 276.635 1
-23 21 -5 833.067 596.765 1
2 -23 -5 193.144 120.503 2
21 -23 5 466.89 358.156 2
21 2 -5 582.761 312.29 4
2 21 5 69.0417 239.645 4
2 -23 -5 347.702 122.285 2
2 21 2 156.311 210.342 1
2 -23 -2 485.448 266.871 3
-23 2 2 -41.0575 229.235 1
-23 21 -2 321.262 343.971 1
21 -23 2 -152.627 250.314 2
2 21 2 -112.798 226.766 4
2 -23 1 -432.37 389.635 3
-23 2 -1 -221.499 323.414 1
-23 21 1 -8.0503 353.07 1
21 -23 -1 9.85085 259.818 2
2 21 -1 0.25701 356.135 4
2 -23 4 304.138 582.82 3
21 -23 -4 724.556 338.757 2
2 21 -4 -122.22 249.559 4
-23 2 -4 720.865 534.8 1
21 2 4 383.221 483.882 2
-23 21 4 624.064 287.661 1
2 -23 7 255.957 249.797 3
-23 2 -7 814.988 457.204 1
-23 21 7 550.052 231.175 1
21 2 7 1285.4 514.491 2
3 21 6 339.898 162.858 1
3 -24 -6 -2.68042 341.556 3
-24 21 -6 524.568 457.76 1
21 -24 6 269.08 288.946 2
21 3 -6 329.162 314.841 4
3 21 6 617.598 438.645 4
3 -24 -3 542.174 310.334 3
3 -24 -3 1311.02 362.955 2
-24 21 -3 908.157 320.591 1
21 -24 3 679.175 433.275 2
-24 3 3 794.911 383.815 1
3 21 3 1300.02 634.484 4
3 -24 0 554.356 262.55 3
-24 21 0 790.413 429.692 1
21 -24 0 68.78 322.939 2
3 21 0 185.195 232.003 4
-24 3 0 259.93 372.875 1
3 -24 3 1343.17 600.947 3
21 -24 -3 3264.97 894.681 2
3 21 -3 1486.34 552.559 4
21 3 3 1967.04 742.831 2
-24 21 3 1706.68 520.076 1
-24 3 -3 1377.05 605.6 1
3 -24 6 1079.9 630.334 3
-24 21 6 1357.68 607.893 1
-24 3 -6 567.574 401.281 1
3 21 -6 -4.1827 156.948 4
21 3 6 1149.85 654.846 2
21 -24 -6 969.169 571.019 2
4 -25 -7 -468.434 456.349 3
4 21 7 37.1865 498.299 4
21 4 -7 236.102 209.387 4
-25 4 4 343.955 243.289 1
4 -25 -4 101.904 377.487 3
4 -25 -4 162.575 111.983 2
-25 21 -4 540.808 441.449 1
21 -25 4 229.888 365.539 2
21 4 -4 320.127 259.972 4
4 21 4 1305.13 663.404 4
4 -25 -1 -255.569 389.088 3
4 -25 -1 88.791 217.134 2
21 -25 1 71.3004 359.195 2
-25 21 -1 196.686 249.061 1
4 21 1 -103.771 317.214 4
-25 4 1 198.664 408.619 1
4 -25 2 -44.8089 465.359 3
-25 4 -2 -412.831 402.525 1
21 -25 -2 463.762 385.804 2
4 21 -2 -122.216 311.54 4
-25 21 2 630.012 459.28 1
4 -25 5 689.278 487.254 3
-25 21 5 548.049 403.438 1
-25 4 -5 957.534 484.285 1
4 21 -5 710.317 321.796 4
21 -25 -5 1209.78 566.774 2
21 4 5 973.513 489.432 2
5 -26 -5 -6.5818 290.027 3
-26 21 -5 -354.509 292.79 1
5 -26 -5 110.317 65.7561 2
21 -26 5 -495.388 595.832 2
21 5 -5 -92.8257 271.01 4
5 21 5 -466.63 607.802 4
-26 5 5 59.759 267.965 1
5 -26 -2 101.891 275.83 3
-26 5 2 299.082 527.578 1
5 -26 -2 -211.244 306.696 2
21 -26 2 -267.879 502.28 2
-26 21 -2 146.876 373.734 1
5 21 2 646.862 476.054 4
5 -26 1 776.071 392.406 3
5 -26 1 979.195 511.796 2
-26 5 -1 921.577 457.987 1
21 -26 -1 1756.46 737.811 2
5 21 -1 384.634 409.813 4
-26 21 1 501.564 249.501 1
5 -26 4 545.171 486.374 3
-26 21 4 717.657 391.472 1
-26 5 -4 -257.906 408.392 1
21 -26 -4 434.469 417.334 2
5 21 -4 387.402 195.801 4
21 5 4 -300.356 294.546 2
6 -27 -3 -615.205 504.853 3
6 -27 -3 461.59 254.831 2
-27 6 3 542.601 496.246 1
21 -27 3 486.152 425.602 2
-27 21 -3 454.174 308.114 1
21 6 -3 210.848 264.403 4
6 21 3 229.402 410.07 4
6 -27 0 -120.984 245.257 3
6 -27 0 379.454 241.76 2
-27 6 0 526.705 378.904 1
21 -27 0 275.649 398.019 2
6 21 0 619.91 527.946 4
-27 21 0 827.019 571.575 1
6 -27 3 603.189 464.871 3
-27 21 3 512.756 215.036 1
6 -27 3 31.3887 253.597 2
21 -27 -3 566.43 363.655 2
-27 6 -3 507.697 395.212 1
6 21 -3 77.9415 276.338 4
-11 22 0 942.039 293.273 1
22 -11 0 1729.86 582.32 2
-11 -11 0 1091.81 400.038 2
-11 22 -3 779.371 467.874 1
22 -11 3 896.955 415.108 2
-11 -11 -3 1004.94 409.769 2
-11 22 3 588.622 350.211 4
22 -11 -3 907.293 573.104 2
-11 22 3 649.535 335.52 1
-11 22 6 330.858 163.121 2
-11 22 6 504.858 306.327 1
-11 22 -6 545.037 356.862 1
-11 -11 -6 689.093 352.047 2
22 -11 6 816.974 607.301 2
-11 22 6 1016.68 406.446 4
-11 -11 -6 388.013 381.314 3
-11 22 9 197.139 227.338 1
-11 22 9 88.8215 72.0937 2
-11 22 -9 89.9845 284.632 1
-11 -11 -9 460.22 351.002 2
22 -11 9 291.877 522.817 2
-11 -11 9 -390.473 357.21 4
-11 22 9 186.66 327.274 4
-11 -11 -9 -143.071 179.225 3
-11 -11 -12 894.483 470.159 2
-11 22 -12 583.96 286.01 1
22 -11 12 -140.311 628.779 2
-11 22 12 948.226 356.81 2
-11 -11 12 1282.99 643.195 4
-11 22 12 -15.1786 378.597 4
-11 -11 -12 -52.103 162.07 1
-11 -11 -12 144.013 182.918 3
-10 -12 -10 735.803 439.676 2
-12 22 -10 280.864 269.475 1
22 -12 10 1605.14 798.869 2
-12 -10 10 370.616 239.502 4
-10 22 10 747.476 491.405 4
-10 22 10 779.066 281.08 1
-10 -12 -10 656.032 375.914 3
-10 22 7 426.549 151.003 2
-12 22 -7 277.895 294.774 1
-10 -12 -7 938.893 381.163 2
-10 22 7 763.339 288.088 1
22 -12 7 820.025 685.188 2
-10 22 7 1164.41 593.844 4
22 -10 -7 916.914 291.622 4
-10 -12 -7 557.412 308.433 3
-12 22 -4 3863.86 843.518 1
22 -12 4 4776.69 1219.25 2
-10 -12 -4 4046.22 818.491 2
-10 22 4 2766.27 737.728 4
-10 -12 -4 3076.74 784.833 3
-10 22 4 3801.89 713.847 1
-10 22 1 1035.48 509.387 1
-12 22 -1 815.943 291.259 1
22 -12 1 1829.15 652.661 2
-10 22 1 964.785 425.916 4
22 -10 -1 1118.07 587.059 2
-10 -12 -1 1028.18 433.061 2
-12 22 2 3872.2 684.429 2
-10 22 -2 3245.75 731.446 1
22 -10 2 5157.4 1120.95 2
-12 -10 -2 3620.16 833.319 2
-12 22 2 2499.78 601.879 4
22 -12 -2 5219.49 1114.07 2
-12 22 2 3536.5 735.155 1
-12 22 5 411.106 270.726 2
-12 22 5 541.947 312.803 1
-10 22 -5 642.237 416.633 1
-12 -10 -5 -341.97 266.18 2
22 -10 5 -153.868 308.667 2
-12 22 5 564.382 329.889 4
-12 22 8 485.997 188.235 2
-10 22 -8 1018.87 539.932 1
-12 -10 -8 1073.01 472.623 2
22 -10 8 309.54 247.456 2
-10 -12 8 407.302 324.202 4
22 -12 -8 1173.57 344.89 4
-12 22 8 193.754 190.665 4
-12 -10 -8 500.428 276.047 3
-12 22 8 739.336 325.677 1
-12 -10 -11 361.492 214.731 2
-10 22 -11 213.566 224.161 1
22 -10 11 -126.124 453.92 2
-12 22 11 68.6353 192.075 2
-12 -10 -11 142.695 124.579 1
-10 -12 11 55.0239 281.3 4
-12 22 11 289.503 417.018 4
-12 22 11 -67.4239 213.757 1
-12 -10 -11 -370.951 406.304 3
-9 -13 -11 385.037 221.67 2
-13 22 -11 339.781 369.146 1
22 -13 11 261.255 448.083 2
-13 -9 11 323.621 267.822 4
-9 22 11 593.494 397.337 4
-9 -13 -11 -271.352 294.398 3
-9 -13 -8 533.827 359.21 2
-13 22 -8 267.334 259.342 1
22 -13 8 709.412 536.725 2
-9 22 8 373.159 396.473 4
-9 22 8 460.373 225.672 1
-9 -13 -8 422.882 402.661 3
-9 22 5 2438.91 571.987 1
-13 22 -5 1965.34 700.245 1
22 -13 5 2460.67 918.058 2
-9 -13 -5 2327.23 649.742 2
-9 22 5 1722.06 624.47 4
-9 -13 -5 2644.24 778.002 3
-13 22 -2 735.593 350.504 2
22 -13 2 1180.31 670.487 2
-9 22 2 564.895 317.671 1
-13 22 -2 1057.09 528.933 1
-9 22 2 565.733 404.432 4
-9 -13 -2 493.754 158.389 2
-9 -13 -2 870.33 496.474 3
22 -9 -2 434.218 450.994 2
-13 22 1 4751.63 774.506 2
22 -13 -1 6797.19 1297.11 2
-9 22 -1 4387.45 864.884 1
22 -9 1 6565.72 1257.03 2
-9 -13 1 5576.89 1131.44 3
-13 22 1 4827.37 904.956 1
-13 22 4 380.682 242.198 1
-13 22 4 266.967 175.874 2
-9 22 -4 937.715 495.358 1
-13 -9 -4 297.092 230.865 2
22 -9 4 38.7139 360.087 2
-13 22 4 169.598 209.447 4
-9 -13 4 417.612 407.48 3
22 -13 -4 227.76 281.721 2
-9 22 -7 710.26 376.523 1
-13 22 7 997.894 297.981 2
-13 -9 -7 620.007 363.662 2
22 -9 7 1925.91 850.531 2
22 -13 -7 1502.55 432.742 4
-13 22 7 747.288 391.976 4
-13 22 7 1003.65 437.497 1
-9 -13 7 535.628 293.247 3
-13 -9 -7 804.665 353.799 1
-9 22 -10 86.9249 301.912 1
-13 -9 -10 -237.069 288.647 2
-13 22 10 287.66 244.093 2
22 -9 10 133.302 284.902 2
-13 -9 -10 157.935 143.978 1
-13 22 10 -65.278 302.092 4
-13 -9 -10 228.63 204.079 3
-9 -13 10 -639.777 535.702 3
-13 22 10 523.848 283.228 1
-8 22 12 778.049 370.498 4
-8 22 9 376.893 187.247 1
-8 -14 -9 197.102 169.037 2
22 -14 9 -17.9633 409.332 2
-14 22 -9 -22.3916 297.125 1
-8 22 9 495.137 398.648 4
-8 -14 -9 340.602 260.201 3
-8 22 6 633.567 277.266 1
22 -14 6 279.425 409.253 2
-8 -14 -6 465.633 304.064 2
-14 22 -6 1009.61 307.426 1
-8 22 6 416.538 286.031 4
-8 -14 -6 1148.57 560.149 3
22 -14 3 3053.84 923.222 2
-8 22 3 1557.08 436.911 1
-14 22 -3 1931.39 687.606 1
-8 22 3 1098.98 464.353 4
-8 -14 -3 1598.1 484.28 2
-8 -14 -3 1540.44 610.507 3
22 -8 -3 2738.76 785.65 2
-14 22 0 2216.82 554.897 2
-8 22 0 3429.12 741.418 1
22 -14 0 3903.06 996.94 2
-8 22 0 1378.86 409.126 4
22 -8 0 3451.28 877.788 2
-8 -14 0 3232.08 914.693 3
-14 22 0 2654.21 719.299 1
-14 22 3 -237.575 335.979 1
-14 22 3 249.922 156.021 2
-8 22 -3 19.6238 303.147 1
22 -8 3 280.605 301.623 2
22 -14 -3 597.403 478.458 2
-8 -14 3 734.035 481.702 3
-8 22 -6 96.8338 215.244 1
-14 22 6 477.748 230.595 2
-14 -8 -6 712.917 420 2
22 -8 6 1320.57 666.559 2
-14 22 6 678.678 296.763 1
-14 -8 -6 412.066 286.993 1
22 -14 -6 498.812 224.535 4
-14 22 6 326.333 204.898 4
-8 -14 6 354.947 283.345 3
-8 22 -9 426.777 423.018 1
-14 22 9 603.164 340.607 1
-14 22 9 357.92 256.737 2
-14 -8 -9 708.997 312.569 1
22 -8 9 962.386 540.34 2
22 -14 -9 407.438 217.712 4
-14 22 9 43.7793 183.211 4
-8 -14 9 1068.43 509.768 3
-14 22 12 244.2 224.62 2
-14 22 12 -552.265 455.944 4
-8 -14 12 305.679 322.618 3
-7 22 10 232.87 135.449 1
-7 -15 -10 153.044 204.081 2
22 -15 10 -271.968 350.153 2
-15 22 -10 188.077 299.798 1
-7 22 10 142.955 481.536 4
-7 -15 -10 -367.185 401.497 3
-7 22 7 2026.84 423.843 1
-7 -15 -7 1913.65 472.553 2
22 -15 7 2046.07 823.759 2
-15 22 -7 1830.34 554.146 1
-7 22 7 2112.27 863.044 4
-7 -15 -7 880.414 430.175 3
22 -15 4 1340.16 613.23 2
-7 22 4 548.843 307.925 1
-7 -15 -4 886.547 357.097 2
-15 22 -4 -135.308 356.586 1
-7 22 4 694.198 359.985 4
-7 -15 -4 -401.466 487.79 3
-15 22 -1 933.023 343.83 2
-7 22 1 712.816 349.421 1
22 -15 1 1635.94 638.145 2
-7 22 1 564.608 310.143 4
22 -7 -1 1623.33 630.538 2
-15 22 -1 1309.22 526.054 1
-7 -15 -1 264.243 202.317 3
-15 22 2 1198.59 478.644 1
-15 22 2 1686.92 526.267 2
-7 22 -2 691.102 410.626 1
22 -7 2 1739.51 650.155 2
22 -15 -2 1116.76 516.4 2
-7 22 -2 -113.552 284.906 4
-7 -15 2 561.053 274.38 3
-7 22 -5 378.259 169.738 1
-15 22 5 898.47 323.483 2
-15 -7 -5 952.106 479.689 1
-15 22 5 432.275 259.764 1
22 -7 5 863.213 515.826 2
22 -15 -5 231.617 387.198 4
-15 22 5 -14.7906 156.752 4
-7 -15 5 857.255 400.252 3
22 -15 -5 822.098 465.904 2
-15 22 8 100.265 172.831 1
-7 22 -8 142.885 188.094 1
-15 22 8 716.5 325.974 2
-15 -7 -8 671.28 384.854 1
22 -7 8 608.818 652.131 2
22 -15 -8 233.494 138.457 4
-15 22 8 14.6083 233.147 4
-7 -15 8 637.645 648.864 3
-7 22 -11 -54.2513 405.607 1
22 -7 11 1293.77 730.053 2
-15 22 11 1015.51 534.837 2
-15 22 11 -17.7379 211.254 1
-15 -7 -11 847.049 422.43 1
-15 22 11 1021.92 561.356 4
-7 -15 11 634.618 429.619 3
-6 -16 -11 191.004 207.161 2
22 -16 11 -131.462 510.206 2
-16 22 -11 43.8829 236.01 1
-6 22 11 140.695 404.7 4
-6 -16 -11 -54.1185 249.651 3
-6 -16 -8 575.613 252.721 2
-6 22 8 532.779 214.096 1
22 -16 8 691.169 711.156 2
-16 22 -8 174.629 309.084 1
-6 22 8 892.059 582.517 4
-6 -16 -8 693.491 308.676 3
22 -16 5 -364.081 267.788 2
-6 -16 -5 566.14 369.852 2
-6 22 5 -123.948 261.004 4
-16 22 -5 13.7483 285.339 1
-6 22 5 -31.3433 142.219 1
-6 -16 -5 -65.3777 232.611 3
-6 22 2 1477.42 434.485 1
22 -16 2 2912.54 843.974 2
-6 22 2 1492.16 508.317 4
-6 -16 -2 1861.27 508.002 2
-16 22 -2 2102.15 719.329 1
22 -6 -2 2191.12 743.202 2
-6 -16 -2 2928.5 826.967 3
-16 22 1 -244.954 271.273 1
-16 22 1 232.006 274.752 2
-6 22 -1 -84.8257 218.661 1
22 -16 -1 390.794 389.677 2
-6 22 -1 -189.322 327.113 4
22 -6 1 533.253 493.645 2
-6 -16 1 -123.845 402.48 3
-6 22 -4 589.997 400.827 1
-16 22 4 837.911 428.306 2
-16 22 4 462.71 314.086 1
-16 -6 -4 356.338 300.372 1
22 -6 4 499.97 269.222 2
22 -16 -4 438.884 515.324 4
22 -16 -4 573.359 456.303 2
-6 -16 4 271.775 404.684 3
-6 22 -7 -333.328 295.21 1
-16 22 7 385.707 288.254 2
-16 -6 -7 -201.108 289.744 1
22 -6 7 76.3225 415.553 2
22 -16 -7 863.157 391.953 4
-16 22 7 253.47 281.255 4
-6 -16 7 515.972 470.59 3
-16 22 7 690.669 361.057 1
-16 22 10 402.546 330.609 1
-6 22 -10 165.171 166.725 1
22 -6 10 -228.897 307.381 2
-16 22 10 -151.989 466.138 2
-16 -6 -10 225.352 171.036 1
-16 22 10 227.735 325.063 4
-6 -16 10 488.098 286.264 3
-5 22 9 536.132 168.093 1
-5 -17 -9 912.673 308.813 2
22 -17 9 1333.93 549.808 2
-5 22 9 1558.22 767.548 4
-17 22 -9 210.121 345.694 1
-5 -17 -9 533.055 385.745 3
22 -17 6 1783.41 721.768 2
-5 -17 -6 1516.5 366.895 2
-5 22 6 1510.51 566.173 4
-17 22 -6 1709.73 591.204 1
-5 22 6 1843.98 382.662 1
-5 -17 -6 1894.17 743.459 3
-5 22 3 1510.88 449.66 1
22 -17 3 1398.79 609.654 2
-5 22 3 1465.7 572.795 4
-5 -17 -3 766.756 281.382 2
-17 22 -3 1703.38 643.105 1
-5 -17 -3 1453.01 500.667 3
-17 22 0 856.852 456.385 1
-17 22 0 647.104 275.917 2
-5 22 0 120.363 173.172 1
22 -17 0 673.765 494.5 2
-5 22 0 159.412 163.293 4
22 -5 0 265.223 407.435 2
-5 -17 0 140.28 184.645 3
-5 22 -3 309.401 324.653 1
-17 22 3 666.041 308.503 2
-17 22 3 206.808 196.886 1
-17 -5 -3 -119.885 308.287 1
22 -5 3 677.049 520.59 2
22 -17 -3 361.048 268.788 2
-5 22 -3 435.172 186.214 4
-5 -17 3 574.413 505.331 3
-5 22 -6 342.895 308.31 1
-17 22 6 1242.55 529.737 2
-17 -5 -6 341.041 359.597 1
22 -5 6 903.275 490.559 2
22 -17 -6 1055.27 596.947 4
-17 22 6 261.195 238.34 1
-5 -17 6 1097.54 623.272 3
-5 22 -9 38.9835 240.242 1
-17 22 9 1071.57 380.479 2
22 -5 9 1488.1 667.201 2
-17 22 9 674.88 305.822 1
22 -17 -9 1121.99 462.06 4
-17 22 9 486.391 323.942 4
-17 -5 -9 1115.83 464.668 1
-5 -17 9 816.76 553.513 3
-4 -18 -10 665.196 471.265 3
-4 -18 -10 245.433 163.489 2
22 -18 10 636.965 468.398 2
-4 22 10 -260.41 345.029 4
-18 22 -10 -85.2363 272.84 1
-4 -18 -7 238.885 173.512 2
22 -18 7 -143.093 342.701 2
-4 22 7 551.094 427.106 4
-18 22 -7 588.764 516.118 1
-4 22 7 200.749 158.497 1
-4 -18 -7 122.379 300.015 3
-4 22 4 423.958 256.044 1
22 -18 4 1175.53 588.579 2
-4 22 4 587.7 336.985 4
-4 -18 -4 658.85 268.297 2
-18 22 -4 1199.27 610.247 1
-4 -18 -4 512.037 392.798 3
-18 22 -1 226.206 188.117 1
-4 22 1 273.346 259.878 1
22 -18 1 -12.9523 262.618 2
-4 22 1 422.511 270.071 4
22 -4 -1 723.535 481.464 2
-4 -18 -1 453.89 333.062 3
-4 22 -2 37.2482 179.098 1
-18 22 2 1191.09 546.417 1
-18 22 2 43.0381 221.229 2
-18 -4 -2 225.131 271.552 1
22 -18 -2 903.535 499.403 2
-4 22 -2 260.145 150.529 4
22 -4 2 712.176 437.48 2
-4 -18 2 261.153 408.072 3
-4 22 -5 1536.7 561.106 1
-18 22 5 1449.73 515.941 2
-18 -4 -5 1308.82 491.779 1
22 -4 5 1786.35 758.391 2
-18 22 5 1786.43 574.536 1
22 -18 -5 1884.3 754.352 4
22 -18 -5 1701.65 594.163 2
-4 -18 5 2704.48 963.691 3
-4 22 -8 1823.3 603.51 1
-18 22 8 1853.82 693.712 1
-18 22 8 1706.12 630.106 2
22 -4 8 2560.79 1034.82 2
22 -18 -8 1439.46 554.458 4
-18 -4 -8 2044.88 706.229 1
-4 -18 8 2358.21 924.093 3
-18 22 11 639.728 347.372 2
-18 22 11 511.379 394.69 4
-4 -18 11 745.903 626.864 3
-3 -19 -8 1021.7 538.188 3
-3 22 8 754.739 198.716 1
-3 -19 -8 902.655 250.424 2
22 -19 8 1593.64 768.199 2
-3 22 8 784.308 514.604 4
22 -3 -8 546.059 175.816 4
-19 22 -8 500.588 356.402 1
-3 22 5 608.582 245.106 1
22 -19 5 101.915 265.883 2
-3 -19 -5 515.83 294.466 2
-3 22 5 1123.86 587.745 4
-19 22 -5 776.63 537.815 1
-3 -19 -5 389.594 176.667 3
-19 22 -2 1223.55 539.975 1
-3 22 2 692.746 333.728 1
22 -19 2 1620.11 672.816 2
-3 22 2 1337.12 572.551 4
-3 -19 -2 -213.359 441.493 3
-3 22 -1 40.654 235.637 1
-19 22 1 1070.6 506.356 1
22 -19 -1 762.146 438.363 2
-3 22 -1 430.179 361.78 4
22 -3 1 576.681 214.413 2
-19 -3 -1 283.246 195.331 1
-3 -19 1 135.594 226.065 3
-3 22 -4 974.638 367.603 1
-19 22 4 1851.52 672.893 2
-19 22 4 2079.16 734.253 1
22 -3 4 1359.58 612.512 2
22 -19 -4 3240.77 1029.04 4
-19 -3 -4 688.944 385.759 1
-3 22 -4 881.001 352.746 4
22 -19 -4 2261.74 772.353 2
-3 -19 4 2006.61 736.845 3
-3 22 -7 971.186 493.354 1
-19 22 7 512.534 248.35 1
-19 22 7 1062.23 511.636 2
22 -19 -7 1557.03 649.687 4
22 -3 7 973.115 603.648 2
-19 -3 -7 378.161 306.915 1
-3 -19 7 1286.3 750.13 3
-3 22 -10 495.872 254.986 1
-19 22 10 551.438 346.322 1
-19 -3 -10 256.701 318.711 1
22 -19 -10 287.68 241.714 4
-19 22 10 1027.39 576.05 2
22 -3 10 591.214 459.908 2
-19 22 10 132.746 232.483 4
-3 -19 10 476.667 235.3 3
-2 -20 -9 18.7703 320.359 3
22 -20 9 -347.072 302.681 2
-2 22 9 270.267 490.434 4
-20 22 -9 374.776 463.458 1
-2 -20 -6 531.383 332.374 3
-2 22 6 451.19 226.59 1
22 -20 6 355.413 458.275 2
-2 -20 -6 491.01 210.904 2
-2 22 6 655.239 562.215 4
-20 22 -6 167.344 221.01 1
-20 22 -3 582.373 456.588 1
-2 22 3 241.047 180.075 1
22 -20 3 -641.876 372.007 2
-2 22 3 336.513 274.718 4
-2 -20 -3 268.016 369.44 3
-2 22 0 300.804 151.251 1
-20 -2 0 285.515 228.165 1
-20 22 0 1237.47 565.933 1
22 -20 0 -67.153 315.542 2
-2 22 0 519.958 225.66 4
22 -2 0 -163.944 268.154 2
-2 -20 0 533.607 549.632 3
-2 22 -3 209.935 135.789 1
-20 22 3 694.274 458.705 1
22 -20 -3 -20.2095 349.724 2
-2 22 -3 251.53 193.927 4
22 -2 3 551.139 479.643 2
-20 -2 -3 473.659 396.261 1
-2 -20 3 864.58 546.921 3
-20 -2 -6 872.164 535.153 1
-20 22 6 1018.03 487.805 1
-2 22 -6 615.686 382.038 1
-20 22 6 850.499 501.254 2
22 -20 -6 956.43 584.305 4
22 -2 6 1763.55 781.33 2
22 -20 -6 1154.35 600.279 2
-2 -20 6 2252.01 933.857 3
-2 22 -9 31.4759 295.176 1
-20 -2 -9 -7.13804 198.276 1
-20 22 9 -267.809 414.252 2
22 -20 -9 965.261 608.709 4
22 -2 9 89.9972 381.446 2
-20 22 9 61.2399 173.701 1
-2 -20 9 463.917 567.757 3
-1 -21 -7 569.942 360.333 3
22 -21 7 239.024 305.232 2
-1 22 7 486.483 153.727 1
22 -1 -7 343.845 212.42 4
-1 22 7 1179.25 766.692 4
-21 22 -7 1101.75 641.734 1
-1 -21 -4 256.131 363.69 3
-21 22 -4 -303.397 403.807 1
-1 22 4 234.868 153.267 1
22 -21 4 530.55 448.572 2
-1 22 4 147.456 358.603 4
-1 -21 -4 -195.036 245.578 2
-1 22 1 531.769 315.388 1
-21 22 -1 274.131 272.955 1
22 -21 1 525.508 344.285 2
-21 -1 1 86.7954 264.569 1
-1 22 1 216.533 253.107 4
-1 -21 -1 1388.63 665.243 3
-21 -1 -2 1560.32 585.585 1
-1 22 -2 937.09 393.723 1
-21 22 2 1327.99 606.677 1
22 -21 -2 1138.2 632.111 2
-1 22 -2 426.431 166.784 4
22 -1 2 988.777 579.861 2
-1 -21 2 1392.98 665.235 3
-1 22 -5 178.64 267.398 1
-21 -1 -5 551.144 396.141 1
22 -1 5 1371.24 730.908 2
-1 22 -5 -27.974 295.093 4
22 -21 -5 320.457 414.514 2
-21 22 5 433.363 291.728 1
-1 -21 5 1306.33 771.878 3
-1 22 -8 1187.33 460.986 1
-21 -1 -8 1326.35 598.323 1
-21 22 8 1446.34 683.648 1
22 -21 -8 2019.48 745.162 4
22 -1 8 1162.91 605.534 2
-1 -21 8 1926.71 842.286 3
0 -22 -8 173.811 285.468 3
0 22 8 -138.47 87.6519 1
22 -22 8 -141.93 270.936 2
0 22 8 200.455 117.298 1
22 0 -8 423.284 207.985 4
-22 22 -8 239.301 323.454 1
0 -22 -5 218.719 357.302 3
-22 22 -5 466.801 472.176 1
0 22 5 267.907 188.07 1
22 -22 5 -518.037 581.752 2
0 22 5 -50.5173 483.629 4
0 -22 -5 145.98 103.845 2
0 -22 -2 400.662 208.675 3
0 22 2 -94.1616 268.577 1
-22 22 -2 1131.09 636.779 1
22 -22 2 597.428 501.245 2
-22 0 2 129.594 326.947 1
0 22 2 324.659 220.295 4
0 -22 1 1628.28 611.08 3
0 22 -1 1282.53 440.562 1
-22 0 -1 1538.47 543.402 1
-22 22 1 1855.7 733.717 1
22 -22 -1 2047.85 653.941 2
0 22 -1 1288.95 459.387 4
22 0 1 1793.2 641.959 2
0 22 -4 596.17 332.651 1
-22 0 -4 661.585 500.651 1
22 -22 -4 717.567 462.23 2
0 22 -4 957.159 431.508 4
22 0 4 1220.72 685.236 2
-22 22 4 1100.62 599.368 1
0 -22 4 1373.33 712.649 3
0 22 -7 1113.85 458.6 1
-22 22 7 724.396 349.122 1
-22 0 -7 1257.6 560.748 1
22 0 7 1062.01 398.433 2
0 -22 7 2589.65 917.678 3
1 -23 -6 351.511 227.036 3
-23 22 -6 468.713 539.251 1
1 22 6 583.24 227.733 1
22 -23 6 427.968 622.691 2
22 1 -6 362.149 166.872 4
1 22 6 47.1183 445.438 4
1 -23 -3 466.551 360.64 3
1 22 3 500.465 218.203 1
-23 22 -3 868.822 534.494 1
-23 1 3 -184.153 508.828 1
22 -23 3 422.366 607.018 2
1 22 3 753.695 521.733 4
1 -23 0 448.406 363.449 3
1 22 0 228.964 176.339 1
-23 1 0 681.028 367.096 1
-23 22 0 178.01 255.734 1
22 -23 0 666.38 512.849 2
1 22 0 428.643 435.42 4
1 -23 3 2380.12 835.261 3
1 22 -3 1516.51 545.653 1
-23 1 -3 1360.54 620.899 1
22 -23 -3 1619.12 639.429 2
1 22 -3 963.71 471.932 4
-23 22 3 1122.87 556.602 1
22 1 3 1437.29 636.724 2
1 -23 6 1356.7 642.524 3
1 22 -6 133.087 202.737 1
-23 22 6 865.698 410.327 1
-23 1 -6 822.502 470.898 1
22 1 6 2096.05 854.381 2
1 22 -6 736.105 434.438 4
22 -23 -6 809.813 548.532 2
2 -24 -7 96.7001 280.567 3
-24 22 -7 489.285 480.203 1
2 22 7 529.277 238.435 1
22 -24 7 -125.214 510.249 2
2 22 7 53.9228 99.788 1
2 22 7 256.553 321.076 4
22 2 -7 70.3644 157.9 4
2 -24 -4 250.441 221.472 3
2 22 4 514.675 290.789 1
2 -24 -4 155.942 96.0177 2
-24 22 -4 456.985 271.17 1
22 -24 4 595.386 374.225 2
2 22 4 512.657 671.152 4
2 22 1 393.486 228.283 1
2 -24 -1 22.1011 217.836 3
-24 22 -1 326.682 399.409 1
22 -24 1 625.956 446.543 2
-24 2 1 -200.71 291.222 1
2 22 1 447.616 422.251 4
2 -24 2 91.8074 396.913 3
-24 2 -2 153.58 205.241 1
22 -24 -2 138.663 392.541 2
-24 22 2 784.104 473.019 1
2 22 -2 22.6772 316.766 4
22 2 2 1246.66 680.928 2
2 -24 5 1301.99 751.059 3
-24 22 5 1262.15 622.681 1
-24 2 -5 459.869 407.891 1
2 22 -5 926.539 412.281 4
22 -24 -5 1018.29 660.055 2
22 2 5 1370.71 731.491 2
3 22 5 356.119 149.855 1
3 -25 -5 -289.252 287.611 3
-25 22 -5 110.281 403.681 1
3 -25 -5 117.587 74.1175 2
22 -25 5 662.707 573.697 2
22 3 -5 -178.644 171.112 4
3 22 5 617.515 409.883 4
3 -25 -5 86.8872 86.9205 2
3 -25 -2 296.022 236.529 3
-25 22 -2 126.131 319.821 1
22 -25 2 -347.111 412.725 2
3 22 2 101.01 379.757 4
-25 3 2 -87.2885 240.365 1
3 -25 1 210.939 445.284 3
-25 3 -1 810.174 512.926 1
22 -25 -1 1040.1 553.249 2
-25 22 1 1050.36 588.782 1
3 22 -1 -48.3353 324.539 4
3 -25 4 290.394 457.484 3
-25 22 4 1231.08 637.911 1
22 -25 -4 838.048 421.796 2
3 22 -4 561.923 325.646 4
-25 3 -4 656.491 404.604 1
22 3 4 1071.72 568.971 2
4 -26 -3 275.85 255.903 3
4 -26 -3 -33.0147 177.825 2
-26 4 3 -431.732 543.879 1
-26 22 -3 -236.088 307.35 1
22 -26 3 289.573 237.12 2
4 22 3 -196.327 206.118 4
4 -26 0 609.053 491.988 3
22 -26 0 449.186 285.845 2
-26 22 0 747.822 490.712 1
4 22 0 -277.816 225.862 4
-26 4 0 352.456 507.66 1
4 -26 3 631.441 603.812 3
22 -26 -3 531.344 404.291 2
4 22 -3 23.5917 256.423 4
-26 4 -3 18.9389 367.725 1
-26 22 3 157.986 405.09 1
5 -27 -1 -70.547 506.87 3
5 -27 -1 721.373 398.149 2
22 -27 1 -157.247 379.901 2
-27 22 -1 -30.9559 367.604 1
5 22 1 39.2895 223.682 4
-27 5 1 343.06 415.347 1
5 -27 2 691.46 297.992 3
-27 5 -2 695.43 512.976 1
5 -27 2 637.19 491.797 2
22 -27 -2 875.697 592.219 2
5 22 -2 424.224 417.898 4
-27 22 2 59.4725 402.491 1
-11 -12 -11 940.411 430.774 2
-11 23 11 364.008 167.379 2
-12 23 -11 603.528 383.208 1
23 -12 11 1003.71 623.97 2
-11 23 11 85.1178 170.265 1
-12 -11 11 1015.05 538.866 4
-11 23 11 -285.156 507.611 4
-11 -12 -11 256.011 198.601 3
-11 23 8 658.406 188.561 2
-12 23 -8 1048.04 509.015 1
-11 -12 -8 942.554 428.896 2
23 -12 8 -129.476 379.223 2
23 -11 -8 406.025 169.276 4
-11 23 8 502.773 488.443 4
-11 23 8 800.602 315.619 1
-11 -12 -8 733.541 343.754 3
-11 23 5 502.106 253.773 1
-12 23 -5 420.436 289.25 1
-11 -12 -5 807.167 413.14 2
23 -12 5 1068.87 585.035 2
-11 23 5 563.812 334.633 4
-11 -12 -5 294.156 310.266 3
-12 23 -2 659.157 436.362 1
23 -12 2 335.827 370.455 2
-11 -12 -2 67.804 196.064 2
-11 23 2 448.786 300.071 4
-11 23 2 250.518 193.961 1
23 -11 -2 649.459 356.335 2
-11 23 -1 443.713 378.587 1
23 -11 1 482.161 289.634 2
23 -12 -1 700.18 390.975 2
-12 23 1 455.011 203.249 1
-12 -11 -1 750.712 473.77 2
-12 23 4 260.18 298.126 1
-12 23 4 364.936 206.781 2
-11 23 -4 679.349 423.032 1
23 -11 4 138.945 273.254 2
-12 -11 -4 643.768 381.106 2
-12 23 4 211.8 218.634 4
23 -12 -4 396.483 501.346 2
-12 23 7 414.611 175.109 2
-11 23 -7 -295.594 379.695 1
-12 -11 -7 141.828 189.945 2
23 -11 7 209.165 288.556 2
-12 23 7 682.65 314.135 1
-12 23 7 257.355 183.377 4
23 -12 -7 184.067 121.144 4
-12 -11 -7 137.484 300.884 3
-12 -11 -10 -368.266 429.53 2
-11 23 -10 283.601 362.614 1
-12 23 10 261.655 129.71 2
23 -11 10 -416.372 601.411 2
-11 -12 10 -93.1016 348.176 4
-12 23 10 -243.575 221.872 1
-12 23 10 -400.877 300.042 4
-12 -11 -10 124.621 376.066 3
-10 23 9 1169.49 343.163 1
-10 -13 -9 1312.95 516.596 2
-13 23 -9 1077.7 443.118 1
23 -13 9 1520.61 868.423 2
-10 23 9 1029 552.122 4
-10 -13 -9 741.057 444.142 3
-10 23 6 566.836 277.274 1
-13 23 -6 720.829 424.857 1
-10 -13 -6 684.177 397.655 2
23 -13 6 234.331 514.371 2
-10 23 6 -148.025 166.576 4
-10 -13 -6 896.182 468.956 3
-13 23 -3 599.4 366.147 1
23 -13 3 306.781 214.755 2
-10 -13 -3 689.158 317.557 2
-10 23 3 -416.391 360.252 4
-10 23 3 815.636 440.088 1
-10 -13 -3 -178.613 300.547 3
23 -10 -3 1307.39 615.082 2
-13 23 0 785.052 252.392 2
-10 23 0 708.441 429.863 1
23 -13 0 494.757 319.246 2
23 -10 0 1425.55 569.564 2
-13 23 0 859.791 352.896 1
-10 23 0 184.109 239.48 4
-10 -13 0 996.829 469.59 3
-10 -13 0 727.159 433.047 2
-13 23 3 2053.61 587.967 1
-13 23 3 1465.5 430.94 2
-10 23 -3 2828.31 737.473 1
23 -10 3 1963.2 844.315 2
-13 -10 -3 1906.53 598.224 2
-13 23 3 1146.36 443.07 4
23 -13 -3 1834.99 728.146 2
-13 23 6 774.943 312.031 2
-10 23 -6 85.3608 197.113 1
-13 23 6 625.467 350.637 1
-13 -10 -6 620.289 366.8 2
23 -10 6 955.605 617.278 2
-13 23 6 11.2774 202.841 4
23 -13 -6 947.751 404.626 4
-13 -10 -9 -1.21162 150.798 1
-13 23 9 348.506 256.82 1
-10 23 -9 -401.398 472.825 1
-13 23 9 293.971 174.382 2
-13 -10 -9 132.066 206.024 2
23 -10 9 388.566 566.267 2
23 -13 -9 154.5 121.392 4
-13 23 9 -71.5832 263.061 4
-10 -13 9 326.304 462.577 3
-13 -10 -9 766.764 437.831 3
-9 -14 -10 992.903 442.541 2
-14 23 -10 186.103 292.689 1
23 -14 10 -378.32 470.356 2
-9 23 10 255.766 342.525 4
-9 23 10 188.504 177.066 1
-9 -14 -10 10.8962 274.203 3
-9 23 7 219.839 218.038 1
-9 -14 -7 76.2988 217.493 2
23 -14 7 688.359 564.286 2
-14 23 -7 113.191 259.888 1
-9 23 7 238.338 367.761 4
-9 -14 -7 436.256 445.204 3
23 -14 4 986.404 679.548 2
-14 23 -4 305.197 204.679 1
-9 -14 -4 1164.16 495.116 2
-9 23 4 336.99 208.763 4
-9 23 4 489.302 328.944 1
-9 -14 -4 260.812 254.824 3
-14 23 -1 431.357 216.714 2
-9 23 1 828.726 395.937 1
23 -14 1 506.684 342.279 2
-9 23 1 148.333 245.878 4
-14 23 -1 535.737 362.179 1
23 -9 -1 149.05 324.108 2
-9 -14 -1 220.491 339.185 3
-9 -14 -1 568.583 311.892 2
-14 23 2 635.561 292.615 1
-14 23 2 600.505 279.755 2
-9 23 -2 427.586 323.714 1
23 -9 2 1290.89 659.625 2
23 -14 -2 806.339 451.584 2
-9 -14 2 838.204 471.317 3
-14 23 5 610.702 331.653 2
-9 23 -5 408.341 449.203 1
-14 23 5 275.327 270.259 1
23 -9 5 1508.11 779.693 2
-14 23 5 219.306 208.342 4
-9 -14 5 515.051 444.068 3
23 -14 -5 468.66 412.488 2
-14 -9 -8 498.819 312.435 1
-14 23 8 196.81 144.144 1
-9 23 -8 126.484 317.737 1
-14 23 8 487.748 304.786 2
23 -9 8 641.273 473.472 2
23 -14 -8 367.695 198.495 4
-14 23 8 236.132 275.814 4
-9 -14 8 608.666 418.258 3
-9 23 -11 319.01 365.999 1
-14 -9 -11 -279.455 190.21 1
-14 23 11 -29.7173 142.971 1
-14 23 11 590.824 350.909 2
23 -9 11 -41.5473 355.659 2
-14 23 11 198.187 368.415 4
-14 -9 -11 155.019 327.706 3
-9 -14 11 661.427 637.235 3
-8 -15 -11 -115.613 161.645 2
23 -15 11 -277.306 614.377 2
-15 23 -11 -107.945 341.942 1
-8 23 11 30.0782 433.43 4
-8 -15 -11 328.142 180.586 3
-8 -15 -8 101.874 146.31 2
23 -15 8 177.935 388.945 2
-8 23 8 97.0925 132.044 1
-15 23 -8 -202.089 338.773 1
-8 23 8 211.986 488.379 4
-8 -15 -8 359.328 330.285 3
23 -15 5 1141.65 583.801 2
-8 -15 -5 1032.32 389.203 2
-15 23 -5 995.011 521.392 1
-8 23 5 503.347 442.776 4
-8 23 5 521.945 264.807 1
-8 -15 -5 427.036 296.048 3
-15 23 -2 198.981 281.006 2
-8 23 2 439.652 193.458 1
23 -15 2 629.881 469.095 2
-8 23 2 245.195 279.411 4
-15 23 -2 524.396 377.765 1
-8 -15 -2 253.026 272.685 2
23 -8 -2 216.717 474.024 2
-8 -15 -2 152.867 300.449 3
-15 23 1 1081.33 478.418 1
-15 23 1 1234.37 465.035 2
-8 23 -1 764.099 335.291 1
23 -15 -1 1324.6 610.399 2
23 -8 1 1395.3 598.091 2
-8 23 -1 262.575 260.496 4
-8 -15 1 28.3208 296.043 3
-15 23 4 1093.1 375.295 2
-15 23 4 940.44 379.624 1
-8 23 -4 1182.99 435.93 1
23 -8 4 1393.94 740.115 2
-15 23 4 807.729 333.601 4
23 -15 -4 1340.23 651.506 2
-8 -15 4 937.986 531.032 3
-8 23 -7 277.259 374.562 1
-15 23 7 361.231 169.923 2
23 -8 7 -34.8463 277.15 2
23 -15 -7 1133.7 528.863 4
-15 23 7 -88.5027 155.493 4
-15 23 7 -14.9759 191.583 1
-15 -8 -7 445.4 379.24 1
-8 -15 7 -605.644 424.88 3
-8 23 -10 -28.2355 177.79 1
-15 -8 -10 569.807 243.727 1
-15 23 10 390.764 268.747 2
23 -8 10 54.6032 380.501 2
-15 23 10 214.794 250.692 4
-15 23 10 402.926 218.443 1
-8 -15 10 915.023 676.417 3
-7 -16 -9 1209.03 408.659 2
23 -16 9 316.738 541.742 2
-16 23 -9 -110.387 401.971 1
-7 23 9 219.226 389.019 4
-7 23 9 261.238 135.982 1
-7 -16 -9 167.484 330.174 3
23 -16 6 1431.18 808.995 2
-7 -16 -6 621.404 301.912 2
-16 23 -6 445.4 396.554 1
-7 23 6 416.571 468.803 4
-7 -16 -6 95.4673 231.103 3
-7 23 6 762.191 282.162 1
-7 23 3 935.596 346.41 1
23 -16 3 2306.82 860.155 2
-7 23 3 1557.94 609.465 4
-7 -16 -3 1272.99 467.27 2
-16 23 -3 2418.29 750.551 1
-7 -16 -3 899.231 386.181 3
-16 23 0 1850.72 639.453 1
-16 23 0 1843.43 593.301 2
-7 23 0 1078.08 423.088 1
23 -16 0 1426.44 743.129 2
-7 23 0 335.275 265.402 4
23 -7 0 1721.14 746.99 2
-7 -16 0 1280.84 635.061 3
-16 23 3 410.965 328.096 1
-16 23 3 699.042 395.418 2
-7 23 -3 711.553 397.184 1
23 -7 3 604.992 457.987 2
23 -16 -3 458.379 441.813 2
-7 -16 3 329.261 333.047 3
-7 23 -6 362.213 292.949 1
-16 23 6 478.846 277.504 2
23 -7 6 -79.8003 244.707 2
-16 23 6 152.522 323.173 1
23 -16 -6 636.082 528.933 4
-16 -7 -6 359.264 349.15 1
-16 23 6 311.624 234.512 4
-7 -16 6 71.2538 466.666 3
-7 23 -9 273.612 267.458 1
-16 -7 -9 411.106 388.657 1
-16 23 9 186.655 258.454 1
-16 23 9 392.935 287.763 2
23 -7 9 340.17 534.302 2
23 -16 -9 284.907 222.836 4
-16 23 9 -165.44 269.562 4
-7 -16 9 144.604 449.528 3
-6 -17 -10 -110.511 108.103 2
23 -17 10 27.467 494.29 2
-17 23 -10 30.7153 336.926 1
-6 23 10 -50.3506 353.091 4
-6 -17 -10 160.963 194.041 3
-6 23 7 30.8994 120.303 1
-6 -17 -7 909.221 343.843 2
23 -17 7 -25.6181 268.461 2
-6 23 7 -94.0741 410.919 4
-17 23 -7 481.817 453.79 1
-6 -17 -7 -59.2839 226.833 3
23 -17 4 666.897 452.167 2
-6 23 4 347.499 289.17 1
-6 23 4 -54.7768 234.037 4
-6 -17 -4 604.521 362.481 2
-17 23 -4 554.69 387.449 1
-6 -17 -4 318.305 388.921 3
-6 23 1 1246.12 438.948 1
23 -17 1 1333.87 601.964 2
-6 23 1 537.529 340.345 4
23 -6 -1 1297.36 598.472 2
-6 -17 -1 665.878 394.519 3
-17 23 -1 1477.26 646.776 1
-17 23 2 683.566 386.869 1
-6 23 -2 249.726 165.816 1
-17 23 2 756.264 376.854 2
23 -17 -2 106.742 208.633 2
23 -6 2 1074.15 607.499 2
-6 23 -2 223.24 344.529 4
-6 -17 2 -111.973 300.929 3
-6 23 -5 171.639 198.904 1
-17 23 5 518.371 346.62 2
-17 23 5 378.94 261.112 1
23 -6 5 102.967 276.391 2
23 -17 -5 453.478 386.059 4
-17 -6 -5 534.904 278.687 1
23 -17 -5 756.926 557.866 2
-6 -17 5 -267.845 232.111 3
-17 23 8 600.088 416.038 1
-6 23 -8 -157.894 209.219 1
-17 -6 -8 460.867 326.445 1
-17 23 8 523.516 423.928 2
23 -6 8 346.841 511.888 2
23 -17 -8 606.536 387.318 4
-17 23 8 88.416 222.213 4
-6 -17 8 6.88318 314.522 3
-5 23 8 429.25 194.295 1
-5 -18 -8 906.8 302.774 2
23 -18 8 147.607 379.423 2
-5 23 8 1043.44 543.766 4
-18 23 -8 884.936 522.589 1
-5 -18 -8 1190.95 530.011 3
23 -18 5 902.21 501.851 2
-5 23 5 681.578 249.87 1
-5 -18 -5 506.623 202.909 2
-5 23 5 685.347 496.654 4
-18 23 -5 453.815 460.698 1
-5 -18 -5 432.568 367.886 3
-5 23 2 -200.119 219.623 1
23 -18 2 527.707 552.273 2
-5 23 2 232.534 187.908 4
-5 -18 -2 245.909 327.808 3
-18 23 -2 -119.584 202.741 1
-18 23 1 2026.26 686.634 1
-5 23 -1 1211.96 501.164 1
-18 23 1 914.307 457.788 2
23 -18 -1 1510.65 652.241 2
-5 23 -1 838.039 334.444 4
23 -5 1 2216.29 840.259 2
-5 -18 1 1453.01 694.901 3
-5 23 -4 542.679 419.557 1
-18 23 4 558.802 389.395 2
-18 23 4 640.101 462.082 1
23 -5 4 266.261 234.264 2
23 -18 -4 1659.24 694.293 4
23 -18 -4 448.096 321.189 2
-18 -5 -4 289.283 177.854 1
-5 -18 4 480.594 503.082 3
-18 23 7 1805.71 656.958 1
-5 23 -7 2206.81 663.949 1
-18 -5 -7 2161.64 655.577 1
-18 23 7 3039.66 756.016 2
23 -5 7 3343.3 1046.54 2
23 -18 -7 4314.48 949.315 4
-18 23 7 1530.93 539.888 4
-5 -18 7 2974.52 1019.78 3
-5 23 -10 162.097 270.251 1
-18 23 10 10.7302 372.221 2
23 -18 -10 -2.36191 299.032 4
23 -5 10 152.552 486.629 2
-18 -5 -10 288.261 347.047 1
-18 23 10 222.407 194.063 4
-5 -18 10 11.5463 475.522 3
-18 23 10 411.667 387.503 1
-4 -19 -9 214.702 263.259 3
-4 -19 -9 525.303 173.448 2
23 -19 9 520.51 568.666 2
-4 23 9 1042.53 637.432 4
-4 23 9 245.35 115.654 1
-19 23 -9 766.144 553.89 1
23 -19 6 861.393 677.471 2
-4 -19 -6 149.066 166.365 2
-4 23 6 344.884 180.748 1
-4 23 6 407.891 223.716 4
-4 -19 -6 255.207 188.445 3
-4 23 3 402.381 264.552 1
23 -19 3 574.071 560.736 2
-4 23 3 299.65 283.223 4
-4 -19 -3 165.252 170.391 2
-4 -19 -3 -118.416 428.996 3
-19 23 -3 433.034 225.518 1
-19 23 0 1273.79 609.365 1
-4 23 0 324.178 316.907 1
23 -19 0 1200.28 644.993 2
-4 23 0 750.721 400.137 4
23 -4 0 1077.49 661.615 2
-4 -19 0 523.381 363.476 3
-4 23 -3 420.303 366.837 1
-19 23 3 923.77 497.508 2
-19 23 3 675.628 391.135 1
23 -19 -3 844.658 388.718 2
23 -4 3 102.029 207.116 2
-4 23 -3 50.0672 322.208 4
-4 -19 3 1098.9 553.405 3
-19 -4 -3 13.6316 303.647 1
-4 23 -6 1258.85 467.724 1
-19 23 6 1815.73 642.066 2
-19 -4 -6 449.796 435.113 1
23 -4 6 1765.71 775.574 2
23 -19 -6 1918.18 667.119 4
23 -19 -6 1292.12 573.75 2
-19 23 6 463.331 450.531 1
-4 -19 6 1155.16 539.082 3
-4 23 -9 1199.33 532.645 1
-19 23 9 420.821 323.329 2
-19 23 9 184.58 227.581 1
23 -19 -9 776.558 386.382 4
23 -4 9 1025 608.146 2
-19 -4 -9 775.878 486.281 1
-19 23 9 225.812 289.15 4
-4 -19 9 179.589 288.247 3
-3 -20 -7 1390.92 570.139 3
-3 -20 -7 1091.52 309.317 2
23 -20 7 2532.68 1073.97 2
23 -3 -7 997.063 299.983 4
-3 23 7 1544.15 622.596 4
-3 23 7 1151.27 286.883 1
-20 23 -7 1471.71 524.988 1
-3 23 4 141.698 158.147 1
23 -20 4 -294.22 268.641 2
-3 23 4 -288.054 259.742 4
-3 -20 -4 194.034 136.714 2
-3 -20 -4 -106.422 420.694 3
-20 23 -4 -461.653 501.205 1
-20 23 -1 1270.2 609.798 1
-3 23 1 549.195 283.342 1
23 -20 1 764.345 511.487 2
-3 23 1 385.999 206.941 4
-3 -20 -1 1474.21 632.731 3
-20 -3 -2 500.864 455.551 1
-3 23 -2 259.664 210.703 1
-20 23 2 -9.25931 326.733 1
23 -20 -2 -239.567 410.791 2
-3 23 -2 195.471 303.859 4
23 -3 2 -310.165 466.756 2
-3 -20 2 -467.853 427.437 3
-3 23 -5 572.438 270.146 1
-20 23 5 39.0225 311.444 2
-20 -3 -5 320.868 301.656 1
23 -20 -5 727 487.364 4
23 -3 5 876.457 633.894 2
-20 23 5 383.649 313.463 1
23 -20 -5 599.165 496.55 2
-3 -20 5 -331.273 415.56 3
-3 23 -8 108.808 255.831 1
-20 23 8 1159.77 554.253 1
-20 23 8 882.671 494.534 2
23 -20 -8 751.786 513.724 4
23 -3 8 1405.37 534.438 2
-20 -3 -8 1273.79 581.648 1
-3 -20 8 1389.76 657.094 3
-2 -21 -8 -228.11 345.347 3
23 -21 8 567.855 547.106 2
-2 23 8 -369.481 322.799 4
23 -2 -8 234.627 130.622 4
-2 23 8 91.9376 55.0817 1
-21 23 -8 666.351 475.433 1
-2 -21 -5 -319.843 275.144 3
-21 23 -5 898.134 553.988 1
-2 23 5 76.1922 164.862 1
23 -21 5 -76.6325 414.238 2
-2 23 5 515.636 453.897 4
-2 -21 -5 336.614 187.194 2
-21 23 -2 571.637 447.793 1
-2 23 2 -91.1447 210.386 1
23 -21 2 77.7733 380.728 2
-2 23 2 117.614 199.929 4
-2 -21 -2 -70.6677 441.799 3
-2 23 -1 120.635 213.905 1
-21 -2 -1 -1.13559 206.044 1
-21 23 1 221.221 245.469 1
23 -21 -1 500.976 437.444 2
-2 23 -1 249.447 201.318 4
23 -2 1 506.392 362.485 2
-2 -21 1 731.911 561.573 3
-2 23 -4 155.372 266.058 1
-21 -2 -4 62.3804 277.049 1
-21 23 4 300.688 300.793 1
23 -2 4 79.2665 266.434 2
23 -21 -4 -47.9377 239.638 2
-2 23 -4 353.117 213.946 4
-2 -21 4 -100.784 318.715 3
-2 23 -7 -28.8476 257.807 1
-21 23 7 754.709 543.089 1
23 -21 -7 666.91 534.237 4
23 -2 7 334.73 393.194 2
-21 -2 -7 441.836 399.72 1
-2 -21 7 1423.78 667.459 3
-22 23 -6 523.669 422.251 1
-1 -22 -6 -173.398 260.285 3
-1 23 6 190.376 117.015 1
-1 -22 -6 17.3016 111.683 2
-1 23 6 213.949 271.153 4
-1 -22 -3 1038.78 545.159 3
-22 23 -3 351.504 339.698 1
-1 23 3 343.846 275.366 1
23 -22 3 236.876 371.213 2
-1 23 3 569.651 446.435 4
-1 23 0 680.237 365.531 1
-22 23 0 889.162 232.045 1
-22 -1 0 417.105 292.431 1
23 -22 0 85.7405 309.304 2
-1 23 0 749.268 285.776 4
-1 -22 0 548.415 500.757 3
-1 23 -3 1485.4 529.223 1
-22 23 3 1353.34 555.129 1
23 -22 -3 1978.92 716.491 2
-22 -1 -3 895.473 349.758 1
-1 23 -3 1884.7 615.29 4
23 -1 3 1541.73 680.649 2
-1 -22 3 1572.06 788.993 3
-1 23 -6 737.003 432.512 1
-22 23 6 1575.9 722.375 1
23 -1 6 784.077 626.868 2
23 -22 -6 997.443 485.609 2
-1 -22 6 1210.58 738.881 3
-22 -1 -6 257.676 200.334 1
-23 23 -7 983.521 512.14 1
0 -23 -7 116.6 395.549 3
0 23 7 205.131 143.438 1
23 -23 7 694.727 762.87 2
23 0 -7 297.659 216.582 4
0 23 7 386.388 439.894 4
0 -23 -4 -340.551 475.233 3
-23 23 -4 43.2459 414.488 1
0 23 4 168.522 182.9 1
23 -23 4 132.504 387.46 2
0 23 4 48.0932 210.518 4
0 -23 -4 270.608 183.09 2
0 -23 -1 270.835 350.35 3
0 23 1 438.204 247.735 1
-23 23 -1 325.007 323.173 1
23 -23 1 389.956 246.319 2
0 23 1 638.045 506.068 4
-23 0 1 -112.429 287.414 1
0 -23 2 778.587 590.973 3
0 23 -2 375.001 251.493 1
-23 23 2 601.927 475.144 1
23 -23 -2 298.219 214.522 2
0 23 -2 335.11 234.169 4
23 0 2 895.242 506.212 2
-23 0 -2 51.1674 303.109 1
-23 23 5 1696.85 642.755 1
0 23 -5 1056.41 445.715 1
-23 0 -5 1600.53 543.828 1
23 0 5 1259.31 720.822 2
0 23 -5 1148.03 466.492 4
23 -23 -5 1347.4 574.013 2
0 -23 5 1288.84 669.586 3
1 -24 -5 66.859 248.337 3
1 23 5 130.889 114.207 1
-24 23 -5 369.228 246.264 1
23 -24 5 104.594 310.129 2
1 23 5 726.202 344.66 4
1 -24 -5 232.603 188.364 2
1 -24 -2 -634.772 478.925 3
1 23 2 -15.6877 236.291 1
-24 1 2 -17.1004 302.622 1
-24 23 -2 -225.009 403.078 1
23 -24 2 -169.993 372.061 2
1 23 2 -41.0358 269.431 4
1 -24 1 -183.86 357.391 3
1 23 -1 726.476 421.881 1
-24 1 -1 111.534 205.095 1
-24 23 1 222.593 393.64 1
23 -24 -1 622.452 462.181 2
1 23 -1 89.0792 245.033 4
1 -24 4 455.81 508.43 3
1 23 -4 5.70157 305.157 1
-24 1 -4 594.92 405.247 1
23 -24 -4 478.541 395.037 2
1 23 -4 -282.493 276.355 4
23 1 4 -22.9807 375.976 2
-24 23 4 -42.5208 362.054 1
2 -25 -3 60.746 284.106 3
2 23 3 97.5175 224.415 1
-25 2 3 532.72 371.792 1
-25 23 -3 145.464 391.16 1
23 -25 3 -369.286 555.288 2
2 23 3 -158.994 298.104 4
2 23 0 381.73 245.986 1
2 -25 0 -81.3886 315.203 3
-25 2 0 -16.9731 317.826 1
-25 23 0 41.0503 371.115 1
23 -25 0 365.763 401.333 2
2 23 0 196.269 189.083 4
2 23 -3 -106.119 181.655 1
2 -25 3 441.845 432.029 3
-25 2 -3 481.99 454.44 1
23 -25 -3 494.85 304.874 2
2 23 -3 524.041 357.565 4
-25 23 3 217.887 230.467 1
23 2 3 214.431 319.224 2
3 -26 -1 562.647 483.479 3
-26 3 1 -60.8285 230.765 1
-26 23 -1 -312.986 366.74 1
23 -26 1 -446.809 433.699 2
3 23 1 -294.845 498.279 4
3 -26 2 764.806 513.123 3
-26 3 -2 240.646 330.58 1
23 -26 -2 507.845 436.97 2
3 23 -2 224.355 219.05 4
-26 23 2 890.685 646.312 1
-12 24 0 2138.87 593.972 1
24 -12 0 1906.86 672.488 2
-12 24 -3 303.605 289.743 1
24 -12 3 142.516 426.716 2
-12 -12 -3 305.694 249.13 2
-12 24 3 798.074 437.425 4
24 -12 -3 429.274 547.414 2
-12 24 3 351.015 193.828 1
-12 24 6 275.564 147.911 2
-12 24 6 53.3647 226.602 1
-12 24 -6 -368.503 475.37 1
-12 -12 -6 597.157 349.433 2
24 -12 6 384.38 508.73 2
-12 24 6 71.0696 222.954 4
-12 -12 -6 269.643 332.664 3
-12 24 9 170.221 215.459 1
-12 24 9 53.5704 93.8125 2
-12 -12 -9 -4.74616 189.274 2
-12 24 -9 -249.292 350.84 1
24 -12 9 206.121 434.772 2
-12 -12 9 247.534 248.949 4
24 -12 -9 -90.0298 88.409 4
-12 24 9 -221.113 383.425 4
-12 -12 -9 475.352 463.854 3
-11 -13 -10 218.297 351.913 2
-13 24 -10 218.378 190.698 1
-11 24 10 534.385 242.307 1
24 -13 10 746.099 630.552 2
-13 -11 10 188.797 318.316 4
-11 24 10 789.019 276.975 4
-11 -13 -10 815.787 466.31 3
-11 24 7 763.853 324.387 1
-13 24 -7 691.363 400.026 1
-11 -13 -7 278.219 266.155 2
24 -13 7 666.285 628.398 2
-11 24 7 415.07 374.48 4
24 -11 -7 549.339 217.926 4
-11 -13 -7 855.547 392.769 3
-13 24 -4 157.641 225.733 1
24 -13 4 419.228 515.463 2
-11 -13 -4 -168.01 300.656 2
-11 24 4 -100.49 300.924 4
-11 -13 -4 -655.351 522.888 3
-11 24 4 110.325 123.449 1
-11 24 1 625.448 390.636 1
-13 24 -1 355.996 427.272 1
24 -13 1 579.197 444.708 2
-11 24 1 463.441 328.795 4
24 -11 -1 137.379 330.998 2
-11 -13 -1 271.94 285.247 2
-11 -13 -1 562.568 255.018 3
-13 24 2 521.361 234.295 2
-11 24 -2 589.055 319.255 1
24 -11 2 323.874 376.397 2
-13 24 2 67.0573 188.057 4
24 -13 -2 732.997 542.494 2
-13 24 2 681.449 391.72 1
-13 24 5 751.725 272.259 2
-13 24 5 1163.71 413.254 1
-11 24 -5 1052.76 461.758 1
-13 -11 -5 390.143 157.6 2
24 -11 5 420.945 461.882 2
-13 24 5 547.034 331.851 4
-13 24 8 322.919 162.023 2
-11 24 -8 -272.379 220.489 1
-13 -11 -8 612.711 446.462 2
24 -11 8 -327.753 322.314 2
24 -13 -8 568.137 282.604 4
-13 24 8 114.799 177.132 4
-13 -11 -8 -38.6651 216.097 3
-13 24 8 377.08 249.149 1
-10 -14 -8 -185.209 208.355 2
-14 24 -8 526.794 429.272 1
24 -14 8 987.744 717.679 2
-10 24 8 -79.6885 258.571 1
-10 24 8 774.001 442.354 4
24 -10 -8 102.984 115.32 4
-10 -14 -8 347.018 522.224 3
-10 24 5 898.425 385.543 1
-14 24 -5 -145.013 236.99 1
24 -14 5 1009.02 812.398 2
-10 -14 -5 250.577 229.017 2
-10 24 5 173.779 206.467 4
-10 -14 -5 79.3788 333.969 3
24 -14 2 651.345 393.21 2
-10 24 2 -352.378 346.319 1
-14 24 -2 136.211 315.937 1
-10 24 2 107.661 253.735 4
-10 -14 -2 21.5171 216.975 2
-10 -14 -2 71.7069 288.996 3
24 -10 -2 510.18 444.588 2
-14 24 1 162.918 206.693 2
-10 24 -1 68.2148 157.423 1
24 -10 1 1301.58 659.754 2
24 -14 -1 -828.951 521.012 2
-10 -14 1 145.106 240.904 3
-14 24 1 560.205 231.989 1
-14 24 4 2125.84 540.603 1
-14 24 4 1391.12 382.018 2
-10 24 -4 1982.25 622.985 1
24 -10 4 1953.24 852.154 2
-14 24 4 1393.61 462.912 4
-10 -14 4 1843.76 876.231 3
24 -14 -4 1268.13 492.318 2
-14 24 7 -74.2317 132.448 2
-10 24 -7 288.245 241.014 1
24 -10 7 527.448 382.345 2
-14 24 7 181.596 292.347 1
24 -14 -7 281.447 222.514 4
-14 24 7 101.927 226.098 4
-10 -14 7 112.928 372.598 3
-10 24 -10 -201.403 256.62 1
-14 24 10 -76.9015 125.901 2
24 -10 10 -524.41 397.122 2
-14 24 10 99.4151 243.464 1
-14 -10 -10 477.185 331.305 1
-14 24 10 -560.994 453.508 4
-14 -10 -10 116.146 292.524 3
-10 -14 10 58.0898 314.046 3
-9 -15 -9 69.5531 245.335 2
-15 24 -9 -94.1931 390.045 1
-9 24 9 128.065 404.103 4
-9 24 9 485.627 260.676 1
-9 -15 -9 34.3311 250.049 3
-9 24 6 35.4061 122.238 1
-9 -15 -6 256.798 241.941 2
24 -15 6 381.445 333.652 2
-15 24 -6 66.3238 181.002 1
-9 24 6 391.385 208.392 4
-9 -15 -6 -367.575 405.057 3
24 -15 3 208.634 277.467 2
-9 24 3 255.686 292.624 1
-15 24 -3 -32.2582 269.778 1
-9 -15 -3 138.985 198.751 2
-9 24 3 -160.982 255.861 4
-9 -15 -3 -371.817 446.764 3
24 -9 -3 506.553 373.21 2
-15 24 0 746.973 348.649 2
-9 24 0 734.937 386.401 1
24 -15 0 1532.59 537.756 2
-9 24 0 193.27 228.251 4
24 -9 0 571.677 401.918 2
-9 -15 0 499.466 320.336 3
-15 24 0 929.379 444.274 1
-15 24 3 1124.14 442.556 1
-15 24 3 1041.28 408.391 2
-9 24 -3 988.154 398.501 1
24 -9 3 1308.28 669.498 2
24 -15 -3 1365.2 657.599 2
-9 -15 3 256.717 397.529 3
-15 24 6 681.406 331.889 2
-9 24 -6 625.967 478.185 1
-15 24 6 406.301 268.709 1
24 -9 6 518.825 501.226 2
24 -15 -6 111.941 259.249 4
-15 24 6 574.08 419.073 4
-9 -15 6 383.151 244.747 3
-15 24 9 -145.012 293.156 1
-9 24 -9 217.722 453.25 1
-15 24 9 292.543 202.829 2
-15 -9 -9 213.972 155.014 1
24 -9 9 1052.51 623.732 2
24 -15 -9 566.178 273.403 4
-15 24 9 492.614 387.764 4
-9 -15 9 661.234 555.984 3
-8 -16 -10 450.564 248.46 2
24 -16 10 -385.377 746.093 2
-8 24 10 309.334 146.404 1
-8 24 10 -200.619 257.591 4
-8 -16 -10 48.223 199.421 3
-8 24 7 539.514 236.614 1
-8 -16 -7 479.044 268.742 2
24 -16 7 1406.22 714.147 2
-16 24 -7 203.425 189.856 1
-8 24 7 266.613 354.075 4
-8 -16 -7 449.066 299.542 3
24 -16 4 185.629 377.375 2
-8 -16 -4 965.242 478.251 2
-16 24 -4 702.468 475.538 1
-8 24 4 443.114 291.475 4
-8 24 4 957.389 366.755 1
-8 -16 -4 909.898 471.672 3
-16 24 -1 610.265 333.777 2
-8 24 1 126.548 224.34 1
24 -16 1 846.633 626.923 2
-8 24 1 88.1243 196.262 4
24 -8 -1 -297.242 284.721 2
-8 -16 -1 267.708 253.175 3
-8 -16 -1 584.49 338.452 2
-16 24 -1 334.721 289.861 1
-16 24 2 108.652 240.441 1
-16 24 2 -345.915 227.902 2
-8 24 -2 317.849 156.414 1
24 -8 2 892.122 712.273 2
24 -16 -2 531.817 450.868 2
-8 -16 2 -150.185 328.578 3
-8 24 -5 1087.23 483.171 1
-16 24 5 1675.96 497.073 2
-16 24 5 823.274 354.921 1
24 -8 5 1112.05 677.519 2
24 -16 -5 940.341 366.988 4
-16 24 5 1266.27 457.262 4
-8 -16 5 2234.89 818.771 3
24 -16 -5 1232.04 597.788 2
-16 24 8 420.865 221.173 1
-8 24 -8 669.812 425.211 1
-16 -8 -8 254.492 162.859 1
-16 24 8 146.228 199.414 2
24 -8 8 1012.01 708.533 2
24 -16 -8 657.068 319.535 4
-16 24 8 485.39 332.885 4
-8 -16 8 427.434 264.207 3
-7 24 8 1307.48 326.996 1
-7 -17 -8 1505.82 467.219 2
24 -17 8 1781.41 898.43 2
-17 24 -8 1497.28 494.123 1
-7 24 8 1330.89 719.277 4
-7 -17 -8 1583.47 723.009 3
24 -17 5 -2.9477 311.904 2
-7 -17 -5 454.357 265.755 2
-7 24 5 314.041 217.533 4
-17 24 -5 707.751 480.741 1
-7 24 5 684.204 350.2 1
-7 -17 -5 272.715 274.831 3
-7 24 2 -522.008 349.629 1
24 -17 2 -394.146 422.637 2
-7 24 2 443.391 255.693 4
-7 -17 -2 191.625 142.869 2
-17 24 -2 -346.137 438.224 1
24 -7 -2 583.701 514.925 2
-7 -17 -2 -303.604 469.692 3
-17 24 1 1386.43 536.109 1
-17 24 1 802.039 296.296 2
-7 24 -1 571.692 238.408 1
24 -17 -1 1345.84 571.106 2
-7 24 -1 290.081 164.624 4
24 -7 1 1729.16 736.141 2
-7 -17 1 511.089 475.84 3
-7 24 -4 411.821 165.019 1
-17 24 4 938.178 449.172 2
-17 24 4 609.756 377.954 1
24 -7 4 1192.17 620.119 2
24 -17 -4 1096.73 471.347 2
-7 -17 4 1230.67 678.743 3
-7 24 -7 650.302 495.423 1
-17 -7 -7 498.261 452.788 1
-17 24 7 477.727 345.042 2
24 -7 7 1147.27 766.386 2
24 -17 -7 66.8689 318.033 4
-17 24 7 585.327 278.133 4
-7 -17 7 1057.38 647.263 3
-17 24 7 725.737 404.087 1
-6 -18 -9 35.4216 172.474 2
24 -18 9 125.942 378.087 2
-6 24 9 623.327 436.522 4
-18 24 -9 -142.283 400.409 1
-6 24 9 291.066 140.374 1
-6 -18 -9 20.5616 268.692 3
24 -18 6 1438.06 858.782 2
-6 -18 -6 1395.01 425.242 2
-6 24 6 772.636 450.103 4
-18 24 -6 373.002 219.403 1
-6 24 6 1510.89 400.999 1
-6 -18 -6 1246.08 568.51 3
-6 24 3 3.72375 159.258 1
24 -18 3 588.721 329.019 2
-6 24 3 61.2749 353.3 4
-6 -18 -3 580.204 342.037 2
-18 24 -3 970.505 511.971 1
-6 -18 -3 -430.775 603.89 3
-18 24 0 1058.29 463.212 1
-6 24 0 992.88 416.925 1
24 -18 0 1783.1 736.823 2
-6 24 0 732.444 437.948 4
24 -6 0 667.901 428.293 2
-6 -18 0 464.624 459.623 3
-6 24 -3 -26.8715 203.892 1
-18 24 3 58.7113 225.884 2
-18 24 3 132.35 247.762 1
24 -6 3 419.001 417.054 2
24 -18 -3 798.639 417.234 2
-6 -18 3 405.307 452.92 3
-6 24 -6 1143.7 471.473 1
-18 -6 -6 990.549 419.217 1
-18 24 6 1248.83 470.599 2
24 -6 6 1413.05 663.804 2
24 -18 -6 1179.65 598.871 4
-18 24 6 1078.19 518.904 1
-6 -18 6 1025.56 702.476 3
-6 24 -9 113.998 259.357 1
-18 -6 -9 1479.08 703.016 1
-18 24 9 266.653 308.292 1
-18 24 9 127.995 251.093 2
24 -6 9 409.301 524.766 2
24 -18 -9 109.301 287.011 4
-18 24 9 402.775 176.665 4
-6 -18 9 571.917 594.858 3
-5 -19 -7 897.193 310.162 2
24 -19 7 813.883 630.664 2
-5 24 7 1910.89 812.471 4
-19 24 -7 1292.81 373.716 1
-5 24 7 588.025 248.124 1
-5 -19 -7 507.874 336.992 3
-5 24 4 -12.0589 184.51 1
24 -19 4 104.958 405.376 2
-5 24 4 -213.636 430.569 4
-5 -19 -4 -71.3125 238.809 2
-19 24 -4 -110.99 239.711 1
-5 -19 -4 -346.261 249.605 3
-19 24 -1 -353.156 431.139 1
-5 24 1 111.342 236.493 1
24 -19 1 654.815 399.858 2
-5 24 1 63.4979 161.342 4
24 -5 -1 318.752 215.921 2
-5 -19 -1 -405.346 517.738 3
-5 24 -2 130.931 290.757 1
-19 24 2 380.251 300.412 1
-19 24 2 430.723 297.96 2
24 -19 -2 390.52 478.662 2
-5 24 -2 -208.198 285.154 4
24 -5 2 329.394 430.27 2
-5 -19 2 265.864 491.971 3
-5 24 -5 408.285 289.487 1
-19 -5 -5 55.2617 261.658 1
-19 24 5 234.762 266.877 2
-19 24 5 176.462 377.144 1
24 -5 5 623.104 683.753 2
24 -19 -5 678.226 647.607 4
24 -19 -5 1247.53 693.158 2
-5 -19 5 217.853 321.485 3
-5 24 -8 141.46 286.175 1
-19 24 8 597.874 377.64 1
-19 -5 -8 230.97 261.139 1
-19 24 8 585.991 429.433 2
24 -5 8 815.595 611.677 2
24 -19 -8 794.776 509.448 4
-19 24 8 407.638 324.563 4
-5 -19 8 287.496 364.635 3
-4 24 8 327.989 169.98 1
-4 -20 -8 212.653 137.821 2
24 -20 8 1074.04 778.81 2
24 -4 -8 257.73 139.502 4
-4 24 8 537.808 334.18 4
-20 24 -8 692.202 398.112 1
-4 -20 -8 237.609 295.251 3
-4 24 5 453.694 255.999 1
24 -20 5 -553.229 465.904 2
-4 -20 -5 275.863 256.717 2
-4 24 5 -195.882 403.537 4
-20 24 -5 20.2642 471.616 1
-4 -20 -5 -77.1324 272.29 3
-20 24 -2 204.662 190.815 1
-4 24 2 142.131 221.238 1
24 -20 2 192.639 335.582 2
-4 24 2 309.861 341.117 4
-4 -20 -2 27.5945 343.449 3
-4 24 -1 421.833 298.641 1
-20 24 1 1137.62 564.692 1
24 -20 -1 976.907 541.205 2
-4 24 -1 904.005 481.266 4
24 -4 1 467.746 427.296 2
-4 -20 1 290.6 219.947 3
-4 24 -4 1184.89 454.002 1
-20 24 4 1113.71 576.075 2
-20 -4 -4 701.863 405.021 1
-20 24 4 1248.79 518.295 1
24 -4 4 1683.88 692.337 2
24 -20 -4 968.653 571.957 2
-4 -20 4 1391.29 675.038 3
-20 24 7 -404.376 283.518 1
-4 24 -7 -152.419 295.821 1
-20 -4 -7 658.378 402.013 1
-20 24 7 605.502 465.392 2
24 -20 -7 52.3846 408.096 4
24 -4 7 686.341 592.979 2
-4 -20 7 243.494 461.902 3
24 -21 6 1220.71 908.249 2
-3 24 6 599.435 227.925 1
-3 -21 -6 273.467 169.949 2
-3 24 6 767.947 431.843 4
-21 24 -6 757.103 496.779 1
-3 -21 -6 1097.73 591.819 3
-21 24 -3 1728.91 778.574 1
-3 24 3 537.413 211.169 1
24 -21 3 908.742 554.216 2
-3 24 3 1256.12 572.902 4
-3 -21 -3 618.769 247.402 2
-3 -21 -3 492.421 312.323 3
-3 24 0 914.629 386.014 1
-21 24 0 433.279 371.594 1
24 -21 0 228.421 238.675 2
-3 24 0 895.907 445.381 4
24 -3 0 277.036 340.293 2
-3 -21 0 1400.95 650.266 3
-3 24 -3 1607.59 535.884 1
-21 24 3 2688.01 806.763 1
-21 -3 -3 2407.63 689.986 1
24 -21 -3 2270.89 769.674 2
-3 24 -3 1631.28 530.212 4
24 -3 3 2505.13 857.13 2
-3 -21 3 1507.88 609.233 3
-3 24 -6 531.759 289.862 1
-21 -3 -6 262.102 288.577 1
24 -3 6 144.918 254.951 2
24 -21 -6 1286.67 677.441 2
-3 -21 6 907.634 456.705 3
-21 24 6 548.109 466.884 1
-2 -22 -7 -157.558 267.211 3
-2 -22 -7 -79.1444 149.347 2
24 -22 7 209.372 436.668 2
-2 24 7 335.101 187.714 1
24 -2 -7 153.048 141.063 4
-2 24 7 70.0653 326.047 4
-22 24 -7 233.358 285.049 1
-22 24 -4 687.913 545.263 1
-2 24 4 463.305 247.332 1
24 -22 4 528.72 353.352 2
-2 24 4 477.828 421.461 4
-2 -22 -4 426.683 203.818 2
-2 -22 -4 -196.707 477.118 3
-2 24 1 -21.4035 238.307 1
-22 24 -1 858.587 581.501 1
24 -22 1 85.1078 451.365 2
-2 24 1 684.031 378.317 4
-2 -22 -1 -361.384 521.819 3
-2 24 -2 23.6278 287.963 1
-22 24 2 826.651 537.163 1
24 -22 -2 826.716 521.451 2
-22 -2 -2 -21.3739 209.15 1
-2 24 -2 828.697 359.95 4
24 -2 2 329.099 382.026 2
-2 -22 2 1008.17 689.85 3
-2 24 -5 932.862 435.781 1
-22 -2 -5 1131.57 675.625 1
24 -2 5 1253.98 485.787 2
24 -22 -5 2398.64 796.305 2
-22 24 5 1243.73 472.035 1
-2 -22 5 1030.3 517.931 3
-1 -23 -5 -566.67 561.693 3
-23 24 -5 -46.5743 398.881 1
-1 24 5 263.644 156.533 1
24 -23 5 409.369 433.659 2
-1 24 5 413.125 417.458 4
-1 -23 -5 164.674 108.608 2
-1 -23 -2 -440.117 573.979 3
-1 24 2 -86.5833 204.699 1
-23 24 -2 17.1819 336.401 1
24 -23 2 -518.835 541.099 2
-1 24 2 -151.864 449.005 4
-1 24 -1 414.035 289.783 1
-23 24 1 252.456 232.484 1
24 -23 -1 710.318 457.072 2
-1 24 -1 -137.014 299.05 4
24 -1 1 773.465 471.7 2
-23 -1 -1 806.523 481.893 1
-1 -23 1 449.812 218.689 3
-1 24 -4 674.528 473.567 1
-23 -1 -4 490.196 553.012 1
24 -23 -4 627.297 446.835 2
-1 24 -4 280.806 156.527 4
-23 24 4 -153.788 203.785 1
24 -1 4 -166.374 419.04 2
-1 -23 4 1171.55 685.363 3
0 -24 -3 -87.9141 466.721 3
0 24 3 -21.6588 135.616 1
-24 24 -3 84.7162 411.688 1
24 -24 3 -421.297 479.788 2
0 24 3 -309.125 372.359 4
0 -24 0 -384.458 551.699 3
0 24 0 -325.467 340 1
-24 0 0 -581.841 502.781 1
-24 24 0 -413.969 491.093 1
24 -24 0 -15.4451 519.576 2
0 24 0 225.496 232.855 4
0 -24 3 -133.65 310.281 3
0 24 -3 172.9 284.95 1
-24 0 -3 257.148 418.791 1
24 -24 -3 697.853 412.805 2
-24 24 3 649.482 524.579 1
0 24 -3 -84.6713 320.541 4
24 0 3 -60.6918 384.58 2
1 -25 -4 -195.738 629.995 3
1 24 4 501.977 472.666 4
1 -25 -1 793.081 439.852 3
1 24 1 76.8481 160.548 1
-25 1 1 115.357 392.026 1
-25 24 -1 671.053 546.026 1
24 -25 1 -647.43 375.182 2
1 24 1 13.6898 351.579 4
1 -25 2 -432.978 227.234 3
1 24 -2 -55.2833 173.76 1
-25 24 2 324.181 443.738 1
24 -25 -2 808.431 566.775 2
1 24 -2 240.165 247.448 4
-25 1 -2 359.791 304.162 1
24 1 2 -161.413 378.211 2
2 -26 1 -376.864 524.466 3
2 24 -1 130.569 349.219 4
-12 -13 -8 78.1192 160.977 2
-13 25 -8 509.625 350.206 1
25 -13 8 400.192 317.85 2
-12 25 8 125.047 156.271 1
25 -12 -8 434.97 177.802 4
-12 25 8 108.294 211.126 4
-12 -13 -8 212.626 252.271 3
-12 25 5 606.605 324.707 1
-13 25 -5 926.631 407.286 1
-12 -13 -5 67.9566 311.963 2
25 -13 5 -100.353 365.275 2
-12 25 5 451.541 343.806 4
-12 -13 -5 674.31 516.775 3
-13 25 -2 292.585 239.148 1
25 -13 2 686.202 251.627 2
-12 25 2 231.467 212.752 4
-12 25 2 383.798 176.877 1
25 -12 -2 645.525 425.903 2
-12 25 -1 3780.78 886.68 1
25 -12 1 4025.34 1028.28 2
25 -13 -1 3965.32 1028.78 2
-13 25 1 2695.64 659.055 1
-13 25 4 544.676 357.884 1
-13 25 4 234.709 211.7 2
-12 25 -4 410.567 428.821 1
25 -12 4 1232.55 690.835 2
-13 25 4 271.98 299.113 4
25 -13 -4 760.717 348.422 2
-13 25 7 -38.2251 111.966 2
-12 25 -7 596.749 413.723 1
-13 -12 -7 339.76 176.357 2
-13 25 7 236.727 245.04 1
25 -12 7 -237.334 264.467 2
-13 25 7 -139.954 263.197 4
25 -13 -7 617.407 274.293 4
-13 -12 -7 515.982 343.438 3
-11 -14 -9 525.151 327.108 2
-14 25 -9 464.846 379.349 1
25 -14 9 659.484 414.338 2
-11 25 9 442.704 435.151 4
-11 -14 -9 176.218 383.703 3
-11 25 9 806.165 334.021 1
-11 25 6 468.541 160.839 1
-14 25 -6 732.99 478.988 1
-11 -14 -6 131.062 199.499 2
25 -14 6 689.373 644.338 2
-11 25 6 215.272 305.887 4
-11 -14 -6 853.941 562.206 3
-14 25 -3 150.952 185.114 1
25 -14 3 468.916 384.307 2
-11 -14 -3 562.457 376.36 2
-11 25 3 730.741 354.07 4
-11 25 3 361.987 389.166 1
-11 -14 -3 609.404 443.317 3
25 -11 -3 743.89 597.019 2
-11 25 0 766.213 380.638 1
25 -11 0 2075.73 731.938 2
-14 25 0 733.32 426.442 1
-11 -14 0 789.706 365.182 3
-14 25 3 781.598 399.816 1
-14 25 3 832.77 328.622 2
-11 25 -3 947.207 394.36 1
25 -11 3 985.55 604.162 2
-14 25 3 339.317 281.744 4
-11 -14 3 501.655 374.611 3
25 -14 -3 820.194 572.034 2
-14 25 6 306.239 237.851 2
-11 25 -6 368.632 315.111 1
-14 25 6 -78.5335 249.27 1
25 -11 6 946.04 597.068 2
-14 25 6 211.527 337.049 4
25 -14 -6 -110.855 291.444 4
-11 -14 6 315.155 240.65 3
-14 25 9 -195.292 266.688 1
-14 25 9 -122.217 104.29 2
-11 25 -9 211.223 300.236 1
25 -11 9 -682.894 498.162 2
25 -14 -9 83.2727 143.45 4
-14 25 9 160.65 207.486 4
-11 -14 9 39.6634 533.682 3
-14 -11 -9 -359.519 472.83 3
-10 25 7 385.163 113.983 1
-10 -15 -7 905.725 456.626 2
25 -15 7 965.038 508.233 2
-15 25 -7 446.005 219.547 1
-10 25 7 411.626 353.828 4
-10 -15 -7 591.849 422.189 3
25 -15 4 738.341 659.807 2
-15 25 -4 291.502 230.746 1
-10 -15 -4 -134.903 326.229 2
-10 25 4 210.44 312.616 4
-10 -15 -4 -323.535 434.99 3
-10 25 4 93.8774 175.964 1
-15 25 -1 -19.5156 238.366 2
-10 25 1 300.217 283.034 1
25 -15 1 751.616 581.232 2
-10 25 1 258.489 311.096 4
-15 25 -1 -972.258 591.96 1
25 -10 -1 695.458 561.312 2
-10 -15 -1 181.141 197.012 2
-10 -15 -1 576.762 336.195 3
-15 25 2 1421.46 551.866 1
-15 25 2 1524.78 449.403 2
-10 25 -2 1498.94 579.686 1
25 -10 2 1679.15 679.043 2
25 -15 -2 1503.41 650.246 2
-10 -15 2 926.145 407.9 3
-15 25 5 644.386 318.101 2
-15 25 5 1023.1 474.923 1
-10 25 -5 -271.853 226.657 1
25 -10 5 246.032 380.941 2
-15 25 5 17.7988 179.125 4
-10 -15 5 156.999 240.345 3
25 -15 -5 -249.895 400.398 2
-15 25 8 342.233 197.857 2
-10 25 -8 -432.494 513.348 1
25 -10 8 -225.294 268.251 2
25 -15 -8 -187.053 242.641 4
-15 25 8 -352.72 459.901 4
-10 -15 8 280.226 403.533 3
-15 25 8 9.08851 169.758 1
-9 -16 -8 157.897 238.21 2
-9 25 8 905.612 339.009 1
25 -16 8 599.741 539.549 2
-16 25 -8 169.521 225.875 1
-9 25 8 270.62 248.706 4
25 -9 -8 214.76 124.614 4
-9 -16 -8 275.57 403.006 3
25 -16 5 666.211 406.099 2
-9 -16 -5 308.921 141.504 2
-16 25 -5 112.819 329.296 1
-9 25 5 330.855 307.52 4
-9 -16 -5 -35.3139 503.719 3
-9 25 5 -120.311 238.353 1
-9 25 2 -72.3684 152.816 1
25 -16 2 32.7944 404.643 2
-9 25 2 -320.282 253.072 4
-9 -16 -2 -387.951 285.808 2
-16 25 -2 549.85 517.761 1
25 -9 -2 636.313 501.317 2
-9 -16 -2 -131.502 431.696 3
-16 25 1 593.871 342.071 1
-16 25 1 949.967 396.081 2
-9 25 -1 1245.48 547.549 1
25 -16 -1 1386.64 765.785 2
25 -9 1 1462.81 681.664 2
-9 25 -1 956.221 485.366 4
-9 -16 1 769.042 476.14 3
-16 25 4 392.978 211.617 2
-16 25 4 322.643 161.379 1
-9 25 -4 337.191 321.552 1
25 -9 4 343.518 317.427 2
25 -16 -4 640.798 553.212 2
-9 -16 4 255.849 461.733 3
-9 25 -7 -198.087 254.402 1
-16 25 7 250.102 248.13 2
25 -9 7 71.7311 462.811 2
25 -16 -7 890.487 553.447 4
-16 25 7 515.422 326.85 1
-16 25 7 307.376 239.905 4
-9 -16 7 722.074 430.074 3
25 -17 6 -391.552 526.527 2
-8 -17 -6 1648.43 589.564 2
-17 25 -6 510.216 205.108 1
-8 25 6 803.393 389.194 4
-8 -17 -6 534.475 386.916 3
-8 25 6 904.652 325.885 1
25 -17 3 815.298 696.097 2
-8 25 3 279.044 218.364 1
-8 25 3 432.386 408.171 4
-8 -17 -3 171.354 201.912 2
-17 25 -3 -386.307 392.808 1
-8 -17 -3 -56.5322 393.689 3
-17 25 0 213.406 395.328 1
-17 25 0 646.117 400.557 2
-8 25 0 263.915 272.002 1
25 -17 0 275.285 329.623 2
-8 25 0 192.129 197.956 4
25 -8 0 317.455 269.207 2
-8 -17 0 915.574 564.76 3
-17 25 3 142.004 310.2 1
-17 25 3 452.482 326.583 2
-8 25 -3 97.15 276.354 1
25 -8 3 -2.23051 299.665 2
25 -17 -3 352.452 214.142 2
-8 -17 3 -365.125 322.827 3
-8 25 -6 739.983 434.96 1
-17 25 6 1418.23 479.366 2
-17 -8 -6 766.038 472.47 1
-17 25 6 378.049 321.77 1
25 -8 6 629.991 382.713 2
25 -17 -6 272.116 351.891 4
-17 25 6 201.88 248.601 4
-8 -17 6 991.501 726.859 3
-7 25 7 322.971 241.953 1
-7 -18 -7 850.104 416.984 2
25 -18 7 926.826 772.046 2
-7 25 7 272.174 225.716 4
-18 25 -7 455.224 254.594 1
-7 -18 -7 174.003 396.461 3
25 -18 4 798.586 624.775 2
-7 25 4 249.874 143.954 1
-7 -18 -4 515.37 274.377 2
-7 25 4 693.103 525.135 4
-18 25 -4 -132.926 471.218 1
-7 -18 -4 -310.924 431.908 3
-18 25 -1 510.001 428.313 1
-7 25 1 1552.97 468.538 1
25 -18 1 1484.92 647.348 2
-7 25 1 808.864 396.223 4
25 -7 -1 1033.6 520.161 2
-7 -18 -1 693.179 463.04 3
-18 25 2 452.311 291.668 1
-18 25 2 465.521 328.639 2
-7 25 -2 508.062 302.094 1
25 -18 -2 484.995 541.074 2
25 -7 2 48.0068 391.912 2
-7 25 -2 342.656 196.644 4
-7 -18 2 -39.7608 430.644 3
-7 25 -5 600.529 342.449 1
-18 -7 -5 350.057 270.784 1
-18 25 5 1485.3 472.564 2
-18 25 5 1589.84 536.377 1
25 -7 5 -30.6847 244.772 2
25 -18 -5 1838.1 841.107 4
25 -18 -5 850.711 550.025 2
-7 -18 5 822.979 545.623 3
-18 -7 -8 229.18 235.235 1
-18 25 8 304.051 370.086 1
-7 25 -8 412.139 260.54 1
-18 25 8 187.838 216.851 2
25 -7 8 -215.697 469.455 2
25 -18 -8 475.051 318.031 4
-18 25 8 418.024 262.909 4
-7 -18 8 863.902 644.278 3
-6 25 8 413.522 191.358 1
-6 -19 -8 638.786 324.679 2
25 -19 8 -62.622 315.058 2
25 -6 -8 -141.921 115.059 4
-6 25 8 524.707 586.21 4
-19 25 -8 280.799 265.271 1
-6 -19 -8 1015.97 657.472 3
25 -19 5 2068.95 756.341 2
-6 -19 -5 938.712 407.855 2
-6 25 5 423.459 170.756 1
-6 25 5 1356.97 654.692 4
-19 25 -5 838.883 356.67 1
-6 -19 -5 882.125 570.731 3
-6 25 2 331.588 290.421 1
25 -19 2 377.691 410.697 2
-6 25 2 175.506 233.724 4
-6 -19 -2 136.989 201.915 2
-6 -19 -2 114.187 269.383 3
-19 25 -2 423.5 362.819 1
-19 25 1 874.582 551.102 1
-6 25 -1 237.754 332.155 1
25 -19 -1 -122.253 244.139 2
-6 25 -1 172.796 350.553 4
25 -6 1 1069.77 604.79 2
-6 -19 1 -83.2121 450.057 3
-19 -6 -4 502.714 281.464 1
-6 25 -4 539.552 257.92 1
-19 25 4 899.06 494.165 2
-19 25 4 568.681 399.879 1
25 -6 4 961.495 586.956 2
25 -19 -4 873.347 640.062 4
25 -19 -4 744.642 439.488 2
-6 -19 4 834.303 566.921 3
-19 -6 -7 396.595 384.291 1
-6 25 -7 242.331 378.314 1
-19 25 7 332.093 428.213 2
25 -6 7 577.8 598.228 2
25 -19 -7 690.911 373.612 4
-6 -19 7 447.297 382.425 3
-19 25 7 533.881 322.268 1
25 -20 6 1092.2 860.75 2
-5 -20 -6 462.761 295.437 2
-5 25 6 338.901 224.587 1
-5 25 6 212.363 312.727 4
-20 25 -6 753.526 384.746 1
-5 -20 -6 136.141 278.491 3
-5 25 3 356.684 208.556 1
25 -20 3 -275.18 229.208 2
-5 25 3 -176.882 237.535 4
-5 -20 -3 546.114 282.268 2
-5 -20 -3 246.278 400.794 3
-20 25 -3 154.014 351.617 1
-20 25 0 736.879 431.603 1
-5 25 0 257.523 210.784 1
25 -20 0 46.8179 284.384 2
-5 25 0 113.821 178.042 4
25 -5 0 436.328 406.175 2
-5 -20 0 -725.116 694.438 3
-5 25 -3 214.45 345.762 1
-20 -5 -3 31.0937 378.997 1
-20 25 3 310.23 194.48 1
25 -20 -3 618.04 542.727 2
25 -5 3 -152.058 205.891 2
-5 25 -3 205.05 205.486 4
-5 -20 3 724.262 601.033 3
-20 -5 -6 -108.816 248.046 1
-5 25 -6 271.807 402.093 1
-20 25 6 -198.548 345.794 2
25 -5 6 761.849 651.485 2
25 -20 -6 656.747 734.948 4
-20 25 6 -16.255 202.568 1
25 -20 -6 75.6547 283.618 2
-5 -20 6 1196.44 692.728 3
-4 -21 -7 -38.9441 115.861 2
-4 25 7 162.573 377.524 4
-4 -21 -7 -278.939 472.59 3
-21 25 -4 511.162 651.192 1
-4 25 4 303.84 230.672 1
25 -21 4 490.514 656.777 2
-4 25 4 -120.354 201.746 4
-4 -21 -4 -468.273 313.906 2
-4 -21 -4 106.085 279.354 3
-21 25 -1 76.2841 200.464 1
-4 25 1 204.62 198.481 1
25 -21 1 390.259 280.914 2
-4 25 1 377.277 380.633 4
-4 -21 -1 1002.88 650.63 3
-4 25 -2 -485.385 326.98 1
-21 25 2 783.852 255.059 1
-21 -4 -2 148.385 319.211 1
25 -21 -2 317.186 332.688 2
-4 25 -2 -189.016 179.177 4
25 -4 2 336.849 467.824 2
-4 -21 2 -238.808 574.43 3
-21 -4 -5 1418.01 572.636 1
-4 25 -5 1215.14 543.641 1
25 -4 5 1517.08 716.677 2
-21 25 5 1616.01 691.161 1
25 -21 -5 898.37 574.601 2
-4 -21 5 287.779 364.053 3
-22 25 -5 209.271 292.285 1
-3 25 5 274.613 157.726 1
25 -22 5 911.958 688.487 2
-3 -22 -5 30.8099 166.363 2
-3 25 5 71.4476 257.379 4
-3 -22 -5 398.063 317.085 3
-22 25 -2 602.369 404.569 1
-3 25 2 379.895 228.604 1
25 -22 2 133.252 349.632 2
-3 25 2 23.004 222.257 4
-3 -22 -2 -14.9703 336.969 3
-22 -3 -1 312.015 359.289 1
-3 25 -1 354.158 215.799 1
-22 25 1 674.796 403.824 1
25 -22 -1 238 349.17 2
-3 25 -1 935.389 445.406 4
25 -3 1 468.242 320.119 2
-3 -22 1 140.495 383.416 3
-3 25 -4 650.347 310.877 1
-22 -3 -4 725.563 494.029 1
-22 25 4 1140.42 645.593 1
25 -3 4 1090.31 682.782 2
25 -22 -4 1503.47 725.86 2
-3 25 -4 990.882 416.353 4
-3 -22 4 1002.76 483.903 3
-23 25 -3 -456.92 551.483 1
-2 25 3 136.476 200.386 1
25 -23 3 -85.5231 254.543 2
-2 25 3 -69.9957 191.904 4
-2 -23 -3 -297.526 355.721 3
-2 25 0 98.5229 200.1 1
-23 25 0 -79.083 285.261 1
25 -23 0 586.391 518.101 2
-23 -2 0 832.38 509.172 1
-2 25 0 123.686 284.856 4
-2 -23 0 204.077 323.579 3
-2 25 -3 388.422 282.379 1
-23 -2 -3 143.503 280.243 1
-23 25 3 508.769 449.752 1
25 -23 -3 468.624 379.136 2
-2 25 -3 -285.573 303.504 4
25 -2 3 617.538 556.146 2
-2 -23 3 -172.736 551.981 3
-1 -24 -4 254.51 281.338 3
-1 25 4 266.828 491.416 4
-1 -24 -1 89.1995 373.655 3
-1 25 1 89.4695 172.55 1
-24 25 -1 -7.02406 268.254 1
-24 -1 1 19.6262 286.742 1
-1 25 1 -427.942 184.946 4
-1 25 -2 261.396 256.139 1
-24 -1 -2 548.861 452.731 1
-24 25 2 1251.45 580.769 1
25 -24 -2 -173.332 423.456 2
-1 25 -2 -51.5554 321.882 4
25 -1 2 9.42666 224.064 2
-1 -24 2 -86.8962 378.228 3
0 25 2 360.356 449.711 4
0 -25 1 450.784 534.808 3
0 25 -1 -66.1536 309.954 1
25 -25 -1 143.379 420.753 2
-25 0 -1 -139.08 393.575 1
0 25 -1 -352.337 311.944 4
-13 26 0 5419.55 1039.93 1
26 -13 0 7120.4 1345.85 2
-13 26 -3 -304.888 364.7 1
26 -13 3 112.314 501.35 2
-13 26 3 -368.28 308.495 4
26 -13 -3 295.675 515.502 2
-13 26 3 348.692 286.567 1
-13 26 6 398.616 318.096 1
-13 26 -6 129.874 312.437 1
-13 -13 -6 552.153 445.096 2
26 -13 6 84.3355 361.633 2
-13 26 6 195.598 233.03 4
-13 -13 -6 27.5579 374.019 3
-12 26 7 446.034 288.049 1
-12 -14 -7 494.405 380.633 2
-14 26 -7 186.089 484.419 1
26 -14 7 774.023 766.981 2
-12 26 7 155.07 237.538 4
-12 -14 -7 310.439 372.714 3
-12 26 4 734.425 372.954 1
-14 26 -4 170.496 266.927 1
26 -14 4 415.436 335.451 2
-12 -14 -4 173.591 195.887 2
-12 26 4 1073.83 533.077 4
-12 -14 -4 19.071 359.432 3
26 -12 -4 387.161 494.492 2
-12 26 1 193.56 163.079 1
-14 26 -1 487.763 247.283 1
26 -14 1 1234.68 630.595 2
-12 26 1 488.81 419.3 4
26 -12 -1 229.367 419.661 2
-12 -14 -1 -49.9337 324.447 3
-12 26 -2 1661.85 651.668 1
26 -12 2 1163.76 582.917 2
26 -14 -2 670.328 501.557 2
-14 26 2 269.295 237.643 1
-14 26 5 186.409 164.68 2
-14 26 5 598.782 370.675 1
-12 26 -5 495.922 392.157 1
26 -12 5 647.89 716.131 2
-14 26 5 492.685 395.782 4
-14 26 8 124.641 150.162 2
-12 26 -8 146.479 213.612 1
26 -12 8 -380.99 472.485 2
26 -14 -8 143.998 200.963 4
-14 26 8 124.831 199.535 4
-14 26 8 148.878 206.941 1
-14 -12 -8 430.504 401.224 3
-11 -15 -8 253.906 376.732 2
-15 26 -8 194.451 428.318 1
-11 26 8 410.102 279.791 1
26 -15 8 874.878 595.162 2
-11 26 8 -549.565 503.128 4
26 -11 -8 -194.281 159.675 4
-11 -15 -8 302.789 505.291 3
-11 26 5 847.385 376.168 1
26 -15 5 935.72 636.137 2
-15 26 -5 351.677 409.54 1
-11 -15 -5 133.166 246.183 2
-11 26 5 730.976 447.568 4
-11 -15 -5 1051.04 602.936 3
26 -15 2 2090 848.664 2
-15 26 -2 1615.15 616.22 1
-11 26 2 2285 671.55 1
-11 26 2 1453.8 516.303 4
-11 -15 -2 2465.32 897.011 3
26 -11 -2 1615.29 556.787 2
-15 26 1 1588.72 484.254 2
-11 26 -1 1444.7 510.819 1
26 -11 1 1483.7 578.085 2
26 -15 -1 1409.54 698.187 2
-11 -15 1 668.158 455.112 3
-15 26 1 1249.35 532.563 1
-15 26 4 1099.26 348.126 2
-15 26 4 1180.92 549.273 1
-11 26 -4 871.571 443.648 1
26 -11 4 1085.88 564.45 2
-15 26 4 616.044 325.269 4
-11 -15 4 1104.19 709.968 3
26 -15 -4 1299.99 525.312 2
-15 26 7 565.921 239.871 2
-11 26 -7 1283.36 520.706 1
26 -11 7 339.668 336.239 2
-15 26 7 636.909 389.51 1
26 -15 -7 410.058 291.706 4
-15 26 7 292.213 176.403 4
-11 -15 7 -113.501 284.685 3
-10 26 6 544.756 330.059 1
-10 -16 -6 412.126 330.009 2
26 -16 6 463.543 449.815 2
-16 26 -6 74.4542 446.74 1
-10 26 6 257.635 484.699 4
-10 -16 -6 773.926 552.437 3
26 -16 3 721.542 506.568 2
-16 26 -3 703.933 477.482 1
-10 -16 -3 856.882 363.001 2
-10 26 3 485.3 273.41 1
-10 26 3 186.337 170.261 4
-10 -16 -3 178.262 358.346 3
26 -10 -3 348.672 260.324 2
-16 26 0 140.632 149.546 2
-10 26 0 616.015 370.044 1
26 -16 0 889.361 565.378 2
-10 26 0 362.971 282.161 4
26 -10 0 1058.25 572.567 2
-10 -16 0 48.561 392.83 3
-16 26 0 -125.052 352.893 1
-16 26 3 477.005 345.843 1
-16 26 3 413.783 225.833 2
-10 26 -3 843.253 381.272 1
26 -10 3 1226 702.517 2
26 -16 -3 -10.965 288.758 2
-10 -16 3 148.933 277.104 3
-16 26 6 323.685 245.76 2
-10 26 -6 332.75 301.913 1
-16 26 6 126.071 187.98 1
26 -10 6 -598.018 599.06 2
26 -16 -6 786.682 584.171 4
-16 26 6 6.18933 303.006 4
-10 -16 6 481.871 298.399 3
-9 26 7 332.513 251.588 1
-9 -17 -7 8.31 267.614 2
26 -17 7 -19.5363 371.601 2
-17 26 -7 -74.7233 398.575 1
-9 26 7 -244.271 300.92 4
-9 -17 -7 360.685 212.753 3
26 -17 4 240.072 295.605 2
-9 -17 -4 33.1031 179.498 2
-9 26 4 -111.622 369.428 4
-17 26 -4 283.724 262.707 1
-9 26 4 -195.071 249.042 1
-9 -17 -4 -141.524 366.873 3
-9 26 1 334.729 197.086 1
26 -17 1 1293.08 643.628 2
-9 26 1 184.908 325.521 4
26 -9 -1 825.279 441.885 2
-9 -17 -1 -204.093 273.271 2
-9 -17 -1 76.8938 422.75 3
-17 26 -1 144.937 340.146 1
-17 26 2 -191.349 278.3 1
-17 26 2 1281.22 510.648 2
-9 26 -2 715.05 390.954 1
26 -9 2 684.655 428.628 2
26 -17 -2 473.269 468.188 2
-9 -17 2 40.4018 386.278 3
-17 26 5 229.97 225.839 2
-9 26 -5 410.422 337.305 1
-17 26 5 123.219 280.791 1
26 -9 5 103.181 316.603 2
26 -17 -5 45.5815 367.011 4
-17 26 5 146.099 186.982 4
-9 -17 5 -40.3176 330.146 3
26 -17 -5 130.052 275.124 2
26 -18 5 432.73 388.672 2
-8 -18 -5 425.664 226.938 2
-8 26 5 104.028 370.462 4
-18 26 -5 162.2 347.751 1
-8 26 5 385.119 218.663 1
-8 -18 -5 -73.2217 237.925 3
-8 26 2 646.78 333.211 1
26 -18 2 205.903 515.439 2
-8 26 2 -64.4587 210.074 4
-8 -18 -2 515.366 298.036 2
26 -8 -2 1050.89 655.676 2
-8 -18 -2 544.614 451.403 3
-18 26 -2 -32.8168 293.763 1
-18 26 1 166.979 295.569 1
-18 26 1 205.811 280.097 2
-8 26 -1 267.089 205.213 1
26 -18 -1 376.201 416.094 2
-8 26 -1 760.037 456.115 4
26 -8 1 -161.932 276.645 2
-8 -18 1 543.614 532.714 3
-18 26 4 199.727 287.911 2
-8 26 -4 -214.078 451.507 1
-18 26 4 217.405 178.26 1
26 -8 4 -1.99178 315.578 2
26 -18 -4 587.073 525.412 2
-8 -18 4 -808.987 580.323 3
-8 26 -7 319.075 434.819 1
-18 26 7 174.289 219.68 2
-18 -8 -7 456.494 379.11 1
26 -8 7 162.615 255.707 2
26 -18 -7 569.391 392.122 4
-18 26 7 384.577 305.589 4
-18 26 7 773.954 480.796 1
-8 -18 7 522.819 512.134 3
26 -19 6 815.127 597.03 2
-7 -19 -6 793.981 397.193 2
-7 26 6 671.03 441.374 4
-19 26 -6 738.043 488.094 1
-7 26 6 457.327 240.251 1
-7 -19 -6 381.607 276.397 3
-7 26 3 329.74 213.256 1
26 -19 3 306.358 549.93 2
-7 26 3 564.606 309.404 4
-7 -19 -3 624.893 323.287 2
-19 26 -3 1171.02 623.269 1
-7 -19 -3 394.797 389.073 3
-19 26 0 220.512 355.159 1
-7 26 0 170.721 197.345 1
26 -19 0 322.113 512.187 2
-7 26 0 -12.6474 318.444 4
26 -7 0 -57.7156 375.534 2
-7 -19 0 134.341 496.347 3
-19 26 3 1259.36 526.04 2
-7 26 -3 1834.37 602.098 1
-19 26 3 1953.61 705.269 1
26 -7 3 1393.89 738.32 2
26 -19 -3 1244.24 708.214 2
-7 -19 3 1177.42 647.734 3
-7 26 -6 746.494 420.198 1
-19 26 6 423.224 295.285 2
-19 -7 -6 549.632 480.111 1
26 -7 6 103.888 437.745 2
-19 26 6 1038.55 575.684 1
26 -19 -6 1054.71 713.75 4
-7 -19 6 -52.8178 251.277 3
-6 26 4 12.0748 206.747 1
26 -20 4 740.284 663.958 2
-6 26 4 403.647 334.084 4
-6 -20 -4 283.865 176.721 2
-20 26 -4 421.114 436.396 1
-6 -20 -4 -180.052 427.469 3
-20 26 -1 393.878 392.86 1
-6 26 1 901.651 516.989 1
26 -20 1 194.8 307.307 2
-6 26 1 970.522 471.938 4
26 -6 -1 975.914 498.198 2
-6 -20 -1 1422.93 721.391 3
-6 26 -2 675.115 286.94 1
-20 26 2 518.057 423.927 1
26 -20 -2 537.35 501.383 2
-6 26 -2 2.87892 166.106 4
26 -6 2 460.874 386.404 2
-6 -20 2 180.709 291.979 3
-6 26 -5 104.716 267.853 1
-20 26 5 73.7129 281.844 2
-20 -6 -5 332.619 225.623 1
-20 26 5 671.057 406.676 1
26 -6 5 588.634 561.727 2
26 -20 -5 318.406 460.863 4
26 -20 -5 112.25 337.066 2
-6 -20 5 389.237 372.356 3
26 -21 5 103.591 415.208 2
-5 26 5 0.31805 177.929 1
-5 -21 -5 -205.416 338.429 2
-5 26 5 591.841 461.092 4
-21 26 -5 -26.7579 498.206 1
-5 -21 -5 -176.896 256.702 3
-21 26 -2 659.686 569.198 1
-5 26 2 85.5102 312.668 1
26 -21 2 1076.81 676.727 2
-5 26 2 -264.269 197.82 4
-5 -21 -2 21.1903 287.772 3
-5 26 -1 786.307 483.921 1
-21 26 1 832.108 450.328 1
26 -21 -1 511.709 453.742 2
-5 26 -1 409.836 272.307 4
26 -5 1 1019.22 601.791 2
-5 -21 1 401.272 253.874 3
-5 26 -4 235.007 237.996 1
-21 -5 -4 92.1929 328.756 1
-21 26 4 -230.018 264.628 1
26 -5 4 764.561 618.033 2
26 -21 -4 650.602 607.672 2
-5 -21 4 683.039 449.331 3
-22 26 -3 128.09 330.394 1
-4 26 3 -280.491 246.888 1
26 -22 3 387.347 527.467 2
-4 26 3 498.016 352.588 4
-4 -22 -3 193.154 234.526 2
-4 -22 -3 263.796 396.147 3
-4 26 0 234.544 338.473 1
-22 26 0 555.866 421.937 1
26 -22 0 112.413 347.916 2
-4 26 0 139.017 175.283 4
26 -4 0 -2.97793 366.754 2
-4 -22 0 29.1122 250.669 3
-4 26 -3 -112.686 295.131 1
-22 26 3 213.14 297.692 1
-22 -4 -3 -217.739 397.429 1
26 -22 -3 950.707 541.392 2
-4 26 -3 6.86334 244.416 4
26 -4 3 599.247 402.774 2
-4 -22 3 352.047 556.681 3
-3 26 1 154.481 272.697 1
-23 26 -1 -324.175 389.765 1
26 -23 1 433.241 506.394 2
-3 26 1 253.504 247.721 4
-3 -23 -1 32.6985 367.281 3
-3 26 -2 390.98 282.217 1
-23 26 2 771.152 482.428 1
26 -23 -2 357.755 481.573 2
-3 26 -2 -21.369 215.145 4
-23 -3 -2 281.428 336.444 1
26 -3 2 297.193 244.836 2
-3 -23 2 870.136 554.235 3
-2 26 -1 -129.438 322.455 4
-2 -24 1 371.352 606.304 3
-13 27 5 979.013 371.12 1
-14 27 -5 361.444 448.541 1
27 -14 5 985.453 713.01 2
-13 27 5 652.819 360.331 4
-13 -14 -5 127.081 289.185 3
-14 27 -2 1034.04 463.025 1
27 -14 2 1040.53 661.9 2
-13 27 2 280.002 286.861 4
-13 -14 -2 1076.26 548.819 3
27 -13 -2 1856.3 765.011 2
-13 27 2 937.174 445.092 1
-13 27 -1 1460.62 604.55 1
27 -13 1 2245.77 786.504 2
27 -14 -1 1582.58 719.666 2
-14 27 1 1618.72 577.961 1
-14 27 4 -129.181 230.473 1
-13 27 -4 303.594 470.28 1
27 -13 4 536.625 269.388 2
-14 27 4 156.709 190.314 4
27 -14 -4 313.562 376.407 2
-12 27 6 -278.407 284.701 1
-12 -15 -6 31.3772 278.961 2
-15 27 -6 238.063 430.058 1
27 -15 6 221.077 288.529 2
-12 27 6 74.7704 203.862 4
-12 -15 -6 -229.914 406.201 3
27 -15 3 565.771 497.795 2
-15 27 -3 345.809 198.745 1
-12 27 3 62.5308 234.428 4
-12 -15 -3 177.698 330.933 3
-12 27 3 137.212 187.508 1
27 -12 -3 869.257 512.435 2
-12 27 0 753.189 367.031 1
27 -15 0 537.628 397.029 2
27 -12 0 873.815 565.521 2
-15 27 0 489.641 321.598 1
-12 -15 0 703.294 498.751 3
-15 27 3 5.26139 256.652 1
-15 27 3 340.062 280.743 2
-12 27 -3 559.571 453.768 1
27 -12 3 -84.4142 370.281 2
-15 27 3 450.558 307.052 4
-12 -15 3 -612.987 641.174 3
27 -15 -3 597.057 543.426 2
-15 27 6 635.146 296.512 2
-15 27 6 538.593 374.783 1
-12 27 -6 548.38 409.586 1
27 -12 6 -160.274 377.166 2
-15 27 6 517.697 352.586 4
-12 -15 6 409.292 522.943 3
27 -16 4 1706.7 902.08 2
-11 -16 -4 1030.07 552.673 2
-16 27 -4 896.993 573.521 1
-11 27 4 323.039 400.261 4
-11 -16 -4 583.835 439.976 3
-11 27 4 669.713 385.218 1
-11 27 1 1450.09 577.523 1
27 -16 1 2112.01 801.028 2
-11 27 1 972.844 520.84 4
-16 27 -1 1541.91 680.232 1
27 -11 -1 1306.87 684.014 2
-11 -16 -1 912.634 551.844 3
-16 27 2 743.791 387.958 1
-16 27 2 200.519 119.997 2
-11 27 -2 582.793 342.084 1
27 -11 2 379.007 274.03 2
27 -16 -2 1368.62 676.953 2
-11 -16 2 1165.52 613.614 3
-16 27 5 320.845 226.31 2
-16 27 5 463.594 388.404 1
-11 27 -5 299.657 248.194 1
27 -11 5 1104.48 901.416 2
-16 27 5 -90.9835 205.471 4
-11 -16 5 280.251 544.41 3
27 -16 -5 134.488 247.823 2
27 -17 5 425.981 373.777 2
-10 -17 -5 324.949 217.432 2
-17 27 -5 128.482 362.352 1
-10 27 5 -2.33217 386.944 4
-10 -17 -5 505.161 541.717 3
-10 27 5 587.088 287.812 1
-10 27 2 817.131 364.211 1
27 -17 2 281.337 354.055 2
-10 27 2 259.448 191.849 4
-17 27 -2 -265.805 437.809 1
27 -10 -2 142.204 463.476 2
-10 -17 -2 196.53 429.972 3
-17 27 1 -305.088 502.407 1
-17 27 1 -378.065 336.866 2
-10 27 -1 497.805 306.898 1
27 -17 -1 -323.2 351.519 2
27 -10 1 5.78943 349.515 2
-10 -17 1 -565.82 601.265 3
-17 27 4 378.924 182.154 2
-17 27 4 406.733 270.464 1
-10 27 -4 704.8 467.385 1
27 -10 4 1091.84 635.741 2
27 -17 -4 478.987 402.677 2
-10 -17 4 291.752 436.698 3
-9 27 6 1398.41 685.024 4
27 -18 3 752.095 532.778 2
-9 27 3 1086.3 421.721 1
-9 27 3 671.869 369.295 4
-9 -18 -3 1346.89 599.17 2
-18 27 -3 736.608 532.665 1
-9 -18 -3 1494.22 688.189 3
-18 27 0 874.845 483.352 1
-9 27 0 863.291 479.106 1
27 -18 0 1592.51 773.545 2
-9 27 0 153.978 312.926 4
27 -9 0 729.037 500.362 2
-9 -18 0 196.694 392.871 3
-18 27 3 675.617 336.353 2
-18 27 3 951.839 486.255 1
-9 27 -3 542.834 454.541 1
27 -9 3 410.76 505.985 2
27 -18 -3 767.499 545.868 2
-9 -18 3 -528.056 698.274 3
27 -19 4 -126.079 471.438 2
-8 27 4 199.452 269.684 1
-8 -19 -4 265.293 347.726 2
-8 27 4 137.776 210.329 4
-19 27 -4 -270.098 469.586 1
-8 -19 -4 435.612 311.974 3
-19 27 -1 -149.318 244.582 1
-8 27 1 -48.0167 305.293 1
27 -19 1 -6.01954 391.278 2
-8 27 1 705.083 488.989 4
27 -8 -1 375.82 370.027 2
-8 -19 -1 -121.176 285.738 2
-8 -19 -1 59.8266 514.701 3
-19 27 2 45.2243 279.983 1
-19 27 2 378.388 333.706 2
-8 27 -2 156.023 209.388 1
27 -19 -2 907.38 632.637 2
27 -8 2 343.4 388.706 2
-8 -19 2 -51.89 260.673 3
-19 27 5 889.887 489.935 2
-8 27 -5 -243.437 403.035 1
-19 27 5 615.504 432.165 1
27 -8 5 -510.926 466.138 2
27 -19 -5 838.305 519.166 4
27 -19 -5 1219.1 773.682 2
-8 -19 5 928.121 480.869 3
-7 27 5 541.048 382.567 4
-20 27 -2 16.5867 310.16 1
-7 27 2 66.518 263.302 1
27 -20 2 -121.788 451.632 2
-7 27 2 37.1139 240.184 4
-7 -20 -2 46.5462 154.937 2
-7 -20 -2 -328.914 255.154 3
-20 27 1 645.23 352.171 1
-7 27 -1 157.752 261.752 1
27 -20 -1 1093.54 609.066 2
-7 27 -1 201.795 186.111 4
27 -7 1 43.9089 275.627 2
-7 -20 1 456.919 512.941 3
-7 27 -4 -132.43 334.785 1
-20 27 4 332.927 154.95 2
-20 27 4 516.548 376.44 1
27 -7 4 180.788 348.662 2
27 -20 -4 -359.056 332.882 2
-21 27 -3 726.068 458.758 1
-6 27 3 232.987 231.137 1
27 -21 3 182.552 293.72 2
-6 27 3 -177.893 245.695 4
-6 -21 -3 245.855 242.454 2
-6 -21 -3 -203.81 530.38 3
-21 27 0 521.624 517.897 1
-6 27 0 419.608 317.936 1
27 -21 0 -67.715 310.063 2
-6 27 0 -133.961 385.373 4
27 -6 0 164.049 422.093 2
-6 -21 0 425.436 342.967 3
-6 27 -3 663.633 426.277 1
-21 27 3 -362.531 294.706 1
27 -21 -3 204.903 223.767 2
27 -6 3 -496.263 560.72 2
-6 27 -3 313.636 312.577 4
-6 -21 3 -168.512 445.35 3
-22 27 -1 546.918 489.432 1
-5 27 1 107.173 337.3 1
27 -22 1 930.424 588.791 2
-5 27 1 126.437 230.435 4
-5 -22 -1 242.193 413.263 3
-5 27 -2 454.295 386.823 1
-22 27 2 125.824 410.296 1
27 -22 -2 974.857 486.764 2
-5 27 -2 399.385 357.485 4
27 -5 2 233.158 324.895 2
-5 -22 2 81.259 500.697 3
-14 28 0 3003.91 840.62 1
28 -14 0 3639.44 1063.32 2
-14 28 -3 905.686 512.517 1
28 -14 3 890.823 653.696 2
-14 28 3 441.842 351.79 4
-14 -14 -3 296.449 476.476 3
28 -14 -3 527.172 360.641 2
-14 28 3 679.215 411.466 1
-13 28 4 353.333 288.383 1
-15 28 -4 80.3361 276.743 1
28 -15 4 809.954 593.985 2
-13 28 4 547.729 327.792 4
-13 -15 -4 -14.5547 403.49 3
28 -13 -4 -67.744 283.085 2
28 -15 1 1484.46 701.984 2
-15 28 -1 773.372 528.96 1
-13 28 1 -157.587 354.014 1
28 -13 -1 697.823 450.311 2
-13 -15 -1 -267.291 244.41 3
-13 28 -2 1486.99 645.806 1
28 -13 2 1352.52 749.459 2
28 -15 -2 1593.31 679.558 2
-13 -15 2 910.313 657.678 3
-15 28 2 939.08 448.608 1
28 -16 2 -829.989 613.967 2
-16 28 -2 76.8988 348.247 1
-12 28 2 284.835 424.507 1
-12 28 2 -594.199 303.972 4
-12 -16 -2 755.844 549.573 3
28 -12 -2 308.917 300.124 2
-12 28 -1 1301.49 541.029 1
28 -12 1 1170.99 607.413 2
28 -16 -1 933.585 623.492 2
-12 -16 1 266.829 362.351 3
-16 28 1 736.406 460.058 1
-16 28 4 523.424 230.557 2
-16 28 4 354.002 381.318 1
-12 28 -4 -414.343 528.412 1
28 -12 4 87.1523 283.337 2
-16 28 4 519.963 466.9 4
-12 -16 4 -130.004 458.406 3
28 -16 -4 35.2522 292.771 2
28 -17 3 1142.87 572.828 2
-17 28 -3 418.112 322.211 1
-11 28 3 -164.148 254.551 4
-11 28 3 850.785 371.657 1
-11 -17 -3 733.848 433.038 3
28 -11 -3 1716.18 781.469 2
-11 28 0 1441.19 520.881 1
28 -17 0 1396.25 659.442 2
-11 28 0 630.802 386.782 4
28 -11 0 2517.82 918.426 2
-11 -17 0 1038.98 638.312 3
-17 28 0 1015.1 523.707 1
-17 28 3 89.8384 238.437 1
-17 28 3 -70.3158 195.389 2
-11 28 -3 122.346 258.414 1
28 -11 3 90.2596 321.984 2
28 -17 -3 486.311 531.839 2
-11 -17 3 119.595 361.965 3
-10 28 1 1101.14 494.335 1
28 -18 1 727.585 507.065 2
-10 28 1 359.376 311.65 4
28 -10 -1 411.861 392.045 2
-10 -18 -1 1236.18 538.68 3
-18 28 -1 990.289 496.259 1
-18 28 2 171.708 292.042 1
-18 28 2 374.351 341.713 2
-10 28 -2 1072.71 570.964 1
28 -10 2 1032.72 665.648 2
28 -18 -2 448.99 437.989 2
-10 -18 2 288.679 391.664 3
-9 28 2 544.659 366.313 1
28 -19 2 621.858 379.028 2
-9 28 2 -91.466 267.446 4
-9 -19 -2 268.303 292.123 2
28 -9 -2 746.86 581.171 2
-9 -19 -2 601.069 581.287 3
-19 28 -2 82.3116 464.142 1
-19 28 1 201.634 340.547 1
-9 28 -1 293.028 395.283 1
28 -19 -1 698.207 340.64 2
-9 28 -1 427.779 343.587 4
28 -9 1 1008.75 658.084 2
-9 -19 1 -150.347 578.861 3
-20 28 0 -46.5255 438.279 1
-8 28 0 245.95 289.558 1
28 -20 0 526.422 380.663 2
-8 28 0 -423.185 203.008 4
28 -8 0 1099.52 690.215 2
-8 -20 0 -279.825 285.046 3
#BEGIN Loops that were not found in dictionaries:
loop_
_smtbx_masks_void_nr
_smtbx_masks_void_average_x
_smtbx_masks_void_average_y
_smtbx_masks_void_average_z
_smtbx_masks_void_volume
_smtbx_masks_void_count_electrons
1 -0.637 -0.310 -0.510 21814.9 1518.6
#END Loops that were not found in dictionaries
