#------------------------------------------------------------------------------
#$Date: 2017-12-10 21:25:10 +0200 (Sun, 10 Dec 2017) $
#$Revision: 204138 $
#$URL: file:///home/coder/svn-repositories/cod/cif/7/22/77/7227776.cif $
#------------------------------------------------------------------------------
#
# This file is available in the Crystallography Open Database (COD),
# http://www.crystallography.net/
#
# All data on this site have been placed in the public domain by the
# contributors.
#
data_7227776
loop_
_publ_author_name
'Patyk-Ka\'zmierczak, Ewa'
'Warren, Mark R.'
'Allan, David R.'
'Katrusiak, Andrzej'
_publ_section_title
;
 Pressure inverse solubility and polymorphism of an edible
 \g-cyclodextrin-based metal-organic framework.
;
_journal_issue                   13
_journal_name_full               'Physical chemistry chemical physics : PCCP'
_journal_page_first              9086
_journal_page_last               9091
_journal_paper_doi               10.1039/c7cp00593h
_journal_volume                  19
_journal_year                    2017
_chemical_absolute_configuration rm
_chemical_formula_moiety         'C48 H80 O40, 2(KOH)'
_chemical_formula_sum            'C48 H82 K2 O42'
_chemical_formula_weight         1409.34
_chemical_name_common            '\g-cyclodextrin-metal-organic framework'
_chemical_name_systematic
'catena-((\m8-\g-Cyclodextrin)-di-potassium dihydroxide)'
_space_group_crystal_system      cubic
_space_group_IT_number           211
_space_group_name_Hall           'I 4 2 3'
_space_group_name_H-M_alt        'I 4 3 2'
_atom_sites_solution_hydrogens   geom
_atom_sites_solution_primary     direct
_audit_creation_date             2017-01-18
_audit_creation_method
;
Olex2 1.2
(compiled 2017.01.04 svn.r3372 for OlexSys, GUI svn.r5289)
;
_cell_angle_alpha                90.0
_cell_angle_beta                 90.0
_cell_angle_gamma                90.0
_cell_formula_units_Z            12
_cell_length_a                   31.3469(11)
_cell_length_b                   31.3469(11)
_cell_length_c                   31.3469(11)
_cell_measurement_reflns_used    2204
_cell_measurement_temperature    295
_cell_measurement_theta_max      10.7200
_cell_measurement_theta_min      1.7820
_cell_volume                     30802.3(19)
_computing_cell_refinement       'CrysAlisPro 1.171.38.41 (Rigaku OD, 2015)'
_computing_data_collection       'CrysAlisPro 1.171.38.41 (Rigaku OD, 2015)'
_computing_data_reduction        'CrysAlisPro 1.171.38.41 (Rigaku OD, 2015)'
_computing_molecular_graphics    'Olex2 (Dolomanov et al., 2009)'
_computing_publication_material  'Olex2 (Dolomanov et al., 2009)'
_computing_structure_refinement  'ShelXL (Sheldrick, 2015)'
_computing_structure_solution    'ShelXS (Sheldrick, 2008)'
_diffrn_ambient_environment      'diamond-anvil cell'
_diffrn_ambient_pressure         160000
_diffrn_ambient_temperature      295
_diffrn_detector                 'CCD plate'
_diffrn_measured_fraction_theta_full 0.715
_diffrn_measured_fraction_theta_max 0.715
_diffrn_measurement_details
;
List of Runs (angles in degrees, time in seconds):

  # Type    Start    End  Width  t~exp~   \w     \q     \k     \f   Frames
--------------------------------------------------------------------------
  1  \w   -105.00 -74.00   0.20    0.70    --   15.00  70.00 155.77  155
  2  \w   -105.00 -74.00   0.20    0.70    --   15.00  70.00 -24.23  155
  3  \w   -106.00 -66.00   0.20    0.70    --  -15.00 -70.00-155.77  200
  4  \w   -106.00 -66.00   0.20    0.70    --  -15.00 -70.00  24.23  200
  5  \w   -150.00 -94.00   0.20    0.70    --  -15.00  70.00 -24.23  280
  6  \w   -150.00 -94.00   0.20    0.70    --  -15.00  70.00 155.77  280
  7  \w    -96.00 -30.00   0.20    0.70    --   15.00 -70.00  24.23  330
  8  \w    -96.00 -30.00   0.20    0.70    --   15.00 -70.00-155.77  330
;
_diffrn_measurement_device       'abstract diffractometer'
_diffrn_measurement_device_type  'Newport IS4CCD (4 circle), Pilatus 300K'
_diffrn_measurement_method       '\w scans'
_diffrn_orient_matrix_type
'CrysAlisPro convention (1999,Acta A55,543-557)'
_diffrn_orient_matrix_UB_11      -0.0038201000
_diffrn_orient_matrix_UB_12      -0.0000686000
_diffrn_orient_matrix_UB_13      0.0217101000
_diffrn_orient_matrix_UB_21      -0.0110961000
_diffrn_orient_matrix_UB_22      0.0188536000
_diffrn_orient_matrix_UB_23      -0.0019012000
_diffrn_orient_matrix_UB_31      -0.0185345000
_diffrn_orient_matrix_UB_32      -0.0112572000
_diffrn_orient_matrix_UB_33      -0.0032504000
_diffrn_radiation_monochromator  synchrotron
_diffrn_radiation_probe          x-ray
_diffrn_radiation_type           synchrotron
_diffrn_radiation_wavelength     0.6889
_diffrn_reflns_av_R_equivalents  0.1007
_diffrn_reflns_av_unetI/netI     0.0460
_diffrn_reflns_Laue_measured_fraction_full 0.715
_diffrn_reflns_Laue_measured_fraction_max 0.715
_diffrn_reflns_limit_h_max       17
_diffrn_reflns_limit_h_min       -17
_diffrn_reflns_limit_k_max       17
_diffrn_reflns_limit_k_min       -17
_diffrn_reflns_limit_l_max       8
_diffrn_reflns_limit_l_min       -8
_diffrn_reflns_number            4484
_diffrn_reflns_point_group_measured_fraction_full 0.739
_diffrn_reflns_point_group_measured_fraction_max 0.739
_diffrn_reflns_theta_full        11.009
_diffrn_reflns_theta_max         11.009
_diffrn_reflns_theta_min         1.991
_diffrn_source                   synchrotron
_exptl_absorpt_coefficient_mu    0.149
_exptl_absorpt_correction_T_max  1.00000
_exptl_absorpt_correction_T_min  0.55803
_exptl_absorpt_correction_type   multi-scan
_exptl_absorpt_process_details
;
CrysAlisPro 1.171.38.41 (Rigaku Oxford Diffraction, 2015)
Empirical absorption correction using spherical harmonics,
 implemented in SCALE3 ABSPACK scaling algorithm.
;
_exptl_crystal_colour            'clear colourless'
_exptl_crystal_colour_lustre     clear
_exptl_crystal_colour_primary    colourless
_exptl_crystal_density_diffrn    0.912
_exptl_crystal_description       plate
_exptl_crystal_F_000             8928
_exptl_crystal_recrystallization_method
'Crystal grown in situ in the diamond-anvil cell from methanol:water mixture by heating and subsequent cooling of the cell'
_exptl_crystal_size_max          0.15
_exptl_crystal_size_mid          0.14
_exptl_crystal_size_min          0.05
_refine_diff_density_max         0.119
_refine_diff_density_min         -0.128
_refine_diff_density_rms         0.027
_refine_ls_abs_structure_details
;
 Flack x determined using 110 quotients [(I+)-(I-)]/[(I+)+(I-)]
 (Parsons, Flack and Wagner, Acta Cryst. B69 (2013) 249-259).
;
_refine_ls_abs_structure_Flack   0.07(15)
_refine_ls_extinction_method     none
_refine_ls_goodness_of_fit_ref   1.130
_refine_ls_hydrogen_treatment    constr
_refine_ls_matrix_type           full
_refine_ls_number_parameters     79
_refine_ls_number_reflns         351
_refine_ls_number_restraints     54
_refine_ls_restrained_S_all      1.542
_refine_ls_R_factor_all          0.0794
_refine_ls_R_factor_gt           0.0745
_refine_ls_shift/su_max          0.000
_refine_ls_shift/su_mean         0.000
_refine_ls_structure_factor_coef Fsqd
_refine_ls_weighting_details
'w=1/[\s^2^(Fo^2^)+(0.1818P)^2^] where P=(Fo^2^+2Fc^2^)/3'
_refine_ls_weighting_scheme      calc
_refine_ls_wR_factor_gt          0.1998
_refine_ls_wR_factor_ref         0.2092
_reflns_Friedel_coverage         0.588
_reflns_Friedel_fraction_full    0.783
_reflns_Friedel_fraction_max     0.783
_reflns_number_gt                326
_reflns_number_total             351
_reflns_threshold_expression     'I > 2\s(I)'
_iucr_refine_instructions_details
;

    final_new.res created by SHELXL-2014/7

TITL final_new in I432 #211
REM reset to I432 #211
CELL 0.6889 31.346888 31.346888 31.346888 90 90 90
ZERR 12 0.00111 0.00111 0.00111 0 0 0
LATT -2
SYMM -Y,+X,+Z
SYMM -X,-Y,+Z
SYMM +Y,-X,+Z
SYMM +X,-Z,+Y
SYMM +X,-Y,-Z
SYMM +X,+Z,-Y
SYMM +Z,+Y,-X
SYMM -X,+Y,-Z
SYMM -Z,+Y,+X
SYMM +Z,+X,+Y
SYMM +Y,+Z,+X
SYMM -Y,-Z,+X
SYMM +Z,-X,-Y
SYMM -Y,+Z,-X
SYMM -Z,-X,+Y
SYMM -Z,+X,-Y
SYMM +Y,-Z,-X
SYMM +Y,+X,-Z
SYMM -Y,-X,-Z
SYMM -X,+Z,+Y
SYMM -X,-Z,-Y
SYMM +Z,-Y,+X
SYMM -Z,-Y,-X
SFAC H C O K
DISP C 0.003 0.001 10.848
DISP H -0 0 0.623
DISP K 0.203 0.25 967.432
DISP O 0.011 0.006 30.192
UNIT 960 576 528 24
DFIX 1.45 0.002 C16 O16
DFIX 1.5 0.002 C6 C5
DFIX 1.45 0.002 C6 O6
DFIX 1.5 0.002 C16 C15
DFIX 1.5 0.002 C14 C15
DFIX 2.4 O14 C15
DFIX 1.45 0.002 C14 O14
DFIX 1.5 C14 C13
DFIX 1.45 0.002 O13 C13
DFIX 2.2 O2 C3
DFIX 1.45 0.002 O3 C3
DFIX 1.5 0.002 C2 C3
DFIX 1.45 0.002 C2 O2
DFIX 2.3 C2 O3
DFIX 3 C2 C5
DFIX 3 C5 C2
DFIX 1.45 0.002 C11 O4
DFIX 3 C11 C14
DFIX 1.45 0.002 C4 O4
DFIX 1.5 0.002 C4 C5
DFIX 1.5 0.002 C4 C3
DFIX 2.3 0.002 C5 C1
DFIX 1.5 0.002 C2 C1
DFIX 2.8 C1 C4
DFIX 2 C12 O4
DFIX 3 C12 C15
DFIX 1.5 C12 C13
DFIX 1.45 C12 O12
DFIX 3 C15 C12
DFIX 1.5 0.002 C12 C11
DFIX 2.5 O5 C6
DFIX 2.2 O15 C16
DFIX 1.45 0.002 O5 C5
DFIX 1.45 0.002 O15 C15
DFIX 3 O5 C3
DFIX 3 O15 C13
DFIX 1.45 0.002 O15 C11
DFIX 1.45 0.002 O5 C1
DANG 2.5 0.02 C5 C3
DANG 2.4 0.02 C13 C15
DANG 2.5 O14 C15
DANG 2.5 C13 O14
DANG 2.4 0.02 C11 C13
DANG 2.4 0.02 C15 C11
DANG 2.5 0.02 C4 C2
DANG 2.5 C4 C11
DANG 2.5 C11 C4
DANG 2.5 0.02 C3 C1
DANG 2.5 0.02 C1 C5
DANG 2.4 0.02 C12 C14
DANG 2.5 0.02 C2 O5
DANG 2.4 0.02 C14 O15
DANG 2.5 0.02 O5 C4
DANG 2.4 0.02 O15 C12
 
L.S. 100
PLAN  1
TEMP 21.85
CONN 1 H16
CONN 2 O4
CONN 1 H11
CONN 4 C16
CONN 1 H16a
BOND
ABIN
MORE -1
BOND $H
CONF
fmap 2
acta
OMIT 0 2 6
OMIT -5 7 14
OMIT 5 7 14
OMIT 3 8 15
OMIT 0 7 7
OMIT -3 8 15
OMIT 4 4 12
OMIT 3 3 12
OMIT -1 2 3
OMIT 1 2 3
OMIT 0 6 6
OMIT 2 6 6
OMIT 1 3 12
OMIT -1 3 12
REM <olex2.extras>
REM <HklSrc "%.\\final_new.hkl">
REM </olex2.extras>
 
WGHT    0.181800
FVAR       0.29144   0.15627   0.17464
C1    2    0.845329    0.687642    0.632977    11.00000   21.00000
AFIX  13
H1    1    0.841086    0.718279    0.628424    11.00000   -1.20000
AFIX   0
C2    2    0.886861    0.678685    0.654986    11.00000   21.00000
AFIX  13
H2    1    0.886509    0.690765    0.683819    11.00000   -1.20000
AFIX   0
C3    2    0.893502    0.631333    0.657152    11.00000   21.00000
AFIX  13
H3    1    0.904562    0.622779    0.629189    11.00000   -1.20000
AFIX   0
C4    2    0.853450    0.606039    0.663992    11.00000   21.00000
AFIX  13
H4    1    0.846515    0.614774    0.693198    11.00000   -1.20000
AFIX   0
C5    2    0.814288    0.621585    0.641256    11.00000   21.00000
AFIX  13
H5    1    0.828407    0.624634    0.613529    11.00000   -1.20000
AFIX   0
C6    2    0.775323    0.600151    0.623561    11.00000   21.00000
AFIX  23
H6A   1    0.759888    0.618026    0.603567    11.00000   -1.20000
H6B   1    0.781572    0.572697    0.610724    11.00000   -1.20000
AFIX   0
C11   2    0.857024    0.537838    0.704755    11.00000   21.00000
AFIX  13
H11   1    0.858955    0.556142    0.730025    11.00000   -1.20000
AFIX   0
C12   2    0.900272    0.517373    0.705419    11.00000   21.00000
AFIX  13
H12   1    0.899239    0.506335    0.734651    11.00000   -1.20000
AFIX   0
C13   2    0.899400    0.474553    0.682235    11.00000   21.00000
AFIX  13
H13   1    0.894160    0.482639    0.652494    11.00000   -1.20000
AFIX   0
C14   2    0.862851    0.447242    0.692480    11.00000   21.00000
AFIX  13
H14   1    0.868332    0.435091    0.720758    11.00000   -1.20000
AFIX   0
C15   2    0.820480    0.469329    0.694941    11.00000   21.00000
AFIX  13
H15   1    0.812578    0.476068    0.665453    11.00000   -1.20000
AFIX   0
C16   2    0.780329    0.454297    0.716210    11.00000   21.00000
AFIX  23
H16A  1    0.760407    0.477895    0.718153    11.00000   -1.20000
H16B  1    0.767279    0.432245    0.698862    11.00000   -1.20000
AFIX   0
K1    4    0.807312    0.500000    0.807312    10.50000    0.31806    0.22453 =
         0.31806    0.04715   -0.08582   -0.04715
O2    3    0.925746    0.690967    0.633159    11.00000   31.00000
AFIX  83
H2A   1    0.945502    0.675945    0.641425    11.00000   -1.50000
AFIX   0
O3    3    0.928741    0.627125    0.686824    11.00000   31.00000
AFIX  83
H3A   1    0.929250    0.602771    0.696360    11.00000   -1.50000
AFIX   0
O4    3    0.874807    0.565901    0.672576    11.00000   31.00000
O5    3    0.806294    0.666870    0.646520    11.00000   31.00000
O6    3    0.753862    0.596327    0.664365    11.00000   31.00000
AFIX 147
H6    1    0.744947    0.571906    0.667274    11.00000   -1.50000
AFIX   0
O12   3    0.946630    0.526284    0.703647    11.00000   31.00000
AFIX 147
H12A  1    0.959799    0.505970    0.713557    11.00000   -1.50000
AFIX   0
O13   3    0.938665    0.450219    0.679810    11.00000   31.00000
AFIX 147
H13A  1    0.940312    0.434244    0.700459    11.00000   -1.50000
AFIX   0
O14   3    0.859555    0.411672    0.663098    11.00000   31.00000
O15   3    0.822355    0.509853    0.717179    11.00000   31.00000
O16   3    0.788262    0.437574    0.758607    11.00000   31.00000
AFIX  83
H16   1    0.781360    0.412357    0.759467    11.00000   -1.50000
AFIX   0
 
OA    3    0.963750    0.463750    0.750000    10.50000    0.46421
HKLF 4
 
REM  final_new in I432 #211
REM R1 =  0.0745 for     326 Fo > 4sig(Fo)  and  0.0794 for all     351 data
REM     79 parameters refined using     54 restraints
 
END  
     
WGHT      0.1807      0.0000 

REM Highest difference peak  0.119,  deepest hole -0.128,  1-sigma level  0.027
Q1    1   0.9985  0.4553  0.6835  11.00000  0.05    0.12

  REM The information below was added by Olex2.
  REM
  REM R1 = 0.0745 for 326 Fo > 4sig(Fo) and 0.0794 for all 4717 data
  REM n/a parameters refined using n/a restraints
  REM Highest difference peak 0.12, deepest hole -0.13
  REM Mean Shift 0, Max Shift 0.000.

  REM +++ Tabular Listing of Refinement Information +++
  REM R1_all = 0.0794
  REM R1_gt = 0.0745
  REM wR_ref = 0.2092
  REM GOOF = 1.130
  REM Shift_max = 0.000
  REM Shift_mean = 0
  REM Reflections_all = 4717
  REM Reflections_gt = 326
  REM Parameters = n/a
  REM Hole = -0.13
  REM Peak = 0.12
  REM Flack = 0.07(15)

  
;
_cod_data_source_file            c7cp00593h3.cif
_cod_data_source_block           CDMOF_a_0_16GPa
_cod_depositor_comments
'Adding full bibliography for 7227776--7227790.cif.'
_cod_original_cell_volume        30802(2)
_cod_database_code               7227776
#BEGIN Tags that were not found in dictionaries:
_shelx_shelxl_version_number     2014/7
_chemical_oxdiff_formula         'C48 H82 K2 O40'
_shelx_space_group_comment
;
The symmetry employed for this shelxl refinement is uniquely defined
by the following loop, which should always be used as a source of
symmetry information in preference to the above space-group names.
They are only intended as comments.
;
_reflns_odcompleteness_completeness 74.84
_reflns_odcompleteness_iscentric 1
_reflns_odcompleteness_theta     11.01
_olex2_refinement_description
;
1. Fixed Uiso
 At 1.2 times of:
  All C(H) groups, All C(H,H) groups
 At 1.5 times of:
  All O(H) groups
2. Restrained distances
 C16-O16
 1.45 with sigma of 0.002
 C6-C5
 1.5 with sigma of 0.002
 C6-O6
 1.45 with sigma of 0.002
 C16-C15
 1.5 with sigma of 0.002
 C14-C15
 1.5 with sigma of 0.002
 O14-C15
 2.4 with sigma of 0.02
 C14-O14
 1.45 with sigma of 0.002
 C14-C13
 1.5 with sigma of 0.02
 O13-C13
 1.45 with sigma of 0.002
 O2-C3
 2.2 with sigma of 0.02
 O3-C3
 1.45 with sigma of 0.002
 C2-C3
 1.5 with sigma of 0.002
 C2-O2
 1.45 with sigma of 0.002
 C2-O3
 2.3 with sigma of 0.02
 C2-C5
 3 with sigma of 0.02
 C5-C2
 3 with sigma of 0.02
 C11-O4
 1.45 with sigma of 0.002
 C11-C14
 3 with sigma of 0.02
 C4-O4
 1.45 with sigma of 0.002
 C4-C5
 1.5 with sigma of 0.002
 C4-C3
 1.5 with sigma of 0.002
 C5-C1
 2.3 with sigma of 0.002
 C2-C1
 1.5 with sigma of 0.002
 C1-C4
 2.8 with sigma of 0.02
 C12-O4
 2 with sigma of 0.02
 C12-C15
 3 with sigma of 0.02
 C12-C13
 1.5 with sigma of 0.02
 C12-O12
 1.45 with sigma of 0.02
 C15-C12
 3 with sigma of 0.02
 C12-C11
 1.5 with sigma of 0.002
 O5-C6
 2.5 with sigma of 0.02
 O15-C16
 2.2 with sigma of 0.02
 O5-C5
 1.45 with sigma of 0.002
 O15-C15
 1.45 with sigma of 0.002
 O5-C3
 3 with sigma of 0.02
 O15-C13
 3 with sigma of 0.02
 O15-C11
 1.45 with sigma of 0.002
 O5-C1
 1.45 with sigma of 0.002
 C5-C3
 2.5 with sigma of 0.02
 C13-C15
 2.4 with sigma of 0.02
 O14-C15
 2.5 with sigma of 0.04
 C13-O14
 2.5 with sigma of 0.04
 C11-C13
 2.4 with sigma of 0.02
 C15-C11
 2.4 with sigma of 0.02
 C4-C2
 2.5 with sigma of 0.02
 C4-C11
 2.5 with sigma of 0.04
 C11-C4
 2.5 with sigma of 0.04
 C3-C1
 2.5 with sigma of 0.02
 C1-C5
 2.5 with sigma of 0.02
 C12-C14
 2.4 with sigma of 0.02
 C2-O5
 2.5 with sigma of 0.02
 C14-O15
 2.4 with sigma of 0.02
 O5-C4
 2.5 with sigma of 0.02
 O15-C12
 2.4 with sigma of 0.02
3. Others
 Uiso(C1)=Uiso(C2)=Uiso(C3)=Uiso(C4)=Uiso(C5)=Uiso(C6)=Uiso(C11)=Uiso(C12)=
 Uiso(C13)=Uiso(C14)=Uiso(C15)=Uiso(C16)=FVAR(1)
 Uiso(O2)=Uiso(O3)=Uiso(O4)=Uiso(O5)=Uiso(O6)=Uiso(O12)=Uiso(O13)=Uiso(O14)=
 Uiso(O15)=Uiso(O16)=FVAR(2)
4.a Ternary CH refined with riding coordinates:
 C1(H1), C2(H2), C3(H3), C4(H4), C5(H5), C11(H11), C12(H12), C13(H13),
 C14(H14), C15(H15)
4.b Secondary CH2 refined with riding coordinates:
 C6(H6A,H6B), C16(H16A,H16B)
4.c Tetrahedral OH refined with riding coordinates:
 O2(H2A), O3(H3A), O16(H16)
4.d Idealised tetrahedral OH refined as rotating group:
 O6(H6), O12(H12A), O13(H13A)
;
_shelx_fab_file
;
-7 -13 -8 25.6173 2.7900
-7 -12 -9 9.8065 -11.5085
-7 -11 -10 -18.1433 -0.2085
-6 -14 -8 5.6768 32.6383
-6 -13 -9 24.6316 -3.9436
-6 -13 -7 -8.5707 39.3339
-6 -12 -10 -15.8908 19.4944
-6 -11 -7 31.9458 19.2720
-6 -9 -7 -33.2128 32.7746
-5 -15 -6 26.7530 4.8108
-5 -14 -9 15.3686 3.2098
-5 -13 -10 2.2464 -4.4714
-5 -13 -8 44.3325 -2.1754
-5 -12 -11 4.9844 21.3804
-5 -12 -9 53.2444 13.6795
-5 -11 -10 -8.7387 24.7556
-5 -11 -8 33.0027 34.9091
-5 -11 -6 3.6123 -67.6886
-5 -10 -9 -2.8664 6.4223
-5 -10 -7 -2.6511 -1.6370
-5 -9 -8 -24.6460 -41.3041
-5 -9 -6 15.6883 -33.2628
-5 -8 -7 64.0664 15.3639
-5 -7 -6 92.5349 -37.9744
-4 -15 -7 -15.8042 -3.7196
-4 -15 -5 9.1418 -18.6674
-4 -14 -8 16.7847 -1.8449
-4 -14 -6 4.3439 18.0762
-4 -13 -9 21.2021 -54.9021
-4 -13 -5 11.3646 -3.8847
-4 -12 -10 9.2470 13.4844
-4 -11 -7 -37.5010 1.6212
-4 -11 -5 85.5695 -40.0090
-4 -10 -8 -39.8625 -3.6469
-4 -10 -6 28.5368 -49.0499
-4 -9 -7 47.5761 -37.4652
-4 -9 -5 -10.4989 3.0839
-4 -8 -6 39.7502 -15.6451
-4 -7 -5 -51.7564 -30.7773
-3 -16 -5 -13.0375 8.7099
-3 -15 -6 -1.4634 -7.1310
-3 -15 -4 18.0178 7.5884
-3 -14 -9 25.3558 -12.4283
-3 -14 -7 -12.8025 18.5532
-3 -13 -10 -12.4205 -23.2672
-3 -13 -6 5.6126 -42.0303
-3 -12 -11 7.6312 -0.5097
-3 -12 -7 -49.9313 4.7577
-3 -12 -5 10.4767 28.2775
-3 -11 -6 -27.9985 15.6680
-3 -11 -4 14.8404 8.3269
-3 -10 -9 -63.7464 -3.2475
-3 -10 -7 0.2770 12.9752
-3 -10 -5 -4.0886 21.3733
-3 -9 -8 8.2668 -25.0665
-3 -9 -6 -7.4934 -61.7983
-3 -9 -4 -43.3279 66.8348
-3 -8 -7 28.6069 40.3342
-3 -8 -5 -54.2462 54.2279
-3 -7 -6 -29.7757 -40.6436
-3 -7 -4 24.0883 28.8233
-3 -6 -5 -87.9146 -40.0388
-3 -5 -4 22.5623 -26.3932
-2 -17 -3 28.7266 8.1108
-2 -16 -6 -8.7127 21.6591
-2 -16 -4 20.1180 11.9530
-2 -15 -7 -11.3612 6.1601
-2 -15 -5 -11.3763 4.6140
-2 -14 -10 3.0993 14.8061
-2 -14 -8 3.0360 29.9761
-2 -13 -11 -9.1894 -9.1519
-2 -13 -9 10.0424 3.5063
-2 -13 -3 -30.0330 13.8086
-2 -12 -10 -45.2075 9.8217
-2 -12 -8 -37.0694 20.2968
-2 -12 -6 -31.4981 15.4043
-2 -12 -4 15.0298 21.7010
-2 -11 -9 -51.9284 -18.6124
-2 -11 -7 -31.5095 15.0280
-2 -11 -5 -14.4663 30.5991
-2 -11 -3 -56.1092 -23.1593
-2 -10 -8 -64.0750 -24.9001
-2 -10 -6 6.7936 26.4027
-2 -10 -4 1.8901 46.6106
-2 -9 -7 3.5732 -22.5118
-2 -9 -5 -11.2190 10.5389
-2 -9 -3 21.6929 -1.3357
-2 -8 -6 -7.2695 0.3819
-2 -8 -4 32.9115 48.8000
-2 -7 -5 -42.2624 -56.2516
-2 -7 -3 41.0869 -24.5627
-2 -6 -4 -48.5756 -48.9278
-2 -5 -3 -25.5311 -73.4607
-1 -17 -2 3.9750 -3.1760
-1 -16 -5 -23.2982 -4.6371
-1 -16 -3 26.2682 3.4850
-1 -15 -8 -9.2228 -6.0901
-1 -15 -6 -11.0997 -14.8620
-1 -14 -9 46.2019 18.5779
-1 -14 -7 7.2778 -16.3364
-1 -14 -3 -21.0940 -8.9613
-1 -13 -10 -9.1972 7.6075
-1 -13 -6 11.1892 -46.6020
-1 -13 -4 21.0862 -22.2642
-1 -13 -2 -16.4917 -4.7585
-1 -12 -11 35.5202 -10.4848
-1 -12 -5 -74.6307 -61.9036
-1 -11 -8 -11.8867 -10.0810
-1 -11 -6 -36.7214 -44.5178
-1 -11 -4 -25.7039 -14.9299
-1 -11 -2 -77.8446 -23.0730
-1 -10 -9 31.6685 -38.8125
-1 -10 -7 -14.1316 -41.3517
-1 -10 -5 -28.7795 28.3104
-1 -10 -3 -78.7033 -54.3939
-1 -9 -8 53.0752 -67.6614
-1 -9 -6 64.0228 -26.9913
-1 -9 -4 65.4883 4.1927
-1 -9 -2 83.8311 -17.0637
-1 -8 -7 130.8252 4.0653
-1 -8 -5 -0.7618 -50.8301
-1 -8 -3 -35.2649 23.0876
-1 -7 -6 150.7963 -24.6156
-1 -7 -4 97.5061 -71.0646
-1 -7 -2 89.0809 32.0679
-1 -6 -5 -17.1079 10.3382
-1 -6 -3 -86.4547 -88.1416
-1 -5 -4 65.1696 37.7107
-1 -5 -2 72.6549 -60.2579
-1 -4 -3 130.9818 17.9337
0 3 1 -239.8020 0.0000
0 4 2 -193.6921 0.0000
0 5 1 -7.0241 0.0000
0 5 5 -143.1134 0.0000
0 7 1 20.8474 -0.0000
0 7 3 -71.4916 0.0000
0 7 5 -5.3190 -0.0000
0 8 2 39.3801 -0.0000
0 8 4 -13.7227 0.0000
0 8 6 76.5417 -0.0000
0 8 8 21.7553 -0.0000
0 9 1 74.0363 -0.0000
0 9 3 5.3460 -0.0000
0 9 5 8.3037 -0.0000
0 9 7 43.4881 -0.0000
0 9 9 -34.1259 0.0000
0 10 0 77.3167 -0.0000
0 10 2 10.3009 -0.0000
0 10 4 33.0934 -0.0000
0 10 6 -25.6926 0.0000
0 10 8 -22.8648 0.0000
0 11 1 -22.1218 0.0000
0 11 3 -43.5647 0.0000
0 11 5 29.5819 -0.0000
0 11 7 -75.8848 0.0000
0 11 9 56.8541 -0.0000
0 11 11 33.6375 -0.0000
0 12 0 35.8058 -0.0000
0 12 2 21.4898 -0.0000
0 12 4 -1.7202 -0.0000
0 12 6 -6.3609 -0.0000
0 12 8 -9.1206 0.0000
0 12 10 13.1398 -0.0000
0 12 12 -27.8444 0.0000
0 13 1 21.8142 -0.0000
0 13 3 82.6501 -0.0000
0 13 9 25.4383 -0.0000
0 13 11 -4.5744 0.0000
0 14 4 41.9612 -0.0000
0 14 8 47.2325 -0.0000
0 14 10 -12.8354 0.0000
0 15 5 14.3643 -0.0000
0 15 7 -5.3669 0.0000
0 16 0 -51.9420 0.0000
0 16 2 20.2457 -0.0000
0 16 4 10.2207 -0.0000
0 16 6 0.7077 -0.0000
0 17 1 -12.6766 0.0000
0 17 3 21.7417 -0.0000
1 4 1 4.5322 0.0000
1 4 3 130.9818 -17.9337
1 5 2 72.6549 60.2579
1 5 4 65.1696 -37.7107
1 6 3 -86.4547 88.1416
1 6 5 -17.1079 -10.3382
1 7 2 89.0809 -32.0679
1 7 4 97.5061 71.0646
1 7 6 150.7963 24.6156
1 8 3 -35.2649 -23.0876
1 8 5 -0.7618 50.8301
1 8 7 130.8252 -4.0653
1 9 2 83.8311 17.0637
1 9 4 65.4883 -4.1927
1 9 6 64.0228 26.9913
1 9 8 53.0752 67.6614
1 10 1 23.8775 0.0000
1 10 3 -78.7033 54.3939
1 10 5 -28.7795 -28.3104
1 10 7 -14.1316 41.3517
1 10 9 31.6685 38.8125
1 11 2 -77.8446 23.0730
1 11 4 -25.7039 14.9299
1 11 6 -36.7214 44.5178
1 11 8 -11.8867 10.0810
1 12 1 47.1541 0.0000
1 12 5 -74.6307 61.9036
1 12 11 35.5202 10.4848
1 13 2 -16.4917 4.7585
1 13 4 21.0862 22.2642
1 13 6 11.1892 46.6020
1 13 10 -9.1972 -7.6075
1 14 3 -21.0940 8.9613
1 14 7 7.2778 16.3364
1 14 9 46.2019 -18.5779
1 15 6 -11.0997 14.8620
1 15 8 -9.2228 6.0901
1 16 1 -6.0630 0.0000
1 16 3 26.2682 -3.4850
1 16 5 -23.2982 4.6371
1 17 2 3.9750 3.1760
2 4 2 79.9027 -0.0000
2 4 4 10.3935 0.0000
2 5 3 -25.5311 73.4607
2 6 2 -45.4502 -0.0000
2 6 4 -48.5756 48.9278
2 7 3 41.0869 24.5627
2 7 5 -42.2624 56.2516
2 7 7 44.1886 -0.0000
2 8 2 103.5390 -0.0000
2 8 4 32.9115 -48.8000
2 8 6 -7.2695 -0.3819
2 8 8 50.3090 -0.0000
2 9 3 21.6929 1.3357
2 9 5 -11.2190 -10.5389
2 9 7 3.5732 22.5118
2 9 9 15.7511 0.0000
2 10 2 21.7491 0.0000
2 10 4 1.8901 -46.6106
2 10 6 6.7936 -26.4027
2 10 8 -64.0750 24.9001
2 10 10 -100.5546 -0.0000
2 11 3 -56.1092 23.1593
2 11 5 -14.4663 -30.5991
2 11 7 -31.5095 -15.0280
2 11 9 -51.9284 18.6124
2 11 11 8.5368 -0.0000
2 12 2 -102.2788 -0.0000
2 12 4 15.0298 -21.7010
2 12 6 -31.4981 -15.4043
2 12 8 -37.0694 -20.2968
2 12 10 -45.2075 -9.8217
2 12 12 -1.1934 0.0000
2 13 3 -30.0330 -13.8086
2 13 9 10.0424 -3.5063
2 13 11 -9.1894 9.1519
2 14 2 -6.5287 0.0000
2 14 8 3.0360 -29.9761
2 14 10 3.0993 -14.8061
2 15 5 -11.3763 -4.6140
2 15 7 -11.3612 -6.1601
2 16 2 38.0760 -0.0000
2 16 4 20.1180 -11.9530
2 16 6 -8.7127 -21.6591
2 17 3 28.7266 -8.1108
3 5 4 22.5623 26.3932
3 6 3 -8.5353 0.0000
3 6 5 -87.9146 40.0388
3 7 4 24.0883 -28.8233
3 7 6 -29.7757 40.6436
3 8 5 -54.2462 -54.2279
3 8 7 28.6069 -40.3342
3 9 4 -43.3279 -66.8348
3 9 6 -7.4934 61.7983
3 9 8 8.2668 25.0665
3 10 3 -35.1770 -0.0000
3 10 5 -4.0886 -21.3733
3 10 7 0.2770 -12.9752
3 10 9 -63.7464 3.2475
3 11 4 14.8404 -8.3269
3 11 6 -27.9985 -15.6680
3 12 5 10.4767 -28.2775
3 12 7 -49.9313 -4.7577
3 12 11 7.6312 0.5097
3 13 6 5.6126 42.0303
3 13 10 -12.4205 23.2672
3 14 7 -12.8025 -18.5532
3 14 9 25.3558 12.4283
3 15 4 18.0178 -7.5884
3 15 6 -1.4634 7.1310
3 16 3 36.0976 0.0000
3 16 5 -13.0375 -8.7099
4 5 5 -15.5252 0.0000
4 6 4 86.6624 0.0000
4 6 6 42.8532 -0.0000
4 7 5 -51.7564 30.7773
4 7 7 38.8846 0.0000
4 8 4 -40.4257 0.0000
4 8 6 39.7502 15.6451
4 8 8 19.9599 0.0000
4 9 5 -10.4989 -3.0839
4 9 7 47.5761 37.4652
4 9 9 -9.9249 0.0000
4 10 4 88.3505 -0.0000
4 10 6 28.5368 49.0499
4 10 8 -39.8625 3.6469
4 10 10 -76.3199 0.0000
4 11 5 85.5695 40.0090
4 11 7 -37.5010 -1.6212
4 11 11 19.1739 0.0000
4 12 10 9.2470 -13.4844
4 13 5 11.3646 3.8847
4 13 9 21.2021 54.9021
4 14 6 4.3439 -18.0762
4 14 8 16.7847 1.8449
4 15 5 9.1418 18.6674
4 15 7 -15.8042 3.7196
4 16 4 1.2232 0.0000
5 7 6 92.5349 37.9744
5 8 5 2.8210 -0.0000
5 8 7 64.0664 -15.3639
5 9 6 15.6883 33.2628
5 9 8 -24.6460 41.3041
5 10 5 123.8182 0.0000
5 10 7 -2.6511 1.6370
5 10 9 -2.8664 -6.4223
5 11 6 3.6123 67.6886
5 11 8 33.0027 -34.9091
5 11 10 -8.7387 -24.7556
5 12 9 53.2444 -13.6795
5 12 11 4.9844 -21.3804
5 13 8 44.3325 2.1754
5 13 10 2.2464 4.4714
5 14 5 -8.8786 0.0000
5 14 9 15.3686 -3.2098
5 15 6 26.7530 -4.8108
6 8 6 45.9996 0.0000
6 8 8 -24.1218 0.0000
6 9 7 -33.2128 -32.7746
6 10 6 -26.0353 0.0000
6 11 7 31.9458 -19.2720
6 11 11 4.1516 -0.0000
6 12 10 -15.8908 -19.4944
6 13 7 -8.5707 -39.3339
6 13 9 24.6316 3.9436
6 14 6 -10.1953 -0.0000
6 14 8 5.6768 -32.6383
7 11 10 -18.1433 0.2085
7 12 9 9.8065 11.5085
7 13 8 25.6173 -2.7900
7 14 7 -16.0222 -0.0000
8 12 8 17.5122 0.0000
;
_olex2_exptl_crystal_mounting_method 'Diamond-anvil cell'
_olex2_submission_original_sample_id CDMOF_alpha_1_016
_olex2_submission_special_instructions 'No special instructions were received'
_oxdiff_exptl_absorpt_empirical_details
;
Empirical correction (ABSPACK) includes:
- Absorption correction using spherical harmonics
- Frame scaling
;
_oxdiff_exptl_absorpt_empirical_full_max 1.452
_oxdiff_exptl_absorpt_empirical_full_min 0.832
#END Tags that were not found in dictionaries
loop_
_space_group_symop_id
_space_group_symop_operation_xyz
1 'x, y, z'
2 '-y, x, z'
3 '-x, -y, z'
4 'y, -x, z'
5 'x, -z, y'
6 'x, -y, -z'
7 'x, z, -y'
8 'z, y, -x'
9 '-x, y, -z'
10 '-z, y, x'
11 'z, x, y'
12 'y, z, x'
13 '-y, -z, x'
14 'z, -x, -y'
15 '-y, z, -x'
16 '-z, -x, y'
17 '-z, x, -y'
18 'y, -z, -x'
19 'y, x, -z'
20 '-y, -x, -z'
21 '-x, z, y'
22 '-x, -z, -y'
23 'z, -y, x'
24 '-z, -y, -x'
25 'x+1/2, y+1/2, z+1/2'
26 '-y+1/2, x+1/2, z+1/2'
27 '-x+1/2, -y+1/2, z+1/2'
28 'y+1/2, -x+1/2, z+1/2'
29 'x+1/2, -z+1/2, y+1/2'
30 'x+1/2, -y+1/2, -z+1/2'
31 'x+1/2, z+1/2, -y+1/2'
32 'z+1/2, y+1/2, -x+1/2'
33 '-x+1/2, y+1/2, -z+1/2'
34 '-z+1/2, y+1/2, x+1/2'
35 'z+1/2, x+1/2, y+1/2'
36 'y+1/2, z+1/2, x+1/2'
37 '-y+1/2, -z+1/2, x+1/2'
38 'z+1/2, -x+1/2, -y+1/2'
39 '-y+1/2, z+1/2, -x+1/2'
40 '-z+1/2, -x+1/2, y+1/2'
41 '-z+1/2, x+1/2, -y+1/2'
42 'y+1/2, -z+1/2, -x+1/2'
43 'y+1/2, x+1/2, -z+1/2'
44 '-y+1/2, -x+1/2, -z+1/2'
45 '-x+1/2, z+1/2, y+1/2'
46 '-x+1/2, -z+1/2, -y+1/2'
47 'z+1/2, -y+1/2, x+1/2'
48 '-z+1/2, -y+1/2, -x+1/2'
loop_
_atom_site_label
_atom_site_type_symbol
_atom_site_fract_x
_atom_site_fract_y
_atom_site_fract_z
_atom_site_U_iso_or_equiv
_atom_site_adp_type
_atom_site_occupancy
_atom_site_site_symmetry_order
_atom_site_calc_flag
_atom_site_refinement_flags_posn
_atom_site_refinement_flags_adp
_atom_site_refinement_flags_occupancy
C1 C 0.8453(7) 0.6876(7) 0.6330(10) 0.156(8) Uiso 1 1 d D . .
H1 H 0.8411 0.7183 0.6284 0.188 Uiso 1 1 calc R . .
C2 C 0.8869(6) 0.6787(7) 0.6550(9) 0.156(8) Uiso 1 1 d D . .
H2 H 0.8865 0.6908 0.6838 0.188 Uiso 1 1 calc R . .
C3 C 0.8935(6) 0.6313(7) 0.6572(10) 0.156(8) Uiso 1 1 d D . .
H3 H 0.9046 0.6228 0.6292 0.188 Uiso 1 1 calc R . .
C4 C 0.8534(7) 0.6060(7) 0.6640(11) 0.156(8) Uiso 1 1 d D . .
H4 H 0.8465 0.6148 0.6932 0.188 Uiso 1 1 calc R . .
C5 C 0.8143(7) 0.6216(6) 0.6413(11) 0.156(8) Uiso 1 1 d D . .
H5 H 0.8284 0.6246 0.6135 0.188 Uiso 1 1 calc R . .
C6 C 0.7753(8) 0.6002(10) 0.6236(8) 0.156(8) Uiso 1 1 d D . .
H6A H 0.7599 0.6180 0.6036 0.188 Uiso 1 1 calc R . .
H6B H 0.7816 0.5727 0.6107 0.188 Uiso 1 1 calc R . .
C11 C 0.8570(7) 0.5378(6) 0.7048(10) 0.156(8) Uiso 1 1 d D . .
H11 H 0.8590 0.5561 0.7300 0.188 Uiso 1 1 calc R . .
C12 C 0.9003(6) 0.5174(8) 0.7054(12) 0.156(8) Uiso 1 1 d D . .
H12 H 0.8992 0.5063 0.7347 0.188 Uiso 1 1 calc R . .
C13 C 0.8994(7) 0.4746(10) 0.6822(14) 0.156(8) Uiso 1 1 d D . .
H13 H 0.8942 0.4826 0.6525 0.188 Uiso 1 1 calc R . .
C14 C 0.8629(8) 0.4472(7) 0.6925(11) 0.156(8) Uiso 1 1 d D . .
H14 H 0.8683 0.4351 0.7208 0.188 Uiso 1 1 calc R . .
C15 C 0.8205(7) 0.4693(8) 0.6949(10) 0.156(8) Uiso 1 1 d D . .
H15 H 0.8126 0.4761 0.6655 0.188 Uiso 1 1 calc R . .
C16 C 0.7803(8) 0.4543(9) 0.7162(8) 0.156(8) Uiso 1 1 d D . .
H16A H 0.7604 0.4779 0.7182 0.188 Uiso 1 1 calc R . .
H16B H 0.7673 0.4322 0.6989 0.188 Uiso 1 1 calc R . .
K1 K 0.8073(4) 0.5000 0.8073(4) 0.287(11) Uani 1 2 d S T P
O2 O 0.9257(8) 0.6910(8) 0.6332(9) 0.175(5) Uiso 1 1 d D . .
H2A H 0.9455 0.6759 0.6414 0.262 Uiso 1 1 calc R . .
O3 O 0.9287(8) 0.6271(8) 0.6868(8) 0.175(5) Uiso 1 1 d D . .
H3A H 0.9292 0.6028 0.6964 0.262 Uiso 1 1 calc R . .
O4 O 0.8748(8) 0.5659(7) 0.6726(8) 0.175(5) Uiso 1 1 d D . .
O5 O 0.8063(6) 0.6669(7) 0.6465(7) 0.175(5) Uiso 1 1 d D . .
O6 O 0.7539(11) 0.5963(9) 0.6644(9) 0.175(5) Uiso 1 1 d D . .
H6 H 0.7449 0.5719 0.6673 0.262 Uiso 1 1 calc GR . .
O12 O 0.9466(8) 0.5263(10) 0.7036(10) 0.175(5) Uiso 1 1 d D . .
H12A H 0.9598 0.5060 0.7136 0.262 Uiso 1 1 calc GR . .
O13 O 0.9387(8) 0.4502(10) 0.6798(9) 0.175(5) Uiso 1 1 d D . .
H13A H 0.9403 0.4342 0.7005 0.262 Uiso 1 1 calc GR . .
O14 O 0.8596(8) 0.4117(8) 0.6631(8) 0.175(5) Uiso 1 1 d D . .
O15 O 0.8224(6) 0.5099(7) 0.7172(7) 0.175(5) Uiso 1 1 d D . .
O16 O 0.7883(8) 0.4376(8) 0.7586(8) 0.175(5) Uiso 1 1 d D . .
H16 H 0.7814 0.4124 0.7595 0.262 Uiso 1 1 calc R . .
OA O 0.964(2) 0.464(2) 0.7500 0.46(5) Uiso 1 2 d S T P
loop_
_atom_site_aniso_label
_atom_site_aniso_U_11
_atom_site_aniso_U_22
_atom_site_aniso_U_33
_atom_site_aniso_U_23
_atom_site_aniso_U_13
_atom_site_aniso_U_12
K1 0.318(16) 0.22(2) 0.318(16) 0.047(18) -0.09(2) -0.047(18)
loop_
_atom_type_symbol
_atom_type_description
_atom_type_scat_dispersion_real
_atom_type_scat_dispersion_imag
_atom_type_scat_source
H H 0.0000 0.0000 'International Tables Vol C Tables 4.2.6.8 and 6.1.1.4'
C C 0.0030 0.0010 'International Tables Vol C Tables 4.2.6.8 and 6.1.1.4'
O O 0.0110 0.0060 'International Tables Vol C Tables 4.2.6.8 and 6.1.1.4'
K K 0.2030 0.2500 'International Tables Vol C Tables 4.2.6.8 and 6.1.1.4'
loop_
_geom_angle_atom_site_label_1
_geom_angle_atom_site_label_2
_geom_angle_atom_site_label_3
_geom_angle
_geom_angle_site_symmetry_1
_geom_angle_site_symmetry_3
C2 C1 H1 111.6 . .
C2 C1 O14 94(2) . 7_556
O5 C1 H1 111.6 . .
O5 C1 C2 120.9(15) . .
O5 C1 O14 105.4(17) . 7_556
O14 C1 H1 111.6 7_556 .
C1 C2 H2 110.0 . .
C1 C2 C3 109.1(12) . .
C3 C2 H2 110.0 . .
O2 C2 C1 118(2) . .
O2 C2 H2 110.0 . .
O2 C2 C3 99.6(15) . .
C2 C3 H3 106.2 . .
C2 C3 C4 114.4(13) . .
C4 C3 H3 106.2 . .
O3 C3 C2 103.0(15) . .
O3 C3 H3 106.2 . .
O3 C3 C4 120(2) . .
C3 C4 H4 99.9 . .
C3 C4 C5 116.4(13) . .
C5 C4 H4 99.9 . .
O4 C4 C3 95.7(18) . .
O4 C4 H4 99.9 . .
O4 C4 C5 138(2) . .
C4 C5 H5 94.8 . .
C6 C5 C4 134.1(18) . .
C6 C5 H5 94.8 . .
O5 C5 C4 113.9(14) . .
O5 C5 H5 94.8 . .
O5 C5 C6 109.9(16) . .
C5 C6 H6A 112.7 . .
C5 C6 H6B 112.7 . .
H6A C6 H6B 110.2 . .
O6 C6 C5 95(2) . .
O6 C6 H6A 112.7 . .
O6 C6 H6B 112.7 . .
C12 C11 H11 100.6 . .
O4 C11 H11 100.6 . .
O4 C11 C12 85.5(12) . .
O4 C11 O15 147(3) . .
O15 C11 H11 100.6 . .
O15 C11 C12 114.5(14) . .
C11 C12 H12 97.7 . .
C11 C12 C13 110.7(15) . .
C13 C12 H12 97.7 . .
O12 C12 C11 144(2) . .
O12 C12 H12 97.7 . .
O12 C12 C13 100(3) . .
C12 C13 H13 103.2 . .
C14 C13 C12 115.0(17) . .
C14 C13 H13 103.2 . .
O13 C13 C12 118(3) . .
O13 C13 H13 103.2 . .
O13 C13 C14 112(3) . .
C13 C14 H14 106.7 . .
C13 C14 C15 115.7(16) . .
C15 C14 H14 106.7 . .
O14 C14 C13 111(3) . .
O14 C14 H14 106.7 . .
O14 C14 C15 108.9(15) . .
C14 C15 H15 106.0 . .
C14 C15 C16 128(3) . .
C16 C15 H15 106.0 . .
O15 C15 C14 113.2(13) . .
O15 C15 H15 106.0 . .
O15 C15 C16 95.5(14) . .
C15 C16 H16A 109.2 . .
C15 C16 H16B 109.2 . .
C15 C16 K1 91.9(15) . .
H16A C16 H16B 107.9 . .
K1 C16 H16A 77.3 . .
K1 C16 H16B 154.3 . .
O16 C16 C15 112(3) . .
O16 C16 H16A 109.2 . .
O16 C16 H16B 109.2 . .
O16 C16 K1 47.2(14) . .
C16 K1 C16 75.3(11) 23_565 .
O2 K1 C16 152.0(8) 41_646 23_565
O2 K1 C16 80.6(8) 41_646 .
O2 K1 C16 152.0(8) 44_666 .
O2 K1 C16 80.6(8) 44_666 23_565
O2 K1 O2 125.9(12) 44_666 41_646
O2 K1 O3 98.6(7) 44_666 41_646
O2 K1 O3 51.5(6) 41_646 41_646
O2 K1 O3 51.5(6) 44_666 44_666
O2 K1 O3 98.6(7) 41_646 44_666
O3 K1 C16 106.3(7) 41_646 .
O3 K1 C16 122.9(6) 44_666 .
O3 K1 C16 106.3(7) 44_666 23_565
O3 K1 C16 122.9(6) 41_646 23_565
O3 K1 O3 117.2(12) 44_666 41_646
O15 K1 C16 40.6(5) 23_565 23_565
O15 K1 C16 81.0(7) 23_565 .
O15 K1 C16 40.6(5) . .
O15 K1 C16 81.0(7) . 23_565
O15 K1 O2 121.8(6) . 44_666
O15 K1 O2 121.8(6) 23_565 41_646
O15 K1 O2 89.9(6) . 41_646
O15 K1 O2 89.9(6) 23_565 44_666
O15 K1 O3 137.0(6) . 41_646
O15 K1 O3 137.0(6) 23_565 44_666
O15 K1 O3 82.5(6) 23_565 41_646
O15 K1 O3 82.5(6) . 44_666
O15 K1 O15 109.4(10) . 23_565
O16 K1 C16 88.7(10) 23_565 .
O16 K1 C16 88.7(10) . 23_565
O16 K1 C16 24.6(5) 23_565 23_565
O16 K1 C16 24.6(5) . .
O16 K1 O2 63.8(7) 23_565 44_666
O16 K1 O2 167.5(9) . 44_666
O16 K1 O2 63.8(7) . 41_646
O16 K1 O2 167.5(9) 23_565 41_646
O16 K1 O3 139.2(7) 23_565 41_646
O16 K1 O3 81.7(8) 23_565 44_666
O16 K1 O3 139.2(7) . 44_666
O16 K1 O3 81.7(8) . 41_646
O16 K1 O15 77.7(8) 23_565 .
O16 K1 O15 62.2(8) . .
O16 K1 O15 62.2(8) 23_565 23_565
O16 K1 O15 77.7(8) . 23_565
O16 K1 O16 107.9(13) . 23_565
C2 O2 K1 111.4(17) . 42_566
C2 O2 H2A 109.5 . .
K1 O2 H2A 39.1 42_566 .
C3 O3 K1 122.5(15) . 42_566
C3 O3 H3A 109.5 . .
K1 O3 H3A 126.4 42_566 .
C11 O4 C4 118.6(18) . .
C1 O5 C5 105.1(3) . .
C6 O6 H6 109.5 . .
C12 O12 H12A 109.5 . .
C13 O13 H13A 109.5 . .
C14 O14 C1 112(2) . 5_565
C11 O15 C15 115.5(15) . .
C11 O15 K1 116.8(18) . .
C15 O15 K1 111.8(16) . .
C16 O16 K1 108.1(19) . .
C16 O16 H16 109.5 . .
K1 O16 H16 141.4 . .
loop_
_geom_bond_atom_site_label_1
_geom_bond_atom_site_label_2
_geom_bond_distance
_geom_bond_site_symmetry_2
C1 H1 0.9800 .
C1 C2 1.500(3) .
C1 O5 1.450(3) .
C1 O14 1.66(4) 7_556
C2 H2 0.9800 .
C2 C3 1.500(3) .
C2 O2 1.450(3) .
C3 H3 0.9800 .
C3 C4 1.500(3) .
C3 O3 1.450(3) .
C4 H4 0.9800 .
C4 C5 1.501(3) .
C4 O4 1.450(3) .
C5 H5 0.9800 .
C5 C6 1.500(3) .
C5 O5 1.451(3) .
C6 H6A 0.9700 .
C6 H6B 0.9700 .
C6 O6 1.450(3) .
C11 H11 0.9800 .
C11 C12 1.500(3) .
C11 O4 1.450(3) .
C11 O15 1.450(3) .
C12 H12 0.9800 .
C12 C13 1.53(2) .
C12 O12 1.48(2) .
C13 H13 0.9800 .
C13 C14 1.47(2) .
C13 O13 1.450(3) .
C14 H14 0.9800 .
C14 C15 1.500(3) .
C14 O14 1.450(3) .
C15 H15 0.9800 .
C15 C16 1.500(3) .
C15 O15 1.450(3) .
C16 H16A 0.9700 .
C16 H16B 0.9700 .
C16 K1 3.31(3) .
C16 O16 1.450(3) .
K1 C16 3.30(3) 23_565
K1 O2 2.98(3) 44_666
K1 O2 2.98(3) 41_646
K1 O3 3.04(3) 44_666
K1 O3 3.04(3) 41_646
K1 O15 2.88(3) 23_565
K1 O15 2.88(3) .
K1 O16 2.55(3) 23_565
K1 O16 2.55(3) .
O2 K1 2.98(3) 42_566
O2 H2A 0.8200 .
O3 K1 3.04(3) 42_566
O3 H3A 0.8200 .
O6 H6 0.8200 .
O12 H12A 0.8200 .
O13 H13A 0.8200 .
O14 C1 1.66(4) 5_565
O16 H16 0.8200 .
loop_
_geom_torsion_atom_site_label_1
_geom_torsion_atom_site_label_2
_geom_torsion_atom_site_label_3
_geom_torsion_atom_site_label_4
_geom_torsion
_geom_torsion_site_symmetry_1
_geom_torsion_site_symmetry_4
C1 C2 C3 C4 -36(3) . .
C1 C2 C3 O3 -168(3) . .
C1 C2 O2 K1 163.8(16) . 42_566
C2 C1 O5 C5 -60(2) . .
C2 C3 C4 C5 38(4) . .
C2 C3 C4 O4 -169(2) . .
C2 C3 O3 K1 -34(2) . 42_566
C3 C2 O2 K1 -78.7(16) . 42_566
C3 C4 C5 C6 150(3) . .
C3 C4 C5 O5 -49(3) . .
C3 C4 O4 C11 143(3) . .
C4 C3 O3 K1 -162.0(19) . 42_566
C4 C5 C6 O6 80(4) . .
C4 C5 O5 C1 55(2) . .
C5 C4 O4 C11 -76(5) . .
C6 C5 O5 C1 -140(3) . .
C11 C12 C13 C14 -45(4) . .
C11 C12 C13 O13 -180(3) . .
C12 C11 O4 C4 -161(3) . .
C12 C11 O15 C15 -52(4) . .
C12 C11 O15 K1 83(2) . .
C12 C13 C14 C15 43(4) . .
C12 C13 C14 O14 168(3) . .
C13 C14 C15 C16 -161(3) . .
C13 C14 C15 O15 -43(4) . .
C13 C14 O14 C1 141(2) . 5_565
C14 C15 C16 K1 90(2) . .
C14 C15 C16 O16 46(3) . .
C14 C15 O15 C11 47(4) . .
C14 C15 O15 K1 -90(2) . .
C15 C14 O14 C1 -90(3) . 5_565
C15 C16 O16 K1 71(2) . .
C16 C15 O15 C11 -177(3) . .
C16 C15 O15 K1 46(2) . .
O2 C2 C3 C4 -160(3) . .
O2 C2 C3 O3 69(2) . .
O3 C3 C4 C5 161(2) . .
O3 C3 C4 O4 -46(3) . .
O4 C4 C5 C6 13(6) . .
O4 C4 C5 O5 174(3) . .
O4 C11 C12 C13 -105(3) . .
O4 C11 C12 O12 40(6) . .
O4 C11 O15 C15 72(4) . .
O4 C11 O15 K1 -153(3) . .
O5 C1 C2 C3 51(3) . .
O5 C1 C2 O2 164(2) . .
O5 C5 C6 O6 -82(3) . .
O12 C12 C13 C14 156(3) . .
O12 C12 C13 O13 21(4) . .
O13 C13 C14 C15 -179(3) . .
O13 C13 C14 O14 -54(4) . .
O14 C1 C2 C3 -59(2) 7_556 .
O14 C1 C2 O2 53(2) 7_556 .
O14 C1 O5 C5 44(2) 7_556 .
O14 C14 C15 C16 73(4) . .
O14 C14 C15 O15 -169(2) . .
O15 C11 C12 C13 48(4) . .
O15 C11 C12 O12 -167(5) . .
O15 C11 O4 C4 68(5) . .
O15 C15 C16 K1 -35.6(19) . .
O15 C15 C16 O16 -80(3) . .
loop_
_refln_index_h
_refln_index_k
_refln_index_l
_refln_F_squared_meas
_refln_F_squared_sigma
_refln_scale_group_code
-3 0 1 2014.99 106.945 7
3 0 1 2209.64 107.912 1
1 -3 0 1952.24 104.512 3
-3 1 0 2349.64 109.146 6
-3 1 0 2320.19 107.934 7
3 0 -1 2117.97 107.727 4
-3 0 1 2078.18 108.665 6
3 1 0 2256.6 107.483 4
-1 -3 0 1839.53 108.402 5
1 -3 0 2125.84 106.446 5
-3 -2 -1 80.8061 19.1921 8
2 -3 -1 74.99 19.5146 6
-2 -3 1 111.191 22.1548 8
3 1 2 55.7397 22.4426 1
-2 3 -1 84.7868 20.2815 7
-3 -2 -1 130.054 18.9471 6
-3 2 1 67.0741 20.1189 7
-3 -2 -1 73.3053 18.7894 7
-1 -3 -2 29.7537 20.8646 8
-3 1 -2 31.1752 20.4936 7
-3 -2 -1 135.102 21.179 5
3 2 -1 106.42 25.5974 2
2 -3 -1 61.0647 18.6309 8
-2 3 -1 49.7301 20.1916 1
-2 -3 1 104.085 25.0741 5
2 -3 -1 42.2694 20.6328 3
-2 3 -1 88.2509 22.4724 6
3 -2 1 52.246 22.0949 1
-3 2 1 62.1684 23.1343 6
-1 -3 -2 42.8389 24.239 5
2 3 1 138.802 26.8893 3
1 3 2 75.5669 22.9086 3
3 2 1 78.2491 23.2874 3
-2 3 1 39.1705 18.272 7
2 3 -1 77.5999 26.0767 2
2 -3 1 64.0705 18.124 1
3 2 1 84.2694 19.9682 8
2 -3 1 3.65635 10.9188 7
3 2 1 82.574 22.5541 1
3 2 1 98.7776 19.9817 7
-2 3 1 49.6694 19.2461 4
-3 2 -1 41.4834 24.5795 6
-2 -3 -1 140.658 26.7464 5
2 -3 1 91.2296 19.7553 6
-3 -2 1 73.7631 18.6446 8
-2 -3 -1 86.6627 21.8179 8
-3 -2 1 58.7993 15.8626 7
-2 3 1 63.9664 17.4368 5
-3 -1 -2 35.813 19.2159 7
3 -1 2 8.19894 21.146 1
3 -2 -1 68.3398 19.6204 4
-3 2 -1 27.2006 20.8686 7
1 4 1 595.73 48.8713 3
4 1 1 541.29 39.7875 8
-4 -1 -1 611.573 45.7226 7
1 4 -1 494.123 48.4786 2
4 1 1 550.742 42.4344 5
-4 1 -1 567.328 48.3051 6
-1 4 1 525.861 45.6537 3
-4 -1 -1 666.718 40.9818 3
-1 -4 1 502.195 44.7923 8
-4 -1 -1 562.68 39.0976 8
-1 -4 1 542.428 48.1168 5
-4 -1 -1 607.548 41.6459 5
-1 -4 -1 698.19 47.183 8
-4 1 1 500.26 44.7663 7
1 -4 -1 442.962 43.0206 8
-1 4 -1 538.924 45.6902 2
-4 -1 1 509.899 47.3243 6
1 -4 1 476.81 44.9935 5
4 1 -1 436.929 43.5972 4
1 -4 1 495.573 42.4932 8
-4 -1 1 489.119 43.421 7
1 -4 -1 617.742 47.7397 5
-4 -1 -1 604.558 47.2624 6
4 -1 -1 454.679 45.1113 4
-4 1 -1 552.239 46.0221 7
4 1 1 571.403 41.4796 3
-4 1 1 507.64 48.2283 6
-1 -4 -1 586.299 49.7329 5
2 -4 0 1046.37 59.8641 4
4 -2 0 900.634 65.1706 4
-4 2 0 908.213 68.1137 6
-2 -4 0 935.356 68.3134 5
-2 4 0 870.442 62.3382 3
2 -4 0 818.92 60.5865 8
-4 -2 0 1041.71 65.4149 5
4 2 0 1081.52 65.4284 4
2 -4 0 887.341 64.586 5
0 4 2 1019.34 67.4612 3
4 0 2 1015.12 68.468 1
-4 -2 0 916.928 62.2763 8
4 2 0 948.932 65.0934 2
-2 4 0 738.434 59.2758 4
-4 2 0 936.093 65.1274 7
-2 4 0 832.626 60.6921 8
0 -4 -2 1009.92 70.0087 5
-2 -4 0 731.512 63.8478 8
2 -4 0 870.367 59.8199 6
0 4 -2 878.233 66.8467 2
-4 -2 0 1035.35 66.7893 6
-4 0 -2 1023.79 69.7859 6
-4 -2 0 941.08 63.4061 7
-2 4 0 916.457 59.1617 7
0 -4 -2 1000.04 67.7644 8
2 -4 0 902.552 58.5915 7
-4 0 -2 1011.94 67.8874 7
-2 4 0 993.944 62.441 6
-4 2 -2 2726.64 163.316 6
2 4 -2 2491.92 162.698 2
4 2 2 2460.09 158.06 3
-4 -2 -2 2892.17 160.123 7
4 2 2 2825.29 159.912 1
-4 2 -2 2595.19 160.953 7
4 1 3 26.8887 31.2275 1
4 3 -1 44.3056 35.7097 2
-4 -3 -1 80.4947 29.972 6
3 -4 -1 0.71363 23.5273 8
-4 3 1 67.9775 35.1337 6
-3 4 -1 22.507 26.5634 5
-3 4 -1 37.6519 27.0519 7
3 4 1 14.7051 26.0726 1
-3 -4 1 31.3933 29.211 8
-4 -3 -1 46.3408 25.8253 7
-3 -4 1 33.7107 35.3587 5
-3 4 -1 2.32642 32.2534 6
-4 -3 -1 52.1852 27.4378 8
3 -4 -1 22.4251 25.0058 4
3 4 1 52.1003 28.2138 6
-3 4 -1 35.2279 20.6138 8
-3 4 -1 18.4253 26.2917 2
-4 3 1 10.2876 28.0244 7
3 4 1 34.7346 22.1309 7
3 4 1 62.9428 36.1834 3
-4 -3 -1 75.5798 32.7213 5
-4 1 -3 23.5293 29.5745 7
4 3 -1 40.8455 28.8971 4
-3 -4 1 10.8029 18.4359 7
-3 -4 -1 51.5754 24.0314 6
-3 -4 -1 26.3023 29.2609 8
4 -3 -1 50.2419 28.3674 4
3 -4 1 51.9997 26.0122 5
-4 -3 1 79.9638 27.6407 8
4 -1 3 41.6755 32.1647 1
-3 -4 -1 56.3785 34.5548 5
-4 -3 1 61.6763 31.0782 6
-4 3 -1 63.255 34.2028 6
-4 -1 -3 42.2359 31.4184 7
-4 3 -1 12.0528 29.1521 7
-3 4 1 21.6223 31.1341 6
-3 -4 -1 19.85 21.5684 7
3 4 -1 33.6745 39.1485 2
3 -4 1 42.0768 27.1648 1
-4 -3 1 81.3789 32.5147 5
-3 4 1 34.4111 24.9223 7
-4 -3 1 21.71 24.1916 7
4 3 1 55.85 33.2035 3
3 -4 1 35.4762 21.9739 8
-4 4 -2 5784.03 333.08 7
0 5 -1 89.2559 38.8697 2
-1 5 0 172.161 36.3605 3
-5 -1 0 110.668 32.4477 7
-5 1 0 167.116 40.1846 6
-5 1 0 127.258 33.2289 7
-1 -5 0 155.4 33.7208 8
0 -5 -1 71.4164 32.1946 8
5 1 0 140.685 30.7342 2
5 1 0 150.669 34.098 4
-5 -1 0 121.138 23.5653 8
0 5 1 42.432 37.5198 3
5 -1 0 123.504 33.804 4
-5 -1 0 162.74 29.1794 5
0 -5 1 67.0816 30.3945 8
-1 -5 0 208.913 38.8848 5
1 -5 0 168.878 31.7306 8
5 0 1 62.2604 33.0394 4
-5 -1 0 163.934 37.9327 6
5 1 0 173.346 25.9056 8
-5 0 1 92.5142 31.6916 7
5 0 -1 90.0809 33.6425 4
0 -5 1 63.0187 35.1284 5
-5 -1 0 161.766 28.6208 2
-5 0 -1 55.1363 36.4271 6
-5 0 -1 147.601 33.5964 7
-5 0 1 105.497 38.5661 6
0 -5 -1 84.7402 37.177 5
1 -5 0 194.243 36.1572 5
5 1 2 1542.97 109.143 1
5 -2 1 1655.14 107.227 4
-5 -2 -1 1728.45 103.236 8
-5 2 1 1653.3 112.39 6
-2 5 -1 1801.58 102.046 7
-5 1 -2 1536.42 109.264 7
-5 -2 -1 1754.31 105.644 5
1 5 -2 1449.73 110.249 2
2 -5 -1 1814.8 106.153 8
-1 5 2 1425.21 107.46 3
2 5 1 1799.06 112.305 3
-1 -5 -2 1612.25 111.215 5
2 -5 -1 1822.75 109.291 5
-2 5 -1 1571.85 106.411 2
-2 5 -1 1670.35 102.617 6
-1 -5 -2 1707.43 108.83 8
-5 -2 -1 1609.43 106.018 7
-5 1 -2 1476.35 111.086 6
5 1 2 1553.16 101.792 3
5 2 -1 1788.95 107.73 4
5 1 2 1580.28 100.984 8
1 -5 2 1559.22 105.312 8
2 -5 -1 1691.28 101.889 6
-5 -2 -1 1699.7 108.723 6
-2 -5 1 1781.9 109.594 8
-5 2 1 1587.75 107.71 7
-1 -5 2 1399.24 103.843 8
-5 2 -1 1676.65 108.682 6
-1 5 -2 1282.33 104.353 2
-5 -2 1 1720.06 108.253 6
-5 -1 -2 1582.64 99.5518 8
1 5 2 1498.45 107.731 3
-5 -1 -2 1653.36 106.58 7
2 -5 1 1640.51 97.029 7
5 -1 2 1375.47 105.629 1
2 5 -1 1796.06 112.167 2
-5 -2 1 1741.22 104.864 7
2 -5 1 1627.35 98.0358 1
2 -5 1 1607.18 100.817 8
-5 2 -1 1433.77 103.92 7
-2 -5 -1 1898.03 111.254 5
1 -5 -2 1432.21 104.58 8
5 2 1 1715.5 102.078 3
-2 5 1 1648.79 97.8351 7
-5 -1 -2 1717.61 109.76 6
5 -2 -1 1588.03 105.289 4
5 2 1 1767.28 104.201 4
-2 5 1 1609.15 104.766 3
1 -5 -2 1499.07 108.23 5
-5 -1 -2 1507 100.393 5
2 -5 1 1554.88 103.918 5
-2 -5 -1 1712.65 107.109 8
-5 -3 -2 788.291 61.4604 7
3 5 2 627.108 68.1698 3
-3 5 -2 605.636 57.204 7
-5 -3 -2 771.061 61.2868 8
-5 2 -3 659.029 69.0501 6
-5 -3 -2 877.313 65.6663 6
5 2 3 687.264 63.7219 1
-2 -5 -3 409.405 64.7533 5
5 -3 2 674.445 64.1698 1
3 5 2 737.963 51.9289 7
-5 -3 -2 891.572 65.6366 5
-3 5 -2 632.96 61.768 6
-3 5 -2 565.375 57.5441 2
3 -5 2 641.035 54.7703 8
3 -5 2 607.038 58.387 5
5 3 2 791.213 64.477 3
-5 3 -2 682.922 68.1419 6
-5 -2 -3 722.703 62.0554 7
3 -5 2 693.55 56.4407 1
-3 -5 -2 580.837 66.8385 5
5 3 2 753.235 64.4771 1
-5 -2 -3 694.358 59.6105 8
-5 -2 -3 708.024 65.0922 6
2 5 3 531.062 64.1859 3
-5 3 -2 715.462 64.9639 7
-4 5 -3 2287.17 156.781 7
-5 -4 -3 2577.21 156.331 7
-5 -4 -3 2543.93 162.541 5
-5 -4 -3 2576.09 158.547 6
-4 5 -3 2487.62 160.577 6
-4 5 -1 7609.85 442.419 6
-4 5 -1 7952.61 438.535 2
4 -5 1 7741.56 434.525 5
4 -5 3 2332.88 148.982 1
5 4 3 2408.3 150.191 1
5 5 0 2716.63 148.456 4
-5 5 0 2257.13 143.114 8
-5 5 0 2353.62 153.538 6
-5 5 0 2242.76 143.62 3
5 -5 0 2391.08 149.261 4
-5 -5 0 2409.45 149.812 6
5 -5 0 2229.72 144.252 5
-5 5 0 2439.86 149.939 7
-5 -5 0 2431.24 145.307 7
-5 -5 -4 1534.49 114.128 8
-5 -5 -4 1320.55 116.022 5
0 -6 -2 947.999 80.2344 5
-6 0 -2 1084.95 64.7149 8
-2 6 0 841.53 74.914 3
6 0 2 1238.07 69.4613 5
-6 0 -2 1145.89 84.7524 6
-6 -2 0 926.826 74.015 7
6 2 0 851.085 74.9352 2
-6 -2 0 991.338 72.5708 5
6 -2 0 858.024 76.2056 4
-2 6 0 907.02 62.7403 7
2 -6 0 736.527 69.81 8
2 -6 0 846.563 63.6031 6
6 2 0 973.854 76.7893 4
-6 -2 0 875.218 67.9331 8
-6 -2 0 924.851 78.9986 6
0 6 2 990.004 81.539 3
-6 0 -2 1154.18 66.264 3
2 -6 0 804.239 63.6142 4
2 -6 0 922.299 62.5609 7
0 -6 2 911.451 79.258 5
-6 2 0 912.52 80.6548 6
0 6 -2 918.478 81.786 2
-2 6 0 1011.56 68.1999 6
0 -6 2 880.191 74.3048 8
2 -6 0 828.269 73.8356 5
2 -6 2 718.526 63.1322 8
-2 6 2 600.284 67.5117 3
2 -6 -2 770.057 65.6594 8
-2 6 -2 618.432 69.0809 2
2 -6 -2 715.665 72.769 5
6 2 2 699.858 63.5345 3
2 -6 2 688.658 69.3766 5
-6 -2 -2 760.916 72.3325 6
-6 -2 -2 765.168 63.9922 5
-6 -2 -2 779.403 61.3138 8
-3 6 -1 3978.43 250.177 2
-6 -3 -1 4532.95 250.699 8
3 -6 -1 4611.13 254.386 5
-3 6 -1 4097.94 247.718 6
-6 -1 -3 4112.38 241.517 8
3 -6 1 4232.5 239.167 1
-6 -3 1 4274.94 247.611 6
-3 6 1 4329.64 245.345 3
3 -6 1 3989.16 240.178 8
-3 6 1 4238.01 242.613 6
3 -6 1 4126.18 242.556 5
-6 -3 1 3863.1 241.882 8
6 -3 3 96.1869 55.3848 1
-3 -6 -3 73.8866 51.0321 8
6 3 3 102.146 51.5247 3
-6 3 -3 40.602 53.2508 7
-6 -3 -3 89.9478 48.4534 8
-6 -3 -3 92.4844 49.0681 5
-6 2 -4 1363.93 110.478 7
-4 -6 2 1354.49 106.848 8
-6 -4 -2 1991.79 112.093 6
-6 -4 -2 1882.84 107.902 7
-4 6 -2 1203.24 106.471 6
-4 -6 2 1352.86 112.503 5
6 2 4 1322.95 109.49 1
-6 -4 -2 1666.92 110.77 5
-6 2 -4 1342.78 115.397 6
4 -6 -2 1382.71 104.346 8
-4 6 -2 1150.2 101.611 2
4 6 2 1613.99 99.4304 1
-4 6 -2 1423.79 104.641 7
6 4 2 1869.27 115.652 3
4 6 -2 1256.19 117.824 2
-4 6 2 1538.92 108.573 7
4 -6 2 1207.47 104.137 1
4 -6 2 1270.19 104.031 5
6 4 2 1929.9 112.199 1
4 -6 2 1269.74 102.102 8
-4 -6 -2 1928.52 116.648 8
6 -2 4 1262.51 111.961 1
-4 -6 -2 1961.41 105.394 6
-6 4 -4 5838.52 347.957 7
6 -5 3 7197.48 407.157 2
6 -5 1 4294.22 233.03 5
6 5 -1 4227.39 243.102 4
5 6 1 4704.72 252.677 3
-5 6 -1 3735.02 241.839 7
-5 6 -1 3713.58 243.719 6
5 -6 -1 4174.47 242.509 4
6 5 -1 4290.41 252.203 2
-5 6 -1 3746.27 237.325 2
-5 6 -1 3633.79 235.494 3
-5 -6 1 4451.44 248.717 8
5 -6 -1 4159.65 238.722 8
-5 6 1 4110.23 250.302 6
-6 5 -1 4033.52 234.286 8
5 -6 1 4070.88 237.269 8
5 -6 1 4000.3 239.609 5
6 -5 -1 4099.2 238.624 8
-6 -5 1 4280.63 248.583 6
-6 5 -1 3941.62 234.995 5
-6 5 -1 3991.64 234.547 3
-6 5 -1 4191.75 235.121 2
5 6 -1 4859.47 257.696 2
-5 6 1 4275.15 245.459 7
-6 5 -3 7114.1 404.881 8
-6 5 -3 7291.62 418.493 7
-6 6 0 23.9253 49.8078 3
-6 -6 0 80.4232 67.5815 5
-6 -6 0 91.6221 47.0782 7
-6 -6 0 117.192 61.1124 6
-6 -6 0 25.2294 54.642 8
6 6 0 2.31042 50.6976 4
6 6 0 22.4471 75.9593 2
6 -6 0 71.8778 39.5951 8
6 -6 0 88.4093 50.2247 5
-6 6 -2 3104.17 199.748 7
-6 -6 -2 3235.84 194.495 6
-6 6 -2 2778.36 186.27 2
-6 -6 2 3314.18 200.672 8
-6 -6 -2 3100.68 206.581 5
6 -6 2 2877.03 185.636 5
6 6 2 3316.49 195.086 1
6 -6 2 3111.19 197.167 1
-6 6 2 3336.87 201.684 7
6 6 2 3042.64 203.458 3
-6 -6 -2 3197.95 201.609 8
6 6 -2 3472.81 210.572 2
6 -6 2 3129.63 186.68 8
-6 -6 2 3497.99 207.543 5
6 6 4 1773.63 141.757 3
-6 -6 -4 1980.21 135.974 8
6 -6 4 1786.48 131.809 1
-6 -6 -4 1944.87 140.462 5
-6 6 -4 1559.46 139.86 6
-7 0 -1 776.975 57.0937 8
-7 1 0 633.424 73.8943 7
-7 -1 0 758.9 60.7834 8
7 0 1 829.11 62.1744 2
-7 0 -1 846.98 76.4661 7
-7 -1 0 794.67 66.9569 5
7 1 0 788.043 68.6828 2
-7 0 -1 784.069 59.8423 5
-1 7 0 792.869 77.8245 3
7 0 1 892.819 62.6737 5
1 -7 0 908.752 77.7918 5
7 0 1 796.441 56.6133 8
7 0 1 835.561 59.3591 3
-7 1 -2 2846.16 179.033 7
2 -7 -1 2869.82 176.262 5
1 -7 2 2532.91 174.95 5
1 7 -2 2753.63 181.386 2
-2 7 -1 2513.75 175.327 2
-7 -2 -1 2641.71 169.282 5
7 1 2 2992.26 177.617 1
-2 7 -1 2637.87 163.127 6
-1 -7 -2 2774.61 177.47 8
-2 7 -1 2852.05 163.745 7
-7 -2 -1 2691.22 166.569 8
7 1 2 3067.74 167.537 3
-7 -1 2 2649.06 174.442 7
-2 -7 1 2846.68 176.118 8
7 -1 2 2760.77 177.283 1
2 -7 1 2799.92 162.811 1
7 2 1 2736.38 170.647 2
-1 -7 2 2755.32 175.252 8
-7 1 2 2409.73 175.525 7
7 2 1 2885.31 168.549 3
-2 7 1 2864.65 162.997 7
-7 2 -1 2798.46 177.567 7
2 -7 1 2609.05 169.932 8
-7 -1 -2 2772.34 165.09 8
-7 -1 -2 2907.75 168.549 5
-2 -7 -1 2935.38 177.491 8
-7 -1 -2 3037.06 178.482 7
2 -7 1 2539.98 173 5
2 7 -1 2970.54 184.432 2
2 -7 1 2643.52 161.283 7
-2 7 1 2756.3 175.664 3
3 -7 -2 3304.96 192.983 5
-7 3 2 2843.14 189.236 7
-2 -7 -3 2701.21 189.174 8
-3 7 -2 2570.28 186.886 2
-7 2 -3 2715.12 194.435 6
3 7 2 3284.32 195.177 3
-3 7 -2 3041.64 183.714 6
-7 -3 -2 3119.91 186.94 5
-2 -7 -3 2651.36 192.766 5
2 7 -3 2966.34 197.074 2
-3 -7 2 3231.53 195.836 5
-7 2 -3 2576.65 190.133 7
7 -3 2 2840.43 188.376 1
-3 -7 2 3207.39 192.18 8
-7 3 2 2789.73 193.874 6
-3 7 -2 2738.08 179.884 7
-7 -3 -2 3127.2 182.99 8
2 -7 3 2693.77 188.857 5
3 7 2 3600.97 175.606 7
7 2 3 2811.2 189.427 1
-7 0 -3 5443.91 300.215 6
3 -7 0 4581.35 289.406 5
0 7 -3 4774.84 296.997 2
-3 7 0 5399.05 287.134 6
-3 7 0 4572 288.535 3
-7 0 -3 5244.7 296.541 7
-7 -3 0 4778.4 286.68 8
3 -7 0 4877.15 286.831 8
-7 0 -3 4959.26 283.343 8
-7 3 0 4843.48 293.133 7
-2 -7 3 2983.12 184.905 8
3 -7 2 3033.8 179.652 8
7 -3 -2 2964.12 186.592 4
3 -7 2 2921.96 182.51 5
7 -2 3 2609.07 186.406 1
-3 -7 -2 3242.07 193.813 5
-3 7 2 2823.08 184.814 3
-7 -2 -3 2909.42 179.117 8
-7 3 -2 2941.56 190.384 6
-7 3 -2 3046.51 188.484 7
3 7 -2 3095.92 194.14 2
-7 -2 -3 2626.2 185.742 7
3 -7 2 2774.72 174.332 1
2 7 3 2817.46 189.17 3
-7 -2 -3 2683.01 180.869 5
7 3 2 3150.21 182.689 3
-7 -4 -3 69.1988 57.6272 7
-4 -7 3 143.078 55.3423 8
-3 -7 -4 197.627 70.9524 5
-7 3 -4 144.632 65.4332 7
4 7 3 113.393 76.655 3
-3 -7 -4 211.151 67.4372 8
-7 3 -4 153.35 77.868 6
7 -4 3 80.5997 66.1555 1
-4 7 -3 73.3703 55.8777 7
7 3 4 156.393 67.4048 1
-4 7 -3 130.131 66.2577 6
-7 1 -4 5785.38 361.785 6
4 -7 -1 6161.84 355.672 5
-7 4 1 5897.6 362.007 6
4 -7 -1 6126.02 352.098 8
-4 7 -1 5885.06 351.293 3
-4 7 -1 6712.09 352.254 7
-7 1 -4 5597.82 359.454 7
-4 7 -1 6464.39 353.788 2
-4 7 -1 5962.65 351.059 6
-7 4 -1 6042.13 356.688 7
4 -7 1 5945.4 347.714 1
4 7 -1 6308.22 363.155 2
-4 7 1 6013.81 353.48 6
-7 -1 -4 6061.27 359.898 6
-7 4 -1 6175.38 359.728 6
7 -1 4 5838.44 357.356 1
-4 7 1 6010.83 353.633 3
4 -7 1 6298.48 350.875 5
-4 -7 -3 72.9303 60.6561 8
7 -3 4 115.58 66.6749 1
4 7 -3 166.326 81.3073 2
-7 -3 -4 184.421 70.3836 6
7 4 3 106.364 66.4277 1
4 -7 3 117.881 63.6718 5
4 -7 3 82.0976 53.4631 1
-4 -7 -3 148.136 71.4062 5
3 7 4 154.481 73.1074 3
-7 4 -3 78.9672 65.0583 7
-7 4 -3 165.031 76.4405 6
-7 -3 -4 89.878 59.0561 7
-7 4 -5 2688.95 201.435 6
-7 -5 -4 2707.84 185.103 7
-7 -5 -4 2913.25 190.294 5
-7 -5 -4 2934.86 190.181 6
5 7 4 2657.62 192.424 3
-5 7 -2 432.544 70.8473 2
-5 7 -2 403.023 75.6195 6
5 7 2 533.104 60.7982 1
7 -5 2 390.257 74.0492 1
-7 2 -5 342.471 78.9031 7
7 5 -2 362.011 86.9377 2
-7 5 2 414.201 73.4926 7
-5 -7 2 358.82 79.8431 5
5 7 2 566.267 88.0224 3
-5 -7 2 459.464 71.344 8
-7 -5 -2 362.467 68.5985 8
-7 5 2 437.263 82.7605 6
5 -7 -2 443.602 66.7079 8
5 7 0 3126.18 192.484 2
5 -7 0 2754.35 174.539 5
-7 -5 0 3126.83 179.228 8
7 -5 0 2447.13 159.525 8
-5 7 0 2892.09 174.358 7
7 5 0 2947.32 186.214 2
5 7 0 3145.16 169.961 4
-5 7 0 2617.24 178.485 6
5 -7 0 2805.87 169.463 8
-7 5 0 2838.05 180.093 7
-5 7 0 2754.56 174.658 3
-5 -7 0 3252.83 183.685 8
-7 5 0 2221.68 161.615 5
-7 0 -5 2428.4 185.276 7
5 -7 0 2767.86 172.597 4
7 -5 0 2889.75 179.543 4
7 0 5 2371.09 181.304 1
-7 5 0 2670.42 184.183 6
-5 -7 0 3229.21 173.527 6
-5 -7 0 3289.29 189.425 5
-7 5 -2 384.647 74.9113 7
5 7 -2 470.944 91.9008 2
-5 -7 -2 445.353 61.9518 6
5 -7 2 475.708 65.0729 5
-7 -5 2 465.802 76.6374 5
7 -2 5 527.172 78.4083 1
-5 -7 -2 467.951 84.381 5
7 -5 -2 438.15 74.4008 4
-5 -7 -2 464.106 56.8469 7
-5 -7 -2 561.15 74.4759 8
-7 -5 2 387.942 65.2653 8
5 -7 2 470.393 60.6911 8
-7 5 -2 368.746 83.664 6
-5 -7 -4 2646.34 182.696 8
-7 5 -4 2586.88 187.205 6
7 -4 5 2378.97 180.758 1
-5 -7 -4 2671.5 188.616 5
7 5 4 2709.32 179.321 1
7 5 4 2846.51 185.179 3
6 7 5 1671.84 144.013 3
-6 7 -5 1462 158.332 6
7 -6 5 1398.87 134.666 1
-7 -6 -5 1681.27 147.55 5
-7 -6 -5 1788.52 142.229 8
-7 -6 -5 1608.8 130.535 6
-7 -6 -3 1034.66 112.778 5
7 -6 3 883.154 87.7658 5
6 7 3 1193.37 118.334 3
-6 7 -3 1067.02 114.492 6
7 -6 3 1127.5 105.962 1
-6 7 -3 936.277 104.679 7
-7 -6 -3 1163.08 107.895 8
-6 -7 1 3342.23 192.288 7
-6 -7 1 3110.61 209.598 5
-7 -6 -1 3536.1 207.835 5
-6 7 -1 2739.93 189.399 3
7 -6 1 3024.94 197.324 4
6 7 1 3340.26 210.138 3
-6 -7 1 2961.84 203.335 8
-7 6 1 3162.81 209.008 6
-7 6 1 3133.86 201.25 7
7 -6 1 3041.97 181.514 8
7 6 -1 2996.58 210.159 2
-6 7 -1 2875.47 190.86 2
7 -6 1 3023.94 185.659 5
-7 -6 -1 3572 202.337 8
6 -7 -1 3235.68 192.205 8
-7 6 -1 2945.04 199.097 7
-6 -7 -1 3526.4 210.483 5
7 -6 -1 3057.82 198.098 4
6 -7 1 3070.98 189.798 5
7 6 1 3463.38 207.016 3
7 -6 -1 2930.08 187.132 8
7 6 1 3541.02 196.738 4
-7 6 -1 2617.4 183.088 2
-7 6 -1 2914.65 202.692 6
-6 -7 -1 3446.55 190.432 7
-7 6 -1 2721.14 183.593 8
-6 -7 -1 3498.98 203.02 8
6 -7 1 3114.37 185.642 8
-7 -6 1 3176.14 201.489 8
6 7 -1 3288.63 212.001 2
-6 -7 -1 3400.25 193.758 6
-7 -6 1 3330.58 207.499 5
-7 6 -1 2891.27 184.184 3
-7 6 -3 1079.44 117.66 6
-6 -7 -3 1202.29 119.213 5
-6 -7 -3 1178.11 112.805 8
-7 6 -3 1004.35 110.511 7
6 -7 3 1125.34 99.3141 5
-6 -7 -3 1433.68 107.607 6
6 -7 3 1165.36 107.539 1
-6 -7 -3 1313.34 99.6752 7
7 6 3 1145.03 116.514 3
7 6 5 1487.09 138.979 3
-7 6 -5 1579.59 151.723 6
-6 -7 -5 1746.7 142.514 8
-6 -7 -5 1644.52 145.4 5
7 -7 0 3076.89 197.44 4
-7 7 0 3036.51 200.587 7
-7 -7 0 3085.36 199.644 6
-7 7 0 2960.5 206.841 6
-7 7 0 3005.33 190.402 3
-7 -7 0 3193.06 210.487 5
7 -7 0 2969.41 190.806 5
7 7 0 3350.88 195.406 4
7 7 0 3326.87 214.761 2
7 -7 0 2771.76 183.611 8
7 -7 2 1502.79 102.63 8
-7 7 2 1186.41 117.752 7
-7 7 -2 1238.75 104.568 2
7 -7 2 1337.08 115.875 1
-7 -7 2 1589.53 119.472 8
7 -7 2 1278.57 114.287 4
-7 7 -2 1308.96 125.824 6
-7 -7 -2 1596.81 124.376 8
7 -7 2 1301.3 99.4237 5
-7 -7 -2 1533.51 130.857 5
-7 7 -2 1104.73 117.109 7
7 -7 -2 1274.66 120.506 4
7 7 -2 1560.05 140.723 2
-7 7 2 1345.09 136.053 6
7 7 2 1595.2 132.863 3
-7 -7 2 1452.54 128.759 5
-7 7 -2 1129.2 100.277 3
7 7 4 68.1084 93.6602 3
7 -7 4 119.817 85.1732 1
-7 -7 -4 106.661 90.1744 5
-7 7 -4 100.382 96.61 6
-7 -7 -4 128.555 84.5955 8
2 -8 0 6706.16 376.006 6
8 2 2 1579.16 122.654 3
-8 2 -2 1534.15 131.942 7
-2 -8 2 2046.72 133.385 8
-2 -8 -2 2058.79 134.672 8
-8 -2 -2 1455 117.474 8
-2 -8 -2 1994.6 139.951 5
-8 2 -2 1549.39 138.295 6
8 -2 2 1517.64 129.858 4
8 2 2 1774.42 130.807 4
-2 8 -2 1957.68 120.704 6
-8 2 2 1940.83 134.269 7
-8 -2 2 1912.7 132.095 7
2 -8 -2 1790.53 129.175 8
-8 -2 -2 1584.69 122.483 5
2 8 2 2119.69 142.397 3
-8 -2 -2 1882.88 138.845 6
-8 -2 -2 1704.96 132.42 7
-8 2 2 1875.85 140.179 6
8 2 -2 2087.37 137.013 4
-8 -2 2 1922.28 140.363 6
2 8 -2 1984.78 144.713 2
8 -2 -2 2001.12 136.239 4
8 2 2 1672.58 131.608 1
-2 -8 2 1920.55 139.509 5
1 8 -3 1423.03 129.08 2
-8 -3 -1 1685.14 120.87 6
8 -3 1 1519.71 118.897 4
-8 -3 -1 1814.02 117.555 7
-8 -3 -1 1697.94 114.032 5
-3 -8 1 1678.88 118.784 8
-1 -8 -3 1394.62 121.944 5
1 -8 3 1303.49 111.654 8
-1 -8 -3 1334.24 117.475 8
-8 3 1 1474.48 127.54 6
-3 -8 1 1738.13 126.509 5
-8 -3 -1 1755.54 109.196 8
-8 1 -3 1381.55 126.577 6
-8 1 -3 1344.85 97.5599 3
-1 8 3 1453.84 123.349 3
-3 8 -1 1338.16 104.71 6
-8 1 -3 1286.7 95.7669 8
-8 3 1 1424.86 115.568 7
-8 1 -3 1325.91 119.92 7
3 8 1 1743.21 128.523 3
-3 8 -1 1636.81 105.443 7
1 -8 3 1532.88 122.362 5
8 3 -1 1553.5 117.086 4
8 1 3 1473.35 119.656 1
1 -8 -3 1202.9 119.627 5
-8 -3 1 1730.7 116.094 7
-8 -3 1 1679.84 123.092 6
8 -1 3 1306.94 118.011 1
3 8 -1 1632.71 131.446 2
-1 -8 3 1317.33 112.983 8
3 -8 1 1338.57 96.5357 4
-8 3 -1 1449.7 124.374 6
8 3 1 1712.81 116.073 4
-8 -1 -3 1275.94 101.437 8
-3 -8 -1 1632.34 124.676 5
-1 8 -3 1432.85 124.459 2
-8 -1 -3 1236.05 121.348 6
3 -8 1 1593.72 101.696 1
-1 -8 3 1291.44 121.015 5
-8 -3 1 1478.86 114.805 5
-3 8 1 1480.96 99.6153 7
1 8 3 1429.34 122.887 3
8 3 1 1553.46 115.803 2
-3 -8 -1 1907.76 118.27 8
8 -1 3 1227.63 96.5541 5
8 -3 -1 1380.36 116.561 4
-8 3 -1 1475.07 115.935 7
8 3 1 1604.97 109.936 3
-8 -1 -3 1274.41 114.543 7
-8 2 -4 9000.67 489.164 6
8 -4 2 8388.09 480.124 1
-8 4 2 8047.66 486.785 6
-4 8 -2 7884.85 473.657 6
-4 8 -2 8365.07 474.311 7
-4 8 0 428.384 77.7423 3
-8 0 -4 379.852 88.9546 6
-4 -8 0 878.062 94.2635 5
-4 -8 0 670.75 51.2483 7
-4 -8 0 838.357 81.8876 8
8 0 4 372.609 81.4261 1
4 8 0 787.317 96.5109 3
-8 4 0 389.871 87.1549 6
4 -8 0 440.458 63.1798 4
4 8 0 632.555 61.6302 4
8 4 0 568.605 79.1896 4
-8 -4 0 615.084 86.354 6
-4 8 0 496.676 65.1229 7
4 8 0 784.999 100.732 2
4 -8 0 643.578 78.9486 5
-4 -8 0 755.17 64.9124 6
-8 4 0 336.349 76.1995 7
8 -4 0 495.178 79.0834 4
-8 -4 0 483.955 75.9446 7
-4 8 0 545.264 78.8259 6
-8 0 -4 272.938 77.819 7
4 -8 2 7708.1 469.676 5
-8 4 -2 8541.38 480.697 6
4 8 -2 8611.62 482.908 2
-8 -4 -4 5616.22 316.315 7
-4 -8 -4 5464.51 318.879 8
8 -4 4 4915.87 314.809 1
-8 4 -4 4740.18 317.494 7
-8 4 -4 4896.23 320.341 6
-4 -8 -4 5317.39 321.358 5
8 -5 3 7233.85 428.5 1
-8 3 -5 7723.48 438.65 6
-8 3 -5 6985.01 432.588 7
-8 5 1 3821.91 253.081 7
8 -5 1 3906.84 251.43 4
-8 1 -5 3645.22 257.455 7
-5 8 -1 3598.22 247.192 2
-5 -8 1 4574.57 240.349 7
-8 -5 -1 4162.7 253.751 6
5 8 1 4893.81 241.872 1
-8 -5 -1 4413.9 251.14 7
-8 -5 -1 4560.71 256.633 5
-8 1 -5 3787.07 261.35 6
-8 -5 -1 4224 250.974 8
5 -8 -1 3810.38 244.696 4
8 5 -1 3987.58 258.227 2
-5 8 -1 3477.59 246.484 6
-8 5 1 3791.08 259.257 6
5 -8 -1 3877.07 252.17 5
-5 8 -1 3690.94 245.488 3
5 8 1 4513.22 262.707 3
8 -5 -1 3756.64 243.714 4
-8 -5 1 4020.14 242.424 7
-8 -5 1 3822.11 247.011 6
5 8 -1 4275.88 257.492 2
-8 -1 -5 4267.84 251.976 6
5 -8 1 3623.67 236.122 5
8 5 1 4185.26 246.43 3
-8 -5 1 4087.64 250.058 5
-5 8 1 3649.19 243.409 6
8 -1 5 3745.59 248.055 1
5 -8 1 3720.49 232.485 8
-8 5 -1 3887.43 250.62 6
-8 5 -1 4009.01 246.217 7
-5 8 1 3833.79 242.284 3
5 -8 1 3682.26 232.551 4
-8 -5 1 3972.9 241.209 8
-8 -1 -5 3858.32 248.56 7
8 5 1 4101.86 247.79 2
-8 5 -3 6853.28 416.198 7
5 8 -3 7779.28 426.625 2
-8 5 -3 7409.2 422.053 6
5 -8 3 6480.25 407.554 5
-8 5 -5 3482.81 260.431 7
-8 -5 -5 4278.73 262.793 8
-8 -5 -5 4141.77 259.473 6
5 8 5 3881.32 263.397 3
8 5 5 4374.92 260.505 1
-8 -5 -5 4602.55 264.444 7
-5 -8 -5 4089.5 266.513 5
8 -5 5 3725.95 259.122 1
-8 5 -5 3737.41 268.197 6
-6 8 -4 34.1849 86.9443 7
8 -6 4 101.11 85.5321 1
-8 -6 -4 203.233 90.8295 5
-8 -6 -4 187.014 85.837 8
6 8 4 182.519 99.9664 3
-6 8 -4 19.6522 93.3692 6
-8 -6 -4 270.167 95.052 6
-6 8 -2 2114.92 142.551 7
-6 -8 2 1774.82 145.272 8
8 -6 2 1937.62 142.136 4
6 8 2 2216.22 136.24 1
-8 6 2 2186.2 151.086 7
8 6 -2 2206.67 162.291 2
-6 8 -2 1590.96 133.621 3
-6 -8 2 1850.65 127.624 7
-6 8 -2 1870.89 141.108 2
-8 6 2 2019.48 157.428 6
-8 -6 -2 1951.28 144.668 6
-8 -6 -2 2114.92 147.004 8
6 8 2 2120.39 130.152 4
-8 -6 -2 1951.06 153.53 5
8 -6 2 1414.71 115.203 5
6 8 2 1894.78 155.664 3
-6 -8 2 1907.54 155.572 5
8 -6 2 1867.87 144.216 1
-8 -6 -2 2118.64 139.821 7
6 8 0 83.6461 95.6368 2
-8 -6 0 110.646 84.2326 5
-8 -6 0 40.1226 63.595 7
-6 -8 0 69.7894 86.4244 5
-6 8 0 43.2384 72.4691 3
6 -8 0 6.80922 69.0042 5
-6 -8 0 46.805 67.5401 6
8 -6 0 59.7106 72.7701 4
-6 8 0 92.8562 69.453 7
-8 6 0 119.38 73.6474 7
6 -8 0 62.964 55.6629 8
-6 -8 0 70.7548 51.364 7
8 -6 0 70.4525 39.8964 8
-6 -8 0 63.4683 70.9258 8
-8 6 0 0.73323 35.6942 5
-8 6 0 55.5431 85.725 6
6 8 0 49.3914 60.4241 4
8 6 0 74.448 93.9414 2
-8 -6 0 144.878 70.8536 8
-8 6 -2 1266.92 108.084 3
8 6 2 2045.04 147.983 3
-8 6 -2 1866.81 142.088 7
6 8 -2 1830.14 155.022 2
-8 -6 2 2187.98 134.116 7
-8 6 -2 1725.32 148.324 6
-6 -8 -2 2106.71 143.203 8
-6 8 2 1887.62 136.685 7
-6 -8 -2 2022.73 154.478 5
6 -8 2 1899.73 125.291 8
8 6 2 1945.29 133.391 4
-8 -6 2 2264 148.745 5
-6 -8 -2 1886.89 125.582 6
8 -6 -2 2321.2 145.338 4
6 -8 2 1698.11 125.229 5
-6 -8 -2 2076.37 125.836 7
-8 6 -2 1193.22 105.702 8
8 6 2 1777.12 135.809 1
-8 -6 2 2073.69 138.461 8
-8 6 -4 153.225 101.861 6
-6 -8 -4 189.209 92.2093 5
6 -8 4 162.687 84.0939 5
-8 6 -4 43.8601 87.3268 7
8 6 4 111.768 83.5817 1
8 6 4 159.889 95.4904 3
-6 -8 -4 163.539 87.1411 8
-8 -6 -6 2208.11 174.676 8
-8 6 -6 1992.26 204.379 6
-8 -7 -5 268.043 101.481 6
-8 -7 -5 144.241 100.953 5
-7 8 -5 226.506 114.536 6
8 -7 5 239.157 98.6614 1
7 8 5 279.019 110.018 3
-8 -7 -5 118.465 98.4071 8
-8 -7 -3 793.738 101.061 8
-8 -7 -3 717.048 90.4468 7
-8 -7 -3 770.479 98.7927 6
8 -7 3 554.527 71.1401 5
-7 8 -3 549.133 107.359 6
7 8 3 753.535 118.494 3
-7 -8 3 626.613 106.691 5
-8 -7 -3 738.412 110.34 5
-7 8 -3 517.698 100.424 7
-7 -8 3 561.184 93.3706 8
8 -7 3 528.949 98.4545 1
-7 8 -1 6568.05 402.546 3
8 -7 1 6937.48 398.808 5
-8 7 1 6907.12 414.179 7
7 -8 -1 6900.71 404.755 8
-8 7 1 6836.12 420.865 6
8 7 -1 7318.13 423.331 2
-7 8 -1 6986.82 415.561 6
7 8 1 8114.4 424.713 3
-7 8 1 7260.21 405.501 6
8 -7 -1 6723.39 395.501 4
7 -8 1 6664.37 385.354 5
-8 7 -1 6614.42 396.96 7
-8 7 -1 6042.78 379.399 2
8 7 3 778.389 98.89 1
7 -8 3 523.568 84.2456 5
8 7 3 798.589 114.443 3
-7 -8 -3 576.881 109.335 5
-8 -7 3 634.821 98.0387 5
7 -8 3 708.769 97.8327 1
-8 7 -3 634.761 103.887 7
-8 7 -3 698.216 117.652 6
7 8 -3 804.487 126.424 2
-7 -8 -3 768.128 106.683 8
8 7 5 187.044 108.377 3
-8 7 -5 55.9239 102.206 7
-8 7 -5 237.521 117.381 6
-7 -8 -5 329.719 99.0081 8
-7 -8 -5 219.504 89.0508 6
-7 -8 -5 375.527 106.275 5
8 -8 0 8137.77 470.49 8
8 -8 0 8503.2 483.892 4
-8 8 0 8373.25 491.424 6
-8 8 2 9863.6 547.784 6
-8 8 2 9650.49 536.027 7
8 -8 2 9627.2 531.757 1
-8 8 -2 9291.35 537.696 6
8 8 -2 10015.9 547.948 2
8 -8 2 8785.3 517.927 5
-8 8 -2 8223.33 517.763 3
-8 8 -2 9491.65 535.751 7
-8 -8 -4 55.0052 81.2876 7
8 -8 4 80.4421 94.5884 1
-8 -8 -4 119.042 104.717 5
-8 -8 -4 29.5465 95.4833 8
8 8 4 27.0494 90.8948 1
-8 8 -4 166.071 116.195 6
8 8 4 173.284 114.487 3
-8 -8 -4 67.8831 101.471 6
-8 8 -4 88.9715 96.304 7
8 -8 4 9.267 80.1636 5
-8 -8 -6 26.4863 94.7619 6
-8 8 -6 108.001 146.111 6
-8 -8 -6 44.731 111.477 8
1 -9 0 1135.66 96.7463 8
1 -9 0 1204.15 107.931 5
-9 0 -1 875.825 100.459 7
-9 0 -1 873.103 77.4373 8
9 0 1 955.298 79.5786 3
-1 -9 0 1242.24 100.855 8
0 -9 -1 1048.79 101.221 8
-9 0 1 1004.48 101.632 7
-1 9 0 1081.49 108.4 3
0 9 1 970.189 108.167 3
9 1 0 1359.79 108.021 4
-9 0 1 977.989 113.713 6
-9 1 0 1098.59 79.8581 5
0 -9 1 1035.88 104.947 5
-9 -1 0 1328.74 105.279 7
0 -9 -1 1005.74 108.478 5
-9 1 0 1095.67 111.603 6
9 0 -1 1081.57 102.834 4
9 0 1 976.603 85.4325 2
0 9 -1 973.64 114.287 2
9 -1 0 1117.26 76.6125 8
-9 -1 0 1349.19 91.7372 5
-9 0 -1 867.749 79.9325 5
0 -9 1 1233.11 98.4557 8
-9 -1 0 1271.17 113.296 6
9 -1 0 1323.25 103.706 4
-9 1 0 1020.49 103.345 7
-9 1 0 1131.82 78.5 2
-1 -9 0 1251.05 111.327 5
1 9 0 1069.97 110.831 3
-9 2 1 3282.64 218.222 6
1 -9 2 3077.45 208.137 8
-9 1 -2 3110.33 217.571 6
-9 -1 2 3226.61 210.455 7
-2 9 -1 3284.81 193.164 7
-1 -9 -2 3201.2 217.023 5
-2 9 -1 3078.96 214.756 2
9 1 2 3625.38 212.877 4
2 9 1 3295.27 217.26 3
-2 9 -1 3148.56 193.357 6
9 -1 -2 3185.16 213.355 4
-9 2 1 3377.24 213.322 7
-2 -9 1 3539.36 210.793 8
-9 1 -2 3515.38 216.551 7
9 2 -1 3619.21 214.167 4
2 -9 -1 3345.19 213.546 5
1 -9 2 3129.67 212.911 5
-9 -2 -1 3297.45 211.999 7
1 -9 2 3063.7 189.921 7
-9 -2 -1 3171.79 198.694 8
1 9 -2 3242.04 221.422 2
-2 9 -1 3138.06 211.855 3
2 -9 -1 3425.03 209.678 8
-9 -1 2 3147.79 217.051 6
-1 -9 -2 3597.18 213.52 8
-1 9 2 3268.71 215.709 3
9 1 2 3420.26 199.901 3
-1 9 -2 2896.67 215.748 2
9 -2 -1 3514.55 215.369 4
1 -9 -2 3315.77 215.699 5
1 9 2 3372.62 219.278 3
-9 -2 1 3616 215.227 7
-9 -1 -2 3785.86 215.476 7
-9 1 2 2963.08 211.245 7
-2 -9 -1 3092.58 212.763 8
-9 -1 -2 3826.65 221.912 6
9 -1 2 3131.65 211.848 4
-2 -9 -1 3388.38 219.011 5
-1 -9 2 3368.86 217.518 5
-9 2 -1 3401.9 214.325 7
-2 9 1 3166.37 213.129 3
-9 -2 1 3657.45 220.68 6
-9 -1 -2 3297.48 195.898 8
-9 1 2 3143.38 218.713 6
-9 -2 1 3526.92 207.633 5
2 -9 1 2919.93 189.882 4
9 2 1 3207.13 200.408 3
2 -9 1 2949.72 205.073 8
2 -9 1 3194.96 192.238 1
9 1 -2 3288.28 213.501 4
-9 -1 -2 3282.04 201.121 5
-1 -9 2 3470.74 211.469 8
9 2 1 3302.99 212.041 4
2 -9 1 3183.21 211.114 5
2 9 -1 3532.3 224.092 2
1 -9 -2 3559.04 212.909 8
-9 3 2 221.617 76.3231 7
-9 2 -3 319.555 83.0109 7
3 9 2 228.587 38.4717 7
-2 -9 -3 299.41 87.1315 5
-9 -3 -2 217.871 72.6677 7
-3 9 -2 189.531 58.3655 7
-3 9 -2 204.336 89.5894 2
-2 -9 -3 189.492 75.0145 8
-3 9 -2 208.939 66.4093 6
9 -3 2 247.304 80.066 4
-2 9 3 279.05 89.8188 3
-9 2 -3 147.141 94.2095 6
-9 -3 -2 127.621 86.4054 6
3 -9 -2 134.766 80.2367 5
-9 -3 -2 260.672 69.3138 5
9 2 3 244.562 82.8945 1
-9 3 2 254.315 93.9316 6
-3 -9 2 291.265 87.5679 5
9 3 -2 265.464 79.5497 4
9 2 3 310.524 73.3124 3
3 9 2 288.118 94.9249 3
-3 -9 2 149.179 72.147 8
2 9 -3 222.854 95.9768 2
-9 -3 0 1344.95 112.126 7
0 9 3 1538.15 128.578 3
3 -9 0 1209.01 92.3122 4
-9 -3 0 1281.09 109.193 5
-9 0 -3 1339.57 119.013 7
9 3 0 1253.68 114.065 4
-9 0 -3 1381.28 128.237 6
-3 9 0 1350.23 104.601 6
3 9 0 1247.86 123.995 3
-9 3 0 1273.62 125.072 6
-9 -3 0 1227.53 119.593 6
-3 9 0 1186.08 90.9747 7
9 -3 0 1309.31 114.307 4
3 -9 0 1188.75 103.24 8
9 0 3 1410.44 118.818 1
-3 9 0 1146.8 113.502 3
0 -9 -3 1583.63 122.742 5
-3 -9 0 1066.29 109.753 8
-3 -9 0 1217.64 122.041 5
0 -9 3 1406.78 122.845 5
-9 0 -3 1221.68 91.8272 8
0 -9 -3 1191.1 110.494 8
-9 3 0 1228.18 113.733 7
-2 -9 3 253.541 86.6446 5
-3 -9 -2 286.958 90.0852 5
-9 -2 -3 339.022 63.2435 8
9 3 2 248.861 74.3737 3
9 3 2 141.34 75.1354 4
-9 -3 2 230.255 73.2109 7
-9 3 -2 142.68 77.5436 7
-9 -2 -3 291.138 71.5285 5
3 9 -2 250.971 98.5304 2
-3 9 2 195.604 58.3903 7
2 9 3 443.179 96.9429 3
3 -9 2 180.939 54.1834 1
-3 9 2 255.297 87.5297 3
-2 -9 3 295.652 73.4482 8
-9 -2 -3 238.655 91.0698 6
3 -9 2 154.871 68.0626 8
-9 3 -2 192.843 90.0675 6
-3 -9 -2 175.577 40.5273 6
9 -2 3 295.484 82.6434 1
-9 -3 2 181.768 83.5473 6
9 -3 -2 232.473 78.12 4
-9 -2 -3 327.396 80.3156 7
2 -9 -3 268.857 87.0714 5
-3 -9 -2 262.009 77.363 8
2 -9 -3 367.696 76.587 8
-4 9 -3 220.696 93.761 2
-4 9 -3 224.369 81.5613 6
-3 -9 -4 391.152 95.7927 5
-9 -4 -3 379.406 83.6716 7
4 9 3 321.529 99.7837 3
3 -9 4 290.652 96.5978 5
-9 3 -4 277.987 91.0589 7
4 -9 -3 347.978 81.5025 8
-4 -9 3 376.039 80.7521 8
-9 -4 -3 362.912 96.2908 6
-3 -9 -4 428.58 85.434 8
9 3 4 366.508 90.6581 1
-9 -4 -3 356.216 77.7071 8
9 4 -1 4378.99 267.872 2
-9 4 1 3832.83 261.375 7
-9 1 -4 4454.33 273.874 6
-1 -9 -4 4183.72 265.551 8
4 -9 -1 3768.86 249.037 4
-4 9 -1 4243.98 251.286 7
9 -4 1 3671.6 260.949 4
-4 9 -1 3846.74 251.326 6
-9 -4 -1 4396.19 256.484 8
4 9 1 4661.98 271.928 3
9 4 -1 4238.8 263.427 4
-1 -9 -4 4253.35 271.119 5
-4 -9 1 4487.01 270.801 5
4 -9 -1 4150.68 257.821 8
1 -9 4 4394.83 273.619 5
-9 -4 -1 4517.7 261.627 7
-9 4 1 3909.09 268.87 6
-9 1 -4 4248.85 247.87 8
-9 1 -4 4205.41 268.267 7
-9 -4 -1 4525.92 265.435 6
-4 -9 -1 4330.22 269.094 8
-9 -1 -4 4630.44 273.144 7
-9 -1 -4 4707.8 278.845 6
-4 9 1 4185.83 255.328 7
-9 4 -1 3919.88 267.628 7
1 9 4 4326.49 275.482 3
9 -1 4 4286.61 271.199 1
1 -9 -4 4369.07 274.164 8
4 -9 1 3921.1 251.57 4
4 -9 1 3930.2 258.486 8
-9 4 -1 3891.07 273.312 6
4 9 -1 4238.94 279.141 2
9 -4 -1 3976.23 267.752 4
-9 -4 1 4225.02 271.438 6
-4 9 1 4007.76 263.439 6
-9 -4 1 4441.71 261.802 8
-9 -4 1 4517.61 267.666 7
-9 -1 -4 4679.51 260.28 8
9 4 1 4805.2 268.025 4
-9 -4 1 4608.21 269.997 5
-4 -9 -1 4508.34 277.295 5
9 4 1 4488.41 268.047 2
-9 -3 -4 403.475 84.7095 7
-4 -9 -3 356.134 96.358 5
-9 4 -3 269.663 90.7111 7
3 9 4 293.825 101.005 3
-4 -9 -3 350.641 64.2067 6
9 -3 4 429.107 92.3578 1
-9 -3 -4 436.781 102.893 6
-9 4 -3 259.643 99.8175 6
9 4 3 300.292 89.0913 1
4 -9 3 252.483 73.4435 8
4 9 -3 426.7 107.462 2
-4 -9 -3 355.99 85.6754 8
-4 -9 -5 79.1442 87.3568 8
-9 -5 -4 54.1322 81.8966 7
-4 -9 -5 12.9196 92.7378 5
5 9 4 56.0916 104.22 3
9 -5 4 112.704 89.4438 1
-9 4 -5 99.753 104.975 6
-9 -5 -4 97.5895 100.037 6
-9 4 -5 55.0711 90.4218 7
9 4 5 160.254 94.3614 1
-9 -5 -4 129.297 89.3846 5
-5 -9 2 295.653 94.1632 5
-9 2 -5 199.623 87.8442 7
-9 5 2 145.424 79.9317 7
5 9 2 130.789 97.2079 3
-9 -5 -2 214.759 76.6548 7
-5 -9 2 185.054 46.8406 7
-9 -5 -2 181.49 72.5709 8
5 9 2 153.695 61.47 1
9 -5 2 122.193 77.9775 4
-9 2 -5 192.158 99.557 6
-9 -5 -2 185.437 90.7454 6
-9 5 2 177.136 99.4286 6
5 -9 -2 225.267 75.0685 8
-9 -5 -2 313.274 87.2523 5
9 2 5 230.233 90.2377 1
-5 -9 2 214.233 76.0969 8
-9 -5 0 903.726 97.8993 8
9 -5 0 898.001 103.337 4
-9 5 0 710.613 102.74 7
-9 0 -5 801.269 116.636 6
5 -9 0 921.821 88.8844 4
-9 5 0 869.997 114.724 6
-5 9 0 831.122 104.328 6
-5 -9 0 1183.51 93.4525 6
9 5 0 968.363 104.799 4
-9 -5 0 895.12 109.672 5
-9 0 -5 846.006 106.317 7
9 5 0 930.598 112.938 2
5 9 0 1099.81 122.646 3
9 0 5 697.249 108.696 1
-9 -5 0 978.93 113.097 6
-5 -9 0 1085.95 103.234 8
5 9 0 1014.74 126.984 2
-9 -5 0 962.31 99.819 7
9 -2 5 354.288 92.399 1
-9 5 -2 120.622 99.2246 6
-5 -9 -2 252.086 54.7848 7
-9 5 -2 115.595 83.7474 7
9 5 2 307.162 84.0858 1
9 5 2 131.317 77.2678 4
9 5 2 199.907 86.2375 3
5 9 -2 134.28 104.015 2
-9 -2 -5 87.0261 82.0587 7
-9 -2 -5 347.311 96.8747 6
-5 -9 -2 142.677 57.9946 6
-5 -9 -2 261.041 98.3987 5
-9 -5 2 222.904 83.9392 5
-5 -9 -2 243.02 84.044 8
-9 -5 2 165.877 73.5579 7
9 -5 -2 200.979 83.5892 4
-9 -4 -5 44.121 85.9345 8
-9 -4 -5 39.4536 83.6416 7
9 -4 5 64.6745 92.5132 1
9 5 4 19.8031 93.5205 3
-9 -4 -5 10.7992 95.2865 6
4 9 5 37.9132 97.1313 3
-5 -9 -4 142.169 86.4363 8
9 5 4 148.211 91.1381 1
-9 5 -4 90.668 90.8335 7
-5 -9 -4 165.5 96.3705 5
-9 -6 -5 346.013 109.566 5
-9 -6 -5 435.558 103.575 8
-9 -6 -5 367.443 98.5529 7
-6 9 -5 190.132 122.163 6
-9 5 -6 161.979 127.779 6
6 9 5 388.028 117.311 3
-9 -6 -5 489.933 113.16 6
-9 5 -6 127.478 108.809 7
-9 -6 -3 1340.73 129.621 6
-9 3 -6 1046.81 133.342 7
6 9 3 1396 139.229 3
-9 -6 -3 1408.21 124.16 8
-6 9 -3 1103.15 129.15 6
-9 3 -6 1137.34 148.799 6
-9 -6 -3 1261.7 126.56 5
-9 -6 -3 1338.93 121.434 7
-6 -9 3 992.911 127.604 5
-6 -9 3 1102.39 116.269 8
-6 9 -3 1046.81 118.623 7
-6 -9 1 568.549 96.5383 8
-6 -9 1 630.216 111.288 5
-6 -9 1 663.905 75.3079 7
-9 -6 -1 934.928 92.2942 7
6 9 1 815.301 81.4584 4
-9 6 1 593.672 99.0616 7
-6 9 -1 499.81 92.6544 3
-6 9 -1 450.824 87.1823 7
-9 -6 -1 919.332 106.987 5
-9 -6 -1 858.117 100.827 6
-9 1 -6 535.483 110.583 7
9 1 6 578.207 105.044 1
6 9 1 785.984 121.095 3
9 -6 1 662.839 96.5137 4
-9 6 1 619.066 115.395 6
9 6 -1 699.577 99.8703 4
-9 -6 -1 818.901 95.2889 8
-9 1 -6 745.972 121.976 6
6 9 1 815.923 82.2891 1
9 6 -1 718.425 114.368 2
6 -9 1 494.256 87.3721 5
-6 -9 -1 661.056 102.521 8
-9 -1 -6 660.291 106.395 7
9 6 1 689.628 108.045 3
-9 6 -1 622.014 100.574 7
-6 9 1 437.171 87.1762 7
-9 -6 1 754.533 109.578 5
9 -6 -1 573.035 96.4623 4
9 6 1 739.863 95.8154 4
-6 -9 -1 712.783 86.1408 6
-6 -9 -1 672.155 75.543 7
-9 -1 -6 649.1 114.275 6
-6 -9 -1 806.511 114.74 5
9 -1 6 551.699 104.76 1
-9 6 -1 584.235 111.82 6
-9 -6 1 775.003 93.2641 7
-9 -6 1 651.605 103.228 6
-9 -6 1 736.295 93.027 8
6 9 -1 582.6 125.274 2
9 -6 -1 595.502 71.6417 8
9 6 1 826.401 117.6 2
6 -9 3 1169.47 116.158 1
9 6 3 1275.25 122.732 1
-9 -3 -6 1114.63 127.735 6
-9 6 -3 963.668 122.362 7
-9 6 -3 833.837 135.246 6
9 -3 6 1138.12 128.087 1
9 6 3 1252.43 129.817 3
6 9 -3 1107.21 142.333 2
6 -9 3 974.8 110.455 5
-6 -9 -3 1457.27 109.002 6
-6 -9 -3 1235.47 124.671 8
-6 -9 -3 1136.43 131.131 5
-6 -9 -5 258.593 103.266 8
-6 -9 -5 317.801 108.336 5
-9 -5 -6 340.904 108.498 8
-9 -5 -6 362.408 103.179 6
9 6 5 398.229 111.972 3
9 6 5 345.874 103.047 1
9 -5 6 372.818 108.452 1
-9 -7 -6 344.171 122.655 8
9 -7 6 163.967 116.974 1
-9 -7 -6 401.332 114.643 6
7 9 6 363.13 125.907 3
-7 9 -6 78.5704 155.48 6
-7 9 -4 1044 130.259 7
-9 -7 -4 1241.65 135.873 5
-7 9 -4 1114.27 138.918 6
-9 -7 -4 1576.55 138.362 6
9 -7 4 1004.95 125.763 1
9 -7 4 751.039 94.4496 5
-9 -7 -4 1377.64 131.97 8
7 9 4 1274.43 143.096 3
-7 9 -2 1327.65 134.808 7
-9 -7 -2 1901.34 133.32 7
9 -7 2 1369.97 136.412 4
9 7 -2 1782.65 162.131 2
-7 9 -2 1467.47 144.57 6
-9 -7 -2 1752.75 137.337 6
-9 -7 -2 1510.76 138.006 8
7 9 2 2054.36 158.118 3
-9 -7 -2 1754.88 152.024 5
-7 9 -2 1383.5 131.217 2
-7 -9 2 1807.23 142.795 8
-7 -9 2 2006.2 157.628 5
-7 9 -2 1372.33 126.628 3
9 -7 2 1190.51 103.714 5
-9 7 2 1439.37 139.087 7
9 7 0 3951.88 256.086 2
-7 -9 0 3855.31 255.272 5
9 -7 0 3316.44 237.995 4
-7 9 0 3184.35 234.279 7
-9 7 0 3202.51 241.885 7
-7 9 0 3593.16 238.092 3
-9 -7 0 3911.67 235.89 7
7 9 0 4004.95 262.221 2
-7 -9 0 3890.14 225.08 7
7 -9 0 3649.56 234.251 4
9 7 0 4159.1 241.459 4
-9 7 0 3357.59 250.25 6
-9 -7 0 3989.16 245.3 6
-7 -9 0 4261.27 238.14 6
-7 -9 0 4268.52 245.086 8
7 9 0 4355.1 260.758 3
-9 -7 0 3931.28 243.401 8
-9 -7 0 3781.55 250.95 5
9 -7 0 3015.44 214.414 8
-7 9 0 3533.87 246.063 6
-7 9 2 1671.07 142.023 7
-9 -7 2 1870.49 138.798 7
-9 -7 2 1856.86 140.54 8
-9 7 -2 1530.67 153.978 6
9 7 2 1807.2 142.065 1
-7 -9 -2 1879.05 130.078 6
9 -7 -2 1540.47 144.612 4
7 -9 2 1531.57 127.64 5
7 -9 2 1750.96 126.866 8
-7 -9 -2 1923.96 159.493 5
7 9 -2 1966.49 169.416 2
-9 -7 2 1985.27 154.374 5
9 7 2 1755.74 153.632 3
-9 7 -2 1121.98 109.723 3
9 7 4 1218.35 128.605 1
9 7 4 1275.02 141.051 3
7 -9 4 943.666 116.375 5
7 -9 4 1142.71 124.166 1
-9 7 -4 1075.18 142.746 6
-9 7 -4 880.185 127.25 7
-7 -9 -4 1265.61 138.192 5
-7 -9 -6 341.064 113.65 8
-9 7 -6 143.752 125.533 7
-9 7 -6 176.817 143.594 6
-9 -8 -5 1176.74 145.72 5
9 -8 5 889.778 136.72 1
-8 9 -5 928.504 148.204 7
-9 -8 -5 1283.68 142.554 8
8 9 5 1156.62 160.552 3
-8 9 -5 1029.47 156.257 6
-9 -8 -5 1200.62 145.21 6
-9 -8 -3 675.995 101.101 7
-9 -8 -3 588.191 125.271 5
-8 9 -3 453.615 110.264 7
-9 -8 -3 707.027 112.556 6
9 -8 3 487.317 76.3559 5
-8 9 -3 481.585 126.374 6
8 9 3 705.086 108.564 1
-8 -9 3 716.686 118.96 5
8 9 3 764.11 133.777 3
-9 8 3 599.467 124.388 7
-9 -8 -3 649.319 113.094 8
-8 9 -1 1541.3 134.921 7
-9 -8 -1 1308.92 121.831 7
-8 -9 1 1274.64 117.425 7
-9 8 1 1673.93 159.292 6
-9 -8 -1 1570.94 149.198 5
8 9 1 1656.47 163.821 2
9 -8 1 1008.16 125.683 4
-9 -8 -1 1432.03 133.488 6
8 -9 -1 1072.56 124.289 4
9 8 -1 1919.61 142.429 4
9 -8 1 1139.71 98.7056 8
-9 -8 -1 1467.58 132.688 8
8 9 1 1535.64 152.341 3
-8 -9 1 1231.44 145.8 5
-9 8 1 1475.24 137.199 7
9 -8 1 1039.55 108.789 5
9 8 -1 1899.35 161.377 2
-8 -9 1 1323.25 130.418 8
-8 9 -1 1302.64 122.94 3
-8 9 -1 1431.35 141.973 6
-8 9 1 1061.49 132.574 7
-9 8 -1 1122.73 118.733 3
-9 -8 1 2025.73 135.444 7
-9 8 -1 969.14 144.734 6
8 -9 1 1464.64 130.055 4
-9 -8 1 1947.06 156.781 6
8 -9 1 1345.65 122.978 5
9 8 1 1347.52 130.604 4
9 -8 -1 1559.06 137.65 4
-8 9 1 1182.61 151.42 6
8 -9 1 1276 111.655 8
-8 -9 -1 1496.27 142.464 8
9 -8 -1 1734.91 120.988 8
8 9 -1 1397.19 164.228 2
-8 -9 -1 1858.85 156.183 5
-9 8 -1 1010.36 139.19 7
9 8 1 1443.08 152.611 3
-9 -8 1 2044.89 159.242 5
-9 -8 1 2140.98 143.939 8
9 8 1 1444.4 163.54 2
-9 -8 3 638.914 116.512 5
9 8 3 803.599 116.704 1
-8 -9 -3 673.878 97.2167 7
-8 -9 -3 785.201 128.335 5
8 -9 3 499.52 89.3292 5
9 8 3 803.9 130.243 3
-8 9 3 590.192 119.918 7
9 8 3 584.917 103.334 4
8 -9 3 490.969 108.751 1
-8 -9 -3 752.707 104.932 6
-8 -9 -3 631.122 117.299 8
-9 8 -5 714.879 138.339 7
-9 8 -5 962.355 155.394 6
9 8 5 841.085 148.196 3
-8 -9 -5 957.586 146.405 5
8 -9 5 999.427 135.484 1
8 -9 5 916.205 127.65 5
-8 -9 -5 1374.15 136.075 6
-9 9 0 2984.66 223.568 7
9 -9 0 2698.37 215.4 4
-9 -9 0 3615.78 227.946 6
9 9 0 3480.5 220.213 4
9 9 0 3205.71 243.075 2
-9 -9 0 2920.26 224.159 8
-9 -9 0 3262.38 237.586 5
-9 9 -2 360.054 113.479 7
-9 -9 -2 532.591 129.917 5
9 9 2 548.769 134.977 3
9 9 -2 423.817 144.314 2
9 9 2 696.328 110.33 1
-9 -9 -2 504.215 98.0934 7
9 -9 2 396.381 105.708 1
9 -9 2 444.432 104.438 4
9 9 2 403.166 99.8176 4
-9 9 -2 370.475 126.317 6
-9 -9 -2 513.2 103.309 6
-9 -9 2 395.983 98.4148 7
-9 -9 2 414.224 105.316 8
-9 -9 2 282.288 123.989 5
-9 -9 -2 690.492 112.248 8
-9 -9 -4 802.813 116.953 7
-9 9 -4 472.787 143.997 6
9 9 4 840.715 146.707 3
-9 9 -4 519.785 128.081 7
9 -9 4 535.484 122.59 1
-9 -9 -4 662.563 135.359 5
9 9 4 968.58 125.101 1
-10 0 0 1331.87 122.814 7
10 0 0 1318.3 126.209 4
-10 0 0 1304.37 131.219 6
0 -10 0 1312.43 115.916 8
0 10 0 1432.77 130.627 3
0 -10 0 1453.88 127.782 5
-10 0 0 1327.13 103.279 5
10 -1 1 3431.68 221.154 4
-10 -1 -1 3640.17 222.5 7
-10 1 -1 3459.59 222.401 7
-10 1 1 3349.51 221.263 7
-10 -1 -1 3360.66 201.533 8
-1 -10 -1 3587.94 227.276 5
1 -10 -1 3363.43 223.02 5
-1 10 -1 3437.63 225.104 3
-10 -1 1 3557.07 220.032 7
10 1 1 3837.08 222.528 4
-10 -1 -1 3348.34 203.537 5
10 1 -1 3355.81 221.063 4
-10 1 1 3233.02 227.486 6
-10 -1 1 3399.86 227.506 6
-1 -10 -1 3587.96 219.382 8
-1 -10 1 3150.6 222.483 5
10 1 1 3608.5 203.127 3
10 -1 -1 3353.87 220.485 4
-1 -10 1 3323.59 216.453 8
-10 -1 -1 3416.83 226.597 6
10 1 1 3790.16 209.433 2
-10 1 -1 2916.69 193.335 5
-10 1 -1 3276.26 227.133 6
1 -10 1 3319.44 214.123 8
1 -10 1 3268.79 221.018 5
1 -10 -1 3413.82 217.143 8
10 -1 1 3066.2 192.516 3
1 10 1 3498.38 227.909 3
1 10 -1 3186.56 231.302 2
-1 10 1 3518.85 224.371 3
-1 10 -1 3370.99 228.495 2
10 -1 1 3041.07 191.541 8
-10 -2 0 4249.08 251.002 7
-10 2 0 3791.8 255.835 6
-10 0 -2 3895.17 251.588 7
-10 2 0 3909.91 249.391 7
2 -10 0 3632.1 223.787 1
0 10 -2 3792.34 258.792 2
-10 0 -2 3765.07 255.623 6
-10 0 2 3747.23 249.019 7
0 -10 2 3858.37 252.061 5
0 -10 2 3945.43 246.017 8
2 -10 0 3949.52 243.782 8
10 0 2 4283.67 232.347 3
-2 10 0 3871.28 226.051 7
10 0 2 4157.91 250.269 4
10 -2 0 3468.76 247.837 4
10 2 0 3888.66 249.844 4
-2 10 0 4131.59 232.39 6
2 -10 0 3473.28 223.968 4
10 0 -2 3760.6 250.626 4
0 -10 -2 3770.88 254.63 5
2 10 0 3910.25 256.356 3
10 2 0 4114.48 246.854 2
0 -10 -2 3705.89 248.435 8
-10 -2 0 4155.06 235.822 8
-10 -2 0 3934.96 240.054 5
-2 -10 0 4051.09 254.72 5
-10 0 -2 3839.86 227.149 8
10 0 2 4018.69 230.914 2
2 -10 0 3798.21 248.89 5
-10 -2 0 4027.19 254.751 6
-10 0 -2 4113.69 233.129 5
-10 0 2 3543.2 255.211 6
-2 10 0 3746.76 250.811 3
0 10 2 3924.89 254.159 3
2 -10 2 599.689 97.3055 5
-2 -10 -2 647.264 106.188 5
2 -10 2 505.411 86.1072 8
-10 -2 -2 526.229 73.2708 8
-2 10 -2 552.641 108.089 2
-10 -2 -2 596.507 93.9411 7
2 -10 -2 634.142 98.5311 5
-10 2 2 404.95 91.0373 7
-2 -10 2 491.468 99.0883 5
2 10 -2 553.05 116.273 2
-10 -2 2 435.028 89.5377 7
-2 10 -2 561.905 73.0936 6
-2 10 2 650.256 106.425 3
10 -2 2 629.842 95.179 4
-10 2 -2 716.454 111.931 6
-2 -10 -2 589.654 93.8704 8
-10 2 -2 607.395 95.4457 7
-10 2 2 250.219 102.896 6
2 -10 -2 729.909 91.3442 8
-2 10 2 592.075 67.2767 7
-10 -2 2 471.158 103.607 6
10 2 2 672.928 96.9963 4
10 -2 -2 390.617 93.755 4
10 2 -2 497.709 95.5651 4
-2 -10 2 507.07 87.959 8
-10 -2 -2 651.179 81.9552 5
-10 -2 -2 714.097 108.743 6
10 2 2 771.946 86.4144 3
-3 -10 1 4210.23 247.002 8
10 -3 1 4040.13 246.214 4
-10 1 -3 3874.85 250.936 7
-10 -3 -1 4086.85 248.136 7
10 1 3 4267.21 249.856 1
3 10 1 3962.42 255.237 3
-10 1 -3 3292.9 219.188 8
-10 1 -3 4208.5 258.733 6
-10 3 1 3413.21 243.648 7
-3 10 -1 3478.78 228.251 6
-10 -3 -1 3996.7 251.798 6
-3 -10 1 4056.44 254.105 5
-10 3 1 3557.31 254.358 6
10 3 -1 3943.66 248.363 4
-3 10 -1 3826.82 248.109 3
1 10 -3 3991.69 259.682 2
1 -10 3 3856.64 252.621 5
3 -10 -1 3659.74 247.776 5
-3 10 -1 4014.68 231.043 7
-3 10 -1 3811.28 250.699 2
-1 -10 -3 4069.79 254.917 5
-1 10 3 4165.46 256.511 3
1 -10 3 3867.61 245.079 8
-10 -1 -3 4107.65 243.52 5
1 10 3 4024.18 259.915 3
-10 -1 -3 4104.85 256.216 7
-10 3 -1 3875.75 254.226 7
-3 10 1 3821.97 230.919 7
-10 -3 1 4112.62 253.306 7
3 -10 1 3359.86 227.802 4
-10 -1 -3 4162.2 262.704 6
-1 -10 3 3910.54 251.044 8
10 -3 -1 3778.02 251.842 4
10 -1 3 4097.15 255.885 1
-10 -3 1 4075.85 259.254 6
3 -10 1 3618.36 249.035 5
-10 3 -1 4151.77 261.806 6
-3 10 1 4138.85 255.447 3
-1 10 -3 3828.26 258.954 2
-3 -10 -1 4240.47 262.035 5
-1 -10 3 4092.96 260.707 5
3 -10 1 3564.91 241.765 8
3 -10 1 4023.96 233.279 1
-3 -10 -1 3897.07 252.89 8
-10 -1 -3 3760.41 233.514 8
3 10 -1 4393.63 267.692 2
1 -10 -3 4026.68 251.04 8
1 -10 -3 4158.53 259.075 5
-3 -10 3 9984.97 559.668 5
-3 10 3 10027.2 557.581 3
-3 10 -3 8938.72 541.226 6
3 -10 3 9681.9 553.083 5
10 -3 3 9185.07 552.39 1
-10 3 -3 9213.91 558.331 6
-3 10 -3 8947.09 554.098 2
3 10 -3 10070 563.559 2
3 -10 3 9479.61 548.736 8
3 10 3 9996.37 559.741 3
-4 10 -2 2097.22 149.068 7
10 2 4 2238.15 168.657 1
-10 2 -4 2013.08 164.571 7
-10 4 2 2070.39 163.517 7
-4 10 -2 1916.34 163.835 2
-10 -4 -2 2377.87 161.631 7
10 -4 2 1968.66 160.703 4
4 10 2 2384.37 129.059 7
-10 2 -4 2048.15 175.926 6
-4 10 -2 1995.07 148.48 6
-10 -4 -2 2151.36 167.056 6
-10 4 2 2102.44 176.111 6
10 4 -2 2657.98 168.719 4
2 10 -4 2355.46 184.736 2
-10 -4 -2 2181.22 149.232 8
-10 -4 -2 2277.26 160.461 5
-4 -10 2 1966.44 159.381 8
2 -10 4 2263.19 174.621 5
2 -10 4 1824.91 154.147 8
-4 -10 2 2246.7 171.689 5
4 -10 -2 1964.06 155.99 8
-10 2 -4 1737.78 130.893 8
-10 2 -4 1730.22 131.929 3
4 10 2 2243.9 173.006 3
-2 -10 -4 2123.9 171.711 5
4 -10 -2 1970.02 163.875 5
-10 4 0 2741.71 208.011 7
-4 10 0 2898.64 189.952 7
-10 -4 0 3241.98 208.293 7
-10 0 -4 3284.32 215.715 7
-10 0 -4 3475.88 223.712 6
4 -10 0 2783.24 198.802 8
0 -10 4 2939.66 205.297 8
4 10 0 2994.85 217.831 3
-4 10 0 2994.02 202.044 6
10 -4 0 3092.57 211.864 4
10 4 0 3391.65 209.57 4
-10 -4 0 3062.17 214.564 6
4 -10 0 2777.77 189.739 4
0 10 -4 3188.83 223.2 2
10 4 0 3211.2 211.872 2
0 -10 4 3225.67 222.47 5
-10 4 0 2884.06 218.737 6
-10 -4 0 3152.48 199.857 8
-10 -4 0 3155.57 209.015 5
-4 -10 0 2744.56 206.618 8
-4 -10 0 2970.55 215.903 5
-10 0 -4 3504.78 193.676 8
0 -10 -4 3086.06 209.66 8
4 -10 0 2859.38 205.056 5
4 10 0 2944.82 222.32 2
0 10 4 3225.5 218.466 3
-4 10 0 2751.31 206.779 3
0 -10 -4 3278.57 220.368 5
10 0 4 3511.73 214.855 1
2 10 4 2516.14 184.422 3
-4 10 2 2249.91 177.842 3
10 -2 4 2245.68 172.761 1
-10 -2 -4 2523.78 172.835 7
-4 10 2 2171.74 153.294 7
10 4 2 2186.14 166.209 4
4 -10 2 2133.89 164.626 5
-10 -4 2 2445.67 166.586 7
-10 4 -2 2142.74 182.191 6
10 -4 -2 2068.24 170.514 4
-10 -4 2 2569.3 181.134 6
-4 -10 -2 2039.91 136.687 6
-10 4 -2 2119.9 171.104 7
-10 -2 -4 2508.44 184.419 6
-2 10 -4 2207.51 184.177 2
4 -10 2 2313.64 157.463 8
-10 -4 2 2347.59 165.206 5
-2 -10 4 2151.56 178.015 5
4 10 -2 2197.94 183.92 2
-2 -10 4 2112.65 164.49 8
4 -10 2 2058.67 152.046 1
-4 -10 -2 2434.74 168.169 8
2 -10 -4 2060.95 169.305 8
-4 -10 -2 2152.26 176.879 5
10 4 2 2312.5 163.476 3
-10 -4 -4 163.576 85.1941 8
4 -10 4 165.207 101.867 5
-10 -4 -4 118.862 88.6313 7
-10 4 -4 125.439 96.7411 7
4 10 -4 130.229 123.182 2
-4 -10 -4 201.509 102.874 5
4 10 4 152.852 109.358 3
10 4 4 183.065 98.686 1
10 4 4 86.5156 100.53 3
-4 -10 -4 124.828 90.9188 8
-10 -4 -4 259.893 110.261 6
-10 4 -4 57.9296 112.176 6
10 -4 4 41.3282 95.203 1
-10 -4 -4 177.586 90.3864 5
-4 -10 4 86.7877 79.5555 8
-4 -10 4 87.2381 98.2868 5
-5 10 -3 2369.95 180.765 7
-10 3 -5 2413.97 191.259 7
-10 -5 -3 2596.53 185.26 5
-10 -5 -3 2823.37 185.084 7
10 -5 3 2279.31 183.007 4
-10 3 -5 2389.78 198.816 6
5 10 3 2853.2 200.756 3
10 3 5 2562.04 190.298 1
-5 10 -3 2277.17 190.674 2
-5 -10 3 2525.69 194.065 5
-5 -10 3 2267.79 183.983 8
-10 -5 -3 2745.94 195.891 6
-10 -5 -3 2881.45 181.797 8
-3 -10 -5 2380.51 189.53 8
5 -10 -3 2369.17 184.018 8
10 -5 3 2402.03 185.542 1
-5 -10 1 243.503 105.541 5
10 5 -1 237.416 107.914 2
-10 -5 -1 270.632 91.5324 5
5 10 1 379.245 61.8195 1
10 1 5 198.895 95.0882 1
5 10 1 278.58 108.732 3
-10 1 -5 314.871 95.6443 7
-5 10 -1 71.7398 91.0395 3
5 -10 -1 141.472 89.0016 5
-10 -5 -1 357.671 87.4306 7
-5 -10 1 177.221 51.8686 7
-10 5 1 190.697 90.099 7
-10 1 -5 179.4 109.441 6
-5 10 -1 59.0419 94.7881 2
10 -5 1 302.113 89.706 4
5 10 1 408.691 64.9889 4
-5 10 -1 156.11 84.8477 6
-10 -5 -1 354.57 97.7011 6
-10 5 1 198.921 107.968 6
-5 -10 1 173.05 86.8015 8
10 5 -1 193.489 89.3197 4
5 -10 -1 194.279 74.4938 4
-10 -5 -1 374.908 80.7115 8
5 -10 -1 210.281 81.9576 8
-5 -10 -1 313.316 87.9715 8
10 5 1 378.487 98.5581 3
-5 -10 -1 277.33 104.379 5
-10 -1 -5 272.738 93.8527 7
-10 -5 1 277.806 96.6214 5
-10 -5 1 160.563 76.1267 8
-10 5 -1 241.901 92.8558 7
-10 -5 1 306.322 89.3908 7
-5 -10 -1 303.702 55.6165 7
-5 10 1 287.024 100.875 3
5 10 -1 194.778 116.345 2
10 5 1 521.208 111.236 2
-10 -1 -5 194.763 106.333 6
5 -10 1 173.678 85.3569 5
10 5 1 248.166 87.7678 4
-10 5 -1 264.889 109.813 6
-10 -1 -5 335.847 81.3526 8
-5 -10 -1 314.739 71.2746 6
10 -5 -1 280.141 91.0284 4
-10 -5 1 221.368 101.006 6
10 -1 5 225.157 100.741 1
-5 10 1 257.134 100.16 6
5 -10 1 183.447 70.2113 8
-10 -3 -5 2630.61 190.067 7
-10 5 -3 2142.68 187.982 7
3 10 5 2389.16 195.141 3
10 5 3 2458.76 187.796 1
-10 -3 -5 2613.04 197.614 6
-5 -10 -3 2781.75 165.79 6
10 5 3 2572.4 182.874 4
-10 5 -3 2124.08 196.839 6
5 10 -3 2418.95 205.118 2
-5 -10 -3 2536.32 189.224 8
5 -10 3 2422.21 176.667 8
5 -10 3 2226.99 180.887 5
-5 -10 -3 2499.65 195.305 5
-10 -3 -5 2643.4 185.363 8
10 -3 5 2602.82 189.052 1
10 5 3 2752.41 188.162 3
-10 5 -5 2181.6 198.175 7
5 10 5 2400.21 207.414 3
10 5 5 2797.38 201.157 3
-10 -5 -5 2753.04 195.686 7
10 5 5 2760.02 201.182 1
-5 10 -5 2627.64 212.703 6
-10 -5 -5 2914.43 206.243 6
-10 5 -5 2572.22 210.666 6
-10 -5 -5 3072.01 201.277 8
10 -5 5 2298.46 196.817 1
-5 -10 -5 2411.89 203.886 5
5 -10 5 2484.17 207.076 5
-5 -10 -5 2554.48 199.34 8
-10 -5 -5 2887.75 206.852 5
6 10 4 1894.64 172.825 3
-6 10 -4 1747.68 165.183 6
-10 -6 -4 1909.18 167.476 6
-10 4 -6 1795.45 182.578 6
-6 -10 4 1553.86 160.817 5
-10 -6 -4 1913.58 161.218 8
-10 -6 -4 1760.45 162.18 5
-10 4 -6 1636.62 167.329 7
-6 10 -2 3737.85 259.571 7
-10 -6 -2 4607.31 265.386 7
-6 -10 2 3956.03 245.275 7
-10 2 -6 4213.69 274.611 7
-10 -6 -2 4552.16 263.086 8
-10 2 -6 4436.24 283.162 6
-6 10 -2 3911.13 261.95 6
-10 -6 -2 4213.69 268.703 6
-10 6 2 3545.01 274.139 6
6 10 2 4190.51 275.828 3
10 2 6 4350.01 274.06 1
6 10 2 4638.7 250.672 1
-10 6 2 3835.46 268.375 7
-6 10 -2 3249.35 259.55 2
-6 -10 2 4086.25 275.794 5
-6 -10 2 3860.71 264.464 8
6 -10 -2 3887.68 259.634 8
-10 -6 -2 4171.1 269.212 5
-10 0 -6 2299.55 192.498 7
-6 10 0 2098.97 170.339 7
-10 6 0 2165.09 184.728 7
-10 0 -6 2534.84 201.804 6
10 6 0 2612.98 184.12 4
-10 6 0 2027.52 195.363 6
-10 -6 0 2579.16 190.825 6
-6 -10 0 2729.19 177.592 6
6 10 0 2255.89 199.419 3
-10 -6 0 2885.57 184.354 8
10 0 6 2618.13 192.882 1
10 6 0 2794.2 200.409 2
-10 -6 0 2926.67 193.984 5
-6 -10 0 2281.77 181.94 8
-10 -6 0 2693.66 181.602 7
6 10 0 2404.27 205.595 2
-10 -2 -6 4768.08 284.151 7
-10 -6 2 4480.37 272.029 7
-10 -2 -6 4274.58 283.796 6
6 -10 2 3661 258.571 4
10 6 2 4515.72 271.921 4
10 6 2 4418.03 273.742 1
-6 -10 -2 4249.73 255.355 6
-6 -10 -2 4220.94 254.276 7
6 10 -2 3875.06 287.994 2
-10 -6 2 4498.18 281.011 5
10 -2 6 4486.84 281.306 1
6 -10 2 3801.68 260.402 8
-6 -10 -2 4056.29 277.415 8
-6 -10 -2 4281.74 284.636 5
10 6 2 4694.66 278.245 3
10 6 4 1985.36 172.233 3
-6 -10 -4 1698.04 171.537 5
-10 -4 -6 2074.2 173.261 6
-10 6 -4 1693.09 177.931 6
-6 -10 -4 1970.86 165.554 8
10 -4 6 1989.69 170.17 1
6 -10 4 1620.01 160.425 5
-10 -4 -6 2225.5 172.052 8
10 6 4 1959.22 166.594 1
-10 6 -6 2765.56 257.245 7
6 10 6 3536.27 260.719 3
-10 -6 -6 4064.08 255.485 6
-10 6 -6 3434.12 272.781 6
10 -6 6 3444.36 253.013 1
-10 -6 -6 4285.85 259.877 8
-6 -10 -6 3448.32 252.678 8
-10 -7 -5 1123.62 136.868 7
-10 -7 -5 1224.64 148.5 5
-10 -7 -5 1305.41 156.236 6
-10 5 -7 919.604 192.09 6
-7 10 -5 796.291 155.154 6
-10 -7 -5 1248.55 147.952 8
10 -7 5 1022.29 141.375 1
7 -10 -3 465.352 108.162 8
-7 10 -3 211.294 103.454 7
-10 -7 -3 397.556 118.199 5
-10 -7 -3 541.969 100.985 7
7 10 3 507.431 131.863 3
-10 7 3 468.06 120.647 7
-7 10 -3 537.531 124.653 6
-10 -7 -3 551.07 117.88 6
-10 -7 -3 436.46 106.802 8
-7 -10 3 470.748 118.52 5
-7 -10 1 587.492 121.906 5
-10 -7 -1 253.486 112.124 5
-7 -10 1 650.027 81.7668 7
7 10 1 511.286 132.225 3
10 7 -1 722.265 136.356 2
-7 10 -1 424.789 97.2104 7
-10 -7 -1 429.527 94.0083 7
-10 7 1 492.651 108.299 7
7 10 1 537.166 88.3405 1
-10 -7 -1 419.124 98.5562 8
10 -7 1 400.216 99.5079 4
-7 10 -1 439.379 108.705 6
-10 -7 -1 366.815 109.861 6
7 10 1 480.161 91.5585 4
-10 7 1 479.317 124.985 6
-7 -10 1 482.86 109.299 8
7 -10 -1 500.671 99.2501 4
10 7 -1 669.331 112.027 4
10 -7 -1 467.263 77.9944 8
10 7 1 279.04 117.748 3
-7 -10 -1 434.503 122.993 5
-7 -10 -1 546.747 81.0974 7
-10 7 -1 358.838 104.737 7
-10 -7 1 721.874 105.756 7
-7 -10 -1 499.411 106.583 8
7 10 -1 583.952 140.081 2
10 7 1 339.441 129.486 2
7 -10 1 457.025 90.4106 4
10 7 1 365.045 100.535 4
-10 7 -1 337.013 121.247 6
-7 -10 -1 441.891 95.59 6
10 -7 -1 581.078 104.378 4
-7 10 1 415.069 124.059 6
-10 -7 1 615.965 121.212 6
-10 -7 1 684.353 122.983 5
-10 -7 1 735.73 102.358 8
-7 10 1 349.999 97.9578 7
-7 -10 -3 624.374 129.875 5
10 7 3 401.679 120.452 3
-10 -7 3 384.828 107.117 5
10 7 3 562.68 105.63 4
-7 10 3 231.928 111.529 7
7 -10 3 233.042 101.843 1
10 7 3 582.77 110.906 1
-7 -10 -3 609.095 112.801 8
-7 -10 -5 1114.84 152.096 5
-7 -10 -5 1124.83 131.189 6
10 7 5 1228.04 154.477 3
7 -10 5 992.652 143.661 5
10 7 5 1188.18 145.285 1
-7 -10 -5 1282.91 147.291 8
8 10 4 3788.82 259.088 3
-8 10 -4 2849.2 240.213 7
-10 -8 -4 3700.96 238.475 7
-10 -8 -4 3823.88 245.912 6
-8 10 -4 2979.16 252.469 6
-10 -8 -4 3165.07 247.818 5
-8 10 -2 958.652 136.982 7
-10 -8 -2 1720.62 139.114 7
-8 -10 2 1420.22 128.396 7
-8 10 -2 1261.1 157.354 6
-10 -8 -2 1553.03 146.454 6
-10 -8 -2 1853.11 148.174 8
10 8 -2 1559.73 178.378 2
-8 -10 2 1421.16 161.353 5
-8 -10 2 1256.45 144.427 8
-10 -8 -2 1807.06 166.216 5
8 -10 -2 1203.47 137.828 8
8 10 2 1631.08 168.378 3
-10 8 2 1283.54 148.79 7
8 10 2 1783.95 141.747 1
-10 -8 0 2207.58 163.805 8
-8 10 0 1511.07 152.818 7
-10 -8 0 1832.27 149.54 7
8 10 0 2002.16 183.206 3
10 -8 0 1434.84 152.237 4
8 -10 0 1414.36 146.495 4
-10 8 0 1617.93 173.119 6
-8 10 0 1211.24 164.607 6
-10 -8 0 2086.83 169.127 6
-8 -10 0 1686.2 174.865 5
-10 -8 0 2412.51 178.336 5
10 8 0 2056.7 187.495 2
-8 -10 0 1869.37 158.009 8
10 8 0 1990.22 160.693 4
8 10 0 1860.97 191.359 2
-10 8 0 1700.07 164.298 7
-8 -10 -2 1581.47 164.378 5
-10 -8 2 1742.84 142.128 7
8 -10 2 1448.42 139.265 1
10 8 2 1535.21 145.001 1
8 -10 2 1151.07 134.042 4
10 8 2 1495.38 141.232 4
10 -8 -2 1259.31 149.204 4
8 10 -2 1288.91 173.476 2
-10 -8 2 1690.23 163.381 5
-10 -8 2 1579.69 144.471 8
-8 -10 -2 1397.95 150.353 8
8 -10 2 1172.3 127.706 5
10 8 2 1892.25 168.006 3
10 8 4 3664.36 250.352 3
-10 8 -4 2558.07 236.415 7
-8 -10 -4 3799.48 232.523 6
-10 8 -4 2878.15 251.106 6
8 -10 4 2872.99 232.152 1
10 8 4 3653.87 238.652 1
-8 -10 -4 3751.74 252.803 5
-9 10 -5 735.703 180.156 7
-10 -9 -5 837.949 186.641 5
-9 10 -5 432.292 206.387 6
-10 -9 -5 758.703 187.091 6
10 -9 5 592.383 167.746 1
-10 -9 -3 932.202 137.775 7
-10 -9 -3 976.707 153.415 6
-9 -10 1 1058.04 155.633 5
-9 10 -1 1007.57 136.312 7
-9 -10 1 1247.74 119.186 7
-10 -9 -1 1045.27 156.019 5
9 10 1 1199.75 126.712 1
9 10 1 1212.17 130.051 4
10 9 -1 1417.03 152.778 4
10 -9 1 960.713 131.427 4
-9 10 -1 836.793 151.76 6
-10 -9 -1 1028.01 141.914 6
-10 9 1 1087.16 162.217 6
9 -10 -1 834.623 129.37 4
10 9 -1 1379.67 176.073 2
-9 -10 -1 1364.61 119.025 7
-10 -9 1 1272.58 129.854 7
-9 10 1 688.12 135.579 7
9 10 -1 1034.64 173.599 2
10 9 1 992.774 133.156 4
-9 -10 -1 1328.27 137.212 6
-10 -9 1 1419.33 161.656 6
10 9 1 917.347 169.287 2
-9 10 1 764.447 158.227 6
10 -9 -1 942.717 133.648 4
-9 -10 -1 1291.72 158.854 5
10 9 1 826.965 161.693 3
-9 -10 -3 1075.7 128.898 7
-9 -10 -3 858.965 165.265 5
-9 -10 -3 1153.02 133.283 6
-10 9 -5 835.234 178.751 7
-9 -10 -5 804.63 187.937 5
10 9 5 1053.34 201.772 3
-9 -10 -5 1008.14 186.46 6
-10 9 -5 580.039 217.883 6
-10 10 2 1544.33 187.537 7
-10 -10 2 1973.98 166.042 7
10 10 2 1045.89 180.298 1
-10 -10 -2 498.236 224.872 5
-10 -10 -2 1224.51 159.848 7
10 -10 -2 1638.28 186.153 4
-10 10 -2 399.093 180.144 7
10 10 2 945.03 167.316 4
10 10 -2 1869.69 230.649 2
-10 -10 2 2185.1 206.274 5
-10 -10 2 1720.99 180.895 8
-10 -10 -4 77.0927 320.595 5
-10 -10 -4 177.23 295.065 6
10 10 4 926.531 241.518 1
-10 -10 -4 132.965 255.778 7
-11 0 1 904.362 114.354 7
-11 1 0 1301.79 123.644 7
-11 -1 0 1166.86 118.921 7
-11 -1 0 1091.41 102.741 5
0 11 1 874.324 127.101 3
0 -11 1 973.247 109.131 8
-11 0 -1 774.457 118.238 7
11 0 1 1170.21 117.637 4
11 -1 0 1219.05 123.28 4
-11 0 -1 887.948 125.067 6
11 1 0 1399.59 123.41 4
-11 1 0 1259.55 133.232 6
-11 -1 0 1094.68 131.147 6
11 0 -1 1002.01 119.838 4
-11 0 1 925.055 129.062 6
0 11 -1 842.366 136.599 2
0 11 -1 1041.52 129.192 3
-11 1 0 993.238 87.8151 5
0 -11 1 991.654 121.179 5
11 0 1 907.303 88.0809 3
1 -11 0 1122.19 112.193 8
-11 0 -1 791.668 86.6388 5
0 -11 -1 1004.72 111.767 8
1 11 0 1188.72 134.952 3
-1 -11 0 1213.73 127.105 5
1 -11 0 1110.22 124.507 5
-1 11 0 1164.77 131.892 3
0 -11 -1 1147.29 125.168 5
-1 -11 0 1159.82 112.68 8
-11 -2 -1 4217.89 260.418 7
-11 2 1 4343.57 260.08 7
-11 -2 -1 4097.47 242.734 8
11 1 2 4252.73 260 4
11 -2 1 3905.02 258.354 4
-11 1 -2 4288.82 270.869 6
-1 11 2 3514.13 229.555 4
-11 -2 -1 3922.38 264.689 6
-11 2 1 4513.41 271.773 6
11 2 -1 4710.69 263.738 4
-11 -1 2 3598.01 265.998 6
11 -1 -2 3799.01 261.76 4
2 -11 -1 4203.97 263.25 5
1 -11 2 3674.16 228.485 7
-11 1 -2 3613.64 228.972 8
1 11 -2 4009.09 272.368 2
1 -11 2 4029.48 253.753 8
-2 -11 1 4082.22 265.92 5
-2 11 -1 3959.25 263.725 3
-11 -2 -1 3706.72 243.273 5
11 1 2 4360.75 245.135 2
2 -11 -1 4366.08 256.997 8
2 11 1 4445.53 270.555 3
-2 11 -1 4184.5 267.081 2
-1 -11 -2 4213.14 267.203 5
-11 1 -2 3904.94 235.491 5
-1 11 2 4346.53 268.236 3
-11 -1 -2 4569.88 261.729 7
-2 11 1 3653.87 225.782 7
-11 2 -1 3763.05 257.652 7
-11 1 2 3534.66 253.874 7
-11 -1 -2 4060.47 241.413 5
11 -1 2 4050.52 229.357 8
-1 11 -2 3310.05 228.161 6
11 -1 2 3891.13 255.662 4
11 2 1 4282.84 257.696 4
-11 -1 -2 4141.58 265.039 6
-11 2 -1 3782.35 264.588 6
1 -11 -2 3233.78 228.151 6
-11 -2 1 4386.44 265.817 6
-11 1 2 3646.34 263.032 6
11 1 -2 4003.36 256.632 4
11 -1 2 3850.22 229.7 3
-2 11 1 4201.18 262.44 3
11 -1 2 3932.57 229.785 2
-1 -11 2 4293.26 255.037 8
-1 -11 2 4106.92 260.92 5
1 11 2 4224.84 266.724 3
-1 11 -2 3806.57 266.836 2
11 2 1 4187.8 241.464 3
2 -11 1 4245.47 251.402 8
1 -11 -2 4455.4 256.849 8
-2 -11 -1 4416.96 266.384 5
2 11 -1 4357.8 272.893 2
1 -11 -2 4051.78 260.564 5
-2 -11 -3 527.468 102.733 8
3 -11 -2 525.327 101.44 8
2 -11 3 549.729 115.077 5
11 2 3 757.53 110.481 1
2 11 -3 419.872 130.091 2
-11 2 -3 470.496 109.069 7
-11 -3 -2 587.371 103.616 7
3 -11 -2 444.515 105.517 5
3 11 2 789.446 130.808 3
-3 -11 2 519.28 112.352 5
-11 3 2 554.212 103.256 7
-3 11 -2 530.485 122.619 2
11 2 3 791.325 102.214 3
-2 11 3 444.011 120.37 3
11 2 3 519.122 102.738 4
11 -3 2 562.304 106.648 4
-3 11 -2 539.088 84.1174 6
-11 2 -3 635.941 125.823 6
-11 3 2 586.939 123.583 6
11 3 -2 599.997 108.137 4
2 -11 3 480.723 93.3688 8
-3 -11 2 434.287 95.7376 8
0 -11 3 34.269 100.375 5
11 3 0 63.8221 96.7639 2
-3 -11 0 59.6781 83.9731 8
-3 -11 0 124.819 104.662 5
3 -11 0 23.2059 95.0531 5
0 11 -3 31.8556 111.767 2
-3 11 0 0.97959 58.5526 7
-11 3 0 74.485 91.6657 7
-11 -3 0 79.7962 88.6979 7
3 11 0 80.5464 109.598 3
11 0 3 26.2185 90.7133 4
11 0 3 6.56251 98.6605 1
-11 0 -3 9.55911 95.8306 7
-11 0 -3 5.06441 108.441 6
3 11 0 30.4642 117.782 2
11 -3 0 44.2479 92.65 4
-11 3 0 2.51592 104.62 6
11 3 0 28.113 89.1455 4
-11 -3 0 37.6401 101.12 6
3 -11 0 15.7891 54.6677 1
-11 -3 0 49.066 69.7986 8
0 -11 3 34.408 81.2381 8
-11 0 -3 41.5443 54.5073 8
3 -11 0 15.0322 76.8698 8
-2 -11 3 483.07 116.15 5
3 -11 2 552.217 108.873 5
-11 -2 -3 714.265 98.1493 5
-3 -11 -2 599.997 117.4 5
-2 11 -3 514.616 125.801 2
-11 -2 -3 863.582 111.116 7
-11 3 -2 472.807 109.641 7
2 -11 -3 473.618 110.932 5
3 11 -2 516.208 129.528 2
-11 -3 2 554.56 100.898 7
2 11 3 656.529 124.117 3
-3 11 2 475.747 120.015 3
-2 11 -3 646.362 88.7299 6
11 -2 3 588.063 102.562 4
2 -11 -3 358.628 95.5878 8
11 3 2 552.53 107.385 4
3 -11 2 536.532 93.0944 8
-11 -2 -3 711.228 123.921 6
-11 3 -2 558.074 125.901 6
11 -2 3 558.36 108.522 1
-11 -3 2 517.212 116.345 6
11 -3 -2 450.117 106.695 4
-3 11 2 522.643 80.3964 7
-3 -11 -2 609.394 102.299 8
-4 -11 3 746.648 126.311 5
3 11 -4 966.398 148.676 2
-4 11 -3 560.544 131.435 2
-11 -4 -3 901.675 118.124 7
4 -11 -3 856.694 129.268 5
11 -4 3 832.42 120.471 1
11 -4 3 924.893 119.049 4
4 11 3 614.691 132.712 3
-4 11 -3 567.226 108.513 6
-11 3 -4 643.198 121.324 7
-11 3 -4 801.912 139.246 6
-11 -4 -3 834.992 129.364 6
-11 4 3 554.079 121.963 7
11 3 4 845.916 122.716 1
-11 -4 -3 930.491 101.392 8
4 -11 -3 1008.95 114.563 8
3 -11 4 633.028 104.033 8
-11 -4 -3 921.736 112.401 5
1 11 -4 756.07 135.026 2
-11 -4 -1 993.306 112.016 7
-1 -11 -4 746.374 107.702 8
-4 11 -1 653.309 118.522 3
4 11 1 731.043 134.588 3
-4 11 -1 622.541 90.7821 7
11 4 -1 862.214 130.99 2
-11 1 -4 830.133 117.529 7
4 -11 -1 694.387 114.552 5
-1 -11 -4 646.516 119.897 5
-11 4 1 611.214 111.024 7
-4 -11 1 970.717 126.729 5
1 -11 4 782.812 126.861 5
-1 11 4 915.718 127.836 3
-11 1 -4 897.524 134.3 6
-4 11 -1 523.271 115.769 2
11 -4 1 731.788 109.575 4
-4 11 -1 642.274 94.5506 6
-11 -4 -1 929.228 121.7 6
-11 4 1 457.933 124.81 6
1 -11 4 519.571 104.48 8
11 4 -1 775.742 115.366 4
-11 1 -4 642.015 73.3907 8
-11 -4 -1 809.032 96.2693 8
-11 -4 -1 841.149 107.779 5
11 1 4 734.594 116.514 1
-4 -11 1 833.6 106.776 8
1 -11 -4 801.257 111.983 8
4 -11 1 738.035 87.8443 1
-1 11 -4 698.167 133.884 2
4 -11 1 589.057 110.816 5
-4 -11 -1 815.556 126.472 5
-11 -1 -4 660.764 115.869 7
-11 4 -1 716.053 117.48 7
1 -11 -4 795.58 123.665 5
-4 11 1 748.562 121.543 3
11 4 1 774.264 118.444 2
11 4 1 897.202 114.488 4
4 11 -1 866.311 142.636 2
1 11 4 853.674 132.485 3
-11 -1 -4 676.014 127.847 6
4 -11 1 546.168 78.4185 4
-11 4 -1 762.334 128.854 6
-11 -4 1 847.549 110.08 7
11 -4 -1 563.294 108.674 4
-11 -4 1 867.115 123.204 6
-1 -11 4 962.209 129.755 5
-11 -4 1 888.255 116.726 5
-11 -4 1 780.217 95.8677 8
-1 -11 4 804.289 103.897 8
11 4 1 901.009 108.093 3
4 -11 1 756.765 97.6071 8
-11 -1 -4 650.565 86.3199 8
-4 -11 -1 762.217 110.191 8
11 -1 4 653.515 114.274 1
-3 -11 4 774.277 127.282 5
-3 11 -4 457.201 137.575 2
3 -11 -4 786.987 114.628 8
4 -11 3 633.844 113.903 5
4 11 -3 785.844 140.832 2
-11 -3 -4 727.883 122.023 7
-4 -11 -3 725.905 128.538 5
-11 4 -3 747.153 121.93 7
-3 -11 4 689.094 110.814 8
-4 -11 -3 689.065 113.855 8
11 4 3 894.611 115.352 4
3 11 4 676.248 132.666 3
-11 -3 -4 679.163 135.573 6
11 -3 4 682.461 118.46 1
-4 11 3 898.584 131.554 3
-11 4 -3 942.253 140.837 6
4 -11 3 710.813 103.441 8
11 4 3 843.789 120.313 1
-11 -3 -4 806.891 102.988 8
11 4 3 1031.03 121.326 3
5 11 4 2482.51 198.11 3
-11 4 -5 1880.73 183.101 7
-11 -5 -4 2518.18 181.226 7
11 -5 4 1955.2 180.65 1
-11 -5 -4 2107.84 182.198 5
-4 -11 -5 2112.64 190.879 5
-5 -11 4 2093.98 172.868 8
-5 11 -4 2141.51 182.541 6
-11 4 -5 2126.82 197.261 6
-11 -5 -4 2675.74 195.057 6
4 -11 5 1958.32 194.626 5
-5 -11 4 2100.66 186.094 5
-11 -5 -4 2313 177.317 8
-4 -11 -5 2005.26 179.117 8
11 4 5 2336.45 187.157 1
-11 -5 -2 3341.08 228.948 7
5 11 2 3277.24 244.428 3
5 11 2 3241.32 199.787 4
-11 -5 -2 3401.12 236.693 6
-11 5 2 3017.87 243.394 6
11 5 -2 3427.52 240.418 4
-11 2 -5 3108.92 244.255 6
11 -5 2 2804.65 227.241 4
5 -11 -2 3815.8 238.224 5
-11 5 2 2885.13 229.469 7
2 -11 5 3484.81 250.215 5
-5 -11 2 4112.48 244.316 5
-5 11 -2 2492.43 230.732 2
-5 -11 2 4333.11 236.326 8
-5 11 -2 2886.19 227.773 3
-11 -5 -2 3213 220.29 8
5 -11 -2 3951.04 231.357 8
-11 -5 -2 3404.92 230.127 5
-2 -11 -5 3176.76 232.48 8
-11 2 -5 3208.83 237.778 7
11 0 5 5020.2 295.324 1
-11 -5 0 4791.49 288.532 7
5 11 0 4027.82 260.16 1
-11 0 -5 4762.33 302.511 6
11 -5 0 4361.22 286.839 4
11 5 0 4491.26 288.345 4
-11 -5 0 4267.19 293.038 6
-5 11 0 4043.92 282.124 6
11 5 0 4653.17 292.375 2
-11 -5 0 4784.73 281.415 8
-11 -5 0 4752.96 290.058 5
5 11 0 4618.84 301.449 3
-5 -11 0 4491.99 288.869 8
-5 -11 0 4171.52 296.175 5
5 -11 0 4240.97 276.562 8
-11 0 -5 4987.8 276.802 8
0 -11 -5 4621.99 294.256 8
-5 11 0 3989.92 286.006 3
5 11 0 4866.69 308.859 2
-5 11 2 3969.14 245.416 3
-11 5 -2 2727.76 234.413 7
-11 -5 2 3759.57 233.66 7
11 5 2 3453.82 231.015 3
11 5 2 3358.92 231.595 4
11 -5 -2 2862.73 230.982 4
-11 -5 2 3539.26 247.576 6
-11 -5 2 3616.93 236.645 5
5 11 -2 3750.21 257.062 2
5 -11 2 2993.72 218.543 8
5 -11 2 3150.16 228.87 5
-5 -11 -2 3678.08 235.632 8
-5 -11 -2 3505.55 248.758 5
11 -2 5 3342.52 239.327 1
11 5 2 3397.27 234.839 2
11 5 4 2752.46 195.222 3
11 5 4 2403.33 190.47 1
-11 -4 -5 2620.39 189.517 7
-11 5 -4 2181.77 190.887 7
4 11 5 2140.95 198.24 3
-11 -4 -5 2565.62 200.824 6
-11 5 -4 2029.45 198.781 6
5 11 -4 1843.45 207.582 2
5 -11 4 1754.2 186.536 5
-5 -11 -4 2395.63 189.755 8
-11 -4 -5 2728.27 185.812 8
-5 -11 -4 2353.01 198.311 5
11 -4 5 2198.05 189.942 1
-5 -11 -6 1584.99 181.488 5
-11 5 -6 1420.6 170.785 7
-11 -6 -5 1709.69 169.8 7
6 11 5 1808.23 185.844 3
-6 11 -5 1709.24 181.983 6
-11 5 -6 1486.45 189.195 6
-11 -6 -5 2039.44 183.686 6
11 5 6 1690.32 173.68 1
-11 -6 -5 1784.2 169.504 8
-5 -11 -6 1749.65 170.383 8
-11 -6 -5 1939.76 181.886 5
-6 -11 3 84.3848 114.222 5
6 -11 -3 134.856 103.77 8
-6 11 -3 225.012 125.423 2
-6 11 -3 218.928 104.38 7
-11 3 -6 42.3527 111.923 7
-11 -6 -3 264.841 112.028 5
-11 -6 -3 280.264 107.099 7
-11 6 3 264.792 119.953 7
6 11 3 204.748 129.462 3
-11 3 -6 149.558 133.68 6
11 -6 3 96.4518 106.487 4
-6 11 -3 155.062 113.199 6
-11 -6 -3 247.979 117.645 6
11 3 6 176.669 115.094 1
-6 -11 3 142.602 97.666 8
-11 -6 -3 274.795 99.416 8
11 -6 3 85.3115 107.284 1
11 6 -1 531.591 132.78 2
-11 1 -6 287.521 110.829 7
-6 -11 1 498.386 123.828 5
6 11 1 421.634 132.729 3
-11 -6 -1 406.999 113.961 5
-6 11 -1 292.314 89.0564 7
-6 11 -1 398.1 113.379 3
-11 -6 -1 421.774 105.198 7
6 -11 -1 361.92 107.247 5
-11 6 1 318.096 107.989 7
-11 1 -6 385.587 129.21 6
-6 11 -1 314.278 114.593 2
-6 -11 1 528.684 105.381 8
11 -6 1 307.414 107.643 4
-11 -6 -1 446.264 117.716 6
11 1 6 488.567 119.661 1
6 11 1 565.8 86.0727 4
-11 6 1 295.992 128.822 6
11 6 -1 487.304 108.779 4
-11 -6 -1 465.821 101.35 8
6 -11 -1 360.402 101.179 8
-11 -6 1 450.961 117.134 5
-6 -11 -1 429.965 124.891 5
11 6 1 394.804 117.663 3
-11 -6 1 407.199 99.2272 8
6 -11 1 159.947 97.7427 5
-11 -1 -6 327.716 113.879 7
-11 6 -1 215.883 110.158 7
-6 11 1 310.101 92.2337 7
-11 -6 1 504.696 107.599 7
6 11 -1 433.673 140.983 2
11 6 1 460.776 128.03 2
-6 11 1 252.118 118.914 3
-11 -1 -6 461.304 130.439 6
6 -11 1 266.153 83.7593 4
11 6 1 440.032 106.785 4
-11 6 -1 358.896 128.019 6
11 -6 -1 357.396 108.558 4
-11 -6 1 453.614 125.499 6
11 -1 6 583.354 120.581 1
6 -11 1 342.552 84.4937 1
6 -11 1 256.224 83.4439 8
-6 -11 -1 382.436 105.361 8
-11 -3 -6 260.591 109.815 8
6 -11 3 172.495 99.1017 5
6 11 -3 313.549 144.885 2
-11 -3 -6 118.812 110.203 7
-6 -11 -3 318.381 123.532 5
-11 6 -3 143.106 110.359 7
11 6 3 185.141 113.571 1
11 6 3 116.352 114.362 3
-6 11 3 17.0689 102.54 7
-11 -3 -6 394.277 131.302 6
11 6 3 206.688 103.803 4
-11 6 -3 33.3379 131.35 6
6 -11 3 171.951 93.2119 1
11 -3 6 103.456 114.054 1
6 -11 3 133.559 90.861 8
-6 -11 -3 228.721 112.536 8
11 6 5 1890.12 184.402 3
5 11 6 1567.69 181.276 3
-11 -5 -6 1945.9 185.141 6
-11 6 -5 1503.46 193.636 6
6 -11 5 1756.31 180.195 5
11 6 5 2236.46 180.253 1
-11 -5 -6 1876.03 176.853 8
-6 -11 -5 1895.79 184.91 5
-11 6 -7 1120.16 209.853 7
-11 -7 -6 1206.1 212.406 5
-7 11 -6 882.496 229.945 6
-11 6 -7 1194.81 236.873 6
-11 -7 -6 1203.48 203.077 6
7 11 6 1177.76 212.269 3
-11 -7 -6 1235.2 202.971 8
-11 -7 -6 1267.49 196.616 7
-7 -11 4 482.401 130.431 5
-11 4 -7 52.6305 137.06 7
-7 11 -4 307.062 131.835 7
-11 -7 -4 177.402 116.358 7
-7 -11 4 611.027 115.542 8
-11 -7 -4 253.375 129.717 5
7 11 4 236.124 146.872 3
-11 4 -7 205.676 162.169 6
-7 11 -4 173.259 138.71 6
-11 -7 -4 345.665 139.198 6
11 -7 4 146.262 123.783 1
-11 2 -7 1672.08 176.875 7
-7 11 -2 1038.78 144.234 7
-11 -7 -2 1705.22 150.092 7
-11 7 2 1364.37 156.829 7
-11 2 -7 1926.06 193.34 6
11 -7 2 1640.51 155.587 4
-7 11 -2 1299.7 156.652 6
-11 -7 -2 1594.7 157.227 6
11 7 -2 1949.77 185.443 2
11 2 7 2177.74 173.37 1
-11 7 2 1182.2 168.54 6
-7 11 -2 1326.08 152.831 2
-7 -11 2 1682.3 172.633 5
-7 -11 2 1773.62 154.29 8
-11 -7 -2 1682.9 152.366 8
7 -11 -2 1551.87 151.666 8
-11 -7 -2 1831.2 165.111 5
7 11 2 1545.36 175.874 3
-11 0 -7 5812.87 380.628 7
-11 7 0 5145.72 366.86 7
-11 -7 0 6560.12 365.304 7
-11 0 -7 6172.87 384.586 6
11 7 0 6458.12 366.06 4
-11 7 0 4655.89 367.581 6
-7 11 0 5482.04 365.657 6
-11 -7 0 5817.92 370.265 6
-7 -11 0 6067.83 377 5
11 0 7 6450.26 376.263 1
11 7 0 6220.2 376.113 2
7 11 0 6644.13 385.353 3
-11 -7 0 6273.17 374.145 5
-7 -11 0 6123.44 368.263 8
7 -11 0 5401.27 349.607 8
7 -11 0 5179.67 356.055 5
-11 -2 -7 1914.15 177.657 7
7 -11 2 1396.18 141.773 1
-7 11 2 1467.21 149.562 7
-11 -7 2 1830.15 151.848 7
-11 -2 -7 1513.79 173.268 6
11 7 2 1513.79 155.867 1
7 -11 2 1271.01 137.591 4
11 7 2 1804.25 154.057 4
-11 7 -2 1605.94 180.561 6
11 -7 -2 1302.01 159.499 4
11 -2 7 1751.53 169.598 1
7 11 -2 1829.79 188.826 2
-11 -7 2 1975.57 168.497 5
-11 -7 2 1929.76 153.189 8
7 -11 2 1340.13 133.697 8
7 -11 2 1346.03 143.081 5
11 7 2 1869.8 166.029 3
-7 -11 -2 1829.96 173.653 5
11 7 2 1735.77 169.756 2
-7 -11 -4 390.552 137.562 5
11 7 4 183.557 129.955 1
11 7 4 241.461 142.395 3
-11 -4 -7 264.547 133.223 6
-11 7 -4 40.8512 151.163 6
7 -11 4 141.766 116.26 1
-11 -6 -7 1417.73 193.273 8
-11 7 -6 775.408 195.053 7
-7 -11 -6 1297.5 191.53 8
-7 -11 -6 1182.95 197.379 5
11 7 6 1006.81 193.217 1
-11 -6 -7 1237.48 186.515 6
-11 7 -6 841.427 223.2 6
11 7 6 1235.95 209.463 3
7 -11 6 1014.87 200.545 5
-11 -8 -5 2562.19 231.316 7
-11 -8 -5 2572.63 256.804 6
8 11 5 2061.91 253.092 3
-8 11 -5 1658.7 255.396 6
-11 -8 -5 2048.02 236.477 5
-8 -11 1 343.835 134.533 5
-11 -8 -1 203.892 133.981 5
-11 -8 -1 127.107 111.882 7
-11 8 1 186.274 121.275 7
11 -8 1 94.1694 119.597 4
-11 -8 -1 22.9787 141.048 6
-11 8 1 307.264 141.194 6
8 -11 -1 147.023 108.182 4
11 8 -1 280.944 124.34 4
8 -11 -1 282.196 102.823 8
-8 -11 -1 47.7181 150.689 5
11 8 1 120.928 149.377 3
-11 8 -1 77.1941 124.905 7
-8 11 1 184.075 115.159 7
8 -11 1 281.999 121.742 1
11 8 1 107.063 173.595 2
8 -11 1 167.344 110.874 4
11 8 1 234.203 116.68 4
11 -8 -1 311.376 116.819 4
-8 11 1 244.947 144.087 6
-11 -8 1 447.062 142.701 6
8 -11 1 100.929 86.7909 8
-11 8 -5 2037.8 232.904 7
11 8 5 2121.02 254.847 3
-8 -11 -5 2210.16 244.612 5
11 8 5 2559.56 231.535 1
-9 -11 2 491.739 184.696 5
11 9 -2 363.102 216.551 2
-11 -9 -2 138.154 187.541 5
-11 9 2 568.238 174.909 7
-11 -9 -2 61.0558 171.572 6
-11 9 2 279.403 199.685 6
-11 9 0 919.13 188.08 6
-9 11 0 495.39 178.848 6
-11 -9 2 396.599 179.928 5
-9 -11 -2 100.248 188.102 5
-11 -9 2 515.583 155.383 8
11 9 2 83.2011 205.414 3
-9 11 2 701.583 171.132 7
-11 -9 2 503.07 152.148 7
11 9 2 61.296 166.116 4
-11 9 -2 128.41 196.578 6
-11 -10 -7 7.27492 166.064 8
-11 -10 -7 116.111 166.7 5
-11 -10 -7 96.2574 157.972 6
-10 11 -7 172.826 210.689 6
10 11 7 6.85169 175.377 3
-11 -10 -5 230.111 187.412 7
-11 -10 -5 277.525 215.245 5
-11 -10 -5 258.789 203.868 6
-11 -10 -5 116.564 205.225 8
-10 -11 -5 256.949 205.304 5
11 10 5 448.532 237.88 3
11 10 5 81.8357 195.067 1
-10 -11 -5 488.178 212.826 8
-10 -11 -7 39.8411 159.855 8
-10 -11 -7 241.107 168.67 5
-11 10 -7 75.7564 200.238 6
11 10 7 57.6505 176.819 3
11 11 0 86.573 295.306 3
11 11 0 664.078 327.338 2
-11 -11 2 740.758 196.964 5
11 -11 2 266.763 195.896 1
-11 -11 -2 764.229 208.481 5
11 11 2 656.493 217.887 3
-11 11 -2 55.0294 191.454 7
-11 11 2 282.128 196.587 7
11 11 -2 759.292 227.169 2
11 11 2 125.122 255.944 2
-11 11 -2 373.345 220.847 6
-11 11 2 3.5585 230.376 6
11 -11 -2 165.548 190.231 4
-11 -11 2 636.354 166.207 8
-11 -11 -2 534.002 179.941 8
-11 -11 -4 50.321 167.466 5
-11 11 -4 154.651 160.879 7
11 -11 4 142.003 147.671 1
11 11 4 90.8768 183.345 3
-11 11 -4 350.489 195.746 6
-11 -11 -4 51.7101 154.676 8
-11 -11 -6 100.212 163.58 8
-11 11 -6 29.7678 174.439 7
-11 -11 -6 168.823 163.971 5
11 11 6 250.241 178.852 3
-11 11 -6 62.7864 192.902 6
11 -11 6 68.136 151.231 1
-12 0 0 2835.96 201.737 7
-12 0 0 2621.63 206.401 6
-12 0 0 2362.46 173.403 5
0 -12 0 2765.34 193.769 8
0 -12 0 2793.41 204.812 5
0 12 0 2752.99 208.874 3
-1 12 1 2307.39 187.105 3
-12 -1 -1 2250.02 175.044 7
-12 1 -1 2566.3 178.253 7
-12 1 1 1841.07 168.717 7
-12 -1 1 2207.25 172.693 7
1 12 -1 1880.27 192.029 2
1 -12 1 1814.47 161.206 8
-1 12 -1 1911.19 188.388 2
12 -1 1 2038.8 171.685 4
12 1 1 2109.83 172.085 4
-12 1 -1 1939.97 182.139 6
-12 -1 -1 2076.57 180.831 6
12 -1 -1 1770.84 171.405 4
12 1 -1 1990.76 170.961 4
-12 1 1 1627.87 178.655 6
-12 -1 1 1895.56 178.796 6
12 1 1 2350.66 163.398 2
-12 -1 1 2096.12 158.319 5
-12 -1 -1 2371.04 147.314 8
1 12 -1 1984.55 181.433 3
-1 -12 1 2014.87 164.481 8
12 1 1 2312.3 148.547 3
1 -12 1 1926.86 174.675 5
-12 -1 -1 1995.8 146.974 5
-1 -12 -1 1690.79 165.707 8
1 -12 -1 2153.61 165.604 8
12 -1 1 2138.6 134.45 3
-1 -12 -1 1992.15 179.932 5
1 -12 -1 2248.05 175.766 5
1 12 1 1993.67 183.314 3
0 -12 2 468.411 114.505 5
-2 -12 0 530.316 118.511 5
2 12 0 312.307 126.708 3
12 0 2 657.354 89.0267 2
0 -12 -2 497.68 118.057 5
-12 0 -2 584.051 86.2559 5
-12 2 0 426.942 107.965 7
-12 -2 0 578.011 110.299 7
-12 0 2 306.987 102.875 7
0 12 2 479.084 127.057 3
0 12 -2 431.451 134.542 2
12 0 2 551.713 111.009 4
-2 -12 0 350.992 99.0558 8
-12 0 -2 605.869 130.552 6
12 -2 0 398.718 109.713 4
-12 2 0 492.509 126.829 6
-12 -2 0 425.273 122.288 6
12 0 2 667.154 88.6265 3
-12 0 2 274.707 122.452 6
12 0 -2 293.738 110.251 4
-12 0 -2 577.929 72.7444 8
0 -12 2 389.275 101.59 8
2 -12 0 397.129 100.388 8
2 -12 0 455.232 116.546 5
0 -12 -2 415.141 101.95 8
-2 -12 2 910.083 131.661 5
-12 2 2 1042.86 123.317 7
-12 -2 2 1237.62 122.629 7
-12 -2 -2 737.181 104.548 5
-2 -12 -2 918.139 135.541 5
2 -12 -2 671.345 128.592 5
2 12 2 1048.78 139.395 3
2 12 -2 1055.11 153.742 2
-2 12 -2 861.077 87.8249 6
-2 12 2 931.459 136.625 3
-2 12 -2 861.225 145.065 2
12 -2 2 683.15 122.623 4
12 2 2 704.636 120.73 4
-12 2 -2 644.915 141.532 6
-12 -2 -2 720.475 137.586 6
-12 2 2 908.917 135.233 6
-12 -2 2 1007.25 141.202 6
12 -2 -2 831.281 124.724 4
-2 -12 2 860.737 118.505 8
2 -12 2 956.044 128.342 5
-2 -12 -2 1044.91 118.997 8
2 -12 -2 851.869 117.98 8
-1 12 3 1563.6 164.409 3
-3 12 -1 1646.58 121.598 7
-12 1 -3 1839.45 157.429 7
-12 -3 -1 1481.33 150.11 7
-12 3 1 1538.85 149.474 7
-12 -1 3 1670.13 145.61 7
12 1 3 1493.39 152.419 1
12 1 3 1515.17 151.481 4
12 -3 1 1376.42 150.658 4
-12 1 -3 1440.81 167.798 6
-3 12 -1 1289.44 123.851 6
-12 -3 -1 1376.03 158.21 6
-12 3 1 1617.24 165.472 6
12 3 -1 1537.94 149.66 4
12 -1 -3 1707.4 159.92 4
1 12 -3 1484.37 170.638 2
1 -12 3 1551.46 158.688 5
1 -12 3 1480.95 143.153 8
-12 -3 -1 1625.14 130.304 8
-3 -12 1 1704.61 143.581 8
-3 -12 1 1304.56 157.648 5
-1 -12 -3 1653.82 147.65 8
3 12 1 1358.47 162.973 3
3 -12 -1 1223.48 147.316 5
-1 -12 -3 1476.96 155.504 5
-3 12 -1 1522.49 165.998 2
1 12 3 1444.46 163.558 3
-12 -1 -3 1409.91 152.908 7
-12 -3 1 1616.03 151.638 7
12 -1 3 1624.3 154.973 1
12 -1 3 1626.34 150.881 4
-12 -1 -3 1387.27 165.792 6
12 3 1 1770.69 151.286 4
-12 3 -1 1219.88 163.249 6
12 -3 -1 1223.42 147.056 4
-12 -3 1 1701.44 162.011 6
-12 1 3 1577.95 165.391 6
-12 1 3 1522.56 152.994 7
-1 12 -3 1498.02 170.929 2
12 3 1 1536.51 147.298 2
-12 -3 1 1794.39 146.161 5
-1 -12 3 1564.46 143.632 8
3 -12 1 1341.63 134.561 8
-12 -1 -3 1511.2 118.662 8
-3 -12 -1 1533.46 144.489 8
3 -12 1 1439.55 152.124 5
1 -12 -3 1683.77 147.304 8
-3 -12 -1 1595.38 160.678 5
3 12 -1 1563.39 177.467 2
-1 -12 3 1475.92 159.765 5
1 -12 -3 1410.99 156.793 5
-12 -1 -3 1567.28 136.875 5
-3 12 3 1814.38 184.089 3
-12 3 -3 1744.89 174.225 7
-12 3 3 1991.96 175.167 7
-12 -3 3 1899.26 164.257 7
-3 12 3 1853.31 149.572 7
12 3 3 2370.26 176.138 1
12 -3 3 2002.59 173.868 1
12 -3 3 2090.86 170.325 4
12 3 3 2202.67 172.969 4
-3 12 -3 1808.47 153.385 6
-12 3 -3 2026.18 191.625 6
-12 -3 -3 2409.83 190.159 6
-12 3 3 1886.12 188.443 6
12 -3 -3 1890.4 177.205 4
3 12 -3 1635.73 192.075 2
-3 12 -3 2075.51 190.521 2
-3 -12 3 1718.95 178.08 5
-3 -12 3 1542.5 161.003 8
3 -12 3 1855.84 161.776 8
3 -12 3 1806.77 172.622 5
-12 -3 -3 2336.13 150.979 8
-3 -12 -3 2070.97 171.892 8
3 -12 -3 1593.88 163.398 8
-3 -12 -3 2190.13 183.86 5
3 -12 -3 1570.93 172.816 5
3 12 3 2132.18 188.107 3
4 -12 -2 321.406 106 8
12 2 4 501.382 122.569 1
2 -12 4 280.306 129.49 5
-4 -12 2 190.602 116.463 5
2 12 -4 248.55 143.518 2
-4 12 -2 343.524 125.793 3
-4 12 -2 289.895 93.6779 7
-12 2 -4 426.266 120.718 7
-12 -4 -2 449.109 114.759 7
4 12 2 325.405 138.557 3
-2 -12 -4 283.111 119.535 5
4 -12 -2 357.775 117.93 5
-12 4 2 368.866 113.386 7
-4 12 -2 258.136 131.526 2
-12 -4 -2 464.968 95.1078 8
12 -4 2 411.135 115.959 4
-12 2 -4 482.021 138.54 6
-4 12 -2 362.305 93.6158 6
-12 -4 -2 319.442 124.88 6
-12 4 2 273.123 131.775 6
12 4 -2 342.588 115.208 4
-4 -12 2 133.107 100.603 8
0 12 4 3637.92 255.394 3
-12 0 -4 3357.41 245.502 7
-4 12 0 3149.45 215.458 7
-12 4 0 3264.97 245.423 7
-12 -4 0 4222.97 246.409 7
12 0 4 3464.76 244.532 1
4 -12 0 2810.03 210.869 1
-12 0 -4 3437.44 258.305 6
12 -4 0 3296.08 239.397 4
12 4 0 3938.92 242.422 4
-12 -4 0 3477.75 248.965 6
0 12 -4 3200.96 260.203 2
12 4 0 4076.12 247.436 2
0 -12 4 3784.47 259.466 5
0 -12 4 3364.18 236.645 8
-12 -4 0 4230.27 233.083 8
-12 -4 0 3931.97 240.188 5
-4 -12 0 3465.69 238.483 8
4 12 0 3453.18 256.007 3
4 -12 0 3172.15 228.964 8
-4 -12 0 3518.78 250.306 5
0 -12 -4 3286.09 238.46 8
4 -12 0 3045.51 237.535 5
0 -12 -4 3445.02 249.392 5
4 12 0 3470.26 262.223 2
-12 -4 2 312.826 104.742 5
-12 -2 -4 540.348 118.893 7
-2 -12 4 188.845 122.106 5
-2 12 -4 104.725 137.477 2
4 -12 2 271.464 111.618 5
2 -12 -4 296.781 108.43 8
-4 -12 -2 243.195 122.405 5
-12 4 -2 502.08 120.523 7
-4 12 2 362.325 90.0097 7
4 12 -2 266.847 143.617 2
-12 -4 2 384.277 106.696 7
-4 12 2 251.711 128.476 3
12 4 2 584.117 122.772 2
4 -12 2 328.434 72.3847 4
-12 -2 -4 275.983 130.151 6
12 4 2 388.998 110.146 4
-12 4 -2 390.81 134.954 6
-12 -4 2 370.074 130.359 6
12 -4 -2 255.865 112.444 4
-2 -12 4 182.554 99.0998 8
4 -12 2 316.2 93.628 8
12 -2 4 515.654 119.534 1
-4 -12 -2 522.198 115.107 8
4 12 4 1126.8 176.285 3
4 -12 4 979.651 155.171 5
-4 12 -4 1118.37 177.248 2
12 4 4 1851.08 166.107 3
-12 -4 -4 1506.84 156.938 7
-12 4 -4 1445.74 161.647 7
-12 4 -4 1528.45 180.83 6
-12 -4 -4 1583.2 171.77 6
4 12 -4 1912.77 193.233 2
-4 -12 4 1696.75 167.762 5
4 -12 4 1047.05 139.656 8
-4 -12 4 1925.09 152.61 8
-12 -4 -4 1394.67 136.2 8
-4 -12 -4 1140.34 147.325 8
4 -12 -4 1785.17 164.364 8
-12 -4 -4 1600.23 156.748 5
3 -12 5 919.052 161.606 5
-5 -12 3 870.101 150.364 5
-12 -5 -3 974.615 133.708 7
-12 3 -5 947.351 147.968 7
5 -12 -3 893.062 132.33 8
5 12 3 1050.16 157.138 3
-12 -5 -3 1195.03 156.042 6
12 -5 3 932.776 139.251 1
-12 5 3 913.567 162.888 6
-12 -5 -3 1128.42 124.169 8
-12 -5 -3 1220.79 141.614 5
-3 -12 -5 1194.19 153.083 5
-12 1 -5 2985.12 221.287 7
-12 -5 -1 3519.69 219.156 7
-12 5 1 2871.79 217.233 7
-12 -5 -1 3397.02 224.893 6
-12 5 1 2419.48 227.822 6
12 5 -1 2876.22 216.132 4
12 5 -1 3023.56 236.483 2
1 -12 5 3085.57 237.216 5
-12 -5 -1 3747.12 212.157 8
-5 -12 1 2375.45 207.158 8
-5 -12 1 2618.73 222.507 5
-12 -5 -1 3592.56 218.871 5
5 -12 -1 2247.78 203.04 8
5 12 1 3184.6 237.513 3
-5 12 -1 2593.45 215.914 3
-5 12 -1 2630.25 221.801 2
5 -12 -1 2318.75 209.634 5
-1 -12 -5 3158.38 229.89 5
-5 12 1 2237.87 218.639 3
-12 -1 -5 3188.82 225.394 7
1 12 5 2975.33 229.522 3
-12 5 -1 2786.72 219.341 7
12 -1 5 2780.9 219.863 1
-12 -1 -5 3319.02 236.574 6
12 5 1 3201.94 216.957 4
12 -5 -1 2693.44 215.032 4
-12 -5 1 2731.8 222.003 6
-1 -12 5 2352.57 230.516 5
-12 -5 1 3119.71 205.422 8
-12 -5 1 3170.98 221.284 5
12 5 1 3343.58 225.766 2
5 -12 1 2479.96 200.182 8
12 5 1 3856.88 221.21 3
-5 -12 -1 2877.91 216.966 8
5 12 -1 2335.07 237.406 2
-5 -12 -1 3281.06 232.244 5
5 -12 1 2574.81 211.961 5
1 -12 -5 2732.76 217.689 8
-12 -3 -5 1184.68 143.006 7
-12 5 -3 976.698 143.684 7
12 5 3 1352.97 143.334 3
-12 -5 3 929.035 125.138 7
5 12 -3 914.421 168.161 2
-5 -12 -3 1056.74 152.071 5
12 5 3 1061.39 144.801 1
-5 12 3 864.905 124.916 7
12 5 3 951.395 137.615 4
-12 5 -3 886.698 162.994 6
12 -5 -3 1003.28 148.751 4
5 -12 3 933.562 123.82 8
5 -12 3 1108.88 139.127 5
-12 -3 -5 1053.59 123.155 8
-12 2 -6 1437.98 162.792 7
-6 12 -2 1348.21 143.934 7
-6 12 -2 974.862 159.632 3
-6 12 -2 876.391 164.397 2
-12 2 -6 1469.3 182.281 6
-6 12 -2 1057.47 147.592 6
-12 -6 -2 1504.34 169.517 6
-12 6 2 1576.36 184.461 6
12 6 -2 1938.58 175.94 4
-6 -12 2 2219.34 177.252 5
12 2 6 1585.88 172.546 1
-12 -6 -2 1461.55 164.371 5
6 -12 -2 1950.06 171.686 5
-12 -6 0 706.419 133.37 5
-6 -12 0 483.52 138.362 5
-12 0 -6 289.298 127.955 7
12 6 0 571.23 142.779 2
6 -12 0 375.428 116.716 5
-6 12 0 172.669 96.7114 7
-6 12 0 350.435 128.092 3
-12 0 -6 273.977 142.974 6
-12 6 0 333.467 145.956 6
-12 -6 0 563.574 134.87 6
12 6 0 442.012 121.769 4
6 -12 0 251.703 92.6084 4
6 -12 0 348.019 102.536 8
-12 -2 -6 1695.37 166.779 7
-6 12 2 1759.72 175.046 3
-12 6 -2 1218.29 165.56 7
-6 12 2 1565.12 148.029 7
-12 -6 2 1632.9 157.788 7
-12 -2 -6 1499.77 172.94 6
6 -12 2 1073.74 128.007 4
12 6 2 1677.11 158.003 4
12 -6 -2 1450.77 158.418 4
-12 -6 2 1670.09 178.462 6
-12 -6 2 1692.12 168.374 5
6 -12 2 1246.67 137.972 8
6 -12 2 1311.97 149.558 5
12 -2 6 1528.25 165.193 1
-12 -2 -6 1472.41 148.518 8
12 6 2 1397.33 162.261 3
6 -12 2 1245.01 136.384 1
-7 12 -3 346.945 169.848 6
7 -12 3 287.172 147.747 5
8 -12 -2 252.046 185.251 8
-8 -12 2 306.716 239.428 5
-12 -8 -2 116.221 214.943 5
-8 12 -2 392.129 182.087 7
-12 -8 -2 73.5043 183.005 7
-12 -8 -2 50.6723 213.953 6
-12 -8 -2 126.204 183.589 8
-12 -8 0 2716.84 222.612 7
8 -12 0 2125.59 212.366 5
12 8 0 2594.49 231.916 4
-12 -8 0 2228.28 241.675 6
-12 8 0 1890.96 261.13 6
-12 -8 0 2584.96 248.195 5
8 -12 0 2272.51 198.299 8
8 12 0 3024.98 287.616 2
-12 -8 2 209.657 223.562 5
-8 -12 -2 219.392 235.295 5
-8 12 2 322.033 189.14 7
-12 -8 2 293.091 198.717 7
12 8 2 71.8484 187.24 4
12 -8 -2 392.527 203.192 4
-12 -8 2 115.687 184.594 8
-12 -8 -8 80.7881 168.626 8
-12 -8 -8 242.519 154.068 6
-12 8 -8 390.159 248.018 6
-12 -9 -7 89.9453 167.862 8
-9 12 -7 51.8723 209.432 6
-12 -9 -7 79.0028 163.409 6
12 -9 7 81.6583 158.341 1
9 12 7 90.2576 173.652 3
-9 12 -5 423.638 203.756 7
-12 -9 -5 866.359 160.455 7
12 -9 5 203.421 171.293 1
-12 -9 -5 787.044 191.182 5
9 12 5 932.335 211.953 3
-9 12 -5 11.9779 197.582 6
-12 -9 -5 856.879 192.35 6
-12 -9 -5 830.682 186.81 8
-12 9 -5 490.244 181.444 7
-9 -12 -5 782.02 191.823 5
12 9 5 794.308 202.8 3
9 -12 5 490.581 170.886 1
-12 9 -5 260.722 215.634 6
12 9 5 705.975 178.149 1
-9 -12 -5 860.931 181.572 8
-9 -12 -7 7.20774 156.374 8
-12 9 -7 47.3247 175.155 7
-9 -12 -7 63.2287 169.522 5
-12 9 -7 136.9 194.72 6
-12 -10 -6 314.273 165.953 5
10 12 6 291.742 180.511 3
-10 12 -6 118.438 193.109 6
-12 -10 -6 411.827 176.174 6
12 -10 6 207.584 150.141 1
-12 -10 -6 490.256 169.466 8
-10 -12 4 429.132 155.804 5
-10 12 -4 74.123 149.625 7
-12 -10 -4 347.384 139.747 7
-12 -10 -4 206.036 168.091 5
10 12 4 415.962 181.216 3
12 -10 4 355.102 152.41 1
12 -10 4 362.693 148.579 4
-10 12 -4 259.406 189.461 6
-12 -10 -4 317.359 151.232 6
-10 -12 2 1001.11 209.277 5
-12 -10 -2 1765.2 177.978 7
12 10 -2 1219.95 240.782 2
-12 -10 -2 1831.8 222.595 5
-10 12 -2 733.968 191.34 7
10 12 2 1975.59 246.263 3
-12 10 2 1269.18 205.476 7
12 -10 2 1083.2 187.206 4
-10 12 -2 1013.35 205.727 6
-12 -10 -2 1628.35 192.865 6
12 -10 2 894.453 200.78 1
-12 10 2 794.721 228.141 6
-12 -10 -2 2133.89 198.355 8
-10 -12 2 1544.82 188.449 8
-12 -10 0 378.874 243.992 5
-12 -10 0 469.498 233.092 6
-12 -10 2 1479.77 215.019 5
-12 -10 2 1490.6 187.333 7
-10 -12 -2 1894.02 225.307 5
12 10 2 1929.36 193.222 1
12 10 2 1730.48 231.691 3
-12 10 -2 1142.57 209.71 7
-10 12 2 951.763 209.342 7
12 10 2 1711.63 188.411 4
10 -12 2 661.163 182.201 1
12 10 2 1417.2 241.73 2
10 -12 2 1070.8 173.219 4
-12 10 -2 806.557 220.175 6
12 -10 -2 963.937 193.364 4
-12 -10 2 1461.62 183.225 8
-10 -12 -2 1772.92 204.177 8
12 10 4 495.393 160.447 1
-12 10 -4 211.588 158.553 7
-10 -12 -4 412.899 177.222 5
12 10 4 320.702 177.943 3
12 10 4 386.036 147.561 4
-12 10 -4 211.952 195.402 6
-10 -12 -4 266.083 161.193 8
-12 10 -6 208.327 161.485 7
-10 -12 -6 206.752 159.963 5
-12 10 -6 240.057 197.151 6
-10 -12 -6 357.067 161.9 8
12 -11 5 106.319 144.482 1
-11 12 -5 33.3713 156.388 7
-12 -11 -5 118.42 165.431 5
11 12 5 177.996 185.883 3
-11 12 -5 24.1446 190.904 6
-12 -11 -5 52.6375 155.974 8
12 11 -3 37.0042 200.319 2
-11 -12 3 125.983 156.045 5
12 -11 3 18.4763 143.901 1
-12 -11 -3 34.4081 161.275 5
-11 12 -3 3.0108 148.627 7
11 12 3 115.026 177.214 3
-12 11 3 51.599 168.704 7
12 -11 3 53.8201 144.406 4
-11 12 -3 22.25 181.342 6
-11 -12 3 61.086 131.953 8
-12 -11 -3 259.95 145.478 8
-11 -12 1 1273.63 195.808 5
-12 -11 -1 1377.41 198.314 5
11 12 1 1426.85 220.63 3
12 11 -1 1216.44 217.205 2
-11 12 -1 1027.66 178.557 7
-12 11 1 1167.32 191.735 7
11 12 1 1380.31 225.152 2
12 -11 1 876.237 160.179 4
-11 12 -1 825.148 189.614 6
-12 11 1 933.824 200.057 6
11 -12 -1 956.234 158.85 4
-11 -12 1 1334.62 166.998 8
-12 -11 -1 1339.91 175.836 8
-11 -12 -1 1334.97 204.872 5
12 11 1 1533.37 217.329 3
-12 11 -1 782.319 181.899 7
-11 12 1 1240.33 194.829 7
11 12 -1 1383.3 222.799 2
12 11 1 1237.59 219.964 2
11 -12 1 975.2 157.599 4
-12 11 -1 975.108 199.953 6
-11 12 1 965.183 204.032 6
12 -11 -1 1070.27 162.755 4
-12 -11 1 1467.59 167.766 8
-12 -11 1 1370.3 199.619 5
-11 -12 -1 1019.53 175.927 8
-12 -11 3 60.3471 160.492 5
11 12 -3 83.832 197.751 2
-11 -12 -3 14.1232 165.826 5
-12 11 -3 170.845 151.77 7
12 11 3 104.964 177.724 3
-11 12 3 49.8307 169.545 7
11 -12 3 32.9681 133.238 4
-12 11 -3 57.1928 186.166 6
11 -12 3 63.9322 138.179 1
-12 -11 3 141.067 138.025 8
-11 -12 -3 3.26616 153.495 8
-12 11 -5 80.2127 157.777 7
-11 -12 -5 78.1399 165.974 5
12 11 5 60.5206 175.09 3
-12 11 -5 133.471 197.953 6
11 -12 5 24.008 142.767 1
-11 -12 -5 10.6548 158.88 8
-12 -12 0 429.439 184.335 5
12 12 0 621.69 213.836 3
-12 12 0 639.813 172.975 7
12 12 0 548.952 201.425 2
-12 12 0 415.73 181.468 6
12 -12 0 354.558 141.776 4
-12 -12 0 671.256 152.303 8
12 -12 2 348.277 153.056 1
-12 -12 2 292.848 169.779 5
12 12 -2 318.293 203.196 2
-12 -12 -2 301.108 173.193 5
12 12 2 382.405 197.594 3
-12 12 -2 77.4226 159.591 7
-12 12 2 496.683 178.906 7
12 12 2 166.485 209.798 2
12 -12 2 235.055 141.669 4
-12 12 -2 32.8442 179.39 6
-12 12 2 143.804 202.804 6
12 -12 -2 259.356 156.246 4
-12 -12 2 224.45 138.712 8
-12 -12 -2 87.942 147.946 8
0 -13 1 45.7846 119.697 5
-1 -13 0 106.097 121.102 5
1 -13 0 88.0525 119.402 5
0 -13 -1 132.57 123.634 5
1 13 0 99.1501 131.799 3
-1 13 0 131.791 130.206 3
0 13 1 100.973 129.953 3
-13 0 -1 10.8856 112.664 7
-13 1 0 64.1845 111.897 7
-13 -1 0 23.8778 111.524 7
-13 0 1 15.7638 112.421 7
0 13 -1 145.726 141.281 2
13 0 1 68.5903 110.665 4
-13 0 -1 25.4822 129.301 6
13 -1 0 66.7437 114.051 4
-13 1 0 43.0227 130.811 6
-13 -1 0 117.986 127.575 6
-13 0 1 82.7792 128.384 6
13 0 -1 12.8452 106.568 4
0 -13 1 16.6031 96.0652 8
-1 -13 0 208.3 102.255 8
1 -13 0 63.5845 101.664 8
0 -13 -1 81.8839 106.766 8
-13 1 -2 4981.16 301.926 7
-13 -2 -1 5440.48 303.5 7
-13 -1 2 4649.23 295.087 7
13 1 2 4701.49 299.43 4
13 -2 1 4427 296.03 4
-13 1 -2 4359.81 308.668 6
-13 -2 -1 4779.63 307.133 6
-13 2 1 4033.02 304.223 6
13 2 -1 4209.76 294.991 4
-13 -1 2 4338.3 305.403 6
13 -1 -2 4875.41 298.595 4
1 13 -2 4380.33 310.91 2
-2 -13 1 4187.97 289.506 8
1 -13 2 4169.44 297.256 5
-2 -13 1 4252.28 301.096 5
2 -13 -1 3860.76 286.996 8
2 13 1 4630.38 308.909 3
2 -13 -1 3922.14 295.008 5
-1 -13 -2 4318.55 300.995 5
-2 13 -1 4001.7 305.527 2
-1 13 2 4544.85 305.04 3
-13 -1 -2 4856.2 303.3 7
-13 2 -1 4731.83 300.375 7
-13 -2 1 4689.76 296.652 7
-13 1 2 4507.11 296.101 7
13 -1 2 4621.55 300.468 4
-13 -1 -2 4759.32 311.534 6
-13 2 -1 4255.71 307.432 6
13 -2 -1 4048.14 295.284 4
-13 -2 1 3990.36 301.293 6
-13 1 2 4243.43 305.453 6
13 1 -2 4601.99 298.206 4
2 13 -1 4208.78 307.332 3
-1 -13 2 4387.6 290.873 8
-1 -13 2 4914.67 304.216 5
-1 13 -2 4109.95 308.681 2
-2 -13 -1 4254.48 292.967 8
2 -13 1 4036.44 295.793 5
1 -13 -2 4764.74 297.501 8
1 -13 -2 4456.14 301.54 5
-2 13 1 4232.51 305.023 3
1 13 2 4672.72 310.274 3
-2 13 3 1717.54 185.495 3
-2 -13 -3 1342.18 167.294 5
-13 -2 3 1626.78 153.843 7
2 13 -3 1232.13 184.608 2
13 2 3 1365.38 159.835 4
-13 2 -3 1464.92 183.382 6
-13 3 2 1435.23 176.819 6
2 -13 3 1252.42 167.648 5
-3 -13 2 1690.56 173.737 5
-3 13 -2 1441.01 183.175 2
3 13 2 1480.06 180.882 3
3 -13 -2 1457.6 163.102 5
0 13 3 9242.42 522.523 3
-13 0 -3 9121.63 527.213 6
-13 3 0 8116.48 518.833 6
-13 -3 0 8543.55 518.085 6
-13 0 3 7770.24 517.845 6
13 0 -3 8259.16 517.131 4
-13 -3 0 8874.08 498.567 8
0 -13 3 9013.56 518.011 5
-13 -3 0 8935.78 502.418 5
3 13 0 9029.55 522.182 3
3 -13 0 7473.13 508.331 5
-3 13 0 7609.14 513.051 3
0 -13 -3 8666.22 517.204 5
-3 13 2 1849.85 177.909 3
-13 -2 -3 1362.39 160.599 7
-13 2 3 1397.62 160.021 7
-2 13 -3 1071.28 176.053 2
2 -13 -3 1111.12 160.815 5
-13 3 -2 1576.68 181.039 6
-13 -3 2 1460.1 175.146 6
-13 2 3 1344.7 177.099 6
-13 -2 -3 1300.18 179.586 6
-13 -3 2 1843.46 149.677 5
3 13 -2 1678.34 190.332 2
-2 -13 3 1574.75 174.737 5
3 -13 2 1464.31 163.004 5
2 -13 -3 1398.11 155.597 8
-3 -13 -2 1598.44 176.861 5
2 13 3 1618.71 178.662 3
1 -13 4 640.108 150.91 5
-4 -13 1 388.229 139.812 5
1 13 -4 484.35 168.337 2
-13 -4 -1 407.248 124.012 5
4 -13 -1 87.4931 136.099 5
13 1 4 688.32 139.398 4
-1 13 4 575.39 155.446 3
-13 1 -4 489.469 158.716 6
-13 -4 -1 277.114 144.146 6
-13 4 1 527.784 150.35 6
13 4 -1 746.649 132.628 4
1 -13 4 510.101 120.368 8
1 -13 -4 484.213 124.534 8
-13 -4 1 743.386 138.283 5
13 4 1 525.088 122.959 3
4 -13 1 19.614 149.158 5
13 4 1 494.664 142.165 2
1 -13 -4 811.488 142.813 5
-4 13 1 53.2798 146.506 3
4 13 -1 294.055 166.614 2
1 13 4 776.362 158.021 3
-13 -1 -4 12.155 181.592 6
-13 4 -1 365.372 153.662 6
13 -4 -1 713.521 131.093 4
-13 -4 1 570.126 144.361 6
-1 -13 4 556.694 121.706 8
-5 -13 4 423.317 206.102 5
5 -13 -4 231.894 186.587 8
-13 4 -5 260.815 189.529 7
-13 -5 -4 82.2886 177.416 7
-13 -5 -4 94.472 186.195 5
-4 -13 -5 319.585 202.985 5
5 13 4 367.165 228.82 3
13 -5 4 183.544 182.379 4
13 4 5 238.194 194.141 3
-13 -5 -4 208.509 211.887 6
-5 -13 4 137.875 163.896 8
5 -13 4 299.358 193.968 5
5 13 -4 385.073 247.361 2
-5 -13 -4 54.126 197.297 5
-13 -4 -5 389.961 220.088 5
13 5 4 118.3 206.374 3
4 13 5 504.652 222.612 3
-13 -4 -5 256.338 216.67 6
5 -13 4 235.655 162.296 8
-5 -13 -4 2.93265 176.934 8
6 -13 -3 505.924 221.433 8
-13 -6 -3 51.1911 230.039 5
-13 -6 -3 499.288 264.861 6
-13 -6 -3 15.9154 185.832 8
-13 -6 -1 2066.47 208.994 7
-13 1 -6 2367.37 244.697 6
-13 -6 -1 1665.62 220.363 6
-13 6 1 2022.48 237.399 6
13 6 -1 2496.11 218.622 4
-13 -6 -1 1827.47 192.768 8
-6 -13 1 2132.85 228.545 5
-13 -6 -1 2067.03 209.723 5
6 -13 -1 2038.29 199.159 8
6 13 1 2105.98 246.818 3
6 -13 -1 2008.8 208.968 5
-6 13 1 2092.85 229.605 3
-13 -1 -6 1820.07 234.319 6
13 6 1 1949.97 211.828 4
13 -6 -1 1901.37 208.872 4
-13 -6 1 1931.2 231.394 6
13 6 1 2067.83 234.414 2
-13 -6 1 2426.84 199.134 8
-13 -6 1 2501.23 228.662 5
6 13 -1 2656.78 263.885 2
13 6 1 2142.14 217.703 3
-6 -13 -1 1948.83 237.348 5
-13 -3 -6 510.568 227.684 7
13 6 3 401.865 242.373 3
13 6 3 71.1726 229.838 1
-13 -7 -6 330.777 171.869 8
13 -7 6 335.55 162.683 1
-6 -13 -7 485.507 165.077 8
-13 6 -7 88.4971 174.412 7
-13 -7 -6 673.738 168.031 7
-13 -7 -6 504.892 187.343 5
-6 -13 -7 523.193 188.115 5
13 6 7 596.484 178.815 1
7 13 6 650.069 200.834 3
-13 6 -7 292.284 209.183 6
-13 -7 -6 561.914 186.239 6
-7 -13 -6 666.827 167.257 8
-13 -6 -7 487.51 173.439 8
-13 -6 -7 569.297 179.692 7
-13 7 -6 167.952 171.013 7
-7 -13 -6 632.132 176.649 5
-13 -6 -7 562.496 192.471 6
-13 7 -6 499.951 206.601 6
13 7 6 695.68 197.813 3
6 13 7 359.997 186.981 3
13 -6 7 260.405 169.675 1
13 7 6 666.128 175.168 1
-13 -8 -7 288.689 169.76 8
-8 13 -7 327.606 211.506 6
-13 7 -8 111.549 229.784 6
-13 -8 -7 290.634 172.654 6
8 13 7 137.831 174.256 3
13 -8 7 237.395 156.622 1
-13 5 -8 243.479 183.768 7
-13 -8 -5 407.714 152.74 7
-13 -8 -5 568.885 171.224 5
13 -8 5 434.575 158.419 1
8 13 5 484.399 185.718 3
-13 5 -8 471.742 225.332 6
-13 -8 -5 519.366 190.198 6
-13 -8 -5 378.369 161.782 8
13 8 5 596.586 165.119 1
-13 8 -5 202.005 166.012 7
-8 -13 -5 393.72 176.164 5
13 8 5 551.894 184.22 3
13 -5 8 488.191 174.976 1
-13 -5 -8 570.724 179.398 6
-13 8 -5 536.331 196.4 6
-8 -13 -5 597.406 165.785 8
-8 -13 -7 226.779 157.868 8
-13 -7 -8 415.492 166.483 8
-13 8 -7 149.766 170.598 7
-8 -13 -7 286.034 170.52 5
13 -7 8 293.774 169.143 1
-13 -7 -8 253.264 163.906 6
-13 8 -7 110.764 192.433 6
-13 -9 -6 64.9685 153.041 7
-13 -9 -6 108.594 169.526 5
9 13 6 31.8337 179.289 3
-9 13 -6 32.4072 188.808 6
-13 -9 -6 81.1955 176.052 6
13 -9 6 90.4232 151.152 1
-13 -9 -6 183.805 160.451 8
-9 -13 4 433.721 156.608 5
-9 13 -4 212.062 154.555 7
-13 -9 -4 473.346 142.642 7
-13 -9 -4 312.638 163.995 5
9 13 4 438.954 186.244 3
13 -9 4 235.398 150.621 4
-9 13 -4 437.998 181.466 6
-13 -9 -4 355.164 165.727 6
13 -9 4 172.33 151.286 1
-9 -13 4 306.751 135.733 8
-13 -9 -4 436.583 157.117 8
13 9 -2 291.195 208.346 2
-9 -13 2 329.401 171.83 5
-13 -9 -2 116.855 173.18 5
-9 13 -2 22.9728 142.417 7
-13 -9 -2 203.569 137.945 7
9 13 2 149.501 195.832 3
-13 9 2 12.91 168.095 7
13 -9 2 196.877 152.038 4
-9 13 -2 51.3803 166.907 6
-13 -9 -2 176.839 162.264 6
13 -9 2 88.4877 167.835 1
-13 9 2 169.182 194.546 6
-9 -13 2 74.9129 144.921 8
-13 -9 -2 235.473 147.827 8
-13 -9 0 486.713 190.035 5
13 9 0 217.137 206.605 3
-9 -13 0 31.1383 194.778 5
9 13 0 72.0941 221.978 3
-9 13 0 254.25 158.07 7
-13 -9 0 183.339 153.499 7
-13 9 0 373.397 184.688 7
13 9 0 187.673 209.066 2
9 13 0 72.9909 235.425 2
13 -9 0 137.193 167.86 4
-13 9 0 146.511 196.808 6
-13 -9 0 151.222 178.813 6
13 9 0 263.26 162.874 4
-13 -9 0 136.249 149.704 8
-9 -13 0 33.3021 159.786 8
-13 -9 2 225.291 172.226 5
-9 -13 -2 137.281 177.249 5
13 9 2 260.719 185.905 3
9 13 -2 48.7307 209.915 2
-13 9 -2 55.4257 177.046 7
-13 -9 2 150.689 144.596 7
13 9 2 147.332 190.83 2
13 9 2 351.714 152.378 4
-13 9 -2 93.2679 186.509 6
-13 -9 2 136.077 139.846 8
-9 -13 -2 134.649 156.187 8
13 9 2 163.942 158.144 1
9 13 -4 430.866 207.262 2
-9 -13 -4 522.014 173.86 5
13 9 4 460.491 175.627 3
13 9 4 472.313 158.975 1
13 9 4 298.756 150.707 4
-13 9 -4 203.198 186.063 6
-9 -13 -4 633.594 159.359 8
-9 -13 -6 191.867 158.787 8
-13 9 -6 119.039 158.004 7
-9 -13 -6 61.6782 162.361 5
13 9 6 75.1726 188.648 3
-13 9 -6 114.982 186.593 6
13 9 6 44.9752 159.438 1
-10 13 -5 3.57979 174.316 7
-13 -10 -5 215.233 163.734 5
13 -10 5 287.293 154.333 1
10 13 5 374.464 188.869 3
13 -10 5 322.535 154.142 4
-10 13 -5 421.172 193.591 6
-13 -10 -5 465.691 171.203 8
-10 -13 3 515.857 174.416 5
-13 -10 -3 615.488 177.121 5
-10 13 -3 319.166 153.887 7
-13 -10 -3 632.088 142.066 7
10 13 3 583.556 195.007 3
-13 10 3 653.983 176.93 7
13 -10 3 548.923 161.431 1
13 -10 3 536.953 154.454 4
-10 13 -3 506.637 182.282 6
-13 -10 -3 585.778 155.041 6
-10 -13 3 753.992 149.57 8
-13 -10 -3 542.724 157.521 8
-10 -13 1 258.133 170.931 5
-13 -10 -1 305.435 167.341 5
13 10 -1 468.097 198.58 2
10 13 1 273.87 196.008 3
-10 13 -1 226.407 149.068 7
-13 -10 -1 300.414 130.599 7
-13 10 1 237.94 167.653 7
10 13 1 474.95 206.825 2
13 -10 1 54.5496 145.123 4
-10 13 -1 155.697 167.092 6
-13 -10 -1 223.659 160.822 6
-13 10 1 101.38 178.265 6
13 10 -1 478.087 179.689 4
-10 -13 1 309.861 143.408 8
-13 -10 1 317.017 178.863 5
-10 -13 -1 464.811 184.173 5
13 10 1 220.054 184.887 3
-13 10 -1 290.346 167.033 7
-10 13 1 54.1202 157.258 7
-13 -10 1 266.13 140.689 7
10 13 -1 213.465 196.327 2
13 10 1 233.776 193.214 2
-13 10 -1 3.35192 176.945 6
13 10 1 149.597 146.719 4
-10 13 1 224.747 187.389 6
13 -10 -1 154.529 141.437 4
-13 -10 1 338.586 185.371 6
-13 -10 1 398.609 145.348 8
-10 -13 -1 240.871 152.568 8
-13 -10 3 581.411 163.915 5
10 13 -3 748.333 212.463 2
-10 -13 -3 817.236 181.514 5
-13 10 -3 347.599 170.737 7
13 10 3 803.194 182.388 3
-10 13 3 336.054 173.959 7
-13 -10 3 565.602 141.243 7
13 10 3 334.014 144.167 4
13 10 3 711.976 163.999 1
-10 -13 -3 848.547 166.386 8
-13 10 -5 383.379 160.372 7
-10 -13 -5 166.856 168.707 5
13 10 5 392.023 187.656 3
13 10 5 423.858 157.035 4
-13 10 -5 264.744 202.479 6
13 10 5 264.993 164.519 1
-10 -13 -5 430.986 164.865 8
-11 -13 2 308.989 173.857 5
13 11 -2 404.755 202.277 2
13 -11 2 123.213 155.572 1
-13 -11 -2 254.686 168.744 5
-11 13 -2 145.312 156.72 7
11 13 2 537.749 198.305 3
-13 11 2 194.406 170.586 7
11 13 2 233.674 211.779 2
13 -11 2 291.858 150.602 4
-11 13 -2 77.1393 173.814 6
-13 11 2 129.163 196.19 6
-13 -11 -2 561.218 153.208 8
-13 -11 0 3.6649 172.456 5
-11 -13 0 85.7241 174.627 5
13 11 0 91.7545 205.704 3
11 13 0 169.224 203.234 3
-11 13 0 91.0755 163.081 7
13 11 0 212.045 197.137 2
11 13 0 3.66615 200.247 2
-13 11 0 64.25 177.663 6
13 -11 0 2.72027 134.697 4
-11 13 0 99.8527 171.648 6
-13 -11 0 6.17204 141.52 8
-11 -13 0 44.9347 137.378 8
-13 -11 2 485.737 177.792 5
-11 -13 -2 341.026 178.8 5
13 11 2 353.164 189.808 3
-13 11 -2 310.505 164.624 7
-11 13 2 3.34736 170.977 7
11 -13 2 247.72 142.218 1
13 11 2 249.869 198.875 2
11 -13 2 207.473 135.455 4
-13 11 -2 184.207 189.178 6
13 -11 -2 301.574 149.78 4
-13 -11 2 458.553 142.922 8
-11 -13 -2 329.9 152.164 8
-2 -14 2 76.3019 172.809 5
2 -14 -2 164.784 169.284 5
2 14 2 247.898 199.18 3
2 14 -2 176.637 204.804 2
-14 2 2 149.815 184.009 6
-14 -2 2 278.664 174.205 6
14 -2 -2 105.137 158.202 4
-2 -14 2 58.4417 139.438 8
1 -14 3 922.874 191.082 5
-3 -14 1 1028.1 199.463 5
3 -14 -1 431.038 187.075 5
3 14 1 849.423 215.467 3
-1 -14 -3 933.257 191.855 5
-1 14 3 864.679 209.962 3
-14 1 -3 482.942 218.866 6
-14 -3 -1 979.273 197.575 6
-14 3 1 793.864 202.219 6
-14 -1 3 955.016 212.34 6
1 -14 -3 949.283 172.16 8
3 -14 1 74.1642 200.794 5
-1 14 -3 897.035 223.291 2
1 -14 -3 811.336 181.912 5
-14 -3 1 865.477 177.159 7
1 14 3 758.267 211.527 3
14 -1 3 732.21 184.857 4
-14 -1 -3 82.9986 229.77 6
-14 3 -1 910.518 206.434 6
-14 -3 1 1127.27 204.487 6
14 -3 -1 954.03 178.036 4
-14 1 3 876.482 206.181 6
-14 0 -4 421.844 210.047 7
-5 -14 -5 298.371 190.244 8
-5 -14 5 198.507 198.295 5
-14 -5 -5 414.724 197.954 7
-5 -14 -5 231.908 205.955 5
14 5 5 232.162 204.118 1
-14 5 -5 460.232 231.804 6
-14 -5 -5 387.294 242.36 6
-5 -14 5 299.655 162.676 8
4 -14 6 739.719 228.144 5
-4 -14 -6 923.284 177.681 8
6 -14 -4 1016.55 201.209 8
-6 -14 4 1396.69 200.49 5
-6 14 -4 238.916 227.133 2
14 4 6 1125.89 201.284 1
-14 4 -6 661.246 196.814 7
-14 -6 -4 1269.54 189.884 7
-14 -6 -4 1230.45 190.102 5
-4 -14 -6 936.612 205.536 5
6 14 4 977.707 225.866 3
14 -6 4 738.984 186.927 4
-14 4 -6 531.125 222.318 6
-14 -6 -4 1233.57 226.329 6
-6 -14 4 1167.7 175.713 8
-14 -6 -4 1239.1 171.599 8
6 -14 4 691.007 185.615 5
6 14 -4 973.119 241.993 2
-14 -4 -6 777.171 188.689 7
-14 6 -4 539.198 198.57 7
-6 -14 -4 1056.13 200.784 5
14 -4 6 728.334 190.453 1
14 6 4 1229.07 208.412 3
4 14 6 768.659 212.774 3
-14 -4 -6 1234.91 222.197 6
-14 6 -4 625.689 230.862 6
6 -14 4 636.325 164.378 8
14 6 4 1147.77 199.041 1
-6 -14 -4 1058.37 185.429 8
-6 -14 -6 73.2822 147.588 8
6 -14 6 16.2148 165.323 5
14 -6 6 8.87602 151.699 1
-14 -6 -6 134.494 150.559 7
-14 6 -6 20.7212 155.699 7
-6 -14 -6 25.0997 163.914 5
6 14 6 3.49553 173.469 3
-14 -6 -6 98.9886 186.973 6
-14 6 -6 61.6383 189.853 6
14 6 6 26.7514 160.586 1
-14 -7 -5 1399.73 174.099 7
-14 5 -7 759.624 180.153 7
-5 -14 -7 1201.88 196.505 5
7 14 5 1134.8 203.604 3
14 -7 5 948.498 176.903 1
14 -7 5 875.68 173.265 4
-14 5 -7 1168.69 214.419 6
-14 -7 -5 1383.52 208.923 6
14 5 7 1011.1 188.063 1
-14 -7 -5 1467.5 170.547 8
-14 -7 -5 1259.65 185.28 5
7 -14 -3 760.905 172.656 8
-7 -14 3 699.916 181.247 5
-14 3 -7 764.14 183.687 7
-14 -7 -3 830.826 174.83 5
-14 -7 -3 989.926 164.033 7
-14 7 3 868.414 191.062 7
7 14 3 1054.65 208.028 3
14 -7 3 708.768 181.855 1
-14 3 -7 497.896 201.096 6
14 -7 3 732.782 172.386 4
-14 -7 -3 1035.9 193.727 6
14 3 7 768.415 182.216 1
-14 7 3 944.038 206.8 6
-7 -14 3 985.012 164.639 8
-14 -7 -3 834.939 156.209 8
14 7 -1 760.765 238.74 2
-7 -14 1 851.039 206.075 5
-14 -7 -1 975.499 198.58 5
-14 1 -7 487.501 196.969 7
7 14 1 624.099 245.006 3
-14 -7 -1 1031 191.759 7
7 -14 -1 154.291 187.285 5
-14 7 1 864.441 201.31 7
-14 1 -7 674.968 227.175 6
7 14 1 505.949 257.208 2
14 -7 1 554.446 189.02 4
-14 -7 -1 652.492 199.885 6
-14 7 1 247.585 215.239 6
14 7 -1 1004.02 193.652 4
14 1 7 608.919 207.174 1
-14 -7 -1 834.785 177.33 8
-7 -14 1 762.036 180.471 8
7 -14 -1 715.568 174.921 8
-14 -7 1 1016.63 212.993 5
-7 -14 -1 992.444 216.197 5
14 7 1 802.511 209.7 3
-14 -1 -7 592.865 200.79 7
7 -14 1 306.78 181.523 5
-14 7 -1 407.482 208.874 7
-14 -7 1 1257.88 194.262 7
14 7 1 726.56 223.16 2
7 14 -1 215.385 262.017 2
-7 14 1 25.0846 219.659 3
-14 -1 -7 572.845 223.844 6
-14 7 -1 536.434 212.318 6
14 7 1 920.877 193.163 4
-14 -7 1 1012.15 216.032 6
14 -1 7 419.567 207.43 1
-14 -7 1 991.249 175.657 8
7 -14 1 473.632 153.467 8
-7 -14 -1 1048.61 183.155 8
-14 -7 3 859.778 166.817 5
7 14 -3 838.436 217.111 2
-14 -3 -7 649.671 179.361 7
-7 -14 -3 667.952 187.997 5
-14 7 -3 480.896 183.441 7
14 7 3 951.319 180.675 3
-14 -7 3 889.222 154.26 7
-14 -3 -7 742.557 202.41 6
14 7 3 1059.28 179.326 4
14 7 3 964.495 187.857 2
-14 7 -3 558.911 213.898 6
14 7 3 1064.23 180.907 1
14 -7 -3 564.39 176.697 4
14 -3 7 442.81 179.763 1
-7 -14 -3 855.793 170.292 8
-14 -5 -7 1255.28 183.132 7
-14 7 -5 930.764 184.517 7
-7 -14 -5 906.685 187.523 5
14 7 5 1201.8 186.394 1
14 7 5 1617.3 189.663 4
14 7 5 1410 205.278 3
-14 -5 -7 1458.92 199.17 6
-14 7 -5 956.046 219.282 6
5 14 7 1302.94 196.621 3
14 -5 7 1065.32 184.34 1
-7 -14 -5 1227.17 179.323 8
-14 -7 -7 232.574 161.115 8
-14 -7 -7 71.5101 160.484 7
-14 -7 -7 209.767 178.001 6
-14 7 -7 77.5469 199.632 6
14 7 7 160.449 164.903 1
14 -7 7 139.008 156.863 1
14 -8 6 296.917 157.788 1
-14 -8 -6 219.743 154.663 7
-14 -8 -6 103.604 168.335 5
-14 6 -8 235.11 215.132 6
-14 -8 -6 169.301 185.195 6
-14 -8 -6 240.366 159.621 8
8 -14 -4 321.124 162.651 8
14 -8 4 73.6551 152.253 1
-8 -14 4 191.268 158.606 5
-14 -8 -4 2.87923 137.155 7
-14 -8 -4 30.9837 155.257 5
8 14 4 85.9071 184.82 3
14 4 8 209.665 166.182 1
-14 4 -8 36.2813 200.02 6
14 -8 4 5.94403 150.101 4
-14 -8 -4 151.705 166.067 6
-14 -8 -4 188.975 147.633 8
-14 2 -8 1961.02 229.412 7
-14 -8 -2 2415.28 208.481 7
-14 8 2 1746.18 212.706 7
-14 2 -8 1885.78 244.548 6
14 -8 2 1814.65 207.291 4
-14 -8 -2 2174.73 221.707 6
14 2 8 2106.43 220.461 1
-14 8 2 1353.09 226.138 6
-8 -14 2 2133.28 203.125 8
-8 -14 2 2180.78 222.577 5
-14 -8 -2 2278.67 198.26 8
-14 -8 -2 2269.38 216.083 5
8 14 2 2339.69 244.873 3
-14 -8 0 3.1914 163.771 5
14 8 0 138.905 186.116 3
-8 -14 0 133.786 168.978 5
8 14 0 52.5863 194.289 3
-14 0 -8 66.6407 170.013 7
14 8 0 62.9831 186.767 2
-14 -8 0 8.52994 148.836 7
-14 8 0 273.032 165.704 7
8 14 0 18.2749 209.136 2
-14 0 -8 141.226 184.048 6
14 0 8 107.674 162.304 1
14 -8 0 233.508 151.195 4
-14 8 0 54.5191 175.796 6
-14 -8 0 66.6708 162.556 6
14 8 0 147.926 150.126 4
-14 -8 0 63.6689 136.875 8
-14 -2 -8 2141.03 230.026 7
-14 8 -2 2001.07 224.417 7
-14 -8 2 2081.6 208.061 7
-14 -2 -8 2040.63 231.69 6
14 8 2 2445.55 216.06 1
14 8 2 2374.16 210.903 4
-14 8 -2 1692.97 232.549 6
14 -8 -2 1726.92 206.355 4
14 -2 8 1928.4 219.191 1
8 14 -2 1911.43 254.04 2
-14 -8 2 2201.3 223.729 5
-8 -14 -2 2108.98 214.125 8
14 8 2 2103.22 233.876 2
-8 -14 -2 2316.89 235.998 5
14 8 2 2296.55 224.009 3
-14 -4 -8 230.205 168.966 7
-14 8 -4 6.92442 160.111 7
-8 -14 -4 61.4435 169.303 5
14 8 4 97.3164 165.612 3
-14 -4 -8 121.381 168.859 6
14 8 4 90.3628 154.318 4
14 8 4 238.016 161.187 1
-14 8 -4 100.167 199.146 6
-8 -14 -4 147.097 148.691 8
-14 8 -6 154.161 163.84 7
-14 -6 -8 102.308 169.283 6
14 8 6 362.937 191.443 3
-14 8 -6 136.894 196.06 6
14 8 6 194.968 164.363 1
-14 -9 -5 187.75 143.611 7
14 -9 5 175.164 153.283 1
14 -9 5 3.04495 152.399 4
-14 -9 -5 84.7158 158.766 8
-9 -14 3 404.011 167.883 5
-14 -9 -3 489.987 166.64 5
-14 -9 -3 591.819 147.95 7
9 14 3 602.33 194.473 3
-14 9 3 519.964 170.673 7
14 -9 3 376.607 154.23 4
-14 -9 -3 417.46 161.528 6
14 -9 3 336.209 159.212 1
-14 -9 -3 601.5 155.969 8
-9 -14 1 293.378 172.031 5
14 9 -1 453.604 195.281 2
-14 -9 -1 244.27 163.421 5
9 14 1 161.707 200.609 3
-14 -9 -1 371.694 142.129 7
-14 9 1 143.064 163.916 7
14 -9 1 187.892 148.227 4
-14 -9 -1 227.187 159.541 6
-14 9 1 198.501 175.898 6
14 9 -1 234.191 166.859 4
-14 -9 -1 302.422 138.135 8
-14 -9 1 167.69 172.608 5
9 14 -1 244.212 202.457 3
-9 -14 -1 181.057 172.784 5
14 9 1 227.144 178.431 3
-14 9 -1 301.677 167.514 7
-14 -9 1 335.802 149.07 7
14 9 1 58.6038 183.529 2
-14 9 -1 200.959 188.73 6
14 9 1 222.469 150.789 4
14 -9 -1 81.0316 146.109 4
-14 -9 1 197.309 177.581 6
-14 -9 1 326.261 136.834 8
-9 -14 -1 301.05 152.473 8
-14 -9 3 334.439 159.256 5
-9 -14 -3 436.409 180.344 5
14 9 3 423.122 161.895 1
-14 9 -3 498.411 170.049 7
14 9 3 556.778 173.798 3
-14 -9 3 427.515 138.978 7
14 9 3 415.997 154.757 4
14 9 3 501.779 189.741 2
14 9 5 46.8399 157.809 1
-14 9 -5 74.8842 158.579 7
14 9 5 112.555 178.094 3
14 9 5 169.015 160.999 4
-14 9 -5 111.628 205.294 6
14 10 -2 221.99 200.483 2
-14 -10 -2 104.65 171.089 5
10 14 2 21.9519 196.035 3
-14 10 2 57.8201 167.384 7
14 -10 2 109.773 151.736 4
-14 10 2 91.3156 191.399 6
-14 -10 -2 58.334 144.508 8
14 -10 2 6.27018 167.398 1
-14 -10 0 104.821 179.541 5
14 10 0 247.835 209.222 3
-10 -14 0 173.088 179.267 5
10 14 0 102.816 205.069 3
14 10 0 49.95 190.883 2
-14 10 0 175.53 175.269 7
-14 10 0 49.3607 185.141 6
14 -10 0 57.4997 143.313 4
14 10 0 124.961 160.499 4
-14 -10 0 188.689 140.072 8
-14 -10 2 43.691 180.819 5
-10 -14 -2 26.7249 181.856 5
14 10 2 65.195 154.246 1
14 10 2 194.374 178.572 3
-14 10 -2 82.9195 174.34 7
14 10 2 239.633 196.514 2
14 10 2 80.849 150.593 4
-14 10 -2 25.604 194.062 6
-14 -10 2 49.446 143.375 8
4 -15 -3 469.491 170.809 8
-4 -15 3 442.967 183.145 5
3 -15 4 229.771 190.027 5
-4 15 -3 18.0979 200.61 3
3 15 -4 175.091 214.691 2
-15 3 -4 204.65 186.326 7
-4 15 -3 116.404 209.739 2
-15 -4 -3 292.517 174.814 7
-3 -15 -4 415.061 183.422 5
4 -15 -3 385.505 175.212 5
-15 4 3 149.148 174.526 7
15 3 4 413.271 179.514 1
4 15 3 465.555 212.437 3
15 3 4 188.392 182.162 4
-3 15 4 288.582 207.398 3
15 -4 3 299.436 167.756 4
-15 3 -4 227.437 214.424 6
-15 -4 -3 339.911 205.074 6
-15 4 3 295.455 198.352 6
3 -15 4 81.8031 146.372 8
-4 -15 3 494.346 155.761 8
15 -4 3 91.5139 183.905 1
-3 -15 -4 510.616 160.546 8
3 -15 -4 242.427 170.994 8
-3 -15 4 308.99 187.591 5
15 4 3 496.773 187.567 1
4 -15 3 225.526 182.086 5
-3 15 -4 237.817 222.961 2
-4 -15 -3 506.946 190.344 5
-15 -3 -4 417.061 174.047 7
-15 4 -3 302.108 183.656 7
-15 -4 3 388.368 154.982 7
3 -15 -4 136.846 185.249 5
3 15 4 303.681 206.171 3
-4 15 3 36.1469 201.255 3
15 -3 4 300.88 166.108 4
15 4 3 375.059 180.543 4
15 -3 4 393.216 182.134 1
-15 -3 -4 232.937 211.853 6
-15 4 -3 129.917 211.854 6
15 -4 -3 457.452 175.715 4
-3 -15 4 356.913 149.988 8
4 -15 3 176.476 140.382 8
-4 -15 -3 225.993 162.358 8
-4 -15 -5 621.828 156.964 8
5 -15 -4 683.376 170.401 8
4 15 -5 464.847 217.2 2
-5 -15 4 687.948 173.128 5
4 -15 5 449.21 186.885 5
-5 15 -4 595.388 199.97 2
-15 4 -5 607.311 174.505 7
-15 -5 -4 470.703 158.341 7
-4 -15 -5 756.508 176.193 5
5 15 4 534.142 185.497 3
15 -5 4 362.232 161.823 1
15 4 5 806.421 168.153 4
15 -5 4 451.337 160.87 4
15 4 5 571.659 168.881 1
-15 4 -5 469.234 195.454 6
-15 -5 -4 650.218 192.407 6
-5 -15 4 638.208 149.53 8
-2 -15 -5 1144.66 173.237 8
2 15 -5 701.322 231.881 2
2 -15 5 944.931 202.186 5
-15 -5 -2 1601.26 185.153 7
-5 -15 2 898.852 190.426 5
-5 15 -2 957.076 202.883 3
-15 2 -5 1043.97 199.198 7
5 15 2 989.867 210.579 3
5 -15 -2 984.019 178.42 5
-2 -15 -5 863.148 185.773 5
-15 5 2 808.748 175.819 7
-5 15 -2 443.245 201.917 2
15 2 5 1107.19 178.082 4
-15 2 -5 809.207 214.159 6
15 -5 2 1016.04 182.497 4
15 2 5 1154.5 191.758 1
-15 -5 -2 1414.73 201.426 6
-15 5 2 707.547 198.71 6
15 5 -2 1080.24 185.574 4
2 -15 5 736.203 157.034 8
-5 -15 2 1202.36 170.286 8
5 -15 -2 1037.35 176.253 8
0 -15 -5 252.336 161.866 8
0 15 -5 174.565 223.603 2
0 -15 5 36.4979 205.013 5
-5 -15 0 161.095 183.826 5
5 15 0 131.964 209.955 3
5 -15 0 166.325 168.347 5
-15 0 -5 220.627 177.042 7
-15 5 0 145.731 176.016 7
-15 -5 0 515.108 180.476 7
0 -15 -5 58.7501 186.867 5
-5 15 0 71.9096 195.461 3
15 0 5 205.833 169.91 4
0 15 5 210.971 197.595 3
5 15 0 151.876 234.033 2
-15 0 -5 251.347 207.523 6
15 -5 0 333.37 168.897 4
-15 5 0 293.751 193.367 6
15 5 0 416.575 169.579 4
15 0 5 44.8087 178.031 1
0 -15 5 243.418 151.278 8
-5 -15 0 486.056 156.705 8
5 -15 0 320.714 153.571 8
-2 15 -5 856.442 231.242 2
2 -15 -5 1137.21 183.16 8
5 -15 2 973.371 183.562 5
-5 -15 -2 1217.49 198.014 5
-15 -2 -5 1382.91 186.993 7
-15 5 -2 1207.77 195.379 7
-15 -5 2 1123.47 173.244 7
5 15 -2 1212.24 238.566 2
-5 15 2 916.998 202.419 3
2 15 5 952.841 211.468 3
15 -2 5 1229.95 177.12 4
-15 -2 -5 1237.95 218.633 6
15 5 2 1332.33 188.167 4
-15 5 -2 775.771 213.224 6
-15 -5 2 1080.96 202.555 6
15 -5 -2 924.772 177.93 4
15 -2 5 886.039 191.519 1
-2 -15 5 871.833 155.936 8
5 -15 2 963.442 154.616 8
-5 -15 -2 1159.56 179.124 8
-4 -15 5 443.712 172.46 5
4 -15 -5 480.174 166.744 8
5 -15 4 854.78 178.942 5
15 5 4 555.319 172.896 1
5 15 -4 414.969 205.856 2
-15 -4 -5 794.552 167.468 7
-15 5 -4 438.8 172.26 7
-5 -15 -4 603.291 181.924 5
4 15 5 515.49 191.427 3
15 -4 5 446.728 156.967 4
15 5 4 850.094 172.351 4
-15 -4 -5 699.867 201.085 6
-15 5 -4 702.112 210.131 6
15 -4 5 539.572 166.704 1
-4 -15 5 617.013 144.315 8
5 -15 4 430.158 134.194 8
-5 -15 -4 655.281 160.094 8
5 -15 6 1218.56 216.94 5
-15 -6 -5 1647.19 189.629 7
15 -6 5 1353.79 186.986 4
-15 -6 -5 1824.27 225.917 6
-15 5 -6 1356.48 229.914 6
15 5 6 1825.93 202.882 1
6 -15 -3 54.235 159.068 8
-3 -15 -6 110.583 146.395 8
3 -15 6 188.867 193.561 5
-6 -15 3 203.248 168.222 5
-6 15 -3 57.6624 178.846 3
-15 3 -6 108.531 157.402 7
-6 15 -3 53.196 173.936 2
15 3 6 30.4667 157.068 1
-15 -6 -3 204.226 147.083 7
15 -6 3 21.8032 160.327 1
-15 6 3 107.208 162.115 7
-3 -15 -6 156.837 169.032 5
6 15 3 20.7661 183.407 3
6 -15 -3 308.49 164.975 5
-15 3 -6 195.19 188.357 6
15 -6 3 12.2128 149.124 4
-15 -6 -3 100.542 176.889 6
-15 6 3 61.0558 186.175 6
1 -15 6 783.169 216.096 5
-1 -15 -6 802.126 170.009 8
-15 -6 -1 1367.44 180.622 7
6 15 1 1332.67 220.034 3
6 -15 -1 1140.29 166.209 5
-6 15 -1 891.742 195.704 3
-15 6 1 1195.91 178.18 7
15 1 6 975.708 182.159 1
-1 -15 -6 999.774 195.963 5
-6 15 -1 920.316 197.724 2
-15 1 -6 1218.09 211.637 6
6 15 1 1357.7 229.953 2
15 -6 1 1073.92 175.991 4
-15 -6 -1 1213.34 193.944 6
-15 6 1 793.007 201.106 6
15 6 -1 1238.81 182.503 4
-6 -15 1 1441.8 203.914 5
-6 -15 1 1163.61 169.722 8
6 -15 -1 1074.75 166.718 8
-15 -6 1 1271.05 185.004 5
-15 -6 1 1264.44 182.437 7
6 15 -1 1346.16 223.11 3
-6 -15 -1 1059.12 195.468 5
15 6 1 1355.33 178.506 3
6 -15 1 652.099 166.1 5
-15 -1 -6 1047.9 182.061 7
-15 6 -1 1212.66 189.602 7
6 15 -1 1554.63 234.295 2
-15 -1 -6 883.25 206.112 6
1 15 6 865.083 194.901 3
-15 6 -1 1016.82 206.12 6
15 6 1 1247.35 181.632 4
-15 -6 1 1124.03 191.474 6
15 -6 -1 945.848 170.254 4
15 6 1 1385.95 199.084 2
6 -15 1 858.55 147.236 8
-6 -15 -1 1026.94 168.995 8
-15 -6 3 139.92 137.693 5
15 6 3 163.277 166.226 1
6 -15 3 36.6003 150.899 5
-15 -3 -6 59.2366 156.437 7
-6 -15 -3 140.199 169.065 5
-15 6 -3 24.6125 169.135 7
15 -3 6 79.6118 157.318 1
-15 -6 3 143.222 134.193 7
3 15 6 199.21 184.628 3
-15 -3 -6 287.14 183.986 6
-6 15 3 118.857 177.361 3
15 6 3 66.4541 158.363 4
-15 6 -3 7.45305 187.552 6
15 -6 -3 51.1043 160.134 4
6 -15 3 96.8846 125.092 8
15 6 5 1444.59 196.604 1
-15 -5 -6 1664.24 195.147 7
6 -15 5 1114.24 202.63 5
15 6 5 2018.08 210.515 4
-15 -5 -6 1823.4 226.546 6
-15 6 -5 1344.08 229.082 6
7 -15 -4 446.419 167.423 8
-15 -7 -4 505.395 155.437 7
15 -7 4 411.215 168.138 1
15 -7 4 323.395 156.809 4
-15 -7 -4 517.549 182.578 6
15 4 7 485.22 168.198 1
-7 -15 2 1108.28 187.89 5
-15 -7 -2 1047.97 174.622 5
-15 -7 -2 1052.69 175.825 7
7 15 2 1294.86 211.21 3
-15 7 2 900.882 183.186 7
7 -15 -2 802.81 176.869 5
15 7 -2 1423.38 202.119 4
-15 2 -7 928.662 199.3 6
15 -7 2 1084.27 173.422 4
-15 -7 -2 1107.29 181.387 6
-15 7 2 1018.22 203.225 6
15 2 7 1072.74 182.376 1
-15 -7 -2 1059.27 156.234 8
7 -15 -2 1119.07 172.899 8
-15 -7 0 1390.75 187.333 5
15 7 0 1277.95 202.968 3
-15 -7 0 1555.25 188.853 7
-15 7 0 1322 193.843 7
15 7 0 1346.69 209.59 2
7 15 0 1433.34 222.063 3
-15 0 -7 1490.68 210.816 6
15 7 0 1443.5 182.595 4
15 -7 0 961.784 176.495 4
-15 7 0 1004.25 209.434 6
-15 -7 0 1189.06 194.621 6
-15 -7 0 1207.63 161.974 8
-7 -15 0 1290.91 198.349 5
-15 -7 2 1261.12 185.785 5
-15 -7 2 1439.12 179.741 7
-7 -15 -2 1159.03 195.712 5
-15 -2 -7 1114.14 178.869 7
-15 7 -2 1057.04 190.517 7
15 7 2 1169 195.023 2
-15 -2 -7 943.429 202.925 6
-7 15 2 910.492 192.456 3
15 7 2 1225.44 177.015 4
-15 7 -2 823.372 210.093 6
-15 -7 2 1046.14 202.874 6
15 -7 -2 818.027 166.74 4
15 7 2 1152.53 181.666 3
-15 -4 -7 429.616 164.083 7
-15 7 -4 427.817 172.225 7
-15 -4 -7 522.217 185.645 6
15 7 4 475.658 165.747 4
-15 7 -4 169.74 203.484 6
15 7 4 540.004 164.525 1
-15 -8 -3 694.956 169.22 5
-15 -8 -3 773.619 160.151 7
15 -8 3 540.517 176.017 1
-15 8 3 522.662 183.932 7
15 -8 3 618.057 168.488 4
-15 -8 -3 633.095 174.703 6
-15 8 3 397.937 207.427 6
-15 -8 -3 710.78 157.133 8
15 8 -1 1159.48 216.651 2
-15 -8 -1 822.36 175.433 5
-15 -8 -1 700.563 160.996 7
-15 8 1 737.071 181.863 7
15 -8 1 643.884 164.397 4
-15 -8 -1 729.75 179.871 6
-15 8 1 543.713 194.642 6
15 8 -1 884.876 180.548 4
-15 -8 -1 813.535 151.727 8
-15 -8 1 1043.4 188.473 5
15 8 1 530.818 187.587 3
-15 8 -1 680.894 182.579 7
15 8 1 848.337 192.615 2
-15 -8 1 978.698 168.132 7
-15 -1 -8 730.825 188.275 6
-15 8 -1 654.129 200.279 6
15 8 1 725.889 166.626 4
15 -8 -1 834.913 165.708 4
-15 -8 1 904.678 195.38 6
-15 -8 1 708.287 147.214 8
-15 -8 3 528.272 163.59 5
-15 8 -3 550.027 173.514 7
-15 -8 3 767.698 150.447 7
-15 -3 -8 568.168 178.751 6
15 8 3 672.137 188.515 2
15 8 3 440.654 163.396 4
15 8 3 737.081 175.586 1
-15 8 -3 670.413 213.832 6
15 -8 -3 327.82 171.423 4
-16 0 0 2496.94 227.687 7
16 0 0 2161.32 219.677 4
-16 0 0 2077.22 235.418 6
0 16 0 1705.41 254.482 2
0 -16 0 1787.93 202.768 8
0 -16 0 1857.56 225.532 5
0 16 0 1926.19 247.733 3
-1 -16 1 54.0832 177.358 5
1 -16 1 46.4191 173.8 5
1 16 -1 155.055 193.964 3
-1 -16 -1 47.5773 171.892 5
-1 16 -1 158.448 191.893 3
1 -16 -1 65.6033 163.289 5
1 16 1 236.701 193.978 3
-16 -1 -1 16.8565 162.723 7
-16 1 -1 166.001 162.464 7
-16 1 1 194.437 155.179 7
-16 -1 1 12.9457 155.62 7
-1 16 1 26.3128 189.848 3
1 16 -1 158.074 208.378 2
-1 16 -1 79.8279 205.705 2
16 -1 1 31.2871 161.712 4
16 1 1 87.4163 155.632 4
-16 1 -1 165.77 182.804 6
-16 -1 -1 136.198 182.101 6
-16 1 1 207.072 179.373 6
-16 -1 1 40.8414 177.071 6
16 -1 -1 55.8312 158.304 4
16 1 -1 40.2914 158.347 4
-1 -16 1 290.027 148.095 8
1 -16 1 17.2444 142.606 8
-1 -16 -1 187.323 149.905 8
1 -16 -1 212.346 146.594 8
0 -16 2 67.4442 168.542 5
0 16 -2 83.6675 187.509 3
2 -16 0 103.549 168.886 5
2 16 0 10.2473 199.745 3
0 -16 -2 50.2209 160.683 5
-2 16 0 52.0993 188.01 3
-16 0 -2 294.587 166.376 7
-16 2 0 97.9627 162.217 7
-16 -2 0 10.1155 157.56 7
0 16 2 93.8381 184.484 3
0 16 -2 246.634 207.533 2
2 16 0 386.685 213.662 2
16 0 2 15.6803 166.795 4
-16 0 -2 78.3423 191.256 6
-2 16 0 426.903 204.385 2
16 -2 0 21.8475 156.838 4
-16 2 0 119.979 179.56 6
-16 -2 0 13.6029 174.628 6
16 2 0 40.3757 158.659 4
-16 0 2 140.456 172.022 6
16 0 -2 3.18114 156.328 4
0 -16 2 77.9552 136.087 8
-2 -16 0 60.9642 146.939 8
0 -16 -2 90.3604 151.646 8
-2 -16 2 159.002 167.767 5
2 16 -2 129.835 192.371 3
2 -16 2 173.288 170.746 5
-2 16 -2 75.5711 194.732 3
-2 -16 -2 240.395 165.736 5
2 -16 -2 163.5 160.783 5
-16 -2 -2 271.532 163.94 7
-16 2 -2 243.345 165.921 7
-16 2 2 224.167 150.072 7
-16 -2 2 326.049 146.852 7
2 16 2 284.363 191.147 3
2 16 -2 93.6162 194.698 2
-2 16 2 33.2841 184.128 3
-2 16 -2 327.499 203.658 2
16 -2 2 141.45 157.405 4
-16 2 -2 189.238 189.353 6
-16 -2 -2 91.4168 185.706 6
-16 2 2 356.02 178.28 6
-16 -2 2 101.737 169.917 6
16 -2 -2 127.511 153.614 4
16 2 -2 93.2369 157.042 4
-2 -16 2 155.204 134.514 8
2 -16 2 402.005 140.079 8
2 -16 -2 334.204 153.757 8
1 -16 3 54.5434 168.136 5
16 1 3 19.2427 168.176 1
-3 -16 1 55.6254 167.245 5
-3 16 -1 96.873 182.171 3
3 -16 -1 78.3772 158.389 5
-1 -16 -3 71.713 158.474 5
3 16 1 110.847 190.082 3
-16 1 -3 115.867 161.022 7
1 16 -3 14.2681 192.57 2
-16 -3 -1 10.1165 161.456 7
-16 3 1 102.065 153.513 7
-16 -1 3 6.3105 142.15 7
-1 16 3 144.379 183.579 3
-3 16 -1 328.152 198.749 2
16 1 3 85.7113 156.615 4
-16 1 -3 144.74 187.899 6
16 -3 1 34.5972 156.853 4
-16 -3 -1 23.9876 172.016 6
-16 3 1 21.1422 171.839 6
16 3 -1 6.26693 159.107 4
-16 -1 3 107.272 173.762 6
16 -1 -3 96.6852 163.304 4
1 -16 3 156.66 133.967 8
-3 -16 1 48.8935 136.559 8
3 -16 -1 129.828 146.775 8
-1 -16 -3 63.5342 147.56 8
-1 -16 3 38.3765 173.481 5
3 16 -1 58.6618 193.017 3
3 -16 1 140.611 162.33 5
-3 -16 -1 38.9665 168.667 5
-16 -1 -3 20.7133 165.946 7
1 -16 -3 165.232 157.632 5
-16 3 -1 82.6201 161.332 7
-1 16 -3 86.2337 190.491 2
-16 -3 1 120.957 152.923 7
-16 1 3 85.5248 145.964 7
-3 16 1 103.123 184.408 3
1 16 3 100.082 183.612 3
3 16 -1 58.7167 207.049 2
16 -1 3 56.9108 155.262 4
-16 -1 -3 76.6592 187.08 6
16 3 1 68.678 159.699 4
-16 3 -1 255.72 188.379 6
16 -1 3 73.7428 164.105 1
-16 -3 1 71.1277 168.609 6
16 -3 -1 28.0332 152.05 4
-16 1 3 166.398 182.243 6
16 1 -3 63.3163 167.887 4
-1 -16 3 158.72 134.252 8
3 -16 1 89.512 136.123 8
-3 -16 -1 65.6883 141.088 8
1 -16 -3 73.2022 145.747 8
-3 -16 3 1152.77 192.122 5
-16 -3 -3 1324.38 183.192 7
3 -16 3 994.524 188.523 5
-3 16 -3 1260.84 211.7 3
-3 -16 -3 1089.39 191.328 5
3 16 -3 1180.64 221.629 2
-3 16 -3 1290.01 215.741 2
3 -16 -3 1053.7 182.996 5
-16 -3 3 849.734 162.244 7
3 16 3 1139.99 208.103 3
16 3 3 1431.38 188.215 4
-16 -3 -3 1370.73 204.327 6
16 3 3 1081.34 193.301 1
-3 16 3 1077.9 207.682 3
16 -3 3 1038.02 177.063 4
-16 3 -3 1133.22 216.596 6
-16 3 3 1091.54 201.717 6
16 -3 -3 801.938 178.906 4
-3 -16 3 1132.44 163.634 8
3 -16 3 1055.78 159.502 8
-3 -16 -3 1087.92 171.736 8
3 -16 -3 1202.14 176.741 8
2 -16 4 340.69 181.776 5
-4 -16 2 649.379 177.12 5
2 16 -4 282.667 207.029 2
-4 16 -2 131.733 182.008 3
-16 -4 -2 552.003 166.433 7
-2 -16 -4 224.613 164.796 5
4 -16 -2 198.268 156.655 5
4 16 2 445.817 191.96 3
-4 16 -2 418.278 194.629 2
-2 16 4 497.651 190.499 3
16 2 4 325.637 164.434 1
16 2 4 428.143 164.924 4
-16 2 -4 201.295 197.74 6
16 -4 2 402.513 164.131 4
-16 -4 -2 341.138 175.916 6
-16 4 2 262.503 178.048 6
16 4 -2 387.061 162.281 4
2 -16 4 373.813 142.913 8
4 -16 -2 335.487 155.056 8
-2 -16 -4 431.846 150.283 8
0 -16 4 68.3916 173.663 5
-4 -16 0 168.456 167.633 5
4 -16 0 3.06784 159.271 5
4 16 0 123.323 188.167 3
-16 0 -4 154.125 160.593 7
-16 4 0 183.008 160.652 7
-16 -4 0 108.911 161.117 7
0 -16 -4 222.894 160.595 5
-4 16 0 47.313 183.74 3
0 16 4 288.174 194.162 3
4 16 0 143.404 205.279 2
-16 0 -4 108.665 193.978 6
16 0 4 161.4 162.916 1
16 -4 0 43.9498 154.565 4
-16 4 0 10.8478 176.178 6
16 4 0 170.805 151.745 4
0 -16 4 175.155 135.142 8
-4 -16 0 106.929 141.343 8
4 -16 0 197.348 144.327 8
0 -16 -4 129.633 145.395 8
2 -16 -4 541.093 156.637 8
-2 -16 4 533.33 179.534 5
4 16 -2 395.202 195.071 3
4 -16 2 437.411 171.959 5
-2 16 -4 162.507 196.038 2
-4 -16 -2 364.692 175.984 5
-16 -2 -4 374.195 161.985 7
-16 -4 2 404.477 150.795 7
2 -16 -4 557.842 170.004 5
-4 16 2 212.828 184.256 3
2 16 4 551.031 196.079 3
16 -2 4 493.874 158.107 4
-16 -2 -4 371.784 199.801 6
16 4 2 545.439 161.748 4
-16 4 -2 317.244 190.034 6
-16 -4 2 164.077 169.28 6
16 -4 -2 247.117 155.534 4
-2 -16 4 265.008 138.408 8
4 -16 2 255.39 134.991 8
4 -16 -4 3.4214 154.407 8
-4 -16 4 110.599 170.332 5
4 -16 4 111.252 169.828 5
-4 16 -4 128.117 194.724 2
-16 -4 -4 3.36284 150.746 7
16 4 4 60.356 166.914 1
4 -16 -4 71.2266 169.657 5
16 4 4 49.1802 161.807 4
-4 16 4 86.492 183.19 3
-16 -4 -4 7.40755 191.516 6
4 -16 4 67.7568 128.979 8
-5 16 -3 177.143 184.327 3
-5 16 -3 16.0837 187.921 2
-16 -5 -3 218.419 154.91 7
5 -16 -3 135.037 157.397 5
16 3 5 101.248 157.478 4
16 -5 3 276.609 164.652 4
-16 -5 -3 344.15 187.118 6
16 3 5 263.22 162.314 1
-16 5 3 280.164 189.715 6
5 -16 -3 259.394 162.737 8
-1 -16 -5 387.788 147.966 8
1 -16 5 386.741 180.891 5
1 16 -5 242.844 211.762 2
-5 -16 1 201.192 167.855 5
5 16 1 288.376 191.138 3
5 -16 -1 506.604 160.395 5
-5 16 -1 37.3984 176.356 3
-16 -5 -1 326.417 168.166 7
-1 -16 -5 237.058 169.789 5
-5 16 -1 144.637 192.103 2
16 1 5 350.914 160.541 4
-1 16 5 322.256 184.662 3
-16 1 -5 181.142 195.137 6
16 -5 1 326.811 158.478 4
-16 -5 -1 310.281 182.774 6
-16 5 1 224.216 181.155 6
16 5 -1 305.802 157.702 4
1 -16 5 300.502 137.264 8
5 -16 -1 288.997 152.238 8
1 -16 -5 121.944 158.419 8
-1 16 -5 488.392 214.127 2
-1 -16 5 442.33 186.82 5
5 16 -1 541.476 197.793 3
-5 -16 -1 330.566 180.814 5
5 -16 1 254.191 163.71 5
-16 -5 1 345.111 157.148 7
1 -16 -5 458.312 172.677 5
-5 16 1 204.161 181.112 3
1 16 5 299.794 190.545 3
16 -1 5 195.357 157.584 4
-16 -1 -5 401.979 193.936 6
-16 5 -1 322.642 196.617 6
16 5 1 347.438 156.466 4
-16 -5 1 208.376 171.911 6
16 -5 -1 153.646 148.633 4
-1 -16 5 204.907 135.197 8
5 -16 1 306.521 134.333 8
3 -16 -5 405.99 162.648 8
-3 -16 5 92.1107 174.807 5
-16 -3 -5 319.5 161.029 7
-16 -5 3 175.825 138.472 7
-5 16 3 59.4365 184.271 3
16 5 3 290.898 165.381 4
-16 5 -3 3.87914 197.219 6
16 5 3 310.971 169.826 1
16 -5 -3 302.01 167.464 4
5 -16 3 234.1 129.081 8
2 -16 6 57.4147 194.142 5
-16 -6 -2 39.5495 151.903 7
6 -16 -2 24.5734 152.136 5
16 -6 2 138.272 155.493 4
-16 -6 -2 269.822 173.832 6
-16 6 2 86.6026 178.542 6
16 6 -2 337.879 172.669 4
0 -16 6 176.402 197.243 5
6 -16 0 28.9207 149.891 5
-16 -6 0 129.943 158.547 7
-6 16 0 150.024 172.218 3
16 -6 0 120.212 154.104 4
-16 6 0 63.163 177.319 6
-16 -6 0 50.477 162.509 6
16 6 0 25.0771 151.07 4
6 -16 0 11.1313 139.057 8
6 -16 2 190.572 158.307 5
-16 -6 2 258.3 158.229 7
-16 -2 -6 209.617 194.657 6
16 6 2 142.137 156.027 4
-16 6 -2 65.8177 195.878 6
-16 -6 2 144.585 184.77 6
16 -6 -2 249.654 154.921 4
6 -16 2 113.063 122.987 8
0 -17 1 555.611 181.945 5
-1 -17 0 372.183 173.486 5
1 -17 0 294.854 171.239 5
0 -17 -1 322.129 169.535 5
0 17 -1 615.896 199.691 3
1 17 0 278.308 196.368 3
-1 17 0 329.066 195.606 3
0 17 1 280.715 199.727 3
0 17 -1 605.527 217.62 2
1 17 0 173.172 209.373 2
-1 17 0 218.114 199.777 2
-17 -1 0 235.857 179.277 6
17 1 0 275.256 165.358 4
0 -17 1 266.865 142.896 8
-1 -17 0 191.802 149.775 8
1 -17 0 289.464 147.352 8
0 -17 -1 103.412 146.475 8
1 -17 2 216.162 170.177 5
1 17 -2 169.874 201.792 3
-2 -17 1 214.335 171.529 5
-2 17 -1 261.016 194.568 3
2 -17 -1 173.386 171.293 5
-1 -17 -2 230.07 169.175 5
2 17 1 292.07 193.645 3
1 17 -2 173.328 205.415 2
-1 17 2 210.331 190.381 3
-2 17 -1 209.36 202.985 2
-17 -2 -1 348.995 187.839 6
17 2 -1 128.636 155.437 4
1 -17 2 159.912 138.828 8
2 -17 -1 278.306 149.022 8
-1 -17 2 373.558 175.379 5
-1 17 -2 257.768 200.191 3
2 -17 1 6.96904 173.739 5
2 17 -1 284.122 199.645 3
-2 -17 -1 80.9655 175.767 5
1 -17 -2 97.2857 165.577 5
-2 17 1 199.978 195.206 3
1 17 2 232.06 189.703 3
-1 17 -2 273.619 206.244 2
17 2 1 258.51 163.413 4
-17 -2 1 143.172 171.674 6
-1 -17 2 251.527 138.997 8
2 -17 1 184.796 136.173 8
1 -17 -2 53.103 147.753 8
2 -17 3 50.2156 174.656 5
-3 17 -2 281.956 206.624 3
3 -17 -2 173.09 166.451 5
-3 17 -2 116.245 200.243 2
-2 17 3 21.9238 189.978 3
-17 -3 -2 51.8659 179.25 6
17 3 -2 103.054 158.343 4
2 -17 3 210.249 139.967 8
3 -17 -2 164.726 157.377 8
0 -17 3 242.109 180.044 5
3 -17 0 308.503 171.795 5
0 -17 -3 56.561 162.705 5
0 17 -3 231.111 197.556 2
-3 17 0 201.764 196.982 3
0 17 3 171.793 187.676 3
-3 17 0 253.938 204.516 2
-17 -3 0 250.545 174.594 6
17 3 0 265.62 161.036 4
0 -17 3 301.934 140.454 8
3 -17 0 105.492 146.046 8
0 -17 -3 212.059 157.141 8
-2 -17 3 119.177 174.502 5
-2 17 -3 14.4337 203.65 3
3 -17 2 111.116 176.45 5
-2 17 -3 122.772 196.926 2
2 -17 -3 123.563 163.695 5
-3 17 2 77.9995 194.061 3
17 3 2 26.7891 159.181 4
-17 -3 2 77.944 172.557 6
3 -17 2 78.9569 140.232 8
2 -17 -3 174.356 158.245 8
#BEGIN Loops that were not found in dictionaries:
loop_
_smtbx_masks_void_nr
_smtbx_masks_void_average_x
_smtbx_masks_void_average_y
_smtbx_masks_void_average_z
_smtbx_masks_void_volume
_smtbx_masks_void_count_electrons
1 -0.767 -0.755 -0.506 13887.0 2416.9
#END Loops that were not found in dictionaries
