#------------------------------------------------------------------------------
#$Date: 2017-12-10 21:25:10 +0200 (Sun, 10 Dec 2017) $
#$Revision: 204138 $
#$URL: file:///home/coder/svn-repositories/cod/cif/7/22/77/7227779.cif $
#------------------------------------------------------------------------------
#
# This file is available in the Crystallography Open Database (COD),
# http://www.crystallography.net/
#
# All data on this site have been placed in the public domain by the
# contributors.
#
data_7227779
loop_
_publ_author_name
'Patyk-Ka\'zmierczak, Ewa'
'Warren, Mark R.'
'Allan, David R.'
'Katrusiak, Andrzej'
_publ_section_title
;
 Pressure inverse solubility and polymorphism of an edible
 \g-cyclodextrin-based metal-organic framework.
;
_journal_issue                   13
_journal_name_full               'Physical chemistry chemical physics : PCCP'
_journal_page_first              9086
_journal_page_last               9091
_journal_paper_doi               10.1039/c7cp00593h
_journal_volume                  19
_journal_year                    2017
_chemical_absolute_configuration rm
_chemical_formula_moiety         'C48 H80 O40, 2(KOH)'
_chemical_formula_sum            'C48 H82 K2 O42'
_chemical_formula_weight         1409.34
_chemical_name_common            '\g-cyclodextrin-metal-organic framework'
_chemical_name_systematic
'catena-((\m8-\g-Cyclodextrin)-di-potassium dihydroxide)'
_space_group_crystal_system      cubic
_space_group_IT_number           211
_space_group_name_Hall           'I 4 2 3'
_space_group_name_H-M_alt        'I 4 3 2'
_atom_sites_solution_hydrogens   geom
_atom_sites_solution_primary     direct
_audit_creation_date             2017-01-18
_audit_creation_method
;
Olex2 1.2
(compiled 2017.01.04 svn.r3372 for OlexSys, GUI svn.r5289)
;
_cell_angle_alpha                90.0
_cell_angle_beta                 90.0
_cell_angle_gamma                90.0
_cell_formula_units_Z            12
_cell_length_a                   31.238(2)
_cell_length_b                   31.238(2)
_cell_length_c                   31.238(2)
_cell_measurement_reflns_used    1027
_cell_measurement_temperature    295
_cell_measurement_theta_max      8.5420
_cell_measurement_theta_min      1.9920
_cell_volume                     30482(3)
_computing_cell_refinement       'CrysAlisPro 1.171.38.41 (Rigaku OD, 2015)'
_computing_data_collection       'CrysAlisPro 1.171.38.41 (Rigaku OD, 2015)'
_computing_data_reduction        'CrysAlisPro 1.171.38.41 (Rigaku OD, 2015)'
_computing_molecular_graphics    'Olex2 (Dolomanov et al., 2009)'
_computing_publication_material  'Olex2 (Dolomanov et al., 2009)'
_computing_structure_refinement  'ShelXL (Sheldrick, 2015)'
_computing_structure_solution    'ShelXS (Sheldrick, 2008)'
_diffrn_ambient_environment      'diamond-anvil cell'
_diffrn_ambient_pressure         410000
_diffrn_ambient_temperature      295
_diffrn_detector                 'CCD plate'
_diffrn_measured_fraction_theta_full 0.717
_diffrn_measured_fraction_theta_max 0.716
_diffrn_measurement_details
;
List of Runs (angles in degrees, time in seconds):

  # Type    Start    End  Width  t~exp~   \w     \q     \k     \f   Frames
--------------------------------------------------------------------------
  1  \w   -105.00 -74.00   0.20    0.70    --   15.00  70.00 155.77  155
  2  \w   -105.00 -74.00   0.20    0.70    --   15.00  70.00 -24.23  155
  3  \w   -106.00 -66.00   0.20    0.70    --  -15.00 -70.00-155.77  200
  4  \w   -106.00 -66.00   0.20    0.70    --  -15.00 -70.00  24.23  200
  5  \w   -150.00 -94.00   0.20    0.70    --  -15.00  70.00 -24.23  280
  6  \w   -150.00 -94.00   0.20    0.70    --  -15.00  70.00 155.77  280
  7  \w    -96.00 -30.00   0.20    0.70    --   15.00 -70.00  24.23  330
  8  \w    -96.00 -30.00   0.20    0.70    --   15.00 -70.00-155.77  330
;
_diffrn_measurement_device       'abstract diffractometer'
_diffrn_measurement_device_type  'Newport IS4CCD (4 circle), Pilatus 300K'
_diffrn_measurement_method       '\w scans'
_diffrn_orient_matrix_type
'CrysAlisPro convention (1999,Acta A55,543-557)'
_diffrn_orient_matrix_UB_11      -0.0000867000
_diffrn_orient_matrix_UB_12      0.0217333000
_diffrn_orient_matrix_UB_13      -0.0038172000
_diffrn_orient_matrix_UB_21      0.0189471000
_diffrn_orient_matrix_UB_22      -0.0018735000
_diffrn_orient_matrix_UB_23      -0.0111495000
_diffrn_orient_matrix_UB_31      -0.0112953000
_diffrn_orient_matrix_UB_32      -0.0033232000
_diffrn_orient_matrix_UB_33      -0.0186197000
_diffrn_radiation_monochromator  synchrotron
_diffrn_radiation_probe          x-ray
_diffrn_radiation_type           synchrotron
_diffrn_radiation_wavelength     0.6889
_diffrn_reflns_av_R_equivalents  0.0543
_diffrn_reflns_av_unetI/netI     0.0869
_diffrn_reflns_Laue_measured_fraction_full 0.717
_diffrn_reflns_Laue_measured_fraction_max 0.716
_diffrn_reflns_limit_h_max       20
_diffrn_reflns_limit_h_min       -20
_diffrn_reflns_limit_k_max       9
_diffrn_reflns_limit_k_min       -9
_diffrn_reflns_limit_l_max       20
_diffrn_reflns_limit_l_min       -20
_diffrn_reflns_number            2510
_diffrn_reflns_point_group_measured_fraction_full 0.697
_diffrn_reflns_point_group_measured_fraction_max 0.697
_diffrn_reflns_theta_full        13.249
_diffrn_reflns_theta_max         13.249
_diffrn_reflns_theta_min         1.787
_diffrn_source                   synchrotron
_exptl_absorpt_coefficient_mu    0.146
_exptl_absorpt_correction_T_max  1.00000
_exptl_absorpt_correction_T_min  0.88316
_exptl_absorpt_correction_type   multi-scan
_exptl_absorpt_process_details
;
CrysAlisPro 1.171.38.41 (Rigaku Oxford Diffraction, 2015)
Empirical absorption correction using spherical harmonics,
 implemented in SCALE3 ABSPACK scaling algorithm.
;
_exptl_crystal_colour            'clear colourless'
_exptl_crystal_colour_lustre     clear
_exptl_crystal_colour_primary    colourless
_exptl_crystal_density_diffrn    0.921
_exptl_crystal_description       plate
_exptl_crystal_F_000             8928
_exptl_crystal_recrystallization_method
'Compressed crystal that was grown in situ at 0.16 GPa in the diamond-anvil cell from methanol:water mixture by heating and subsequent cooling of the cell'
_exptl_crystal_size_max          0.14
_exptl_crystal_size_mid          0.13
_exptl_crystal_size_min          0.03
_refine_diff_density_max         0.126
_refine_diff_density_min         -0.109
_refine_diff_density_rms         0.027
_refine_ls_abs_structure_details
;
 Flack x determined using 64 quotients [(I+)-(I-)]/[(I+)+(I-)]
 (Parsons, Flack and Wagner, Acta Cryst. B69 (2013) 249-259).
;
_refine_ls_abs_structure_Flack   0.39(10)
_refine_ls_extinction_method     none
_refine_ls_goodness_of_fit_ref   0.960
_refine_ls_hydrogen_treatment    constr
_refine_ls_matrix_type           full
_refine_ls_number_parameters     76
_refine_ls_number_reflns         558
_refine_ls_number_restraints     61
_refine_ls_restrained_S_all      1.298
_refine_ls_R_factor_all          0.1248
_refine_ls_R_factor_gt           0.0922
_refine_ls_shift/su_max          0.000
_refine_ls_shift/su_mean         0.000
_refine_ls_structure_factor_coef Fsqd
_refine_ls_weighting_details
'w=1/[\s^2^(Fo^2^)+(0.1624P)^2^] where P=(Fo^2^+2Fc^2^)/3'
_refine_ls_weighting_scheme      calc
_refine_ls_wR_factor_gt          0.2328
_refine_ls_wR_factor_ref         0.2494
_reflns_Friedel_coverage         0.550
_reflns_Friedel_fraction_full    0.664
_reflns_Friedel_fraction_max     0.664
_reflns_number_gt                288
_reflns_number_total             558
_reflns_threshold_expression     'I > 2\s(I)'
_iucr_refine_instructions_details
;

    final_new.res created by SHELXL-2014/7

TITL final_new in I432 #211
REM reset to I432 #211
CELL 0.6889 31.23755 31.23755 31.23755 90 90 90
ZERR 12 0.002114 0.002114 0.002114 0 0 0
LATT -2
SYMM -Y,+X,+Z
SYMM -X,-Y,+Z
SYMM +Y,-X,+Z
SYMM +X,-Z,+Y
SYMM +X,-Y,-Z
SYMM +X,+Z,-Y
SYMM +Z,+Y,-X
SYMM -X,+Y,-Z
SYMM -Z,+Y,+X
SYMM +Z,+X,+Y
SYMM +Y,+Z,+X
SYMM -Y,-Z,+X
SYMM +Z,-X,-Y
SYMM -Y,+Z,-X
SYMM -Z,-X,+Y
SYMM -Z,+X,-Y
SYMM +Y,-Z,-X
SYMM +Y,+X,-Z
SYMM -Y,-X,-Z
SYMM -X,+Z,+Y
SYMM -X,-Z,-Y
SYMM +Z,-Y,+X
SYMM -Z,-Y,-X
SFAC H C O K
DISP C 0.003 0.001 10.848
DISP H -0 0 0.623
DISP K 0.203 0.25 967.432
DISP O 0.011 0.006 30.192
UNIT 960 576 480 24
DFIX 1.5 0.005 C6 C5
DFIX 2.3 0.005 C5 C1
DFIX 3 C2 C5
DFIX 1.5 0.005 C2 C1
DFIX 1.45 0.005 C4 O4
DFIX 1.5 0.005 C4 C5
DFIX 3 C1 C4
DFIX 1.5 0.005 C2 C3
DFIX 1.5 0.005 C4 C3
DFIX 2.3 C2 O3
DFIX 1.45 0.005 C2 O2
DFIX 1.45 0.005 O3 C3
DFIX 2.2 O2 C3
DFIX 1.5 0.005 C14 C13
DFIX 1.5 0.01 O14 C14
DFIX 2.4 O14 C13
DFIX 2.2 O4 C12
DFIX 1.5 0.005 C12 C13
DFIX 1.45 0.005 O13 C13
DFIX 2.5 O13 C14
DFIX 2.4 O14 C15
DFIX 1.5 0.005 C15 C14
DFIX 1.5 0.005 C14 C15
DFIX 3 C12 C15
DFIX 1.5 0.005 C16 C15
DFIX 1.45 0.005 C16 O16
DFIX 1.45 0.005 C11 O4
DFIX 3 C11 C14
DFIX 1.5 0.005 C12 C11
DFIX 1.45 0.005 C12 O12
DFIX 1.45 0.005 C6 O6
DFIX 1.45 0.005 O5 C5
DFIX 2.5 O5 C6
DFIX 1.45 0.005 O5 C1
DFIX 3.1 O5 C3
DFIX 3 O15 C13
DFIX 1.45 0.005 O15 C15
DFIX 2.2 O15 C16
DFIX 1.45 0.005 O15 C11
DANG 2.5 0.02 C1 C5
DANG 2.5 0.02 C4 C2
DANG 2.5 0.02 C5 C3
DANG 2.5 0.02 C3 C1
DANG 2.5 O2 C1
DANG 2.5 C1 O2
DANG 2.5 C13 O14
DANG 2.4 0.02 C12 C14
DANG 2.5 O4 C12
DANG 2.5 O14 C15
DANG 2.4 0.02 C13 C15
DANG 2.5 C15 O16
DANG 2.5 C4 C11
DANG 2.5 C11 C4
DANG 2.4 0.02 C11 C13
DANG 2.4 0.02 C15 C11
DANG 2.7 O6 C5
DANG 2.5 C5 O6
DANG 2.5 0.02 C2 O5
DANG 2.5 0.02 O5 C4
DANG 2.4 0.02 C14 O15
DANG 2.4 0.02 O15 C12
 
L.S. 100
PLAN  5
TEMP 21.85
CONN 4 C11
CONN 4 C16
BOND
MORE -1
BOND $H
CONF
ABIN
fmap 2
acta
OMIT 2 4 4
OMIT 2 6 6
OMIT 0 7 7
OMIT 0 1 7
OMIT 0 5 5
OMIT 0 5 7
OMIT -1 3 8
OMIT 1 3 8
OMIT -1 4 7
OMIT 1 4 7
OMIT 0 3 9
OMIT 0 1 9
OMIT 2 9 9
OMIT 0 9 9
OMIT 0 2 10
OMIT 0 2 4
OMIT 0 0 12
OMIT 2 2 6
OMIT 2 4 10
OMIT 1 3 4
OMIT -2 4 10
OMIT -1 3 4
OMIT 6 7 11
OMIT 1 6 15
OMIT 0 6 12
OMIT 0 8 12
OMIT 5 6 15
OMIT -5 8 9
OMIT 1 12 13
OMIT 3 6 9
OMIT 0 2 12
REM <olex2.extras>
REM <HklSrc "%.\\final_new.hkl">
REM </olex2.extras>
 
WGHT    0.162400
FVAR       0.65560   0.24251   0.33251
C1    2    0.850759    0.688444    0.639343    11.00000   21.00000
AFIX  13
H1    1    0.846021    0.719426    0.637973    11.00000   -1.20000
AFIX   0
C2    2    0.887852    0.678468    0.668140    11.00000   21.00000
AFIX  13
H2A   1    0.883383    0.691469    0.696339    11.00000   -1.20000
AFIX   0
C3    2    0.896147    0.631408    0.672831    11.00000   21.00000
AFIX  13
H3A   1    0.900993    0.628523    0.641970    11.00000   -1.20000
AFIX   0
C4    2    0.857188    0.603269    0.670357    11.00000   21.00000
AFIX  13
H4    1    0.846038    0.606806    0.699467    11.00000   -1.20000
AFIX   0
C5    2    0.820295    0.621022    0.645035    11.00000   21.00000
AFIX  13
H5    1    0.823577    0.612266    0.615088    11.00000   -1.20000
AFIX   0
C6    2    0.783967    0.596086    0.664433    11.00000   21.00000
AFIX  23
H6A   1    0.757702    0.607089    0.652051    11.00000   -1.20000
H6B   1    0.786843    0.566726    0.654739    11.00000   -1.20000
AFIX   0
C11   2    0.860191    0.535491    0.710678    11.00000   21.00000
AFIX  13
H11   1    0.859871    0.557544    0.732989    11.00000   -1.20000
AFIX   0
C12   2    0.900863    0.511699    0.719793    11.00000   21.00000
AFIX  13
H12A  1    0.903319    0.506944    0.750706    11.00000   -1.20000
AFIX   0
C13   2    0.901628    0.469318    0.697190    11.00000   21.00000
AFIX  13
H13A  1    0.890949    0.482334    0.670718    11.00000   -1.20000
AFIX   0
C14   2    0.861480    0.443989    0.702383    11.00000   21.00000
AFIX  13
H14   1    0.861764    0.430294    0.730606    11.00000   -1.20000
AFIX   0
C15   2    0.821157    0.469706    0.698092    11.00000   21.00000
AFIX  13
H15   1    0.820002    0.477567    0.667742    11.00000   -1.20000
AFIX   0
C16   2    0.775941    0.457461    0.709158    11.00000   21.00000
AFIX  23
H16B  1    0.758233    0.482881    0.707033    11.00000   -1.20000
H16A  1    0.765849    0.437342    0.687766    11.00000   -1.20000
AFIX   0
K1    4    0.806924    0.500000    0.806924    10.50000    0.22529    0.48367 =
         0.22529   -0.09602    0.01494    0.09602
O2    3    0.928491    0.692558    0.650320    11.00000   31.00000
AFIX  83
H2    1    0.925029    0.699877    0.625349    11.00000   -1.50000
AFIX   0
O3    3    0.941817    0.628983    0.681206    11.00000   31.00000
AFIX  83
H3    1    0.948611    0.603993    0.685497    11.00000   -1.50000
AFIX   0
O4    3    0.872376    0.559350    0.672777    11.00000   31.00000
O5    3    0.810739    0.666330    0.646220    11.00000   31.00000
O6    3    0.777837    0.594732    0.710558    11.00000   31.00000
AFIX  83
H6    1    0.778407    0.569793    0.718732    11.00000   -1.50000
AFIX   0
O12   3    0.936623    0.537745    0.705448    11.00000   31.00000
AFIX  83
H12   1    0.959145    0.525278    0.710587    11.00000   -1.50000
AFIX   0
O13   3    0.938729    0.452234    0.675231    11.00000   31.00000
AFIX  83
H13   1    0.932563    0.429199    0.664257    11.00000   -1.50000
AFIX   0
O14   3    0.858460    0.409776    0.668573    11.00000   31.00000
O15   3    0.822408    0.510216    0.720593    11.00000   31.00000
O16   3    0.769241    0.438628    0.751023    11.00000   31.00000
AFIX  83
H16   1    0.775462    0.413137    0.750247    11.00000   -1.50000
AFIX   0
OA    3    1.000000    0.500000    0.678478    10.50000    0.30415
HKLF 4
 
REM  final_new in I432 #211
REM R1 =  0.0922 for     288 Fo > 4sig(Fo)  and  0.1248 for all     558 data
REM     76 parameters refined using     61 restraints
 
END  
     
WGHT      0.1624      0.0000 

REM Highest difference peak  0.126,  deepest hole -0.109,  1-sigma level  0.027
Q1    1   1.0014  0.4519  0.6890  11.00000  0.05    0.13
Q2    1   0.7537  0.5000  0.5000  10.25000  0.05    0.11
Q3    1   0.9987  0.5696  0.6916  11.00000  0.05    0.10
Q4    1   0.8429  0.3782  0.6556  11.00000  0.05    0.10
Q5    1   0.9877  0.4566  0.6805  11.00000  0.05    0.10

  REM The information below was added by Olex2.
  REM
  REM R1 = 0.0922 for 288 Fo > 4sig(Fo) and 0.1248 for all 2799 data
  REM n/a parameters refined using n/a restraints
  REM Highest difference peak 0.13, deepest hole -0.11
  REM Mean Shift 0, Max Shift 0.000.

  REM +++ Tabular Listing of Refinement Information +++
  REM R1_all = 0.1248
  REM R1_gt = 0.0922
  REM wR_ref = 0.2494
  REM GOOF = 0.960
  REM Shift_max = 0.000
  REM Shift_mean = 0
  REM Reflections_all = 2799
  REM Reflections_gt = 288
  REM Parameters = n/a
  REM Hole = -0.11
  REM Peak = 0.13
  REM Flack = 0.39(10)

  
;
_cod_data_source_file            c7cp00593h3.cif
_cod_data_source_block           CDMOF_a_0_41GPa
_cod_depositor_comments
'Adding full bibliography for 7227776--7227790.cif.'
_cod_original_cell_volume        30481(4)
_cod_database_code               7227779
#BEGIN Tags that were not found in dictionaries:
_shelx_shelxl_version_number     2014/7
_chemical_oxdiff_formula         'C48 H82 K2 O40'
_shelx_space_group_comment
;
The symmetry employed for this shelxl refinement is uniquely defined
by the following loop, which should always be used as a source of
symmetry information in preference to the above space-group names.
They are only intended as comments.
;
_reflns_odcompleteness_completeness 75.60
_reflns_odcompleteness_iscentric 1
_reflns_odcompleteness_theta     13.25
_olex2_refinement_description
;
1. Fixed Uiso
 At 1.2 times of:
  All C(H) groups, All C(H,H) groups
 At 1.5 times of:
  All O(H) groups
2. Restrained distances
 C6-C5
 1.5 with sigma of 0.005
 C5-C1
 2.3 with sigma of 0.005
 C2-C5
 3 with sigma of 0.02
 C2-C1
 1.5 with sigma of 0.005
 C4-O4
 1.45 with sigma of 0.005
 C4-C5
 1.5 with sigma of 0.005
 C1-C4
 3 with sigma of 0.02
 C2-C3
 1.5 with sigma of 0.005
 C4-C3
 1.5 with sigma of 0.005
 C2-O3
 2.3 with sigma of 0.02
 C2-O2
 1.45 with sigma of 0.005
 O3-C3
 1.45 with sigma of 0.005
 O2-C3
 2.2 with sigma of 0.02
 C14-C13
 1.5 with sigma of 0.005
 O14-C14
 1.5 with sigma of 0.01
 O14-C13
 2.4 with sigma of 0.02
 O4-C12
 2.2 with sigma of 0.02
 C12-C13
 1.5 with sigma of 0.005
 O13-C13
 1.45 with sigma of 0.005
 O13-C14
 2.5 with sigma of 0.02
 O14-C15
 2.4 with sigma of 0.02
 C15-C14
 1.5 with sigma of 0.005
 C14-C15
 1.5 with sigma of 0.005
 C12-C15
 3 with sigma of 0.02
 C16-C15
 1.5 with sigma of 0.005
 C16-O16
 1.45 with sigma of 0.005
 C11-O4
 1.45 with sigma of 0.005
 C11-C14
 3 with sigma of 0.02
 C12-C11
 1.5 with sigma of 0.005
 C12-O12
 1.45 with sigma of 0.005
 C6-O6
 1.45 with sigma of 0.005
 O5-C5
 1.45 with sigma of 0.005
 O5-C6
 2.5 with sigma of 0.02
 O5-C1
 1.45 with sigma of 0.005
 O5-C3
 3.1 with sigma of 0.02
 O15-C13
 3 with sigma of 0.02
 O15-C15
 1.45 with sigma of 0.005
 O15-C16
 2.2 with sigma of 0.02
 O15-C11
 1.45 with sigma of 0.005
 C1-C5
 2.5 with sigma of 0.02
 C4-C2
 2.5 with sigma of 0.02
 C5-C3
 2.5 with sigma of 0.02
 C3-C1
 2.5 with sigma of 0.02
 O2-C1
 2.5 with sigma of 0.04
 C1-O2
 2.5 with sigma of 0.04
 C13-O14
 2.5 with sigma of 0.04
 C12-C14
 2.4 with sigma of 0.02
 O4-C12
 2.5 with sigma of 0.04
 O14-C15
 2.5 with sigma of 0.04
 C13-C15
 2.4 with sigma of 0.02
 C15-O16
 2.5 with sigma of 0.04
 C4-C11
 2.5 with sigma of 0.04
 C11-C4
 2.5 with sigma of 0.04
 C11-C13
 2.4 with sigma of 0.02
 C15-C11
 2.4 with sigma of 0.02
 O6-C5
 2.7 with sigma of 0.04
 C5-O6
 2.5 with sigma of 0.04
 C2-O5
 2.5 with sigma of 0.02
 O5-C4
 2.5 with sigma of 0.02
 C14-O15
 2.4 with sigma of 0.02
 O15-C12
 2.4 with sigma of 0.02
3. Others
 Uiso(C1)=Uiso(C2)=Uiso(C3)=Uiso(C4)=Uiso(C5)=Uiso(C6)=Uiso(C11)=Uiso(C12)=
 Uiso(C13)=Uiso(C14)=Uiso(C15)=Uiso(C16)=FVAR(1)
 Uiso(O2)=Uiso(O3)=Uiso(O4)=Uiso(O5)=Uiso(O6)=Uiso(O12)=Uiso(O13)=Uiso(O14)=
 Uiso(O15)=Uiso(O16)=FVAR(2)
4.a Ternary CH refined with riding coordinates:
 C1(H1), C2(H2A), C3(H3A), C4(H4), C5(H5), C11(H11), C12(H12A), C13(H13A),
 C14(H14), C15(H15)
4.b Secondary CH2 refined with riding coordinates:
 C6(H6A,H6B), C16(H16B,H16A)
4.c Tetrahedral OH refined with riding coordinates:
 O2(H2), O3(H3), O6(H6), O12(H12), O13(H13), O16(H16)
;
_shelx_fab_file
;
-8 -15 -9 14.6957 15.6686
-8 -14 -12 27.7565 -7.1870
-8 -14 -10 -3.0120 12.0126
-8 -13 -11 -8.5520 1.4006
-8 -13 -9 17.4190 26.0782
-8 -12 -10 1.1747 9.0558
-7 -15 -12 -20.4605 -9.3043
-7 -15 -10 -6.5571 25.8328
-7 -15 -8 25.5447 -10.4393
-7 -14 -13 -0.7065 6.2124
-7 -14 -9 15.0077 15.6661
-7 -13 -12 -8.3911 -11.5562
-7 -13 -10 9.1346 35.1158
-7 -13 -8 9.4944 -16.2375
-7 -12 -11 -9.6171 -4.5081
-7 -12 -9 0.5238 20.0101
-7 -11 -10 7.2026 -20.3152
-6 -18 -8 16.9228 18.9038
-6 -17 -9 -23.3876 -4.9016
-6 -17 -7 -5.6104 26.6342
-6 -16 -8 -13.5843 -0.7807
-6 -15 -13 30.8044 -21.2521
-6 -15 -9 24.7807 16.4730
-6 -15 -7 -3.6097 20.4392
-6 -14 -12 -26.7140 -48.2719
-6 -14 -10 1.2819 -3.4986
-6 -14 -8 -21.9849 -8.8210
-6 -13 -11 16.8950 -21.3472
-6 -13 -9 -0.2212 -0.5104
-6 -13 -7 6.4299 1.1202
-6 -12 -10 12.3535 -9.5613
-6 -9 -7 9.9277 9.0390
-5 -19 -6 -6.8782 16.3835
-5 -18 -9 14.3544 -13.9842
-5 -18 -7 22.2293 19.3479
-5 -17 -6 -10.0033 -8.6850
-5 -16 -9 13.4388 -11.0812
-5 -16 -7 -9.0987 14.4950
-5 -15 -10 -17.5516 12.0041
-5 -14 -11 -13.4190 -17.9638
-5 -14 -9 0.9159 -8.2401
-5 -14 -7 -42.7492 -1.3982
-5 -13 -10 -0.5640 2.8074
-5 -13 -8 -1.3817 6.3501
-5 -12 -11 20.1125 6.5502
-5 -11 -6 -2.6305 20.4939
-5 -10 -9 21.0515 14.5145
-5 -10 -7 -54.3258 -3.4811
-5 -9 -8 -9.0958 39.2748
-5 -9 -6 4.6189 -26.6378
-5 -8 -7 40.4346 18.2736
-5 -7 -6 21.4822 -3.2091
-4 -19 -7 -16.4487 -27.5483
-4 -19 -5 -41.5447 -7.2722
-4 -18 -8 6.7986 -9.7151
-4 -18 -6 0.2651 -11.8306
-4 -17 -11 -13.9261 -18.3191
-4 -17 -7 -25.3417 -4.1195
-4 -17 -5 -23.7293 -24.1920
-4 -16 -12 -34.6868 5.1877
-4 -16 -10 -15.8043 -39.1785
-4 -16 -8 5.2012 9.9012
-4 -16 -6 10.6907 -35.2332
-4 -15 -13 -17.4900 38.9050
-4 -15 -11 -4.9937 5.1782
-4 -15 -9 12.4623 -22.3275
-4 -15 -7 -3.1857 6.6270
-4 -15 -5 22.5993 -30.1662
-4 -14 -12 -29.1935 10.3420
-4 -14 -10 -4.4372 -3.5819
-4 -14 -8 -1.7192 -24.0818
-4 -14 -6 -8.6409 -12.2347
-4 -13 -11 -22.5809 -1.6255
-4 -13 -9 14.2642 -26.6374
-4 -12 -10 11.1903 -0.6519
-4 -11 -5 -28.2924 -14.1598
-4 -10 -8 -2.4342 7.9894
-4 -10 -6 13.0222 -13.3570
-4 -9 -7 -44.1476 2.3359
-4 -9 -5 -18.0661 12.0949
-4 -8 -6 36.0527 5.6860
-4 -7 -5 26.4646 43.0753
-3 -19 -6 -12.0601 11.3837
-3 -18 -9 7.4991 6.6731
-3 -18 -5 -11.4600 14.6121
-3 -17 -8 2.1880 15.3486
-3 -17 -6 9.3407 -10.9564
-3 -17 -4 16.8626 17.4490
-3 -16 -9 11.6679 -13.2839
-3 -16 -7 0.4202 30.8127
-3 -16 -5 12.7927 0.1168
-3 -15 -14 13.6711 37.9890
-3 -15 -12 6.2016 34.5486
-3 -15 -10 14.5918 19.3339
-3 -15 -8 6.9806 28.8643
-3 -15 -6 37.8595 15.9496
-3 -15 -4 15.5650 7.1462
-3 -14 -13 23.7311 38.9927
-3 -14 -11 11.3743 17.6996
-3 -14 -9 36.2895 -2.7267
-3 -14 -7 -41.9477 11.0301
-3 -13 -12 19.8853 22.3188
-3 -13 -10 2.8527 30.4627
-3 -12 -11 11.1688 1.6587
-3 -12 -7 -5.9706 19.3366
-3 -12 -5 11.0885 2.6012
-3 -11 -6 -0.2464 19.5528
-3 -11 -4 -20.5334 10.3156
-3 -10 -7 -1.9486 -6.7119
-3 -10 -5 -52.9777 35.0335
-3 -9 -8 17.5619 5.9869
-3 -9 -4 33.4983 38.1929
-3 -8 -7 -20.8325 4.9146
-3 -8 -5 5.5451 57.0867
-3 -7 -6 32.3686 20.3042
-3 -7 -4 -32.7474 60.1395
-3 -6 -5 -66.0053 55.0801
-3 -5 -4 16.8851 9.1412
-2 -20 -4 -10.4026 -2.2386
-2 -19 -7 22.5524 -3.7546
-2 -19 -3 -19.6606 13.5264
-2 -18 -10 -9.1564 -19.3644
-2 -18 -6 23.8081 -8.4012
-2 -18 -4 19.3179 19.8962
-2 -17 -11 13.9588 -24.7363
-2 -17 -9 30.5148 -24.9143
-2 -17 -7 16.1520 -22.3631
-2 -17 -5 36.1703 8.3015
-2 -17 -3 27.1631 16.1635
-2 -16 -12 -24.9322 -17.0647
-2 -16 -10 14.5880 -19.2002
-2 -16 -8 41.2602 -8.7956
-2 -16 -6 20.8208 8.6982
-2 -16 -4 50.9803 24.5096
-2 -15 -13 13.8115 17.8703
-2 -15 -11 16.2994 2.8028
-2 -15 -9 25.2009 14.5262
-2 -15 -7 -22.6513 8.3919
-2 -15 -5 6.6657 23.7417
-2 -14 -12 26.8503 9.2865
-2 -14 -10 13.2759 9.4799
-2 -14 -8 -4.5684 41.6133
-2 -13 -11 -9.1236 6.6584
-2 -13 -9 -41.2584 -21.4116
-2 -13 -3 6.7392 4.8165
-2 -12 -10 2.3266 14.5111
-2 -12 -6 -11.4890 -21.4754
-2 -12 -4 -40.6355 -13.0925
-2 -11 -9 -12.5071 -29.2402
-2 -11 -7 -18.0761 -19.1322
-2 -11 -5 -17.0026 -11.3695
-2 -11 -3 40.0932 -67.6936
-2 -10 -8 -1.7112 -1.5581
-2 -10 -6 -3.4508 20.6658
-2 -9 -7 20.5213 6.5491
-2 -9 -5 -20.9244 41.2973
-2 -9 -3 -28.6236 -44.4225
-2 -8 -6 -16.3544 5.2346
-2 -8 -4 92.9107 48.8244
-2 -7 -5 16.3544 36.2746
-2 -7 -3 -33.1055 -1.6551
-2 -6 -4 -65.0704 -0.0572
-2 -5 -3 55.8458 -43.5775
-1 -20 -5 -8.3534 -15.3601
-1 -20 -3 16.9426 -9.2542
-1 -19 -8 13.7141 23.3122
-1 -19 -6 19.6236 -15.4234
-1 -19 -4 12.1801 -12.5575
-1 -19 -2 -4.3035 -7.3683
-1 -18 -9 -25.3545 0.8452
-1 -18 -7 -20.3916 1.4798
-1 -18 -5 -5.4351 -16.4627
-1 -18 -3 -18.1619 0.8428
-1 -17 -8 31.6460 -25.7380
-1 -17 -6 22.4902 5.6294
-1 -17 -4 52.9641 -1.8488
-1 -17 -2 -20.2207 -9.0341
-1 -16 -13 -13.9217 -5.4412
-1 -16 -11 -42.6847 -3.9249
-1 -16 -9 21.9048 8.8961
-1 -16 -7 -29.5576 -10.8761
-1 -16 -5 1.1501 37.5119
-1 -16 -3 41.6328 -6.0795
-1 -15 -14 29.0010 -10.5078
-1 -15 -12 12.8330 22.8812
-1 -15 -10 17.1236 7.2573
-1 -15 -8 20.2518 48.5039
-1 -14 -13 28.4790 -12.9856
-1 -14 -11 21.0596 7.6416
-1 -14 -9 -0.8455 23.1710
-1 -14 -3 55.2511 31.7045
-1 -13 -10 -24.4698 17.3056
-1 -13 -6 -2.4082 -27.2151
-1 -13 -2 -62.4931 25.6428
-1 -12 -11 3.3527 2.7804
-1 -12 -5 -0.0090 5.7683
-1 -12 -3 99.8889 -30.5553
-1 -11 -6 -42.8263 2.7066
-1 -11 -4 28.2801 -20.1463
-1 -11 -2 27.4958 -16.5670
-1 -10 -9 17.9901 -28.7381
-1 -10 -7 -31.5423 26.7645
-1 -10 -5 -4.4223 -33.8114
-1 -10 -3 3.8822 -31.8278
-1 -9 -8 -33.5532 6.1767
-1 -9 -6 26.1305 31.4890
-1 -9 -4 83.8692 9.3478
-1 -9 -2 14.4783 -8.7752
-1 -8 -7 64.9960 -42.6568
-1 -8 -5 -50.1392 84.6661
-1 -7 -6 4.6915 -30.0643
-1 -7 -2 -33.9038 27.7257
-1 -6 -5 -88.9570 -33.3910
-1 -6 -3 -5.4472 14.9523
-1 -5 -4 -80.0155 -28.5555
-1 -5 -2 7.1192 0.0308
-1 -3 -2 -19.5284 0.0229
0 2 2 702.1393 -0.0000
0 3 1 -259.1210 0.0000
0 3 3 202.8962 -0.0000
0 4 0 88.4304 -0.0000
0 4 4 -139.4274 -0.0000
0 5 1 40.8702 -0.0000
0 5 3 67.6127 -0.0000
0 6 0 -106.6559 0.0000
0 6 2 -148.7805 -0.0000
0 6 4 -21.9053 -0.0000
0 6 6 -216.3706 -0.0000
0 7 3 -29.9906 0.0000
0 8 0 -46.4455 0.0000
0 8 2 -42.9761 -0.0000
0 8 4 -38.3873 -0.0000
0 8 6 53.0443 -0.0000
0 8 8 -1.8623 0.0000
0 9 5 -21.5739 0.0000
0 9 7 9.0033 -0.0000
0 10 0 -0.3803 0.0000
0 10 4 4.0179 -0.0000
0 10 6 -87.2757 -0.0000
0 10 8 -8.6221 -0.0000
0 11 1 23.1809 -0.0000
0 11 3 77.2408 -0.0000
0 11 5 -27.1144 0.0000
0 11 7 -11.5797 -0.0000
0 11 9 67.3318 -0.0000
0 12 4 -69.3082 -0.0000
0 12 12 43.1432 0.0000
0 13 1 -14.7544 -0.0000
0 13 3 43.6056 -0.0000
0 13 11 -14.2274 0.0000
0 13 13 4.3022 0.0000
0 14 8 6.3727 0.0000
0 14 10 17.4691 -0.0000
0 14 12 7.2181 -0.0000
0 15 5 -43.2633 -0.0000
0 15 7 -71.4983 0.0000
0 15 9 19.6343 0.0000
0 15 11 -10.5330 0.0000
0 16 0 20.5814 0.0000
0 16 2 24.3843 -0.0000
0 16 4 6.1677 -0.0000
0 16 6 -24.9925 -0.0000
0 16 8 35.3622 -0.0000
0 16 10 -11.5701 0.0000
0 17 1 -18.7592 0.0000
0 17 3 -13.9093 0.0000
0 17 5 -1.4367 -0.0000
0 17 7 -15.2280 0.0000
0 17 9 31.8125 -0.0000
0 17 11 11.0055 -0.0000
0 18 2 -9.4072 -0.0000
0 18 4 -11.1027 0.0000
0 18 6 -16.2222 0.0000
0 18 10 -6.6637 -0.0000
0 19 1 18.7096 -0.0000
0 19 3 -11.5875 0.0000
0 19 7 38.6117 0.0000
0 20 0 31.7430 -0.0000
0 20 2 -3.2214 -0.0000
0 20 4 3.3214 0.0000
1 3 2 -19.5284 -0.0229
1 4 1 59.7636 0.0000
1 5 2 7.1192 -0.0308
1 5 4 -80.0155 28.5555
1 6 1 206.1635 -0.0000
1 6 3 -5.4472 -14.9523
1 6 5 -88.9570 33.3910
1 7 2 -33.9038 -27.7257
1 7 6 4.6915 30.0643
1 8 1 62.9897 0.0000
1 8 5 -50.1392 -84.6661
1 8 7 64.9960 42.6568
1 9 2 14.4783 8.7752
1 9 4 83.8692 -9.3478
1 9 6 26.1305 -31.4890
1 9 8 -33.5532 -6.1767
1 10 1 28.2271 -0.0000
1 10 3 3.8822 31.8278
1 10 5 -4.4223 33.8114
1 10 7 -31.5423 -26.7645
1 10 9 17.9901 28.7381
1 11 2 27.4958 16.5670
1 11 4 28.2801 20.1463
1 11 6 -42.8263 -2.7066
1 11 8 -47.1651 4.3674
1 12 1 33.6524 -0.0000
1 12 3 99.8889 30.5553
1 12 5 -0.0090 -5.7683
1 12 11 3.3527 -2.7804
1 13 2 -62.4931 -25.6428
1 13 6 -2.4082 27.2151
1 13 10 -24.4698 -17.3056
1 13 12 34.7831 13.3727
1 14 3 55.2511 -31.7045
1 14 9 -0.8455 -23.1710
1 14 11 21.0596 -7.6416
1 14 13 28.4790 12.9856
1 15 6 -18.4300 -1.6723
1 15 8 20.2518 -48.5039
1 15 10 17.1236 -7.2573
1 15 12 12.8330 -22.8812
1 15 14 29.0010 10.5078
1 16 1 -21.8448 0.0000
1 16 3 41.6328 6.0795
1 16 5 1.1501 -37.5119
1 16 7 -29.5576 10.8761
1 16 9 21.9048 -8.8961
1 16 13 -13.9217 5.4412
1 17 2 -20.2207 9.0341
1 17 4 52.9641 1.8488
1 17 6 22.4902 -5.6294
1 17 8 31.6460 25.7380
1 18 1 32.2798 -0.0000
1 18 3 -18.1619 -0.8428
1 18 5 -5.4351 16.4627
1 18 7 -20.3916 -1.4798
1 18 9 -25.3545 -0.8452
1 19 2 -4.3035 7.3683
1 19 4 12.1801 12.5575
1 19 6 19.6236 15.4234
1 19 8 13.7141 -23.3122
1 20 1 38.6885 -0.0000
1 20 3 16.9426 9.2542
1 20 5 -8.3534 15.3601
2 3 3 70.9589 0.0000
2 4 2 -9.0631 0.0000
2 5 3 55.8458 43.5775
2 5 5 79.8205 -0.0000
2 6 4 -65.0704 0.0572
2 7 3 -33.1055 1.6551
2 7 5 16.3544 -36.2746
2 7 7 42.3668 -0.0000
2 8 2 -89.8248 -0.0000
2 8 4 92.9107 -48.8244
2 8 6 -16.3544 -5.2346
2 8 8 20.9410 -0.0000
2 9 3 -28.6236 44.4225
2 9 5 -20.9244 -41.2973
2 9 7 20.5213 -6.5491
2 10 2 -21.6603 0.0000
2 10 6 -3.4508 -20.6658
2 10 8 -1.7112 1.5581
2 10 10 -21.2460 0.0000
2 11 3 40.0932 67.6936
2 11 5 -17.0026 11.3695
2 11 7 -18.0761 19.1322
2 12 2 -27.1277 -0.0000
2 12 4 -40.6355 13.0925
2 12 6 -11.4890 21.4754
2 12 10 2.3266 -14.5111
2 12 12 -15.6617 0.0000
2 13 3 6.7392 -4.8165
2 13 9 -41.2584 21.4116
2 13 11 -9.1236 -6.6584
2 13 13 22.7015 0.0000
2 14 2 -35.2801 0.0000
2 14 8 -4.5684 -41.6133
2 14 10 13.2759 -9.4799
2 14 12 26.8503 -9.2865
2 15 5 6.6657 -23.7417
2 15 7 -22.6513 -8.3919
2 15 9 25.2009 -14.5262
2 15 11 16.2994 -2.8028
2 15 13 13.8115 -17.8703
2 16 2 -7.4442 -0.0000
2 16 4 50.9803 -24.5096
2 16 6 20.8208 -8.6982
2 16 8 41.2602 8.7956
2 16 10 14.5880 19.2002
2 16 12 -24.9322 17.0647
2 17 3 27.1631 -16.1635
2 17 5 36.1703 -8.3015
2 17 7 16.1520 22.3631
2 17 9 30.5148 24.9143
2 17 11 13.9588 24.7363
2 18 2 -8.5926 0.0000
2 18 4 19.3179 -19.8962
2 18 6 23.8081 8.4012
2 18 10 -9.1564 19.3644
2 19 3 -19.6606 -13.5264
2 19 7 22.5524 3.7546
2 20 2 -3.7547 -0.0000
2 20 4 -10.4026 2.2386
3 4 3 -63.4877 -0.0000
3 5 4 16.8851 -9.1412
3 6 3 16.4192 0.0000
3 6 5 -66.0053 -55.0801
3 7 4 -32.7474 -60.1395
3 7 6 32.3686 -20.3042
3 8 3 -146.3218 0.0000
3 8 5 5.5451 -57.0867
3 8 7 -20.8325 -4.9146
3 9 4 33.4983 -38.1929
3 9 6 -24.3983 -27.2571
3 9 8 17.5619 -5.9869
3 10 3 16.0560 0.0000
3 10 5 -52.9777 -35.0335
3 10 7 -1.9486 6.7119
3 11 4 -20.5334 -10.3156
3 11 6 -0.2464 -19.5528
3 12 3 59.3736 0.0000
3 12 5 11.0885 -2.6012
3 12 7 -5.9706 -19.3366
3 12 11 11.1688 -1.6587
3 13 10 2.8527 -30.4627
3 14 7 -41.9477 -11.0301
3 14 9 36.2895 2.7267
3 14 11 11.3743 -17.6996
3 14 13 23.7311 -38.9927
3 15 4 15.5650 -7.1462
3 15 6 37.8595 -15.9496
3 15 8 6.9806 -28.8643
3 15 10 14.5918 -19.3339
3 15 14 13.6711 -37.9890
3 16 3 18.8328 0.0000
3 16 5 12.7927 -0.1168
3 16 7 0.4202 -30.8127
3 16 9 11.6679 13.2839
3 17 4 16.8626 -17.4490
3 17 6 9.3407 10.9564
3 17 8 2.1880 -15.3486
3 18 3 -4.5457 0.0000
3 18 5 -11.4600 -14.6121
3 18 9 7.4991 -6.6731
3 19 6 -12.0601 -11.3837
3 20 3 -4.4250 -0.0000
4 5 5 -68.9998 -0.0000
4 6 4 99.4775 -0.0000
4 7 5 26.4646 -43.0753
4 7 7 -32.1741 -0.0000
4 8 4 51.0668 -0.0000
4 8 6 36.0527 -5.6860
4 8 8 36.0532 -0.0000
4 9 5 -18.0661 -12.0949
4 9 7 -44.1476 -2.3359
4 9 9 42.8632 0.0000
4 10 4 19.7527 0.0000
4 10 6 13.0222 13.3570
4 10 8 -2.4342 -7.9894
4 11 5 -28.2924 14.1598
4 11 11 6.3960 -0.0000
4 12 4 -6.8927 0.0000
4 12 10 11.1903 0.6519
4 12 12 7.5526 -0.0000
4 13 9 14.2642 26.6374
4 13 11 -22.5809 1.6255
4 13 13 14.6027 0.0000
4 14 6 -8.6409 12.2347
4 14 8 -1.7192 24.0818
4 14 12 -29.1935 -10.3420
4 14 14 -38.9208 0.0000
4 15 5 22.5993 30.1662
4 15 9 12.4623 22.3275
4 15 11 -4.9937 -5.1782
4 15 13 -17.4900 -38.9050
4 16 4 -19.7359 -0.0000
4 16 6 10.6907 35.2332
4 16 8 5.2012 -9.9012
4 16 10 -15.8043 39.1785
4 16 12 -34.6868 -5.1877
4 17 5 -23.7293 24.1920
4 17 7 -25.3417 4.1195
4 17 11 -13.9261 18.3191
4 18 4 -31.4336 0.0000
4 18 8 6.7986 9.7151
4 19 5 -41.5447 7.2722
4 19 7 -16.4487 27.5483
4 20 4 -16.1935 0.0000
5 7 6 21.4822 3.2091
5 8 5 9.9793 0.0000
5 8 7 40.4346 -18.2736
5 9 6 4.6189 26.6378
5 10 5 -33.5603 0.0000
5 10 7 -54.3258 3.4811
5 10 9 21.0515 -14.5145
5 11 6 -2.6305 -20.4939
5 12 9 28.6124 34.2328
5 12 11 20.1125 -6.5502
5 13 8 -1.3817 -6.3501
5 13 12 -1.9304 14.4412
5 14 7 -42.7492 1.3982
5 14 11 -13.4190 17.9638
5 15 6 12.1996 18.9576
5 15 8 12.8456 1.5262
5 15 10 -17.5516 -12.0041
5 16 5 -8.5731 0.0000
5 16 7 -9.0987 -14.4950
5 16 9 13.4388 11.0812
5 16 11 -33.0350 26.2599
5 17 6 -10.0033 8.6850
5 17 10 -20.3133 22.2006
5 18 5 -1.7349 -0.0000
5 18 7 22.2293 -19.3479
5 18 9 14.3544 13.9842
5 19 6 -6.8782 -16.3835
6 8 8 -43.3915 0.0000
6 11 7 22.5524 -1.9437
6 11 11 -12.6535 -0.0000
6 12 10 12.3535 9.5613
6 13 7 6.4299 -1.1202
6 13 13 8.8944 0.0000
6 14 6 -25.6848 -0.0000
6 14 10 1.2819 3.4986
6 14 14 20.6947 0.0000
6 15 7 -3.6097 -20.4392
6 15 9 24.7807 -16.4730
6 15 13 30.8044 21.2521
6 16 6 -9.0911 0.0000
6 16 8 -13.5843 0.7807
6 17 7 -5.6104 -26.6342
6 17 9 -23.3876 4.9016
6 18 6 36.6221 0.0000
6 18 8 16.9228 -18.9038
7 11 10 7.2026 20.3152
7 12 9 0.5238 -20.0101
7 13 12 -8.3911 11.5562
7 14 7 -44.0410 0.0000
7 14 9 15.0077 -15.6661
7 14 11 -15.3400 6.5318
7 14 13 -0.7065 -6.2124
7 15 8 25.5447 10.4393
7 15 10 -6.5571 -25.8328
7 15 12 -20.4605 9.3043
7 16 7 -10.1758 -0.0000
7 16 11 -9.4935 -20.1816
7 17 8 -30.8617 19.5764
7 18 7 3.8197 -0.0000
8 11 11 -15.2722 0.0000
8 12 8 -21.4781 0.0000
8 12 10 1.1747 -9.0558
8 13 11 -8.5520 -1.4006
8 13 13 34.1804 -0.0000
8 14 8 27.9269 0.0000
8 14 10 -3.0120 -12.0126
8 14 12 27.7565 7.1870
8 15 9 14.6957 -15.6686
8 15 11 14.8893 -10.3909
8 16 10 14.0269 -12.0379
;
_olex2_exptl_crystal_mounting_method 'Diamond-anvil cell'
_olex2_submission_original_sample_id CDMOF_alpha_4_041
_olex2_submission_special_instructions 'No special instructions were received'
_oxdiff_exptl_absorpt_empirical_details
;
Empirical correction (ABSPACK) includes:
- Absorption correction using spherical harmonics
- Frame scaling
;
_oxdiff_exptl_absorpt_empirical_full_max 1.552
_oxdiff_exptl_absorpt_empirical_full_min 0.689
#END Tags that were not found in dictionaries
loop_
_space_group_symop_id
_space_group_symop_operation_xyz
1 'x, y, z'
2 '-y, x, z'
3 '-x, -y, z'
4 'y, -x, z'
5 'x, -z, y'
6 'x, -y, -z'
7 'x, z, -y'
8 'z, y, -x'
9 '-x, y, -z'
10 '-z, y, x'
11 'z, x, y'
12 'y, z, x'
13 '-y, -z, x'
14 'z, -x, -y'
15 '-y, z, -x'
16 '-z, -x, y'
17 '-z, x, -y'
18 'y, -z, -x'
19 'y, x, -z'
20 '-y, -x, -z'
21 '-x, z, y'
22 '-x, -z, -y'
23 'z, -y, x'
24 '-z, -y, -x'
25 'x+1/2, y+1/2, z+1/2'
26 '-y+1/2, x+1/2, z+1/2'
27 '-x+1/2, -y+1/2, z+1/2'
28 'y+1/2, -x+1/2, z+1/2'
29 'x+1/2, -z+1/2, y+1/2'
30 'x+1/2, -y+1/2, -z+1/2'
31 'x+1/2, z+1/2, -y+1/2'
32 'z+1/2, y+1/2, -x+1/2'
33 '-x+1/2, y+1/2, -z+1/2'
34 '-z+1/2, y+1/2, x+1/2'
35 'z+1/2, x+1/2, y+1/2'
36 'y+1/2, z+1/2, x+1/2'
37 '-y+1/2, -z+1/2, x+1/2'
38 'z+1/2, -x+1/2, -y+1/2'
39 '-y+1/2, z+1/2, -x+1/2'
40 '-z+1/2, -x+1/2, y+1/2'
41 '-z+1/2, x+1/2, -y+1/2'
42 'y+1/2, -z+1/2, -x+1/2'
43 'y+1/2, x+1/2, -z+1/2'
44 '-y+1/2, -x+1/2, -z+1/2'
45 '-x+1/2, z+1/2, y+1/2'
46 '-x+1/2, -z+1/2, -y+1/2'
47 'z+1/2, -y+1/2, x+1/2'
48 '-z+1/2, -y+1/2, -x+1/2'
loop_
_atom_site_label
_atom_site_type_symbol
_atom_site_fract_x
_atom_site_fract_y
_atom_site_fract_z
_atom_site_U_iso_or_equiv
_atom_site_adp_type
_atom_site_occupancy
_atom_site_site_symmetry_order
_atom_site_calc_flag
_atom_site_refinement_flags_posn
_atom_site_refinement_flags_adp
_atom_site_refinement_flags_occupancy
C1 C 0.8508(8) 0.6884(7) 0.6393(10) 0.243(8) Uiso 1 1 d D . .
H1 H 0.8460 0.7194 0.6380 0.291 Uiso 1 1 calc R . .
C2 C 0.8879(8) 0.6785(6) 0.6681(9) 0.243(8) Uiso 1 1 d D . .
H2A H 0.8834 0.6915 0.6963 0.291 Uiso 1 1 calc R . .
C3 C 0.8961(7) 0.6314(7) 0.6728(11) 0.243(8) Uiso 1 1 d D . .
H3A H 0.9010 0.6285 0.6420 0.291 Uiso 1 1 calc R . .
C4 C 0.8572(8) 0.6033(6) 0.6704(11) 0.243(8) Uiso 1 1 d D . .
H4 H 0.8460 0.6068 0.6995 0.291 Uiso 1 1 calc R . .
C5 C 0.8203(7) 0.6210(7) 0.6450(9) 0.243(8) Uiso 1 1 d D . .
H5 H 0.8236 0.6123 0.6151 0.291 Uiso 1 1 calc R . .
C6 C 0.7840(10) 0.5961(9) 0.6644(10) 0.243(8) Uiso 1 1 d D . .
H6A H 0.7577 0.6071 0.6521 0.291 Uiso 1 1 calc R . .
H6B H 0.7868 0.5667 0.6547 0.291 Uiso 1 1 calc R . .
C11 C 0.8602(8) 0.5355(6) 0.7107(10) 0.243(8) Uiso 1 1 d D . .
H11 H 0.8599 0.5575 0.7330 0.291 Uiso 1 1 calc R . .
C12 C 0.9009(8) 0.5117(7) 0.7198(8) 0.243(8) Uiso 1 1 d D . .
H12A H 0.9033 0.5069 0.7507 0.291 Uiso 1 1 calc R . .
C13 C 0.9016(7) 0.4693(8) 0.6972(10) 0.243(8) Uiso 1 1 d D . .
H13A H 0.8909 0.4823 0.6707 0.291 Uiso 1 1 calc R . .
C14 C 0.8615(8) 0.4440(6) 0.7024(8) 0.243(8) Uiso 1 1 d D . .
H14 H 0.8618 0.4303 0.7306 0.291 Uiso 1 1 calc R . .
C15 C 0.8212(6) 0.4697(8) 0.6981(9) 0.243(8) Uiso 1 1 d D . .
H15 H 0.8200 0.4776 0.6677 0.291 Uiso 1 1 calc R . .
C16 C 0.7759(7) 0.4575(10) 0.7092(10) 0.243(8) Uiso 1 1 d D . .
H16B H 0.7582 0.4829 0.7070 0.291 Uiso 1 1 calc R . .
H16A H 0.7658 0.4373 0.6878 0.291 Uiso 1 1 calc R . .
K1 K 0.8069(3) 0.5000 0.8069(3) 0.311(10) Uani 1 2 d S T P
O2 O 0.9285(9) 0.6926(9) 0.6503(10) 0.333(7) Uiso 1 1 d D . .
H2 H 0.9250 0.6999 0.6253 0.499 Uiso 1 1 calc R . .
O3 O 0.9418(7) 0.6290(9) 0.6812(11) 0.333(7) Uiso 1 1 d D . .
H3 H 0.9486 0.6040 0.6855 0.499 Uiso 1 1 calc R . .
O4 O 0.8724(10) 0.5594(8) 0.6728(8) 0.333(7) Uiso 1 1 d D . .
O5 O 0.8107(7) 0.6663(8) 0.6462(8) 0.333(7) Uiso 1 1 d D . .
O6 O 0.7778(9) 0.5947(10) 0.7106(10) 0.333(7) Uiso 1 1 d D . .
H6 H 0.7784 0.5698 0.7187 0.499 Uiso 1 1 calc R . .
O12 O 0.9366(8) 0.5377(9) 0.7054(9) 0.333(7) Uiso 1 1 d D . .
H12 H 0.9591 0.5253 0.7106 0.499 Uiso 1 1 calc R . .
O13 O 0.9387(8) 0.4522(10) 0.6752(8) 0.333(7) Uiso 1 1 d D . .
H13 H 0.9326 0.4292 0.6643 0.499 Uiso 1 1 calc R . .
O14 O 0.8585(9) 0.4098(8) 0.6686(10) 0.333(7) Uiso 1 1 d D . .
O15 O 0.8224(7) 0.5102(7) 0.7206(8) 0.333(7) Uiso 1 1 d D . .
O16 O 0.7692(10) 0.4386(10) 0.7510(9) 0.333(7) Uiso 1 1 d D . .
H16 H 0.7755 0.4131 0.7502 0.499 Uiso 1 1 calc R . .
OA O 1.0000 0.5000 0.6785(13) 0.30(2) Uiso 1 2 d S T P
loop_
_atom_site_aniso_label
_atom_site_aniso_U_11
_atom_site_aniso_U_22
_atom_site_aniso_U_33
_atom_site_aniso_U_23
_atom_site_aniso_U_13
_atom_site_aniso_U_12
K1 0.225(9) 0.48(3) 0.225(9) -0.096(15) 0.015(15) 0.096(15)
loop_
_atom_type_symbol
_atom_type_description
_atom_type_scat_dispersion_real
_atom_type_scat_dispersion_imag
_atom_type_scat_source
H H 0.0000 0.0000 'International Tables Vol C Tables 4.2.6.8 and 6.1.1.4'
C C 0.0030 0.0010 'International Tables Vol C Tables 4.2.6.8 and 6.1.1.4'
O O 0.0110 0.0060 'International Tables Vol C Tables 4.2.6.8 and 6.1.1.4'
K K 0.2030 0.2500 'International Tables Vol C Tables 4.2.6.8 and 6.1.1.4'
loop_
_geom_angle_atom_site_label_1
_geom_angle_atom_site_label_2
_geom_angle_atom_site_label_3
_geom_angle
_geom_angle_site_symmetry_1
_geom_angle_site_symmetry_3
C2 C1 H1 110.4 . .
C2 C1 O14 111(2) . 7_556
O5 C1 H1 110.4 . .
O5 C1 C2 118.7(15) . .
O5 C1 O14 95(2) . 7_556
O14 C1 H1 110.4 7_556 .
C1 C2 H2A 110.1 . .
C1 C2 C3 113.3(13) . .
C3 C2 H2A 110.1 . .
O2 C2 C1 112(2) . .
O2 C2 H2A 110.1 . .
O2 C2 C3 100.6(14) . .
C2 C3 H3A 91.2 . .
C2 C3 C4 115.4(12) . .
C4 C3 H3A 91.2 . .
O3 C3 C2 103.8(15) . .
O3 C3 H3A 91.2 . .
O3 C3 C4 140.7(17) . .
C3 C4 H4 100.0 . .
C3 C4 C5 115.6(12) . .
C5 C4 H4 100.0 . .
O4 C4 C3 107(2) . .
O4 C4 H4 100.0 . .
O4 C4 C5 129(3) . .
C4 C5 H5 108.6 . .
C4 C5 C6 100(2) . .
C6 C5 H5 108.6 . .
O5 C5 C4 120.4(14) . .
O5 C5 H5 108.6 . .
O5 C5 C6 109.9(16) . .
C5 C6 H6A 107.1 . .
C5 C6 H6B 107.1 . .
H6A C6 H6B 106.8 . .
O6 C6 C5 121(2) . .
O6 C6 H6A 107.1 . .
O6 C6 H6B 107.1 . .
C12 C11 H11 102.8 . .
O4 C11 H11 102.8 . .
O4 C11 C12 100.8(13) . .
O4 C11 O15 132(3) . .
O15 C11 H11 102.8 . .
O15 C11 C12 112.2(13) . .
C11 C12 H12A 109.2 . .
C11 C12 C13 111.2(13) . .
C13 C12 H12A 109.2 . .
O12 C12 C11 108.4(18) . .
O12 C12 H12A 109.2 . .
O12 C12 C13 110(2) . .
C12 C13 H13A 91.5 . .
C14 C13 C12 113.8(12) . .
C14 C13 H13A 91.5 . .
O13 C13 C12 124.1(19) . .
O13 C13 H13A 91.5 . .
O13 C13 C14 121.9(16) . .
C13 C14 H14 108.8 . .
C13 C14 C15 114.3(13) . .
C13 C14 O14 110.7(15) . .
C15 C14 H14 108.8 . .
C15 C14 O14 105.4(15) . .
O14 C14 H14 108.8 . .
C14 C15 H15 104.6 . .
C14 C15 C16 129(2) . .
C16 C15 H15 104.6 . .
O15 C15 C14 113.7(13) . .
O15 C15 H15 104.6 . .
O15 C15 C16 97.8(14) . .
C15 C16 H16B 108.2 . .
C15 C16 H16A 108.2 . .
C15 C16 K1 81.0(13) . .
H16B C16 H16A 107.3 . .
K1 C16 H16B 84.6 . .
K1 C16 H16A 161.0 . .
O16 C16 C15 117(2) . .
O16 C16 H16B 108.2 . .
O16 C16 H16A 108.2 . .
O16 C16 K1 53.2(16) . .
C16 K1 C16 69.8(9) . 23_565
O2 K1 C16 79.6(9) 44_666 23_565
O2 K1 C16 79.6(9) 41_646 .
O2 K1 C16 141.5(9) 44_666 .
O2 K1 C16 141.5(9) 41_646 23_565
O2 K1 O2 136.9(15) 44_666 41_646
O2 K1 O3 101.2(10) 44_666 41_646
O2 K1 O3 49.8(8) 41_646 41_646
O2 K1 O3 49.8(8) 44_666 44_666
O2 K1 O3 101.2(10) 41_646 44_666
O2 K1 O15 113.7(7) 44_666 .
O2 K1 O15 90.9(7) 44_666 23_565
O2 K1 O15 90.9(7) 41_646 .
O2 K1 O15 113.7(7) 41_646 23_565
O2 K1 O16 68.8(9) 41_646 .
O2 K1 O16 153.5(11) 44_666 .
O2 K1 O16 68.8(9) 44_666 23_565
O2 K1 O16 153.5(11) 41_646 23_565
O3 K1 C16 115.4(7) 44_666 23_565
O3 K1 C16 115.4(7) 41_646 .
O3 K1 C16 125.4(8) 41_646 23_565
O3 K1 C16 125.4(8) 44_666 .
O3 K1 O3 104.1(14) 44_666 41_646
O3 K1 O15 85.8(8) 41_646 23_565
O3 K1 O15 140.4(7) 41_646 .
O3 K1 O15 140.4(7) 44_666 23_565
O3 K1 O15 85.8(8) 44_666 .
O3 K1 O16 146.6(9) 44_666 .
O3 K1 O16 146.6(9) 41_646 23_565
O3 K1 O16 93.3(8) 41_646 .
O3 K1 O16 93.3(8) 44_666 23_565
O15 K1 C16 39.9(5) 23_565 23_565
O15 K1 C16 39.9(5) . .
O15 K1 C16 80.6(7) . 23_565
O15 K1 C16 80.6(7) 23_565 .
O15 K1 O15 110.9(10) . 23_565
O15 K1 O16 68.0(8) 23_565 .
O15 K1 O16 63.3(8) 23_565 23_565
O15 K1 O16 63.3(8) . .
O15 K1 O16 68.0(8) . 23_565
O16 K1 C16 73.9(8) 23_565 .
O16 K1 C16 24.1(4) . .
O16 K1 C16 73.9(8) . 23_565
O16 K1 C16 24.1(4) 23_565 23_565
O16 K1 O16 86.9(13) 23_565 .
C2 O2 K1 123.7(18) . 42_566
C2 O2 H2 109.5 . .
K1 O2 H2 126.8 42_566 .
C3 O3 K1 129.8(17) . 42_566
C3 O3 H3 109.5 . .
K1 O3 H3 120.2 42_566 .
C11 O4 C4 116.2(18) . .
C1 O5 C5 106.6(7) . .
C6 O6 H6 109.5 . .
C12 O12 H12 109.5 . .
C13 O13 H13 109.5 . .
C14 O14 C1 114(2) . 5_565
C11 O15 K1 114.4(17) . .
C15 O15 C11 113.2(14) . .
C15 O15 K1 111.6(17) . .
C16 O16 K1 102.7(19) . .
C16 O16 H16 109.5 . .
K1 O16 H16 125.0 . .
loop_
_geom_bond_atom_site_label_1
_geom_bond_atom_site_label_2
_geom_bond_distance
_geom_bond_site_symmetry_2
C1 H1 0.9800 .
C1 C2 1.500(7) .
C1 O5 1.444(7) .
C1 O14 1.67(4) 7_556
C2 H2A 0.9800 .
C2 C3 1.500(7) .
C2 O2 1.454(7) .
C3 H3A 0.9800 .
C3 C4 1.503(7) .
C3 O3 1.452(7) .
C4 H4 0.9800 .
C4 C5 1.504(7) .
C4 O4 1.454(7) .
C5 H5 0.9800 .
C5 C6 1.504(7) .
C5 O5 1.447(7) .
C6 H6A 0.9700 .
C6 H6B 0.9700 .
C6 O6 1.454(7) .
C11 H11 0.9800 .
C11 C12 1.499(7) .
C11 O4 1.450(7) .
C11 O15 1.453(7) .
C12 H12A 0.9800 .
C12 C13 1.501(7) .
C12 O12 1.453(7) .
C13 H13A 0.9800 .
C13 C14 1.492(7) .
C13 O13 1.449(7) .
C14 H14 0.9800 .
C14 C15 1.500(5) .
C14 O14 1.505(13) .
C15 H15 0.9800 .
C15 C16 1.504(7) .
C15 O15 1.448(7) .
C16 H16B 0.9700 .
C16 H16A 0.9700 .
C16 K1 3.47(3) .
C16 O16 1.449(7) .
K1 C16 3.47(3) 23_565
K1 O2 2.60(3) 44_666
K1 O2 2.60(3) 41_646
K1 O3 2.73(3) 41_646
K1 O3 2.73(3) 44_666
K1 O15 2.76(3) 23_565
K1 O15 2.76(3) .
K1 O16 2.85(3) 23_565
K1 O16 2.85(3) .
O2 K1 2.60(3) 42_566
O2 H2 0.8200 .
O3 K1 2.73(3) 42_566
O3 H3 0.8200 .
O6 H6 0.8200 .
O12 H12 0.8200 .
O13 H13 0.8200 .
O14 C1 1.67(4) 5_565
O16 H16 0.8200 .
loop_
_geom_torsion_atom_site_label_1
_geom_torsion_atom_site_label_2
_geom_torsion_atom_site_label_3
_geom_torsion_atom_site_label_4
_geom_torsion
_geom_torsion_site_symmetry_1
_geom_torsion_site_symmetry_4
C1 C2 C3 C4 -32(4) . .
C1 C2 C3 O3 151(3) . .
C1 C2 O2 K1 170.2(19) . 42_566
C2 C1 O5 C5 -55(3) . .
C2 C3 C4 C5 26(4) . .
C2 C3 C4 O4 176(3) . .
C2 C3 O3 K1 5(4) . 42_566
C3 C2 O2 K1 -69(3) . 42_566
C3 C4 C5 C6 -157(3) . .
C3 C4 C5 O5 -37(4) . .
C3 C4 O4 C11 114(3) . .
C4 C3 O3 K1 -170(4) . 42_566
C4 C5 C6 O6 52(3) . .
C4 C5 O5 C1 48(3) . .
C5 C4 O4 C11 -102(3) . .
C6 C5 O5 C1 163(2) . .
C11 C12 C13 C14 -48(3) . .
C11 C12 C13 O13 137(3) . .
C12 C11 O4 C4 -140(2) . .
C12 C11 O15 C15 -57(3) . .
C12 C11 O15 K1 73(2) . .
C12 C13 C14 C15 43(3) . .
C12 C13 C14 O14 162(2) . .
C13 C14 C15 C16 -167(2) . .
C13 C14 C15 O15 -44(3) . .
C13 C14 O14 C1 126(2) . 5_565
C14 C15 C16 K1 89(2) . .
C14 C15 C16 O16 49(4) . .
C14 C15 O15 C11 51(3) . .
C14 C15 O15 K1 -80(2) . .
C15 C14 O14 C1 -110(2) . 5_565
C15 C16 O16 K1 54(3) . .
C16 C15 O15 C11 -170(2) . .
C16 C15 O15 K1 59(2) . .
O2 C2 C3 C4 -152(3) . .
O2 C2 C3 O3 31(3) . .
O3 C3 C4 C5 -159(4) . .
O3 C3 C4 O4 -9(6) . .
O4 C4 C5 C6 61(3) . .
O4 C4 C5 O5 -179(3) . .
O4 C11 C12 C13 -90(2) . .
O4 C11 C12 O12 31(3) . .
O4 C11 O15 C15 73(3) . .
O4 C11 O15 K1 -157.7(18) . .
O5 C1 C2 C3 49(3) . .
O5 C1 C2 O2 163(2) . .
O5 C5 C6 O6 -76(4) . .
O12 C12 C13 C14 -168(2) . .
O12 C12 C13 O13 18(4) . .
O13 C13 C14 C15 -142(3) . .
O13 C13 C14 O14 -23(4) . .
O14 C1 C2 C3 -59(3) 7_556 .
O14 C1 C2 O2 54(2) 7_556 .
O14 C1 O5 C5 63(2) 7_556 .
O14 C14 C15 C16 71(3) . .
O14 C14 C15 O15 -166(2) . .
O15 C11 C12 C13 54(3) . .
O15 C11 C12 O12 175(3) . .
O15 C11 O4 C4 87(4) . .
O15 C15 C16 K1 -40.1(17) . .
O15 C15 C16 O16 -81(3) . .
loop_
_refln_index_h
_refln_index_k
_refln_index_l
_refln_F_squared_meas
_refln_F_squared_sigma
_refln_scale_group_code
2 0 2 39094 1276.93 2
1 0 3 9099.8 260.88 7
-3 0 -1 8296.26 266.039 8
-3 1 0 9696.69 262.655 2
-3 1 0 8787 266.497 8
1 0 -3 9415.21 261.112 7
1 0 -3 9308.85 257.044 6
0 1 3 8388.44 258.045 1
-3 -1 0 9672.31 255.35 5
0 1 -3 9325.7 262.3 7
-3 -1 0 7623.67 266.041 8
1 0 3 8328 272.201 4
-3 0 -1 8467.25 255.404 5
-3 0 1 7058.59 258.178 8
-3 0 1 9502.05 253.427 5
0 -1 -3 8055.19 261.565 7
-3 0 1 8309.49 264.963 3
-3 1 -2 566.522 68.6948 5
-3 -1 2 506.375 92.5642 3
3 1 2 423.273 108.457 3
3 -1 -2 461.24 59.137 1
-3 -1 2 611.137 86.9968 8
1 2 3 467.64 73.1971 1
-3 -2 -1 464.712 99.3724 8
-3 -2 -1 410.862 64.6887 5
-2 1 3 551.381 70.527 1
-3 -1 2 437.13 57.918 6
-2 -1 -3 474.367 77.1876 7
2 1 -3 519.637 83.9807 7
2 -1 3 502.107 82.3697 2
2 1 -3 465.153 71.2032 6
3 -1 -2 517.232 76.0687 7
-2 -1 -3 403.569 86.6338 8
1 -2 -3 366.908 90.7283 7
3 -1 -2 521.711 61.8841 6
-3 1 -2 522.557 99.8768 8
2 -1 -3 615.285 85.652 7
3 1 -2 362.456 104.045 4
3 1 -2 254.575 50.5048 5
-3 -1 -2 624.032 95.609 8
2 1 3 441.089 76.2595 7
2 -1 -3 411.447 69.327 6
-3 1 2 597.306 60.0291 1
2 1 3 415.689 87.6994 8
3 2 1 421.374 105.096 3
-3 -1 -2 331.6 63.3956 5
-2 1 -3 516.506 92.3348 8
3 1 -2 500.727 71.4154 7
-1 -2 -3 514.443 87.2367 7
-3 1 2 395.742 59.9551 6
2 1 3 548.917 101.539 3
3 -1 2 392.148 91.9356 2
-2 1 -3 334.29 71.0986 7
-1 2 3 446.214 72.2088 1
-3 0 3 23247.1 719.362 4
3 0 -3 21405.5 703.585 6
-3 0 -3 22269.8 702.914 7
-3 0 -3 21629.2 700.958 6
-3 0 -3 20592.6 713.225 8
3 0 3 20875 704.122 7
-3 0 -3 21369.6 712.16 4
3 0 3 20154.6 700.99 6
3 0 3 20606.1 712.211 4
-3 0 -3 21864.7 704.406 5
-3 -2 -3 67813.2 2341.98 7
3 2 3 70824.1 2350.65 3
-3 -2 -3 74775.8 2347.72 8
-3 2 3 73201.7 2341.79 1
-3 -2 -3 70879.1 2340.74 5
3 -2 -3 74554.6 2344.72 7
0 0 4 60404.6 1984.76 4
-4 0 0 61468.8 1977.95 8
0 0 -4 61887.6 1976.17 7
0 0 -4 60776.3 1973.84 6
-4 0 0 59793.6 1972.3 5
4 0 0 58755.5 1979.68 3
1 -1 4 1498.11 159.851 4
-1 -1 4 1551.09 167.453 4
-4 1 -1 1366.73 136.6 8
1 1 -4 1592.38 102.371 6
1 1 4 1391.42 97.6416 8
-1 1 -4 1550.38 97.1017 6
-1 -1 -4 1532.39 111.43 7
-4 1 -1 1683.67 97.1156 5
4 -1 -1 1436.07 108.25 2
1 -1 -4 1414.57 114.642 7
1 1 -4 1459.4 117.986 7
-4 1 1 1261.11 126.01 8
1 -1 -4 1507.63 99.0823 6
-1 1 -4 1383.16 111.386 7
-4 -1 -1 1269.51 127.754 8
-4 -1 1 1401.34 124.432 8
-1 -1 -4 1186.37 94.7972 8
-1 -1 -4 1334.04 104.434 3
-1 -1 -4 1630.96 76.0275 5
-4 1 1 1552.89 91.8195 5
4 1 1 1252.84 138.621 3
-1 -1 -4 1762.17 96.2447 6
4 1 -1 1457.47 132.099 3
1 1 4 1362.73 111.852 3
-4 -1 -1 1471.82 93.7682 5
4 2 0 3007.69 181.325 3
-4 0 2 3653.06 141.508 7
2 0 4 3113.83 153.212 2
4 0 -2 3346.51 132.774 6
2 0 4 3342.04 192.51 4
-2 0 -4 3647.66 138.653 5
4 0 -2 3080.89 165.021 4
-2 0 -4 3812.05 167.713 8
0 -2 -4 3459.9 149.435 6
4 0 -2 3614 164.276 3
0 2 4 3382.07 151.392 1
4 0 -2 3543.9 152.275 8
-4 0 2 3490.79 164.991 4
-2 0 -4 3660.35 141.222 6
4 0 -2 3729.59 139.321 7
-4 0 2 3338.69 132.719 6
0 -2 -4 3044.54 165.443 7
2 0 -4 3463.62 146.15 6
-4 -2 0 3742.05 141.998 5
2 0 -4 3637.12 157.756 7
-4 0 -2 3577.91 174.571 8
-4 0 -2 3039.44 143.936 5
-4 0 2 2741.33 154.378 8
4 -2 0 3098.58 159.345 2
-2 0 -4 3477.6 152.819 7
-4 0 2 3590.71 136.067 5
-4 -2 0 3388.82 179.918 8
-2 -2 -4 7040.42 247.91 6
2 -2 -4 6525.43 264.034 7
-4 2 -2 7128.97 273.292 8
4 2 2 6727.73 284.728 3
-2 -2 -4 6285.94 259.991 8
4 -2 2 6099.52 266.237 2
2 2 4 5907.8 268.358 3
2 -2 -4 7681.04 252.791 6
-2 -2 -4 6536.59 241.041 5
-2 2 4 7186.16 254.701 1
-4 -2 -2 7908.27 275.32 8
2 2 4 6880.72 250.755 1
-4 1 -3 0.58099 82.8891 7
4 -1 -3 36.2726 88.3884 6
-4 -1 3 9.53201 157.244 4
-3 -1 -4 83.2436 120.817 8
3 -1 4 101.885 126.727 2
4 1 3 114.746 76.8143 6
4 -1 -3 28.4026 93.2717 8
3 -1 4 266.584 159.341 4
4 -1 -3 49.5149 68.7477 5
-4 1 -3 18.4151 97.2052 5
-3 -1 -4 52.1829 81.858 5
-4 1 -3 33.6152 149.165 8
-3 -1 -4 69.7791 103.998 7
-4 -1 3 66.6817 119.703 8
3 1 -4 15.3284 101.727 6
4 -1 -3 85.042 87.4272 2
1 -3 -4 34.5039 136.134 7
3 1 -4 92.3061 119.448 7
4 -1 -3 74.5266 106.425 7
-4 1 3 40.4074 71.8816 5
-3 1 -4 199.21 138.94 8
-3 1 -4 106.274 86.9273 6
-3 1 -4 90.3764 106.746 7
4 1 -3 59.0808 108.284 7
-4 -1 -3 109.455 93.2889 7
-3 1 -4 58.6178 91.4309 5
3 1 4 61.4908 157.66 3
-4 -1 -3 94.2436 132.646 8
-3 -1 4 15.8873 172.59 4
-4 1 3 29.4029 109.258 8
4 -1 3 104.337 129.076 2
4 1 -3 115.108 88.7913 6
3 -1 -4 218.547 97.1809 6
-1 -3 -4 41.1991 128.549 7
-4 -1 -3 96.3231 70.2148 6
3 -1 -4 27.4707 114.991 7
3 3 4 114967 3805.44 3
4 3 3 114021 3808.45 3
-3 3 4 115478 3797.04 1
-3 -3 -4 114754 3802.01 8
-4 -3 -3 118749 3795.96 5
-3 -3 -4 116454 3794.19 5
-4 -3 -3 115488 3805.17 8
3 -3 -4 121517 3802.99 7
4 0 -4 110617 3632.62 6
4 0 -4 112374 3632.28 3
-4 0 4 119314 3646.13 4
-4 0 4 111914 3630.03 8
4 0 -4 111157 3630.57 8
4 0 4 110178 3638.69 2
-4 0 -4 109299 3631.77 7
-4 0 -4 111468 3630.34 6
4 0 -4 111189 3635.28 7
-4 0 -4 110454 3641.2 8
-4 0 -4 113429 3634.3 5
-4 -2 -4 20426.5 696.31 6
4 2 4 20698 726.308 3
-4 -2 -4 21862.9 716.896 8
4 -2 -4 22112.5 710.165 7
-4 2 4 21215.5 693.838 2
4 -2 -4 21586.1 700.948 6
-4 -2 -4 20476.4 699.069 5
4 2 4 19676.9 697.919 1
-4 2 4 21461.8 702.247 1
4 -2 -4 20875.2 696.831 8
1 0 5 9.30819 105.652 8
5 0 -1 248.887 157.485 3
1 0 5 109.88 96.3681 2
-5 1 0 86.1376 100.045 5
-1 0 -5 97.5919 118.411 7
1 0 -5 35.9922 100.313 6
1 0 5 247.859 176.691 4
0 -1 -5 128.226 103.119 6
0 -1 5 51.4005 189.746 4
-1 0 -5 106.903 71.7943 5
-5 -1 0 184.393 92.9942 5
-5 0 -1 155.79 138.481 8
-1 0 -5 36.1353 107.98 8
-5 -1 0 222.415 141.352 8
0 1 -5 33.314 125.222 7
-5 1 0 265.738 155.478 8
5 1 0 10.6448 154.151 3
1 0 -5 86.5645 119.75 7
0 1 -5 45.0201 105.844 6
-1 0 -5 130.704 96.7775 6
-1 0 5 207.49 188.805 4
-5 0 -1 141.919 93.0234 5
-5 0 1 266.671 88.173 5
0 -1 -5 237.825 121.748 7
-5 0 1 118.572 126.137 8
-1 0 -5 49.5793 82.884 2
5 -1 0 53.1238 120.537 2
5 2 -1 4964.75 250.901 3
-5 -2 -1 5757.94 249.54 8
-2 -1 -5 4887.96 222.666 7
-2 -1 -5 4998.16 198.787 5
-2 -1 -5 5472.86 221.938 8
5 -1 -2 5192.33 217.362 2
1 -2 -5 5275.81 238.047 7
1 2 5 5227.08 224.873 3
-5 1 -2 5902.06 258.124 8
5 -1 -2 5346.82 196.566 6
-5 2 1 6001.93 242.31 8
5 -1 -2 5540.14 208.052 7
2 1 -5 5953.94 233.132 7
5 1 2 4702.92 264.879 3
2 1 -5 6009.35 219.517 6
-2 -1 -5 5587.98 211.652 6
1 -2 -5 5132.27 215.6 6
2 -1 5 6021.93 279.58 4
1 2 5 4834.98 217.301 8
-5 1 -2 5107.26 215.851 5
5 -2 1 5086 235.207 2
-5 1 2 5127.73 194.284 1
-5 -2 1 5413.27 206.297 5
-5 -1 -2 4683.74 208.195 5
2 -1 -5 5286.05 227.313 7
-1 -2 -5 5135.71 192.767 5
-1 -2 -5 5098.27 211.74 8
5 2 1 5235.61 258.279 3
-5 -2 1 5636.92 243.636 8
-2 1 -5 5399.07 226.397 7
-1 -2 -5 5121.59 212.122 6
-1 -2 -5 5440.74 233.153 7
2 1 5 5507.65 244.922 3
-5 2 -1 5587.59 245.633 8
-5 1 2 5671.71 203.541 5
-5 1 2 5206.5 202.808 7
-2 -1 5 6017 285.842 4
-5 1 2 5733.69 236.605 8
-2 1 -5 5233.81 213.814 6
5 -2 -1 5488.88 226.059 2
-1 2 5 5341.51 219.769 1
-5 -1 -2 5115.13 242.628 8
5 2 3 1649.91 215.725 3
-3 -2 -5 1445.07 120.049 5
-3 -2 -5 1901.25 129.556 6
-3 -2 -5 1674.17 171.992 8
5 -2 -3 1458.98 133.672 2
-3 2 5 1380.97 143.37 1
5 2 3 1314.83 123.21 7
2 -3 -5 1644.02 140.664 6
5 -2 -3 1691.61 150.348 7
-5 -3 -2 1451.63 127.73 5
2 3 5 1272.35 142.308 1
-3 -2 -5 1900.98 164.76 7
-3 0 -5 29855.1 977.981 5
-3 0 -5 30038.7 980.146 6
-3 0 -5 30397.2 983.734 7
-5 0 3 30029.7 982.4 8
-5 0 3 30148.8 974.588 5
5 0 -3 31345 987.226 3
5 0 3 29375.8 973.938 7
5 0 -3 31029.9 979.201 7
-5 0 -3 29703.6 971.7 6
-5 0 -3 28612.6 996.768 8
0 -3 -5 27880.7 993.283 7
-3 0 -5 32977.8 993.978 8
-5 0 -3 29839.9 973.008 7
5 0 -3 28326.6 975.069 6
-5 0 -3 30313.6 981.38 5
3 0 5 28990.5 986.326 2
0 -3 -5 31056.3 984.033 6
5 0 3 27600.3 971.223 6
3 0 -5 30811.1 987.75 7
3 0 -5 28718.2 982.128 6
0 3 5 29544.9 987.095 1
-5 -2 -3 1727.56 134.58 5
5 3 2 1825.24 211.527 3
3 2 5 1818.41 144.576 1
3 -2 -5 1644.65 173.892 7
-5 2 3 1886.33 156.457 8
-5 2 3 1609.05 126.984 1
3 -2 -5 1787.29 146.868 6
-4 -3 -5 5470.1 258.811 7
-4 -3 -5 5157.03 221.958 6
5 -3 -4 5202.73 260.171 7
5 -3 -4 4993.77 227.134 6
-5 -1 4 29948.4 1026.44 8
5 -1 -4 31296.7 1026 3
-5 1 -4 30946.3 1026.44 5
5 1 4 30003 1053.79 3
5 1 4 31899.7 1033.89 4
-5 1 -4 30227.3 1021.63 7
-4 -1 -5 30186.6 1025.77 7
5 1 4 31458.4 1017.82 1
5 -1 -4 31924.5 1022.04 6
5 -1 -4 30897.4 1019.09 2
4 1 -5 31859.9 1027.58 6
5 -1 -4 31902.2 1027.46 7
4 -1 5 29935.5 1048.02 4
-4 -1 -5 29930.5 1021.86 5
-4 -1 -5 30638.2 1037.09 8
-5 1 4 30443.1 1051.99 4
-5 -1 -4 30021.5 1026.81 7
-4 -1 5 32728.1 1064.18 4
5 1 -4 31264.8 1029.71 6
-5 -1 -4 31881.8 1022.38 6
4 -1 -5 32486.5 1037.29 7
-5 1 4 32119.1 1020.41 5
-5 1 4 31440.6 1031.93 8
-4 1 -5 29851.7 1046.67 8
-4 1 -5 31406.4 1033.75 7
-4 1 -5 30691.7 1030.18 5
-5 -1 -4 29014.2 1029.24 5
4 1 5 30816.3 1050.65 4
-4 1 -5 30814.2 1028.64 6
4 -3 -5 4915.99 234.459 6
4 3 5 5198.6 299.846 3
-5 3 4 5458.25 230.667 1
4 3 5 4851.44 227.461 1
-5 0 5 5682.56 262.61 8
5 0 -5 6618.43 286.602 7
5 0 -5 6273.1 261.589 8
5 0 -5 7134.17 270.456 6
5 0 -5 7224.78 271.164 3
-5 0 -5 6924.99 260.344 6
-5 0 5 7353.15 346.271 4
5 -2 5 41810.4 1368.52 2
-5 2 -5 40108.5 1373.71 8
5 -2 -5 40496.3 1346.05 8
5 -2 -5 42182 1352.02 6
-5 -2 -5 40128.7 1355.59 7
-5 2 5 41055.6 1342.8 2
-5 -4 -5 2328.24 271.157 8
-5 -4 -5 2785.58 192.885 5
5 4 5 2194.78 296.057 3
6 0 0 356792 11396.4 3
0 0 -6 348535 11380.8 2
0 0 -6 352290 11378.7 5
0 0 6 346654 11400.4 4
0 0 6 346467 11381.7 8
0 0 -6 354970 11387.6 6
-6 0 0 348399 11392.3 8
-6 0 0 352597 11385.6 5
-6 1 1 40445.2 1274.85 8
-1 1 6 37344.7 1290.81 4
-6 1 -1 39295.9 1259.62 5
1 1 -6 37903.9 1263.83 6
6 1 -1 38300.6 1275.88 3
6 1 1 39114.3 1280.66 3
1 1 6 36859.6 1287.79 4
-1 1 -6 39104.8 1263.04 6
-1 -1 -6 39291.2 1261.81 6
1 -1 -6 39850.9 1262.98 6
-6 -1 1 38490 1257.07 5
-6 -1 -1 37267 1258.73 5
-6 -1 1 39501.7 1270.84 8
-6 1 1 37278.4 1257.58 5
1 -1 6 38910 1288.69 4
6 -1 -1 38151.2 1264.06 2
-1 -1 -6 35103 1255.62 8
6 0 -2 1182.11 96.83 6
-2 0 -6 1463.65 139.698 6
2 0 -6 1439.93 141.816 6
0 -2 -6 922.238 116.166 8
6 0 -2 1060.72 197.015 3
0 2 6 1144.18 88.3976 5
-6 0 2 1376.62 123.205 5
6 0 -2 1006.27 109.85 7
-6 2 0 1302.37 140.079 5
-2 0 -6 1002.6 157.428 7
-6 0 2 965.099 164.681 8
0 -2 -6 1330.65 144.667 6
-6 -2 0 1419.66 129.952 5
-6 2 0 1153.44 195.143 8
-2 0 6 992.911 246.695 4
2 0 6 729.499 237.698 4
-2 0 -6 890.372 165.604 8
2 0 6 1180.85 149.109 2
-2 0 -6 1062.14 112.964 5
-6 0 -2 1244.73 133.152 5
-6 2 2 3217.88 216.607 8
-6 -2 2 3290.38 166.758 5
-2 -2 -6 2963.66 152.386 5
-6 2 2 3651.01 171.746 5
-2 -2 -6 3083.27 192.942 8
6 2 -2 3049.21 232.147 3
6 -2 -2 3067.71 196.019 2
-6 -2 2 3705.71 224.567 8
6 1 3 15572.2 514.214 4
6 -1 -3 15382.5 515.35 2
-6 -1 3 15261.8 506.594 5
-6 1 -3 14337.4 500.479 7
-3 -1 -6 14485.7 505.693 5
-6 1 -3 14071.8 515.498 4
3 -1 6 15806.7 577.152 4
3 -1 6 14509.8 527.48 2
-3 -1 -6 15482.1 532.401 8
-6 -1 3 14660.1 529.322 8
-3 -1 -6 15183.5 523.057 7
-1 -3 -6 14606.5 525.201 8
-6 1 3 15273.6 535.21 8
6 1 -3 14438.8 512.194 6
-6 1 3 15377.3 513.189 1
6 1 -3 15154.3 519.707 7
3 1 6 17323.3 556.905 3
-3 1 -6 15248.7 543.414 8
-3 1 -6 15134.4 526.054 6
3 1 6 14965.4 574.492 4
-3 -3 -6 80.5058 129.661 5
3 -3 -6 15.5263 218.387 7
-3 -3 -6 93.7111 196.56 8
-3 3 6 81.6758 169.881 1
2 4 6 3998.11 224.42 1
6 -2 -4 3819.62 228.438 7
6 2 4 3702.43 179.43 1
2 -4 -6 3575.55 275.941 7
-4 -2 -6 3986.45 192.829 5
-4 -2 -6 3353.53 238.918 7
-6 2 -4 4015.31 289.954 8
-6 2 -4 3945.69 215.951 5
-6 0 4 78752 2861.32 8
0 4 6 90344.3 2870.65 1
6 0 -4 91229.6 2860.65 6
-6 0 -4 92597.6 2879.56 8
6 0 4 91127.5 2874.78 2
6 0 -4 89120.5 2863.37 7
-4 0 -6 86461.2 2862.4 6
-4 0 -6 88036.8 2862.42 5
-6 0 4 86316.1 2875.28 4
6 -2 4 3506.88 264.547 2
-2 -4 -6 3447.72 264.988 7
-6 -2 -4 3446.5 165.126 6
-2 4 6 3981.35 221.61 1
-6 -2 -4 3322.93 276.933 8
-6 2 4 3528.63 219.75 8
4 2 6 3303.26 277.972 3
6 4 4 24632.1 882.582 3
-5 3 6 27297 919.916 2
-5 -3 -6 28577.7 960.021 8
6 3 5 28500.4 982.978 3
-5 1 6 16832.3 556.919 8
5 -1 6 16321.6 600.635 2
6 -1 -5 16442.1 579.65 7
-6 -1 5 16653.8 578.844 8
-5 -1 -6 14859.2 565.165 6
5 -1 6 15385.6 619.688 4
6 -1 -5 16664.7 570.629 6
6 1 -5 16621.7 567.407 6
6 1 -5 16436.8 573.8 7
5 -1 -6 15959.8 544.551 2
-6 -1 -5 16039.1 565.316 7
-6 1 5 17078.9 625.537 4
-5 1 -6 17733.5 610.365 8
-6 1 5 17375.9 567.946 8
-6 -1 -5 16278.7 553.454 6
-6 -1 -5 17166.9 608.899 8
6 -1 5 18374.2 605.077 2
-5 1 -6 14857.3 563.089 6
-6 1 5 16124.8 547.276 5
-6 -1 -5 14862.7 566.277 5
-6 -3 -5 27497.4 956.595 8
5 -3 -6 28364.8 913.992 8
-6 -3 -5 26455.2 914.603 6
-6 0 6 309.881 169.808 8
-6 0 -6 80.2003 177.848 5
-6 0 -6 293.641 157.76 6
-6 0 -6 110.679 298.911 8
-6 2 -6 7020.8 390.859 8
6 2 6 7022 300.771 1
-6 -2 -6 8087.79 309.144 5
6 -2 -6 6555.88 350.061 7
-6 2 6 6569.9 293.111 8
6 -2 -6 6522.07 279.262 2
6 2 -6 7744.68 341.291 7
6 2 6 6821.4 405.002 3
-6 2 6 7391.1 317.845 1
-6 -2 -6 6822.64 359.148 8
-1 0 -7 3491.87 161.873 5
0 -1 -7 3776.81 183.73 8
0 1 7 3876.39 174.212 2
0 1 7 3428.67 173.278 8
-7 0 1 3441.7 186.534 5
-1 0 -7 3400.14 202.478 8
-2 -1 -7 9783.63 366.275 5
7 -1 -2 10878.4 398.406 2
-7 -2 -1 11946.1 435.917 8
1 2 7 11101.5 398.769 1
2 1 -7 10679.5 414.755 7
1 -2 -7 10662.5 394.949 6
-2 -1 -7 9557.01 398.048 8
-7 1 -2 10521.4 450.284 8
2 1 7 10912 412.96 3
2 -1 -7 11026.9 411.062 7
7 1 -2 10692.5 430.688 3
7 -1 2 11077.8 416.446 2
-7 -1 -2 10199.6 418.1 8
1 2 -7 9458.73 393.793 6
-7 2 -1 11220.4 441.456 8
-7 1 2 10232.7 414.334 8
-1 -2 -7 9663.53 376.682 8
7 1 -2 10475.3 365.883 7
-7 2 -3 10815.7 382.78 5
-7 -2 3 10274.5 363.892 5
-7 -3 -2 9481.13 375.824 5
7 2 3 8740.22 350.329 7
2 3 7 10725.3 391.141 1
7 2 3 10261.3 455.886 3
3 2 -7 10977.8 415.812 7
-3 2 7 11104 390.479 1
2 -3 -7 9538.95 420.29 7
-7 -3 -2 10610.4 435.004 8
-7 2 -3 10662.9 443.315 8
7 -3 2 10568.2 416.325 2
-3 -2 -7 8139.91 386.396 8
-3 -2 -7 9424.45 358.08 5
-7 3 0 21680.8 750.252 8
0 -3 -7 20422.8 710.757 8
7 0 -3 21149.8 741.075 3
-7 0 -3 19192.6 717.674 5
3 0 -7 21278.8 735.402 7
-7 0 -3 21151.5 753.613 8
0 3 7 21765.6 730.273 1
-3 0 -7 20543.2 709.162 5
-3 0 -7 23399.2 739.67 8
0 -3 -7 20759.1 743.356 7
-7 -3 0 22957 753.488 8
0 -3 -7 21662.6 723.865 6
-7 0 3 20283.6 725.801 8
7 -3 0 22300.8 739.289 2
3 2 7 9785.66 382.53 1
-7 2 3 10273 400.586 8
-7 2 3 10142 362.789 5
-7 -2 -3 9107.73 426.985 8
3 -2 -7 9709.19 409.093 7
-2 -3 -7 9258.26 349.259 5
7 2 -3 8188.87 415.486 3
-7 -3 2 10237.7 428.452 8
-3 -2 7 9693.84 499.617 4
7 3 2 9287.89 453.754 3
-7 3 -2 10776.9 433.598 8
-7 2 3 10205.4 354.248 1
7 -3 -4 459.516 215.412 7
-7 3 -4 328.499 299.109 8
7 -3 -4 82.2303 170.621 6
3 4 7 523.921 212.909 1
-7 -4 -3 251.601 184.279 5
-7 1 -4 25635.7 870.357 5
1 4 7 26290.9 880.912 1
7 -1 -4 25295.6 865.982 7
4 1 -7 25043.2 882.952 7
-7 1 -4 24720.8 855.195 7
-7 1 -4 26866 910.923 8
4 1 -7 25973.7 875.94 6
1 -4 -7 26244.7 875.179 6
7 -1 -4 26742.7 859.986 6
-7 -1 4 25856.2 899.554 4
-7 -1 4 24947.7 880.471 8
-1 -4 -7 25372.2 871.632 6
-4 -1 7 25151.1 933.743 4
-1 -4 -7 24316.8 892.9 7
-7 1 4 24922.5 875.51 8
4 1 7 24755.8 901.048 3
4 -1 -7 26694.7 881.892 7
7 1 -4 24974.3 857.62 6
7 1 -4 25767.1 886.327 3
4 -1 -7 26043.3 871.57 6
-7 -1 -4 26077.7 900.624 8
-7 -1 -4 25801.6 846.972 6
-7 1 4 26223.4 898.348 4
-7 1 4 25724.3 857.68 1
-1 4 7 26851.5 877.872 1
-7 -3 -4 328.831 286.202 8
-3 -4 -7 48.3159 257.38 7
4 -3 -7 308.165 261.286 7
-7 3 4 360.036 163.734 1
-7 -3 -4 94.0011 176.791 5
7 4 3 203.506 325.704 3
4 -5 -7 6085.54 316.069 6
-5 -4 -7 6236.28 295.018 5
-5 -4 -7 5860.01 299.35 6
4 -5 -7 6307.47 388.283 7
-5 -2 -7 663.103 259.208 8
-5 -2 -7 1211.47 187.036 5
-7 2 -5 1065.18 206.044 5
2 -5 -7 1153.73 288.038 7
-7 2 -5 1292.92 311.076 8
5 2 -7 1002.93 255.096 7
5 2 -7 1030.34 216.822 6
-7 0 5 12069 479.609 4
5 0 7 10399.9 430.479 2
-7 0 -5 10989 398.909 5
-7 0 5 10718.9 368.965 5
7 0 5 11896 441.213 2
-5 0 7 8994.53 370.77 3
-7 0 -5 10812.9 474.916 8
-7 0 -5 9652.81 382.279 7
5 0 -7 11383.4 430.175 7
-5 0 7 9916.77 363.717 8
-5 0 -7 11671.2 467.932 8
-7 0 5 8892.65 397.623 8
5 0 -7 11059.5 406.622 6
0 -5 -7 9403.65 453.315 7
-7 2 5 908.47 219.215 8
-7 -2 -5 1035.1 273.842 8
-5 2 -7 1105.86 287.586 8
5 -2 -7 1143.12 254.746 7
-7 -2 -5 1378.56 197.604 5
5 -2 -7 1140.05 208.479 6
5 4 7 6518.64 427.109 3
-6 -5 -7 3700.07 262.013 5
7 -5 -6 3494.96 277.261 6
-6 5 7 4063.53 298.571 1
-6 -3 -7 2849.84 344.257 8
-7 3 -6 2797.98 377.922 8
-6 3 7 3342.1 266.826 1
7 3 6 2993.1 405.758 3
7 -3 -6 3127.52 242.112 6
6 1 -7 8352.68 390.623 7
-7 1 -6 8323.16 456.252 8
7 -1 -6 8999.83 372.232 3
-7 1 -6 7788.19 351.571 7
-7 1 -6 8510.33 362.558 5
6 1 -7 9048.23 370.143 6
-6 -1 -7 7292.12 419.809 8
-6 1 7 8636.93 333.93 8
-7 -1 6 8249.5 368.168 8
-6 1 -7 9175.56 445.77 8
-7 1 6 8194.21 352.516 8
6 1 7 8330.25 468.024 3
-6 -1 7 7562.01 340.138 8
7 1 -6 8154.24 376.436 7
-6 -1 7 7810.33 495.876 4
-6 1 -7 8147.45 351.458 5
-7 -1 -6 8037.11 428.65 8
-7 -1 -6 8091.49 318.182 6
6 -3 -7 3206.95 319.556 7
-7 -3 -6 2997.92 360.201 8
-7 -5 -6 4026.33 274.003 5
6 -5 -7 3714.15 289.504 6
6 -5 -7 3651.76 382.938 7
7 0 7 8848.87 479.807 4
-7 0 -7 9842.57 385.311 5
-7 0 -7 9574.11 492.916 8
-7 0 7 9634.98 333.064 5
-7 2 7 3566.27 455.368 4
7 -2 7 3270.67 352.952 2
-7 2 -7 3681.9 281.859 5
-7 2 7 3397.77 250.833 8
7 -2 -7 3834.26 282.641 3
-7 -2 -7 3957.78 373.781 8
7 2 -7 3905.89 309.058 7
-7 2 -7 4183.96 383.139 8
-7 -4 -7 226.153 364.073 8
-7 -4 -7 143.021 237.565 5
-8 0 0 244456 8015.79 5
8 0 0 239679 8034.74 3
-8 0 0 255373 8027.55 8
0 0 -8 246805 8020.23 6
8 -1 1 114838 3640.92 2
-1 -1 -8 108218 3627.76 8
-8 -1 -1 108422 3631.23 5
8 1 1 112847 3655.58 3
1 1 -8 111427 3639.49 7
-8 1 1 114571 3643.85 8
1 1 -8 111955 3636.52 6
1 -1 -8 115118 3634.58 6
-1 1 8 110570 3663.71 4
-8 -1 1 109666 3641.05 8
-1 -1 -8 111183 3633.38 6
-8 1 -1 111341 3652.16 8
-8 -1 -1 109096 3640.76 8
2 0 -8 35278.6 1138.21 6
-2 0 -8 33523.2 1136.64 8
-8 2 0 35565.2 1134.42 5
-2 0 -8 33975.6 1119.81 5
-8 0 -2 35574.9 1132.07 5
-8 0 -2 35201.4 1162.15 8
0 -2 8 29791.7 1192.24 4
8 2 0 33736.9 1170.94 3
0 2 8 33050.1 1125.54 3
-8 2 0 33523.7 1161.25 8
-2 0 -8 35158.3 1134.79 6
2 0 -8 33571.3 1147.24 7
0 -2 -8 32335.9 1118.95 8
8 0 -2 33287.3 1112.79 6
-8 -2 0 34421.2 1130.13 5
0 -2 -8 35274 1137.34 6
0 2 -8 34585.3 1141.79 6
-8 -2 0 31828.8 1158.14 8
-8 -2 -2 6506.12 284.408 5
-8 2 -2 7027.54 372.891 8
-8 2 -2 6513.98 293.959 5
2 2 8 5797.27 306.132 1
-2 2 -8 6265.89 327.989 7
8 2 2 6822.65 389.677 3
8 -2 -2 5710.19 244.561 6
-8 -2 -2 5928.17 368.341 8
-2 -2 -8 5820.52 292.918 8
-2 2 -8 6094.76 301.454 6
-2 -2 -8 6652.02 297.376 6
8 3 -1 5259.89 358.082 3
3 1 -8 5951.72 317.959 7
-8 3 1 5770.04 274.84 5
-3 -1 -8 5215.08 310.858 8
-3 -1 -8 5364.48 278.329 6
-8 -3 -1 5590.77 354.195 8
3 1 -8 5518 294.183 6
-3 -1 -8 5197.04 238.935 5
-8 3 1 5786.14 348.321 8
-8 1 -3 4930.11 370.919 8
-8 1 3 4996.65 223.097 1
-3 1 -8 4915.07 242.12 5
-1 -3 -8 4961.56 331.213 7
-8 -3 1 5076.28 258.238 5
3 -1 -8 5083.56 309.432 7
8 3 1 5184.55 383.112 3
-1 3 8 4939.48 290.397 1
-3 -1 8 5582.8 438.91 4
-8 3 -1 5167.55 362.509 8
-1 -3 -8 5058.43 273.629 6
-8 -1 -3 4871.27 348.739 8
-3 1 -8 5352.36 271.36 6
-1 -3 -8 4669.79 260.266 8
3 1 8 4843.64 402.605 4
3 -1 -8 5859.69 280.92 6
3 1 8 4817.47 310.306 3
8 -3 -1 5685.87 308.584 2
3 -3 -8 39250.3 1300.4 6
-8 -3 -3 38161.9 1294.72 5
-3 -3 -8 37991 1283.68 5
-3 -3 -8 39382.9 1315.75 7
-8 3 -3 37657.7 1331.06 8
-8 -3 -3 39043.6 1328.68 8
-8 -3 3 41881.9 1323.71 8
-4 -2 -8 27686.8 937.063 6
8 -2 -4 26999.5 936.937 7
2 -4 -8 27346.9 971.647 7
-8 2 -4 28043 986.35 8
4 2 -8 29715.7 949.724 6
8 -2 -4 26083.3 924.393 6
4 2 -8 29551.3 962.74 7
4 0 8 1325.06 381.812 4
0 -4 -8 1621.33 227.773 6
-8 0 -4 1640.81 207.744 5
0 -4 -8 1490.32 299.68 7
8 0 -4 1502.28 192.291 7
4 0 -8 1390.52 259.783 7
8 0 4 1562.54 282.743 2
-8 0 -4 1324.98 129.858 6
8 0 4 1554.93 336.202 3
-8 0 -4 1989.67 332.462 8
-4 0 -8 1504.8 210.384 6
-8 0 4 1761.33 174.322 5
8 0 -4 1303.17 175.155 6
-8 -2 -4 23944.9 974.252 8
-2 -4 -8 25353.6 945.927 8
-2 -4 -8 28614.4 944.281 6
-8 -2 -4 28772.3 943.641 5
-2 4 8 30509.5 952.049 1
-4 4 8 17035.3 624.218 1
-4 -4 -8 16208.8 643.561 8
-4 -4 -8 16563.4 607.306 6
4 -4 -8 17371.2 618.507 6
-5 -3 -8 19336.9 738.065 8
-8 3 -5 20657.3 769.154 8
-5 3 8 19983.7 715.996 1
-5 -3 -8 19414.5 698.645 6
8 3 5 20211.3 789.826 3
-5 -1 -8 12400.3 478.593 5
-8 1 -5 14057.9 496.57 5
-8 1 -5 14295.6 581.165 8
-5 -1 -8 13706.6 547.766 8
-5 -1 -8 12302.4 484.859 6
5 1 -8 13991.1 505.226 6
-5 1 8 13793.1 619.052 4
1 -5 -8 11588.3 500.405 6
-1 -5 -8 13100.4 546.254 7
-1 -5 -8 12072 491.083 6
-8 1 5 13128.5 501.83 8
5 1 8 10421.3 563.183 3
8 1 -5 12125.2 467.2 6
-5 1 -8 12128.8 499.258 7
-8 1 5 13458 561.315 4
-8 1 5 12828.9 454.729 5
-8 -1 -5 12523.2 543.958 8
5 -1 -8 13549.5 489.629 6
-5 1 -8 13868.8 541.726 8
-8 -3 -5 21284.3 712.505 5
-3 -5 -8 18374.8 759.078 7
5 -3 -8 19317.3 752.74 7
8 -3 5 20006.8 755.619 2
5 -3 -8 20285.4 720.672 6
-8 -3 -5 21117 773.82 8
-5 -5 -8 8943.64 489.659 7
-8 -5 -5 9763.17 415.74 5
-6 -4 -8 143.558 356.57 8
-6 -4 -8 269.794 234.054 5
-6 -2 -8 5339.7 389.528 8
-8 2 -6 4969.29 437.211 8
8 2 6 4744.3 267.702 1
6 2 -8 5635.59 357.011 7
-6 -2 -8 5494.82 298.574 6
6 2 -8 6366.57 322.032 6
-8 0 6 101.664 240.46 8
-6 0 8 300.561 165.407 8
-6 0 -8 188.387 212.695 5
-8 0 -6 122.293 232.747 5
8 0 -6 604.346 254.844 7
-8 0 -6 174.41 206.942 7
-6 0 -8 298.682 372.717 8
-8 0 -6 461.861 394.027 8
8 0 -6 94.834 275.95 3
6 2 8 4840.47 296.276 1
-8 -2 -6 4589.89 379.518 8
8 2 -6 5592.89 317.229 7
-6 2 -8 5501.98 332.293 7
-6 2 -8 4856.34 404.456 8
-8 2 6 4641.81 313.978 8
6 -2 -8 4237.11 210.906 8
6 2 8 5046.07 440.32 4
-6 2 -8 5501.95 295.572 5
-8 -4 -6 363.238 369.876 8
6 -4 -8 784.397 268.517 6
-7 -5 -8 463.668 403.278 8
-7 5 8 142.756 299.305 1
-7 -3 -8 2400.33 363.136 8
-8 3 -7 1716.73 290.374 5
-7 -3 -8 1934.97 332.535 7
8 3 7 2135.16 447.888 3
-7 -3 -8 2007.96 257.667 5
-8 3 -7 1735.32 418.081 8
7 -1 8 25740.9 855.627 2
-7 -1 -8 22606.5 798.255 5
8 -1 -7 22090.6 820.717 7
-7 1 8 22903.1 786.941 8
-8 1 -7 24212.4 886.308 8
8 -1 -7 23343.3 802.264 6
-7 -1 -8 22555.4 863.304 8
-8 -1 7 23689 809.924 8
8 1 7 20105.9 849.307 4
8 1 -7 23360.4 828.157 7
7 -1 -8 24365.5 819.685 6
8 1 -7 23536.6 821.649 6
-7 1 -8 25395.8 890.087 8
-8 1 7 22236.5 814.729 8
-8 -1 -7 22224.9 875.846 8
-8 1 7 23396.4 788.055 5
-8 -3 -7 2028.88 396.361 8
7 -3 -8 1881.24 283.95 6
7 3 8 1758.74 273.099 1
7 -5 -8 152.624 292.008 6
-8 -5 -7 31.5217 419.16 8
7 5 8 30.4115 455.285 3
-8 0 -8 27642.7 921.126 8
-8 0 8 22181.1 808.513 8
-8 2 8 29138.8 987.945 8
-8 2 8 29317.2 1105.95 4
8 -2 8 28518.3 1055.25 2
-8 2 -8 28235.3 1067.18 8
-8 -2 -8 27452.9 1059.12 8
-8 -2 -8 30096.1 1001.34 5
-8 -4 -8 83.6215 435.871 8
-8 -6 -8 227.77 308.938 5
-9 0 -1 2523.36 329.119 8
-1 0 9 3091.87 412.659 4
-1 0 9 2256.2 178.189 8
0 -1 -9 2628.54 205.725 8
0 -1 -9 2688.06 142.587 5
-9 0 -1 2727.82 222.077 5
1 0 -9 2522.88 289.66 7
0 1 -9 2200.1 279.533 7
-9 -1 0 2500.19 300.592 8
-9 -1 0 2381.72 228.868 5
1 0 -9 3293.12 251.143 6
0 1 -9 2658.87 265.441 6
-9 0 1 2805.31 317.727 8
0 1 9 2335.29 419.451 4
-9 1 0 2696.45 350.23 8
-9 2 1 9897.56 418.925 5
-9 2 1 11201 494.563 8
-9 -1 2 11407 409.102 5
-9 -2 -1 11135 416.164 5
1 2 9 10112.9 426.637 3
9 2 -1 11180.7 510.518 3
9 -1 -2 10557.6 374.634 6
-2 -1 -9 9216.14 441.728 8
-9 -1 2 9674.54 469.893 8
-9 -2 -1 10935.3 491.81 8
1 -2 -9 9977.55 427.284 6
2 1 -9 11134.5 444.166 6
-9 1 -2 10583 513.288 8
-1 2 -9 10932.2 441.017 6
2 -1 9 10721.3 563.335 4
-9 2 -1 11202.4 411.484 5
-9 -1 -2 10765.1 402.06 5
9 -1 2 10937.7 452.59 2
9 -2 -1 8732.21 348.555 1
-9 -2 1 10365.5 398.743 5
2 -1 -9 9749.35 443.886 7
1 2 -9 9832.48 446.571 7
9 1 -2 10127.8 489.476 3
-9 2 -1 9846.92 483.566 8
-9 1 2 11615.2 464.439 8
-1 -2 -9 9555.02 394.087 8
-9 -1 -2 9065.78 475.156 8
-9 1 2 9364.63 412.488 4
-1 -2 -9 11000.8 412.237 6
-9 -2 1 10729 466.439 8
-2 1 -9 10313.8 376.207 5
-9 -2 3 794.495 323.01 8
-9 -3 -2 1066.25 351.844 8
-9 2 -3 552.203 238.452 5
9 -3 2 683.001 310.123 2
9 -2 -3 946.875 276.501 2
-9 3 2 934.889 323.681 8
-9 2 -3 786.585 369.728 8
9 -3 0 3865.37 319.415 2
-9 0 -3 3828.22 370.201 8
-3 0 -9 3685.96 218.077 5
-9 0 3 4101.12 325.562 8
9 0 -3 4068.71 357.477 3
0 -3 -9 3393.15 275.966 6
3 0 -9 3378.3 316.27 7
0 -3 -9 3057.58 226.42 8
3 0 -9 3594.83 273.773 6
-9 3 0 3272.07 351.225 8
9 0 -3 3683.79 197.731 6
-2 -3 -9 928.812 247.146 6
-9 -2 -3 1172.37 340.534 8
-9 3 -2 977.564 355.647 8
-2 -3 -9 799.921 246.362 8
-3 -2 9 805.446 472.577 4
-2 3 9 785.841 263.788 1
-9 2 3 1542.68 342.354 8
-9 -2 -3 1027.52 230.854 5
-4 -3 -9 552.554 294.992 8
-4 -3 -9 734.105 251.502 6
-9 -3 4 893.354 346.862 8
3 -4 -9 794.618 265.211 6
-9 3 -4 952.708 392.16 8
9 -3 -4 703.471 199.354 6
9 -1 -4 10196.2 427.514 2
9 1 4 10008 555.582 3
-4 -1 -9 9767.97 450.339 7
-4 -1 -9 11101.6 482.098 8
-9 -4 -1 10311.7 497.472 8
-9 1 -4 10451.6 536.379 8
-9 -1 4 9317.95 475.811 4
-9 -1 4 9479.11 455.67 8
-9 4 -1 10231.5 419.217 5
9 -1 4 11137.1 470.878 2
-9 -1 -4 10551.3 409.875 5
-9 -1 -4 10209 499.955 8
4 1 9 10189.1 437.614 2
-9 -1 -4 8878.95 342.171 6
-4 -1 9 9195.96 589.231 4
-4 1 -9 10160.8 468.123 8
-9 1 4 10397.8 459.006 8
-4 1 -9 9660.66 438.305 7
-9 3 4 349.7 318.99 8
-9 -3 -4 391.896 361.436 8
9 -3 4 360.05 339.618 2
9 4 3 894.641 416.151 3
-9 -3 -4 713.993 239.504 5
-5 -4 -9 267.615 353.233 8
4 -5 -9 93.2223 372.128 7
-5 -2 -9 131.737 339.696 8
2 -5 -9 264.251 351.395 7
-5 -2 -9 544.882 321.658 7
5 2 -9 654.259 330.086 7
9 2 5 428.322 430.335 3
-9 2 -5 987.298 410.998 8
-9 0 -5 3471.99 269.679 5
-5 0 -9 3390 381.338 8
-5 0 9 2803.32 493.412 4
-9 0 -5 2794.98 187.176 6
-9 0 -5 3519.55 410.055 8
-5 0 -9 2964.64 245.197 5
-2 -5 -9 534.957 353.488 7
-5 2 -9 467.344 312.189 7
-9 -2 -5 407.335 351.98 8
5 -2 -9 559.191 271.79 6
-9 -4 -5 286.13 400.296 8
-6 -5 -9 578.215 396.456 8
-6 -5 -9 580.746 289.965 6
-6 -3 -9 3356.86 382.067 8
3 -6 -9 3622.4 423.599 7
9 3 6 3680.98 477.19 3
-9 3 -6 3770.66 445.902 8
-9 1 -6 1288.31 426.047 8
6 1 -9 1591.74 320.228 7
6 1 -9 1840.98 294.238 6
1 -6 -9 1161.21 285.404 6
-6 -1 -9 1638.38 391.193 8
-6 1 9 1365.57 505.871 4
-9 -1 -6 1311.23 414.071 8
-6 -1 9 1791.61 530.886 4
-9 -1 -6 1752.13 260.318 5
-6 1 -9 1657.77 398.054 8
-1 -6 -9 1674.22 289.781 6
-9 -1 -6 1290.59 188.91 6
-9 -3 -6 3442.3 426.679 8
-3 6 9 4041.65 339.559 1
-9 -5 -6 490.97 442.699 8
-5 -6 -9 468.447 293.08 6
-7 -6 -9 134.378 313.092 6
-7 -4 -9 4822.96 324.363 6
-7 -4 -9 3714.38 441.291 8
-9 2 -7 5697.3 488.082 8
-9 2 -7 4819.39 347.929 5
-7 2 9 4852.38 201.762 5
-7 -2 -9 4497.35 434.759 8
-7 2 9 5694.88 578.423 4
9 0 7 9385.98 520.943 4
-7 0 -9 10870.7 425.782 5
-7 0 -9 11728.2 561.176 8
-7 0 9 8258.99 371.545 8
-9 0 -7 11840.4 585.15 8
-7 2 -9 4985.22 340.809 5
-7 2 -9 4874.05 377.767 7
9 -2 7 5057.94 433.349 2
-9 2 7 5769.98 364.365 8
-9 -2 -7 5613.85 472.184 8
-7 2 -9 6160.99 475.397 8
-9 -2 -7 5816.17 337.054 5
-9 -4 -7 4098.33 484.889 8
-8 -5 -9 1802.62 476.98 8
-8 -3 -9 572.323 415.288 8
-9 3 -8 456.883 326.234 5
-8 3 9 1079.92 175.301 5
-9 3 -8 1114.49 486.356 8
9 -3 -8 857.22 310.872 6
9 3 8 329.788 458.354 4
-9 1 -8 2835.51 319.604 7
-8 -1 -9 2951.89 484.909 8
9 -1 -8 3717.62 308.48 6
8 -1 9 3335.48 435.088 2
-8 1 9 3111.32 287.188 8
-9 1 -8 3418.97 487.167 8
8 -1 -9 2964.33 241.593 2
-9 -1 -8 2787.3 484.026 8
-9 1 8 3868.67 340.804 8
-8 -1 9 3562.59 303.535 8
-8 1 -9 3424.31 491.631 8
-9 -3 -8 597.654 431.939 8
8 -3 -9 464.403 317.431 6
-9 -5 -8 1809.08 300.778 6
8 -5 -9 2366.88 359.578 6
-9 5 8 2490.47 259.505 5
-9 -5 -8 1703.15 489.662 8
-9 0 -9 12604.3 676.559 8
-9 0 9 11488.9 498.294 8
-9 -2 -9 1263.17 495.792 8
-9 -2 -9 2330.23 327.694 5
-9 2 -9 1217.61 512.009 8
-9 -2 -9 1749.57 292.323 6
9 -2 -9 2185.61 344.951 6
-9 2 9 1806.62 607.207 4
9 2 -9 1046.2 400.335 7
9 2 9 2051.34 511.683 4
9 4 9 2348.07 346.665 1
-9 -4 -9 1863.23 504.241 8
-10 0 0 6518.22 310.187 5
-10 0 0 5959.13 402.919 8
1 1 10 11373.9 415.428 2
-10 -1 -1 10884.4 510.774 8
-10 -1 -1 11846.6 432.607 5
-10 -1 1 10463.4 424.305 5
10 -1 1 10903.9 486.182 2
-1 -1 -10 11058.1 481.984 7
1 -1 -10 11358 483.595 7
-1 1 -10 10426.4 469.454 7
-1 -1 -10 11240.8 430.594 8
-10 1 -1 13267.6 544.123 8
-10 1 1 12040.6 520.949 8
-10 -1 1 10360.1 483.593 8
-1 1 10 7962.99 372.022 8
-10 2 0 12010.5 536.84 8
-10 0 2 12467 427.151 5
0 2 -10 11270.7 457.477 6
-2 0 10 11201.5 614.683 4
-10 0 -2 12659.3 531.758 8
-10 -2 0 11655.1 515.584 8
-10 0 2 12815.4 499.377 8
0 -2 -10 12819 419.551 8
-2 0 -10 12322.7 455.39 8
2 2 -10 484.139 320.662 7
-10 -2 2 743.94 361.982 8
-10 2 -2 696.211 384.76 8
-2 -2 -10 399.476 315.991 7
2 -2 -10 703.28 331.104 7
-2 -2 -10 815.373 267.788 6
-2 2 -10 726.093 314.272 7
-2 -2 -10 639.54 170.864 5
-10 -2 -2 789.547 357.524 8
10 -2 -2 739.348 157.206 6
-2 2 -10 1038.32 281.177 6
-10 2 2 828.261 374.711 8
10 2 -2 551.435 385.716 3
-2 -2 -10 653.78 280.888 8
-10 3 1 11384.3 512.449 8
1 -3 -10 9858.58 494.013 7
1 3 10 10188.3 437.068 3
-10 1 -3 12507 549.976 8
-10 -1 3 10002 478.605 8
-10 -3 -1 11989.5 524.234 8
1 -3 -10 8352.33 360.446 8
-3 1 10 13302.4 625.123 4
3 -1 10 9617.5 611.923 4
10 -3 -1 12366.7 504.304 2
-10 3 -1 11902.9 551.533 8
-3 1 -10 10380 499.231 7
10 3 1 9263.65 576.676 3
-10 3 -1 11479.1 462.387 5
-10 1 3 11118.2 514.379 8
-10 -1 -3 10640.5 543.884 8
-10 -3 1 13463.9 542.284 8
-1 -3 -10 9412.65 429.488 8
-10 3 -3 31129.4 1035.47 5
10 3 3 27497.1 1111.04 3
-10 3 3 30892.5 1066.91 8
-10 3 -3 30422.4 1089.54 8
3 3 10 28798.3 1040.51 1
-3 -3 -10 29945.7 1031.24 6
-10 -3 -3 29675.9 1083.55 8
-4 -2 -10 5500.82 293.055 5
10 -2 -4 5197.12 322.95 7
-10 -2 4 5903.88 305.197 5
4 2 -10 5383.87 401.31 7
-10 2 -4 5568.81 472.136 8
-4 -2 -10 4729.25 386.529 8
-10 4 2 5720.56 434.99 8
-10 -2 4 5052.29 411.219 8
-10 -4 -2 5895.33 454.947 8
4 0 10 9709.6 447.135 2
-4 0 -10 8500.68 381.842 5
-10 0 4 9865.96 391.935 5
10 0 4 7448.43 540.013 3
0 -4 -10 9124.64 492.622 7
-10 -4 0 9660.43 408.817 5
10 0 -4 9030.75 371.387 6
0 4 10 9371.02 441.763 1
-4 0 -10 10753.2 479.911 8
-10 0 -4 8808.17 533.468 8
-10 0 4 10156.5 475.804 8
-4 0 10 8199.42 616.651 4
-10 4 0 9685.34 509.698 8
-10 4 -2 5354 338.02 5
4 -2 -10 4878.75 390.665 7
4 2 10 4792.83 429.717 3
-10 4 -2 6251.7 457.047 8
-10 2 4 5946.93 419.866 8
-10 -2 -4 5346.76 434.376 8
10 -4 -2 5313.09 388.603 2
-2 -4 -10 5322.85 338.362 6
-4 -4 -10 135.1 353.191 8
-10 -4 -4 153.914 423.128 8
-10 4 -4 45.8394 291.098 5
-10 4 -4 70.573 437.041 8
10 -3 -5 6057.42 389.587 7
-10 3 -5 6591.68 514.873 8
-5 3 10 6393.9 393.224 1
-5 -3 -10 6505.68 416.521 8
-10 -1 5 684.792 351.937 8
1 -5 -10 496.681 290.123 6
10 -1 -5 885.386 288.559 2
-5 -1 -10 635.881 403.483 8
-10 1 -5 1243.55 453.29 8
-10 -1 -5 655.21 425.812 8
10 1 -5 981.783 226.862 6
-10 -1 -5 852.984 270.023 5
-5 1 -10 932.534 336.797 7
-5 1 -10 618.717 383.701 8
-1 -5 -10 1139.54 293.619 6
-10 1 5 610.993 353.808 8
-10 3 5 6653.13 337.934 5
5 -3 -10 6319 375.852 6
-10 3 5 6601.64 428.611 8
-10 -3 -5 6476.92 487.781 8
-5 -5 -10 5483.53 441.781 8
-10 -5 -5 6055.53 518.574 8
10 5 5 5107.16 562.935 3
-6 4 10 3854.24 369.083 1
-6 -4 -10 4320.97 435.536 8
10 2 6 11567.3 642.591 3
-10 2 -6 12041.3 615.885 8
-10 -2 6 10736.1 531.71 8
-6 -2 -10 11241.4 567.562 8
-10 0 -6 6172.22 346.168 5
10 0 -6 5554.78 350.829 7
-6 0 -10 6714.35 475.63 8
-10 0 -6 6186.57 512.273 8
-10 0 6 5052.85 400.153 8
-6 0 -10 6243.56 346.84 6
-10 0 -6 4890.74 272.539 6
-10 2 6 11659.1 516.779 8
-10 -2 -6 10027.8 587.794 8
-6 2 -10 10691.4 560.425 8
-10 -4 -6 5360.13 510.195 8
-7 -5 -10 2631.96 492.363 8
-7 -3 -10 831.306 432.762 8
-7 -3 -10 787.656 289.024 5
-10 3 -7 1546.93 513.06 8
-10 -1 7 1370.63 355.073 8
-10 1 -7 2238.38 277.818 7
-10 1 -7 2062.8 507.135 8
-7 -1 -10 1955.63 304.785 6
-7 -1 -10 1693.23 491.013 8
-10 -1 -7 1043.56 297.574 7
-10 -1 -7 1661.94 302.723 5
-10 -1 -7 1670.59 236.734 6
-10 -1 -7 1207.52 473.574 8
-10 -3 -7 1142.66 456.675 8
-10 3 7 1004.57 357.136 8
7 3 10 808.141 548.7 4
-10 -5 -7 2056.22 520.26 8
-10 5 7 2471.55 296.115 5
10 -4 -8 6829.92 499.237 7
-8 -4 -10 5389.72 508.895 8
8 2 -10 1370.8 371.533 6
-10 2 -8 1804.43 529.082 8
-8 -2 -10 1667.09 487.503 8
10 -2 -8 2193.65 331.27 6
-8 -2 -10 1546.13 316.832 6
-8 0 -10 3452.62 392.552 7
8 0 10 3897.1 484.636 2
-10 0 -8 3290.35 573.63 8
-8 0 -10 3216.94 540.029 8
-10 -2 -8 1835.37 529.861 8
-10 2 8 2269.6 247.287 5
10 2 -8 1672.74 389.121 7
-8 2 -10 1285.7 500.765 8
8 -2 -10 2164.66 360.838 6
8 4 10 7617.72 445.789 1
-10 -4 -8 7090.04 578.335 8
-10 -4 -8 6462.86 372.051 6
-9 -5 -10 1330.56 736.33 8
10 -5 -9 800.665 700.786 7
10 -5 -9 1198.98 521.462 6
-9 -5 -10 82.212 481.809 5
-9 -5 -10 87.5453 472.951 6
-10 1 -9 1660.42 579.871 8
9 -1 10 1828.06 490.267 2
10 1 9 469.582 496.264 2
10 1 9 320.127 317.994 1
-9 -1 -10 553.429 589.359 8
-9 -1 -10 125.671 338.151 6
9 1 -10 2206.37 384.836 6
10 1 -9 2210.08 376.641 6
9 1 10 914.032 596.749 4
-10 -1 -9 274.089 388.405 7
9 1 10 110.2 499.501 2
-10 -1 -9 2117.32 346.889 5
9 1 10 297.885 623.796 3
-9 1 -10 2273.85 561.34 8
-10 -1 -9 216.79 576.491 8
-10 -1 -9 93.409 324.538 6
-10 5 9 1845.66 526.035 1
-10 -5 -9 968.86 771.857 8
9 -5 -10 374.229 516.623 6
-10 -5 -9 866.998 495.563 5
-10 -5 -9 49.5745 441.191 6
9 5 10 643.028 507.143 1
10 2 -10 2765.19 535.359 6
-10 2 -10 5079.05 505.875 5
-10 -2 10 4740.49 918.606 4
-10 2 -10 3738.98 537.036 7
10 -2 10 4467.07 707.982 2
10 2 -10 2901.52 580.645 7
-10 2 -10 2839.93 776.606 8
-1 0 11 4717.47 559.665 4
-11 -1 0 3817.66 417.298 8
-1 0 -11 2925.93 211.301 5
-11 -1 0 3580.56 296.678 5
0 -1 -11 3408.56 370.541 7
0 -1 -11 2988.74 267.097 8
0 1 11 3332.09 298.852 3
-11 0 1 3779.36 405.3 8
11 0 -1 4352.48 466.393 3
0 1 -11 3299.29 331.733 6
11 -1 0 3623.81 374.946 2
-11 1 0 2992.62 452.862 8
0 1 11 2954.93 556.459 4
-11 0 -1 3458.57 437.799 8
-11 2 1 9936.18 396.689 7
1 -2 -11 10487.6 402.234 8
-11 2 1 12134.7 584.216 8
-11 1 -2 13946 606.44 8
-11 -1 2 11959 526.724 8
-11 -2 -1 12272.5 559.87 8
-11 2 -1 12673.8 464.371 5
11 -1 2 13710.1 530.785 2
-1 -2 -11 10730.6 522.674 7
11 2 1 11982.2 607.979 3
-11 2 -1 12392.3 592.574 8
-1 -2 -11 12879.7 468.232 8
-11 1 2 13227.5 559.632 8
-11 -1 -2 12447.1 566.664 8
-11 -2 1 13146.5 553.661 8
1 -2 11 12465.2 702.537 4
2 -3 -11 1561.53 313.404 6
-11 -3 -2 1092.37 442.716 8
-11 -2 3 1481.86 403.745 8
3 2 -11 983.294 367.506 7
-11 3 2 1386 415.834 8
2 -3 -11 604.731 383.004 7
-11 2 -3 1325.08 453.999 8
11 3 -2 1182.34 455.385 3
-11 0 3 86.453 390.918 8
-3 0 11 381.715 574.324 4
-11 -3 0 424.449 427.105 8
0 -3 -11 290.491 380.314 7
-3 0 -11 176.081 343.65 8
-11 3 0 91.6837 424.471 8
0 -3 -11 169.198 237.452 8
11 0 3 520.326 365.491 2
-11 0 -3 429.166 446.194 8
-11 -2 -3 1251.02 401.554 8
-3 -2 11 1370.23 615.712 4
-11 -3 2 1598.68 421.687 8
-2 -3 -11 1188.83 201.909 5
-11 3 -2 1497.5 453.508 8
-11 2 3 1207.31 415.18 8
-4 -3 -11 1581.08 374.879 8
-11 4 3 1549.58 417.09 8
-11 -4 -3 1740.1 475.406 8
11 -3 -4 1706.12 234.966 6
-4 -3 -11 2074.83 415.415 7
-11 3 -4 1468.29 492.113 8
-4 3 11 1358.16 575.724 4
-11 -1 4 3253.34 384.01 8
-4 -1 -11 3491.62 397.217 8
-11 -4 -1 2298.04 461.619 8
11 -1 -4 2715.88 279.821 7
1 -4 -11 2367.97 237.559 8
11 4 -1 2237.53 466.741 3
-11 1 -4 4095.72 513.231 8
-11 4 1 3186.86 443.241 8
4 1 -11 3240.15 350.83 6
-11 -1 -4 3129.06 464.245 8
-4 1 -11 2849.78 402.139 8
4 1 11 2556.66 563.64 4
-1 -4 -11 2594.15 300.772 8
-4 1 -11 2688.07 367.683 7
4 1 11 2875.25 443.41 3
-11 4 -1 2374.19 453.392 8
-11 1 4 3353.26 426.672 8
-1 -4 -11 2269.35 328.011 6
-4 1 -11 2601.54 335.499 6
-11 -3 -4 2015.77 465.588 8
-3 -4 -11 1369.6 337.516 8
-11 4 -3 2034.76 465.887 8
4 -3 -11 1850.94 427.379 7
4 3 11 2161.14 342.276 1
-11 3 4 1391.26 418.112 8
-5 -4 -11 5066.64 375.548 6
-5 -4 -11 3805.71 430.848 8
-11 -5 -4 4738 535.467 8
-5 -4 -11 4431.32 316.891 5
-5 4 11 3823.15 400.123 1
-11 4 -5 4617.9 540.847 8
11 4 5 4603.24 574.025 3
-11 5 2 9688.79 466.525 5
11 2 5 8658.12 644.526 3
-11 -2 5 10477 541.613 8
-11 2 -5 10307 605.578 8
-5 -2 -11 10619.1 549.033 8
-5 0 -11 13257.4 568.31 7
-5 0 -11 14280.7 610.557 8
-11 0 -5 13121 645.812 8
-11 0 5 14792.7 583.54 8
5 0 -11 13651.1 540.026 6
11 0 -5 12663.9 483.904 6
-5 0 11 13732.3 751.573 4
-5 2 -11 9574.59 482.634 6
-11 -2 -5 9627.02 465.074 5
-11 2 5 10704.7 548.234 8
-11 -2 -5 9219.14 586.965 8
5 -2 -11 9977.44 485.679 6
-11 -4 -5 4518.56 531.549 8
-4 5 11 4012.5 418.917 1
5 -4 -11 4745.84 386.452 6
-4 -5 -11 4575.44 431.244 8
-6 -5 -11 2511.21 495.117 8
-11 -6 -5 4570.74 593.891 8
-11 -6 -5 4573.26 382.521 5
11 5 6 4382.42 649.224 3
-6 -5 -11 4204.95 386.065 6
5 6 11 2855.58 428.422 1
-6 -3 -11 38.7178 438.665 8
3 6 11 335.559 385.707 1
-11 3 -6 154.203 347.425 5
-6 -3 -11 25.2439 438.992 7
-11 3 -6 206.133 524.241 8
-6 -1 -11 1447.18 478.235 8
11 1 6 1140 363.633 4
-11 -1 6 1075.55 395.477 8
6 1 -11 785.342 397.442 7
-11 1 -6 1649.34 542.719 8
-6 -1 11 1016.33 627.727 4
-1 6 11 1361.62 371.855 1
11 1 -6 1737.51 430.064 3
11 1 -6 1060.97 313.278 7
-11 1 6 1159.46 270.226 5
6 1 11 1026.56 510.382 3
-6 1 -11 1164.99 466.078 8
-11 1 6 1161.76 405.997 8
-11 -1 -6 1589.33 507.945 8
-11 -3 -6 146.698 452.125 8
-3 -6 -11 677.874 487.053 7
-11 3 6 479.697 275.384 5
-11 -3 -6 39.7734 323.34 5
-11 3 6 329.064 412.275 8
-11 -5 -6 4123.65 565.908 8
-5 -6 -11 3120.41 491.391 8
6 5 11 3471.14 415.153 1
6 5 11 2862.63 565.419 3
6 -5 -11 3851.11 403.54 6
-5 -6 -11 3867.35 384.183 6
-7 -6 -11 171.504 713.323 8
6 -7 -11 989.352 779.244 7
-7 -6 -11 410.342 462.441 5
11 -6 -7 451.9 472.657 6
6 -7 -11 272.339 532.671 6
-7 -6 -11 730.236 503.064 6
2 -7 -11 4039.12 402.849 6
11 -2 -7 5023.93 353.478 6
-7 -2 -11 4752.04 364.92 6
-11 -2 7 4735.15 463.363 8
-11 2 -7 4789.66 584.043 8
-7 -2 -11 3583.25 530.371 8
-11 0 -7 17209.3 693.678 5
11 0 -7 17058.5 749.597 3
-7 0 -11 18513.7 803.001 8
-11 0 -7 18906.4 840.585 8
-11 0 7 18524.5 724.094 8
-11 -2 -7 5035.38 551.808 8
7 2 11 4359.06 458.262 2
-11 2 7 4573.31 365.743 1
-11 2 7 4915.84 443.447 8
7 -2 -11 4847.97 398.125 6
7 2 11 4285.6 394.362 1
-7 2 -11 5010.63 534.468 8
-11 -6 -7 1726.83 782.061 8
-6 -7 -11 1712.51 714.106 8
-11 6 7 1555.71 435.551 5
7 -6 -11 1734.27 777.923 7
-11 -6 -7 99.71 493.525 5
-6 -7 -11 909.313 521.307 6
7 -6 -11 1228.32 547.791 6
7 6 11 58.2267 549.843 1
-6 7 11 1838.05 576.908 1
-8 1 -11 685.953 362.039 5
-11 2 -9 1542.14 519.227 5
9 -2 11 2053.22 719.613 2
9 0 11 1763.79 828.317 4
9 0 11 3288.88 755.489 3
-10 -7 -11 714.355 639.66 8
-10 -7 -11 76.2465 403.702 6
-11 -7 -10 262.149 671.227 8
-11 -4 -11 1093.65 683.074 8
11 -4 -11 1018.98 491.47 6
-11 -4 -11 1204 442.181 5
-11 -6 -11 477.328 665.657 8
-11 -8 -11 1494.42 711.602 8
-12 0 0 4954.06 499.875 8
12 0 0 4823.34 564.013 3
-12 -1 -1 2969.77 473.972 8
-12 -1 1 3424.16 462.611 8
-12 -1 1 4498.97 323.893 5
-1 -1 -12 2824.05 412.214 7
-12 1 1 3455.78 518.951 8
1 -1 -12 3443.69 346.197 6
12 1 -1 2487.19 514.952 3
-1 -1 -12 3007.45 326.294 8
-12 1 -1 3137.44 514.506 8
-12 0 2 967.909 447.894 8
0 -2 -12 1534.95 278.855 8
-12 -2 0 986.295 411.723 8
0 2 12 714.092 243.398 2
-12 0 -2 1128.5 298.209 5
-12 0 -2 1372.38 478.149 8
-12 2 0 1282.53 481.305 8
-12 2 -2 2842.86 520.417 8
-12 -2 -2 2105.46 471.816 8
-12 -2 2 2125.09 448.274 8
2 2 -12 2260.76 407.214 7
-2 -2 -12 2030.79 219.095 5
2 -2 -12 2525.7 350.445 6
-12 2 2 2095.79 481.445 8
-12 3 1 5308.52 363.148 5
-12 -3 -1 4664.38 350.904 5
3 1 -12 5051.82 438.233 7
-12 3 1 5508.69 508.742 8
-3 -1 -12 4711.64 417.081 8
-12 -1 3 4506.12 460.411 8
-12 -3 -1 5225.31 495.427 8
-12 1 -3 4890.95 570.927 8
1 3 12 3218.98 634.53 4
3 1 12 4095.17 617.392 4
-12 -1 -3 5330.82 514.233 8
-12 3 -1 4916.17 364.933 5
-1 -3 -12 4545.25 250.712 5
-1 -3 -12 3931.19 349.09 8
-12 -3 1 5341.06 497.203 8
3 -1 -12 5138.48 373.39 6
-12 3 -1 4355.24 521.002 8
-12 1 3 4612.85 482.651 8
-3 -3 -12 2579.95 385.249 8
3 3 12 2481.61 390.923 1
-12 -3 -3 2877.24 510.402 8
-12 -3 3 2949.31 492.443 8
12 -3 -3 2778.67 240.711 6
-12 3 -3 2731.22 533.387 8
-12 3 3 3315.63 486.508 8
3 3 12 2464.96 660.267 4
4 2 -12 398.203 378.191 6
-12 -2 4 457.192 454.273 8
-12 -4 -2 350.137 504.51 8
12 -2 -4 592.506 299.97 7
-4 -2 -12 456.008 256.413 5
12 -2 -4 830.318 414.468 2
12 2 4 31.7203 569.33 3
-12 4 2 1372.53 485.148 8
-12 2 -4 31.6589 537.538 8
-4 -2 -12 486.026 443.484 8
-4 2 12 66.033 657.651 4
-12 4 0 10281.2 473.122 5
-4 0 -12 9116.54 418.138 5
-12 -4 0 8836.59 463.191 5
-12 4 0 9035.78 603.25 8
-4 0 -12 9428.27 534.281 8
-12 0 -4 10877.8 627.936 8
-4 0 12 8952.96 735.087 4
-12 -4 0 10497.7 614.748 8
4 0 -12 9360.98 488.148 6
-4 0 -12 11086.6 493.527 6
-12 0 4 9662.1 570.321 8
-4 2 -12 272.608 366.911 6
-12 -2 -4 23.717 490.232 8
-12 -4 2 271.743 490.815 8
12 2 -4 35.5563 272.849 7
-4 2 -12 144.83 397.025 7
-12 -2 -4 823.015 330.946 5
-12 4 -2 90.651 506.386 8
-12 2 4 132.49 482.342 8
4 -2 -12 212.041 354.08 6
-4 -4 -12 2808.88 410.638 8
4 4 12 3128.65 426.313 1
-12 -4 -4 3981.48 556.395 8
-12 4 -4 3913.55 393.211 5
-4 -4 -12 3653.17 384.439 6
-12 4 -4 3285.45 563.415 8
-12 4 4 2776.21 486.302 8
4 4 12 3393.21 488.919 3
-5 -3 -12 1352.52 445.022 8
-12 -3 5 2122.31 494.253 8
-12 -5 -3 1675.82 526.96 8
-12 3 -5 2377.79 379.804 5
-12 -5 -3 2290.95 355.068 5
-12 3 -5 990.581 565.81 8
12 -1 -5 6555.43 452.571 2
5 1 -12 6581.15 489.384 7
-5 -1 -12 6957.13 538.595 8
-12 1 -5 5862.85 624.577 8
-12 -1 5 5989.28 486.823 8
-12 1 5 6426.82 363.649 5
-5 1 -12 6859.28 510.787 8
-12 1 5 5286.9 519.519 8
-1 -5 -12 5351.23 420.217 6
-12 -1 -5 6896.63 569.54 8
-5 1 -12 6788.29 437.386 6
-12 -3 -5 2640.27 520.888 8
-3 -5 -12 1492.44 390.095 8
-5 -3 12 2527.48 733.47 4
-3 -5 -12 1828.18 505.358 7
-12 3 5 2722.09 320.34 5
12 3 -5 2453.81 352.512 7
-5 3 -12 1798.68 443.195 7
5 3 12 1275.53 393.063 1
-12 3 5 2483.88 454.315 8
-3 -5 -12 2103.59 377.489 6
5 3 12 1862.3 673.151 4
-12 2 -6 3071.31 599.514 8
-12 0 6 96.534 461.533 8
-12 0 6 879.519 536.238 4
-6 0 -12 167.943 302.261 5
-12 0 -6 172.313 348.906 5
-12 0 6 340.664 300.307 5
0 -6 -12 798.181 387.821 6
-6 0 -12 452.593 515.589 8
12 0 6 439.24 489.067 2
-12 0 -6 687.265 588.588 8
6 0 -12 303.219 406.321 6
-6 0 -12 788.912 375.424 6
-12 -2 -6 467.326 584.632 8
-6 2 -12 3288.02 403.008 6
-6 -2 12 1830.12 734.299 4
-6 2 -12 2759.41 345.075 5
-12 -2 -6 342.511 384.889 5
-2 -6 -12 1213.21 383.152 6
12 3 7 1781.64 826.099 3
12 -3 7 2980.19 690.747 2
-8 0 -12 1179.72 497.189 5
-12 0 -8 1041.3 539.891 5
8 0 12 591.855 729.074 2
-12 0 8 1960.35 419.405 5
8 -8 -12 375.328 475.781 6
-9 -7 -12 797.823 649.252 8
-12 -5 -9 1357.32 722.183 8
9 -5 -12 1354.46 537.859 6
-12 -7 -9 451.464 689.302 8
9 -7 -12 567.778 665.581 7
9 -7 -12 96.3421 477.442 6
-10 -8 -12 219.141 699.374 8
-10 -6 -12 874.15 656.593 8
-10 -4 -12 139.639 648.433 8
-10 -4 -12 1101.93 590.86 7
-10 -4 -12 30.5415 427.837 5
-10 -4 -12 322.517 429.353 6
-10 4 12 310.94 505.212 1
10 2 -12 503.814 542.671 6
-12 2 -10 866.429 512.808 5
-10 -2 -12 597.004 501.501 5
12 -2 -10 152.696 472.509 6
-10 -2 -12 172.677 465.107 6
10 -2 -12 158.49 656.371 7
10 2 12 1347.7 511.114 1
12 2 -10 1723.15 563.167 7
10 -2 -12 393.262 513.682 6
-12 -4 -10 35.0486 695.431 8
10 -4 -12 15.0046 602.22 7
10 4 12 189.933 469.781 1
-12 -6 -10 513.986 675.556 8
10 -8 -12 208.092 502.367 6
-11 -7 -12 523.934 696.708 8
-11 -5 -12 904.009 636.825 8
-11 -5 -12 186.391 433.581 5
12 -5 -11 79.5163 469.102 6
-11 5 12 857.685 892.416 4
-12 3 -11 43.5798 715.651 8
-11 -3 -12 252.305 692.181 8
-12 1 -11 1896.71 455.388 5
12 1 11 1065.01 829.098 3
-12 1 -11 1229.5 735.028 8
-11 -1 -12 1432.64 754.843 8
-11 -1 12 2093.65 874.884 4
-11 1 -12 770.013 714.813 8
-12 -1 -11 1298.77 762.636 8
-12 -3 -11 200.436 672.44 8
-11 3 -12 897.046 721.354 8
-12 3 11 1233.19 843.177 4
-12 -5 -11 150.001 650.025 8
-12 0 -12 1558.6 753.496 8
12 2 -12 297.401 493.047 6
-12 2 -12 262.668 736.504 8
12 -2 -12 645.954 457.815 6
-12 -2 -12 1137.02 738.621 8
-12 -4 -12 658.351 703.984 8
12 4 -12 345.79 559.629 7
-13 -1 0 147.742 512.197 8
1 0 -13 87.1034 424.259 7
-1 0 -13 767.855 441.703 7
0 1 -13 191.942 435.315 7
-13 0 1 113.233 328.905 5
-13 -1 0 107.515 333.147 5
-13 1 0 24.8589 561.583 8
-13 0 -1 93.3597 517.964 8
-13 0 1 182.343 501.513 8
-13 2 1 11320.5 496.803 5
-13 1 -2 11123.3 504.775 5
-13 -1 2 11725.7 497.012 5
-13 -2 -1 10935.2 500.777 5
-2 -1 -13 9184.61 585.649 7
13 1 2 10009.3 703.896 3
-13 2 1 10562 675.352 8
-13 1 -2 11507.7 703.099 8
-13 -1 2 8773.51 616.464 8
-13 -2 -1 9571.31 617.35 8
1 -2 -13 10859.6 539.835 6
-1 -2 13 10322.7 831.642 4
-13 -1 -2 11667.7 518.189 5
-13 -2 1 10498.2 500.699 5
2 -1 -13 9577.87 591.845 7
-13 2 -1 12469.3 691.577 8
-13 1 2 11465.4 670.389 8
-13 -1 -2 10202.8 660.538 8
-13 -2 1 9902.08 610.494 8
2 -1 -13 11856.1 539.79 6
2 1 13 10366.6 785.013 4
3 2 -13 3488.66 441.165 6
-13 -2 3 1562.94 516.403 8
-13 -3 -2 3345.61 543.044 8
3 -2 13 2758.16 743.365 4
-2 -3 13 2921.75 740.894 4
-13 -3 -2 4024.99 369.462 5
13 -3 2 3363.05 510.62 2
13 -2 -3 691.56 493.241 2
-13 3 2 1043.43 551.798 8
-13 2 -3 4328.12 605.401 8
-3 2 13 210.808 754.228 4
-13 3 0 23968.7 816.189 5
-13 0 -3 23738.7 809.654 5
13 0 -3 19105 929.296 3
13 3 0 19805.6 949.687 3
-3 0 -13 19663.8 839.741 8
-13 3 0 22694.3 916.035 8
-13 0 -3 20367.9 934.701 8
-13 0 3 21551 888.446 8
0 -3 -13 22229.7 836.644 6
-13 -3 0 19648 915.296 8
0 3 13 18456.1 842.915 1
3 0 -13 22542.3 845.176 6
-3 0 -13 23897.3 838.595 6
0 3 13 20062.8 1044.24 4
2 3 -13 4505.35 445.696 6
-13 -2 -3 3100.83 554.665 8
-13 -3 2 2377.03 545.151 8
-13 2 3 1806.32 357.786 5
13 -3 -2 2177.33 469.186 2
-2 3 13 2432 432.338 1
-13 3 -2 3451.56 564.989 8
-13 2 3 945.965 565.737 8
3 -2 -13 2229.35 407.061 6
-6 1 13 1818.12 972.933 4
-13 -1 6 1742.68 633.023 8
6 -1 13 1570.69 1045.94 4
6 -1 13 2796.4 656.935 2
1 -6 -13 121.201 736.219 7
-13 1 -6 3308.69 514.062 5
-6 -1 -13 80.4935 645.703 7
-6 -1 -13 722.092 442.864 5
6 1 -13 1394.04 653.871 7
1 6 13 4136.1 617.67 1
13 1 6 2702.58 972.517 3
-13 -1 6 3479.75 439.53 5
1 -6 -13 1615.86 553.536 6
-6 -1 -13 730.728 780.324 8
-13 1 -6 715.255 886.86 8
-6 -1 -13 23.9488 538.263 6
6 1 -13 413.344 621.084 6
-6 1 -13 1030.06 578.929 6
-6 -1 13 1491.37 1061.25 4
-6 1 -13 2315.45 453.267 5
-1 -6 -13 1428.97 757.056 7
6 -1 -13 808.323 691.093 7
-6 1 -13 823.114 642.701 7
-13 -1 -6 1688.58 523.572 5
6 1 13 1376.46 780.387 3
6 1 13 2461.54 651.807 2
13 -1 6 1966.82 765.581 2
-6 1 -13 1907.99 748.38 8
-1 -6 -13 2826.98 558.005 6
6 -1 -13 1235.62 585.392 6
-13 -1 -6 2369.97 864.482 8
-7 -6 -13 473.199 627.17 8
-13 -7 -6 666.837 740.705 8
-13 -6 -7 493.23 724.265 8
-6 -7 -13 1514.6 606.404 8
-6 -7 -13 626.983 693.055 7
-13 -6 -7 196.935 480.403 5
-6 -7 -13 51.4915 480.02 6
7 -6 -13 752.496 519.216 6
-8 -7 -13 282.078 638.201 8
-8 -5 -13 8.3356 592.545 8
5 -8 -13 1076.38 500.445 6
-13 -5 -8 730.472 660.613 8
-5 -8 -13 642.645 487.247 6
-5 8 13 782.377 527.584 1
8 -5 -13 199.434 499.03 6
-9 -8 -13 1211.39 674.07 8
-9 -6 -13 988.259 625.886 8
-9 -6 -13 106.367 442.111 6
-9 -4 -13 143.545 639.775 8
-13 4 -9 282.896 728.349 8
-9 -2 -13 810.123 464.347 6
-13 2 -9 1315.57 471.637 5
-9 -2 -13 2170.23 748.522 8
-9 -2 13 1745.29 992.422 4
-9 2 -13 1568.16 544.939 7
-13 -4 -9 1207.07 685.109 8
-13 -4 -9 646.02 446.558 5
9 -4 -13 640.689 496.567 6
-10 -7 -13 331.733 695.865 8
-10 -5 -13 442.326 677.036 8
-10 5 13 117.378 507.094 1
13 -3 -10 1581.53 581.935 7
-13 3 -10 149.73 722.804 8
-10 -3 -13 1275.45 668.575 8
10 -1 13 696.063 837.861 4
-13 1 -10 207.861 719.794 8
-10 -1 -13 458.065 713.258 8
-10 -1 -13 376.293 440.648 6
13 1 -10 509.941 453.951 6
13 1 -10 797.88 510.008 7
13 -1 10 808.631 647.828 2
-10 1 -13 61.3455 688.975 8
-13 -1 -10 325.987 782.28 8
-13 -3 -10 896.436 724.856 8
13 -8 -11 241.268 511.965 6
-11 -6 -13 3.41761 673.169 8
-11 -4 -13 164.23 689.412 8
13 -2 -11 344.142 456.598 6
-11 -2 -13 990.559 762.852 8
-11 0 13 717.577 911.874 4
-13 0 -11 226.864 442.936 5
11 0 13 300.921 750.752 3
-11 0 -13 1081.91 743.057 8
-13 0 -11 984.239 764.178 8
13 0 -11 147.941 471.819 6
-11 2 -13 578.168 467.614 5
11 -2 -13 51.2246 602.959 7
-11 2 -13 1087.37 694.448 8
-13 -2 -11 765.191 747.092 8
13 4 -11 769.611 558.873 7
-13 -8 -11 727.528 759.698 8
13 -7 -12 737.444 537.89 6
-12 -3 -13 1351.14 472.484 5
-12 -3 -13 2032.96 762.007 8
-12 -1 -13 1761.78 469.364 5
-12 -1 -13 1794.62 813.246 8
-13 -1 -12 1152.53 469.345 5
-12 1 -13 208.79 757.555 8
-13 5 12 22.2245 528.807 1
-13 5 12 268.755 917.356 4
-13 -7 -12 598.953 726.216 8
-13 0 13 3377.75 997.689 4
-13 -2 13 303.862 966.915 4
13 4 -13 240.824 615.133 7
-13 -6 -13 537.585 740.777 8
-13 6 13 548.749 580.784 1
-13 -8 -13 209.837 795.919 8
-13 -8 -13 840.81 525.973 5
2 2 -14 1556.5 593.568 6
-2 2 -14 908.444 575.731 6
-14 -2 -2 749.533 761.054 8
-14 -2 2 1124.19 689.663 8
-2 -2 14 2436.99 1092.63 4
2 2 -14 2644.22 658.806 7
-2 2 -14 2230.09 636.386 7
14 -2 -2 2410.2 815.965 3
-14 -2 -2 1132.04 497.712 5
14 -2 2 1878.66 728.728 2
14 2 2 981.268 827.119 3
-14 2 -2 2244.15 813.077 8
-3 1 14 2632.25 1023.05 4
-14 -3 -1 184.819 776.782 8
-14 3 1 803.337 509.698 5
-14 1 -3 297.167 515.348 5
14 -3 1 1968.58 719.254 2
3 1 -14 1729.39 699.055 7
-14 -3 -1 752.102 493.005 5
-14 3 1 1981.9 790.205 8
-14 1 -3 2410.47 900.806 8
14 3 -1 2711.66 887.838 3
-3 -1 14 2500.13 1113.14 4
-14 -3 1 1510.16 776.757 8
-1 3 14 1897.53 615.9 1
-14 3 -1 1394.77 529.796 5
3 -1 -14 943.064 717.047 7
-14 -1 -3 755.604 523.293 5
-14 3 -1 1426.79 829.146 8
-3 1 -14 1291.45 608.97 6
-14 -6 -4 1321.11 507.59 5
14 -4 6 1996.12 700.401 2
-14 -4 -6 1498.64 504.429 5
-14 -6 -6 1089.6 694.309 8
-7 -5 -14 2339.63 632.765 8
5 -7 -14 1615.9 685.667 7
5 -7 -14 3527.09 525.355 6
-7 5 14 1738.05 550.467 1
3 7 14 888.93 546.747 1
-14 -3 7 176.21 649.373 8
3 -7 -14 520.246 663.254 7
-14 3 -7 125.936 765.621 8
-7 -3 -14 1957.45 653.769 8
-14 -3 -7 298.95 731.974 8
-3 7 14 35.6425 566.21 1
-14 -5 -7 2213.59 698.047 8
-5 7 14 1803.4 540.775 1
-7 -7 -14 72.6433 616.038 8
-8 -6 -14 582.788 570.403 8
-8 -4 -14 1049.46 647.872 8
-8 4 14 194.053 926.541 4
-14 2 -8 3769.41 498.48 5
-8 -2 -14 5225.97 488.616 6
-14 2 -8 5699.38 778.993 8
0 -8 -14 751.871 712.717 7
-14 0 -8 803.589 463.57 5
8 0 14 1134.99 708.364 3
14 0 8 1265.27 633.919 2
-8 0 -14 1115.51 686.45 8
-14 0 -8 2075.44 787.414 8
0 8 14 853.82 548.922 1
-8 2 -14 3873.16 457.198 5
-8 2 -14 2667.24 561.971 7
-14 -2 -8 3348.64 725.163 8
8 4 14 760.908 717.946 3
-8 -8 -14 594.5 678.075 8
-9 -7 -14 431.059 665.046 8
-9 -5 -14 565.156 676.494 8
-9 -5 -14 102.119 421.833 5
-14 3 -9 1308.94 469.545 5
14 3 9 536.55 825.787 3
-9 -3 -14 13.2616 688.795 8
9 1 -14 211.801 523.74 6
9 1 -14 304.94 572.809 7
-9 -1 -14 133.947 721.413 8
-9 1 -14 398.264 693.38 8
-14 -3 -9 155.646 451.559 5
-14 -7 -9 74.0048 754.36 8
-10 -8 -14 339.267 731.131 8
-10 -6 -14 332.882 656.442 8
-10 -4 -14 199.949 687.998 8
-14 4 -10 2285.85 748.628 8
-10 -2 -14 566.138 725.164 8
-14 0 -10 313.95 465.095 5
-10 0 -14 264.422 701.354 8
-10 2 -14 3.82215 710.522 8
10 2 14 91.8789 469.682 1
-14 -6 -10 48.4034 735.667 8
-14 -8 -10 29.882 777.058 8
-11 -5 -14 555.919 728.965 8
-11 5 14 798.778 572.788 1
-14 3 -11 669.641 767.44 8
-11 -3 -14 648.095 753.899 8
-11 -1 -14 889.02 767.647 8
-11 1 -14 1166.37 781.368 8
14 -3 11 269.184 687.103 2
11 -3 -14 621.825 677.617 7
-14 -5 -11 141.139 726.217 8
11 -5 -14 117.956 712.17 7
-14 -7 -11 405.253 760.114 8
-12 -8 -14 789.127 775.34 8
-12 6 14 2866.79 1007.36 4
12 4 -14 1194.57 658.485 7
-14 2 -12 314.906 800.013 8
12 0 14 205.636 874.938 3
-14 0 -12 217.463 820.317 8
-14 -2 -12 612.315 821.681 8
-14 -4 -12 479.557 790.517 8
-14 -8 -12 138.439 823.188 8
-13 -7 -14 1350.79 793.987 8
-14 3 -13 474.264 495.554 5
13 3 -14 1298.1 652.132 7
-14 3 -13 1529.54 838.398 8
-13 -3 -14 1766.29 804.13 8
13 -1 14 105.407 680.345 2
-14 1 -13 1127.65 842.822 8
-13 -1 -14 928.95 840.198 8
-13 -1 14 223.844 1021.35 4
-13 1 -14 397.914 816.787 8
-14 -1 -13 879.688 878.497 8
13 -1 -14 32.456 570.613 6
-13 3 -14 486.863 531.461 5
-13 3 -14 518.876 838.967 8
-14 -3 -13 1892.37 855.21 8
-14 -7 -13 512.148 779.537 8
-14 -4 -14 1404.58 863.831 8
-14 -6 -14 322.523 839.568 8
4 3 -15 1442.12 574.724 6
-3 -4 -15 1376.22 548.944 6
-15 -5 -4 1366.94 707.791 8
-15 -4 5 1787.28 658.107 8
-15 4 -5 810.312 483.731 5
-15 5 4 723.711 450.366 5
-15 4 -5 571.933 750.937 8
15 4 5 384.549 789.075 3
-5 -4 -15 1078 486.823 6
-5 2 15 185.64 927.956 4
-15 -2 5 350.572 605.771 8
-15 -5 -2 828.298 702.416 8
5 -2 15 353.358 960.605 4
-15 2 -5 1291.46 487.552 5
2 -5 -15 538.552 684.832 7
-15 5 2 73.2508 709.017 8
-15 2 -5 703.488 768.537 8
0 -5 -15 1964.87 720.502 7
-15 -2 -5 366.644 740.832 8
-5 -2 15 540.449 998.188 4
-15 -5 2 713.219 696.812 8
15 -5 -2 34.7434 629.281 2
-2 -5 -15 552.27 660.436 7
-15 2 5 1428.1 426.965 5
-15 -2 -5 2352.5 486.125 5
15 -2 5 1346.33 664.521 2
-15 5 -2 96.4344 731.184 8
-15 2 5 1353.41 692.463 8
-15 -4 -5 580.408 654.755 8
-15 -5 4 871.868 690.224 8
-15 -4 -5 471.831 450.399 5
-15 5 -4 2181.5 708.484 8
-15 4 5 410.313 631.579 8
5 4 15 1630.12 897.968 4
-4 5 15 434.574 533.228 1
-15 6 5 3162.52 470.747 5
5 -6 -15 3039.37 518.602 6
-15 -3 6 187.915 627.266 8
-15 3 -6 210.019 481.943 5
-15 -3 6 453.987 400.872 5
-15 -1 6 1379 618.553 8
-6 1 15 1844.44 923.341 4
-15 -6 -1 694.8 720.865 8
1 -6 -15 573.287 650.878 7
-15 1 -6 1505.01 470.624 5
6 1 -15 1780.43 608.708 7
1 6 15 977.506 542.701 1
15 -1 -6 999.998 681.873 3
1 -6 -15 1451.07 494.033 6
-15 1 -6 1536.39 795.212 8
15 1 6 2710.61 638.716 2
6 1 15 1367.49 888.297 4
-6 -1 15 805.534 971.486 4
-15 1 6 1082.01 395.944 5
6 1 15 2020.75 702.27 3
-15 1 6 1040.69 683.973 8
-15 -1 -6 728.01 744.624 8
-6 -3 15 188.622 967.256 4
-15 3 6 1299.7 411.265 5
-15 -3 -6 2.5406 466.676 5
-15 3 6 138.684 629.438 8
6 -5 -15 2669.09 528.967 6
-15 -7 -6 4.1525 721.734 8
-15 -4 7 250.497 649.971 8
7 2 -15 2349.46 536.958 6
-15 -2 7 2026.16 578.296 8
15 0 7 2441.27 882.517 3
-7 0 -15 2138.08 631.486 8
-7 2 -15 1347.61 560.797 7
-15 -6 -7 1398.75 737.83 8
-8 -7 -15 248.182 503.35 6
-8 -3 -15 456.253 613.237 7
-8 -3 -15 1138.92 710.912 8
-8 3 15 299.715 925.084 4
8 -1 15 57.7849 930.49 4
-8 -1 -15 1126.9 686.586 8
8 1 -15 1763.13 527.823 6
8 1 15 1966.82 897.175 4
-8 1 -15 1489.14 678.618 8
8 3 15 508.219 549.526 2
8 3 15 817.334 853.559 4
-15 -5 -8 835.592 690.553 8
8 -5 -15 2262.26 547.525 6
-15 -7 -8 182.694 753.846 8
-7 -8 -15 118.676 489.965 6
8 -9 -15 570.119 567.723 6
-9 -6 -15 1266.37 655.758 8
-9 -6 -15 373.543 493.771 6
-15 4 -9 544.008 776.909 8
-9 4 15 368.049 986.383 4
-9 -4 -15 798.208 688.8 8
-15 2 -9 1042.47 771.544 8
-9 2 15 489.396 542.673 1
-9 -2 -15 266.768 736.206 8
15 2 9 1289.65 652.266 2
-9 0 -15 192.326 708.845 8
9 2 15 134.172 741.799 3
-15 -2 -9 690.047 753.185 8
-15 -4 -9 480.31 733.069 8
-15 -6 -9 199.969 755.442 8
9 6 15 862.891 910.614 4
-15 -8 -9 61.6629 801.395 8
-10 -7 -15 85.8123 694.329 8
-10 -7 -15 835.462 479.069 5
-10 -5 -15 835.248 732.791 8
-10 -5 -15 266.572 458.712 5
15 3 10 34.1187 846.629 3
-15 3 -10 1251.16 782.662 8
-10 -3 -15 758.458 781.473 8
-10 3 15 1168.23 983.305 4
10 1 -15 25.1033 567.839 6
-15 1 -10 182.105 784.196 8
-10 -1 -15 212.825 743.781 8
10 -1 -15 355.015 631.454 7
-10 1 -15 626.986 739.768 8
-15 -1 -10 773.021 800.731 8
10 3 15 275.75 640.738 2
10 -3 -15 78.3697 508.768 6
-15 -3 -10 398.701 758.203 8
-15 -5 -10 782.114 746.314 8
10 5 15 883.246 834.153 3
-15 -7 -10 1374.57 820.556 8
10 -7 -15 1620.47 795.776 7
10 7 15 398.291 828.151 3
-15 4 -11 748.525 848.965 8
-11 -4 -15 505.191 792.096 8
-11 2 15 952.951 1013.94 4
-11 -2 -15 175.314 480.202 5
-15 2 -11 428.755 818.363 8
-11 -2 -15 226.922 812.792 8
15 0 11 1507.39 926.541 3
-11 0 -15 207.763 772.925 8
-15 0 -11 1305.6 865.874 8
-11 2 -15 798.275 762.036 8
-15 -2 -11 417.168 823.051 8
-15 -4 -11 29.5479 803.248 8
-15 -8 -11 13.3671 839.991 8
11 -8 -15 746.766 601.935 6
-12 -7 -15 934.496 746.009 8
-15 3 -12 274.076 519.125 5
-15 1 -12 125.126 499.484 5
-15 1 -12 222.208 873.566 8
-15 -1 -12 708.466 906.324 8
12 -1 -15 1198.2 604.118 6
-15 -7 -12 29.0557 751.05 8
12 -7 -15 344.367 813.313 7
-15 -7 -12 99.4823 549.474 5
-13 -6 -15 472.47 832.288 8
-13 6 15 1242.52 1131.06 4
-13 -4 -15 229.982 514.708 5
-13 -4 -15 149.542 823.513 8
13 -2 15 299.448 730.415 2
-13 2 -15 2158.82 857.557 8
-13 4 -15 973.799 558.297 5
-15 -4 -13 428.674 844.464 8
-15 -6 -13 101.68 833.484 8
-15 3 -14 1297.89 908.334 8
15 3 14 1239.01 773.325 2
-14 -3 -15 601.06 909.663 8
-14 -1 -15 698.48 555.211 5
-15 1 -14 1136.57 899.053 8
-14 -1 -15 1831.77 921.06 8
-14 1 -15 236.062 541.855 5
-14 1 -15 759.526 918.046 8
-15 -1 -14 1625.86 943.734 8
-14 3 -15 134.718 856.719 8
-15 -3 -14 489.168 886.705 8
-16 0 0 4317.59 492.682 5
16 0 0 3157.64 615.288 2
-16 0 0 2365.91 754.724 8
-16 -1 -1 649.906 725.058 8
-16 -1 1 503.414 701.067 8
-1 -1 16 1831.28 1010.78 4
-16 1 1 59.7386 447.875 5
-16 -1 1 190.875 457.183 5
16 -1 -1 524.686 592.221 2
-16 1 -1 1276.57 784.34 8
-16 1 1 470.081 753.39 8
1 -1 -16 1115.21 528.944 6
-1 -1 -16 794.587 503.109 6
-1 1 -16 519.747 526.882 6
-16 -2 0 723.76 721.634 8
-2 0 16 1510.05 973.158 4
0 -2 16 687.195 985.796 4
2 0 -16 910.837 613.432 7
-2 0 -16 1163.01 592.625 7
-16 2 0 2019.16 759.224 8
16 0 2 1318.85 614.176 2
-16 0 -2 706.603 739.738 8
-16 0 2 561.684 697.268 8
2 0 -16 1276.07 550.705 6
2 2 -16 140.271 551.969 6
-16 -2 -2 696.161 720.247 8
-16 -2 2 1312.2 672.117 8
2 -2 -16 552.542 597.647 7
16 -2 2 861.913 655.088 2
16 2 2 118.742 789.729 3
-16 2 -2 91.7336 755.502 8
-16 2 2 65.3873 738.123 8
-16 -1 3 373.596 661.916 8
-16 -3 -1 168.111 655.566 8
-1 3 -16 549.367 608.953 7
16 1 3 61.6717 796.411 3
-16 3 1 109.16 713.307 8
16 3 -1 1094.91 766.75 3
-16 1 -3 208.07 792.372 8
1 -3 -16 19.5713 508.193 6
1 3 -16 947.254 528.917 6
-16 -3 1 119.402 648.879 8
3 -1 -16 399.883 594.657 7
1 3 -16 527.843 580.732 7
16 -1 3 655.994 621.112 2
-16 3 -1 419.585 715.432 8
-16 1 3 505.378 745.745 8
-16 -1 -3 1420.09 721.574 8
-16 -3 3 1955.18 611.88 8
-16 -3 -3 2210.37 459.65 5
-16 3 -3 2907.26 762.469 8
-16 3 3 3615.68 696.249 8
-16 -2 4 524.224 626.787 8
-4 -2 -16 126.376 596.69 7
-16 4 2 1272.77 709.883 8
-16 -4 0 1855.55 682.272 8
-4 0 -16 576.914 595.278 7
-16 4 0 460.247 718.355 8
0 4 16 30.2979 947.714 4
-16 0 4 157.958 680.853 8
4 0 -16 254.19 532.388 6
-16 -4 2 1139.85 681.062 8
16 -2 4 44.221 780.759 3
-16 4 -2 339.873 734.645 8
-16 2 4 1337.31 697.971 8
-16 -4 4 17.52 687.342 8
-16 4 4 494.52 448.019 5
-16 4 4 868.44 674.026 8
5 3 -16 536.607 548.522 6
-16 -3 5 332.969 637.904 8
-16 5 3 938.141 705.113 8
-16 -1 5 329.091 653.567 8
-16 1 -5 970.481 468.417 5
16 1 5 814.65 827.671 3
-16 5 1 1248.56 692.937 8
1 5 16 1211.1 900.509 4
-5 1 -16 559.438 528.819 6
-16 -5 1 1031.69 692.077 8
-16 5 -1 774.541 721.045 8
-16 1 5 1218.74 719.882 8
5 -1 -16 1002.77 510.251 6
5 3 16 462.634 513.56 1
-16 -5 3 1451.54 698.05 8
16 -5 -3 16.3437 602.929 2
-3 -5 -16 577.739 655.04 7
-16 3 5 318.81 677.616 8
-16 -5 -5 307.648 713.56 8
-16 -5 5 771.41 712.163 8
-16 5 -5 442.498 738.068 8
-16 -6 -4 173.678 749.447 8
-16 -4 6 1338.27 659.027 8
-16 4 -6 198.831 772.576 8
6 2 -16 818.263 555.833 6
-16 -2 6 523.782 619.26 8
-16 0 6 266.426 658.836 8
-6 -2 16 347.471 1001.9 4
-6 2 -16 32.9291 592.267 7
-16 2 6 582.97 667.312 8
6 -2 -16 1186.29 519.574 6
-16 -4 -6 317.955 685.168 8
-16 -6 -6 595.237 764.148 8
-16 -7 -5 1112.17 743.368 8
-16 -5 7 656.029 678.82 8
5 -7 -16 3.93763 721.474 7
-7 -5 -16 325.346 707.311 7
-16 5 -7 172.164 770.845 8
-16 -3 7 1267.52 661.82 8
-16 3 -7 30.3768 774.888 8
-16 1 -7 458.689 797.244 8
7 1 -16 635.836 565.989 6
-7 1 -16 510.411 534.608 6
16 -1 7 1050.46 683.194 2
7 -1 -16 771.022 515.957 6
-16 -1 -7 291.623 759.102 8
-16 -3 -7 212.738 749.917 8
7 3 16 354.769 532.09 1
-16 -5 -7 988.487 698.004 8
-16 -7 -7 557.104 804.076 8
-7 -7 -16 1025.83 518.836 6
7 -7 -16 18.348 545.017 6
-8 -6 -16 250.115 526.948 6
-16 4 -8 600.459 799.433 8
-16 2 -8 80.9243 475.251 5
-8 -2 -16 751.818 661.876 7
-16 2 -8 4.39708 800.015 8
16 2 8 651.895 680.113 2
-16 0 -8 2590.53 864.555 8
-8 0 -16 1751.19 534.494 6
16 -2 8 154.556 680.469 2
-16 -2 -8 396.162 784.996 8
-16 -4 -8 266.612 770.378 8
-4 8 16 807.032 588.939 1
-4 -8 -16 406.164 757.798 7
-16 -6 -8 1104.8 776.846 8
8 6 16 614.763 945.406 4
-9 -5 -16 837.409 723.575 7
5 -9 -16 454.081 537.938 6
-9 -5 -16 275.019 531.015 6
-9 -3 -16 1345.77 679.043 7
9 3 -16 760.224 626.617 7
-9 3 16 98.1444 568.789 1
-16 3 -9 312.678 815.142 8
-16 1 -9 462.654 489.644 5
-16 1 -9 621.005 833.957 8
-9 1 -16 135.779 734.641 8
-16 -1 -9 629.494 836.932 8
-16 -3 -9 182.115 779.125 8
-9 3 -16 163.309 481.613 5
-9 3 -16 399.874 594.549 7
-16 -3 -9 47.9088 491.913 5
-3 -9 -16 742.759 523.407 6
-16 -5 -9 244.487 783.561 8
-16 4 -10 631.505 823.097 8
10 2 -16 1695.11 654.344 7
-10 -2 -16 734.589 469.614 5
-16 2 -10 602.432 834.995 8
-10 -2 -16 741.279 822.371 8
16 0 10 905.426 740.418 2
-10 0 -16 34.9793 767.878 8
-16 0 -10 475.75 868.331 8
-16 -2 -10 941.651 828.009 8
-16 -4 -10 525.8 813.614 8
-16 -8 -10 238.486 854.562 8
-11 -1 -16 1833.65 831.816 8
-16 -5 -11 2209.52 864.904 8
-16 -7 -11 593.447 826.059 8
-16 4 -12 1039.63 568.6 5
-16 4 -12 172.834 896.903 8
-12 -4 -16 1230.81 855.133 8
12 2 -16 295.958 692.476 7
-16 2 -12 790.352 886.669 8
-12 2 -16 306.874 834.394 8
-16 -4 -12 1926.66 887.875 8
-13 -1 -16 209.081 536.399 5
-13 1 16 602.256 617.27 1
-16 1 -13 594.48 923.194 8
-13 -1 -16 107.213 881.951 8
-13 1 -16 391.471 864.317 8
-16 -1 -13 330.423 932.02 8
17 0 -1 584.844 616.329 2
-17 1 0 769.626 777.045 8
-17 0 -1 2051.02 760.282 8
-17 0 1 2124.18 745.179 8
-17 -1 0 164.25 706.969 8
-17 -1 2 132.956 729.414 8
-17 -1 2 59.9426 451.651 5
-17 2 1 743.104 738.025 8
-17 -2 1 80.8488 719.685 8
-17 2 -1 287.68 470.824 5
-17 2 -1 424.983 764.899 8
-17 1 2 535.76 775.221 8
-17 -2 3 17.7324 706.18 8
17 -2 -3 203.362 815.313 3
17 -2 -3 261.4 624.664 2
-17 3 2 403.686 731.454 8
17 -3 0 146.104 647.223 2
-17 3 0 595.628 740.679 8
-17 0 3 729.679 724.764 8
3 2 17 724.758 929.579 4
-17 -3 2 487.076 656.579 8
2 3 -17 193.056 603.196 7
-2 3 17 476.711 547.339 1
-17 2 3 241.897 754.13 8
-17 -4 -3 790.843 676.334 8
-17 -3 4 478.238 669.925 8
-17 4 3 599.779 710.551 8
-17 3 -4 708.767 774.861 8
-17 -1 4 2300.45 710.177 8
1 -4 -17 2308.11 671.539 7
-17 -1 4 2155.74 455.412 5
-17 4 1 943.188 725.943 8
-17 1 -4 1085.66 823.12 8
-4 1 -17 1456.25 562.511 6
-1 4 17 1004.16 559.058 1
-17 4 -1 1867.54 497.431 5
17 1 -4 1419.71 764.161 3
-17 1 4 1552.36 743.778 8
-17 -1 -4 2166.25 755.873 8
-17 -3 -4 113.433 747.025 8
-17 -4 3 18.6038 714.373 8
-17 -4 3 375.061 468.415 5
-17 4 -3 271.848 767.345 8
-17 3 4 280.926 709.943 8
-17 -5 -4 837.496 739.907 8
-17 -4 5 925.304 725.895 8
-17 4 -5 983.666 517.871 5
-17 5 4 963.067 739.94 8
-17 4 -5 1040.55 758.557 8
17 4 5 283.268 841.482 3
4 -5 -17 628.425 552.607 6
-17 -2 5 2921.77 718.093 8
-17 -5 -2 330.698 754.211 8
-17 2 -5 1715.06 780.753 8
2 -5 -17 1428.56 553.995 6
-17 5 0 405.673 497.761 5
-17 0 -5 460.236 798.883 8
-17 0 5 285.699 693.389 8
-17 2 5 1871.59 742.035 8
-17 -2 -5 238.734 768.378 8
-17 -4 -5 872.55 721.852 8
-17 -5 4 452.154 745.828 8
-17 5 -4 968.529 761.514 8
-17 4 5 468.873 719.313 8
-6 5 17 671.625 576.738 1
-17 -6 -5 363.719 798.967 8
-17 -5 6 123.299 703.985 8
-17 5 -6 865.065 532.618 5
5 6 17 35.0149 591.471 1
-17 5 -6 239.536 805.536 8
5 -6 -17 332.42 549.936 6
-17 -3 6 523.715 650.248 8
-17 -6 -3 29.9488 779.871 8
-17 3 -6 271.345 816.443 8
-17 -1 6 997.225 697.435 8
-17 -6 -1 435.412 749.754 8
-6 -1 -17 1631.1 659.425 7
-17 1 -6 72.5817 806.283 8
-17 -1 -6 150.352 780.784 8
-17 -3 -6 924.94 782.807 8
-17 -5 -6 1431.99 739.096 8
-5 -6 -17 1383.45 729.004 7
-5 6 17 72.0789 977.505 4
-17 -7 -6 716.382 843.533 8
-17 -7 -4 860.524 794.401 8
-17 4 -7 168.914 527.034 5
-17 -7 -4 453.907 504.105 5
-17 4 -7 46.1208 826.961 8
17 4 7 31.2693 877.954 3
-7 2 17 369.184 1018.23 4
-17 2 -7 951.433 838.149 8
0 -7 -17 376.099 546.783 6
-17 0 -7 55.7013 861.975 8
-7 0 -17 773.855 552.286 6
17 -2 7 113.832 726.778 2
7 -2 -17 351.71 551.76 6
-17 -2 -7 4.39009 808.007 8
-17 -4 -7 794.948 788.122 8
-4 -7 -17 1120.08 527.493 6
7 4 17 695.745 979.804 4
-17 -6 -7 673.837 793.637 8
17 7 6 1494.09 862.145 3
3 8 17 389.04 599.26 1
8 3 -17 217.28 659.462 7
-17 3 -8 143.59 848.225 8
-8 3 17 560.609 583.714 1
-8 1 17 332.904 1023.61 4
-17 1 -8 242.238 510.108 5
-17 1 -8 764.342 868.91 8
-8 -1 17 1084.68 1044.71 4
-17 -1 -8 696.332 500.342 5
-1 -8 -17 282.906 550.917 6
-17 -1 -8 302.382 889.547 8
-17 -3 -8 82.8637 798.436 8
-3 -8 -17 176.594 550.118 6
8 7 17 379.474 626.125 1
-17 -7 -8 68.5962 828.673 8
-7 -8 -17 609.038 817.04 7
6 -9 -17 467.57 828.5 7
2 -9 -17 564.07 552.954 6
-17 2 -9 1525.06 884.12 8
-9 0 17 247.664 1092.82 4
-17 0 -9 1095.54 867.029 8
9 2 17 1441.66 1032.59 4
-9 -2 17 242.362 1096.35 4
-9 2 -17 215.245 642.475 7
-17 -6 -9 277.163 815.446 8
9 -6 -17 264.791 805.746 7
-17 -5 -10 127.208 868.412 8
10 -5 -17 868.763 812.337 7
-17 4 -11 249.06 565.442 5
-17 4 -11 419.765 914.049 8
-17 2 -11 529.27 912.464 8
-17 0 -11 149.175 536.311 5
17 0 11 369.055 992.552 3
-17 0 -11 1078.17 977.385 8
-17 -2 -11 1362.34 982.25 8
-17 -4 -11 543.989 896.495 8
-17 -4 -11 255.326 552.438 5
1 1 18 2727 1004.82 4
-1 -1 18 46.6399 1007.01 4
-18 -1 -1 4.1366 766.469 8
0 2 -18 260.752 549.852 6
-2 0 18 975.301 1005.07 4
18 0 -2 442.694 789.682 3
18 0 2 139.263 665.755 2
-18 0 -2 280.086 829.872 8
-18 0 2 634.658 764.863 8
2 0 -18 56.4271 559.833 6
-18 -2 -2 625.827 758.431 8
-2 -2 18 2008.06 1069.11 4
2 2 -18 353.865 644.871 7
-18 -2 2 330.679 482.515 5
-18 2 -2 381.595 814.38 8
-18 2 2 184.459 816.09 8
2 -2 -18 374.858 544.659 6
-18 -3 -1 357.983 770.933 8
-18 1 -3 345.884 477.394 5
-18 1 -3 782.501 832.802 8
-18 -1 3 493.639 755.151 8
3 1 -18 589.813 575.296 6
1 3 18 502.57 965.674 4
-3 -1 18 324.615 1014.02 4
1 -3 18 733.361 1026.49 4
-3 1 -18 242.214 643.135 7
-18 1 3 20.2082 500.404 5
-18 3 -1 428.747 799.45 8
-18 1 3 863.879 801.803 8
-1 -3 -18 2.99532 517.479 6
3 -1 -18 476.032 579.063 6
-18 -1 -3 29.9646 807.637 8
3 3 18 1096.47 979.583 4
-18 -3 -3 992.843 777.586 8
3 3 -18 697.777 580.939 6
-3 3 18 13.2737 585.932 1
3 3 18 256.918 557.564 1
-18 3 3 277.4 480.392 5
-18 3 -3 953.521 823.372 8
-18 3 3 574.954 777.379 8
-3 -3 -18 860.229 518.139 6
4 2 -18 698.385 599.674 6
-18 -2 4 343.536 762.153 8
-18 -4 -2 35.4155 731.392 8
2 4 18 140.485 575.35 1
-4 -2 -18 168.852 661.09 7
4 2 -18 99.5178 633.527 7
18 -2 -4 1010.33 817.812 3
-18 2 -4 645.991 819.214 8
-18 -4 0 486.62 733.835 8
18 0 4 1614.04 881.349 3
-18 0 -4 373.239 856.132 8
-18 0 4 183.468 753.972 8
0 4 18 856.926 951.633 4
-18 4 -2 2204.07 527.848 5
-2 4 18 560.543 568.807 1
18 -2 4 449.888 854.965 3
18 -2 4 888.431 712.616 2
-18 4 -2 231.358 763.038 8
18 4 2 1824.03 868.72 3
-18 2 4 216.132 812.423 8
-2 4 18 330.348 995.388 4
-18 -2 -4 106.272 768.632 8
-18 -4 -4 146.552 793.063 8
-18 4 -4 488.543 533.069 5
-18 4 4 370.352 763.129 8
-18 4 -4 812.286 833.912 8
4 4 18 330.39 999.935 4
-18 -3 5 940.559 717.36 8
-18 -5 -3 40.6203 724.219 8
-18 5 3 81.4671 517.61 5
5 3 -18 576.544 670.716 7
-18 -3 5 932.345 481.485 5
-18 5 3 1305.6 789.263 8
-18 3 -5 41.0573 848.168 8
3 5 18 289.8 1018.66 4
-18 -5 -1 1027.06 772.497 8
-18 1 -5 865.583 490.544 5
-18 1 -5 1287.85 880.294 8
-18 -1 5 1005.18 739.637 8
-18 -5 1 1226.16 781.736 8
-18 1 5 1645.23 477.201 5
-18 5 -1 174.29 762.652 8
-1 -5 -18 467.187 561.873 6
-18 1 5 1606.48 819.359 8
-1 5 18 911.493 1026.74 4
-18 -1 -5 194.842 818.904 8
5 -1 -18 163.184 604.283 6
-18 -3 -5 374.797 818.807 8
-3 5 18 340.802 607.535 1
5 3 18 277.381 587.627 1
-18 -3 -5 209.387 492.815 5
-18 5 -3 86.0705 813.739 8
-18 3 5 889.759 765.633 8
-3 -5 -18 165.716 540.881 6
-18 5 -5 630.703 849.045 8
5 -5 -18 895.907 578.671 6
-5 -5 -18 622.867 571.951 6
5 5 18 1281.34 616.617 1
-18 -4 6 406.307 770.875 8
-18 -6 -4 111.739 814.152 8
-18 6 4 616.864 532.379 5
-18 4 -6 513.937 830.994 8
18 4 6 2432.36 908.314 3
-18 -2 6 71.3188 755.539 8
-18 -6 -2 393.848 821.747 8
2 -6 -18 1112.13 784.648 7
-18 2 -6 60.1269 853.517 8
2 6 18 442.741 977.431 4
-18 -6 0 1048.49 820.802 8
0 6 18 828.111 967.535 4
-18 0 -6 157.54 901.776 8
6 0 -18 477.571 614.423 6
-18 -6 2 250.564 791.34 8
-18 -2 -6 27.1373 836.636 8
-18 -6 -6 1367.61 792.492 8
-18 -7 -5 586.054 852.347 8
-18 5 -7 161.942 894.907 8
-18 1 -7 4.83997 912.028 8
-1 7 18 228.752 1013.28 4
7 -1 -18 849.198 620.034 6
-5 7 18 3353.83 1099.11 4
-18 -7 -7 856.485 864.91 8
7 -7 -18 96.2511 582.458 6
18 6 8 950.826 975.633 3
4 -8 -18 65.1838 819.723 7
-18 4 -8 4.8963 889.217 8
-18 -4 -8 18.396 870.888 8
18 -4 8 624.577 801.049 2
-4 -8 -18 60.1768 575.758 6
-18 -6 -8 105.255 831.773 8
-18 5 -9 1031.93 591.821 5
-9 -5 -18 1065.74 800.929 7
-18 5 -9 1227.49 937.233 8
18 5 9 1051.49 974.792 3
-18 3 -9 88.5317 916.432 8
9 1 -18 263.738 731.697 7
-18 1 -9 318.645 547.059 5
1 -9 -18 3.27631 570.086 6
-18 1 -9 572.398 899.44 8
1 9 18 18.289 650.394 1
-18 -1 -9 934.65 981.467 8
-1 9 18 648.69 667.627 1
-18 -3 -9 175.823 904.73 8
-18 -5 -9 943.113 911.357 8
9 -5 -18 304.189 822.743 7
-10 2 18 54.257 1159.19 4
-18 2 -10 901.114 558.95 5
-18 2 -10 19.8175 955.939 8
-18 0 -10 325.29 985.573 8
-18 -2 -10 390.656 959.269 8
0 -1 19 328.746 1075.5 4
1 0 -19 225.878 687.557 7
0 1 -19 1160.35 661.562 7
19 -1 0 233.089 727.771 2
19 0 1 97.2855 709.626 2
-19 1 0 931.382 877.128 8
-19 0 -1 64.3214 883.839 8
-19 0 1 301.935 840.39 8
0 -1 -19 1099.23 597.87 6
-19 -1 0 770.742 807.392 8
-19 -2 -1 600.482 792.439 8
1 2 19 1981.22 1074.71 4
2 1 -19 213.418 670.449 7
-19 2 1 679.361 854.581 8
-19 1 -2 310.726 910.254 8
19 1 2 877.778 701.006 2
-19 -2 1 615.676 798.146 8
-2 -1 19 547.617 1070.29 4
-2 1 -19 118.878 695.735 7
-19 2 -1 259.745 523.588 5
1 2 -19 244.75 663.978 7
-19 2 -1 571.879 857.092 8
2 -1 -19 3.49417 606.194 6
-19 -3 -2 969.646 834.251 8
-2 3 -19 277.338 611.809 6
-19 2 -3 70.145 521.856 5
19 -3 2 1140.77 874.503 3
-19 2 -3 119.141 845.921 8
-19 -3 0 71.5929 811.775 8
3 0 -19 837.308 679.913 7
0 3 -19 351.993 675.85 7
19 -3 0 381.446 852.448 3
19 0 3 1447.54 731.586 2
-19 3 0 980.367 848.665 8
19 3 0 521.171 903.728 3
-19 0 -3 280.286 900.287 8
-2 3 19 2692.26 1060.9 4
-19 -3 2 520.091 814.571 8
-2 -3 -19 1269.11 747.054 7
19 -2 3 325.205 978.007 3
-19 3 -2 998.712 862.47 8
3 -2 -19 1066.61 597.801 6
-19 -2 -3 1136.28 867.797 8
-19 -4 -1 24.1607 534.797 5
19 4 -1 1159.19 875.872 3
19 4 1 1255.64 906.284 3
4 -1 -19 130.894 649.37 6
-19 -5 -4 1179.97 812.034 8
19 -5 4 1030.09 757.188 2
4 -5 -19 415.009 794.139 7
-19 5 4 669.551 534.107 5
-19 4 -5 19.2896 901.108 8
-19 -4 -5 109.506 872.46 8
-19 -5 4 861.112 808.205 8
-19 5 -4 1410.02 879.087 8
-19 -6 -5 997.668 829.464 8
-19 5 -6 290.194 590.786 5
-19 5 -6 274.19 893.36 8
5 6 19 1988.72 1095.39 4
-19 -6 -3 834.181 865.084 8
-19 3 -6 161.935 549.254 5
-19 3 -6 295.726 899.702 8
-19 -6 -1 876.651 853.378 8
-19 -6 -1 223.764 533.004 5
-6 1 -19 454.196 619.777 6
-19 -6 1 163.995 833.166 8
-19 -3 -6 249.465 863.145 8
6 3 19 1236.45 1105.2 4
-19 -6 3 369.119 854.202 8
-6 3 -19 372.379 699.265 7
-3 6 19 216.49 651.782 1
-19 -5 -6 501.108 887.351 8
19 6 5 967.646 946.098 3
-19 -7 -4 1401.99 899.385 8
-19 4 -7 2173.4 938.32 8
-19 -7 -2 958.217 859.738 8
-7 -2 -19 126.682 752.5 7
-19 2 -7 142.474 952.357 8
-7 0 19 1223.61 1182.7 4
7 0 -19 592.971 748.54 7
-19 0 -7 1570.5 954.856 8
-7 2 -19 766.834 623.452 6
19 -2 7 668.991 784.666 2
-19 -2 -7 1017.16 937.717 8
-19 -4 -7 1168.01 905.641 8
-4 -7 -19 202.802 836.615 7
-8 1 19 409.77 1172.94 4
8 1 -19 92.4285 741.017 7
-19 1 -8 1422.87 976.018 8
-19 -1 -8 406.68 573.481 5
-19 -1 -8 577.142 1005.35 8
8 -1 -19 251.251 652.375 6
-20 0 0 2804.36 955.002 8
-1 -1 20 6.4025 1134.45 4
-20 1 -1 855.703 923.621 8
-20 1 1 1406.27 922.325 8
-20 -1 -1 625.135 908.981 8
-20 -1 1 70.8592 867.303 8
-20 2 0 137.89 548.835 5
20 0 2 428.771 951.75 3
-20 2 0 305.43 874.891 8
-20 0 2 165.438 936.401 8
-20 -2 0 699.838 857.245 8
-20 -2 2 517.741 863.551 8
2 2 20 121.413 1101.08 4
-20 2 -2 640.985 879.72 8
-20 2 2 678.378 879.316 8
2 -2 -20 393.486 588.629 6
-20 -2 -2 171.967 864.192 8
-20 -3 -1 201.125 864.539 8
-1 3 -20 245.231 642.654 6
-20 3 1 796.628 547.613 5
1 3 20 21.3276 627.852 1
-20 3 1 297.809 865.157 8
-20 1 -3 1219.35 950.385 8
-20 -1 3 536.924 852.372 8
-20 -3 1 65.3327 843.819 8
3 1 20 2140.38 1145 4
-3 -1 20 1391.36 1182.36 4
20 -1 3 131.456 975.333 3
-20 3 -1 550.923 919.595 8
-20 1 3 1095.69 911.457 8
-20 -1 -3 770.665 918.788 8
3 -1 -20 1495.43 634.112 6
-20 -3 -3 1009.66 858.209 8
-3 3 20 278.626 1074.78 4
3 3 20 793.332 1096.92 4
-20 -3 3 89.0949 811.384 8
3 -3 -20 81.6141 804.852 7
20 -3 3 1089.82 968.909 3
-20 -3 -3 265.044 554.681 5
-3 3 20 573.307 644.734 1
-20 3 -3 316.88 916.891 8
-20 3 3 1419.59 885.684 8
-20 -2 4 594.241 846.49 8
4 2 -20 322.876 639.564 6
-20 -4 -2 624.054 892.127 8
-20 4 2 285.318 552.567 5
4 2 -20 194.645 739.608 7
-20 4 2 1118.08 858.945 8
-20 2 -4 491.78 918.691 8
2 4 20 285.505 1112.83 4
-20 -4 0 219.63 881.785 8
0 4 20 959.77 642.119 1
0 -4 -20 388.756 809.294 7
20 -4 0 830.835 918.822 3
-20 4 0 502.945 872.393 8
-20 0 -4 297.802 956.784 8
-20 0 4 1507.11 892.869 8
-4 0 -20 545.015 622.93 6
-4 2 -20 329.076 665.007 6
-20 -4 2 238.076 800.493 8
-20 4 -2 913.908 577.534 5
-4 2 -20 89.8338 732.487 7
-20 -2 -4 191.957 554.212 5
-20 4 -2 658.746 907.204 8
-20 2 4 1624.16 840.328 8
20 4 2 112.064 961.869 3
-2 -4 -20 56.0825 579.368 6
-20 -2 -4 249.267 943.136 8
4 -4 -20 234.711 820.201 7
-20 -5 -1 428.418 849.001 8
-20 1 -5 318.666 570.528 5
-20 5 1 229.995 852.731 8
-20 1 -5 952.773 983.915 8
-20 -5 1 279.716 812.43 8
20 -1 5 2658.32 1042.97 3
20 -1 5 561.734 827.814 2
-20 5 -1 894.828 889.199 8
-1 -5 -20 61.6742 625.608 6
-20 -1 -5 354.104 972.987 8
#BEGIN Loops that were not found in dictionaries:
loop_
_smtbx_masks_void_nr
_smtbx_masks_void_average_x
_smtbx_masks_void_average_y
_smtbx_masks_void_average_z
_smtbx_masks_void_volume
_smtbx_masks_void_count_electrons
1 -0.318 -0.891 -0.931 14624.9 4139.1
#END Loops that were not found in dictionaries
