#------------------------------------------------------------------------------
#$Date: 2017-12-10 21:25:10 +0200 (Sun, 10 Dec 2017) $
#$Revision: 204138 $
#$URL: file:///home/coder/svn-repositories/cod/cif/7/22/77/7227789.cif $
#------------------------------------------------------------------------------
#
# This file is available in the Crystallography Open Database (COD),
# http://www.crystallography.net/
#
# All data on this site have been placed in the public domain by the
# contributors.
#
data_7227789
loop_
_publ_author_name
'Patyk-Ka\'zmierczak, Ewa'
'Warren, Mark R.'
'Allan, David R.'
'Katrusiak, Andrzej'
_publ_section_title
;
 Pressure inverse solubility and polymorphism of an edible
 \g-cyclodextrin-based metal-organic framework.
;
_journal_issue                   13
_journal_name_full               'Physical chemistry chemical physics : PCCP'
_journal_page_first              9086
_journal_page_last               9091
_journal_paper_doi               10.1039/c7cp00593h
_journal_volume                  19
_journal_year                    2017
_chemical_absolute_configuration rm
_chemical_formula_moiety         'C48 H80 O40, 2(KOH)'
_chemical_formula_sum            'C48 H82 K2 O42'
_chemical_formula_weight         1409.34
_chemical_name_common            '\g-cyclodextrin-metal-organic framework'
_chemical_name_systematic
'catena-((\m8-\g-Cyclodextrin)-di-potassium dihydroxide)'
_space_group_crystal_system      cubic
_space_group_IT_number           211
_space_group_name_Hall           'I 4 2 3'
_space_group_name_H-M_alt        'I 4 3 2'
_symmetry_space_group_name_Hall  'I 4 2 3'
_symmetry_space_group_name_H-M   'I 4 3 2'
_atom_sites_solution_hydrogens   geom
_atom_sites_solution_primary     direct
_audit_creation_date             2017-01-18
_audit_creation_method
;
Olex2 1.2
(compiled 2017.01.04 svn.r3372 for OlexSys, GUI svn.r5289)
;
_cell_angle_alpha                90.0
_cell_angle_beta                 90.0
_cell_angle_gamma                90.0
_cell_formula_units_Z            12
_cell_length_a                   31.2093(16)
_cell_length_b                   31.2093(16)
_cell_length_c                   31.2093(16)
_cell_measurement_reflns_used    1891
_cell_measurement_temperature    269.99(10)
_cell_measurement_theta_max      12.9810
_cell_measurement_theta_min      3.1560
_cell_volume                     30398(3)
_computing_cell_refinement       'CrysAlisPro 1.171.38.41 (Rigaku OD, 2015)'
_computing_data_collection       'CrysAlisPro 1.171.38.41 (Rigaku OD, 2015)'
_computing_data_reduction        'CrysAlisPro 1.171.38.41 (Rigaku OD, 2015)'
_computing_molecular_graphics    'Olex2 (Dolomanov et al., 2009)'
_computing_publication_material  'Olex2 (Dolomanov et al., 2009)'
_computing_structure_refinement  'ShelXL (Sheldrick, 2015)'
_computing_structure_solution    'ShelXS (Sheldrick, 2008)'
_diffrn_ambient_environment      'ispropanol:water mother liquor'
_diffrn_ambient_temperature      269.99(10)
_diffrn_detector                 'CCD plate'
_diffrn_detector_area_resol_mean 16.1544
_diffrn_detector_type            Eos
_diffrn_measured_fraction_theta_full 0.938
_diffrn_measured_fraction_theta_max 0.938
_diffrn_measurement_details
;
List of Runs (angles in degrees, time in seconds):

  # Type    Start    End  Width  t~exp~   \w     \q     \k     \f   Frames
--------------------------------------------------------------------------
  1  \w    -68.00  54.00   1.00   15.00    --  -18.72   0.00-150.00  122
  2  \w    -73.00  20.00   1.00   15.00    --  -18.72 -19.00  60.00   93
  3  \w    -40.00   8.00   1.00   15.00    --  -18.72  57.00  60.00   48
  4  \w    -25.00  23.00   1.00   15.00    --  -18.72 -99.00   0.00   48
;
_diffrn_measurement_device       'four-circle diffractometer'
_diffrn_measurement_device_type  'Xcalibur, Eos'
_diffrn_measurement_method       '\w scans'
_diffrn_orient_matrix_type
'CrysAlisPro convention (1999,Acta A55,543-557)'
_diffrn_orient_matrix_UB_11      0.0032543000
_diffrn_orient_matrix_UB_12      0.0169472000
_diffrn_orient_matrix_UB_13      0.0147675000
_diffrn_orient_matrix_UB_21      0.0001663000
_diffrn_orient_matrix_UB_22      -0.0149725000
_diffrn_orient_matrix_UB_23      0.0171089000
_diffrn_orient_matrix_UB_31      0.0224746000
_diffrn_orient_matrix_UB_32      -0.0023531000
_diffrn_orient_matrix_UB_33      -0.0023986000
_diffrn_radiation_monochromator  graphite
_diffrn_radiation_probe          x-ray
_diffrn_radiation_type           MoK\a
_diffrn_radiation_wavelength     0.71073
_diffrn_reflns_av_R_equivalents  0.1616
_diffrn_reflns_av_unetI/netI     0.0397
_diffrn_reflns_Laue_measured_fraction_full 0.938
_diffrn_reflns_Laue_measured_fraction_max 0.938
_diffrn_reflns_limit_h_max       20
_diffrn_reflns_limit_h_min       -20
_diffrn_reflns_limit_k_max       20
_diffrn_reflns_limit_k_min       -20
_diffrn_reflns_limit_l_max       19
_diffrn_reflns_limit_l_min       -20
_diffrn_reflns_number            20814
_diffrn_reflns_point_group_measured_fraction_full 0.956
_diffrn_reflns_point_group_measured_fraction_max 0.956
_diffrn_reflns_theta_full        13.690
_diffrn_reflns_theta_max         13.690
_diffrn_reflns_theta_min         2.919
_diffrn_source                   'fine-focus sealed X-ray tube'
_diffrn_source_type              'Enhance (Mo) X-ray Source'
_exptl_absorpt_coefficient_mu    0.161
_exptl_absorpt_correction_T_max  1.00000
_exptl_absorpt_correction_T_min  0.42049
_exptl_absorpt_correction_type   multi-scan
_exptl_absorpt_process_details
;
CrysAlisPro 1.171.38.41 (Rigaku Oxford Diffraction, 2015)
Empirical absorption correction using spherical harmonics,
 implemented in SCALE3 ABSPACK scaling algorithm.
;
_exptl_crystal_colour            'clear colourless'
_exptl_crystal_colour_lustre     clear
_exptl_crystal_colour_primary    colourless
_exptl_crystal_density_diffrn    0.924
_exptl_crystal_description       cube
_exptl_crystal_F_000             8928
_exptl_crystal_recrystallization_method
'Crystal grown from water solution by isopropanol vapour difussion method'
_exptl_crystal_size_max          0.5
_exptl_crystal_size_mid          0.48
_exptl_crystal_size_min          0.47
_refine_diff_density_max         0.141
_refine_diff_density_min         -0.138
_refine_diff_density_rms         0.030
_refine_ls_abs_structure_details
;
 Flack x determined using 241 quotients [(I+)-(I-)]/[(I+)+(I-)]
 (Parsons, Flack and Wagner, Acta Cryst. B69 (2013) 249-259).
;
_refine_ls_abs_structure_Flack   0.17(12)
_refine_ls_extinction_method     none
_refine_ls_goodness_of_fit_ref   1.086
_refine_ls_hydrogen_treatment    constr
_refine_ls_matrix_type           full
_refine_ls_number_parameters     93
_refine_ls_number_reflns         766
_refine_ls_number_restraints     21
_refine_ls_restrained_S_all      1.177
_refine_ls_R_factor_all          0.0652
_refine_ls_R_factor_gt           0.0594
_refine_ls_shift/su_max          0.000
_refine_ls_shift/su_mean         0.000
_refine_ls_structure_factor_coef Fsqd
_refine_ls_weighting_details
'w=1/[\s^2^(Fo^2^)+(0.0986P)^2^+25.3536P] where P=(Fo^2^+2Fc^2^)/3'
_refine_ls_weighting_scheme      calc
_refine_ls_wR_factor_gt          0.1473
_refine_ls_wR_factor_ref         0.1534
_reflns_Friedel_coverage         0.623
_reflns_Friedel_fraction_full    0.987
_reflns_Friedel_fraction_max     0.987
_reflns_number_gt                694
_reflns_number_total             766
_reflns_threshold_expression     'I > 2\s(I)'
_iucr_refine_instructions_details
;

    cubic.res created by SHELXL-2014/7

TITL cubic in I432 #211
REM reset to I432 #211
CELL 0.71073 31.209336 31.209336 31.209336 90 90 90
ZERR 12 0.001572 0.001572 0.001572 0 0 0
LATT -2
SYMM -Y,+X,+Z
SYMM -X,-Y,+Z
SYMM +Y,-X,+Z
SYMM +X,-Z,+Y
SYMM +X,-Y,-Z
SYMM +X,+Z,-Y
SYMM +Z,+Y,-X
SYMM -X,+Y,-Z
SYMM -Z,+Y,+X
SYMM +Z,+X,+Y
SYMM +Y,+Z,+X
SYMM -Y,-Z,+X
SYMM +Z,-X,-Y
SYMM -Y,+Z,-X
SYMM -Z,-X,+Y
SYMM -Z,+X,-Y
SYMM +Y,-Z,-X
SYMM +Y,+X,-Z
SYMM -Y,-X,-Z
SYMM -X,+Z,+Y
SYMM -X,-Z,-Y
SYMM +Z,-Y,+X
SYMM -Z,-Y,-X
SFAC H C O K
UNIT 984 576 504 24
DFIX 1.5 C4 C3
DFIX 1.5 C5 C6
DFIX 1.45 O4 C4
DFIX 1.5 0.01 C16 C15
DFIX 1.45 0.01 C15 C16
DFIX 1.45 C11 O4
DFIX 1.5 C2 C3
DFIX 1.5 C2 C1
DFIX 1.5 C12 C11
DFIX 1.45 C1 O5
DFIX 1.45 O15 C15
DFIX 1.45 C11 O15
DFIX 1.45 0.01 O13 C13
DFIX 1.42 0.01 C13 O13
DANG 2.5 C11 C13
DANG 2.5 C11 C15
DANG 2.5 C11 C4
DANG 2.5 C2 C4
DANG 2.5 O15 C12
DANG 2.5 O15 C14
DANG 2.5 C2 O5
 
L.S. 100
PLAN  20
CONN 4 C11
BOND
MORE -1
BOND $H
CONF
ABIN
fmap 2
acta 52
OMIT 0 3 11
OMIT 2 4 4
OMIT 0 4 8
OMIT 0 11 17
OMIT 2 5 19
OMIT 2 2 6
OMIT 4 4 6
OMIT 5 5 16
OMIT 2 6 6
OMIT 4 7 9
OMIT 0 11 15
OMIT 0 1 5
OMIT 4 5 5
OMIT 2 2 10
OMIT 2 13 13
OMIT 0 1 11
OMIT 0 5 5
OMIT 3 3 12
OMIT 0 0 10
OMIT 0 5 7
OMIT 6 9 9
OMIT 6 6 16
OMIT -7 8 9
OMIT 7 8 9
REM <olex2.extras>
REM <HklSrc "%.\\cubic.hkl">
REM </olex2.extras>
 
WGHT    0.098600   25.353600
FVAR       0.37882   0.16310
C1    2    0.851197    0.678010    0.627463    11.00000    0.08939
AFIX  13
H1    1    0.845760    0.708906    0.626087    11.00000   -1.20000
AFIX   0
C2    2    0.888104    0.675224    0.654810    11.00000    0.12089
AFIX  13
H2    1    0.882268    0.689914    0.681942    11.00000   -1.20000
AFIX   0
C3    2    0.894695    0.627321    0.663082    11.00000    0.08302
AFIX  13
H3    1    0.902378    0.616850    0.634493    11.00000   -1.20000
AFIX   0
C4    2    0.856333    0.602655    0.672280    11.00000    0.09202
AFIX  13
H4    1    0.849360    0.612023    0.701429    11.00000   -1.20000
AFIX   0
C5    2    0.814183    0.615071    0.646801    11.00000    0.13895
AFIX  13
H5    1    0.819507    0.605461    0.617385    11.00000   -1.20000
AFIX   0
C6    2    0.770873    0.595820    0.658509    11.00000    0.16125
AFIX  23
H6A   1    0.748526    0.606140    0.639533    11.00000   -1.20000
H6B   1    0.771711    0.564775    0.657280    11.00000   -1.20000
AFIX   0
C11   2    0.859927    0.539534    0.720135    11.00000    0.16189
AFIX  13
H11   1    0.860824    0.561232    0.742816    11.00000   -1.20000
AFIX   0
C12   2    0.896850    0.512429    0.720199    11.00000    0.10584
AFIX  13
H12   1    0.897679    0.499808    0.748940    11.00000   -1.20000
AFIX   0
C13   2    0.897619    0.476036    0.690901    11.00000    0.10821
AFIX  13
H13   1    0.898535    0.486106    0.661172    11.00000   -1.20000
AFIX   0
C14   2    0.855945    0.450775    0.699029    11.00000    0.09022
AFIX  13
H14   1    0.855102    0.438797    0.728043    11.00000   -1.20000
AFIX   0
C15   2    0.818336    0.479976    0.690649    11.00000    0.13210
AFIX  13
H15   1    0.816754    0.491431    0.661455    11.00000   -1.20000
AFIX   0
C16   2    0.779936    0.455468    0.704681    11.00000    0.13020
AFIX  23
H16A  1    0.754961    0.473033    0.698875    11.00000   -1.20000
H16B  1    0.777755    0.430287    0.686594    11.00000   -1.20000
AFIX   0
K1    4    0.810294    0.500000    0.810294    10.50000    0.12042    0.17457 =
         0.12042    0.03969    0.03387   -0.03969
O2    3    0.923966    0.694880    0.634038    11.00000   21.00000
AFIX  83
H2A   1    0.942912    0.677022    0.630511    11.00000   -1.50000
AFIX   0
O3    3    0.934493    0.620268    0.686922    11.00000   21.00000
AFIX  83
H3A   1    0.934901    0.595693    0.696208    11.00000   -1.50000
AFIX   0
O4    3    0.862491    0.557881    0.677916    11.00000    0.14200
O5    3    0.814090    0.662266    0.644202    11.00000   21.00000
O6    3    0.764102    0.610680    0.701993    11.00000   21.00000
AFIX  83
H6    1    0.762990    0.590050    0.718226    11.00000   -1.50000
AFIX   0
O12   3    0.937612    0.536558    0.716092    11.00000    0.14741
AFIX  83
H12A  1    0.957274    0.519790    0.711340    11.00000   -1.50000
AFIX   0
O13   3    0.935415    0.449438    0.700200    11.00000    0.12463
AFIX  83
H13A  1    0.927631    0.425785    0.708582    11.00000   -1.50000
AFIX   0
O14   3    0.857573    0.417220    0.666518    11.00000    0.09348
O15   3    0.822561    0.511504    0.723474    11.00000    0.09736
O16   3    0.777289    0.441996    0.746656    11.00000    0.14059
AFIX  83
H16   1    0.783307    0.416459    0.748053    11.00000   -1.50000
AFIX   0
OA    3    1.000000    0.500000    0.662646    10.50000    0.29186
HKLF 4
 
REM  cubic in I432 #211
REM R1 =  0.0594 for     694 Fo > 4sig(Fo)  and  0.0652 for all     766 data
REM     93 parameters refined using     21 restraints
 
END  
     
WGHT      0.1039     26.3536 

REM Highest difference peak  0.141,  deepest hole -0.138,  1-sigma level  0.030
Q1    1   0.8282  0.6552  0.6486  11.00000  0.05    0.14
Q2    1   0.8326  0.6658  0.6541  11.00000  0.05    0.14
Q3    1   0.8573  0.5000  0.8573  10.50000  0.05    0.13
Q4    1   0.8617  0.5014  0.6913  11.00000  0.05    0.12
Q5    1   0.8636  0.5035  0.6792  11.00000  0.05    0.12
Q6    1   0.8250  0.5765  0.6685  11.00000  0.05    0.11
Q7    1   0.8043  0.5477  0.7845  11.00000  0.05    0.11
Q8    1   0.9021  0.4126  0.6719  11.00000  0.05    0.11
Q9    1   0.8796  0.5016  0.6855  11.00000  0.05    0.11
Q10   1   0.9611  0.5611  0.6781  11.00000  0.05    0.11
Q11   1   0.8233  0.4301  0.6699  11.00000  0.05    0.10
Q12   1   1.0168  0.5560  0.6650  11.00000  0.05    0.10
Q13   1   0.9873  0.5790  0.6787  11.00000  0.05    0.10
Q14   1   0.8393  0.4307  0.6721  11.00000  0.05    0.10
Q15   1   0.8415  0.5039  0.6732  11.00000  0.05    0.10
Q16   1   0.8144  0.5570  0.7783  11.00000  0.05    0.10
Q17   1   0.8371  0.5630  0.6697  11.00000  0.05    0.09
Q18   1   0.9671  0.4448  0.6753  11.00000  0.05    0.09
Q19   1   0.8716  0.4979  0.6938  11.00000  0.05    0.09
Q20   1   0.9755  0.4460  0.6654  11.00000  0.05    0.09

  REM The information below was added by Olex2.
  REM
  REM R1 = 0.0594 for 694 Fo > 4sig(Fo) and 0.0652 for all 21559 data
  REM n/a parameters refined using n/a restraints
  REM Highest difference peak 0.14, deepest hole -0.14
  REM Mean Shift 0, Max Shift 0.000.

  REM +++ Tabular Listing of Refinement Information +++
  REM R1_all = 0.0652
  REM R1_gt = 0.0594
  REM wR_ref = 0.1534
  REM GOOF = 1.086
  REM Shift_max = 0.000
  REM Shift_mean = 0
  REM Reflections_all = 21559
  REM Reflections_gt = 694
  REM Parameters = n/a
  REM Hole = -0.14
  REM Peak = 0.14
  REM Flack = 0.17(12)

  
;
_cod_data_source_file            c7cp00593h5.cif
_cod_data_source_block           CDMOF_a_270K
_cod_depositor_comments
'Adding full bibliography for 7227776--7227790.cif.'
_cod_original_cell_volume        30399(3)
_cod_database_code               7227789
#BEGIN Tags that were not found in dictionaries:
_shelx_shelxl_version_number     2014/7
_chemical_oxdiff_formula         'C48 H82 K2 O40'
_shelx_space_group_comment
;
The symmetry employed for this shelxl refinement is uniquely defined
by the following loop, which should always be used as a source of
symmetry information in preference to the above space-group names.
They are only intended as comments.
;
_reflns_odcompleteness_completeness 97.62
_reflns_odcompleteness_iscentric 1
_reflns_odcompleteness_theta     13.66
_olex2_refinement_description
;
1. Fixed Uiso
 At 1.2 times of:
  All C(H) groups, All C(H,H) groups
 At 1.5 times of:
  All O(H) groups
2. Restrained distances
 C4-C3
 1.5 with sigma of 0.02
 C5-C6
 1.5 with sigma of 0.02
 O4-C4
 1.45 with sigma of 0.02
 C16-C15
 1.5 with sigma of 0.01
 C15-C16
 1.45 with sigma of 0.01
 C11-O4
 1.45 with sigma of 0.02
 C2-C3
 1.5 with sigma of 0.02
 C2-C1
 1.5 with sigma of 0.02
 C12-C11
 1.5 with sigma of 0.02
 C1-O5
 1.45 with sigma of 0.02
 O15-C15
 1.45 with sigma of 0.02
 C11-O15
 1.45 with sigma of 0.02
 O13-C13
 1.45 with sigma of 0.01
 C13-O13
 1.42 with sigma of 0.01
 C11-C13
 2.5 with sigma of 0.04
 C11-C15
 2.5 with sigma of 0.04
 C11-C4
 2.5 with sigma of 0.04
 C2-C4
 2.5 with sigma of 0.04
 O15-C12
 2.5 with sigma of 0.04
 O15-C14
 2.5 with sigma of 0.04
 C2-O5
 2.5 with sigma of 0.04
3. Others
 Uiso(O2)=Uiso(O3)=Uiso(O5)=Uiso(O6)=FVAR(1)
4.a Ternary CH refined with riding coordinates:
 C1(H1), C2(H2), C3(H3), C4(H4), C5(H5), C11(H11), C12(H12), C13(H13),
 C14(H14), C15(H15)
4.b Secondary CH2 refined with riding coordinates:
 C6(H6A,H6B), C16(H16A,H16B)
4.c Tetrahedral OH refined with riding coordinates:
 O2(H2A), O3(H3A), O6(H6), O12(H12A), O13(H13A), O16(H16)
;
_shelx_fab_file
;
-10 -13 -11 3.3701 10.4049
-9 -15 -10 -0.0941 -1.1038
-9 -14 -11 8.0010 14.7187
-9 -13 -12 20.0330 10.9331
-9 -13 -10 -3.4707 21.7662
-9 -12 -11 29.6193 14.1214
-9 -11 -10 0.3821 16.5006
-8 -16 -10 -14.5325 -1.5117
-8 -15 -11 -5.1293 -8.4654
-8 -15 -9 -20.0464 -2.1421
-8 -14 -12 -9.9647 8.6951
-8 -14 -10 -14.1942 17.2504
-8 -13 -11 -0.7076 19.7380
-8 -13 -9 -32.4792 8.1300
-8 -12 -10 11.9618 28.6616
-8 -11 -9 -30.3730 9.4134
-7 -17 -8 9.7293 9.1476
-7 -16 -11 -3.5144 -10.3758
-7 -16 -9 -9.7566 -4.0099
-7 -15 -12 -6.0716 -12.4072
-7 -15 -10 0.3482 -13.0911
-7 -15 -8 -9.5110 -7.1583
-7 -14 -13 -10.3395 -4.4309
-7 -14 -11 -8.0752 -7.4068
-7 -14 -9 -7.4648 -7.9668
-7 -13 -12 -20.7899 6.2297
-7 -13 -10 2.1788 16.3872
-7 -13 -8 -3.0734 -3.3686
-7 -12 -11 -1.2151 -12.7864
-7 -12 -9 -21.2955 3.1210
-7 -11 -10 -18.6419 12.5880
-7 -11 -8 -9.6461 13.5767
-7 -10 -9 -15.2425 1.7694
-6 -18 -8 14.2665 10.3424
-6 -17 -9 5.6812 5.7872
-6 -17 -7 16.7369 2.8892
-6 -16 -10 -1.3698 -9.4943
-6 -16 -8 2.1363 2.9801
-6 -15 -13 -0.2595 -12.3774
-6 -15 -11 2.5917 -22.7514
-6 -15 -9 -9.7108 -15.3547
-6 -15 -7 11.8724 -8.3215
-6 -14 -12 -3.8397 -7.9440
-6 -14 -10 5.6827 14.2213
-6 -14 -8 2.6613 -8.1133
-6 -13 -11 -0.8611 -13.2477
-6 -13 -9 7.7380 -3.3250
-6 -13 -7 8.2000 1.1291
-6 -12 -10 15.2059 -4.3267
-6 -12 -8 1.3347 7.4556
-6 -11 -9 9.0120 -8.0559
-6 -11 -7 15.9395 14.6703
-6 -10 -8 0.2101 7.0071
-6 -9 -7 5.7277 0.9184
-5 -19 -6 -18.9349 -9.4697
-5 -18 -9 -11.4079 0.1221
-5 -18 -7 -9.6299 -4.1583
-5 -17 -10 2.8447 0.2766
-5 -17 -8 -4.3571 4.8803
-5 -17 -6 14.1626 7.9152
-5 -16 -11 -5.4510 -12.4131
-5 -16 -9 -9.4057 -17.6596
-5 -16 -7 19.4537 -14.0768
-5 -15 -12 0.1880 -16.0319
-5 -15 -10 3.8416 4.3817
-5 -15 -8 5.1714 7.8325
-5 -15 -6 -21.5951 -5.3695
-5 -14 -13 4.0475 -8.6943
-5 -14 -11 8.9814 1.4200
-5 -14 -9 -3.3603 14.5359
-5 -14 -7 -11.5729 -24.3230
-5 -13 -12 12.0709 12.7073
-5 -13 -10 20.8900 36.4854
-5 -13 -8 6.8251 -2.0543
-5 -13 -6 2.4793 -21.5514
-5 -12 -11 -6.6640 6.5989
-5 -12 -9 -5.2001 3.7050
-5 -12 -7 3.3085 -3.6793
-5 -11 -10 31.9719 4.3221
-5 -11 -8 19.6520 -13.8182
-5 -11 -6 5.3221 -11.5866
-5 -10 -9 13.7629 5.2404
-5 -10 -7 -35.1400 8.5997
-5 -9 -8 7.1469 5.6310
-5 -9 -6 -5.1846 7.2970
-5 -8 -7 31.4377 2.6366
-5 -7 -6 -6.6039 17.3922
-4 -19 -7 -3.4840 2.1559
-4 -19 -5 0.0699 -2.5723
-4 -18 -8 -3.8373 6.4865
-4 -18 -6 0.2382 9.9403
-4 -17 -11 -2.5249 6.9473
-4 -17 -9 6.6045 -0.6150
-4 -17 -7 11.7645 -10.2057
-4 -17 -5 -10.0313 16.4014
-4 -16 -12 2.9288 -11.4784
-4 -16 -10 -1.9169 4.5729
-4 -16 -8 4.6228 -0.2061
-4 -16 -6 2.8085 16.2943
-4 -15 -13 10.6468 -11.2353
-4 -15 -11 4.5520 -15.3488
-4 -15 -9 -3.4403 13.5359
-4 -15 -7 -0.6615 -3.0506
-4 -15 -5 9.0909 -3.5084
-4 -14 -12 8.6204 9.8670
-4 -14 -10 -7.3584 27.3280
-4 -14 -8 -0.9080 19.4460
-4 -14 -6 13.9878 -34.1343
-4 -13 -11 17.1869 34.6307
-4 -13 -9 -0.4496 8.3865
-4 -13 -7 31.0645 -10.3071
-4 -13 -5 -17.5666 -2.2541
-4 -12 -10 -20.8744 47.6831
-4 -12 -8 1.9730 -30.2263
-4 -12 -6 41.6841 -10.0895
-4 -11 -9 43.7526 -2.3731
-4 -11 -7 22.0255 -23.8855
-4 -11 -5 26.2392 23.7222
-4 -10 -8 -13.0875 -11.7028
-4 -10 -6 -5.8414 -21.9246
-4 -9 -5 -21.0393 -7.8285
-4 -8 -6 66.9461 11.7930
-4 -7 -5 -17.1220 -1.8696
-3 -19 -6 11.0071 -7.8060
-3 -19 -4 3.4336 -11.7080
-3 -18 -9 -10.9220 -10.6962
-3 -18 -7 6.2942 -7.6412
-3 -18 -5 -10.1376 14.9898
-3 -17 -10 -1.8178 4.5304
-3 -17 -8 24.3702 1.0449
-3 -17 -6 -10.3274 17.0173
-3 -17 -4 -15.0206 30.0330
-3 -16 -11 3.9228 -11.6098
-3 -16 -9 4.0218 -6.5081
-3 -16 -7 -3.0253 -13.5587
-3 -16 -5 21.6566 26.2134
-3 -15 -14 -8.7471 -6.9930
-3 -15 -12 -1.0621 -17.8390
-3 -15 -10 1.1857 12.5335
-3 -15 -8 -7.5533 29.2241
-3 -15 -6 21.6623 29.9741
-3 -15 -4 -15.6856 30.0113
-3 -14 -13 6.8823 1.5622
-3 -14 -11 -5.3485 11.9882
-3 -14 -9 -16.0889 3.6777
-3 -14 -7 17.9107 -24.0411
-3 -14 -5 -18.2459 -12.7991
-3 -13 -12 10.3642 16.3627
-3 -13 -10 -10.1371 29.5894
-3 -13 -8 10.4119 1.9346
-3 -13 -6 -12.0161 -17.8419
-3 -13 -4 -51.8005 22.2965
-3 -12 -11 -8.8394 39.6535
-3 -12 -9 -0.2354 22.8769
-3 -12 -7 -13.9316 -2.2552
-3 -12 -5 10.3925 10.1067
-3 -11 -10 12.9364 9.7683
-3 -11 -8 5.6637 -35.9305
-3 -11 -6 -2.0218 1.5476
-3 -11 -4 -23.1781 28.4212
-3 -10 -9 10.2548 25.1449
-3 -10 -7 -19.6663 -4.7649
-3 -10 -5 -75.9705 24.9836
-3 -9 -8 1.7560 3.6217
-3 -9 -6 -19.8382 29.9449
-3 -9 -4 -30.9812 1.6296
-3 -8 -7 2.8707 22.8595
-3 -8 -5 13.6334 -15.5739
-3 -7 -6 44.6197 18.3446
-3 -7 -4 -25.2203 0.8617
-3 -6 -5 -50.1646 -11.2066
-3 -5 -4 28.5870 -0.5479
-2 -20 -4 -2.1685 2.8796
-2 -19 -7 12.5967 -19.9293
-2 -19 -3 -7.0572 -2.9139
-2 -18 -10 -15.0834 4.4034
-2 -18 -8 -2.3726 -15.0294
-2 -18 -6 -2.5055 -3.5240
-2 -18 -4 -5.5838 13.1571
-2 -17 -11 8.0661 11.7981
-2 -17 -9 -7.5401 -12.6784
-2 -17 -7 7.7972 -21.9135
-2 -17 -5 -26.3371 -0.1979
-2 -17 -3 -17.2119 5.5073
-2 -16 -12 -1.2000 15.5921
-2 -16 -10 -24.6136 -13.2068
-2 -16 -8 -0.3401 4.1062
-2 -16 -6 0.4471 14.8670
-2 -16 -4 -7.3365 20.5585
-2 -15 -13 6.1313 1.1465
-2 -15 -11 -12.0068 6.1673
-2 -15 -9 -15.5428 -11.0445
-2 -15 -7 -3.9347 12.7904
-2 -15 -5 -2.4638 19.5272
-2 -15 -3 -18.1284 -11.9513
-2 -14 -12 -2.0935 -4.2207
-2 -14 -10 -35.4428 13.1137
-2 -14 -8 -17.5892 -14.0547
-2 -14 -6 41.8519 -5.7852
-2 -14 -4 -5.2318 12.7038
-2 -13 -11 -12.0833 -2.0816
-2 -13 -9 -10.8483 14.5486
-2 -13 -7 6.4938 -18.2452
-2 -13 -5 -16.1927 16.0984
-2 -13 -3 -57.3531 7.3376
-2 -12 -10 -34.1480 8.0891
-2 -12 -8 8.9220 15.9839
-2 -12 -6 20.1415 -15.4464
-2 -12 -4 19.6866 28.6218
-2 -11 -9 1.4569 -13.1089
-2 -11 -7 6.9701 27.4451
-2 -11 -5 -4.0560 17.8401
-2 -11 -3 9.6441 4.5486
-2 -10 -8 -18.9462 -26.9474
-2 -10 -6 25.3526 17.1676
-2 -10 -4 -14.3566 -17.6526
-2 -9 -7 -5.5857 5.4420
-2 -9 -5 -13.2118 22.0794
-2 -9 -3 17.0666 -14.9626
-2 -8 -6 17.0410 -13.5925
-2 -8 -4 29.1533 -3.9099
-2 -7 -5 25.9925 -20.8876
-2 -7 -3 -16.3246 34.1365
-2 -6 -4 -59.0171 6.7829
-2 -5 -3 -4.9668 36.2319
-1 -20 -5 -6.6021 0.9769
-1 -20 -3 3.4134 -7.1526
-1 -19 -8 11.2188 -3.4958
-1 -19 -6 14.0945 -10.0131
-1 -19 -4 -0.2221 -6.9408
-1 -19 -2 -20.7707 -21.0096
-1 -18 -9 -26.8022 7.5785
-1 -18 -7 -5.0261 -22.1452
-1 -18 -5 -8.2852 -2.3883
-1 -18 -3 -7.7515 -11.1102
-1 -17 -10 -10.7828 9.6139
-1 -17 -8 -2.7517 0.6352
-1 -17 -6 -6.0994 -5.2826
-1 -17 -4 -19.4742 -8.5778
-1 -17 -2 -8.5021 -5.2532
-1 -16 -13 7.8439 14.1296
-1 -16 -11 8.7259 18.8464
-1 -16 -9 -13.8352 -19.0562
-1 -16 -7 -13.6707 11.8661
-1 -16 -5 -34.5468 -3.1998
-1 -16 -3 1.4506 -15.9449
-1 -15 -14 0.9615 -6.6149
-1 -15 -12 8.4856 20.2531
-1 -15 -10 -20.7315 -3.7195
-1 -15 -8 11.0001 19.9218
-1 -15 -6 10.8293 27.7682
-1 -15 -4 -11.8630 10.0313
-1 -15 -2 -33.7746 -9.0897
-1 -14 -13 2.0938 -4.8112
-1 -14 -11 7.7024 3.7923
-1 -14 -9 11.7774 2.5645
-1 -14 -7 11.2542 -14.4532
-1 -14 -5 11.8848 -9.1319
-1 -14 -3 5.5803 -6.3041
-1 -13 -12 28.7321 -24.5383
-1 -13 -10 4.7699 15.2831
-1 -13 -8 1.4197 -4.7199
-1 -13 -6 -0.3773 -14.5862
-1 -13 -4 -26.4286 20.1589
-1 -13 -2 -23.9964 -0.3343
-1 -12 -11 48.0474 -14.2703
-1 -12 -9 34.1175 24.3689
-1 -12 -7 13.7312 -14.2858
-1 -12 -5 -5.6678 0.8670
-1 -12 -3 98.2360 -11.6320
-1 -11 -10 19.7279 -41.2949
-1 -11 -8 4.0233 1.8419
-1 -11 -6 -13.8388 -4.9709
-1 -11 -4 7.2782 -24.6854
-1 -11 -2 13.1598 -4.3926
-1 -10 -9 11.2017 -32.5998
-1 -10 -7 -14.5709 24.9257
-1 -10 -5 -18.5433 -44.8937
-1 -10 -3 17.7942 -28.6305
-1 -9 -8 0.0135 -43.5038
-1 -9 -6 19.3381 -2.4045
-1 -9 -4 10.6900 -19.5498
-1 -9 -2 69.2919 -23.9565
-1 -8 -7 -1.5746 -42.0889
-1 -8 -5 -36.5231 -9.2307
-1 -8 -3 30.2681 -17.8320
-1 -7 -6 -7.2412 -29.2988
-1 -7 -4 -25.6166 -3.2217
-1 -7 -2 -10.3018 4.0493
-1 -6 -5 -9.4048 -31.0215
-1 -6 -3 -77.0307 36.7082
-1 -5 -4 -13.4350 0.2644
-1 -5 -2 -31.3200 10.3742
-1 -4 -3 115.5250 11.6515
0 4 2 -151.2865 0.0000
0 4 4 71.8551 -0.0000
0 5 3 -6.9219 0.0000
0 6 0 64.8666 0.0000
0 6 2 -48.2968 -0.0000
0 6 4 -149.6208 -0.0000
0 6 6 -84.0961 -0.0000
0 7 1 11.6947 -0.0000
0 7 3 -77.6840 0.0000
0 7 7 -21.6171 0.0000
0 8 0 -81.1898 0.0000
0 8 2 -23.9808 0.0000
0 8 6 11.4999 -0.0000
0 8 8 -3.9002 -0.0000
0 9 1 -0.4763 -0.0000
0 9 3 13.1849 0.0000
0 9 5 -9.5411 0.0000
0 9 7 -13.1721 0.0000
0 9 9 2.7122 0.0000
0 10 2 -28.5537 0.0000
0 10 4 -22.8465 -0.0000
0 10 6 -4.8368 -0.0000
0 10 8 33.1519 -0.0000
0 10 10 -19.3076 -0.0000
0 11 5 -14.4297 0.0000
0 11 7 6.2049 0.0000
0 11 9 17.1241 -0.0000
0 11 11 7.3233 -0.0000
0 12 0 -22.8085 -0.0000
0 12 2 22.8463 -0.0000
0 12 4 33.5797 -0.0000
0 12 6 28.8578 -0.0000
0 12 8 9.5319 -0.0000
0 12 10 16.4025 0.0000
0 12 12 19.0619 0.0000
0 13 1 -28.2311 -0.0000
0 13 3 26.4497 0.0000
0 13 5 -25.8810 0.0000
0 13 7 4.8608 0.0000
0 13 9 13.2004 -0.0000
0 13 11 4.2747 -0.0000
0 13 13 -10.4617 0.0000
0 14 0 -8.1710 -0.0000
0 14 2 -11.6303 0.0000
0 14 4 1.2544 -0.0000
0 14 6 28.0095 -0.0000
0 14 8 40.4500 0.0000
0 14 10 -24.9962 -0.0000
0 14 12 -19.6389 0.0000
0 14 14 -27.1234 0.0000
0 15 1 -32.0443 0.0000
0 15 3 -17.5542 -0.0000
0 15 5 -30.3437 -0.0000
0 15 7 16.6833 0.0000
0 15 9 0.4508 -0.0000
0 15 13 -5.8190 0.0000
0 16 0 -15.6222 0.0000
0 16 2 0.6343 -0.0000
0 16 4 -14.6403 0.0000
0 16 6 -2.6918 0.0000
0 16 8 2.7043 0.0000
0 16 10 -6.3142 0.0000
0 16 12 6.3868 0.0000
0 17 1 -8.8368 -0.0000
0 17 3 1.8315 0.0000
0 17 5 -28.4413 -0.0000
0 17 7 -7.3681 -0.0000
0 17 9 10.8766 -0.0000
0 18 0 29.3581 -0.0000
0 18 2 6.3966 -0.0000
0 18 4 -0.4662 -0.0000
0 18 6 8.7449 0.0000
0 18 8 5.9288 0.0000
0 18 10 -20.4724 -0.0000
0 19 1 -1.9490 -0.0000
0 19 3 7.4227 0.0000
0 19 5 1.5336 -0.0000
0 19 7 27.3719 -0.0000
0 20 0 20.5423 0.0000
0 20 2 6.3830 -0.0000
0 20 4 2.1158 0.0000
1 4 3 115.5250 -11.6515
1 5 2 -31.3200 -10.3742
1 5 4 -13.4350 -0.2644
1 6 1 179.0176 -0.0000
1 6 3 -77.0307 -36.7082
1 6 5 -9.4048 31.0215
1 7 2 -10.3018 -4.0493
1 7 4 -25.6166 3.2217
1 7 6 -7.2412 29.2988
1 8 1 98.1918 0.0000
1 8 3 30.2681 17.8320
1 8 5 -36.5231 9.2307
1 8 7 -1.5746 42.0889
1 9 2 69.2919 23.9565
1 9 4 10.6900 19.5498
1 9 6 19.3381 2.4045
1 9 8 0.0135 43.5038
1 10 1 78.2802 -0.0000
1 10 3 17.7942 28.6305
1 10 5 -18.5433 44.8937
1 10 7 -14.5709 -24.9257
1 10 9 11.2017 32.5998
1 11 2 13.1598 4.3926
1 11 4 7.2782 24.6854
1 11 6 -13.8388 4.9709
1 11 8 4.0233 -1.8419
1 11 10 19.7279 41.2949
1 12 1 67.2922 -0.0000
1 12 3 98.2360 11.6320
1 12 5 -5.6678 -0.8670
1 12 7 13.7312 14.2858
1 12 9 34.1175 -24.3689
1 12 11 48.0474 14.2703
1 13 2 -23.9964 0.3343
1 13 4 -26.4286 -20.1589
1 13 6 -0.3773 14.5862
1 13 8 1.4197 4.7199
1 13 10 4.7699 -15.2831
1 13 12 28.7321 24.5383
1 14 1 -0.7367 0.0000
1 14 3 5.5803 6.3041
1 14 5 11.8848 9.1319
1 14 7 11.2542 14.4532
1 14 9 11.7774 -2.5645
1 14 11 7.7024 -3.7923
1 14 13 2.0938 4.8112
1 15 2 -33.7746 9.0897
1 15 4 -11.8630 -10.0313
1 15 6 10.8293 -27.7682
1 15 8 11.0001 -19.9218
1 15 10 -20.7315 3.7195
1 15 12 8.4856 -20.2531
1 15 14 0.9615 6.6149
1 16 1 -42.1903 0.0000
1 16 3 1.4506 15.9449
1 16 5 -34.5468 3.1998
1 16 7 -13.6707 -11.8661
1 16 9 -13.8352 19.0562
1 16 11 8.7259 -18.8464
1 16 13 7.8439 -14.1296
1 17 2 -8.5021 5.2532
1 17 4 -19.4742 8.5778
1 17 6 -6.0994 5.2826
1 17 8 -2.7517 -0.6352
1 17 10 -10.7828 -9.6139
1 18 1 -20.4180 -0.0000
1 18 3 -7.7515 11.1102
1 18 5 -8.2852 2.3883
1 18 7 -5.0261 22.1452
1 18 9 -26.8022 -7.5785
1 19 2 -20.7707 21.0096
1 19 4 -0.2221 6.9408
1 19 6 14.0945 10.0131
1 19 8 11.2188 3.4958
1 20 1 -4.0146 -0.0000
1 20 3 3.4134 7.1526
1 20 5 -6.6021 -0.9769
2 3 3 65.2076 -0.0000
2 4 2 39.1933 0.0000
2 5 3 -4.9668 -36.2319
2 5 5 33.6287 -0.0000
2 6 4 -59.0171 -6.7829
2 7 3 -16.3246 -34.1365
2 7 5 25.9925 20.8876
2 7 7 -7.6313 0.0000
2 8 2 17.8604 0.0000
2 8 4 29.1533 3.9099
2 8 6 17.0410 13.5925
2 8 8 36.3587 0.0000
2 9 3 17.0666 14.9626
2 9 5 -13.2118 -22.0794
2 9 7 -5.5857 -5.4420
2 9 9 -8.7344 0.0000
2 10 4 -14.3566 17.6526
2 10 6 25.3526 -17.1676
2 10 8 -18.9462 26.9474
2 10 10 -14.7736 -0.0000
2 11 3 9.6441 -4.5486
2 11 5 -4.0560 -17.8401
2 11 7 6.9701 -27.4451
2 11 9 1.4569 13.1089
2 11 11 4.7688 -0.0000
2 12 2 0.8590 0.0000
2 12 4 19.6866 -28.6218
2 12 6 20.1415 15.4464
2 12 8 8.9220 -15.9839
2 12 10 -34.1480 -8.0891
2 12 12 -5.2130 0.0000
2 13 3 -57.3531 -7.3376
2 13 5 -16.1927 -16.0984
2 13 7 6.4938 18.2452
2 13 9 -10.8483 -14.5486
2 13 11 -12.0833 2.0816
2 14 2 -33.2057 0.0000
2 14 4 -5.2318 -12.7038
2 14 6 41.8519 5.7852
2 14 8 -17.5892 14.0547
2 14 10 -35.4428 -13.1137
2 14 12 -2.0935 4.2207
2 14 14 -10.8756 0.0000
2 15 3 -18.1284 11.9513
2 15 5 -2.4638 -19.5272
2 15 7 -3.9347 -12.7904
2 15 9 -15.5428 11.0445
2 15 11 -12.0068 -6.1673
2 15 13 6.1313 -1.1465
2 16 2 -5.6597 0.0000
2 16 4 -7.3365 -20.5585
2 16 6 0.4471 -14.8670
2 16 8 -0.3401 -4.1062
2 16 10 -24.6136 13.2068
2 16 12 -1.2000 -15.5921
2 17 3 -17.2119 -5.5073
2 17 5 -26.3371 0.1979
2 17 7 7.7972 21.9135
2 17 9 -7.5401 12.6784
2 17 11 8.0661 -11.7981
2 18 2 -13.4532 0.0000
2 18 4 -5.5838 -13.1571
2 18 6 -2.5055 3.5240
2 18 8 -2.3726 15.0294
2 18 10 -15.0834 -4.4034
2 19 3 -7.0572 2.9139
2 19 5 9.1464 -7.0844
2 19 7 12.5967 19.9293
2 20 2 -10.8258 0.0000
2 20 4 -2.1685 -2.8796
3 4 3 12.6219 -0.0000
3 5 4 28.5870 0.5479
3 6 3 -4.3808 -0.0000
3 6 5 -50.1646 11.2066
3 7 4 -25.2203 -0.8617
3 7 6 44.6197 -18.3446
3 8 3 -76.9252 -0.0000
3 8 5 13.6334 15.5739
3 8 7 2.8707 -22.8595
3 9 4 -30.9812 -1.6296
3 9 6 -19.8382 -29.9449
3 9 8 1.7560 -3.6217
3 10 3 -9.0825 -0.0000
3 10 5 -75.9705 -24.9836
3 10 7 -19.6663 4.7649
3 10 9 10.2548 -25.1449
3 11 4 -23.1781 -28.4212
3 11 6 -2.0218 -1.5476
3 11 8 5.6637 35.9305
3 11 10 12.9364 -9.7683
3 12 5 10.3925 -10.1067
3 12 7 -13.9316 2.2552
3 12 9 -0.2354 -22.8769
3 12 11 -8.8394 -39.6535
3 13 4 -51.8005 -22.2965
3 13 6 -12.0161 17.8419
3 13 8 10.4119 -1.9346
3 13 10 -10.1371 -29.5894
3 13 12 10.3642 -16.3627
3 14 3 -2.2512 0.0000
3 14 5 -18.2459 12.7991
3 14 7 17.9107 24.0411
3 14 9 -16.0889 -3.6777
3 14 11 -5.3485 -11.9882
3 14 13 6.8823 -1.5622
3 15 4 -15.6856 -30.0113
3 15 6 21.6623 -29.9741
3 15 8 -7.5533 -29.2241
3 15 10 1.1857 -12.5335
3 15 12 -1.0621 17.8390
3 15 14 -8.7471 6.9930
3 16 3 -13.8686 -0.0000
3 16 5 21.6566 -26.2134
3 16 7 -3.0253 13.5587
3 16 9 4.0218 6.5081
3 16 11 3.9228 11.6098
3 17 4 -15.0206 -30.0330
3 17 6 -10.3274 -17.0173
3 17 8 24.3702 -1.0449
3 17 10 -1.8178 -4.5304
3 18 3 3.9445 0.0000
3 18 5 -10.1376 -14.9898
3 18 7 6.2942 7.6412
3 18 9 -10.9220 10.6962
3 19 4 3.4336 11.7080
3 19 6 11.0071 7.8060
3 20 3 2.6098 -0.0000
4 4 4 11.6074 0.0000
4 6 6 -19.3190 0.0000
4 7 5 -17.1220 1.8696
4 7 7 19.1678 0.0000
4 8 4 -6.5487 -0.0000
4 8 6 66.9461 -11.7930
4 8 8 -3.3115 0.0000
4 9 5 -21.0393 7.8285
4 9 7 -23.0565 -18.5079
4 9 9 17.1801 -0.0000
4 10 4 36.3152 0.0000
4 10 6 -5.8414 21.9246
4 10 8 -13.0875 11.7028
4 10 10 9.5802 -0.0000
4 11 5 26.2392 -23.7222
4 11 7 22.0255 23.8855
4 11 9 43.7526 2.3731
4 11 11 1.4995 0.0000
4 12 4 32.5135 0.0000
4 12 6 41.6841 10.0895
4 12 8 1.9730 30.2263
4 12 10 -20.8744 -47.6831
4 12 12 -9.1458 -0.0000
4 13 5 -17.5666 2.2541
4 13 7 31.0645 10.3071
4 13 9 -0.4496 -8.3865
4 13 11 17.1869 -34.6307
4 13 13 34.4201 -0.0000
4 14 4 10.3759 0.0000
4 14 6 13.9878 34.1343
4 14 8 -0.9080 -19.4460
4 14 10 -7.3584 -27.3280
4 14 12 8.6204 -9.8670
4 14 14 17.1099 0.0000
4 15 5 9.0909 3.5084
4 15 7 -0.6615 3.0506
4 15 9 -3.4403 -13.5359
4 15 11 4.5520 15.3488
4 15 13 10.6468 11.2353
4 16 4 10.9460 -0.0000
4 16 6 2.8085 -16.2943
4 16 8 4.6228 0.2061
4 16 10 -1.9169 -4.5729
4 16 12 2.9288 11.4784
4 17 5 -10.0313 -16.4014
4 17 7 11.7645 10.2057
4 17 9 6.6045 0.6150
4 17 11 -2.5249 -6.9473
4 18 4 -18.3145 0.0000
4 18 6 0.2382 -9.9403
4 18 8 -3.8373 -6.4865
4 19 5 0.0699 2.5723
4 19 7 -3.4840 -2.1559
4 20 4 9.5344 0.0000
5 6 5 -41.0426 -0.0000
5 7 6 -6.6039 -17.3922
5 8 5 -10.1815 -0.0000
5 8 7 31.4377 -2.6366
5 9 6 -5.1846 -7.2970
5 9 8 7.1469 -5.6310
5 10 5 -1.8107 0.0000
5 10 7 -35.1400 -8.5997
5 10 9 13.7629 -5.2404
5 11 6 5.3221 11.5866
5 11 8 19.6520 13.8182
5 11 10 31.9719 -4.3221
5 12 5 -33.5957 0.0000
5 12 7 3.3085 3.6793
5 12 9 -5.2001 -3.7050
5 12 11 -6.6640 -6.5989
5 13 6 2.4793 21.5514
5 13 8 6.8251 2.0543
5 13 10 20.8900 -36.4854
5 13 12 12.0709 -12.7073
5 14 5 8.8315 -0.0000
5 14 7 -11.5729 24.3230
5 14 9 -3.3603 -14.5359
5 14 11 8.9814 -1.4200
5 14 13 4.0475 8.6943
5 15 6 -21.5951 5.3695
5 15 8 5.1714 -7.8325
5 15 10 3.8416 -4.3817
5 15 12 0.1880 16.0319
5 16 7 19.4537 14.0768
5 16 9 -9.4057 17.6596
5 16 11 -5.4510 12.4131
5 17 6 14.1626 -7.9152
5 17 8 -4.3571 -4.8803
5 17 10 2.8447 -0.2766
5 18 5 4.4361 -0.0000
5 18 7 -9.6299 4.1583
5 18 9 -11.4079 -0.1221
5 19 6 -18.9349 9.4697
6 6 6 1.1212 0.0000
6 7 7 -8.0647 -0.0000
6 8 6 -5.9233 -0.0000
6 8 8 -25.8486 0.0000
6 9 7 5.7277 -0.9184
6 10 6 -22.2510 -0.0000
6 10 8 0.2101 -7.0071
6 10 10 2.8266 -0.0000
6 11 7 15.9395 -14.6703
6 11 9 9.0120 8.0559
6 11 11 16.2113 0.0000
6 12 6 10.3715 0.0000
6 12 8 1.3347 -7.4556
6 12 10 15.2059 4.3267
6 12 12 -12.8337 -0.0000
6 13 7 8.2000 -1.1291
6 13 9 7.7380 3.3250
6 13 11 -0.8611 13.2477
6 13 13 5.7375 -0.0000
6 14 6 -1.9099 -0.0000
6 14 8 2.6613 8.1133
6 14 10 5.6827 -14.2213
6 14 12 -3.8397 7.9440
6 14 14 -3.9594 -0.0000
6 15 7 11.8724 8.3215
6 15 9 -9.7108 15.3547
6 15 11 2.5917 22.7514
6 15 13 -0.2595 12.3774
6 16 8 2.1363 -2.9801
6 16 10 -1.3698 9.4943
6 17 7 16.7369 -2.8892
6 17 9 5.6812 -5.7872
6 18 6 -0.7524 0.0000
6 18 8 14.2665 -10.3424
7 8 7 19.6015 0.0000
7 10 7 -23.0026 -0.0000
7 10 9 -15.2425 -1.7694
7 11 8 -9.6461 -13.5767
7 11 10 -18.6419 -12.5880
7 12 7 -9.2252 -0.0000
7 12 9 -21.2955 -3.1210
7 12 11 -1.2151 12.7864
7 13 8 -3.0734 3.3686
7 13 10 2.1788 -16.3872
7 13 12 -20.7899 -6.2297
7 14 7 21.3561 -0.0000
7 14 9 -7.4648 7.9668
7 14 11 -8.0752 7.4068
7 14 13 -10.3395 4.4309
7 15 8 -9.5110 7.1583
7 15 10 0.3482 13.0911
7 15 12 -6.0716 12.4072
7 16 7 13.6505 -0.0000
7 16 9 -9.7566 4.0099
7 16 11 -3.5144 10.3758
7 17 8 9.7293 -9.1476
7 18 7 2.9831 0.0000
8 8 8 41.9008 0.0000
8 9 9 15.3362 0.0000
8 10 8 -14.8426 0.0000
8 10 10 27.7703 -0.0000
8 11 9 -30.3730 -9.4134
8 11 11 -7.1930 0.0000
8 12 8 -1.1940 0.0000
8 12 10 11.9618 -28.6616
8 12 12 14.4217 -0.0000
8 13 9 -32.4792 -8.1300
8 13 11 -0.7076 -19.7380
8 13 13 -6.2509 -0.0000
8 14 8 -25.0098 0.0000
8 14 10 -14.1942 -17.2504
8 14 12 -9.9647 -8.6951
8 15 9 -20.0464 2.1421
8 15 11 -5.1293 8.4654
8 16 8 -15.3852 0.0000
8 16 10 -14.5325 1.5117
9 10 9 -16.4973 -0.0000
9 11 10 0.3821 -16.5006
9 12 9 5.9710 0.0000
9 12 11 29.6193 -14.1214
9 13 10 -3.4707 -21.7662
9 13 12 20.0330 -10.9331
9 14 9 -9.7758 -0.0000
9 14 11 8.0010 -14.7187
9 15 10 -0.0941 1.1038
9 16 9 -13.6186 -0.0000
10 10 10 11.4560 0.0000
10 11 11 -5.7437 0.0000
10 12 10 17.7753 -0.0000
10 12 12 11.7676 -0.0000
10 13 11 3.3701 -10.4049
10 14 10 -8.9745 0.0000
11 12 11 5.5666 0.0000
12 12 12 -14.0113 -0.0000
0 0 0 0.0 0.0
;
_olex2_exptl_crystal_mounting_method
'Crystal coated in isopropanol:water mother liquor and mounted in a quarts capillary'
_olex2_submission_special_instructions 'No special instructions were received'
_oxdiff_exptl_absorpt_empirical_details
;
Empirical correction (ABSPACK) includes:
- Absorption correction using spherical harmonics
- Frame scaling
;
_oxdiff_exptl_absorpt_empirical_full_max 1.904
_oxdiff_exptl_absorpt_empirical_full_min 0.652
#END Tags that were not found in dictionaries
loop_
_space_group_symop_id
_space_group_symop_operation_xyz
1 'x, y, z'
2 '-y, x, z'
3 '-x, -y, z'
4 'y, -x, z'
5 'x, -z, y'
6 'x, -y, -z'
7 'x, z, -y'
8 'z, y, -x'
9 '-x, y, -z'
10 '-z, y, x'
11 'z, x, y'
12 'y, z, x'
13 '-y, -z, x'
14 'z, -x, -y'
15 '-y, z, -x'
16 '-z, -x, y'
17 '-z, x, -y'
18 'y, -z, -x'
19 'y, x, -z'
20 '-y, -x, -z'
21 '-x, z, y'
22 '-x, -z, -y'
23 'z, -y, x'
24 '-z, -y, -x'
25 'x+1/2, y+1/2, z+1/2'
26 '-y+1/2, x+1/2, z+1/2'
27 '-x+1/2, -y+1/2, z+1/2'
28 'y+1/2, -x+1/2, z+1/2'
29 'x+1/2, -z+1/2, y+1/2'
30 'x+1/2, -y+1/2, -z+1/2'
31 'x+1/2, z+1/2, -y+1/2'
32 'z+1/2, y+1/2, -x+1/2'
33 '-x+1/2, y+1/2, -z+1/2'
34 '-z+1/2, y+1/2, x+1/2'
35 'z+1/2, x+1/2, y+1/2'
36 'y+1/2, z+1/2, x+1/2'
37 '-y+1/2, -z+1/2, x+1/2'
38 'z+1/2, -x+1/2, -y+1/2'
39 '-y+1/2, z+1/2, -x+1/2'
40 '-z+1/2, -x+1/2, y+1/2'
41 '-z+1/2, x+1/2, -y+1/2'
42 'y+1/2, -z+1/2, -x+1/2'
43 'y+1/2, x+1/2, -z+1/2'
44 '-y+1/2, -x+1/2, -z+1/2'
45 '-x+1/2, z+1/2, y+1/2'
46 '-x+1/2, -z+1/2, -y+1/2'
47 'z+1/2, -y+1/2, x+1/2'
48 '-z+1/2, -y+1/2, -x+1/2'
loop_
_atom_site_label
_atom_site_type_symbol
_atom_site_fract_x
_atom_site_fract_y
_atom_site_fract_z
_atom_site_U_iso_or_equiv
_atom_site_adp_type
_atom_site_occupancy
_atom_site_site_symmetry_order
_atom_site_calc_flag
_atom_site_refinement_flags_posn
_atom_site_refinement_flags_adp
_atom_site_refinement_flags_occupancy
C1 C 0.8512(5) 0.6780(5) 0.6275(5) 0.089(6) Uiso 1 1 d D . .
H1 H 0.8458 0.7089 0.6261 0.107 Uiso 1 1 calc R . .
C2 C 0.8881(6) 0.6752(6) 0.6548(6) 0.121(7) Uiso 1 1 d D . .
H2 H 0.8823 0.6899 0.6819 0.145 Uiso 1 1 calc R . .
C3 C 0.8947(5) 0.6273(5) 0.6631(5) 0.083(6) Uiso 1 1 d D . .
H3 H 0.9024 0.6169 0.6345 0.100 Uiso 1 1 calc R . .
C4 C 0.8563(5) 0.6027(6) 0.6723(5) 0.092(6) Uiso 1 1 d D . .
H4 H 0.8494 0.6120 0.7014 0.110 Uiso 1 1 calc R . .
C5 C 0.8142(6) 0.6151(7) 0.6468(7) 0.139(8) Uiso 1 1 d D . .
H5 H 0.8195 0.6055 0.6174 0.167 Uiso 1 1 calc R . .
C6 C 0.7709(7) 0.5958(7) 0.6585(7) 0.161(9) Uiso 1 1 d D . .
H6A H 0.7485 0.6061 0.6395 0.193 Uiso 1 1 calc R . .
H6B H 0.7717 0.5648 0.6573 0.193 Uiso 1 1 calc R . .
C11 C 0.8599(6) 0.5395(6) 0.7201(7) 0.162(9) Uiso 1 1 d D . .
H11 H 0.8608 0.5612 0.7428 0.194 Uiso 1 1 calc R . .
C12 C 0.8968(5) 0.5124(6) 0.7202(6) 0.106(7) Uiso 1 1 d D . .
H12 H 0.8977 0.4998 0.7489 0.127 Uiso 1 1 calc R . .
C13 C 0.8976(5) 0.4760(5) 0.6909(6) 0.108(7) Uiso 1 1 d D . .
H13 H 0.8985 0.4861 0.6612 0.130 Uiso 1 1 calc R . .
C14 C 0.8559(5) 0.4508(5) 0.6990(6) 0.090(6) Uiso 1 1 d D . .
H14 H 0.8551 0.4388 0.7280 0.108 Uiso 1 1 calc R . .
C15 C 0.8183(6) 0.4800(6) 0.6906(7) 0.132(8) Uiso 1 1 d D . .
H15 H 0.8168 0.4914 0.6615 0.159 Uiso 1 1 calc R . .
C16 C 0.7799(6) 0.4555(6) 0.7047(6) 0.130(8) Uiso 1 1 d D . .
H16A H 0.7550 0.4730 0.6989 0.156 Uiso 1 1 calc R . .
H16B H 0.7778 0.4303 0.6866 0.156 Uiso 1 1 calc R . .
K1 K 0.81029(13) 0.5000 0.81029(13) 0.138(3) Uani 1 2 d S T P
O2 O 0.9240(5) 0.6949(4) 0.6340(4) 0.163(3) Uiso 1 1 d . . .
H2A H 0.9429 0.6770 0.6305 0.245 Uiso 1 1 calc R . .
O3 O 0.9345(5) 0.6203(4) 0.6869(4) 0.163(3) Uiso 1 1 d . . .
H3A H 0.9349 0.5957 0.6962 0.245 Uiso 1 1 calc R . .
O4 O 0.8625(4) 0.5579(5) 0.6779(5) 0.142(6) Uiso 1 1 d D . .
O5 O 0.8141(4) 0.6623(5) 0.6442(5) 0.163(3) Uiso 1 1 d D . .
O6 O 0.7641(4) 0.6107(4) 0.7020(5) 0.163(3) Uiso 1 1 d . . .
H6 H 0.7630 0.5900 0.7182 0.245 Uiso 1 1 calc R . .
O12 O 0.9376(4) 0.5366(4) 0.7161(4) 0.147(5) Uiso 1 1 d . . .
H12A H 0.9573 0.5198 0.7113 0.221 Uiso 1 1 calc R . .
O13 O 0.9354(4) 0.4494(4) 0.7002(3) 0.125(5) Uiso 1 1 d D . .
H13A H 0.9276 0.4258 0.7086 0.187 Uiso 1 1 calc R . .
O14 O 0.8576(3) 0.4172(4) 0.6665(3) 0.093(4) Uiso 1 1 d . . .
O15 O 0.8226(3) 0.5115(4) 0.7235(3) 0.097(4) Uiso 1 1 d D . .
O16 O 0.7773(4) 0.4420(4) 0.7467(4) 0.141(5) Uiso 1 1 d . . .
H16 H 0.7833 0.4165 0.7481 0.211 Uiso 1 1 calc R . .
OA O 1.0000 0.5000 0.6626(10) 0.292(13) Uiso 1 2 d S T P
loop_
_atom_site_aniso_label
_atom_site_aniso_U_11
_atom_site_aniso_U_22
_atom_site_aniso_U_33
_atom_site_aniso_U_23
_atom_site_aniso_U_13
_atom_site_aniso_U_12
K1 0.120(4) 0.175(7) 0.120(4) 0.040(4) 0.034(4) -0.040(4)
loop_
_atom_type_symbol
_atom_type_description
_atom_type_scat_dispersion_real
_atom_type_scat_dispersion_imag
_atom_type_scat_source
H H 0.0000 0.0000 'International Tables Vol C Tables 4.2.6.8 and 6.1.1.4'
C C 0.0033 0.0016 'International Tables Vol C Tables 4.2.6.8 and 6.1.1.4'
O O 0.0106 0.0060 'International Tables Vol C Tables 4.2.6.8 and 6.1.1.4'
K K 0.2009 0.2494 'International Tables Vol C Tables 4.2.6.8 and 6.1.1.4'
loop_
_geom_angle_atom_site_label_1
_geom_angle_atom_site_label_2
_geom_angle_atom_site_label_3
_geom_angle
_geom_angle_site_symmetry_1
_geom_angle_site_symmetry_3
C2 C1 H1 103.0 . .
C2 C1 O14 116.4(16) . 7_556
O5 C1 H1 103.0 . .
O5 C1 C2 115.6(16) . .
O5 C1 O14 113.3(14) . 7_556
O14 C1 H1 103.0 7_556 .
C1 C2 H2 109.6 . .
C1 C2 C3 105.5(16) . .
C3 C2 H2 109.6 . .
O2 C2 C1 109.4(16) . .
O2 C2 H2 109.6 . .
O2 C2 C3 112.9(15) . .
C2 C3 H3 101.8 . .
C4 C3 C2 116.1(16) . .
C4 C3 H3 101.8 . .
C4 C3 O3 121.3(14) . .
O3 C3 C2 110.3(13) . .
O3 C3 H3 101.8 . .
C3 C4 H4 102.0 . .
C3 C4 C5 117.1(15) . .
C5 C4 H4 102.0 . .
O4 C4 C3 115.7(15) . .
O4 C4 H4 102.0 . .
O4 C4 C5 114.5(16) . .
C4 C5 H5 104.7 . .
C6 C5 C4 121.3(17) . .
C6 C5 H5 104.7 . .
O5 C5 C4 105.9(15) . .
O5 C5 H5 104.7 . .
O5 C5 C6 113.9(17) . .
C5 C6 H6A 111.1 . .
C5 C6 H6B 111.1 . .
H6A C6 H6B 109.1 . .
O6 C6 C5 103.2(16) . .
O6 C6 H6A 111.1 . .
O6 C6 H6B 111.1 . .
C12 C11 H11 112.6 . .
C12 C11 K1 98.6(12) . .
C12 C11 O4 101.1(17) . .
C12 C11 O15 106.8(15) . .
K1 C11 H11 70.7 . .
O4 C11 H11 112.6 . .
O4 C11 K1 156.4(12) . .
O4 C11 O15 110.4(16) . .
O15 C11 H11 112.6 . .
O15 C11 K1 50.8(8) . .
C11 C12 H12 105.1 . .
C11 C12 C13 118.2(16) . .
C11 C12 O12 113.0(16) . .
C13 C12 H12 105.1 . .
C13 C12 O12 109.1(15) . .
O12 C12 H12 105.1 . .
C12 C13 H13 110.1 . .
C12 C13 C14 106.3(14) . .
C12 C13 O13 109.2(15) . .
C14 C13 H13 110.1 . .
O13 C13 H13 110.1 . .
O13 C13 C14 110.8(13) . .
C13 C14 H14 111.7 . .
C15 C14 C13 108.6(13) . .
C15 C14 H14 111.7 . .
O14 C14 C13 102.9(13) . .
O14 C14 H14 111.7 . .
O14 C14 C15 109.9(14) . .
C14 C15 H15 114.9 . .
C16 C15 C14 105.4(16) . .
C16 C15 H15 114.9 . .
O15 C15 C14 102.7(15) . .
O15 C15 H15 114.9 . .
O15 C15 C16 102.6(15) . .
C15 C16 H16A 107.6 . .
C15 C16 H16B 107.6 . .
H16A C16 H16B 107.0 . .
O16 C16 C15 119.0(17) . .
O16 C16 H16A 107.6 . .
O16 C16 H16B 107.6 . .
C11 K1 C11 149.9(7) . 23_565
O2 K1 C11 88.8(4) 44_666 23_565
O2 K1 C11 88.8(4) 41_646 .
O2 K1 C11 102.6(4) 44_666 .
O2 K1 C11 102.6(4) 41_646 23_565
O2 K1 O2 135.5(6) 44_666 41_646
O2 K1 O3 97.2(4) 41_646 44_666
O2 K1 O3 58.0(4) 44_666 44_666
O2 K1 O3 58.0(4) 41_646 41_646
O2 K1 O3 97.2(4) 44_666 41_646
O3 K1 C11 56.7(4) 41_646 23_565
O3 K1 C11 145.8(5) 41_646 .
O3 K1 C11 145.8(4) 44_666 23_565
O3 K1 C11 56.7(4) 44_666 .
O3 K1 O3 115.3(5) 44_666 41_646
O15 K1 C11 127.0(5) . 23_565
O15 K1 C11 127.0(5) 23_565 .
O15 K1 C11 24.2(3) 23_565 23_565
O15 K1 C11 24.2(3) . .
O15 K1 O2 118.8(4) 23_565 41_646
O15 K1 O2 88.2(3) 23_565 44_666
O15 K1 O2 88.2(3) . 41_646
O15 K1 O2 118.8(4) . 44_666
O15 K1 O3 80.7(4) 23_565 41_646
O15 K1 O3 143.0(3) 23_565 44_666
O15 K1 O3 143.0(3) . 41_646
O15 K1 O3 80.7(4) . 44_666
O15 K1 O15 106.8(5) 23_565 .
O15 K1 O16 56.9(4) 23_565 23_565
O15 K1 O16 70.3(3) . 23_565
O15 K1 O16 70.3(3) 23_565 .
O15 K1 O16 56.9(4) . .
O16 K1 C11 79.8(4) 23_565 23_565
O16 K1 C11 79.8(4) . .
O16 K1 C11 78.0(4) . 23_565
O16 K1 C11 78.0(4) 23_565 .
O16 K1 O2 153.4(4) . 44_666
O16 K1 O2 70.5(3) . 41_646
O16 K1 O2 70.5(3) 23_565 44_666
O16 K1 O2 153.4(4) 23_565 41_646
O16 K1 O3 94.6(4) . 41_646
O16 K1 O3 135.4(4) 23_565 41_646
O16 K1 O3 135.4(4) . 44_666
O16 K1 O3 94.6(4) 23_565 44_666
O16 K1 O16 84.4(5) 23_565 .
C2 O2 K1 109.8(10) . 42_566
C2 O2 H2A 109.5 . .
K1 O2 H2A 57.4 42_566 .
C3 O3 K1 119.2(9) . 42_566
C3 O3 H3A 109.5 . .
K1 O3 H3A 131.2 42_566 .
C4 O4 C11 119.8(15) . .
C1 O5 C5 112.3(16) . .
C6 O6 H6 109.5 . .
C12 O12 H12A 109.5 . .
C13 O13 H13A 109.5 . .
C1 O14 C14 120.8(12) 5_565 .
C11 O15 K1 105.0(10) . .
C15 O15 C11 115.8(14) . .
C15 O15 K1 127.0(10) . .
C16 O16 K1 116.3(10) . .
C16 O16 H16 109.5 . .
K1 O16 H16 119.5 . .
loop_
_geom_bond_atom_site_label_1
_geom_bond_atom_site_label_2
_geom_bond_distance
_geom_bond_site_symmetry_2
C1 H1 0.9800 .
C1 C2 1.436(16) .
C1 O5 1.362(14) .
C1 O14 1.454(15) 7_556
C2 H2 0.9800 .
C2 C3 1.531(16) .
C2 O2 1.432(17) .
C3 H3 0.9800 .
C3 C4 1.452(15) .
C3 O3 1.464(16) .
C4 H4 0.9800 .
C4 C5 1.585(19) .
C4 O4 1.421(14) .
C5 H5 0.9800 .
C5 C6 1.524(17) .
C5 O5 1.48(2) .
C6 H6A 0.9700 .
C6 H6B 0.9700 .
C6 O6 1.450(18) .
C11 H11 0.9800 .
C11 C12 1.430(17) .
C11 K1 3.44(2) .
C11 O4 1.439(17) .
C11 O15 1.462(16) .
C12 H12 0.9800 .
C12 C13 1.458(18) .
C12 O12 1.484(17) .
C13 H13 0.9800 .
C13 C14 1.542(19) .
C13 O13 1.471(9) .
C14 H14 0.9800 .
C14 C15 1.509(19) .
C14 O14 1.459(15) .
C15 H15 0.9800 .
C15 C16 1.488(9) .
C15 O15 1.427(15) .
C16 H16A 0.9700 .
C16 H16B 0.9700 .
C16 O16 1.378(18) .
K1 C11 3.44(2) 23_565
K1 O2 2.945(14) 41_646
K1 O2 2.945(14) 44_666
K1 O3 2.980(14) 41_646
K1 O3 2.980(14) 44_666
K1 O15 2.760(11) .
K1 O15 2.760(11) 23_565
K1 O16 2.878(13) 23_565
K1 O16 2.878(13) .
O2 K1 2.945(14) 42_566
O2 H2A 0.8200 .
O3 K1 2.981(14) 42_566
O3 H3A 0.8200 .
O6 H6 0.8200 .
O12 H12A 0.8200 .
O13 H13A 0.8200 .
O14 C1 1.454(15) 5_565
O16 H16 0.8200 .
loop_
_geom_torsion_atom_site_label_1
_geom_torsion_atom_site_label_2
_geom_torsion_atom_site_label_3
_geom_torsion_atom_site_label_4
_geom_torsion
_geom_torsion_site_symmetry_1
_geom_torsion_site_symmetry_4
C1 C2 C3 C4 -43(2) . .
C1 C2 C3 O3 173.8(14) . .
C1 C2 O2 K1 179.9(12) . 42_566
C2 C1 O5 C5 -72(2) . .
C2 C3 C4 C5 37(2) . .
C2 C3 C4 O4 177.1(14) . .
C2 C3 O3 K1 -17.4(17) . 42_566
C3 C2 O2 K1 -63.0(16) . 42_566
C3 C4 C5 C6 -171.0(18) . .
C3 C4 C5 O5 -39(2) . .
C3 C4 O4 C11 106.5(18) . .
C4 C3 O3 K1 -158.1(12) . 42_566
C4 C5 C6 O6 62(3) . .
C4 C5 O5 C1 53.6(18) . .
C5 C4 O4 C11 -112.7(18) . .
C6 C5 O5 C1 -170.7(16) . .
C11 C12 C13 C14 -53(2) . .
C11 C12 C13 O13 -172.5(15) . .
C12 C11 O4 C4 -134.4(16) . .
C12 C11 O15 C15 -58(2) . .
C12 C11 O15 K1 87.4(15) . .
C12 C13 C14 C15 59.3(18) . .
C12 C13 C14 O14 175.7(13) . .
C13 C14 C15 C16 -172.6(15) . .
C13 C14 C15 O15 -65.5(18) . .
C13 C14 O14 C1 129.5(13) . 5_565
C14 C15 C16 O16 59(2) . .
C14 C15 O15 C11 67.0(18) . .
C14 C15 O15 K1 -69.4(16) . .
C15 C14 O14 C1 -115.0(16) . 5_565
C15 C16 O16 K1 37(2) . .
C16 C15 O15 C11 176.2(14) . .
C16 C15 O15 K1 39.8(19) . .
K1 C11 C12 C13 101.3(16) . .
K1 C11 C12 O12 -129.6(12) . .
K1 C11 O4 C4 80(4) . .
K1 C11 O15 C15 -145.3(15) . .
O2 C2 C3 C4 -162.8(14) . .
O2 C2 C3 O3 54(2) . .
O3 C3 C4 C5 175.9(16) . .
O3 C3 C4 O4 -44(2) . .
O4 C4 C5 C6 49(3) . .
O4 C4 C5 O5 -179.5(14) . .
O4 C11 C12 C13 -66(2) . .
O4 C11 C12 O12 63.5(19) . .
O4 C11 O15 C15 51(2) . .
O4 C11 O15 K1 -163.5(12) . .
O5 C1 C2 C3 61(2) . .
O5 C1 C2 O2 -177.0(15) . .
O5 C5 C6 O6 -66.1(19) . .
O12 C12 C13 C14 176.2(13) . .
O12 C12 C13 O13 56.6(19) . .
O13 C13 C14 C15 177.9(15) . .
O13 C13 C14 O14 -65.7(17) . .
O14 C1 C2 C3 -75.5(19) 7_556 .
O14 C1 C2 O2 46(2) 7_556 .
O14 C1 O5 C5 66.1(19) 7_556 .
O14 C14 C15 C16 75.5(19) . .
O14 C14 C15 O15 -177.4(12) . .
O15 C11 C12 C13 50(2) . .
O15 C11 C12 O12 178.9(14) . .
O15 C11 O4 C4 112.9(17) . .
O15 C15 C16 O16 -48(2) . .
loop_
_refln_index_h
_refln_index_k
_refln_index_l
_refln_F_squared_meas
_refln_F_squared_sigma
_refln_scale_group_code
-2 -3 -3 44620.6 1507.39 4
2 3 3 46887.4 1700.74 4
-3 -2 3 45486.6 1332.46 4
-3 -3 -2 45403.4 1529.06 1
-3 -3 2 43744 1484.44 2
-2 3 -3 45915.7 1543.73 1
2 -3 3 42518.2 1520.14 1
3 -2 3 40615.1 1373.1 1
-2 3 -3 46991.4 1763.98 2
-3 -2 3 45270.7 1403.1 2
3 -3 2 48468.6 1839.26 2
-3 2 -3 42789 1421.46 1
-2 -3 -3 43623.7 1485.69 3
3 3 2 53240 1969.84 4
2 3 -3 48364.2 1577.26 1
3 2 3 46885.5 1650.3 3
-3 -3 2 41677.6 1410 1
2 -3 3 47253.6 1807.77 2
-3 2 -3 43782 1559.75 2
-3 3 -2 44878.3 1726.26 2
3 3 -2 49916.2 1673.65 4
2 3 3 46074.7 1590.4 3
3 3 2 47228 1653.76 3
2 3 -3 45465.1 1591.34 2
-3 -2 -3 51923.5 1795.07 4
-2 -3 3 45452.5 1627.44 2
-2 -3 3 47556.9 1586.85 1
-3 -3 -2 50771.3 1738.09 4
-3 -2 3 46203.5 1458.06 1
3 2 3 50158.7 1901.76 4
-3 3 -2 39293 1297.36 1
3 -2 3 46405.2 1630.63 2
0 4 2 2084.63 273.047 3
-2 4 0 2484.95 458.138 2
-4 -2 0 3411.33 491.843 4
-2 -4 0 2015.34 352.487 1
-4 -2 0 3119.39 420.042 3
-4 -2 0 2303.84 273.674 1
-2 -4 0 2338.69 412.053 2
0 -4 2 2613.4 475.037 2
-4 2 0 2603.51 358.472 2
-2 -2 -4 3609.3 422.649 4
-4 -2 2 3585.52 480.098 4
-2 -4 2 2214.01 382.689 1
4 2 -2 1750.16 263.087 1
-2 -4 -2 2106.45 371.32 1
4 2 2 3428.73 478.62 3
2 2 -4 2442.33 374.325 1
2 -4 2 2069.94 345.079 1
-2 -4 2 1925.9 397.843 2
-2 4 -2 2017.21 340.981 1
-2 2 -4 2449.29 403.747 2
-4 -2 -2 2712.36 459.081 4
2 -4 2 2140.25 431.844 2
4 2 -2 2657.05 429.824 4
-2 4 2 2304.36 367.963 1
2 4 -2 1993.61 374.574 2
-2 4 -2 2152.83 439.912 2
2 4 -2 1922.46 341.661 1
2 2 4 2659.13 411.959 4
2 -2 4 2505.38 411.382 2
2 -4 -2 2329.75 357.76 1
2 4 2 2593.94 380.449 3
-2 -2 4 2775.3 409.634 2
-4 -2 2 2010.85 280.97 1
2 4 2 2574.82 412.953 1
-4 2 -2 1899.21 266.88 1
-2 -4 -2 3251.5 428.857 3
-4 2 -2 2494.53 368.74 2
-2 2 -4 2378.27 375.467 1
4 -2 2 1981.85 270.925 1
-2 -2 4 2059.88 347.743 1
-4 -2 -2 2661.06 404.689 3
2 -2 4 2236.78 358.939 1
4 2 2 2513.6 484.697 4
2 2 -4 2147.58 347.355 2
4 1 3 199.769 141.675 4
4 3 -1 116.628 99.0839 1
-3 4 -1 273.445 203.344 2
-3 -4 1 60.3039 73.1601 1
3 -4 -1 130.768 129.663 1
3 4 1 395.951 186.327 3
3 -1 4 176.986 113.411 1
-4 -1 3 86.0773 74.2162 1
1 -4 3 187.927 142.256 1
-1 3 -4 37.5058 71.4859 1
-3 -1 -4 651.893 225.015 4
-1 -3 4 54.3809 100.947 1
-4 1 -3 119.024 82.6524 1
1 3 4 143.426 132.533 3
3 1 -4 80.3415 65.9344 1
4 3 -1 268.551 166.365 4
-4 -3 -1 94.0054 91.1289 1
-1 -4 -3 117.534 104.399 1
-3 -4 1 162.249 158.711 2
3 4 1 96.8077 143.863 4
1 -4 3 176.811 100.396 2
4 1 3 65.9817 118.327 3
-1 -4 -3 301.694 127.796 3
4 3 -1 162.528 107.922 2
-1 3 -4 237.295 161.507 2
-4 -3 -1 157.064 98.968 3
-1 4 3 557.705 137.341 3
4 -3 1 9.21735 55.8248 1
3 -1 4 205.505 126.116 2
-4 -1 3 466.029 180.778 4
4 -3 1 76.8775 116.701 2
3 -4 -1 171.392 191.062 2
-4 3 1 76.6761 136.67 2
-4 3 1 48.8859 72.463 1
-4 1 -3 47.656 96.3145 2
3 4 1 152.079 145.322 2
-4 -3 -1 300.619 159.629 4
-3 4 -1 56.4773 54.9578 1
3 4 1 172.377 130.173 1
-1 -3 4 223.844 135.818 2
1 4 -3 215.231 146.424 1
1 4 -3 39.2229 86.4106 2
-3 4 1 -38.3855 69.7496 1
-4 -1 -3 694.421 251.462 4
-1 -4 3 252.042 192.768 2
1 4 3 439.632 166.858 3
-1 4 -3 228.632 146.884 2
4 3 1 169.232 193.775 4
3 -4 1 280.839 188.311 2
-4 3 -1 24.6286 75.5365 2
1 3 -4 194 161.546 2
3 1 4 987.357 289.06 4
1 -4 -3 96.4699 113.994 1
4 -3 -1 37.0557 48.6774 1
4 -3 -1 256.241 158.157 2
3 4 -1 67.8693 132.622 2
4 -1 3 175.044 103.394 2
3 -4 1 -23.0647 69.8603 1
4 3 1 126.133 94.191 1
1 -4 -3 486.001 122.371 3
3 4 -1 96.7476 113.3 1
-1 4 -3 65.0473 77.5836 1
-4 3 -1 -11.6812 52.9146 1
-3 4 1 270.944 205.771 2
-1 -4 3 87.215 65.3531 1
-4 -3 1 360.593 165.458 4
-4 -3 1 148.318 82.1584 2
3 4 -1 71.1215 168.213 4
-3 -4 -1 48.5635 100.079 1
-3 -4 -1 636.12 235.771 3
4 -1 3 171.653 127.694 1
1 -3 4 154.115 148.674 2
-3 1 -4 39.1926 60.1134 1
-4 -3 1 116.905 103.381 1
-3 -1 4 139.632 113.157 1
4 3 1 329.948 156.85 3
1 -3 4 62.9572 102.4 1
1 3 -4 -37.664 104.562 1
4 1 -3 48.0919 52.3409 1
3 4 -3 64630.6 2121.61 2
4 -3 3 60826.2 1827.91 1
4 3 3 73072.1 2650.46 4
-4 3 -3 58330.5 1762.66 1
3 -4 -3 67799.9 1956.24 1
-3 4 -3 59006.2 1884.91 1
-3 -4 -3 64248.2 2083.97 4
3 -4 3 58043.3 1902.09 1
3 3 -4 71098.6 2073.82 1
4 3 -3 63894.1 1779.78 2
3 3 -4 66146.1 1841.96 4
4 3 -3 64512.4 1859.11 1
-3 -3 4 67601.2 2097.78 2
4 3 3 67999.8 2266.37 3
3 4 3 67077.3 2398.99 4
-3 4 -3 68732.6 2418.18 2
-4 -3 3 60935.9 1811.93 2
-4 -3 -3 74107.3 2428.96 4
3 4 -3 70695.6 2082.12 1
-4 3 -3 63931.7 2132.57 2
-3 -4 3 65749.5 2209.06 2
3 3 -4 66055.1 2006.35 2
-4 -3 3 63929.4 1901.95 4
-3 -4 3 65016.4 2039.24 1
-4 -3 -3 69293.6 2192.24 3
3 -4 3 71168.2 2527.97 2
-3 3 -4 62396.9 1991.68 1
3 -3 4 60108.1 2007.88 1
-3 -3 -4 67958.5 2132.11 4
-3 -4 -3 67442.5 2130.93 1
3 -3 4 64953.5 2269.05 2
4 3 -3 65615.2 2125.07 4
-3 3 -4 65600.4 2228.46 2
4 -3 3 65101.3 2218.1 2
-3 -4 -3 65271.3 2086.92 3
-4 -3 3 64282.6 1877.8 1
3 4 3 64935.1 2139.78 3
3 3 4 65121.2 2347.13 4
-3 -3 4 65805 2062.35 1
3 3 4 64625.3 2154.27 3
0 4 4 83244.2 1969.18 3
4 4 0 92669 2873.38 4
0 -4 4 80196.5 2400.92 1
4 0 -4 78513 1853.06 1
4 4 0 78456.1 2090.16 1
-4 -4 0 82194.8 2473.86 3
4 4 0 74869.5 2156.6 2
0 4 -4 78546.9 2307.7 1
-4 -4 0 84239.3 2356.76 2
0 4 -4 82789.6 2609.49 2
4 -4 0 70070 1798.56 1
4 -4 0 88133 2773.19 2
-4 -4 0 76355.5 2124.13 1
0 -4 4 81785.8 2641.82 2
-4 4 0 83129.5 2663.81 2
-4 4 0 79102.2 1942.55 1
-4 -4 0 85791.1 2456.15 4
4 -4 2 11202.4 788.262 1
-2 -4 -4 10632.2 809.166 3
-2 -4 4 12162.5 1006.73 2
2 -4 4 11730.5 1056.49 2
4 2 -4 12136.8 817.252 1
-4 4 -2 12113.2 1018.33 2
4 4 -2 12814.5 1023.69 4
2 -4 4 12315.2 948.354 1
-4 -2 4 11862.3 818.946 1
-4 -2 4 12078.2 800.784 4
-4 4 2 10964.6 1055.9 2
4 4 2 10504.4 1012.1 4
-4 2 -4 11586.9 823.565 1
4 4 2 11502.3 898.745 1
4 4 2 10713.7 878.058 3
-4 -4 -2 11189.3 935.04 4
-2 4 -4 11792.5 1010.59 2
4 4 -2 11479.4 821.495 1
-2 -4 4 11689.6 921.916 1
4 4 -2 11424.4 853.866 2
-4 -4 2 10786 851.968 2
4 -4 2 12520.6 1077.4 2
2 4 4 11733.7 961.109 4
4 -2 4 10969.4 868.211 2
4 2 -4 12060.1 832.469 4
-4 2 -4 11242 886.293 2
-4 -4 -2 10539.3 890.999 3
-4 4 -2 11013.9 778.136 1
2 4 -4 11077.3 939.644 2
-4 -4 2 10227.2 810.681 1
4 -2 4 11259 825.153 1
-4 -4 -2 10925.2 868.468 1
-2 4 -4 13079.7 953.794 1
2 4 -4 12717.4 943.542 1
4 2 4 11444.5 1053.34 4
-4 4 2 12640.4 812.624 1
2 4 4 11910 896.226 3
-4 -2 4 11962.8 812.531 2
4 2 4 10275.3 896.051 3
4 -4 -2 11998.4 770.32 1
-4 -2 -4 11620.2 983.932 4
-4 4 -4 43764.2 1792.94 1
4 -4 4 51017.6 2261.87 2
-4 -4 -4 51933.4 2111.46 4
4 -4 4 41083.9 1772.79 1
-4 -4 4 48330.4 1949.89 2
-4 -4 4 44025.9 1848.92 1
-4 4 -4 50201.3 2175.99 2
4 4 -4 44984.5 1788.84 2
4 4 4 41747.1 2204.08 4
-4 -4 -4 51776.1 2058.02 3
4 4 -4 49160.9 1847.04 1
4 4 4 48074 2123.51 3
4 4 -4 39733.5 1732.98 4
-5 1 0 806.419 202.129 3
-5 -1 0 625.982 231.176 4
0 -5 -1 612.553 234.803 1
0 -1 5 359.386 162.567 1
5 0 1 589.141 164.547 3
-5 0 1 612.677 181.769 3
5 0 -1 642.362 174.246 3
-1 -5 0 182.656 190.876 2
-1 -5 0 385.555 179.744 1
0 -5 1 225.992 217.505 2
-1 5 0 394.01 199.424 1
0 5 -1 469.142 202.695 1
1 -5 0 533.936 195.991 1
0 1 -5 556.902 211.891 1
5 1 0 578.419 192.463 3
0 5 1 388.869 197.404 1
5 -1 0 935.711 211.643 3
-5 0 -1 414.896 155.332 3
0 5 1 768.108 308.349 2
1 -5 0 319.571 258.607 2
0 5 -1 684.324 278.207 2
1 5 0 463.791 209.235 1
0 -5 1 263.049 132.53 1
-1 5 0 369.962 237.276 2
0 -5 -1 326.89 244.712 2
1 5 0 276.52 184.79 2
1 0 -5 540.212 183.313 1
-5 -1 0 684.277 203.932 3
-5 -1 2 3828.26 578.433 4
-1 5 2 2859.64 586.559 2
2 -5 -1 3278.25 624.367 2
-1 2 -5 3489.84 514.339 2
1 -5 2 3368.83 481.347 1
-5 -2 -1 4307.35 538.373 3
5 1 2 4336.07 546.834 3
-2 5 -1 3793.54 491.63 1
5 2 -1 3476.28 340.127 1
-5 2 1 3859.58 478.594 2
-5 1 -2 3234.51 370.287 2
2 -5 -1 3457.52 462.648 1
-1 -2 5 4192.58 542.411 2
2 -1 5 3891.6 542.13 2
2 5 1 3021.68 537.587 2
-5 1 -2 3268.3 324.931 1
-2 -5 1 3463.97 572.51 2
1 5 -2 3509.13 587.685 2
-2 -1 -5 4883.22 503.051 4
-1 2 -5 3815.97 507.295 1
2 -1 5 3687.33 515.505 1
1 5 -2 3674.57 502.226 1
-1 5 2 3496.36 502.508 1
-5 -2 -1 4689.51 656.892 4
-5 -2 -1 3461.35 362.519 1
5 -2 1 3727.86 475.185 2
-2 -5 1 3294.36 480.359 1
2 5 1 3334.84 489.371 1
-2 5 -1 3254.19 599.862 2
-1 -5 -2 3714.11 524.935 1
5 2 -1 4237.41 616.926 4
1 -5 2 3928.13 631.504 2
-1 -5 -2 3695.95 445.703 3
1 2 5 3452.16 408.4 4
2 1 -5 3814.08 492.219 1
-5 2 1 3969.48 354.464 3
-1 -2 5 3582.48 504.257 1
1 -2 5 3639.88 498.527 1
-2 -1 5 3861.44 494.595 1
-5 -2 1 4622.94 561.76 3
1 -5 -2 3239.65 343.437 3
5 -2 -1 4272.43 359.161 3
-2 -5 -1 3735.39 525.322 1
-5 1 2 4562.54 423.218 3
1 -2 5 3490.17 504.346 2
2 1 5 3804.69 491.85 4
-5 -2 1 2986.79 328.109 1
5 2 1 3874.85 497.348 3
1 5 2 3601.72 433.949 3
-5 -2 1 4472.66 633.047 4
-1 -2 -5 3122.9 357.853 4
-1 5 -2 3960.09 515.236 1
-1 -5 2 3393.87 513.297 1
5 2 1 4682.55 666.811 4
-1 -5 2 3650.84 594.008 2
-2 5 1 3699.95 478.134 1
-2 -5 -1 4035.68 512.539 3
2 -5 1 3556.88 644.409 2
2 5 -1 3442.63 497.588 1
1 2 -5 3771.04 502.794 1
2 5 -1 3059.97 538.681 2
5 -1 2 3044.42 361.154 2
-5 -1 -2 4679.77 666.503 4
-5 -1 -2 3853.58 477.51 3
1 -5 -2 3334.92 470.081 1
-1 5 -2 3378.96 591.028 2
1 5 2 3609.73 518.298 1
-5 2 -1 3212.07 414.58 2
-2 5 1 2728.63 561.101 2
-2 -5 -1 3430.45 565.425 2
-2 1 -5 3693.27 497.995 1
2 -5 1 3486.83 469.708 1
-5 2 -3 2919.41 412.149 2
5 -3 2 2803.81 364.045 1
-5 -3 -2 3223.39 551.608 4
-3 5 -2 3377.96 472.581 1
-5 -2 3 2382.25 357.545 1
5 -3 2 3130.4 525.26 2
5 3 -2 2705.07 376.742 1
2 5 -3 2942.15 483.811 1
3 -2 5 3318.28 533.331 2
-3 -5 2 3171.15 556.682 2
3 5 2 2615.75 457.299 1
-5 -2 3 3220.17 359.617 2
-3 -5 2 2974.47 465.137 1
-3 5 -2 3191.06 598.277 2
2 5 -3 3038.4 542.672 2
-5 -2 3 4255.74 591.118 4
5 3 -2 2806.37 335.169 2
2 -5 3 3461.88 510.328 1
-5 2 -3 2909.03 384.818 1
3 2 -5 3464.74 487.448 1
-2 -5 -3 3250.22 477.36 3
-2 -3 5 3260.6 498.632 1
3 5 2 2825.95 447.753 3
-3 -2 -5 3582.69 527.915 4
2 -5 3 3210.16 613.012 2
5 2 3 3568.6 555.624 3
3 5 2 3043.06 557.947 4
-2 -3 5 3685.71 548.295 2
-2 3 -5 3723.79 527.037 1
-5 -3 -2 3107.09 520.383 3
2 3 5 3819.66 544.464 4
-2 -5 -3 3222.25 506.726 1
-5 -3 -2 2889.72 406.259 1
-5 3 2 3111.96 537.359 2
3 2 -5 3479.14 382.533 4
3 -5 -2 3098.95 457.583 1
5 2 3 3780.15 639.87 4
5 3 -2 3503.48 578.87 4
-2 3 -5 3284.04 539.925 2
3 -2 5 3485.92 503.092 1
0 -5 -3 13185 779.458 3
0 -3 5 13590.6 1044.83 2
0 5 -3 13989 1155.29 2
-5 3 0 12873.8 960.833 2
3 -5 0 12930.5 882.502 1
0 -5 3 13337 1159.22 2
3 5 0 12227.3 1009.99 2
5 -3 0 11221.3 598.414 1
-5 -3 0 14279.7 1127.49 4
3 -5 0 13584.9 1229.45 2
-3 -5 0 11772.7 941.223 1
5 3 0 14008.8 1155.4 4
0 3 -5 13888.5 1000.69 1
-3 -5 0 13341.2 1083.35 2
0 -5 3 12296.4 950.042 1
-3 5 0 12763.5 902.482 1
0 3 -5 14160.2 1034.96 2
5 -3 0 14666.1 1049.67 2
0 -5 -3 13441.5 998.298 1
-5 -3 0 14511.9 1043.28 3
5 3 0 12740.4 933.856 3
0 5 3 12617.8 760.044 3
0 5 -3 12564.8 947.459 1
-3 5 0 12384.7 1151.42 2
-5 -3 0 11482.8 754.87 1
5 0 3 11767.2 737.337 2
3 5 0 12459.6 930.397 1
5 0 -3 11752.1 603.729 1
5 3 0 11586.2 742.055 1
0 -3 5 13212.4 989.215 1
3 0 -5 13349.9 870.109 1
-5 3 0 11294.3 615.656 1
-5 -3 2 2881.61 379.011 2
5 -3 -2 2827.58 312.649 1
-2 -5 3 2785.45 551.106 2
-3 -2 5 3380.86 493.467 2
3 5 -2 3024.53 475.386 1
-5 -3 2 3401.01 513.927 4
2 -3 5 3047.58 504.315 1
3 5 -2 2431.48 472.734 2
3 -5 2 3184.92 466.504 1
2 -3 5 3486.6 578.891 2
2 -5 -3 3248.89 482.227 1
5 -2 3 3199.63 403.799 1
2 3 -5 3832.42 554.919 1
-2 -5 3 3195.96 485.086 1
-3 2 -5 3390.11 502.708 1
5 3 2 3450.26 544.573 3
-3 2 -5 3228.08 489.306 2
-3 5 2 2212.46 581.286 2
-2 5 -3 3599.51 499.776 1
-2 5 -3 2856.53 579.569 2
-3 -2 5 3678.36 508.84 1
3 2 5 2777.78 478.242 4
-3 -5 -2 3346.27 491.194 3
5 2 -3 3280.35 508.876 4
-5 -3 2 2541.92 380.916 1
5 3 2 3248.01 629.554 4
-3 -5 -2 2558.44 481.856 1
2 3 -5 3273.77 494.802 2
-5 -2 -3 3732.95 655.558 4
5 -2 3 2481.33 412.862 2
-5 3 -2 2485.69 435.89 2
-2 -3 -5 3476.39 477.821 4
-3 5 2 3335.15 486.748 1
-5 -2 -3 3433.13 494.717 3
-5 3 -2 2983.48 367.179 1
2 5 3 3476.12 476.626 3
3 -5 2 3377.77 656.884 2
5 2 -3 3260.65 391.827 1
5 4 -3 3175.51 464.073 2
4 -3 5 3219.95 573.793 2
-4 -5 3 3147.47 560.185 2
3 5 -4 3370.87 545.342 1
4 5 3 3613.55 597.066 3
-3 -4 5 3309.21 578.079 1
-4 -5 3 2818.69 525.046 1
-4 -3 -5 4178.11 646.522 4
3 -5 4 3340.18 668.704 2
4 -3 5 2887.94 514.546 1
-5 3 -4 3073.55 517.819 2
5 4 -3 3177.91 474.4 1
-5 -3 4 2853.64 446.285 2
3 4 5 4469.3 657.335 4
4 -5 -3 2871.01 467.459 1
-4 5 -3 3233.51 508.192 1
-5 -4 -3 4122.22 667.83 4
3 4 5 4316.94 632.187 3
3 5 -4 2977.25 557.458 2
5 3 4 4403.9 750.485 4
-5 -3 4 4477.57 592.304 4
-3 4 -5 3304.52 593 2
3 -5 4 2920.95 546.552 1
-3 4 -5 2852.84 492.672 1
-5 -3 4 3713.97 500.736 1
4 3 -5 2880.53 484.521 1
5 -4 3 2788.83 443.258 1
-5 -4 -3 3083 503.881 1
-3 -4 5 2932.02 520.505 2
4 3 -5 2893.91 476.881 2
-4 5 -3 3659.13 675.962 2
5 4 -3 3776.1 640.229 4
5 3 4 3690.87 645.384 3
-3 -5 -4 4145.81 602.986 3
4 3 -5 4322.69 540.959 4
5 -4 3 3714.68 655.831 2
-5 3 -4 2431.93 425.013 1
-5 -4 -3 4181.54 634.843 3
4 5 3 4029.1 705.159 4
-5 -1 4 9941.71 872.102 4
4 5 1 7928.98 794.433 1
-5 4 1 8780.34 939.784 2
5 4 -1 7841.84 700.029 2
1 4 5 8844.13 764.184 3
4 -1 5 8906.11 816.275 2
1 5 -4 8309.95 906.321 2
5 1 4 9249.53 898.293 3
5 -4 1 7361.73 600.797 1
-4 5 -1 7523.09 898.4 2
5 4 -1 8338.1 731.119 1
1 5 -4 9200.99 866.946 1
4 1 -5 7525.92 698.099 1
4 -5 -1 8875.59 1061.38 2
-4 -5 1 8043.89 781.345 1
-5 1 -4 7600.47 671.653 1
-1 4 -5 8517.08 821.642 1
4 5 1 8362.34 820.934 3
-5 -4 -1 10136 971.964 4
5 -4 1 8953.28 998.673 2
-1 5 4 9931.45 659.338 3
-4 -1 -5 9902.39 946.361 4
-5 -1 4 8692.95 660.484 1
-1 -4 5 8123.75 814.847 1
-1 -5 -4 9750.2 763.529 3
-5 4 1 9208.34 662.313 1
-5 -4 -1 11066 984.925 3
1 -5 4 8862.62 858.962 1
4 -5 -1 8848.32 733.722 1
-1 4 -5 9019.07 921.484 2
1 -5 4 9089.72 1027.97 2
4 5 1 10264 1053.9 4
-4 5 -1 8655.75 726.635 1
4 5 1 8362.31 874.34 2
-4 -5 1 8356.68 895.419 2
-1 -4 5 9513.35 946.963 2
5 4 -1 8470.2 938.411 4
-5 -4 -1 8106.93 748.204 1
4 5 -1 10728.1 1027.11 4
-5 4 -1 8084.69 886.235 2
4 5 -1 7784.49 817.813 2
5 -4 -1 7964.05 618 1
-4 -5 -1 8398.4 813.011 1
4 -5 1 9249.94 1093.15 2
-4 1 -5 7552.88 735.814 1
-5 -1 -4 10120.1 1018.38 4
1 4 -5 8912.13 838.891 1
-1 5 -4 8734.93 960.553 2
-4 -5 -1 9127.46 899.336 3
5 4 1 7044.13 709.951 1
1 -4 5 9410.34 889.178 1
-4 -1 5 9384.28 772.034 1
-5 -4 1 8327.22 732.202 2
-4 5 1 7799.02 978.167 2
5 4 1 8780.54 778.363 2
-5 -4 1 8131.75 717.622 1
1 -5 -4 9436.34 623.287 3
-1 -5 4 8557.98 844.612 1
1 5 4 9428.28 784.272 3
-4 5 1 9289.26 764.788 1
-5 -4 1 9913.1 926.797 4
1 4 -5 8786.23 888.083 2
-5 4 -1 7640.19 633.733 1
5 1 -4 8448.92 654.158 1
4 5 -1 8078.53 783.797 1
-1 5 -4 9411.43 871.026 1
5 -1 4 8504.6 735.54 2
4 -5 1 8790.15 739.102 1
5 -4 -1 9877.48 1002.57 2
5 4 1 9720.09 1040.81 4
-4 -1 5 11009.8 735.767 4
1 -4 5 9207.42 953.734 2
-1 -5 4 9264.74 989.767 2
5 4 1 9525.34 863.524 3
-5 4 -3 2593.04 415.226 1
3 4 -5 3247.9 554.569 2
-4 3 -5 2579.96 457.36 1
-5 -4 3 2791.07 443.08 1
3 5 4 3548.67 598.42 3
5 3 -4 3653.41 504.836 1
5 3 -4 4563.08 622.714 4
5 4 3 3628.29 632.901 3
5 4 3 3536.62 717.773 4
4 3 5 3976.44 681.784 4
-4 -5 -3 3573.43 612.373 3
3 -4 5 3598.98 617.39 2
3 -4 5 3427.97 570.735 1
5 -3 4 2693.94 450.823 1
4 5 -3 2546.93 511.56 2
-3 -5 4 3096.3 585.552 2
-5 -3 -4 4425.23 711.507 4
-4 -3 5 3435.92 528.496 2
3 -5 -4 3349.51 514.519 1
4 3 5 3797.62 639.535 3
4 5 -3 2939.9 494.646 1
5 -4 -3 3298.81 435.367 1
4 -5 3 2690.69 464.388 1
3 5 4 4234.2 685.232 4
-5 -4 3 3118.25 499.002 2
-5 -4 3 3020.97 521.297 4
-4 -3 5 2506.68 509.264 1
-3 5 -4 3228.79 505.747 1
5 3 -4 2950.47 429.242 2
-5 4 -3 2711.53 528.087 2
-4 -5 -3 3870.02 626.743 4
-3 5 -4 2496.81 572.923 2
4 -5 3 3744.97 699.203 2
-3 -4 -5 3885.86 579.417 4
-4 -5 -3 2897.05 544.867 1
5 -3 4 3010.66 547.321 2
-4 3 -5 3537.52 597.88 2
3 4 -5 3255.62 514.655 1
4 5 -3 4755.86 712.509 4
-5 -3 -4 3892.68 605.819 3
-3 -5 4 2621.83 525.471 1
-5 -5 0 2077.23 474.694 2
0 5 -5 1232.2 371.294 1
0 -5 5 1028.78 357.733 1
-5 -5 0 2551.04 542.083 3
0 -5 5 1848.64 490.206 2
5 5 0 4223.36 747.48 4
0 5 -5 1451.28 419.701 2
-5 5 0 1076.5 275.916 1
-5 -5 0 1144.72 330.309 1
-5 5 0 1208.43 493.464 2
-5 -5 0 3409.31 591.417 4
5 5 0 1949.6 431.121 2
0 5 5 3131.76 459.636 3
5 -5 0 2110.09 577.873 2
5 5 0 1142.56 320.053 1
5 -5 0 1346.32 305.052 1
5 0 -5 1054.46 271.523 1
5 5 -2 15767.8 1085.58 1
2 5 -5 18282.6 1253.04 1
-5 5 -2 16278.6 1335.57 2
-5 -5 2 16902.8 1216.56 2
5 5 2 20061.7 1589.82 4
-2 5 -5 18275.6 1431.09 2
-2 -5 -5 15815.2 1071.79 3
-5 -5 -2 17249.1 1197.46 1
-5 2 -5 15911.3 1176.25 2
-2 -5 5 16696.1 1391.08 2
5 2 5 18338.5 1352.48 3
2 5 -5 16719.4 1280.98 2
5 -2 5 16809.4 1193.82 2
-5 -5 -2 19968.2 1404.83 4
5 5 -2 15424.2 1116.1 2
5 5 2 16638.7 1256.91 3
5 -5 2 16116.2 1046.62 1
2 -5 5 18339.3 1455.73 2
-5 2 -5 15447.1 1084.92 1
-2 -5 5 18084.3 1294.58 1
5 2 5 14632.5 1322.35 4
5 2 -5 12998.7 971.784 4
-2 5 -5 17505.6 1231.63 1
2 5 5 15235.5 1249.19 4
5 5 2 15895.2 1168.79 1
-5 -2 5 17983 1111.08 1
5 -5 -2 16655.7 1005.69 1
5 -2 5 16518.2 1120.56 1
2 5 5 16258.7 1180.93 3
-5 -5 2 16458.8 1145.22 1
-5 5 -2 15740.9 1033.03 1
2 -5 5 17237.9 1279.02 1
-5 -2 5 17882.1 1105.89 4
-5 -2 5 16854.5 1092.04 2
5 -5 2 16998.5 1445.65 2
-5 5 2 17861.5 1085.4 1
-5 5 2 17854.1 1526.64 2
5 5 -2 19465.2 1458.02 4
5 2 -5 15510.3 1032.83 1
-2 5 5 17387.4 847.146 3
-5 -2 -5 19415.6 1441.42 4
-5 -5 -2 20207.6 1390.16 3
5 4 5 2546.65 642.713 4
-4 -5 5 1135.41 380.45 1
-5 -5 4 1114.35 373.362 2
-4 -5 5 687.719 341.702 2
-5 -4 5 1321.12 352.788 2
-4 5 -5 1066.63 336.124 1
4 5 -5 2552.39 534.335 4
4 5 -5 1165.19 403.731 2
-5 4 -5 1197 330.994 1
4 -5 5 1256.8 440.236 2
5 -4 5 1037.91 361.739 1
-5 -5 -4 1625.67 468.445 3
-5 -5 4 722.41 328.662 1
-5 -4 -5 1873.03 451.058 3
5 5 4 2010.45 570.335 4
4 5 5 4068.11 777.23 4
5 4 -5 3511.84 589.838 4
-5 -4 -5 2743.09 627.543 4
4 5 5 3436.26 621.241 3
5 -5 4 1565.06 468.038 2
4 5 -5 1167.35 364.039 1
-5 5 -4 1221.19 338.303 1
5 4 5 1698.81 527.083 3
-5 5 -4 1466.42 450.757 2
-4 5 -5 1692.62 485.88 2
4 -5 5 1075.72 345.205 1
5 4 -5 1247.94 353.86 2
-4 -5 -5 2783.12 538.557 3
5 -5 -4 1242.07 352.951 1
-5 4 -5 1269.52 417.48 2
5 -5 4 929.635 292.573 1
5 5 -4 2308.8 512.709 4
5 5 -4 1018.07 329.899 1
5 5 4 2057.94 501.1 3
5 5 -4 1375.44 394.553 2
5 4 -5 887.624 312.55 1
5 -4 5 1179.72 383.817 2
-5 -5 -4 1203.97 389.48 1
-5 -4 5 1366.75 393.417 1
-5 -5 -4 2261.76 578.246 4
-4 -5 -5 3117.52 580.464 4
0 6 0 157198 3471.94 1
0 -6 0 176003 4486.44 2
6 0 0 177015 3168.88 3
0 0 -6 176880 3537.84 1
0 6 0 159805 4206.34 2
-6 0 0 182353 3237.36 3
0 -6 0 152304 3465.93 1
-1 -6 1 10543.4 920.651 1
-1 -1 6 12678.8 1001.46 1
6 -1 1 12451.3 730.655 2
1 6 -1 9035.51 1030.48 2
6 1 1 12612.5 964.556 3
-6 1 -1 11041.6 629.657 2
-1 6 1 11654.6 962.025 1
-1 6 1 10793.1 1194.35 2
-6 -1 1 13531.2 948.002 3
-1 -1 -6 14268.8 734.505 4
-1 6 -1 11829.2 946.439 1
1 6 -1 11154.3 934.649 1
6 1 -1 12368 852.442 3
-6 -1 -1 13772.1 978.33 3
-1 1 -6 11652.3 943.856 1
1 -6 1 11010.6 921.885 1
1 1 -6 13174.4 993.016 1
-1 6 -1 10159.5 1101.6 2
-6 -1 -1 8471.07 960.403 4
1 6 1 12397.1 1218.82 2
-6 -1 1 12246.8 1100.35 4
1 6 1 11121.5 969.51 1
6 -1 -1 14142.4 786.216 3
-1 -6 -1 11732.5 1204.89 2
-6 1 1 14889.1 847.962 3
-1 -6 -1 11597.8 981.189 1
1 -1 6 12472.7 993.628 1
-1 -6 1 9879.32 1125.88 2
1 -6 1 10818.7 1198.62 2
6 -1 1 14426 944.011 3
1 -6 -1 12811.2 1304.21 2
1 -6 -1 11843.8 951.129 1
1 1 6 15488 863.791 4
6 2 0 1585.8 240.885 1
6 2 0 1738.95 479.486 4
2 0 -6 1698.2 372.784 1
-6 0 2 2400.15 384.913 3
2 6 0 2128.55 433.309 1
-2 6 0 2046.32 390.007 1
0 6 -2 1464.79 447.665 2
-2 6 0 1596.54 490.371 2
0 -6 -2 2745.86 382.861 3
6 0 2 1514.53 237.118 2
6 -2 0 3260.39 399.511 3
0 6 2 1800.8 375.264 1
6 -2 0 2417.6 371.929 2
0 -6 2 1534.37 460.31 2
2 -6 0 1722.57 509.433 2
0 2 -6 2350.5 451.781 1
0 -2 6 1850.35 405.969 2
0 -6 2 1979.32 440.573 1
0 2 6 2689.19 325.781 4
-2 -6 0 1233.52 443.816 2
0 -2 6 1856.86 383.251 1
-6 -2 0 1664.34 247.468 1
0 6 2 1728.88 531.714 2
-6 -2 0 2171.78 407.151 3
2 -6 0 1736.87 380.339 1
0 -6 -2 2156.75 438.351 1
6 0 2 2232.39 451.428 3
0 6 -2 1764.53 351.054 1
6 2 0 1446.22 331.955 3
-2 0 -6 2961.76 405.492 4
-6 -2 0 1612.54 524.167 4
2 6 0 1570.79 461.66 2
-6 2 0 1985.88 349.168 2
-2 -6 0 1610.96 406.688 1
-2 -6 -2 5723.59 659.12 3
-2 6 2 3851.8 724.673 2
6 -2 2 4218.2 394.276 1
-6 -2 2 5166.47 739.931 4
-2 -6 -2 4570.65 664.436 1
2 -6 2 4464.14 605.885 1
-6 2 -2 4101.72 401.156 1
-2 6 2 4706.57 631.52 1
-2 -2 -6 5387.57 561.433 4
2 6 2 4166.41 708.341 2
6 2 2 6377.91 845.052 4
2 6 2 5325.9 610.176 3
-2 -6 2 6116.92 853.657 2
2 -6 2 5985.93 876.568 2
6 -2 2 5047.47 581.645 2
-6 -2 -2 5622.03 676.86 3
2 -2 6 4863.37 687.804 2
2 -2 6 5562.27 700.735 1
2 2 -6 5255.17 631.256 1
6 2 -2 4409.25 413.027 1
2 -6 -2 5235.76 639.741 1
2 6 2 4803.48 646.126 1
-2 -2 6 5859.03 717.333 2
2 2 6 5709.78 651.262 4
-6 -2 -2 7183.5 896.506 4
6 2 -2 5627.31 720.867 4
6 2 2 5756.86 704.238 3
-2 -2 6 5512.34 664.394 1
-6 2 -2 4824.4 529.058 2
-6 2 2 5550.12 472.395 3
2 6 -2 4888.68 736.769 2
2 6 -2 5588.42 677.047 1
-2 -6 2 4938.35 660.144 1
-2 2 -6 4868.95 620.366 1
-2 6 -2 5426.24 657.488 1
-2 6 -2 4838.9 788.463 2
-6 -2 2 4403.48 413.267 1
6 3 -1 7365.81 911.071 4
-6 -3 -1 6981.69 778.212 3
-6 1 -3 5613.72 545.395 2
-3 6 -1 5025.92 841.023 2
-6 3 1 5931.8 686.267 2
6 -3 1 4710.26 422.967 1
-1 -3 6 5845.84 748.513 2
1 -6 3 6110.81 728.245 1
3 -6 -1 5659.89 673.344 1
-1 6 3 5582.13 716.692 1
1 3 6 4921.52 572.057 4
3 1 -6 5589.73 652.215 1
-3 -6 1 5926.8 864.863 2
3 -6 -1 5049.98 901.163 2
1 6 -3 5682.77 707.831 1
-6 -1 3 5281.07 446.361 1
-6 -3 -1 5216.77 536.221 1
-3 6 -1 6030.06 699.566 1
1 6 -3 5592.32 814.083 2
-6 -3 -1 6989.01 908.124 4
-1 3 -6 5234.2 680.278 2
-6 1 -3 5667.01 515.776 1
-1 -6 -3 5085.02 693.749 1
-6 -1 3 4904.9 723.177 4
-1 6 3 5433.6 499.27 3
3 6 1 4962.14 783.354 2
-6 3 1 5557.38 424.656 1
6 1 3 6272.55 758.213 3
3 6 1 5095.82 696.537 1
6 -3 1 6184.49 734.59 2
3 -1 6 5999.47 740.853 2
-1 -6 -3 5401.02 605.405 3
6 3 -1 5332.86 510.337 1
-1 3 -6 5656.33 691.346 1
-1 -3 6 6090.19 732.821 1
-3 -6 1 5476.2 692.174 1
1 -6 3 5210.2 842.515 2
-3 -1 -6 7545.04 743.787 4
-6 3 -1 5289.96 638.211 2
6 -3 -1 4803.85 394.784 1
3 6 -1 5596.77 691.997 1
6 3 1 7528.7 943.759 4
6 -3 -1 6478.55 736.135 2
-3 1 -6 5867.59 697.857 1
1 3 -6 5693.23 679.765 1
6 -3 -1 6647.16 496.475 3
1 3 -6 5485.59 690.715 2
-3 -1 6 6608.8 757.406 1
1 -6 -3 5134.08 488.462 3
-3 6 1 5967.7 670.285 1
-3 6 1 5207.87 855.993 2
6 1 -3 5344.13 450.444 1
1 -6 -3 5853.19 718.399 1
1 -3 6 6076.95 731.702 1
-6 -3 1 4601.54 501.852 1
1 6 3 5029.98 702.82 1
6 3 1 5183.32 515.205 1
-1 6 -3 5510.77 673.588 1
1 6 3 5496.81 616.248 3
-1 6 -3 6072.13 860.401 2
-1 -6 3 5193.87 706.41 1
6 -1 3 5000.25 546.271 2
1 -3 6 5816.95 744.337 2
-3 -6 -1 6252.61 876.132 2
3 -6 1 5480.65 646.355 1
-3 -6 -1 5364.04 707.179 1
-6 -3 1 6660.89 771.291 3
-6 -3 1 7247.88 863.865 4
-6 3 -1 4405.1 421.834 1
-6 -1 -3 7185.64 902.177 4
-3 -6 -1 6005.18 731.329 3
-1 -6 3 5924.4 851.086 2
3 6 -1 4694 725.122 2
3 -6 1 5514.46 928.495 2
6 3 1 6375.63 734.075 3
6 -3 3 9.32384 154.158 2
3 -6 3 363.232 225.479 1
3 3 -6 508.548 221.682 1
-3 3 -6 227.058 204.396 1
3 -3 6 350.748 304.127 1
-6 -3 -3 875.176 368.713 4
-6 -3 -3 1037.45 389.585 3
3 6 3 432.128 303.845 3
-3 -6 -3 722.314 316.54 3
6 -3 3 381.808 196.984 1
3 -6 -3 480.399 241.285 1
3 3 6 1017.91 330.523 4
-6 -3 3 83.9626 92.9252 2
3 3 -6 298.108 247.475 2
6 3 3 1086.51 412.38 3
-3 6 3 160.504 345.733 2
6 3 -3 81.8289 133.996 2
-6 3 -3 297.626 241.002 2
-3 -6 3 223.343 230.021 1
-6 -3 3 395.435 230.147 1
-3 -3 -6 1253.38 420.545 4
6 3 -3 348.484 165.494 1
-3 -6 -3 342.459 287.011 1
-3 -3 6 2.85581 125.48 2
-3 -3 6 466.357 275.441 1
6 3 -3 1656.31 478.276 4
-3 6 -3 305.51 241.781 1
3 6 -3 350.349 277.011 2
-3 6 3 357.77 196.85 1
3 -6 3 531.222 349.441 2
-3 6 -3 187.077 282.828 2
-6 -3 3 968.393 389.637 4
3 -3 6 347.446 297.29 2
-3 3 -6 634.313 320.253 2
-6 3 -3 91.0414 110.16 1
6 3 3 1606.51 542.353 4
3 6 -3 100.831 166.293 1
3 3 -6 891.009 279.879 4
3 6 3 178.785 199.966 1
-3 -6 3 456.431 338.971 2
-2 -4 6 3320.26 635.105 2
6 4 -2 5782.6 859.884 4
2 4 6 3850.11 622.401 3
6 -4 2 3443.39 636.774 2
-4 -2 -6 6718.13 798.06 4
2 4 6 3653.59 619.109 4
6 -4 2 2280.93 371.736 1
-6 2 -4 2242.67 386.524 1
4 -2 6 2097.69 467.972 1
4 6 2 5283.68 840.783 4
4 -6 -2 2270.91 448.232 1
6 4 -2 2498.42 402.026 2
-6 -4 -2 5688.21 867.346 4
-6 -4 -2 2252.82 430.32 1
-2 -4 6 1773.74 434.893 1
-6 4 2 2848.73 408.815 1
4 6 2 4929.92 707.146 3
6 2 4 2444.38 649.965 4
4 -2 6 3104.35 584.386 2
2 6 -4 2154.02 464.167 1
4 2 -6 2719.64 484.728 1
-2 6 4 4883.62 451.593 3
-6 -2 4 2754.67 379.709 2
2 -6 4 2245.8 504.386 1
2 6 -4 2806.79 619.202 2
-6 2 -4 2790.07 489.701 2
-2 4 -6 3391.75 628.685 2
-6 -2 4 4668.85 725.475 4
4 6 2 4172.09 757.547 2
-4 -6 2 2425.63 519.672 1
-6 -2 4 2336.01 421.251 1
-6 -4 -2 3522.5 642.294 3
-2 -6 -4 3644.22 559.4 3
-6 4 2 3620.87 696.997 2
-4 6 -2 2228.48 453.404 1
6 2 4 3698.26 655.373 3
6 4 -2 2149.36 408.806 1
-4 6 -2 3118.06 687.137 2
-2 4 -6 2223.98 478.076 1
4 6 2 2366 506.341 1
-2 -6 -4 2765.58 560.031 1
-4 -6 2 2632.08 590.461 2
4 2 -6 4304.65 491.745 4
2 -6 4 3209.04 671.08 2
0 6 4 55857.8 1813.58 3
4 -6 0 56379.4 2012.43 1
6 -4 0 51320.8 1501.17 1
6 0 4 53791.6 1810.87 2
0 -6 -4 54130.6 2206.65 1
4 6 0 50202.4 2273.34 2
4 -6 0 59674.1 2822.02 2
-4 -6 0 55391.3 2241.86 1
0 4 -6 59008.8 2392.88 2
0 -6 4 57030.8 2680.5 2
-6 -4 0 55886.1 2414.78 4
4 6 0 52855.4 2493.62 4
6 0 -4 52101.7 1487.44 1
0 -6 -4 53692.7 1734.57 3
4 0 -6 58798.4 2003.87 1
6 4 0 54117.4 1794.96 1
0 4 -6 60590.1 2321.09 1
0 -4 6 59387 2464.44 2
6 -4 0 61131.6 2430.02 2
6 4 0 50909.7 2531.69 4
0 -4 6 60092.7 2366.83 1
-6 4 0 53524.3 2248.38 2
-4 -6 0 53955.7 2418.63 2
-4 6 0 52097.2 2602.78 2
-6 -4 0 51732.8 1827.48 1
0 -6 4 54594.2 2237.49 1
-6 4 0 56396.8 1610.22 1
6 4 0 48158.8 1673.48 2
-4 6 0 56748.3 2046.16 1
4 6 0 57193.4 2157.7 1
0 6 -4 52629.9 2457.84 2
0 6 -4 58742.4 2281.34 1
-6 -4 0 56741.6 2320.07 3
4 2 6 6707.69 837.281 4
4 6 -2 2180.58 466.388 1
4 -6 2 2835.36 705.839 2
6 -2 4 1920.62 364.109 1
4 6 -2 2656.84 602.379 2
6 2 -4 1913.74 361.621 1
-2 6 -4 2146.62 473.305 1
-4 2 -6 2380.19 475.749 1
2 -4 6 2185.91 498.553 1
6 4 2 3131.75 614.104 3
6 4 2 3217.3 706.672 4
2 4 -6 2454.25 508.607 1
-6 -4 2 2848.39 469.659 2
-6 -4 2 6092.11 818.997 4
-4 6 2 4532.71 900.009 2
-6 4 -2 2091.83 369.738 1
-4 -2 6 3176.39 545.844 2
-6 4 -2 3032.35 574.354 2
-4 6 2 3193.55 526.516 1
-4 -6 -2 5755.26 766.08 3
2 -4 6 2487.73 574.701 2
-2 -6 4 3121.19 632.379 2
2 6 4 3280.96 583.115 3
-4 -6 -2 2507.68 548.299 1
4 -6 2 2264.54 454.686 1
2 -6 -4 2551.35 500.698 1
-6 -2 -4 4141.65 818.082 4
2 -6 -4 5258.39 459.685 3
-4 -2 6 2659.76 514.157 1
6 -2 4 2731.08 480.962 2
-6 -4 2 2182.91 413.628 1
-2 6 -4 2732.76 606.798 2
-4 -2 6 4623.94 450.125 4
-2 -6 4 2939.13 563.454 1
6 -4 -2 2653.23 376.073 1
6 2 -4 4017.94 585.952 4
2 4 -6 2514.46 494.887 2
4 4 -6 7806.39 843.201 2
6 -4 4 7540.5 934.767 2
4 -6 -4 6847.11 778.633 1
4 6 -4 7422.1 916.836 2
-4 4 -6 7128.61 826.47 1
-6 -4 -4 7351.12 882.231 3
-4 -6 4 6731.45 920.437 2
-6 -4 4 6523.52 712.677 2
6 4 -4 7684.52 718.37 2
-6 -4 4 6690.08 720.715 1
4 -4 6 7717.02 886.456 1
-6 4 -4 6684.63 686.816 1
4 6 -4 7830.96 871.997 1
-6 4 -4 7390.66 868.298 2
-4 -6 -4 7253.09 855.622 1
4 6 4 6133.41 878.466 4
4 -4 6 7608.52 925.58 2
4 4 6 7119.36 904.943 4
-4 -4 6 6727.7 867.326 1
4 4 -6 7313.76 834.068 1
6 4 -4 7491.99 761.98 1
6 4 4 7238.52 928.009 3
6 -4 4 5987.94 692.65 1
-4 -4 -6 6849.64 834.538 4
-6 -4 -4 7444.94 996.304 4
4 4 -6 6945.36 694.988 4
-6 -4 4 8028.35 862.285 4
4 -6 4 8106.29 1063.23 2
6 4 4 8022.07 1073.87 4
4 6 4 7977.82 904.748 3
4 4 6 6715.62 873.598 3
-4 -4 6 7215.04 839.969 2
-4 -6 -4 7220.73 843.341 3
-4 6 -4 8331.58 1059.27 2
-4 4 -6 6744.4 880.317 2
6 4 -4 7009.05 869.078 4
-4 6 -4 7067.96 816.184 1
-4 -6 4 7094.26 830.26 1
4 -6 4 6894.73 821.885 1
5 -6 -3 17332.9 1146.19 1
-5 -6 3 17446.2 1294.02 1
-5 6 -3 17776.4 1204.23 1
-3 5 -6 17406.9 1440.38 2
5 6 3 16489.7 1521.22 4
6 3 5 18476.2 1459.77 3
-6 -3 5 15025.4 1139.46 4
-3 -5 6 18979.1 1441.71 1
-3 -5 6 17526.1 1382.74 2
-6 5 3 16998.4 1528.55 2
3 6 -5 18085 1412.17 2
-6 -3 5 18947.3 1213.15 1
-6 -3 5 17595.1 1124.11 2
3 5 6 17153.3 1335.13 3
3 6 -5 19137.9 1359.24 1
-3 6 5 17199.6 785.643 3
-3 5 -6 18957.5 1363.93 1
5 3 -6 14830.1 1045.07 4
-6 -5 -3 17636.1 1368.69 3
3 -6 5 17216 1359.31 1
-6 3 -5 17814.8 1274.92 2
-6 3 -5 16337.3 1139.29 1
6 -5 3 15274.7 1094.03 1
-6 -5 -3 17400.3 1259.84 1
5 3 -6 18048.3 1226.12 1
5 6 3 16128.2 1285.45 3
-5 -6 3 16253.1 1378.07 2
5 -3 6 15693.5 1218.06 1
6 5 -3 15457 1355.15 4
6 -5 3 19917.7 1604.48 2
-5 -3 -6 16269.3 1322.84 4
6 5 -3 16089.1 1127.63 2
5 -3 6 17952.8 1374.96 2
-5 6 -3 16468.9 1498.53 2
-3 -6 -5 14930.1 1165.8 3
6 5 -3 17031 1179.94 1
3 5 6 15506.3 1302.42 4
6 3 5 17230.7 1557.14 4
-6 -5 -3 18507.3 1464.17 4
3 -6 5 18936.8 1598.07 2
1 6 -5 7379.83 946.422 2
6 -5 1 6927.42 987.431 2
1 6 -5 7533.95 848.417 1
-1 5 -6 7377.3 830.371 1
-5 -6 1 5727.51 776.319 1
-6 -5 -1 7234.47 955.761 4
5 -1 6 6516.2 797.624 2
6 5 -1 5951.58 684.366 1
5 6 1 5879.27 826.275 2
-5 -1 -6 7317.76 933.373 4
5 6 1 7026.66 795.211 1
6 5 -1 7154.57 742.135 2
-6 -5 -1 7061.84 782.089 1
-6 -1 5 7228.58 856.87 4
-6 5 1 6801.58 992.648 2
-6 -5 -1 6994.76 883.029 3
-1 6 5 6926.81 644.701 3
-6 5 1 7167.08 653.233 1
6 5 -1 7580.53 973.289 4
-5 -6 1 6327.04 850.022 2
6 -5 1 6841.14 663.47 1
-6 1 -5 6577.88 697.326 1
5 -6 -1 6477.35 1045.15 2
1 -6 5 6296.49 908.073 2
-1 -5 6 7692.1 902.87 1
-1 -5 6 6771.28 883.985 2
-6 -1 5 7385.92 688.534 1
5 6 1 7395.12 1026.66 4
1 -6 5 7289.4 856.289 1
6 -1 -5 6689.77 589.204 1
1 5 6 6912.37 760.831 3
-1 5 -6 7198.3 921.97 2
-5 6 -1 7040.2 1026.43 2
5 1 -6 6573.43 693.387 1
-1 -6 -5 6591.95 695.684 3
5 -6 -1 6446.56 711.596 1
-5 6 -1 6666.89 719.818 1
-6 -5 1 5782.91 716.274 1
5 6 -1 7336.51 979.225 4
-1 6 -5 7410.06 992.838 2
6 5 1 6081.69 932.877 4
1 -5 6 6599.75 909.193 2
5 -6 1 6386.58 955.502 2
1 6 5 7590.29 797.03 3
1 5 -6 7070.34 884.274 2
1 5 -6 8189.65 889.344 1
-5 -6 -1 6279.45 801.287 1
-6 -5 1 6611.59 866.134 4
-5 1 -6 6629.74 753.693 1
-5 -1 6 8401.19 756.382 4
-5 6 1 6592.34 1015.23 2
6 -5 -1 6726.57 626.175 1
-5 -1 6 8582.44 825.7 1
6 5 1 6768.85 727.203 1
-1 -6 5 6677.98 854.247 1
-6 5 -1 6501.25 642.711 1
-6 -1 -5 7589.08 1034.98 4
6 1 -5 5957.24 618.781 1
-1 -6 5 6201.09 938.719 2
6 5 1 6199.24 742.827 2
6 5 1 6506.06 833.862 3
-1 6 -5 7204.12 850.108 1
-6 5 -1 6043.39 898.456 2
-6 -5 1 7845.88 956.689 3
6 -1 5 6119.48 704.829 2
-6 -5 1 6851.32 770.47 2
5 6 -1 7079 795.417 1
5 -6 1 6511.34 710.234 1
6 -5 -1 6264.61 970.035 2
5 6 -1 6079.62 828.516 2
1 -5 6 7161.61 878.904 1
-5 -6 -1 7428.22 912.875 3
-5 6 1 6994.94 724.951 1
3 6 5 16130.6 1270.7 3
-5 6 3 16315.3 1592.46 2
3 -5 6 17511.3 1475.35 2
-3 6 -5 16604.1 1465.12 2
-5 3 -6 16460.7 1216.2 1
6 5 3 16732.2 1344.35 3
3 -6 -5 18030 1270.69 1
5 -6 3 19256.9 1652.95 2
6 3 -5 15626.2 1206.55 4
-6 -5 3 16364.3 1246.71 4
6 5 3 17143.4 1539.91 4
5 3 6 14362.7 1331.11 4
5 -6 3 17548.1 1233.7 1
-3 -6 5 17757 1357.31 1
-6 5 -3 16668.2 1103.35 1
-5 -6 -3 14725.6 1267.03 4
6 -5 -3 17742.4 1047.66 1
-6 -5 3 16543.4 1205.99 2
3 5 -6 17276 1322.02 2
6 -3 5 16646.2 1309.21 2
-5 6 3 20047.6 1286.55 1
-3 6 -5 18328 1322.02 1
3 6 5 16446.5 1416.96 4
-5 -3 6 17859.6 1261.69 1
-5 -3 6 15572.2 967.059 4
3 -5 6 17122.8 1335.77 1
-5 3 -6 15831.8 1277.43 2
5 6 -3 18161.8 1487.3 4
3 5 -6 19303.5 1366.03 1
6 -3 5 16220.1 1169.32 1
5 6 -3 16496.1 1282.93 2
6 3 -5 17600.6 1143.69 1
-6 -3 -5 19802.4 1552.54 4
5 6 -3 18167 1256.23 1
-5 -6 -3 15567.8 1290 3
-6 -5 3 15337.5 1165.77 1
-5 -3 6 17641.5 1240.17 2
-3 -6 5 17370.8 1446.29 2
5 3 6 15578 1346.42 3
-6 5 -3 17325.7 1416.46 2
-5 -6 -3 17148.4 1316.19 1
-5 -6 5 -109.561 158.22 2
5 6 5 483.233 283.883 3
5 6 5 311.985 307.153 4
-5 -6 -5 -46.3062 216.714 4
5 -6 5 12.2483 199.463 2
5 -6 5 -458.082 243.936 1
5 6 -5 344.866 277.447 4
6 -5 5 51.6581 157.834 1
6 5 5 48.3725 233.158 3
-5 -6 -5 -282.131 203.695 1
6 5 -5 75.8626 233.341 4
5 5 -6 -312.414 215.548 2
6 5 -5 -103.504 141.465 2
-5 -5 -6 613.116 322.371 3
5 -5 6 194.147 224.594 1
-5 -5 6 -61.3955 125.337 1
5 -5 6 -88.7833 151.125 2
-5 -5 -6 793.146 359.899 4
5 6 -5 -140.601 212.955 2
-6 -5 5 -65.8014 131.535 2
5 5 6 -149.381 353.49 4
6 5 5 -250.379 449.352 4
5 -6 -5 -89.8347 140.17 1
5 6 -5 40.5499 147.799 1
-5 5 -6 -42.2393 159.271 2
6 -5 5 -170.645 242.77 2
-6 -5 5 -62.1423 170.643 1
5 5 6 414.889 256.743 3
-5 6 -5 52.3206 147.367 1
-6 -5 -5 390.285 345.127 4
-5 5 -6 -95.7268 177.977 1
6 5 -5 33.0206 122.22 1
-5 -6 -5 751.561 315.869 3
-6 5 -5 187.032 227.697 1
-6 5 -5 -13.9252 172.608 2
5 5 -6 233.639 196.16 4
-6 -5 -5 -14.2778 185.601 3
5 5 -6 50.3486 149.441 1
-5 -5 6 -73.0689 140.271 2
-5 6 -5 -14.3826 141.771 2
-5 -6 5 -102.12 236.184 1
-6 6 0 4569.62 833.126 2
6 6 0 4859.45 686.494 2
-6 -6 0 4800.84 691.292 1
6 6 0 3805.66 734.441 4
0 -6 6 5584.14 785.635 1
0 6 -6 4609.58 683.221 1
-6 -6 0 4328.12 711.55 3
6 -6 0 4074.86 803.551 2
-6 -6 0 4233.72 677.18 2
0 6 -6 5505.67 820.962 2
0 -6 6 4869.24 805.085 2
-6 6 0 5685.88 648.369 1
6 -6 0 4916.01 576.371 1
6 0 -6 5373.45 605.764 1
0 6 6 3435.44 529.817 3
6 6 0 4237.5 681.082 1
-6 -6 0 3637.52 681.793 4
6 2 -6 2543.58 439.062 4
-6 -2 6 1492.43 367.003 1
-2 6 6 1720.26 323.973 3
-6 2 -6 1438.68 348.111 1
6 6 2 2081.18 477.468 1
-6 -6 -2 1227.79 470.774 4
6 2 -6 1791.17 378.717 1
-6 -6 -2 2431.04 501.56 1
-6 6 2 2071.06 540.347 2
6 2 6 1388.29 484.794 4
-6 -6 -2 1929.55 467.168 3
-6 -2 6 2321.08 445.013 2
6 6 2 1252.53 343.954 2
-6 6 -2 1860.47 386.053 1
-6 6 2 2468.87 428.094 1
2 6 6 2389.76 511.803 3
6 -6 2 1527.34 335.33 1
-2 -6 6 1825.63 466.515 1
-2 6 -6 2105.88 524.982 2
6 6 -2 1692.86 438.739 1
6 -6 2 2816.15 694.929 2
6 -2 6 1442.17 349.915 1
6 -6 -2 2035.03 411.92 1
6 6 2 730.885 293.663 4
2 6 -6 2224.44 556.571 2
2 -6 6 2386.91 574.468 2
6 -2 6 2395.22 499.321 2
6 2 6 1531.69 382.147 3
2 -6 6 1867.15 486.639 1
-6 -2 -6 2300.23 568.471 4
6 6 -2 1991.75 473.306 2
-2 -6 6 2094.06 547.879 2
-6 -6 2 2395.72 515.957 2
-6 -2 6 2640.93 508.454 4
-2 6 -6 1827.01 422.336 1
-6 6 -2 2022.72 532.996 2
2 6 -6 1930.11 456.659 1
6 6 2 1692.98 448.474 3
6 6 -2 1600.41 482.923 4
-6 -6 2 1403.88 376.535 1
-6 -4 -6 6578.46 912.373 4
6 6 -4 5106.31 828.206 4
6 6 4 6478.51 855.169 3
6 4 -6 6962.23 779.508 2
-6 -4 6 6894.45 816.271 2
4 -6 6 7193.91 1029.51 2
-4 -6 6 6182.95 893.496 2
6 4 -6 8324.41 883.086 1
-4 -6 -6 5799.21 774.455 3
6 -4 6 6199.29 778.637 1
-6 -6 -4 6286.74 900.574 4
6 6 -4 6448.88 820.484 2
6 -6 -4 7420.88 767.033 1
6 4 6 6135.24 902.375 3
6 -6 4 6876.65 818.267 1
-6 -6 4 6697.11 862.166 1
-4 -6 6 6922.11 927.422 1
6 4 -6 4525.67 655.701 4
-6 -6 -4 6858.99 866.729 1
-6 4 -6 7318.94 906.548 2
4 6 -6 6876.63 894.65 2
6 -4 6 7063.18 926.503 2
4 6 -6 8155.76 927.893 1
-4 6 -6 7834.62 1008.22 2
4 6 6 4580.88 764.501 4
-6 -4 6 7257.43 849.432 1
-6 -6 -4 6350.52 868.734 3
4 -6 6 7648.41 956.626 1
6 4 6 4408.89 785.127 4
6 -6 4 6541.88 1004.71 2
6 6 4 3474.91 780.003 4
-6 4 -6 6636.49 827.02 1
-4 6 -6 7302.21 896.305 1
4 6 6 7082.01 921.191 3
-6 6 -4 7491.36 1010.51 2
-6 -6 4 6348.66 836.731 2
6 6 -4 7733.35 864.52 1
-6 6 -4 6516.96 783.979 1
-6 -4 6 5467.12 666.589 4
6 6 -6 -496.144 350.837 4
6 -6 6 196.8 209.395 2
6 6 -6 40.2778 180.838 2
-6 -6 -6 448.32 214.609 3
6 6 -6 116.939 113.395 1
-6 -6 6 111.761 119.979 2
-6 6 -6 488.711 277.063 1
-6 -6 -6 194.456 223.53 4
6 6 6 82.7467 311.068 3
-6 6 -6 215.525 134.118 2
6 -6 6 77.9449 130.389 1
-6 -6 6 167.937 167.437 1
6 6 6 409.579 401.202 4
0 -7 1 -36.1016 133.771 1
0 1 -7 497.619 286.224 1
1 0 -7 311.784 196.03 1
-7 0 1 1002.25 307.838 3
7 1 0 401.183 251.329 3
-1 7 0 391.226 228.086 1
-1 7 0 392.611 339.183 2
-7 0 -1 676.558 290.061 3
1 -7 0 223.972 234.51 1
1 7 0 306.854 221.605 1
-7 1 0 496.629 217.506 3
1 7 0 371.593 305.97 2
0 -1 7 630.832 241.363 1
0 -7 -1 324.324 272.684 1
7 -1 0 673.892 258.109 3
-1 0 -7 334.337 190.918 4
0 -7 -1 394.769 341.062 2
0 7 -1 273.553 344.681 2
-7 -1 0 392.148 294.87 4
0 7 1 286.641 239.3 1
-1 -7 0 220.457 253.193 2
0 7 -1 44.4224 116.649 1
7 0 -1 517.428 232.376 3
1 -7 0 777.99 434.059 2
-7 -1 0 364.448 236.271 3
0 7 1 222.696 297.422 2
-1 -7 0 -51.5198 147.02 1
0 -7 1 88.3877 193.602 2
7 0 1 622.555 262.981 3
-1 0 -7 467.043 223.331 1
-1 -7 -2 4127.92 657.699 1
-2 7 -1 4505.82 647.754 1
7 2 -1 3661.96 693.844 4
-7 -2 -1 4796.95 685.17 3
-2 -7 1 4620.48 673.4 1
2 7 1 3336.6 720.013 2
1 7 -2 4579.57 652.071 1
-1 7 2 4452.61 674.93 1
7 2 -1 4233.83 375.698 1
-7 2 1 4517.22 540.573 2
-1 -2 7 5055.04 711.624 1
-2 -7 1 4107.47 794.17 2
-7 2 1 4518.29 489.095 3
7 -2 1 5200.85 639.35 3
2 1 -7 4625.41 632.504 1
-1 -2 7 4899.22 711.035 2
7 1 2 4442.83 678.519 3
1 -7 2 3719.36 744.25 2
-1 -7 -2 4258.73 583.5 3
-2 -1 -7 5062.41 545.41 4
-7 -2 -1 3843.01 792.203 4
-7 -1 2 5591.35 694.21 3
7 -2 1 4934.9 582.089 2
2 7 1 4505.98 669.131 1
2 -7 -1 3399.97 832.197 2
-7 1 -2 3926.07 373.78 1
2 -7 -1 4434.37 632.07 1
-1 7 2 3271.04 763.266 2
-2 7 -1 4172.67 794.436 2
1 -7 2 4224.05 697.215 1
-1 2 -7 4828.7 659.318 1
1 2 7 4197.73 538.116 4
1 7 -2 3708.03 755.783 2
-7 -1 2 4076.32 729.143 4
-7 -2 -1 4324.26 431.092 1
-7 1 -2 4425.62 443.355 2
-2 7 1 4415.88 646.419 1
-2 1 -7 4727.03 669.839 1
2 -7 1 4502.16 663.275 1
-1 7 -2 4036.29 789.59 2
1 2 -7 4806.83 670.315 1
2 7 -1 4632.38 650.406 1
-2 7 1 3581.94 812.431 2
7 2 1 4039.29 617.95 3
7 -1 2 4820.22 683.9 3
-7 -2 1 5099.97 684.016 3
-2 -7 -1 4174.57 803.567 2
1 -2 7 4720.08 683 1
-7 -2 1 3867.32 374.163 1
-7 2 -1 4298.17 504.685 2
-1 -7 2 4058.43 801.781 2
7 -1 2 4366.94 495.514 2
-7 -1 -2 3908.97 584.234 3
1 -2 7 4832.22 717.169 2
-1 7 -2 4233.13 631.379 1
2 -7 1 3458.33 847.648 2
-1 -2 -7 4197.29 478.985 4
-1 -7 2 4050.87 673.427 1
7 2 1 2537.83 611.223 4
-2 -7 -1 4392.49 664.024 1
-7 -1 -2 3372.51 744.795 4
7 -2 -1 4827.97 506.653 3
-7 -2 1 3754.37 712.057 4
1 7 2 4212.4 648.709 1
1 -7 -2 4808.58 673.937 1
1 7 2 4465.83 863.809 2
2 7 -1 3861.54 741.01 2
-7 1 2 5146.17 563.615 3
-2 -1 7 5459.6 714.495 1
-7 3 2 4623.96 660.88 2
-7 -3 -2 6985.69 982.086 4
2 -7 3 5277.44 731.794 1
7 2 3 4113.39 736.775 4
7 3 -2 5899.17 839.149 4
3 -2 7 5390.57 760.912 2
-3 7 -2 4347.51 830.606 2
-7 -2 3 4265.14 403.014 2
-7 2 -3 4630.81 493.994 1
7 3 -2 4646.79 395.157 2
-2 7 3 3893.33 862.944 2
-2 -3 7 5285.21 779.545 1
-3 -7 2 5312.92 872.054 2
2 3 7 4124.65 624.521 4
2 7 -3 4726.79 818.071 2
3 -7 -2 5425.58 708.562 1
-7 2 -3 4341.82 536.521 2
-2 7 3 4912 719.445 1
-7 -3 -2 5349.63 727.258 3
7 -3 2 4630.33 465.602 1
7 2 3 5846.68 797.867 3
-7 3 2 5152.62 453.508 3
-2 3 -7 4825.81 746.31 2
2 7 -3 5074.61 709.372 1
-2 3 -7 5276.98 721.928 1
-2 -7 -3 4584.21 704.488 1
-2 -7 -3 4503.76 622.197 3
-3 -2 -7 5275.24 672.673 4
-7 -2 3 4585.58 476.845 1
3 7 2 4528.45 819.837 2
7 3 -2 4921.88 510.884 1
3 7 2 4912.7 690.276 1
2 -7 3 5297.16 927.389 2
-2 -3 7 4802.91 707.884 2
7 -3 2 4918.51 650.256 2
-7 -2 3 5756.61 900.37 4
3 2 -7 5883.44 733.164 1
-7 -3 -2 4256.6 527.834 1
-3 7 -2 5115 683.162 1
-3 -7 2 5393.81 748.37 1
3 -2 7 5528.23 759.513 1
7 0 3 13531.9 1160.61 3
0 -7 3 14604.3 1212.52 1
-3 7 0 14208.3 1451.97 2
-3 0 -7 11993.1 967.539 4
0 -7 -3 13853.1 1175.4 1
0 -7 -3 13205.3 897.554 3
-7 3 0 12993.6 1012.38 2
0 7 3 12033 1458.36 2
0 7 3 15137.9 1268.28 1
-7 -3 0 12440.8 1095.42 3
0 -7 3 13536.3 1398.67 2
3 7 0 11376.1 1256.78 2
3 0 -7 14309.7 1072.74 1
3 -7 0 13777.5 1095.59 1
7 -3 0 14962.6 931.002 3
7 -3 0 10915.6 582.646 1
7 0 -3 11741.9 601.596 1
0 3 -7 14807.1 1218.44 2
0 -3 7 13983 1175.2 1
0 7 -3 12088.6 1289.36 2
-3 -7 0 13234 1212.99 1
7 0 3 13098.9 803.096 2
-7 -3 0 12865.9 821.231 1
3 7 0 13570.1 1136.79 1
7 3 0 8805.22 1067.71 4
7 3 0 11416.5 1022.95 3
-7 -3 0 12124.8 1266.98 4
7 3 0 12814.1 776.094 1
7 -3 0 15536.2 1135.11 2
-7 3 0 11239.1 608.622 1
-3 -7 0 12309.8 1297.86 2
0 7 -3 13798.4 1134.03 1
-3 7 0 15101.9 1170.94 1
3 -7 0 13478.7 1497.92 2
0 -3 7 15473.8 1283.27 2
0 3 -7 14664.4 1179.56 1
-2 -3 -7 4497.36 585.017 4
-2 7 -3 4918.43 845.02 2
3 -7 2 5429.8 930.998 2
2 -7 -3 4088.86 426.277 3
-3 -2 7 5741.68 754.075 2
7 2 -3 4038.62 665.723 4
-7 -3 2 4224.46 437.123 2
7 -3 -2 5524.42 460.301 3
2 -3 7 6041.05 801.321 2
-3 7 2 4435.22 857.681 2
3 7 -2 5075.44 701.471 1
2 -7 -3 4963.75 714.366 1
7 -2 3 4413.23 471.141 1
-7 -2 -3 6362.93 940.249 4
7 3 2 5398.16 851.3 4
-3 -7 -2 5094.72 709.317 3
-7 2 3 5981.37 556.28 3
-2 7 -3 5424.23 714.149 1
7 -3 -2 4387.8 380.736 1
3 7 -2 5135.2 797.309 2
-7 3 -2 4201.99 441.639 1
-7 -3 2 5751.05 866.532 4
2 7 3 4217.39 615.507 3
-2 -7 3 4821.63 702.059 1
-2 -7 3 4780.16 880.7 2
2 7 3 5271.85 760.211 1
2 3 -7 4951.48 714.65 1
-7 -3 2 4585.74 512.44 1
-3 -7 -2 4247.26 684.116 1
3 2 7 6148.35 785.539 4
3 -7 2 4930.8 697.163 1
-3 2 -7 5080.15 699.59 1
-3 7 2 5580.73 731.966 1
7 -2 3 4319.62 572.192 2
2 -3 7 5150.46 759.558 1
7 2 -3 4770.82 480.153 1
-7 -2 -3 4258.51 641.309 3
-3 -2 7 5375.18 718.471 1
-7 3 -2 4581.11 610.489 2
7 3 2 4916.39 733.81 3
-3 -4 7 1579.54 455.996 1
-4 -7 3 1518.44 468.284 2
-7 -3 4 1483.12 330.341 1
-7 3 -4 1349.63 355.113 2
-3 -7 -4 1302.63 402.538 3
7 4 -3 907.331 355.359 4
-7 -3 4 1398.28 418.199 4
-7 3 -4 1339.68 319.077 1
3 4 7 234.058 214.195 4
3 7 -4 1076.66 402.743 2
-3 -7 -4 916.616 321.792 1
4 7 3 1396.61 428.115 1
-4 7 -3 1591.37 514.709 2
4 -7 -3 1402.88 360.349 1
7 4 -3 1396.54 273.15 2
3 -7 4 959.086 374.318 2
-3 4 -7 1544.84 431.643 2
7 3 4 824.496 408.186 4
-3 4 -7 1663.5 451.993 1
4 3 -7 410.032 199.134 4
4 -3 7 1374.95 375.264 2
-3 -4 7 1315.21 431.334 2
4 7 3 1457.69 512.055 4
7 -4 3 1265.5 298.606 1
-7 -4 -3 1372.58 399.486 3
4 3 -7 1259 370.451 1
-4 -7 3 1618.73 424.098 1
-4 -3 -7 394.286 224.715 4
-7 -4 -3 1397.83 353.719 1
3 -7 4 1255.69 382.975 1
-4 7 -3 1556.64 389.207 1
4 7 3 796.774 355.616 3
7 4 -3 1307.05 310.157 1
4 -3 7 1428.14 419.234 1
3 7 -4 1753.06 459.416 1
7 3 4 1103.99 377.537 3
-7 -3 4 1282.23 300.881 2
-7 4 3 1512.38 459.567 2
7 -4 3 1338.01 395.982 2
-7 -4 -3 899.282 352.456 4
-7 -1 4 7585.17 618.263 1
4 7 1 7332.87 872.005 1
-4 7 -1 8113.67 848.331 1
4 -7 -1 7579.52 810.947 1
-7 4 1 7738.55 593.334 1
7 4 -1 5985.98 936.329 4
-7 -4 -1 8748.89 1116.43 4
-4 -7 1 7920.01 1037.21 2
-7 -4 -1 7765.79 740.023 1
7 4 -1 6758.05 647.338 1
1 4 7 7455.29 803.252 4
-4 7 -1 7884.34 1121.26 2
-1 -4 7 8422.35 939.436 1
7 -4 1 9076.58 1013.19 2
4 7 1 6946.46 963.771 2
-1 -7 -4 8957.68 812.606 3
-1 -7 -4 7726.02 947.174 1
4 -1 7 8116.91 925.048 2
-1 4 -7 8403.59 917.625 1
-4 -1 -7 7795.18 875.014 4
-7 -1 4 8849.23 1014.02 4
-7 1 -4 7391.97 675.267 1
4 1 -7 7629.02 801.663 1
4 -7 -1 7889.54 1180.3 2
7 1 4 8216.89 977.398 3
1 7 -4 8729.82 934.168 1
-7 4 1 8718.13 971.553 2
-1 4 -7 9483.43 1024.28 2
1 -7 4 7536.59 896.761 1
7 4 -1 7225.28 625.412 2
-1 -4 7 8437.88 987.404 2
1 -7 4 7881.45 1086 2
1 7 -4 7384.85 1014.22 2
-7 -4 -1 8277.56 948.34 3
7 -1 -4 6923.63 522.654 1
7 -4 1 6499.83 576.503 1
-1 7 4 8552.83 713.074 3
-4 -7 1 7487.51 887.727 1
4 7 -1 7005.73 933.981 2
-4 7 1 7377.08 1108.64 2
-4 7 1 8030.25 865.578 1
1 -7 -4 7112.71 839.623 1
7 4 1 6830.98 659.871 2
-1 7 -4 7917.3 869.613 1
-4 -7 -1 6970.79 879.025 1
7 -4 -1 6747.59 537.206 1
-4 1 -7 7381.3 836.463 1
7 4 1 7531.71 699.511 1
-7 -1 -4 8454.7 1122.34 4
7 4 1 5524.36 902.776 4
1 4 -7 7927.97 941.192 2
-4 -7 -1 7039.15 1039.89 2
-4 -1 7 8777.32 571.54 4
7 -4 -1 7527.31 915.308 2
4 -7 1 9218.52 1230.51 2
4 7 -1 7346.03 851.129 1
7 1 -4 7187.09 597.672 1
1 -7 -4 9218.91 717.726 3
7 4 1 7004.61 862.342 3
1 7 4 8055.03 806.442 3
-7 -4 1 7679.2 679.281 2
-7 4 -1 7604.61 622.708 1
4 -7 1 7359.9 815.876 1
7 -4 -1 10133.6 668.172 3
1 -4 7 8075.57 932.449 1
-7 -4 1 8746.05 1096.59 4
7 -1 4 7311.83 721.792 2
-7 -4 1 6535.67 649.908 1
-1 7 -4 7139.41 1050.64 2
-1 -7 4 7247.32 884.433 1
-1 -7 4 7755.04 1044.17 2
1 4 -7 7764.62 887.983 1
-4 -7 -1 8198.6 960.675 3
-7 4 -1 8329.21 928.518 2
1 -4 7 8391.95 992.275 2
-7 -4 1 7463.93 966.961 3
-4 -1 7 7958.46 878.035 1
7 -3 4 1091.06 281.317 1
-3 -4 -7 1094 330.569 4
4 7 -3 1113.12 363.32 2
3 -4 7 1555.73 386.434 1
4 -7 3 1081.34 321.455 1
-4 3 -7 1320.31 410.133 1
-4 -7 -3 1441.04 422.85 3
7 4 3 1662.2 488.667 4
-3 -7 4 1180.57 390.477 1
-7 -4 3 1602.26 349.217 1
7 3 -4 1389.79 414.723 4
7 -3 4 1330.04 353.559 2
4 3 7 558.555 319.676 4
-3 -7 4 1911.9 564.548 2
-4 -3 7 1871.29 465.206 2
-3 7 -4 1517.28 473.494 2
4 -7 3 1098.1 424.753 2
-4 3 -7 1721.37 438.053 2
-4 -3 7 1123.25 405.319 1
-3 7 -4 1661.74 402.703 1
3 7 4 1508.14 411.057 3
-7 4 -3 1639.92 332.397 1
7 -4 -3 1300.39 276.121 1
-4 7 3 1652.46 424.844 1
-4 7 3 1244.02 482.227 2
-7 -4 3 929.566 264.936 2
7 3 -4 1586.96 332.676 1
-4 -7 -3 1500.03 451.977 1
-7 -3 -4 949.349 350.681 3
4 7 -3 1834.3 445.39 1
-7 4 -3 1087.62 382.957 2
7 4 3 938.693 341.471 3
-7 -4 3 1165.02 454.26 4
3 4 -7 1184.48 341.548 2
3 -7 -4 1540.89 385.524 1
-7 -3 -4 1296.77 409.184 4
3 -4 7 1183.09 372.981 2
3 4 -7 1817.79 421.616 1
3 -7 -4 1050.49 207.26 3
-4 -7 -5 5374 800.429 1
-5 -7 4 4851.58 775.181 1
-7 -5 -4 6360.11 933.792 4
-7 -4 5 4652.06 643.078 2
7 5 -4 4890.72 629.384 2
-7 4 -5 5019.49 655.609 1
-5 7 -4 4812.29 712.288 1
7 -5 4 5051.77 853.154 2
-5 -4 -7 5163.43 774.299 4
7 5 -4 5700.36 717.315 1
-4 -5 7 5978.19 839.28 1
-5 -7 4 4830.41 818.636 2
-4 -5 7 5269.49 790.293 2
7 -5 4 5606.88 694.151 1
5 7 4 4484.32 885.407 4
4 7 -5 5833.54 875.488 2
4 -7 5 5341.08 933.377 2
-7 -5 -4 5298.48 806.537 3
7 4 5 5298.21 921.241 4
-4 5 -7 5554.06 794.552 1
4 5 7 5826.23 848.403 3
-7 -4 5 5615.98 722.859 1
-7 -4 5 4848.71 699.165 4
-4 5 -7 6005.17 882.803 2
5 -4 7 5744.3 850.994 2
7 4 5 5434.18 869.183 3
5 4 -7 6055.13 798.148 1
-7 -5 -4 5198.2 695.518 1
5 4 -7 5517.12 674.029 4
4 7 -5 5963.51 825.636 1
-4 7 5 3922.97 340.044 3
5 -4 7 5634.3 810.863 1
7 5 -4 5333.14 822.947 4
5 -7 -4 5117.39 696.471 1
4 -7 5 5267.94 787.273 1
4 5 7 5202.94 824.059 4
-7 4 -5 5134.06 749.75 2
-4 -7 -5 5650.96 796.859 3
5 7 4 5391.54 785.119 3
-5 7 -4 5101.06 889.756 2
7 5 -2 498.708 198.532 2
-5 7 -2 709.136 300.563 1
-7 2 -5 674.696 258.658 1
5 7 2 151.698 302.562 4
-7 5 2 740.8 386.856 2
-5 -2 -7 735.017 338.729 4
-7 -2 5 608.654 190.768 2
5 -2 7 794.624 294.325 1
-7 -2 5 151.746 224.987 4
5 7 2 54.5254 266.284 3
-7 -5 -2 795.09 333.537 4
5 7 2 60.3662 170.038 2
5 -7 -2 634.507 274.399 1
7 5 -2 463.254 202.02 1
7 -5 2 425.109 255.132 2
-5 -7 2 438.018 243.946 1
2 7 -5 888.506 355.623 2
7 2 5 -82.3696 286.71 3
-2 -5 7 739.97 334.835 2
-7 2 -5 594.234 221.007 2
5 -2 7 453.128 256.134 2
-7 -2 5 450.128 209.042 1
2 5 7 1266.96 420.905 3
-2 5 -7 663.25 234.042 2
-7 -5 -2 199.448 220.944 3
-7 -5 -2 302.711 192.632 1
-2 5 -7 664.711 271.931 1
-5 -7 2 1037.55 407.052 2
5 -7 -2 325.868 361.959 2
2 -7 5 670.288 359.076 2
5 2 -7 336.783 225.704 1
-2 -7 -5 637.482 270.744 1
5 7 2 397.157 249.163 1
2 -7 5 474.688 265.743 1
7 5 -2 155.753 313.256 4
-2 -5 7 498.112 263.126 1
-5 7 -2 851.388 362.984 2
2 7 -5 537.264 210.726 1
2 5 7 323.73 271.926 4
5 2 -7 666.891 240.275 4
-2 -7 -5 274.341 180.014 3
7 -5 2 605.523 199.093 1
-7 5 2 695.1 208.947 1
-2 7 5 423.683 151.968 3
5 -7 0 5634.97 696.911 1
-7 5 0 6007.89 587.205 1
-7 -5 0 5351.35 659.981 1
-5 -7 0 6250.42 877.249 3
7 5 0 5502.97 670.74 1
0 -5 7 5948.25 830.47 1
-5 -7 0 4329.69 810.309 2
0 5 -7 6452.05 893.993 2
0 7 -5 5957.11 815.189 1
0 -5 7 6191.8 885.205 2
7 0 -5 6477.31 595.044 1
0 -7 5 5437.78 921.733 2
7 5 0 5359.35 648.645 2
-7 -5 0 6459.76 954.354 4
0 7 -5 6173.52 928.234 2
0 7 5 6432.14 696.859 3
0 -7 -5 6090.43 822.39 1
0 5 -7 6005.71 815.352 1
-5 -7 0 5539.94 817.427 1
-5 7 0 4884.83 903.089 2
5 -7 0 7191.44 1092.25 2
7 -5 0 5338.05 554.536 1
0 -7 -5 5929.3 638.625 3
-5 7 0 6245.58 741.574 1
5 7 0 5887.27 773.063 1
5 7 0 4633.16 864.431 4
7 0 5 6019.11 672.095 2
7 -5 0 5840.79 896.088 2
5 7 0 5247.53 820.749 2
-7 -5 0 5653.08 823.403 3
5 0 -7 5880.44 704.573 1
0 -7 5 6300.73 852.042 1
-7 5 0 5461.14 830.57 2
7 5 0 6148.53 979.642 4
2 -5 7 753.557 325.514 1
-5 -2 7 -89.7111 195.538 4
2 5 -7 391.171 153.824 1
-7 -2 -5 1034.88 471.534 4
2 -5 7 823.412 384.928 2
2 5 -7 301.891 268.851 2
-2 7 -5 609.646 338.212 2
-5 7 2 684.077 262.592 1
-7 -5 2 632.917 273.188 1
5 2 7 28.1586 261.574 4
-5 7 2 350.459 279.212 2
5 7 -2 625.342 305.36 4
5 7 -2 308.32 240.937 2
5 -7 2 496.514 351.352 2
-2 -7 5 616.779 324.026 2
-2 7 -5 826.079 322.659 1
-5 2 -7 548.291 253.968 1
-7 -5 2 -196.894 336.225 4
-2 -7 5 770.14 333.903 1
7 2 -5 515.454 207.661 1
5 7 -2 1008.07 364.014 1
-5 -2 7 771.164 285.508 1
7 -5 -2 724.562 223.774 1
-7 -5 2 517.644 281.486 2
7 5 2 528.33 370.66 4
2 -7 -5 361.022 202.62 1
-5 -7 -2 348.883 210.638 1
2 7 5 351.913 235.39 3
7 5 2 615.064 305.119 3
-7 5 -2 497.807 196.777 1
5 -7 2 485.801 270.955 1
-5 -7 -2 262.018 191.298 3
-7 5 -2 650.718 292.352 2
7 -2 5 366.528 168.735 2
-5 7 4 3598.04 816.156 2
-5 -7 -4 5427.31 801.269 1
5 7 -4 6242.43 936.075 4
5 7 -4 5511.61 772.582 1
-4 7 -5 5384.34 905.098 2
7 4 -5 5465.57 633.577 2
-7 -4 -5 6707.52 964.399 4
5 4 7 4691.26 765.829 3
4 5 -7 5349.49 773.67 1
-4 -5 -7 4034.27 638.747 4
-7 -5 4 4658.63 661.876 2
7 -4 5 5303.52 811.452 2
-4 7 -5 5496.94 780.468 1
-5 4 -7 6082.18 809.904 1
5 -7 4 5527.5 992.094 2
7 5 4 5260.03 797.905 3
-7 -4 -5 4893.25 738.09 3
-5 -7 -4 5643.07 818.415 3
-7 -5 4 5151.7 745.348 4
4 7 5 5154.11 884.278 4
5 -7 4 5465.18 764.735 1
4 5 -7 5555.28 789.857 2
4 -5 7 5473.69 864.532 2
-4 -7 5 4389.64 721.318 1
-4 -7 5 5012.17 847.719 2
7 4 -5 5177.68 679.541 1
7 4 -5 5950.38 819.661 4
7 -4 5 5562.9 695.993 1
-7 -5 4 4654.32 659.078 1
4 7 5 4999.55 750.976 3
-7 5 -4 5021.09 809.789 2
7 5 4 5481.51 946.905 4
-5 4 -7 5277.41 788.179 2
7 -5 -4 4782.73 577.39 1
5 4 7 5006.46 800.118 4
4 -7 -5 5939.15 774.577 1
-5 -4 7 5752.04 785.898 2
5 7 -4 5514.91 850.998 2
4 -5 7 6263.17 876.735 1
-5 -4 7 6287.32 824.857 1
-7 5 -4 5312.41 656.437 1
-6 -7 5 3020.78 685.497 2
6 -5 7 2727.46 653.238 2
6 5 -7 3059.89 576.682 2
-7 -6 -5 1675.31 517.14 3
-7 -5 6 2701.4 536.092 2
5 7 -6 2760.48 610.05 2
-5 -6 7 2699.09 603.104 1
-5 -7 -6 2651.28 569.276 3
7 -6 5 2717.81 672.501 2
6 -7 -5 3246.54 556.08 1
6 7 5 2301.21 647.096 4
7 6 -5 3386.2 617.692 1
7 5 6 2424.77 604.143 3
-7 -6 -5 2234.9 549.968 4
6 5 -7 3405.37 630.951 1
-6 -7 5 3095.97 604.072 1
-7 -5 6 2462.16 487.919 4
5 6 7 3346.07 671.705 3
7 6 -5 1806.85 515.148 4
5 7 -6 3128.38 626.096 1
-5 6 -7 2801.7 650.418 2
-7 5 -6 3062.65 630.048 2
6 5 -7 2554.01 500.759 4
5 6 7 1798.61 522.014 4
7 -6 5 3058.15 582.909 1
-6 7 -5 3772.57 647.487 1
-5 6 -7 3585.03 663.177 1
6 7 5 2318.56 577.819 3
5 -7 6 3451.53 646.322 1
7 6 -5 3234 571.442 2
-7 5 -6 3306.07 588.838 1
7 5 6 1648.53 520.844 4
6 -5 7 2761.33 606.116 1
-6 7 -5 2851.44 670.096 2
-7 -6 -5 2408.29 543.983 1
-5 -7 -6 2886.66 605.072 1
-5 -6 7 2745.4 606.845 2
-7 -5 6 2881.15 578.176 1
-6 -5 -7 1870.22 487.276 4
5 -7 6 3043.92 721.453 2
-6 7 -3 1062.89 464.129 2
-6 -7 3 1781.67 504.155 2
6 7 3 -151.074 417.765 4
-6 -3 -7 1695.58 514.487 4
-3 6 -7 1384.42 397.494 1
6 3 -7 1431.25 401.114 1
3 -7 6 1493.96 521.053 2
-7 6 3 1517.31 592.315 2
7 3 6 1763.81 572.604 4
-7 3 -6 1297.25 351.916 1
-3 6 -7 1579.25 501.328 2
7 6 -3 1505.46 380.629 1
3 -7 6 1678.26 484.257 1
7 6 -3 647.997 355.355 4
3 7 -6 1420.74 422.919 1
6 3 -7 1713.93 364.253 4
3 6 7 1229.51 485.947 4
6 7 3 1236.18 386.561 1
-6 -7 3 1628.07 446.086 1
-3 7 6 2029.18 328.46 3
-7 -3 6 1768.46 424.287 2
7 3 6 1526.83 500.788 3
-7 -6 -3 1040.92 356.907 3
7 -6 3 1052.86 455.428 2
-7 -6 -3 1041.8 474.065 4
3 7 -6 1792.86 506.748 2
7 -6 3 1730.26 403.231 1
-7 -3 6 1479.56 360.97 1
6 -3 7 1133.26 345.659 2
-3 -7 -6 1369.24 432.071 3
-7 -3 6 2248.04 480.391 4
-3 -6 7 1235.62 405.929 1
-3 -6 7 1230.25 423.932 2
-7 3 -6 1223.01 352.262 2
6 -7 -3 1541.21 355.11 1
3 6 7 1275.28 407.514 3
-6 7 -3 1777.86 423.321 1
7 6 -3 1438.65 373.294 2
6 -3 7 994.096 380.498 1
-7 -6 -3 1558.44 445.796 1
6 7 3 776.154 391.635 3
-6 -1 -7 1898.2 486.468 4
-1 6 -7 1313.81 389.007 1
6 7 1 1243.84 405.388 1
1 6 7 1548.63 412.4 3
6 7 1 962.967 349.469 2
6 7 1 1412.43 584.486 4
1 -7 6 1418.02 473.507 2
-6 -7 1 1207.22 426.359 2
7 6 -1 1738.32 578.483 4
-7 6 1 1563.29 467.278 2
-7 1 -6 1315.93 350.396 1
-6 -7 1 959.652 313.661 1
7 -6 1 1236.57 312.599 1
-1 -6 7 1255.88 395.237 2
6 1 -7 1104.9 326.111 1
1 7 -6 1497.72 416.249 1
1 -7 6 1640.76 468.292 1
6 -7 -1 1307.87 560.836 2
-1 -7 -6 1597.95 364.976 3
-7 -6 -1 1619.78 429.093 3
-1 6 -7 1069.59 423.615 2
-7 6 1 1466.36 333.62 1
7 6 -1 1334.68 367.575 1
7 -1 -6 1361.7 312.313 1
-7 -6 -1 1073.5 354.138 1
-1 7 6 1072.87 299.907 3
7 6 -1 1062.58 326.885 2
-6 7 -1 1104.3 477.356 2
7 -6 1 1687.91 557.377 2
-7 -1 6 1824.12 438.057 4
-7 -1 6 998.42 300.88 1
1 7 -6 1987.07 532.941 2
-6 7 -1 1286.72 349.058 1
-1 -6 7 1210.62 370.553 1
6 -1 7 1533.76 396.86 2
6 -7 -1 1085.37 334.445 1
-7 -6 -1 1836.18 510.764 4
-7 6 -1 1011.4 279.855 1
7 1 -6 1476.32 339.184 1
7 6 1 1030.43 381.853 4
1 6 -7 1497.42 429.153 2
-7 -6 1 1056.19 322.084 1
-6 7 1 1407.28 368.828 1
-1 -7 6 1722.15 526.346 2
1 7 6 1140.98 352.91 3
7 -6 -1 1983.64 614.428 2
6 -7 1 1240.23 331.473 1
1 6 -7 1237.36 381.033 1
6 -7 1 1250.43 513.899 2
-1 7 -6 1292.58 364.61 1
-7 -6 1 1686.29 484.194 4
-6 -7 -1 1682.38 458.525 3
7 -1 6 1007.5 331.764 2
7 -6 -1 1685.24 354.516 1
-7 -1 -6 2493.61 619.531 4
1 -6 7 1487.45 515.454 2
-7 6 -1 1037.54 396.363 2
-6 -1 7 1280.75 359.757 1
1 -6 7 1067.08 351.829 1
-1 7 -6 1243.71 454.402 2
6 7 -1 1420.8 437.401 2
-7 -6 1 1395.97 474.67 3
7 6 1 932.99 342.975 1
-6 -1 7 904.802 222.289 4
-6 -7 -1 1186.64 385.858 1
6 -1 -7 1225.12 316.804 1
-6 1 -7 1376.27 386.708 1
-6 7 1 1597.9 599.593 2
-7 -6 1 1351.45 392.884 2
-1 -7 6 1064.05 347.582 1
6 7 -1 1227.46 391.345 1
-1 6 7 1658.83 360.633 3
7 6 1 1553.85 423.999 2
6 7 -1 1433.66 497.581 4
7 6 1 1227.68 397.203 3
7 3 -6 1558.19 368.896 1
3 7 6 1965.87 572.225 4
7 6 3 1113.4 423.726 3
6 3 7 1416.03 484.594 4
-6 -7 -3 979.375 368.562 3
6 7 -3 1327.34 429.907 2
7 -3 6 1081.12 360.021 2
7 6 3 296.373 403.271 4
-7 -3 -6 3012.6 698.779 4
-3 -7 6 1580.36 490.997 2
6 7 -3 1385.45 434.109 1
6 7 -3 721.529 319.161 4
-7 6 -3 1136.78 328.042 1
3 -6 7 1783.44 459.325 1
-3 -7 6 1363.79 417.714 1
7 3 -6 2233.18 471.874 4
-6 7 3 731.628 377.612 2
-3 7 -6 1684.69 474.261 1
3 6 -7 1235.1 393.48 2
-6 -3 7 1133.95 345.657 1
6 -7 3 1247.29 377.573 1
-6 7 3 1944.98 426.51 1
-6 -7 -3 952.485 380.824 1
-7 6 -3 1433.61 469.859 2
-6 3 -7 1266.43 381.976 1
-6 -3 7 1849.89 397.49 4
3 7 6 1211.97 431.375 3
-3 7 -6 1448.95 437.829 2
3 -7 -6 1254.49 358.305 1
-6 3 -7 1070.53 388.224 2
-6 -3 7 1280.96 362.682 2
3 -6 7 1319.99 480.166 2
7 -3 6 1386.18 386.753 1
6 -7 3 755.268 309.011 2
3 6 -7 1655.52 453.741 1
6 3 7 947.17 405.85 3
7 -6 -3 1265.46 311.496 1
-7 -6 3 1360.67 420.203 2
-7 -6 3 756.029 327.921 4
-7 -6 3 1116.31 317.286 1
-6 -7 -5 2182.64 567.473 4
7 -6 -5 2979.47 511.388 1
-5 -6 -7 1751.04 456.781 4
7 -5 6 3044.02 581.611 1
-7 -5 -6 2425.68 585.126 4
-6 -7 -5 3081.22 641.5 3
-6 -7 -5 2660.86 586.605 1
6 -7 5 2965.12 785.822 2
5 7 6 3257.99 677.742 3
-6 5 -7 3496.31 640.671 1
6 7 -5 2977.58 661.042 1
-5 -7 6 2893.99 641.152 2
7 6 5 1837.56 573.734 4
-7 -6 5 3320.16 622.939 1
-7 6 -5 3532.96 583.34 1
5 -6 7 3273.07 729.502 2
5 6 -7 1893.42 484.85 4
6 7 -5 2810.4 589.68 2
-7 -5 -6 2209.59 515.297 3
6 -7 5 3451.9 630.942 1
-5 -7 6 2800.68 617.458 1
5 -6 7 3761.14 681.673 1
7 5 -6 2673.89 581.11 4
7 5 -6 3682.94 617.537 1
5 6 -7 3498.65 642.634 1
-7 -6 5 2422.51 566.561 2
7 6 5 2361.87 594.185 3
-5 7 -6 2827.53 588.829 1
-6 -5 7 2960.96 604.437 1
-6 -5 7 3126.14 627.71 2
-6 5 -7 3530.07 692.152 2
-5 7 -6 2975.35 698.204 2
7 -5 6 2781.84 645.157 2
7 5 -6 2819.05 524.396 2
5 6 -7 3171.36 619.478 2
-7 6 -5 2806.85 612.995 2
5 -7 -6 3148.89 580.741 1
6 7 -5 1248.36 492.747 4
5 7 6 1728.18 568.757 4
6 5 7 1945.54 484.997 4
6 5 7 2705.73 641.749 3
0 -7 7 343.474 189.768 2
7 7 0 444.19 315.206 4
-7 7 0 988.458 396.246 2
7 -7 0 482.779 369.422 2
7 7 0 630.77 258.644 2
7 -7 0 649.563 243.896 1
-7 -7 0 722.741 262.976 1
-7 7 0 534.46 249.623 1
7 0 -7 294.662 148.992 1
0 -7 7 731.103 340.96 1
-7 -7 0 1094.09 388.831 2
7 7 0 426.294 216.948 1
-7 -7 0 174.624 230.706 3
0 7 -7 433.229 266.237 2
0 7 -7 681.688 285.287 1
0 7 7 294.247 202.788 3
-7 -7 0 292.605 276.665 4
-7 -7 2 6206.6 895.529 2
7 -7 2 5240.59 701.453 1
7 7 2 5157.69 782.059 3
2 -7 7 5778.99 990.532 2
-7 -7 2 5650.01 819.872 1
-7 -2 7 2743.39 508.618 4
2 7 7 4379.19 697.934 3
-7 -2 -7 5902.38 899.794 4
7 -2 7 5457.06 818.768 2
7 2 7 5483.61 844.358 3
-7 7 2 5644.72 979.221 2
-7 -7 -2 5312.19 790.823 1
-7 7 -2 5092.79 692.074 1
-2 7 -7 5968.2 937.181 2
-7 7 2 6731.36 770.569 1
7 7 -2 6278.07 1045.99 4
-7 7 -2 5017.25 881.184 2
7 -7 -2 5653.75 685.962 1
7 7 2 6663.85 1140 4
-2 7 -7 6732.27 906.724 1
7 -7 2 5116.94 980.375 2
-2 7 7 4703.29 552.083 3
-2 -7 7 5390.32 848.249 1
7 7 -2 5676.61 795.305 2
7 7 2 6400.65 890.525 2
7 2 -7 6384.96 757.677 1
-2 -7 7 5958.38 968.16 2
-7 2 -7 5579.09 745.592 1
2 7 -7 6003.13 942.366 2
-7 -7 -2 5514.55 826.844 4
2 7 -7 6168.92 845.062 1
-7 -2 7 5850.21 769.631 1
7 7 2 5408.42 777.65 1
7 7 -2 5966.08 804.042 1
-7 -7 -2 6246.29 875.992 3
2 -7 7 6605.47 937.984 1
4 7 7 301.638 273.449 3
-4 7 7 520.007 212.485 3
-4 7 -7 110.65 148.329 2
7 -4 7 60.9641 148.695 2
7 -7 4 92.3571 273.109 2
7 7 -4 523.796 259.811 1
7 7 4 326.82 326 3
-7 -4 7 383.085 231.392 4
4 7 -7 267.485 223.407 2
7 4 7 382.022 376.209 4
7 4 7 774.204 355.353 3
-4 -7 7 108.268 209.796 2
-7 7 4 407.237 301.471 2
-7 -7 4 26.5101 247.577 2
7 7 4 1367.95 425.541 4
7 -4 7 233.718 224.159 1
4 7 -7 381.486 260.502 1
7 -7 4 196.276 152.268 1
-7 -4 -7 719.352 381.86 4
7 7 -4 205.64 213.733 2
7 7 -4 243.778 253.02 4
4 -7 7 549.487 313.284 1
-7 -7 4 85.2867 138.384 1
-4 -7 -7 750.009 311.427 3
4 -7 7 145.476 228.704 2
-7 -4 7 109.052 155.346 1
7 4 -7 -100.35 248.426 4
7 -7 -4 336.057 228.74 1
-7 7 -4 195.923 183.972 1
-7 7 -4 348.853 325.644 2
-7 -7 -4 73.4504 214.664 1
-7 -4 7 256.492 210.942 2
-7 4 -7 -89.737 208.118 2
-7 -7 -4 754.132 305.15 4
-4 -7 7 70.299 189.661 1
-7 -7 -4 135.143 189.6 3
4 7 7 -367.431 318.961 4
-7 4 -7 96.2699 102.474 1
-4 7 -7 40.6394 206.64 1
7 4 -7 348.268 290.794 1
7 7 -6 10502.9 1141.45 1
7 6 -7 9105.7 1022.55 2
7 6 -7 11189.7 1169.19 1
7 7 -6 9900.64 1107.7 2
6 7 7 4828.36 1015.26 4
-6 -7 7 8365.05 1143.35 2
7 7 6 7298.76 1236.61 4
-7 -7 6 9045.25 1135.71 2
7 -7 6 10791 1386.68 2
7 6 7 7135.2 1165.4 4
-6 7 -7 9526.14 1258.69 2
6 7 -7 10924.5 1177.15 1
-7 7 -6 8954.15 1041.1 1
7 7 -6 7823.68 1068.13 4
-7 -6 7 8302.49 1077.58 2
-7 -7 -6 8382.63 1079.22 3
6 7 -7 10151.7 1184.65 2
-7 -6 -7 7177.14 980.476 3
6 7 -7 7861.73 1024.1 4
7 7 6 8520.73 1119.89 3
-7 -7 -6 9479.06 1104.81 1
-7 6 -7 9411.96 1205.57 2
-6 -7 -7 6470.26 939.553 3
-7 -7 -6 9128.35 1136.25 4
-6 -7 7 9089.91 1147.68 1
-7 6 -7 9916.52 1097.71 1
-7 -7 6 8785.04 1120.82 1
-7 -6 7 9819.02 1157.14 1
6 7 7 8204.96 1149.57 3
7 6 7 9206.55 1240.59 3
6 -7 7 9817.33 1340.82 2
-7 -6 -7 8555.97 1124.66 4
7 -7 6 9130.36 1089.84 1
6 -7 7 11482 1240.38 1
7 -7 -6 9519.68 971.002 1
-6 -7 -7 7701.59 1022.34 4
-7 7 -6 8085.63 1161.5 2
7 6 -7 6116.4 900.138 4
7 -6 7 11009.1 1186.36 1
7 -6 7 10759.6 1349.81 2
-6 7 -7 9680.93 1100.09 1
0 -8 0 74447.9 2829.2 1
0 -8 0 70827.7 3452.83 2
0 8 0 71815.6 2715.69 1
0 0 -8 74063 2632.55 1
-8 0 0 75344.1 2447.01 3
8 0 0 73870.7 2396.16 3
0 8 0 65555 3149.18 2
1 8 -1 39067.4 2429.1 2
1 8 -1 46595.2 2204.81 1
-8 1 -1 42405.5 1282.55 2
1 -8 -1 51154.3 2887.32 2
-1 8 -1 44905.5 2667.21 2
-1 8 1 44186.5 2680.08 2
1 -8 1 44884.1 2694.39 2
-8 -1 1 49314.2 2092.83 3
-8 -1 1 43450.2 2434.8 4
-8 -1 -1 40332.5 1124.59 1
8 1 1 46175.9 2096.73 3
-1 8 -1 47609.6 2195.06 1
8 -1 1 52790.7 2103.87 3
-8 1 1 50792.2 1869.03 3
-8 -1 -1 48602.5 2072.35 3
-1 -8 -1 45887.6 2259.07 1
-8 1 -1 44811.8 1777.48 3
8 1 -1 44807.1 1872.94 3
-1 -8 -1 45632.3 2830.22 2
-1 -1 -8 43896 1389.56 4
-1 -8 1 45055.5 2641.37 2
1 8 1 46345.5 2210.94 1
8 -1 -1 49030.3 1765.8 3
-8 -1 -1 37950.3 2310.73 4
8 -1 1 48308 1561.64 2
1 1 -8 47546.9 2154.21 1
-1 1 -8 51980.1 2293.69 1
-1 -8 1 44401.4 2203.91 1
-1 8 1 47256.5 2222 1
1 8 1 40083.4 2552.48 2
1 -8 -1 46347.7 2221.29 1
1 -8 1 46773.5 2208.55 1
0 2 -8 17847.5 1358.84 1
0 -2 8 18397 1470.41 2
0 2 8 18997 977.161 4
0 -8 2 14428 1590.56 2
-8 2 0 16202.3 987.884 2
-2 8 0 17156.2 1327.75 1
-8 2 0 15307.5 976.688 3
8 -2 0 18074.3 1076.55 2
-2 -8 0 15404.9 1304.22 1
8 0 2 17785.4 1343.8 3
8 0 2 13841.5 765.693 2
-2 0 -8 16746.6 1298.81 1
0 -8 -2 17207.2 1389.71 1
2 0 -8 16214.6 1218.83 1
0 8 -2 12836.2 1406.96 2
-8 0 -2 15562.5 1127.05 3
0 -2 8 17845.5 1400.14 1
0 8 2 13708.8 1579.13 2
-8 -2 0 13328 1424.23 4
0 8 2 17168.8 1383.65 1
0 -8 2 16254.3 1334.79 1
-8 -2 0 14232 745.704 1
-8 0 2 18400.2 1221.94 3
-2 8 0 13700.9 1537.04 2
2 8 0 12950.9 1462.1 2
2 -8 0 16211.2 1295.57 1
0 -8 -2 17133.4 1128 3
2 -8 0 15102.7 1683.75 2
-8 -2 0 17335.7 1305.56 3
8 -2 0 19582.6 1177.15 3
2 8 0 15095.8 1248.78 1
0 8 -2 16773.8 1291.04 1
8 2 0 14577.4 1162.26 3
-2 0 -8 15757 960.227 4
-2 -8 0 16351.1 1593.26 2
-8 2 2 5178.47 553.385 3
2 -8 -2 3193.73 863.449 2
-2 -8 2 4462.79 936.701 2
8 -2 2 3858.51 552.903 2
-8 -2 -2 5712.45 770.389 3
-2 8 2 4046.28 686.32 1
2 8 2 3829.87 675.593 1
-2 -2 -8 5101.8 583.02 4
-2 -8 -2 4465.55 659.329 3
8 2 -2 3377.11 366.772 1
2 -2 8 4335.05 726.525 2
-8 -2 2 5790.35 986.249 4
2 8 -2 3778.4 626.441 1
8 2 2 5814.6 783.62 3
-2 -8 2 3029.67 603.674 1
-2 -2 8 4329.27 721.025 2
-8 2 -2 2890.42 354.151 1
2 -2 8 3539.13 620.35 1
-8 2 2 4677.09 583.32 2
8 -2 2 2844.58 339.663 1
2 -8 -2 3770.08 653.162 1
2 8 2 3878.29 813.95 2
-8 -2 2 4733.33 712.387 3
-8 -2 -2 8046.28 1054.81 4
-2 8 -2 4100.71 665.239 1
2 2 -8 3367.58 633.739 1
2 -8 2 5795.33 1082.15 2
2 -8 2 4278.01 684.585 1
-2 2 -8 3335.28 604.961 1
2 2 8 5604.42 711.945 4
-2 -8 -2 3877.2 682.565 1
-2 8 2 3126.53 758.144 2
-8 2 -2 3264.58 463.874 2
8 -2 -2 4505.16 496.392 3
-2 8 -2 4041.19 885.658 2
2 8 -2 4554.02 870.522 2
-2 -2 8 3621.9 631.906 1
8 -2 2 5142.16 692.946 3
-8 -2 2 3209.95 368.147 1
-8 1 -3 2571.46 387.393 2
8 3 -1 2597.85 627.256 4
1 8 -3 2887.69 573.347 1
8 -3 1 2039.43 280.12 1
-8 -1 3 2897.8 550.628 3
3 -8 -1 2208.25 702.245 2
-3 8 -1 2956.14 562.878 1
-8 -1 3 2227.5 583.102 4
-8 -1 3 2648.56 315.952 1
-1 -3 8 2911.3 576.302 1
3 -8 -1 2778.42 552.019 1
-8 -3 -1 3542.62 693.341 4
-1 8 3 3022.53 591.42 1
-1 -8 -3 2817.39 512.839 3
3 8 1 2444.99 517.319 1
-3 8 -1 3011.04 721.294 2
-8 1 -3 2388.62 347.199 1
-1 -3 8 2529.15 536.915 2
8 -3 1 3101.67 548.94 2
1 3 8 1898.3 389.559 4
-1 -8 -3 2243.49 493.053 1
3 8 1 2430.04 667.206 2
1 -8 3 2751.22 568.744 1
8 1 3 3104.8 606.261 3
-3 -8 1 3582.52 783.793 2
8 3 -1 2408.46 358.08 1
-3 -1 -8 3779.06 585.565 4
3 1 -8 2779.18 559.857 1
-8 -3 -1 2567.52 401.316 1
1 -8 3 3419.94 814.064 2
-8 3 1 2918.44 507.424 2
-1 3 -8 2621.37 543.054 1
8 -3 1 3896.65 566.249 3
-1 8 3 2300.46 710.624 2
-8 -3 -1 3737.28 623.609 3
-3 -8 1 2126.19 540.998 1
1 8 -3 2679.62 646.276 2
-1 -8 3 2747.25 573.188 1
1 8 3 2409.17 590.856 1
-3 8 1 1383.26 515.453 2
-3 -8 -1 2130.07 540.79 1
-8 -1 -3 4727.47 839.399 4
-8 -3 1 3240.18 618.779 3
8 1 -3 2324.84 291.167 1
1 -8 -3 3057.45 633.875 1
3 -8 1 2454.24 514.493 1
8 -1 3 2847.25 537.293 3
-3 -8 -1 3046.59 575.964 3
-8 3 -1 1896.49 277.729 1
-3 -1 8 3049.3 606.62 1
1 -3 8 2634.6 568.298 2
8 -3 -1 3117.61 550.723 2
-8 1 3 3283.75 522.696 3
1 -8 -3 2181.85 378.051 3
-8 -3 1 2268.49 350.377 1
3 8 -1 2918.86 558.379 1
3 8 -1 3420.1 747.168 2
8 3 1 4056.13 741.236 4
-3 1 -8 2982.5 561.29 1
-8 3 -1 2587.51 477.032 2
-1 8 -3 2404.83 650.821 2
1 3 -8 2711.01 550.987 1
-3 -8 -1 2345.48 644.036 2
-3 8 1 3346.46 591.53 1
8 -1 3 2605.51 420.53 2
-1 -8 3 3227.62 780.083 2
3 -8 1 2845.92 738.02 2
-1 8 -3 2766.24 529.769 1
1 8 3 2175.57 701.082 2
1 -3 8 2910.86 580.468 1
8 -3 -1 3392.54 427.077 3
-8 -1 -3 3334.27 570.04 3
8 3 1 2741.24 507.614 3
-8 -3 1 2740.32 693.87 4
-8 -3 3 11715 844.587 1
8 -3 3 15177.2 1233.43 2
3 3 8 15564.6 1321.29 4
3 -8 3 13222.7 1598.96 2
3 8 -3 11201.5 1321.68 2
-3 -8 3 12836 1225.87 1
-8 -3 3 16094.8 1500.05 4
-8 3 3 17596.6 930.61 3
-3 8 -3 12999.3 1183.15 1
3 -8 3 13242.9 1210.17 1
8 3 -3 12152.5 828.247 1
-3 3 -8 14048.7 1257.49 1
3 3 -8 14618.1 1261.26 1
-3 -3 8 14064 1295.28 1
-3 8 -3 12647.7 1475.32 2
8 3 -3 13807.1 1327.33 4
-8 3 -3 12368.4 851.829 1
-8 -3 -3 15883.9 1530.48 4
-8 3 -3 13615.8 1078.07 2
-3 8 3 13984 1656.27 2
3 -8 -3 13943.8 1220.98 1
3 8 3 12856.3 1482.89 2
8 3 3 10613.3 1313.84 4
-3 -3 8 16251.2 1399.38 2
-8 -3 -3 13986.6 1253.96 3
-3 -3 -8 17259.9 1166.31 4
3 -3 8 14259.5 1353.83 2
8 3 3 13818.3 1316.91 3
8 -3 3 12309.1 831.291 1
3 -3 8 14225.3 1299.22 1
-3 -8 -3 14788.9 1212.91 3
3 8 3 13362.7 1173.87 3
-3 -8 -3 12961 1291.84 1
8 -3 -3 12726.3 678.066 1
3 -8 -3 16145 817.918 3
-3 8 3 14843.8 1287.15 1
3 8 3 14542 1323.49 1
-8 -3 3 11980.1 781.433 2
3 8 -3 12640.8 1195.2 1
-3 -8 3 11372 1363.29 2
4 2 -8 6765.1 829.678 1
8 4 -2 5870.81 533.26 2
4 8 2 6254.04 885.186 1
2 -8 4 6127.58 860.714 1
8 -4 2 7727.36 984.103 2
4 -2 8 6636.85 898.01 2
-8 -4 -2 6726.95 878.014 3
4 2 -8 6796.86 533.915 4
-8 -2 4 5963.2 593.988 1
-8 2 -4 6359.23 651.098 1
8 2 4 7975.03 1059.75 3
-8 -4 -2 8402.74 1137.15 4
-4 8 -2 7008.98 1128.87 2
2 8 -4 6669.85 866.614 1
2 -8 4 7131.05 1163.66 2
8 -4 2 5579.89 558.363 1
-2 8 4 7687.93 952.278 1
-2 4 -8 7065.26 888.338 1
-2 -8 -4 7741.1 848.574 3
8 4 -2 5611.76 624.298 1
-4 8 -2 6888.75 841.376 1
-2 -8 -4 6190.43 876.142 1
4 -8 -2 7110.42 1196.71 2
-2 -4 8 7358.32 969.476 2
-4 -8 2 6483.53 866.905 1
-8 2 -4 6777.89 746.028 2
-2 4 -8 6855.37 925.5 2
8 4 -2 5038.58 816.081 4
-4 -2 -8 8002.65 883.274 4
-8 -2 4 9574 1164.09 4
2 8 -4 6262.95 998.508 2
4 8 2 3780.59 812.519 2
-8 -4 -2 5721.3 686.661 1
-2 -4 8 7161.45 931.731 1
-4 -8 2 5808.86 968.488 2
-8 -2 4 6115.32 550.431 2
4 -2 8 6848.47 886.23 1
-8 4 2 7746.91 962.537 2
4 -8 -2 6760.03 830.943 1
2 4 8 7531.51 888.472 4
8 4 0 496.48 175.797 2
-4 -8 0 640.797 392.118 2
-8 4 0 741.848 355.923 2
-4 8 0 537.56 364.208 2
8 -4 0 775.172 323.532 2
0 -8 4 248.722 243.581 1
-8 -4 0 381.891 409.333 4
8 0 -4 197.457 87.3343 1
8 0 4 127.601 214.235 3
0 4 -8 135.625 157.736 1
4 0 -8 452.075 196.741 1
8 4 0 450.084 255.494 3
0 8 4 367.222 152.438 3
8 -4 0 380.617 106.344 1
4 8 0 -18.5182 142.067 1
0 -8 -4 279.614 243.544 1
0 8 -4 165.357 196.207 2
0 8 -4 103.807 154.576 1
0 -8 -4 1031.33 310.563 3
0 -8 4 396.454 297.546 2
8 0 4 331.172 161.021 2
-4 8 0 624.654 307.286 1
4 8 0 274.402 194.173 2
-4 0 -8 95.5691 262.771 4
-8 -4 0 290.927 190.061 3
8 4 0 87.0272 253.2 4
0 -4 8 427.511 221.75 1
8 4 0 258.336 162.469 1
-8 -4 0 13.1932 119.431 1
-8 4 0 304.355 123.554 1
-4 -8 0 445.436 223.599 1
0 8 4 377.58 263.439 1
8 -4 0 973.335 258.439 3
0 -4 8 401.928 270.939 2
0 4 -8 363.301 265.645 2
4 -8 0 642.111 443.217 2
4 -8 0 328.321 215.088 1
8 -2 4 6174.55 751.798 2
-8 -2 -4 8079.67 1117.04 4
-8 -4 2 6120.71 653.587 1
-2 -8 4 5459.39 841.737 1
4 2 8 6909.3 918.83 4
4 8 -2 5655.03 949.372 2
-2 8 -4 6077.18 816.46 1
-4 2 -8 7389.95 901.389 1
4 -8 2 6326.32 819.822 1
-4 -2 8 7219.87 915.679 1
2 -8 -4 7750.74 635.418 3
2 -4 8 7814.06 1050.58 2
4 -8 2 7340.56 1215.06 2
-8 -4 2 6961.02 1005.31 4
2 4 -8 5930.87 847.813 2
-8 -4 2 7752.39 998.568 3
-4 8 2 6892.48 859.32 1
8 -4 -2 8157.02 569.107 3
8 2 -4 6001.4 584.424 1
-2 -8 4 6854.38 1082.21 2
2 8 4 7012.81 818.569 3
4 8 -2 6993.25 892.449 1
8 -4 -2 5985.85 507.762 1
8 4 2 6283.04 884.169 3
-8 4 -2 6570.61 852.745 2
-8 2 4 8834.3 745.212 3
-2 8 -4 6179.84 1024.22 2
-4 -8 -2 6440.83 907.849 1
-8 -4 2 5603.32 591.402 2
2 -4 8 6808.79 900.598 1
2 8 4 6761.17 943.079 1
-4 -8 -2 6854.01 891.352 3
2 -8 -4 6491.34 864.608 1
8 4 2 6506.8 977.054 4
-8 -2 -4 6373.83 794.501 3
-4 8 2 6424.57 1135.75 2
2 4 -8 7575.75 887.742 1
-8 4 -2 5473.05 565.605 1
-4 -8 -4 9041.99 1000.77 3
4 -4 8 12531.9 1228 1
-8 4 -4 10374.1 883.593 1
-4 -8 4 11089.7 1186.96 1
-4 8 4 8501.69 1328.46 2
-8 4 -4 11196.6 1084.82 2
4 -8 4 12167.9 1544.63 2
-8 -4 4 11400.9 966.433 1
4 8 4 8510.32 1161.46 4
-8 -4 4 10017 860.663 2
-4 8 4 13435 1252.23 1
-8 4 4 9728.66 604.275 3
-4 -4 8 12307.7 1228.29 2
-4 -4 -8 7853.65 885.555 4
-8 -4 4 8632.8 1040.25 4
4 -8 -4 11484.9 1116.17 1
-4 -4 8 12239.1 1230.69 1
-8 -4 -4 10283.9 1094.89 3
-4 4 -8 12261.7 1205.49 1
8 4 -4 11040.1 928.451 1
8 -4 4 10738.4 905.952 1
4 8 4 9089.41 957.77 3
-4 4 -8 11361.3 1201.5 2
8 4 -4 11257.4 815.624 2
-4 -8 4 12319.7 1389.1 2
4 8 -4 12521.3 1190.69 1
4 8 -4 11015.7 1281.83 2
8 -4 -4 10465.1 744.167 1
8 4 4 11282.2 1379.4 4
4 4 8 6735.09 934.625 4
8 4 4 11823.6 1235.54 3
-4 8 -4 11246.8 1108.17 1
-4 -8 -4 12257.9 1234.89 1
8 4 -4 7389.83 1026.03 4
-8 -4 -4 11448 1273.37 4
8 -4 4 10660.3 1146.61 2
4 -4 8 12393.7 1288.6 2
-4 8 -4 10759.5 1371.06 2
4 -8 4 11419.1 1152.74 1
4 4 -8 8525.35 740.744 4
4 4 -8 11631.4 1151.5 1
3 -8 5 8954.72 1252.18 2
-3 -5 8 8189.89 1047.28 1
-3 5 -8 8630.47 1036.06 1
5 8 3 5405.26 933.193 2
-8 -5 -3 5971.5 893.774 3
-3 -8 -5 8912.37 1080.87 1
-8 -3 5 8150.64 820.793 1
8 -5 3 8034.59 1074.4 2
-8 -5 -3 6034.85 1001.08 4
8 5 -3 7565.87 727.642 2
8 5 -3 6175.84 1018.37 4
-5 -3 -8 8074.74 956.96 4
-5 -8 3 8034.93 1006.05 1
5 -3 8 7891.16 1018.84 2
8 3 5 5530.49 965.964 4
8 5 -3 8457.13 831.074 1
5 8 3 6117.64 849.985 3
5 -3 8 8274.97 1020.82 1
3 5 8 6770.49 918.009 4
8 3 5 8474.74 1109.55 3
-8 -5 -3 8243.26 875.554 1
5 -8 -3 8135.22 916.003 1
5 8 3 4502.79 877.623 4
-8 -3 5 9566.51 1090.58 4
5 8 3 8560 1024.3 1
3 5 8 7526.47 936.09 3
-8 3 -5 7923.72 796.361 1
-5 8 -3 8366.31 1244.24 2
-5 -8 3 7260.12 1077.4 2
3 8 -5 8825.19 1043.86 1
-5 8 -3 8849.35 995.629 1
-8 -3 5 7757.79 744.971 2
-8 3 -5 7878.69 867.409 2
-3 8 5 7687.21 592.012 3
-3 -8 -5 7828.14 896.553 3
5 3 -8 9605.2 1039 1
3 8 -5 8472.33 1156.62 2
8 -5 3 8089.66 791.287 1
-3 -5 8 9181.21 1088.28 2
-8 5 3 8479.2 1089.93 2
3 -8 5 8872.7 1052.12 1
-3 5 -8 8542.81 1059.11 2
5 3 -8 6830.96 658.847 4
-8 -1 5 4179.75 784.246 4
-8 -5 -1 3826.08 650.846 3
-5 -8 1 4547.79 846.678 2
5 8 1 3500.82 719.757 2
-1 -8 -5 3012.69 609.298 1
8 5 -1 3266.28 476.975 2
5 8 1 3049.48 755.821 4
8 -5 1 3244.35 718.931 2
-1 5 -8 3636.91 704.911 2
-1 -8 -5 3436.28 555.906 3
5 1 -8 3636.77 613.905 1
8 1 5 4148.37 752.649 3
5 8 1 3541.67 656.035 1
-5 -8 1 3338.28 646.333 1
1 8 -5 4045.29 675.539 1
8 5 -1 3633.65 539.425 1
-5 -1 -8 4216.64 677.564 4
5 -8 -1 3909.68 949.778 2
-8 5 1 3682.03 461.865 1
-8 -5 -1 4439.7 796.058 4
1 5 8 2316.35 467.992 4
-8 1 -5 3483.23 512.691 1
-8 5 1 3312.01 680.843 2
1 -8 5 3181.11 815.651 2
-5 8 -1 3529.7 588.846 1
-1 -5 8 3729.5 722.193 2
8 -5 1 3296.58 454.294 1
-1 5 -8 3671.94 680.299 1
1 8 -5 3460.5 773.517 2
8 5 -1 3697.92 707.435 4
-8 -1 5 3828.49 491.6 1
8 -1 -5 3498.97 426.943 1
-8 -5 -1 2979.34 543.016 1
-5 8 -1 3324.7 762.611 2
1 -8 5 3338.21 647.547 1
5 -8 -1 3160.33 573.889 1
5 -1 8 3375.43 640.227 2
-1 -5 8 3624.52 706.529 1
-1 8 5 3561.37 505.63 3
-8 -5 1 3111.17 516.938 1
-1 -8 5 3862.32 692.087 1
1 5 -8 3816.52 689.784 2
8 1 -5 3449.48 451.568 1
5 -8 1 3439.24 877.641 2
1 -5 8 3571.13 680.617 1
-1 8 -5 3666.78 782.395 2
1 5 -8 3551.54 646.728 1
-8 5 -1 3651.57 468.145 1
-5 8 1 2674.33 723.542 2
-5 8 1 3678.98 619.234 1
1 -5 8 4438.09 796 2
-8 5 -1 2732.22 619.074 2
5 8 -1 3087.69 609.257 1
-1 8 -5 4052.8 711.34 1
-5 -8 -1 3398.64 669.852 1
8 5 1 3364.71 516.307 2
1 8 5 3245.09 554.047 3
-5 -1 8 3508.49 412.393 4
5 8 -1 3792.23 726.137 2
-5 -8 -1 3453.83 670.539 3
-5 1 -8 3760.6 637.743 1
5 -8 1 2972.79 567.357 1
-8 -5 1 4327.49 785.576 4
8 -5 -1 4294.36 473.676 3
8 -1 5 3013.68 501.381 2
1 -8 -5 3724.8 646.846 1
-1 -8 5 3500.76 774.158 2
5 -1 -8 3411.03 556.513 1
-8 -1 -5 5198.43 869.422 4
-8 -5 1 4229.02 769.262 3
-5 -1 8 3396.15 616.753 1
8 5 1 3455.27 640.785 3
1 -8 -5 3516.11 502.044 3
5 8 -1 3621.68 755.275 4
8 -5 -1 2863.96 406.062 1
-8 -5 1 3524.56 542.539 2
8 5 1 3519.46 537.785 1
8 -5 -1 3041.21 662.222 2
8 5 1 4630.61 873.625 4
3 -8 -5 7285.13 571.149 3
8 -5 -3 8387.27 696.443 1
5 8 -3 7675.96 1069.64 2
8 3 -5 8246.51 786.16 1
-5 -3 8 9140.89 1031.42 2
5 3 8 6448.03 955.279 4
-8 5 -3 8243.89 784.554 1
-8 -5 3 7738.17 812.192 1
-8 -5 3 7156.48 956.522 4
3 5 -8 8076.57 995.148 2
-5 3 -8 8476.71 988.576 1
8 3 -5 8425.2 981.3 4
5 -8 3 8568.54 1340.61 2
8 -3 5 7805.86 918.03 2
-8 -5 3 8149.1 838.041 2
-3 -8 5 6804.77 1064.37 2
3 -5 8 8994.98 1066.02 1
-3 8 -5 9108.46 1024.83 1
-5 -8 -3 8863.99 1066.63 1
8 5 3 4700.32 927.276 4
5 -8 3 8594.49 994.449 1
-3 8 -5 7518.88 1098.41 2
-8 -3 -5 7306.36 932.962 3
5 8 -3 9511.75 1031.7 1
-3 -8 5 9034.9 1068.48 1
-8 5 -3 7903.05 975.818 2
-5 8 3 10117.1 1051.91 1
8 5 3 7938.89 1038.26 3
-5 -8 -3 7005.37 914.621 3
-5 -3 8 9290.33 1042.24 1
3 -8 -5 8686.01 990.224 1
3 5 -8 9205.96 1052.13 1
-5 8 3 6879.57 1247.57 2
3 -5 8 9008.23 1144.87 2
-8 -3 -5 8617.47 1183.47 4
3 8 5 7871.99 929.116 3
8 -3 5 7162.78 765.676 1
-5 -8 -5 10128.8 1151.16 1
-8 -5 5 9323.21 951.964 1
-8 -5 -5 5975.75 964.177 4
8 5 -5 10225.3 984.499 1
-5 8 -5 8057.87 1208.46 2
-5 -5 8 9269.04 1103.67 1
5 5 -8 9163.29 1051.16 2
8 5 5 7113.7 1027.98 3
-8 5 -5 8962.65 905.205 1
8 -5 -5 9011.93 786.227 1
-8 5 -5 8837.17 1047.88 2
-8 -5 5 6051.98 874.393 4
-8 -5 -5 6069.27 876.434 3
5 -5 8 9609.9 1119.37 1
-5 -8 5 9042.89 1209.54 2
5 5 8 4850.97 840.111 4
-8 -5 5 8685.36 933.026 2
-5 -5 -8 6710.51 867.747 4
5 8 5 6662.08 1111.58 4
5 -5 8 9217.86 1156.45 2
-5 -5 8 9426.46 1120.87 2
5 5 -8 9886.51 1081.53 1
-5 -8 -5 6602.28 921.668 3
-5 5 -8 9814.15 1101.62 1
5 5 8 6264.63 948.644 3
8 5 -5 5070.06 852.19 4
-5 8 -5 9483.46 1062.07 1
5 -8 -5 10072.8 1043.76 1
5 8 -5 8582.43 1099.87 2
8 5 -5 8980.49 850.269 2
5 5 -8 5804.32 714.68 4
8 5 5 5311.08 1002.44 4
5 8 5 7192.61 955.486 3
5 -8 5 9666.77 1348.38 2
5 -8 5 9964.88 1136.26 1
8 -5 5 9107.14 1167.93 2
8 -5 5 8779.99 927.047 1
-5 5 -8 9509.63 1166.86 2
-5 -8 5 9698 1140.31 1
5 8 -5 10080 1107.69 1
8 -6 4 1297.95 372.278 1
-8 -6 -4 2435.89 651.327 4
-8 -6 -4 1039.85 399.17 3
6 4 -8 1164.49 389.466 1
-8 -6 -4 1295.04 396.478 1
6 8 4 1118.14 556.594 4
-4 6 -8 1541.47 519.725 2
8 -6 4 1609.03 541.065 2
-6 -4 -8 1815.97 500.135 4
-4 -8 -6 1716.24 517.707 1
-4 6 -8 1557.83 449.008 1
-8 4 -6 1189.97 361.681 1
6 8 4 1722.79 502.85 3
8 6 -4 2451.57 650.169 4
-4 -6 8 1780.95 526.87 1
-4 -8 -6 1946.12 541.812 3
6 -8 -4 1193.79 359.015 1
-6 -8 4 1070.42 441.794 1
6 4 -8 1831.21 414.885 4
4 8 -6 1630.74 520.565 2
4 -8 6 1311.78 560.819 2
4 8 -6 1513.53 451.594 1
-6 8 -4 1442.35 542.362 2
6 -4 8 976.943 367.349 1
-8 4 -6 1311.31 411.883 2
-4 8 6 799.186 171.565 3
4 6 8 2329.67 640.351 4
-6 -8 4 2128.43 566.021 2
8 6 -4 1551.71 396.314 2
-8 -4 6 593.072 236.139 4
8 6 -4 1672.32 411.764 1
-8 -4 6 1263.58 338.276 2
8 4 6 634.614 352.377 3
-8 6 4 1056.65 478.414 2
-6 8 -4 1256.78 402.364 1
4 6 8 1242 417.806 3
8 4 6 640.56 268.117 4
-8 -4 6 923.118 322.208 1
6 -4 8 1145.08 383.824 2
-4 -6 8 1112.53 416.302 2
4 -8 6 1396.51 411 1
2 6 8 4860.33 749.762 3
-6 8 -2 3353.59 604.015 1
-8 -2 6 3500.97 569.928 1
6 -8 -2 3864.1 612.29 1
8 6 -2 3898.82 606.686 2
2 8 -6 3772.8 794.78 2
6 2 -8 4039.62 661.189 1
2 -8 6 4084.83 751.854 1
8 6 -2 2030.13 665.294 4
-8 6 2 4215.74 567.318 1
-8 -2 6 4072.78 567.888 2
-2 -8 -6 3322.53 673.643 1
-2 -6 8 4306.12 792.065 1
-2 6 -8 4008.11 754.766 2
8 -6 2 3391.4 758.172 2
-8 -6 -2 3252.29 725.633 4
-2 -6 8 3782.26 770.867 2
2 6 8 5509.7 829.819 4
-8 -2 6 6659.43 914.591 4
2 8 -6 3824.16 691.319 1
-6 -8 2 3472.31 704.565 1
6 -8 -2 3941.74 931.388 2
-8 2 -6 3640.01 554.05 1
8 2 6 4106.1 802.621 3
-8 -6 -2 3695.35 647.07 1
-8 6 2 4150.25 842.322 2
6 -2 8 3527.73 700.221 2
-8 -6 -2 3518.36 689.595 3
6 8 2 3880.36 695.999 1
8 -6 2 3680.41 555.701 1
-6 8 -2 3973.08 885.085 2
-6 -8 2 3800.3 798.997 2
6 8 2 2579.87 625.74 2
8 6 -2 3826.9 616.922 1
-2 6 -8 3795.25 688.732 1
-2 8 6 5146.78 590.819 3
6 8 2 1898.94 631.727 4
-2 -8 -6 5826.35 754.32 3
2 -8 6 3213.2 804.26 2
-6 -2 -8 4445.31 796.227 4
-6 8 0 244.424 193.874 2
-6 8 0 127.094 147.34 1
-6 0 -8 908.575 318.667 4
6 -8 0 112.179 108.335 1
0 -8 -6 697.213 291.582 3
0 -8 6 -57.9177 146.206 1
0 8 -6 87.605 124.898 1
6 8 0 -18.7769 202.623 1
8 -6 0 668.87 345.305 2
8 6 0 282.528 223.657 1
8 6 0 665.155 452.541 4
6 -8 0 316.769 278.881 2
-8 6 0 44.678 99.0089 1
0 -8 6 27.4261 201.25 2
6 8 0 11.0238 173.016 2
0 6 -8 165.959 179.034 2
-8 -6 0 -3.74634 330.88 4
8 0 6 309.064 195.723 2
-6 -8 0 320.927 258.908 1
-8 6 0 145.856 208.347 2
6 0 -8 -44.194 145.742 1
-8 -6 0 49.4488 142.84 1
0 8 -6 315.259 220.195 2
0 -6 8 322.141 326.606 2
-6 -8 0 620.367 361.821 2
8 0 -6 138.32 87.107 1
-8 -6 0 533.605 319.343 3
-6 -8 0 44.0887 215.207 3
6 8 0 1686.99 480.399 4
0 -6 8 -108.903 176.271 1
0 -8 -6 95.8997 146.668 1
8 6 0 51.7591 126.375 2
0 6 -8 165.966 155.25 1
0 8 6 755.688 285.069 3
8 -6 0 -108.126 182.024 1
8 6 2 2725.93 559.057 2
-8 6 -2 4141.16 807.542 2
2 6 -8 4551.86 757.167 1
6 8 -2 1910.37 629.011 4
8 -6 -2 3955.58 522.514 1
-2 -8 6 3791.71 740.237 1
6 -8 2 3896.39 988.333 2
-8 -6 2 3636.73 707.753 4
-6 -2 8 4092.13 720.479 1
-6 -2 8 5232.79 597.558 4
-8 6 -2 4070.19 568.079 1
8 6 2 1868.11 485.365 4
-6 -8 -2 3114.47 671.309 3
8 2 -6 3529.07 539.294 1
2 8 6 4971.42 766.552 3
-2 -8 6 3238.83 748.506 2
2 -6 8 3838.44 734.857 1
6 8 -2 4132.57 746.561 2
8 -2 6 3302.18 613.246 2
-2 8 -6 4209.01 710.42 1
8 6 2 3729.72 617.823 1
-6 8 2 4323.38 699.54 1
2 -6 8 4069.02 788.41 2
2 6 -8 3279.02 683.719 2
6 8 -2 3352.6 650.029 1
-2 8 -6 4043.03 804.287 2
8 -6 -2 4294.03 401.222 3
-8 -2 -6 5410.06 976.515 4
-6 8 2 3520.86 836.3 2
6 -8 2 3405.73 609.033 1
-6 -8 -2 3481.6 655.957 1
2 -8 -6 4001.53 696.918 1
-6 2 -8 3859.05 685.515 1
8 6 2 3595.98 693.036 3
-8 -6 2 3148.8 586.013 1
-8 -6 2 3474.74 618.241 2
4 8 6 1603.62 585.551 4
6 8 -4 1515.24 489.335 2
-4 -8 6 1228.68 421.504 1
8 -4 6 1158.23 333.985 1
6 4 8 981.648 431.881 3
6 4 8 1515.23 486.803 4
-8 6 -4 1198.43 335.62 1
-6 -8 -4 1147.46 409.708 1
8 -6 -4 1261.21 312.278 1
-6 -4 8 1235.86 415.604 2
8 4 -6 1909.06 515.244 4
-8 -6 4 1107.83 367.223 1
8 4 -6 1133.91 348.541 1
8 6 4 1347.15 467.401 3
-6 -4 8 1302.98 415.489 1
4 -8 -6 1636.96 470.401 1
4 6 -8 1417.84 473.352 1
4 -6 8 1123.45 443.874 2
-6 -8 -4 1003.05 392.295 3
6 -8 4 1762.03 647.28 2
-6 8 4 1130.69 477.547 2
8 6 4 1458.9 637.219 4
-6 4 -8 1623.4 472.903 1
-8 6 -4 1143.1 384.97 2
6 8 -4 1399.08 439.347 1
4 8 6 1525.21 454.076 3
4 -6 8 1608.35 503.58 1
-4 8 -6 1664.69 466.664 1
-8 -4 -6 1430.45 527.515 4
6 -8 4 1190.29 371.371 1
-8 -6 4 1240.24 395.248 2
-4 8 -6 1898.33 605.587 2
-4 -8 6 974.217 416.987 2
4 6 -8 1251.18 420.893 2
-6 4 -8 648.134 286.614 2
6 8 -4 1656.15 573.587 4
8 -4 6 1235.8 404.503 2
-8 -6 4 1543.53 436.931 4
6 6 8 4143.25 833.377 3
-6 6 -8 4510.41 769.542 1
6 6 8 4144.47 923.016 4
6 8 -6 4365.63 757.035 1
-6 -8 6 3795.86 795.029 2
6 6 -8 3406.6 642.636 4
-8 -6 6 2859.97 605.091 4
-8 6 -6 4053.1 799.983 2
-6 -8 -6 3999.67 772.326 1
8 -6 6 4660.35 894.655 2
-6 8 -6 4029.98 708.774 1
-6 -8 -6 2875.61 617.61 3
6 -8 6 3226.44 850.268 2
-6 -6 8 3534.06 737.716 1
8 6 -6 3964.58 680.641 1
-6 6 -8 4129.6 821.343 2
8 6 6 2525.04 712.534 4
6 -8 -6 3961.58 677.041 1
-6 -8 6 4316.36 795.603 1
8 -6 6 3741.22 679.876 1
8 6 -6 4060.41 662.017 2
6 6 -8 4202.75 747.782 1
-6 -6 8 3671.05 721.559 2
6 8 6 3397.21 722.654 3
6 -6 8 5138.61 850.946 1
-8 -6 -6 3133.56 744.523 4
-8 -6 6 3631.63 715.315 1
6 6 -8 4711.25 768.775 2
6 8 -6 2993.4 727.587 4
8 6 6 3800.67 772.843 3
6 8 6 3084.53 753.57 4
8 6 -6 2734.35 635.903 4
-8 6 -6 3817.69 669.003 1
-6 8 -6 3539.72 815.965 2
6 -6 8 4269.04 848.895 2
-6 -6 -8 3254.15 663.634 4
8 -6 -6 4065.79 599.535 1
-8 -6 -6 2814.65 582.725 3
6 8 -6 4737.4 842.88 2
6 -8 6 4699.54 778.986 1
-8 -6 6 3897.51 703.276 2
7 -5 8 125.433 287.564 2
5 7 8 283.853 322.583 3
-8 -5 7 548.273 300.207 1
7 5 -8 276.5 312.481 4
-8 -7 -5 253.074 205.751 1
7 8 5 106.874 285.626 3
5 7 8 43.0985 250.722 4
5 -8 7 54.6639 167.499 1
7 5 -8 296.081 237.73 1
-8 -7 -5 247.836 229.75 3
5 8 -7 408.745 296.493 1
7 -5 8 303.873 197.334 1
-8 5 -7 303.772 203.951 1
-8 -7 -5 738.727 295.442 4
-5 -8 -7 123.57 257.405 1
8 -7 5 265.496 182.717 1
-5 -7 8 296.278 225.253 1
-7 8 -5 -36.9334 161.976 2
7 8 5 1267.5 555.914 4
-7 -8 5 306.094 235.933 1
5 8 -7 342.627 289.725 2
8 -7 5 649.898 472.337 2
-5 7 -8 173.411 177.96 2
-5 -8 -7 555.286 308.517 3
5 -8 7 -1.58008 237.231 2
-7 8 -5 -20.0252 104.45 1
-5 -7 8 196.784 230.921 2
8 5 7 666.308 350.328 4
-8 -5 7 59.6084 141.584 2
-8 -5 7 151.042 181.564 4
8 7 -5 249.982 324.458 4
-5 8 7 221.97 141.62 3
-8 5 -7 374.253 225.922 2
7 -8 -5 74.7974 131.255 1
-7 -5 -8 -264.63 344.001 4
8 7 -5 92.3354 161.146 2
-7 -8 5 242.779 150.856 2
8 7 -5 256.007 280.806 1
-5 7 -8 179.124 219.675 1
8 5 7 902.538 495.218 3
-8 7 3 598.445 280.59 1
8 -7 3 615.011 272.659 1
8 3 7 696.389 335.192 4
-7 -8 3 336.898 271.096 2
-7 8 -3 660.773 302.949 1
-3 7 -8 617.713 316.553 2
-8 7 3 533.474 240.971 2
7 3 -8 704.392 249.903 4
-8 -3 7 781.534 290.966 2
-8 3 -7 573.39 299.973 2
-3 -7 8 292.552 152.03 2
-3 7 -8 519.066 358.451 1
7 -8 -3 424.617 264.433 1
8 -7 3 1034.81 491.815 2
7 8 3 475.671 280.886 1
8 7 -3 537.893 256.859 4
3 7 8 1482.53 539.93 4
-8 -3 7 544.3 317.446 4
-8 -7 -3 480.934 303.849 3
7 8 3 444.861 285.457 2
7 -3 8 598.37 310.198 2
7 -3 8 400.368 238.394 1
8 7 -3 588.816 296.086 2
-8 3 -7 358.958 141.419 1
8 7 -3 403.404 251.282 1
-3 -8 -7 609.66 345.992 3
-7 -3 -8 614.323 350.141 4
7 3 -8 333.246 222.07 1
3 8 -7 481.045 258.858 2
-8 -7 -3 631.886 412.289 4
3 -8 7 785.234 443.502 2
-7 8 -3 416.577 327.284 2
3 -8 7 298.613 196.851 1
7 8 3 -218.55 311.421 3
3 8 -7 972.315 387.512 1
-3 8 7 900.218 255.406 3
-8 -3 7 223.517 174.77 1
7 8 3 507.193 297.606 4
-3 -7 8 470.925 270.365 1
-8 -7 -3 419.469 302.758 1
3 7 8 162.696 236.967 3
8 3 7 953.676 457.213 3
-7 -8 3 720.392 320.392 1
7 -1 8 15962.1 1418.9 2
-7 8 -1 17053 1298.4 1
7 8 1 14435.6 1391 2
8 7 -1 13768.9 1237.7 2
-7 -1 -8 14394.5 1429.23 4
-8 1 -7 15547.4 1249.55 1
7 8 1 10589 1388.55 4
-8 -1 7 10795.6 1138.37 4
-1 -7 8 15080.4 1584.74 2
-1 8 7 12542.4 1030.58 3
-7 -8 1 15965.6 1416.07 1
-1 7 -8 16388.8 1447.98 1
1 8 -7 16716.4 1650.91 2
-8 7 1 14685.4 1550.08 2
7 1 -8 16825.3 1251.49 1
-8 -1 7 16764 1253.53 1
-1 7 -8 16239.1 1582.13 2
8 -7 1 14915.6 1138.57 1
8 7 -1 16249.2 1274.99 1
-7 -8 1 15098.5 1492.98 2
-8 -7 -1 14489.3 1434.26 3
1 -8 7 14761.4 1655.54 2
-8 -7 -1 15764.7 1336.44 1
8 -7 1 15781.5 1707 2
7 8 1 15080.9 1330.71 1
1 7 8 13502.1 1222.65 3
8 7 -1 11145.6 1472.51 4
8 -1 -7 16131 1104.48 1
1 8 -7 17090.9 1470.4 1
1 -8 7 17153.4 1544.63 1
-8 7 1 16771.6 1191.23 1
7 -8 -1 12989.8 1601.07 2
-8 -7 -1 13468.6 1379.86 4
-1 -7 8 16032.4 1513.04 1
7 -8 -1 15487.7 1217.47 1
-7 8 -1 14594.9 1616.94 2
-8 7 -1 14425.9 1507.73 2
-7 8 1 17278.5 1308.29 1
-8 -7 1 12579.1 1286.3 4
-7 8 1 13329.7 1575.28 2
-8 -7 1 16863.2 1439.37 2
8 -1 7 14871.3 1281.37 2
-8 -7 1 15775.6 1556.63 3
7 8 -1 12080.7 1513.02 4
-8 -1 -7 12430.4 1369.05 4
-8 7 -1 17037.7 1213.71 1
1 -7 8 17989.2 1613.83 1
7 8 -1 15858.7 1355.59 1
-1 7 8 11713.6 1020.28 3
7 -1 -8 15823.3 1167.4 1
-7 -8 -1 15875.4 1434.77 1
8 -7 -1 14153 1084.1 1
-1 -8 7 16282.4 1683.93 2
-8 -7 1 16128.3 1346.02 1
-1 8 -7 15214.6 1587.14 2
1 7 -8 16842.4 1588.79 2
-1 -8 7 16488.3 1531.45 1
-7 1 -8 15878.8 1335.13 1
7 -8 1 15331.9 1247.43 1
1 -7 8 15741.2 1619.03 2
7 8 -1 14765.2 1410.22 2
1 7 -8 16989.3 1462.6 1
-1 8 -7 17375 1477.16 1
1 8 7 12616.8 1145.96 3
8 7 1 11546.5 1492.88 4
8 7 1 13650.9 1266.61 2
8 -7 -1 14520.8 1627.52 2
-7 -1 8 10330.1 1005.72 4
8 7 1 15270.2 1278.37 1
7 -8 1 15319.8 1745.23 2
8 1 -7 15908.8 1135.35 1
-7 -8 -1 14191.1 1407.98 3
8 3 -7 899.519 325.077 1
8 -7 -3 496.019 198.295 1
8 7 3 43.6626 258.303 4
-3 8 -7 824.59 451.874 2
-7 -3 8 218.696 113.04 2
-7 8 3 590.047 374.474 2
7 -8 3 617.229 305.41 1
7 8 -3 901.336 515.446 4
-7 -3 8 167.013 181.966 1
7 8 -3 335.268 274.946 2
-7 8 3 605.22 245.638 1
3 7 -8 675.507 347.475 2
3 -7 8 603.864 376.176 2
-3 -8 7 403.513 301.342 1
3 8 7 819.18 528.493 4
-8 7 -3 205.16 183.175 1
3 -7 8 816.746 366.872 1
-7 -3 8 571.989 275.943 4
8 -3 7 338.15 254.838 1
-7 -8 -3 935.408 416.14 3
7 3 8 1607.63 532.1 4
-8 7 -3 142.406 237.525 2
8 3 -7 603.663 248.868 4
-3 -8 7 307.794 299.381 2
-8 -7 3 270.397 160.179 1
8 -3 7 535.876 297.456 2
8 7 3 1100.23 408.797 3
3 8 7 351.108 247.529 3
3 7 -8 584.961 283.319 1
-8 -7 3 676.673 338.087 2
-3 8 -7 687.85 342.213 1
3 -8 -7 660.461 290.127 1
7 8 -3 591.475 329.485 1
7 3 8 785.91 411.395 3
-7 3 -8 468.863 227.115 1
-8 -7 3 1136.52 409.508 4
-7 -8 -3 302.747 229.677 1
7 -8 3 462.068 363.823 2
-8 -3 -7 674.443 440.5 4
-7 5 -8 82.679 124.155 1
-7 -8 -5 557.997 302.546 3
5 8 7 602.764 208.768 3
-7 -8 -5 229.416 262.124 1
8 -5 7 625.595 352.547 2
-5 -8 7 142.652 187.219 1
5 7 -8 90.3297 139.976 1
5 -7 8 -219.074 240.706 1
-5 8 -7 442.564 335.559 2
-8 7 -5 311.331 217.872 1
8 -7 -5 275.73 172.856 1
5 7 -8 388.696 251.369 2
-5 -8 7 440.379 336.921 2
8 5 -7 257.475 206.444 1
-5 8 -7 454.025 300.076 1
8 -5 7 519.005 305.699 1
-8 -7 5 195.667 229.402 1
7 -8 5 409.809 414.714 2
7 8 -5 -95.1803 275.39 4
-8 7 -5 245.102 274.885 2
5 8 7 452.465 411.865 4
-7 8 5 77.3895 234.813 2
7 5 8 271.287 323.989 4
-7 -5 8 490.456 289.429 1
5 -8 -7 189.807 226.133 1
-7 -8 -5 646.963 374.945 4
7 8 -5 167.353 153.185 1
-7 -5 8 216.257 245.676 2
-8 -5 -7 1050.6 473.984 4
8 5 -7 920.363 414.104 4
7 5 8 198.475 261.168 3
7 -8 5 545.933 302.068 1
5 -7 8 387.281 323.146 2
8 7 5 569.736 382.634 3
-8 -7 5 24.0545 236.565 2
7 8 -5 58.9497 149.483 2
8 7 5 606.815 453.538 4
-7 5 -8 320.736 328.258 2
-7 -8 -7 2080.25 560.729 3
-7 -7 8 2915.1 663.018 2
-7 8 -7 3359.47 819.806 2
7 7 8 1781.35 505.879 4
7 -8 7 3513.55 849.503 2
7 8 -7 3212.42 718.022 4
8 7 -7 2374.92 646.178 4
8 7 -7 4191.05 779.301 1
-7 7 -8 3581.8 807.108 2
-7 -7 -8 2596.75 617.107 4
-7 -7 8 3834.69 774.292 1
7 7 -8 4303.04 776.084 2
8 -7 7 3405.36 765.884 2
7 -7 8 3796.61 760.32 1
-8 -7 7 2859.29 640.435 2
8 7 -7 3842.97 693.742 2
7 -7 8 3927.2 864.369 2
7 8 -7 3922.26 736.807 1
8 -7 7 2945.4 669.431 1
8 7 7 3235.56 886.582 4
-7 7 -8 3665.02 707.613 1
-7 -8 7 3351.43 734.012 1
7 -8 -7 3396.32 655.86 1
-7 -8 -7 3542.61 703.13 1
7 7 -8 1355.21 379.757 4
-8 7 -7 3947.63 709.955 1
7 8 -7 3972.27 765.788 2
7 8 7 2929.59 881.026 4
7 -8 7 3642.81 739.02 1
8 -7 -7 3264.27 579.832 1
-8 -7 7 3546.03 734.224 1
8 7 7 3842.94 863.406 3
-8 -7 -7 2688.04 628.826 3
-7 -8 -7 2276.35 622.618 4
-8 7 -7 3414.31 760.791 2
7 7 8 3370.35 836.126 3
-7 8 -7 4005.18 770.376 1
-8 -7 -7 3470.31 758.017 4
7 7 -8 4599.28 804.025 1
-7 -8 7 3672.24 819.501 2
7 8 7 3496.21 815.112 3
0 -8 8 23489 1897.59 1
8 -8 0 21379 1436.95 1
0 8 -8 23448.4 1788.65 1
8 -8 0 20877.1 2054.15 2
-8 0 -8 21066.1 1539.71 1
8 0 8 20697.4 1605.55 2
8 8 0 20579.4 1571.46 1
-8 -8 0 15707.9 1470.65 4
8 8 0 10771 1482.36 4
0 8 -8 20850.5 1865.28 2
-8 0 -8 16748.6 1657.9 4
-8 8 0 20765.9 1930.15 2
-8 8 0 24240.7 1558.87 1
-8 -8 0 20890.2 1883.86 3
8 0 -8 21355.2 1360.57 1
-8 -8 0 20760.9 1757.81 2
0 8 8 20247.9 1469.12 3
-8 -8 0 21020.8 1689.52 1
8 8 0 18662.4 1582.04 2
0 -8 8 20288.6 1927.47 2
-8 8 2 15374 1717.99 2
8 8 2 13724.3 1403.84 2
-8 -2 8 10597.6 1112.05 4
8 8 -2 10892.3 1448.51 4
8 -8 -2 15969 1805.94 2
2 -8 8 17758.3 1640.57 1
8 8 -2 18098 1448.17 1
2 8 -8 16901.2 1644.87 2
-8 8 -2 17910.2 1365.58 1
-2 8 -8 19076.1 1606.25 1
2 -8 8 17747.7 1863.47 2
8 -8 -2 18141.9 1325.67 1
-2 -8 8 17392.4 1646.56 1
-8 -2 -8 15226.3 1576.33 4
-2 -8 8 16892.7 1766.93 2
-2 8 8 14615.4 1111.11 3
-8 8 2 19722.2 1412.64 1
8 8 2 17973.5 1474.43 1
8 8 -2 17036.2 1514.37 2
-2 8 -8 18460 1804.35 2
8 -8 2 16154.9 1851.67 2
-8 -8 -2 15081.3 1514.1 3
-8 -8 -2 13324.7 1399.74 4
-8 8 -2 16109.3 1706.69 2
8 -8 2 16850.1 1334.89 1
8 -2 8 15634.5 1410.57 2
2 8 8 15153.1 1405.87 3
-8 -8 2 17062.2 1613.4 2
2 8 -8 19075.4 1613.82 1
8 8 2 12376.7 1648.47 4
8 2 8 14993.5 1564.77 3
-8 2 -8 17736.2 1441.56 1
-8 -2 8 19446.2 1474.62 1
8 8 2 13717.3 1417.45 3
-8 -8 -2 16888.4 1488.59 1
8 2 -8 17301.8 1312.94 1
-8 -8 2 17232.6 1480 1
-8 -8 -4 -159.574 192.46 3
-8 -8 4 243.725 214.739 2
8 -4 8 -134.583 211.241 2
-8 -8 4 -13.2802 132.601 1
-8 4 -8 141.637 137.071 1
-8 8 4 40.4428 270.274 2
4 8 8 803.408 474.29 4
-8 8 -4 20.7986 175.778 1
8 -8 4 -13.058 182.681 2
4 8 8 754.533 447.241 3
-4 8 8 325.089 170.945 3
8 4 8 268.933 441.203 4
-8 8 -4 243.089 146.014 2
4 -8 8 274.807 266.103 1
-8 -8 -4 -161.521 223.376 1
-8 -4 8 225.175 180.227 4
4 -8 8 -36.686 239.939 2
-4 -8 8 147.76 178.649 2
-4 -8 8 81.5117 134.386 1
8 8 -4 235.826 388.262 4
4 8 -8 504.869 339.217 2
8 -4 8 404.698 281.074 1
-4 8 -8 11.1579 132.253 1
8 8 -4 79.1795 122.979 2
-8 -4 8 99.7434 221.647 1
8 4 -8 -66.8336 123.775 1
-8 -4 8 290.821 246.95 2
-8 -8 -4 -325.233 339.141 4
-8 -4 -8 543.996 427.796 4
8 4 -8 518.887 222.043 4
4 8 -8 59.6179 161.046 1
8 -8 -4 97.7592 128.717 1
8 8 4 138.891 373.174 3
8 4 8 -160.991 486.665 3
8 8 -4 -6.44985 140.506 1
-4 8 -8 -189.679 286.313 2
8 8 4 -23.7666 423.886 4
8 -8 4 45.4305 134.504 1
-8 4 -8 -107.097 180.889 2
6 8 -8 355.569 293.957 2
-8 -8 6 41.2708 165.154 2
8 -8 -6 181.908 126.624 1
-8 8 -6 135.335 163.284 1
8 -8 6 122.618 142.562 1
-8 8 -6 191.11 148.441 2
6 8 -8 -72.1258 202.08 1
6 8 -8 203.417 281.041 4
-6 -8 -8 66.8406 215.36 3
-8 6 -8 166.217 272.062 2
8 8 6 -682.23 605.792 4
-6 8 -8 14.9658 180.329 2
6 -8 8 -219.18 161.237 2
8 -6 8 216.469 152.026 1
8 6 -8 497.832 208.58 4
8 -6 8 535.319 416.701 2
-6 8 8 55.917 74.8424 3
8 6 8 628.787 271.894 4
-6 -8 8 11.6299 129.149 1
-8 6 -8 -15.1515 102.134 1
-6 8 -8 130.489 174.665 1
-8 -8 6 -25.369 201.471 1
-6 -8 8 204.892 307.472 2
-8 -8 -6 -43.4939 156.5 1
6 8 8 288.663 278.141 4
-8 -6 -8 970.962 424.748 4
8 8 -6 577.417 302.328 4
8 6 -8 288.249 226.626 1
6 8 8 283.776 279.93 3
6 -8 8 -99.0822 188.296 1
-8 -8 -6 -244.01 252.927 3
-8 -8 -6 -105.671 328.271 4
8 -8 6 214.817 342.521 2
8 6 -8 -67.5838 204.072 2
8 8 6 -402.336 313.475 3
-8 -6 8 40.9724 151.545 1
8 8 -6 82.1057 112.466 1
8 6 8 137.006 232.618 3
-8 -6 8 -167.726 118.84 2
8 8 -6 -15.2492 123.791 2
8 -8 8 23588.7 1953.78 1
-8 -8 8 19690.1 1810.72 1
8 8 -8 15487.1 1730.02 4
-8 -8 8 21334.9 1973.7 2
-8 8 -8 22099.3 2065.26 2
8 8 8 19311.7 1970.41 3
8 -8 -8 19947 1546.84 1
8 8 -8 22165.3 1828.28 2
8 8 -8 22141.7 1823.93 1
-8 8 -8 20733.8 1784.42 1
-8 -8 -8 16978.7 1670.2 4
0 1 -9 68.0512 137.385 1
1 0 -9 27.6445 168.561 1
-1 9 0 -9.57387 298.377 2
0 -9 -1 531.381 341.914 2
0 -9 -1 116.242 231.17 1
0 9 1 121.48 204.462 1
9 -1 0 402.375 137.585 2
0 9 1 369.24 351.398 2
-9 0 1 405.404 228.519 3
-1 0 -9 389.698 251.329 1
9 0 -1 575.685 305.366 3
1 -9 0 -196.446 305.865 2
-1 -9 0 240.853 175.006 1
-9 -1 0 329.141 247.639 3
-9 1 0 162.797 161.305 3
-1 9 0 377.946 262.603 1
-1 -9 0 417.465 343.671 2
-9 1 0 -184.197 108.607 2
0 9 -1 -68.8753 169.266 1
1 -9 0 41.4002 185.171 1
-1 0 -9 178.318 134.997 4
9 0 1 535.973 249.068 3
-9 0 -1 219.862 209.079 3
1 9 0 250.703 209.417 1
-9 -1 0 199.648 309.511 4
9 1 0 125.455 165.946 3
0 -9 1 211.711 245.446 1
0 9 -1 92.3436 206.889 2
0 -9 1 616.222 458.635 2
1 9 0 80.7994 178.115 2
9 -1 0 472.376 236.546 3
-1 -2 9 4728.48 749.317 1
-1 9 2 2637.66 839.463 2
-1 9 2 4588.02 752.404 1
-9 2 1 4309.05 553.977 3
-1 -2 9 4288.83 738.836 2
1 9 -2 4550.98 741.527 1
-9 -1 2 5634.88 936.445 4
1 2 9 5903.62 644.363 4
-2 -9 1 3545.1 649.639 1
1 -9 2 3923.01 670.681 1
1 9 -2 3144.71 767.323 2
-9 -1 2 5465.57 749.457 3
-2 -1 -9 4057.14 522.701 4
-9 -2 -1 3527.31 398.966 1
-1 -9 -2 4018.06 709.765 1
9 1 2 4847.67 744.895 3
-1 2 -9 4419.38 702.551 1
-2 9 -1 4187.5 704.143 1
-9 1 -2 3618.82 421.736 2
2 9 1 3275.17 629.768 1
9 -2 1 4233.3 577.879 2
2 -9 -1 3682.98 675.659 1
-9 -2 -1 5268.62 898.309 4
9 1 2 3176.46 333.961 2
-9 1 -2 3423.22 359.951 1
-9 2 1 4025.4 512.955 2
9 2 -1 4767.9 677.727 3
9 2 -1 3121.6 327.339 1
2 1 -9 3607.52 609.469 1
1 -9 2 4470.7 949.897 2
-1 -9 -2 4248.67 621.157 3
2 9 1 3862.67 810.218 2
-2 -9 1 5161.3 980.165 2
-9 -2 -1 4871.25 746.667 3
-2 9 -1 3240.83 868.387 2
9 -2 1 5631.71 729.596 3
2 -9 -1 3509.91 907.194 2
9 2 1 4538.6 711.811 3
1 -9 -2 3759.01 950.473 2
-1 2 9 3144.29 374.426 4
2 9 -1 4420.88 746.688 1
-1 -9 2 4355.97 914.17 2
-1 9 -2 4227.03 699.878 1
-9 -2 1 4915.2 753.901 3
9 -1 2 3687.58 474.253 2
1 2 -9 3931.05 659.336 1
-9 -2 1 3157.54 350.128 1
1 9 2 4024.03 704.314 1
1 -2 9 4395.53 736.792 1
2 -9 1 4075.66 683.429 1
1 -9 -2 3790.68 674.994 1
-9 2 -1 3571.84 473.33 2
-1 -9 2 2845.3 599.344 1
-9 1 2 4613.14 597.737 3
-2 -9 -1 3110.38 787.971 2
2 9 -1 3847.41 838.877 2
1 -2 9 5040.13 816.655 2
-2 1 -9 4117.32 684.146 1
-9 1 2 3703.69 449.488 2
9 -1 2 3872.32 642.903 3
9 -2 -1 5024.72 597.168 3
-2 9 1 4549.2 717.286 1
-9 -1 -2 4048.5 641.254 3
1 9 2 3625.16 816.601 2
-2 -9 -1 4009.66 702.981 1
-1 9 -2 3450.44 834.583 2
-2 9 1 3866.64 864.937 2
-9 -1 -2 6548.87 1023.19 4
2 -9 1 5415.29 1109.65 2
-9 -2 1 4849.42 918.426 4
-2 9 3 1653.84 668.013 2
-3 -9 2 2286.5 571.82 1
9 3 -2 2293.15 345.271 1
3 9 2 1376.28 507.501 2
-9 -3 -2 2255.42 622.971 4
-9 -3 -2 1995.36 372.359 1
2 -9 3 2414.58 552.509 1
3 -2 9 2111.27 537.052 2
2 9 -3 3174.26 634.24 1
-2 9 3 2711.75 559.976 1
-9 -2 3 2624.28 568.685 3
2 3 9 2642.85 449.194 4
-2 -3 9 2269.75 547.687 2
2 9 -3 2146.18 618.114 2
-9 -3 -2 2323.91 477.621 3
-3 9 -2 2425.97 679.683 2
9 2 3 1880.31 485.482 3
9 3 -2 725.082 428.916 4
3 -9 -2 2026.19 706.049 2
2 -9 3 2389.89 678.228 2
-9 3 2 2105.15 444.248 2
9 -3 2 2653.63 519.824 2
-9 -2 3 2994 668.957 4
3 -9 -2 2526.98 550.896 1
-9 2 -3 2351.66 423.743 2
-9 2 -3 2041.07 332.365 1
-9 -2 3 2297.6 335.67 1
9 -3 2 2493.24 329.33 1
-2 -9 -3 2138.94 473.44 3
-3 9 -2 2269.71 497.781 1
-3 -9 2 2080.88 649.169 2
9 -3 2 2010.01 407.653 3
3 -2 9 2997.29 602.732 1
3 2 -9 2434.16 554.009 1
-3 -2 -9 1628.77 353.616 4
-9 3 2 1946.86 350.986 3
-2 3 -9 2812.22 572.577 1
3 9 2 2402.26 559.185 1
-2 -9 -3 2137.07 532.036 1
-2 -3 9 2514.05 545.994 1
-9 0 3 4465.92 629.682 3
-3 0 -9 3047.68 508.345 4
9 -3 0 3956.04 554.773 3
0 9 3 2452.11 748.556 2
-3 -9 0 3997.94 732.001 1
3 0 -9 4819.4 735.42 1
3 9 0 4721.34 798.788 1
-3 -9 0 3368.48 841.31 2
0 -9 3 4462.37 779.6 1
0 9 -3 5153.59 775 1
-9 3 0 3738.69 561.701 2
3 9 0 3453.91 792.391 2
9 0 3 3226.93 620.762 3
9 0 3 3850.57 460.817 2
3 -9 0 4724.38 1042 2
-9 -3 0 2770.33 707.505 4
0 -9 -3 4517.9 758.714 1
0 -9 3 4072.23 858.208 2
0 -3 9 4659.91 812.766 2
9 -3 0 4470.77 634.049 2
-9 -3 0 3733.41 655.832 3
-3 0 -9 5030.59 773.236 1
9 3 0 2155.52 499.307 4
0 3 9 4152.65 516.787 4
0 9 3 4608.34 791.873 1
3 -9 0 4364.7 715.16 1
0 9 -3 3118.16 772.284 2
-3 9 0 3347.27 781.908 2
0 -9 -3 4069.89 550.849 3
0 3 -9 5660.92 824.571 1
9 3 0 3368.88 603.937 3
-3 9 0 4940.78 778.139 1
-9 -3 0 3727.96 446.877 1
0 -3 9 4612.05 764.547 1
9 3 0 3840.73 435.454 1
-9 3 -2 2375.39 447.375 2
9 3 2 2647.25 574.5 3
9 -3 -2 2454.04 381.813 3
2 9 3 2482.45 564.895 1
-9 -3 2 1826.72 491.155 3
-2 -9 3 2144.64 654.873 2
2 -3 9 2967.85 619.371 2
-9 3 -2 2180.46 323.898 1
-9 2 3 2247.08 382.775 3
3 -9 2 1655.19 707.719 2
-9 -3 2 1237.96 446.386 4
3 -9 2 2666.84 545.452 1
3 2 9 649.055 255.338 4
-9 -2 -3 2518.33 511.901 3
9 2 -3 2372.12 327.844 1
2 9 3 1888.98 585.44 2
2 -9 -3 2529.17 553.489 1
-2 9 -3 2497.24 551.298 1
-3 -9 -2 2487.7 557.14 1
-3 -2 9 2470.55 578.808 1
-2 -3 -9 2216.71 413.399 4
-3 2 -9 2599.77 549.826 1
-2 9 -3 1397.23 611.291 2
2 -3 9 2733.25 587.336 1
9 -2 3 2349.93 443.914 2
-9 -3 2 2272.53 344.718 1
2 3 -9 2850.81 596.528 1
-2 -9 3 2484.7 544.293 1
2 -9 -3 1930.5 337.186 3
-3 -9 -2 2035.41 474.336 3
-3 9 2 2662.62 550.006 1
9 3 2 1365.37 538.905 4
-3 9 2 1814.79 654.262 2
9 -2 3 1295.21 371.554 3
3 9 -2 2923.88 709.096 2
3 9 -2 2156.72 512.46 1
-9 -2 -3 2738.26 719.792 4
-9 -3 4 194.998 282.207 4
-9 -4 -3 624.094 331.073 3
4 -3 9 311.651 248.28 1
-4 9 -3 395.436 223.856 1
-4 -3 -9 612.977 240.691 4
-9 -4 -3 377.099 359.809 4
-4 9 -3 78.4243 171.009 2
-9 4 3 655.442 195.647 3
-3 -9 -4 411.559 283.144 1
-3 4 -9 596.127 304.666 1
3 -9 4 663.087 284.161 1
9 4 -3 493.455 175.155 1
4 -9 -3 404.866 261.773 1
-4 -9 3 498.545 377.46 2
9 -4 3 406.704 159.199 1
3 -9 4 172.398 219.044 2
4 3 -9 88.0917 117.918 1
9 4 -3 479.4 161.027 2
-9 4 3 278.636 244.898 2
-9 -4 -3 251.56 156.726 1
9 -4 3 177.945 176.024 2
-3 -4 9 332.49 216.626 1
9 3 4 196.035 369.85 4
4 -3 9 544.527 327.517 2
-3 9 4 571.824 312.298 1
-9 3 -4 382.067 165.672 1
3 9 -4 410.93 295.001 1
3 9 -4 302.799 257.611 2
-3 9 4 92.8017 195.602 2
-3 -4 9 894.142 392.375 2
-3 4 -9 369.622 265.21 2
4 3 -9 191.582 112.024 4
4 9 3 423.713 303.209 2
4 9 3 212.113 183.11 1
-9 3 -4 354.575 198.992 2
9 4 -3 586.408 293.67 4
-4 -9 3 396.889 301.936 1
3 4 9 -35.185 272.833 4
-9 -3 4 217.597 77.8058 2
-9 -3 4 416.706 218.307 1
9 3 4 570.43 288.896 3
-3 -9 -4 295.008 212.707 3
1 9 -4 3534.86 634.243 1
1 -9 4 2559.38 701.166 2
-4 -9 1 3588.78 691.291 1
4 1 -9 3602.12 638.143 1
-4 9 -1 3871.76 688.495 1
1 4 9 2066.46 466.069 4
-1 4 -9 3613.29 669.041 2
-4 9 -1 2614.93 714.867 2
4 9 1 2007.18 620.211 2
-1 -9 -4 3229.2 657.327 1
-9 4 1 3085.54 591.424 2
-9 -1 4 3384.32 404.317 1
9 4 -1 2687.31 347.027 2
9 -4 1 3618.64 678.613 2
-9 4 1 3229.1 366.21 1
4 9 1 3155.2 652.336 1
4 -9 -1 2452 757.602 2
-1 -4 9 3330.75 702.689 2
-1 9 4 3609.5 697.829 1
-9 -1 4 2798.33 694.849 4
4 -9 -1 3344.52 617.866 1
9 -1 -4 3123.96 343.176 1
1 9 -4 2980.19 740.355 2
-9 -4 -1 2881.85 471.128 1
9 1 4 2471.48 392.253 2
9 -4 1 3112 381.245 1
-1 -4 9 4047.55 724.112 1
9 1 4 2858.53 647.739 3
9 -4 1 2833.89 509.771 3
-1 -9 -4 2644.94 504.377 3
9 4 -1 1071 463.412 4
-9 1 -4 3233.57 458.165 1
-4 -1 -9 2626.78 524.172 4
-4 -9 1 2674.83 726.297 2
-1 4 -9 4128.88 710.854 1
-9 -4 -1 2412.18 540.197 3
-9 -4 -1 1545.72 497.695 4
9 4 -1 3350.03 463.005 1
1 -9 4 3515.79 671.743 1
-1 9 4 2327.45 866.45 2
-9 -4 1 2702.32 739.094 4
9 -4 -1 3002.53 583.408 2
9 4 1 2749.5 590.705 3
4 9 -1 2742.67 689.714 2
-4 -9 -1 3443.37 685.617 3
-9 4 -1 3234.65 598.973 2
4 -9 1 2599.96 730.01 2
-4 -9 -1 2546.18 729.609 2
1 9 4 3504.36 729.943 1
9 -4 -1 2976.41 425.478 3
-1 9 -4 2916.68 743.562 2
-4 9 1 3563.64 633.218 1
9 4 1 2358.96 371.956 2
-9 -4 1 2677.17 598.713 3
4 -9 1 3434.62 625.041 1
9 -4 -1 2832.76 336.491 1
-4 1 -9 3047.55 619.196 1
-9 -1 -4 1914.48 551.758 4
-1 -9 4 3161.21 654.342 1
-4 -9 -1 2603.09 588.59 1
9 4 1 2122.95 665.813 4
9 -1 4 2901.96 648.023 3
-9 -4 1 3029.83 473.136 1
-1 9 -4 3124.58 602.246 1
-9 4 -1 3521.69 411.703 1
4 9 -1 3416.75 660.238 1
1 -4 9 3363.2 692.011 2
1 -9 -4 3357.68 658.161 1
-1 -9 4 3219.78 777.549 2
-9 1 4 3357.9 517.697 3
4 -1 -9 2925.62 560.325 1
1 4 -9 3570.69 666.246 1
1 9 4 1867.55 725.476 2
1 9 4 3179.3 555.593 3
9 -1 4 3481.42 529.736 2
1 -9 -4 3108.27 482.069 3
1 -4 9 3307.33 663.642 1
-4 9 1 2498.31 767.636 2
9 1 -4 3311.14 400.211 1
-3 -9 4 418.67 300.384 2
3 9 4 -16.8003 137.636 1
9 3 -4 564.759 235.232 1
3 -9 -4 341.312 234.466 1
-4 9 3 286.992 162.378 1
-4 -9 -3 311.319 169.886 1
4 3 9 254.655 232.687 4
-4 -9 -3 48.0718 214.116 3
-9 -4 3 225.077 154.8 2
-9 -3 -4 -95.0485 229.358 3
4 -9 3 280.25 241.25 1
3 4 -9 433.858 226.882 1
-9 4 -3 159.278 103.601 1
9 4 3 378.004 233.746 4
9 -3 4 261.044 137.456 2
-4 -3 9 283.827 228.443 1
9 3 -4 998.317 437.512 4
9 -3 4 414.168 177.067 1
4 -9 3 176.883 195.524 2
-9 -4 3 521.3 262.425 4
-3 -4 -9 361.074 163.319 4
4 9 -3 144.984 207.917 1
-3 9 -4 605.218 330.504 1
9 4 3 251.74 226.284 3
-4 3 -9 385.669 265.88 1
4 9 -3 191.18 194.074 2
3 -4 9 361.755 221.499 2
-9 -3 -4 192.058 298.027 4
-3 9 -4 148.456 216.611 2
-4 -3 9 117.58 138.782 2
-9 3 4 575.379 197.463 3
3 9 4 -233.849 242.335 3
3 -4 9 759.499 356.524 1
-9 4 -3 249.827 128.659 2
-3 -9 4 195.534 154.837 1
9 -4 -3 374.064 126.427 1
3 -9 -4 614.232 187.725 3
-4 9 3 -111.178 207.424 2
-9 -4 3 620.486 235.873 1
-9 -4 5 41.6568 134.406 2
-5 -9 4 -58.8556 197.044 1
-9 4 -5 79.5718 128.944 1
5 -9 -4 344.095 242.194 1
5 9 4 278.909 271.744 4
-5 9 -4 193.683 229.605 2
-4 -9 -5 22.928 179.11 1
-9 -5 -4 98.9302 143.473 1
-4 -5 9 51.5775 153.291 1
4 5 9 279.654 257.691 4
9 -5 4 46.5031 204.996 2
-4 -5 9 -170.822 265.379 2
4 -9 5 209.961 141.486 1
-4 5 -9 278.393 176.394 2
5 -9 -4 256.79 100.654 3
-9 5 4 187.316 81.2368 3
9 4 5 613 274.792 4
-9 -4 5 216.409 144.533 1
-9 -4 5 22.7784 247.835 4
-4 5 -9 96.2355 147.932 1
4 9 -5 96.1717 250.232 2
4 9 -5 54.6119 204.537 1
4 -9 5 603.495 476.187 2
-5 -4 -9 202.511 223.224 4
9 4 5 543.926 345.784 3
9 5 -4 -83.6911 89.9198 2
5 -4 9 232.456 266.578 2
9 5 -4 -25.9177 109.711 1
-9 -5 -4 1337.04 511.412 4
-5 9 -4 101.437 181.196 1
5 9 4 -18.7678 152.541 1
5 9 4 419.384 237.133 3
4 5 9 222.229 288.175 3
-9 -5 -4 200.492 207.982 3
-9 4 -5 112.832 197.607 2
-5 -9 4 -182.55 197.826 2
5 4 -9 127.739 203.028 1
9 5 -4 654.884 237.925 4
-4 -9 -5 690.093 335.687 3
5 4 -9 -20.2139 179.2 4
5 -4 9 -56.8816 228.781 1
-9 5 4 53.7765 228.901 2
9 -5 4 270.779 192.735 1
-9 -5 -2 1339.66 473.144 3
-2 -9 -5 418.285 281.711 1
9 -5 2 115.877 266.551 2
-9 -5 -2 871.426 340.16 4
9 5 -2 650.473 219.223 2
9 5 -2 757.301 238.472 1
9 2 5 1332.25 426.328 3
9 5 -2 514.244 337.996 4
-5 -9 2 256.937 218.925 1
-5 -2 -9 368.261 214.183 4
5 9 2 409.004 321.534 4
2 9 -5 871.346 419.583 2
-2 -9 -5 847.781 321.023 3
-2 -5 9 170.703 142.494 1
-5 9 -2 451.941 397.765 2
2 -9 5 573.67 325.788 1
2 5 9 181.925 203.746 4
-2 -5 9 172.376 218.945 2
-5 9 -2 927.33 350.952 1
5 2 -9 557.156 272.774 1
-9 2 -5 586.139 258.356 2
-9 -2 5 624.758 233.149 2
5 -9 -2 719.753 310.844 1
2 9 -5 948.233 383.556 1
5 -9 -2 468.333 430.83 2
-9 5 2 692.522 186.64 1
5 9 2 326.602 234.119 1
2 -9 5 728.546 472.125 2
5 -2 9 846.017 351.85 2
-9 -5 -2 567.567 233.379 1
-9 2 -5 371.522 170.57 1
-2 5 -9 515.761 274.315 2
-9 -2 5 533.719 202.691 1
5 9 2 512.344 308.845 2
-9 -2 5 188.678 285.227 4
9 -5 2 895.898 249.083 1
-2 5 -9 611.071 324.655 1
-5 -9 2 904.758 444.331 2
-9 5 2 387.528 295.304 2
-9 -5 0 1747.05 474.787 3
9 -5 0 2197.77 422.802 3
0 9 5 995.366 282.757 3
5 0 -9 1323.06 389.42 1
0 -5 9 1429.57 438.715 1
-5 0 -9 1293.91 430.568 1
5 9 0 1044.01 378.069 1
-5 9 0 1271.94 407.007 1
9 -5 0 1514.58 467.531 2
9 5 0 1122.21 287.808 2
-5 0 -9 1568.6 437.076 4
-5 -9 0 1404.55 491.97 1
5 9 0 1707.97 585.365 2
-9 5 0 902.242 374.719 2
-9 5 0 1484.17 304.335 1
0 -9 -5 1370.26 428.211 1
0 -9 5 1415.63 442.787 1
0 -9 5 1903.39 575.357 2
5 -9 0 1158.44 551.566 2
0 -5 9 1169.11 410.122 2
-9 -5 0 1600.78 570.877 4
-5 0 9 1010.74 243.158 4
-5 9 0 1132.95 539.091 2
9 5 0 2308.57 668.596 4
0 9 -5 1401.56 556.668 2
5 -9 0 1337.05 389.551 1
9 0 5 1562.71 493.864 3
0 5 -9 1204.47 424.28 2
9 0 -5 1469.67 299.941 1
0 5 -9 1637.53 466.186 1
9 0 5 1161.09 298.649 2
9 -5 0 1288.52 266.837 1
-5 -9 0 775.352 458.159 2
-9 -5 0 1208.6 321.776 1
9 5 0 1090.73 322.944 1
0 -9 -5 972.004 288.281 3
0 9 -5 1525.24 465.852 1
9 5 2 1823.97 606.969 4
-2 9 -5 812.748 346.162 1
2 -5 9 646.514 323.143 1
-9 -5 2 438.679 228.112 1
-9 -5 2 563.021 354.676 3
9 -5 -2 873.214 206.055 3
-9 -5 2 829.998 371.716 4
-5 9 2 354.706 182.192 2
9 5 2 564.978 371.943 3
-9 -5 2 791.983 293.581 2
5 -9 2 658.259 482.574 2
-2 -9 5 468.765 297.122 1
9 -2 5 563.164 259.345 2
5 9 -2 238.536 171.921 2
-9 -2 -5 1321.75 419.369 4
-2 -9 5 608.836 379.966 2
9 -5 -2 369.023 164.41 1
5 9 -2 566.262 319.238 1
-9 5 -2 501.53 215.736 1
-9 5 -2 552.355 282.544 2
-5 -9 -2 132.583 209.975 3
-2 9 -5 680.539 410.108 2
-5 2 -9 593.526 300.915 1
-5 9 2 771.787 340.701 1
-5 -9 -2 216.476 236.097 1
9 2 -5 476.181 184.335 1
2 5 -9 1033.48 342.217 1
2 5 -9 223.752 218.554 2
2 9 5 934.809 344.132 3
2 -9 -5 925.935 255.683 3
5 -9 2 522.591 242.947 1
2 -5 9 689.083 355.167 2
-5 -2 9 719.567 337.694 1
2 -9 -5 848.037 367.99 1
9 5 4 433.548 366.929 3
-5 -9 -4 62.6063 185.591 1
-5 4 -9 569.085 281.779 1
9 -5 -4 379.402 185.796 1
-5 -9 -4 396.889 260.406 3
4 -9 -5 -37.1064 188.459 1
4 5 -9 60.486 164.008 2
-4 -9 5 -177.04 208.301 1
-9 -4 -5 62.7616 159.486 3
-9 -5 4 335.21 229.804 2
9 5 4 212.604 342.197 4
-9 4 5 125.384 137.371 3
-9 -5 4 -125.318 171.927 1
4 -9 -5 298.764 147.575 3
5 -9 4 366.377 379.495 2
9 4 -5 -596.299 303.353 4
-9 5 -4 125.964 123.853 1
4 -5 9 -60.8342 192.317 1
-4 9 -5 98.2306 162.761 2
-9 -4 -5 865.792 434.102 4
-9 -5 4 898.128 385.322 4
4 5 -9 91.5137 132.576 1
-4 -9 5 255.002 164.344 2
-5 -4 9 168.872 173.499 1
-5 9 4 226.804 235.248 1
5 -9 4 337.35 315.514 1
-9 5 -4 336.16 234.287 2
9 -4 5 401.505 215.54 1
5 9 -4 -215.807 213.929 2
5 4 9 957.368 388.32 4
9 -4 5 166.916 197.762 2
-5 -4 9 248.947 247.051 2
4 9 5 1086.41 533.954 4
-4 9 -5 212.332 189.739 1
-4 -5 -9 353.631 231.846 4
9 4 -5 -9.80389 137.829 1
4 -5 9 45.9019 277.728 2
5 9 -4 68.8963 117.939 1
4 9 5 -90.8774 253.695 3
-5 4 -9 95.6257 126.278 2
-5 9 4 279.798 406.233 2
5 9 -6 1285.79 492.943 2
-9 5 -6 1470.77 413.644 1
9 -6 5 1455.25 425.931 1
-9 5 -6 1471.76 464.273 2
6 9 5 1715.89 475.298 3
6 -9 -5 1484.72 421.308 1
6 5 -9 1931.57 512.609 1
-6 9 -5 1716.98 527.135 1
-9 -5 6 1881.62 455.567 1
-5 -6 9 2047.84 571.058 2
-5 -9 -6 747.086 329.594 1
9 6 -5 1523.76 565.365 4
-6 -9 5 1502.08 506.521 1
-9 -6 -5 995.768 382.951 4
6 -5 9 1059.51 396.859 2
6 5 -9 1254.61 345.189 4
-6 9 -5 1699.48 640.879 2
-5 -6 9 1490.28 496.168 1
-6 -9 5 1829.42 634.76 2
6 9 5 404.445 350.467 4
5 9 -6 1540.35 473.516 1
-9 -5 6 1562.13 438.464 2
5 -9 6 1521.73 577.998 2
-9 -6 -5 1173.05 389.96 1
9 6 -5 1542.07 382.669 2
5 6 9 719.882 416.93 4
9 6 -5 1717.68 425.701 1
9 5 6 2251.96 666.175 3
-6 -5 -9 1360.6 510.858 4
5 -9 6 1517.34 477.481 1
9 -6 5 1593.16 575.225 2
-9 -5 6 1393.23 488.317 4
5 6 9 1360.04 473.14 3
-9 -6 -5 1688.56 550.41 3
-5 6 -9 1763.43 506.578 2
-5 -9 -6 1082.34 389.679 3
-5 6 -9 1773.95 539.215 1
9 5 6 1075.76 520.095 4
6 -5 9 1321.44 499.686 1
3 6 9 2455.81 589.282 3
-3 -9 -6 3051.46 673.506 1
9 3 6 3171.65 720.419 3
9 6 -3 3650.28 620.518 1
-9 6 3 3224.49 746.667 2
-9 -6 -3 4641.95 860.341 4
3 -9 6 3487.56 731.99 1
-6 9 -3 3656.91 674.123 1
-9 3 -6 3333.52 614.892 2
-9 -6 -3 3294.75 584.412 1
9 6 -3 3210.03 544.58 2
9 6 -3 2115.55 654.202 4
-9 -3 6 3799.35 594.12 1
6 -3 9 3694.4 747.107 1
9 -6 3 2794.66 736.238 2
-3 9 6 2514.59 396.247 3
6 -3 9 3615.89 713.142 2
3 9 -6 3477.56 687.223 1
-3 -6 9 3673.01 755.769 1
3 -9 6 3746.1 878.3 2
-9 -3 6 3109.11 517.663 2
6 9 3 3334.49 708.887 1
6 9 3 3287.61 699.07 3
-9 3 -6 3760 618.162 1
6 9 3 1071.13 559.285 4
-6 -3 -9 3121.11 664.045 4
9 3 6 2346.55 701.528 4
-3 6 -9 3058.83 686.895 2
-6 -9 3 3101.63 673.222 1
3 9 -6 3095.11 713.923 2
3 6 9 2494.8 625.334 4
-3 -6 9 3259.37 735.217 2
6 -9 -3 3352.38 619.028 1
-9 -3 6 2714.17 664.418 4
6 3 -9 1594.57 343.832 4
-3 6 -9 3625.9 704.816 1
-6 -9 3 3586.85 813.912 2
-9 -6 -3 2850.08 576.6 3
6 3 -9 3747.72 693.607 1
6 9 3 2858.25 734.878 2
9 -6 3 3834.42 594.891 1
-3 -9 -6 2535.33 583.543 3
-6 9 -3 2847.31 774.205 2
9 -6 1 2561.03 433.811 1
-6 -1 -9 4440.13 764.629 4
6 -1 9 3290.2 693.908 2
-6 -9 1 3065.22 650.932 1
9 -6 1 2633.66 688.873 2
-1 6 -9 3491.86 680.75 1
6 1 -9 3059.28 581.723 1
-9 6 1 3204.82 469.18 1
-9 6 1 3063.22 716.211 2
1 9 -6 3121.5 642.734 1
1 -9 6 2854.74 642.559 1
6 9 1 3031.83 659.33 1
-6 9 -1 2349.52 528.453 1
-1 -9 -6 1697.75 428.474 3
9 -1 -6 2946.11 423.361 1
1 -9 6 3383.43 837.493 2
-9 1 -6 2906.67 515.743 1
9 1 6 2636.46 678.758 3
-9 -1 6 3357.23 508.089 1
-1 -6 9 3113.67 694.512 2
6 -9 -1 2437.18 508.938 1
-6 9 -1 2459.55 730.039 2
-1 6 -9 3202.34 678.452 2
6 9 1 3124.25 736.092 2
-9 -6 -1 3027.21 716.817 4
9 6 -1 2818.31 512.307 2
-6 -9 1 2522.57 770.008 2
-9 -6 -1 2533.53 543.466 1
-9 -6 -1 3326.55 722.4 3
-1 -9 -6 2500.86 595.378 1
1 9 -6 2991.2 709.944 2
6 -9 -1 2319.05 839.843 2
9 6 -1 3569.35 784.676 4
-1 9 6 2445.4 436.985 3
-1 -6 9 3047.95 690.533 1
-9 -1 6 1026.94 348.179 4
6 9 1 2314.7 694.146 4
9 6 -1 2558.74 525.206 1
-6 9 1 3003.77 597.632 1
-9 -6 1 3503.61 594.225 2
9 6 1 2939.04 531.454 2
-6 9 1 2278.77 723.163 2
6 9 -1 2533.63 657.841 2
6 -1 -9 2599.96 527.804 1
6 -9 1 2526.84 786.927 2
-6 -1 9 1172.53 294.614 4
9 -1 6 2723.36 543.73 2
-9 6 -1 2187.4 564.397 2
6 9 -1 1359.6 566.167 4
9 6 1 2335.21 494.37 1
1 6 -9 2932.06 617.041 1
-1 -9 6 3142.74 777.511 2
-1 9 -6 2586.1 734.613 2
1 6 -9 2971.54 628.092 2
-1 -9 6 2678.74 621.889 1
6 -9 1 2742.99 575.88 1
-9 -1 -6 2544.77 660.471 4
-6 1 -9 3001.45 603.756 1
1 -6 9 2425.72 667.771 2
9 -6 -1 2674.84 434.721 1
-9 -6 1 2316.68 470.252 1
9 -6 -1 2894.43 411.545 3
-6 -9 -1 2970.56 657.043 1
1 9 6 2232.78 474.951 3
9 1 -6 2907.64 455.43 1
-9 -6 1 3716.33 764.477 4
9 -6 -1 2660.43 688.529 2
9 6 1 2654.58 611.026 3
1 -9 -6 2952.96 626.537 1
1 -9 -6 1473.19 370.414 3
-9 6 -1 3124.75 481.37 1
9 6 1 2223.62 686.54 4
-9 -6 1 2924.62 634.201 3
6 9 -1 2288.62 577.047 1
1 -6 9 3100.57 683.207 1
-6 -9 -1 3481.83 704.325 3
-1 9 -6 2985.53 639.279 1
3 9 6 3012.72 616.749 3
3 6 -9 3663.32 725.183 2
-6 -3 9 4450.59 781.134 1
3 -9 -6 3463.38 650.234 1
-6 9 3 2155.8 768.691 2
-3 9 -6 2867.45 785.497 2
6 9 -3 3058.72 717.927 2
9 6 3 3158.82 750.561 4
9 -3 6 2745.83 593.076 2
-9 -6 3 3200.03 584.843 2
-6 3 -9 4224.05 739.55 1
-6 -9 -3 3181.54 683.199 3
-9 6 -3 3020.27 514.155 1
3 -6 9 3188.64 745.185 2
6 3 9 2858.4 678.367 4
-9 -6 3 3568.42 620.001 1
-3 -9 6 3177.5 777.045 2
-3 9 -6 3623.83 700.856 1
9 6 3 2051.31 547.87 3
6 -9 3 3482.81 691.714 1
6 9 -3 2664 666.164 4
9 3 -6 3478.82 543.563 1
-6 -9 -3 3305.36 710.897 1
-6 9 3 4211.42 753.302 1
6 -9 3 3422.28 867.195 2
3 -6 9 4515.06 818.893 1
9 -3 6 3348.46 586.739 1
3 6 -9 4039.9 728.709 1
6 9 -3 3261.88 688.709 1
-3 -9 6 3230.36 716.694 1
-6 -3 9 3782.05 730.181 2
9 -6 -3 2663.89 286.577 3
-9 -6 3 2524.82 648.759 4
-9 6 -3 2760.34 686.343 2
-9 -3 -6 3957.97 838.272 4
9 -6 -3 3811.93 507.975 1
9 5 -6 1591.21 533.805 4
9 6 5 1098.71 534.717 4
-6 -5 9 1337.14 471.524 1
9 -6 -5 1442.96 350.208 1
-5 -6 -9 1026.12 380.079 4
9 5 -6 1365.06 394.669 1
5 6 -9 1292.2 438.394 2
-5 9 -6 1982.04 542.655 1
5 -9 -6 1441.79 465.53 1
6 -9 5 1731.33 540.57 1
-9 6 -5 1500.07 416.903 1
5 -6 9 1491.87 497.486 1
-6 -9 -5 937.518 442.026 3
5 6 -9 1672.13 500.428 1
6 -9 5 1778.41 654.232 2
-5 -9 6 960.305 373.274 2
-9 -6 5 1454.72 481.831 4
-9 -6 5 1161.53 351.405 2
-5 -9 6 1575.22 485.142 1
-9 -5 -6 1836.33 552.908 3
-6 -5 9 1613.19 481.635 2
-6 9 5 897.991 463.239 2
-5 9 -6 1651.54 570.716 2
-9 -6 5 1448.2 412.277 1
6 9 -5 1361.64 495.605 2
5 -6 9 1478.73 530.372 2
5 9 6 1649.64 652.41 4
-6 5 -9 1618.07 482.014 1
6 9 -5 812.183 471.004 4
-9 6 -5 1689.79 486.921 2
5 6 -9 1090.45 380.137 4
-9 -5 -6 1259.76 512.705 4
6 5 9 865.021 446.095 3
-6 -9 -5 1691.31 495.866 1
9 -5 6 1112.73 421.473 2
9 5 -6 1654.64 385.209 2
9 -5 6 1419.59 388.483 1
6 9 -5 1494.2 466.564 1
5 9 6 1960.85 537.547 3
-6 5 -9 1255.02 458.39 2
9 6 5 1598.19 527.935 3
6 5 9 921.349 451.299 4
-7 9 -6 305.057 237.334 1
9 7 -6 -105.311 409.35 4
-7 -9 6 738.813 491.176 2
7 6 -9 245.059 202.912 4
7 9 6 570.97 385.435 3
-7 -6 -9 1137.71 492.797 4
6 7 9 607.82 366.51 4
-7 -9 6 135.126 133.835 1
-9 -6 7 82.8425 194.435 1
-9 -6 7 83.2506 139.673 2
-6 -7 9 -45.294 158.757 2
-6 7 -9 42.6554 167.694 2
9 7 -6 152.529 180.668 1
-9 -7 -6 284.77 391.275 4
-6 -7 9 262.846 264.529 1
7 -9 -6 233.599 221.049 1
7 6 -9 311.51 217.134 2
9 -7 6 682.667 443.713 2
7 6 -9 413.262 263.532 1
-6 -9 -7 471.566 346.535 1
6 9 -7 416.678 342.508 2
6 9 -7 819.897 490.594 4
6 -9 7 230.688 218.858 2
-6 -9 -7 664.408 337.776 3
-6 7 -9 338.096 262.598 1
9 6 7 -83.3504 406.383 4
9 7 -6 293.48 212.58 2
7 -6 9 36.2214 306.059 2
-9 6 -7 272.408 227.921 2
7 9 6 324.808 426.068 4
6 7 9 939.565 430.005 3
-9 -6 7 580.883 309.676 4
-9 -7 -6 220.47 270.014 1
6 9 -7 380.252 300.263 1
-7 9 -6 261.605 256.881 2
-9 6 -7 126.316 183.457 1
6 -9 7 24.9968 197.209 1
7 -6 9 55.9212 172.499 1
9 6 7 779.35 478.148 3
9 -7 6 16.8137 157.722 1
-4 -9 -7 389.699 266.186 1
-4 7 -9 828.124 393.985 2
-4 -7 9 633.685 323.07 2
7 -4 9 756.47 368.259 2
7 -9 -4 565.408 225.935 1
9 7 -4 1093.77 370.664 2
9 4 7 1218.35 521.668 3
-4 -7 9 495.51 293.388 1
-9 -4 7 583.536 267.748 1
-9 7 4 714.896 411.297 2
-7 -4 -9 2086.52 597.031 4
-9 -7 -4 470.611 272.314 1
9 7 -4 2254.46 747.26 4
-4 -9 -7 802.43 389.338 3
-7 9 -4 486.435 417.551 2
7 4 -9 1060.22 368.939 4
-9 -7 -4 1707.24 575.828 4
-9 -4 7 731.898 403.78 4
-9 4 -7 558.719 239.642 1
9 -7 4 842.369 466.225 2
7 9 4 1277.56 467.749 3
-7 -9 4 1284.91 517.019 2
4 -9 7 997.547 510.167 2
9 4 7 793.344 415.248 4
-4 7 -9 604.727 329.76 1
4 9 -7 849.909 414.341 2
7 4 -9 752.724 349.639 1
4 -9 7 790.819 402.809 1
-9 4 -7 729.576 333.914 2
7 9 4 279.52 291.534 4
4 7 9 880.655 485.81 4
4 9 -7 825.19 404.861 1
9 -7 4 975.242 360.019 1
7 -4 9 455.448 327.568 1
9 7 -4 653.43 320.932 1
4 7 9 998.882 412.759 3
-7 9 -4 453.414 209.552 1
-7 -9 4 505.274 293.119 1
-9 -4 7 613.732 255.925 2
-9 -7 -4 1495.86 519.307 3
-4 9 7 776.081 206.564 3
2 9 -7 4797.53 835.513 1
7 -9 -2 3588 649.55 1
-7 9 -2 3075.22 779.172 2
7 9 2 3817.2 766.358 1
2 -9 7 4122.22 786.333 1
-2 -9 -7 3195.91 628.087 3
-2 7 -9 3577.21 785.928 2
-7 9 -2 3822.15 662.502 1
7 2 -9 4125.38 674.398 1
-2 -9 -7 3396.71 731.286 1
-7 -9 2 4048.24 886.05 2
-9 7 2 3509.95 799.491 2
9 -2 -7 3467.66 495.614 1
-2 -7 9 3973.75 781.462 1
9 -7 2 3617.95 831.444 2
-9 -2 7 4267.13 633.937 1
9 7 -2 3209.92 797.588 4
7 -2 9 3883.09 771.65 2
-2 -7 9 3038.33 776.3 2
2 -9 7 4328.38 969.94 2
-2 7 -9 4057.57 744.718 1
-9 -2 7 4331.77 657.421 2
-9 -7 -2 4431.45 871.907 3
-2 9 7 3297.92 495.44 3
-9 -7 -2 2809.34 698.636 4
9 7 -2 3422.84 612.846 1
-9 2 -7 4037.77 656.79 1
2 7 9 3281.25 720.088 4
9 -7 2 3523.92 584.104 1
7 -9 -2 2824.46 880.159 2
-9 -7 -2 3730.89 673.452 1
7 9 2 3032.08 881.102 4
-7 -2 -9 3883.29 772.857 4
7 9 2 2922.49 712.122 2
9 7 -2 3860.06 670.027 2
2 7 9 3661.64 717.51 3
-9 -2 7 2026.71 538.441 4
9 2 7 3572.81 804.345 3
-9 7 2 3532.66 547.971 1
2 9 -7 3791.54 804.031 2
-7 -9 2 3512.41 746.629 1
9 0 7 3169.13 597.016 2
9 -7 0 4411.09 958.302 2
0 9 7 4173.63 665.281 3
-9 -7 0 4736.75 869.054 4
9 -7 0 3544.39 548.834 1
-7 9 0 3842.86 695.541 1
0 7 -9 3230.17 741.602 2
0 -7 9 3716.59 760.787 1
7 9 0 3436.58 775.644 2
-9 7 0 3641.55 820.455 2
-7 0 -9 3422.56 687.59 1
7 -9 0 3274.31 613.306 1
0 -9 7 3251.64 809.108 2
0 9 -7 4592.38 811.999 1
0 7 -9 4098.26 757.042 1
0 9 -7 3429.97 818.906 2
9 7 0 3737.78 893.816 4
-9 0 -7 3941.54 641.599 1
-9 -7 0 2858.39 631.302 1
0 -9 -7 3640.8 722.056 1
0 -7 9 3614.16 854.094 2
-7 -9 0 3430.19 764.346 1
-7 9 0 4118.43 1020.15 2
9 7 0 2782.05 577.526 1
-7 -9 0 4288.56 896.084 2
-7 0 9 3994.4 575.697 4
9 0 -7 4089.46 569.187 1
-9 -7 0 4013.95 800.17 3
7 9 0 3421.25 842.247 4
-7 0 -9 4649.45 800.075 4
0 -9 -7 3734.36 588.872 3
0 -9 7 5028.51 897.994 1
-7 -9 0 3947.28 805.064 3
7 -9 0 3674.04 964.299 2
-9 0 -7 4550.66 876.828 4
9 7 0 3835.56 679.587 2
7 9 0 3681.28 719.248 1
0 7 9 4102.65 658.612 3
-9 7 0 3501.21 552.094 1
7 0 -9 3472.84 613.774 1
-9 7 -2 3316.35 575.283 1
-9 -7 2 3199.71 697.453 4
9 7 2 3507.16 669.91 2
9 7 2 3591.39 637.52 1
-7 -9 -2 3442.64 689.633 3
7 -9 2 3170.83 643.469 1
-7 -2 9 2826.46 486.659 4
-9 7 -2 3423.27 794.325 2
-2 -9 7 3669.92 840.153 2
2 -7 9 4127.9 813.844 1
-7 9 2 3310.16 885.992 2
9 7 2 4351.1 809.646 3
-9 -7 2 3542.2 636.688 1
9 -7 -2 3799.19 552.553 1
-7 2 -9 3678.19 706.197 1
7 9 -2 3621.75 772.947 2
-9 -7 2 3727.05 709.953 2
9 -7 -2 4130.99 432.286 3
9 2 -7 4164.68 612.011 1
9 7 2 3524.2 935.559 4
2 7 -9 3701.83 734.001 1
7 -9 2 3862.62 974.251 2
7 9 -2 3914.44 990.319 4
-7 -9 -2 3437.02 696.168 1
7 9 -2 3222.42 734.951 1
-7 9 2 3899.57 689.387 1
-2 9 -7 4295.23 800.724 1
9 -2 7 3101.78 639.187 2
-2 9 -7 3582.53 814.842 2
-9 -7 2 4142.1 898.533 3
-2 -9 7 4034.87 794.323 1
-9 -2 -7 4458.67 897.594 4
2 9 7 4345.62 730.905 3
2 7 -9 3252.06 716.043 2
2 -9 -7 3700.59 705.047 1
-7 -2 9 4551.57 757.194 1
2 -7 9 3690.89 839.275 2
-9 -7 4 631.773 337.632 1
4 -9 -7 768.282 379.889 1
-9 7 -4 504.252 223.607 1
-7 -9 -4 525.084 365.011 3
-9 -4 -7 1774.27 586.859 4
-7 -9 -4 617.669 311.079 1
-7 4 -9 592.081 312.814 1
-7 9 4 839.294 366.937 2
4 9 7 598.176 458.979 4
-9 -7 4 1735.12 544.641 4
9 -7 -4 591.593 239.676 1
9 7 4 869.606 466.034 3
4 -7 9 311.027 253.517 2
-9 -7 4 1203.4 430.637 2
-4 9 -7 585.679 342.479 1
7 -9 4 1596.38 708.779 2
9 -4 7 339.478 169.877 1
-4 9 -7 535.988 358.685 2
7 9 -4 999.702 391.104 1
-4 -9 7 1536.89 640.3 2
4 7 -9 580.603 304.601 1
7 9 -4 724.47 439.31 2
9 7 4 927.234 365.404 4
7 4 9 -18.0669 295.363 4
-9 7 -4 484.464 337.043 2
-7 9 4 701.204 333.342 1
7 -9 4 704.017 335.133 1
7 9 -4 1495.4 649.992 4
7 4 9 1003.81 413.21 3
4 -7 9 566.539 328.471 1
4 7 -9 475.906 295.193 2
-7 -4 9 574.891 320.316 2
9 4 -7 680.981 292.68 1
9 4 -7 846.104 392.72 4
-7 4 -9 800.093 342.382 2
9 -4 7 803.134 369.728 2
-4 -9 7 867.034 393.2 1
-7 -4 9 720.538 395.888 1
4 9 7 1084.66 455.034 3
-9 -7 6 220.389 246.532 1
9 6 -7 198.369 179.834 1
9 6 -7 115.716 196.295 2
7 -9 6 555.802 397.912 1
-9 7 -6 256.969 217.027 2
9 -7 -6 286.702 183.133 1
-7 -6 9 237.59 237.81 2
7 9 -6 527.225 332.011 2
-6 -7 -9 717.831 403.634 4
-7 6 -9 566.519 284.361 2
7 6 9 726.251 488.403 3
6 7 -9 91.452 109.35 1
7 9 -6 194.266 372.472 4
7 -9 6 -204.499 167.754 2
-6 -9 7 190.361 217.779 2
-9 -7 6 417.006 329.999 2
6 9 7 13.4706 269.486 3
-6 -9 7 65.0547 173.567 1
-7 -6 9 275.356 335.823 1
9 -6 7 628.029 423.261 2
-6 9 -7 -47.0582 141.969 1
9 6 -7 519.795 447.385 4
9 -6 7 392.542 355.961 1
6 -7 9 225.7 180.547 2
6 -9 -7 293.709 211.116 1
-7 -9 -6 212.181 243.747 1
9 7 6 268.721 328.179 3
-7 6 -9 99.4088 165.083 1
-9 -6 -7 510.2 421.153 4
7 9 -6 152.96 223.028 1
-9 7 -6 118.395 172.364 1
6 7 -9 296.469 283.735 2
7 6 9 -59.9369 407.609 4
6 9 7 1446.15 667.998 4
6 7 -9 572.622 364.502 4
6 -7 9 352.032 272.561 1
-7 -9 -6 274.16 251.387 3
-6 9 -7 395.836 369.28 2
-8 -9 7 1548.96 600.137 2
8 9 7 266.163 307.392 3
-9 -8 -7 695.6 463.845 4
9 8 -7 1069.06 467.049 1
8 7 -9 1946.88 615.253 4
-9 -8 -7 632.967 360.713 1
7 9 -8 1096.67 498.79 1
8 7 -9 996.804 423.594 1
-8 -7 -9 525.137 318.771 4
-9 -7 8 582.245 305.742 1
8 -7 9 877.437 421.234 1
-7 -8 9 811.077 399.803 1
-7 8 -9 869.054 352.349 1
-8 9 -7 1580.98 511.844 1
-9 7 -8 876.719 358.768 1
-7 -8 9 883.29 454.846 2
-9 -7 8 1206.62 467.914 2
7 8 9 1826.45 560.091 3
7 8 9 656.966 470.688 4
-7 8 -9 740.049 384.163 2
-8 9 -7 1060.56 456.599 2
7 9 -8 1584.59 640.013 4
9 -8 7 1334.37 562.127 2
9 -8 7 995.18 423.739 1
-9 7 -8 595.263 384.635 2
8 7 -9 682.951 305.672 2
-7 -9 -8 676.554 338.044 1
-8 -9 7 759.397 413.381 1
9 8 -7 -67.6526 295.474 4
9 8 -7 879.504 371.813 2
9 7 8 2180.03 777.426 3
7 -9 8 858.07 449.427 1
7 9 -8 1002.56 434.064 2
8 -9 -7 558.993 311.539 1
9 5 8 1606.58 549.875 4
-9 -8 -5 1366.99 476.862 1
9 -8 5 2165.54 526.932 1
9 8 -5 2492.36 775.877 4
-8 9 -5 2370.41 546.526 1
5 8 9 862.539 389.856 4
-8 -5 -9 2073.91 602.066 4
5 -9 8 1850.88 582.038 1
-9 8 5 845.268 436.059 2
-9 5 -8 2119.31 524.041 1
-5 -8 9 2354.7 648.617 1
-5 8 -9 1875.32 551.893 1
-8 -9 5 2242.57 664.644 2
-8 -9 5 1941.44 541.875 1
9 -8 5 2326.36 764.429 2
-9 -5 8 639.22 241.841 4
-8 9 -5 1933.44 617.26 2
9 8 -5 2452.22 581.807 2
8 -9 -5 1779.79 460.506 1
-5 -9 -8 891.117 388.363 3
8 -5 9 1781.74 550.818 2
8 5 -9 2449.19 588.208 1
8 5 -9 819.019 338.272 4
-9 -5 8 1640.05 503.71 1
5 9 -8 2541.35 638.632 1
-5 -9 -8 1972.82 586.181 1
-9 -8 -5 2219.88 612.871 4
-9 -5 8 2083.33 507.236 2
-5 -8 9 1891.65 635.175 2
8 -5 9 2294.72 621.144 1
5 9 -8 2084.37 627.065 2
-9 5 -8 2338.43 587.815 2
8 9 5 2349.58 600.478 3
5 8 9 1188.14 474.867 3
9 5 8 1832.89 636.797 3
-5 9 8 1613.11 301.568 3
9 8 -5 2076.77 561.984 1
-5 8 -9 1689.44 607.185 2
8 9 3 599.554 347.74 2
8 9 3 1153.85 396.349 1
-9 -3 8 1562.53 473.308 4
-8 -3 -9 1182.89 519.517 4
-9 -3 8 1395.07 404.275 2
-9 -3 8 1232.55 376.931 1
-3 -8 9 1570.74 522.168 1
9 8 -3 1004.84 518.49 4
8 9 3 -387.993 510.153 4
-9 -8 -3 263.512 221.538 3
-9 3 -8 1249.91 406.065 1
3 9 -8 1750.25 568.915 2
-3 -8 9 972.427 485.807 2
-9 8 3 833.636 484.318 2
-3 9 8 1029.47 321.654 3
8 -9 -3 1021.6 356.293 1
-8 9 -3 1426.46 538.307 2
9 8 -3 1351.55 429.094 1
3 -9 8 1442.03 574.214 2
9 8 -3 1149.2 429.335 2
9 -8 3 945.657 375.904 1
-3 8 -9 1560.19 480.11 1
9 -8 3 1935.61 697.195 2
8 3 -9 1467.39 410.975 1
3 8 9 1064.85 518.678 4
3 8 9 1690.41 532.953 3
-3 8 -9 964.969 421.783 2
-8 -9 3 1141.52 444.857 2
-9 -8 -3 902.807 373.709 1
8 -3 9 775.216 382.661 2
-8 9 -3 1129.58 393.586 1
-9 -8 -3 1534.18 559.62 4
-3 -9 -8 1079.26 430.246 3
-8 -9 3 1290.67 509.324 1
9 3 8 1209.22 543.98 3
-9 8 3 1491.83 400.227 1
3 9 -8 1977.99 557.004 1
-3 -9 -8 1551.95 527.317 1
3 -9 8 1337.82 502.453 1
8 9 3 855.032 433.844 3
-9 -8 -1 3581.98 713.591 3
-9 -1 8 1865.84 497.215 4
-1 -8 9 2770.85 751.004 2
-1 8 -9 3114.4 770.95 2
9 -8 1 2517.97 505.673 1
-8 -9 1 3355.84 833.062 2
9 -1 -8 2648.72 489.943 1
9 -8 1 2697.76 789.627 2
-8 -9 1 4228.64 832.867 3
1 9 -8 2891.64 640.292 1
-9 8 1 2226.62 700.669 2
-1 -9 -8 2592.5 622.302 1
-9 1 -8 2501.57 550.238 1
-9 -8 -1 2602.56 609.122 1
-8 9 -1 2378.86 747.071 2
-1 9 8 2682.05 505.275 3
8 1 -9 2309.18 510.084 1
-9 -8 -1 3544.18 708.784 4
-9 8 1 3455.56 591.736 1
-8 -9 1 2331.62 609.787 1
-1 8 -9 3531.3 721.68 1
1 8 9 2610.61 609.793 3
8 9 1 2629.24 612.492 1
8 -9 -1 2120.66 721.008 2
9 8 -1 2490.38 567.412 1
1 9 -8 3258.14 783.354 2
-8 -1 -9 2212.31 609.513 4
9 8 -1 2393.92 593.68 2
9 8 -1 1937.15 701.675 4
8 9 1 1910.47 563.777 2
8 -1 9 2878.03 609.641 2
8 -9 -1 2869.24 580.494 1
-8 9 -1 2970.63 595.804 1
-1 -8 9 2705.53 684.476 1
8 9 1 1397.38 630.287 4
1 -9 8 2504.67 714.848 2
1 -9 8 2379.63 628.02 1
-9 -1 -8 6380.29 1072.34 4
9 1 -8 2565.75 514.736 1
9 8 1 2680.2 582.445 1
1 8 -9 3181.41 701.27 1
-9 8 -1 2825.08 552.898 1
-9 -8 1 2484.94 651.212 2
9 -8 -1 2539 810.378 2
-1 8 9 2645.28 540.014 3
8 9 -1 4733.06 1083.49 4
9 -8 -1 2450.04 492.462 1
-1 9 -8 2765.68 640.536 1
8 -9 1 2959.72 850.629 2
-1 -9 8 2441.95 734.506 2
1 -8 9 2820.45 751.235 2
8 9 -1 2847.99 671.5 2
9 8 1 3003.85 659.126 2
-8 9 1 2826.82 852.877 2
1 -9 -8 2084.03 590.226 1
1 -8 9 1838.28 596.526 1
9 -1 8 2363.64 600.159 2
-9 -8 1 2183.64 585.816 4
8 9 -1 2601.14 619.287 1
-8 1 -9 2783.97 617.47 1
-8 9 1 2909.47 575.795 1
-8 -1 9 2197.04 529.884 4
-8 -9 -1 2343.74 622.012 1
-9 -8 1 2654.01 715.93 3
-9 -8 1 2587.24 595.804 1
1 9 8 3568.05 683.809 3
-8 -9 -1 2551.56 601.096 3
-1 -9 8 3201.5 707.045 1
8 -1 -9 2527.05 503.184 1
1 8 -9 2381.41 694.477 2
-9 8 -1 3116.12 808.474 2
9 8 1 3234.4 854.282 4
-1 9 -8 2814.87 731.143 2
8 -9 1 2340.86 548.309 1
3 -9 -8 1333.15 447.259 1
9 8 3 553.762 219.591 3
9 8 3 -109.542 513.158 4
-3 -9 8 762.329 394.943 2
-3 8 9 790.719 270.415 3
9 8 3 957.048 383.483 2
-8 9 3 1247.2 441.25 1
-9 -8 3 914.424 391.341 1
-3 9 -8 1531.97 506.6 1
8 -9 3 1271.21 425.558 1
3 -8 9 1491.89 564.113 1
3 9 8 1317.06 444.135 3
3 -8 9 758.554 399.482 2
8 9 -3 1199.77 469.148 1
-9 8 -3 1403.55 589.035 2
3 8 -9 1280.25 471.72 2
-8 -9 -3 1283.06 470.05 1
-8 -3 9 1133.56 403.774 2
8 -9 3 671.657 454.874 2
3 9 8 280.129 385.485 4
-8 9 3 839.002 490.318 2
-8 -3 9 1075.24 325.129 4
9 -3 8 965.3 334.615 2
-9 -8 3 919.508 414.512 2
-3 9 -8 1438.26 525.299 2
-8 -9 -3 863.363 363.618 3
-8 3 -9 1478.4 463.494 1
8 9 -3 1357.86 550.644 4
9 -8 -3 881.582 338.895 1
-3 -9 8 1236.6 454.955 1
-9 8 -3 1173.68 354.918 1
-9 -3 -8 668.398 449.517 4
-8 -3 9 706.228 337.808 1
8 3 9 977.476 379.219 3
3 8 -9 1429.36 451.785 1
8 9 -3 1520.9 518.953 2
9 3 -8 1419.55 426.279 1
-5 9 -8 2653.87 765.672 2
-9 -5 -8 2630.25 750.269 4
9 -5 8 2242.43 635.782 2
-9 8 -5 2333.96 543.897 1
8 9 -5 1862.57 565.62 1
5 9 8 590.936 373.498 4
-8 -9 -5 2019.68 525.311 1
9 -8 -5 1836.46 437.777 1
-8 9 5 1317.41 619.935 2
9 8 5 1502.13 560.368 3
8 9 -5 2443.98 807.07 4
-8 5 -9 2260.47 566.53 1
8 5 9 1481.86 516.047 4
8 -9 5 1940.39 520.464 1
-9 -8 5 2151.03 541.856 1
-5 9 -8 2019.59 567.826 1
-9 -8 5 1887.97 529.134 2
8 -9 5 2101.65 715.666 2
5 9 8 1689.01 573.989 3
5 -9 -8 2131.87 519.437 1
-8 -5 9 1814.22 554.952 1
-5 -9 8 1924.63 675.161 2
-8 -5 9 1498.45 442.935 2
8 5 9 1992.71 663.333 3
-9 8 -5 1919.59 581.002 2
5 -8 9 2217.03 663.446 1
9 5 -8 961.16 407.627 4
8 9 -5 1965.74 570.968 2
-5 -9 8 2363.56 670.391 1
5 8 -9 2059.03 585.829 1
9 -5 8 2267.35 559.369 1
9 5 -8 2093.52 543.406 1
5 8 -9 2096.87 590.546 2
-8 5 -9 1877.97 526.438 2
7 8 -9 792.242 419.399 2
9 7 -8 1922.16 650.886 4
-9 -7 -8 2072.46 619.217 4
-8 -9 -7 633.387 322.845 1
-8 7 -9 1019.41 457.119 1
9 7 -8 1255.02 456.782 1
8 9 -7 800.326 414.003 4
9 7 -8 842.362 338.701 2
7 -9 -8 638.027 363.505 1
-9 -8 7 380.597 198.212 2
7 9 8 1947.76 633.689 3
-9 8 -7 1057.3 380.181 1
-8 -7 9 762.989 296.366 1
-8 7 -9 982.779 479.592 2
-7 9 -8 848.25 338.03 1
8 9 -7 1443.23 516.786 1
-7 9 -8 1170.04 482.498 2
-8 -7 9 1181.32 456.492 2
-7 -9 8 906.583 487.211 2
9 -7 8 932.261 484.523 2
7 -8 9 1023.55 470.538 1
-9 8 -7 855.66 377.831 2
8 7 9 368.542 483.516 4
7 8 -9 664.907 360.348 1
9 -8 -7 652.546 290.498 1
-9 -8 7 698.924 336.354 1
7 8 -9 245.911 292.923 4
-7 -9 8 1246.56 486.439 1
8 9 -7 1426.3 532.516 2
8 -9 7 1073.88 472.79 1
9 -7 8 339.607 304.072 1
8 7 9 1263.84 525.154 3
9 8 7 1487.7 611.096 3
-9 0 -9 1896.44 513.44 1
0 -9 9 2166.02 610.6 1
-9 0 9 2112.51 459.641 4
-9 -9 0 2124.14 593.841 1
-9 9 0 1637.65 478.082 1
9 -9 0 1766.38 657.008 2
9 -9 0 1950.54 466.936 1
9 9 0 1991.05 583.205 2
-9 0 -9 3364.37 781.181 4
-9 9 0 1798.96 637.268 2
9 0 9 1485.83 454.654 2
0 9 9 2770.68 579.205 3
9 9 0 2065.63 540.178 1
0 9 -9 1891.61 612.534 2
9 0 -9 1673.12 433.836 1
-9 2 -9 155.345 159.296 1
-9 -2 9 1563.54 476.133 4
-9 -9 -2 47.3733 192.147 1
9 9 2 148.548 224.342 1
9 2 9 599.224 377.011 3
-9 -9 2 -111.84 223.465 1
9 9 -2 32.0564 143.186 2
-9 9 2 500.076 465.796 2
2 9 -9 -222.367 276.188 2
-9 -2 9 20.0729 169.723 1
2 -9 9 57.507 197.175 1
9 -2 -9 55.0337 130.446 1
9 -9 2 329.344 440.759 2
-2 -9 9 230.547 215.186 1
-9 9 2 199.948 189.572 1
9 9 -2 259.408 258.328 1
-9 -9 -2 911.48 422.615 4
-9 9 -2 194.719 341.106 2
9 9 2 51.6017 233.208 2
9 -2 9 531.804 282.583 2
-2 9 9 1089.83 351.648 3
-9 9 -2 146.659 106.764 1
-9 -9 2 183.378 236.406 2
9 -9 -2 89.6733 145.66 1
-2 9 -9 43.2782 235.041 2
-9 -2 -9 1311.22 530.445 4
9 -9 -2 17.5899 232.377 2
9 9 -2 454.438 354.717 4
9 -9 2 -127.255 176.521 1
-2 -9 9 -34.4637 219.237 2
9 2 -9 273.481 257.764 1
2 9 9 720.333 413.195 3
9 4 9 1327.56 526.191 4
-9 9 4 770.976 387.299 2
-4 -9 9 1697.79 587.992 1
9 9 4 576.529 352.464 3
-9 -9 -4 1335.15 464.626 1
-9 -9 4 1478.96 560.156 2
4 -9 9 1920.59 650.726 1
-9 -4 -9 1470.64 511.028 4
9 -9 -4 1589.47 412.472 1
9 -4 9 2053.03 550.552 1
-4 -9 9 1799.33 624.068 2
-9 9 -4 1171.73 518.759 2
9 4 -9 398.834 330.839 4
-4 9 -9 1595.21 542.15 2
-4 9 9 1621.12 349.187 3
-9 -4 9 1724.8 532.708 2
-9 -9 4 1442.24 504.997 1
-9 4 -9 1616.26 486.038 1
9 9 -4 1506.7 472.416 1
9 4 -9 1812.66 497.494 1
9 -9 4 1857.66 478.227 1
9 4 9 1500.21 563.122 3
-9 -4 9 1867.33 565.849 1
-9 4 -9 1179.08 425.135 2
4 9 9 1565.35 648.971 4
-9 -4 9 1136.92 397.646 4
9 9 -4 1426.89 474.441 2
9 9 -4 2379.77 843.967 4
9 -4 9 1644.59 510.472 2
9 -9 4 1343.46 652.36 2
-9 9 -4 1570.16 463.708 1
4 9 -9 1485.21 505.51 2
4 9 9 1578.89 579.19 3
-9 -9 -4 1213.07 438.647 4
-6 9 9 1483.39 277.347 3
-6 9 -9 2990.78 816.289 2
-9 -9 -6 2147.57 583.772 1
-9 9 6 1609.32 677.99 2
9 -9 -6 1943.85 501.79 1
-9 6 -9 2680.12 670.945 1
-9 -6 9 2418.75 635.377 1
9 6 9 3377.98 902.299 3
-9 9 -6 2702.45 745.785 2
-9 -9 6 2511.08 642.708 1
9 9 -6 2899.07 703.07 1
-9 -9 -6 3265.81 795.114 4
9 6 -9 2654.36 640.449 1
-9 -9 6 2579.88 684.759 2
9 -6 9 1866 563.791 1
-9 6 -9 2581.28 690.318 2
9 -9 6 2237.9 755.755 2
9 -6 9 2480.16 717.619 2
-9 -6 9 2459.29 618.681 2
6 9 -9 2746.92 717.145 2
-6 -9 9 2346.41 708.901 2
6 9 9 3627.38 953.92 4
6 9 9 2898.32 724.71 3
9 9 -6 2960.04 710.373 2
6 -9 9 2895.68 745.02 1
9 -9 6 2441.8 585.987 1
9 9 -6 2993.09 875.735 4
-9 -6 -9 3114.22 750.529 4
-9 9 -6 2390.62 596.984 1
9 9 6 3006.28 747.371 3
-6 -9 9 2492.79 675.54 1
9 6 -9 3667.5 707.96 4
9 9 -8 91.0447 132.533 1
-9 -9 -8 263.448 265.265 1
-9 -9 8 -7.04871 272.19 1
-9 -8 9 57.7492 162.872 1
8 9 9 816.708 571.555 3
9 8 -9 177.857 203.896 2
9 -9 8 308.077 268.064 1
8 9 -9 416.66 368.995 4
9 9 8 1100.58 564.581 3
-8 -9 9 -115.599 161.04 1
-9 9 -8 49.3794 193.701 1
-9 9 -8 -132.663 209.525 2
9 8 9 51.0487 265.245 3
-8 -9 9 -448.823 395.471 2
8 9 -9 20.2101 195.704 2
9 8 -9 -1.42683 273.621 4
-9 -9 8 63.3819 223.514 2
-9 -8 -9 657.356 377.536 4
-8 9 -9 135.117 180.103 2
-9 -8 9 0.64568 216.735 2
-9 8 -9 131.652 161.62 1
9 8 -9 54.3989 216.622 1
-9 -9 -8 360.67 340.497 4
9 9 -8 59.6678 274.863 2
9 -8 9 137.971 184.667 1
8 -9 9 259.164 257.511 1
9 9 -8 555.794 466.298 4
-9 8 -9 248.851 235.428 2
9 -9 -8 122.596 116.621 1
8 -9 -9 104.506 111.759 1
0 -10 0 1572.66 641.827 2
0 10 0 1118.6 499.518 2
0 10 0 1639.78 471.725 1
0 -10 0 1649.11 471.607 1
10 0 0 1928.57 457.699 3
0 0 -10 2025.83 493.699 1
-10 0 0 1678.48 419.514 3
-1 1 -10 6889.54 931.895 1
10 1 -1 5277.8 692.438 3
-10 -1 1 4892.72 870.246 4
-1 10 -1 6298.29 885.817 1
1 -10 -1 6142.28 892.01 1
1 10 -1 4918.12 967.989 2
-1 10 -1 5636.65 1057.85 2
1 10 -1 6215.25 914.913 1
-10 -1 1 5661.56 769.533 3
-1 -10 1 4594.08 1024.3 2
-10 -1 -1 4099.64 370.702 1
1 -10 -1 5735.02 1161.01 2
-10 1 1 4343.01 449.931 2
-1 -1 -10 4698.78 487.062 4
10 -1 1 5223.11 742.946 3
1 10 1 4055.96 917.062 2
-10 1 -1 4891.26 454.956 2
-1 -10 1 6534.62 949.52 1
-1 10 1 6068.97 890.509 1
-1 -10 -1 5574.3 1146.46 2
-1 10 1 4296.87 964.196 2
-10 -1 -1 5254.34 747.193 3
10 -1 1 5681.32 581.607 2
10 1 1 4785.27 709.225 3
1 -10 1 5658.73 1098.55 2
1 10 1 6453.25 919.063 1
10 -1 -1 5478.56 660.826 3
1 1 -10 6600.41 884.998 1
-1 -10 -1 5986.16 935.443 1
-10 1 -1 4249.79 619.794 3
-10 1 1 5445.9 689.828 3
1 -10 1 6095.53 892.709 1
-10 -1 -1 4416.48 891.699 4
0 -10 -2 5172.88 818.088 1
10 -2 0 5172.72 615.483 2
-2 -10 0 5400.85 1138.77 2
0 10 2 5150.7 834.315 1
-2 -10 0 4820.92 831.256 1
-10 2 0 4487.53 537.692 2
10 -2 0 5561.99 705.546 3
-10 0 2 5130.75 695.266 3
0 10 2 3465.6 873.468 2
-10 -2 0 3336.93 798.573 4
-10 -2 0 3990.79 414.467 1
0 -2 10 6214.85 985.768 2
2 0 -10 4973.58 755.556 1
0 -2 10 5295.9 857.101 1
2 10 0 3975.97 908.047 2
-2 0 -10 4847.05 771.028 1
2 -10 0 4332.35 1066.86 2
0 10 -2 3690.74 902.476 2
-10 0 -2 3486.92 603.552 3
-2 0 -10 4116.92 511.286 4
10 0 2 4238.18 462.509 2
0 10 -2 5262.96 813.576 1
10 0 2 4994.35 791.826 3
-2 10 0 4084.98 920.139 2
0 -10 2 4066.29 965.578 2
0 2 10 3551.46 462.577 4
0 2 -10 5068.68 774.659 1
0 -10 -2 4568.27 1060.34 2
2 -10 0 5241.75 820.058 1
-10 2 0 3777.09 552.658 3
-10 -2 0 4803.63 749.463 3
2 10 0 5159.68 826.234 1
-2 10 0 5272.44 825.429 1
0 -10 2 5251.9 843.948 1
10 2 0 3462.23 591.358 3
2 2 -10 1138.32 384.472 1
10 -2 -2 1743.65 363.173 3
2 10 2 575.758 297.272 1
-10 -2 2 1762.01 485.391 3
2 10 2 241.938 288.793 2
2 2 10 884.021 327.894 4
-2 -2 10 801.811 325.023 1
-2 -10 2 613.882 432.208 2
2 -10 2 877.137 456.885 2
-10 2 -2 869.171 201.984 1
2 10 -2 586.195 399.22 2
2 10 -2 940.624 351.594 1
-2 10 -2 862.926 400.748 2
10 -2 2 1084.85 331.078 2
-2 10 -2 1083.56 388.925 1
10 2 2 615.33 358.77 3
-10 -2 2 673.599 168.855 1
-10 -2 -2 708.617 503.075 4
-10 -2 2 2018.82 609.134 4
-2 2 -10 1091.8 384.634 1
-10 -2 -2 790.587 337.641 3
2 -2 10 751.006 331.501 2
-2 -10 2 417.695 192.641 1
-2 10 2 1194.46 452.945 1
-2 -10 -2 1291.87 399.031 3
-10 2 -2 1336.63 302.541 2
-10 2 2 972.771 332.776 3
-10 -2 -2 862.635 220.376 1
2 -10 -2 1340.25 437.994 1
-2 -10 -2 657.252 361.133 1
-2 -2 -10 1921.26 358.733 4
2 -10 -2 1985.21 716.954 2
-2 10 2 700.049 509.768 2
10 -2 2 1109.06 400.039 3
2 -10 2 843.771 337.255 1
-10 2 2 1158.42 326.264 2
10 2 -2 1010.45 203.114 1
10 1 3 2170.31 322.986 2
-10 -1 3 2486.49 535.806 3
-10 -1 3 3020.39 718.544 4
3 -10 -1 2400.15 792.063 2
-3 10 -1 2732.76 612.279 1
-1 -3 10 2426.75 572.231 1
3 10 1 2458.3 594.98 1
10 -3 1 3167.3 580.219 3
-1 -10 -3 2504.04 603.313 1
-3 -10 1 2697.53 755.761 2
10 -3 1 2143.43 275.802 1
-10 3 1 2381.76 480.369 2
-3 10 -1 2518.78 695.446 2
1 3 10 3395.35 527.404 4
-10 -3 -1 2090.7 558.684 3
-10 -1 3 2286 295.255 1
3 1 -10 2628.25 579.03 1
-3 -10 1 2838.83 675.296 1
-10 1 -3 2424.89 350.377 1
-1 10 3 2368.56 786.625 2
-1 -3 10 3213.05 678.695 2
-10 -3 -1 2418.96 382.387 1
1 10 -3 2683.75 615.382 1
3 -10 -1 2823 600.761 1
10 3 -1 3011.59 779.144 4
-10 -3 -1 3108.53 780.136 4
10 3 -1 2296.87 342.533 1
1 -10 3 3169.2 864.151 2
-3 -1 -10 2941.17 480.704 4
10 -3 1 2527.02 503.36 2
1 10 -3 2465.02 767.244 2
-1 3 -10 2638.52 586.718 1
-1 10 3 2583.34 615.54 1
-10 3 1 2404.48 415.823 3
1 -10 3 2915.52 645.181 1
3 10 1 2213.7 686.611 2
-1 -10 -3 3259.77 583.98 3
10 1 3 2636.12 576.353 3
-3 -10 -1 2902.73 814.299 2
-1 -10 3 2813.14 807.933 2
-10 1 3 3190.95 551.456 3
10 -1 3 2544.85 452.926 2
3 -10 1 2836.43 821.236 2
10 3 1 3194.82 770.168 4
-10 -3 1 2259.79 352.789 1
-10 -3 1 3288.8 770.601 4
-10 3 -1 1814.32 271.078 1
1 -10 -3 2876.76 615.198 1
10 1 -3 2100.97 278.071 1
3 10 -1 2483.25 661.853 2
3 -10 1 2016.63 529.488 1
3 10 -1 2776.35 603.045 1
-1 10 -3 1893.32 685.325 2
-3 1 -10 3062.07 605.192 1
-3 -10 -1 2468.29 600.239 1
-3 10 1 2170.1 692.116 2
-1 10 -3 3169.94 635.98 1
-10 3 -1 2295.12 457.753 2
-10 -1 -3 3210.65 774.422 4
1 -3 10 3067.58 700.611 1
-10 -1 -3 2763.42 547.781 3
10 3 1 2644.98 605.41 3
1 -10 -3 2995.32 487.575 3
-1 -10 3 2413.58 601.101 1
1 10 3 2887.11 626.716 1
-10 -3 1 2449.4 578.264 3
1 -3 10 2681.22 651.695 2
1 10 3 2043.05 735.071 2
-3 10 1 2945.25 603.185 1
1 3 -10 2930.99 620.206 1
10 -1 3 3500.67 661.485 3
10 -3 -1 3095.98 488.998 3
-1 3 10 2534.23 384.698 4
-10 3 3 20911 1486.69 2
3 10 3 17279.5 1895.27 2
-10 -3 3 20404.9 1118.13 1
3 -10 3 23765.6 2275.84 2
10 3 -3 19831.9 1072 1
-3 -10 3 21584.7 2109.98 2
-10 -3 3 15289.8 824.524 2
-10 3 -3 19259.2 1053.81 1
3 -3 10 21981.2 1773.02 1
-3 -10 -3 16881.9 1389.2 3
-10 -3 -3 19714.2 1167.55 1
3 -10 -3 16763.2 1003.83 3
10 -3 3 19119.1 1038.3 1
-3 -10 3 20832.5 1755.52 1
-10 -3 -3 17818.7 1519.31 3
-3 -10 -3 22779.6 1825.38 1
3 -10 3 23906.3 1803.41 1
-3 3 -10 22845.5 1726.24 1
-3 10 -3 22899.3 1712.73 1
-3 10 3 17227.5 2011.29 2
3 -3 10 22631.9 1877.46 2
-3 -3 -10 15493.9 1140.69 4
-10 -3 3 18128 1790.16 4
-3 -3 10 24181.2 1894.65 2
3 10 -3 20282.5 1934.13 2
3 10 3 23081 1814.32 1
-10 -3 -3 19017 1862.74 4
-10 3 3 18657.2 1120.79 3
-3 -3 10 25112.2 1866.68 1
3 10 -3 22654 1739.9 1
-3 10 -3 19378.1 1939.44 2
3 -10 -3 21329.5 1671.27 1
10 -3 3 19130.3 1508.76 3
10 3 3 18436.4 1622.63 3
3 3 10 16383.5 1408.52 4
-10 -3 3 22514.7 1767.72 3
10 -3 3 22332.6 1560.02 2
-3 10 3 24058.6 1817.82 1
-10 3 -3 19459.8 1317.46 2
3 3 -10 22941.4 1706.36 1
2 -10 4 9408.67 1164.47 1
-10 -4 -2 6487.14 948.966 3
-4 -10 2 8911.51 1136.69 1
-10 -4 -2 6102.35 1068 4
-2 10 4 6232.46 1233.9 2
4 10 2 6694.55 1142.05 2
-10 4 2 8413 996.12 2
10 2 4 7455.89 1068.32 3
4 -10 -2 6761.91 1274.74 2
2 10 -4 7353.11 1156.03 2
10 -4 2 9007.36 1082.97 2
-10 -2 4 7939.89 677.909 1
2 10 -4 8956.26 1082.4 1
-4 10 -2 7717.3 1271.34 2
-10 2 -4 7458.59 715.361 1
-2 4 -10 10045.4 1170.29 1
10 -4 2 7706.21 647.726 1
-2 10 4 9081.47 1156.81 1
-4 -10 2 7893.35 1284.47 2
10 4 -2 6270.05 468.469 2
-10 -2 4 7110.35 575.526 2
-10 -4 -2 7163.45 737.291 1
4 2 -10 8212.67 1010.28 1
-10 2 -4 7716.98 792.005 2
-4 -2 -10 6199.65 799.925 4
4 -2 10 8217.32 1118.04 2
2 4 10 7271.36 917.051 4
10 -4 2 7907 917.822 3
10 4 -2 3204.61 750.366 4
-2 -4 10 9135.65 1180.36 2
-10 -2 4 8020.04 1217.3 4
4 -10 -2 8619.03 1043.73 1
-4 10 -2 7913.85 1016.59 1
-2 -10 -4 7903.48 912.762 3
10 4 -2 8257.79 731.96 1
2 -10 4 8365.13 1440.68 2
4 10 2 7285.57 1020.41 1
-2 -4 10 8987.11 1159.18 1
10 -2 -4 6664.03 483.913 1
-2 -10 -4 7847.93 1082.85 1
-10 0 4 1740.16 466.088 3
10 4 0 1162.39 424.847 3
-10 -4 0 985.897 510.967 4
0 -10 4 1024.37 417.34 1
-4 -10 0 1227.43 605.089 2
0 -4 10 1245.5 395.954 1
0 -10 -4 993.585 410.119 1
-4 0 -10 1082.01 326.057 4
4 10 0 900.797 387.934 1
10 -4 0 1923.59 418.289 3
-10 4 0 1173.62 220.834 1
0 -10 4 1112.33 534.159 2
-4 10 0 1170.76 396.491 1
4 10 0 1395.66 521.347 2
10 0 4 1668.56 491.208 3
4 0 -10 1090.38 339.717 1
0 10 -4 1035.02 536.41 2
-10 -4 0 965.601 290.955 1
10 -4 0 974.148 217.903 1
10 0 -4 1233.86 225.036 1
-10 -4 0 924.84 391.534 3
0 4 -10 1572.34 471.02 1
10 0 4 958.137 254.053 2
0 -4 10 1334.06 470.332 2
-4 0 -10 1046.18 367.192 1
0 4 10 1690.55 372.977 4
0 10 4 951.844 588.674 2
-10 4 0 1226.74 407.14 2
0 10 -4 1440.52 460.613 1
10 4 0 876.327 262.551 1
10 4 0 111.968 258.196 4
0 10 4 1309.74 459.254 1
-4 10 0 1785.03 646.527 2
0 -10 -4 1881.71 431.266 3
10 -4 0 1206.57 406.52 2
-4 -10 0 1163.06 447.19 1
4 -10 0 1185.84 357.705 1
4 -10 0 2124.94 821.027 2
2 10 4 8913.3 1155.1 1
2 4 -10 8649.2 1086.3 1
-4 -2 10 9318.84 1124.7 1
4 10 -2 8676.46 1078.82 1
-10 -4 2 6396.35 574.808 2
-4 10 2 4884.43 1152.58 2
-2 -10 4 7748.6 1279.98 2
10 -2 4 7681.18 868.447 2
-10 4 -2 8353.81 944.457 2
-2 10 -4 8755.35 1070.87 1
-10 -4 2 7885.69 732.414 1
4 -10 2 8001.13 1040.4 1
-10 4 -2 8126.09 679.737 1
-2 -10 4 8024.53 1101.82 1
10 -2 4 6766.1 988.589 3
-4 -10 -2 6526.1 944.67 3
-10 -2 -4 8041.01 1241.63 4
-4 10 2 9365.15 1096.75 1
-2 10 -4 7582 1252.88 2
10 -4 -2 7409.73 649.053 3
-10 -2 -4 7351.65 934.81 3
4 -10 2 8663.83 1438.75 2
-10 2 4 7885.19 789.033 3
-10 -4 2 6956.58 1147.47 4
2 10 4 6770.99 1295.42 2
10 4 2 4458.38 939.956 4
-4 2 -10 8342.07 1049.71 1
-4 -10 -2 7910.33 1085.06 1
-10 -4 2 8355.25 1121.64 3
10 4 2 7007.2 976.092 3
4 10 -2 7249.28 1195.49 2
2 -4 10 8872.8 1152.36 1
10 -4 -2 6717.17 509.997 1
2 -4 10 9530.54 1221.05 2
2 -10 -4 8761.81 1085.85 1
10 2 -4 7937.35 668.023 1
2 -10 -4 6722.75 668.438 3
4 4 -10 776.036 252.976 4
4 -10 4 205.185 198.892 2
10 -4 -4 344.488 145.161 1
-4 -10 4 334.39 286.319 1
-10 4 4 723.969 382.331 2
4 10 4 482.663 342.282 2
-4 10 4 505.604 308.925 1
4 10 4 135.558 170.363 1
-10 4 -4 379.547 192.879 1
4 -4 10 202.129 223.01 1
4 -10 -4 159.799 175.949 1
4 10 -4 31.1244 137.514 1
-4 10 -4 268.057 203.942 1
4 4 -10 544.252 355.163 1
-10 -4 4 112.564 171.846 1
-4 -10 4 648.48 364.61 2
-4 -4 -10 1445.05 419.932 4
10 4 4 760.316 521.104 4
10 -4 4 219.895 307.703 2
-10 -4 4 566.282 224.489 2
-4 10 -4 366.377 276.324 2
10 4 -4 1298.1 508.406 4
4 10 -4 568.167 354.471 2
4 -10 4 153.349 205.756 1
10 -4 4 311.212 176.553 1
-4 -4 10 718.822 392.416 1
4 4 10 1069.32 438.79 4
4 10 4 700.752 298.375 3
-10 -4 -4 644.758 457.611 4
-4 10 4 1003.09 533.704 2
-10 -4 -4 655.052 400.594 3
-10 4 4 597.742 201.421 3
4 -4 10 758.199 351.809 2
10 4 -4 388.29 219.49 1
4 -10 -4 939.426 231.95 3
-4 -4 10 252.951 161.625 2
-4 -10 -4 424.84 280.607 1
-4 4 -10 636.837 335.726 1
-10 -4 -4 214.593 174.123 1
-10 -4 4 1629.9 591.156 4
-10 4 -4 436.898 236.29 2
10 4 4 1110.79 488.609 3
-4 -10 -4 982.195 399.326 3
-3 10 5 4356.28 1105.13 2
-10 -3 5 6592.21 738.573 1
-10 5 3 4901.58 859.734 2
-5 -10 3 5661.72 1059.72 2
10 -5 3 6506.1 1014.68 2
3 -10 5 6184.33 1202.78 2
-3 5 -10 6662.85 977.332 1
-3 -10 -5 5883.68 936.838 1
5 10 3 3488.45 919.858 4
-10 -3 5 5427.14 606.904 2
3 -10 5 6312.48 963.071 1
5 10 3 5802.86 934.844 1
10 -5 3 5963.3 681.409 1
5 3 -10 6097.34 888.068 1
3 10 -5 5590.31 1043.3 2
-3 10 5 6938.12 1047.34 1
3 10 -5 6746.83 966.561 1
-10 3 -5 6111.05 799.464 2
10 5 -3 3034.56 722.397 4
-5 -10 3 6190.05 991.53 1
5 -3 10 7231.22 1028.39 1
-10 -5 -3 5026.7 999.733 4
-10 -3 5 6003.39 1029.08 4
-3 -5 10 6790.46 1029.8 2
5 3 -10 3097.77 403.255 4
5 -3 10 7190.44 1064.8 2
-3 -5 10 5301.01 948.405 1
-10 3 -5 5798.67 719.758 1
10 3 5 3785.94 825.801 3
3 5 10 3737.11 758.668 4
-3 5 -10 5573.83 933.617 2
5 -10 -3 6124.49 885.495 1
-10 -5 -3 4370.21 755.281 3
-5 10 -3 5251.69 1024.33 2
-5 -3 -10 4914.52 747.617 4
-5 10 -3 7007.23 956.802 1
-10 -5 -3 5082.15 709.985 1
5 10 3 4218.21 977.283 2
10 5 -3 5526.78 573.207 2
10 5 -3 6141.45 717.476 1
-3 -10 -5 4389.82 742.096 3
5 1 -10 542.394 281.829 1
-5 -10 1 496.066 308.9 2
10 -5 1 399.587 154.845 1
-10 5 1 316.594 120.35 1
-10 -5 -1 971.016 395.456 4
-1 -10 -5 122.039 357.956 1
-1 -10 -5 46.9826 154.194 3
10 5 -1 206.434 102.03 1
5 -10 -1 621.091 410.224 2
-1 -5 10 515.358 346.716 1
10 -5 1 366.324 269.334 2
-1 10 5 512.964 291.203 1
-1 5 -10 529.593 354.385 1
-5 -1 -10 891.407 330.395 4
-10 -5 -1 489.436 220.227 1
-5 10 -1 728.482 479.934 2
-10 -1 5 366.656 247.013 4
5 10 1 623.811 374.59 2
-10 1 -5 474.269 207.116 1
1 10 -5 113.685 220.034 2
10 5 -1 426.157 171.548 2
-5 10 -1 251.648 209.089 1
10 -5 1 286.629 201.63 3
1 10 -5 434.504 238.513 1
10 1 5 459.026 237.869 2
-10 5 1 818.588 369.599 2
-1 5 -10 285.578 251.401 2
5 -10 -1 243.281 137.332 1
1 5 10 186.641 210.23 4
1 -10 5 241.295 189.948 1
10 1 5 169.626 215.263 3
-1 -5 10 719.491 401.875 2
-10 -1 5 395.554 151.768 1
10 -1 -5 364.817 150.904 1
5 10 1 711.168 346.408 1
-5 -10 1 397.009 230.842 1
1 -10 5 498.98 396.422 2
-10 -5 -1 -173.214 350.674 3
10 5 -1 717.672 470.106 4
1 5 -10 251.809 233.519 1
5 -1 -10 538.146 270.515 1
10 -5 -1 402.472 184.518 3
10 -5 -1 493.952 340.296 2
1 -10 -5 474.303 285.741 1
10 5 1 350.767 160.648 2
10 -5 -1 286.205 141.591 1
10 -1 5 342.448 181.538 2
-1 -10 5 117.614 230.562 1
-5 10 1 218.821 210.539 2
-10 5 -1 462.823 195.682 1
10 -1 5 459.647 342.307 3
-5 -10 -1 299.92 194.2 3
1 -5 10 330.375 263.379 1
5 10 -1 425.562 327.564 1
1 -10 -5 481.145 276.553 3
-5 -10 -1 35.3141 221.613 2
-10 5 -1 586.346 325.334 2
-5 -10 -1 289.665 217.391 1
-10 -5 1 1092.16 472.279 4
1 5 -10 291.827 164.189 2
-10 -1 -5 1085.13 513.342 4
-1 10 -5 100.853 208.845 2
1 -5 10 570.061 249.206 2
10 5 1 418.878 217.609 1
-1 -10 5 693.16 415.396 2
10 5 1 1700.91 655.566 4
10 5 1 714.792 348.806 3
-10 -5 1 731.979 397.201 3
5 -10 1 238.189 292.591 2
-5 1 -10 443.37 282.785 1
-10 -5 1 341.551 190.073 1
5 10 -1 281.832 240.037 2
-5 10 1 599.48 304.647 1
5 -10 1 253.082 244.13 1
-1 10 -5 530.164 271.029 1
1 10 5 130.161 158.988 3
10 1 -5 383.215 161.344 1
-5 -10 -3 4188.95 779.286 3
3 5 -10 6919.14 978.733 1
3 10 5 5032.34 786.963 3
-5 10 3 4335.63 1054.43 2
-10 -5 3 5551.35 673.065 2
5 10 -3 5889.52 1044.48 2
-3 10 -5 5977.07 1093.82 2
-3 10 -5 6087.93 887.246 1
-10 5 -3 5801.19 673.558 1
10 -3 5 4970.33 771.063 2
-10 5 -3 5528.33 845.412 2
-10 -3 -5 4080.23 763.417 3
3 -5 10 6336.23 1027.75 2
10 3 -5 6201.35 693.32 1
5 3 10 2851.42 604.955 4
-5 3 -10 5708.87 902.091 1
-5 10 3 5916.52 932.126 1
5 -10 3 6055.68 915.767 1
3 -10 -5 6191.82 918.287 1
-10 -5 3 5576.75 705.428 1
-3 -10 5 5436.96 898.802 1
-10 -5 3 4264.69 855.714 4
-5 -3 10 6608.57 1007.54 2
-3 -10 5 5582.96 1057.49 2
5 10 -3 5869.26 890.658 1
10 5 3 3854.81 919.035 4
-10 -3 -5 5597.86 1037.23 4
3 -5 10 6229.25 978.69 1
3 -10 -5 4742.71 536.294 3
-10 -5 3 6521.06 1033.47 3
10 5 3 5180.97 873.666 3
-10 3 5 5606.99 625.065 3
-5 -3 10 7210.22 1043.14 1
5 -10 3 5822.15 1232.29 2
-5 -10 -3 5688.38 949.37 1
10 -5 -3 5440.06 537.902 1
10 5 -5 234.47 195.837 1
5 -10 -5 314.997 147.674 3
-10 -5 -5 754.094 393.444 4
5 5 -10 -90.6322 110.943 1
10 -5 -5 152.997 127.08 1
10 5 -5 108.901 121.86 2
10 5 5 1297.14 503.884 3
-5 -5 10 117.214 230.495 1
-5 10 5 60.1314 249.339 2
5 10 5 232.339 196.801 3
5 5 -10 -88.9147 168.561 4
-5 -10 -5 356.387 367.195 1
-5 -10 5 246.673 359.354 2
5 -10 -5 -152.944 183.323 1
-5 -10 -5 939.009 390.956 3
-10 5 -5 18.7802 168.999 2
5 -10 5 153.938 207.357 2
-5 5 -10 -88.76 222.527 1
5 -10 5 397.3 267.685 1
10 -5 5 305.78 284.89 2
-10 -5 5 -127.482 183.277 2
-5 10 -5 131.962 210.08 2
-5 -5 10 207.134 248.764 2
5 5 10 640.646 503.315 4
5 10 -5 -268.098 314.62 2
-10 5 -5 166.75 184.314 1
-5 -10 5 79.2203 242.037 1
5 5 10 832.122 393.93 3
10 5 -5 598.963 421.997 4
5 10 -5 -107.325 230.048 1
10 5 5 1460.29 641.05 4
5 10 5 443.163 468.006 4
-5 -5 -10 498.991 299.832 4
-5 5 -10 -147.303 250.643 2
-10 -5 5 666.777 426.41 4
5 -5 10 87.5884 184.365 1
5 -5 10 194.174 228.377 2
-10 -5 5 152.996 212.302 1
-10 -5 -5 311.886 255.128 3
-5 10 -5 -101.763 155.022 1
-10 5 5 374.013 142.517 3
10 -5 5 558.589 278.627 1
-10 4 -6 3916.87 640.755 1
6 -10 -4 2310.6 266.899 3
-10 -4 6 3987.81 651.224 1
6 -4 10 3924.43 815.855 2
-4 -6 10 4083.55 804.557 2
-6 -10 4 3591.81 795.161 1
-10 6 4 3063.73 744.143 2
10 6 -4 4642.11 691.892 1
6 10 4 3491.19 709.708 3
4 10 -6 4506.92 938.418 2
10 4 6 3674.79 867.307 4
-6 10 -4 4810.43 832.122 1
6 4 -10 4751.33 794.465 1
-10 -4 6 3606.77 585.125 2
-4 -6 10 4437.97 860.451 1
-6 -10 4 5326.91 1007.57 2
4 10 -6 4541.73 833.58 1
10 6 -4 4066.86 590.544 2
10 -6 4 3992.3 874.71 2
-10 4 -6 4146.62 716.652 2
-4 6 -10 4418.79 822.466 1
-10 -6 -4 3984.14 668.71 1
4 -10 6 3522.16 943.369 2
-6 10 -4 4171.65 992.21 2
10 6 -4 1821.4 572.877 4
4 6 10 2688.94 690.684 4
4 -10 6 5565.81 952.626 1
-4 -10 -6 3172.04 645.98 3
4 6 10 3412.89 739.01 3
6 -4 10 3738.38 795.77 1
6 10 4 2505.31 733.181 2
6 10 4 2759.42 807.827 4
-10 -6 -4 2662.24 620.922 3
6 -10 -4 4358.69 749.306 1
-10 -4 6 3495.14 802.535 4
-4 6 -10 3381.62 775.506 2
-6 -4 -10 3207.15 677.982 4
10 -6 4 4359.64 662.263 1
6 10 4 4787.29 898.778 1
-4 -10 -6 4375.99 850.271 1
6 4 -10 2105.73 378.356 4
10 4 6 3849.81 821.759 3
-10 -6 -4 4168.58 858.532 4
6 -10 -2 10017.3 1574.7 2
-10 -6 -2 10470.7 1390.98 4
-2 6 -10 13163.9 1384.36 1
6 -10 -2 12390.8 1264.74 1
6 10 2 9314.06 1332.75 2
-6 -10 2 11705.1 1521.55 2
10 -6 2 13599 1562.3 2
-6 10 -2 9933.39 1534.14 2
-10 2 -6 11952.6 1054.5 1
-6 10 -2 13453.3 1333.36 1
10 6 -2 10809.1 948.349 2
6 10 2 9154.53 1419.33 4
2 10 -6 11353.3 1459.26 2
2 -10 6 12729.1 1711.56 2
-6 -10 2 11285.5 1323.41 1
10 -2 -6 11628.6 830.398 1
2 10 -6 13122.1 1381.03 1
10 2 6 11997.5 1467.33 3
-2 -6 10 13113.6 1432.98 1
-2 -6 10 13868.7 1538.74 2
6 10 2 12163.4 1329.75 1
-6 -2 -10 11594.2 1223.64 4
6 -2 10 12534.2 1398.85 2
-10 -2 6 12237.5 971.32 2
-2 6 -10 12263.9 1386.8 2
2 6 10 8061.9 1069.56 4
-10 -6 -2 12205.7 1130.78 1
6 2 -10 12749.8 1239.22 1
10 6 -2 9391.49 1325.25 4
-10 -2 6 8819.64 1258.62 4
-10 6 2 11557.3 1353.77 2
2 -10 6 12581.2 1408.45 1
-10 -6 -2 10276.2 1279.94 3
-2 -10 -6 9512.25 1053.55 3
10 -6 2 11847.8 994.52 1
-10 6 2 13482.3 945.921 1
-2 -10 -6 11064.9 1313.35 1
-2 10 6 9945.83 870.626 3
-10 -2 6 12020.2 986.925 1
10 6 -2 12731 1086.84 1
10 0 -6 10112.1 821.668 1
10 6 0 9934.12 949.247 1
0 10 -6 9492.71 1417.73 2
-6 -10 0 9252.35 1362.36 2
10 -6 0 10080.4 1302.53 2
6 10 0 9544.78 1286.06 2
-6 -10 0 9831.22 1238.49 1
10 6 0 10412.6 953.794 2
-10 -6 0 9151.39 992.773 1
-6 10 0 8286.84 1354.96 2
6 -10 0 9002.14 1485.26 2
-6 0 -10 5710.44 848.131 4
0 10 6 8230.83 879.496 3
10 6 0 6592.95 1246.02 4
0 -10 6 9818.02 1423.46 2
-6 0 -10 12469.8 1271.7 1
0 10 -6 11041.1 1244.53 1
0 6 -10 12259.3 1323.52 1
0 -6 10 12593.1 1393.39 1
-10 -6 0 10048.5 1268.08 3
10 -6 0 10326.9 847.197 1
10 0 6 9275.61 950.988 2
-6 10 0 11460.7 1211.84 1
0 6 -10 10709.7 1285.06 2
6 10 0 6898.56 1320.17 4
6 -10 0 10592.8 1164.08 1
-10 6 0 10017.2 1234.14 2
-6 -10 0 9152.94 1252.39 3
0 -6 10 10818.8 1365.44 2
6 0 -10 11060 1117.26 1
0 -10 6 9530.93 1230.54 1
6 10 0 10287 1227.35 1
10 -6 0 8858.38 837.727 3
-10 -6 0 8019.85 1185.14 4
0 -10 -6 6329.27 777.349 3
0 -10 -6 10413.7 1250.39 1
10 0 6 8123.67 1172.56 3
-10 6 0 11153.2 883.015 1
-10 -6 2 12495.5 1459.34 3
10 2 -6 12752.7 995.389 1
-10 -6 2 12867.8 1123.68 2
-6 10 2 9467.5 1501.8 2
-2 -10 6 11437.1 1587.89 2
-10 -6 2 11552.1 1366.72 4
10 -6 -2 11311.8 856.966 1
-10 6 -2 11225.3 1304.31 2
-10 -2 -6 10616.4 1437.58 4
-2 10 -6 11978.2 1568.62 2
-10 -6 2 12198.3 1113.48 1
10 -2 6 11054.5 1126.45 2
2 -6 10 12909.8 1476.6 2
-2 10 -6 13345.3 1377.13 1
6 -10 2 11536.2 1232.64 1
2 -10 -6 12848.8 1353.18 1
2 -6 10 13069 1442.12 1
-6 -2 10 14803.5 1439.62 1
2 -10 -6 9093.92 840.374 3
2 6 -10 11693 1343.61 2
10 -6 -2 12007.9 786.394 3
10 6 2 8607.02 1449.51 4
-6 -2 10 7628.41 641.247 4
6 10 -2 8494.23 1449.87 4
6 10 -2 12988.5 1371.59 1
-6 -10 -2 11110.9 1297.66 3
-6 2 -10 13092.9 1339.63 1
10 6 2 10169.3 1017.98 2
-10 6 -2 11916 977.711 1
6 10 -2 10425.1 1379.45 2
2 10 6 10911.1 1145.94 3
10 6 2 9648 1188.77 3
-6 -10 -2 10968 1337.56 1
-2 -10 6 11209.2 1350.25 1
6 -10 2 13179.9 1758.02 2
-6 10 2 13739.7 1337.91 1
2 6 -10 13012 1373.74 1
4 10 6 3540.89 720.645 3
10 -6 -4 3740.72 510.483 1
10 6 4 3801.98 784.01 3
-10 -4 -6 4097.22 916.129 4
-10 -6 4 3415.25 619.029 2
6 10 -4 4721.72 951.462 2
-6 10 4 4570.53 819.964 1
-6 -4 10 4659.42 845.91 1
10 -4 6 4067.36 760.931 2
6 -10 4 4496.24 784.168 1
6 4 10 1602.21 600.405 4
10 4 -6 2535.37 633.908 4
-6 4 -10 3864.53 733.282 1
-10 -6 4 3655.09 653.52 1
6 -10 4 4368.71 1057.39 2
-10 6 -4 3681.26 751.253 2
-6 10 4 2389.92 842.961 2
-4 -10 6 4189.59 826.57 1
-4 10 -6 4261.34 765.481 1
4 -6 10 4195.27 884.84 2
-6 -4 10 4568.19 806.813 2
10 4 -6 4858.99 689.109 1
4 6 -10 4310.06 833.719 2
4 -6 10 4195.55 869.476 1
-10 6 -4 4329.3 637.146 1
10 6 4 3171.71 976.037 4
-4 10 -6 3233.58 843.612 2
4 6 -10 4053.73 774.489 1
-10 -6 4 2443.73 625.749 4
-4 -10 6 4250.37 972.768 2
10 -4 6 4040.53 645.993 1
6 10 -4 4593.22 830.845 1
-6 -10 -4 3353.73 737.234 3
4 -10 -6 4706.54 827.225 1
-10 -4 -6 3209.21 694.928 3
-6 -10 -4 4092.89 804.434 1
-6 6 -10 8980.42 1169.03 1
6 6 10 5422.41 1051.76 4
-6 -10 6 7340.05 1226.22 2
-6 -10 6 8117.68 1211.05 1
10 -6 6 7691.73 1219.1 2
-10 -6 6 7620.01 985.373 2
-10 -6 6 8825.28 1072.61 1
-6 10 -6 7490.47 1283.46 2
10 -6 6 8444.73 1010.4 1
-6 10 6 5391.93 1272.19 2
10 6 -6 9234.29 1047.03 1
-6 -6 10 8626 1200.18 2
-10 -6 -6 5267.06 1015.95 4
-6 10 -6 8116.83 1098.95 1
6 6 10 5856.13 1054.65 3
10 -6 -6 7340.62 769.801 1
-6 6 -10 7492.19 1141.04 2
6 10 -6 8849.12 1198.59 1
6 6 -10 9135.66 1140.82 1
-10 6 -6 8446.37 1149.95 2
6 10 6 6988.65 1081.75 3
-10 6 -6 8758.07 1010.51 1
-10 6 6 5138.38 441.444 3
10 6 6 6223.3 1142.07 3
-6 -10 -6 5578.21 900.404 3
-6 -6 -10 5828.13 919.943 4
6 6 -10 5666.28 794.666 4
10 6 -6 4482.26 902.714 4
10 6 -6 8929.86 932.957 2
6 -10 6 8634.05 1181.36 1
-10 -6 6 4985.57 854.723 4
-6 -10 -6 8147.95 1146.14 1
6 -6 10 7950.01 1230.99 2
6 10 -6 7855.41 1241.87 2
6 -6 10 8345.43 1186.5 1
6 -10 -6 8306.44 1051.11 1
-6 -6 10 9339.59 1236.85 1
-7 10 -5 1068.02 546.152 2
7 5 -10 1014.52 357.881 4
-10 -7 -5 1315.67 431.086 1
-7 -10 5 1675.72 666.663 2
5 -10 7 1439.67 511.538 1
-10 -5 7 638.147 380.531 4
-7 -10 5 1129.9 453.051 1
7 -5 10 1537.15 508.408 1
7 -10 -5 1076.52 345.751 1
10 7 -5 1373.34 473.836 1
-10 5 -7 1473.48 441.755 1
7 10 5 1072.45 367.188 3
-10 -5 7 1692.58 450.262 1
-5 -7 10 1180.31 424.94 2
5 10 -7 1470.74 506.215 1
-10 -7 -5 1663.13 509.099 4
7 -5 10 1482.28 528.012 2
10 5 7 2502.71 767.425 3
5 10 -7 2084.28 678.556 2
10 -7 5 1175.92 345.621 1
-7 -5 -10 1585.62 508.564 4
10 -7 5 1513.68 554.741 2
-10 -5 7 1353.26 399.915 2
-5 -10 -7 391.94 173.952 3
-5 -7 10 895.229 448.05 1
-5 7 -10 1511.46 537.305 2
10 7 -5 1608.27 433.905 2
5 7 10 -46.5232 419.297 4
10 7 -5 1724.45 553.639 4
-10 7 5 633.556 396.701 2
-5 7 -10 1507.79 502.252 1
7 5 -10 1455.36 463.551 1
-10 5 -7 1406.45 487.002 2
-5 -10 -7 1272.29 476.345 1
-7 10 -5 1370.65 471.378 1
5 7 10 1679.53 565.127 3
-3 10 7 517.309 224.474 3
-10 -7 -3 695.602 388.707 4
10 -7 3 -81.9201 198.55 2
-3 -7 10 410.101 314.608 1
-3 -10 -7 171.981 213.266 3
3 -10 7 417.275 304.589 1
-10 -3 7 350.21 236.45 1
3 7 10 -273.49 389.87 4
-10 -3 7 1231.17 579.711 4
-10 7 3 -238.798 195.942 2
3 10 -7 430.411 361.07 2
-10 -3 7 135.992 186.254 2
-7 -10 3 -169.251 376.23 2
-7 -10 3 34.1728 248.251 1
10 7 -3 1120.24 477.636 4
-10 3 -7 103.28 200.398 1
7 -10 -3 326.257 245.212 1
-7 -3 -10 1085.13 423.945 4
-7 10 -3 107.69 193.559 2
10 7 -3 18.5179 182.444 1
-10 -7 -3 18.903 158.91 1
-7 10 -3 196.383 213.623 1
7 -3 10 163.922 254.639 2
3 7 10 343.373 294.593 3
-3 -7 10 56.2123 188.229 2
10 -7 3 272.398 156.766 1
-3 -10 -7 -174.555 154.69 1
7 3 -10 337.286 222.624 1
7 10 3 312.945 321.172 2
-3 7 -10 149.745 160.282 2
3 10 -7 -22.969 137.946 1
-10 3 -7 327.384 270.928 2
-3 7 -10 146.827 194.126 1
7 10 3 164.899 151.822 1
10 3 7 591.164 415.185 3
-10 -7 -3 -11.6904 321.718 3
10 7 -3 211.45 208.773 2
-1 10 7 2025.66 460.679 3
7 -10 -1 1472.79 450.818 1
10 7 -1 1210.08 434.532 1
-7 10 -1 1849.55 504.651 1
1 10 -7 1986.28 671.057 2
-1 -10 -7 2055.2 592.792 1
-7 -10 1 2086.46 765.903 2
1 10 -7 1612.92 467.343 1
-10 1 -7 1476.26 416.838 1
7 -10 -1 862.694 537.666 2
-1 -7 10 1640.76 532.7 1
-10 -1 7 4072.97 848.785 4
10 -7 1 1923.31 413.012 1
-10 -7 -1 2168.22 636.38 4
-10 7 1 1774.09 578.628 2
10 -1 -7 1475.06 339.535 1
-7 -1 -10 1361.86 547.006 4
-7 -10 1 1959.19 568.44 1
-7 10 -1 1973.7 719.212 2
10 7 -1 1778.58 461.928 2
-10 -7 -1 1181.9 408.209 1
-1 -10 -7 2569.2 559.029 3
1 -10 7 1847.82 527.025 1
1 -10 7 1845.16 650.241 2
-1 -7 10 1240.82 482.099 2
-1 7 -10 1880.67 566.243 2
7 1 -10 1327.18 405.584 1
7 10 1 1545.18 661.849 4
7 10 1 1022.07 450.668 2
-10 -7 -1 1497.59 460.878 3
7 -1 10 1265.68 417.945 2
7 10 1 1124.23 467.479 1
-1 7 -10 1732.54 528.467 1
10 -7 1 2057.1 704.971 2
1 7 10 2510.36 576.898 3
10 1 7 2334.75 644.705 3
-10 7 1 1685.07 381.285 1
10 7 -1 1235.83 553.783 4
-10 -7 1 2465.62 691.489 3
-10 -1 -7 4402.2 876.41 4
1 -10 -7 1266.68 506.465 1
10 -1 7 1260.77 376.034 2
-1 10 -7 1744.48 512.4 1
-10 -7 1 2159.26 616.752 4
1 -10 -7 2012.29 441.115 3
-10 -7 1 1658.86 478.979 2
1 7 -10 1816.76 504.199 1
7 -1 -10 1323.79 406.001 1
-7 1 -10 1670.35 473.829 1
-10 -7 1 1503.9 467.407 1
7 10 -1 1966.77 641.817 2
-7 -10 -1 1434.89 499.47 1
-7 10 1 1729.74 458.123 1
10 7 1 1615.02 438.551 2
-7 10 1 1047.95 586.876 2
7 10 -1 1418.14 492.151 1
-1 10 -7 1619.07 572.287 2
-1 -10 7 1912 693.588 2
-1 -10 7 1609.79 476.9 1
7 -10 1 1722.69 801.946 2
-10 7 -1 1759.72 408.168 1
10 7 1 3058.18 748.619 4
-7 -1 10 3308.93 532.591 4
10 7 1 1603.79 442.316 1
1 -7 10 1862.22 636.06 2
7 10 -1 2391.56 680.368 4
-7 -10 -1 1974.1 604.87 3
10 -7 -1 1639.73 648.738 2
1 -7 10 1986.27 586.975 1
1 7 -10 1834.42 558.315 2
10 -7 -1 1597.7 373.563 1
1 10 7 2679.61 561.086 3
-10 7 -1 1896.86 615.522 2
10 -7 -1 2320.48 408.75 3
7 -10 1 1351.19 430.543 1
10 1 -7 1599.23 376.073 1
-3 10 -7 158.203 187.948 2
-7 -10 -3 131.57 228.096 1
3 -10 -7 284.895 278.909 1
-7 3 -10 -72.8817 141.693 1
-7 10 3 162.277 216.612 1
-3 10 -7 5.81377 122.998 1
7 -10 3 -0.65491 123.192 1
-7 -3 10 141.228 217.941 1
-10 -7 3 288.005 207.864 2
7 -10 3 24.4651 252.124 2
-10 -3 -7 -196.778 253.765 4
3 -7 10 94.6366 255.908 2
-3 -10 7 192.664 180.916 2
7 10 -3 1.61305 159.039 2
10 3 -7 108.123 94.6216 1
7 10 -3 104.585 226.915 1
-10 7 -3 -20.9947 190.861 2
-3 -10 7 234.391 302.445 1
3 -7 10 245.693 251.089 1
10 -3 7 -65.3936 140.952 2
3 10 7 827.136 355.502 3
3 7 -10 -122.7 169.237 1
10 -7 -3 506.373 144.398 3
7 10 -3 372.328 372.079 4
-7 10 3 119.181 302.661 2
-10 -7 3 483.123 319.052 4
3 7 -10 -121.203 135.705 2
-7 -3 10 -182.756 134.211 2
-7 -10 -3 409.37 261.91 3
-10 -7 3 -28.5451 203.59 1
-10 7 -3 92.313 123.81 1
10 -7 -3 -61.3149 96.1663 1
10 7 3 802.424 394.455 3
-7 10 5 963.151 512.541 2
-7 -5 10 1092.6 473.468 1
-10 -7 5 1104.62 336.337 2
5 -7 10 1536.73 530.709 1
5 -10 -7 1289.24 400.963 1
7 5 10 2312.48 705.634 3
-10 7 -5 1234.69 413.441 1
10 5 -7 1549.27 439.135 1
10 7 5 1335.53 445.098 3
-7 -10 -5 1145.21 410.148 1
5 7 -10 1803.21 509.85 1
10 -5 7 1262.44 514.866 2
5 7 -10 1752.63 536.271 2
10 5 -7 1036.59 498.741 4
-7 5 -10 1732.34 523.35 1
7 5 10 2401.16 738.117 4
-10 -7 5 1302.42 415.47 1
-5 -10 7 1645.72 639.931 2
10 -5 7 1066.85 427.824 1
-5 10 -7 1206.3 496.502 2
-7 5 -10 1282.37 499.57 2
7 10 -5 1606.74 500.355 1
-5 -10 7 1484.32 529.376 1
-10 7 -5 1714.7 536.462 2
7 10 -5 1382.91 529.083 2
-7 -5 10 1811.56 556.547 2
7 -10 5 1631.98 777.464 2
-5 10 -7 1337.15 470.361 1
-10 -5 -7 1035.42 475.909 4
5 10 7 1317.07 475.626 3
5 10 7 1875.64 712.561 4
-10 -7 5 1615.04 499.02 4
7 10 -5 1134.76 573.946 4
10 -7 -5 1159.13 346.159 1
-7 -10 -5 1285.04 487.963 3
7 -10 5 1394.67 479.93 1
10 -7 -7 2311.5 493.526 1
-7 -7 10 3075.54 739.726 2
7 -10 -7 3126.66 660.606 1
7 10 -7 3781.66 854.823 2
7 10 -7 2152.4 776.854 4
7 10 7 2254.05 648.426 3
7 -7 10 3016.53 753.538 1
7 10 -7 3738.85 786.814 1
10 7 7 3299.81 811.909 3
10 7 -7 3335 721.878 1
-7 -10 7 2936.05 819.236 2
-7 10 -7 3198.39 751.082 1
10 -7 7 2764.79 818.618 2
10 7 -7 2883.82 778.895 4
-10 -7 7 3535.02 724.82 2
-7 -7 10 2830.64 807.756 1
-10 7 -7 2772.34 597.562 1
7 7 -10 3288.19 796.243 1
7 7 -10 2567.54 564.299 4
7 7 10 1410.23 659.989 4
-10 -7 7 3159.04 711.444 1
-10 7 -7 2852.05 732.788 2
10 -7 7 3351.51 749.599 1
7 7 10 2470.9 767.679 3
-7 -10 -7 2988.26 692.59 1
7 7 -10 3502.67 770.944 2
-10 -7 -7 2608.43 706.656 4
-7 -7 -10 2958.45 694.836 4
10 7 -7 2896.68 619.43 2
-10 -7 7 1886.95 534.195 4
-7 7 -10 3247.52 804.574 2
-7 7 -10 2587.58 690.504 1
-7 -10 7 3117.28 729.763 1
-7 10 -7 2425.9 767.749 2
7 -10 7 3215.13 747.815 1
-6 10 8 2296.65 294.744 3
-8 -6 -10 3043.16 698.869 4
-6 -10 -8 3837.79 801.59 1
8 -10 -6 3985.9 744.246 1
-10 -6 8 3581.17 767.12 1
-10 6 -8 3482.69 769.631 2
-10 -6 8 2962.27 674.279 4
-6 -8 10 4080.25 936.474 2
10 8 -6 3143.42 885.533 4
10 8 -6 4564.43 807.745 1
6 10 -8 4675.18 939.421 2
-6 -8 10 3801 877.646 1
10 8 -6 4667.69 794.543 2
-8 -10 6 4175.11 932.523 2
8 10 6 3606.63 800.858 3
6 -10 8 4321.16 860.477 1
-10 8 6 2293.03 760.778 2
-8 10 -6 5490.72 934.027 1
8 6 -10 2186.74 537.884 4
10 -8 6 4108.23 946.892 2
-8 10 -6 3845.56 987.011 2
-10 -8 -6 3877.9 747.121 1
6 8 10 3419.67 813.815 3
-8 -10 6 4480.19 889.65 1
10 -8 6 4277.25 804.227 1
-6 8 -10 4511.87 931.568 2
-10 -8 -6 3402.9 750.911 4
8 6 -10 5018.3 860.052 1
6 8 10 2942.69 810.654 4
-10 -6 8 3373.27 694.931 2
8 -6 10 4154.55 878.251 1
-10 6 -8 4462.15 808.337 1
10 6 8 4221.43 978.531 3
-10 8 4 3577.57 893.765 2
10 8 -4 4753.54 800.897 1
-10 4 -8 5011.75 809.315 1
-4 -8 10 5067.14 1021.53 1
-10 4 -8 5086.01 854.585 2
-10 -4 8 2351.05 610.706 4
-8 10 -4 5232.47 863.942 1
10 8 -4 3388.14 889.511 4
10 8 -4 5084.49 802.099 2
-4 -8 10 4520.37 958.831 2
8 -4 10 5912.23 980.206 1
4 -10 8 5746.16 994.484 1
4 10 -8 5131.55 1002.28 2
-4 10 8 4040.55 499.611 3
8 -4 10 4431.35 862.56 2
8 10 4 4145.21 853.538 3
-10 -4 8 4245.58 753.713 1
-8 -10 4 5151.43 943.778 1
-4 8 -10 5381.12 1001.11 2
-8 10 -4 4348.97 986.928 2
8 10 4 4329.28 928.743 2
-8 -4 -10 4500.13 845.808 4
-4 -10 -8 1964.97 526.818 3
-4 -10 -8 4021.59 811.8 1
4 8 10 2566.21 771.011 4
8 4 -10 2136.1 484.673 4
-10 -8 -4 2959.05 730.191 4
-10 -8 -4 4581.47 792.758 1
8 -10 -4 5132.58 800.095 1
10 4 8 2450.19 649.726 4
4 8 10 3568.22 829.019 3
-10 -4 8 4407.62 725.55 2
10 -8 4 4825.3 774.236 1
10 4 8 3865.59 906.519 3
8 4 -10 4669.22 808.603 1
-8 -10 4 5352.1 1051.43 2
10 -8 4 4706.32 1051.75 2
-2 -10 -8 3744.97 810.531 1
-10 -2 8 2200.23 598.187 4
-2 8 -10 4619.32 914.622 2
2 8 10 2520.1 600.344 3
-10 8 2 3381.49 808.841 2
8 -10 -2 3872.76 685.599 1
10 -2 -8 4348.8 601.628 1
2 8 10 2464.43 691.104 4
10 8 -2 3544.73 690.196 2
-8 10 -2 3824.15 718.002 1
8 10 2 3200.84 788.695 2
8 2 -10 4344 732.62 1
-8 -10 2 3603.34 839.375 2
-2 -10 -8 2662.64 589.514 3
10 -8 2 3480.96 917.51 2
2 10 -8 5010.51 1013.51 2
-10 8 2 3873.39 656.27 1
-2 -8 10 4353 884.533 1
-8 10 -2 3424.21 851.429 2
-10 -8 -2 3601.82 753.357 1
8 -2 10 4178.3 819.258 2
8 -10 -2 3206.6 957.098 2
8 10 2 3653.6 751.292 1
-10 2 -8 3419.73 659.515 1
10 -8 2 4083.88 664.581 1
-10 -2 8 4478.97 720.911 2
-2 -8 10 2939.34 745.292 2
-2 10 8 2802.79 505.153 3
10 8 -2 2488.93 760.85 4
-10 -8 -2 2388.18 687.198 4
-8 -10 2 3922.35 790.987 1
10 2 8 3185.71 790.617 3
2 -10 8 3403.39 808.578 1
-8 -2 -10 3017.16 751.803 4
-10 -2 8 3948.06 687.371 1
10 8 -2 4320.96 723.861 1
-8 10 0 4416.31 1012.2 2
-10 8 0 5585.48 1059.52 2
-8 -10 0 4823.69 909.753 1
-10 0 -8 2488.23 727.802 4
-8 0 -10 5416.71 861.928 1
0 -8 10 6218.01 1076.73 1
10 -8 0 4424.29 1032.41 2
-8 10 0 5958.4 889.623 1
-10 -8 0 5174.43 855.667 1
10 0 -8 5366.41 701.539 1
-10 8 0 5952.67 767.94 1
8 -10 0 5625.59 849.348 1
8 10 0 4556.76 898.403 2
0 10 -8 4821.62 976.586 2
-10 0 -8 5393.84 826.974 1
10 -8 0 5657.56 753.574 1
10 8 0 4619.69 779.815 2
10 8 0 4645.49 811.761 1
0 -10 -8 4771.27 861.123 1
0 8 -10 5432.3 954.48 2
-8 0 10 2502.58 493.016 4
8 0 -10 5591.95 805.634 1
8 -10 0 5489.36 1139.89 2
-10 0 8 3156.9 683.601 4
-8 -10 0 4137.23 906.348 2
-10 -8 0 2211.55 651.198 4
10 0 8 4674.88 755.588 2
-8 0 -10 2352.07 619.763 4
0 -10 8 5083.21 928.746 1
0 8 10 3310.49 650.594 3
8 10 0 5196.24 868.486 1
0 10 8 4485.77 725.335 3
10 -8 -2 4510.5 640.104 1
10 8 2 3140.59 660.12 2
8 -10 2 3642.35 714.185 1
-2 10 -8 3853.48 922.715 2
-10 8 -2 4783.38 709.499 1
8 10 -2 4027.05 817.324 1
-10 -8 2 3752.3 733.713 2
-8 10 2 2758.01 802.582 2
8 -10 2 3573.55 894.881 2
-8 -2 10 2473.33 488.671 4
-8 -2 10 3787.53 767.065 1
-2 -10 8 3961.17 944.467 2
2 10 8 2513.48 610.713 3
8 -2 -10 3925.61 656.35 1
-8 10 2 4216.58 741.226 1
10 -2 8 3766.98 711.847 2
8 10 -2 3087.45 751.226 2
-10 8 -2 3976.73 870.807 2
2 -8 10 4235.06 863.218 1
10 8 2 3507.61 710.551 3
2 -10 -8 3422.67 729.013 1
-8 2 -10 3917.32 750.387 1
8 10 -2 1951.9 826.08 4
-10 -8 2 3221.53 681.08 1
10 -8 -2 3075.28 395.225 3
-2 8 10 2147.8 497.177 3
-2 -10 8 4316.09 895.305 1
-10 -8 2 2499.17 658.44 4
10 8 2 3442.45 659.18 1
-8 -10 -2 3640.02 783.306 1
10 2 -8 3574.45 615.014 1
-10 -2 -8 2764.43 787.63 4
2 8 -10 4363.9 880.961 2
4 10 8 3475.51 744.609 3
-8 4 -10 5685.56 912.752 1
-10 -8 4 4589.42 853.966 2
8 10 -4 6141.26 966.967 1
8 -10 4 5496 892.039 1
-8 10 4 3594.25 989.027 2
4 -8 10 5307.66 1003.54 1
-10 8 -4 4205.8 914.669 2
-10 8 -4 5675.68 816.972 1
10 -4 8 5423.45 857.051 1
10 8 4 3194.77 751.015 3
10 -4 8 5047.53 917.725 2
-4 10 -8 5189.15 1049.91 2
8 -10 4 4695.46 1080.74 2
-10 -8 4 3783.14 781.767 4
-8 -4 10 4716.29 859.558 1
-8 -4 10 5213.38 910.216 2
8 10 -4 5410.4 983.619 2
-4 -10 8 4632.97 968.34 2
-10 -8 4 5284.39 855.513 1
-10 -4 -8 3346.85 829.966 4
-4 -10 8 5379.04 964.15 1
-8 10 4 5435.83 847.308 1
10 4 -8 5286.19 780.493 1
4 10 8 2258.61 688.605 4
8 10 -4 1900.49 640.918 4
-8 -10 -4 5101.23 917.897 1
4 -10 -8 4453.66 794.996 1
8 4 10 3322.15 809.003 4
8 4 10 3453.8 799.888 3
4 8 -10 4763.83 908.277 2
10 -8 -4 4562.82 672.977 1
6 8 -10 4838.88 950.15 2
-8 6 -10 4212.57 854.07 1
-10 -8 6 4151.65 844.856 2
-10 -6 -8 2866.28 753.091 4
10 -6 8 5163.48 861.348 1
8 6 10 2500.75 850.718 4
6 10 8 3282.73 766.549 3
8 10 -6 4371.84 886.354 1
8 10 -6 4802.52 934.633 2
-8 -6 10 4216.52 861.603 1
-8 -6 10 4299.34 843.937 2
6 -8 10 5044.29 984.531 1
8 10 -6 3949.82 1046.45 4
-6 -10 8 4104.96 877.16 1
6 8 -10 2005.04 545.969 4
-8 -10 -6 4122.34 824.629 1
6 -10 -8 4121.54 765.633 1
10 6 -8 4655.53 804.609 1
-8 6 -10 4570.7 904.786 2
-10 8 -6 4906.42 793.867 1
8 6 10 3947.66 924.246 3
10 -6 8 4419.33 909.365 2
8 -10 6 4476.89 858.808 1
-10 8 -6 3765.89 872.318 2
10 6 -8 2917.68 640.137 4
-6 10 -8 4263.73 934.615 2
-10 -8 6 4563.37 835.458 1
10 -8 -6 4001.64 641.084 1
-8 10 6 2608.64 859.382 2
-6 -10 8 3997.51 951.983 2
10 8 6 3896.56 869.189 3
8 10 8 1106.73 581.515 3
10 -8 -8 1177.13 354.846 1
8 8 -10 1447.17 497.741 2
-10 -8 8 1597.43 547.966 1
10 8 -8 1856.43 583.213 1
-8 -10 -8 1487.89 554.513 1
8 -8 10 1997.13 626.238 1
8 -10 -8 1277.14 454.854 1
10 8 -8 411.969 447.138 4
-8 -10 8 1877.33 674.998 2
10 -8 8 1532.63 550.535 1
8 -10 8 1634.5 595.143 1
-10 -8 -8 1583.07 563.122 4
-8 -8 10 1536.94 610.393 1
-10 -8 -8 1166.41 411.775 1
-10 8 -8 1988.9 590.689 1
-10 -8 8 1535.46 497.487 2
-8 -8 10 1778.95 613.338 2
8 8 -10 1442.01 579.807 4
-8 -8 -10 1018.36 448.057 4
-10 8 -8 1653 615.868 2
10 8 8 2084.75 772.608 3
8 10 -8 1263.73 509.208 4
-8 8 -10 1510.41 598.501 2
10 8 -8 1819.71 550.869 2
-8 -10 8 1182.55 504.34 1
8 10 -8 1902.58 641.376 2
8 8 10 1494.88 643.508 3
-8 10 -8 1559.19 650.143 2
-10 7 -9 1352.45 515.313 2
10 9 -7 2373.43 824.253 4
-10 -9 -7 1555.16 487.657 1
-7 -9 10 1370.66 546.981 1
7 -10 9 978.541 517.307 1
9 7 -10 1838.81 578.285 1
-10 -7 9 1609.55 511.764 1
9 10 7 1709.91 561.151 3
10 -9 7 991.612 406.691 1
-9 -10 7 1819.18 583.095 2
9 -7 10 1652.24 515.967 1
-9 -10 7 1596.7 573.277 1
-7 -9 10 1423.42 531.563 2
-7 9 -10 1774.57 651.4 2
7 10 -9 1813.63 622.857 2
9 -10 -7 1560.2 468.084 1
9 7 -10 1509.03 581.72 4
-9 10 -7 1259.7 524.666 2
-10 7 -9 1616.97 496.808 1
-7 -10 -9 1870.78 544.042 1
10 9 -7 1471.58 501.476 2
-9 10 -7 1580.42 560.482 1
-9 -7 -10 974.251 318.962 4
7 10 -9 1301 637.975 4
-10 -9 -7 1167.18 490.359 4
10 9 -7 1705.7 562.255 1
10 7 9 1565.6 661.804 3
7 9 10 2675.38 831.769 3
-7 10 9 898.665 197.15 3
-10 -7 9 1795.43 568.502 2
10 9 -5 2786.45 632.644 1
-10 -9 -5 1512.54 496.377 1
-10 9 5 1544.74 600.344 2
-10 -5 9 1509.56 459.09 4
-5 -9 10 1651.75 662.644 1
5 -10 9 3008.31 754.315 1
-10 5 -9 2797.03 652.847 1
-10 -9 -5 1973.67 607.558 4
10 9 -5 3159.03 721.891 2
9 -10 -5 2200.16 550.252 1
9 10 5 2380.66 680.043 3
10 -9 5 2499.59 822.853 2
5 9 10 1536.57 635.559 4
10 9 -5 3584.44 789.319 4
-5 -10 -9 2577.28 683.982 1
-9 10 -5 2664.05 814.76 2
-9 -5 -10 2975.53 778.034 4
5 9 10 3062.24 805.288 3
-10 -5 9 2840 640.981 2
5 10 -9 2948.74 793.324 2
9 -5 10 2602.02 672.873 1
-5 9 -10 2646.15 734.579 2
-9 -10 5 2322.19 635.29 1
-9 -10 5 2164.83 677.92 2
9 -5 10 2531.04 665.804 2
9 5 -10 2330.72 614.77 1
-10 -5 9 2259.51 527.718 1
-10 5 -9 2003.93 570.405 2
-9 10 -5 2196.38 571.154 1
9 5 -10 854.602 285.965 4
-5 10 9 1593.6 277.333 3
10 5 9 3889.05 980.445 3
10 -9 5 2277.95 602.263 1
-3 -10 -9 2369.9 636.862 1
9 10 3 1509.75 464.04 3
9 3 -10 3451.2 658.088 1
-3 10 9 2258.68 463.788 3
9 10 3 2500.52 669.879 2
-3 -9 10 3447.07 827.159 1
-10 9 3 1338.25 669.088 2
-10 -9 -3 1898.32 556.9 1
9 10 3 2652.83 663.002 1
10 -9 3 3275.09 974.094 2
-10 -9 -3 1193.63 455.964 4
10 9 -3 2610.33 617.595 1
9 -10 -3 2954.87 628.17 1
-9 10 -3 3171.87 877.681 2
-10 -3 9 2621.06 608.137 1
10 9 -3 3132.54 694.68 2
-10 -3 9 1908.79 541.515 4
9 -3 10 2781.11 702.94 2
-9 10 -3 3001.66 636.806 1
3 -10 9 2433.95 669.201 1
-10 9 3 3518.28 635.967 1
3 10 -9 3393.09 833.293 2
-3 9 -10 3059.28 779.119 2
-9 -3 -10 1725.49 622.998 4
3 9 10 1927.13 654.655 4
-10 -3 9 3163.31 658.341 2
-10 3 -9 3083.79 657.782 1
10 3 9 3474.05 880.021 3
3 9 10 2429.96 625.202 3
10 -9 3 3085.77 637.803 1
-9 -10 3 2700.08 736.009 2
-9 -10 3 2774.37 727.391 1
-1 -9 10 3678.67 853.474 1
-9 -10 1 4741.22 988.18 2
1 -10 9 4084.17 865.802 1
9 10 1 2971.38 683.188 1
9 -10 -1 2925.42 947.722 2
9 -10 -1 3762.45 682.488 1
10 -9 1 2562.32 821.953 2
-1 9 -10 3542.35 823.102 2
9 10 1 3246.99 758.831 2
9 1 -10 3738.3 696.337 1
-10 9 1 2873.12 816.99 2
10 9 -1 2686.31 666.761 2
-9 10 -1 3442.1 872.335 2
-9 -1 -10 2881.76 702.476 4
-10 -9 -1 3229.53 720.668 4
-10 -9 -1 2945.65 649.887 1
-9 -10 1 3168.23 741.359 1
-10 -1 9 891.777 436.895 4
1 10 -9 4151.5 909.046 2
-1 -10 -9 3759.11 789.923 1
10 -1 -9 3425.56 581.022 1
-9 10 -1 4077.86 730.691 1
-1 10 9 2825.78 523.487 3
10 9 -1 3434.41 689.783 1
9 -1 10 3266.6 726.394 2
10 -9 1 3592.13 654.684 1
1 9 10 2831.15 658.652 3
-10 9 1 3765.62 659.577 1
-10 1 -9 3694.7 711.484 1
-10 -9 1 4081.36 844.938 2
10 -9 -1 2972.02 945.796 2
10 1 -9 3716.11 651.92 1
10 -9 -1 3509.3 638.516 1
10 9 1 3755.58 758.009 2
9 -1 -10 3509.47 633.683 1
-10 -9 1 2911.01 705.299 4
-9 10 1 3664.74 913.367 2
-1 9 10 2474.48 565.578 3
9 10 -1 2953.22 724.061 2
1 -9 10 3679.94 835.83 1
-10 9 -1 3624.99 665.031 1
9 -10 1 3445.04 697.93 1
-10 9 -1 2802.64 781.753 2
9 -10 1 2400.86 895.145 2
1 9 -10 3554.38 845.232 2
1 -10 -9 3110.5 731.045 1
10 9 1 3937.15 736.661 1
-10 -9 1 3000.08 706.098 1
-9 -1 10 1432.91 421.986 4
-9 10 1 3530.26 706.408 1
10 -1 9 3360.71 726.812 2
-1 10 -9 3302.4 858.577 2
-10 -1 -9 3993.32 882.203 4
-9 1 -10 3667.12 707.381 1
-1 -10 9 3439.86 792.615 1
-9 -10 -1 2846.15 754.547 1
9 10 -1 3164.61 694.555 1
1 10 9 2599.53 598.613 3
3 -10 -9 2814.87 671.434 1
9 10 -3 3050.67 734.911 1
-9 3 -10 2733.88 643.598 1
-9 -10 -3 2319.42 628.485 1
10 3 -9 2834.29 613.176 1
-9 10 3 2076.08 707.276 2
9 -10 3 3045 949.057 2
-9 -3 10 2524.45 637.906 1
9 -10 3 2922.9 650.595 1
3 10 9 2857.29 827.744 4
3 -9 10 2879.47 771.182 1
9 10 -3 2722.77 728.505 2
10 -9 -3 2504.86 528.895 1
-10 9 -3 2795.28 774.665 2
9 3 10 2503.36 753.51 3
-10 9 -3 2660.89 576.098 1
10 -3 9 2790.73 655.8 2
-9 10 3 3284.86 678.575 1
10 9 3 2005.68 588.742 2
-10 -3 -9 2797.24 733.926 4
-10 -9 3 3568.73 815.307 2
-3 10 -9 2976.39 809.657 2
-9 -3 10 2509.87 543.957 4
10 9 3 2188.69 605.19 3
-3 9 10 1431.42 418.692 3
-9 -3 10 3139.62 692.361 2
3 9 -10 2995.83 747.261 2
-10 -9 3 2764.41 663.105 1
-3 -10 9 3020.55 728.846 1
3 10 9 1850.99 468.295 3
10 5 -9 2314.92 578.76 1
5 -10 -9 2445.16 579.451 1
9 5 10 1974.02 715.95 4
10 -5 9 2785.83 742.576 2
5 9 -10 3260.64 772.396 2
-9 10 5 1982.96 800.669 2
-9 -10 -5 2175.69 611.914 1
-10 -9 5 2033.61 584.592 1
-10 -5 -9 3085.72 801.925 4
-10 9 -5 2424.08 545.294 1
10 -5 9 2077.55 549.395 1
-10 -9 5 2545.61 697.566 2
10 -9 -5 2066.82 443.59 1
-5 -10 9 2134.77 635.737 1
-9 5 -10 2156.53 613.91 1
10 5 -9 1706.11 468.562 4
-9 5 -10 1985.21 590.652 2
-9 -5 10 2758.43 629.482 2
9 10 -5 2807.76 732.304 2
-5 10 -9 2831.72 792.593 2
5 -9 10 2465.26 706.924 1
-10 9 -5 1885.57 662.363 2
5 10 9 1830.01 532.196 3
9 10 -5 3055.36 704.525 1
9 -10 5 2041.22 581.263 1
-5 9 10 1394.47 311.824 3
9 5 10 2914.93 824.464 3
-9 -5 10 2124.17 580.462 1
10 9 5 3649.96 821.143 3
10 9 7 1571.82 574.614 3
10 7 -9 2005.85 564.186 1
-9 -10 -7 1324.1 480.711 1
9 -10 7 1709.28 549.096 1
-10 9 -7 1590.97 490.315 1
9 10 -7 2378.07 680.759 2
-9 10 7 1066.36 573.847 2
-9 -7 10 1343.41 526.688 2
7 10 9 1877.46 681.412 3
-7 9 10 571.592 179.535 3
-10 9 -7 2069.93 649.14 2
10 -7 9 1816.79 569.979 1
-7 -10 9 1175.08 524.325 1
-10 -9 7 1892.08 604.009 2
-10 -7 -9 767.805 393.802 4
-7 -10 9 1257.98 592.699 2
-7 10 -9 1361.57 575.723 2
9 10 -7 1179.48 678.928 4
-10 -9 7 1016.16 439.982 1
10 7 -9 208.53 317.547 4
7 -9 10 2090.88 646.428 1
10 -9 -7 1046.29 377.863 1
7 -10 -9 1482.51 535.516 1
7 9 -10 1718.29 630.973 4
7 9 -10 2004.74 663.783 2
9 7 10 1436.09 631.683 3
-9 7 -10 1397.05 484.666 2
-9 7 -10 1652.7 534.626 1
-9 -7 10 1581.65 512.419 1
10 -9 -9 212.104 254.848 1
9 9 -10 2.56722 187.411 2
10 9 9 -67.9979 283.548 3
-10 9 -9 -20.6929 161.602 2
-9 -9 10 26.3599 161.945 1
-9 -9 -10 97.8459 259.932 4
-10 -9 -9 1790.3 633.491 4
10 9 -9 1002.88 628.927 4
-9 10 -9 142.355 313.109 2
9 10 -9 300.693 367.94 2
-9 -10 9 -80.6345 417.543 2
-10 -9 9 29.7464 182.862 2
9 -10 9 -59.4207 162.419 1
-9 -9 10 -149.18 237.642 2
9 9 -10 -260.796 503.807 4
-9 9 -10 -61.855 179.812 2
-10 -9 9 -16.8372 163.588 1
9 -10 -9 -0.83554 145.129 1
-10 -9 -9 337.305 318.312 1
9 10 -9 327.242 276.551 4
-9 -10 -9 166.417 234.816 1
10 9 -9 215.063 263.06 2
10 -9 9 480.29 361.406 1
-9 -10 9 10.8102 296.332 1
9 -9 10 77.919 255.379 1
9 9 10 -202.588 343.291 3
9 10 9 389.449 410.506 3
0 10 -10 1102.44 522.207 2
0 -10 10 1556.8 563.06 1
10 -10 0 494.15 388.644 2
10 0 -10 1017.23 362.88 1
-10 10 0 1242.73 396.57 1
10 10 0 990.203 403.512 2
-10 10 0 940.996 499.21 2
-10 -10 0 714.102 390.151 1
-10 0 10 1591.8 518.217 4
-10 0 -10 234.506 309.114 4
-10 0 -10 915.916 367.681 1
10 0 10 824.367 388.499 2
10 10 0 719.649 340.812 1
0 10 10 923.104 375.879 3
10 -10 0 1279.28 413.934 1
10 10 2 6114.63 1028.77 2
-10 10 -2 7788.29 1022.11 1
10 -10 -2 5479.24 1174.64 2
10 -2 -10 7659.88 901.565 1
10 10 -2 7834.13 1156.36 2
-10 10 -2 6611.92 1237.48 2
10 2 10 5723.4 1111.13 3
10 2 -10 7470.09 976.213 1
10 -10 -2 7879.39 966.531 1
-10 10 2 8786.67 1045.63 1
-10 2 -10 7251.21 1031.08 1
-10 -10 2 7122.12 1131.69 1
-10 -2 10 9412.89 1143.64 1
-2 10 -10 7313.69 1225.14 2
2 10 -10 7374.12 1236.75 2
10 -2 10 6862.14 1075.84 2
-2 -10 10 7386.8 1192.75 1
10 -10 2 7743.71 1029.52 1
10 -10 2 6321.92 1421.37 2
-10 -2 -10 3977.64 910.866 4
-10 -2 10 4384.23 821.503 4
-10 -10 -2 7517.89 1113.57 1
10 10 2 7736.42 1074.41 1
2 -10 10 8444.31 1297.3 1
10 10 -2 8561.89 1124.29 1
-10 -10 2 6747.42 1176.83 2
-10 10 2 6315.41 1257.37 2
-2 10 10 4780.76 716.478 3
2 10 10 6013.04 952.632 3
-10 10 4 10944.8 1208.21 1
-10 10 4 9546.04 1568.52 2
10 10 -4 11025.4 1362.13 1
10 -10 4 10999.7 1804.7 2
-10 -10 4 12135.2 1561.49 2
10 -10 4 11182.1 1316.89 1
-10 -4 -10 9257.02 1439.96 4
4 -10 10 12595.4 1598.7 1
-10 10 -4 10277.7 1564.91 2
10 10 -4 11722.4 1453.61 2
-10 10 -4 11414.3 1278.27 1
-10 4 -10 10314 1272.14 1
10 -10 -4 10871.5 1157.41 1
4 10 10 9508.65 1527.85 4
10 -4 10 10384.6 1395.05 2
-4 10 -10 11147.6 1627.65 2
4 10 10 10659.3 1416.77 3
4 10 -10 10917.6 1489.1 2
-10 -4 10 10270.6 1255.97 2
10 10 4 8921.06 1335.15 2
-10 -10 4 10707.6 1379.67 1
-4 -10 10 11450 1569.39 1
-10 -4 10 7561.1 1041.2 4
-4 10 10 7995.86 856.137 3
10 4 -10 10891.7 1236.9 1
10 10 4 9112.51 1310.09 3
10 4 10 12204.8 1707.01 3
-10 -4 10 12817.9 1406.89 1
-10 -10 -4 10663.7 1377.05 1
-10 -10 -4 8248.61 1217.4 4
-10 10 6 425.347 509.986 2
10 10 6 422.978 278.812 3
-6 -10 10 568.371 372.63 1
10 -10 -6 342.12 210.556 1
-10 -6 10 550.592 260.218 2
10 6 10 939.274 501.364 3
10 10 -6 396.51 289.56 1
-10 -6 10 337.243 248.801 1
10 -6 10 421.571 212.292 1
10 10 -6 403.48 333.934 2
-10 -10 6 325.121 253.584 2
-10 -10 6 549.534 298.12 1
10 6 -10 556.47 371.572 1
6 10 -10 620.047 384.751 2
6 -10 10 588.248 404.398 1
-10 10 -6 102.728 206.919 2
6 10 10 309.327 341.599 3
-10 -10 -6 430.478 240.118 1
-10 6 -10 360.14 313.508 2
-10 10 -6 448.482 328.829 1
-10 -6 -10 1171.77 507.529 4
-6 10 -10 406.533 323.665 2
-10 -10 -6 920.752 462.621 4
10 -10 6 884.82 401.185 1
-6 10 10 29.3376 145.027 3
-10 6 -10 360.545 261.853 1
10 6 -10 -262.261 357.784 4
6 -10 -10 543.692 313.472 1
-8 -10 10 -200.837 392.278 1
10 10 -8 666.936 397.207 2
10 10 8 624.622 274.342 3
10 -10 8 89.0243 268.327 1
10 -8 10 142.351 252.845 1
-10 -8 -10 421.245 392.41 4
-10 -10 8 490.486 396.167 2
-10 -8 10 195.137 212.021 1
-10 10 -8 -225.095 398.837 2
10 -10 -8 -39.6827 189.073 1
-10 -10 8 244.191 369.647 1
-8 10 -10 46.7879 203.162 2
8 -10 10 543.166 348.906 1
8 10 -10 -125.091 346.374 4
8 -10 -10 176.025 264.364 1
10 8 -10 322.659 256.047 4
-10 -10 -8 223.796 305.976 1
8 10 -10 410.744 360.673 2
-10 -10 -8 -21.6699 344.707 4
8 10 10 165.815 378.991 3
-10 -8 10 104.931 210.631 2
-10 8 -10 30.7285 214.828 2
10 8 -10 -38.1032 198.984 2
-8 10 10 159.058 100.103 3
10 8 10 1316.53 674.001 3
-8 -10 -10 -140.985 232.859 1
-10 -10 10 11065.9 1631.73 2
-10 -10 -10 8867.97 1327.28 1
10 -10 10 13262.3 1714.58 1
-10 10 -10 10762.2 1660.63 2
10 10 -10 12610.3 1584.92 2
10 10 -10 7048.98 1320.77 4
10 -10 -10 10423.7 1237.85 1
10 10 10 10496.2 1651.23 3
-10 -10 10 12648.2 1673.67 1
-10 -10 -10 7751.11 1243.63 4
11 -1 0 501.076 192.828 2
11 1 0 1276.52 400.472 3
-11 1 0 231.378 105.013 2
-1 0 -11 1564.33 289.328 4
-11 -1 0 559.28 317.689 3
0 -11 -1 844.549 555.578 2
-1 -11 0 612.447 426.636 2
1 -11 0 922.142 599.201 2
-1 0 -11 336.386 191.02 1
0 -11 1 755.399 569.279 2
0 11 1 681.449 457.89 2
-1 -11 0 255.615 175.766 1
1 11 0 466.334 340.232 2
1 11 0 563.125 322.679 1
0 11 -1 374.617 382.039 2
11 -1 0 1182.61 378.353 3
-1 11 0 342.025 263.743 1
-1 11 0 -51.337 212.011 2
-11 0 -1 1335.81 405.147 3
1 -11 0 569.897 331.286 1
0 -11 1 223.48 157.61 1
11 0 -1 893.027 289.186 3
0 -11 -1 321.724 198.601 1
-11 0 1 959.469 360.968 3
0 1 -11 1177.32 220.718 4
-11 -1 0 1803.39 607.728 4
0 11 -1 501.721 276.793 1
-11 1 0 1118.67 354.381 3
1 0 -11 438.057 345.706 1
0 1 -11 706.114 338.153 1
0 11 1 813.864 425.44 1
11 0 1 1047.69 406.229 3
-1 -11 -2 6036.72 961.946 1
-11 -2 -1 5664.64 511.934 1
-2 11 -1 6501.62 911.908 1
-1 -11 -2 5610.92 1167.86 2
11 -2 1 6152.12 734.886 2
1 11 -2 6559.46 963.524 1
2 -11 -1 5866.77 924.722 1
-11 2 1 5281.07 594.629 2
1 11 -2 6041.58 1153.47 2
-2 -11 1 5792.26 963.533 1
11 2 -1 5364.74 789.479 3
-1 -2 11 6691.73 994.787 1
1 -11 2 5381.98 1122.56 2
11 1 2 4088.19 416.797 2
-2 -11 1 5968.08 1219.12 2
11 1 2 5939.07 885.646 3
1 2 11 6645.81 723.234 4
1 -11 2 5883.51 952.676 1
2 1 -11 6377.13 935.427 1
-11 1 -2 4930.38 447.766 1
-11 1 -2 5662.31 541.94 2
2 -11 -1 4462.63 1059.74 2
2 11 1 4273.41 981.817 2
-2 -1 -11 4598.77 564.25 4
-1 11 2 4230.38 997.314 2
-1 2 -11 6314.7 937.12 1
11 2 -1 4113 371.192 1
-11 -1 2 6025.16 1061.11 4
-11 -1 2 6191.75 854.516 3
-11 2 1 5862.93 730.34 3
-11 -2 -1 5142.44 826.978 3
-1 -11 -2 6547.05 872.438 3
11 -2 1 6362.37 851.354 3
-11 -2 -1 6127.61 1091.74 4
2 11 1 5713.49 924.567 1
11 -1 -2 5371.1 688.291 3
-2 11 -1 4450.14 1100.89 2
-1 11 2 6919.08 1001.88 1
11 2 1 4346.22 759.376 3
-2 -11 -1 4978.1 1113.62 2
-2 -11 -1 6385.15 1021.17 1
-11 -1 -2 5890.48 1048.18 4
2 -11 1 6232.81 1237.76 2
-11 1 2 4703.47 516.069 2
-1 -11 2 6285.59 1194.2 2
-1 11 -2 6480.49 938.104 1
2 11 -1 5371.51 1073.19 2
1 -11 -2 6563.34 988.587 1
-11 -1 -2 4817.91 762.431 3
11 -1 2 5168.17 612.159 2
-2 1 -11 5350.71 864.968 1
1 -11 -2 5125.84 1201.87 2
-11 -2 1 5144.23 810.457 3
1 -2 11 6132.87 991.974 2
1 11 2 4102.12 1003.13 2
2 -11 1 5410.19 900.513 1
-2 11 1 3836.19 1000.53 2
-11 -2 1 4175.83 900.803 4
-1 -11 2 5690.61 918.758 1
-2 11 1 6199.77 938.269 1
2 -1 -11 6193.28 916.815 1
-1 2 11 3887.59 461.102 4
1 2 -11 5794.93 877.211 1
2 11 -1 6096.79 942.529 1
-11 1 2 5337.93 726.801 3
-11 2 -1 5123.4 568.557 2
-11 -2 1 3946.86 399.297 1
11 -1 2 4880.3 800.631 3
1 11 2 5959.77 923.344 1
11 -2 -1 5460.99 687.16 3
-1 11 -2 4389.69 1035.56 2
-2 -3 11 1430.31 498.698 1
2 -11 3 789.755 467.36 2
-2 -11 -3 1295.84 448.412 3
-2 3 -11 1254.39 449.552 1
3 11 2 1157.73 466.025 1
-11 -3 -2 1429.63 568.177 4
-2 11 3 954.189 577.94 2
3 2 -11 1248.66 401.031 1
-11 2 -3 1167.92 270.459 1
-3 -11 2 1464.04 523.466 2
-11 3 2 1585.24 429.547 2
11 3 -2 1134.17 259.584 1
-11 -2 3 994.13 216.797 1
-2 -3 11 1362.68 472.307 2
-2 -11 -3 1351.06 488.743 1
3 -11 -2 653.768 539.549 2
11 -3 2 1755.46 485.883 2
-2 11 3 1541.17 497.569 1
-3 11 -2 1384.1 612.892 2
2 11 -3 734.784 387.771 2
3 -11 -2 937.59 408.583 1
2 11 -3 1310.89 440.582 1
-3 11 -2 1311.52 467.561 1
-11 -2 3 1899.51 583.795 3
-11 -2 3 1190.78 510.011 4
3 -2 11 1616.21 517.268 2
11 2 3 656.514 316.922 3
2 3 11 774.494 318.324 4
-3 -2 -11 626.53 295.551 4
2 -11 3 1053.56 372.414 1
-11 2 -3 1000.05 275.905 2
-3 -11 2 1648.04 556.807 1
-11 3 2 860.524 273.965 3
11 2 3 1313.67 270.535 2
3 11 2 886.551 484.012 2
11 -3 2 1638.15 505.532 3
-11 -3 -2 677.075 209.046 3
-11 -3 -2 1168.87 289.255 1
-11 0 3 70.0471 207.442 3
0 3 -11 504.978 307.901 1
0 -11 -3 359.799 209.555 3
-3 0 -11 100.816 228.009 1
0 11 3 318.754 289.169 1
11 -3 0 484.049 260.158 2
-3 -11 0 59.4667 177.157 1
3 -11 0 351.811 341.228 2
0 11 3 316.944 448.946 2
3 11 0 585.041 315.532 1
0 -11 3 310.371 237.986 1
3 11 0 -12.7689 215.065 2
0 -11 3 -43.4643 295.72 2
-3 11 0 -87.3135 234.761 2
0 3 11 173.457 160.247 4
0 -3 11 104.684 176.636 1
0 -11 -3 350.5 277.323 1
-3 11 0 304.236 239.415 1
3 -11 0 281.611 165.36 1
0 11 -3 -91.4078 269.99 2
11 0 3 502.615 423.77 3
-11 3 0 314.074 187.453 2
-11 -3 0 1213.38 473.543 3
-11 -3 0 186.743 132.417 1
11 3 0 993.188 376.959 3
-3 0 -11 494.929 249.37 4
0 11 -3 165.663 121.306 1
11 0 3 150.358 160.792 2
11 -3 0 -59.4818 200.905 3
3 0 -11 155.38 191.053 1
-11 -3 0 499.157 314.954 4
0 -3 11 387.661 249.937 2
-3 -11 0 763.093 449.123 2
-11 2 3 858.933 301.967 2
2 -11 -3 1029.32 276.232 3
-3 -11 -2 1055.55 463.686 3
-3 2 -11 1268.29 421.225 1
-11 -2 -3 2015.44 750.046 4
2 11 3 713.028 410.907 2
-11 -3 2 934.86 260.488 1
-11 3 -2 1409.53 376.389 2
-3 11 2 1741.81 691.85 2
-11 3 -2 1024.72 222.501 1
-2 -11 3 744.506 455.417 2
2 -11 -3 1199.11 404.79 1
-3 -11 -2 748.307 369.957 1
2 11 3 1066.05 427.997 1
-2 11 -3 1304.2 546.01 2
11 3 2 1064.82 428.163 3
11 -2 3 1233.12 372.751 2
3 11 -2 1711.75 497.129 1
11 2 -3 856.587 194.861 1
2 -3 11 1280.53 423.512 1
-2 11 -3 1361.53 446.162 1
11 -2 3 1515.03 486.471 3
-11 -3 2 984.62 509.573 4
11 -3 -2 1469.3 351.655 3
-3 11 2 1289.87 453.355 1
3 -11 2 683.069 479.289 2
-11 -2 -3 1317.34 413.274 3
3 11 -2 1215.74 515.227 2
2 -3 11 1568.21 555.922 2
-11 -3 2 769.073 370.888 3
-3 -2 11 1213.7 438.405 1
2 3 -11 981.423 376.97 1
3 -11 2 1279.41 441.108 1
-11 2 3 1218.47 337.5 3
-2 -11 3 837.66 309.992 1
-3 -11 -4 1375.33 491.639 3
4 3 -11 997.843 211.762 4
-11 -3 4 1062.35 239.074 2
-11 -3 4 1036.35 472.252 4
-3 11 4 1499.87 517.351 1
-11 -3 4 1277.31 406.696 3
-11 -4 -3 1504.38 382.288 1
11 -3 -4 1152.46 221.877 1
11 4 -3 4407.11 911.616 4
-3 11 4 757.108 543.565 2
4 11 3 1942.77 767.431 2
-11 4 3 1722.52 518.735 2
3 11 -4 1495.24 491.09 1
4 11 3 1669.22 556.657 1
-3 -11 -4 1135.41 447.447 1
-4 -11 3 786.469 477.279 2
3 4 11 406.478 291.08 4
3 -11 4 1699.04 707.159 2
4 -11 -3 1516.74 464.476 1
11 -4 3 1242.39 441.247 2
4 -3 11 1780.52 572.036 1
-4 11 -3 1419.96 668.827 2
4 3 -11 1652.23 497.439 1
-11 -4 -3 3420.2 866.57 4
11 4 -3 1635.83 354.536 1
11 -4 3 1084.98 279.384 1
-11 3 -4 1393.62 331.619 1
-4 -3 -11 3910.47 653.385 4
-3 4 -11 1317.06 454.145 1
-11 -3 4 1387.53 324.006 1
-11 3 -4 1579.22 412.514 2
4 -3 11 1911.59 661.199 2
11 3 4 2301.66 702.705 3
-11 4 3 1929.78 375.49 3
-3 -4 11 1570.67 558.348 2
11 -4 3 1159.77 404.483 3
3 -11 4 1484.66 518.25 1
-4 11 -3 1522.43 483.068 1
-11 -4 -3 2067.83 592.326 3
3 11 -4 1328.58 608.845 2
-4 -11 3 1432.75 502.978 1
-3 -4 11 2566.65 689.061 1
-11 4 1 3036.33 602.419 2
1 -11 4 3765.13 777.748 1
-1 -4 11 3791.16 767.997 2
-1 11 4 3922.96 787.772 1
-1 11 4 1961.05 741.994 2
11 -1 -4 2623.97 308.614 1
4 11 1 3404.03 683.162 1
-4 -11 1 3154.74 852.559 2
11 -4 1 2847.53 362.793 1
1 11 -4 3293.63 701.331 1
-4 -1 -11 3364.96 614.521 4
11 -4 1 3245.5 686.649 2
4 11 1 3113.05 828.442 2
-1 -11 -4 3125.67 728.699 1
-1 4 -11 3916.22 776.326 1
-4 11 -1 4406.09 812.688 1
1 -11 4 4170.05 998.337 2
11 4 -1 4881.08 988.527 4
-4 11 -1 2956.06 870.293 2
4 -11 -1 3819.9 713.747 1
-11 -4 -1 3106.55 706.237 3
11 1 4 3304.55 462.716 2
11 1 4 2996.56 717.183 3
1 11 -4 3218.97 856.164 2
-11 -1 4 3202.69 384.195 1
4 -11 -1 4334.32 1125.85 2
-4 -11 1 3732.44 768.736 1
4 1 -11 3071.2 642.002 1
-1 -11 -4 3021.31 567.687 3
1 4 11 2960.95 531.317 4
-11 -4 -1 3232.13 787.714 4
-11 1 -4 3480.89 484.607 1
-11 -1 4 3620.77 663.362 3
11 4 -1 3415.3 457.726 1
11 -4 1 3472.77 616.547 3
-11 4 1 2422.49 285.901 1
-11 -1 4 1903.67 605.39 4
-1 -4 11 4570.1 861.141 1
-11 -4 -1 2867.7 463.374 1
-11 -4 1 3457.42 709.502 3
1 -4 11 4380.3 850.851 1
-11 1 4 3482.82 599.975 3
11 4 1 3656.61 714.138 3
-4 1 -11 3981.41 751.079 1
-4 -11 -1 3780.83 759.218 3
-11 4 -1 3249.92 395.489 1
11 4 1 2343.78 355.011 2
-1 -11 4 3444.18 748.429 1
11 -4 -1 3455.98 527.674 3
-11 -4 1 3512.95 488.581 1
-11 4 -1 3743.63 653.168 2
1 4 -11 3649.43 731.58 1
4 -11 1 2607.66 803.539 2
-4 -11 -1 3763.89 956.862 2
-4 11 1 2920.35 864.778 2
1 -11 -4 3704.95 757.614 1
11 -1 4 3438.27 566.455 2
1 11 4 2164.4 787.562 2
-1 -11 4 4263.65 991.988 2
4 11 -1 2537.12 736.472 2
4 -1 -11 3902.86 710.35 1
11 1 -4 2954.52 369.509 1
-11 -1 -4 2343.56 616.948 4
4 11 -1 3343.09 699.78 1
-1 11 -4 2960.22 896.358 2
-4 -11 -1 3777.38 789.934 1
1 11 4 4130.21 839.719 1
1 -11 -4 3467.77 555.994 3
11 -4 -1 2667.68 309.024 1
-11 -4 1 4501.24 891.864 4
-1 11 -4 3495.79 683.636 1
1 -4 11 3812.7 810.824 2
4 -11 1 2916.61 664.145 1
11 -1 4 3521.85 734.276 3
11 4 1 2093.29 764.736 4
-4 11 1 3882.81 738.983 1
3 -11 -4 1530.95 347.448 3
-4 -11 -3 2173.62 581.288 3
-11 -4 3 3980.41 868.264 4
-3 -11 4 1766.71 565.613 1
4 -11 3 1304.6 480.999 1
-4 11 3 1612.61 540.772 1
-11 -4 3 2960.02 685.97 3
-4 3 -11 1594.49 506.978 1
3 11 4 1187.42 637.156 2
11 4 3 2360.08 720.575 3
-4 11 3 1642.42 720.48 2
-4 -11 -3 1275.2 531.162 1
-11 4 -3 1146.89 291.321 1
4 -11 3 1727.72 762.498 2
11 -3 4 2963.77 668.169 3
-11 -4 3 1497.05 317.593 2
-3 -11 4 1683.75 679.872 2
11 -4 -3 941.888 197.29 1
3 -4 11 1651.8 544.727 1
3 -4 11 1945.65 577.85 2
4 11 -3 1212.43 587.724 2
3 4 -11 1598.57 500.764 1
-3 11 -4 2265.11 730.495 2
11 -3 4 1776.58 539.112 2
3 11 4 1374.47 492.156 1
4 11 -3 1182.68 453.513 1
-4 -3 11 1631.57 491.484 1
11 4 3 1831.82 630.052 4
-11 4 -3 1140.97 369.301 2
11 3 -4 1486.9 325.659 1
-3 11 -4 1513.98 499.946 1
-3 -4 -11 1644.14 452.945 4
-11 -4 3 1196.09 315.339 1
4 3 11 4729.91 792.966 4
-4 -3 11 1304.79 515.862 2
-11 -3 -4 945.083 419.8 3
-11 3 4 2513.09 450.226 3
3 -11 -4 1487.33 524.854 1
-11 -3 -4 3175.04 900.315 4
5 -11 -4 2214.45 330.526 3
-4 11 5 3479.37 765.874 1
-11 4 -5 3096.12 629.107 2
11 5 -4 1607.49 606.568 4
-5 -11 4 3024.89 771.004 1
-11 4 -5 2893.25 518.97 1
-4 -5 11 3201.7 738.953 1
5 11 4 2669.74 761.22 2
11 5 -4 2886.9 526.546 1
-4 5 -11 3331.37 744.961 1
11 4 5 2385.67 646.251 3
-4 -11 -5 2681.92 685.753 1
-5 11 -4 3424.76 716.492 1
5 -4 11 2801.03 702.37 2
5 -4 11 3234.62 729.644 1
4 5 11 2139.36 586.05 4
-5 -11 4 2265.7 712.04 2
-4 -5 11 2677.83 657.266 2
-11 -5 -4 2769.14 744.124 4
-4 11 5 1864.86 767.534 2
4 -11 5 3089.38 734.624 1
11 -5 4 3229.7 755.011 2
11 -5 4 2821.41 503.187 1
-11 5 4 2545.17 669.816 2
-5 11 -4 2490.1 855.159 2
11 5 -4 3056.47 434.435 2
4 11 -5 3435.86 847.866 2
-11 5 4 2039.57 332.065 3
-11 -4 5 2384 443.434 2
-11 -4 5 3510.23 871.203 4
5 4 -11 3157.95 702.355 1
11 -4 -5 2609.19 370.529 1
5 11 4 3324.58 746.293 1
4 11 -5 2962 680.54 1
-5 -4 -11 2606.67 565.739 4
-4 5 -11 2995.68 710.706 2
-11 -5 -4 1431.83 490.233 3
5 -11 -4 2786.22 623.852 1
5 4 -11 1494.15 322.248 4
-4 -11 -5 3375.79 675.949 3
-11 -4 5 2422.84 503.761 1
-11 -5 -4 2572.32 523.004 1
11 -5 2 12002.4 1179.43 3
5 -11 -2 11829.5 1297.27 1
5 -11 -2 9662.94 1611.44 2
-2 11 5 8822.43 1540.79 2
5 11 2 8974.1 1337.53 2
11 -5 2 12470.8 1413.02 2
2 -11 5 11744.2 1722.35 2
-5 11 -2 13883.3 1413.02 1
11 -5 2 11076.8 862.223 1
-2 5 -11 11682.7 1326.12 1
-5 -11 2 11635.3 1636.38 2
-11 -5 -2 7749.02 1283.16 4
2 11 -5 12779 1632.56 2
11 5 -2 5145.12 1052.25 4
2 11 -5 12353.8 1354.17 1
-5 -11 2 12364.3 1436.48 1
11 5 -2 10118.7 709.951 2
-11 2 -5 10772.5 943.556 1
11 -2 -5 10695.5 705.028 1
-2 -5 11 10973.4 1378.13 2
5 2 -11 12177 1282.98 1
-5 -2 -11 8612.59 1028.3 4
-2 -5 11 12144.4 1420.05 1
5 -2 11 11724.4 1408.16 2
-11 -2 5 9325.28 1342.71 4
2 -11 5 12052.8 1387.68 1
2 5 11 8094.03 997.579 4
-11 -2 5 10728.2 795.035 2
-5 11 -2 10647.8 1569.9 2
-11 5 2 10432.3 1209.39 2
11 2 5 9808.9 1333.15 3
-11 -5 -2 8760.4 1191.63 3
-2 -11 -5 9770.15 1061.43 3
-2 -11 -5 11534.6 1366.34 1
-11 -2 5 11747 902.874 1
-2 11 5 13708.8 1497.57 1
5 11 2 12325.3 1377.85 1
-11 -5 -2 10825.6 1009.12 1
11 5 -2 11817.6 959.807 1
-11 -5 0 12660.9 1606.41 4
0 5 11 12894.5 1171.44 4
-11 5 0 16856.1 1496.68 2
0 -11 5 16561.5 1636.66 1
0 11 5 12426.4 1887.14 2
0 -11 -5 17342.5 1668.07 1
-5 -11 0 16067.8 1895.81 2
11 -5 0 17399.9 1591.38 2
-5 11 0 15372.8 1892.96 2
-11 -5 0 15377.8 1170.99 1
-5 -11 0 17011.7 1698.33 1
5 -11 0 16764.2 1550.42 1
11 5 0 12569.1 878.186 2
-11 0 -5 16963.8 1170.84 1
0 11 -5 18154.9 1622.99 1
-5 0 -11 17511.8 1580.92 1
11 -5 0 15512 922.816 1
11 0 5 15085.7 1155.84 2
0 -5 11 18344.7 1789.66 2
-5 0 -11 10921.2 1158.64 4
-11 5 0 17515.9 964.176 1
11 5 0 8707.11 1405.15 4
5 -11 0 15720.5 2035.07 2
0 11 5 19154.5 1809.63 1
-5 11 0 18146.8 1586.68 1
0 11 -5 15214.8 1786.42 2
11 0 5 14431.3 1578.62 3
11 -5 0 16728.3 1266.94 3
11 0 -5 16019.7 920.401 1
0 -11 -5 13676.9 1162.22 3
-11 -5 0 14092.2 1523.74 3
5 11 0 14495 1682.63 2
0 -5 11 17553.3 1679.74 1
-11 0 5 16606.1 1417.9 3
0 5 -11 18400.7 1652.55 1
11 5 0 15563.9 1093.9 1
0 -11 5 17124 2006.03 2
5 0 -11 18052.2 1500.53 1
5 11 0 17805.7 1615.2 1
-5 -11 -2 12326.6 1408.83 1
2 11 5 10645.7 1132.68 3
2 11 5 9216.46 1561.9 2
2 5 -11 13023.6 1431.04 1
-11 -5 2 9380.95 814.438 2
-5 11 2 9953.39 1563.62 2
5 -11 2 10907.8 1700.35 2
-2 -11 5 13397.9 1751.78 2
5 11 -2 10200.8 1429.78 2
11 -5 -2 10419.8 726.274 1
-2 11 -5 11342.2 1569.88 2
-11 5 -2 11099 1195.07 2
-5 -2 11 13182 1435.65 1
11 -2 5 11586.1 1143.88 2
2 -5 11 12660.8 1457.01 1
-11 5 -2 11275.4 872.324 1
-2 11 -5 13651.9 1431.12 1
5 -11 2 12583.3 1351.71 1
-11 -5 2 10891 993.803 1
5 11 -2 12419 1368.97 1
2 -5 11 13682.6 1569.51 2
11 2 -5 11600.8 885.11 1
-11 -2 -5 9313.72 1420.43 4
-2 -11 5 11331.7 1351.92 1
-11 -5 2 10508.7 1327.14 3
-11 -5 2 9192.24 1331.38 4
11 5 2 4997.61 1101.02 4
11 -5 -2 10983.8 841.432 3
-5 2 -11 13026.1 1352.82 1
-5 -11 -2 8567.52 1108.83 3
-11 2 5 10393.4 987.905 3
11 5 2 9845.29 1228.5 3
2 -11 -5 9391.41 861.555 3
11 -2 5 8430.81 1157.8 3
2 11 5 13019.5 1465.42 1
-5 11 2 13969.2 1401.22 1
2 -11 -5 12761.1 1396.79 1
11 5 4 2194.38 603.428 3
4 5 -11 2905.08 690.663 1
-11 5 -4 3014.14 521.669 1
-5 11 4 3132.09 700.646 1
4 11 5 2467.11 801.175 2
-5 11 4 2086.4 755.73 2
-4 -11 5 2674.89 684.333 1
4 -11 -5 3085.6 698.636 1
5 -11 4 3454.07 734.093 1
-5 -11 -4 2605.64 690.249 1
-4 -5 -11 2688.57 624.28 4
-4 11 -5 3328.5 719.23 1
11 4 -5 3155.64 545.164 1
5 -11 4 2521.1 919.256 2
-4 -11 5 3443.95 902.955 2
-11 -5 4 2500.62 472.071 2
-11 -4 -5 3226.46 885.512 4
5 11 -4 3014.81 819.146 2
11 4 -5 2359.13 578.965 4
11 -4 5 2357.72 591.393 2
-4 11 -5 2510.81 773.43 2
-5 4 -11 2113.47 541.473 1
11 -4 5 2406.42 486.029 1
-11 -4 -5 1550.58 549.57 3
-11 5 -4 3091.54 669.702 2
-5 -11 -4 2989.93 638.773 3
-11 -5 4 3202.24 822.732 4
-11 -5 4 2756.12 538.252 1
4 -5 11 2686.84 704.95 2
-5 -4 11 3072.45 734.433 2
11 -5 -4 2428.17 373.811 1
5 4 11 1896.35 613.506 4
4 11 5 2474.14 610.784 3
-5 -4 11 2979.22 735.173 1
5 11 -4 2937.19 677.141 1
4 -5 11 3167.29 736.544 1
4 -11 -5 2702.73 408.102 3
-11 4 5 2787.03 447.557 3
4 11 5 3204.57 724.21 1
-5 11 6 3251.72 995.51 2
6 11 5 4591.41 818.781 3
6 -11 -5 2951.01 349.142 3
11 -6 5 5149.85 1026.85 2
-11 6 5 4309.24 940.756 2
5 -11 6 5095.3 922.988 1
-11 -5 6 5048.12 794.056 1
-5 -11 -6 5301.75 973.997 1
11 6 -5 5462.44 785.722 1
-11 -5 6 4295.65 694.328 2
5 11 -6 5364.28 1063.31 2
-6 11 -5 5064.09 909.445 1
-6 -11 5 5218.84 1093.26 2
-5 -6 11 4895.44 973.105 2
11 -6 5 4843.35 740.493 1
-11 5 -6 5069.32 842.804 2
-6 -5 -11 3734.64 726.014 4
-5 -6 11 5197.51 997.862 1
11 6 -5 5020.9 662.688 2
-6 -11 5 4856.36 911.919 1
11 6 -5 3430.73 717.615 4
-6 11 -5 4315.3 1024.8 2
-5 6 -11 5314.34 988.095 2
11 -5 -6 4522.27 557.63 1
6 -11 -5 5705.31 900.865 1
-11 -5 6 2581.65 692.522 4
6 5 -11 2175.48 440.155 4
6 11 5 3652.32 912.981 2
-11 6 5 2459.37 336.217 3
-11 5 -6 4668.44 718.43 1
6 -5 11 5826.28 1029.53 1
-11 -6 -5 3105.81 807.717 4
-11 -6 -5 4660.24 755.715 1
-5 -11 -6 3165.59 680.851 3
11 5 6 4850.26 979.446 3
6 5 -11 4972.42 863.37 1
5 6 11 3312.35 795.825 3
11 -6 3 647.333 405.661 2
6 11 3 261.113 256.489 1
-3 -6 11 182.274 300.005 1
-3 11 6 92.0466 245.533 2
-3 -11 -6 106.396 213.805 1
-11 -6 -3 170.93 161.816 1
3 6 11 567.382 291.113 4
-11 6 3 381.566 262.07 2
11 6 -3 399.03 310.841 4
-6 -11 3 -43.4204 293.304 2
-6 -3 -11 -284.812 340.007 4
11 -6 3 256.843 109.128 1
-11 -3 6 100.504 106.91 2
-3 -11 -6 863.206 385.353 3
6 -11 -3 46.4735 148.848 1
11 6 -3 307.929 222.382 1
-6 11 -3 -24.6782 184.843 2
-11 3 -6 102.223 119.006 1
3 -11 6 280.855 149.08 1
11 3 6 624.382 319.351 3
-11 -3 6 228.85 174.455 1
6 3 -11 -29.9851 180.49 1
-3 -6 11 129.427 216.422 2
3 11 -6 52.2877 320.795 2
-11 -6 -3 395.736 349.287 4
-11 -3 6 949.63 369.304 4
-3 6 -11 218.566 186.434 2
-11 3 -6 297.252 214.916 2
-6 -11 3 -33.3033 204.547 1
-6 11 -3 177.724 171.775 1
6 -3 11 444.558 346.576 2
11 6 -3 343.881 205.557 2
6 11 3 -518.003 398.947 2
-11 -6 -1 1770.51 550.307 3
1 -11 6 1082.76 404.123 1
-6 -11 1 1783 637.088 2
11 6 -1 1132.76 347.397 1
6 11 1 1063.58 430.665 1
11 -6 1 998.468 483.14 2
6 11 1 1116.46 475.015 2
6 1 -11 1453.92 445.069 1
1 11 -6 1350.68 552.885 2
11 6 -1 2909.55 856.472 4
6 -11 -1 834.912 493.891 2
-11 6 1 1427.69 474.865 2
11 -6 1 2061.08 479.491 3
-1 6 -11 1127.54 426.48 1
-6 11 -1 1555.33 498.338 1
11 6 -1 1217.22 332.029 2
6 -1 11 1682.18 583.028 2
-1 -11 -6 1127 467.763 1
-6 -1 -11 2120.71 538.453 4
11 -6 1 1491.8 354.792 1
-11 -1 6 1061.89 519.028 4
-6 -11 1 1005.47 383.397 1
6 -11 -1 1775.43 510.642 1
-6 11 -1 1269.96 527.771 2
11 -1 -6 1245.55 269.759 1
-11 -6 -1 1862.09 626.173 4
11 1 6 1258.82 358.784 2
1 6 11 484.204 305.323 4
-1 6 -11 1269.1 524.002 2
-1 -6 11 1024.2 466.223 1
-1 -6 11 1319.88 502.223 2
-11 1 -6 1392.18 382.765 1
-11 6 1 1426.36 301.131 1
1 11 -6 1317.14 413.299 1
11 1 6 2498.71 729.037 3
-11 -6 -1 985.989 386.37 1
-1 -11 -6 1140.26 370.104 3
1 6 -11 1527.13 478.64 1
11 6 1 1352.04 372.677 1
-11 -6 1 1410.83 398.849 3
1 11 6 1116.19 400.478 3
-6 -11 -1 2738.71 600.948 3
-11 -6 1 1653.78 423.014 1
-11 -1 -6 2294.79 717.042 4
1 -6 11 1943.23 620.071 1
6 -11 1 1437.21 681.287 2
6 -1 -11 1762.24 466.897 1
6 -11 1 1429.82 436.57 1
1 -11 -6 967.89 362.028 1
1 6 -11 1427.21 493.456 2
11 -6 -1 2023.08 611.197 2
-6 11 1 1424.83 600.715 2
11 6 1 2121.52 613.661 3
6 11 -1 1286.11 460.832 1
6 11 -1 1277.2 558.326 2
-6 11 1 1392.25 418.314 1
-1 -11 6 1700.71 519.699 1
-1 -11 6 1661.18 640.369 2
-6 1 -11 1616.47 492.938 1
-11 6 -1 1216.62 459.691 2
-6 -11 -1 1234.29 477.627 1
-11 6 -1 1192.46 285.338 1
11 1 -6 1089.83 270.298 1
-1 11 -6 1205.96 624.349 2
11 -1 6 1425.43 398.83 2
-6 -1 11 1426.78 264.249 4
-11 -6 1 2615.74 711.972 4
11 6 1 1672.57 394.924 2
11 -1 6 1542.78 498.924 3
1 -11 -6 924.336 318.589 3
11 -6 -1 1769.47 368.548 3
-1 11 -6 1585.56 516.99 1
11 -6 -1 1542.62 347.605 1
-3 -11 6 34.2455 207.202 1
3 6 -11 166.156 218.737 1
11 -6 -3 548.112 196.167 3
11 6 3 -78.9398 289.276 3
3 11 6 306.496 227.669 3
-11 3 6 416.947 194.585 3
-11 -6 3 411.906 244.474 3
-11 6 -3 250.419 183.285 1
-6 11 3 283.18 170.418 1
-11 -6 3 124.33 120.401 1
6 -11 3 306.745 223.802 1
-6 3 -11 302.105 295.195 1
3 -11 -6 220.543 233.5 1
11 3 -6 123.495 143.879 1
-6 11 3 495.825 266.964 2
-11 -6 3 475.443 294.161 2
6 -11 3 835.724 509.95 2
-6 -11 -3 295.643 255.836 1
-3 -11 6 57.7283 263.831 2
3 -6 11 15.6728 259.303 1
11 -6 -3 139.109 140.956 1
6 11 -3 223.013 223.127 1
-3 11 -6 97.7273 263.917 2
-11 6 -3 119.613 253.482 2
11 -3 6 87.8968 168.109 2
-11 -6 3 196.817 295.868 4
-3 11 -6 21.7452 135.428 1
-6 -3 11 140.756 287.47 2
-6 -3 11 333.348 255.73 1
-6 -11 -3 -137.281 320.192 3
3 -11 -6 691.891 249.769 3
3 6 -11 -61.4263 190.044 2
6 11 -3 -191.385 249.287 2
-11 -3 -6 501.558 300.08 4
-6 5 -11 5381.37 917.381 1
5 11 6 3732.63 767.966 3
11 5 -6 2044.72 585.329 4
5 -6 11 5625.04 993.212 1
-5 -11 6 5694.79 1201.47 2
-11 -6 5 4645.09 742.661 2
-6 11 5 3933.24 1084.47 2
11 -5 6 4746.44 924.815 2
-11 6 -5 5755.73 795.561 1
6 11 -5 6092.05 977.351 1
6 11 -5 5081.36 1023.48 2
-5 11 -6 4943.76 1038 2
-11 6 -5 5326.12 895.83 2
11 5 -6 5089.21 764.183 1
-5 11 -6 5599.38 940.679 1
-6 -5 11 4430.03 880.767 2
-5 -11 6 5709.82 1001.94 1
6 5 11 3569.34 828.034 3
6 5 11 3479.75 807.662 4
-6 -5 11 6036.87 1001.95 1
-11 5 6 4618.16 510.367 3
6 -11 5 5327.47 915.065 1
-11 -6 5 4793.49 751.996 1
-11 -6 5 3241.95 755.754 4
5 6 -11 3347.57 565.487 4
-11 -5 -6 3545.64 899.262 4
-5 -6 -11 3065.7 629.052 4
11 6 5 4121.12 860.786 3
11 -5 6 5118.66 769.259 1
5 6 -11 5224.18 914.09 1
-6 5 -11 5136.54 942.29 2
-6 11 5 6296.73 1006.78 1
11 -6 -5 5043.55 613.089 1
5 -11 -6 4921.15 861.327 1
-6 -11 -5 5123.15 963.16 1
-6 -11 -5 3938.43 785.305 3
-11 7 6 2228.22 719.922 2
-11 -7 -6 2833.58 651.907 1
7 11 6 3445.96 763.855 3
-11 6 -7 2904.67 667.675 1
-6 -11 -7 2789.09 703.763 1
-11 -6 7 3153.42 668.297 1
6 11 -7 3924.6 920.764 2
7 6 -11 2638.81 663.408 1
-6 -7 11 3053.36 807.991 1
11 7 -6 3813.19 890.387 4
11 7 -6 3219.05 688.235 1
-11 -6 7 1523.62 513.18 4
-7 -11 6 3004.79 747.429 1
-7 -11 6 3955.11 950.719 2
6 -11 7 3425.14 774.997 1
11 -7 6 2006.96 657.211 2
-11 -7 -6 2466.86 689.745 4
7 -6 11 3337.83 825.407 1
-11 -6 7 2519.04 601.595 2
-7 11 -6 2744.56 794.82 2
11 -6 -7 2845.75 514.141 1
6 7 11 2076.63 677.683 3
7 6 -11 1415.06 396.193 4
-6 -7 11 2899.52 777.683 2
11 7 -6 2712.03 552.889 2
-6 7 -11 3103.92 750.935 2
-7 11 -6 2998.12 686.608 1
-11 6 -7 3196.41 748.11 2
11 -7 6 2801.45 612.149 1
-7 -6 -11 2457.83 644.679 4
7 -11 -6 3475.99 735.281 1
11 6 7 2813.52 758.468 3
7 -4 11 1261.87 514.903 1
11 7 -4 1015.46 347.552 2
-4 -11 -7 1132.05 443.883 1
7 11 4 856.79 471.968 2
-11 -7 -4 1052.05 380.246 1
-4 -11 -7 1065.4 410.304 3
-11 -4 7 931.761 355.557 1
7 11 4 1370.35 524.339 1
7 4 -11 1039.36 378.094 1
-11 7 4 1129.24 570.064 2
4 11 -7 1334.34 613.716 2
-7 11 -4 1376.87 461.386 1
-11 4 -7 1243.91 426.963 1
4 7 11 1624.88 544.438 4
-7 -4 -11 1166.13 472.971 4
-11 -7 -4 1997.18 657.365 4
7 -11 -4 1080.81 422.295 1
11 -7 4 1938.8 638.737 2
11 -7 4 1064.03 324.23 1
11 7 -4 1492.66 705.348 4
11 7 -4 928.372 349.767 1
-11 -4 7 764.339 302.199 2
-7 -11 4 718.431 349.212 1
7 -11 -4 933.809 171.37 3
-7 -11 4 1213.31 541.776 2
-11 -4 7 1293.21 548.518 4
-4 -7 11 955.089 426.369 2
7 11 4 1727.76 534.068 3
-4 7 -11 830.629 426.328 2
7 4 -11 507.051 222.924 4
-7 11 -4 1329.71 614.818 2
-4 -7 11 1443.92 509.61 1
-11 4 -7 1113.01 446.233 2
4 7 11 1335.59 447.884 3
4 -11 7 1115.6 439.736 1
11 4 7 810.68 508.5 3
11 -7 2 7145.66 1218.69 2
-7 -11 2 6912.81 1238.88 2
7 11 2 5861.7 1094.32 2
-11 7 2 6525.37 1118.85 2
7 -11 -2 8579.31 1083.77 1
-7 11 -2 8035.29 1101.41 1
-2 11 7 6062.98 716.672 3
7 -11 -2 4945.95 1218.27 2
11 7 -2 7947.37 901.841 2
-7 -11 2 7514.47 1175.86 1
2 11 -7 7724.59 1306.39 2
7 2 -11 7747.96 1014.77 1
-11 -7 -2 5041.37 1000.74 4
-2 -7 11 8374.62 1226.62 1
2 7 11 4420.79 827.395 3
-11 2 -7 7697.23 920.996 1
7 -2 11 6835.7 1093.59 2
-2 7 -11 7444.34 1173.13 2
-11 -2 7 8472.15 892.159 2
2 7 11 4054.23 798.312 4
11 7 -2 4734.48 1059.03 4
-11 -7 -2 6893.63 913.105 1
-11 -2 7 4550.13 946.163 4
-7 -2 -11 5253.84 890.044 4
11 -2 -7 7844.33 749.963 1
2 -11 7 8006.76 1195.52 1
11 -7 2 7162.52 836.301 1
-7 11 -2 6284.62 1247.76 2
7 11 2 7632.72 1110.33 1
11 7 -2 7545.63 909.689 1
11 2 7 6791.48 1186.7 3
-2 -11 -7 4406.19 714.425 3
-11 7 2 9031.2 840.897 1
-2 -11 -7 7454.21 1122.66 1
-11 -2 7 8672.84 926.637 1
11 -7 0 17222 1239.85 3
11 7 0 20534.6 1484.23 1
7 -11 0 17455.2 2176.75 2
-11 -7 0 19926.2 1543.47 1
-7 11 0 18533.2 2060.73 2
-11 7 0 18321 1792.47 2
11 0 -7 20502.5 1279.35 1
-7 -11 0 21629.3 1944.46 1
7 -11 0 21339.8 1737.16 1
0 11 -7 20238.4 2054.97 2
-11 0 -7 19680.3 1450.86 1
-7 0 -11 21896.7 1796.42 1
-7 -11 0 18857.7 2033.69 2
-11 7 0 22470 1357.11 1
0 -11 7 21550.2 1942.59 1
0 -7 11 22122.8 1981.23 1
11 0 7 19138.6 1464.75 2
11 -7 0 21250.6 1331.24 1
11 -7 0 20916.3 1988.56 2
0 7 -11 20244.1 1887.23 2
-11 0 -7 11171.1 1509.04 4
-11 -7 0 10348.4 1373.85 4
0 11 7 15440.7 1297.26 3
-7 11 0 23825.4 1817.99 1
11 7 0 17612.3 1369.59 2
11 0 7 14180 1644.05 3
7 0 -11 20104.9 1571.14 1
0 -11 -7 13209.1 1166.6 3
7 11 0 18153.6 1893.05 2
0 -11 -7 20234.2 1812.15 1
7 11 0 21894.8 1828.17 1
-7 -11 -2 6622.85 1120.95 1
7 11 -2 7335.61 1120.33 1
2 11 7 5456.06 824.621 3
2 -7 11 8417.56 1220.41 1
11 7 2 6350.8 864.206 2
-7 11 2 5072.97 1204.83 2
7 -11 2 7452.23 1417.96 2
7 11 -2 6937.1 1145.97 2
11 -7 -2 7236 752.253 1
7 -2 -11 8037.57 973.652 1
-11 7 -2 7252.06 1145.59 2
-7 -2 11 3933.2 494.603 4
-11 7 -2 7889.16 855.157 1
11 2 -7 8170.41 874.735 1
-2 11 -7 7574.1 1317.58 2
-11 -7 2 7046.77 905.521 2
11 7 2 5229.92 907.022 3
-11 -7 2 7155.09 941.002 1
11 -2 7 6997.44 948.737 2
7 -11 2 8169.44 1094.73 1
-7 -2 11 9672.67 1221.92 1
2 7 -11 7194.76 1130.98 2
-11 -7 2 5452.25 970.695 4
-2 -11 7 7354.15 1164.13 1
2 -11 -7 7908.51 1126.64 1
-11 -2 -7 5208.62 1062.54 4
-7 2 -11 8890.2 1157.7 1
2 -11 -7 5478.94 691.766 3
11 -7 -2 6547.51 630.859 3
-7 11 2 9161.24 1136.68 1
11 7 4 2100.73 666.91 3
-11 7 -4 824.523 361.298 1
4 -7 11 1240.77 484.511 1
-7 11 4 855.296 602.852 2
-11 7 -4 894.506 423.606 2
-11 -7 4 899.639 340.882 1
11 -4 7 992.629 358.393 1
-7 -11 -4 1145.98 454.999 1
-11 -7 4 1052.16 402.537 2
11 -7 -4 786.497 281.971 1
7 -11 4 1168.91 440.176 1
4 11 7 1569.17 524.964 3
-4 -11 7 1067 604.314 2
-11 -7 4 1458.48 534.916 4
-4 -11 7 861.029 399.078 1
7 11 -4 1229.73 570.307 2
11 -4 7 913.505 438.305 2
-7 -4 11 935.81 366.542 1
7 11 -4 1698.84 747.819 4
7 11 -4 983.107 482.292 1
-4 11 -7 1187.42 488.921 2
-11 -4 -7 1608.6 562.988 4
-7 4 -11 1157.48 440.912 1
7 4 11 925.549 330.115 4
11 4 -7 664.754 298.056 1
-7 11 4 1167.78 377.091 1
-7 -4 11 638.261 360.378 2
4 7 -11 1410.6 563.559 2
4 -11 -7 1442.65 509.995 1
11 7 6 3461.43 869.21 3
-7 -6 11 3285.19 785.873 1
7 6 11 2990.51 804.359 4
-7 11 6 2332.76 858.575 2
-7 -11 -6 2577.21 688.49 1
7 11 -6 3411.15 865.466 2
-6 11 -7 2896.11 870.637 2
-11 -7 6 3172.81 657.561 1
-7 -6 11 2680.14 702.351 2
6 -7 11 3125.62 804.713 1
-7 6 -11 2766.7 698.6 2
11 6 -7 4003.19 750.552 1
-6 -11 7 3587.35 932.047 2
6 -11 -7 3155.96 698.347 1
-6 -11 7 2992.03 757.113 1
11 -6 7 2870.16 677.275 1
11 -6 7 2462.46 658.876 2
-11 7 -6 3163.55 630.414 1
11 6 -7 438.669 391.104 4
-11 -7 6 2625.2 682.033 4
-11 7 -6 3329.74 792.812 2
-11 -6 -7 2108.16 650.472 4
6 7 -11 3229.17 616.306 4
7 11 -6 2524.46 844.802 4
6 7 -11 3365.45 712.056 2
-11 -7 6 3047.05 668.492 2
7 6 11 3489.98 845.3 3
7 -11 6 2754.36 724.506 1
11 -7 -6 2783.48 509.96 1
6 11 7 2508.7 635.601 3
-11 6 7 1890.84 292.167 3
8 11 7 1219.58 531.269 3
7 11 -8 886.692 651.737 4
-11 -8 -7 1363.06 431.17 1
8 -7 11 1186.58 456.741 1
-8 -11 7 1461.58 571.479 1
-7 -11 -8 1580.38 578.381 1
7 11 -8 1668.31 623.584 2
-11 -7 8 1535.43 514.461 1
8 -11 -7 1240.44 403.209 1
7 8 11 528.101 482.566 3
11 8 -7 1265.19 710.189 4
-11 -7 8 291.01 279.862 4
-8 11 -7 1867.44 666.207 2
11 -8 7 1455.1 471.211 1
-8 -11 7 2033.08 686.049 2
-7 8 -11 1709.22 622.034 2
11 -8 7 1779.1 685.552 2
-11 -8 -7 1486.09 575.794 4
-7 -8 11 1591.33 628.321 1
-11 -7 8 1482.01 532.755 2
11 8 -7 1884.53 534.733 2
7 -11 8 1880.3 612.061 1
8 7 -11 1522.22 539.372 4
-11 7 -8 1617.34 460.35 1
11 8 -7 1546.88 530.466 1
-11 7 -8 1679.28 558.837 2
-8 -7 -11 1484.4 509.46 4
11 -7 -8 1283.56 373.939 1
-7 -8 11 926.638 297.302 2
11 7 8 1197.96 448.579 3
-8 -5 -11 6873.22 1099.92 4
8 11 5 7445.77 1338.34 2
11 -8 5 9390.89 1129.21 1
-11 8 5 7582.69 1347.08 2
-8 -11 5 9796.41 1547.67 2
11 -8 5 10763.6 1619.69 2
11 8 -5 11009 1229.81 1
8 -5 11 8917.13 1320.65 1
-8 11 -5 9832.55 1580.58 2
-5 -8 11 10392.5 1455.32 1
-11 -5 8 11079 1245.25 1
-8 11 -5 10949.8 1317.34 1
-11 -5 8 8745.72 1058.54 2
5 11 -8 10572.1 1511.33 2
-11 -5 8 8505.52 1180.75 4
11 8 -5 9881.61 1108.34 2
-5 8 -11 9936.1 1426.07 2
-11 5 -8 10119 1297.2 2
-8 -11 5 9815.98 1361.01 1
8 5 -11 8155.52 916.449 4
-11 -8 -5 8698.11 1124.76 1
11 8 -5 5444.13 1135.39 4
-11 -8 -5 6404.87 1161.89 4
-11 5 -8 9459.8 1137.3 1
5 8 11 8589.42 1370.72 4
8 5 -11 10623.9 1290.11 1
5 8 11 9927.15 1395.87 3
11 5 8 8030.56 1416.62 3
8 11 5 7780.9 1177.11 3
-5 -11 -8 10223.4 1357.29 1
8 -11 -5 10464.1 1227.85 1
5 -11 8 10279.3 1419.58 1
11 8 -3 290.396 199.03 1
8 11 3 61.7142 166.225 1
-3 11 8 178.528 143.372 3
-3 -11 -8 314.996 217.197 1
-11 -8 -3 388.16 306.537 4
-11 8 3 332.262 203.22 1
8 11 3 305.669 183.619 2
-11 -3 8 490.514 398.248 4
-11 8 3 573.993 384.538 2
-8 -11 3 517.845 410.972 2
-11 -8 -3 186.804 216.891 1
11 -8 3 433.347 399.083 2
8 3 -11 261.09 240.434 1
-11 -3 8 355.85 186.314 2
-3 -8 11 267.243 299.298 1
-3 8 -11 200.735 195.098 2
3 11 -8 371.571 368.525 2
-8 11 -3 656.181 412.008 2
11 8 -3 277.669 210.629 2
-11 -3 8 395.414 254.652 1
-8 -11 3 450.712 303.602 1
8 -11 -3 133.793 119.151 1
-8 11 -3 410.336 311.987 1
8 -3 11 243.076 244.409 2
3 8 11 429.476 261.147 3
11 -8 3 377.65 238.006 1
3 -11 8 486.645 336.629 1
-3 -11 -8 358.154 299.496 3
-11 3 -8 528.13 286.474 1
11 3 8 223.568 337.841 3
-8 -3 -11 -82.4114 277.097 4
3 8 11 1073.96 422.017 4
-8 -11 1 1729.44 699.367 2
8 1 -11 760.373 307.087 1
8 -11 -1 749.996 327.217 1
11 8 -1 654.85 277.016 1
-1 -11 -8 247.68 224.224 1
11 -1 -8 655.765 240.953 1
8 -11 -1 545.785 379.306 2
8 11 1 756.18 382.523 1
-11 8 1 984.505 314.82 1
8 11 1 655.588 397.716 2
-8 -1 -11 445.396 273.488 4
-11 1 -8 345.938 206.217 1
-1 11 8 285.675 176.491 3
-11 8 1 893.106 544.633 2
-1 -11 -8 562.899 244.409 3
-11 -8 -1 422.813 237.458 4
-8 -11 1 518.53 405.614 1
-8 11 -1 429.346 347.143 2
11 8 -1 261.507 263.977 2
1 -11 8 492.039 311.649 1
-8 11 -1 855.653 379.691 1
8 -1 11 311.833 285.641 2
-11 -8 -1 295.369 251.187 1
11 -8 1 572.125 205.748 1
-11 -1 8 1756.61 593.586 4
11 -8 1 408.011 483.481 2
1 8 11 759.566 311.352 3
-1 -8 11 430.307 322.37 1
-1 8 -11 572.775 307.347 2
11 1 8 158.784 424.807 3
11 1 8 698.604 377.681 2
1 11 -8 1003.75 466.078 2
1 11 8 422.131 274.855 3
-8 11 1 1170.98 393.958 1
1 -11 -8 1190.67 482.331 1
11 -8 -1 408.519 307.981 2
11 -1 8 799.118 317.522 2
11 -8 -1 898.357 271.279 3
8 -11 1 1361.97 664.616 2
11 8 1 660.377 315.875 2
8 -1 -11 648.887 297.229 1
-8 -1 11 1700.92 423.909 4
-8 11 1 478.269 477.798 2
8 11 -1 634.086 344.608 1
-11 -8 1 251.858 375.087 4
-8 1 -11 453.998 290.997 1
8 11 -1 650.134 364.63 2
-11 8 -1 703.866 440.906 2
11 1 -8 914.294 278.746 1
-11 8 -1 805.712 319.26 1
-8 -11 -1 927.073 421.155 1
1 -8 11 832.953 354.175 1
-1 11 -8 911.073 487.575 2
-11 -1 -8 2248.88 667.662 4
-1 -11 8 408.303 277.088 1
-11 -8 1 842.378 347.829 1
-1 8 11 464.286 308.337 3
1 8 -11 286.711 201.245 2
11 8 1 523.577 278.36 1
11 -8 -1 802.247 274.441 1
8 -11 1 384.722 243.176 1
11 -8 -3 202.34 102.593 3
3 11 8 858.664 402.392 3
3 -11 -8 390.59 281.954 1
-8 11 3 160.711 180.078 1
11 8 3 -240.366 308.504 3
-8 3 -11 319.28 233.054 1
11 8 3 164.177 221.165 2
-3 -11 8 36.276 283.684 1
-8 11 3 143.927 352.921 2
8 -11 3 499.971 283.352 1
-11 -8 3 301.048 235.883 2
-11 8 -3 404.908 234.55 1
-8 -3 11 305.901 194.12 4
8 11 -3 659.397 406.218 2
8 11 -3 284.509 219.485 1
11 -8 -3 432.64 201.514 1
-11 8 -3 437.338 332.068 2
11 3 -8 413.202 219.65 1
-3 11 -8 141.723 204.651 2
-11 -3 -8 22.1942 359.054 4
11 -3 8 389.077 318.852 2
-11 -8 3 147.313 178.87 1
-8 -11 -3 -71.0712 183.623 1
-8 -3 11 395.371 321.193 1
3 8 -11 13.3369 229.707 2
-8 -3 11 506.117 314.77 2
3 -8 11 387.445 239.071 1
-11 -8 3 525.524 394.983 4
-11 -8 5 10607 1302.28 2
-11 -8 5 9083.71 1145.06 1
-5 -11 8 10251.3 1407.23 1
11 -5 8 8694.43 1110.61 1
5 -8 11 9753.98 1378.27 1
-8 5 -11 9603.55 1282.5 1
8 -11 5 10414.6 1337.89 1
8 11 -5 9835.52 1416.12 2
11 -5 8 9322.32 1297.37 2
8 5 11 6584.48 1238.19 4
5 -11 -8 9446.55 1210.85 1
-11 8 -5 9336 1349.68 2
-5 11 -8 8998.31 1456.18 2
11 5 -8 7974.86 1091.94 4
-8 -5 11 10032.3 1305.57 2
-11 8 -5 9161.73 1085.58 1
5 8 -11 10650.8 1387.36 2
11 5 -8 9979.85 1154.24 1
-8 -5 11 10351.7 1390.38 1
-11 -8 5 6657.63 1090.79 4
-8 -11 -5 9311.79 1321.14 1
-8 11 5 7336.8 1466.01 2
-11 -5 -8 6851.16 1220.65 4
5 11 8 8981.62 1255.1 3
11 8 5 7130.56 1225.02 3
8 5 11 7016.37 1266.1 3
11 -8 -5 10039.2 1001.6 1
11 8 7 765.999 363.484 3
-11 -7 -8 1942.05 672.995 4
11 7 -8 1594.35 532.136 1
11 -8 -7 1629.29 435.745 1
7 -11 -8 1486.28 456.285 1
-8 -11 -7 1192.23 472.697 1
-8 11 7 523.575 284.609 2
7 -8 11 1679.45 613.275 1
-8 -7 11 1150.04 485.004 2
-7 11 -8 1244.92 568.104 2
-11 8 -7 2016.41 584.046 1
11 -7 8 1773.09 555.011 1
8 11 -7 1768.98 633.33 2
-7 -11 8 1570.14 609.887 1
-7 -11 8 2347.33 773.007 2
-11 7 8 678.031 188.156 3
-11 -8 7 1727.27 566.064 2
11 -7 8 1269.48 545.36 2
7 8 -11 1231.03 531.336 4
7 8 -11 1444.67 488.365 2
11 7 -8 1061.62 464.806 4
7 11 8 961.515 512.882 3
-11 8 -7 1798.06 597.535 2
-11 -8 7 1320 480.725 1
-8 -7 11 1679.17 578.032 1
-8 7 -11 1592.67 552.306 2
11 7 -8 1418.83 454.826 2
8 7 11 1646.6 636.135 3
8 -11 7 1579 543.2 1
-9 -11 8 165.775 255.931 1
-8 -11 -9 68.4235 226.556 1
-11 -9 -8 97.9916 129.818 1
-11 -9 -8 1264.92 501.92 4
8 9 11 153.14 345.167 3
-9 11 -8 122.367 321.181 2
-11 -8 9 34.5199 179.63 1
11 -8 -9 -138.387 166.119 1
8 -11 9 497.665 312.649 1
11 -9 8 150.96 208.857 1
-8 -9 11 58.9875 174.579 1
11 9 -8 10.8178 204.592 1
9 -8 11 101.761 208.739 1
-9 -11 8 177.802 277.481 2
-11 8 -9 116.124 207.935 1
-11 -8 9 225.116 275.174 2
9 -11 -8 156.8 191.634 1
11 9 -8 155.132 130.479 2
9 8 -11 -294.869 430.046 4
8 11 -9 146.909 212.77 2
-11 8 -9 188.813 178.599 2
-9 -8 -11 97.8826 269.699 4
9 11 8 309.354 428.031 3
8 11 -9 1356.26 627.399 4
11 8 9 121.993 384.949 3
-8 9 -11 500.417 439.51 2
-6 -11 -9 -33.3753 295.461 1
9 11 6 407.423 412.651 3
-6 11 9 -88.7593 170.365 3
6 -11 9 507.106 387.003 1
-11 6 -9 468.15 217.927 1
-9 11 -6 292.013 280.436 2
9 -11 -6 430.123 271.09 1
6 11 -9 566.519 422.207 2
11 -9 6 458.948 251.745 1
-9 -11 6 188.6 314.354 1
-11 -9 -6 -35.0004 391.247 4
-9 -11 6 256.853 284.375 2
-6 -9 11 506.148 356.946 1
9 -6 11 177.673 267.41 1
-11 9 6 -24.9119 445.522 2
9 6 -11 1122.54 396.949 4
-11 -6 9 395.74 307.176 1
9 6 -11 397.422 280.852 1
-11 -9 -6 192.054 157.403 1
-11 -6 9 393.089 243.191 2
11 6 9 232.473 487.562 3
11 9 -6 376.687 220.131 2
-9 -6 -11 432.057 386.193 4
-6 9 -11 115.359 210.497 2
-11 -6 9 256.784 280.158 4
11 9 -6 208.24 232.944 1
-11 6 -9 390.696 246.365 2
-9 11 -6 225.375 170.782 1
6 9 11 25.3865 284.931 3
-4 -11 -9 1480.81 524.663 1
9 11 4 1031.47 519.118 2
-11 9 4 1283.17 548.344 2
-11 -9 -4 1262.24 486.599 1
11 9 -4 1155.36 420.642 2
-9 -11 4 1409.82 609.779 2
11 -9 4 1832.02 737.377 2
-11 -4 9 1122.49 424.965 1
-4 11 9 1444.38 336.495 3
9 -11 -4 1634.39 503.438 1
-4 -9 11 1787.94 610.503 1
4 -11 9 1875.22 644.995 1
11 9 -4 1149.32 439.841 1
-11 4 -9 1502.04 482.383 1
-9 11 -4 1367.28 575.767 2
-11 -4 9 1667.03 548.387 4
11 4 9 1718.2 779.66 3
9 11 4 2215.18 656.413 3
-9 -4 -11 1134.42 510.439 4
4 9 11 2674.42 782.929 4
-9 11 -4 2070.16 580.594 1
-11 -4 9 1480.93 458.86 2
-4 9 -11 1819.68 633.046 2
-9 -11 4 1474.86 583.484 1
-11 -9 -4 1312.04 517.14 4
11 -9 4 1486.52 472.708 1
-4 -11 -9 1643.48 469.243 3
4 9 11 1367.16 550.461 3
4 11 -9 1049.51 469.484 2
9 4 -11 1457.07 448.458 1
2 -11 9 1815.68 563.767 1
9 11 2 1839.39 592.333 1
-11 9 2 1771.69 460.649 1
-11 -9 -2 1921.63 614.732 4
9 -11 -2 1243.48 628.49 2
11 -2 -9 1765.55 400.18 1
-2 -11 -9 1182.17 505.981 1
-9 -11 2 2311.73 739.347 2
9 11 2 1138.84 497.914 2
11 9 -2 1507.3 534.3 1
-11 2 -9 2210.05 547.738 1
-11 -9 -2 1485.51 517.702 1
11 -9 2 2089 512.968 1
-9 11 -2 1060.65 536.253 2
-2 -9 11 2066.05 694.128 1
11 9 -2 1599.93 515.4 2
9 -11 -2 1836.44 496.206 1
9 2 -11 1731.11 514.058 1
-11 -2 9 1783.01 466.453 2
-9 11 -2 1597 455.319 1
2 9 11 -31.1145 325.496 4
-11 -2 9 1792.84 477.218 1
-11 9 2 1358.42 608.712 2
2 11 -9 1429.89 585.869 2
-9 -2 -11 1659.23 559.048 4
9 -2 11 1407.18 484.35 2
-2 9 -11 1704.59 595.939 2
11 -9 2 1906.46 717.977 2
-9 -11 2 1928.12 627.153 1
11 2 9 1976.06 636.053 3
2 9 11 803.694 214.014 3
-11 -2 9 289.045 249.114 4
-2 11 9 1440.99 374.722 3
-11 -9 0 4365.1 816.526 4
-11 0 -9 5089.27 1016.53 4
-9 -11 0 7583 1285.9 2
9 -11 0 6025.58 1364.97 2
9 11 0 7096.61 1157.25 2
11 9 0 7396.14 1038.04 2
-11 9 0 7309 1272.8 2
-9 11 0 9389.17 1149.52 1
-11 -9 0 7926.22 1121.88 1
-9 -11 0 8600.16 1219.64 1
0 -9 11 9273.49 1367.57 1
-11 0 -9 8564.02 1075.83 1
-9 0 -11 7926.98 1098.31 1
11 0 -9 8165.07 909.6 1
9 -11 0 8275.15 1091.48 1
0 11 -9 7669.49 1344.4 2
11 -9 0 9217.99 1013.23 1
0 9 -11 8266.91 1265.8 2
11 0 9 8443.56 1095.95 2
9 0 -11 7830.32 999.191 1
9 0 11 8409.61 1206 2
11 -9 0 7194.1 1362.23 2
-9 0 -11 4219.38 843.718 4
0 9 11 4165.92 706.62 3
0 -11 -9 7405.17 1138.3 1
0 -11 9 7790.01 1227.52 1
-9 11 0 7367.41 1332.1 2
11 9 0 8556.07 1088.85 1
9 11 0 8250.54 1161.21 1
-11 9 0 9636.75 1039.36 1
0 11 9 5115.6 804.649 3
9 -11 2 1478.26 473.006 1
2 -11 -9 1534.92 518.168 1
-11 -2 -9 1564.01 669.541 4
2 9 -11 1934.54 620.392 2
11 9 2 2090.07 532.238 1
-9 11 2 1758.26 471.941 1
-11 -9 2 1955.99 589.697 2
9 -2 -11 1620.6 424.314 1
11 9 2 1551.54 499.369 2
-9 11 2 1273.64 610.346 2
9 11 -2 1300.76 496.705 1
11 2 -9 1750.98 440.803 1
9 11 -2 1267.56 510.688 2
-9 -11 -2 1488.17 554.018 1
-11 9 -2 1066.62 556.394 2
-9 -2 11 967.697 373.037 4
11 -9 -2 2096.16 477.194 1
2 -9 11 2666.33 726.679 1
-9 2 -11 1982.47 574.514 1
-11 9 -2 1851.63 467.003 1
-2 11 -9 1736.94 662.939 2
-11 -9 2 1712.82 501.923 1
11 -2 9 1167.28 423.279 2
-2 -11 9 1647.04 595.743 1
-2 9 11 1395.27 408.712 3
11 -9 -2 1377.11 285.956 3
-11 -9 2 496.686 227.802 4
2 11 9 1622.49 501.947 3
9 4 11 1402.04 686.305 3
11 9 4 1758.02 626.833 3
4 -11 -9 1293.19 457.398 1
-11 -9 4 1025.9 416.975 4
-11 -9 4 1387.95 501.03 1
11 -4 9 1660.45 516.691 2
-9 11 4 1069.53 629.508 2
11 9 4 1615.32 565.499 2
-9 -11 -4 1316.6 515.89 1
11 -9 -4 1581.5 428.497 1
-9 -4 11 1702.36 385.001 4
4 -9 11 1300.12 555.63 1
9 -11 4 2145.37 522.786 1
-11 9 -4 1574.33 453.405 1
9 11 -4 1560.14 517.679 1
11 4 -9 1251.58 431.4 1
9 11 -4 1260.92 498.58 2
-11 9 -4 1568.47 590.091 2
-9 11 4 1461.22 517.921 1
-4 9 11 1065.6 340.53 3
-4 11 -9 1508.14 638.89 2
-11 -4 -9 1384.15 604.099 4
-9 4 -11 1539.8 486.334 1
-9 -4 11 1482.57 464.656 2
-4 -11 9 1562.51 599.404 1
4 9 -11 1504.39 544.065 2
-9 -4 11 1809.43 582.41 1
-11 -9 4 1786.23 595.361 2
4 11 9 1748.17 618.867 3
6 11 9 -195.648 310.383 3
11 9 6 13.9124 246.151 3
-9 -6 11 274.781 275.558 1
6 -11 -9 582.705 354.477 1
-11 9 -6 359.206 330.437 1
-9 6 -11 297.673 324.549 2
-9 11 6 180.754 277.293 2
-9 -11 -6 294.856 288.228 1
11 -9 -6 239.113 188.33 1
11 -6 9 696.611 370.198 1
6 -9 11 22.7636 177.156 1
11 6 -9 -71.5186 361.912 4
-11 -9 6 -57.8979 169.556 2
-9 -6 11 528.346 360.817 2
-11 -9 6 261.7 238.093 1
11 6 -9 309.441 300.623 1
11 -6 9 117.699 219.235 2
-11 9 -6 537.269 413.232 2
-6 11 -9 212.949 303.079 2
6 9 -11 456.835 402.993 4
-11 -6 -9 458.586 341.351 4
-6 -11 9 348.104 395.002 1
9 -11 6 267.671 188.349 1
6 9 -11 496.396 329.319 2
9 6 11 1116.39 652.518 3
9 11 -6 126.358 246.117 2
8 11 9 -265.993 487.031 3
8 -9 11 649.16 417.116 1
11 8 -9 555.79 310.948 1
8 -11 -9 267.853 258.037 1
-9 -11 -8 24.9824 149.387 1
-9 -8 11 155.001 213.584 2
9 -11 8 56.0852 322.504 1
9 8 11 46.0815 335.003 3
8 9 -11 76.2237 300.554 4
-11 -9 8 373.778 278.229 1
11 -8 9 4.57866 142.251 1
-11 9 -8 333.934 201.246 1
11 -9 -8 373.086 226.048 1
-11 -9 8 555.797 382.214 2
11 8 -9 404.931 397.226 4
11 9 8 3.6039 411.851 3
9 11 -8 649.674 398.466 2
-9 -8 11 -67.9522 177.813 1
-11 9 -8 -43.3324 164.476 2
-8 11 -9 -58.3484 271.253 2
-11 -8 -9 245.4 442.051 4
-8 -11 9 856.208 446.548 1
-9 8 -11 130.812 286.112 2
8 9 -11 -31.7783 226.742 2
11 8 -9 400.757 256.723 2
-10 11 -9 2118.48 829.56 2
10 11 9 788.872 496.26 3
11 -9 -10 902.072 374.279 1
-9 -11 -10 1530.23 593.517 1
-11 -10 -9 932.182 386.349 1
-10 -11 9 1446.96 582.157 1
10 9 -11 2260.02 740.531 4
10 -11 -9 1549.66 489.821 1
10 9 -11 1551.54 563.924 2
-11 -9 10 1325.44 557.297 1
11 -10 9 1745.77 633.643 1
10 -9 11 1659.52 631.822 1
-9 -10 11 1455.91 631.61 1
9 10 11 1628.21 678.121 3
11 9 10 2165.49 853.399 3
-10 -11 9 1716.9 719.555 2
-11 -9 10 1013.35 452.092 2
9 -11 10 1593.72 617.307 1
-9 10 -11 2018.49 789.48 2
9 11 -10 1938.06 677.675 2
-11 9 -10 1076.54 501.926 2
11 10 -9 1133.77 508.65 2
-11 -10 -9 794.937 535.288 4
9 -10 -11 1418.33 447.779 1
-10 -9 -11 1555.07 576.268 4
-11 -10 -7 -49.8217 215.239 1
-11 10 7 477.528 581 2
-11 -7 10 413.396 344.261 2
10 -7 11 370.419 362.864 1
-11 -7 10 -150.156 146.956 1
10 -11 -7 404.103 351.528 1
-7 -10 11 285.709 189.883 1
10 7 -11 463.618 400.196 4
11 -10 7 289.246 296.91 1
7 11 -10 -84.8158 354.382 4
-7 10 -11 -4.45962 170.591 2
-10 -11 7 674.993 489.123 2
7 -11 10 -187.117 287.815 1
11 10 -7 397.86 303.893 2
-10 -11 7 37.0528 198.096 1
10 11 7 -39.4513 302.847 3
-7 -11 -10 106.569 276.527 1
-10 11 -7 98.1704 241.027 2
7 11 -10 278.653 353.93 2
-10 -7 -11 863.347 512.879 4
-11 -10 -7 275.047 347.386 4
-11 7 -10 -34.0807 147.471 2
11 7 10 590.337 291.659 3
7 10 11 603.574 483.454 3
-7 11 10 135.429 139.823 3
-5 -11 -10 285.23 327.01 1
10 11 5 120.035 268.703 2
11 10 -5 312.585 235.67 2
-11 10 5 -83.1014 356.621 2
-11 -5 10 339.178 230.988 1
-5 -10 11 341.005 212.66 1
5 -11 10 409.4 316.548 1
-10 -11 5 19.6182 202.855 2
-11 5 -10 353.932 285.172 1
10 -11 -5 333.864 266.745 1
-11 -5 10 -139.909 290.21 4
10 -5 11 414.771 298.281 1
-10 11 -5 754.586 368.613 1
5 10 11 20.1404 268.253 3
10 11 5 26.3234 370.329 3
-10 11 -5 -72.1272 279.788 2
11 10 -5 713.677 410.742 1
10 5 -11 289.066 276.687 1
-5 10 -11 5.73746 237.786 2
-11 -5 10 342.954 295.485 2
-10 -5 -11 -553.018 455.778 4
5 11 -10 218.933 282.272 2
-11 -10 -5 9.4126 161.094 1
-11 -10 -5 138.968 286.532 4
-10 -11 5 284.713 199.772 1
-11 5 -10 204.917 164.943 2
11 5 10 992.102 558.804 3
11 -10 5 476.584 302.379 1
-5 11 10 -43.3636 194.166 3
10 5 -11 4.55573 242.271 4
11 -3 -10 685.117 300.047 1
10 3 -11 384.006 260.971 1
-10 -3 -11 3230.09 800.922 4
3 -11 10 429.343 251.391 1
10 11 3 639.655 449.901 2
-10 11 -3 795.62 436.577 1
-11 -3 10 -58.521 311.746 4
-10 -11 3 1402.26 681.894 2
-11 10 3 73.1181 341.336 2
-3 -10 11 552.981 450.216 1
11 -10 3 658.925 609.306 2
11 3 10 901.735 579.878 3
-11 -10 -3 -84.7555 183.153 1
3 11 -10 728.994 374.118 2
11 10 -3 538.547 303.523 1
3 10 11 2038.03 770.024 4
-11 10 3 477.447 314.104 1
-11 -10 -3 920.699 455.404 4
-10 11 -3 1018.28 530.202 2
11 -10 3 218.445 180.901 1
11 10 -3 1318.31 533.977 2
-11 -3 10 380.928 239.253 1
10 -11 -3 604.549 272.049 1
-11 -3 10 118.01 140.743 2
-3 10 -11 691.786 466.56 2
-3 -11 -10 366.24 239.153 1
3 10 11 1195.46 591.251 3
-11 3 -10 203.62 141.358 1
-3 11 10 196.74 187.471 3
-10 -11 3 646.048 395.585 1
-1 -11 -10 -217.322 266.452 1
-11 -1 10 265.94 339.876 4
-10 -1 -11 1457.5 614.894 4
-11 1 -10 190.996 215.61 1
1 -11 10 113.722 280.153 1
10 11 1 266.04 222.509 1
-10 -11 1 331.644 352.654 2
11 -10 1 -22.7993 209.342 1
10 -11 -1 236.523 358.331 2
-11 10 1 270.735 216.293 1
11 -10 1 663.311 569.691 2
10 11 1 69.5787 286.037 2
-1 -10 11 334.869 283.4 1
-11 10 1 192.288 367.309 2
11 -1 -10 221.951 151.503 1
11 10 -1 595.898 331.493 2
-10 11 -1 -95.8895 183.438 2
-10 11 -1 232.187 186.551 1
-1 10 -11 521.302 365.041 2
-11 -10 -1 140.471 188.379 1
1 10 11 94.2262 320.174 3
-10 -11 1 114.793 204.631 1
10 1 -11 81.4703 143.027 1
1 11 -10 647.209 415.88 2
11 10 -1 149.101 180.862 1
10 -11 -1 271.348 229.2 1
-11 -10 -1 482.048 272.254 4
10 -1 11 200.555 158.276 2
-1 11 10 490.29 328.228 3
1 -11 -10 450.411 336.662 1
-1 -11 10 587.191 470.887 1
11 10 1 83.742 145.83 1
-11 -10 1 239.217 191.029 2
11 -10 -1 109.073 331.628 2
-10 1 -11 245.365 228.338 1
-11 -10 1 160.325 345.265 1
-10 11 1 223.929 271.364 1
10 11 -1 305.771 195.614 1
-11 -1 -10 2180.13 794.436 4
10 -11 1 478.309 340.358 1
-10 11 1 321.821 340.584 2
11 -1 10 389.379 320.047 2
10 11 -1 409.754 372.546 2
1 -10 11 568.384 344.122 1
-11 10 -1 96.4965 129.495 1
-11 10 -1 -195.138 289.406 2
11 10 1 585.939 336.669 2
11 1 -10 148.61 134.934 1
-10 -11 -1 324.603 330.937 1
10 -1 -11 331.548 204.098 1
-10 -1 11 934.603 412.947 4
-1 11 -10 170.041 218.521 2
1 10 -11 547.236 475.551 2
11 -10 -1 25.7484 107.056 1
-1 10 11 -200.914 333.507 3
1 11 10 582.111 347.574 3
-11 -10 3 561.6 417.884 1
-10 -3 11 340.949 284.837 1
-10 -3 11 19.7215 290.652 4
-10 3 -11 704.185 358.646 1
11 10 3 662.319 361.552 3
-10 11 3 720.369 342.832 1
10 -3 -11 418.832 224.608 1
-3 10 11 355.1 266.129 3
10 -11 3 738.277 385.748 1
-3 -11 10 730.066 350.687 1
11 10 3 416.429 331.002 2
-11 -10 3 1534.25 635.183 2
-11 10 -3 592.574 324.981 1
-10 11 3 210.33 279.085 2
-3 11 -10 773.901 522.014 2
-10 -11 -3 583.58 317.247 1
11 3 -10 490.225 266.551 1
10 11 -3 764.236 430.207 1
3 -10 11 931.666 467.576 1
10 11 -3 613.168 372.711 2
-11 10 -3 285.289 271.75 2
3 -11 -10 338.852 267.479 1
-10 -3 11 434.553 295.743 2
11 -10 -3 168.809 132.117 1
11 -3 10 736.154 417.265 2
-11 -3 -10 1932.75 722.135 4
3 10 -11 470.985 357.507 2
10 3 11 1227.65 423.497 3
11 -10 -3 503.183 146.322 3
3 11 10 1202.67 461.506 3
11 10 3 446.416 358.066 1
5 10 -11 112.219 258.798 2
-5 10 11 -155.691 250.304 3
10 -11 5 112.127 190.418 1
-10 -5 11 197.893 208.867 2
-10 11 5 -44.3049 381.22 2
-11 -10 5 290.228 291.935 1
-11 -10 5 247.288 264.746 2
11 -10 -5 263.006 246.139 1
10 11 -5 261.279 300.616 2
11 -5 10 154.427 154.984 1
-10 -5 11 688.946 387.921 1
11 5 -10 495.044 358.739 1
11 5 -10 435.895 285.219 4
-11 10 -5 192.001 161.745 2
11 10 5 1273.73 547.256 3
-5 11 -10 144.902 301.31 2
-11 -5 -10 607.656 410.389 4
5 -11 -10 671.088 399.084 1
-11 10 -5 341.493 249.189 1
5 -10 11 438.056 381.145 1
-10 -11 -5 364.012 285.583 1
-5 -11 10 -218.244 363.361 1
5 11 10 -58.7631 361.625 3
10 5 11 658.113 512.675 3
-7 10 11 281.696 158.995 3
10 -11 7 88.0951 262.754 1
-11 10 -7 143.05 157.193 1
-10 11 7 120.194 287.277 2
11 -10 -7 28.9154 122.547 1
11 7 -10 97.5684 139.67 1
-10 7 -11 278.052 338.439 2
7 10 -11 -401.445 399.982 4
-10 -7 11 275.048 295.328 2
-11 10 -7 -14.0023 202.399 2
11 10 7 408.457 418.475 3
-11 -10 7 14.1996 295.086 2
-7 -11 10 77.7688 219.199 1
-7 11 -10 580.781 409.398 2
-11 -10 7 692.104 404.017 1
10 11 -7 265.541 308.456 2
7 -10 11 212.201 174.468 1
11 7 -10 -169.599 353.626 4
-11 -7 -10 231.796 399.702 4
-10 -11 -7 423.828 374.613 1
7 -11 -10 -110.495 169.862 1
-10 -7 11 -19.4791 188.755 1
7 10 -11 364.942 350.077 2
10 7 11 1612.58 769.938 3
11 -7 10 -121.889 192.313 1
7 11 10 560.166 399.205 3
9 10 -11 1047.24 312.322 4
11 10 9 1327.18 714.637 3
-10 -11 -9 1156.89 492.137 1
-11 -10 9 1530.7 669.107 2
11 -10 -9 1342.09 441.545 1
11 -9 10 1691.7 603.933 1
-9 11 -10 1984.53 774.406 2
-11 -10 9 1337.92 563.264 1
-10 -9 11 1542.17 655.98 1
10 -11 9 1768.34 648.792 1
9 -11 -10 1969.54 557.392 1
9 11 10 1393.55 716.473 3
11 9 -10 715.932 513.056 4
-11 10 -9 2240.01 723.244 2
10 11 -9 1488.8 599.452 2
-11 -9 -10 1157.71 547.504 4
-10 9 -11 1582.9 655.013 2
9 10 -11 1740.57 643.024 2
11 9 -10 1886.61 621.579 2
9 -10 11 1806.61 590.221 1
10 9 11 1187.83 629.11 3
-9 -11 10 1230.74 536.755 1
11 11 0 1045.47 478.681 1
-11 0 -11 1507.22 509.423 1
0 -11 11 1382.25 588.349 1
-11 11 0 1346.65 498.804 1
0 11 -11 764.841 455.698 2
11 11 0 987.791 493.336 2
-11 11 0 1102.2 661.31 2
-11 0 11 488.865 317.194 4
-11 0 -11 827.325 450.199 4
-11 -11 0 1107.01 497.154 1
11 -11 0 1302.07 393.663 1
11 0 11 1286.73 470.976 2
11 0 -11 1576.1 453.44 1
0 11 11 658.993 298.966 3
-2 11 11 6303.51 892.229 3
-11 -11 -2 10339.9 1395.17 1
-2 -11 11 11794.8 1608.93 1
2 -11 11 11530.9 1580.66 1
-11 11 -2 11709.7 1336.01 1
-11 -11 2 9317.85 1422.55 2
11 11 2 9538.06 1372.95 2
11 11 -2 10931.4 1473.62 2
-11 11 -2 8957.22 1534.14 2
-11 2 -11 9407.08 1256.73 1
-11 -2 11 5801.3 980.088 4
11 -11 -2 10796.5 1214.88 1
-11 -11 2 10407.8 1410.46 1
-11 11 2 7828.06 1508.75 2
-2 11 -11 10922.7 1592.83 2
2 11 -11 10830 1562.44 2
11 -2 11 8795.67 1281.63 2
11 -11 2 10518.4 1262.6 1
-11 -2 -11 6183.15 1167.48 4
11 11 -2 11283.2 1371.78 1
-11 11 2 11727 1277.31 1
11 2 11 7048.86 1351.16 3
11 11 2 8735.8 1238.41 1
11 -2 -11 9431.28 1073.05 1
2 11 11 6565.27 1059.85 3
11 2 -11 10609.9 1237.02 1
-11 11 4 1479.27 473.549 1
11 11 4 394.461 284.943 3
-11 -4 11 1227.78 447.411 1
-11 -11 4 1360.08 477.579 1
-11 -4 11 748.043 350.325 4
-4 -11 11 1287.68 528.274 1
11 11 4 537.678 271.285 2
-11 11 4 792.819 496.289 2
-11 -11 4 332.654 264.203 2
11 4 -11 972.024 372.92 1
-11 -11 -4 852.102 451.501 1
-11 4 -11 989.752 427.678 1
-4 11 -11 718.562 515.894 2
11 11 -4 1538.61 547.271 1
11 -11 -4 953.593 389.431 1
-11 11 -4 1341.71 590.794 2
11 11 -4 880.17 458.661 2
4 11 -11 1505.67 619.703 2
-11 11 -4 1148.48 473.794 1
11 4 11 1594.78 697.524 3
-11 -4 11 757.946 339.64 2
4 -11 11 861.144 524.741 1
11 -11 4 1152.28 373.215 1
-4 11 11 321.873 213.631 3
4 11 11 1443.42 561.186 3
-11 -4 -11 854.953 545.523 4
4 -11 -11 1354.71 501.966 1
11 -11 6 647.689 408.997 1
-11 -6 11 705.462 448.544 1
-11 -11 -6 557.48 354.986 1
-6 11 -11 507.41 450.722 2
11 -6 11 649.048 392.837 1
11 -11 -6 563.467 279.418 1
-11 -11 6 766.507 461.947 2
-11 -11 6 569.362 346.202 1
-6 -11 11 981.536 524.315 1
11 6 -11 792.956 404.012 1
6 -11 -11 792.879 441.184 1
6 -11 11 526.491 330.76 1
11 11 -6 1043.01 496.185 2
-11 11 -6 442.152 298.081 2
11 6 -11 903.741 468.608 4
-11 -6 11 820.239 319.768 2
11 11 6 -422.021 342.619 3
-11 11 6 139.716 266.527 2
-11 -6 -11 1176.11 505.53 4
6 11 -11 642.553 370.607 2
-11 6 -11 413.931 280.761 2
11 6 11 1014.86 711.651 3
-6 11 11 563.628 234.444 3
-11 11 -6 574.689 365.186 1
6 11 11 873.813 526.454 3
11 11 8 3107.97 831.137 3
11 -8 11 3995.56 902.331 1
-11 -11 -8 3615.06 876.068 1
11 -11 8 6280.79 1161.41 1
-11 11 8 3234.04 1154.06 2
11 8 -11 4714.36 1012.94 4
11 -11 -8 4058.65 771.262 1
11 11 -8 4782.4 1011.44 2
8 -11 -11 3723.39 789.707 1
-11 -11 8 3925.1 986.166 2
-11 -11 8 4061.59 962.197 1
8 11 -11 2767.89 882.183 4
-11 -8 11 4029.52 940.42 2
-11 -8 11 3491.77 880.772 1
-8 11 -11 3736.78 1023.38 2
-8 -11 11 4092.35 959.366 1
8 11 -11 4376.37 1011.06 2
-11 11 -8 3982.68 1069.44 2
8 -11 11 4696.07 1044.97 1
-11 8 -11 4660.12 1050.75 2
-8 -11 -11 3335.43 839.973 1
-8 11 11 2417.16 384.922 3
11 8 11 3141.29 969.401 3
8 11 11 3274.43 974.927 3
-11 -8 -11 1824.57 643.613 4
11 11 10 1567.42 682.44 3
-10 -11 -11 559.293 358.262 1
-11 -11 -10 662.699 435.707 1
11 -11 -10 434.847 317.955 1
-11 -11 10 794.275 389.77 1
11 -10 11 1151.02 564.227 1
-10 -11 11 88.9908 310.616 1
-11 -10 11 898.198 432.409 1
11 11 -10 781.533 423.067 2
11 -11 10 706.078 460.107 1
-11 11 -10 378.301 365.853 2
-10 11 -11 585.688 447.939 2
11 -10 -11 569.663 324.661 1
-11 10 -11 950.459 510.025 2
-11 -10 -11 447.953 273.425 4
10 -11 11 1078.04 505.674 1
10 11 -11 608.861 363.929 2
11 10 -11 583.479 282.555 2
11 10 11 609.239 337.852 3
10 -11 -11 342.023 188.124 1
10 11 11 -232.216 495.848 3
12 0 0 3771.36 675.198 3
0 12 0 2066.66 834.899 2
0 0 -12 2461.66 643.923 1
0 12 0 2487.67 642.229 1
0 0 -12 3035.98 344.958 4
0 -12 0 3842.66 1047.06 2
0 -12 0 1839.06 609.644 1
-12 0 0 3250.38 650.143 3
12 -1 -1 5660.11 775.707 3
1 12 1 5268.06 932.451 1
12 1 1 4014.03 770.213 3
-1 12 -1 5586.57 941.283 1
-1 -12 -1 5416.51 1239.29 2
1 -12 -1 6056.29 1365.41 2
1 -12 1 5529.42 1268.06 2
12 -1 1 5225.76 599.822 2
-1 12 1 5140.35 1153.36 2
-1 -12 -1 5526.61 996.57 1
1 -12 -1 5490.67 971.843 1
1 -1 -12 4452.63 821.11 1
-12 -1 1 4970.75 971.126 4
-12 1 1 4375.59 446.462 2
-1 -12 1 5889.98 997.127 1
1 12 1 4419.91 1038.09 2
1 12 -1 4830.49 1100.42 2
-1 12 -1 5435.19 1134.47 2
1 -12 1 5477.86 931.128 1
-1 1 -12 3523.17 437.342 4
-12 1 -1 4948.27 472.901 2
-1 -1 -12 5252.8 537.194 4
-12 -1 -1 3299.31 888.385 4
-1 -12 1 4665.86 1054.64 2
-12 -1 -1 3290.38 346.781 1
-12 1 -1 5012.18 746.8 3
-12 1 1 5019.08 762.177 3
1 1 -12 5423.29 873.942 1
12 -1 1 6156.45 909.613 3
12 1 -1 4993.62 779.559 3
1 12 -1 5633.74 965.931 1
-12 -1 -1 5063.52 807.698 3
-12 -1 1 4702.48 825.79 3
-1 12 1 6241.68 999.034 1
-1 1 -12 4814.53 853.596 1
0 -12 -2 1594 784.616 2
12 -2 0 851.238 280.014 2
-2 -12 0 261.812 535.776 2
2 -12 0 1202.39 694.715 2
0 12 2 625.399 526.316 2
0 -12 2 -144.403 315.341 2
2 12 0 216.2 230.679 1
2 12 0 260.188 255.036 2
-2 12 0 266.677 258.409 2
-2 12 0 391.919 291.522 1
0 12 -2 310.726 332.303 2
12 2 0 590.466 325.66 3
12 0 2 537.942 202.942 2
0 -12 -2 497.747 307.223 1
-2 -12 0 -42.049 202.539 1
0 2 12 1899.05 387.216 4
0 2 -12 262.23 247.199 1
-2 0 -12 411.253 269.433 1
12 -2 0 905.065 311.408 3
0 12 -2 261.848 209.737 1
2 -12 0 194.519 327.71 1
0 12 2 570.731 345.686 1
-12 0 -2 258.993 136.837 1
-12 2 0 378.141 185.665 2
-12 -2 0 101.983 108.75 1
-2 0 -12 1072.65 268.459 4
-12 0 -2 1097.96 376.457 3
-12 -2 0 1356.05 480.98 4
2 0 -12 278.216 232.033 1
0 -12 2 506.698 326.048 1
-12 2 0 1231.37 374.863 3
-12 0 2 767.392 345.778 3
-12 -2 0 686.216 372.143 3
12 0 2 -20.3439 219.098 3
12 2 2 1883.09 547.259 3
-12 -2 2 1623.54 558.657 3
-2 -12 -2 639.443 329.943 3
12 -2 -2 1643.85 433.514 3
-12 -2 -2 251.423 172.358 1
-2 12 2 402.584 302.015 1
2 -12 -2 452.545 446.229 2
-12 2 -2 459.955 223.32 2
2 12 2 304.145 291.891 1
2 12 2 892.325 511.036 2
-2 -2 -12 1771.03 377.055 4
-2 12 2 139.934 221.946 2
-2 -12 2 1170.41 652.632 2
2 -12 2 1132.05 750.69 2
2 2 -12 304.254 337.984 1
12 -2 2 1522.28 484.745 3
12 -2 2 713.225 293.312 2
2 12 -2 477.156 313.205 2
-2 12 -2 1301.5 668.434 2
-12 -2 2 369.105 147.361 1
-2 -12 -2 159.592 176.024 1
2 -12 -2 351.388 339.169 1
2 12 -2 371.485 244.08 1
-2 12 -2 997.109 425.052 1
-12 -2 -2 2890.22 735.161 4
-12 -2 2 2883.36 823.281 4
12 2 2 291.121 112.534 2
-12 2 2 364.558 226.477 2
-12 -2 -2 1739.56 546.058 3
12 2 -2 352.552 140.34 1
-2 -12 2 441.73 269.705 1
-2 2 -12 274.495 241.184 1
2 -2 12 565.446 409.063 2
2 -12 2 395.92 229.05 1
-12 2 2 1282.02 409.037 3
-12 2 -2 177.789 115.13 1
-1 -12 -3 2574.39 561.478 3
-1 3 -12 2067.1 598.51 1
-1 12 3 2310.67 675.816 1
-12 -3 -1 1491.08 597.026 4
-3 -12 1 3165.98 988.186 2
3 -12 -1 2191.35 757.435 2
-3 -1 -12 1753.12 419.911 4
-1 12 3 1576.41 652.482 2
3 12 1 2048.63 579.02 1
12 -3 1 2140.88 500.525 2
3 12 1 1885.36 667.808 2
1 -12 3 2385.34 800.075 2
12 1 3 2377.27 383.056 2
-3 12 -1 2435.45 774.907 2
-1 -12 -3 1953.46 526.886 1
-12 3 1 2509.01 485.884 2
-12 1 -3 2138.41 340.671 1
1 12 -3 2123.17 696.326 2
-3 12 -1 2295.55 583.672 1
-12 -1 3 1872.51 255.006 1
-1 -3 12 2217.62 628.002 2
3 -12 -1 2073.09 585.811 1
1 12 -3 2215.33 602.43 1
-12 -1 3 2879.74 700.328 4
12 -3 1 2320.92 546.62 3
-3 -12 1 1824.45 582.701 1
1 3 12 3443.56 594.703 4
3 1 -12 2553.91 607.547 1
-12 -1 3 2668.68 602.242 3
-12 3 1 2358.04 479.534 3
-1 -3 12 2394.54 646.653 1
12 3 -1 2008.49 303.96 1
-12 -3 -1 1763.34 489.994 3
12 1 3 2075.01 594.148 3
-12 -3 -1 2204.03 375.777 1
1 -12 3 2534.16 701.861 1
1 3 -12 2499.51 651.514 1
12 -3 -1 2827.86 531.9 3
12 3 1 2585.76 626.248 3
1 -12 -3 2443.7 482.413 3
-3 -12 -1 1511.1 705.358 2
-12 1 3 1623.69 326.981 2
-12 3 -1 1284.21 214.394 1
1 12 3 1853.3 730.016 2
3 -12 1 2941.31 934.756 2
1 12 3 2307.61 638.274 1
-1 3 12 1792.83 405.485 4
-3 12 1 2596.13 657.248 1
-3 12 1 2317.44 805.589 2
-1 -12 3 2118.26 759.552 2
-3 1 -12 2121.69 597.635 1
3 12 -1 2025.53 769.031 2
1 -12 -3 1705.47 575.783 1
3 12 -1 2228.73 619.011 1
-1 12 -3 1984.9 701.575 2
12 -1 3 1870.65 402.618 2
-3 -12 -1 1930.19 560.811 1
3 -1 -12 2238.34 555.021 1
-12 3 -1 2118.4 441.332 2
-3 1 -12 2323.27 486.201 4
-12 -1 -3 2595.46 578.915 3
-1 12 -3 1969.71 576.205 1
-12 -1 -3 4092.44 932.187 4
1 -3 12 2671.94 683.618 1
-12 -3 1 1543.82 651.715 4
3 -12 1 1697.99 524.888 1
1 -3 12 2503.27 658.315 2
-12 -3 1 1628.87 305.423 1
12 -1 3 2410.69 599.913 3
-1 -12 3 2000.08 606.225 1
-12 1 3 1925.48 486.185 3
-12 -3 1 2631.63 684.953 3
-12 -3 3 2779.39 696.503 3
3 -12 3 1730.97 543.488 1
3 -3 12 2626.68 683.354 1
12 3 3 3679 778.129 3
-3 3 -12 2204.91 586.504 1
3 12 3 1410.16 675.897 2
-3 12 3 1417.44 649.65 2
-12 3 -3 1649.65 413.536 2
-3 -12 3 2303.91 849.843 2
-3 -12 -3 1500.39 573.773 1
3 -12 -3 1374.77 478.383 1
12 -3 3 2245.19 574.281 2
3 12 -3 2327.61 747.165 2
-3 12 -3 1770.59 673.823 2
-3 -3 12 1882.04 620.879 1
3 12 -3 1904.82 559.904 1
-12 3 -3 1413.13 312.003 1
3 3 12 626.042 228.451 4
12 -3 3 2764.88 714.09 3
-12 -3 3 1710.56 346.108 1
-12 -3 -3 5042.16 1076.49 4
-12 -3 3 3464.52 925.438 4
12 3 -3 2042.76 350.65 1
-12 -3 -3 1590.71 378.505 1
-3 -3 -12 2601.32 490.582 4
-3 12 -3 2209.93 601.06 1
-12 3 3 2356.1 523.2 2
-3 -3 12 2836.21 727.016 2
3 3 -12 2164.35 573.762 1
-3 12 3 2027.28 616.492 1
-12 -3 -3 2901.7 664.973 3
-12 3 3 1904.52 387.586 3
-3 -12 3 1616.67 532.711 1
-3 -12 -3 2018.95 596.282 3
-2 -12 -4 1432.95 442.12 3
-2 12 4 847.793 585.079 2
-12 -2 4 1827.68 564.089 3
-2 12 4 861.136 410.336 1
4 2 -12 491.715 301.696 1
4 12 2 1031.89 507.143 1
12 4 -2 634.514 211.091 1
4 12 2 683.939 489.921 2
-4 -12 2 1118.55 612.061 2
-12 4 2 1563.22 476.695 2
-2 -12 -4 549.665 331.097 1
12 -4 2 1840.44 582.347 2
2 -12 4 648.446 283.448 1
4 -2 12 731.43 411.445 2
-2 -4 12 949.937 414.932 1
-4 12 -2 883.856 559.328 2
-12 2 -4 753.757 236.671 1
2 12 -4 816.884 477.37 2
-4 -2 -12 2016.85 485.977 4
4 -12 -2 1061.73 424.474 1
-4 12 -2 643.52 310.227 1
12 -4 2 986.686 237.518 1
12 4 -2 1602.29 578.589 4
2 4 12 490.957 359.683 4
-12 -2 4 746.774 187.886 2
-12 -2 4 900.343 243.011 1
-12 -2 4 1089.96 514.354 4
-12 -4 -2 2480.97 769.959 4
-4 -12 2 899.745 410.421 1
-2 -4 12 1286.02 541.518 2
12 2 4 1000.56 253.019 2
-12 -4 -2 608.796 257.724 1
-12 2 -4 1073.78 323.93 2
12 -4 2 1676.48 495.404 3
-12 -4 -2 2092.57 605.651 3
12 2 4 2351.69 695.645 3
4 0 -12 5758.12 910.688 1
12 -4 0 7487.62 1007.67 2
-4 -12 0 7733.33 1488.43 2
4 -12 0 7406.96 1519.12 2
4 12 0 5978.13 1243.43 2
-4 12 0 6148.76 1228.19 2
0 -12 4 8143.64 1525.32 2
-12 -4 0 5702.74 671.122 1
-4 -12 0 5436.76 1037.75 1
0 12 -4 6207.48 1290.1 2
0 -4 12 6631.44 1072.27 1
0 12 4 4735.11 1125.19 2
12 4 0 7262.08 1003.24 3
-12 0 -4 5761.32 626.063 1
12 -4 0 3858.25 385.034 1
-4 0 -12 5840.89 966.037 1
12 0 4 5276.02 657.484 2
12 4 0 9145.41 1410.2 4
12 0 -4 4037.6 389.729 1
0 -12 4 5907.83 1020.4 1
0 -4 12 6857.64 1137.84 2
4 -12 0 5532.18 957.595 1
0 -12 -4 5785.67 997.907 1
-12 -4 0 11497.2 1571.95 4
-4 0 -12 8914.9 951.567 4
-12 0 4 6547.79 942.461 3
0 4 12 3223.33 560.163 4
-12 -4 0 7601.28 1127.13 3
12 0 4 8572.88 1221.87 3
12 -4 0 8120.83 939.758 3
0 -12 -4 4878.22 717.187 3
0 12 4 5342.72 984.55 1
4 12 0 6140.82 1018.72 1
-12 4 0 5483.59 807.146 2
-4 12 0 6199.71 982.193 1
2 -4 12 1044.35 448.254 1
-12 -4 2 1477.15 624.521 3
12 4 2 1706.12 601.298 3
-4 -12 -2 1680.18 517.482 3
-2 -12 4 778.656 421.503 1
2 4 -12 1042.73 428.977 1
-12 -4 2 1164.16 295.98 1
2 -12 -4 1704.39 401.218 3
2 12 4 820.514 514.38 2
12 -4 -2 2099.28 422.072 3
-4 12 2 971.451 434.774 1
-4 12 2 1178.07 664.681 2
-2 12 -4 839.451 387.901 1
2 -12 -4 651.227 352.393 1
-2 -12 4 1015.82 538.632 2
-4 2 -12 963.918 430.265 1
4 12 -2 1148.39 602.714 2
-4 -12 -2 983.695 471.804 1
4 12 -2 956.925 441.43 1
-2 12 -4 1523.84 657.754 2
12 2 -4 829.665 219.77 1
12 -2 4 787.63 345.014 2
-12 4 -2 1176.85 404.348 2
-12 -2 -4 2724.5 739.964 4
-12 -4 2 2347.75 806.046 4
4 -12 2 889.68 423.574 1
12 -2 4 1598.38 579.295 3
-12 -2 -4 929.725 332.395 3
-12 4 -2 989.58 256.145 1
-12 2 4 1252.33 434.397 3
-4 -12 -4 4407.32 826.14 3
-12 -4 4 5027.14 925.308 3
-12 4 4 5371.39 892.803 2
-4 -12 4 5527.01 1252.54 2
-12 -4 4 4153.48 531.634 2
12 -4 4 4720.24 880.71 2
12 -4 4 3737.06 532.934 1
12 4 -4 4915.62 629.84 1
-4 -4 12 5260.88 981.732 1
4 12 -4 4988.16 1097.77 2
4 12 4 3737.24 1010.45 2
4 4 -12 4952.86 913.515 1
-4 12 4 3936.08 1100.41 2
4 4 12 7303.6 1064.94 4
-4 12 -4 4956.65 896.515 1
4 -4 12 4247.72 915.958 1
-12 -4 4 7446.51 1240.5 4
-12 4 -4 4245.5 720.283 2
-4 -12 4 5026.02 949.88 1
-4 12 -4 4048.53 1011.79 2
-4 -4 12 5669.14 1038 2
-12 4 -4 3972.66 571.385 1
4 -12 4 4313.8 877.804 1
4 4 -12 4450.74 494.137 4
-4 -4 -12 5458.11 782.893 4
-12 -4 4 4294.73 608.915 1
-12 -4 -4 5767.13 1214.5 4
12 -4 4 6335.41 1019.46 3
-12 4 4 4421.14 570.81 3
4 -12 -4 4994.39 599.857 3
-4 -12 -4 4563.2 926.613 1
-12 -4 -4 4625.58 668.333 1
-4 12 4 5082.24 967.642 1
12 -4 -4 3795.57 407.727 1
4 -12 -4 5179.1 948.331 1
12 4 4 4050.96 870.648 3
12 5 -3 4622.65 629.918 1
5 -12 -3 4820.51 851.514 1
-12 3 -5 4264.33 626.435 1
-12 5 3 5249.77 899.52 2
12 -5 3 4656.76 899.85 2
-5 12 -3 4546.54 852.76 1
-3 12 5 3462.73 1065.65 2
-12 -3 5 4754.58 634.35 1
5 12 3 3813.31 947.734 2
-3 -12 -5 4354.09 899.689 1
-5 -12 3 4181.6 1035.1 2
5 3 -12 4541.18 840.387 1
-12 -3 5 3734.1 493.818 2
12 -5 3 4450.54 587.094 1
-3 -5 12 5314.27 1011.43 2
-5 12 -3 4070.89 989.248 2
-5 -3 -12 3048.56 636.16 4
12 5 -3 4204.61 444.352 2
-12 3 -5 4496.29 705.23 2
3 12 -5 4038.04 984.703 2
3 -12 5 5004.55 922.434 1
12 5 -3 2080.34 645.914 4
-12 -5 -3 4367.41 990.036 4
3 5 12 2492.17 619.56 4
-12 -3 5 5008.41 1023.99 4
-3 -5 12 5298.12 967.536 1
-3 12 5 5190.19 975.887 1
-12 -5 -3 3675.82 608.919 1
-5 -12 3 4253.2 900.36 1
12 3 5 4316.64 951.146 3
-3 -12 -5 3695.34 721.816 3
-12 -5 -1 4471.89 656.51 1
-5 12 -1 5044 899.398 1
12 -5 1 4197.5 499.666 1
12 -5 1 5504.6 984.471 2
-12 5 1 4147.23 803.341 2
-12 -5 -1 4609.33 1009.28 4
-5 -12 1 3596.28 1057.04 2
1 -12 5 4205.66 860.524 1
-1 -12 -5 3882.02 856.013 1
5 12 1 4260.01 844.175 1
12 5 -1 2838.05 363.965 2
5 12 1 3385.95 940.679 2
-5 12 -1 3732.55 1035.98 2
-1 12 5 3362.11 1135.84 2
-1 -5 12 4460.28 897.153 1
-12 1 -5 4748.48 638.486 1
12 1 5 3753.14 555.099 2
1 12 -5 3959.45 980.981 2
5 -12 -1 3673.35 769.084 1
-12 -1 5 4641.19 1012.53 4
1 5 12 2450.47 609.23 4
-5 -1 -12 4892.62 789.342 4
5 1 -12 4548.88 809.436 1
12 -5 1 5938.94 895.58 3
-5 -12 1 4124.71 883.651 1
12 5 -1 3773.69 543.784 1
-12 -1 5 3651.67 737.776 3
-12 5 1 3953.11 434.203 1
12 1 5 5824.7 1098.14 3
-12 -5 -1 4006.91 804.35 3
-1 -12 -5 3736.1 699.478 3
12 -1 -5 3916.11 432.861 1
-5 -12 -1 5100.56 988.061 3
1 -5 12 4592.63 895.464 1
-12 1 5 6003.94 851.919 3
-12 5 -1 4256.74 502.787 1
-5 -12 -1 4318.42 1181.68 2
12 5 1 3655.59 787.413 3
-12 5 -1 4568.06 809.138 2
-1 12 -5 4602.98 1081.41 2
5 -1 -12 4765.11 807.891 1
-1 -12 5 3825.56 811.542 1
-12 -5 1 4483.52 927.394 3
-12 -5 1 4069.38 630.459 1
1 -12 -5 3966.05 836.88 1
-5 12 1 4571.96 1161.15 2
12 -1 5 4061.77 671.64 2
1 12 5 3170.32 1087.6 2
5 12 -1 3794.27 917.058 2
12 5 1 2998.98 467.501 2
12 1 -5 4539.94 521.723 1
-5 -12 -1 4309.32 894.363 1
12 -5 -1 4076 457.55 1
-12 -1 -5 4398.69 1049.62 4
-5 1 -12 5738.87 951.679 1
-12 -5 1 4058.6 955.48 4
12 -5 -1 5954.52 754.548 3
1 -12 -5 4425.1 670.226 3
5 -12 1 4108.94 832.996 1
12 -1 5 4197.92 926.529 3
-5 12 1 4771.92 868.726 1
5 12 -1 4199.59 847.628 1
-12 -5 3 4724.7 940.387 3
-12 -5 3 4057.12 554.316 2
12 -5 -3 3790.91 440.733 1
3 12 5 2994.04 920.203 2
12 -3 5 3867.34 800.568 3
-3 -12 5 4289.33 891.533 1
-5 -3 12 5339.02 954.895 1
12 -3 5 5227.8 861.023 2
-12 5 -3 4597.39 801.42 2
12 3 -5 4786.71 620.477 1
-3 -12 5 5258.89 1159.5 2
-12 5 -3 4757.5 603.899 1
5 12 -3 4000.8 976.694 2
5 -12 3 4493.09 860.403 1
-5 -12 -3 4131.77 837.014 3
-12 -5 3 3346.25 860.573 4
-3 12 -5 4047.5 996.686 2
-12 -5 3 4088.71 627.957 1
-5 -3 12 5561.26 1041.42 2
-12 -3 -5 4544.85 1066.45 4
-5 12 3 5013.88 891.78 1
-5 12 3 3840.77 1083.7 2
12 5 3 3959.68 843.943 3
3 -12 -5 4024.91 534.069 3
-12 3 5 4407.95 646.364 3
3 -12 -5 4697.14 870.947 1
3 -5 12 5193.62 983.094 1
-5 -12 -3 4744.99 973.082 1
-12 -5 -5 328.377 219.051 1
5 12 5 1417.13 497.654 3
12 -5 -5 243.789 152.183 1
-12 5 5 715.838 486.695 2
5 12 5 768.862 599.036 2
-5 -5 12 537.691 392.285 1
-5 -12 5 217.117 315.148 1
-5 -12 -5 64.0973 205.912 1
-12 5 -5 343.131 232.452 2
5 -12 -5 269.632 354.801 1
12 5 -5 1073.71 425.847 4
-5 12 5 -35.0257 386.342 2
5 -12 -5 1172.59 282.834 3
-5 -12 5 1327.61 730.793 2
5 -12 5 431.818 221.818 1
-12 -5 5 535.988 315.703 2
12 -5 5 133.738 262.245 2
-12 5 -5 364.478 251.072 1
-5 12 -5 454.223 411.546 2
5 12 -5 44.8866 324.737 2
12 5 -5 423.767 244.77 1
-5 -5 -12 844.891 333.028 4
5 5 12 2051.07 606.619 4
-5 12 5 291.172 310.734 1
-12 -5 -5 1303.18 524.397 4
-12 -5 5 1142.19 588.23 4
5 5 -12 1891.29 410.562 4
5 -5 12 180.386 154.225 1
-12 5 5 1221.63 316.987 3
-5 -5 12 443.465 343.285 2
-12 -5 5 381.673 224.113 1
12 -5 5 424.856 243.437 1
-5 -12 -5 736.181 364.787 3
12 5 5 2008.49 723.102 3
-12 4 -6 1709.91 434.452 1
-6 -12 4 2368.42 679.688 1
-6 -4 -12 1518.5 524.476 4
4 6 12 93.6596 253.603 4
-12 -6 -4 1314.11 412.546 1
-4 12 6 1214.42 510.511 2
-12 -4 6 1590.67 381.394 2
-4 -12 -6 1577.68 520.91 1
-12 6 4 1681.21 581.542 2
6 -12 -4 1279.25 246.099 3
-6 -12 4 1458.67 669.302 2
-6 12 -4 2153.06 580.537 1
6 4 -12 1725.84 523.707 1
-12 -4 6 1473.35 646.057 4
6 -12 -4 2087.71 538.903 1
12 -6 4 2341.25 696.193 2
-12 -4 6 1685.81 446.599 1
4 -12 6 1892.3 609.069 1
6 12 4 732.027 459.637 2
-6 12 -4 1348.08 595.597 2
12 6 -4 1914.95 467.815 1
4 12 -6 2236.44 682.063 2
-4 -12 -6 1011.29 326.076 3
6 4 -12 526.586 184.606 4
12 6 -4 579.391 400.703 4
12 6 -4 1879.42 379.721 2
-12 -6 -4 1137.4 615.079 4
6 -4 12 1691.81 551.558 1
-12 4 -6 1615.56 447.041 2
-4 -6 12 1361.44 509.142 1
12 -6 4 1539.34 399.747 1
-4 6 -12 1730.39 548.82 2
12 4 6 2328.1 660.889 3
-12 -2 6 1647.59 366.041 1
-2 -12 -6 1580.54 519.524 1
12 -6 2 1528.26 343.801 1
-2 12 6 1326.1 762.672 2
6 12 2 1310.91 559.128 2
12 -2 -6 1581.23 305.11 1
12 6 -2 1440.98 404.015 1
12 -6 2 1679.64 571.964 2
-12 6 2 1401.22 521.323 2
-12 -6 -2 1440.09 389.193 1
-2 -6 12 1461.91 588.407 1
2 -12 6 1557.02 526.631 1
-12 2 -6 1750.92 428.489 1
-6 12 -2 838.301 484.33 2
12 6 -2 1394.74 317.739 2
-6 12 -2 1857.35 525.123 1
6 -12 -2 1748.54 521.494 1
2 12 -6 1263.96 560.969 2
-12 -2 6 1983.57 605.746 4
-6 -2 -12 1291.84 474.515 4
-12 -6 -2 1279.98 527.455 4
2 6 12 920.044 417.517 4
-12 -2 6 1425.5 323.704 2
-6 -12 2 1450.67 511.318 1
-6 -12 2 1641.75 680.567 2
-2 6 -12 1112.29 436.097 2
12 2 6 837.055 422.86 3
6 2 -12 1642.49 514.054 1
-2 -12 -6 896.031 356.525 3
12 -6 0 6119.19 1058.19 2
6 12 0 5446.7 1124.26 2
12 6 0 4989.83 652.835 2
-12 6 0 5720.32 965.01 2
0 12 6 4194.73 1173.04 2
-12 -6 0 4991.56 722.576 1
-6 -12 0 4837.81 1014.47 1
-6 -12 0 5462.22 1192.33 2
-12 0 -6 5060.76 708.383 1
-12 0 -6 5520.77 1161.17 4
0 12 -6 6001.35 1220.41 2
6 -12 0 5273.59 882.407 1
-6 0 -12 5023.01 915.177 1
-6 12 0 4782.29 1195.77 2
12 0 6 4345.16 664.631 2
-12 6 0 5781.1 622.844 1
0 6 12 2764.13 571.214 4
0 -12 6 5655.32 1048.92 1
-6 0 -12 4827.35 802.603 4
0 -6 12 5920.13 1045.21 1
12 -6 0 5802.75 636.19 1
12 0 -6 5314.75 587.217 1
-12 -6 0 6661.91 1172.18 4
12 -6 0 6813.36 837.993 3
6 0 -12 5085.82 858.835 1
12 0 6 4760.14 1018.75 3
12 6 0 4919.11 682.486 1
0 -12 -6 3756.69 633.584 3
0 -12 -6 4994.83 949.833 1
-6 12 0 5734.79 969.232 1
6 -12 2 1282.18 427.534 1
-12 2 6 1433.16 412.018 3
2 12 6 1800.32 471.836 3
2 -6 12 1735.18 546.419 1
-12 -6 2 1352.75 363.602 2
12 6 2 1273.81 348.314 2
-6 12 2 2060.19 577.237 1
2 -12 -6 1851.47 573.186 1
12 2 -6 1677.31 379.436 1
-6 12 2 946.766 543.863 2
-2 -12 6 2025.76 659.941 1
6 12 -2 1082.37 455.705 2
-6 -12 -2 2021.95 638.635 1
6 -2 -12 1502.57 439.322 1
12 -6 -2 1562.84 312.348 1
-12 6 -2 1297.09 468.634 2
-2 12 -6 1319.76 602.963 2
12 -2 6 237.902 268.289 3
12 -2 6 1507.76 436.952 2
12 -6 -2 1764.43 353.015 3
-12 6 -2 1479.44 354.13 1
-12 -2 -6 1988.32 710.227 4
-12 -6 2 1265.53 605.731 4
12 6 2 993.17 399.144 3
2 -12 -6 1339.23 359.129 3
-12 -6 2 1245.58 343.099 1
-12 4 6 1243.97 324.372 3
12 6 4 1352.97 526.199 3
4 12 6 1159.91 442.38 3
-6 12 4 2395.32 623.208 1
-12 6 -4 1768.03 396.368 1
-6 12 4 865.342 486.026 2
6 -12 4 2006.34 660.658 1
-6 -4 12 2027.54 609.082 1
-4 -12 6 1072.07 454.192 1
-6 -12 -4 1447.74 481.347 1
-12 -6 4 2333.48 530.863 2
12 -6 -4 1608.2 328.157 1
-12 -6 4 1427.42 418.836 1
12 4 -6 2047.45 478.768 1
-12 -4 -6 1929.23 697.405 4
6 12 -4 1905.51 664.676 2
12 -4 6 1451.51 494.863 2
-4 12 -6 1173.62 663.945 2
6 4 12 183.347 308.992 4
4 -12 -6 1904.23 552.371 1
-12 6 -4 1806.72 524.507 2
-12 -6 4 1540.86 628.019 4
4 -6 12 1775.86 598.755 1
-6 -4 12 2318.88 708.569 2
4 -12 -6 1008.49 258.629 3
-12 -6 -6 56.8372 180.384 1
-12 6 -6 448.527 314.537 2
6 6 12 1465.58 611.694 3
6 12 6 351.043 210.854 3
12 -6 -6 314.137 184.328 1
6 -6 12 111.573 203.171 1
-6 -12 -6 248.424 241.841 1
6 -12 -6 304.529 230.254 1
-6 -6 12 565.821 373.396 1
-6 -12 6 403.433 382.886 1
-12 -6 -6 1399.47 630.929 4
-6 -12 6 -9.37828 206.689 2
12 -6 6 303.067 233.223 1
12 -6 6 -279.361 310.382 2
-12 -6 6 112.455 143.344 2
-12 6 -6 205.851 198.322 1
6 -12 6 169.716 243.088 1
-6 12 -6 1140.01 629.887 2
6 12 -6 105.017 292.328 2
6 6 -12 1000.74 353.333 4
12 6 -6 638.641 447.453 4
-12 6 6 551.904 166.414 3
6 6 12 630.553 505.585 4
-6 -6 -12 445.174 339.593 4
-6 12 6 462.533 461.302 2
12 6 -6 337.279 281.456 1
6 -12 -6 530.091 171.484 3
-6 6 -12 158.835 288.452 2
-12 -6 6 540.419 327.021 1
-12 -6 6 1117.18 514.379 4
12 6 6 1450.85 610.964 3
-5 -7 12 446.862 336.96 1
-7 -5 -12 607.72 332.386 4
-12 -7 -5 81.9428 165.003 1
5 7 12 -84.8983 406.753 4
7 12 5 307.188 330.875 2
-5 -12 -7 32.7455 256.677 1
-7 -12 5 186.215 179.779 1
-12 7 5 641.641 484.525 2
5 12 -7 317.833 394.574 2
7 5 -12 252.519 212.512 4
7 -5 12 -87.045 154.905 1
12 7 -5 141.179 142.407 1
7 -12 -5 -179.88 284.389 1
-7 -12 5 684.893 473.015 2
-12 -5 7 616.524 312.329 2
12 -7 5 625.357 390.504 2
-12 -5 7 11.6337 136.592 1
-12 5 -7 176.85 142.17 1
-7 12 -5 239.924 412.103 2
-5 12 7 1.84627 308.957 2
7 12 5 -192.9 272.661 3
5 -12 7 164.317 254.144 1
12 -7 5 644.256 337.989 1
-12 -5 7 461.7 308.826 4
-12 -7 -5 775.447 492.65 4
12 7 -5 -46.8816 120.023 2
-12 5 -7 213.656 243.144 2
-5 7 -12 247.584 177.829 2
5 7 12 625.309 432.738 3
7 -12 -5 173.387 89.7223 3
12 5 7 801.357 459.996 3
-3 -12 -7 775.802 361.072 1
12 -7 3 594.974 249.954 1
7 12 3 485.489 390.833 2
-12 -7 -3 366.398 269.527 1
-12 7 3 723.048 427.279 2
-7 -12 3 882.053 630.651 2
12 -3 -7 587.442 235.008 1
-12 -3 7 620.049 240.95 1
12 -7 3 1028.67 524.426 2
-12 -3 7 768.133 267.941 2
-12 -3 7 443.681 444.229 4
12 7 -3 589.595 263.395 1
-7 12 -3 508.424 480.713 2
7 -12 -3 528.923 340.503 1
7 3 -12 800.743 377.178 1
-12 3 -7 573.665 292.322 1
3 -12 7 247.758 151.859 1
3 12 -7 877.556 484.723 2
-7 12 -3 425.59 269.302 1
12 7 -3 775.279 266.57 2
-7 -12 3 493.842 353.273 1
-7 -3 -12 661.346 361.099 4
-3 -7 12 405.6 326.668 1
3 7 12 380.939 390.073 4
-12 -7 -3 237.606 403.587 4
3 7 12 -47.4377 240.442 3
-3 7 -12 630.359 321.371 2
-3 -12 -7 895.4 406.143 3
12 3 7 -133.08 275.901 3
-7 12 -1 4836.12 850.58 1
-12 -7 -1 4106.95 705.505 1
-1 12 7 4232.23 664.644 3
-7 -12 1 4681.67 1058 2
12 7 -1 4867.72 704.509 2
7 -12 -1 4591.37 843.981 1
12 -7 1 4431.7 975.323 2
1 12 -7 4412.58 1097.46 2
12 -1 -7 4692.74 582.149 1
7 12 1 4450.19 979.824 2
-12 -7 -1 3160.03 827.644 4
-12 7 1 4479.49 917.866 2
-7 12 -1 3244.57 943.969 2
-1 -12 -7 4885.26 935.447 1
-1 -7 12 4784.58 978.688 1
7 1 -12 4220.26 765.749 1
1 -12 7 4400.6 904.992 1
12 1 7 4172.35 701.169 2
-1 7 -12 5136.01 998.455 2
-12 -1 7 875.465 483.289 4
-7 -1 -12 5851.56 941.298 4
-7 -12 1 3458.05 847.377 1
12 -7 1 4602.75 635.479 1
1 7 12 1466.05 523.307 4
-12 1 -7 4746.65 721.871 1
12 1 7 3552.65 909.688 3
-1 -12 -7 3483.27 668.761 3
-12 7 1 4496.63 577.913 1
12 7 -1 4186.97 663.317 1
-12 7 -1 4735.26 641.651 1
-1 12 -7 4374.48 1005.05 2
-7 -12 -1 4776.56 1005.26 1
7 -1 -12 4412.15 756.484 1
12 -7 -1 4547.85 952.732 2
1 -12 -7 3383.43 785.533 1
1 -7 12 4515.95 917.815 1
12 1 -7 4706.32 633.469 1
-12 -7 1 4674.78 756.669 1
-7 12 1 3639.43 995.884 2
7 12 -1 3775.33 894.354 2
12 -1 7 3771.38 703.034 2
12 -7 -1 4635.57 611.057 1
-12 7 -1 3776.32 840.221 2
-1 -12 7 3753.77 828.848 1
1 12 7 3806.69 711.32 3
1 7 -12 4338.84 899.91 2
-12 -1 -7 4510.35 1048.2 4
-12 -7 1 3660.38 835.171 4
12 -7 -1 5088.73 661.168 3
12 7 1 3694.39 820.049 3
12 -1 7 5039.6 967.029 3
1 -12 -7 2883.8 520.654 3
12 7 1 4033.32 684.468 1
12 7 1 4159.04 667.146 2
7 -12 1 3678.76 759.697 1
-7 12 1 5457.08 947.218 1
12 -7 -3 950.555 238.129 3
3 12 7 529.985 346.91 3
12 7 3 1327.74 499.089 3
-12 -7 3 331.251 249.414 1
12 7 3 619.395 346.481 2
3 -12 -7 1021.63 423.136 1
7 -12 3 489.756 269.603 1
-12 -7 3 382.203 328.548 4
-12 -7 3 772.521 319.722 2
-7 12 3 533.736 434.429 2
12 3 -7 592.358 283.781 1
12 -3 7 380.582 228.895 2
3 -7 12 890.756 425.661 1
-7 -12 -3 623.327 439.449 1
-3 -12 7 66.6753 170.524 1
-7 -3 12 571.177 340.809 1
7 12 -3 1150.45 573.411 2
-12 7 -3 627.318 345.006 2
12 -7 -3 812.142 269.351 1
-7 12 3 1001.71 427.622 1
-12 -3 -7 1249.85 583.884 4
-12 7 -3 493.939 248.664 1
3 -12 -7 1003.12 305.906 3
-7 -3 12 109.582 197.863 2
3 7 -12 530.442 311.428 2
-3 12 -7 738.667 431.583 2
-7 12 5 159.733 183.668 1
-12 5 7 811.824 294.659 3
5 12 7 -49.6682 238.707 3
12 5 -7 224.564 220.395 1
-12 7 -5 192.83 176.423 1
-7 12 5 -119.15 342.218 2
-5 12 -7 219.712 416.39 2
-7 -12 -5 74.0308 273.071 1
-12 -7 5 359.598 197.431 2
7 5 12 459.883 427.628 4
-5 -12 7 673.183 491.77 1
7 -12 5 111.021 189.328 1
5 -12 -7 288.496 179.606 1
-7 -5 12 186.733 278.01 1
-12 -7 5 313.744 282.48 1
5 -7 12 405.992 443.829 1
12 -5 7 146.549 306.124 2
7 12 -5 381.232 368.033 2
-12 -5 -7 152.268 382.917 4
12 -5 7 34.928 142.817 1
7 5 12 867.36 561.282 3
12 7 5 547.56 392.255 3
-12 7 -5 242.332 331.768 2
12 -7 -5 269.513 200.133 1
12 5 -7 168.005 277.853 4
-12 -7 5 539.781 417.042 4
-7 -5 12 111.703 304.406 2
-7 -7 12 230.435 270.355 1
-12 -7 -7 -18.8467 175.088 1
7 12 7 -297.374 388.308 3
12 -7 -7 76.6644 96.1737 1
-12 -7 7 -375.388 421.195 4
-7 12 7 -39.0448 424.009 2
-7 -12 -7 -28.4223 195.89 1
7 -12 -7 -145.837 212.072 1
7 12 -7 147.954 363.001 2
12 -7 7 -143.13 145.739 1
-7 -12 7 109.702 272.699 1
-12 7 -7 48.9639 170.258 1
12 -7 7 -52.1664 176.559 2
-12 -7 7 -101.663 255.237 2
7 7 -12 -310.677 336.031 4
7 7 12 -86.5924 394.288 4
7 -12 7 261.07 150.776 1
-7 12 -7 -187.681 232.053 2
-12 7 -7 301.96 231.471 2
-12 7 7 -255.413 122.52 3
7 7 12 -152.196 373.517 3
-12 -7 -7 -890.841 500.362 4
7 -7 12 130.903 197.987 1
-7 -7 -12 195.817 276.124 4
-7 7 -12 -16.0513 171.61 2
12 7 -7 -128.174 159.459 2
12 7 -7 369.57 263.881 4
-12 -7 7 55.0219 189.29 1
12 7 7 145.308 264.556 3
12 7 -7 -33.1289 127.292 1
8 12 6 371.124 440.099 3
-12 -8 -6 128.952 185.847 1
-6 -12 -8 193.771 177.473 1
-12 -8 -6 191.497 360.193 4
-12 8 6 -256.208 403.369 2
-8 -12 6 354.79 306.585 1
-8 -12 6 474.248 428.907 2
-12 -6 8 682.88 412.522 4
8 6 -12 587.15 272.373 4
-12 -6 8 339.457 216.531 1
12 -8 6 383.686 493.806 2
6 8 12 368.024 417.914 4
8 -6 12 527.973 379.321 1
-8 12 -6 201.499 258.834 2
-12 -6 8 123.904 213.466 2
6 12 -8 694.325 420.941 2
12 -8 6 721.012 337.06 1
8 -12 -6 231.049 216.191 1
12 8 -6 439.111 214.589 1
-6 -8 12 141.633 346.682 1
6 -12 8 434.507 358.783 1
-8 -6 -12 13.0324 278.894 4
12 8 -6 149.477 209.044 2
-12 6 -8 268.063 291.906 1
-12 6 -8 171.529 186.69 2
-6 8 -12 384.981 338.256 2
6 8 12 892.066 521.993 3
12 6 8 343.569 280.714 3
-8 12 -4 -100.648 224.678 1
8 -12 -4 296.164 122.886 3
-8 -12 4 48.4322 175.1 1
-12 -4 8 27.7156 151.948 1
-4 -12 -8 128.783 329.851 1
8 4 -12 118.772 157.953 1
8 12 4 189.545 280.848 2
12 -8 4 2.19418 155.074 1
12 8 -4 29.3932 146.189 2
-12 -8 -4 202.335 228.661 1
-12 8 4 429.128 420.511 2
-12 -4 8 171.827 179.611 2
12 -8 4 486.427 406.563 2
-12 4 -8 142.334 253.083 1
8 -12 -4 321.437 221.61 1
12 8 -4 224.249 260.602 1
-8 12 -4 625.462 451.733 2
-12 4 -8 315.87 268.501 2
-4 -12 -8 1171 452.513 3
4 -12 8 140.179 186.417 1
-8 -4 -12 811.68 363.361 4
-12 -4 8 1544.92 631.52 4
4 8 12 311.008 414.813 4
4 12 -8 -57.3473 265.127 2
-12 -8 -4 296.391 352.052 4
-4 -8 12 107.857 181.327 1
-4 8 -12 50.8745 223.42 2
4 8 12 1069.19 524.631 3
-8 -12 4 330.957 487.968 2
12 4 8 1215.01 598.063 3
-2 12 8 805.367 254.494 3
-2 -12 -8 581.827 239.592 1
-8 -12 2 1306.55 585.226 2
8 12 2 1218.91 569.792 2
12 -8 2 1156.74 598.844 2
12 8 -2 910.319 369.688 1
12 -2 -8 975.887 299.913 1
-12 8 2 1250.13 567.053 2
12 2 8 2093.47 726.342 3
-12 8 2 937.673 313.229 1
-12 -8 -2 967.276 410.789 1
8 -12 -2 636.701 273.571 1
-8 12 -2 409.3 335.486 2
-8 12 -2 980.901 427.273 1
12 8 -2 1058.37 398.467 2
2 12 -8 741.851 451.068 2
12 -8 2 1376.35 420.054 1
-8 -2 -12 1295.17 499.708 4
8 2 -12 930.131 389.453 1
2 8 12 1837.16 672.117 4
2 -12 8 652.682 406.812 1
-12 -8 -2 1453.11 603.812 4
-8 -12 2 832.686 391.063 1
-2 -8 12 665.148 374.161 1
-2 8 -12 1354.61 483.069 2
-12 -2 8 986.59 342.122 2
-12 -2 8 253.379 308.817 4
-12 -2 8 1316.59 402.508 1
2 8 12 1228.28 525.019 3
-2 -12 -8 1577.05 495.568 3
-12 2 -8 990.243 339.907 1
-12 8 0 11023.6 1039.5 1
-8 -12 0 8239.13 1439.29 2
12 -8 0 10306.2 1561.61 2
12 0 -8 9678.51 944.859 1
8 12 0 7763.32 1321.46 2
12 8 0 9111.41 1080.74 2
-8 12 0 8095.19 1482.06 2
-12 8 0 8684.29 1338.02 2
-12 -8 0 9942.22 1185.05 1
-8 -12 0 9552.39 1361.54 1
-12 0 -8 9999.02 1116.31 1
8 -12 0 9820.64 1214.33 1
0 12 -8 9433.92 1474.18 2
-12 0 -8 6607.91 1265.01 4
12 8 0 8220.63 1027.86 1
0 -8 12 10834.6 1473.59 1
12 0 8 8852.41 1069.7 2
12 -8 0 10329.4 1025.19 1
0 8 -12 9662.65 1352.33 2
-8 0 12 9590.74 955.613 4
-8 0 -12 5679.29 1060.75 4
-12 0 8 8540.86 1250.55 4
12 0 8 7107.34 1256.21 3
0 -12 8 10539.7 1458.53 1
8 0 -12 10127.4 1180.38 1
-12 -8 0 6252.59 1158.17 4
12 -8 0 8583.52 923.776 3
0 -12 -8 6331.41 863.204 3
0 12 8 8595.96 1038.83 3
0 -12 -8 10133.8 1333.48 1
-8 12 0 11468.6 1340.8 1
2 -8 12 1112.1 498.158 1
2 12 8 1330.46 410.217 3
12 8 2 1341.2 497.418 3
8 -12 2 919.547 410.369 1
2 -12 -8 1164.56 466.561 1
-12 -8 2 1506.73 496.209 2
-8 -2 12 1329.5 325.562 4
-8 12 2 1347.51 483.786 1
12 2 -8 1397.09 407.191 1
12 8 2 1064.76 407.398 2
-8 12 2 373.863 275.094 2
-12 -2 -8 1862.82 689.091 4
8 12 -2 1827.26 654.344 2
-8 -12 -2 756.796 444.37 1
-12 8 -2 705.303 398.741 2
12 -8 -2 1564.66 335.351 3
-2 -12 8 1520.79 576.431 1
-12 8 -2 839.16 306.876 1
2 8 -12 882.339 419.162 2
-2 12 -8 1592.64 638.213 2
8 -2 -12 982.281 403.165 1
12 -2 8 635.142 293.575 2
-12 -8 2 2088.77 644.247 4
12 -8 -2 1335.96 369.71 1
-12 -8 2 955.622 367.339 1
4 12 8 1227.48 504.617 3
12 8 4 1182.37 567.66 3
-8 12 4 537.513 320.156 1
-8 12 4 157.484 303.454 2
4 -12 -8 22.5701 217.712 1
4 -8 12 96.9749 171.938 1
-12 -8 4 245.028 227.937 1
-12 -8 4 388.164 304.095 2
12 4 -8 421.054 274.575 1
-8 -4 12 257.497 208.047 1
-8 -12 -4 37.0583 142.586 1
8 -12 4 192.15 295.512 1
-12 -8 4 460.935 329.14 4
12 -8 -4 315.863 242.277 1
-12 -4 -8 1829.98 699.607 4
8 12 -4 740.361 483.577 2
-4 -12 8 -292.061 288.425 1
-12 8 -4 284.488 333.483 2
12 -4 8 -407.42 215.977 2
-8 -4 12 265.868 144.461 2
4 8 -12 300.803 245.762 2
-12 8 -4 343.102 251.269 1
-4 12 -8 201.998 202.19 2
12 6 -8 485.387 282.897 1
6 -12 -8 432.64 353.659 1
-8 12 6 483.017 446.396 2
-12 8 -6 356.228 277.673 1
-12 8 -6 486.67 419.984 2
12 -6 8 512.83 316.197 1
-8 -12 -6 315.166 292.031 1
12 -8 -6 149.274 102.442 1
-12 -8 6 355.448 254.321 1
6 12 8 -187.316 219.127 3
8 6 12 -423.512 320.944 3
-8 -6 12 47.4783 235.527 1
6 -8 12 489.316 360.236 1
8 -12 6 240.429 172.949 1
8 12 -6 184.271 267.104 2
-12 -8 6 560.357 264.224 2
12 6 -8 246.896 365.004 4
12 -6 8 -119.827 251.41 2
-6 -12 8 657.143 440.603 1
6 8 -12 663.446 437.601 2
-6 12 -8 179.977 278.653 2
12 8 6 -178.305 393.697 3
-12 -6 -8 689.138 462.912 4
-8 -6 12 307.041 299.167 2
6 8 -12 443.837 350.816 4
-12 -8 6 297.995 284.031 4
-12 6 8 184.17 105.607 3
-8 6 -12 501.924 365.09 2
8 -12 8 1510.45 566.928 1
-12 -8 -8 832.929 402.964 1
-12 -8 8 1455.03 552.532 1
12 -8 -8 971.874 335.059 1
-8 -12 -8 806.383 397.5 1
-8 12 8 736.753 720.096 2
8 -12 -8 1189.17 450.929 1
12 -8 8 1158.53 479.738 1
12 8 -8 1427.62 536.018 1
-8 12 -8 1613.89 626.403 2
8 12 8 801.626 474.008 3
-12 8 -8 1237.99 441.6 1
-12 -8 8 798.193 419.824 2
8 -8 12 1053.9 530.943 1
-8 -12 8 1417.12 591.199 1
-12 -8 -8 980.392 502.168 4
8 8 -12 -121.641 323.068 4
-12 8 -8 1083.55 489.558 2
-8 -8 12 1180.01 569.629 1
8 12 -8 1552.56 641.836 2
-8 -8 -12 103.928 229.644 4
-12 -8 8 -319.591 305.37 4
-8 8 -12 1509.97 565.678 2
12 8 -8 1084.11 378.967 2
8 8 12 914.4 519.2 3
12 8 8 1338.43 589.113 3
9 12 7 -815.96 548.333 3
-7 -12 -9 231.94 158.632 1
-12 -9 -7 147.928 163.652 1
7 -12 9 117.007 273.398 1
9 -7 12 610.554 397.464 1
-12 9 7 368.792 405.711 2
12 -9 7 217.012 146.465 1
9 -12 -7 57.9246 143.841 1
-9 -12 7 656.847 569.093 2
-9 -12 7 398.472 335.901 1
-12 -7 9 -24.9002 248.739 1
-7 -9 12 25.2681 246.368 1
-12 -7 9 310.245 194.66 2
9 7 -12 -214.904 231.29 4
-12 7 -9 286.209 307.212 1
7 12 -9 205.467 299.639 2
-7 9 -12 -84.4479 319.346 2
12 9 -7 -293.724 316.783 2
12 9 -7 191.53 188.811 1
-9 -7 -12 -93.654 282.395 4
-12 -9 -7 574.188 430.439 4
-12 -7 9 436.344 238.232 4
-12 7 -9 -47.902 238.576 2
7 9 12 -162.084 422.373 3
-9 12 -7 98.1195 292.763 2
12 7 9 -598.951 433.441 3
5 -12 9 336.086 167.137 1
9 12 5 451.295 395.934 3
-5 -12 -9 455.436 286.279 1
9 12 5 218.751 313.406 2
-12 5 -9 510.778 286.347 1
-9 -12 5 320.87 297.476 1
-12 -9 -5 567.359 340.928 1
-12 9 5 408.585 454.334 2
12 -9 5 227.897 130.671 1
-5 9 -12 811.334 398.539 2
-9 -12 5 578.355 352.154 2
9 -12 -5 463.595 280.495 1
12 -9 5 850.462 523.02 2
-12 -5 9 729.583 348.33 2
-9 12 -5 721.339 463.319 2
12 9 -5 817.652 385.863 1
9 -5 12 749.146 383.005 1
-5 -9 12 883.7 520.195 1
9 5 -12 625.839 351.465 4
-12 -5 9 577.468 347.135 1
-5 12 9 544.234 172.97 3
5 12 -9 1284.15 533.395 2
12 9 -5 641.47 307.738 2
5 9 12 241.828 425.523 4
-9 -5 -12 1262.3 453.69 4
-12 -5 9 537.895 427.629 4
12 5 9 981.922 499.158 3
-12 -9 -5 534.152 384.66 4
-12 5 -9 395.125 276.946 2
5 9 12 495.809 354.794 3
-3 12 9 882.932 257.481 3
12 -3 -9 1457.51 377.107 1
9 12 3 1311.54 535.297 2
-9 -12 3 1414.69 581.898 2
3 9 12 522.902 325.082 4
-12 9 3 1965.04 459.445 1
-12 9 3 1149.46 527.233 2
12 -9 3 893.264 517.638 2
9 3 -12 1884.74 542.852 1
-12 -9 -3 1384.71 503.851 1
12 9 -3 982.019 383.745 1
-3 -9 12 1295.6 563.235 1
-9 12 -3 1221.99 496.286 2
-12 -3 9 958.576 532.887 4
-9 -3 -12 1501.23 620.004 4
9 -12 -3 1239.2 473.409 1
-3 -12 -9 1364.52 504.546 1
12 9 -3 2138.13 568.365 2
-9 12 -3 1721.51 594.049 1
3 12 -9 1689.57 668.789 2
3 -12 9 1642.94 551.445 1
12 -9 3 1460.86 470.216 1
-12 -9 -3 1613.9 633.171 4
-12 -3 9 1377.38 433.161 2
-3 9 -12 2300.47 718.628 2
-12 3 -9 1504.88 476.838 1
-3 -12 -9 470.606 283.159 3
12 3 9 1178.4 433.517 3
-12 -3 9 1096.43 391.897 1
3 9 12 1364.06 494.109 3
-9 -12 3 1107.72 512.972 1
-1 12 9 3594.12 656.292 3
9 -12 -1 5048.66 884.086 1
12 9 -1 4298.47 803.252 2
-9 -12 1 3783.01 1008.25 2
-9 -12 1 4830.31 1015.78 1
12 -9 1 3865.31 964.093 2
-1 -9 12 5435.05 1059.94 1
9 12 1 4193.7 945.862 2
12 9 -1 4759.34 844.44 1
-12 1 -9 5193.47 852.391 1
1 12 -9 6079.8 1181.63 2
-12 9 1 4290.98 1014.61 2
9 1 -12 5641.09 895.736 1
-9 12 -1 4207.42 1023.07 2
-12 9 1 5527.66 773.646 1
12 -1 -9 5308.96 721.505 1
-1 -12 -9 2585.81 580.809 3
-9 -1 -12 2555.23 669.884 4
12 1 9 4624.46 802.469 2
12 -9 1 5389.97 784.609 1
-9 12 -1 6090.1 972.646 1
-12 -9 -1 2815.21 758.369 4
-1 9 -12 5007.56 1024.6 2
1 -12 9 5333.47 1079.46 1
12 1 9 3667.8 944.671 3
1 9 12 3859.85 788.097 3
-1 -12 -9 4976.83 951.634 1
-12 -9 -1 4661.41 898.747 1
-12 -1 9 2457.17 718.016 4
1 12 9 3557.47 741.633 3
-12 9 -1 5318.48 784.214 1
12 1 -9 5302.5 768.712 1
-9 -12 -1 5228.04 1039.49 1
-12 9 -1 5367.86 1145.38 2
9 -1 -12 4296.81 763.313 1
12 -9 -1 3865.51 981.605 2
-12 -9 1 5462.4 924.306 1
12 9 1 4374.38 831.382 2
1 -9 12 6707.8 1197.87 1
-1 12 -9 5371.63 1174.42 2
-9 12 1 3561.8 992.56 2
12 -9 -1 3994.03 552.322 3
12 -9 -1 5492.11 771.584 1
-9 1 -12 1557.91 540.077 4
9 12 -1 4930.14 1004.25 2
9 -12 1 5435.72 909.845 1
1 9 -12 4831.18 1008.23 2
-9 -1 12 3156.45 613.519 4
12 -1 9 4293.22 782.606 2
-12 -9 1 3181.53 842.154 4
-1 -12 9 5390.46 1059.16 1
-1 9 12 2938.92 650.794 3
-12 -1 -9 3762.64 940.276 4
12 9 1 4139.8 781.312 1
1 -12 -9 4901.16 947.937 1
-9 12 1 5834.67 953.759 1
3 12 9 1540.46 524.999 3
-12 -9 3 1397.77 528.026 1
12 9 3 890.534 366.936 3
3 -12 -9 1670.02 554.535 1
-9 12 3 1912.58 590.349 1
12 9 3 1418.37 524.005 2
-12 -3 -9 1288.45 553.138 4
-12 -9 3 1704.48 586.196 2
3 -9 12 1509.19 564.392 1
9 -12 3 1741.29 538.744 1
-9 12 3 985.418 593.464 2
-9 -12 -3 1299.57 578.883 1
-12 -9 3 1770.51 640.394 4
9 12 -3 1690.42 653.023 2
-12 9 -3 1401.61 530.52 2
-3 -12 9 1321.03 519.544 1
-9 -3 12 1019.55 329.121 4
12 -9 -3 1713.36 454.907 1
12 3 -9 1788.79 464.528 1
-3 12 -9 1378.97 580.3 2
12 -3 9 1670.42 534.329 2
-9 -3 12 1695.97 555.313 2
-12 9 -3 1828.77 505.882 1
-9 -3 12 2063.27 622.7 1
3 9 -12 1261.28 564.491 2
12 -9 -3 1034.76 217.145 3
5 12 9 -72.1773 391.887 3
12 9 5 -522.799 470.515 3
5 -12 -9 498.964 359.348 1
12 -5 9 549.913 439.397 2
-9 12 5 491.753 436.424 2
-9 -12 -5 881.773 460.304 1
12 5 -9 553.398 269.015 1
-12 -5 -9 302.679 268.299 4
-12 -9 5 1044.38 490.939 2
-12 -9 5 263.081 259.035 1
12 -9 -5 600.269 302.53 1
-9 -5 12 775.513 452.764 2
5 9 -12 635.465 397.263 2
9 -12 5 817.951 382 1
12 -5 9 751.855 350.381 1
9 12 -5 338.825 360.678 2
-12 9 -5 790.467 448.715 2
-5 12 -9 831.703 429.662 2
-9 -5 12 144.185 153.022 1
-12 -9 5 433.731 288.388 4
9 5 12 128.875 348.095 3
-5 -12 9 632.365 386.688 1
-12 9 -5 719.084 319.623 1
5 -9 12 500.729 384.669 1
12 9 7 -649.203 472.408 3
7 12 9 90.1222 436.781 3
-12 9 -7 62.7504 274.919 2
-9 -7 12 34.0882 241.395 1
-12 7 9 -58.3837 169.716 3
-9 7 -12 298.097 345.561 2
12 7 -9 211.519 230.751 1
7 -12 -9 364.419 324.16 1
7 -9 12 238.687 276.792 1
-9 -12 -7 -97.3862 186.056 1
12 -9 -7 174.836 182.607 1
-12 9 -7 202.083 167.175 1
-12 -7 -9 247.264 332.939 4
-9 12 7 87.758 297.667 2
-12 -9 7 213.253 243.322 2
-7 12 -9 394.396 395.349 2
9 12 -7 305.727 265.9 2
12 7 -9 -380.66 387.158 4
7 9 -12 44.9356 234.4 2
-12 -9 7 288.6 302.603 1
-7 -12 9 -32.1363 177.1 1
7 9 -12 29.8201 231.562 4
12 -7 9 182.701 207.756 1
9 -12 7 84.0987 186.032 1
9 7 12 -66.4405 348.641 3
9 -12 -9 706.788 297.513 1
-12 -9 -9 968.008 461.808 1
9 12 9 700.861 466.947 3
12 -9 -9 893.696 393.254 1
-12 -9 9 1258.92 560.802 1
12 -9 9 1228.47 546.027 1
-9 -12 -9 293.44 332.848 1
9 -9 12 564.509 420.588 1
-12 -9 9 1345.62 561.734 2
-9 -9 12 859.908 517.466 1
-9 12 -9 908.985 512.116 2
-9 -12 9 582.319 364.66 1
9 9 -12 2000.23 689.726 4
9 12 -9 1421.33 656.579 2
-12 9 -9 1123.27 514.592 2
-12 -9 -9 712.947 483.054 4
-9 -9 -12 728.937 399.875 4
-9 9 -12 763.479 475.261 2
12 9 -9 979.288 415.112 2
9 9 -12 1121.72 464.197 2
9 9 12 1531.66 661.192 3
12 9 9 644.255 443.327 3
9 -12 9 714.706 472.522 1
10 -8 12 636.428 454.609 1
-12 -10 -8 330.609 307.186 1
-12 10 8 101.108 303.508 2
10 -12 -8 334.01 268.356 1
-12 -10 -8 367.386 279.111 4
-10 12 -8 459.345 603.775 2
-10 -12 8 524.657 406.077 1
8 -12 10 1404.92 661.85 1
-8 -12 -10 467.288 313.393 1
-8 -10 12 132.1 218.444 1
-12 -8 10 424.16 166.681 1
10 8 -12 595.025 468.766 4
12 -10 8 862.625 464.815 1
-10 -8 -12 510.152 331.321 4
-12 -8 10 739.239 348.116 2
-12 8 -10 844.216 456.605 2
8 12 -10 1036.8 594.733 2
10 12 8 902.381 502.129 3
12 10 -8 579.418 319.514 2
-8 10 -12 1047.2 537.351 2
8 10 12 173.198 366.084 3
12 8 10 262.064 322.92 3
-12 6 -10 546.29 350.291 1
-6 -12 -10 230.174 222.78 1
10 12 6 578.832 426.366 3
10 12 6 376.934 293.212 2
-12 -10 -6 556.971 330.027 1
-12 10 6 463.748 398.082 2
6 -12 10 823.486 403.679 1
-12 -6 10 270.544 282.91 1
12 10 -6 547.934 329.375 1
-12 -6 10 442.392 369.573 2
12 -10 6 811.79 390.084 1
-10 -12 6 699.301 456.226 1
10 6 -12 685.602 397.922 4
-12 -10 -6 72.2164 315.49 4
10 -12 -6 414.209 346.207 1
-10 -12 6 537.399 357.168 2
10 -6 12 230.313 264.632 1
-6 -10 12 206.937 274.41 1
-6 12 10 107.688 157.997 3
-10 12 -6 307.472 260.081 2
6 12 -10 400.48 362.841 2
-10 -6 -12 375.496 363.879 4
-12 -6 10 88.017 227.79 4
-6 10 -12 398.918 277.28 2
-12 6 -10 281.208 220.688 2
12 6 10 512.937 540.286 3
12 10 -6 729.688 388.375 2
6 10 12 231.115 392.786 3
-4 12 10 653.87 252.363 3
-4 -12 -10 609.573 432.461 1
4 -12 10 726.342 462.809 1
10 12 4 449.534 440.385 2
12 10 -4 448.577 319.317 2
-4 10 -12 603.119 310.65 2
-12 10 4 231.596 210.85 2
-10 -12 4 786.152 476.835 2
-12 -10 -4 720.136 405.089 1
-10 -12 4 673.341 411.827 1
-12 -4 10 504.743 303.211 2
-4 -10 12 262.637 335.978 1
12 10 -4 762.606 417.36 1
10 -12 -4 770.516 333.881 1
-10 12 -4 722.616 551.809 2
-12 4 -10 759.091 374.409 1
-10 12 -4 1215.7 507.547 1
-10 -4 -12 371.682 268.215 4
-12 -4 10 1059.6 499.466 4
-12 -4 10 708.382 345.942 1
-12 -10 -4 610.489 438.744 4
4 12 -10 843.625 508.082 2
12 -10 4 610.037 300.047 1
12 4 10 743.544 450.76 3
4 10 12 389.712 414.083 3
10 4 -12 885.936 411.927 1
2 -12 10 4519.06 997.292 1
-10 12 -2 3990.43 820.664 1
10 2 -12 3399.79 717.636 1
-10 -12 2 3087.27 884.969 2
12 -10 2 3147.7 965.878 2
-12 10 2 3691.16 981.506 2
-12 -10 -2 2855.72 733.291 1
-10 12 -2 3092.07 952.064 2
12 10 -2 4233.78 865.838 2
-2 -10 12 4324.74 969.808 1
-2 -12 -10 2863.85 752.646 1
-12 2 -10 4008.09 770.745 1
12 -10 2 4222.7 783.647 1
-10 -2 -12 2863.77 728.09 4
-12 -2 10 1709.48 612.347 4
10 -12 -2 3359.97 727.507 1
2 12 -10 4078.43 1049.43 2
10 12 2 3874.08 925.425 2
-12 -10 -2 2434.78 742.672 4
-2 10 -12 4374.93 998.151 2
2 10 12 1936.52 629.035 4
12 -2 -10 3924.77 657.274 1
-10 -12 2 2735.31 768.069 1
12 2 10 4350.7 1025.09 3
-12 -2 10 3748.58 761.397 2
2 10 12 2395.08 641.961 3
-12 10 2 3633.34 686.593 1
12 10 -2 3550.84 769.572 1
-2 12 10 2111.35 475.443 3
12 -10 0 2629.91 584.08 1
-12 0 -10 1786.18 493.129 1
12 10 0 2107.23 551.776 1
10 0 -12 2527.86 594.507 1
12 -10 0 2434.87 885.007 2
-12 10 0 2469.13 546.782 1
-10 12 0 2451.95 643.833 1
10 12 0 2167.96 759.692 2
12 10 0 1884.49 566.417 2
-10 12 0 1322.75 631.636 2
-12 10 0 2076.2 785.125 2
12 0 -10 1843.72 475.036 1
0 -10 12 2305.51 726.553 1
-12 0 10 967.582 464.77 4
-10 0 12 1149.46 451.661 4
-12 0 -10 1036.4 721.018 4
-10 0 -12 1371.89 528.633 4
-12 -10 0 1801.34 603.713 1
-10 -12 0 1448.49 552.656 1
0 -12 -10 1550.07 626.341 1
-12 -10 0 700.936 390.608 4
12 0 10 2054.76 575.711 2
0 12 -10 2017.25 693.263 2
0 10 12 1729.2 563.536 3
10 -12 0 2243.81 588.954 1
0 10 -12 2450.38 797.757 2
0 -12 10 2207.66 728.598 1
0 12 10 852.795 336.015 3
2 -12 -10 3606.61 817.432 1
10 -2 -12 3967.94 730.004 1
-12 10 -2 4321.47 771.824 1
-12 -10 2 3280.06 785.013 2
10 -12 2 4033.52 803.112 1
12 -10 -2 3590.68 671.382 1
12 10 2 3326.26 785.487 2
-2 12 -10 3882.02 1038.87 2
-10 12 2 2460.93 856.953 2
-12 -2 -10 3118.24 909.616 4
2 -10 12 3962.35 953.056 1
-2 10 12 2132.68 547.359 3
10 12 -2 3247.09 856.948 2
-10 -12 -2 3931.79 920.247 1
2 10 -12 4811.46 1070.91 2
-12 10 -2 3257.56 893.925 2
12 -2 10 3352.38 777.323 2
-12 -10 2 2722.39 713.874 4
-10 -2 12 945.819 405.645 4
12 10 2 3149.16 692.202 1
12 -10 -2 2971.17 467.707 3
-12 -10 2 3375.89 809.627 1
-2 -12 10 3198.44 819.473 1
-10 12 2 5002.29 881.538 1
12 2 -10 3981.35 702.255 1
2 12 10 2583 657.028 3
-10 12 4 747.841 426.621 1
12 10 4 188.637 430.866 3
-12 -4 -10 1607.76 715.293 4
-4 -12 10 1027.08 554.59 1
-12 -10 4 606.055 304.734 1
4 -12 -10 423.592 322.148 1
-10 12 4 749.749 590.513 2
-12 -10 4 1384.45 621.648 2
12 10 4 584.485 374.271 2
-10 -12 -4 775.982 435.001 1
4 12 10 1388.62 578.956 3
-10 -4 12 846.806 379.285 1
10 -12 4 1145.44 465.247 1
12 -10 -4 330.979 189.289 1
10 12 -4 229.901 243.456 2
-12 10 -4 655.279 495.822 2
12 4 -10 625.83 336.682 1
-4 12 -10 427.133 514.815 2
-10 -4 12 541.755 383.424 2
4 -10 12 1065.6 564.422 1
12 -4 10 359.76 162.844 2
-12 10 -4 922.381 404.502 1
-10 -4 12 559.404 296.189 4
4 10 -12 1331.9 635.438 2
10 4 12 1494.88 664.176 3
-4 10 12 270.865 171.701 3
6 12 10 157.344 300.278 3
-12 10 -6 504.237 342.223 1
12 10 6 494.02 411.097 3
-12 10 -6 620.333 478.696 2
6 -12 -10 904.135 412.226 1
-6 -12 10 769.404 434.031 1
-10 12 6 370.174 374.434 2
12 -6 10 563.317 365.772 1
-10 -12 -6 513.606 336.6 1
12 6 -10 634.807 348.546 1
12 -10 -6 435.288 246.228 1
-10 -6 12 518.448 278.581 1
-12 -10 6 1136.11 480.405 2
-12 -10 6 457.32 310.905 1
12 6 -10 -275.064 276.893 4
6 -10 12 601.056 449.419 1
10 12 -6 113.362 223.818 2
-6 12 -10 549.471 301.967 2
-10 -6 12 521.646 446.504 2
-12 -6 -10 -156.659 359.233 4
10 -12 6 732.446 348.311 1
6 10 -12 425.174 372.58 2
-6 10 12 36.4869 182.436 3
-10 6 -12 303.215 187.942 2
10 6 12 434.672 463.238 3
8 12 10 -63.584 318.047 3
12 10 8 -140.538 354.759 3
8 -12 -10 324.28 290.645 1
-10 -12 -8 448.507 375.911 1
-10 12 8 -128.961 487.378 2
10 -12 8 691.821 265.263 1
12 -10 -8 642.572 310.88 1
10 8 12 1193.51 664.053 3
8 10 -12 411.156 293.049 2
-10 -8 12 355.604 382.121 1
-12 -10 8 506.845 424.396 2
10 12 -8 216.529 236.567 2
12 8 -10 379.508 310.221 4
12 -8 10 281.903 298.661 1
-12 10 -8 633.509 436.007 2
-8 12 -10 671.508 517.943 2
8 -10 12 5.27659 210.59 1
8 10 -12 1924.24 747.179 4
-12 -10 8 547.57 361.37 1
-12 -8 -10 134.177 293.757 4
-10 8 -12 578.884 411.482 2
-8 -12 10 735.102 447.466 1
10 12 10 1131.9 570.466 3
-12 -10 -10 376.096 313.043 1
10 10 12 421.501 507.089 3
12 -10 10 835.762 471.733 1
-10 -12 -10 470.19 376.478 1
10 -12 -10 531.723 320.945 1
-12 -10 10 51.2725 177.741 1
10 -10 12 775.851 505.286 1
12 -10 -10 557.305 321.569 1
12 10 -10 339.813 331.806 2
-10 -10 12 147.958 294.265 1
-12 -10 10 833.358 542.685 2
10 -12 10 682.477 454.548 1
10 12 -10 1078.63 616.566 2
-10 12 -10 -81.7154 295.285 2
10 10 -12 883.255 523.009 4
-12 -10 -10 957.248 524.489 4
-10 10 -12 373.548 416.983 2
-12 10 -10 202.043 327.359 2
10 10 -12 715.948 423.88 2
-10 -12 10 588.964 412.719 1
12 10 10 1258.9 669.397 3
9 -11 -12 704.7 354.742 1
-9 -12 -11 402.874 377.73 1
-12 -11 -9 662.476 397.632 1
-12 11 9 -218.344 623.745 2
11 -12 -9 641.642 332.788 1
-11 12 -9 417.71 355.494 2
11 -9 12 1032.55 433.991 1
-9 -11 12 687.668 442.05 1
-12 -9 11 1198.23 607.111 1
-12 -9 11 359.8 300.642 2
9 -12 11 715.85 425.493 1
12 -11 9 227.174 242.613 1
11 12 9 506.012 415.473 3
-11 -12 9 782.361 477.001 1
-9 11 -12 505.121 493.939 2
9 12 -11 288.555 311.969 2
12 11 -9 922.53 494.92 2
-11 -9 -12 400.163 267.316 4
-12 9 -11 336.122 343.886 2
-12 -11 -9 2.48074 280.267 4
12 9 11 862.699 475.251 3
9 11 12 369.996 350.472 3
11 9 -12 337.119 344.645 4
12 -9 -11 563.177 280.753 1
11 12 7 471.976 454.183 3
-12 -11 -7 598.415 402.92 1
-12 11 7 638.45 546.235 2
12 -11 7 843.687 398.112 1
11 -12 -7 930.193 430.605 1
-7 11 -12 560.925 410.733 2
-7 -11 12 817.528 559.354 1
-11 -12 7 1845.84 803.828 2
7 -12 11 605.953 403.399 1
-11 -12 7 1540.79 620.986 1
-11 12 -7 1140.04 555.041 2
11 7 -12 311.988 298.223 4
11 -7 12 1322.93 609.107 1
12 11 -7 1276.73 507.206 2
-11 -7 -12 691.987 499.176 4
7 12 -11 1210.29 531.543 2
-12 -11 -7 150.048 258.024 4
-12 7 -11 716.489 323.605 2
-12 -7 11 504.573 343.258 1
-7 -12 -11 824.211 444.541 1
-12 -7 11 712.01 346.418 2
12 7 11 1272.26 612.629 3
7 11 12 1554.03 632.679 3
-7 12 11 398.437 180.556 3
-5 -12 -11 82.5329 185.182 1
5 12 -11 280.153 381.633 2
11 12 5 371.303 389.457 3
11 12 5 -30.2734 223.562 2
-11 -12 5 435.783 395.534 1
-12 11 5 121.045 245.757 2
-12 -11 -5 126.571 173.781 1
-11 -12 5 1220.51 647.942 2
-5 -11 12 236.8 336.631 1
-5 11 -12 536.786 466.993 2
5 -12 11 407.445 186.213 1
11 -12 -5 75.5164 191.483 1
-12 -5 11 430.599 345.677 1
12 5 11 674.791 719.578 3
-11 12 -5 181.861 358.94 2
12 11 -5 180.975 197.563 2
-11 -5 -12 1076.01 616.443 4
-12 -5 11 197.331 169.525 2
-12 -5 11 346.087 322.493 4
-11 12 -5 39.8446 241.484 1
-12 -11 -5 -216.615 317.73 4
12 -11 5 307.432 257.602 1
5 11 12 461.426 482.312 3
-5 12 11 552.133 279.912 3
-3 -12 -11 409.168 232.914 1
11 3 -12 425.579 315.292 1
-11 -12 3 939.826 599.434 2
11 12 3 339.471 346.337 2
3 -12 11 568.19 355.775 1
11 -12 -3 651.84 380.839 1
-12 11 3 404.182 263.019 2
-12 -11 -3 939.331 500.104 4
-3 -11 12 675.242 353.278 1
3 12 -11 614.906 419.726 2
12 11 -3 274.686 224.519 1
-12 -11 -3 54.6316 285.145 1
-12 -3 11 446.285 307.864 1
-11 12 -3 352.68 503.261 2
12 -11 3 418.324 333.858 1
12 11 -3 798.162 315.117 2
-11 12 -3 622.523 436.061 1
-12 -3 11 610.151 435.506 4
-12 11 3 725.277 324.654 1
-11 -3 -12 871.098 524.462 4
-3 11 -12 514.861 364.823 2
12 -3 -11 466.963 235.462 1
-12 -3 11 375.803 250.716 2
12 3 11 592.28 506.915 3
3 11 12 285.594 314.639 3
-12 3 -11 477.244 321.473 1
-3 12 11 403.923 244.955 3
-11 -12 3 666.105 403.036 1
-1 -12 -11 1341.14 549.319 1
-11 -12 1 1758.17 628.218 2
1 -12 11 1356.2 640.296 1
12 -11 1 1611.46 520.656 1
12 -1 -11 1576.4 429.502 1
-12 11 1 1959.19 533.516 1
12 11 -1 1593.7 574.381 1
11 12 1 1341.25 507.982 2
1 12 -11 1216.97 618.768 2
-12 1 -11 1046.35 542.515 4
-12 11 1 1301.95 592.323 2
-11 12 -1 1360.77 410.807 1
-1 -11 12 1447.55 552.032 1
12 11 -1 1234.1 491.507 2
-11 12 -1 1321.48 632.707 2
-12 -11 -1 1735.35 611.936 1
-1 12 11 959.637 393.368 3
11 1 -12 1101.21 356.259 1
-11 -1 -12 665.159 499.147 4
-12 -1 11 1918.85 719.994 4
-1 11 -12 1731.31 622.567 2
-11 -12 1 1518.61 594.561 1
11 -12 -1 1630.91 510.698 1
12 1 11 1326.99 590.8 3
12 1 11 1509.63 551.652 2
1 11 12 1213.37 341.322 3
-12 1 -11 1871.26 562.297 1
1 -12 -11 1692.95 617.042 1
1 11 -12 1535.6 662.591 2
11 -12 1 1561.84 562.422 1
12 11 1 1463.6 524.456 1
-1 -12 11 1660.8 561.816 1
1 12 11 2522.65 653.604 3
-11 12 1 2131.59 594.068 1
12 11 1 1306.24 535.102 2
-11 12 1 1047.48 592.52 2
-12 11 -1 1582.38 479.288 1
11 12 -1 1274.69 478.426 2
12 1 -11 1224.31 398.256 1
-12 11 -1 1363.2 555.598 2
1 -11 12 1687.33 607.167 1
11 -1 -12 1383.6 416.258 1
-11 -12 -1 2062.77 657.086 1
12 -11 -1 1911.13 525.901 1
-11 -1 12 872.608 461.907 4
-1 12 -11 1733.93 670.836 2
-12 -11 1 1327.52 470.738 1
12 -1 11 1010.98 432.169 2
-12 -1 -11 1092.48 658.357 4
-1 11 12 1084.61 403.832 3
-11 1 -12 1038.11 520.519 4
3 -12 -11 647.784 337.326 1
12 -11 -3 475.269 166.326 3
-3 -12 11 163.495 305.459 1
-11 12 3 1098.84 427.983 1
-11 -3 12 978.093 437.005 1
-12 -11 3 965.247 506.559 2
12 11 3 564.892 411.149 2
-11 12 3 111.399 292.374 2
11 -12 3 642.03 308.447 1
11 -3 -12 293.252 199.706 1
-11 -12 -3 307.644 304.813 1
-12 -11 3 149.385 230.131 1
11 12 -3 986.376 470.753 2
-12 11 -3 506.19 415.701 2
3 -11 12 192.399 187.862 1
-12 -3 -11 132.384 459.652 4
12 -11 -3 625.274 378.296 1
-3 12 -11 679.421 246.313 2
-11 -3 12 805.992 382.389 4
3 11 -12 788.601 539.754 2
-11 -3 12 497.963 336.543 2
11 3 12 130.358 467.616 3
12 3 -11 523.566 288.117 1
-12 11 -3 393.709 175.136 1
-3 11 12 225.268 288.713 3
3 12 11 602.394 423.936 3
12 11 5 543.791 367.048 3
-5 -12 11 -126.239 258.489 1
12 11 5 613.301 513.458 2
-11 12 5 601.016 461.965 2
11 5 12 478.096 627.594 3
-12 -11 5 433.318 273.892 1
-11 -12 -5 300.67 289.498 1
-12 -11 5 859.093 595.684 2
12 -11 -5 205.858 122.215 1
12 5 -11 253.559 334.238 1
-12 11 -5 606.391 566.337 2
5 -11 12 450.315 402.799 1
11 12 -5 696.827 439.68 2
-11 -5 12 159.155 266.424 2
11 -12 5 361.441 292.686 1
-12 -5 -11 875.598 630.808 4
-5 12 -11 91.7763 321.396 2
5 -12 -11 533.402 302.354 1
-11 -5 12 313.364 314.429 4
5 11 -12 724.71 500.924 2
-11 -5 12 341.502 298.639 1
-12 11 -5 684.402 368.233 1
-5 11 12 359.435 182.03 3
5 12 11 288.871 270.227 3
12 11 7 481.317 331.896 3
-7 -12 11 949.451 516.594 1
-11 -7 12 887.511 476.998 1
-11 12 7 580.921 523.472 2
-11 -12 -7 557.228 417.749 1
7 -12 -11 980.359 444.666 1
12 -11 -7 967.43 370.264 1
-12 -11 7 1022.36 529.36 2
-11 7 -12 613.909 469.692 2
11 -12 7 1605.16 573.361 1
-12 -11 7 1191.85 450.881 1
-7 11 12 632.276 245.291 3
12 -7 11 959.022 520.118 1
-12 11 -7 1359.35 616.369 2
12 7 -11 417.32 330.988 4
-11 -7 12 801.346 368.379 2
11 12 -7 1235.49 562.769 2
-7 12 -11 515.256 408.739 2
7 -11 12 1273.62 585.868 1
-12 -7 -11 961.448 517.174 4
7 11 -12 367.679 420.046 4
7 11 -12 1030.39 517.765 2
11 7 12 568.598 462.464 3
7 12 11 1155.74 479.272 3
12 11 9 11.7184 339.795 3
9 -12 -11 625.88 394.439 1
-11 -12 -9 200.051 236.586 1
-11 12 9 290.248 612.539 2
12 -11 -9 501.236 248.249 1
11 -12 9 763.308 448.223 1
-12 -11 9 671.736 422.408 2
-9 12 -11 369.843 413.698 2
12 -9 11 902.879 522.146 1
-11 -9 12 554.721 399.195 1
-9 -12 11 883.18 545.09 1
9 11 -12 1086.74 555.673 4
11 12 -9 902.034 475.395 2
-12 -9 -11 -424.117 367.704 4
-11 9 -12 276.357 373.309 2
9 11 -12 762.446 495.088 2
-12 -11 9 1159.79 538.969 1
-12 11 -9 449.91 322.455 2
-9 11 12 181.774 114.911 3
9 -11 12 587.602 391.054 1
11 9 12 484.259 615.767 3
9 12 11 1021.68 589.638 3
-11 -11 -12 1111.85 518.367 1
11 12 11 1856.82 672.344 3
-12 -11 -11 1694.64 628.033 1
11 -11 -12 1682.72 576.119 1
-11 -12 -11 1913.9 661.94 1
12 -11 11 2146.73 719.559 1
-11 -12 11 1437.82 606.192 1
12 -11 -11 1334.93 525.154 1
11 -12 -11 1617.5 545.051 1
11 -11 12 1640.96 720.968 1
-12 -11 11 1655.08 735.769 1
-11 -11 12 1211.1 611.745 1
11 -12 11 1661.64 641.107 1
-11 12 -11 1734.35 745.03 2
-12 11 -11 2454.49 878.033 2
-11 11 -12 1546.32 683.854 2
11 12 -11 1497.74 648.341 2
-12 -11 -11 558.302 417.512 4
12 11 -11 2149.47 704.639 2
11 11 -12 1716.83 666.105 2
11 11 12 1487.58 725.469 3
12 11 11 1818.9 772.317 3
-12 0 -12 1843.57 672.708 4
12 -12 0 940.392 386.257 1
0 -12 12 1031.54 542.346 1
-12 12 0 773.211 398.574 1
12 12 0 848.912 473.701 2
-12 12 0 467.016 503.352 2
0 12 -12 1353.36 587.605 2
-12 0 12 -115.76 340.772 4
0 12 12 564.273 418.217 3
-12 -12 0 690.705 427.72 1
12 0 -12 1207.91 417.933 1
0 -12 -12 434.586 311.276 1
12 -12 -2 129.77 259.007 1
-12 12 2 341.736 346.221 1
-12 -12 2 152.8 310.848 2
12 2 -12 -177.508 247.253 1
-2 -12 12 -119.862 262.868 1
12 12 2 20.3113 309.126 2
12 -12 2 -11.9995 153.462 1
-2 12 -12 -136.103 416.785 2
-12 12 2 -177.623 335.427 2
2 -12 12 131.3 235.58 1
12 12 -2 -206.802 284.984 2
-12 12 -2 719.983 557.338 2
-12 12 -2 -116.607 272.389 1
-12 -12 -2 -73.9813 228.247 1
2 -12 -12 36.883 206.764 1
12 2 12 668.657 653.134 3
-12 -2 -12 128.077 317.093 4
-12 -2 12 -212.161 381.223 4
2 12 -12 -205.747 274.808 2
12 -2 -12 82.628 149.595 1
-2 12 12 -224.489 303.167 3
-12 -12 2 61.2011 257.813 1
2 12 12 242.51 347.845 3
-2 -12 -12 -317.05 386.925 1
12 -12 4 454.629 370.191 1
-12 12 4 446.99 389.8 1
4 -12 -12 488.959 303.153 1
-12 -12 4 -106.591 346.915 1
12 12 4 -3.59755 333.458 2
-4 -12 12 392.843 315.035 1
-12 -12 4 673.01 517.718 2
-12 12 4 21.7872 239.708 2
-12 12 -4 718.388 323.434 1
-12 -12 -4 681.038 457.259 1
4 12 -12 507.089 477.394 2
12 4 12 390.753 488.239 3
4 -12 12 567.424 569.095 1
-12 12 -4 194.476 270.572 2
12 -12 -4 225.876 223.822 1
12 12 -4 652.515 460.52 2
-12 -4 12 55.9093 157.827 1
-12 -4 -12 458.496 331.696 4
-4 12 -12 353.703 422.936 2
-12 -4 12 -217.644 292.69 4
12 12 4 827.053 573.598 3
12 4 -12 437.603 298.583 1
-12 -4 12 456.767 329.379 2
-4 12 12 108.555 225.614 3
4 12 12 -315.121 280.884 3
-4 -12 -12 293.175 368.383 1
-6 -12 -12 -95.3745 282.133 1
6 -12 -12 277.474 220.148 1
12 -6 12 65.5325 197.666 1
12 12 6 -833.289 583.442 3
12 -12 6 160.073 216.99 1
12 12 6 373.406 336.706 2
-12 12 6 402.586 333.267 2
-6 -12 12 8.06876 268.443 1
-12 -12 -6 183.616 198.099 1
-12 -12 6 -136.795 352.246 2
-12 -12 6 434.402 382.162 1
-12 12 -6 278.78 372.615 2
12 -12 -6 168.772 236.282 1
-12 -6 -12 421.779 525.549 4
-12 -6 12 439.23 396.022 1
6 -12 12 80.0296 221.839 1
12 6 -12 -22.0894 234.983 4
12 12 -6 115.908 313.815 2
-12 -6 12 506.896 276.012 2
-6 12 -12 180.391 263.725 2
6 12 -12 236.844 276.069 2
12 6 12 289.048 471.236 3
-6 12 12 304.872 221.87 3
6 12 12 -388.402 462.4 3
-8 -12 -12 765.8 459.835 1
8 -12 -12 628.045 389.862 1
12 12 8 8.59244 348.686 3
-12 -12 -8 960.638 522.381 1
-12 12 8 411.423 480.884 2
-8 -12 12 692.976 365.104 1
-12 -12 8 865.711 507.228 1
12 -12 -8 323.287 244.224 1
12 -8 12 501.506 394.711 1
12 -12 8 843.143 356.556 1
-12 -12 8 903.512 517.505 2
8 -12 12 778.333 564.254 1
-8 12 -12 473.155 411.188 2
12 8 -12 483.228 253.22 4
12 12 -8 791.539 429.815 2
-12 -8 -12 257.565 325.799 4
8 12 -12 860.534 520.982 2
-12 8 -12 764.421 428.887 2
12 8 12 -150.374 583.016 3
-12 -8 12 703.667 390.067 1
-12 12 -8 504.139 413.023 2
-8 12 12 50.4066 190.602 3
8 12 12 1234.18 703.42 3
12 -10 -12 418.854 303.928 1
12 12 10 1215.75 755.476 3
-10 -12 -12 908.054 521.258 1
10 -12 -12 945.2 434.664 1
-12 -12 -10 590.017 392.325 1
-12 12 10 446.155 668.909 2
12 -12 -10 499.924 313.401 1
-10 -12 12 753.06 536.2 1
12 -10 12 426.33 323.886 1
-12 -10 12 1053.49 550.488 1
12 -12 10 879.978 482.901 1
-12 12 -10 1170 594.41 2
-10 12 -12 497.692 424.135 2
12 12 -10 1226.65 616.791 2
-12 -10 -12 194.975 307.239 4
-12 10 -12 582.862 403.4 2
10 12 -12 612.9 383.978 2
10 -12 12 1179.88 565.23 1
12 10 12 1677.84 761.76 3
-12 -12 10 543.126 449.665 1
10 12 12 458.31 629.024 3
12 -12 12 155.337 344.828 1
12 -12 -12 324.401 219.083 1
-12 -12 12 77.8996 224.251 1
12 12 12 804.584 579.292 3
13 0 1 1872.19 488.505 3
13 -1 0 1405.36 363.383 3
13 1 0 1037.94 404.939 3
13 0 -1 1372.5 428.566 3
0 13 1 1046.95 629.116 2
1 13 0 965.956 561.621 2
1 -13 0 1908.4 566.781 1
-1 13 0 1208.83 689.138 2
0 13 -1 841.966 584.318 2
-1 -13 0 1310.65 493.398 1
-13 0 -1 1190.27 397.534 3
0 -13 -1 1463.18 497.854 1
0 -13 1 1244.71 453.594 1
-13 -1 0 1865.27 758.858 4
0 1 -13 862.936 202.354 4
-13 1 0 1051.43 213.122 2
-13 0 1 774.528 361.191 3
-13 1 0 1289.98 437.033 3
-1 0 -13 1589.72 332.225 4
-13 -1 0 903.502 353.484 3
-13 -1 2 7799.87 1414.12 4
-1 -13 -2 7019.93 1130.9 1
13 -2 1 8190.58 882.696 2
-1 13 2 6043.41 1342.34 2
-2 13 -1 6358.3 1293.14 2
1 13 -2 6066.78 1232.36 2
-13 1 -2 4501.63 457.104 1
2 -13 -1 8347.18 1237.05 1
-13 2 1 6507.54 687.629 2
13 1 2 5296.86 511.942 2
-2 -13 1 7792.03 1205.45 1
1 -13 2 7193.77 1137.97 1
-13 2 1 7470.19 938.355 3
2 13 1 7639.66 1503.7 2
-2 -1 -13 8556.48 795.229 4
-13 -2 -1 7491.88 1362.68 4
-13 -2 -1 7637.33 1084.8 3
13 -2 1 7430.77 1014.99 3
-13 -1 2 7758.99 1075.23 3
13 1 2 8172.08 1167.44 3
13 -1 -2 8162.17 944.972 3
13 2 -1 6940.15 974.999 3
-1 -13 -2 7609.75 1041.95 3
-13 -2 -1 5713.57 537.33 1
1 -13 -2 7982.57 1199.51 1
1 13 2 6975.83 1379.23 2
-2 13 1 7957.36 1527.97 2
-2 -13 -1 7123.65 1187.28 1
2 13 -1 7142.14 1335.98 2
13 -1 2 8278.17 857.7 2
-13 1 2 6634.03 604.818 2
-1 13 -2 7298.41 1408.78 2
-13 -1 -2 5605.88 504.075 1
2 -13 1 7382.07 1140.03 1
-1 -13 2 7753.4 1216.49 1
-13 2 -1 6732.85 672.234 2
-13 -2 1 5075.43 455.161 1
-2 1 -13 6370.16 687.457 4
-13 -2 1 11254.7 1644.35 4
-13 -1 -2 7439.34 1357.43 4
-13 -1 -2 6794.09 969.49 3
-13 1 2 7299.38 951.364 3
13 -1 2 10477.6 1288.31 3
-13 -2 1 7900.43 1116.25 3
13 -2 -1 8395.75 973.172 3
13 2 1 6574.31 987.442 3
-13 -3 -2 3312.82 475.648 1
2 -13 3 3652.99 794.862 1
-13 -2 3 2829.89 626.375 3
-2 -13 -3 2739.52 599.746 3
-13 -2 3 2712.02 379.218 1
13 -3 2 4121.42 742.848 2
-13 3 2 3491.45 609.29 2
-2 13 3 2581.68 775 2
-3 -13 2 3069.68 935.208 2
3 13 2 2922.75 891.069 2
-13 -3 -2 3419.31 888.365 4
2 3 13 2348.01 595.421 4
-3 13 -2 3842.46 984.117 2
-2 -13 -3 2856.28 718.139 1
13 2 3 2964.66 388.221 2
2 13 -3 4503.41 1067.2 2
-13 2 -3 3733.67 542.232 2
3 -13 -2 3390.69 767.861 1
-13 -2 3 2613.45 840.485 4
-3 -2 -13 2831.67 511.321 4
-2 -3 13 4214.21 887.978 1
-3 -13 2 3635.15 784.959 1
-13 3 2 2778.6 550.081 3
13 -3 2 3823.31 797.143 3
13 3 -2 3113.36 396.349 1
-13 -3 -2 2580.2 647.179 3
-13 2 -3 3598.34 454.991 1
13 2 3 3849.78 803.347 3
0 -13 -3 26715.8 2202.88 1
-13 0 -3 26004.6 1220.12 1
13 -3 0 26843.7 1666.36 2
-3 -13 0 25073.8 2642.87 2
0 13 3 21233.7 2371.48 2
-3 13 0 22131.2 2405.87 2
0 13 -3 22653.6 2372.45 2
-13 -3 0 22028.5 1152.55 1
-3 -13 0 25087.6 2190.39 1
-13 3 0 25701.9 1518.2 2
13 0 3 23591.4 1351.36 2
3 -13 0 26498.8 2143.76 1
3 13 0 22698.4 2354.49 2
0 -13 3 24832.7 2153.41 1
0 3 13 20318.8 1367.19 4
-3 0 -13 18113.9 1268.32 4
-13 -3 0 21114.2 2278.92 4
0 -3 13 30536.7 2355.02 1
13 0 3 24591.9 2049.42 3
-13 -3 0 22462.2 1919.55 3
13 -3 0 25060.5 1731.68 3
-13 0 3 23938.9 1796.42 3
0 -13 -3 20139.5 1533.42 3
13 3 0 21604.6 1757.84 3
-13 -3 2 3932.85 801.144 3
2 -13 -3 4278.45 893.81 1
13 3 2 3451.44 721.512 3
13 -3 -2 3955.57 626.55 3
-3 -13 -2 4664.38 873.707 3
2 -13 -3 3029.42 546.165 3
13 -2 3 4077.96 663.189 2
2 13 3 2744.04 971.508 2
-13 2 3 3031.26 521.009 2
-3 13 2 2790.09 924.4 2
-13 3 -2 3725.18 584.104 2
3 13 -2 3872.9 970.484 2
-2 13 -3 4625.59 1071.31 2
-13 3 -2 3062.95 381.122 1
-3 -13 -2 3370.35 801.519 1
13 3 2 2601.63 292.655 2
-13 -3 2 2959.53 416.612 1
-13 -2 -3 4122.29 1007.67 4
-13 -3 2 4995.99 1109.2 4
-2 3 13 1420.29 307.968 4
-13 -2 -3 2877.11 696.05 3
-13 -2 -3 3001.83 440.255 1
3 -13 2 3334.27 757.011 1
13 -2 3 3601.46 773.424 3
-13 2 3 3045.96 572.216 3
-2 -13 3 3165.12 806.075 1
13 2 -3 2447.34 322.822 1
-3 -13 -4 114 216.313 3
-13 -3 4 129.154 197.347 3
-13 -4 -3 32.3651 98.1356 1
-13 -3 4 78.0479 145.706 1
-3 13 4 45.6388 252.346 2
4 13 3 331.178 309.861 2
13 -3 -4 124.453 63.9453 1
-13 4 3 484.766 246.674 2
-4 -13 3 147.941 218.058 2
-3 -13 -4 88.1975 252.149 1
13 4 -3 257.038 153.637 1
13 -4 3 545.8 420.926 2
-4 13 -3 -253.199 374.798 2
4 -13 -3 216.932 236.028 1
-13 -3 4 86.9903 92.1654 2
3 13 -4 -410.315 468.653 2
-13 -4 -3 -185.911 498.528 4
13 -3 -4 218.549 79.3467 1
3 4 13 476.375 259.261 4
-13 -3 4 585.958 413.444 4
-4 -3 -13 -83.8163 183.989 4
3 -13 4 -120.944 328.334 1
-13 3 -4 114.168 159.861 2
-13 3 -4 386.894 193.363 1
-3 -4 13 303.677 298.767 1
13 -4 3 970.479 422.956 3
-13 4 3 237.262 154.252 3
-4 -13 3 159.259 193.294 1
13 3 4 89.4445 247.499 3
-13 -1 4 3460.07 931.619 4
-1 -13 -4 2017.69 499.955 3
-13 -1 4 2027.31 555.959 3
-1 -4 13 2378.51 689.881 1
1 -13 4 1010.13 444.89 1
-13 1 -4 1430.9 329.881 1
-1 13 4 1341.6 802.398 2
-4 -13 1 1952.84 738.886 2
13 -4 1 2147.08 607.912 2
4 13 1 1504.26 678.285 2
-1 -13 -4 1683.37 512.363 1
-4 13 -1 1391.72 623.248 2
-13 -4 -1 1600.27 351.233 1
-13 4 1 1771.08 463.83 2
1 13 -4 1257.37 560.589 2
13 1 4 1465.78 337.619 2
-13 -1 4 1289.19 221.617 2
13 -4 1 1528.52 255.827 1
4 -13 -1 1547.49 512.071 1
1 4 13 1338.54 461.969 4
-13 -4 -1 1347.47 621.393 4
-4 -1 -13 626.797 297.812 4
-4 -13 1 1352.97 454.744 1
13 4 -1 1214.19 280.38 1
13 -4 1 2704.77 630.435 3
13 1 4 1539.05 627.115 3
-13 1 4 1197.72 366.915 3
-13 -4 1 1120.5 420.056 3
13 -4 -1 2684.74 532.087 3
1 -13 -4 1870.73 467.411 3
13 4 1 525.038 256.397 3
-13 -4 1 1536.81 339.441 1
-1 4 13 1385.67 359.858 4
-1 -13 4 1454.84 481.702 1
-4 -13 -1 794.909 433.997 3
-13 1 4 1594.6 378.448 2
-4 -13 -1 2139.57 830.392 2
1 13 4 1052.41 624.435 2
-4 13 1 1747.65 577.336 1
-4 13 1 1034.01 630.338 2
1 -13 -4 1914.31 652.76 1
4 13 -1 1686.34 653.635 2
13 1 -4 1048.06 213.782 1
4 -13 1 2146.75 628.843 1
1 -4 13 2107.6 662.926 1
-1 13 -4 1189.99 573.749 2
-13 -4 1 1488.59 644.44 4
-13 -1 -4 2106.82 835.548 4
-13 4 -1 1032.38 222.43 1
-4 -13 -1 1166.3 437.251 1
13 -1 4 1820.68 454.114 2
-13 4 -1 1770.81 448.816 2
-4 1 -13 1840.5 456.294 4
13 -1 4 1364.78 504.223 3
3 -4 13 229.93 248.034 1
13 4 3 429.498 377.355 3
3 -13 -4 -4.28008 134.931 3
-4 -13 -3 335.61 207.576 3
-13 -4 3 50.074 263.868 3
-3 -13 4 160.773 202.675 1
4 -13 3 -65.1605 194.116 1
-13 3 4 -78.0766 176.084 2
3 13 4 33.7443 269.995 2
-13 4 -3 289.622 170.805 1
-4 13 3 263.914 418.567 2
3 -13 -4 179.369 177.617 1
-4 -13 -3 -88.4952 317.303 1
4 13 -3 -55.8454 355.659 2
-13 -4 3 -97.8042 167.4 1
13 -3 4 660.813 349.872 2
-3 13 -4 199.432 224.42 2
-4 -3 13 473.234 280.396 1
13 3 -4 388.333 169.715 1
-13 -3 -4 1112.17 433.888 4
-13 -4 3 771.732 447.688 4
-13 4 -3 193.37 205.456 2
13 -3 4 0.41321 265.069 3
-13 3 4 288.868 182.727 3
-13 -3 -4 295.426 124.683 1
5 -13 -4 529.06 219.095 3
-4 -5 13 207.977 230.5 1
-5 -13 4 469.205 309.06 1
5 4 -13 389.423 153.988 4
-13 -4 5 -258.754 424.839 4
-4 13 5 351.785 501.796 2
-13 -5 -4 332.889 197.286 1
13 -4 -5 303.992 126.132 1
5 13 4 553.384 476.544 2
-13 -4 5 241.059 143.533 1
-13 5 4 570.26 333.577 2
-4 -13 -5 246.361 201.14 1
4 -13 5 417.524 305.773 1
13 -5 4 550.026 359.229 2
5 -13 -4 447.063 340.973 1
4 5 13 -41.1795 229.862 4
-5 13 -4 578.53 466.193 2
5 -4 13 297.939 222.674 1
13 5 -4 933.285 325.273 1
-13 -4 5 510.754 204.181 2
4 13 -5 743.456 482.654 2
-13 4 -5 602.021 278.17 1
-13 -5 -4 1544.69 745.595 4
-13 -4 5 1541.9 582.172 3
-5 -4 -13 600.011 320.779 4
-13 4 -5 388.395 256.95 2
13 -5 4 1204.91 497.313 3
-13 5 4 -90.5104 138.48 3
13 -5 4 673.984 254.585 1
-4 -13 -5 355.543 286.629 3
13 4 5 866.099 425.457 3
13 -5 2 5351.32 950.287 2
-13 5 2 4784.01 880.82 2
5 -13 -2 4744.28 884.178 1
-13 -2 5 4123.09 861.397 3
13 -2 -5 3422.21 389.51 1
-2 13 5 2869.22 944.409 2
-5 -13 2 3935.92 1089.33 2
2 -13 5 4867.91 955.52 1
-13 2 -5 5285.83 684.011 1
5 13 2 3792.55 1034.72 2
-2 -13 -5 4174.06 942.981 1
-13 -2 5 3061.96 908.599 4
-13 -2 5 3671.71 448.381 2
-5 13 -2 3554.8 1016.72 2
13 -5 2 4709.5 552.568 1
13 2 5 4720.16 615.337 2
2 13 -5 4847.97 1130.81 2
-13 -2 5 4895.39 582.502 1
2 5 13 1489.89 551.158 4
-5 -2 -13 4451.58 748.239 4
-5 -13 2 4183.91 894.484 1
13 -5 2 4873.68 861.828 3
-13 -5 -2 4357.89 982.853 4
-2 -5 13 5508.24 1062.44 1
13 2 5 5081.3 1000.14 3
13 5 -2 4179.26 580.078 1
-13 -5 -2 4356.89 649.876 1
-2 -13 -5 3053.18 639.146 3
13 -5 0 5658.95 550.098 1
-5 -13 0 7279.99 1412.2 2
13 -5 0 7493.77 1081.93 2
5 13 0 6259.02 1275.78 2
-5 13 0 6109.39 1322.23 2
-13 5 0 6903.43 996.869 2
-13 -5 0 6813.53 781.642 1
-5 -13 0 7254.31 1204.29 1
0 13 5 4277.79 1156.09 2
0 13 -5 7835.32 1348.79 2
13 5 0 6468.1 705.437 1
5 -13 0 6619.59 1069.25 1
13 0 5 6642.63 790.068 2
-13 0 -5 7464.8 794.882 1
0 -13 5 7293.39 1167.37 1
13 0 -5 6102.8 551.828 1
-13 0 -5 5188.21 1075.92 4
-5 0 -13 4509.42 750.466 4
-13 -5 0 5355.2 1138.33 4
0 5 13 3069.4 599.469 4
13 -5 0 6806.3 896.37 3
0 -13 -5 4868.67 755.578 3
-13 0 5 6120.97 899.43 3
13 0 5 6800.19 1125.34 3
5 0 -13 7633.26 1088.52 1
-13 5 0 5955.62 529.357 1
0 -13 -5 7639.19 1175.73 1
0 -5 13 7589.6 1210.72 1
-5 13 0 8064.85 1176.09 1
-13 2 5 4229.67 711.036 3
13 5 2 4741.95 928.071 3
-5 -13 -2 4841.64 979.394 1
2 -5 13 4986.7 991.027 1
13 5 2 3577.16 531.28 2
2 13 5 2707.86 976.978 2
-13 5 -2 4791.48 566.343 1
13 -2 5 3907.58 728.859 2
-13 5 -2 4616.34 803.018 2
-5 13 2 3934.31 1065.84 2
2 -13 -5 4127.39 865.883 1
13 2 -5 4623.67 552.993 1
5 -13 2 5141.69 973.733 1
5 13 -2 4676.57 1040.9 2
-13 -5 2 4025.53 607.518 1
13 -5 -2 3912.52 428.07 1
-2 -13 5 5059.32 985.446 1
-2 13 -5 4540.56 1054.24 2
-13 -5 2 5972.05 1212.2 4
-13 -2 -5 3027.17 868.544 4
13 -5 -2 4253.29 590.296 3
13 -2 5 4643.46 972.237 3
-5 13 2 5376.58 963.539 1
2 -13 -5 3107.4 557.753 3
-4 -13 5 922.337 562.544 1
4 13 5 576.214 475.915 2
5 -13 4 368.359 285.764 1
-13 -4 -5 1749.21 681.693 4
-5 13 4 494.854 494.954 2
-13 5 -4 491.773 221.208 1
4 -13 -5 571.072 337.583 1
-13 -5 4 634.012 262.995 2
-5 -13 -4 474.134 444.691 1
13 -5 -4 364.947 147.424 1
5 4 13 123.622 295.276 4
-13 4 5 990.203 389.854 2
13 -4 5 822.26 403.642 2
5 13 -4 720.744 444.513 2
-4 13 -5 1019.38 539.341 2
13 5 4 246.503 328.351 3
-13 -5 4 237.99 160.85 1
-13 5 -4 635.153 306.557 2
13 4 -5 747.793 292.585 1
-13 -5 4 362.35 372.264 4
-5 -4 13 660.475 427.294 1
4 5 -13 485.66 220.536 4
13 -4 5 121.847 237.748 3
4 -5 13 929.213 437.362 1
-13 4 5 856.326 285.265 3
4 -13 -5 724.648 220.152 3
13 -5 -6 919.777 263.813 1
-13 -6 -5 994.083 365.166 1
-6 -13 5 1611.55 625.41 1
6 13 5 843.682 506.753 2
-5 13 6 1498.89 692.224 2
-13 6 5 1157.37 522.893 2
-13 -5 6 1434.36 453.48 1
-5 -13 -6 1218.75 545.7 1
6 -13 -5 971.938 436.755 1
-13 -6 -5 1177.56 731.997 4
13 -6 5 1554.13 616.333 2
13 -6 5 1439.6 415.865 1
5 -13 6 1379.18 570.098 1
6 5 -13 649.113 239.458 4
6 -5 13 1234.66 602.511 1
-13 -5 6 766.652 297.767 2
-6 13 -5 1290.33 634.217 2
-5 -6 13 1379.12 672.584 1
5 13 -6 1490.45 641.387 2
-13 5 -6 1237.77 401.479 1
-13 -5 6 472.867 452.112 4
13 6 -5 1314.31 412.6 1
5 6 13 789.281 463.541 4
-13 5 -6 1404.26 463.27 2
-6 -5 -13 801.055 305.616 4
-13 6 5 888.457 249.39 3
6 -13 -5 933.745 235.979 3
13 5 6 936.598 654.349 3
-13 -3 6 813.256 307.852 1
13 -3 -6 750.948 221.349 1
-13 -3 6 709.283 255.423 2
-13 -3 6 492.735 379.454 4
-3 13 6 252.652 440.068 2
6 13 3 569.695 467.797 2
-3 -13 -6 852.683 393.393 1
3 6 13 1045.13 522.141 4
-13 -6 -3 523.876 266.734 1
-6 -13 3 215.943 462.833 2
-13 6 3 474.706 359.538 2
13 -6 3 855.925 428.602 2
13 6 -3 584.098 260.147 1
-13 3 -6 599.377 274.73 1
3 -13 6 1192.78 445.676 1
-6 13 -3 713.495 389.339 2
6 -13 -3 116.824 225.13 1
3 13 -6 585.64 323.097 2
-3 -6 13 1169.73 536.78 1
-13 -6 -3 -251.678 292.708 4
-6 -3 -13 1255.61 464.784 4
13 -6 3 570.123 231.401 1
13 6 -3 534.387 189.855 2
-13 3 -6 551.276 294.692 2
-6 -13 3 422.637 278.859 1
13 3 6 -18.6994 257.466 3
-3 -13 -6 898.695 297.146 3
-6 13 -1 4471.73 849.287 1
-13 -6 -1 3555.21 610.26 1
-13 -1 6 3302.57 709.473 3
-1 13 6 4091.9 1189.5 2
-6 -13 1 3392.84 1015.75 2
13 6 -1 2546.7 402.459 2
13 -6 1 3550.36 829.407 2
-1 -13 -6 3678.71 845.859 1
6 13 1 2280.83 735.212 2
1 -13 6 3192.09 777.618 1
-13 6 1 3858.04 834.307 2
-6 13 -1 3733.71 1007.16 2
13 1 6 2882.28 545.411 2
1 13 -6 3297.84 919.457 2
6 1 -13 3616.32 751.263 1
-13 1 -6 3624.76 593.958 1
-1 -6 13 3834.99 936.489 1
1 6 13 2995.43 666.44 4
-6 -1 -13 2229.25 607.009 4
6 -13 -1 3401.27 750.162 1
-6 -13 1 2879.99 813.467 1
-13 -6 -1 1496.66 682.818 4
-13 -1 6 3905.49 960.585 4
13 -1 -6 3629.38 470.22 1
13 -6 1 4152.4 769.501 3
-13 6 1 3121.18 425.938 1
13 1 6 2039.72 647.644 3
13 6 -1 3383.9 535.941 1
-1 -13 -6 2741.99 601.032 3
13 -6 1 3841.09 520.985 1
-13 6 -1 4205.77 542.253 1
-13 1 6 3796.88 695.57 3
13 6 1 1989.13 609.395 3
13 -6 -1 3448.48 815.634 2
-6 -13 -1 2449.59 955.511 2
6 -1 -13 3447.29 718.843 1
1 13 6 2866.89 1143.63 2
-6 13 1 4095.2 841.477 1
1 -13 -6 3738.76 818.79 1
-13 -6 1 3570.5 647.826 1
13 6 1 2361.6 442.222 2
-1 -13 6 3732.82 893.336 1
-6 13 1 2111.03 843.447 2
13 -1 6 3577.81 656.902 2
6 13 -1 2821.62 802.615 2
-13 6 -1 3561.04 763.211 2
13 -6 -1 3768.06 494.878 1
-6 -13 -1 2763.93 727.859 1
-1 13 -6 3265.89 881.319 2
13 1 -6 3310.88 491.2 1
-6 1 -13 1319.5 494.74 4
-13 -1 -6 1504.31 755.481 4
-13 -6 1 1606.67 677.4 4
1 -6 13 3923.79 909.605 1
13 -1 6 1158.39 579.709 3
6 -13 1 3566.15 776.867 1
1 -13 -6 3200.72 578.28 3
13 -6 -1 3333.95 579.886 3
13 3 -6 426.181 205.59 1
3 -6 13 901.647 423.968 1
-13 3 6 209.073 146.582 3
13 6 3 184.542 240.596 3
13 -6 -3 900.511 266.209 3
6 -13 3 493.145 340.113 1
-6 13 3 524.915 352.172 1
3 13 6 1325.99 654.312 2
-13 -6 3 851.525 334.062 2
-13 -6 3 387.903 233.05 1
3 -13 -6 251.579 206.182 1
-6 13 3 472.25 451.939 2
-3 -13 6 551.152 370.993 1
-13 6 -3 882.427 421.975 2
-6 -3 13 714.433 398.492 1
-6 -13 -3 97.8064 161.616 1
13 -3 6 592.329 456.299 3
6 13 -3 793.201 539.38 2
-13 -3 -6 569.424 457.11 4
-3 13 -6 718.897 471.442 2
13 -3 6 376.129 300.498 2
13 -6 -3 584.052 200.502 1
-13 -6 3 673.683 416.492 4
-13 6 -3 693.684 260.288 1
3 -13 -6 483.418 220.898 3
6 5 13 128.014 332.213 4
13 6 5 1020.38 465.09 3
13 -5 6 1319.27 418.49 1
5 13 6 1163.55 446.977 3
5 13 6 340.092 263.862 2
-6 13 5 1014.54 699.847 2
13 -6 -5 1094.44 284.37 1
-5 -13 6 1322.1 623.033 1
5 -13 -6 1353.82 497.156 1
-6 -13 -5 1420.54 579.251 1
-13 6 -5 1452.52 386.356 1
5 -6 13 1731.54 629.461 1
6 -13 5 1323.97 534.375 1
-13 -6 5 1272.5 373.285 2
13 -5 6 1708.98 609.849 2
6 13 -5 1437.53 632.518 2
-5 13 -6 891.582 582.768 2
13 5 -6 787.958 493.646 4
-13 -6 5 816.001 314.043 1
-13 -5 -6 1519.57 693.721 4
-13 6 -5 1232.56 466.958 2
-13 -6 5 2182.08 726.332 4
13 5 -6 1283.7 402.965 1
5 6 -13 1472.46 412.036 4
5 -13 -6 1251.01 309.552 3
-13 5 6 1331.54 349.99 3
-6 -5 13 1228.64 538.719 1
13 -6 -7 875.367 283.239 1
-13 6 -7 1062.43 380.809 1
-13 -7 -6 496.491 280.095 1
7 13 6 1114.55 450.94 3
7 -13 -6 575.979 163.444 3
7 -6 13 765.765 442.423 1
7 13 6 397.582 450.88 2
-6 13 7 -2.36718 384.762 2
-13 7 6 520.985 326.911 2
-6 -13 -7 801.239 463.678 1
-13 -6 7 429.487 298.59 1
-6 -7 13 531.41 259.636 1
13 -7 6 431.809 221.79 1
-7 -13 6 851.088 458.99 1
7 6 -13 1174.82 377.703 4
7 -13 -6 500.189 318.807 1
13 -7 6 607.734 371.166 2
-13 -6 7 797.688 320.104 2
-7 13 -6 1281.81 673.226 2
6 13 -7 137.706 281.081 2
6 -13 7 1109.47 480.682 1
6 7 13 77.1504 375.332 4
13 7 -6 666.623 352.435 1
-13 -7 -6 900.658 448.728 4
-13 -6 7 301.059 344.164 4
-13 6 -7 883.293 415.949 2
-7 -6 -13 622.188 307.15 4
13 7 -6 514.08 190.865 2
6 7 13 -40.2668 335.222 3
-6 7 -13 251.369 252.598 2
13 6 7 1252.29 634.847 3
-7 -13 4 199.518 226.759 1
7 -13 -4 324.663 147.798 3
-4 13 7 110.408 399.094 2
-13 4 -7 171.419 99.9414 1
-4 -13 -7 -289.896 411.996 1
7 13 4 420.212 381.726 2
-13 -7 -4 77.61 193.069 1
-13 7 4 207.714 207.904 2
-4 -7 13 298.742 383.702 1
-7 -13 4 687.097 426.756 2
13 -7 4 622.232 457.74 2
-13 -4 7 253.641 416.881 4
7 -13 -4 -84.1711 262.037 1
13 7 -4 340.341 231.153 1
-7 -4 -13 128.765 300.146 4
-7 13 -4 716.127 528.082 2
4 -13 7 296.599 234.336 1
4 13 -7 -73.241 205.285 2
-13 -4 7 312.981 194.007 2
13 -7 4 118.491 208.287 1
4 7 13 -40.8625 420.259 4
-13 -7 -4 -211.17 447.541 4
13 7 -4 67.5949 130.695 2
-13 -4 7 182.918 189.654 1
4 7 13 125.772 276.161 3
-13 4 -7 349.513 314.628 2
-4 7 -13 499.156 254.629 2
13 4 7 319.658 324.658 3
13 -2 -7 1269.97 317.164 1
-13 -2 7 1091.99 623.728 4
13 -7 2 1348.13 368.765 1
-2 13 7 442.171 390.774 2
-2 -13 -7 1257.5 496.397 1
-7 -13 2 927.816 454.493 2
13 7 -2 752.831 333.712 1
7 13 2 824.254 506.317 2
13 -7 2 1311.65 600.588 2
-2 -7 13 1389.63 518.182 1
-13 7 2 1490.21 544.287 2
-13 -7 -2 908.772 348.679 1
7 -13 -2 1197.02 449.083 1
-7 13 -2 1517.34 680.049 2
2 -13 7 1296.88 565.709 1
13 7 -2 1403.98 376.311 2
13 2 7 1263.04 396.497 2
2 13 -7 1180.37 634.013 2
-13 -2 7 1621.16 394.048 1
-7 -2 -13 1775.87 534.662 4
2 7 13 1210.63 495.497 4
-13 -7 -2 1614.92 602.038 4
-2 7 -13 1306.24 556.477 2
-13 -2 7 1210.76 339.663 2
-7 -13 2 901.156 396.548 1
13 2 7 1268.23 707.201 3
-2 -13 -7 1066.59 401.015 3
-13 2 -7 1299.7 415.976 1
-7 -13 0 9336.36 1612.38 2
13 -7 0 9197.13 1403.91 2
7 13 0 7028.51 1286.38 2
-7 13 0 7582.52 1534.71 2
13 7 0 8579 936.846 2
-13 7 0 8535.89 1249.87 2
-13 0 -7 9642.48 1035.06 1
-7 0 -13 5781.64 964.677 4
-13 -7 0 8378.25 1008.76 1
-7 -13 0 8539.25 1358.51 1
0 13 -7 8725.47 1460.12 2
7 -13 0 9556.7 1267.52 1
13 0 7 8426.26 997.715 2
-13 0 -7 5898.48 1191.6 4
0 -13 7 9234.54 1359.14 1
0 -7 13 10278.2 1469.88 1
0 -13 -7 8802.69 1312 1
13 -7 0 10098.7 918.255 1
7 0 -13 9457.18 1195.79 1
13 0 7 8101.01 1336.06 3
13 -7 0 7929.38 934.202 3
0 -13 -7 4816.58 759.274 3
13 0 -7 9824.79 868.568 1
-13 -7 0 6703.83 1231.44 4
0 7 -13 9085.71 1359.82 2
13 7 0 9196.96 994.442 1
-13 7 0 9649.87 858.431 1
-7 13 0 10595.9 1333.56 1
7 -13 2 602.348 349.289 1
-13 2 7 1380.75 410.906 3
2 13 7 1106.27 450.28 3
13 7 2 650.38 357.174 3
-13 7 -2 1261.51 352.846 1
-7 13 2 1574.84 555.419 1
2 -13 -7 543.979 331.905 1
13 7 2 940.664 352.09 2
-7 13 2 510.505 347.444 2
13 2 -7 1482.22 384.03 1
-2 -13 7 1034.25 471.81 1
7 13 -2 1127.96 574.017 2
-7 -13 -2 667.825 422.953 1
-2 13 -7 1382.6 648.559 2
2 -7 13 1158.32 476.239 1
-13 7 -2 1254.48 545.286 2
-13 -2 -7 1339.36 510.493 4
13 -2 7 1131.57 413.45 2
-13 -7 2 2005.34 721.844 4
13 -2 7 1915.29 694.076 3
13 -7 -2 1046.05 286.257 1
2 -13 -7 1032.44 351.376 3
-13 -7 2 1130.23 405.115 1
7 -2 -13 1318.32 452.28 1
13 -7 -2 1434.44 362.604 3
-13 4 7 72.7164 183.32 3
13 7 4 226.965 313.177 3
13 4 -7 -60.1139 167.921 1
4 -13 -7 -33.8271 142.308 1
4 13 7 38.7944 299.581 3
-7 13 4 229.869 475.131 2
-13 -7 4 358.775 312.474 4
7 -13 4 661.082 439.264 1
-13 -7 4 190.322 156.749 2
-13 -7 4 0.62334 218.691 1
-7 -13 -4 -96.2083 281.429 1
-4 -13 7 -150.414 253.135 1
13 -7 -4 199.541 144.579 1
7 13 -4 539.091 506.27 2
13 -4 7 135.852 268.304 2
-4 13 -7 -317.376 299.173 2
-13 7 -4 142.236 232.074 2
4 -7 13 536.466 381.268 1
-13 -4 -7 1267.87 697.089 4
-7 -4 13 24.5148 370.325 1
4 -13 -7 144.577 125.425 3
-13 7 -4 320.434 240.687 1
13 7 6 1251.03 588.383 3
6 13 7 148.765 281.258 3
-7 13 6 372.41 378.876 2
13 -6 7 650.974 348.192 1
13 -7 -6 441.933 250.968 1
6 -13 -7 674.347 287.85 1
-7 -13 -6 683.029 359.875 1
-13 7 -6 823.774 302.548 1
-6 -13 7 1206.09 584.101 1
-13 -7 6 643.872 327.292 2
-13 -7 6 790.986 440.238 4
13 -6 7 530.581 261.864 2
-7 -6 13 950.66 478.822 1
7 -13 6 1059.81 446.912 1
7 13 -6 804.306 538.984 2
-6 13 -7 338.662 244.079 2
7 6 13 429.476 341.045 4
-13 -7 6 894.373 388.373 1
7 6 13 435.321 446.504 3
-13 7 -6 356.785 308.736 2
-13 -6 -7 1276.3 624.021 4
6 7 -13 453.909 272.995 4
13 6 -7 996.536 405.29 1
6 -7 13 512.025 474.969 1
-13 6 7 137.771 148.956 3
13 -7 -8 22.5202 107.101 1
8 13 7 10.7379 384.35 3
-13 -8 -7 42.4899 226.681 1
13 -8 7 474.655 347.709 1
-13 7 -8 367.783 344.68 2
-7 13 8 187.416 452.907 2
-7 -13 -8 170.615 279.855 1
-13 -7 8 44.1593 212.397 1
-8 13 -7 413.841 400.796 2
8 -13 -7 236.366 303.347 1
8 -7 13 516.307 407.415 1
-8 -13 7 -195.549 356.24 1
-13 8 7 553.013 422.094 2
-13 -7 8 683.661 450.488 2
-13 -7 8 48.2107 238.417 4
-13 7 -8 162.906 204.855 1
8 7 -13 850.06 403.502 4
7 13 -8 248.045 259.026 2
-13 -8 -7 611.201 458.124 4
13 8 -7 440.673 264.857 1
-8 -7 -13 147.951 300.571 4
7 -13 8 348.904 324.526 1
13 8 -7 363.88 209.09 2
-7 8 -13 133.412 278.011 2
7 8 13 794.002 574.105 3
-7 -8 13 830.332 593.408 1
13 7 8 475.115 509.002 3
-13 5 -8 2015.03 558.507 1
8 13 5 1194.57 494.638 3
-5 13 8 1912.75 967.716 2
5 8 13 2256.29 781.034 4
13 8 -5 2829.68 574.714 2
-5 -13 -8 1763.39 556.911 1
-5 8 -13 2424.23 755.52 2
-8 -13 5 2247.88 748.835 1
8 13 5 2133.92 740.708 2
-13 -8 -5 2235.06 587.2 1
-13 8 5 1601.88 635.551 2
8 5 -13 2010.54 464.486 4
-8 -13 5 2271.94 835.069 2
13 -8 5 1828.43 717.781 2
8 -13 -5 2622.35 700.492 1
5 -13 8 2835.04 798.29 1
-8 13 -5 3051.21 946.135 2
13 8 -5 1886.86 560.006 1
13 -8 5 2973.77 647.704 1
-13 -5 8 2443.04 576.044 2
5 13 -8 3086.24 877.521 2
8 -13 -5 1058.7 193.922 3
-13 -5 8 2679.56 602.841 1
-8 -5 -13 1966.39 596.406 4
-13 -8 -5 1475.82 611.944 4
8 -5 13 2245.79 712.743 1
-13 5 -8 2626.69 666.315 2
5 8 13 888.972 406.543 3
-13 -5 8 1094.17 437.431 4
13 5 8 1923.89 722.828 3
-5 -8 13 2840.76 836.005 1
3 13 -8 1335.95 656.757 2
-3 -8 13 1025.81 503.168 1
13 8 -3 1183.37 405.076 2
13 -8 3 997.972 352.144 1
-3 -13 -8 960.635 492.789 1
13 -3 -8 974.997 304.392 1
8 13 3 1288.81 582.594 2
-8 -13 3 1492.26 628.03 2
-13 8 3 782.74 440.33 2
13 -8 3 1091.17 565.44 2
-13 -8 -3 484.59 162.207 1
13 8 -3 754.779 341.219 1
-8 13 -3 1394.79 677.253 2
-13 -3 8 1345.56 523.48 4
8 -13 -3 961.804 439.574 1
-13 -8 -3 2028.15 650.447 4
-13 3 -8 1134.46 433.251 1
-8 -3 -13 1652.78 558.37 4
3 -13 8 1482.91 515.817 1
3 8 13 1148.31 497.712 4
-13 -3 8 1013.43 337.578 2
3 8 13 1142.89 478.181 3
-3 8 -13 1373.69 570.507 2
-13 -3 8 1426.42 438.429 1
-3 -13 -8 722.017 277.338 3
13 3 8 1098.27 612.819 3
-8 -13 3 1054.89 496.759 1
-1 13 8 989.608 334.825 3
-1 -8 13 1345.34 570.193 1
8 1 -13 1032.21 420.965 1
-13 8 1 857.842 299.648 1
-1 -13 -8 1185.28 490.852 1
13 8 -1 966.49 414.677 1
-8 -13 1 1207.14 702.575 2
13 -8 1 661.211 462.26 2
8 13 1 868.135 419.133 2
-13 8 1 890.306 517.623 2
-8 13 -1 703.571 570.227 2
-8 13 -1 1227.36 495.841 1
13 8 -1 890.205 335.515 2
-13 -8 -1 631.816 346.53 1
1 -13 8 985.658 479.084 1
13 -8 1 1192.11 361.857 1
13 -1 -8 940.434 300.437 1
1 13 -8 1141.44 615.927 2
-8 1 13 905.099 339.011 4
-13 -1 8 -817.827 605.311 4
-8 -1 -13 1144.79 482.467 4
8 -13 -1 1030.58 437.489 1
-8 -13 1 749.532 430.94 1
-13 1 -8 1176.95 408.121 1
-13 -8 -1 1469.14 593.504 4
1 8 13 1279.61 565.93 4
13 1 8 698.423 232.431 2
-1 8 -13 1370.37 579.73 2
13 -8 1 656.927 339.137 3
-1 -13 -8 2.33556 231.088 3
13 1 8 1021.46 579.269 3
13 8 1 737.45 325.282 1
1 13 8 843.183 355.632 3
13 -8 -1 922.906 318.918 1
-1 13 -8 1064.88 559.308 2
13 -8 -1 664.539 457.091 2
1 -13 -8 1269.05 521.561 1
1 -8 13 614.211 332.786 1
8 -1 -13 518.997 241.339 1
-8 13 1 1159.27 514.383 1
13 8 1 773.523 315.601 2
-8 13 1 854.618 588.149 2
8 13 -1 783.745 492.93 2
-13 8 -1 741.01 276.327 1
-13 8 -1 1001.33 517.079 2
-8 -1 13 1323.41 331.621 4
-1 -13 8 1131.42 506.49 1
-8 -13 -1 712.619 447.217 1
-8 1 -13 856.9 323.859 4
-13 -1 -8 1002.7 528.338 4
13 -1 8 566.523 343.947 2
-13 -8 1 117.097 316.863 4
-13 -8 1 782.232 347.928 1
13 1 -8 1066.46 332.405 1
13 -1 8 1175.62 529.076 3
1 8 -13 1083.12 481.241 2
1 -13 -8 368.052 256.633 3
13 -8 -1 1607.85 396.77 3
8 -13 1 905.591 415.053 1
13 -8 -3 767.94 201.611 3
3 13 8 1095.59 455.701 3
13 8 3 693.236 316.066 3
-13 -8 3 1531.87 484.158 1
-8 13 3 1083.33 478.342 1
3 -13 -8 747.788 362.403 1
13 8 3 612.826 320.754 2
8 -13 3 641.075 269.481 1
-13 -8 3 1732.33 505.632 2
-13 -3 -8 2033.06 704.069 4
-8 13 3 776.561 535.642 2
3 -8 13 823.788 450.454 1
-3 13 -8 1183.35 708.155 2
13 3 -8 1137.58 360.234 1
-13 -8 3 1819.43 647.854 4
-13 8 -3 988.718 346.1 1
-8 -13 -3 733.342 420.679 1
8 13 -3 994.847 501.904 2
-3 -13 8 1712.59 687.673 1
-13 8 -3 588.204 433.448 2
-8 -3 13 1004.4 471.089 1
13 -3 8 1341.96 512.774 2
-8 -3 13 917.502 444.057 2
3 8 -13 1493.3 611.431 2
13 -8 -3 839.28 301.296 1
-13 8 -5 3033.63 623.709 1
-8 -5 13 2337.73 736.935 1
5 13 8 2452.29 760.945 3
5 -13 -8 2283.08 635.948 1
-8 13 5 1516.18 712.591 2
-8 -13 -5 1891.27 664.623 1
-13 -8 5 2048.33 591.164 2
13 -8 -5 2212.77 453.543 1
-13 -8 5 2170.53 625.809 1
8 -13 5 2736.83 757.91 1
5 -8 13 2539.36 767.593 1
13 5 -8 3192.36 671.36 1
-5 -13 8 3166.5 873.167 1
8 13 -5 2857.71 887.815 2
13 -5 8 2502.19 730.199 2
8 5 13 1056.35 564.869 4
13 8 5 2536.96 782.126 3
-13 -5 -8 1182.42 540.395 4
-13 -8 5 1272.08 527.9 4
-13 8 -5 2399.19 698.922 2
-13 5 8 1272.16 337.536 3
5 8 -13 2354.02 674.323 2
-5 13 -8 2576.45 836.819 2
8 5 13 1987.04 662.837 3
13 8 7 -437.969 587.676 3
-8 13 7 91.2427 297.05 2
13 -8 -7 213.627 179.533 1
-8 -13 -7 424.706 328.291 1
7 -13 -8 404.265 280.407 1
-8 -7 13 64.3791 227.396 1
-13 8 -7 154.28 148.801 1
-13 -8 7 460.964 393.089 2
-7 -13 8 294.09 304.751 1
7 13 8 724.754 521.068 3
8 13 -7 889.409 558.992 2
-7 13 -8 603.862 393.034 2
7 -8 13 126.368 164.869 1
-13 8 -7 425.305 359.471 2
7 8 -13 647.461 414.359 4
8 -13 7 397.49 401.745 1
-13 -7 -8 463.647 475.628 4
-13 -8 7 -312.903 302.265 4
13 -7 8 -151.854 250.128 1
-13 -8 7 254.373 277.455 1
-8 7 -13 -174.494 214.57 2
8 7 13 1351.3 640.048 3
13 7 -8 279.336 284.323 1
-13 7 8 -83.0222 118.007 3
9 -8 13 432.481 378.253 1
13 -9 8 385.168 315.274 1
9 13 8 -616.306 602.024 3
13 -8 -9 182.301 155.201 1
-13 -9 -8 146.321 132.919 1
8 -13 9 446.118 404.317 1
-8 -13 -9 -175.361 336.12 1
-8 13 9 580.768 532.035 2
-13 9 8 180.79 222.345 2
9 -13 -8 132.734 167.219 1
-13 -8 9 30.6299 265.468 1
-13 8 -9 267.174 277.91 1
-9 -13 8 141.509 342.197 1
-13 -8 9 549.986 394.885 2
-9 -8 -13 1193.28 528.223 4
9 8 -13 1161.4 454.661 4
8 13 -9 825.538 526.241 2
-8 -9 13 744.057 481.53 1
-9 13 -8 151.594 252.115 2
-13 -9 -8 713.133 451.579 4
-13 8 -9 442.406 472.304 2
-13 -8 9 64.0234 242.378 4
13 9 -8 115.306 161.609 1
-8 9 -13 319.692 386.532 2
13 9 -8 60.7081 199.871 2
8 9 13 1379.11 645.553 3
13 8 9 736.925 525.888 3
9 13 6 604.115 372.321 3
-6 -13 -9 552.214 361.501 1
9 13 6 -190.324 298.752 2
-13 -9 -6 -38.9934 234.334 1
-13 9 6 -162.829 447.548 2
-9 -13 6 123.562 198.499 1
9 -13 -6 47.036 151.959 1
9 -6 13 165.655 290.542 1
-9 13 -6 3.90825 351.48 2
13 -9 6 -48.1704 203.738 1
-13 -6 9 -142.202 235.65 2
13 9 -6 51.5672 155.821 1
9 6 -13 -365.231 286.597 4
6 13 -9 27.8962 173.584 2
-6 -9 13 -188.489 396.166 1
13 9 -6 -50.3554 212.748 2
-9 -6 -13 112.833 251.67 4
-13 -6 9 166.461 238.347 4
-13 -9 -6 198.74 308.24 4
-6 9 -13 17.2006 272.565 2
-13 6 -9 394.989 287.721 2
-13 6 -9 282.062 265.021 1
6 9 13 -320.005 405.445 3
13 6 9 -115.483 363.765 3
6 -13 9 13.2403 318.988 1
-13 -6 9 385.885 307.217 1
9 -13 -4 421.069 126.338 3
-9 -13 4 813.63 503.642 1
-4 -13 -9 839.247 382.745 1
-9 -4 -13 179.274 266.611 4
13 -9 4 1297.78 465.537 1
9 13 4 955.432 576.174 2
4 9 13 411.323 343.839 3
-13 9 4 588.89 337.327 2
-9 -13 4 716.479 275.685 2
-13 -9 -4 1140.46 442.914 1
13 -9 4 1296.75 555.636 2
-13 4 -9 891.162 383.48 1
13 9 -4 1365.91 481.128 1
9 -13 -4 941.448 435.255 1
-9 13 -4 571.519 505.939 2
-13 -4 9 921.736 378.043 1
4 13 -9 1421.23 575.405 2
-13 -4 9 672.411 489.02 4
-13 -4 9 930.565 366.603 2
13 9 -4 889.076 367.585 2
4 9 13 701.384 494.58 4
-13 -9 -4 1061.56 525.8 4
-4 -9 13 901.729 453.003 1
-4 9 -13 727.479 456.205 2
4 -13 9 1234.44 575.487 1
13 4 9 503.675 506.625 3
9 2 -13 -6.67145 240.883 1
-2 13 9 1076.36 407.458 3
-13 9 2 323.737 232.187 1
-2 -13 -9 132.462 238.393 1
2 -13 9 387.684 355.437 1
-9 -13 2 581.268 479.402 2
-13 2 -9 339.173 255.553 1
13 -9 2 737.661 509.51 2
13 9 -2 465.4 361.864 1
9 13 2 410.744 371.005 2
13 -2 -9 245.371 205.601 1
-13 9 2 238.818 256.303 2
-13 -9 -2 1097.84 633.68 4
-13 -9 -2 96.3625 175.58 1
-9 13 -2 273.754 339.725 2
-9 13 -2 799.154 424.252 1
13 9 -2 644.185 364.022 2
2 9 13 459.322 439.333 4
13 -9 2 47.8015 136.402 1
9 -13 -2 386.819 235.643 1
-9 -2 -13 1111.37 444.54 4
2 13 -9 629.43 436.537 2
-13 -2 9 -208.259 358.143 4
-2 -9 13 87.5151 186.324 1
-9 -13 2 1030.43 572.639 1
-2 9 -13 399.689 402.628 2
-13 -2 9 152.63 186.23 2
-2 -13 -9 111.868 206.322 3
2 9 13 232.115 221.415 3
13 2 9 2097.56 801.496 3
0 -9 13 695.771 472.312 1
0 13 9 583.235 315.7 3
13 9 0 99.0612 186.888 1
0 -13 -9 342.744 295.734 1
-9 -13 0 294.628 406.806 2
13 -9 0 563.062 513.79 2
13 -9 0 330.09 247.922 1
-13 9 0 367.061 232.58 1
-9 -13 0 141.412 210.984 1
13 0 -9 375.652 285.127 1
-9 13 0 -70.0339 144.424 1
9 13 0 289.339 286.483 2
-9 13 0 1071.51 648.14 2
9 0 -13 -33.5491 219.454 1
13 9 0 -228.672 234.647 2
-13 9 0 153.653 188.494 2
-13 0 9 -439.893 574.643 4
-13 0 -9 101.907 326.947 4
-9 0 -13 966.669 579.419 4
-13 -9 0 104.362 231.633 1
-9 0 13 224.863 223.493 4
0 13 -9 -9.58627 296.488 2
-13 -9 0 579.687 478.658 4
0 -13 9 207.594 272.773 1
13 0 9 567.56 436.121 3
13 0 9 -143.901 172.329 2
0 9 -13 -139.987 304.825 2
13 -9 0 419.133 279.35 3
0 -13 -9 361.917 223.812 3
0 9 13 -219.733 264.922 3
9 -13 0 389.244 352.048 1
-13 0 -9 375.277 199.207 1
2 13 9 990.184 399.397 3
9 -13 2 132.025 183.849 1
2 -13 -9 33.5306 194.456 1
-13 -9 2 637.616 439.532 2
-9 13 2 440.413 255.47 1
13 9 2 794.792 413.091 2
-9 13 2 355.755 392.015 2
9 13 -2 845.214 485.865 2
-9 -13 -2 29.7147 177.76 1
-13 9 -2 284.722 258.779 2
-13 9 -2 367.891 258.239 1
-13 -2 -9 1049.16 650.253 4
-2 13 -9 555.294 443.991 2
-2 -13 9 815.867 463.857 1
13 2 -9 667 310.877 1
13 -2 9 117.085 181.861 2
-9 -2 13 -172.311 151.285 4
-13 -9 2 62.9774 307.552 4
9 -2 -13 487.916 294.439 1
13 -9 -2 644.563 327.835 1
2 9 -13 -55.6722 160.88 2
-13 -9 2 408.315 314.907 1
13 -9 -2 942.634 279.744 3
2 -9 13 388.756 427.417 1
4 13 9 558.425 277.579 3
-9 13 4 963.114 469.249 1
13 9 4 1238.61 516.314 3
4 -9 13 1295.45 622.943 1
4 -13 -9 792.862 424.829 1
13 9 4 1097.2 444.113 2
-13 -9 4 1148.26 483.23 1
-13 -4 -9 205.647 300.761 4
-13 -9 4 1365.93 524.455 2
-9 13 4 820.309 519.022 2
13 4 -9 845.162 378.118 1
9 -13 4 1262.68 534.277 1
-9 -13 -4 940.431 515.51 1
9 13 -4 1104.05 568.922 2
13 -9 -4 1073.1 354.598 1
-13 9 -4 515.443 258.856 2
13 -4 9 740.773 441.826 2
-4 13 -9 1166.54 545.329 2
-4 -13 9 1117.71 413.966 1
-13 -9 4 396.161 391.543 4
-13 9 -4 1016.64 365.631 1
4 9 -13 925.712 438.835 2
-9 -4 13 1433.99 583.235 1
6 13 9 -76.1567 396.888 3
13 9 6 703.62 461.186 3
-13 6 9 410.392 207.1 3
-13 9 -6 29.1275 148.705 1
13 6 -9 -38.5186 165.923 1
6 -13 -9 299.382 286.196 1
-9 13 6 252.762 335.948 2
-9 -13 -6 -54.7436 325.946 1
13 -6 9 119.63 252.003 1
6 -9 13 288.155 361.808 1
13 -9 -6 118.061 97.3762 1
9 -13 6 60.5198 231.484 1
-13 -9 6 279.478 247.282 2
-13 -9 6 81.1344 177.959 1
-9 -6 13 125.919 269.974 1
9 13 -6 459.747 364.103 2
13 6 -9 -507.144 295.753 4
-6 -13 9 41.4428 253.809 1
-6 13 -9 274.956 452.166 2
-13 -6 -9 1036.38 585.34 4
-13 9 -6 -212.548 329.177 2
6 9 -13 47.1552 248.16 4
-13 -9 6 58.709 296.5 4
9 6 13 370.939 332.36 3
6 9 -13 310.748 301.602 2
13 9 8 252.218 309.152 3
8 13 9 249.856 357.43 3
-9 13 8 176.296 253.867 2
13 -9 -8 146.018 196.029 1
-9 -13 -8 152.359 234.939 1
8 -13 -9 316.743 277.662 1
-13 9 -8 106.826 208.373 1
8 9 -13 -36.7264 262.301 4
-13 -9 8 506.446 403.058 2
8 -9 13 18.8259 270.088 1
13 8 -9 145.034 253.994 1
13 -8 9 -207.456 321.246 1
-8 -13 9 668.33 453.089 1
-8 13 -9 203.721 398.673 2
-9 8 -13 -44.0926 279.015 2
-13 9 -8 136.994 217.835 2
-13 -8 -9 681.563 462.904 4
9 13 -8 338.836 303.488 2
9 8 13 656.016 554.688 3
-13 -9 8 24.5631 241.499 1
-13 8 9 37.3988 70.3934 3
9 -13 8 179.853 351.862 1
-13 -8 -9 213.315 234.902 1
-9 -8 13 -98.3992 412.407 1
10 13 9 1886.12 712.787 3
13 -9 -10 1560.63 453.367 1
-13 -10 -9 1977.66 653.919 1
-9 -13 -10 2185.89 746.598 1
-13 9 -10 2532.89 861.98 2
-13 10 9 1555.72 848.389 2
-10 -13 9 1779.07 721.511 1
10 -13 -9 2023.99 593.826 1
9 -13 10 1697.36 725.049 1
-13 -9 10 2205.56 682.067 1
-13 -9 10 2211.2 682.578 2
-10 13 -9 1822.3 803.525 2
10 9 -13 1141.15 414.739 4
9 13 -10 1732.25 691.973 2
10 -9 13 2509.02 818.781 1
-9 -10 13 1578.34 679.669 1
-10 -9 -13 1246.55 534.167 4
-13 -10 -9 510.406 269.91 4
-9 10 -13 2200.31 773.712 2
13 10 -9 2477.12 687.468 2
9 10 13 2097.8 885.36 3
13 9 10 3022.05 1048.54 3
13 -10 9 2438.57 720.399 1
10 13 7 -638.938 506.313 3
-7 -13 -10 686.455 434.688 1
-13 -10 -7 532.94 377.321 1
7 -13 10 406.944 364.008 1
-13 10 7 728.014 611.752 2
-7 -10 13 890.744 549.213 1
10 -13 -7 626.981 337.223 1
-10 -13 7 857.185 514.732 1
-10 13 -7 533.19 364.803 2
13 -10 7 420.179 298.025 1
-13 -7 10 597.07 241.363 2
10 7 -13 915.346 449.145 4
-13 -7 10 608.329 354.278 1
7 13 -10 188.013 246.832 2
13 10 -7 778.58 331.668 2
-10 -7 -13 282.882 368.148 4
-13 -10 -7 573.81 431.259 4
-13 -7 10 203.036 371.269 4
-7 10 -13 274.196 301.275 2
10 -7 13 444.452 359.359 1
-13 7 -10 1057.72 505.602 2
7 10 13 -178.941 566.095 3
13 7 10 365.365 415.229 3
-5 13 10 1122.03 329.346 3
5 -13 10 1336.5 574.883 1
10 13 5 1112.44 551.748 3
-5 -13 -10 1263.57 552.889 1
-10 -13 5 1392.96 606.75 1
13 -10 5 2017.18 608.903 1
10 13 5 948.892 454.988 2
-13 10 5 1413.01 682.259 2
-13 5 -10 1208.56 459.727 1
-13 -10 -5 998.224 469.089 1
13 10 -5 1788.08 592.897 2
-10 -13 5 1653.83 746.254 2
-13 -5 10 934.1 419.002 1
-13 -5 10 924.749 383.507 2
-10 -5 -13 1649.45 633.633 4
10 -13 -5 981.451 396.317 1
13 10 -5 1128.12 500.841 1
-10 13 -5 1556.23 769.398 2
-5 -10 13 1377.31 552.2 1
5 13 -10 1380.44 639.911 2
-13 -5 10 612.827 407.361 4
-13 -10 -5 721.142 438.006 4
-5 10 -13 1234.09 586.668 2
5 10 13 1166.78 620.298 3
13 5 10 1670.54 677.07 3
-13 10 3 1822.58 454.718 1
-13 -3 10 2223.13 604.969 1
-3 13 10 1585.46 425.64 3
-3 -13 -10 1610.62 576.71 1
13 -10 3 1833.82 534.553 1
-10 -13 3 1468.83 703.595 2
10 13 3 1126.84 513.638 2
-13 -10 -3 595.674 484.049 4
13 -3 -10 1935.26 456.596 1
-13 10 3 1814.92 739.75 2
-10 -3 -13 1382.6 563.01 4
13 10 -3 1711.37 548.106 1
3 13 -10 2099.57 722.577 2
-13 -10 -3 1739.12 573.451 1
-10 13 -3 2136.17 888.352 2
13 10 -3 1797.6 609.325 2
10 -13 -3 1294.95 446.666 1
-3 -10 13 1904.01 668.228 1
-13 -3 10 2027.25 746.605 4
3 10 13 1658.75 724.768 4
-13 -3 10 1838.14 510.09 2
-3 10 -13 1769.98 655.765 2
-13 3 -10 1811.86 532.422 1
13 3 10 2596.97 951.095 3
3 10 13 1294.82 531.201 3
-10 -13 3 1573.82 589.95 1
3 -13 10 2642.89 810.534 1
-1 13 10 963.652 356.476 3
-1 -13 -10 406.267 376.29 1
-10 -13 1 385.182 467.637 2
-13 10 1 162.325 150.66 1
13 10 -1 265.95 249.832 1
13 -10 1 -539.849 480.004 2
-13 -1 10 817.884 518.166 4
10 13 1 -138.381 264.532 2
13 -10 1 224.094 200.523 1
-13 10 1 -303.189 337.911 2
-10 13 -1 128.107 183.579 1
-10 13 -1 -141.97 449.81 2
13 10 -1 46.943 240.658 2
-13 -10 -1 413.748 313.761 1
-10 1 13 1369.78 514.324 4
-1 -10 13 212.759 313.145 1
1 13 -10 626.434 490.543 2
-10 -13 1 251.303 289.567 1
10 -13 -1 430.784 395.694 1
-13 -10 -1 -23.4247 308.884 4
-1 10 -13 169.302 269.25 2
-13 1 -10 608.626 339.924 1
10 1 -13 297.182 246.456 1
-10 -1 -13 -86.2367 261.216 4
13 1 10 70.1084 261.21 2
13 1 10 142.18 362.861 3
13 -1 -10 256.538 201.014 1
1 10 13 1053.52 445.526 3
1 -13 10 277.658 256.372 1
1 13 10 -253.854 393.363 3
10 -13 1 498.127 323.747 1
13 10 1 164.033 162.479 1
13 -1 10 237.404 135.036 2
1 -13 -10 121.492 183.162 1
13 1 -10 263.543 196.37 1
13 -10 -1 87.8458 339.662 2
10 -1 -13 225.679 195.144 1
-10 13 1 308.046 210.059 1
-1 10 13 313.733 265.638 3
-13 -10 1 -188.166 390.769 4
13 10 1 942.096 460.499 2
-10 13 1 236.229 449.696 2
-13 10 -1 314.695 181.188 1
10 13 -1 -110.737 355.501 2
1 -10 13 488.85 297.583 1
-13 10 -1 31.4746 288.757 2
13 -10 -1 539.665 254.295 3
-10 -13 -1 335.75 315.555 1
-13 -1 -10 567.549 352.465 4
-10 1 -13 209.4 343.548 4
-10 -1 13 1121.93 404.015 4
-1 13 -10 244.061 316.255 2
-13 -10 1 245.97 262.634 1
1 10 -13 50.2578 175.432 2
-1 -13 10 237.196 406.124 1
13 -10 -1 543.889 253.877 1
3 13 10 655.649 398.904 3
-13 -10 3 1264.7 531.24 1
-13 10 -3 1864.69 533.582 1
13 10 3 998.655 452.753 3
3 -13 -10 1347.64 527.443 1
-10 13 3 2412.79 601.296 1
-10 -3 13 1835.37 655.635 1
-13 -10 3 2596.47 715.297 2
13 10 3 1395.63 573.876 2
10 -13 3 1547 521.496 1
-10 13 3 1249.37 713.736 2
-10 -13 -3 1647.29 702.909 1
10 13 -3 1802.53 700.569 2
-13 10 -3 1766.99 696.612 2
10 -3 -13 1405.18 442.508 1
13 3 -10 1710.19 487.371 1
-13 -3 -10 996.971 548.024 4
13 -10 -3 1781.55 437.793 1
-3 13 -10 2473.68 855.291 2
13 -3 10 1804.54 610.9 2
-13 -10 3 1043.11 541.242 4
-3 -13 10 2085.63 713.656 1
3 10 -13 1300.64 602.297 2
3 -10 13 1411.1 576.037 1
-3 10 13 1369.72 409.539 3
-10 -3 13 1843.01 589.901 2
-10 -3 13 662.011 327.16 4
13 -10 -3 1253.9 267.37 3
5 13 10 824.192 524.119 3
13 10 5 1097.76 534.982 3
5 -13 -10 1345.05 515.195 1
-10 -5 13 1620.29 557.822 1
13 10 5 642.829 402.691 2
-10 13 5 850.019 612.752 2
-13 -10 5 1697.11 596.595 2
-13 -10 5 1522.25 581.453 1
-10 -13 -5 1228.35 563.482 1
13 5 -10 1637.15 553.958 1
13 -10 -5 1342.95 402.714 1
10 -13 5 1108.14 485.275 1
10 13 -5 1505.91 688.397 2
-13 10 -5 1207.82 549.341 2
10 5 13 1021.95 652.503 3
-13 -5 -10 1573.4 768.709 4
-5 13 -10 1138.56 524.416 2
-5 -13 10 1255.51 437.201 1
5 10 -13 1614.34 637.741 2
-5 10 13 747.272 320.691 3
-13 10 -5 1594.41 498.946 1
5 -10 13 1829.95 732.533 1
7 13 10 67.9342 263.626 3
13 10 7 432.471 521.114 3
-13 10 -7 278.879 272.658 1
7 -13 -10 374.385 282.508 1
13 7 -10 757.906 423.915 1
7 -10 13 544.068 445.695 1
-10 13 7 433.216 293.805 2
-10 -13 -7 248.226 244.769 1
13 -10 -7 409.252 275.353 1
-10 -7 13 700.665 450.988 1
-13 -10 7 401.313 426.175 2
-7 -13 10 576.48 409.665 1
-13 -7 -10 650.793 426.908 4
13 7 -10 324.467 334.679 4
13 -7 10 165.714 215.671 1
-13 -10 7 404.315 249.503 1
10 13 -7 713.431 441.742 2
-13 10 -7 934.53 499.56 2
-7 13 -10 118.9 235.826 2
7 10 -13 495.969 439.057 4
7 10 -13 966.428 519.899 2
10 -13 7 597.107 396.569 1
-10 7 -13 410.377 241.758 2
10 7 13 111.151 487.752 3
-13 -9 -10 1966.37 582.642 1
13 10 9 2449.5 876.135 3
9 13 10 1537.03 696.986 3
-10 -13 -9 1989.15 713.733 1
13 -10 -9 1264.72 413.512 1
-13 10 -9 1891.57 746.172 2
-10 13 9 1080.07 744.732 2
9 -13 -10 1848.34 650.454 1
10 -13 9 2338.36 776.17 1
9 -10 13 2353.91 830.121 1
-10 -9 13 1920.26 774.455 1
-13 -10 9 2249.28 660.309 2
9 10 -13 2312.32 699.331 2
13 -9 10 2031.27 671.091 1
-9 13 -10 2208 844.813 2
9 10 -13 807.617 335.549 4
-13 -9 -10 951.747 546.4 4
-9 -13 10 1919.54 654.767 1
-10 9 -13 2335.78 803.694 2
10 13 -9 2537.19 810.285 2
10 9 13 1703.38 712.299 3
-13 -10 9 1836.41 630.667 1
11 13 10 704.797 596.729 3
13 -10 -11 472.574 305.709 1
-13 -11 -10 885.475 454.598 1
-10 -13 -11 559.975 399.722 1
11 -13 -10 481.572 342.947 1
-13 -10 11 1327.38 593.153 1
-10 -11 13 984.593 474.172 1
10 -13 11 969.147 545.394 1
11 -10 13 337.174 334.545 1
11 10 -13 -2.50491 516.597 4
-11 13 -10 890.725 488.37 2
10 13 -11 880.666 528.046 2
-13 10 -11 1432.34 667.512 2
-13 -11 -10 343.672 370.091 4
-11 -10 -13 130.436 279.977 4
-11 -13 10 988.693 536.049 1
13 11 -10 1069.03 503.687 2
-10 11 -13 409.781 440.538 2
10 11 13 956.22 686.309 3
13 -11 10 1028.86 569.385 1
13 10 11 737.799 633.872 3
10 -11 -13 520.449 283.312 1
-11 13 -8 957.509 611.725 2
11 13 8 754.991 455.259 3
-8 -13 -11 995.452 553.403 1
-13 -11 -8 619.535 408.075 1
-13 11 8 698.031 521.301 2
11 -13 -8 594.588 343.789 1
11 -8 13 1182.98 542.308 1
8 -13 11 903.67 511.908 1
-8 -11 13 1352.16 640.538 1
-11 -8 -13 174.635 234.147 4
-11 -13 8 1022.63 535.204 1
-13 -8 11 1094.84 435.697 2
13 -11 8 833.244 477.467 1
11 8 -13 690.258 480.576 4
-13 -8 11 537.668 281.583 1
8 13 -11 1478.67 646.854 2
13 11 -8 1075.09 497.73 2
-8 11 -13 1287.42 609.073 2
-13 -11 -8 679.662 537.058 4
-13 8 -11 1488.37 636.698 2
8 11 13 910.714 659.383 3
13 8 11 1281.97 767.959 3
-6 13 11 756.436 243.982 3
11 13 6 682.645 567.71 3
11 -6 13 706.698 437.29 1
11 13 6 943.602 446.876 2
-6 -13 -11 881.125 432.71 1
-13 11 6 363.414 357.848 2
-13 -11 -6 943.717 506.369 1
13 -11 6 1290.19 482.6 1
-13 -6 11 851.153 438.605 1
6 -13 11 719.247 425.514 1
-11 -13 6 808.947 485.164 1
13 6 11 262.808 370.306 3
-11 -13 6 1148.71 584.272 2
11 -13 -6 298.874 242.228 1
-6 -11 13 901.674 483.505 1
-13 6 -11 858.714 515.836 2
11 6 -13 183.012 232.801 4
-11 13 -6 523.747 526.038 2
-13 -6 11 1183.03 445.92 2
13 11 -6 914.64 464.763 2
6 13 -11 837.652 506.261 2
-11 -6 -13 -299.397 366.336 4
-13 -6 11 176.263 303.951 4
-6 11 -13 313.37 366.151 2
-13 -11 -6 29.9775 309.034 4
6 11 13 983.546 470.443 3
-4 13 11 408.161 243.608 3
-4 -13 -11 443.204 373.356 1
-11 -13 4 508.669 398.245 1
4 -13 11 841.937 509.622 1
11 13 4 -89.3298 245.964 2
-11 -13 4 1520.05 772.051 2
-13 11 4 267.219 351.281 2
-13 -11 -4 392.684 327.9 1
-13 -4 11 782.627 404.717 1
13 11 -4 603.88 384.913 2
-4 -11 13 417.04 407.363 1
-11 13 -4 600.209 485.994 2
11 -13 -4 641.251 420.376 1
4 13 -11 871.162 546.864 2
-11 -4 -13 135.249 278.871 4
-13 -4 11 921.993 490.707 4
-13 -4 11 335.872 331.695 2
-4 11 -13 571.652 400.597 2
-13 -11 -4 276.07 412.619 4
13 -11 4 326.508 257.372 1
13 4 11 866.639 536.802 3
13 -4 -11 737.187 306.167 1
4 11 13 895.875 453.124 3
-2 -13 -11 628.123 408.189 1
2 -13 11 -84.0458 379.223 1
-13 11 2 831.689 366.847 1
-11 -13 2 1754.54 754.745 2
-13 -2 11 538.711 355.624 4
13 11 -2 729.542 395.677 1
11 13 2 324.279 222.483 2
-13 2 -11 159.458 207.182 1
-13 11 2 420.85 361.813 2
13 -11 2 1114.96 498.355 1
11 2 -13 754.878 348.404 1
-11 13 -2 17.4677 296.761 2
-11 13 -2 351.24 347.485 1
13 -2 -11 338.711 156.601 1
-13 -11 -2 393.482 322.543 1
13 11 -2 835.387 444.945 2
-2 -11 13 111.133 330.657 1
-11 -2 -13 -570.689 504.71 4
11 -13 -2 453.215 251.484 1
2 13 -11 670.604 460.431 2
-2 11 -13 828.829 482.119 2
-13 -11 -2 1762.65 701.692 4
-11 -13 2 292.236 323.782 1
13 2 11 989.172 732.904 3
-13 -2 11 612.571 350.558 2
2 11 13 445.717 295.282 3
-2 13 11 371.585 218.958 3
0 -13 -11 888.349 470.229 1
0 -13 11 368.027 248.685 1
11 0 -13 613.476 327.744 1
13 -11 0 392.326 288.626 1
13 11 0 457.8 321.246 1
-13 11 0 666.774 370.4 1
-11 13 0 336.449 189.617 1
11 13 0 387.481 322.058 2
13 11 0 452.657 320.534 2
-11 13 0 325.805 255.381 2
-13 11 0 -377.684 417.24 2
13 0 -11 604.847 281.299 1
0 -11 13 868.79 561.044 1
-13 0 -11 100.284 404.045 4
-11 0 -13 166.459 327.237 4
-11 0 13 478.855 338.05 4
-11 -13 0 585.504 403.948 1
0 13 -11 816.181 536.582 2
-13 0 -11 680.06 369.529 1
0 11 -13 860.158 484.569 2
-13 -11 0 281.982 436.354 4
13 0 11 280.733 220.449 2
-13 -11 0 393.289 358.164 1
0 11 13 918.389 375.07 3
-13 0 11 985.522 547.715 4
11 -13 0 322.353 231.17 1
0 13 11 783.799 392.953 3
-2 -13 11 884.699 441.829 1
2 -13 -11 54.3256 201.098 1
11 -2 -13 839.126 406.793 1
-13 -11 2 376.782 193.321 2
-11 13 2 491.012 389.038 1
11 -13 2 519.903 298.728 1
13 11 2 1106.17 470.726 2
-11 13 2 55.0594 333.597 2
11 13 -2 1180.7 598.839 2
-13 11 -2 657.436 340.907 1
-13 11 -2 304.695 269.116 2
-11 -13 -2 734.752 446.132 1
-13 -2 -11 269.162 368.255 4
-2 13 -11 849.981 493.653 2
-11 -2 13 875.396 396.805 4
2 11 -13 727.331 498.486 2
13 -11 -2 888.421 373.013 1
13 -11 -2 683.556 258.883 3
-13 -11 2 355.193 367.458 1
-2 11 13 81.8129 251.133 3
2 -11 13 1186.62 543.421 1
13 2 -11 537.523 288.351 1
2 13 11 658.145 360.234 3
-11 13 4 512.966 354.312 1
4 -13 -11 544.123 352.948 1
13 11 4 176.109 365.832 3
-11 -4 13 434.731 375.824 1
-13 -11 4 441.259 326.905 1
13 11 4 28.1186 200.404 2
-13 11 -4 218.145 227.709 1
-13 -11 4 359.202 254.516 2
4 13 11 378.189 348.248 3
-11 -13 -4 516.399 264.537 1
11 -13 4 495.025 384.565 1
11 13 -4 27.3863 226.431 2
-13 11 -4 752.475 424.093 2
13 -11 -4 396.035 287.662 1
13 4 -11 695.043 322.475 1
-13 -4 -11 1595.83 707.387 4
4 -11 13 287.879 212.216 1
-11 -4 13 406.59 264.78 4
-4 13 -11 696.318 525.035 2
-11 -4 13 236.478 284.681 2
4 11 -13 305.702 352.28 2
-11 13 4 581.032 455.422 2
11 4 13 1693.5 770.093 3
-4 11 13 -232.747 279.588 3
-4 -13 11 394.036 250.567 1
6 13 11 498.529 493.028 3
13 11 6 559.7 496.333 3
6 -13 -11 701.773 398.5 1
-11 -6 13 1182.62 464.95 1
11 13 -6 502.072 422.981 2
-11 13 6 -31.3908 621.473 2
-11 -13 -6 888.75 480.3 1
11 6 13 1410.72 701.407 3
-6 13 -11 362.26 270.079 2
-13 -11 6 385.435 372.288 2
13 6 -11 711.146 417.255 1
-13 11 -6 1208.82 649.389 2
13 -6 11 867.711 450.657 1
13 -11 -6 675.356 301.073 1
-13 -11 6 639.463 453.942 1
-13 -6 -11 613.703 471.711 4
11 -13 6 902.564 510.648 1
6 11 -13 365.302 372.221 2
-6 11 13 -123.322 236.828 3
6 -11 13 265.22 284.654 1
-13 11 -6 1206.88 445.171 1
-6 -13 11 658.462 592.907 1
8 13 11 1254.5 660.276 3
8 -11 13 1092.94 663.293 1
13 11 8 1007.04 599.541 3
-11 -8 13 84.9122 203.51 1
8 -13 -11 875.497 404.253 1
11 -13 8 1430.04 635.003 1
-11 13 8 614.255 520.058 2
-11 -13 -8 718.098 454.352 1
13 -11 -8 717.458 327.373 1
13 -8 11 1196.05 570.372 1
-13 -8 -11 1501.29 627.135 4
-13 -11 8 355.167 284.164 2
-13 11 -8 918.093 564.823 2
11 13 -8 1029.92 492.218 2
-13 -11 8 689.269 475.295 1
-8 13 -11 966.224 588.567 2
8 11 -13 784.465 574.507 4
8 11 -13 492.302 403.095 2
-8 11 13 251.679 174.134 3
-11 8 -13 1126.57 560.381 2
11 8 13 64.4428 398.554 3
-8 -13 11 262.748 281.082 1
13 11 10 900.061 537.064 3
-13 -10 -11 748.93 482.762 1
10 13 11 1402.93 630.525 3
-13 -11 10 1750.6 697.295 1
-11 -13 -10 343.36 301.983 1
10 -13 -11 959.593 458.143 1
-11 13 10 3.48448 607.331 2
13 -11 -10 811.192 370.9 1
10 -11 13 1127.63 624.733 1
13 -10 11 1169.26 482.199 1
11 -13 10 1533.99 654.808 1
-11 -10 13 284.585 210.902 1
-13 11 -10 808.165 538.987 2
-10 13 -11 1484.21 736.72 2
11 13 -10 642.78 481.563 2
-13 -10 -11 977.653 510.98 4
-11 10 -13 777.914 470.71 2
-10 11 13 467.712 203.053 3
10 11 -13 1077.8 540.539 2
11 10 13 469.589 632.276 3
-10 -13 11 1033.45 583.463 1
9 -12 -13 1954.34 667.281 1
12 13 9 1984.29 742.652 3
-13 -12 -9 2110.69 717.784 1
12 -9 13 2174.62 773.973 1
-13 12 9 609.917 469.229 2
-9 -13 -12 1791.34 655.805 1
9 13 -12 2759.57 908.603 2
12 -13 -9 1744.48 570.025 1
-12 13 -9 1807.16 785.893 2
-9 -12 13 2551.34 930.641 1
9 -13 12 2531.39 933.133 1
13 -12 9 2215.92 714.594 1
12 9 -13 2168.47 827.149 4
-13 -9 12 2950.93 867.595 1
-12 -13 9 2130.85 823.703 1
13 12 -9 2874.53 814.914 2
-9 12 -13 3011.94 950.546 2
-12 -9 -13 814.16 559.032 4
-13 9 -12 2221.38 709.442 2
13 9 12 1359.68 872.606 3
9 12 13 1840.24 749.762 3
-7 13 12 -160.277 162.621 3
7 -12 -13 565.428 246.042 1
-7 -13 -12 723.192 442.517 1
12 13 7 511.155 445.389 3
12 13 7 1019 539.642 2
-13 -7 12 493.157 408.966 1
-13 12 7 483.708 474.32 2
-13 -12 -7 486.133 375.507 1
13 -12 7 862.603 421.395 1
12 -13 -7 618.846 371.611 1
-7 -12 13 1154.57 614.609 1
12 7 -13 935.213 439.871 4
-12 -13 7 372.718 212.324 1
7 -13 12 721.26 476.126 1
13 12 -7 1041.07 493.197 2
-12 13 -7 999.622 553.159 2
-13 -7 12 556.006 496.688 2
-7 12 -13 26.9617 369.828 2
-12 -7 -13 450.544 356.795 4
7 13 -12 1091 559.608 2
12 -7 13 826.78 440.827 1
-13 -12 -7 541.598 363.55 4
-13 7 -12 870.088 491.863 2
13 7 12 1410.52 818.194 3
7 12 13 1234.92 528.872 3
-13 -5 12 753.146 451.729 1
-5 -13 -12 328.378 344.823 1
12 13 5 544.336 335.194 3
12 13 5 1042.07 605.545 2
-12 -13 5 538.386 491.187 1
-13 12 5 439.438 446.374 2
-12 -13 5 1144.81 642.148 2
-13 -12 -5 193.403 151.225 1
-5 -12 13 436.275 533.998 1
5 -13 12 451.582 380.867 1
12 -13 -5 461.722 332.946 1
13 12 -5 1107.55 538.327 2
-12 13 -5 100.952 281.897 2
-12 -5 -13 762.006 559.082 4
-13 -5 12 308.254 182.495 2
5 13 -12 588.285 425.557 2
-13 -5 12 228.251 334.705 4
-5 12 -13 314.315 358.283 2
-13 -12 -5 604.037 483.324 4
13 -12 5 824.733 476.746 1
13 5 12 449.108 416.506 3
5 12 13 368.406 360.77 3
-5 13 12 457.94 224.401 3
-3 -13 -12 1921.48 697.3 1
-13 12 3 2221.61 614.301 1
13 3 12 1691.25 611.547 3
13 -3 -12 2055.08 515.147 1
-12 -13 3 2252.93 799.098 2
12 13 3 1999.9 756.797 2
3 -13 12 3591.6 965.753 1
-13 12 3 2239.84 798.155 2
-3 -12 13 3114.7 883.718 1
-13 -12 -3 1761.54 679.986 1
-12 13 -3 2978.68 1061.92 2
-13 -3 12 1137.53 531.518 4
13 -12 3 2532.61 671.866 1
13 12 -3 2154.55 697.261 2
-12 13 -3 2461.99 654.312 1
12 -13 -3 2809.58 703.239 1
-12 -3 -13 1900.23 756.91 4
3 13 -12 2193.3 778.399 2
-3 12 -13 2507.82 857.469 2
-13 -3 12 2824.95 701.406 2
3 12 13 2045.73 718.495 3
-3 13 12 1977.91 539.928 3
-12 -13 3 2514.15 800.685 1
-1 -13 -12 2632.17 787.397 1
13 -1 -12 2105.54 509.214 1
-12 -1 -13 3101.36 911.917 4
-13 12 1 2556.47 608.575 1
13 -12 1 2307.11 665.981 1
1 -13 12 2489.09 788.767 1
12 13 1 2423.96 754.41 2
-12 13 -1 2482.96 699.391 1
-13 12 1 2384.75 878.198 2
13 12 -1 2271.62 719.857 2
-12 13 -1 1573.4 737.644 2
-1 -12 13 2562.02 861.444 1
-13 1 -12 3306.68 894.747 4
12 1 -13 1954.76 539.213 1
-13 -12 -1 2138.77 659.556 1
-12 -13 1 2767.87 786.019 1
-12 1 13 -497.636 466.272 4
-13 -1 12 1107.66 555.44 4
1 13 -12 2878.16 948.959 2
-1 12 -13 2349.96 826.917 2
13 1 12 3144.71 993.677 3
12 -13 -1 2880.93 683.417 1
1 12 13 1782.21 562.823 3
-1 13 12 1310.34 515.926 3
1 -13 -12 2181.32 692.105 1
12 -13 1 2424.16 647.554 1
-1 -13 12 2025.33 746.091 1
-12 13 1 2818.01 711.102 1
12 -1 -13 1780.03 516.057 1
13 12 1 2681.58 768.01 2
13 1 -12 2337.86 576.845 1
-13 12 -1 2703.49 666.338 1
-12 13 1 1759.56 784.568 2
12 13 -1 1627.95 661.272 2
-13 12 -1 2673.05 913.881 2
1 -12 13 2400.25 755.781 1
-12 -13 -1 2545.84 802.871 1
-13 1 12 28.2168 352.011 4
-12 1 -13 1368.47 572.252 4
-1 13 -12 3046.29 923.515 2
-13 -1 -12 1640.7 760.238 4
-12 -1 13 672.29 384.531 4
-13 -12 1 1970.07 613.947 1
1 12 -13 2796.14 867.984 2
-1 12 13 1744.37 499.604 3
13 -12 -1 2762.92 689.417 1
1 13 12 1612.85 595.553 3
-13 -12 3 2375.64 764.302 1
3 -13 -12 2586.62 684.481 1
-12 -3 13 959.602 410.311 4
-12 13 3 3161.03 754.32 1
-3 -13 12 1927.52 680.16 1
-13 -12 3 2540.77 759.899 2
13 12 3 1116.81 459.4 2
-12 13 3 2138.16 888.415 2
12 -13 3 3199.43 775.224 1
-12 -13 -3 2357.55 752.548 1
12 13 -3 1992.31 730.681 2
-13 12 -3 2053.89 843.316 2
-13 12 -3 2663.29 684.384 1
12 -3 -13 2434.63 598.792 1
3 -12 13 2485.37 832.373 1
-13 -3 -12 2775.59 859.444 4
13 -12 -3 2341.83 579.474 1
-3 13 -12 2708.84 862.47 2
3 12 -13 2262.76 778.766 2
-12 -3 13 2474.38 726.179 2
12 3 13 2079.83 785.016 3
13 3 -12 2039.67 616.083 1
13 -12 -3 1440.35 290.815 3
-3 12 13 1754.41 522.969 3
3 13 12 1221.03 597.813 3
5 -13 -12 349.408 302.814 1
13 12 5 368.248 316.178 3
-5 -13 12 541.084 531.056 1
13 12 5 -240.503 410.604 2
-13 -12 5 951.258 539.549 1
-12 13 5 677.926 528.223 2
-13 -12 5 389.804 367.458 2
-12 -5 13 242.853 281.671 1
-12 -13 -5 382.859 334.875 1
13 -12 -5 527.071 314.454 1
12 -13 5 377.685 275.396 1
13 5 -12 655.307 378.221 1
5 -12 13 380.387 281.525 1
-13 12 -5 -172.78 318.453 2
12 13 -5 942.083 517.609 2
-13 -5 -12 700.769 429.116 4
-5 13 -12 716.441 453.591 2
-13 12 -5 711.835 409.599 1
-12 -5 13 521.378 334 2
-12 -5 13 57.0758 296.062 4
5 12 -13 196.27 333.852 2
12 5 13 371.206 393.926 3
-5 12 13 490.54 282.063 3
5 13 12 1086.61 542.512 3
12 -13 7 568.323 332.163 1
13 12 7 724.13 389.398 3
7 -13 -12 702.486 414.645 1
-7 -13 12 888.587 537.787 1
-12 13 7 323.252 260.045 2
-12 -13 -7 275.357 239.999 1
-13 -12 7 1015.7 550.578 2
13 -12 -7 464.672 293.832 1
-12 -7 13 850.335 457.059 1
-13 -12 7 602.677 513.787 1
13 7 -12 355.227 254.595 4
-13 12 -7 172.891 266.004 2
12 13 -7 1182.26 558.432 2
-7 13 -12 40.3573 236.202 2
-13 -7 -12 -245.427 373.493 4
7 -12 13 417.075 376.415 1
13 -7 12 584.396 340.819 1
7 12 -13 852.398 588.507 4
7 12 -13 598.103 445.096 2
-12 7 -13 962.265 511.656 2
-7 12 13 563.872 229.747 3
12 7 13 277.035 494.547 3
7 13 12 1249.76 708.233 3
9 13 12 1709 818.101 3
13 12 9 2214.93 845.311 3
13 -9 12 2925.7 853.821 1
9 -13 -12 1313.08 491.412 1
-9 -13 12 2762.88 863.043 1
-12 -13 -9 1928.95 683.732 1
-12 13 9 1117.14 758.459 2
13 -12 -9 1926.82 538.833 1
12 -13 9 2834.71 811.747 1
12 13 -9 2711.96 877.764 2
-9 13 -12 2141.51 905.736 2
-13 -9 -12 376.112 446.34 4
-13 -12 9 2260.49 780.527 1
9 12 -13 3182.83 926.338 2
-12 9 -13 2354.18 800.106 2
-13 12 -9 1809.29 847.883 2
-12 -9 13 2159.63 782.725 1
9 -12 13 1597.1 738.856 1
-9 12 13 1229.2 323.972 3
12 9 13 2692.21 976.411 3
-9 -12 -13 1448.56 628.209 1
0 -13 13 21555.7 2455.22 1
13 13 0 21206.2 2262.24 2
-13 13 0 18331.6 2381.81 2
-13 -13 0 20699.7 2165.98 1
13 0 -13 20372.5 1759.23 1
0 13 -13 20520.6 2390.09 2
13 -13 0 22674.6 2013.5 1
-13 0 13 9808.16 1510.12 4
0 13 13 13372.2 1531.19 3
0 -13 -13 17944.8 1965.75 1
-13 13 0 23126.6 2026.67 1
2 -13 -13 1643.21 601.65 1
-13 13 2 1668.62 524.507 1
-13 -13 2 1724.3 742.201 2
13 2 -13 1217.88 448.767 1
-2 -13 13 2078.01 700.78 1
13 13 2 1782.36 643.836 2
13 -13 2 1998.98 602.92 1
-13 13 2 1065.26 678.369 2
-2 -13 -13 1141.15 503.351 1
2 -13 13 2021.38 731.101 1
-13 13 -2 2289.84 668.258 1
13 13 -2 2037.61 687.014 2
-13 13 -2 1387.73 765.743 2
13 -2 -13 1550.77 478.907 1
-13 -13 -2 1350.04 576.662 1
-13 -2 -13 1913.09 780.105 4
-2 13 -13 1387.47 649.315 2
2 13 -13 2141.62 859.608 2
13 -13 -2 1681.58 537.095 1
13 2 13 -0.7338 374.253 3
-13 -13 2 1807.58 667.707 1
-13 -2 13 1361.85 554.346 2
-13 -2 13 591.223 490.563 4
-2 13 13 477.403 295.518 3
2 13 13 1265.01 566.646 3
-13 13 4 431.331 333.311 1
-4 -13 -13 -125.939 283.671 1
4 -13 -13 -8.00079 255.904 1
4 13 -13 334.783 421.279 2
13 4 13 804.19 354.488 3
-13 -13 4 -61.7916 380.404 1
-13 -13 4 251.731 304.789 2
13 13 4 -149.332 276.458 2
-4 -13 13 749.323 577.42 1
-13 13 4 -98.493 472.99 2
13 -4 -13 63.5485 215.305 1
-13 -4 -13 344.023 328.316 4
-13 -13 -4 365.164 382.616 1
4 -13 13 339.119 378.63 1
-13 13 -4 518.061 538.92 2
-13 -4 13 885.575 469.584 1
13 13 -4 869.519 534.69 2
13 -13 4 437.421 370.251 1
-13 -4 13 281.98 360.586 4
-4 13 -13 422.603 354.054 2
-13 -4 13 341.017 274.581 2
13 -13 -4 119.216 138.088 1
-4 13 13 114.062 245.042 3
4 13 13 -168.393 283.285 3
-6 -13 -13 1754.06 665.654 1
6 -13 -13 2259.86 726.798 1
13 13 6 1592.7 632.068 3
13 13 6 741.318 560.401 2
-13 13 6 1746.94 972.566 2
-6 -13 13 1632.37 659.442 1
-13 -13 6 1860.72 708.606 2
-13 -13 -6 1161.08 547.399 1
-13 -13 6 1669.35 747.593 1
13 -13 -6 2078.86 561.167 1
13 -13 6 2028.63 713.01 1
13 6 13 1497.93 738.542 3
6 -13 13 1887.71 731.967 1
-13 13 -6 2387.28 893.833 2
13 13 -6 2136.22 733.985 2
-13 -6 -13 779.008 586.067 4
-6 13 -13 2145.15 856.411 2
-13 -6 13 2781.13 775.594 1
6 13 -13 1503.83 698.283 2
-6 13 13 1457.22 442.637 3
6 13 13 2042.64 830.604 3
8 -13 -13 145.119 162.765 1
13 13 8 199.698 373.188 3
-13 -8 13 -13.8992 324.883 1
13 -8 13 165.817 345.52 1
-13 13 8 484.041 583.007 2
-13 -13 -8 8.82242 285.962 1
-8 -13 13 -196.756 372.628 1
13 -13 8 250.346 350.114 1
13 -13 -8 424.462 306.822 1
-13 -13 8 27.3219 381.467 1
13 8 -13 909.215 427.876 4
-13 13 -8 -303.923 351.542 2
8 -13 13 403.825 441.587 1
13 13 -8 573.776 518.625 2
-8 13 -13 290.695 332.962 2
-13 -8 -13 1101.43 591.587 4
8 13 -13 418.628 475.681 2
-8 -13 -13 11.0395 261.678 1
-13 8 -13 16.9338 253.453 2
13 8 13 114.144 504.382 3
-8 13 13 -111.27 179.479 3
8 13 13 687.489 550.386 3
14 0 0 86.2787 259.905 3
0 14 0 -169.402 443.425 2
0 -14 0 137.878 177.651 1
-14 0 0 578.339 318.818 3
14 -1 1 1513.69 424.617 3
14 1 1 1768.46 523.468 3
14 -1 -1 1774.42 485.059 3
14 1 -1 1553.72 448.491 3
-1 1 -14 720.168 225.27 4
14 -1 1 1781.55 356.284 2
1 14 1 1557.94 626.488 2
-14 1 1 1366.24 242.517 2
-1 14 1 1022.63 563.88 2
1 14 -1 1120.63 609.829 2
-14 -1 -1 941.633 187.087 1
-1 14 -1 2002.45 762.023 2
-14 1 -1 1678.22 281.891 2
-1 -14 -1 2384.45 728.6 1
1 -14 -1 1645.47 588.673 1
-14 -1 -1 382.987 470.4 4
-14 -1 1 555.987 328.849 4
-1 -14 1 1515.62 559.089 1
-1 -1 -14 1254.23 294.31 4
1 -14 1 1972.05 603.218 1
-14 1 -1 1812.42 517.51 3
-14 -1 -1 1025.37 407.331 3
-14 1 1 1734.39 462.931 3
-14 -1 1 1546.82 478.86 3
14 -2 0 350.807 282.765 3
14 2 0 491.294 260.056 3
-14 -2 0 999.377 392.9 4
0 14 2 198.799 337.182 2
2 14 0 604.527 504.819 2
-2 14 0 -62.4381 327.573 2
14 0 2 203.105 132.749 2
0 14 -2 526.095 392.513 2
-14 0 -2 74.7167 61.4726 1
0 -14 -2 -197.128 310.787 1
0 2 -14 998.407 213.036 4
-14 2 0 -38.3086 116.453 2
-2 -14 0 158.564 233.984 1
2 -14 0 -87.9226 245.471 1
-2 0 -14 1386.6 339.297 4
-14 -2 0 131.317 93.0303 1
-14 2 0 444.699 203.888 3
-14 0 -2 568.577 359.344 3
0 -14 2 -378.507 346.183 1
-14 -2 0 -9.27793 291.122 3
-14 0 2 346.039 267.741 3
14 0 2 -6.58691 291.681 3
-14 0 -2 40.2795 55.4287 1
-14 2 -2 114.65 122.283 2
14 2 2 -228.55 376.368 3
14 -2 -2 -110.08 257.43 3
-2 -14 -2 -25.648 229.847 3
-14 -2 -2 145.892 123.748 1
2 14 2 175.965 233.594 2
-2 14 2 261.506 264.194 2
14 -2 2 403.259 241.123 2
-14 2 -2 71.9902 77.0573 1
-14 2 2 11.1341 105.611 2
2 14 -2 -329.408 418.999 2
-2 14 -2 383.205 242.004 2
-2 -14 -2 27.8446 285.491 1
2 -14 -2 7.97287 215.72 1
-14 -2 -2 639.993 502.927 4
-2 -2 -14 199.922 135.017 4
-2 -14 2 -258.438 342.068 1
-14 -2 2 63.2014 81.9286 1
2 -14 2 -50.5014 242.434 1
-14 -2 2 367.602 385.261 4
-14 2 2 675.647 280.621 3
14 -2 2 343.604 286.351 3
-14 -2 2 248.85 243.364 3
-14 -3 -1 4237.77 520.904 1
-3 -1 -14 3240.34 545.729 4
-14 -1 3 2056.21 758.097 4
3 -14 -1 4215.01 862.758 1
-1 -14 -3 3041.23 640.466 3
14 -3 1 4675.45 740.367 2
-14 3 1 4309.98 627.175 2
14 1 3 3666.62 504.57 2
-1 14 3 3914.81 1043.51 2
-14 1 -3 4147.18 482.417 1
3 14 1 4229.76 1119.02 2
-3 14 -1 4262.7 1096.55 2
1 -14 3 4964.7 987.515 1
1 14 -3 4314.93 1064.99 2
-1 -14 -3 4485.66 925.752 1
1 3 14 1792.62 428.224 4
-14 -3 -1 4491.99 1064.68 4
-3 -14 1 4669.21 989.959 1
-14 3 1 2042.13 467.362 3
14 -3 1 3811 756.446 3
14 1 3 4627.32 915.188 3
-14 -1 3 3506.78 736.735 3
14 -3 -1 3923.68 672.064 3
14 3 1 3551.2 714.188 3
1 -14 -3 2906.06 541.972 3
-14 1 3 3594.18 493.169 2
14 -1 3 5430.98 747.546 2
1 14 3 2729.12 917.905 2
-14 3 -1 4738.78 640.649 2
-3 14 1 3288.17 1004.55 2
3 14 -1 3969.48 1067.56 2
-14 -3 1 3929.07 479.385 1
-1 14 -3 4226.95 1096.88 2
1 -14 -3 4687.9 932.672 1
-3 -14 -1 4863.47 997.624 1
-14 -1 -3 4505.56 1134.54 4
-1 3 14 2120.94 363.665 4
-14 -3 1 2924.18 892.271 4
3 -14 1 4530.31 921.08 1
-14 -1 -3 2878.06 638.855 3
14 -1 3 3349.95 797.102 3
-14 1 3 3780.69 740.829 3
-1 -14 3 4387.55 953.278 1
-14 -3 1 3884.67 805.631 3
-3 1 -14 2861.4 537.371 4
14 3 3 -158.873 292.516 3
-14 -3 3 314.89 208.494 3
3 -14 3 54.516 236.045 1
-3 -14 -3 392.233 291.537 3
-14 -3 -3 -30.6978 83.8969 1
-14 -3 -3 937.204 556.65 4
3 14 3 558.97 394.23 2
14 3 -3 170.329 136.167 1
-3 14 3 -39.5229 257.099 2
-14 3 3 235.903 168.68 2
-3 -3 14 -120.431 176.165 1
14 -3 3 374.964 259.983 2
-14 3 -3 55.8579 59.2869 1
-3 -14 -3 129.132 290.427 1
3 14 -3 518.565 493.362 2
-3 14 -3 83.5714 278.747 2
3 -14 -3 69.4148 156.312 1
-14 -3 3 149.46 80.2801 1
-14 3 3 861.71 350.362 3
-14 -3 3 691.382 543.857 4
-3 3 14 47.2306 103.863 4
-14 3 -3 -77.735 136.88 2
-3 -3 -14 556.923 292.76 4
14 3 3 112.994 64.424 2
14 -3 3 898.802 529.677 3
-3 -14 3 -83.5706 220.051 1
-2 -14 -4 1435.02 432.883 3
-14 -2 4 1315.76 452.438 3
2 -14 4 1366.33 571.463 1
-14 -2 4 1260.28 271.738 1
14 4 -2 1101.87 260.547 1
-2 14 4 1141.45 682.836 2
-14 2 -4 1159.08 300.105 1
4 14 2 1363.92 654.914 2
14 -4 2 685.407 336.847 2
-14 -4 -2 1018.62 273.25 1
-14 4 2 1209.06 440.539 2
-2 -14 -4 1215.52 539.631 1
-4 14 -2 873.414 491.48 2
2 14 -4 654.765 551.894 2
-2 -4 14 1746.47 670.876 1
4 -14 -2 1398.9 511.539 1
2 4 14 1479.1 465.517 4
-14 -4 -2 596.898 454.935 4
-4 -2 -14 1212.47 380.571 4
14 2 4 856.592 244.23 2
-4 -14 2 1312.26 560.218 1
14 -4 2 1127.17 502.416 3
-14 -2 4 1650.5 620.569 4
14 2 4 677.77 280.171 3
-14 0 4 -15.9999 345.834 3
0 -14 -4 336.152 195.51 3
0 -14 4 448.189 297.142 1
14 4 0 122.408 209.557 3
-14 0 -4 454.285 192.479 1
-14 0 4 493.802 196.25 2
14 -4 0 504.313 333.35 2
0 14 4 212.549 279.327 2
4 14 0 316.047 324.321 2
-4 14 0 264.478 220.898 2
0 -14 -4 175.581 236.355 1
0 14 -4 397.262 497.629 2
-14 4 0 320.974 173.006 2
14 0 4 420.972 180.133 2
-4 0 -14 684.892 291.452 4
-14 0 4 -388.763 603.401 4
-14 0 -4 643.996 465.941 4
-4 -14 0 695.355 330.189 1
-14 -4 0 413.961 159.047 1
0 4 14 532.477 289.019 4
-14 -4 0 527.32 487.447 4
4 -14 0 460.521 285.282 1
0 -4 14 379.236 326.167 1
14 0 4 915.709 514.508 3
14 -4 0 700.306 301.677 3
2 -14 -4 1486.88 397.014 3
14 4 2 368.244 263.255 3
14 -4 -2 1000.22 314.537 3
-2 -14 4 1302.94 514.455 1
14 4 2 452.901 166.698 2
-14 2 4 1214.07 402.974 2
-14 -4 2 1126.65 304.661 1
2 14 4 1553.46 707.824 2
-4 14 2 931.858 588.006 2
2 -14 -4 1208.47 533.766 1
4 14 -2 731.986 449.735 2
14 2 -4 657.329 201.357 1
-2 14 -4 941.749 523.923 2
14 -2 4 1351.44 435.039 2
-4 -14 -2 1512.17 637.438 1
14 -2 4 698.803 336.317 3
-14 -2 -4 1568.63 738.13 4
-14 4 -2 1469.93 441.168 2
2 -4 14 1367.52 611.143 1
-2 4 14 1330.03 358.613 4
-14 4 -2 968.998 242.569 1
-14 -4 2 -256.403 425.289 4
4 -14 2 609.115 311.533 1
-14 2 4 146.436 267.214 3
14 4 4 4187.12 879.613 3
4 -14 -4 5876.25 1056.73 1
14 4 -4 4843.33 623.077 1
4 -14 -4 3610.26 535.742 3
14 -4 -4 2506.56 309.682 1
-14 -4 -4 3128.67 869.551 4
-14 4 4 4455.71 816.721 2
-14 -4 4 3862.52 464.315 2
14 -4 4 6518.71 1076.29 2
-4 -4 14 5681.56 1095.62 1
4 14 4 3521.62 1058.56 2
-4 14 4 4019.47 1111.17 2
4 -4 14 6012.15 1127.96 1
-4 -14 4 6263.99 1169.44 1
-14 4 -4 5769.49 838.254 2
-4 14 -4 3959.06 990.782 2
4 14 -4 4463.19 1054.54 2
4 -14 4 5360.75 1019.64 1
4 4 14 3028.46 759.383 4
-14 4 -4 5276.46 641.963 1
-14 -4 4 2866.29 844.184 4
-4 -4 -14 3266.37 628.939 4
-14 -4 4 5340.78 679.741 1
14 -4 4 4035.8 875.577 3
-14 4 4 3546.63 595.689 3
-14 -4 -4 5047.63 666.726 1
-4 -14 -4 5901.08 1089.58 1
14 -5 3 1201.49 320.223 1
-14 3 -5 931.095 289.599 1
14 -3 -5 812.198 188.249 1
-14 -3 5 1570.6 569.56 3
14 -5 3 1056.13 426.275 3
14 -3 -5 483.598 131.556 1
-5 -3 -14 1058.99 401.137 4
-3 14 5 596.131 492.543 2
-14 -5 -3 1116.34 355.341 1
5 14 3 887.665 511.476 2
3 -14 5 1122.81 522.113 1
-14 5 3 740.575 364.924 2
14 5 -3 1052.29 315.5 1
-3 -14 -5 945.797 401.955 1
14 -5 3 1484.11 571.435 2
-3 -5 14 624.471 377.153 1
-5 14 -3 1186.44 635.985 2
5 -14 -3 882.209 341.163 1
3 14 -5 1223.71 555.487 2
-14 -3 5 784.58 232.107 2
3 5 14 1515.32 517.917 4
-14 -3 5 1342.98 621.197 4
-14 -3 5 1060.11 281.985 1
-14 -5 -3 2061.51 817.975 4
-14 3 -5 913.169 347.732 2
-5 -14 3 885.014 502.497 1
14 3 5 1733.62 707.843 3
-3 -14 -5 1117.15 443.661 3
14 5 -1 316.856 182.735 1
-14 -1 5 140.791 268.345 3
-14 -1 5 436.84 128.176 2
14 -5 1 332.919 117.658 1
-14 1 -5 289.681 192.788 1
-1 14 5 412.611 547.983 2
1 -14 5 -45.0651 206.385 1
14 -5 1 450.71 285.294 2
5 14 1 225.542 285.378 2
-1 -14 -5 758.73 418.751 1
14 -1 -5 334.594 128.314 1
-5 14 -1 77.8202 224.11 2
-14 5 1 395.739 272.296 2
-14 -5 -1 391.964 224.773 1
1 14 -5 688.969 446.732 2
-5 -1 -14 109.38 210.531 4
-1 -5 14 566.597 324.197 1
-14 -1 5 -240.625 463.235 4
5 -14 -1 84.1354 230.06 1
1 5 14 -847.254 464.879 4
14 1 5 191.484 120.587 2
-5 -14 1 484.874 353.191 1
14 -5 1 468.729 258.246 3
14 1 5 912.828 458.777 3
-14 -5 -1 -301.584 493.152 4
-1 -14 -5 261.234 232.526 3
14 -5 -1 141.729 65.1533 1
-14 1 5 311.866 174.425 3
14 5 1 192.829 246.746 3
-1 -14 5 199.679 206.718 1
1 14 5 477.095 457.257 2
-5 14 1 342.869 340.259 2
1 -14 -5 336.708 220.672 1
14 5 1 504.132 182.006 2
5 14 -1 362.858 293.31 2
-14 5 -1 454.087 171.042 1
-14 -1 -5 -326.824 321.519 4
-5 1 -14 216.2 215.801 4
-1 14 -5 389.646 335.181 2
-14 5 -1 190.009 141.678 2
-5 -14 -1 612.654 374.443 1
14 -1 5 362.932 223.785 2
-14 -5 1 889.718 607.15 4
-1 5 14 -454.795 325.187 4
1 -5 14 813.77 476.606 1
14 1 -5 284.611 140.397 1
5 -14 1 308.274 291.296 1
-14 -5 1 400.919 250.551 1
14 -1 5 356.734 302.007 3
14 -5 -1 180.548 220.085 3
1 -14 -5 231.403 228.27 3
14 5 3 471.029 372.597 3
5 -14 3 1320.9 463.283 1
-14 3 5 657.302 337.286 2
-3 -14 5 1061.36 439.462 1
3 14 5 631.353 535.102 2
3 -5 14 1099.58 531.899 1
-5 14 3 957.499 596.584 2
3 -14 -5 1595.66 576.984 1
-14 -5 3 889.835 293.496 1
-5 -14 -3 1078.35 474.594 1
5 14 -3 885.708 556.919 2
14 -3 5 1032.15 468.636 2
-3 14 -5 591.264 571.615 2
14 3 -5 1285.66 335.342 1
-14 -3 -5 657.704 376.391 4
-14 5 -3 1068.4 412.291 2
-5 -3 14 841.088 441.142 1
-14 -5 3 930.953 499.157 4
14 -5 -3 798.419 192.951 1
14 -3 5 712.934 500.316 3
-14 3 5 1003.12 350.757 3
-14 5 -3 1147.11 307.572 1
3 -14 -5 754.34 226.759 3
14 5 5 -123.394 491.57 3
-14 -5 -5 -84.5179 120.842 1
-5 -14 5 126.244 220.858 1
5 14 5 -204.532 408.21 2
-14 5 5 182.542 255.416 2
-5 14 5 223.877 456.224 2
14 -5 -5 -116.738 110.047 1
5 -14 5 -20.5659 219.765 1
-5 -14 -5 259.419 329.177 1
14 -5 5 169.801 96.2717 1
5 -14 -5 -263.628 268.833 1
-5 -5 14 252.653 276.282 1
-14 -5 5 37.4032 111.688 2
-14 5 -5 233.948 148.692 1
14 -5 5 -196.278 207.258 2
-5 14 -5 -135.93 374.982 2
5 14 -5 -288.627 256.216 2
14 5 -5 211.665 220.669 1
5 5 -14 -122.57 154.723 4
-14 -5 -5 -38.8733 440.926 4
-14 -5 5 96.2066 335.004 4
-14 5 -5 129.95 216.833 2
-5 -5 -14 143.187 217.662 4
5 5 14 719.638 544.128 4
14 -5 5 -500.228 494.856 3
5 -5 14 396.975 359.226 1
-14 5 5 232.901 202.5 3
-14 -5 5 145.902 153.685 1
5 -14 -5 312.754 195.533 3
14 6 -4 3949.32 662.847 1
-6 -14 4 3247.57 847.393 1
6 -14 -4 2286.72 402.894 3
-4 14 6 2169.37 990.389 2
6 14 4 2307.77 793.455 2
-14 -4 6 3698.26 606.367 1
-14 -4 6 2991.94 498.619 2
-14 6 4 3619.27 880.113 2
-4 -14 -6 4469.38 974.83 1
14 -6 4 3711.26 919.727 2
4 -14 6 4043.81 950.87 1
6 -14 -4 3459.37 817.028 1
-6 14 -4 2867.99 912.651 2
4 14 -6 3970.97 1077.47 2
4 6 14 1496.14 595.079 4
-14 -4 6 1836.57 700.694 4
-14 -6 -4 3045.19 864.33 4
-6 -4 -14 2740.68 640.843 4
-14 4 -6 3083.3 645.792 2
14 -6 4 2400.23 687.191 3
-4 -6 14 4043.19 936.753 1
14 -6 4 3545.26 608.252 1
-14 4 -6 3438.87 612.431 1
14 -4 -6 2409.44 363.42 1
-14 -6 -4 3104.41 603.248 1
14 4 6 2581.76 797.257 3
-6 -2 -14 3256.66 654.709 4
-14 -2 6 1408.7 554.174 3
-2 14 6 1711.52 813.183 2
14 6 -2 1860.25 444.547 1
-14 -2 6 2341.88 424.133 1
-2 -14 -6 1807.63 683.056 1
6 14 2 1939.23 815.515 2
14 -6 2 1578.68 602.147 2
-14 -6 -2 3432.13 944.659 4
2 -14 6 2458.94 763.88 1
-14 6 2 2359.56 656.709 2
-14 -6 -2 1938.78 463.687 1
14 -2 -6 1731.52 313.291 1
14 6 -2 1701.26 288.181 2
-6 14 -2 1573.66 797.938 2
-14 -2 6 1494.28 605.737 4
2 14 -6 1985.1 863.716 2
6 -14 -2 1978.68 586.073 1
-14 2 -6 1982.58 483.121 1
2 6 14 359.634 317.677 4
14 -6 2 2202.64 416.579 1
-14 -2 6 1642.44 357.105 2
-6 -14 2 2575.56 755.967 1
14 2 6 1888.19 449.62 2
14 -6 2 1966.93 599.849 3
-2 -6 14 2464.16 804.286 1
14 2 6 1421.03 641.223 3
-2 -14 -6 1261.46 426.057 3
14 0 6 104.667 157.352 2
-14 0 6 -59.2115 237.902 3
0 -6 14 39.0615 223.815 1
0 14 6 184.183 382.832 2
14 -6 0 69.4189 246.115 2
-14 6 0 231.612 141.728 1
0 -14 -6 -15.4313 237.825 1
0 -14 6 553.914 295.699 1
6 14 0 464.517 295.049 2
-6 14 0 -107.103 418.083 2
14 0 -6 262.583 147.278 1
0 6 14 208.406 254.878 4
-14 0 -6 342.77 159.952 1
-14 6 0 251.506 193.115 2
14 6 0 222.924 134.626 2
-14 -6 0 81.715 176.571 1
0 14 -6 565.052 505.438 2
-14 0 6 -980.032 676.69 4
-14 0 -6 851.992 640.188 4
-6 -14 0 58.8043 177.918 1
-6 0 -14 116.514 272.217 4
-14 -6 0 480.99 490.402 4
6 -14 0 57.0991 146.158 1
14 0 6 -782.371 508.732 3
14 -6 0 375.868 135.554 1
14 -6 0 187.762 217.24 3
0 -14 -6 376.21 210.42 3
14 6 0 131.3 102.678 1
6 -14 2 2146.21 640.979 1
14 -6 -2 2762.02 494.289 3
-14 2 6 1649.32 490.238 3
-14 -6 2 1963.83 503.297 1
14 6 2 2790.74 777.202 3
2 14 6 1526.55 763.113 2
14 6 2 1773.21 435.661 2
2 -6 14 2526.1 767.902 1
-2 -14 6 1627.91 610.551 1
2 -14 -6 2146.54 682.059 1
-6 14 2 2114.67 921.628 2
6 14 -2 1318.86 657.301 2
14 -6 -2 1834.91 341.269 1
-6 -14 -2 2454.25 746.1 1
-2 14 -6 2124.34 770.206 2
-14 6 -2 1528.3 504.803 2
14 -2 6 2327.86 575.307 2
-14 6 -2 1996.93 385.777 1
-14 -2 -6 4598.77 1138.82 4
-14 -6 2 3543.37 988.017 4
14 -2 6 3064.58 878.713 3
2 -14 -6 1561.82 456.305 3
14 2 -6 2406.44 433.713 1
-14 -6 4 3724.23 674.525 1
14 6 4 2966.57 727.741 3
14 -6 -4 3020.37 442.877 1
-14 -6 4 3251.84 574.701 2
4 14 6 2149.79 825.312 2
6 -14 4 4115.69 917.135 1
-6 14 4 2325.34 1043.84 2
-4 -14 6 3119.63 786.467 1
14 4 -6 3993.59 642.888 1
4 -14 -6 4021.9 906.878 1
-6 -4 14 4179.1 960.569 1
-6 -14 -4 2929.92 767.558 1
-14 6 -4 4062.32 629.787 1
6 14 -4 2791.32 859.021 2
4 -6 14 3468.51 884.954 1
14 -4 6 4064.29 861.956 2
-14 6 -4 3534.43 756.343 2
-4 14 -6 3202.35 1052.4 2
-14 -4 -6 3955.66 1033.41 4
-14 -6 4 4349.33 1098.33 4
14 -4 6 3277.05 869.495 3
4 -14 -6 2323.23 447.472 3
-14 4 6 2129.41 490.06 3
14 6 6 -231.047 435.968 3
-14 -6 -6 18.9479 168.643 1
6 14 6 -244.729 337.142 2
-14 6 6 223.237 300.395 2
14 -6 -6 246.286 139.701 1
-6 14 6 13.0956 285.689 2
-6 -14 6 -14.3043 270.644 1
14 -6 6 105.522 117.071 1
-6 -14 -6 -71.8641 300.883 1
6 -14 -6 494.894 391.793 1
-14 6 -6 316.434 185.117 1
-14 -6 6 178.584 223.82 2
6 -14 6 -97.4102 250.145 1
14 -6 6 147.825 251.753 2
-6 14 -6 -316.483 481.731 2
6 14 -6 62.2059 236.379 2
6 6 14 789.659 578.106 4
14 6 -6 307.268 206.013 1
6 6 -14 520.4 313.384 4
-14 -6 -6 572.685 399.626 4
-14 -6 6 575.099 387.542 4
-14 6 -6 276.221 246.452 2
-6 -6 -14 661.022 323.431 4
-6 -6 14 184.988 245.564 1
-14 6 6 625.866 254.071 3
6 -14 -6 347 188.839 3
-14 -6 6 18.7193 136.7 1
6 -6 14 96.9238 269.426 1
14 -5 -7 1232.91 275.331 1
-7 -14 5 1842.53 650.851 1
-14 -7 -5 1703.66 539.526 1
-5 14 7 812.883 559.362 2
7 14 5 1232.4 579.048 2
-14 7 5 1724.23 671.166 2
14 -7 5 2597.9 574.29 1
-5 -14 -7 2098.99 660.449 1
7 -5 14 2584.78 783.063 1
14 -7 5 2515.3 823.767 2
7 -14 -5 1948.65 614.458 1
-5 -7 14 3023.18 866.278 1
14 7 -5 2409.74 585.603 1
-7 14 -5 2133.88 810.424 2
-14 -5 7 1854.84 496.399 1
5 -14 7 2480.47 810.431 1
-14 -5 7 1356.43 416.104 2
5 14 -7 2618.45 851.855 2
7 5 -14 775.064 273.131 4
5 7 14 729.137 634.681 4
-14 -5 7 1639.94 712.462 4
-14 -7 -5 1435.55 668.243 4
-7 -5 -14 1217.62 483.461 4
-14 5 -7 1799.71 525.526 1
-14 5 -7 2227.91 621.157 2
14 7 -5 2253.75 442.402 2
5 7 14 2074.56 705.876 3
7 -14 -5 1319.68 263.099 3
14 5 7 1703.35 568.17 3
-14 7 3 6233.05 1145.84 2
14 -7 3 7234.93 1324.44 2
7 -14 -3 6783.91 1103.72 1
-7 14 -3 6270.6 1398.78 2
-3 14 7 3787.63 1362.84 2
-14 3 -7 6238.27 874.201 1
14 -7 3 6762.47 835.846 1
7 14 3 6185.99 1273.11 2
3 14 -7 6794.03 1394.07 2
-7 -3 -14 4327.09 813.182 4
-7 -14 3 6241.71 1160.6 1
-14 -3 7 6443.83 754.071 2
14 7 -3 6564.28 699.607 2
14 -3 -7 6463.64 659.274 1
-14 -3 7 4875.8 1178.9 4
-3 -7 14 7505.96 1283.99 1
3 7 14 4322.57 978.562 4
3 -14 7 6469.21 1171.55 1
-14 -3 7 6460.65 821.395 1
-14 -7 -3 5451.36 1229.31 4
-3 -14 -7 4103.77 779.863 3
14 3 7 6367.42 1271.79 3
-3 -14 -7 6827.98 1242.63 1
-14 -7 -3 5716.96 890.963 1
14 7 -3 7924.35 949.588 1
-1 14 7 1306.05 761.883 2
-14 1 -7 3428.07 637.281 1
-7 -1 -14 3041.54 731.781 4
14 -7 1 2767.95 819.2 2
-1 -14 -7 3859.05 898.955 1
7 14 1 1873.02 770.747 2
-7 14 -1 3020.6 1028.34 2
-14 7 1 2541.33 701.119 2
1 -14 7 2728.42 818.771 1
-14 -7 -1 2971.47 645.242 1
14 7 -1 2466.3 456.596 2
-1 -7 14 3493.3 897.051 1
1 14 -7 3462.47 988.161 2
-14 -1 7 2834.58 868.33 4
-7 1 14 1174.37 283.385 4
7 -14 -1 3103.05 776.865 1
-14 -7 -1 3297.04 935.886 4
-7 -14 1 2371.42 684.677 1
1 7 14 980.4 526.826 4
14 1 7 3157.72 631.547 2
14 -7 1 3910.49 768.958 3
14 -7 1 4047.66 606.483 1
14 1 7 3883.76 1027.03 3
-14 7 1 3313.59 484.902 1
14 7 -1 3084.64 598.403 1
-1 -14 -7 2010.91 502.274 3
14 -1 -7 3403.15 495.655 1
-14 1 7 2426.2 570.175 3
14 7 1 1334.09 504.802 3
1 14 7 1574.85 882.213 2
1 -14 -7 3844.07 869.915 1
14 7 1 2818.38 546.064 2
-7 14 1 1807.9 710.004 2
14 1 -7 3395.29 531.267 1
7 14 -1 2486.64 889.801 2
1 -7 14 3323.79 873.422 1
-1 -14 7 3802.32 949.064 1
-14 7 -1 2954.44 776.751 2
14 -7 -1 3742.35 561.803 1
-7 -14 -1 2999.58 902.145 1
-1 14 -7 2899.94 918.22 2
-7 1 -14 1896.99 530.178 4
-14 -1 -7 4201.07 1051.9 4
14 -1 7 3016.67 654.273 2
-14 -7 1 3291.61 960.033 4
-14 -7 1 2880.81 600.267 1
7 -14 1 3345.39 753.513 1
14 -1 7 2930.9 858.427 3
1 -14 -7 2944.54 594.339 3
14 -7 -1 3174.35 606.403 3
-14 7 -1 3528.66 537.759 1
-7 -14 -3 7282.93 1319.51 1
-14 3 7 4960.39 736.857 3
14 7 3 5304.38 1034.22 3
3 14 7 4977.04 915.336 3
14 7 3 6002.28 858.514 2
-14 -7 3 6399.09 844.936 2
7 14 -3 6676.99 1383.7 2
3 14 7 5486.71 1389.31 2
14 -7 -3 6858.42 729.944 1
-14 7 -3 7963.22 899.835 1
-3 14 -7 5306.08 1332.04 2
14 -3 7 6486.76 1053.56 2
-7 14 3 5183.76 1352.5 2
-14 7 -3 6174.99 1101.78 2
14 3 -7 6576.56 859.515 1
7 -14 3 7146.48 1180.55 1
-14 -7 3 6592.39 939.515 1
-14 -3 -7 5922.29 1255.53 4
-14 -7 3 5242.7 1161.02 4
3 -14 -7 4483.15 676.306 3
14 -7 -3 5990.28 641.805 3
14 -3 7 6060.72 1236.6 3
-3 -14 7 6837.63 1285.17 1
3 -7 14 8076.09 1336.94 1
3 -14 -7 7478.41 1223.43 1
-7 -3 14 7916.45 1302.92 1
-14 7 -5 2333.45 645.987 2
14 7 5 612.445 455.639 3
5 14 7 1770.31 600.249 3
-14 7 -5 2588.68 579.741 1
5 -7 14 2553.86 810.105 1
5 14 7 1360.59 675.669 2
-7 14 5 1621.88 851.656 2
5 -14 -7 2355.16 695.516 1
-7 -14 -5 1899.18 623.403 1
-14 -7 5 2697.5 640.057 2
-5 -14 7 2309.32 743.82 1
7 -14 5 1826.87 600.488 1
14 -7 -5 1786.93 370.08 1
-7 -5 14 2532.66 811.799 1
14 -5 7 1919.77 659.291 2
7 14 -5 2161.31 819.611 2
-14 -7 5 2483.7 631.874 1
-5 14 -7 2083.82 789.78 2
7 5 14 1178.43 572.082 4
-14 -5 -7 2215.88 743.951 4
-14 -7 5 2237.85 775.21 4
5 7 -14 1271.17 441.897 4
5 -14 -7 1596.07 388.882 3
14 5 -7 2270.19 560.847 1
-14 5 7 1818.35 394.625 3
14 7 7 537.683 486.469 3
-14 -7 -7 105.798 160.722 1
-14 -7 7 -150.317 249.698 1
7 14 7 409.35 379.553 3
7 14 7 477.701 465.928 2
-14 7 7 524.21 517.03 2
14 -7 -7 175.906 147.869 1
-7 14 7 173.318 600.092 2
-7 -14 -7 -49.0195 261.983 1
7 -14 -7 328.477 300.446 1
-7 -14 7 138.541 205.389 1
-14 7 -7 201.096 286.766 1
-14 7 -7 -170.954 301.296 2
7 -7 14 156.601 213.608 1
-14 -7 7 1109.23 594.18 4
-14 -7 7 303.428 299.879 2
14 -7 7 510.25 418.285 2
-7 -7 14 109.899 240.494 1
-7 14 -7 132.41 420.296 2
7 14 -7 35.9906 348.505 2
7 -14 7 -286.316 198.454 1
7 7 -14 552.646 332.145 4
-14 -7 -7 297.903 456.854 4
14 7 -7 55.3001 202.715 1
-7 -7 -14 481.881 365.597 4
14 -7 7 515.755 261.128 1
-14 7 7 321.429 189.442 3
7 7 14 362.027 412.505 3
14 -6 -8 46.8629 93.2613 1
14 -8 6 125.903 298.237 1
-6 8 -14 174.305 188.738 2
8 14 6 185.919 269.664 3
-14 -8 -6 -105.463 175.791 1
-6 14 8 -2.646 489.848 2
8 14 6 112.86 259.212 2
-6 -14 -8 -7.25149 314.654 1
-14 8 6 313.059 323.278 2
-6 -8 14 38.7633 264.579 1
-8 -14 6 230.322 378.789 1
8 -14 -6 -199.91 178.031 1
14 -8 6 -50.6872 248.222 2
-14 -6 8 112.581 237.85 1
-14 -6 8 199.645 295.554 2
-8 14 -6 -52.0569 197.493 2
14 8 -6 39.165 159.099 1
6 14 -8 270.522 346.988 2
8 6 -14 -19.709 251.998 4
-14 6 -8 -183.949 207.296 1
6 -14 8 -311.098 380.611 1
8 -6 14 7.08546 166.609 1
-14 -6 8 -198.768 402.354 4
-14 -8 -6 53.1622 344.964 4
-8 -6 -14 311.235 214.372 4
-14 6 -8 138.265 205.532 2
14 8 -6 74.3739 139.152 2
8 -14 -6 161.795 81.1882 3
6 8 14 -216.422 429.616 3
14 6 8 -328.561 325.889 3
14 8 -4 145.554 143.764 2
-8 -14 4 217.644 463.23 1
8 -14 -4 772.704 218.039 3
4 14 -8 813.241 440.914 2
-4 14 8 1052 615.915 2
-4 -14 -8 90.0196 257.848 1
8 14 4 624.745 514.149 2
-4 -8 14 448.434 320.033 1
-14 4 -8 477.301 205.586 1
-14 -8 -4 662.145 329.924 1
-14 8 4 322.319 430.817 2
-14 -4 8 308.448 184.302 1
14 -4 -8 607.103 247.532 1
14 -8 4 509.103 584.978 2
14 8 -4 633.818 394.042 1
8 -14 -4 512.768 352.12 1
-8 14 -4 874.431 563.918 2
14 -8 4 291.296 124.006 1
-14 -4 8 329.386 195.995 2
-14 -4 8 2019.79 662.89 4
4 8 14 1251.65 509.29 4
4 -14 8 309.86 328.126 1
-8 -4 -14 1477.15 525.527 4
-14 -8 -4 -138.714 303.542 4
4 8 14 1618.03 692.167 3
-4 8 -14 227.247 263.817 2
14 4 8 1053.2 634.152 3
-14 -8 -2 5336.38 921.176 1
-8 14 -2 6106.96 1403.14 2
-2 14 8 3748.39 1238.05 2
8 -14 -2 6174.2 1089.18 1
14 -8 2 5068.4 1145.18 2
14 8 -2 6446.33 835.442 2
8 14 2 4284.53 1076.58 2
14 -2 -8 5673.86 679.087 1
-14 8 2 4640.1 1049.92 2
-14 2 -8 5981.58 899.962 1
-14 -2 8 5664.77 768.029 2
-2 -8 14 5819.56 1193.47 1
14 2 8 5441.24 835.783 2
-2 8 -14 5491.9 1098.96 2
2 14 -8 4775.93 1197.05 2
-14 -2 8 2431.29 872.849 4
-8 -2 -14 3426.06 801.755 4
-2 -14 -8 5795.54 1104.13 1
2 -14 8 6864.87 1247.6 1
2 8 14 1113.19 659.392 4
-14 -8 -2 2934.61 829.903 4
-8 -14 2 4778.7 1079.23 1
14 -8 2 4480.57 826.189 3
-14 8 2 5060.02 640.557 1
-2 -14 -8 2488.54 605.998 3
14 2 8 5032.1 1188.95 3
14 -8 2 6199.69 825.54 1
14 8 -2 5628.77 828.429 1
0 14 8 4460.67 748.809 3
14 -8 0 6635.75 1263.87 2
14 8 0 6694.38 881.862 2
-14 8 0 5755.84 1118.22 2
-14 0 -8 6151.96 883.212 1
-8 -14 0 5952.85 1207.51 1
-14 -8 0 5823.46 942.173 1
0 14 -8 5024.73 1219.94 2
8 -14 0 6355.68 1081.22 1
8 14 0 4463.61 1093.48 2
-8 14 0 4095.88 1193.77 2
14 0 8 6462.78 942.749 2
0 -8 14 6872.87 1261.22 1
0 8 -14 6461.7 1194.42 2
-14 0 -8 2566.02 810.994 4
-8 0 -14 2400.76 712.744 4
0 -14 8 5916.07 1144.7 1
-14 -8 0 3147.33 888.967 4
0 8 14 3195.36 819.39 4
-14 0 8 4151.78 1071.67 4
14 -8 0 6587.18 812.502 1
14 0 8 4911.14 1133.37 3
0 -14 -8 4347.98 734.513 3
14 -8 0 5999.76 855.273 3
14 0 -8 6602.09 777.175 1
14 8 0 5878.95 860.176 1
0 -14 -8 6556.81 1174.51 1
-14 8 0 7235.77 801.588 1
2 14 8 2988.94 650.453 3
-8 -14 -2 6102.28 1183.43 1
14 8 2 3343.38 870.742 3
-14 8 -2 5596.22 784.669 1
-14 8 -2 5266.44 1075.25 2
14 8 2 4321.15 742.699 2
-8 14 2 5391.16 1308.16 2
14 -2 8 5385.64 919.238 2
14 -8 -2 6470.04 775.111 1
-14 -8 2 6625.49 972.248 1
8 14 -2 4246.72 1008.19 2
8 -14 2 5704.46 1075.05 1
2 -8 14 5309.14 1071.95 1
-2 -14 8 5384.45 1117.28 1
-2 14 -8 5383.12 1227.38 2
14 2 -8 5702.12 787.441 1
-14 -2 -8 2919.62 884.123 4
-14 -8 2 4386.76 1068.23 4
14 -2 8 4660.97 1095.41 3
2 -14 -8 2423.66 529.863 3
2 8 -14 5295.13 1080.62 2
2 -14 -8 6261.27 1096.05 1
14 -8 -2 4025.11 584.731 3
-14 4 8 317.212 231.353 3
14 8 4 195.07 276.127 3
4 14 8 613.607 339.756 3
14 4 -8 429.766 254.326 1
14 8 4 49.6252 217.118 2
4 -14 -8 338.032 359.75 1
-14 -8 4 910.003 442.202 2
-8 14 4 431.59 584.926 2
-14 -8 4 472.835 261.368 1
8 -14 4 328.595 332.856 1
-8 -14 -4 128.659 181.436 1
-8 -4 14 750.224 503.304 1
-4 -14 8 121.235 212.937 1
8 14 -4 851.27 577.55 2
14 -8 -4 451.927 196.056 1
14 -4 8 749.071 416.462 2
4 -8 14 390.51 335.968 1
-14 -4 -8 2579.23 884.344 4
-4 14 -8 371.243 411.487 2
-14 8 -4 729.161 444.683 2
-14 -8 4 925.565 490.909 4
-14 8 -4 708.552 347.087 1
14 8 6 559.72 433.144 3
6 14 8 268.673 302.65 3
-14 8 -6 -244.186 176.635 1
-8 14 6 209.038 296.481 2
6 -14 -8 97.4749 152.361 1
-8 -14 -6 -25.4325 207.583 1
14 -8 -6 192.493 177.552 1
-14 -8 6 239.825 194.994 2
14 -6 8 59.3054 208.362 1
-6 -14 8 -270.793 422.159 1
14 -6 8 205.079 233.738 2
8 -14 6 93.9749 217.56 1
8 14 -6 5.72246 220.579 2
-6 14 -8 59.6825 301.739 2
-14 -8 6 188.299 196.437 1
-14 8 -6 -39.0313 211.621 2
-14 -6 -8 1010.66 658.166 4
6 8 -14 -59.5725 291.12 4
-14 -8 6 -208.108 453.843 4
6 -8 14 330.642 342.702 1
-8 -6 14 133.296 357.562 1
8 6 14 -1022.19 641.007 3
14 6 -8 16.9526 199.97 1
-14 6 8 -19.6152 149.52 3
14 8 8 1752.69 838.543 3
-14 -8 -8 1473.84 475.199 1
8 14 8 1674.75 688.492 3
-14 -8 8 1115.36 421.807 1
8 -8 14 2011.88 728.31 1
-14 8 8 937.347 438.257 2
14 -8 -8 1426.51 398.027 1
-8 14 8 599.57 652.57 2
-8 -14 -8 1608.73 601.973 1
-8 -8 14 1538.03 641.81 1
8 -14 -8 1931.23 620.569 1
-14 8 -8 1319.77 493.487 1
-14 -8 8 2192.48 743.627 4
-14 -8 8 1457.15 499.344 2
-8 -14 8 1657.57 663.262 1
14 -8 8 1469.64 531.454 1
-8 14 -8 1925.35 839.375 2
8 14 -8 2052.3 776.577 2
8 8 -14 567.547 380.636 4
-14 -8 -8 1393.56 633.78 4
-14 8 -8 1759.39 639.696 2
-8 -8 -14 329.92 259.725 4
14 8 -8 1963.3 591.376 1
8 -14 8 1531.68 652.545 1
-8 8 -14 1929.14 689.346 2
8 8 14 1785.2 832.147 3
9 -7 14 450.199 415.902 1
14 -7 -9 196.401 179.576 1
9 14 7 -561.53 366.364 3
-14 -9 -7 110.778 189.195 1
-7 14 9 -34.9128 303.413 2
9 14 7 -145.377 346.87 2
-7 -14 -9 -56.5415 212.977 1
-14 9 7 -355.645 342.157 2
-14 -9 -7 392.51 381.014 4
9 -14 -7 328.338 281.871 1
-14 7 -9 189.087 228.094 1
-9 -14 7 395.985 293.272 1
-14 -7 9 -78.213 289.903 1
-14 -7 9 73.1205 156.463 2
-9 14 -7 485.962 408.553 2
14 9 -7 -47.6355 229.212 1
7 14 -9 115.679 301.167 2
-14 -7 9 -313.143 293.291 4
-9 -7 -14 -431.38 425.289 4
-14 7 -9 185.056 170.601 2
14 9 -7 319.449 219.671 2
-7 9 -14 688.326 527.532 2
9 7 -14 -3.34686 193.349 4
7 9 14 366.704 297.565 3
7 -14 9 248.872 375.278 1
-7 -9 14 77.2543 202.116 1
14 -9 7 241.171 231.972 1
14 7 9 122.655 434.76 3
-14 5 -9 142.614 205.836 1
-14 -5 9 35.3455 228.254 1
-9 -14 5 129.033 232.322 1
-5 -14 -9 113.479 206.252 1
14 9 -5 172.471 216.978 2
9 14 5 533.739 467.369 2
-14 -9 -5 103.187 232.439 1
-14 9 5 149.743 338.422 2
9 -14 -5 273.006 149.602 1
14 9 -5 135.912 137.391 1
14 -9 5 776.532 362.699 1
-9 14 -5 622.283 562.249 2
-14 -5 9 -133.935 288.151 2
5 14 -9 159.468 256.86 2
-14 -5 9 -124.039 473.342 4
-9 -5 -14 456.816 410.359 4
-14 -9 -5 20.6156 441.727 4
5 -14 9 464.913 415.318 1
-5 9 -14 423.331 423.45 2
-14 5 -9 638.573 387.431 2
5 9 14 302.345 352.202 3
14 5 9 731.255 579.637 3
-5 -9 14 551.335 415.405 1
-3 -9 14 2273.77 807.758 1
14 -9 3 1914.15 542.737 1
-3 -14 -9 1682.07 579.976 1
-14 -3 9 2488.68 556.505 1
9 14 3 1787.61 717.059 2
14 -9 3 2386.95 768.457 2
-14 9 3 2007.52 696.934 2
14 9 -3 1485.75 542.11 1
-14 -9 -3 2448.61 653.462 1
3 9 14 576.204 471.253 4
3 -14 9 1743.64 707.964 1
14 9 -3 2447.26 554.88 2
-9 14 -3 1774.65 784.295 2
9 -14 -3 1863.76 601.347 1
3 14 -9 2356.26 849.245 2
-14 3 -9 1714.86 521.179 1
-14 -3 9 517.648 408.454 4
-9 -3 -14 1037.7 429.051 4
-14 -9 -3 1973.53 691.07 4
-14 -3 9 1834.37 485.01 2
14 -3 -9 2511.15 493.77 1
-3 9 -14 2196.21 771.933 2
3 9 14 1144.52 526.962 3
14 3 9 1684.84 683.542 3
-9 -14 3 1873.78 690.366 1
-1 14 9 162.186 215.652 3
-1 -9 14 -20.0656 246.497 1
-14 9 1 36.6662 136.27 1
-1 -14 -9 -178.076 228.183 1
14 9 -1 -17.048 160.222 1
-9 -14 1 378.127 333.944 2
14 -9 1 497.037 490.42 2
9 14 1 193.805 221.187 2
1 9 14 -210.035 507.141 4
-14 1 -9 22.9852 105.398 1
-14 9 1 81.8893 315.863 2
-9 14 -1 -14.1093 358.279 2
14 9 -1 -17.909 209.244 2
14 -1 -9 224.155 199.693 1
14 -9 1 119.161 204.282 1
-14 -9 -1 -6.50205 132.897 1
-9 1 14 1007.36 382.714 4
1 14 -9 532.182 462.789 2
-9 -1 -14 -695.09 449.846 4
1 -14 9 -53.7479 203.725 1
-9 -14 1 -221.591 302.519 1
-14 -1 9 617.316 480.853 4
9 -14 -1 111.114 229.758 1
-14 -9 -1 853.952 577.027 4
14 1 9 -231.725 303.472 2
14 -9 1 276.614 234.457 3
1 9 14 134.165 217.722 3
-1 9 -14 -145.345 308.997 2
-1 -14 -9 680.631 323.057 3
14 1 9 -184.235 411.398 3
14 9 1 40.2957 106.217 1
1 14 9 965.243 489.699 3
14 -9 -1 -146.273 157.587 1
14 -9 -1 408.603 405.891 2
1 -9 14 -76.1459 266 1
1 -14 -9 92.3239 178.665 1
-9 -1 14 407.609 273.061 4
14 9 1 -292.444 282.365 2
-1 14 -9 279.949 384.564 2
-9 14 1 -70.1755 360.331 2
-14 9 -1 -191.342 129.618 1
9 14 -1 318.914 228.968 2
-14 9 -1 676.275 495.536 2
-9 -14 -1 -648.638 407.562 1
-14 -1 -9 1610.12 782.929 4
-1 -14 9 -254.619 290.895 1
14 -1 9 -311.387 253.489 2
-14 -9 1 639.279 416.528 4
-14 -9 1 220.587 287.02 1
14 1 -9 141.396 183.333 1
-9 1 -14 46.4362 229.506 4
1 -14 -9 360.845 232.962 3
14 -1 9 715.193 490.105 3
1 9 -14 -141.046 307.99 2
14 -9 -1 383.748 203.193 3
9 -14 1 -47.8087 179.666 1
14 -9 -3 1784.13 324.472 3
3 14 9 1796.16 606.147 3
14 9 3 1080.4 530.496 3
-14 -9 3 1930.37 573.224 1
3 -14 -9 2360.64 717.935 1
-14 -9 3 1911.73 534.634 2
14 9 3 2082.85 570.593 2
9 -14 3 1901.14 639.535 1
3 -9 14 2526.26 750.084 1
-9 14 3 1871.18 865.694 2
14 3 -9 2087.91 519.69 1
-9 -14 -3 2088.87 714.239 1
9 14 -3 2033.96 798.401 2
-14 -3 -9 1516.36 703.463 4
-3 14 -9 2261.23 871.973 2
-14 9 -3 1860.42 691.234 2
-3 -14 9 2194.66 715.022 1
-14 9 -3 2120.96 527.806 1
14 -9 -3 2650.23 556.078 1
-14 -9 3 964.167 632.7 4
3 9 -14 2143.27 655.988 2
14 -3 9 1571.08 546.812 2
-14 5 9 541.185 240.741 3
5 14 9 195.314 320.548 3
14 9 5 787.855 533.075 3
14 5 -9 288.229 270.013 1
5 -14 -9 -116.786 353.316 1
-9 14 5 244.468 246.311 2
-14 -9 5 948.478 496.814 2
-9 -14 -5 129.17 302.582 1
-14 -9 5 289.199 282.555 1
5 -9 14 303.291 236.181 1
9 -14 5 278.288 347.308 1
-9 -5 14 387.167 270.971 1
14 -9 -5 199.961 180.853 1
9 14 -5 298.174 256.72 2
14 -5 9 354.497 363.55 2
-5 -14 9 497.499 343.99 1
-14 9 -5 256.784 323.633 2
-5 14 -9 538.521 520.756 2
-14 -5 -9 676.868 441.798 4
-14 -9 5 67.1293 283.885 4
9 5 14 337.799 407.135 3
5 9 -14 506.853 363.496 2
-14 9 -5 322.556 261.906 1
14 9 7 1055.92 629.347 3
7 14 9 533.393 377.57 3
-14 9 -7 413.216 263.998 1
-9 14 7 -128.442 524.416 2
7 -14 -9 320.165 201.408 1
-9 -14 -7 20.803 298.881 1
14 -9 -7 289.672 229.374 1
-14 -9 7 445.094 380.953 2
14 -7 9 455.039 328.024 1
-9 -7 14 353.664 339.609 1
7 -9 14 141.082 222.777 1
-7 -14 9 265.734 371.127 1
9 14 -7 453.309 374.26 2
-7 14 -9 141.241 230.244 2
-14 9 -7 41.9885 236.023 2
9 -14 7 -137.235 187.913 1
-14 -7 -9 399 332.092 4
-14 -9 7 69.9028 165.145 1
7 9 -14 205.365 304.887 4
-14 -9 7 -104.407 352.348 4
9 7 14 248.791 375.12 3
-14 7 9 37.9816 162.843 3
14 7 -9 377.728 344.492 1
14 9 9 3511.39 1045.57 3
-14 -9 9 5752.22 1118.01 1
9 14 9 4694.71 1024.57 3
-9 14 9 3136.82 1252.09 2
-14 -9 9 5731.42 1098.88 2
-9 -14 -9 4521.06 1030.7 1
9 14 -9 5973.5 1292.02 2
-14 9 -9 6786.04 1313.36 2
14 -9 9 6175.99 1143.12 1
-9 -14 9 5371.78 1167.74 1
-9 14 -9 5622.11 1351.6 2
9 9 -14 3871.77 880.372 4
-14 -9 -9 1680.46 637.34 4
9 -9 14 5817.32 1254.31 1
-9 9 -14 5062.15 1113.51 2
-14 -9 -9 3846.06 842.185 1
9 9 14 3762.61 1027.47 3
14 -9 -9 4188.87 710.904 1
9 -14 -9 4844.6 944.103 1
9 -14 9 6090.74 1249.35 1
-9 -9 14 5056.7 1157.07 1
14 -8 -10 106.402 142.417 1
10 14 8 854.414 466.28 3
-14 -10 -8 71.4688 213.679 1
-8 -14 -10 7.00826 287.29 1
8 -14 10 147.92 421.642 1
-10 14 -8 -74.9871 275.487 2
-14 10 8 279.386 465.048 2
10 -14 -8 484.043 351.035 1
-10 -14 8 85.4506 200.96 1
10 -8 14 363.457 322.996 1
-14 -8 10 -115.084 366.04 1
-14 -8 10 -107.182 369.716 2
10 8 -14 1427.61 523.898 4
8 14 -10 59.8449 247.596 2
-14 -10 -8 304.991 417.698 4
-8 -10 14 -63.3139 190.268 1
-10 -8 -14 442.163 496.619 4
-14 -8 10 -154.506 349.022 4
-14 8 -10 196.789 300.605 2
14 10 -8 11.3317 166.056 2
-8 10 -14 -148.124 176.119 2
8 10 14 389.299 649.872 3
14 -10 8 88.5906 242.197 1
14 8 10 832.549 615.539 3
6 -14 10 69.0772 186.372 1
-14 -6 10 -375.813 252.27 1
10 14 6 194.453 322.649 3
-6 -14 -10 -145.989 255.355 1
10 14 6 204.182 228.881 2
-14 -10 -6 188.439 343.975 1
-14 10 6 212.138 281.051 2
-10 -14 6 319.145 416.929 1
10 -14 -6 246.73 317.902 1
14 -10 6 322.557 294 1
10 -6 14 150.192 319.224 1
14 10 -6 -77.5027 178.998 1
-10 14 -6 -193.947 262.482 2
-14 -6 10 199.095 139.504 2
10 6 -14 -383.639 325.564 4
6 14 -10 -21.3465 249.843 2
14 10 -6 17.9918 243.396 2
-10 -6 -14 1284.23 533.475 4
-14 -6 10 610.027 446.54 4
-14 -10 -6 -91.7302 401.711 4
-6 -10 14 84.5229 199.485 1
-6 10 -14 165.319 308.476 2
-14 6 -10 224.77 300.058 2
6 10 14 -212.21 491.878 3
-14 6 -10 203.76 349.759 1
14 6 10 954.927 749.371 3
-14 -4 10 3160.26 755.648 1
-10 -14 4 3398.66 924.028 1
-4 -14 -10 2784.31 823.48 1
14 -4 -10 3077.58 552.028 1
10 14 4 2943.67 870.941 2
-14 10 4 2057.71 739.276 2
14 10 -4 4127.82 827.985 2
-14 -10 -4 3109.4 735.004 1
-14 4 -10 3359.2 762.688 1
-10 14 -4 2850.97 1001.92 2
10 -14 -4 3658.37 812.467 1
4 14 -10 3877.61 1056.8 2
-10 -4 -14 1624.76 636.696 4
-14 -4 10 2094.41 744.004 4
-14 -4 10 3285.12 718.308 2
-14 -10 -4 1111.87 619.506 4
-4 -10 14 4183.72 1002.68 1
-4 10 -14 3754.94 983.6 2
4 10 14 2935 880.429 3
14 4 10 1131.44 712.144 3
4 -14 10 3512.98 928.075 1
14 10 -4 4500.1 893.392 1
14 -10 4 4607.09 888.167 1
-2 14 10 620.091 358.587 3
-14 10 2 631.826 293.545 1
14 -2 -10 166.252 165.463 1
-2 -14 -10 382.472 433.692 1
-14 2 -10 391.024 261.827 1
-10 -14 2 550.335 497.582 2
14 10 -2 326.196 335.128 1
10 14 2 -246.334 518.663 2
-14 -2 10 245.091 385.954 4
-14 10 2 435.457 385.701 2
-10 14 -2 -60.3767 335.487 2
-14 -10 -2 275.338 253.011 1
14 10 -2 60.5487 213.798 2
14 -10 2 423.108 256.925 1
-10 -2 -14 604.597 455.814 4
2 14 -10 547.52 344.493 2
10 -14 -2 337.971 285.829 1
2 10 14 -37.7453 291.523 4
-14 -10 -2 641.878 533.628 4
-2 10 -14 268.818 271.144 2
-10 -14 2 167.155 288.251 1
-2 -10 14 143.572 302.553 1
-14 -2 10 -69.4164 191.84 2
2 -14 10 137.907 311.011 1
14 2 10 -240.874 215.508 2
2 10 14 -666.815 462.947 3
14 2 10 88.6064 359.004 3
0 14 10 460.69 332.782 3
-10 0 -14 171.367 286.392 4
14 10 0 -47.0433 181.177 1
0 -14 -10 129.697 424.976 1
14 -10 0 540.017 429.555 2
14 -10 0 142.487 130.041 1
-14 10 0 158.292 165.013 1
14 0 -10 252.631 172.115 1
10 14 0 2.12465 232.901 2
-10 14 0 88.9349 362.842 2
14 10 0 160.574 198.096 2
-14 10 0 -112.175 231.912 2
-14 0 -10 105.044 180.526 1
-14 0 -10 -404.063 435.591 4
-10 0 14 129.326 235.01 4
-10 -14 0 -175.843 285.385 1
0 14 -10 42.5147 314.666 2
-14 -10 0 -50.3829 235.34 1
-14 -10 0 -154.201 470.536 4
14 0 10 47.8849 156.02 2
14 -10 0 339.799 298.132 3
0 -14 10 374.789 367.345 1
0 10 -14 -79.0975 171.895 2
14 0 10 400.521 407.531 3
-14 0 10 954.821 547.48 4
0 10 14 38.7576 222.078 3
10 -14 0 243.515 317 1
0 -10 14 241.817 450.198 1
2 14 10 759.56 377.745 3
2 -14 -10 308.084 325.95 1
10 -14 2 467.176 427.785 1
-10 -2 14 515.549 320.128 4
14 10 2 558.511 407.57 2
-10 14 2 -55.5617 343.693 2
10 14 -2 196.949 294.642 2
-14 10 -2 23.9664 179.419 1
-14 10 -2 191.949 274.316 2
-10 -14 -2 279.352 390.92 1
-14 -2 -10 1160.01 740.33 4
-2 14 -10 283.732 292.594 2
14 2 -10 337.694 235.413 1
14 -2 10 142.72 288.824 2
-2 -14 10 533.806 416.361 1
-14 -10 2 361.635 360.339 4
2 10 -14 66.6126 305.657 2
-2 10 14 638.198 388.977 3
14 -10 -2 205.375 235.574 1
-14 -10 2 367.311 326.564 1
14 -10 -2 960.422 301.221 3
2 -10 14 288.247 337.824 1
4 14 10 2817.19 769.574 3
14 10 4 2496.63 757.536 3
4 -10 14 4353.01 1059.02 1
4 -14 -10 3499.74 859.674 1
14 -10 -4 3437.3 644.427 1
14 10 4 2530.45 694.718 2
-14 -10 4 3054.38 783.573 1
-14 10 -4 3756.25 730.516 1
-14 -10 4 3437.56 813.352 2
-10 14 4 2746.36 1050.86 2
10 -14 4 3385.71 857.417 1
-10 -14 -4 3177.55 906.693 1
10 14 -4 3511.62 954.422 2
-14 10 -4 2872.59 825.263 2
14 4 -10 4401.73 816.423 1
10 4 14 2264.1 771.101 3
-10 -4 14 3947.77 913.223 1
-4 14 -10 3766.67 1094.57 2
-14 -4 -10 1064.38 651.529 4
-4 -14 10 4034.33 1014.96 1
-14 -10 4 2190.83 754.699 4
4 10 -14 3138.51 888.594 2
6 14 10 23.9436 335.461 3
10 6 14 1408 585.263 3
14 10 6 -224.997 370.879 3
6 -14 -10 -77.3512 162.061 1
14 6 -10 35.4083 271.465 1
6 10 -14 -85.0714 236.661 2
-10 14 6 -56.6369 279.715 2
6 -10 14 -485.207 490.4 1
-10 -14 -6 55.108 180.896 1
-14 -10 6 193.477 208.276 2
14 -10 -6 168.858 200.455 1
-14 -10 6 -117.255 300.843 1
10 14 -6 103.192 213.216 2
10 -14 6 -151.826 280.493 1
-14 10 -6 172.231 228.206 2
-6 14 -10 -55.4349 407.337 2
-14 -6 -10 -99.8077 310.21 4
-6 -14 10 105.719 189.78 1
-14 -10 6 -19.5301 270.135 4
-10 -6 14 35.8819 261.379 1
-14 10 -6 244.511 156.43 1
14 10 8 -102.676 339.413 3
8 14 10 574.077 582.855 3
8 -14 -10 261.12 226.604 1
-10 14 8 147.092 353.395 2
-10 -14 -8 -208.697 296.337 1
14 -8 10 389.846 220.5 1
14 -10 -8 -97.729 142.088 1
-10 -8 14 217.129 262.87 1
-8 14 -10 -92.4881 219.639 2
-14 -10 8 -100.147 311.955 2
8 -10 14 868.624 528.454 1
-14 -8 -10 86.5346 396.406 4
10 14 -8 285.739 334.761 2
-14 10 -8 -42.2325 206.607 2
-8 -14 10 198.635 200.897 1
8 10 -14 779.166 467.729 4
-14 -10 8 286.355 286.177 1
-10 8 -14 399.03 410.255 2
8 10 -14 299.992 406.664 2
10 8 14 173.725 334.716 3
10 -14 8 -103.097 206.014 1
-14 8 10 221.232 150.819 3
14 10 10 -497.943 372.566 3
10 14 10 252.853 420.66 3
-14 -10 -10 -250.339 321.689 1
14 -10 -10 244.683 186.535 1
-10 -14 -10 159.454 244.981 1
-10 14 10 -297.195 628.126 2
10 -14 -10 45.0389 149.532 1
-14 -10 10 -196.545 304.568 1
10 -14 10 216.162 342.415 1
14 -10 10 -448.639 501.283 1
-14 -10 10 -300.709 350.403 2
10 -10 14 56.2106 250.649 1
-10 14 -10 655.967 651.867 2
10 10 -14 867.105 527.746 4
10 14 -10 100.993 217.641 2
-10 -14 10 -93.1017 218.071 1
-14 10 -10 257.917 389.862 2
-14 -10 -10 756.627 484.822 4
-10 -10 14 -489.817 564.939 1
-10 10 -14 -101.158 299.335 2
10 10 14 919.911 585.422 3
14 -9 -11 45.4718 116.128 1
11 14 9 333.854 320.502 3
-9 -14 -11 437.622 329.497 1
-14 -11 -9 353.368 319.589 1
-14 11 9 600.464 535.651 2
11 -9 14 387.772 381.205 1
11 -14 -9 234.076 208.2 1
9 -14 11 562.063 430.556 1
-14 -9 11 473.898 454.298 1
-14 -9 11 592.812 408.267 2
-11 -14 9 -148.838 383.176 1
-9 -11 14 447.564 358.195 1
11 9 -14 -97.6203 544.558 4
-11 -9 -14 1001.45 595.934 4
9 14 -11 239.611 360.297 2
-14 -11 -9 7.827 310.363 4
-14 9 -11 241.442 292.403 2
-9 11 -14 402.995 474.82 2
14 11 -9 972.306 458.613 2
-11 14 -9 501.991 332.421 2
14 -11 9 629.373 343.679 1
9 11 14 -240.677 401.788 3
14 9 11 400.636 464.74 3
-14 -7 11 1811.51 617.223 2
11 14 7 1566.59 718.109 3
-7 -14 -11 2327.65 746.955 1
11 7 -14 1368.96 465.614 4
11 14 7 1491.25 596.252 2
-14 -11 -7 2051.93 663.228 1
-14 11 7 1819.2 705.62 2
7 -14 11 2269.51 776.278 1
11 -14 -7 2216.18 634.993 1
-11 -14 7 2172.94 747.118 1
-11 14 -7 2740.78 912.388 2
14 -11 7 2243.48 704.179 1
-7 -11 14 2710.99 878.051 1
7 14 -11 2843.27 919.829 2
14 11 -7 2827.7 735.258 2
-11 -7 -14 735.037 466.833 4
-14 -7 11 603.498 410.843 4
-14 -11 -7 597.111 477.495 4
-7 11 -14 2887.16 902.077 2
-14 7 -11 2392.86 753.97 2
7 11 14 2772.63 875.937 3
11 -7 14 2188.3 725.415 1
14 7 11 2476.64 964.364 3
-14 -7 11 2303.14 720.686 1
-5 14 11 -135.416 260.287 3
-5 -14 -11 -137.748 424.979 1
5 -14 11 309.934 364.74 1
14 -11 5 64.409 196.228 1
-11 -14 5 226.566 435.737 1
-11 -5 -14 -370.247 302.708 4
11 14 5 -6.02496 270.661 2
-14 11 5 19.7474 471.333 2
-14 -11 -5 122.95 207.877 1
11 -14 -5 332.573 318.87 1
-11 14 -5 -56.9715 307.866 2
-5 -11 14 -353.588 437.587 1
14 11 -5 322.047 347.398 2
-14 -5 11 229.447 178.5 2
5 14 -11 229.213 335.574 2
-14 -5 11 150.978 265.622 1
-14 -5 11 300.145 277.345 4
-14 -11 -5 528.507 472.489 4
-5 11 -14 73.1736 386.249 2
14 5 11 -142.835 383.524 3
5 11 14 95.3647 299.773 3
-14 11 3 784.642 355.43 1
-3 14 11 935.367 358.61 3
3 -14 11 447.976 468.883 1
-3 -14 -11 677.888 397.08 1
14 -11 3 774.169 409.077 1
-11 -14 3 786.522 618.992 2
11 14 3 489.07 413.653 2
-14 11 3 575.747 410.405 2
-14 -11 -3 661.652 475.759 1
-14 -3 11 1318.23 469.421 1
-11 14 -3 728.965 582.744 2
14 11 -3 1158.85 469.744 2
-3 -11 14 1253.37 586.331 1
-11 -3 -14 218.057 296.752 4
-14 -3 11 631.966 469.096 4
3 14 -11 880.939 549.383 2
14 -3 -11 461.389 257.591 1
-14 -11 -3 -24.083 344.563 4
-14 -3 11 781.373 401.43 2
-3 11 -14 1077.71 601.368 2
-14 3 -11 953.738 482.896 1
14 3 11 510.831 423.83 3
3 11 14 1265.24 532.105 3
-11 -14 3 342.325 270.945 1
11 -14 -3 931.479 406.486 1
-1 14 11 -174.886 267.91 3
-1 -14 -11 170.279 313.387 1
-11 -14 1 84.8859 290.939 2
-14 11 1 230.459 194.485 1
14 11 -1 602.509 424.803 1
11 14 1 830.549 537.648 2
14 -11 1 378.979 281.976 1
-14 11 1 768.713 506.587 2
-11 14 -1 83.9869 346.147 2
14 11 -1 401.601 272.032 2
-14 -11 -1 365.047 309.917 1
-14 1 -11 218.81 490.048 4
-11 1 14 40.4662 351.059 4
-14 -1 11 242.854 424.326 4
-11 -1 -14 1460.72 639.392 4
1 14 -11 823.949 527.898 2
-1 -11 14 449.821 345.198 1
-14 1 -11 160.363 241.621 1
14 -1 -11 489.602 245.264 1
-11 -14 1 161.116 273.048 1
-14 -11 -1 537.793 425.456 4
-1 11 -14 8.85789 245.589 2
11 -14 -1 737.944 396.806 1
14 1 11 270.267 186.153 2
14 1 11 -212.474 444.913 3
1 11 14 125.247 273.809 3
1 -14 11 752.098 444.228 1
1 14 11 -424.168 424.248 3
-11 -1 14 271.446 218.231 4
14 -11 -1 576.241 263.573 1
11 -14 1 47.8428 183.81 1
1 -14 -11 343.988 353.845 1
14 1 -11 246.612 226.951 1
-11 1 -14 54.4205 321.191 4
14 11 1 265.356 242.925 2
-14 11 -1 306.927 285.505 1
-11 14 1 137.172 250.978 2
11 14 -1 149.385 231.991 2
-14 11 -1 343.579 432.729 2
-11 -14 -1 183.741 290.703 1
-14 1 11 320.3 306.791 4
-14 -1 -11 -372.812 358.779 4
-1 14 -11 310.435 375.748 2
14 -1 11 361.41 214.864 2
1 -11 14 240.226 329.56 1
-14 -11 1 171.933 318.234 1
-14 -11 1 88.9715 346.117 4
1 11 -14 549.417 417.207 2
14 -11 -1 717.854 360.772 3
-1 11 14 74.0621 285.636 3
-1 -14 11 -235.82 303.596 1
3 14 11 1167.84 577.042 3
-14 -11 3 1095.82 550.246 1
14 -11 -3 848.436 355.168 1
3 -14 -11 824.188 344.528 1
-14 -11 3 457.576 390.201 2
14 11 3 536.334 329.895 2
11 -14 3 1024.45 459.355 1
-11 14 3 417.283 412.823 2
-11 -14 -3 -172.118 302.392 1
11 14 -3 593.244 441.248 2
-14 11 -3 501.152 484.378 2
-14 11 -3 521.973 250.658 1
14 3 -11 1322.42 488.815 1
-14 -3 -11 1082.08 683.461 4
-3 14 -11 1231.44 742.855 2
-11 -3 14 611.309 327.278 4
-14 -11 3 2252.87 750.38 4
3 11 -14 1041.27 537.964 2
-3 11 14 370.005 278.81 3
3 -11 14 472.851 340.497 1
-3 -14 11 1160.23 639.019 1
14 -11 -3 552.536 179.631 3
5 14 11 -243.691 371.889 3
-14 11 -5 397.212 396.825 2
14 11 5 507.558 487.986 3
5 -14 -11 -81.7085 201.694 1
14 11 5 -311.766 193.563 2
-11 14 5 177.134 262.465 2
-14 -11 5 513.387 318.917 2
-14 -11 5 212.455 369.799 1
-11 -14 -5 -27.4767 293.38 1
14 5 -11 566.626 355.233 1
-11 -5 14 -22.5228 343.698 1
14 -11 -5 255.836 201.283 1
11 -14 5 427.147 172.663 1
11 14 -5 588.834 486.082 2
-5 14 -11 156.028 230.332 2
-14 -5 -11 -271.439 440.184 4
5 11 -14 -62.9842 351.082 2
-14 11 -5 411.189 284.072 1
-5 11 14 256.437 249.282 3
11 5 14 -355.012 529.536 3
-5 -14 11 -21.1272 200.493 1
5 -11 14 -21.1087 338.089 1
7 14 11 2633.68 834.643 3
14 11 7 2082.15 754.187 3
7 -14 -11 1955.06 661.355 1
7 -11 14 2591.56 823.835 1
-7 11 14 1201.55 415.988 3
-11 14 7 1717.85 897.38 2
-11 -14 -7 1801.56 639.523 1
14 -11 -7 2088.76 541.936 1
-14 -11 7 2226.45 754.425 2
-11 -7 14 2304 763.207 1
-14 -11 7 1551 577.915 1
11 14 -7 2014.29 736.817 2
-14 11 -7 2664.02 841.297 2
-7 14 -11 2776.11 951.345 2
-14 -7 -11 977.604 578.187 4
7 11 -14 1553.17 603.365 4
14 -7 11 1987.82 649.595 1
11 -14 7 2830.16 857.361 1
7 11 -14 2032.79 696.158 2
-7 -14 11 2465.24 772.076 1
11 7 14 2370.82 1002.37 3
14 -9 11 318.26 256.37 1
14 11 9 1151.12 604.259 3
9 14 11 808.06 516.389 3
-11 -9 14 420.788 194.598 1
9 -14 -11 335.628 298.96 1
-11 14 9 -66.9775 313.953 2
-11 -14 -9 165.086 221.414 1
11 -14 9 205.98 265.568 1
14 -11 -9 307.545 215.91 1
9 -11 14 377.45 403.208 1
-14 -11 9 348.787 226.379 2
-9 14 -11 92.7766 280.615 2
11 14 -9 207.977 324.486 2
-14 11 -9 540.235 509.001 2
9 11 -14 641.78 425.693 4
-14 -9 -11 380.938 416.521 4
-11 9 -14 707.622 571.576 2
9 11 -14 508.288 445.292 2
-9 -14 11 667.405 483.899 1
-14 -11 9 662.382 350.817 1
11 9 14 579.268 507.473 3
-14 9 11 -143.411 115.133 3
12 14 8 -317.041 473.173 3
-8 -14 -12 -213.979 388.913 1
-14 -12 -8 -150.703 195.71 1
-14 12 8 512.082 725.072 2
12 -8 14 312.496 358.701 1
12 -14 -8 -196.517 216.552 1
8 -14 12 -165.806 447.102 1
-12 -14 8 193.485 317.261 1
-8 -12 14 213.813 275.987 1
14 -12 8 111.163 236.537 1
-14 -8 12 902.619 530.49 2
12 8 -14 -329.237 415.06 4
-12 14 -8 -87.0296 243.958 2
14 12 -8 7.44591 223.287 2
8 14 -12 162.759 363.25 2
-12 -8 -14 632.217 417.983 4
-8 12 -14 -393.113 354.632 2
-14 -12 -8 -283.942 375.705 4
-14 8 -12 458.768 430.234 2
-14 -8 12 217.92 389.831 1
14 8 12 -110.032 576.316 3
8 12 14 765.652 642.942 3
-6 14 12 136.243 247.295 3
-6 -14 -12 57.1262 289.349 1
12 14 6 50.2855 348.706 3
12 14 6 257.198 432.627 2
14 -12 6 -324.24 358.664 1
-14 12 6 88.8656 461.147 2
-14 -12 -6 156.354 163.114 1
-12 -14 6 200.617 197.205 1
6 -14 12 135.314 299.634 1
12 -14 -6 77.2398 294.061 1
-6 -12 14 102.149 364.539 1
-14 -6 12 48.4681 227.832 1
-12 14 -6 601.134 518.287 2
6 14 -12 56.3662 371.58 2
-14 -6 12 22.7761 181.721 2
14 12 -6 66.8552 165.2 2
-12 -6 -14 252.826 302.602 4
-14 -6 12 -52.578 269.698 4
-6 12 -14 375.614 264.483 2
-14 -12 -6 311.565 292.902 4
14 6 12 1499.89 680.528 3
6 12 14 -320.561 341.63 3
-4 14 12 540.331 294.542 3
-4 12 -14 9.27627 312.606 2
-4 -14 -12 242.307 188.145 1
-12 -14 4 232.085 270.859 1
-14 -4 12 -133.128 273.083 1
-12 -14 4 23.4606 397.758 2
12 14 4 -362.433 487.89 2
4 -14 12 422.695 337.55 1
-14 12 4 302.82 378.736 2
-14 -12 -4 -129.383 311.381 1
-12 14 -4 183.277 301.458 2
-4 -12 14 431.273 481.788 1
12 -14 -4 245.601 258.448 1
-12 -4 -14 1181.34 618.495 4
-14 -4 12 -310.028 436.484 4
4 14 -12 502.077 382.84 2
14 -4 -12 332.388 195.669 1
-14 -4 12 -30.5883 142.761 2
14 -12 4 401.965 380.304 1
-14 -12 -4 146.267 328.637 4
14 4 12 -640.579 718.045 3
4 12 14 830.769 585.453 3
14 12 -4 521.09 363.651 2
-2 14 12 1115.47 490.605 3
-2 -14 -12 514.369 423.67 1
-14 12 2 843.228 409.126 1
-12 -14 2 1266.99 789.658 2
2 -14 12 778.443 448.272 1
14 -2 -12 985.182 382.749 1
12 14 2 950.237 573.632 2
-14 12 2 390.57 433.189 2
14 -12 2 552.552 351.443 1
-12 14 -2 529.015 492.818 2
14 12 -2 1412.33 558.294 2
-14 -12 -2 550.631 437.605 1
14 2 12 326.098 488.384 3
-2 -12 14 1003.35 493.555 1
-12 -2 -14 -344.118 271.282 4
-14 -2 12 496.923 370.768 4
2 14 -12 1088.64 617.054 2
12 -14 -2 762.88 448.962 1
-2 12 -14 850.877 493.185 2
-14 -12 -2 66.369 297.476 4
-12 -14 2 705.157 432.152 1
-14 -2 12 1208.01 524.687 2
2 12 14 1074.22 534.058 3
0 14 12 270.967 268.97 3
12 -14 0 292.287 203.871 1
0 -14 -12 50.6161 282.391 1
0 -14 12 -184.301 299.166 1
14 -12 0 439.928 338.492 1
-14 12 0 -23.5352 227.305 1
12 14 0 380.458 468.989 2
14 12 0 577.849 468.459 2
-12 14 0 -304.497 340.015 2
-14 12 0 194.58 397.162 2
14 0 -12 -135.372 224.221 1
-14 0 -12 288.277 395.056 4
-12 0 -14 508.921 429.036 4
-12 0 14 651.471 421.963 4
-12 -14 0 191.675 213.634 1
-14 -12 0 -26.0225 259.744 1
-14 0 12 976.182 595.794 4
0 14 -12 282.422 342.409 2
0 -12 14 206.306 297.243 1
0 12 -14 28.6814 300.596 2
14 0 12 1064.63 560.672 3
0 12 14 91.0023 257.571 3
2 14 12 1767.91 651.612 3
2 -14 -12 1169.87 515.818 1
-2 -14 12 1181.62 496.373 1
12 -14 2 469.883 373.982 1
14 12 2 857.461 517.377 2
-12 14 2 1384.61 713.428 2
-14 12 -2 534.591 282.858 1
12 14 -2 885.245 472.994 2
-14 12 -2 814.576 587.342 2
-12 -14 -2 648.476 430.948 1
-14 -2 -12 -984.086 687.569 4
2 -12 14 1094.78 564.668 1
-12 -2 14 1110.42 484.756 4
-2 14 -12 1036.77 616.043 2
2 12 -14 444.28 384.478 2
14 -12 -2 1011.03 407.612 1
14 -12 -2 1120.98 318.939 3
-14 -12 2 570.398 378.97 1
-2 12 14 1406.12 516.476 3
14 2 -12 986.047 416.37 1
4 14 12 349.989 320.12 3
-4 -14 12 46.4662 348.737 1
4 -14 -12 145.878 239.335 1
14 12 4 301.294 385.84 3
-14 -12 4 37.5457 204.253 1
-12 -4 14 452.753 383.726 1
-14 -12 4 107.877 216.089 2
14 12 4 260.285 290.588 2
-12 14 4 -92.3446 389.196 2
-12 -14 -4 183.544 317.066 1
12 -14 4 371.772 317.534 1
12 14 -4 591.559 436.901 2
-14 12 -4 -14.1312 324.64 2
14 4 -12 229.319 284.438 1
14 -12 -4 465.793 286.579 1
-14 -4 -12 66.8272 403.53 4
-4 14 -12 0.69659 213.272 2
4 -12 14 -318.632 418.124 1
-12 -4 14 468.381 272.897 4
4 12 -14 65.1852 192.068 2
12 4 14 281.332 385.29 3
-4 12 14 69.411 294.353 3
-14 12 -4 387.451 306.659 1
6 14 12 19.2301 348.319 3
-6 -14 12 -196.482 347.377 1
14 12 6 533.918 478.066 3
-12 -6 14 336.85 344.87 1
6 -14 -12 231.56 232.969 1
14 12 6 594.317 460.274 2
-12 14 6 -414.761 511.124 2
-14 -12 6 -25.9678 253.534 2
-12 -14 -6 536.005 448.748 1
-14 -12 6 337.373 248.062 1
14 -12 -6 29.0628 192.476 1
-14 12 -6 173.001 287.394 2
12 14 -6 -54.3424 247.047 2
-6 14 -12 116.149 391.286 2
-14 -6 -12 -131.151 483.156 4
12 -14 6 -79.7057 220.048 1
6 12 -14 152.474 216.853 2
-6 12 14 164.558 214.069 3
12 6 14 864.367 838.551 3
6 -12 14 -124.939 409.598 1
8 14 12 -366.918 318.398 3
-8 -14 12 415.86 504.415 1
8 -12 14 381.466 416.391 1
14 12 8 104.516 499.259 3
8 -14 -12 -11.4287 190.056 1
12 -14 8 273.437 393.267 1
14 -8 12 140.884 241.527 1
-12 14 8 52.6603 434.278 2
-12 -14 -8 -54.0559 226.102 1
14 -12 -8 -260.461 346.047 1
-12 -8 14 -1.21243 182.641 1
-14 -12 8 131.353 289.92 2
-14 -12 8 -24.8199 256.918 1
-14 12 -8 492.748 451.444 2
12 14 -8 182.117 247.3 2
-8 14 -12 726.377 550.069 2
-14 -8 -12 -41.4459 303.31 4
8 12 -14 630.748 329.794 4
8 12 -14 381.216 366.422 2
-12 8 -14 -673.942 450.757 2
-8 12 14 -255.829 225.669 3
12 8 14 -398.906 550.601 3
-7 14 13 -270.423 221.855 3
7 -13 -14 -202.271 286.372 1
-7 -14 -13 -77.4451 275.848 1
13 14 7 1195.81 679.536 3
13 14 7 51.9587 242.862 2
-14 13 7 -278.311 362.789 2
14 -13 7 297.227 330.198 1
-14 -13 -7 223.588 229.961 1
-13 14 -7 157.072 261.746 2
-13 -14 7 -83.9718 373.581 1
13 -14 -7 -188.543 306.423 1
-7 -13 14 -634.482 532.113 1
-14 -7 13 130.733 242.865 1
7 -14 13 -114.847 249.562 1
14 13 -7 -67.704 236.035 2
-13 -7 -14 658.698 395.984 4
7 14 -13 449.509 450.828 2
-7 13 -14 31.7519 332.872 2
14 7 13 390.532 460.085 3
7 13 14 852.127 569.659 3
5 -13 -14 968.742 450.208 1
-5 -14 -13 233.172 191.14 1
-13 -14 5 940.306 454.684 1
13 14 5 47.3216 222.967 2
-13 -14 5 917.846 537.212 2
-14 13 5 243.427 480.682 2
14 -5 -13 440.528 264.945 1
-14 -13 -5 826.607 456.875 1
-5 -13 14 563.061 454.77 1
5 -14 13 593.325 382.706 1
13 -14 -5 653.865 400.482 1
-13 14 -5 147.026 240.51 2
-14 -5 13 1354.69 549.632 1
14 13 -5 1145.44 575.388 2
-13 -5 -14 -93.6139 371.25 4
-14 -5 13 1284.56 560.781 2
5 14 -13 1185.02 650.99 2
-14 -5 13 713.143 378.267 4
-5 13 -14 1155.56 548.485 2
14 -13 5 732.246 457.3 1
14 5 13 380.281 549.142 3
5 13 14 1.53915 325.047 3
-5 14 13 525.528 315.571 3
-3 -14 -13 57.0979 284.755 1
-14 13 3 356.535 214.51 1
-13 -14 3 1290.76 780.155 2
13 14 3 210.574 246.166 2
-14 13 3 -70.879 288.224 2
3 -14 13 218.376 394.962 1
-3 -13 14 -190.582 268.539 1
-14 -13 -3 -50.9974 218.851 1
-13 14 -3 123.476 397.851 2
14 13 -3 325.428 419.292 2
14 -13 3 544.449 309.675 1
-13 -3 -14 707.595 605.997 4
-14 -3 13 -370.944 378.26 4
13 -14 -3 -229.617 323.893 1
3 14 -13 255.936 300.42 2
14 -3 -13 242.831 265.428 1
-3 13 -14 229.035 309.813 2
-14 -3 13 244.66 254.139 2
13 -14 -3 239.71 129.987 3
14 3 13 610.96 678.481 3
3 13 14 800.842 537.722 3
-13 -14 3 174.297 234.409 1
-3 14 13 -822.397 499.763 3
-1 -14 -13 45.2896 229.968 1
-14 13 1 652.281 328.094 1
-13 -14 1 58.8159 257.302 1
14 -13 1 332.284 260.139 1
1 -14 13 276.125 389.162 1
13 14 1 -84.6734 419.02 2
-14 13 1 95.7427 339.775 2
-13 14 -1 -51.5658 401.378 2
14 13 -1 456.991 449.716 2
-1 -13 14 -293.464 392.456 1
-14 1 -13 709.11 446.859 4
-14 -13 -1 9.16234 199.09 1
-13 1 14 688.202 435.277 4
-13 -1 -14 1075.94 466.812 4
-14 -1 13 1745.67 750.401 4
1 14 -13 300.706 467.765 2
-1 13 -14 521.876 493.402 2
14 1 13 876.21 653.822 3
14 -1 -13 369.851 252.908 1
13 -14 -1 228.087 257.039 1
1 13 14 -372.84 508.184 3
-1 14 13 726.394 465.775 3
14 -13 -1 362.488 220.458 1
1 -14 -13 228.626 413.847 1
13 -14 1 143.216 240.881 1
-1 -14 13 -599.366 530.792 1
14 1 -13 278.951 242.934 1
-13 -1 14 464.884 373.339 4
-14 13 -1 20.5172 236.503 1
14 13 1 123.692 233.815 2
-13 14 1 100.05 389.844 2
13 14 -1 -167.447 298.029 2
-14 13 -1 210.608 307.982 2
-14 -1 -13 759.294 527.733 4
1 -13 14 226.435 464.395 1
-13 -14 -1 160.373 236.028 1
-13 1 -14 -79.6947 407.067 4
-14 1 13 1134.68 656.394 4
-1 14 -13 634.927 593.315 2
1 13 -14 927.95 557.928 2
-14 -13 1 155.031 237.087 1
-1 13 14 371.603 448.93 3
1 14 13 884.716 418.709 3
-14 -13 3 83.3317 233.035 1
3 -14 -13 103.713 235.155 1
-14 -13 3 621.637 485.479 2
-3 -14 13 101.526 306.951 1
14 13 3 942.464 574.659 2
-13 14 3 532.9 528.554 2
13 -14 3 322.766 350.841 1
-13 -14 -3 65.8446 187.87 1
-14 13 -3 710.235 443.447 1
13 14 -3 863.313 561.947 2
-14 13 -3 32.3674 317.806 2
3 -13 14 -186.342 303.26 1
-14 -3 -13 469.355 399.577 4
-13 -3 14 600.272 375.751 4
-3 14 -13 266.051 237.843 2
14 -13 -3 641.506 303.554 1
3 13 -14 283.768 414.015 2
14 3 -13 36.3757 213.24 1
13 3 14 -800.01 817.643 3
14 -13 -3 97.0636 123.86 3
-3 13 14 565.042 385.027 3
3 14 13 491.258 496.051 3
5 -14 -13 996.98 468.008 1
14 13 5 212.102 344.524 3
-5 -14 13 1546.37 689.35 1
14 13 5 518.131 407.28 2
-14 -13 5 637.686 441.757 1
-14 -13 5 919.702 560.779 2
-13 14 5 988.704 670.842 2
-13 -14 -5 1049.32 496.883 1
14 -13 -5 641.008 371.783 1
-14 13 -5 1134.52 622.111 2
13 14 -5 621.431 446.196 2
5 -13 14 699.062 481.209 1
13 -14 5 1131.43 492.118 1
-14 -5 -13 840.764 597.548 4
-5 14 -13 705.838 514.853 2
-13 -5 14 260.582 224.716 4
5 13 -14 624.59 452.005 2
13 5 14 347.506 569.014 3
-5 13 14 836.731 386.235 3
-13 -5 14 1117.02 563.534 1
5 14 13 421.747 469.298 3
13 -14 7 -107.435 260.295 1
14 13 7 78.5853 498.397 3
7 -14 -13 -191.48 226.351 1
14 13 7 2.41494 299.427 2
-7 -14 13 662.827 564.051 1
-13 14 7 -111.491 430.588 2
-13 -14 -7 316.86 448.287 1
-14 -13 7 234.926 618.106 2
14 -13 -7 -107.617 160.139 1
-14 -13 7 -24.4742 256.814 1
-14 13 -7 -202.876 383.426 2
13 14 -7 334.38 403.638 2
-13 -7 14 304.377 344.879 1
-14 -7 -13 1395.82 614.684 4
-7 14 -13 -15.1813 290.796 2
7 -13 14 330.512 308.157 1
7 13 -14 56.7074 305.253 2
13 7 14 4.10168 678.953 3
-7 13 14 106.596 243.013 3
-7 -13 -14 -105.218 199.528 1
7 14 13 -63.5866 327.536 3
14 14 0 8120.17 1466.58 2
0 -14 14 9266.32 1654.37 1
-14 -14 0 7790.66 1378.68 1
-14 14 0 7301.08 1566.73 2
0 14 -14 8354.96 1575.23 2
14 -14 0 9037.8 1368.98 1
-14 0 14 3019.67 886.263 4
0 -14 -14 7230.77 1310.53 1
0 14 14 5190.72 1006.58 3
-2 -14 -14 163.926 219.12 1
2 -14 -14 982.706 476.03 1
-14 14 2 390.14 347.909 1
14 14 2 -151.615 379.871 2
14 -14 2 1255.1 540.897 1
-14 14 2 318.823 338.452 2
-2 -14 14 822.58 556.518 1
2 -14 14 556.734 424.353 1
-14 14 -2 677.854 595.074 2
14 14 -2 367.728 293.451 2
-14 -14 -2 696.312 446.525 1
-14 2 -14 -261.121 576.021 4
-14 -2 -14 462.798 391.307 4
-14 -2 14 306.489 476.103 4
-2 14 -14 546.182 350.417 2
2 14 -14 544.888 481.683 2
14 2 14 568.323 471.817 3
14 -14 -2 634.399 312.514 1
-14 -14 2 306.789 420.246 1
-2 14 14 281.696 262.967 3
2 14 14 399.18 422.12 3
-4 -14 -14 647.854 438.819 1
4 -14 -14 110.189 282.867 1
-14 -14 4 117.765 389.174 1
-14 -14 4 383.592 368.705 2
14 14 4 258.146 344.335 2
-14 14 4 -436.002 559.661 2
-4 -14 14 162.439 298.961 1
-14 -14 -4 77.5639 306.611 1
4 -14 14 558.312 426.271 1
-14 14 -4 594.904 368.349 2
14 14 -4 163.762 311.335 2
14 -14 4 216.274 279.537 1
14 -14 -4 205.717 210.453 1
-14 -4 -14 1260.63 549.887 4
-14 -4 14 244.427 305.104 4
-4 14 -14 244.877 325.684 2
4 14 -14 330.868 395.882 2
14 4 14 4.20116 520.403 3
-4 14 14 -483.361 397.077 3
4 14 14 210.015 327.318 3
-6 -14 -14 417.103 353.459 1
6 -14 -14 -377.424 367.164 1
14 14 6 277.748 404.846 3
14 14 6 86.5758 349.285 2
-14 14 6 252.878 421.367 2
-14 -6 14 66.704 327.283 1
-14 -14 6 13.431 293.556 1
-6 -14 14 389.593 453.314 1
-14 -14 -6 152.374 225.177 1
14 -14 -6 126.532 218.089 1
-14 14 -6 245.858 284.896 2
6 -14 14 56.3373 334.971 1
14 14 -6 850.282 491.25 2
-14 -6 -14 219.554 423.799 4
-6 14 -14 80.6269 407.053 2
6 14 -14 -515.921 434.056 2
14 6 14 -1271.17 979.01 3
14 -14 6 116.831 312.507 1
-6 14 14 293.581 218.947 3
6 14 14 310.19 482.678 3
15 0 1 3527.36 780.977 3
15 -1 0 2859.69 658.234 3
15 1 0 3195.61 756.403 3
15 0 -1 2877.64 654.868 3
0 -15 -1 3499.28 838.053 1
0 15 1 2477.52 972.037 2
1 15 0 2760.25 981.243 2
-1 15 0 2763.17 970.767 2
0 15 -1 2915.17 1066.87 2
-15 1 0 1956.26 268.394 2
0 1 -15 2410.34 325.177 4
-15 0 1 3436.74 1155.95 4
-15 0 -1 5954.95 1271.62 4
-15 -1 0 6436.35 1414.93 4
-1 -15 0 2993.06 800.175 1
1 -15 0 2766.52 760.143 1
-1 0 -15 2708.71 391.625 4
0 -15 1 3228.86 876.382 1
-15 0 -1 2010.11 565.828 3
-15 1 0 1354.41 410.671 3
-15 -1 0 3085.73 697.785 3
-15 0 1 2043.53 561.534 3
-15 -2 -1 6100.28 566.103 1
15 -2 1 8693.28 925.89 2
-1 -15 -2 11064.2 1557.12 1
-1 15 2 9088.6 1653.31 2
2 15 1 8235.51 1580.49 2
-2 15 -1 8544.47 1641.59 2
1 15 -2 8412.62 1551.54 2
2 -15 -1 9710.22 1423.76 1
-2 -15 1 10706.4 1533.31 1
-15 2 1 8089.61 736.784 2
1 -15 2 9899.59 1431.47 1
-15 -1 2 9296.01 1673.32 4
-1 2 -15 5677.79 588.15 4
-2 -1 -15 6456.79 707.215 4
-15 -2 -1 9079.71 1676.13 4
-15 2 1 7181.14 946.041 3
-15 -1 2 9003.99 1201.19 3
15 -2 1 9402.43 1225.13 3
15 1 2 9836.73 1349.3 3
-1 -15 -2 9013.38 1183.19 3
15 2 -1 7508.83 1096.3 3
1 15 2 7814.25 1665.26 2
15 -1 2 9277.01 929.763 2
-2 15 1 8264.2 1541.75 2
1 -15 -2 11454.9 1542.36 1
2 15 -1 7938.63 1514.01 2
-1 15 -2 8047.18 1615.05 2
-2 -15 -1 10246.3 1540.65 1
-15 1 2 6408.3 538.538 2
2 -15 1 10598.1 1510.2 1
-1 -15 2 9876.4 1447.16 1
-15 2 -1 9386.69 786.047 2
-2 1 -15 7446.21 751.363 4
-15 -2 1 6854.57 1475.18 4
-15 -2 1 5512.24 469.796 1
-15 -1 -2 9416.04 1598.42 4
-15 1 2 7874.88 1046.42 3
-15 -2 1 7336.79 1153.93 3
15 -1 2 8365.63 1246.98 3
15 2 1 8308.38 1189.26 3
15 -2 -1 9741.14 1135.31 3
-15 -1 -2 5628.17 502.392 1
-15 -2 3 1304.12 517.657 3
2 -15 3 1782.29 619.92 1
15 2 3 1751.19 612.468 3
-2 -15 -3 2372.34 648.264 3
-2 15 3 1704.6 851.312 2
15 -3 2 2359.22 667.222 2
-15 -3 -2 1392.35 336.424 1
3 15 2 1692.54 712.656 2
-15 3 2 1917.14 457.867 2
-3 15 -2 1995.88 815.318 2
2 15 -3 1572.86 703.805 2
-2 -15 -3 1981.58 637.527 1
3 -15 -2 1965.5 652.512 1
15 2 3 1170.1 270.337 2
-15 -2 3 2318.88 855.827 4
-15 -3 -2 2235.31 926.338 4
-15 2 -3 1541.95 304.602 1
-3 -2 -15 2733.73 525.664 4
-15 -2 3 1122.09 237.523 1
-3 -15 2 1223.7 446.231 1
-15 3 2 2196.47 555.56 3
15 -3 2 2065.67 657.217 3
15 3 -2 993.276 219.685 1
15 -3 0 1275.81 503.39 3
0 -15 -3 26.697 175.042 3
15 3 0 160.36 224.689 3
0 15 3 605.23 536.356 2
3 15 0 608.23 449.506 2
-3 15 0 -133.358 375.652 2
-15 0 3 810.171 331.044 4
0 15 -3 -75.7649 278.146 2
15 0 3 98.7372 97.7813 2
0 -15 -3 378.561 312.487 1
-15 0 -3 42.9022 115.924 1
-15 3 0 470.639 232.9 2
-15 0 -3 243.263 488.722 4
-15 -3 0 5.11214 96.3027 1
-15 -3 0 1546.41 845.873 4
-3 -15 0 -319.746 323.331 1
-3 0 -15 1029.29 331.469 4
3 -15 0 242.452 364.512 1
-15 0 3 1355.86 514.279 3
0 -15 3 -74.6644 270.218 1
15 0 3 626.879 365.806 3
15 3 2 1193.62 534.397 3
15 -3 -2 2846.12 585.49 3
2 -15 -3 2466.71 562.54 3
-15 -2 -3 1327.61 299.937 1
15 2 -3 721.684 157.237 1
-15 3 -2 1576.65 398.107 2
2 15 3 1196.38 646.466 2
-3 15 2 2584.94 991.477 2
-15 2 3 2058.45 450.766 2
15 -2 3 2888.1 636.457 2
3 15 -2 1262.35 699.015 2
-2 15 -3 1798.02 775.097 2
2 -15 -3 1479.46 547.76 1
-15 -3 2 1065.47 264.658 1
-3 -15 -2 1600.89 627.135 1
-2 3 15 3216.41 488.45 4
-15 -2 -3 2250.53 851.383 4
-15 -3 2 4892.2 1306.34 4
3 -15 2 1662.76 639.93 1
-15 2 3 2139.79 534.128 3
-15 3 -2 1134.2 218.659 1
15 -2 3 2905.13 773.755 3
-2 -15 3 1406.28 571.848 1
15 3 4 2253.23 682.971 3
3 -15 4 1973.73 653.282 1
-15 -4 -3 2003.37 419.471 1
-3 15 4 2222.78 902.692 2
4 15 3 1601.74 710.029 2
-15 4 3 2013.92 547.843 2
-3 -4 15 2327.89 731.428 1
15 -4 3 2472.11 634.144 2
-3 -15 -4 2127.94 692.178 1
-15 -3 4 1754.51 366.021 1
-4 15 -3 2271.36 862.877 2
15 3 4 2198.78 386.964 2
3 15 -4 2382.53 844.398 2
4 -15 -3 2104.57 667.898 1
3 4 15 1578.19 527.816 4
-15 3 -4 2152.68 406.956 1
-15 -3 4 3004.91 1008.43 4
-15 -4 -3 1204.75 604.411 4
-4 -3 -15 1531.67 469.222 4
-15 3 -4 2245.8 500.53 2
-15 4 3 1553.68 395.769 3
15 -4 3 2127.97 631.38 3
-4 -15 3 2777.26 806.046 1
15 4 -3 2327.55 403.094 1
1 4 15 549.006 331.979 4
-15 -1 4 294.369 198.627 3
-1 -15 -4 636.54 394.539 3
1 -15 4 740.897 404.552 1
15 -4 1 555.911 332.768 2
-1 15 4 594.328 504.042 2
4 15 1 -175.028 300.334 2
-4 15 -1 493.039 346.178 2
-1 -15 -4 192.714 198.138 1
-15 4 1 507.268 281.417 2
1 15 -4 675.221 510.304 2
-15 -4 -1 368.241 205.444 1
15 1 4 543.563 239.635 2
-15 -1 4 -592.982 650.425 4
-4 -1 -15 338.166 302.363 4
-15 -4 -1 665.116 616.101 4
4 -15 -1 -12.5588 271.81 1
-15 1 -4 467.1 201.106 1
-4 -15 1 519.986 323.896 1
-1 -4 15 273.598 231.012 1
15 -4 1 444.44 243.002 3
15 1 4 303.012 267.522 3
15 -4 -1 526.969 271.234 3
1 -15 -4 334.504 253.058 3
-4 1 -15 92.199 178.199 4
-1 -15 4 393.782 250.761 1
15 4 1 809.159 368.429 3
-15 1 4 440.817 236.142 2
1 15 4 78.8309 441.183 2
-4 15 1 328.292 427.012 2
4 15 -1 17.0493 252.483 2
1 -15 -4 387.089 390.661 1
-1 15 -4 492.885 412.178 2
15 -1 4 809.667 326.308 2
-4 -15 -1 589.251 334.171 1
-15 4 -1 370.575 220.195 2
-15 -1 -4 305.606 399.147 4
-1 4 15 516.958 266.438 4
-15 -4 1 1193.36 629.125 4
4 -15 1 217.72 312.131 1
15 -1 4 389.667 319.052 3
-15 1 4 486.987 373.904 3
-15 -4 1 372.684 214.568 1
1 -4 15 996.314 439.268 1
15 4 3 1020.94 494.504 3
-3 -15 4 2285.67 720.642 1
3 -15 -4 1546.99 396.913 3
-15 -3 -4 1780.12 394.063 1
4 -15 3 2566.63 751.01 1
-15 4 -3 1863.36 340.831 1
3 15 4 1433.88 668.636 2
-15 3 4 2425.61 571.429 2
-4 15 3 1590.04 819.227 2
-15 -4 3 1828.82 375.588 1
15 3 -4 1826.05 326.104 1
15 -3 4 2510.98 650.23 2
3 -15 -4 1920.63 644.096 1
4 15 -3 2019.74 832.584 2
-4 -15 -3 2474.2 730.977 1
-3 15 -4 2019.89 804.568 2
-15 -3 -4 678.768 504.64 4
-15 -4 3 2573.11 818.658 4
-15 4 -3 1920.34 489.546 2
-3 4 15 574.816 254.828 4
15 -3 4 1401.44 513.456 3
-15 3 4 1553.78 477.354 3
-5 -15 4 2301.7 811.889 1
5 -15 -4 1645.97 371.696 3
-15 5 4 1343.02 384.399 3
-15 -5 -4 1909.37 460.849 1
-4 15 5 888.078 592.096 2
5 15 4 957.627 597.647 2
4 -15 5 2608.66 805.879 1
-15 5 4 1752.43 522.536 2
15 -4 -5 1236.99 223.117 1
-15 -4 5 2207.21 465.092 1
-4 -15 -5 2621.19 824.365 1
15 5 -4 2368.38 468.696 1
15 -5 4 2173.13 680.912 2
-15 -4 5 1746.66 351.733 2
5 -15 -4 2139.05 653.685 1
-5 15 -4 2074.31 862.45 2
4 15 -5 2310.77 842.285 2
-15 4 -5 2127.2 449.782 1
4 5 15 1240.84 479.692 4
-15 -4 5 2329.79 848.267 4
-15 -5 -4 2254.95 727.451 4
-5 -4 -15 1328.15 488.808 4
-15 4 -5 2198.07 519.839 2
15 -4 -5 1497.08 257.106 1
15 -5 4 2737.9 784.645 3
-4 -5 15 2477.56 767.427 1
15 4 5 1820.87 731.114 3
-2 -5 15 2197.99 694.238 1
-15 -2 5 829.764 426.736 3
-15 -2 5 1643.34 331.931 1
15 5 -2 1277.8 324.026 1
2 -15 5 1605.97 620.151 1
-2 15 5 1354.92 836.437 2
15 -5 2 1622 599.593 2
5 15 2 1568.86 800.877 2
-2 -15 -5 1741.04 604.123 1
-15 -5 -2 1427.25 394.868 1
-15 5 2 1734.38 561.629 2
-15 2 -5 1667.85 399.278 1
-5 15 -2 1281.01 741.062 2
2 15 -5 1493.77 653.839 2
15 -5 2 1572.57 311.228 1
5 -15 -2 1572.64 573.609 1
-15 -2 5 1136.47 674.788 4
-15 -2 5 1066.49 224.995 2
2 5 15 1114.97 491.91 4
-15 -5 -2 1593.79 740.382 4
-5 -2 -15 1345 441.112 4
15 2 5 1638.45 365.264 2
-5 -15 2 985.955 528.475 1
15 -5 2 1685.42 595.33 3
15 2 5 1919.11 758.633 3
-2 -15 -5 2005.3 570.626 3
0 -15 -5 353.307 258.594 3
-15 0 5 -21.1612 338.507 3
-15 5 0 7.39137 61.1107 1
15 -5 0 440.425 370.575 2
0 -15 5 76.187 254.935 1
0 15 5 603.481 590.123 2
0 -5 15 -68.6904 292.304 1
5 15 0 138.846 276.497 2
0 -15 -5 77.8102 277.585 1
-5 15 0 327.104 451.685 2
15 -5 0 201.768 87.9476 1
0 15 -5 391.193 582.862 2
-15 5 0 382.331 323.224 2
-15 0 5 122.303 378.479 4
-15 0 -5 1048.93 580.272 4
15 0 5 324.402 272.748 2
0 5 15 57.8807 265.34 4
-15 -5 0 -367.863 202.308 1
-15 -5 0 1083.38 615.793 4
5 -15 0 199.335 281.727 1
15 0 -5 135.777 90.428 1
-5 -15 0 -6.37192 273.689 1
15 0 5 1179.85 525.687 3
-15 0 -5 -3.96526 92.9308 1
15 -5 0 1046.76 453.15 3
-5 0 -15 1009.63 367.803 4
2 -15 -5 1214.6 362.73 3
15 -5 -2 1625.83 453.966 3
15 5 2 1625.73 637.749 3
-2 -15 5 2295.13 719.538 1
-15 -5 2 1750.59 421.561 1
-15 2 5 1750.54 479.097 2
2 15 5 941.38 650.853 2
15 5 2 1196.03 284.494 2
-5 15 2 1392.4 775.262 2
2 -15 -5 1420.65 544.724 1
5 15 -2 1463.85 688.104 2
-2 15 -5 1301.09 717.608 2
15 -2 5 1891.47 537.974 2
-5 -15 -2 1550.21 627.173 1
-15 -2 -5 2398.23 908.925 4
15 2 -5 1774.7 336.745 1
2 -5 15 2601.75 826.955 1
-15 5 -2 1930.88 517.4 2
-15 5 -2 1829.08 345.931 1
-15 -5 2 1710.34 681.334 4
-2 5 15 371.129 253.745 4
15 -2 5 1940.2 675.569 3
5 -15 2 1923.71 661.226 1
-15 2 5 2217.84 599.123 3
15 5 4 2740.89 840.236 3
-15 -4 -5 1731.88 438.64 1
15 4 -5 2633.97 494.947 1
-4 -15 5 1622.14 619.124 1
-5 -4 15 2480.32 859.953 1
5 -15 4 2399.9 755.548 1
15 -5 -4 1347.18 263.064 1
-15 4 5 1436.6 493.439 2
4 15 5 1051.78 687.104 2
-15 -5 4 1436.35 323.701 2
-5 15 4 1127.41 576.367 2
4 -5 15 2487.67 748.51 1
4 -15 -5 2023.98 676.67 1
-5 -15 -4 1902.38 617.511 1
15 -4 5 2417.97 725.46 2
-15 5 -4 2471.62 476.505 1
5 15 -4 2610.1 912.674 2
-4 15 -5 2028.74 842.156 2
-15 -4 -5 2660.92 937.652 4
-15 -5 4 2038.34 466.603 1
-15 5 -4 2428.02 641.969 2
4 5 -15 816.008 230.163 4
15 -4 5 1264.18 582.84 3
-15 4 5 1186.65 319.99 3
-15 -5 4 2360.71 832.915 4
4 -15 -5 1077.13 327.611 3
15 6 -5 3854.35 680.952 1
-6 -15 5 3534.09 906.982 1
-15 -5 6 3177.45 578.775 2
-15 -6 -5 2810.64 594.381 1
6 5 -15 1305.87 307.841 4
-5 -6 15 4692.02 1047.06 1
6 15 5 2677.53 957.102 2
-5 15 6 1908.13 904.845 2
-15 6 5 2951.31 803.916 2
-5 -15 -6 3240.05 859.669 1
-15 -5 6 3283.99 611.79 1
5 -15 6 3598.19 894.554 1
6 -5 15 2837.73 890.601 1
15 -6 5 3136.89 584.295 1
15 -6 5 3004.15 856.881 2
6 -15 -5 3168.25 750.805 1
-6 15 -5 2907.6 900.341 2
5 15 -6 3246.25 925.449 2
5 6 15 1093.72 562.056 4
-15 -6 -5 3113.31 1002.19 4
-15 -5 6 2241.36 837.701 4
-15 5 -6 3489.87 647.398 1
-6 -5 -15 1390.87 444.239 4
-15 5 -6 3491.58 738.251 2
15 -6 5 3185.21 823.727 3
15 -5 -6 2402.09 375.869 1
6 -15 -5 2863.16 458.356 3
15 5 6 2846.29 879.883 3
15 -3 -6 284.704 111.261 1
-15 3 -6 331.047 167.164 1
-3 15 6 735.408 642.394 2
-3 -6 15 162.725 217.475 1
15 6 -3 430.084 206.662 1
6 15 3 46.6207 332.514 2
-15 -6 -3 475.402 290.114 1
-3 -15 -6 342.976 200.212 1
-15 -3 6 398.009 212.93 1
15 -6 3 559.589 475.844 2
-15 6 3 522.13 222.164 2
3 -15 6 142.142 187.773 1
-6 15 -3 395.98 435.241 2
15 -6 3 501.766 214.552 1
6 -15 -3 563.985 239.094 1
3 15 -6 658.763 446.945 2
-15 -3 6 505.017 199.69 2
3 6 15 -2.60206 281.501 4
-15 -3 6 37.7189 371.873 4
15 -3 -6 481.108 173.564 1
-15 -6 -3 887.215 522.785 4
-6 -3 -15 554.921 354.689 4
15 3 6 271.705 115.719 2
15 -6 3 -680.901 475.289 3
-6 -15 3 5.78712 208.296 1
15 3 6 328.832 394.172 3
-15 -1 6 3899.14 848.712 3
-15 -6 -1 3283.9 606.389 1
-1 15 6 1873.46 1085.78 2
15 -6 1 4007.75 908.536 2
1 -15 6 3053.34 845.171 1
-1 -15 -6 3848.39 934.083 1
6 15 1 3995.32 1070.62 2
15 -6 1 3914.47 512.352 1
-1 -6 15 2903.03 799.254 1
15 1 6 3325.22 598.311 2
-6 15 -1 3240.78 1039.17 2
-15 6 1 3584.52 790.786 2
-15 1 -6 3667.2 619.04 1
1 15 -6 3227.55 1112.41 2
-15 -1 6 3087.65 447.154 2
-15 -1 6 3095.11 932.133 4
15 -1 -6 3107.18 427.132 1
-6 -1 -15 2629.82 667.389 4
6 -15 -1 3690.08 818.29 1
1 6 15 1563.98 514.9 4
-15 -6 -1 1382.16 728.947 4
-6 -15 1 3430.94 864.517 1
15 6 -1 2916.88 517.282 1
15 -6 1 3211.16 754.866 3
15 1 6 2374.87 815.605 3
-1 -15 -6 2638 607.535 3
-15 1 6 3034.66 687.646 3
15 6 1 2200.41 698.02 3
15 6 1 2801.34 463.917 2
1 15 6 2706.8 1116.84 2
-1 -15 6 3187.3 849.294 1
1 -15 -6 3000.34 839.477 1
-15 -6 1 3483.22 627.466 1
-6 15 1 4130.72 1207.25 2
15 -1 6 3749.76 712.105 2
15 1 -6 3038.87 464.706 1
6 15 -1 2459.73 909.841 2
1 -6 15 4142.89 1028.33 1
-1 15 -6 3589.38 1070.6 2
-15 6 -1 3718.54 814.86 2
-6 -15 -1 3210.82 845.2 1
-6 1 -15 1282.52 482.955 4
-15 -1 -6 2727.59 941.281 4
-1 6 15 2523.65 605.408 4
-15 -6 1 4537.98 1085.21 4
15 -6 -1 3247.27 439.596 1
6 -15 1 3720.47 881.674 1
15 -1 6 4870.47 1088.31 3
1 -15 -6 2451.47 539.763 3
-15 6 -1 3212.68 454.534 1
15 -6 -1 3178.7 649.555 3
15 6 3 700.071 463.107 3
6 -15 3 148.727 184.01 1
15 6 3 621.572 283.911 2
3 15 6 713.575 481.25 2
-3 -15 6 602.691 380.58 1
-6 15 3 929.409 497.351 2
-15 -6 3 723.047 284.164 1
3 -15 -6 1014.39 533.768 1
6 15 -3 333.003 287.946 2
-6 -15 -3 1045.06 587.184 1
3 -6 15 441.225 306.134 1
15 -3 6 444.787 174.75 2
-3 15 -6 401.237 404.18 2
-15 6 -3 310.322 155.525 2
-15 -3 -6 1041.03 728.748 4
-15 -6 3 556.417 491.577 4
15 3 -6 803.656 286.074 1
-15 6 -3 657.822 253.098 1
15 -3 6 440.096 459.493 3
3 -15 -6 168.263 205.679 3
15 -6 -3 559.231 191.368 1
-15 3 6 201.807 218.25 3
15 -6 -5 2690.03 411.252 1
15 6 5 2136.03 783.503 3
-15 -6 5 3494.66 627.616 2
-15 5 6 1985.43 661.36 2
5 15 6 1898.19 820.511 2
15 5 -6 3350.94 615.138 1
-5 -15 6 3115.03 894.901 1
-6 15 5 2123.23 1005.99 2
5 -6 15 3638.87 930.26 1
6 -15 5 3517.92 817.841 1
5 -15 -6 2944.29 766.184 1
-6 -15 -5 3176.02 888.656 1
15 -5 6 3148.08 825.956 2
-15 6 -5 3401.74 633.643 1
6 15 -5 3646.7 1032.36 2
-5 15 -6 3311.89 1054.74 2
6 5 15 2422.04 782.226 4
-15 -5 -6 2015.74 810.214 4
5 6 -15 1767.53 400.399 4
-15 6 -5 3604.43 785.989 2
-15 -6 5 2797.37 935.577 4
-15 -6 5 3465.43 682.713 1
-6 -5 15 3816.9 972.357 1
15 -5 6 2252.91 747.412 3
-15 -5 -6 2804.74 592.84 1
-15 5 6 2223.53 446.019 3
5 -15 -6 2501.95 440.751 3
7 -6 15 2380.41 731.202 1
-15 -7 -6 1116.9 409.175 1
15 -6 -7 1204.31 317.114 1
7 15 6 986.915 690.369 2
-6 15 7 919.247 653.719 2
-15 7 6 1253.69 553.736 2
-7 -15 6 1751.07 702.592 1
-6 -15 -7 973.528 521.874 1
-15 -6 7 1430.68 423.264 1
7 -15 -6 1718.37 670.475 1
15 -7 6 1554.77 679.788 2
-15 -6 7 1813.22 462.745 2
-15 6 -7 1744.59 457.527 1
6 -15 7 1569.16 660.648 1
-7 15 -6 1659.9 752.492 2
15 7 -6 1973.33 554.708 1
6 15 -7 1097.95 558.722 2
7 6 -15 808.804 326.261 4
6 7 15 27.351 378.122 4
-6 -7 15 1657.67 674.65 1
-15 -7 -6 1040.94 528.439 4
-15 -6 7 951.002 407.238 4
-7 -6 -15 619.518 390.661 4
-15 6 -7 1190.45 479.931 2
15 -7 6 1972.89 534.194 1
6 7 15 819.003 543.033 3
7 -15 -6 993.851 253.747 3
15 6 7 2194.1 788.39 3
-15 4 -7 386.929 293.08 1
-7 -15 4 -48.2711 259.761 1
7 -15 -4 62.7451 114.708 3
-15 -4 7 367.382 217.911 1
15 -4 -7 232.723 106.862 1
-4 15 7 259.049 321.012 2
15 -7 4 371.128 190.341 1
7 15 4 39.2236 208.946 2
-15 -7 -4 369.778 250.493 1
-4 -15 -7 23.9418 296.284 1
-15 7 4 643.3 362.023 2
15 -7 4 411.153 278.629 2
15 7 -4 197.818 180.045 1
4 -15 7 -66.1916 329.246 1
-7 15 -4 364.231 534.396 2
7 -15 -4 335.33 271.297 1
4 15 -7 656.796 482.816 2
-15 -4 7 318.381 219.245 2
4 7 15 1119.61 489.427 4
-15 -4 7 520.683 566.164 4
-15 -7 -4 1370.03 652.055 4
-4 -7 15 515.272 345.997 1
-7 -4 -15 1013.56 424.164 4
15 -7 4 522.882 451.976 3
15 7 -4 310.675 159.684 2
-15 4 -7 490.873 279.455 2
15 4 7 674.595 550.217 3
15 -4 -7 274.622 116.807 1
-15 -2 7 1313.43 491.502 3
15 7 -2 1678.12 461.868 1
-2 15 7 1242.18 731.473 2
15 -7 2 2048.59 704.097 2
-2 -15 -7 1776.03 598.075 1
15 -2 -7 1823.18 372.088 1
7 15 2 880.324 470.53 2
-15 7 2 1601.69 561.604 2
15 7 -2 2004.35 370.381 2
2 -15 7 1337.81 553.591 1
-15 -7 -2 2127.75 538.795 1
-7 15 -2 2365.37 868.607 2
15 -7 2 2342.06 449.46 1
2 15 -7 2412.35 908.071 2
7 -15 -2 2717.24 772.008 1
-15 -2 7 595.545 473.56 4
-7 -2 -15 1041.89 462.807 4
2 7 15 -181.181 328.304 4
-15 -7 -2 3474.28 1023.77 4
-15 -2 7 1419.29 304.018 2
-2 -7 15 2554.38 798.624 1
15 2 7 2050.43 491.536 2
-7 -15 2 2251.63 800.369 1
15 -7 2 2740.55 705.185 3
-15 2 -7 2325.84 529.753 1
15 2 7 1895.29 718.1 3
-2 -15 -7 1125.58 432.762 3
-15 0 7 2839.69 626.888 3
-15 7 0 4909.99 985.301 2
15 7 0 3072.57 505.754 2
0 15 7 3864.69 1305.8 2
15 -7 0 2900.89 897.486 2
0 -15 -7 3978.07 939.65 1
7 15 0 3011.8 935.484 2
-7 15 0 3243.13 1112.94 2
0 -15 7 3482.92 922.519 1
15 0 -7 3361.91 514.84 1
0 15 -7 3201.46 980.179 2
-15 0 7 7962.32 1460.07 4
-15 0 -7 1895.56 854.928 4
-7 0 -15 1874.14 639.767 4
-7 -15 0 3557.33 973.55 1
-15 -7 0 3059.92 617.375 1
15 0 7 3492.67 676.951 2
-15 -7 0 1677.25 734.602 4
0 7 15 5148.82 976.568 4
7 -15 0 3559.96 802.78 1
15 -7 0 3909.16 557.507 1
15 7 0 2804.53 557.742 1
15 0 7 2948.49 920.863 3
0 -7 15 4164 1022.53 1
0 -15 -7 3141.85 670.095 3
15 -7 0 4857.47 832.773 3
-15 7 0 3390.19 506.464 1
-15 0 -7 3748.44 684.53 1
15 -7 -2 2342.92 481.496 3
7 -15 2 1761.96 607.227 1
-15 -7 2 1987.59 519.948 1
-15 2 7 1883.57 483.346 3
15 2 -7 2354.44 484.342 1
15 7 2 1241.06 570.146 3
2 -7 15 2218.3 738.256 1
-15 -7 2 3746.35 1015.3 4
2 15 7 814.313 727.089 2
15 7 2 2446.42 519.712 2
2 -15 -7 1386.85 533.897 1
-7 15 2 2243.73 929.689 2
-2 -15 7 2916.04 826.331 1
7 15 -2 2598.99 843.693 2
15 -7 -2 2303.54 424.453 1
-7 -15 -2 2141.26 719.346 1
-15 7 -2 2067.5 435.333 1
-2 15 -7 2451.69 923.738 2
-15 7 -2 2531.99 727.663 2
15 -2 7 2297.08 652.81 2
-15 -2 -7 4768.86 1112.99 4
15 -2 7 1705.81 761.447 3
2 -15 -7 1855.93 463.482 3
15 7 4 387.546 489.396 3
4 15 7 530.368 603.315 2
-15 -7 4 574.464 265.144 2
-7 -4 15 151.68 170.434 1
7 -15 4 731.234 446.428 1
-7 15 4 182.809 462.885 2
4 -15 -7 559.841 404.011 1
4 -7 15 604.762 406.257 1
-4 -15 7 591.94 403.1 1
-15 -7 4 508.652 243.353 1
-7 -15 -4 377.06 244.474 1
7 15 -4 177.115 273.674 2
-15 7 -4 532.32 381.104 2
15 -4 7 775.507 463.875 2
-4 15 -7 626.901 454.903 2
15 -7 -4 424.105 193.627 1
-15 -4 -7 837.586 561.009 4
-15 -7 4 -74.5332 374.978 4
15 -4 7 424.781 450.886 3
15 4 -7 361.081 215.884 1
-15 7 -4 723.391 322.961 1
4 -15 -7 681.991 263.106 3
-15 4 7 736.832 363.552 3
15 7 6 518.533 357.811 3
-15 -6 -7 1225.44 404.679 1
6 15 7 567.16 267.593 3
-15 6 7 744.733 470.976 2
6 15 7 1193.45 697.404 2
-7 -6 15 1815.79 700.658 1
-7 15 6 1142.7 689.644 2
-15 7 -6 2240.47 556.021 1
-7 -15 -6 2024.29 749.507 1
15 -7 -6 1320.19 327.695 1
6 -15 -7 1381.05 562.883 1
-6 -15 7 1257.15 589.003 1
-15 -7 6 1956.69 531.726 2
7 -15 6 1239.66 616.207 1
15 -6 7 1686.86 712.94 2
7 15 -6 2487.23 908.005 2
-6 15 -7 1502.9 743.844 2
7 6 15 1.9112 497.309 4
6 -7 15 1572.3 683.308 1
15 -6 7 2098.15 569.876 1
-15 -6 -7 2093.84 802.702 4
6 7 -15 1610.3 484.213 4
-15 7 -6 1170.93 528.654 2
15 6 -7 2027.19 546.948 1
-15 -7 6 1639.03 733.709 4
-15 -7 6 1285.63 448.55 1
6 -15 -7 1301.45 354.224 3
-15 6 7 767.202 232.144 3
8 15 7 -52.8277 385.259 3
-15 -8 -7 128.225 200.134 1
15 -7 -8 202.779 155.908 1
8 15 7 342.792 321.057 2
-7 15 8 388.707 444.684 2
-15 8 7 953.94 608.519 2
8 -7 15 311.593 412.02 1
-7 -15 -8 63.298 276.477 1
-8 -15 7 152.128 226.77 1
8 -15 -7 214.988 219.01 1
-15 -7 8 343.343 279.26 1
-7 -8 15 592.048 359.674 1
-15 7 -8 -50.0604 181.592 1
-15 -7 8 458.831 297.741 2
15 -8 7 157.773 199.084 1
-8 15 -7 332.95 434.138 2
7 15 -8 53.6486 202.164 2
15 8 -7 161.974 276.333 1
8 7 -15 354.672 237.382 4
7 -15 8 603.337 465.445 1
-15 -8 -7 781.1 540.568 4
-15 -7 8 1305.19 633.572 4
-8 -7 -15 316.169 361.871 4
-15 7 -8 44.0583 174.709 2
7 8 15 -511.599 441.552 3
-7 8 -15 108.687 211.064 2
15 7 8 793.772 605.746 3
5 15 -8 1683.37 697.43 2
15 -8 5 2196.69 576.479 1
-8 -15 5 1668.19 643.53 1
-5 15 8 1676.09 824.398 2
8 15 5 1112.47 698.913 2
-15 -8 -5 1546.28 452.093 1
-5 -15 -8 2285.94 726.659 1
-15 8 5 1591.95 627.182 2
15 -8 5 2008.87 913.801 2
-5 -8 15 1960.7 784.891 1
8 -15 -5 1894.73 614.785 1
15 8 -5 2336.48 632.113 1
-8 15 -5 1893.6 809.776 2
5 8 15 440.531 366.72 4
-15 -5 8 1725.75 477.404 2
5 -15 8 1994.91 662.896 1
-15 -5 8 1134.35 682.654 4
-15 -8 -5 901.442 479.918 4
-8 -5 -15 1683.57 595.912 4
15 8 -5 2119.82 466.853 2
5 8 15 599.491 314.602 3
-15 5 -8 1782.03 547.087 2
-15 5 -8 1771.08 525.29 1
-5 8 -15 2300.04 786.277 2
-15 -5 8 1505.6 459.08 1
15 5 8 1653.67 693.066 3
8 -15 -5 1327.99 281.581 3
15 -5 -8 1237.84 293.838 1
15 -3 -8 801.148 263.055 1
-3 15 8 785.996 641.776 2
-3 -15 -8 620.701 472.97 1
8 15 3 259.165 397.492 2
15 8 -3 955.084 359.278 1
-15 -3 8 948.414 358.576 1
15 -8 3 637.444 454.997 2
-15 8 3 598.818 429.511 2
-15 -8 -3 561.52 304.04 1
-3 -8 15 689.218 438.362 1
-8 15 -3 168.302 231.633 2
15 -8 3 762.487 306.215 1
-15 3 -8 867.453 347.95 1
3 -15 8 767.885 487.324 1
8 -15 -3 81.513 217.136 1
3 15 -8 748.575 542.859 2
-15 -3 8 -133.444 360.08 4
15 8 -3 655.976 263.418 2
3 8 15 -37.4316 312.951 4
-8 -3 -15 -44.8417 256.679 4
-15 -3 8 726.625 343.705 2
-15 -8 -3 854.875 384.852 4
15 -8 3 74.3264 333.837 3
-3 8 -15 503.427 386.552 2
-8 -15 3 799.645 532.304 1
15 3 8 486.981 525.325 3
15 -1 -8 2673.57 470.531 1
15 8 -1 2623.08 582.779 1
-1 15 8 744.756 536.028 2
15 -8 1 3178.17 973.734 2
15 1 8 2612.05 607.312 2
-1 -15 -8 2728.65 782.248 1
8 15 1 1653.65 723.297 2
-8 15 -1 2296.69 912.061 2
-15 8 1 1872.93 627.642 2
-15 1 -8 2756.55 611.901 1
-1 -8 15 3256.01 826.596 1
1 -15 8 2468.82 795.913 1
15 8 -1 2793.27 546.521 2
-15 -8 -1 2220.03 569.902 1
1 15 -8 3289.37 1051.27 2
-15 -1 8 1941.72 713.123 4
-8 -1 -15 874.83 378.41 4
8 -15 -1 2677.49 710.884 1
-8 -15 1 2580.78 805.841 1
-15 -8 -1 2952.79 900 4
1 8 15 1134.26 489.597 4
15 -8 1 3252.08 572.84 1
15 -8 1 2695.27 658.84 3
-1 -15 -8 1840.34 498.118 3
15 1 8 2521.32 794.176 3
-15 8 1 2733.5 471.989 1
-15 1 8 1909.5 563.275 3
1 15 8 1639.9 924.071 2
1 -15 -8 2778.08 780.573 1
-8 15 1 2851.3 1029.92 2
15 8 1 2646.52 570.036 2
-15 -1 -8 3099.87 666.94 1
8 15 -1 2726.59 921.488 2
-1 -15 8 3000.01 867.905 1
-15 8 -1 3970.18 945.411 2
15 -8 -1 3019.44 541.747 1
-8 -15 -1 2361.49 772.044 1
-1 15 -8 2937.31 920.511 2
-8 1 -15 1637.06 588.524 4
-15 -1 -8 2272.24 920.296 4
15 1 -8 3136.71 554.336 1
15 -1 8 2694.65 653.885 2
-15 -8 1 1481.56 624.542 4
-15 -8 1 2254.7 573.297 1
15 -1 8 2633.43 772.741 3
1 -15 -8 1886.34 495.143 3
8 -15 1 3391.47 840.887 1
15 -8 -1 2384.63 569.423 3
1 -8 15 3203.29 893.48 1
-15 8 -1 3051.7 531.828 1
15 -8 -3 756.962 246.356 3
-15 3 8 242.363 207.22 3
15 8 3 858.205 572.579 3
3 15 8 -350.337 432.038 3
15 3 -8 661.158 307.15 1
-15 -8 3 56.0824 138.3 2
3 15 8 211.162 340.813 2
-15 -8 3 541.073 378.411 1
8 -15 3 725.945 432.733 1
-3 15 -8 674.466 476.086 2
15 8 3 835.164 355.115 2
3 -15 -8 1211.08 564.186 1
-15 8 -3 893.069 357.936 1
-8 15 3 -69.2547 446.871 2
-3 -15 8 1093 494.493 1
8 15 -3 795.747 508.068 2
-8 -15 -3 630.845 454.503 1
-15 8 -3 741.114 460.036 2
15 -3 8 65.2331 160.872 2
-15 -3 -8 -15.7493 462.77 4
3 -8 15 1268.7 568.793 1
-15 -8 3 -398.755 488.788 4
15 -8 -3 828.084 304.615 1
15 -3 8 584.535 506.499 3
3 -15 -8 1023.6 384.174 3
15 8 5 1899.35 714.999 3
-15 -5 -8 1646.87 675.384 4
5 15 8 890.372 485.592 3
5 15 8 1425.82 731.506 2
-8 15 5 1215.65 743.898 2
5 -15 -8 2315.33 691.112 1
-15 -8 5 1540.51 405.312 2
-8 -15 -5 2228.71 781.486 1
8 -15 5 2035.3 710.447 1
-5 -15 8 2090.06 743.978 1
15 -8 -5 1979.94 412.395 1
-15 -8 5 1786.54 548.216 1
8 15 -5 2156.95 794.745 2
15 -5 8 1479.09 607.216 2
-5 15 -8 1450.05 754.604 2
-15 8 -5 1538.69 596.314 2
-15 -8 5 1552.2 662.43 4
-8 -5 15 1515.45 691.997 1
15 5 -8 1891.02 530.345 1
-15 8 -5 1976.39 501.016 1
5 -8 15 2226.62 780.572 1
-15 5 8 1836.05 437.247 3
15 8 7 -506.598 537.012 3
-15 -7 -8 -13.9724 133.173 1
7 15 8 -248.198 450.814 3
-15 7 8 83.0142 335.144 2
7 15 8 -51.8755 470.042 2
-8 15 7 649.401 597.862 2
-15 8 -7 124.16 230.612 1
7 -8 15 6.40725 256.051 1
15 -8 -7 -1.05564 142.133 1
-8 -15 -7 -9.76051 289.128 1
7 -15 -8 139.996 180.667 1
-15 -8 7 175.001 247.178 2
-7 -15 8 -59.7813 291.397 1
8 -15 7 224.876 217.274 1
8 15 -7 359.462 438.191 2
15 -7 8 -2.20655 142.885 1
-7 15 -8 185.19 359.806 2
7 8 -15 608.738 315.796 4
-8 -7 15 85.9557 311.285 1
-15 -7 -8 579.475 516.468 4
-15 8 -7 661.134 417.18 2
-15 -8 7 -310.011 399.307 4
15 7 -8 96.2235 172.852 1
8 7 15 -455.972 504.009 3
-15 7 8 83.0277 148.627 3
-15 -8 7 176.996 174.885 1
9 15 8 -360.211 468.431 3
-15 -9 -8 99.0392 222.895 1
15 -8 -9 140.451 100.439 1
9 15 8 -725.928 544.039 2
-8 15 9 -69.2742 346.178 2
-15 9 8 -61.1034 303.18 2
-8 -9 15 359.707 339.833 1
-8 -15 -9 466.875 390.511 1
9 -15 -8 785.382 461.379 1
-15 -8 9 291.62 224.351 1
15 -9 8 565.599 447.901 1
-15 8 -9 310.689 220.363 1
-9 -15 8 302.99 273.737 1
-15 -8 9 366.504 188.705 2
-9 15 -8 461.069 377.043 2
9 8 -15 -25.4805 293.626 4
8 15 -9 101.877 227.255 2
9 -8 15 306.335 445.353 1
15 9 -8 206.186 231.115 1
-15 -9 -8 664.111 412.843 4
-15 -8 9 320.947 395.945 4
-15 8 -9 227.329 386.762 2
-9 -8 -15 -72.5793 229.958 4
-8 9 -15 622.767 514.335 2
8 9 15 248.308 434.429 3
8 -15 9 745.968 531.741 1
15 8 9 460.482 321.441 3
-6 15 9 -87.9839 487.276 2
-6 -9 15 -57.7189 307.474 1
-6 -15 -9 280.816 278.719 1
9 15 6 101.12 372.552 2
9 -6 15 716.523 451.639 1
-15 -9 -6 437.895 286.548 1
-15 9 6 -79.965 392.168 2
-9 -15 6 423.866 288.166 1
9 -15 -6 260.294 164.69 1
15 9 -6 627.408 342.773 1
-9 15 -6 327.362 364.328 2
-15 -6 9 386.784 317.703 2
9 6 -15 332.771 267.002 4
6 15 -9 761.011 457.032 2
-15 -6 9 1080.95 464.958 4
-15 -9 -6 1028.54 495.51 4
-9 -6 -15 -429.955 346.351 4
-15 6 -9 284.573 181.136 1
6 -15 9 333.658 345.602 1
15 9 -6 585.242 306.473 2
-15 -6 9 430.298 188.614 1
-15 6 -9 625.47 318.196 2
-6 9 -15 455.926 395.113 2
6 9 15 529.686 433.785 3
15 -9 6 410.813 199.321 1
15 6 9 453.048 402.643 3
15 -6 -9 294.103 169.804 1
-9 -15 4 136.377 328.534 1
9 -15 -4 -6.5802 100.335 3
-4 15 9 98.458 444.634 2
-4 -15 -9 63.0208 262.681 1
15 -4 -9 -107.587 139.439 1
-4 -9 15 -122.289 368.815 1
9 15 4 -273.144 489.523 2
-15 9 4 -25.4743 319.195 2
15 -9 4 -95.986 280.569 2
-15 4 -9 -172.655 224.632 1
-15 -9 -4 -336.902 280.215 1
15 9 -4 84.1235 226.375 1
15 -9 4 286.33 291.58 1
-9 15 -4 136.968 334.373 2
9 -15 -4 -142.936 176.756 1
4 15 -9 371.526 504.149 2
-15 -4 9 18.9333 144.274 2
-15 -4 9 555.799 331.869 4
15 9 -4 291.295 193.594 2
4 9 15 -203.997 401.649 4
4 -15 9 -212.429 326.977 1
-9 -4 -15 1185.58 507.385 4
-15 -9 -4 530.018 442.444 4
-15 -4 9 -283.889 292.109 1
4 9 15 70.9983 407.338 3
-4 9 -15 144.628 256.971 2
15 4 9 1458.63 782.579 3
-15 9 2 1037.49 299.094 1
-2 -15 -9 906.997 478.39 1
15 9 -2 768.176 284.152 1
15 -9 2 775.636 531.252 2
-2 -9 15 741.291 383.252 1
9 15 2 253.612 238.343 2
-15 9 2 608.212 500.416 2
-9 15 -2 1066.41 600.969 2
-15 -9 -2 684.687 371.677 1
15 9 -2 775.017 321.933 2
2 15 -9 1184.7 611.679 2
-15 -2 9 755.971 508.991 4
15 -2 -9 670.023 256.385 1
2 -15 9 730.903 345.092 1
9 -15 -2 755.283 374.497 1
-9 -2 -15 156.429 246.73 4
2 9 15 603.551 444.064 4
-15 -9 -2 -154.743 288.438 4
-15 -2 9 977.281 361.155 2
-9 -15 2 1119.68 628.599 1
15 2 9 625.086 305.264 2
15 -9 2 226.207 266.722 3
2 9 15 1585.13 605.931 3
-2 9 -15 839.822 438.959 2
15 2 9 -1122.77 700.523 3
15 -9 2 991.584 360.499 1
-15 2 -9 1038.84 427.892 1
15 9 0 305.763 260.194 1
0 15 9 217.602 211.054 3
15 -9 0 -432.164 419.522 2
0 -15 -9 277.74 250.093 1
-15 9 0 362.418 231.302 1
0 -9 15 56.7409 180.359 1
-15 0 -9 463.147 270.048 1
9 15 0 151.412 292.479 2
-9 15 0 209.308 308.217 2
15 9 0 277.004 230.659 2
15 -9 0 -167.237 205.902 1
-15 9 0 294.237 379.037 2
0 -15 9 304.809 405.196 1
-15 0 9 848.079 463.754 4
-15 0 -9 914.87 668.084 4
0 15 -9 433.127 454.244 2
-9 0 -15 -531.17 370.577 4
-9 -15 0 394.8 332.571 1
-15 -9 0 290.862 249.586 1
-9 0 15 271.298 173.825 4
15 0 9 66.7046 129.253 2
-15 -9 0 -87.8191 324.027 4
0 9 15 -106.311 265.615 4
9 -15 0 -171.445 280.95 1
0 -15 -9 -342.526 339.553 3
15 0 -9 109.505 181.872 1
0 9 -15 342.056 267.4 2
15 0 9 -636.219 414.146 3
15 -9 0 -58.3304 263.455 3
15 -9 -2 759.332 342.043 1
2 15 9 384.131 412.703 3
9 -15 2 1273.77 564.507 1
2 -15 -9 1423.79 577.113 1
15 9 2 783.728 323.791 2
-9 15 2 618.104 469.584 2
-15 -2 -9 404.178 328.485 4
2 -9 15 916.109 550.309 1
15 2 -9 1080.54 406.2 1
9 15 -2 336.139 452.948 2
-15 9 -2 430.947 205.905 1
-9 -15 -2 676.922 428.913 1
-15 9 -2 910.802 505.659 2
-2 -15 9 562.264 407.831 1
-2 15 -9 223.922 348.282 2
15 -2 9 994.016 421.728 2
-15 -9 2 38.3845 301.504 4
2 -15 -9 499.98 284.741 3
15 -2 9 -635.454 533.362 3
2 9 -15 837.903 473.262 2
-15 -9 2 621.063 365.396 1
15 -9 -2 1285.02 350.966 3
-15 4 9 479.539 271.887 3
4 15 9 284.579 410.795 3
15 9 4 -203.805 312.822 3
15 4 -9 168.325 184.852 1
15 9 4 450.891 345.176 2
-15 -9 4 284.293 326.652 2
4 -15 -9 192.714 200.429 1
-15 -9 4 128.134 276.343 1
-9 15 4 142.117 353.667 2
9 -15 4 199.358 289.142 1
-9 -15 -4 -236.52 413.367 1
9 15 -4 221.154 248.572 2
4 -9 15 238.881 392.935 1
-9 -4 15 -69.2641 202.271 1
-4 -15 9 503.5 422.388 1
15 -4 9 89.0117 270.843 2
-15 9 -4 176.849 184.342 2
-4 15 -9 -233.305 243.828 2
15 -9 -4 30.9481 140.12 1
-15 -4 -9 1258.74 718.149 4
-15 9 -4 172.926 183.472 1
-15 -9 4 841.212 526.871 4
-15 9 -6 551.092 330.425 1
15 9 6 -51.8219 355.19 3
6 15 9 221.966 248.766 3
-9 -6 15 415.473 371.39 1
6 -15 -9 413.412 383.97 1
-9 15 6 639.216 597.54 2
-15 -9 6 780.533 431.667 2
-9 -15 -6 207.797 268.506 1
15 -9 -6 307.069 228.73 1
9 -15 6 204.14 260.688 1
-6 -15 9 678.16 465.823 1
9 15 -6 321.701 438.517 2
-15 -9 6 122.466 236.631 1
-6 15 -9 497.964 500.465 2
-15 9 -6 612.294 411.384 2
-15 -6 -9 664.559 496.859 4
6 -9 15 430.271 337.317 1
6 9 -15 908.068 316.888 4
-15 -9 6 -371.743 366.998 4
9 6 15 -138.572 344.636 3
15 6 -9 310.365 205.391 1
-15 6 9 699.013 288.452 3
15 9 8 728.656 501.557 3
-15 -8 -9 151.9 177.32 1
8 15 9 656.631 464.959 3
-9 15 8 413.916 401.065 2
-15 9 -8 410.482 335.814 1
15 -9 -8 381.512 212.709 1
-9 -15 -8 171.467 229.259 1
15 -8 9 437.377 353.334 1
8 -15 -9 -162.531 260.247 1
-15 -9 8 -202.535 365.79 2
-9 -8 15 985.33 636.097 1
-8 -15 9 565.797 400.221 1
-8 15 -9 168.224 407.181 2
9 15 -8 402.824 446.039 2
8 9 -15 557.701 273.267 4
-15 9 -8 601.667 444.495 2
-15 -8 -9 213.8 450.044 4
-15 -9 8 796.136 437.707 4
9 -15 8 217.907 339.812 1
15 8 -9 238.729 232.696 1
-15 8 9 356.397 136.297 3
9 8 15 267.001 416.926 3
8 -9 15 35.4854 184.649 1
-15 -9 8 342.605 362.685 1
-9 -10 15 721.807 482.235 1
10 15 9 586.377 377.763 3
-15 -10 -9 782.081 391.135 1
15 -9 -10 364.352 232.062 1
9 -15 10 937.737 462.74 1
-9 15 10 21.8875 383.807 2
-15 10 9 299.193 273.706 2
-9 -15 -10 416.544 404.737 1
10 -15 -9 701.36 326.678 1
15 -10 9 966.953 553.064 1
10 -9 15 725.699 429.867 1
-15 -9 10 726.715 475.914 1
-15 -9 10 945.997 568.032 2
-10 -15 9 326.564 326.215 1
-10 15 -9 666.155 497.701 2
10 9 -15 -379.964 374.545 4
9 15 -10 1273.92 635.939 2
-15 -10 -9 490.392 559.639 4
-15 9 -10 465.087 459.853 2
-10 -9 -15 929.842 467.88 4
-9 10 -15 369.217 452.602 2
15 10 -9 630.156 358.488 2
9 10 15 -194.989 402.258 3
15 9 10 -170.126 519.581 3
15 -7 -10 765.009 257.456 1
7 -15 10 1043.24 507.81 1
10 15 7 554.71 330.419 3
10 -7 15 1284.83 577.166 1
-7 15 10 1124.51 942.539 2
-7 -15 -10 886.064 442.559 1
10 15 7 778.837 661.632 2
-15 -10 -7 954.964 452.531 1
-15 10 7 1205.28 498.073 2
-10 -15 7 1525.87 699.622 1
10 -15 -7 1199.71 471.823 1
-15 -7 10 1100.65 464.299 2
-10 15 -7 1386.27 749.774 2
10 7 -15 281.083 266.431 4
7 15 -10 918.564 667.861 2
-15 -7 10 640.151 447.523 4
-10 -7 -15 111.446 266.401 4
-15 -7 10 1090.89 526.201 1
15 10 -7 1583.83 510.125 2
-15 7 -10 873.876 468.715 2
-7 10 -15 1576.54 680.495 2
15 -10 7 1645.36 592.3 1
7 10 15 1453.76 738.702 3
-15 -10 -7 1022.68 649.956 4
15 7 10 1009.74 558.354 3
-7 -10 15 844.215 463.784 1
-15 5 -10 525.827 313.518 1
-10 -15 5 621.738 415.187 1
-5 -15 -10 143.915 179.217 1
10 15 5 80.2044 336.022 2
-15 10 5 1045.53 646.365 2
-15 -10 -5 155.671 140.739 1
15 10 -5 80.4883 175.36 1
15 -10 5 266.868 185.833 1
10 -15 -5 461.337 370.017 1
-15 -5 10 73.2869 197.177 1
-10 15 -5 -2.98993 326.567 2
-15 -5 10 201.616 148.901 2
5 15 -10 -39.4034 302.031 2
15 10 -5 339.87 294.44 2
-15 -5 10 80.5331 331.118 4
-10 -5 -15 585.926 476.846 4
-15 -10 -5 296.186 439.883 4
-5 10 -15 30.6047 178.42 2
5 10 15 209.103 304.371 3
5 -15 10 213.878 304.589 1
15 5 10 1131.29 743.84 3
-5 -10 15 164.183 301.354 1
15 -10 3 1481.95 521.149 1
-3 -10 15 791.3 498.265 1
-3 -15 -10 1119.98 577.732 1
10 15 3 756.677 484.999 2
15 10 -3 766.931 379.441 1
-15 10 3 691.476 533.446 2
15 -3 -10 941.725 325.633 1
-15 -10 -3 557.329 367.454 1
-10 15 -3 902.626 555.908 2
15 10 -3 1405.34 490.707 2
10 -15 -3 634.16 318.238 1
3 15 -10 1034.27 619.945 2
-15 3 -10 1084.16 468.823 1
-15 -3 10 479.262 475.139 4
-10 -3 -15 270.8 397.055 4
3 10 15 681.41 493.192 4
-15 -3 10 785.111 299.433 2
-15 -10 -3 688.912 495.767 4
-15 -3 10 1095.69 445.909 1
3 -15 10 621.229 400.959 1
-3 10 -15 1223.5 577.51 2
3 10 15 1746.24 708.649 3
15 3 10 1855.5 775.98 3
-10 -15 3 1269.79 560.228 1
1 -15 10 -199.421 289.719 1
-1 15 10 -16.1907 243.246 3
-1 -10 15 299.509 258.283 1
-15 10 1 118.552 153.155 1
15 10 -1 6.67236 198.497 1
-1 -15 -10 36.6882 178.918 1
15 -10 1 131.681 464.551 2
10 15 1 2.30682 230.304 2
-15 10 1 221.551 448.659 2
15 -1 -10 -269.736 200.197 1
-10 15 -1 490.024 280.12 2
15 10 -1 282.125 323.447 2
15 -10 1 54.44 176.741 1
-15 1 -10 123.705 141.356 1
-15 -10 -1 -67.8863 236.225 1
-15 1 -10 1452.82 788.7 4
-10 1 15 119.83 237.924 4
-15 -1 10 -500.415 582.506 4
-10 -1 -15 620.545 463.339 4
1 15 -10 -32.5744 296.475 2
-10 -15 1 92.4938 255.934 1
-15 -10 -1 574.753 441.548 4
1 10 15 -251.523 430.02 4
15 1 10 -10.5458 220.029 2
10 -15 -1 -97.6701 187.653 1
15 -10 1 248.089 324.167 3
-1 -15 -10 743.275 368.639 3
-1 10 -15 -134.432 238.391 2
1 10 15 154.681 296.22 3
15 1 10 -365.752 413.929 3
15 10 1 88.0034 157.919 1
10 -15 1 10.5242 264.343 1
1 15 10 239.523 292.988 3
15 -10 -1 -33.4536 318.102 2
1 -10 15 253.01 260.5 1
15 -10 -1 -31.0133 144.075 1
1 -15 -10 150.348 187.021 1
-15 10 -1 -172.358 252.709 1
15 10 1 435.778 336.358 2
-10 15 1 -121.076 304.69 2
10 15 -1 -604.867 372.302 2
-15 10 -1 288.528 271.197 2
-15 1 10 1117.87 587.2 4
-10 1 -15 361.666 407.437 4
-15 -1 -10 446.407 441.847 4
-1 15 -10 333.495 359.289 2
-1 -15 10 238.789 222.569 1
-10 -1 15 -11.4522 175.136 4
15 -1 10 160.919 327.056 2
15 1 -10 236.705 192.303 1
-15 -10 1 -325.706 423.84 4
-15 -10 1 -3.57533 192.157 1
-15 -1 -10 172.256 127.578 1
-1 10 15 589.481 404.942 3
15 -1 10 -29.4866 381.432 3
1 10 -15 -310.479 307.255 2
15 -10 -1 -236.187 250.45 3
-10 -15 -1 338.187 324.891 1
15 -10 -3 951.658 261.805 3
3 15 10 2147.16 714.494 3
-15 -10 3 493.341 424.649 1
15 10 3 579.315 430.577 3
-15 -10 3 990.402 542.311 2
3 -15 -10 1368.27 542.347 1
10 -15 3 901.036 423.935 1
15 10 3 973.877 456.038 2
3 -10 15 1139.44 577.026 1
-10 15 3 598.635 545.797 2
15 3 -10 1233.15 438.839 1
10 15 -3 924.859 640.491 2
-10 -15 -3 737.008 394.887 1
-15 10 -3 1192.76 584.245 2
-15 10 -3 1102.51 479.843 1
15 -3 10 659.175 404.488 2
-3 15 -10 914.355 645.162 2
-15 -3 -10 1321.57 699.453 4
-3 -15 10 390.662 400.665 1
-15 -10 3 682.734 555.52 4
15 -10 -3 879.721 363.428 1
3 10 -15 1647.32 637.735 2
5 15 10 101.869 252.783 3
-15 5 10 122.174 153.536 3
15 10 5 341.941 280.213 3
-10 -5 15 310.309 212.382 1
15 10 5 323.629 327.673 2
5 -15 -10 204.566 225.462 1
15 5 -10 518.544 351.692 1
-15 -10 5 202.694 257.949 2
-10 15 5 -261.35 533.145 2
-15 -10 5 192.923 328.321 1
-10 -15 -5 247.081 272.233 1
5 -10 15 296.391 226.572 1
10 -15 5 273.144 274.301 1
15 -10 -5 344.717 250.271 1
10 15 -5 546.232 431.226 2
-15 10 -5 29.2987 304.403 2
-5 15 -10 -250.924 378.894 2
-5 -15 10 376.221 353.331 1
-15 -5 -10 1092.35 705.871 4
-15 10 -5 267.528 280.413 1
-15 -10 5 906.11 513.579 4
10 5 15 515.887 365.659 3
5 10 -15 -342.177 452.443 2
15 -7 10 1343.69 528.546 1
15 7 -10 1428.94 526.355 1
-15 10 -7 1918.41 599.243 1
15 10 7 873.565 458.031 3
7 15 10 712.649 316.126 3
7 -15 -10 1523.15 583.193 1
-10 15 7 815.113 581.279 2
-10 -15 -7 1092.83 569.124 1
-7 -15 10 2039.66 751.014 1
15 -10 -7 859.707 297.261 1
-15 -10 7 1749.74 633.926 2
7 -10 15 1278.89 709.224 1
10 15 -7 1065.16 637.846 2
-7 15 -10 795.818 573.464 2
-15 -10 7 1405.71 588.904 1
-15 10 -7 1172.32 576.892 2
10 -15 7 856.321 519.452 1
-15 -7 -10 -70.7621 297.828 4
7 10 -15 446.864 466.545 4
-10 -7 15 1574.13 747.852 1
-15 -10 7 -375.483 459.994 4
10 7 15 1047.63 631.223 3
-15 7 10 829.257 261.534 3
15 10 9 -255.671 555.813 3
10 -15 9 492.022 449.172 1
-15 -9 -10 808.449 402.585 1
9 15 10 -360.354 614.127 3
-15 -10 9 284.387 245.169 1
-10 15 9 388.004 471.777 2
15 -10 -9 321.887 221.66 1
-10 -15 -9 653.606 383.237 1
9 -15 -10 480.982 248.536 1
-10 -9 15 694.93 538.913 1
-15 -10 9 897.649 479.648 2
-9 15 -10 298.957 623.07 2
10 15 -9 571.542 511.001 2
-9 -15 10 939.335 508.393 1
9 10 -15 720.194 544.272 4
-15 10 -9 599.766 418.035 2
-15 -9 -10 551.303 369.135 4
9 -10 15 839.31 679.791 1
-10 9 -15 580.695 468.193 2
10 9 15 1546.52 885.644 3
15 -9 10 820.462 459.289 1
15 -8 -11 325.124 204.918 1
11 15 8 28.3398 339.263 3
-8 -15 -11 203.26 345.349 1
11 15 8 111.688 324.808 2
-15 -11 -8 246.932 257.252 1
-15 11 8 567.77 506.23 2
8 -15 11 302.738 311.465 1
11 -15 -8 362.982 306.973 1
11 -8 15 448.392 409.411 1
-11 -15 8 363.065 373.993 1
-15 -8 11 471.99 392.355 2
11 8 -15 908.499 479.787 4
8 15 -11 634.143 542.471 2
-15 -8 11 248.644 207.961 1
-11 -8 -15 -135.423 346.455 4
-15 -11 -8 838.072 449.048 4
-15 -8 11 314.684 342.077 4
-8 -11 15 708.008 455.546 1
15 11 -8 513.272 422.005 2
-8 11 -15 274.576 314.014 2
-15 8 -11 180.075 291.577 2
15 -11 8 430.585 447.975 1
-11 15 -8 -105.223 369.346 2
8 11 15 -271.885 416.677 3
15 8 11 610.302 654.531 3
6 -15 11 171.794 319.288 1
-6 -15 -11 -90.698 206.455 1
11 15 6 -510.126 519.27 2
-15 11 6 131.567 422.516 2
-11 -15 6 502.598 388.922 1
-15 -11 -6 144.688 196.259 1
-15 -6 11 248.843 246.618 1
11 -15 -6 387.933 373.13 1
15 -11 6 737.308 464.391 1
-11 15 -6 438.903 511.582 2
-15 -6 11 415.705 259.969 2
6 15 -11 319.485 433.348 2
15 11 -6 221.026 304.72 2
-11 -6 -15 762.648 448.457 4
-15 -6 11 -548.74 465.381 4
-15 -11 -6 -761.84 567.607 4
-6 -11 15 190.15 323.735 1
-6 11 -15 507.769 383.422 2
6 11 15 166.166 368.82 3
15 6 11 905.393 718.888 3
4 -15 11 875.835 525.272 1
-11 -15 4 928.21 474.176 1
-4 15 11 1015.73 380.599 3
15 -11 4 1529.7 492.986 1
-4 -15 -11 905.345 437.657 1
15 -4 -11 787.083 344.914 1
11 15 4 944.25 540.946 2
-15 11 4 610.385 484.379 2
-15 -11 -4 583.599 316.736 1
-11 15 -4 1146.84 743.908 2
11 -15 -4 833.63 410.541 1
15 11 -4 1299.66 506.23 2
4 15 -11 1629.52 749.108 2
-11 -4 -15 1544.31 665.987 4
-15 -4 11 731.037 475.332 4
-15 -4 11 1130.58 402.555 2
-15 -4 11 1459.7 527.985 1
-15 -11 -4 328.599 287.627 4
-4 -11 15 1332.14 675.859 1
-4 11 -15 1838.86 687.078 2
4 11 15 665.927 452.499 3
15 4 11 1117.86 680.024 3
-2 15 11 -3.24466 340.89 3
-15 11 2 67.7015 152.276 1
-2 -15 -11 -46.2705 295.737 1
-15 2 -11 -202.029 206.863 1
15 11 -2 107.78 196.649 1
11 15 2 -490.575 395.294 2
-15 11 2 -209.65 359.905 2
-11 15 -2 229.565 375.446 2
-15 -11 -2 -149.935 202.07 1
15 11 -2 446.409 347.773 2
15 -11 2 96.7142 207.172 1
-15 -2 11 185.618 381.397 4
-11 -2 -15 -518.201 449.484 4
2 15 -11 -0.34377 249.979 2
11 -15 -2 -23.4829 226.674 1
-15 -11 -2 39.5726 374.565 4
-2 11 -15 175.84 337.316 2
-15 -2 11 527.176 341.249 2
-11 -15 2 -189.955 359.46 1
15 2 11 141.234 289.412 2
-2 -11 15 -25.2734 322.433 1
15 2 11 209.138 348.042 3
2 11 15 -331.666 286.203 3
15 -2 -11 139.982 195.16 1
2 -15 11 349.395 335.949 1
0 15 11 1045.92 389.525 3
0 -15 -11 2355.52 766.892 1
15 0 -11 1605.58 441.592 1
-15 11 0 1528.22 477.758 1
15 -11 0 1352.49 464.406 1
-15 0 -11 1106.06 422.342 1
11 15 0 1369.61 680.482 2
-11 15 0 1798.23 819.783 2
15 11 0 1754.66 598.976 2
-15 11 0 590.119 437.073 2
-15 0 -11 1152.48 555.521 4
-15 0 11 205.122 463.026 4
-11 0 -15 870.095 445.532 4
-11 0 15 238.842 243.23 4
-11 -15 0 1579.34 688.577 1
0 15 -11 1227.76 748.328 2
-15 -11 0 1551.84 571.626 1
15 0 11 1567.95 577.647 2
-15 -11 0 2000.86 774.107 4
0 11 -15 1774.03 685.162 2
15 -11 0 717.392 339.946 3
15 0 11 1962.32 766.055 3
0 11 15 273.148 313.61 3
0 -15 11 1527.75 631.04 1
0 -11 15 2032.96 818.662 1
11 -15 0 1690.3 593.57 1
2 -11 15 35.4798 231.063 1
2 15 11 241.747 294.709 3
2 -15 -11 -11.9376 250.349 1
11 -15 2 57.4091 176.264 1
15 11 2 154.046 222.788 2
-11 15 2 58.1478 415.525 2
-15 11 -2 -36.4433 154.361 1
11 15 -2 87.1766 280.071 2
-15 11 -2 94.631 200.399 2
-11 -15 -2 -234.102 339.931 1
-11 2 -15 740.76 472.819 4
-15 -2 -11 287.908 553.832 4
-2 15 -11 178.359 345.996 2
15 2 -11 301.032 239.085 1
-11 -2 15 -60.0088 214.353 4
-15 -11 2 245.796 300.3 4
-2 -15 11 -155.418 201.778 1
2 11 -15 -127.485 316.484 2
-2 11 15 -154.217 343.355 3
-15 -11 2 176.054 209.186 1
15 -11 -2 177.491 144.659 3
15 -11 -2 294.097 295.458 1
4 15 11 294.447 283.438 3
15 11 4 1173.26 559.369 3
4 -11 15 1246.13 584.544 1
4 -15 -11 836.674 470.219 1
-15 -11 4 1017.1 502.193 1
-15 -11 4 1787.39 670.935 2
-11 -4 15 1682.64 658.662 1
15 11 4 965.9 534.035 2
-11 15 4 229.58 307.262 2
15 4 -11 1503.16 524.377 1
11 -15 4 1035.44 540.968 1
-11 -15 -4 581.226 354.032 1
11 15 -4 1254.3 643.131 2
-15 11 -4 1210.5 660.552 2
-15 11 -4 1311.01 458.367 1
15 -11 -4 1206.89 370.876 1
-4 15 -11 1392.97 738.009 2
-15 -4 -11 607.76 421.915 4
-15 -11 4 112.053 397.199 4
-4 -15 11 1700.97 655.839 1
11 4 15 1670.56 758.235 3
-4 11 15 883.544 364.495 3
4 11 -15 1660.96 694.793 2
6 15 11 192.575 328.156 3
15 11 6 -870.462 615.323 3
15 11 6 203.198 221.046 2
6 -15 -11 225.145 207.04 1
15 6 -11 423.299 387.922 1
-11 15 6 179.368 386.067 2
6 -11 15 -37.4246 302.657 1
-15 -11 6 615.633 411.825 2
-11 -15 -6 138.11 187.109 1
-11 -6 15 42.947 268.28 1
-15 -11 6 231.582 260.583 1
15 -11 -6 154.767 175.019 1
11 15 -6 -22.9382 335.722 2
-15 11 -6 -365.598 363.772 2
11 -15 6 530.149 411.193 1
-6 15 -11 -21.8581 319.963 2
-15 -6 -11 1713.11 731.67 4
-6 -15 11 422.565 439.614 1
-15 11 -6 352.188 241.258 1
-6 11 15 -572.355 337.329 3
6 11 -15 482.724 421.408 2
11 6 15 587.899 532.347 3
8 15 11 -415.224 532.865 3
15 11 8 -218.232 434.602 3
8 -15 -11 731.857 490.159 1
15 -8 11 122.047 200.095 1
-11 15 8 -346.151 621.776 2
-11 -15 -8 463.631 360.208 1
15 -11 -8 306.681 231.378 1
-15 -11 8 -533.392 578.771 2
8 -11 15 906.628 579.298 1
-11 -8 15 41.7534 260.265 1
11 15 -8 488.736 401.947 2
-8 15 -11 426.942 436.275 2
-15 11 -8 108.958 213.804 2
-15 -8 -11 -146.311 429.035 4
8 11 -15 342.449 449.484 4
-15 -11 8 200.823 363.406 1
-8 -15 11 135.314 296.68 1
8 11 -15 204.62 213.227 2
11 8 15 349.163 490.133 3
11 -15 8 492.885 187.612 1
-15 8 11 109.144 113.306 3
12 15 7 636.799 517.492 3
-7 -15 -12 562.326 414.92 1
12 15 7 1023.8 604.641 2
-15 12 7 832.486 686.591 2
-15 -12 -7 525.836 387.29 1
7 -15 12 361.214 398.832 1
-15 -7 12 900.086 491.467 1
-12 -15 7 1028.54 595.514 1
12 -15 -7 599.888 403.213 1
15 -12 7 719.479 465.491 1
-12 15 -7 483.75 388.745 2
-15 -7 12 493.088 391.707 2
-7 -12 15 605.981 481.805 1
7 15 -12 654.722 486.113 2
15 12 -7 618.219 367.008 2
-12 -7 -15 -86.1447 412.186 4
-15 -7 12 -66.9019 285.025 4
-15 -12 -7 234.999 441.703 4
-7 12 -15 918.369 556.015 2
-15 7 -12 651.82 263.795 2
7 12 15 84.618 320.499 3
15 7 12 605.482 614.572 3
-5 15 12 153.428 191.874 3
-5 -15 -12 672.533 478.322 1
15 -12 5 878.685 439.668 1
-12 -15 5 383.731 337.064 1
5 -15 12 730.602 483.347 1
12 15 5 311.708 463.061 2
-15 12 5 418.341 419.066 2
-15 -5 12 950.546 469.292 1
-15 -12 -5 873.232 493.974 1
15 -5 -12 129.661 110.965 1
12 -15 -5 161.288 182.134 1
-12 15 -5 337.474 525.487 2
15 12 -5 910.244 446.644 2
-5 -12 15 72.7678 401.87 1
-15 -5 12 695.148 431.084 2
5 15 -12 547.738 405.912 2
-12 -5 -15 -135.338 409.194 4
-15 -5 12 353.15 315.752 4
-15 -12 -5 -131.362 415.51 4
-5 12 -15 924.551 512.196 2
15 5 12 -530.589 675.861 3
5 12 15 184.328 485.247 3
-15 12 3 1435.69 466.314 1
-3 15 12 797.37 365.889 3
-3 -15 -12 1741.26 664.955 1
3 -15 12 1984.39 768.498 1
12 15 3 1340.69 680.525 2
-15 12 3 1378.14 635.388 2
-15 -12 -3 1072.72 584.007 1
15 -3 -12 991.097 357.273 1
-12 15 -3 1233.39 650.138 2
15 12 -3 1243 559.23 2
-3 -12 15 1331.13 600.572 1
-12 -3 -15 -155.032 304.013 4
12 -15 -3 1474.93 530.064 1
-15 -3 12 602.893 578.785 4
15 -12 3 1494.64 612.408 1
3 15 -12 1371.18 719.936 2
-15 -12 -3 1468.36 691.964 4
-15 -3 12 945.54 411.763 2
-3 12 -15 1352.69 622.607 2
15 3 12 317.108 433.62 3
3 12 15 -96.817 367.525 3
-12 -15 3 1390.68 659.369 1
-1 15 12 1095.76 433.734 3
1 -15 12 1085.13 481.121 1
-1 -15 -12 1178.01 510.79 1
-15 12 1 799.19 343.093 1
12 15 1 470.699 228.818 2
15 -12 1 979.637 437.137 1
-15 12 1 778.229 580.387 2
-12 15 -1 1526.68 785.575 2
15 12 -1 832.58 485.132 2
15 -1 -12 1182.44 400.589 1
-15 1 -12 477.233 458.606 4
-15 -12 -1 934.714 463.611 1
-12 1 15 569.936 439.184 4
-15 -1 12 400.5 388.391 4
-12 -1 -15 1139.2 582.631 4
1 15 -12 981.661 613.268 2
-1 -12 15 956.067 557.377 1
-12 -15 1 690.392 407.51 1
-15 -12 -1 1095.62 539.109 4
-1 12 -15 1432.72 651.857 2
15 1 12 -233.323 433.339 3
12 -15 -1 1212.28 462.738 1
1 12 15 1377.19 556.473 3
-1 -15 12 886.836 554.78 1
1 15 12 609.421 369.637 3
15 1 -12 968.714 402.198 1
15 -12 -1 1747.25 572.118 1
12 -15 1 1326.92 490.625 1
1 -15 -12 792.538 473.47 1
-15 12 -1 1017.81 440.778 1
15 12 1 1593.12 656.23 2
-12 15 1 1165.5 654.06 2
12 15 -1 970.945 566.947 2
-15 12 -1 964.639 620.827 2
-15 1 12 982.084 419.98 4
-12 -15 -1 1467.48 671.645 1
-12 1 -15 805.469 345.843 4
-15 -1 -12 633.627 539.155 4
-12 -1 15 599.387 443.866 4
-1 15 -12 1015.03 522.813 2
1 -12 15 950.129 599.892 1
-15 -12 1 532.166 319.992 4
-15 -12 1 977.585 535.727 1
1 12 -15 1232.58 662.963 2
15 -1 12 1456.99 784.017 3
15 -12 -1 1595.96 445.824 3
-1 12 15 576.785 415.91 3
3 15 12 725.065 430.062 3
-15 -12 3 1579.4 572.977 1
3 -15 -12 883.646 398.539 1
-15 -12 3 1472.01 573.201 2
15 12 3 957.554 562.64 2
-12 15 3 865.103 520.4 2
12 -15 3 1437.02 577.746 1
-12 -15 -3 1423.38 706.67 1
12 15 -3 1111.25 626.615 2
-15 12 -3 1736.61 549.222 1
-15 12 -3 829.556 576.11 2
15 3 -12 1123.33 440.005 1
-15 -3 -12 52.5931 469.401 4
-3 15 -12 1376.15 661.344 2
-12 -3 15 151.974 277.027 4
15 -12 -3 1641.53 541.496 1
3 12 -15 1698.08 691.248 2
12 3 15 -227.151 574.354 3
-3 12 15 276.401 269.402 3
3 -12 15 2179.89 758.556 1
15 -12 -3 814.967 236.755 3
-3 -15 12 1152.24 538.092 1
5 -12 15 696.274 398.061 1
5 15 12 -72.4378 298.469 3
15 12 5 241.956 313.748 3
5 -15 -12 859.061 581.396 1
15 12 5 616.926 466.385 2
-15 -12 5 446.649 332.933 2
-15 -12 5 482.083 329.009 1
-12 15 5 242.944 358.899 2
15 5 -12 988.366 438.084 1
-12 -5 15 372.297 243.744 1
-12 -15 -5 525.269 337.359 1
12 15 -5 314.012 287.952 2
12 -15 5 985.265 491.859 1
15 -12 -5 663.119 293.743 1
-15 12 -5 238.263 298.626 2
-15 12 -5 592.008 323.176 1
-15 -5 -12 616.626 543.357 4
-5 15 -12 1036.12 578.197 2
5 12 -15 105.385 404.663 2
12 5 15 -96.3593 450.045 3
-5 12 15 297.877 227.015 3
-5 -15 12 1423.5 691.809 1
7 15 12 1003.24 672.356 3
15 12 7 396.472 446.478 3
7 -15 -12 876.143 443.832 1
15 12 7 475.106 361.41 2
7 -12 15 1003.76 726.985 1
-12 15 7 630.227 626.177 2
-12 -15 -7 986.383 546.79 1
-15 -12 7 1110.38 694.24 2
15 -12 -7 614.686 320.171 1
-15 -12 7 947.959 509.789 1
12 15 -7 879.69 588.159 2
-7 15 -12 1201.02 679.353 2
-15 12 -7 934.586 652.715 2
-15 -7 -12 934.256 601.53 4
7 12 -15 134.142 358.923 4
12 -15 7 1917.76 766.321 1
7 12 -15 795.832 475.956 2
-7 12 15 81.6558 189.33 3
12 7 15 -4.09075 507.092 3
-12 -7 15 888.481 496.634 1
-7 -15 12 1144.38 595.769 1
-6 15 13 610.19 307.442 3
-15 -6 13 501.379 433.544 1
-6 -15 -13 207.575 252.057 1
15 -13 6 586.297 521.033 1
13 15 6 788.787 587.633 2
-15 13 6 421.043 573.926 2
-13 -15 6 436.717 363.365 1
-15 -13 -6 398.969 332.725 1
6 -15 13 104.772 340.079 1
13 -15 -6 510.195 365.845 1
-6 -13 15 74.8578 286.91 1
-13 15 -6 444.612 686.671 2
15 13 -6 309.628 306.621 2
-15 -6 13 732.753 404.277 2
6 15 -13 1052.09 579.597 2
-15 -6 13 -28.6788 421.724 4
-6 13 -15 346.48 484.627 2
15 6 13 811.662 732.292 3
6 13 15 1207.74 715.86 3
-4 15 13 210.536 208.607 3
-4 -15 -13 -276.759 312.086 1
-13 -15 4 -318.672 297.5 1
15 -4 -13 -127.933 160.067 1
13 15 4 -284.742 517.364 2
4 -15 13 214.507 346.548 1
-15 13 4 -600.419 691.218 2
-15 -13 -4 160.736 212.22 1
-13 15 -4 -614.041 501.096 2
-15 -4 13 314.971 404.309 1
-4 -13 15 -128.806 495.337 1
15 13 -4 26.6347 399.915 2
13 -15 -4 0.23024 212.784 1
-13 -4 -15 95.5799 313.628 4
-15 -4 13 455.955 395.093 4
4 15 -13 -76.6672 238.531 2
-15 -4 13 13.8233 254.361 2
-4 13 -15 -123.114 294.451 2
15 -13 4 120.85 208.828 1
15 4 13 -530.343 816.97 3
4 13 15 771.559 480.76 3
-2 15 13 1008.99 468.573 3
15 -2 -13 1062.54 398.491 1
-2 -15 -13 1399.56 591.617 1
-15 13 2 811.762 369.938 1
2 -15 13 1310.4 635.087 1
13 15 2 1000.5 587.075 2
-15 13 2 289.867 441.789 2
-13 15 -2 1253.08 756.409 2
15 -13 2 1416.63 541.43 1
15 13 -2 1068.02 496.154 2
-15 -13 -2 835.462 557.021 1
-15 2 -13 2158.77 823.144 4
-2 -13 15 1943.45 758.452 1
-13 -2 -15 1546.91 600.012 4
-15 -2 13 -685.005 515.55 4
2 15 -13 1113.42 704.552 2
-2 13 -15 1442.76 691.639 2
13 -15 -2 1551.65 581.768 1
-15 -2 13 1380.59 550.301 2
15 2 13 1810 656.008 3
-13 -15 2 928.891 551.675 1
2 13 15 748.446 382.443 3
0 15 13 1359.9 561.751 3
13 -15 0 385.93 424.543 1
0 -15 -13 97.1856 266.968 1
0 -15 13 427.711 406.644 1
15 -13 0 205.655 361.429 1
-15 13 0 395.015 376.637 1
13 15 0 -106.283 293.729 2
15 13 0 850.599 477.306 2
15 0 -13 16.1337 120.399 1
-13 15 0 509.085 331.706 2
-15 13 0 774.889 675.862 2
-13 0 -15 648.751 349.844 4
-15 0 -13 585.872 472.411 4
-15 0 13 -1154.81 647.89 4
0 -13 15 733.625 555.739 1
-13 0 15 292.905 321.727 4
-13 -15 0 580.483 349.259 1
-15 -13 0 310.882 325.086 1
0 15 -13 547.234 513.119 2
0 13 -15 576.958 429.056 2
15 0 13 7.01417 577.093 3
0 13 15 15.4481 277 3
2 15 13 957.176 554.679 3
2 -15 -13 1166.8 440.768 1
-2 -15 13 877.111 517.672 1
13 -15 2 1462.21 559.532 1
15 13 2 1714.32 722.311 2
-13 15 2 1963.32 989.019 2
-15 13 -2 1613.12 496.759 1
13 15 -2 1687.52 742.563 2
-15 13 -2 1161.96 701.011 2
-13 -15 -2 1211.19 633.852 1
-13 2 -15 1108.4 625.821 4
-15 -2 -13 108.028 376.421 4
2 -13 15 2542.18 891.627 1
-13 -2 15 1003.19 487.052 4
-2 15 -13 1721.08 815.02 2
2 13 -15 941.58 498.757 2
15 -13 -2 857.28 317.638 3
-15 -13 2 1234.54 599.656 1
-2 13 15 378.211 353.675 3
15 -13 -2 1409 514.495 1
15 2 -13 1429.27 529.905 1
4 15 13 341.913 333.711 3
4 -15 -13 141.106 269.449 1
-4 -15 13 -459.019 481.966 1
-15 -13 4 -135.982 386.396 1
-15 -13 4 351.138 448.091 2
15 13 4 274.778 314.582 2
-13 15 4 -19.3476 435.307 2
-13 -15 -4 407.353 424.758 1
13 -15 4 315.65 399.041 1
13 15 -4 257.394 351.013 2
-15 13 -4 -323.793 423.353 2
-15 -4 -13 1043.86 685.968 4
15 -13 -4 373.681 292.349 1
-4 15 -13 -392.386 586.576 2
-13 -4 15 132.198 238.779 4
4 -13 15 -346.667 424.88 1
4 13 -15 63.7533 240.766 2
13 4 15 533.401 605.52 3
-4 13 15 371.267 311.741 3
6 15 13 838.226 450.595 3
15 13 6 720.573 411.337 3
6 -15 -13 100.683 244.13 1
-6 -15 13 414.614 405.879 1
15 13 6 -0.33009 340.317 2
-15 -13 6 321.746 427.534 2
-13 15 6 221.545 501.408 2
-13 -15 -6 176.044 214.672 1
-15 -13 6 828.445 568.029 1
15 -13 -6 762.034 381.082 1
-13 -6 15 -14.7491 285.139 1
-15 13 -6 189.644 342.692 2
13 15 -6 625.051 469.429 2
-6 15 -13 545.359 488.296 2
13 -15 6 296.809 251.788 1
6 13 -15 458.94 340.099 2
13 6 15 243.992 551.945 3
-6 13 15 -63.2968 262.692 3
6 -13 15 194.016 280.064 1
-14 -15 3 2145.67 775.909 1
3 -14 -15 1679.53 685.405 1
-15 14 3 1805.35 565.796 1
-3 -15 -14 1423.01 585.391 1
14 15 3 1434.24 750.593 2
-15 14 3 1227.42 520.951 2
3 -15 14 2524.29 910.808 1
-3 -14 15 2531.45 882.046 1
-15 -14 -3 1926.48 682.386 1
-14 15 -3 2073.56 808.62 2
15 14 -3 2983.64 994.015 2
15 -14 3 2749.73 775.13 1
-15 -3 14 579.034 455.568 4
3 15 -14 2267.2 879.169 2
14 -15 -3 1310.32 517.874 1
-3 14 -15 2468.88 854.915 2
15 3 14 1121.48 808.865 3
3 14 15 1475.42 484.306 3
-3 15 14 2463.58 665.506 3
-1 -15 -14 985.86 502.409 1
-15 14 1 1093.68 434.868 1
15 -14 1 1343.93 575.979 1
1 -15 14 641.481 445.793 1
14 15 1 1150.36 570.979 2
-15 14 1 171.997 304.466 2
-14 15 -1 945.747 716.953 2
15 14 -1 744.929 472.064 2
-1 -14 15 698.233 470.822 1
-15 1 -14 1565.26 782.206 4
-14 1 15 638.221 521.942 4
-15 -14 -1 435.266 317.156 1
-14 -1 -15 1211.13 649.84 4
-15 -1 14 1343.84 734.001 4
15 -1 -14 755.435 344.834 1
1 15 -14 1056.34 601.33 2
-1 14 -15 343.074 376.32 2
-14 -15 1 1173.97 613.83 1
15 1 14 352.925 547.01 3
1 14 15 -393.892 540.895 3
-1 15 14 424.933 305.88 3
14 -15 -1 979.381 510.185 1
1 -14 -15 1308.33 559.064 1
1 -15 -14 1173.23 577.048 1
15 -14 -1 947.552 480.652 1
14 -15 1 597.602 363.088 1
-1 -15 14 241.828 290.503 1
15 14 1 286.09 272.928 2
-14 15 1 331.563 415.314 2
14 15 -1 1117.04 556.187 2
-15 14 -1 656.453 594.342 2
1 -14 15 753.35 560.404 1
-15 1 14 1387.64 663.381 4
-14 1 -15 161.104 324.31 4
-14 -15 -1 773.493 471.29 1
-15 -1 -14 -453.019 434.01 4
-14 -1 15 700.142 430.766 4
-1 15 -14 1550.5 820.497 2
1 14 -15 1043.31 581.635 2
-15 -14 1 559.77 325.395 1
-1 14 15 735.313 446.564 3
1 15 14 948.968 599.528 3
-1 -14 -15 532.813 396.689 1
-15 -14 3 2365 834.063 1
3 -15 -14 1241.22 546.4 1
-15 -14 3 2868.19 1034.78 2
-3 -15 14 2103.04 872.714 1
15 14 3 890.859 567.043 2
-14 15 3 1043.3 706.396 2
14 -15 3 1982.95 691.411 1
-14 -15 -3 1650.05 666.944 1
14 15 -3 2475.71 909.774 2
-15 14 -3 1958.45 859.965 2
3 -14 15 2430.36 863.097 1
-14 -3 15 312.789 308.953 4
3 14 -15 2696.82 916.948 2
15 -14 -3 2541.66 729.293 1
14 3 15 2008.23 830.266 3
15 -14 -3 678.583 197.322 3
-3 14 15 874.541 340.402 3
3 15 14 1675.9 741.296 3
-3 -14 -15 1565.85 560.057 1
0 16 0 11973.7 1924.29 2
0 -16 0 15363.6 1880.69 1
-16 0 0 9891.12 1696.74 4
-16 0 0 10218.8 1302.02 3
16 0 0 10855.9 1357.45 3
16 -1 1 932.873 539.853 3
16 1 1 52.0422 273.754 3
16 -1 -1 1129.81 463.187 3
16 1 -1 420.316 412.801 3
16 -1 1 554.939 237.172 2
1 16 1 694.404 542.277 2
-1 16 1 501.896 561.279 2
1 16 -1 79.3207 425.816 2
-1 16 -1 15.6326 295.885 2
-1 -16 -1 52.1252 304.234 1
-16 -1 -1 1343.69 531.242 4
-16 -1 1 219.779 550.366 4
1 -16 -1 -287.213 248.702 1
-1 1 -16 936.115 254.997 4
-1 -16 1 47.9123 207.646 1
1 -16 1 238.001 383.841 1
-16 1 -1 1194.4 474.199 3
-16 1 1 708.533 430.012 3
16 0 2 1170.96 517.712 3
16 -2 0 1223.79 455.098 3
16 2 0 841.038 455.229 3
-16 0 -2 128.372 84.1345 1
16 0 2 449.939 166.124 2
0 16 2 719.269 525.554 2
2 16 0 248.939 331.213 2
-2 16 0 193.15 452.645 2
0 16 -2 371.575 314.45 2
0 -16 -2 317.336 194.564 1
-16 0 2 1814.61 890.843 4
-16 0 -2 766.155 635.382 4
-16 -2 0 2296.9 806.402 4
0 2 -16 1166.99 233.746 4
-2 -16 0 678.48 489.993 1
-2 0 -16 1166.15 293.25 4
-16 2 0 642.514 210.347 2
2 -16 0 656.469 405.486 1
-16 0 -2 388.813 141.82 1
-16 2 0 717.904 308.846 3
0 -16 2 127.077 341.675 1
-16 0 2 779.457 414.29 3
-16 -2 0 547.999 151.643 1
16 2 2 1048.08 470.255 3
16 -2 -2 671.848 283.658 3
16 -2 2 1352.97 421.756 2
2 16 2 886.992 416.449 2
-16 -2 -2 776.304 206.688 1
-2 16 2 888.396 618.611 2
2 16 -2 985.978 656.925 2
-2 16 -2 1122.41 688.056 2
-16 2 2 1034.09 298.557 2
-2 -16 -2 1323.39 597.61 1
2 -16 -2 1132.78 579.197 1
-2 2 -16 813.957 269.289 4
-16 -2 -2 768.32 551.812 4
-16 -2 2 663.864 580.952 4
-16 2 -2 1668.78 353.452 2
-2 -16 2 1564.33 601.095 1
-16 2 2 624.403 273.979 3
2 -16 2 903.36 466.496 1
16 -2 2 1331.14 553.751 3
16 1 3 712.007 467.02 3
-1 -16 -3 322.307 324.571 3
16 -3 1 423.752 265.63 2
-1 16 3 417.549 459.367 2
-16 1 -3 -16.6183 58.7731 1
3 16 1 323.439 421.412 2
-3 16 -1 178.821 354.812 2
1 16 -3 -675.098 467.314 2
16 1 3 174.076 161.763 2
-1 -16 -3 -379.132 396.184 1
-16 -3 -1 151.76 113.962 1
-16 3 1 104.426 103.646 2
-16 -1 3 -852.295 655.775 4
-16 -3 -1 108.678 486.657 4
3 -16 -1 404.793 383.924 1
-3 -1 -16 42.1661 201.089 4
-3 -16 1 379.529 418.368 1
-16 3 1 16.2006 160.798 3
-16 -1 3 790.124 462.877 3
1 -16 3 23.2512 232.194 1
16 -3 1 376.737 230.891 3
16 -3 -1 199.046 196.429 3
-16 -1 -3 127.117 121.324 1
16 3 1 -90.7997 237.366 3
1 -16 -3 -188.638 244.031 3
-16 -3 1 100.041 90.6209 1
1 16 3 -300.502 229.498 2
-3 16 1 347.775 458.776 2
16 -1 3 2.18759 128.562 2
3 16 -1 135.962 361.544 2
-16 1 3 42.8656 67.4452 2
-1 16 -3 192.954 279.52 2
1 -16 -3 2.14134 313.223 1
-3 -16 -1 352.583 306.813 1
-16 -1 -3 -40.6855 458.83 4
-3 1 -16 -8.14241 245.659 4
-16 -3 1 -152.49 493.669 4
-16 3 -1 -102.305 141.321 2
3 -16 1 -15.6019 177.063 1
-16 1 3 -26.3298 254.246 3
-1 -16 3 146.187 302.669 1
16 -1 3 -220.899 260.229 3
3 -16 3 3150.03 832.589 1
16 3 3 1455.35 634.824 3
-16 -3 3 2547.66 410.713 1
3 16 3 2732.28 940.398 2
-3 16 3 3086.69 1169.19 2
16 3 3 2377.88 348.493 2
16 -3 3 3979.27 790.677 2
-16 3 3 3105.82 612.437 2
3 16 -3 2363.74 847.243 2
-3 16 -3 3193.02 1085.11 2
-16 3 -3 3603.24 603.372 2
-3 -16 -3 3555.47 968.49 1
3 -16 -3 3658.99 877.268 1
-16 3 -3 2828 418.011 1
-16 -3 -3 1446.39 882.068 4
-16 -3 3 1006.54 626.784 4
-16 3 3 1998.95 515.775 3
16 3 -3 1677.58 279.672 1
-3 -16 3 3339.29 954.504 1
-16 -3 -3 3081.02 479.384 1
16 -3 3 3672.62 903.045 3
2 -16 4 2364.97 766.177 1
-2 -4 16 2627.49 779.809 1
-2 16 4 1496.65 744.53 2
16 -4 2 2671.07 678.06 2
4 16 2 1627.64 737.272 2
-16 -4 -2 1839.86 388.805 1
-16 4 2 2421.25 588.014 2
-4 16 -2 2040.83 849.064 2
-2 -16 -4 2216.1 731.953 1
2 16 -4 1889.26 748.07 2
2 4 16 2137.33 639.97 4
4 -16 -2 2265.21 713.552 1
16 2 4 1907.78 389.085 2
-16 -2 4 2577.64 928.062 4
-16 -4 -2 2104.7 813.755 4
-4 -2 -16 1348.24 444.401 4
-4 -16 2 1962.65 792.74 1
-16 -2 4 2159.26 330.277 1
16 -4 2 2216.3 666.645 3
-16 2 -4 1994.24 387.374 1
16 4 -2 1679.97 317.894 1
16 2 4 1532.68 545.437 3
16 -4 0 -114.69 290.772 3
0 -16 -4 167.595 181.944 3
0 -16 4 150.374 300.465 1
16 4 0 277.247 261.223 3
0 16 4 -50.3809 411.344 2
4 16 0 469.727 432.148 2
-4 16 0 95.9034 318.503 2
-16 0 -4 144.843 154.248 1
0 -16 -4 -244.432 313.152 1
0 16 -4 15.104 350.131 2
16 0 4 125.607 137.015 2
-16 4 0 -33.2154 183.559 2
-16 0 4 647.549 448.82 4
-16 0 -4 -646.216 554.942 4
0 4 16 451.918 340.929 4
-4 0 -16 101.124 212.25 4
-16 -4 0 -509.847 642.352 4
-4 -16 0 262.13 233.827 1
4 -16 0 -327.973 328.004 1
-16 -4 0 -63.1863 130.494 1
16 0 4 156.339 419.611 3
-16 0 4 -349.623 403.264 3
-16 -2 -4 1730.97 367.933 1
2 -16 -4 1911.9 508.546 3
-2 -16 4 2528.58 782.534 1
16 4 2 1703.27 572.392 3
16 -4 -2 2046.83 533.536 3
-16 4 -2 1469.16 272.165 1
16 2 -4 1222.6 218.443 1
2 16 4 1405.73 754.289 2
-16 2 4 2121.1 493.359 2
-4 16 2 1800.97 856.325 2
-16 -4 2 2064.66 383.336 1
4 16 -2 2219.78 835.37 2
16 -2 4 2778.48 635.395 2
2 -16 -4 1802.53 600.515 1
-2 16 -4 1748.19 789.554 2
-4 -16 -2 2247.8 754.264 1
-4 2 -16 1127.45 387.101 4
-16 -2 -4 1299.72 619.434 4
-2 4 16 1338.01 374.832 4
-16 -4 2 2043.95 740.209 4
-16 4 -2 1814.72 453.512 2
16 -2 4 2615.9 805.967 3
4 -16 2 2306.13 698.195 1
-16 2 4 1367.79 508.389 3
16 4 4 835.039 353.15 3
-4 -16 4 867.542 600.375 1
4 -16 -4 701.885 276.834 3
-4 -4 16 870.624 433.222 1
-16 -4 4 1293.17 329.331 1
4 -16 4 901.133 478.636 1
-16 -4 -4 1186.57 344.912 1
4 16 4 503.535 423.652 2
-4 16 4 1038.96 725.05 2
-16 4 -4 1088.96 319.334 1
-16 4 4 1176.4 434.764 2
16 4 -4 936.681 279.108 1
16 -4 4 1866.03 628.943 2
-4 -16 -4 1515.19 573.707 1
4 -16 -4 851.155 414.751 1
4 16 -4 867.842 621.785 2
-4 16 -4 1471.35 677.124 2
-16 -4 -4 1199.83 531.127 4
-16 -4 4 428.933 516.872 4
-4 4 16 233.111 147.053 4
-16 4 -4 859.513 312.044 2
16 4 4 726.102 216.314 2
-16 4 4 460.285 283.501 3
16 -4 4 896.17 471.629 3
-16 -3 5 484.727 187.927 1
16 5 -3 686.468 254.8 1
3 -16 5 522.907 391.685 1
-3 16 5 397.113 513.712 2
5 16 3 112.567 306.402 2
-16 -5 -3 527.322 212.743 1
16 -5 3 1029.07 493.254 2
-16 5 3 614.691 347.538 2
-3 -16 -5 587.102 366.345 1
-5 16 -3 516.804 613.809 2
3 16 -5 725.301 585.024 2
-3 -5 16 793.501 502.927 1
5 -16 -3 178.123 188.886 1
3 5 16 381.397 335.468 4
-16 -3 5 78.5181 374.563 4
-16 -5 -3 300.428 426.205 4
-5 -3 -16 46.0664 223.378 4
16 3 5 356.863 214.247 2
-16 3 -5 664.66 241.655 1
16 -5 3 703.419 343.422 3
-5 -16 3 675.503 430.063 1
16 3 5 115.733 343.958 3
-1 -16 -5 899.729 374.097 3
-16 -1 5 847.765 300.178 3
-16 -1 5 1134 808.318 4
1 -16 5 1633.98 630.839 1
16 -5 1 1667.28 548.327 2
-1 16 5 595.953 469.163 2
5 16 1 720.363 483.406 2
-1 -16 -5 1927.25 737.528 1
-5 16 -1 1212.4 693.568 2
-16 5 1 1173.76 410.729 2
1 16 -5 593.178 517.043 2
-16 -5 -1 1181.53 343.373 1
1 5 16 -764.885 418.048 4
16 1 5 1591.63 434.131 2
5 -16 -1 1394.09 525.192 1
-16 -5 -1 1514.25 827.024 4
-5 -1 -16 1273.42 458.588 4
-5 -16 1 1316.63 572.701 1
-16 -1 5 994.005 207.486 2
-1 -5 16 1543.1 648.945 1
-16 1 -5 1548.6 391.318 1
16 -5 1 1400.38 517.702 3
16 1 5 1353.77 607.304 3
1 -16 -5 1660.23 546.673 3
16 -5 -1 1263.58 388.538 3
16 5 1 1349.93 570.417 3
-1 -16 5 1117.31 501.757 1
-16 1 5 1039.06 324.221 2
1 16 5 837.188 650.957 2
1 -5 16 1807.96 726.115 1
-16 5 -1 561.293 157.27 1
-5 16 1 949.774 643.431 2
5 16 -1 1715.86 776.785 2
1 -16 -5 1224.51 547.997 1
16 1 -5 676.285 182.854 1
-1 16 -5 1255.29 681.096 2
16 -1 5 1883.33 538.06 2
-16 5 -1 1578.64 471.596 2
-5 -16 -1 1453.19 585.126 1
-16 -1 -5 2052.24 871.326 4
-5 1 -16 1333.74 465.123 4
-1 5 16 170.747 229.578 4
-16 -5 1 1169.96 703.652 4
5 -16 1 919.528 516.367 1
16 -1 5 402.814 308.317 3
-16 -5 1 1527.66 376.312 1
-16 1 5 489.338 221.121 3
-16 -3 -5 512.838 217.878 1
3 -16 -5 419.205 227.973 3
3 -5 16 745.506 474.214 1
16 5 3 247.198 261.564 3
5 -16 3 990.836 494.143 1
-3 -16 5 604.782 462.145 1
16 5 3 327.157 189.757 2
-16 3 5 535.983 369.306 2
3 16 5 641.506 431.047 2
-5 16 3 622.004 610.162 2
3 -16 -5 658.865 402.129 1
16 3 -5 441.154 170.076 1
5 16 -3 519.955 521.941 2
16 -3 5 582.025 317.277 2
-16 -5 3 653.459 235.787 1
-5 -16 -3 537.105 456.116 1
-3 16 -5 327.273 481.751 2
-16 -3 -5 453.833 558.804 4
-16 5 -3 622.209 345.797 2
-16 -5 3 829.481 688.463 4
-3 5 16 -377.119 249.558 4
-16 5 -3 782.831 261.796 1
16 -3 5 1306.41 508.845 3
-16 3 5 380.161 283.146 3
16 5 5 -274.853 395.71 3
-16 -5 5 439.86 209.694 1
-16 -5 -5 102.12 111.757 1
-5 -16 5 35.1277 244.612 1
5 16 5 340.776 342.694 2
-16 5 5 159.411 293.117 2
-5 16 5 116.844 363.435 2
5 -16 5 395.575 416.808 1
-16 5 -5 306.314 185.598 1
-16 -5 5 225.871 157.444 2
-5 -16 -5 207.685 356.348 1
16 -5 5 324.509 416.839 2
16 5 -5 260.149 225.734 1
5 -16 -5 331.068 274.759 1
-5 -5 16 404.056 359.397 1
-5 16 -5 -178.442 387.894 2
16 -5 -5 147.094 91.8864 1
5 16 -5 -14.9476 365.949 2
5 5 16 -1242.95 586.501 4
5 5 -16 170.509 126.043 4
-16 -5 -5 1470.37 721.367 4
-16 -5 5 265.102 441.415 4
-16 5 -5 468.489 309.289 2
-16 5 5 73.4584 181.393 3
16 -5 5 380.258 300.331 3
5 -16 -5 523.721 272.833 3
-6 -16 4 1012.02 574.584 1
6 -16 -4 601.941 265.503 3
16 -4 -6 724.366 181.428 1
16 -4 -6 966.112 225.275 1
-4 16 6 1112.1 774.07 2
-16 -6 -4 1038.79 346.236 1
6 16 4 840.621 576.651 2
-16 6 4 766.572 416.594 2
16 6 -4 1151.79 373.676 1
-4 -16 -6 1182.51 573.175 1
4 -16 6 1786.84 653.174 1
16 -6 4 1993.29 711.95 2
-6 16 -4 1236.04 691.818 2
-16 -4 6 965.176 271.484 2
6 -16 -4 719.073 417.992 1
4 16 -6 940.925 626.282 2
-4 -6 16 1942.11 691.349 1
4 6 16 -473.839 493.304 4
16 -6 4 1339.27 369.766 1
-16 -4 6 1265.65 737.678 4
-16 -6 -4 451.084 435.738 4
-16 4 -6 1346.36 407.795 1
-6 -4 -16 773.461 437.046 4
-16 -4 6 1492.15 391.013 1
-16 4 -6 1544.62 507.494 2
16 -6 4 434.078 348.919 3
16 4 6 600.082 335.422 3
16 6 -2 1018.37 317.694 1
-2 16 6 711.923 747.103 2
16 -6 2 986.262 449.067 2
2 -16 6 1475.15 601.894 1
6 16 2 880.809 621.172 2
-2 -16 -6 1033.02 520.459 1
-16 6 2 1606.5 520.937 2
-16 -6 -2 1116.19 355.845 1
-6 16 -2 484.123 486.485 2
-16 2 -6 1189.1 363.556 1
16 -2 -6 885.874 206.375 1
2 16 -6 1406.81 672.8 2
6 -16 -2 1483.9 607.28 1
-16 -2 6 1210.09 759.053 4
2 6 16 66.6997 274.371 4
-2 -6 16 1072.69 604.895 1
-16 -2 6 744.977 221.989 2
16 -6 2 998.132 266.651 1
-16 -6 -2 422.311 458.594 4
-6 -2 -16 539.403 364.944 4
16 2 6 1177.86 360.195 2
-6 -16 2 1151.56 615.402 1
16 -6 2 1097.54 488.312 3
16 2 6 1072.26 650.934 3
-16 0 6 1117.79 444.111 3
-16 6 0 718.143 193.755 1
16 -6 0 2125.65 705.852 2
0 16 6 1292.7 777.228 2
0 -16 6 1334.45 544.986 1
0 -16 -6 1430.96 583.14 1
6 16 0 1415.03 627.426 2
-6 16 0 1734.92 757.228 2
-16 0 -6 486.495 485.481 4
-16 6 0 1744.5 574.397 2
0 16 -6 1056.88 659.723 2
16 0 6 1517.61 442.23 2
-16 0 6 899.584 679.902 4
-6 0 -16 295.465 269.04 4
-6 -16 0 1318.55 616.679 1
0 6 16 1726.98 541.538 4
-16 -6 0 1090.74 617.867 4
-16 -6 0 1124.3 352.027 1
-16 0 -6 1491.02 403.827 1
6 -16 0 1371.76 590.086 1
16 -6 0 1113.93 253.161 1
0 -6 16 1628.7 656.29 1
16 0 6 1091.86 464.522 3
16 0 -6 1176 273.85 1
16 -6 0 1168.01 392.27 3
0 -16 -6 558.083 375.573 3
16 -6 -2 937.802 309.762 3
16 6 2 593.812 429.161 3
-16 -6 2 1328.42 376.033 1
2 -6 16 1439.09 622.372 1
2 16 6 538.522 630.795 2
-2 -16 6 2051.26 701.042 1
16 6 2 720.258 240.058 2
-6 16 2 432.656 597.27 2
2 -16 -6 1241.62 581.591 1
6 16 -2 1567.28 692.021 2
-16 6 -2 1082.4 303.801 1
-2 16 -6 822.183 484.603 2
16 -2 6 1143.58 483.683 2
-6 -16 -2 1172.84 610.775 1
-6 2 -16 196.987 213.093 4
-16 6 -2 1542.04 527.519 2
-16 -2 -6 -73.4818 445.37 4
16 2 -6 1005.13 274.683 1
-16 -6 2 1385.56 765.234 4
16 -6 -2 653.869 186.773 1
-2 6 16 -149.832 307.202 4
16 -2 6 94.6198 373.489 3
2 -16 -6 481.811 241.32 3
-16 2 6 1616.27 514.604 3
6 -16 2 1244.87 518.169 1
16 6 4 660.613 385.676 3
-16 -6 4 970.95 275.808 2
-16 4 6 975.227 479.559 2
6 -16 4 1572.15 628.892 1
4 16 6 1292.08 699.344 2
-4 -16 6 732.443 519.774 1
-6 16 4 650.089 318.795 2
4 -16 -6 1395.16 541.105 1
-6 -16 -4 1374.57 626.566 1
16 -4 6 1513.08 594.73 2
6 16 -4 1057.5 622.432 2
-4 16 -6 1154.62 612.977 2
-16 -6 4 1041.09 352.113 1
4 -6 16 871.377 550.398 1
16 4 -6 1457.14 370.265 1
-16 -4 -6 259.945 386.008 4
-16 6 -4 1254.58 449.726 2
-16 -6 4 760.038 393.709 4
4 6 -16 781.513 272.048 4
16 -6 -4 935.237 232.36 1
-6 -4 16 942.979 466.018 1
16 -4 6 1263.28 631.575 3
-16 4 6 682.917 330.915 3
-16 6 -4 1546.19 388.76 1
4 -16 -6 839.431 313.932 3
-16 -4 -6 948.609 348.454 1
16 6 6 968.462 556.26 3
-16 -6 -6 1338.92 414.417 1
-16 -6 6 1707.62 456.635 1
6 16 6 1187.05 653.42 2
-16 6 6 609.883 442.381 2
-6 -16 6 1619.46 682.234 1
-6 16 6 1541.63 819.218 2
-16 6 -6 1719.38 488.077 1
16 -6 -6 1384.59 310.092 1
-6 -16 -6 1618 655.586 1
-16 -6 6 1957.29 514.617 2
6 -16 -6 1566.67 616.754 1
6 -16 6 1340.42 575.919 1
16 -6 6 2730.67 788.754 2
6 -6 16 1716.92 701.851 1
-6 -6 16 1950.89 719.847 1
16 6 -6 1580.43 476.266 1
-6 16 -6 1516.13 726.272 2
6 16 -6 2065.26 813.126 2
6 6 16 1022.16 576.669 4
6 6 -16 1291.01 366.303 4
-16 -6 -6 1549.24 845.673 4
-16 -6 6 1359.37 794.771 4
-16 6 -6 1304.19 520.666 2
16 -6 6 2182.19 854.154 3
-16 6 6 671.51 313.19 3
6 -16 -6 963.142 314.863 3
-5 -7 16 310.46 293.795 1
-7 -16 5 243.624 326.2 1
16 -5 -7 31.3617 79.7401 1
-16 -7 -5 -262.769 246.57 1
-5 16 7 -127.796 386.802 2
7 16 5 -82.5531 388.045 2
-16 7 5 -78.3391 293.152 2
-5 -16 -7 -32.1001 273.382 1
16 -7 5 219.181 247.937 2
16 7 -5 -57.5743 219.572 1
7 -16 -5 269.452 295.496 1
5 -16 7 -153.69 442.952 1
-16 -5 7 112.02 124.895 2
-7 16 -5 11.4811 306.825 2
5 16 -7 67.1599 308.03 2
-16 5 -7 210.135 205.306 1
5 7 16 150.656 354.662 4
-16 -5 7 182.739 178.922 1
-16 -5 7 -174.583 444.812 4
-16 -7 -5 607.19 636.639 4
-7 -5 -16 406.779 396.24 4
-16 5 -7 -33.9022 175.422 2
16 -7 5 4.14867 307.7 3
16 -7 5 274.188 285.488 1
7 -16 -5 56.9069 131.544 3
16 5 7 570.185 452.283 3
-16 -3 7 278.698 163.229 1
-3 -7 16 11.0989 205.04 1
-3 16 7 -25.0077 307.132 2
16 -7 3 -6.75729 97.3273 1
16 7 -3 39.2459 104.159 1
7 16 3 566.286 391.205 2
-16 3 -7 215.547 262.001 1
-3 -16 -7 193.241 217.464 1
16 -7 3 311.21 355.719 2
-16 7 3 -80.0118 262.111 2
-16 -7 -3 94.0965 165.534 1
3 -16 7 219.977 408.59 1
-7 16 -3 211.341 449.334 2
16 -3 -7 8.34854 97.6424 1
3 16 -7 346.708 309.139 2
7 -16 -3 249.047 184.687 1
-16 -3 7 379.725 226.638 2
-16 -3 7 1365.52 843.237 4
3 7 16 -417.338 285.245 4
-16 -7 -3 -552.12 467.565 4
-7 -3 -16 972.663 464.448 4
16 3 7 120.162 165.367 2
16 -7 3 683.829 447.564 3
-7 -16 3 -111.711 322.239 1
16 3 7 835.027 594.304 3
16 7 -1 521.158 252.465 1
-16 -1 7 1175.05 433.863 3
-1 -7 16 807.62 505.974 1
-16 1 -7 543.617 250.69 1
-1 16 7 133.251 432.825 2
16 -7 1 710.11 515.504 2
-1 -16 -7 311.393 307.469 1
7 16 1 316.171 290.753 2
1 -16 7 779.285 351.794 1
-7 16 -1 316.361 347.668 2
-16 7 1 702.245 357.698 2
16 -1 -7 667.743 244.279 1
16 -7 1 651.318 241.76 1
1 16 -7 -18.8106 224.219 2
-16 -7 -1 635.791 365.594 1
-16 -1 7 820.176 475.171 4
16 7 -1 207.036 108.262 2
-7 -1 -16 867.854 436.722 4
1 7 16 597.935 440.705 4
16 1 7 449.187 301.654 2
-16 -7 -1 212.189 393.46 4
7 -16 -1 358.94 234.163 1
-7 -16 1 534.788 419.786 1
-16 -1 7 480.465 199.758 2
16 -7 1 397.135 278.686 3
16 1 7 841.255 608.107 3
-1 -16 -7 237.04 289.535 3
-16 1 7 1156.84 432.468 3
16 1 -7 661.104 247.563 1
1 16 7 51.859 441.905 2
1 -16 -7 882.212 445.028 1
-16 7 -1 837.689 264.498 1
1 -7 16 914.927 548.558 1
-1 -16 7 766.621 333.718 1
-7 16 1 247.346 289.402 2
7 16 -1 567.085 483.412 2
16 7 1 769.555 264.362 2
-16 7 -1 679.803 424.492 2
-1 16 -7 517.773 463.874 2
-7 -16 -1 625.421 479.23 1
16 -1 7 516.239 313.065 2
-7 1 -16 637.235 292.524 4
-16 -1 -7 1950.64 869.365 4
-16 -1 -7 631.433 256.819 1
-16 -7 1 503.584 593.051 4
16 -7 -1 636.475 233.715 1
-1 7 16 160.689 325.958 4
-16 -7 1 674.3 282.793 1
16 -1 7 142.264 392.891 3
7 -16 1 536.256 336.853 1
1 -16 -7 360.406 233.755 3
16 -7 -1 1159.14 398.556 3
16 -7 -3 -151.773 103.427 1
16 -7 -3 90.7211 189.672 3
16 7 3 212.721 356.715 3
7 -16 3 -66.2303 230.004 1
3 16 7 467.276 521.816 2
16 7 3 -130.807 148.213 2
-16 -7 3 25.0627 151.939 1
-7 16 3 52.7478 410.361 2
3 -16 -7 111.72 271.657 1
-3 -16 7 935.873 571.369 1
7 16 -3 -132.345 334.445 2
-7 -16 -3 78.4358 200.248 1
3 -7 16 -182.659 265.718 1
16 -3 7 -185.474 360.215 2
-3 16 -7 -127.884 383.615 2
-16 7 -3 -29.9097 213.75 2
-16 7 -3 282.185 202.463 1
-16 -3 -7 4.85422 388.986 4
-16 -7 3 66.4961 412.38 4
16 3 -7 -24.199 99.7198 1
16 -3 7 357.683 362.918 3
3 -16 -7 276.202 178.322 3
-16 3 7 768.744 367.746 3
-16 7 -5 201.508 147.005 1
16 7 5 -50.7691 355.591 3
-16 5 7 118.887 187.51 2
5 16 7 252.77 539.938 2
-7 16 5 -59.8839 405.783 2
-16 -7 5 325.434 255.477 2
-5 -16 7 130.864 333.621 1
7 -16 5 -517.753 496.529 1
5 -16 -7 59.625 253.474 1
-7 -16 -5 253.789 189.035 1
-7 -5 16 171.316 367.241 1
16 -5 7 17.7261 297.34 2
7 16 -5 0.34518 325.163 2
16 -7 -5 157.395 114.802 1
-5 16 -7 4.76081 252.042 2
-16 -7 5 210.256 169.818 1
-16 -5 -7 352.55 522.052 4
-16 7 -5 -59.4836 256.698 2
16 5 -7 32.8517 209.283 1
-16 -7 5 -632.914 502.375 4
5 7 -16 -25.0854 210.822 4
16 -5 7 76.5717 453.135 3
5 -16 -7 251.197 213.063 3
5 -7 16 67.4406 261.902 1
-16 5 7 166.832 192.426 3
-16 -5 -7 26.9222 99.3743 1
16 7 7 237.062 407.02 3
-7 -7 16 510.589 232.383 1
-16 -7 -7 472.337 252.189 1
-16 -7 7 736.461 339.328 1
7 16 7 569.699 555.639 2
-16 7 7 735.725 454.455 2
-7 16 7 399.379 403.974 2
16 -7 -7 437.162 224.005 1
-7 -16 -7 1008.8 472.072 1
-16 7 -7 602.552 255.398 1
-7 -16 7 715.645 547.358 1
7 -16 -7 662.715 418.36 1
-16 -7 7 1064.97 439.89 2
7 -7 16 659.413 469.147 1
7 -16 7 1201.11 597.909 1
-7 16 -7 519.808 342.948 2
7 16 -7 1302.08 664.819 2
16 7 -7 876.994 380.244 1
7 7 -16 311.421 219.693 4
-16 -7 -7 937.136 497.124 4
-16 -7 7 981.914 558.443 4
-16 7 -7 1016.08 467.427 2
-16 7 7 131.517 160.467 3
7 7 16 742.044 533.576 3
7 -16 -7 401.445 210.835 3
16 -7 7 542.648 385.763 1
16 -6 -8 497.374 239.367 1
8 -6 16 131.667 190.011 1
-16 -8 -6 154.551 197.105 1
-6 16 8 321.175 501.45 2
8 16 6 251.759 361.674 2
-8 -16 6 895.005 553.114 1
-16 8 6 399.196 356.858 2
-6 -16 -8 876.406 544.578 1
8 -16 -6 899.585 437.406 1
16 8 -6 522.954 322.39 1
-16 -6 8 414.288 224.075 2
-8 16 -6 566.379 645.015 2
16 -8 6 605.653 359.31 1
-16 6 -8 492.594 350.185 1
8 6 -16 -126.068 138.314 4
6 16 -8 460.748 565.363 2
6 -16 8 387.635 344.079 1
-6 -8 16 766.626 307.435 1
-16 -6 8 838.961 382.474 1
-16 -6 8 -192.492 335.535 4
-16 -8 -6 363.331 440.384 4
-8 -6 -16 -649.083 325.289 4
-16 6 -8 849.909 416.692 2
6 8 16 -375.311 574.931 3
8 -16 -6 97.2163 103.157 3
16 6 8 435.154 541.636 3
16 -8 4 440.513 297.151 1
-8 -16 4 -299.762 365.236 1
8 -16 -4 -366.399 190.27 3
-16 4 -8 490.537 310.667 1
-4 16 8 256.707 488.698 2
-4 -16 -8 -486.972 422.742 1
8 16 4 -586.518 527.64 2
-16 8 4 231.316 312.256 2
-16 -8 -4 -53.8566 141.9 1
16 -8 4 217.795 421.079 2
16 8 -4 54.1631 144.421 1
-8 16 -4 252.465 440.174 2
16 -4 -8 37.8976 90.0233 1
8 -16 -4 -95.8888 273.706 1
-16 -4 8 354.774 246.952 1
4 -16 8 -390.623 416.918 1
4 16 -8 119.929 309.223 2
-16 -4 8 -150.025 231.926 2
-4 -8 16 330.439 348.76 1
4 8 16 127.472 321.053 4
-16 -4 8 -848.867 719.933 4
-8 -4 -16 309.653 298.391 4
-16 -8 -4 574.721 543.427 4
16 8 -4 -64.0202 117.723 2
4 8 16 48.6357 292.641 3
16 -8 4 -268.793 310.739 3
16 4 8 437.603 637.134 3
16 8 -2 703.133 325.349 1
-2 16 8 446.069 678.709 2
16 -2 -8 212.889 121.784 1
16 -8 2 830.664 443.672 2
-2 -16 -8 768.018 469.565 1
8 16 2 224.493 361.06 2
-16 8 2 31.0561 312.118 2
-8 16 -2 -324.966 327.115 2
16 -8 2 816.985 318.491 1
-16 -8 -2 286.868 221.282 1
2 -16 8 289.72 256.924 1
2 16 -8 595.62 528.07 2
-8 2 16 450.396 220.375 4
-16 -2 8 1181.46 700.963 4
8 -16 -2 621.044 371.561 1
16 8 -2 244.551 135.259 2
-8 -2 -16 561.888 472.75 4
2 8 16 -925.964 638.42 4
-2 -8 16 107.497 224.328 1
-16 -8 -2 681.331 433.304 4
-16 2 -8 352.711 248.845 1
-16 -2 8 602.207 287.155 2
16 2 8 264.228 138.137 2
-8 -16 2 874.476 554.009 1
16 -8 2 476.476 361.467 3
16 2 8 742.516 402.365 3
-16 0 -8 1153.62 417.932 1
-16 0 8 781.586 407.523 3
16 -8 0 302.693 202.328 2
0 16 8 315.811 591.148 2
-16 8 0 572.254 214.117 1
0 -16 -8 540.916 396.535 1
8 16 0 796.355 577.259 2
-8 16 0 712.423 455.409 2
16 0 -8 823.08 270.02 1
0 -16 8 1040.21 584.731 1
-16 8 0 573.398 301.167 2
16 8 0 870.751 316.986 2
0 16 -8 1020.36 621.172 2
-16 0 8 312.827 509.522 4
-16 0 -8 1332.93 697.148 4
-8 0 -16 832.037 470.897 4
-8 -16 0 117.599 223.582 1
16 0 8 677.679 349.307 2
-16 -8 0 687.502 332.051 1
-16 -8 0 949.278 553.502 4
0 8 16 1007.73 500.436 4
16 -8 0 801.264 305.023 1
0 -8 16 1139.47 531.893 1
8 -16 0 894.984 429.15 1
16 0 8 682.439 618.556 3
0 -16 -8 538.665 262.128 3
16 -8 0 1082.91 481.353 3
16 8 0 664.128 289.429 1
16 -8 -2 171.778 200.409 3
-16 -8 2 358.003 233.216 1
-16 2 8 -78.7741 295.91 3
8 -16 2 676.072 503.44 1
16 8 2 362.574 298.438 3
16 2 -8 476.761 287.713 1
2 16 8 57.7481 505.285 2
16 -8 -2 670.089 251.705 1
2 -16 -8 806.522 394.416 1
16 8 2 137.69 147.266 2
-8 16 2 88.1743 446.298 2
8 16 -2 752.762 583.679 2
-2 -16 8 799.914 454.531 1
-16 8 -2 554.988 266.15 1
-8 -16 -2 373.635 365.288 1
-16 8 -2 680.739 470.899 2
-2 16 -8 289.02 385.48 2
-8 2 -16 196.746 257.534 4
16 -2 8 724.401 400.062 2
-16 -2 -8 644.565 591.2 4
-16 -8 2 296.062 421.01 4
16 -2 8 -61.481 332.969 3
2 -16 -8 852.253 303.417 3
2 -8 16 91.0299 221.369 1
16 8 4 -36.9026 357.275 3
4 -8 16 485.261 386.59 1
4 16 8 -67.4682 464.745 2
16 8 4 198.329 225.942 2
-16 -8 4 670.391 368.11 2
8 -16 4 532.295 454.418 1
4 -16 -8 -99.4619 302.766 1
-8 16 4 -194.011 274.735 2
-8 -4 16 92.4275 362.901 1
-16 -8 4 199.413 241.323 1
-4 -16 8 -94.2629 238.686 1
-8 -16 -4 618.731 415.756 1
8 16 -4 -435.365 458.833 2
16 -4 8 398.587 264.879 2
-4 16 -8 110.734 267.823 2
-16 8 -4 -509.586 359.728 2
-16 -4 -8 -1091.99 819.361 4
16 -8 -4 38.4056 88.9205 1
-16 -8 4 -84.7819 355.819 4
-16 8 -4 -4.0725 153.921 1
16 -4 8 49.0563 392.453 3
4 -16 -8 299.55 266.243 3
16 4 -8 -32.4133 110.834 1
-16 4 8 493.079 245.808 3
16 8 6 730.728 599.359 3
-16 8 -6 803.812 335.165 1
6 16 8 627.432 373.776 3
-16 6 8 679.249 489.344 2
6 16 8 328.151 429.977 2
-8 16 6 518.732 621.406 2
6 -16 -8 365.453 294.192 1
-16 -8 6 636.406 333.38 2
-8 -16 -6 935.733 563.973 1
-6 -16 8 390.993 334.692 1
16 -8 -6 267.087 183.018 1
6 -8 16 1144.46 689.479 1
8 -16 6 942.937 538.197 1
16 -6 8 505.584 438.083 2
8 16 -6 1361.24 697.827 2
-8 -6 16 1051.9 564.146 1
-6 16 -8 137.738 246.217 2
-16 -6 -8 463.224 421.532 4
-16 8 -6 980.817 484.863 2
6 8 -16 917.597 399.931 4
-16 -8 6 782.662 317.512 1
-16 -8 6 539.815 609.441 4
16 6 -8 485.672 298.873 1
8 6 16 301.855 336.49 3
-16 6 8 81.9667 208.606 3
-16 -6 -8 349.109 272.125 1
16 8 8 758.795 585.958 3
-16 -8 -8 -59.206 147.193 1
8 16 8 331.108 399.611 3
8 16 -8 58.1865 283.403 2
8 16 8 197.133 344.058 2
-16 8 8 -345.755 488.549 2
-8 16 8 20.3571 397.352 2
-16 -8 8 89.4392 171.758 1
16 -8 -8 176.708 158.551 1
-8 -16 -8 -34.3032 329.382 1
16 -8 8 464.011 338.248 1
-16 8 -8 225.138 284.911 1
8 -16 -8 15.9127 307.506 1
-8 -16 8 347.925 427.234 1
-16 -8 8 292.886 362.122 2
-8 16 -8 -22.8111 259.079 2
-8 -8 16 -161.292 340.517 1
8 8 -16 797.641 392.992 4
16 8 -8 -11.8898 157.615 1
8 -16 8 474.556 473.416 1
-16 -8 -8 793.34 565.319 4
-16 -8 8 277.339 395.544 4
-16 8 -8 229.008 337.204 2
8 8 16 959.894 543.133 3
8 -8 16 290.05 455.516 1
16 -7 -9 562.173 284.789 1
-16 -9 -7 222.591 195.786 1
-7 16 9 1114.63 857.453 2
9 16 7 788.137 595.545 2
-16 9 7 421.561 444.226 2
-7 -16 -9 785.498 425.557 1
-9 -16 7 525.909 280.478 1
9 -16 -7 400.455 307.613 1
-7 -9 16 1139.45 553.224 1
16 -9 7 700.655 406.386 1
9 -7 16 574.632 487.243 1
-16 -7 9 832.259 421.54 2
-16 7 -9 491.546 218.511 1
16 9 -7 1267.98 545.018 1
-9 16 -7 482.145 273.71 2
9 7 -16 156.854 237.223 4
-16 -7 9 800.213 427.112 1
7 16 -9 341.708 554.659 2
-16 -9 -7 125.033 363.916 4
-16 -7 9 239.428 417.117 4
-9 -7 -16 677.809 428.182 4
7 -16 9 991.796 448.131 1
-16 7 -9 478.269 382.682 2
7 9 16 -24.7814 395.251 3
-7 9 -16 536.194 374.1 2
16 7 9 1018.09 631.922 3
-9 -16 5 676.418 548.959 1
-5 16 9 -160.887 498.649 2
-5 -16 -9 969.756 500.983 1
9 16 5 839.729 457.36 2
-16 -9 -5 647.956 271.568 1
-16 9 5 568.783 491.935 2
-16 -5 9 444.779 313.607 1
-5 -9 16 822.489 513.113 1
16 9 -5 456.631 261.478 1
9 -16 -5 613.552 460.302 1
-9 16 -5 288.288 259.633 2
-16 -5 9 463.444 170.842 2
5 16 -9 1190.87 651.039 2
5 -16 9 -72.8361 372.758 1
-16 -5 9 87.6834 364.377 4
-9 -5 -16 219.904 366.347 4
-16 -9 -5 110.495 415.426 4
16 9 -5 554.807 242.026 2
5 9 16 117.979 285.569 3
-5 9 -16 453.986 337.553 2
16 -9 5 115.861 167.715 1
-16 5 -9 707.003 353.84 1
16 5 9 -544.895 594.211 3
9 -16 -5 391.696 172.849 3
16 -5 -9 780.125 253.373 1
-3 16 9 -269.221 568.511 2
-3 -16 -9 105.926 247.028 1
16 9 -3 -243.273 251.167 1
16 -9 3 -118.171 361.129 2
9 16 3 269.49 351.243 2
-16 9 3 483.688 380.876 2
-16 -9 -3 -419.22 279.449 1
-3 -9 16 206.133 396.188 1
16 -9 3 126.919 230.952 1
-16 -3 9 -123.63 194.567 1
-9 16 -3 -134.823 271.054 2
-16 3 -9 97.2225 196.643 1
9 -16 -3 290.374 269.701 1
3 16 -9 123.214 414.438 2
3 -16 9 -97.6078 199.211 1
-16 -3 9 -287.212 367.836 4
16 9 -3 112.381 160.859 2
-9 -3 -16 242.44 279.344 4
3 9 16 557.358 387.509 4
-16 -3 9 14.623 173.129 2
-16 -9 -3 396.676 572.549 4
16 -9 3 -136.278 365.91 3
3 9 16 715.752 523.955 3
16 3 9 61.431 129.372 2
16 -3 -9 -54.0848 103.469 1
-3 9 -16 -81.2827 304.669 2
16 3 9 1325.45 782.757 3
-9 -16 3 120.714 273.378 1
-16 9 1 -119.969 191.232 1
16 9 -1 8.48536 135.703 1
-1 16 9 222.018 459.838 2
16 -9 1 293.318 412.734 2
-1 -16 -9 120.11 181.878 1
9 16 1 -37.657 415.443 2
-16 1 -9 26.0448 201.807 1
-9 16 -1 362.115 378.436 2
-16 9 1 267.343 335.405 2
-1 -9 16 164.089 242.184 1
16 9 -1 338.737 234.294 2
1 -16 9 -330.689 430.131 1
-16 -9 -1 19.5696 139.103 1
-16 1 -9 847.581 573.495 4
1 16 -9 119.417 333.783 2
-16 -1 9 -1230.23 735.522 4
-9 1 16 24.0399 149.618 4
-9 -1 -16 183.089 274.298 4
1 9 16 761.925 491.93 4
-16 -9 -1 1172.44 655.104 4
-9 -16 1 -364.549 409.891 1
16 1 9 87.2083 209.405 2
9 -16 -1 338.158 396.879 1
16 -9 1 129.762 128.713 1
16 -9 1 11.9345 223.363 3
16 1 9 -216.471 464.051 3
16 -1 -9 203.93 154.261 1
-16 1 9 -259.752 288.881 3
1 16 9 323.91 442.869 2
1 -16 -9 234.072 221.382 1
-16 9 -1 -30.9469 151.556 1
16 -9 -1 93.9732 146.769 1
-9 16 1 -280.321 474.338 2
16 9 1 53.4143 202.097 2
9 16 -1 1.73964 350.635 2
-16 -1 -9 163.953 271.325 1
16 1 -9 -30.251 152.375 1
-16 9 -1 -265.243 297.982 2
-1 -16 9 701.327 537.648 1
1 -9 16 85.4655 209.764 1
-16 1 9 428.873 461.124 4
-9 -16 -1 61.4517 289.37 1
-1 16 -9 -93.4348 291.445 2
-9 1 -16 -93.4315 269.166 4
16 -1 9 -140.688 213.553 2
-16 -9 1 183.398 325.289 4
-1 9 16 -910.754 517.834 4
-16 -9 1 221.174 219.145 1
1 -16 -9 311.244 226.722 3
16 -1 9 21.1349 437.908 3
16 -9 -1 74.5046 263.037 3
9 -16 1 388.828 420.671 1
16 -9 -3 -143.157 169.243 3
-16 3 9 -151.823 243.91 3
3 16 9 324.454 273.725 3
16 9 3 774.566 488.482 3
3 16 9 591.151 692.513 2
-16 -9 3 -70.4207 138.862 1
16 3 -9 576.979 322.042 1
9 -16 3 -46.5187 252.751 1
3 -16 -9 -91.0549 349.611 1
16 9 3 -26.1601 177.449 2
-9 16 3 29.0727 299.068 2
9 16 -3 141.598 375.407 2
-9 -16 -3 -220.214 276.396 1
-3 -16 9 -147.428 321.082 1
-16 9 -3 -1.50453 120.836 1
-16 9 -3 -270.9 367.415 2
16 -3 9 -51.7194 197.58 2
-3 16 -9 127.393 420.411 2
-16 -3 -9 1381.1 767.819 4
3 -9 16 116.435 262.826 1
-16 -9 3 771.525 516.987 4
3 -16 -9 -768.802 359.681 3
16 -3 9 276.738 434.516 3
16 -9 -3 247.967 241.304 1
16 9 5 -119.649 376.278 3
5 16 9 1077.73 646.049 3
5 16 9 545.889 706.793 2
16 9 5 447.159 285.617 2
-16 -9 5 766.06 306.877 2
5 -16 -9 870.473 459.132 1
-9 16 5 -169.423 356.908 2
-9 -16 -5 920.04 544.031 1
9 -16 5 898.39 407.787 1
-16 -9 5 450.903 247.575 1
-5 -16 9 698.664 524.517 1
9 16 -5 93.7907 208.402 2
16 -9 -5 340.894 193.005 1
-9 -5 16 181.503 255.925 1
-5 16 -9 640.186 509.876 2
-16 9 -5 524.855 434.598 2
-16 -5 -9 1530.01 757.736 4
-16 -9 5 207.109 388.294 4
-16 9 -5 597.18 279.292 1
5 -9 16 60.971 283.695 1
16 5 -9 897.156 374.771 1
-16 5 9 341.572 215.467 3
-16 -7 -9 202.377 201.116 1
16 9 7 557.345 405.903 3
7 16 9 503.445 290.701 3
-16 9 -7 805.065 335.59 1
-9 -7 16 563.395 421.914 1
7 16 9 393.933 472.613 2
7 -9 16 469.452 416.389 1
-9 16 7 103.888 417.85 2
7 -16 -9 694.037 492.662 1
-9 -16 -7 801.984 559.034 1
-16 -9 7 1311.21 559.387 2
16 -9 -7 410.16 232.546 1
16 -7 9 903.195 411.132 1
-7 -16 9 1007.99 535.288 1
9 16 -7 807.042 560.941 2
9 -16 7 281.05 313.724 1
-7 16 -9 623.371 545.528 2
-16 9 -7 626.483 496.818 2
-16 -7 -9 762.843 467.805 4
7 9 -16 461.799 266.268 4
-16 -9 7 -248.008 529.814 4
-16 -9 7 705.654 358.418 1
16 7 -9 642.839 364.484 1
9 7 16 848.488 530.939 3
-16 7 9 -38.2864 130.802 3
16 9 9 722.467 520.032 3
9 16 9 -14.6934 337.374 3
-16 -9 -9 96.0429 185.697 1
9 16 9 155.224 374.396 2
-16 9 9 -76.8944 265.615 2
-9 16 9 426.437 565.48 2
16 -9 -9 697.173 311.647 1
-9 -16 -9 373.746 346.122 1
-16 -9 9 464.209 389.805 1
9 -16 -9 615.844 398.253 1
-9 -9 16 480.497 389.357 1
-16 -9 9 576.843 368.275 2
9 -9 16 410.384 325.205 1
-9 -16 9 541.009 547.401 1
-9 16 -9 167.671 508.252 2
9 16 -9 432.646 433.914 2
9 9 -16 268.395 324.096 4
-16 -9 -9 480.8 562.12 4
-16 9 -9 1228.93 610.633 2
-16 -9 9 511.66 460.65 4
9 -16 9 474.101 456.436 1
-9 9 -16 734.252 461.422 2
9 9 16 658.201 481.304 3
16 -9 9 255.862 388.438 1
10 16 8 6.00167 331.511 3
16 -8 -10 420.818 243.991 1
-16 -10 -8 347.107 281.558 1
10 16 8 1089.37 724.836 2
-8 16 10 509.624 529.053 2
-8 -16 -10 742.387 523.938 1
-8 -10 16 480.334 480.729 1
-16 10 8 727.334 520.647 2
16 -10 8 817.766 381.866 1
10 -16 -8 112.598 269.481 1
-10 -16 8 761.497 519.608 1
-16 -8 10 323.304 235.666 2
10 -8 16 526.242 447.112 1
-10 16 -8 538.26 511.299 2
-16 -8 10 544.061 362.772 1
10 8 -16 251.078 289.964 4
8 16 -10 103.601 232.669 2
-16 -10 -8 798.655 542.751 4
-16 -8 10 965.404 596.652 4
-10 -8 -16 415.558 440.402 4
-16 8 -10 1135.87 592.049 2
16 10 -8 389.527 217.492 2
-8 10 -16 -16.5163 514.507 2
8 10 16 -135.161 438.301 3
16 8 10 707.155 549.067 3
8 -16 10 768.933 412.529 1
-6 16 10 672.893 798.069 2
-6 -10 16 48.5918 312.891 1
-6 -16 -10 -112.797 338.275 1
10 16 6 -81.3506 251.641 2
-16 -6 10 -62.8492 200.094 1
-10 -16 6 597.16 606.277 1
-16 -10 -6 160.843 270.879 1
-16 10 6 -546.82 542.566 2
10 -16 -6 -130.919 332.036 1
16 10 -6 242.554 395.647 1
-10 16 -6 -152.851 444.505 2
-16 -6 10 284.363 298.048 2
6 16 -10 -170.505 274.866 2
-16 -6 10 528.745 488.09 4
-10 -6 -16 -145.802 248.583 4
-16 -10 -6 -277.918 311.088 4
16 10 -6 202.684 304.034 2
-16 6 -10 132.447 267.077 1
16 -10 6 -57.8832 239.91 1
-6 10 -16 185.17 414.763 2
-16 6 -10 -242.306 309.524 2
6 -16 10 177.523 282.962 1
6 10 16 2.32269 485.55 3
16 6 10 760.102 665.945 3
-10 -16 4 458.696 300.45 1
-4 16 10 -333.806 637.795 2
-4 -16 -10 854.62 521.815 1
-4 -10 16 1070.53 586.416 1
10 16 4 852.888 449.098 2
-16 10 4 1279.74 662.625 2
16 10 -4 240.827 269.574 1
-16 4 -10 1037.19 435.777 1
-16 -10 -4 748.235 452.689 1
16 -10 4 1185.49 458.63 1
-16 -4 10 800.965 394.351 1
-10 16 -4 1037.26 639.299 2
10 -16 -4 383.138 175.534 1
16 -4 -10 684.079 276.254 1
4 16 -10 493.567 476.285 2
-16 -4 10 787.788 364.398 2
16 10 -4 1072.68 408.801 2
-16 -4 10 -86.9223 614.533 4
-10 -4 -16 822.486 442.614 4
-16 -10 -4 637.052 493.116 4
4 -16 10 730.959 411.861 1
-4 10 -16 566.637 360.78 2
4 10 16 232.749 355.879 3
16 4 10 791.361 602.531 3
-16 10 2 1158.41 358.272 1
16 10 -2 638.567 365.298 1
-2 -16 -10 1092.88 538.713 1
-2 -10 16 848.493 260.986 1
10 16 2 1106.71 578.158 2
-16 10 2 363.015 480.303 2
-10 16 -2 635.605 578.99 2
-16 -10 -2 1139.05 474.401 1
16 -2 -10 1191.02 363.519 1
16 10 -2 1507.12 464.215 2
-10 2 16 1085.6 435.692 4
2 16 -10 1602.23 758.705 2
-16 -2 10 79.2353 347.551 4
-10 -2 -16 -245.878 340.69 4
10 -16 -2 744.689 392.953 1
2 -16 10 1439.25 651.498 1
2 10 16 805.109 532.346 4
-16 -10 -2 340.391 484.11 4
-16 -2 10 1200.47 416.342 2
16 2 10 1561.71 494.603 2
16 -10 2 672.591 292.097 3
-10 -16 2 519.105 487.259 1
2 10 16 448.389 423.74 3
-2 10 -16 929.06 533.312 2
16 2 10 865.322 591.505 3
16 -10 2 1210.26 454.168 1
-16 2 -10 1360.15 514.831 1
16 10 0 412.77 307.104 1
0 16 10 187.156 293.961 3
-16 0 -10 -1.35701 240.854 1
0 -16 -10 661.908 469.879 1
-16 10 0 366.962 233.362 1
0 -10 16 495.289 449.485 1
10 16 0 87.1313 313.392 2
-10 16 0 878.825 618.659 2
16 10 0 833.879 421.708 2
-16 10 0 -291.641 372.416 2
16 -10 0 352.052 243.076 1
-16 0 -10 1630.76 913.93 4
-16 0 10 -41.8799 454.527 4
-10 0 -16 1084.46 537.812 4
0 16 -10 522.886 576.389 2
-10 -16 0 213.848 374.583 1
-10 0 16 639.828 339.786 4
0 -16 10 6.81399 198.201 1
-16 -10 0 212.286 196.147 1
16 0 10 383.245 329.776 2
-16 -10 0 534.909 543.655 4
0 10 16 637.595 451.936 4
0 10 16 122.6 234.504 3
0 -16 -10 323.218 302.344 3
16 0 -10 401.252 233.154 1
0 10 -16 495.606 372.758 2
16 0 10 197.74 596.897 3
16 -10 0 572.265 309.642 3
10 -16 0 139.703 285.203 1
2 16 10 -63.5477 320.128 3
16 -10 -2 1194.28 411.101 1
10 -16 2 1853.4 676.787 1
2 -16 -10 870.017 440.616 1
16 10 2 1565.13 565.784 2
-10 16 2 631.218 584.454 2
2 -10 16 851.321 488.417 1
-16 10 -2 1456.63 442.894 1
16 2 -10 1698.01 509.718 1
10 16 -2 558.78 457.97 2
-16 10 -2 909.421 573.238 2
-10 -16 -2 1374.86 682.364 1
-10 2 -16 -155.84 409.248 4
16 -2 10 972.645 463.388 2
-2 16 -10 1263.31 703.141 2
-16 -2 -10 -407.252 544.291 4
-2 -16 10 1276.01 673.423 1
-16 -10 2 -93.6032 344.53 4
16 -2 10 442.276 549.505 3
2 10 -16 901.718 466.608 2
16 -10 -2 1100.87 283.418 3
-16 -10 2 1131.72 492.8 1
-16 4 10 246.707 220.164 3
4 16 10 406.114 393.802 3
16 10 4 -331.454 581.723 3
-16 -10 4 906.941 391.53 2
16 4 -10 1051.16 424.947 1
4 -16 -10 730.694 371.398 1
16 10 4 595.221 392.162 2
-16 -10 4 629.262 289.557 1
-10 16 4 733.498 470.945 2
10 -16 4 228.84 179.533 1
-10 -16 -4 703.548 426.437 1
10 16 -4 591.459 463.083 2
4 -10 16 548.258 459.605 1
-16 10 -4 1370.34 659.563 2
-4 16 -10 524.714 398.016 2
-16 10 -4 1048.48 395.535 1
-4 -16 10 780.724 431.919 1
-16 -4 -10 412.272 377.286 4
16 -10 -4 826.13 331.857 1
-16 -10 4 -68.6551 419.465 4
16 6 -10 47.1398 257.251 1
16 10 6 -38.419 384.516 3
6 16 10 -270.326 432.572 3
6 -16 -10 -18.7703 206.916 1
-10 16 6 -267.265 303.678 2
-16 -10 6 -21.1613 306.841 2
-10 -16 -6 196.679 330.007 1
16 -10 -6 257.043 237.067 1
-16 -10 6 -318.645 282.79 1
10 -16 6 331.392 366.193 1
10 16 -6 373.612 377.088 2
-6 -16 10 -383.713 465.269 1
-6 16 -10 -117.158 245.081 2
6 -10 16 -30.9879 300.704 1
-16 10 -6 -14.0845 346.857 2
-10 -6 16 -200.784 374.405 1
-16 -6 -10 868.787 680.586 4
6 10 -16 298.651 254.603 4
-16 -10 6 149.815 320.734 4
10 6 16 -91.1246 411.155 3
-16 10 -6 371.207 324.334 1
-16 6 10 -64.3418 195.312 3
-16 -8 -10 218.753 166.112 1
16 10 8 664.329 516.909 3
8 16 10 142.819 287.863 3
-10 16 8 -70.413 503.117 2
8 -16 -10 303.355 168.104 1
-10 -16 -8 610.117 452.997 1
16 -8 10 182.884 172.874 1
16 -10 -8 687.554 363.412 1
-16 -10 8 469.372 239.508 2
-8 -16 10 502.778 463.299 1
10 16 -8 934.06 488.566 2
-8 16 -10 588.76 471.81 2
-10 -8 16 321.625 440.838 1
8 10 -16 259.103 355.113 4
-16 10 -8 635.904 296.129 2
-16 -8 -10 214.761 446.746 4
-16 -10 8 550.19 505.308 4
10 -16 8 775.804 574.082 1
10 8 16 959.98 755.899 3
-16 -10 8 169.62 173.873 1
-16 8 10 -142.335 188.08 3
8 -10 16 350.612 358.707 1
-7 -11 16 57.0488 294.87 1
7 -16 11 599.861 477.815 1
-16 -7 11 16.9731 166.745 1
-7 16 11 -254.206 670.209 2
-7 -16 -11 -68.0139 278.381 1
11 16 7 176.168 309.724 2
-16 -11 -7 -27.8077 208.746 1
-16 11 7 283.577 489.622 2
-11 -16 7 355.303 401.727 1
11 -16 -7 -289.389 358.731 1
-16 -7 11 -382.352 461.849 2
-11 16 -7 53.7876 335.298 2
7 16 -11 -115.259 254.254 2
-11 -7 -16 222.863 387.616 4
-16 -7 11 7.08271 362.889 4
-16 -11 -7 621.945 474.143 4
16 11 -7 96.9604 271.742 2
16 -11 7 -194.846 218.32 1
-7 11 -16 -420.141 437.372 2
-16 7 -11 158.929 271.875 2
7 11 16 153.788 542.161 3
16 7 11 744.256 836.399 3
-5 -11 16 384.876 442.379 1
-16 -5 11 574.611 312.672 1
-11 -16 5 808.257 465.446 1
-5 -16 -11 894.572 424.423 1
11 16 5 430.544 381.575 2
-16 11 5 607.12 454.469 2
-16 -11 -5 864.275 467.765 1
16 -11 5 493.713 322.425 1
-11 16 -5 1146.32 567.627 2
11 -16 -5 127.388 324.032 1
-16 -5 11 989.647 432.573 2
5 16 -11 955.538 525.232 2
16 -5 -11 458.307 232.389 1
16 11 -5 710.99 397.144 2
-16 -5 11 449.326 452.761 4
-11 -5 -16 -5.58158 283.562 4
-16 -11 -5 865.174 620.823 4
-5 11 -16 367.941 298.052 2
5 11 16 2159.35 832.138 3
16 5 11 260.799 443.783 3
5 -16 11 1064.83 664.227 1
-3 -11 16 119.448 255.39 1
16 -3 -11 -112.78 210.197 1
-3 -16 -11 631.294 409.295 1
11 16 3 55.6671 368.61 2
-16 11 3 342.271 394.804 2
-16 -11 -3 72.9157 158.044 1
-11 16 -3 116.843 357.484 2
16 11 -3 448.995 328.304 2
11 -16 -3 508.367 341.321 1
3 16 -11 420.758 554.087 2
-16 -3 11 -490.125 628.773 4
-11 -3 -16 193.227 373.224 4
-16 -3 11 120.795 144.854 2
-16 -11 -3 1520.6 734.67 4
-3 11 -16 637.649 523.226 2
16 3 11 162.795 142.188 2
3 11 16 167.288 288.581 3
3 -16 11 -65.9685 300.664 1
16 3 11 -501.983 401.138 3
-11 -16 3 256.042 234.368 1
16 -11 3 381.916 388.694 1
-1 16 11 358.564 313.144 3
-1 -11 16 223.153 462.425 1
-16 11 1 259.779 250.061 1
-1 -16 -11 424.791 348.132 1
16 -1 -11 211.802 197.607 1
11 16 1 619.594 462.846 2
-16 11 1 1124.76 601.203 2
-11 16 -1 196.39 328.499 2
-16 1 -11 -61.7104 127.583 1
16 11 -1 383.12 260.45 2
16 -11 1 682.144 301.677 1
-16 1 -11 11.9028 463.938 4
-16 -11 -1 481.147 318.144 1
-11 1 16 -439.012 415.326 4
-16 -1 11 1446.26 741.059 4
-11 -1 -16 13.5209 374.578 4
1 16 -11 282.158 500.652 2
-11 -16 1 -4.06998 265.876 1
-16 -11 -1 873.43 466.696 4
16 1 11 -58.1794 247.152 2
1 -16 11 162.781 346.467 1
16 -11 1 343.05 342.121 3
11 -16 -1 362.656 305.204 1
-1 11 -16 570.658 515.592 2
1 11 16 -742.034 458.882 3
16 1 11 693.962 757.371 3
11 -16 1 213.864 171.536 1
1 16 11 462.069 310.178 3
1 -16 -11 193.007 203.583 1
1 -11 16 334.234 345.503 1
16 -11 -1 594.921 317.914 1
-16 11 -1 277.7 199.055 1
-11 16 1 1020.92 796.041 2
16 11 1 447.873 189.091 2
11 16 -1 252.101 310.379 2
-16 11 -1 617.636 401.385 2
-16 1 11 -289.551 475.597 4
-11 1 -16 325.305 325.51 4
-11 -16 -1 -96.3006 417.13 1
-16 -1 -11 982.404 620.085 4
-1 16 -11 677.844 487.18 2
-11 -1 16 354.419 292.532 4
16 1 -11 103.262 172.755 1
-16 -11 1 -860.633 460.109 4
-1 -16 11 625.077 470.975 1
-16 -11 1 -112.897 284.242 1
16 -1 11 1630.47 807.48 3
1 11 -16 558.214 478.849 2
-1 11 16 320.92 435.052 3
16 -11 -1 152.033 273.809 3
16 -11 -3 200.137 148.579 3
3 16 11 534.25 354.553 3
-16 -11 3 -54.7732 197.463 1
3 -16 -11 388.693 233.861 1
11 -16 3 50.407 276.041 1
3 -11 16 80.252 287.273 1
16 11 3 140.628 346.175 2
-11 16 3 -136.024 396.085 2
16 3 -11 63.7836 178.227 1
11 16 -3 489.091 470.81 2
-16 11 -3 371.094 231.01 1
-11 -16 -3 202.011 371.866 1
-16 11 -3 276.41 242.582 2
-16 -3 -11 -1069.3 704.98 4
-3 16 -11 -12.7647 305.247 2
-3 -16 11 237.459 301.239 1
-16 -11 3 199.188 463.071 4
-3 11 16 -221.746 265.538 3
3 11 -16 78.7918 339.525 2
16 -11 -3 242.841 199.578 1
5 16 11 765.232 384.869 3
-16 5 11 685.39 336.477 3
16 11 5 106.995 439.44 3
5 -16 -11 417.19 328.136 1
16 11 5 10.1999 236.633 2
16 5 -11 105.141 272.546 1
-16 -11 5 1303.01 608.181 2
-11 16 5 330.432 470.857 2
-16 -11 5 486.806 443.004 1
5 -11 16 1049.45 622.676 1
-11 -16 -5 424.735 440.098 1
11 -16 5 485.727 436.201 1
11 16 -5 608.167 423.42 2
16 -11 -5 392.977 254.979 1
-16 11 -5 465.664 414.601 2
-5 16 -11 489.549 424.134 2
-16 11 -5 290.516 158.416 1
-16 -5 -11 38.467 608.303 4
-5 -16 11 456.319 462.992 1
-16 -11 5 200.021 306.621 4
11 5 16 425.088 581.253 3
5 11 -16 747.481 492.532 2
-11 -5 16 754.026 620.332 1
-16 7 11 27.4145 205.582 3
7 16 11 -426.7 485.559 3
16 11 7 543.561 435.535 3
-11 -7 16 -123.548 375.757 1
7 -16 -11 90.1295 335.404 1
-11 16 7 252.344 542.001 2
-16 -11 7 -6.31648 280.2 2
-11 -16 -7 -9.06192 253.825 1
16 -11 -7 422.254 288.022 1
7 -11 16 734.74 464.183 1
11 16 -7 340.555 344.227 2
-16 -11 7 -69.7748 216.532 1
-7 16 -11 38.2621 511.656 2
-16 11 -7 600.345 329.661 2
-16 -7 -11 -428.17 550.873 4
11 -16 7 66.9304 222.698 1
-7 -16 11 441.939 421.296 1
7 11 -16 -272.646 353.601 4
11 7 16 947.99 791.769 3
12 -16 -4 -106.681 75.4371 3
-12 -16 4 -67.5907 297.817 1
16 -12 4 323.361 203.776 1
-4 16 12 212.702 212.355 3
4 -16 12 364.514 456.477 1
-4 -16 -12 -212.575 433.722 1
12 16 4 40.2171 271.631 2
-16 12 4 -559.287 397.503 2
-16 -12 -4 -33.5837 292.654 1
-12 16 -4 -47.1023 301.478 2
12 -16 -4 81.6401 179.119 1
16 12 -4 -329.384 268.262 2
16 -4 -12 -1.58166 172.544 1
4 16 -12 -67.7891 328.012 2
-12 -4 -16 1307.4 676.157 4
-16 -4 12 -536.791 498.812 4
-16 -4 12 85.8764 165.983 2
-16 -12 -4 1079.15 657.789 4
-4 12 -16 499.113 554.07 2
-4 -12 16 -70.1703 288.544 1
16 4 12 851.009 624.768 3
4 12 16 -53.5642 419.738 3
-16 -4 12 -44.4569 149.689 1
2 -16 12 1213.69 603.083 1
-2 16 12 47.924 317.901 3
-16 12 2 679.324 296.095 1
-2 -16 -12 236.635 405.539 1
12 16 2 249.667 307.93 2
-16 12 2 1147.07 700.534 2
-12 16 -2 225.172 516.756 2
16 12 -2 950.984 483.073 2
-16 -12 -2 252.472 247.974 1
-12 2 16 -432.243 463.249 4
-16 2 -12 -182.985 405.321 4
16 -12 2 951.663 397.23 1
-16 -2 12 -104.528 431.994 4
-12 -2 -16 -494.592 477.625 4
2 16 -12 289.639 574.952 2
16 -2 -12 714.928 349.571 1
12 -16 -2 170.406 231.123 1
-16 -12 -2 939.157 571.264 4
-2 12 -16 1260.78 626.945 2
-16 -2 12 346.219 317.624 2
-12 -16 2 757.897 525.477 1
16 2 12 -144.124 463.541 3
-2 -12 16 635.828 449.271 1
2 12 16 1221.4 622.326 3
12 -16 0 271.2 312.151 1
0 16 12 -296.137 420.328 3
0 -16 -12 -20.3775 200.147 1
16 0 -12 175.07 166.858 1
-16 12 0 156.933 190.273 1
16 -12 0 -202.91 291.325 1
12 16 0 374.861 242.422 2
-12 16 0 -678.647 536.588 2
16 12 0 193.969 350.63 2
-16 12 0 -119.561 456.429 2
-16 0 -12 -939.157 696.701 4
-16 0 12 462.044 582.634 4
-12 0 -16 1268.85 713.725 4
-12 0 16 186.925 306.573 4
0 16 -12 124.843 251.128 2
-12 -16 0 -127.245 288.974 1
-16 -12 0 -90.9809 342.709 1
-16 -12 0 -433.789 346.382 4
0 12 -16 349.824 452.658 2
16 -12 0 -23.8028 317.099 3
16 0 12 -296.009 507.91 3
0 12 16 -460.288 336.079 3
0 -12 16 -152.068 402.768 1
0 -16 12 -325.715 458.608 1
16 -12 -2 711.372 366.196 1
2 -12 16 1768.24 732.407 1
2 16 12 389.392 447.254 3
2 -16 -12 949.83 470.647 1
12 -16 2 741.61 438.41 1
16 12 2 527.477 378.9 2
-12 16 2 155.263 464.683 2
-16 12 -2 717.781 368.891 1
12 16 -2 1067.26 625.46 2
-16 12 -2 544.434 563.8 2
-12 -16 -2 396.868 256.716 1
-12 2 -16 120.458 299.648 4
-16 -2 -12 798.642 584.766 4
16 2 -12 967.716 456.037 1
-2 16 -12 506.84 300.575 2
-12 -2 16 -159.193 305.915 4
-16 -12 2 -38.7627 379.405 4
16 -2 12 -255.756 659.209 3
2 12 -16 907.831 533.311 2
-2 12 16 412.068 387.072 3
16 -12 -2 641.691 322.128 3
-2 -16 12 657.844 454.277 1
-16 -12 2 665.837 455.157 1
4 16 12 -27.1808 386.857 3
4 -12 16 459.229 521.032 1
4 -16 -12 405.168 455.121 1
-16 -12 4 -210.546 375.041 2
-16 -12 4 257.152 282.832 1
16 12 4 322.731 311.817 2
-12 16 4 -123.954 298.494 2
16 4 -12 221.548 335.821 1
12 -16 4 -316.874 248.734 1
-12 -16 -4 2.15114 349.294 1
12 16 -4 471.957 508.435 2
-16 12 -4 -64.7519 158.116 1
-16 12 -4 436.161 381.819 2
-16 -4 -12 1662.85 818.798 4
-4 16 -12 351.544 370.594 2
16 -12 -4 82.0706 218.857 1
12 4 16 -519.865 780.062 3
4 12 -16 61.414 282.961 2
-4 12 16 6.08496 287.384 3
-4 -16 12 89.1204 235.64 1
-1 16 13 151.172 374.969 3
-1 -16 -13 -347.597 450.991 1
1 -16 13 458.963 371.097 1
-16 13 1 -318.007 201.649 1
13 16 1 88.077 263.161 2
16 -13 1 151.176 182.51 1
-16 13 1 -412.394 556.636 2
-13 16 -1 -439.341 564.451 2
16 13 -1 20.2319 232.782 2
16 -1 -13 259.75 208.524 1
-16 1 -13 -361.521 657.869 4
-13 1 16 -199.192 351.862 4
-16 -13 -1 57.4192 340.542 1
-13 -1 -16 -332.044 390.546 4
-16 -1 13 1911.42 844.261 4
1 16 -13 -366.001 472.734 2
-1 -13 16 311.939 435.237 1
-13 -16 1 -20.9273 332.292 1
-16 -13 -1 -272.081 372.405 4
-1 13 -16 -111.055 237.218 2
16 1 13 181.063 402.623 3
1 13 16 -430.013 509.437 3
13 -16 -1 57.4206 222.683 1
16 1 -13 20.7233 150.073 1
1 16 13 -135.509 272.717 3
-1 -16 13 -232.791 420.786 1
1 -16 -13 264.445 347.457 1
16 -13 -1 -129.348 243.483 1
13 -16 1 110 336.778 1
-16 13 -1 215.348 342.635 1
16 13 1 -4.45638 286.784 2
-13 16 1 498.54 574.735 2
13 16 -1 294.415 411.684 2
-16 13 -1 49.8393 271.948 2
-16 1 13 1325.53 751.433 4
-13 1 -16 -357.855 560.253 4
-16 -1 -13 -917.556 665.889 4
-13 -16 -1 208.299 328.336 1
-13 -1 16 -859.897 461.94 4
-1 16 -13 -156.583 388.658 2
1 13 -16 -266.292 411.624 2
-16 -13 1 -284.863 386.162 1
1 -13 16 538.916 265.748 1
16 -1 13 -276.143 687.828 3
16 -13 -1 581.94 370.516 3
-1 13 16 -65.4035 298.243 3
17 0 1 1308.66 537.507 3
17 -1 0 1744.85 533.537 3
17 1 0 2047.32 602.931 3
17 0 -1 1349.43 463.682 3
0 17 1 1922.95 855.552 2
1 17 0 1462.71 789.361 2
-1 17 0 1163.58 663.229 2
0 17 -1 1305.37 622.326 2
-17 0 1 861.047 710.156 4
-17 0 -1 2213.11 759.841 4
-17 -1 0 2134.33 823.71 4
0 -17 -1 2074.44 718.419 1
-1 -17 0 1588.21 642.279 1
1 -17 0 1807.87 673.499 1
-1 0 -17 1152.47 295.341 4
0 -17 1 2378.44 822.477 1
17 -2 1 543.722 445.253 3
17 1 2 700.401 506.112 3
17 -2 1 646.107 284.215 2
-1 17 2 591.234 588.322 2
2 17 1 945.508 620.444 2
-2 17 -1 213.403 261.041 2
1 17 -2 814.302 724.88 2
-1 -17 -2 785.661 565.277 1
-17 -2 -1 575.613 176.674 1
-17 -1 2 266.745 477.552 4
-17 -2 -1 1109.74 671.326 4
-1 2 -17 396.468 173.226 4
-17 2 1 863.778 229.364 2
2 -17 -1 132.614 247.6 1
-2 -1 -17 810.421 273.519 4
-2 -17 1 892.658 484.419 1
-17 2 1 -5.63185 301.726 3
1 -17 2 657.325 406.151 1
17 -1 2 1087.17 571.893 3
17 2 1 636.333 464.173 3
17 -2 -1 1190.45 463.454 3
17 -1 2 748.645 284.758 2
-17 -1 -2 676.218 190.628 1
1 17 2 475.306 505.296 2
-17 -1 -2 392.798 145.622 1
-2 17 1 44.7772 437.968 2
2 17 -1 702.06 556.239 2
-1 17 -2 589.757 388.371 2
1 -17 -2 923.205 461.615 1
-17 -1 -2 718.055 709.976 4
-2 -17 -1 1198.26 617.96 1
-17 -2 1 750.96 773.54 4
-2 1 -17 780.795 264.277 4
2 -17 1 863.027 456.945 1
-17 2 -1 780.356 224.936 2
-1 -17 2 312.662 351.686 1
-17 1 2 1024.5 454.812 3
2 -17 3 98.5646 278.723 1
17 2 3 217.384 390.719 3
17 -3 2 -8.20415 151.762 2
-2 17 3 439.261 606.114 2
3 17 2 -181.183 327.787 2
-17 -3 -2 152.039 88.6855 1
-3 17 -2 89.8669 281.384 2
2 17 -3 195.627 433.292 2
-17 2 -3 250.707 136.729 1
17 2 3 213.704 122.933 2
-17 3 2 291.363 233.724 2
-2 -17 -3 385.478 447.146 1
3 -17 -2 174.623 396.814 1
-17 -2 3 1133.17 693.003 4
-17 -3 -2 564.728 583.625 4
-3 -2 -17 312.58 205.696 4
-3 -17 2 210.528 198.392 1
-17 3 2 -71.4871 205.669 3
17 -3 2 531.906 382.034 3
17 -3 0 345.905 367.657 3
-17 0 -3 131.729 99.3974 1
0 -17 -3 -422.469 405.025 3
17 3 0 701.346 402.179 3
0 17 3 -99.5367 324.462 2
3 17 0 559.17 567.055 2
-3 17 0 -349.608 369.017 2
17 0 3 212.15 178.494 2
0 17 -3 18.3532 253.958 2
0 -17 -3 743.884 525.007 1
0 3 -17 630.037 209.101 4
-17 0 3 833.659 668.271 4
-17 0 -3 1485.5 784.782 4
-17 3 0 235.556 187.206 2
-17 -3 0 956.696 578.094 4
-3 -17 0 636.943 436.827 1
-3 0 -17 449.103 218.357 4
3 -17 0 178.154 226.422 1
-17 0 -3 250.326 145.568 1
-17 -3 0 62.235 75.4256 1
-17 0 3 -364.919 457.536 3
0 -17 3 14.3193 267.086 1
17 0 3 114.776 383.543 3
17 3 2 -458.911 382.2 3
2 -17 -3 318.529 304.743 3
17 -3 -2 598.607 301.137 3
-17 -2 -3 57.81 107.942 1
2 17 3 151.293 498.063 2
-3 17 2 408.008 463.537 2
17 -2 3 499.239 349.302 2
3 17 -2 371.608 434.977 2
-17 2 3 226.278 192.525 2
-2 17 -3 142.26 365.053 2
2 -17 -3 -152.22 328.539 1
-3 -17 -2 74.3895 255.56 1
-3 2 -17 161.385 186.137 4
-17 -2 -3 1504.37 944.524 4
-17 -3 2 891.821 744.999 4
-17 3 -2 -34.5596 110.761 2
-17 -3 2 82.4201 125.651 1
-17 2 3 968.572 512.456 3
3 -17 2 440.785 309.863 1
-2 -17 3 189.739 284.986 1
17 -2 3 80.3611 315.63 3
17 3 4 198.289 411.673 3
17 4 -3 192.997 111.052 1
3 -17 4 -40.646 223.505 1
-3 17 4 -196.627 250.305 2
4 17 3 523.71 674.009 2
-17 -4 -3 74.4705 132.976 1
17 -4 3 -8.48789 179.071 2
-17 4 3 -135.54 242.253 2
-17 3 -4 27.9059 85.7308 1
-4 17 -3 199.974 348.837 2
-3 -17 -4 195.832 250.313 1
3 17 -4 -102.877 323.121 2
4 -17 -3 54.3351 199.325 1
-17 -3 4 347.962 575.54 4
17 3 4 40.5841 91.1732 2
-17 -4 -3 812.663 669.742 4
-4 -3 -17 -59.7931 205.52 4
-17 -3 4 -22.0902 100.119 1
-17 4 3 460.45 327.886 3
-17 3 -4 -73.005 181.863 2
-4 -17 3 779.875 505.478 1
17 -4 3 -15.4328 343.962 3
1 -17 4 2283.02 786.949 1
17 -4 1 2266.55 591.852 2
-17 1 -4 2226.29 405.088 1
-1 17 4 2275.52 974.561 2
4 17 1 2369.38 909.242 2
-4 17 -1 2752.49 953.048 2
-1 -17 -4 2821.16 851.461 1
1 17 -4 2488.54 934.427 2
17 1 4 2678.78 516.162 2
-17 4 1 2836.02 560.863 2
-17 -4 -1 2576.08 458.348 1
-17 -1 4 1582.7 679.414 4
-17 -4 -1 2757.07 972.438 4
4 -17 -1 3582.22 894.661 1
-4 -1 -17 1306.87 452.583 4
-4 -17 1 2319.54 862.311 1
17 -4 1 2117.32 605.817 3
17 1 4 2025.48 671.364 3
17 -4 -1 1585.71 487.798 3
1 -17 -4 2402.14 551.942 3
-1 -17 4 2069.43 736.569 1
17 4 1 2940.91 807.616 3
-17 -1 -4 2777.69 468.565 1
1 17 4 1915.8 871.145 2
-4 17 1 1499.94 845.167 2
-17 1 4 1692 371.341 2
4 17 -1 2368.88 916.782 2
17 -1 4 3735.87 707.707 2
1 -17 -4 3384.64 896.588 1
-1 17 -4 2368.06 963.628 2
-17 -4 1 2258.6 437.098 1
-1 4 17 1284.9 405.429 4
-4 -17 -1 3080.43 918.858 1
-17 -1 -4 2558.7 993.682 4
-4 1 -17 1831.93 446.88 4
-17 4 -1 2665.99 563.843 2
-17 -4 1 2057.12 867.629 4
4 -17 1 2645.47 788.464 1
-17 1 4 1966.04 563.505 3
17 -1 4 2856.77 905.268 3
-3 -17 4 253.785 425.258 1
4 -17 3 9.71647 261.866 1
17 4 3 454.138 433.277 3
3 -17 -4 274.841 204.046 3
-17 -3 -4 35.51 83.235 1
17 3 -4 -5.14016 81.9025 1
3 17 4 -9.8207 267.54 2
-4 17 3 327.057 444.432 2
-17 3 4 103.176 205.551 2
17 -3 4 256.172 345.374 2
4 17 -3 242.858 391.836 2
-3 17 -4 426.773 576.545 2
3 -17 -4 72.9316 245.239 1
-4 -17 -3 352.57 510.713 1
-17 -3 -4 363.684 634.469 4
-3 4 17 -58.6791 135.25 4
-17 -4 3 1786.86 940.866 4
17 4 3 -75.118 95.6572 2
-17 4 -3 -139.863 109.502 2
-17 -4 3 29.7651 91.581 1
-17 3 4 532.87 352.766 3
-17 4 -3 32.0288 59.2373 1
17 -3 4 504.731 431.041 3
17 4 5 -43.7044 396.397 3
-5 -17 4 419.472 453.293 1
5 -17 -4 604.753 284.595 3
4 -17 5 217.461 347.657 1
-17 -5 -4 259.067 205.241 1
17 5 -4 699.391 245.598 1
-4 17 5 629.474 543.006 2
5 17 4 610.982 539.256 2
-4 -5 17 962.499 533.654 1
-17 5 4 778.503 394.258 2
17 -5 4 1033.49 502.173 2
-4 -17 -5 926.524 457.943 1
-17 4 -5 551.852 247.168 1
-5 17 -4 -283.984 518.309 2
4 17 -5 976.036 733.496 2
5 -17 -4 -56.6944 254.729 1
-17 -4 5 469.338 215.968 1
4 5 17 -205.602 410.824 4
-17 -4 5 660.174 669.839 4
-17 -5 -4 698.003 690.359 4
-5 4 17 323.047 150.987 4
-5 -4 -17 -120.794 204.799 4
17 4 5 309.829 172.911 2
-17 4 -5 548.618 280.425 2
-17 5 4 391.269 296.774 3
17 -5 4 1320.48 602.815 3
-17 2 -5 1631.29 392.909 1
2 -17 5 1919.36 687.126 1
17 -5 2 2476.6 745.737 2
-2 17 5 1513.88 826.783 2
5 17 2 1980.72 860.511 2
-2 -17 -5 1958.42 722.522 1
-5 17 -2 1853.35 825.792 2
-17 5 2 3004.13 721.418 2
-17 -5 -2 1855.11 427.143 1
2 17 -5 2603.42 984.838 2
2 5 17 378.365 241.227 4
5 -17 -2 2436.98 753.968 1
-2 -5 17 3307.13 942.021 1
-17 -2 5 1480.54 785.866 4
17 2 5 1914.54 442.66 2
-17 -5 -2 2288.92 888.027 4
-5 -2 -17 2039.52 592.44 4
-5 -17 2 2028.57 757.484 1
17 -5 2 1882.59 560.763 3
17 2 5 2407.59 823.422 3
17 5 -2 1871.28 384.954 1
0 -17 -5 2174.13 632.733 3
0 -5 17 2214.97 735.742 1
0 -17 5 1321.45 575.669 1
-17 0 5 1149.45 307.733 2
0 17 5 874.604 632.473 2
-17 0 -5 1551.5 397.003 1
5 17 0 1236.99 675.122 2
-5 17 0 1534.67 773.169 2
0 -17 -5 1577.92 651.486 1
0 17 -5 997.337 631.688 2
17 0 5 1550.89 433.696 2
-17 5 0 872.043 338.917 2
-17 0 5 1877.71 875.132 4
-17 0 -5 2624.06 902.999 4
0 5 17 1450.58 403.698 4
-5 0 -17 1759.18 529.853 4
-5 -17 0 2161.72 721.588 1
-17 -5 0 1371.66 518.208 4
-17 -5 0 1679.38 405.641 1
5 -17 0 1046.77 542.048 1
17 0 5 638.516 359.381 3
-17 0 5 1206.15 468.362 3
17 -5 0 1707.68 606.839 3
2 -17 -5 1978.4 519.009 3
17 -5 -2 1970.15 516.852 3
17 5 2 2036.35 646.391 3
-2 -17 5 1910.2 688.191 1
2 17 5 1663.67 890.969 2
-17 2 5 1931.89 532.665 2
-17 -5 2 2428.69 482.365 1
-5 17 2 2179.66 883.128 2
17 2 -5 975.729 220.689 1
5 17 -2 1279.17 773.785 2
2 -17 -5 1685.17 634.476 1
17 -2 5 2313.15 632.409 2
2 -5 17 2432.9 838.505 1
-17 5 -2 1177.88 262.2 1
-2 17 -5 2857.55 1007.74 2
-5 -17 -2 2814.17 869.178 1
-5 2 -17 1249.23 487.929 4
-17 -2 -5 2240.86 923.205 4
-17 5 -2 2899.1 662.07 2
-2 5 17 1659.33 444.285 4
-17 -5 2 2746.48 1037.8 4
17 -2 5 3118.47 814.518 3
-17 2 5 2832.11 691.291 3
5 -17 2 1660.88 648.482 1
4 -17 -5 489.079 273.238 3
-17 5 -4 466.397 205.829 1
17 5 4 772.914 466.497 3
-17 -4 -5 237.984 194.376 1
-4 -17 5 413.85 364.229 1
5 -17 4 400.499 360.135 1
4 17 5 -112.877 264.958 2
-17 4 5 195.069 260.423 2
-5 17 4 296.64 341.659 2
17 4 -5 509.101 212.088 1
17 -4 5 535.354 378.095 2
4 -17 -5 673.914 454.495 1
-5 -17 -4 384.861 199.246 1
5 17 -4 668.784 503.03 2
-4 17 -5 473.581 397.393 2
-17 -4 -5 1935.37 958.929 4
-17 -5 4 -470.174 524.193 4
-17 5 -4 234.609 286.016 2
-4 5 17 -70.3212 170.273 4
-17 -5 4 491.079 217.174 1
-17 4 5 731.077 415.5 3
17 -4 5 775.765 520.637 3
17 5 6 384.835 439.631 3
-5 -6 17 593.684 581.557 1
-6 -17 5 259.554 336.122 1
-17 -6 -5 345.029 201.998 1
-5 17 6 -127.837 527.054 2
6 17 5 830.666 623.82 2
-17 6 5 371.267 293.637 2
5 -17 6 695.077 410.38 1
-5 -17 -6 489.808 420.249 1
17 6 -5 550.528 258.768 1
-17 -5 6 733.362 263.753 2
17 -6 5 1322.54 589.83 2
17 -5 -6 433.785 139.427 1
-17 5 -6 280.175 171.519 1
6 -17 -5 886.04 461.643 1
-17 -5 6 651.995 279.095 1
-6 17 -5 564.088 426.45 2
5 17 -6 1072.61 703.898 2
5 6 17 -757.594 521.359 4
-17 -5 6 350.812 399.373 4
-17 -6 -5 -137.197 578.438 4
-6 -5 -17 940.835 387.34 4
-17 5 -6 511.703 331.141 2
17 -5 -6 480.14 160.806 1
17 -6 5 -313.954 399.777 3
6 -17 -5 769.371 248.997 3
-3 -6 17 -57.9831 179.195 1
17 6 -3 241.788 205.513 1
-3 17 6 47.3617 445.287 2
6 17 3 107.069 302.23 2
17 -6 3 223.268 362.204 2
3 -17 6 412.607 390.506 1
-17 -6 -3 40.2218 162.975 1
-3 -17 -6 391.174 398.462 1
-17 6 3 401.233 331.893 2
-6 17 -3 312.849 382.25 2
-17 -3 6 -2.1887 76.9614 2
3 17 -6 229.35 477.732 2
6 -17 -3 265.75 292.659 1
3 6 17 791.004 436.034 4
17 -3 -6 93.7789 71.9047 1
-17 -3 6 89.987 379.551 4
-17 -6 -3 189.578 351.803 4
-6 -3 -17 6.86439 296.815 4
17 3 6 41.0686 138.162 2
-17 -3 6 270.037 141.801 1
17 -6 3 487.112 348.742 3
-6 -17 3 183.249 449.067 1
-17 3 -6 -23.5988 98.9488 1
17 3 6 -267.74 448.004 3
17 -6 1 1515.73 288.567 1
17 -6 1 1350.86 514.164 2
-1 17 6 1574.79 943.704 2
1 -17 6 1697.12 699.258 1
-1 -6 17 1680.31 758.826 1
6 17 1 1757.12 757.395 2
-1 -17 -6 1734.95 683.07 1
-6 17 -1 1336.62 757.726 2
-17 6 1 1210.27 514.087 2
1 17 -6 1469.59 726.294 2
-17 -6 -1 1618.47 448.871 1
-17 1 -6 1192.95 630.156 4
-17 -1 6 1687.45 800.592 4
17 1 6 1970.73 476.27 2
1 6 17 224.013 337.335 4
-6 -1 -17 450.309 317.562 4
-17 -6 -1 512.849 556.53 4
6 -17 -1 1606.11 565.848 1
-6 -17 1 1512.6 748.141 1
-17 -1 6 1244.31 264.901 2
-17 1 -6 1731.63 441.173 1
17 -6 1 2497.72 712.078 3
17 1 6 756.578 525.636 3
17 -6 -1 1681.94 497.255 3
17 6 1 1041.96 554.604 3
-17 1 6 1079.34 347.538 2
1 17 6 233.058 461.742 2
-1 -17 6 1405.97 616.982 1
-17 6 -1 875.045 220.297 1
-6 17 1 1894.34 885.765 2
1 -17 -6 1802.33 677.375 1
6 17 -1 1023.68 616.853 2
-1 17 -6 1501.4 718.285 2
17 -1 6 1882.33 531.602 2
1 -6 17 1952.02 715.659 1
-17 6 -1 1995.37 595.484 2
17 1 -6 1011.42 251.7 1
-6 -17 -1 2031.06 740.545 1
-17 -1 -6 1724.9 830.649 4
-6 1 -17 173.187 316.389 4
-1 6 17 689.902 407.489 4
-17 -6 1 860.067 736.813 4
6 -17 1 1341.66 613.352 1
17 -1 6 1455.05 663.097 3
-17 -1 -6 1606.28 449.524 1
-17 -6 1 1625.4 414.158 1
1 -17 -6 999.828 402.984 3
-17 1 6 683.915 443.093 3
17 6 3 -223.467 376.418 3
6 -17 3 -57.0464 409.569 1
3 -6 17 136.325 237.343 1
-17 3 6 404.017 266.828 2
17 6 3 109.286 174.492 2
3 17 6 451.16 361.376 2
-3 -17 6 570.04 460.346 1
-6 17 3 98.9591 499.708 2
3 -17 -6 308.993 245.229 1
-17 -6 3 -125.043 190.294 1
6 17 -3 125.463 424.851 2
17 -3 6 -89.5052 257.989 2
-6 -17 -3 18.7369 348.274 1
17 3 -6 112.446 107.843 1
-3 17 -6 292.872 434.348 2
-17 -3 -6 448.042 459.174 4
-17 6 -3 326.641 191.684 1
-17 6 -3 216.908 316.084 2
-17 -6 3 590.923 638.802 4
-3 6 17 164.246 171.679 4
17 -3 6 -8.50427 355.357 3
-17 3 6 -29.0347 240.852 3
3 -17 -6 297.197 276.663 3
5 -6 17 556.775 305.749 1
17 6 5 -151.013 316.217 3
-17 -5 -6 673.845 251.834 1
-17 6 -5 924.135 331.844 1
-5 -17 6 585.598 425.091 1
5 17 6 -118.444 347.062 2
-17 5 6 499.618 349.784 2
-17 -6 5 507.672 227.346 2
-6 17 5 -33.8296 509.246 2
-6 -5 17 963.762 519.418 1
6 -17 5 197.038 190.117 1
-6 -17 -5 429.757 370.298 1
5 -17 -6 779.817 472.446 1
17 -5 6 550.936 377.583 2
17 5 -6 909.361 328.159 1
6 17 -5 545.255 505.841 2
-5 17 -6 762.44 575.027 2
17 -6 -5 461.393 195.777 1
5 6 -17 678.169 243.662 4
-17 -5 -6 438.585 452.958 4
-17 -6 5 417.77 348.669 4
-17 6 -5 516.506 342.556 2
17 -5 6 605.149 455.425 3
-17 5 6 842.021 367.588 3
-17 -6 5 648.623 306.207 1
5 -17 -6 543.676 212.092 3
17 6 7 -663.972 495.493 3
-17 -7 -6 54.2785 167.835 1
17 -7 6 128.507 148.076 1
-7 -17 6 399.369 432.889 1
7 17 6 -181.01 426.486 2
-6 17 7 35.0242 579.309 2
-17 7 6 208.538 330.466 2
17 -6 -7 299.43 148.256 1
-6 -17 -7 312.671 466.076 1
-6 -7 17 464.194 286.842 1
17 -7 6 199.667 286.27 2
-17 6 -7 395.325 191.408 1
-17 -6 7 673.483 292.666 2
7 -17 -6 217.749 315.509 1
17 7 -6 168.977 172.414 1
-17 -6 7 -69.6923 151.409 1
6 -17 7 237.037 348.756 1
-7 17 -6 -72.7427 465.366 2
6 17 -7 263.045 460.449 2
7 6 -17 453.691 208.4 4
-17 -7 -6 1147.83 692.829 4
-17 -6 7 907.901 555.748 4
-7 -6 -17 394.691 325.865 4
-17 6 -7 -103.693 238.285 2
17 -7 6 239.999 310.321 3
7 -17 -6 220.184 206.057 3
-7 -17 4 1495.01 691.857 1
7 -17 -4 547.651 269.776 3
17 -7 4 1506.78 419.837 1
17 -4 -7 678.516 195.455 1
-4 17 7 678.678 805.762 2
7 17 4 1522.47 805.738 2
17 7 -4 1572.78 440.568 1
-17 -7 -4 1275.51 427.017 1
17 -7 4 1397.74 639.819 2
-4 -17 -7 1307.14 606.012 1
-17 7 4 1789.69 672.563 2
-17 -4 7 1350.69 423.989 1
-4 -7 17 1010.73 519.218 1
4 -17 7 1758.94 731.444 1
-7 17 -4 1023.59 611.912 2
-17 -4 7 1289.05 324.572 2
7 -17 -4 1202.52 421.401 1
4 17 -7 1342.97 745.694 2
4 7 17 1131.15 599.311 4
-17 -4 7 1874.79 790.552 4
-17 -7 -4 1676.63 754.993 4
-7 -4 -17 1176.67 510.489 4
17 -4 -7 987.977 265.688 1
-17 4 -7 1531.37 442.506 1
17 4 7 1281.91 342.412 2
17 -7 4 1756.64 708.83 3
17 4 7 681.467 617.404 3
17 7 -2 475.888 250.884 1
-2 17 7 591.964 728.81 2
17 -7 2 937.259 595.517 2
7 17 2 489.039 448.521 2
-2 -17 -7 185.383 284.343 1
17 -7 2 307.293 127.939 1
2 -17 7 11.5478 429.748 1
-17 7 2 1093.63 526.988 2
-7 17 -2 673.308 405.107 2
-2 -7 17 889.012 600.069 1
-17 -7 -2 299.327 144.663 1
-17 2 -7 285.913 169.901 1
2 17 -7 290.322 435.868 2
17 -2 -7 366.149 118.62 1
-17 -2 7 1720.26 857.694 4
7 -17 -2 839.251 408.882 1
2 7 17 1131.29 613.473 4
-7 -2 -17 136.039 307.458 4
-17 -2 7 337.087 190.441 2
-17 -7 -2 755.512 754.885 4
17 2 7 516.557 226.706 2
-7 -17 2 797.917 538.553 1
17 -7 2 -53.7992 323.989 3
17 2 7 -49.1872 554.26 3
-17 0 7 1837.23 577.871 3
17 0 -7 1532.76 339.495 1
-17 7 0 1167.39 270.777 1
17 -7 0 1691.83 628.664 2
0 17 7 562.468 457.361 2
0 -17 -7 1552.31 672.988 1
0 -17 7 1455.09 630.132 1
7 17 0 1138.56 579.529 2
-7 17 0 908.359 688.563 2
-17 7 0 1913.79 630.976 2
0 17 -7 1398.03 777.714 2
17 -7 0 1242.14 299.759 1
0 -7 17 1893.5 712.443 1
-17 0 7 -224.858 388.92 4
-17 0 -7 848.544 694.175 4
17 7 0 934.574 225.704 2
17 0 7 1494.37 498.549 2
-7 0 -17 111.684 260.888 4
-17 0 -7 1701.6 456.767 1
-7 -17 0 1627.22 810.505 1
0 7 17 -724.17 554.78 4
-17 -7 0 377.286 353.123 4
-17 -7 0 1832.22 475.997 1
7 -17 0 1655.2 621.712 1
17 0 7 1594.85 838.263 3
0 -17 -7 117.03 321.241 3
17 -7 0 1548.97 541.513 3
-17 2 7 213.291 317.088 3
7 -17 2 795.243 454.721 1
17 -7 -2 58.7576 191.41 3
17 7 2 146.316 342.854 3
-17 -7 2 552.081 312.124 1
2 17 7 253.459 364.963 2
-2 -17 7 1082.21 611.864 1
17 7 2 320.72 203.36 2
-7 17 2 1032.1 755.275 2
2 -17 -7 531.705 256.531 1
7 17 -2 923.554 501.764 2
-17 7 -2 367.167 203.361 1
17 -2 7 340.131 366.091 2
-2 17 -7 579.238 375.085 2
-7 -17 -2 591.401 464.176 1
-17 7 -2 573.002 309.44 2
-7 2 -17 499.505 252.894 4
-17 -2 -7 204.702 520.63 4
17 -7 -2 280.981 148.44 1
-17 -7 2 -146.273 475.3 4
-2 7 17 834.458 386.254 4
17 2 -7 735.867 280.027 1
2 -7 17 361.891 379.414 1
17 -2 7 -840.155 681.339 3
2 -17 -7 276.964 160.156 3
17 7 4 1123.06 473.951 3
17 7 4 954.757 375.313 2
-17 4 7 790.307 460.932 2
4 17 7 1070.83 734.521 2
7 -17 4 1144.16 598.654 1
4 -7 17 1483.02 640.567 1
-7 17 4 607.731 429.393 2
-4 -17 7 1365.24 582.262 1
4 -17 -7 1165.84 504.146 1
-7 -17 -4 927.169 460.243 1
7 17 -4 1095.35 677.775 2
17 -4 7 1951.19 730.975 2
-17 -7 4 1428.91 437.206 1
-4 17 -7 1278.75 703.491 2
17 4 -7 1825.28 493.464 1
-17 -4 -7 2263.94 1006.54 4
-17 7 -4 1475.3 532.281 2
-17 -7 4 127.427 494.878 4
-17 7 -4 1845.86 462.825 1
17 -4 7 347.532 419.983 3
4 -17 -7 1345.79 430.19 3
17 -7 -4 1218.98 328.974 1
-17 4 7 1055.72 396.656 3
17 7 6 -561.552 411.454 3
-17 -6 -7 286.188 211.589 1
-7 -6 17 725.499 598.763 1
-17 7 -6 117.506 158.132 1
-17 6 7 438.166 419.127 2
6 17 7 617.752 559 2
-7 17 6 280.881 432.29 2
-6 -17 7 -6.02599 237.333 1
-17 -7 6 516.316 310.134 2
-7 -17 -6 538.028 367.879 1
6 -17 -7 233.247 213.011 1
7 -17 6 -97.6346 219.496 1
17 -6 7 512.531 443.806 2
17 -7 -6 274.11 163.05 1
7 17 -6 -10.0102 239.803 2
-6 17 -7 317.768 418.217 2
17 6 -7 80.106 180.61 1
6 7 -17 -299.132 221.481 4
-17 -6 -7 383.475 389.055 4
-17 -7 6 -208.715 345.933 4
-17 7 -6 236.516 217.529 2
6 -7 17 73.7791 222.279 1
17 -6 7 -227.346 579.926 3
-17 6 7 270.693 171.358 3
6 -17 -7 -34.0095 186.332 3
-17 -7 6 265.04 260.917 1
17 7 8 -27.6377 447.657 3
-17 -8 -7 159.464 189.632 1
8 17 7 -316.465 268.405 2
-7 17 8 -289.995 765.817 2
17 -7 -8 169.098 190.688 1
-17 8 7 449.504 453.772 2
-7 -17 -8 44.2802 237.197 1
-8 -17 7 7.26013 267.541 1
-17 7 -8 469.799 326.447 1
17 -8 7 342.476 180.55 1
8 -17 -7 456.63 352.614 1
-17 -7 8 117.543 154.589 2
-17 -7 8 218.997 178.444 1
17 8 -7 -102.928 310.636 1
-8 17 -7 570.948 412.381 2
7 17 -8 755.748 629.072 2
7 -17 8 270.85 238.322 1
8 7 -17 -115.369 218.488 4
-17 -8 -7 -651.601 716.672 4
-17 -7 8 -31.8219 332.7 4
-8 -7 -17 279.458 248.493 4
-17 7 -8 -25.7268 243.14 2
8 -17 -7 -274.268 200.489 3
7 8 17 573.784 484.7 3
8 -7 17 -44.0777 309.435 1
-7 -8 17 1.35809 304.868 1
17 -5 -8 -114.287 99.4018 1
-8 -17 5 17.0031 272.863 1
-17 -5 8 156.829 208.357 1
-5 17 8 286.86 589.896 2
8 17 5 475.183 509.057 2
-17 -8 -5 -62.5753 199.209 1
-5 -17 -8 -6.49521 352.397 1
-17 8 5 399.68 325.461 2
17 -8 5 215.053 316.999 2
17 8 -5 254.49 252.011 1
8 -17 -5 396.015 293.252 1
-8 17 -5 -68.9733 425.836 2
-17 -5 8 81.7061 226.746 2
5 -17 8 198.421 291.277 1
5 17 -8 -148.501 404.652 2
17 -8 5 350.919 295.258 1
5 8 17 -1431.49 759.45 4
-17 -5 8 -22.2013 477.101 4
-17 5 -8 370.746 316.326 1
-17 -8 -5 1291.83 735.984 4
-8 -5 -17 23.5878 213.062 4
5 8 17 1058.05 697.668 3
17 -8 5 1551.8 691.086 3
-5 -8 17 346.394 213.964 1
17 5 8 0.36666 429.347 3
17 -5 -8 366.729 166.13 1
8 -17 -5 241.115 141.996 3
17 -8 3 402.107 235.561 1
-17 -3 8 432.723 263.775 1
-3 17 8 -365.54 684.144 2
17 8 -3 682.933 312.831 1
17 -8 3 557.107 540.842 2
-3 -17 -8 596.399 446.731 1
8 17 3 7.26427 435.804 2
-17 3 -8 285.697 149.576 1
-17 8 3 669.169 506.654 2
17 -3 -8 139.766 96.7035 1
-17 -8 -3 343.296 232.953 1
-8 17 -3 35.2908 357.833 2
3 -17 8 364.536 401.343 1
3 17 -8 753.362 712.002 2
8 -17 -3 334.275 309.702 1
-17 -3 8 494.597 191.773 2
-17 -3 8 1025.44 483.003 4
3 8 17 1579.31 789.735 4
-8 -3 -17 255.608 386.442 4
-17 -8 -3 559.798 451.121 4
17 3 8 331.142 281.542 2
17 8 -3 422.09 175.37 2
17 -8 3 -320.823 351.238 3
-8 -17 3 412.039 424.889 1
17 3 8 1521.39 772.649 3
-3 -8 17 -95.5886 401.651 1
17 8 -1 240.407 223.225 1
-1 -8 17 64.4166 241.001 1
-17 1 -8 164.932 181.56 1
-1 17 8 477.26 567.922 2
17 -8 1 494.878 378.764 2
-1 -17 -8 -76.9064 190.289 1
8 17 1 -172.282 416.131 2
-8 17 -1 846.748 722.923 2
17 -8 1 243.005 202.802 1
1 -17 8 -15.3013 327.054 1
-17 8 1 -73.839 307.169 2
17 -1 -8 -44.2534 178.61 1
1 17 -8 -17.4221 378.477 2
-17 1 -8 383.722 464.74 4
-17 -8 -1 129.437 169.409 1
-17 -1 8 -1313.83 773.316 4
17 8 -1 198.29 162.72 2
-8 -1 -17 -29.6882 259.686 4
1 8 17 -568.726 387.012 4
17 1 8 51.3789 163.364 2
-17 -8 -1 822.875 540.691 4
-8 -17 1 276.775 196.761 1
8 -17 -1 217.033 357.191 1
-17 -1 8 -32.3764 136.802 2
17 -8 1 -119.508 237.77 3
17 1 8 -334.147 315.316 3
-17 8 1 125.669 119.435 1
-17 1 8 537.799 420.942 3
17 1 -8 220.148 208.824 1
1 17 8 524.656 739.678 2
1 -8 17 266.461 241.175 1
-17 8 -1 232.807 159.944 1
1 -17 -8 239.769 202.021 1
-8 17 1 -164.717 438.514 2
8 17 -1 509.208 482.571 2
17 8 1 -118.375 128.432 2
-1 -17 8 -260.656 427.876 1
-17 8 -1 173.382 171.484 2
-1 17 -8 265.537 360.592 2
-17 1 8 -5.80664 446.116 4
-8 -17 -1 -61.9202 263.713 1
17 -1 8 800.091 410.06 2
-8 1 -17 279.568 316.357 4
-17 -1 -8 169.474 403.057 4
17 -8 -1 262.926 158.554 1
-17 -8 1 632.139 589.96 4
-1 8 17 32.4547 249.817 4
-17 -8 1 226.801 161.831 1
17 -1 8 -867.776 669.271 3
1 -17 -8 -77.3151 216.071 3
8 -17 1 532.695 430.425 1
17 -8 -1 104.395 215.891 3
-17 -1 -8 456.999 268.576 1
-17 3 8 898.122 446.935 3
17 -8 -3 261.425 232.46 3
17 8 3 465.449 283.668 3
17 -8 -3 682.378 275.639 1
8 -17 3 374.13 319.096 1
3 17 8 435.993 476.952 2
-17 -8 3 218.046 213.02 1
17 8 3 651.004 302.231 2
3 -17 -8 173.577 311.632 1
-8 17 3 939.449 795.202 2
3 -8 17 457.923 496.081 1
-3 -17 8 32.2871 369.543 1
8 17 -3 -124.181 411.386 2
-8 -17 -3 221.824 390.389 1
-17 8 -3 521.343 224.584 1
17 -3 8 30.7199 308.725 2
-3 17 -8 656.937 533.838 2
-17 8 -3 511.285 453.856 2
-17 -3 -8 -68.0288 350.451 4
-17 -8 3 559.578 413.156 4
17 -3 8 643.982 574.991 3
17 3 -8 338.91 253.641 1
3 -17 -8 444.094 246.72 3
17 8 5 -868.321 617.358 3
-17 5 8 -341.03 362.15 2
5 17 8 211.585 413.049 2
-17 -8 5 366.682 246.034 2
-8 17 5 497.442 752.289 2
5 -17 -8 1.10921 374.927 1
8 -17 5 73.4392 288.235 1
-5 -17 8 193.316 264.654 1
-8 -17 -5 80.3664 293.158 1
-8 -5 17 273.139 331.637 1
17 -5 8 -196.117 299.719 2
8 17 -5 297.924 218.299 2
-17 -8 5 -39.9009 216.858 1
-5 17 -8 204.013 501.027 2
17 -8 -5 219.784 176.314 1
5 -8 17 280.075 360.238 1
-17 -5 -8 1205.45 783.055 4
-17 8 -5 149.376 259.764 2
-17 -8 5 625.845 478.296 4
5 8 -17 305.41 196.467 4
17 5 -8 390.589 332.821 1
17 -5 8 852.108 450.544 3
-17 8 -5 304.597 207.232 1
5 -17 -8 -472.893 298.936 3
-17 5 8 314.085 285.612 3
17 8 7 -457.597 520.117 3
-17 -8 7 -102.879 224.831 1
-17 -7 -8 93.3397 197.523 1
7 -8 17 566.546 450.961 1
-17 8 -7 281.802 280.005 1
7 17 8 454.889 584.497 2
-17 7 8 108.062 234.077 2
-8 17 7 102.72 538.076 2
-8 -17 -7 324.943 438.822 1
7 -17 -8 266.236 205.697 1
-17 -8 7 253.434 275.591 2
17 -8 -7 81.9076 110.967 1
-7 -17 8 457.289 538.295 1
-8 -7 17 -116.903 221.168 1
8 -17 7 164.505 344.79 1
8 17 -7 398.341 532.212 2
-7 17 -8 -162.832 321.969 2
17 7 -8 128.494 238.195 1
7 8 -17 -336.295 350.568 4
-17 -7 -8 536.853 539.969 4
-17 8 -7 -335.873 352.573 2
-17 -8 7 741.635 585.773 4
8 7 17 119.256 432.664 3
-17 7 8 104.709 217.225 3
-17 -6 9 1198.24 479.718 1
17 -6 -9 627.822 209.286 1
-6 17 9 324.254 361.234 2
-9 -17 6 702.594 536.184 1
9 17 6 209.788 374.178 2
-17 -9 -6 681.289 322.275 1
-6 -17 -9 918.892 547.416 1
-17 9 6 793.879 504.706 2
17 -9 6 1108.23 453.041 1
17 9 -6 400.455 292.064 1
9 -17 -6 867.617 440.944 1
-17 -6 9 947.959 399.922 2
-9 17 -6 718.311 591.486 2
-6 -9 17 1595.96 725.635 1
6 17 -9 880.851 538.55 2
-17 6 -9 905.952 404.914 1
6 -17 9 1621.76 696.37 1
-17 -6 9 -253.698 392.497 4
-17 -9 -6 235.264 362.755 4
-9 -6 -17 160.146 359.931 4
6 9 17 1259.49 656.637 3
-17 6 -9 1035.25 519.628 2
9 -17 -6 423.745 196.283 3
17 6 9 -112.742 473.841 3
-9 -17 4 261.906 469.923 1
9 -17 -4 246.512 182.031 3
17 -4 -9 382.364 192.017 1
-17 4 -9 277.893 299.598 1
-4 17 9 392.012 510.457 2
-17 -4 9 366.253 248.177 1
-4 -17 -9 344.702 384.484 1
9 17 4 125.729 281.242 2
17 9 -4 565.088 326.141 1
-17 9 4 37.3766 319.874 2
-17 -9 -4 102.019 134.77 1
-9 17 -4 507.461 499.862 2
9 -17 -4 -135.893 343.425 1
-4 -9 17 617.171 516.342 1
4 17 -9 329.785 319.463 2
4 -17 9 401.5 336.446 1
-17 -4 9 753.846 317.828 2
-17 -4 9 1008.71 514.463 4
-9 -4 -17 194.469 378.707 4
-17 -9 -4 1643.63 889.491 4
17 9 -4 408.456 208.34 2
17 -9 4 316.289 538.595 3
4 9 17 308.195 334.695 3
17 -9 4 215.366 187.926 1
17 4 9 1031.91 608.328 3
17 -2 -9 600.164 256.254 1
17 9 -2 838.604 365.914 1
-2 17 9 247.994 453.251 2
17 -9 2 1261.26 621.763 2
-2 -17 -9 832.078 431.306 1
9 17 2 684.897 601.146 2
17 -9 2 1219.05 385.798 1
-17 9 2 1215.43 610.354 2
-9 17 -2 1006.69 738.737 2
-17 -9 -2 942.856 403.846 1
2 -17 9 697.508 444.772 1
2 17 -9 872.313 451.608 2
-9 2 17 380.386 242.402 4
-17 -2 9 -120.7 582.891 4
-2 -9 17 771.679 382.832 1
17 9 -2 975.799 334.024 2
-9 -2 -17 992.177 492.637 4
9 -17 -2 502.943 322.839 1
2 9 17 -211.392 380.977 4
-17 -9 -2 814.071 709.016 4
-17 2 -9 793.195 350.104 1
-17 -2 9 797.495 275.797 2
17 2 9 720.371 341.354 2
-9 -17 2 539.837 486.297 1
17 -9 2 290.487 268.409 3
17 2 9 634.593 627.452 3
-17 9 0 216.179 97.0497 1
17 -9 0 -125.412 352.259 2
0 17 9 -174.302 378.502 2
0 -17 -9 -121.014 363.52 1
9 17 0 -293.897 473.281 2
-9 17 0 82.7499 302.851 2
-17 9 0 -201.596 333.101 2
17 9 0 163.412 228.933 2
17 0 -9 146.17 212.425 1
0 -17 9 175.02 355.782 1
0 17 -9 262.556 446.847 2
-17 0 -9 128.375 561.619 4
-17 0 9 130.729 459.57 4
-9 0 -17 431.365 428.554 4
-9 -17 0 -217.988 366.888 1
17 0 9 -153.78 291.364 2
-17 -9 0 407.384 333.678 1
0 -9 17 172.779 213.048 1
0 9 17 -94.4109 281.842 4
-17 -9 0 443.94 415.801 4
17 -9 0 76.8117 145.164 1
-17 0 -9 124.651 139.921 1
9 -17 0 125.255 239.934 1
0 -17 -9 483.394 420.52 3
17 0 9 255.675 412.445 3
17 -9 0 109.149 273.338 3
17 9 0 -93.553 177.359 1
17 -9 -2 376.906 252.824 3
-17 -9 2 928.381 446.491 1
-17 2 9 1519.63 539.784 3
9 -17 2 1293.07 604.16 1
2 17 9 98.2239 431.88 2
17 2 -9 914.643 336.26 1
2 -17 -9 931.847 577.211 1
17 -9 -2 972.292 357.245 1
17 9 2 989.992 413.217 2
-9 17 2 588.143 616.606 2
-17 9 -2 1089.89 378.153 1
9 17 -2 689.467 594.234 2
-2 -17 9 849.874 567.055 1
-17 9 -2 1204.93 625.892 2
-9 -17 -2 1154.12 528.102 1
-9 2 -17 528.616 423.153 4
-2 17 -9 231.181 369.094 2
17 -2 9 720.174 368.021 2
-17 -2 -9 558.737 469.385 4
-17 -9 2 460.339 551.295 4
2 -17 -9 899.141 434.088 3
17 -2 9 267.162 482.048 3
2 -9 17 1171.43 621.464 1
-17 4 9 -454.822 415.732 3
17 9 4 242.562 386.132 3
4 -9 17 -79.361 237.225 1
-17 -9 4 223.953 186.584 2
4 17 9 -39.8728 334.48 2
17 9 4 427.91 360.683 2
9 -17 4 10.7774 325.568 1
4 -17 -9 98.5895 329.308 1
-9 17 4 299.194 529.267 2
-17 -9 4 432.934 352.384 1
-9 -17 -4 503.678 470.055 1
9 17 -4 453.905 377.185 2
-4 -17 9 106.511 231.179 1
17 -4 9 685.459 432.667 2
-4 17 -9 28.5821 247.177 2
-17 9 -4 848.707 561.244 2
-17 9 -4 350.702 254.291 1
-17 -4 -9 223.212 384.272 4
-17 -9 4 600.485 591.049 4
17 -9 -4 -30.7145 175.168 1
4 -17 -9 898.577 346.288 3
17 -4 9 1007.68 678.767 3
17 4 -9 250.24 176.682 1
17 9 6 94.6809 470.022 3
6 17 9 771.487 522.437 3
6 17 9 214.779 495.704 2
-9 -6 17 638.39 370.798 1
-9 17 6 646.415 609.169 2
-17 -9 6 1507.29 486.496 2
6 -17 -9 439.681 389.547 1
6 -9 17 40.1553 218.629 1
-9 -17 -6 562.266 431.409 1
9 -17 6 1188.87 582.831 1
-6 -17 9 1103.05 595.036 1
17 -9 -6 914.221 332.962 1
9 17 -6 941.574 620.535 2
-6 17 -9 674.501 573.681 2
-17 -9 6 695.334 325.872 1
-17 9 -6 929.631 535.074 2
-17 -6 -9 260.199 601.3 4
6 9 -17 1059.86 477.866 4
-17 -9 6 583.925 426.031 4
17 6 -9 685.325 367.113 1
9 6 17 469.24 355.126 3
-17 9 -6 850.23 423.304 1
-17 6 9 353.384 248.841 3
-17 5 -10 945.821 391.85 1
17 -5 -10 1286.95 362.848 1
-10 -17 5 1717.91 711.363 1
-5 17 10 770.054 891.017 2
-5 -17 -10 1408.24 619.291 1
10 17 5 662.912 389.857 2
-17 10 5 756.786 478.605 2
-17 -10 -5 1011.17 457.299 1
17 10 -5 1334.58 485.094 1
-5 -10 17 1878.79 768.494 1
-10 17 -5 812.124 515.428 2
10 -17 -5 1282.91 521.259 1
-17 -5 10 630.733 359.289 2
5 17 -10 691.959 589.167 2
-17 -5 10 266.774 538.304 4
-10 -5 -17 1009.47 580.671 4
-17 -10 -5 1278.63 723.542 4
17 10 -5 1202.73 401.013 2
5 -17 10 906.862 529.545 1
17 -10 5 1569.06 568.398 1
-17 -5 10 1321.06 534.255 1
5 10 17 417.4 365.508 3
-5 10 -17 1843.77 723.503 2
17 5 10 892.667 596.351 3
10 -17 -5 651.712 214.445 3
-3 17 10 654.661 834.869 2
17 10 -3 407.328 245.579 1
-3 -17 -10 727.505 498.188 1
10 17 3 620.076 571.649 2
-17 10 3 907.699 559.757 2
17 -10 3 791.602 406.575 1
-3 -10 17 678.872 489.618 1
-17 -10 -3 433.321 298.008 1
-10 17 -3 965.307 611.979 2
-17 3 -10 329.384 187.399 1
3 17 -10 795.353 605.043 2
10 -17 -3 652.413 468.439 1
17 -3 -10 765.9 277.771 1
17 10 -3 439.095 203.872 2
-17 -3 10 1433.47 790.115 4
-10 -3 -17 128.935 309.612 4
3 -17 10 841.446 523.863 1
-17 -3 10 419.38 183.417 2
-17 -10 -3 -103.119 329.925 4
17 3 10 271.06 263.522 2
17 -10 3 136.428 285.161 3
3 10 17 222.284 345.215 3
-3 10 -17 873.768 522.468 2
17 3 10 712.337 577.276 3
-10 -17 3 608.975 498.068 1
-17 10 1 1558.95 387.887 1
17 10 -1 1690.95 505.792 1
-1 17 10 1008.06 931.881 2
-1 -17 -10 1395.1 657.392 1
-17 1 -10 2012.18 624.677 1
10 17 1 821.133 626.955 2
-10 17 -1 1652.19 895.708 2
-17 10 1 2006.8 808.253 2
-1 -10 17 2168.5 815.28 1
17 10 -1 2067.03 564.859 2
-17 1 -10 704.987 642.534 4
-17 -10 -1 1470.3 527.088 1
1 17 -10 1533.64 795.219 2
-17 -1 10 2213.37 901.493 4
-10 -1 -17 1232.9 625.786 4
1 -17 10 1889.03 760.968 1
1 10 17 1831.49 771.957 4
17 1 10 1235.82 437.19 2
-17 -10 -1 -100.825 449.003 4
-10 -17 1 1575.36 655.286 1
10 -17 -1 1668.89 677.263 1
17 -10 1 1822.06 515.121 1
1 10 17 1071.13 422.922 3
17 -10 1 2321.63 691.902 3
17 1 10 1103.41 746.451 3
17 -1 -10 1372.34 398.546 1
10 -17 1 1667.31 622.219 1
-17 1 10 784.232 371.545 3
1 17 10 35.6539 527.025 2
1 -17 -10 1086.31 572.154 1
-17 10 -1 1804.17 486.12 1
-10 17 1 1468.31 762.259 2
17 -10 -1 2111.85 529.953 1
17 10 1 1073.34 397.298 2
10 17 -1 2166.6 822.246 2
17 1 -10 2126.6 536.056 1
-17 10 -1 844.087 473.959 2
1 -10 17 1699.63 685.252 1
-17 1 10 505.742 536.302 4
-10 1 -17 1403.18 640.018 4
-1 -17 10 1918.09 793.177 1
-10 -17 -1 997.917 574.774 1
-1 17 -10 1206.15 778.878 2
-17 -1 -10 1195.59 766.626 4
17 -1 10 1923.68 603.886 2
-17 -10 1 1245.09 721.408 4
-1 10 17 1082.78 632.905 4
-17 -1 -10 2201.38 604.84 1
1 -17 -10 691.563 292.244 3
-17 -10 1 1942.02 628.611 1
17 -1 10 1799.66 931.18 3
17 -10 -1 1359.66 430.307 3
17 -10 -3 502.446 247.012 3
-17 3 10 -219.317 286.98 3
3 17 10 377.591 350.862 3
17 10 3 -107.685 297.795 3
-17 -10 3 753.045 400.178 1
3 17 10 562.009 653.169 2
17 3 -10 525.572 334.84 1
10 -17 3 516.866 345.438 1
3 -17 -10 515.09 382.808 1
17 10 3 223.57 231.11 2
-10 17 3 1021.62 611.158 2
10 17 -3 424.372 460.629 2
-17 10 -3 665.569 319.606 1
-10 -17 -3 604.011 507.194 1
-17 10 -3 1001.29 524.741 2
-3 -17 10 486.842 479.792 1
-3 17 -10 291.414 372.457 2
3 -10 17 383.37 304.833 1
-17 -3 -10 -855.525 534.075 4
-17 -10 3 463.778 490.61 4
17 -3 10 819.739 740.004 3
17 -10 -3 917.817 373.839 1
17 5 -10 1064.4 421.792 1
-17 5 10 593.106 211.405 3
17 10 5 290.885 391.821 3
5 17 10 1282.17 594.343 3
17 10 5 803.467 397.111 2
-17 -10 5 1211.5 551.243 2
5 -17 -10 941.905 495.438 1
-10 17 5 715.65 406.022 2
10 -17 5 921.389 474.461 1
-10 -17 -5 920.5 435.284 1
-17 -10 5 1248.19 586.953 1
10 17 -5 1034.68 648.635 2
-5 -17 10 767.616 373.996 1
-5 17 -10 263.639 369.341 2
-17 10 -5 547.78 317.474 2
17 -10 -5 1073.4 382.374 1
-17 -5 -10 1087.85 742.025 4
-17 10 -5 1383.55 453.67 1
-17 -10 5 -336.376 583.75 4
5 -10 17 738.604 486.048 1
10 5 17 -145.172 607.516 3
-10 -5 17 1627.54 752.422 1
11 -17 -4 283.392 145.727 3
-11 -17 4 714.057 671.736 1
-4 17 11 586.101 819.46 2
-4 -17 -11 383.045 212.565 1
-4 -11 17 778.077 457.46 1
11 17 4 840.336 606.04 2
17 -4 -11 956.699 369.79 1
-17 11 4 -26.316 395.315 2
17 -11 4 905.915 327.007 1
-17 -11 -4 778.398 416.781 1
-11 17 -4 1034.2 813.016 2
-17 -4 11 1109.18 496.322 1
11 -17 -4 1169.07 562.326 1
4 17 -11 364.802 637.786 2
17 11 -4 1188.37 519.905 2
-17 -4 11 627.604 333.22 2
-17 -4 11 123.254 410.333 4
-11 -4 -17 546.517 436.57 4
-17 -11 -4 618.361 538.246 4
-4 11 -17 2.46779 405.287 2
4 -17 11 356.801 295.309 1
4 11 17 -290.638 507.843 3
17 4 11 -206.267 682.47 3
-2 -17 -11 1143.15 521.362 1
-2 -11 17 955.08 594.381 1
11 17 2 958.385 604.931 2
-17 11 2 1689.86 770.755 2
17 -2 -11 1229.28 377.857 1
-11 17 -2 1547.74 826.092 2
-17 -11 -2 993.443 452.359 1
17 11 -2 1113.74 441.203 2
-17 2 -11 1231.55 718.139 4
-11 2 17 385.605 287.094 4
2 17 -11 1604.52 686.557 2
-17 -2 11 1684.1 891.989 4
-11 -2 -17 220.085 274.132 4
11 -17 -2 1127.41 553.94 1
-17 -11 -2 735.188 553.629 4
17 2 11 1008.8 463.756 2
-17 -2 11 1063.33 376.395 2
2 -17 11 987.051 461.577 1
17 -11 2 1315.07 488.229 3
-11 -17 2 803.647 569.767 1
-2 11 -17 1153.54 612.329 2
2 11 17 453.624 545.687 3
17 2 11 1328.85 779.768 3
17 -11 2 1626.25 517.662 1
-17 11 2 1167.28 376.45 1
0 17 11 1014.3 462.577 3
-17 11 0 1317.06 427.162 1
0 -17 -11 1628.78 661.387 1
0 -11 17 1853.26 771.497 1
11 17 0 1213.72 698.48 2
-11 17 0 1296.01 767.418 2
17 11 0 2317.41 693.872 2
-17 11 0 1764.16 809.591 2
17 -11 0 1851.01 551.285 1
-17 0 -11 854.774 728.379 4
-17 0 11 672.628 511.891 4
-11 0 -17 212.868 409.232 4
0 17 -11 1385.32 775.4 2
-11 0 17 614.685 336.333 4
-11 -17 0 1204.77 686.924 1
17 0 11 1577.63 526.548 2
-17 -11 0 1285.16 492.701 1
0 11 17 13.3757 462.424 4
0 -17 11 1676.89 676.03 1
-17 -11 0 680.865 496.815 4
17 0 -11 1295.27 458.7 1
0 11 17 1027.35 582.479 3
0 11 -17 1143.2 628.205 2
17 0 11 1078.1 702.166 3
17 -11 0 343.18 240.461 3
11 -17 0 1555.97 628.134 1
2 17 11 778.672 503.044 3
17 -11 -2 1282.16 472.553 1
11 -17 2 850.593 482.363 1
2 -17 -11 1376.2 594.682 1
17 11 2 554.557 349.396 2
-11 17 2 1029.56 571.206 2
-17 11 -2 1149.09 429.357 1
2 -11 17 805.912 489.979 1
17 2 -11 799.523 399.4 1
11 17 -2 117.031 267.675 2
-17 11 -2 1128.68 621.768 2
-11 -17 -2 1463.03 728.182 1
-11 2 -17 943.964 560.539 4
-17 -2 -11 704.212 600.342 4
-2 17 -11 794.177 511.564 2
-2 -17 11 774.41 536.848 1
-17 -11 2 1145.58 614.072 4
-2 11 17 -228.115 468.156 3
17 -2 11 656.376 575.459 3
2 11 -17 1041.26 531.62 2
17 -11 -2 845.607 331.753 3
-17 -11 2 1445.89 590.954 1
-17 4 11 296.757 192.425 3
4 17 11 1144.02 672.996 3
17 11 4 -127.584 407.752 3
-17 -11 4 770.149 472.243 2
4 -17 -11 519.271 325.624 1
17 4 -11 795.731 434.31 1
17 11 4 374.079 226.739 2
-17 -11 4 665.59 354.1 1
-11 17 4 898.35 620.099 2
11 -17 4 558.865 337.467 1
-11 -17 -4 843.575 469.106 1
4 -11 17 1697.73 726.659 1
11 17 -4 698.77 494.127 2
-17 11 -4 711.891 293.687 1
-17 11 -4 1107.08 563.643 2
-4 17 -11 127.529 273.076 2
-17 -4 -11 -414.8 580.282 4
-4 -17 11 618.037 409.282 1
-17 -11 4 377.737 514.312 4
17 -11 -4 795.445 385.868 1
18 0 0 2245.81 655.382 3
0 18 0 1529.6 865.75 2
-18 0 0 3043.9 1066.56 4
0 -18 0 2167.48 799.03 1
18 -1 1 276.106 339.978 3
18 1 1 414.655 405.729 3
18 -1 -1 416.888 310.071 3
18 1 -1 70.4785 325.56 3
1 18 1 84.685 326.014 2
-1 18 1 294.932 345.296 2
1 18 -1 460.611 507.597 2
-1 18 -1 147.362 335.797 2
-18 -1 -1 1821.14 913.384 4
-18 -1 1 821.673 665.421 4
-1 -18 -1 230.432 453.754 1
1 -18 -1 -26.1704 198.919 1
-1 1 -18 429.791 201.855 4
-1 -18 1 -185.887 305.544 1
1 -18 1 -67.58 324.05 1
18 0 2 955.811 485.208 3
18 -2 0 1296.36 501.692 3
18 2 0 1085.29 399.452 3
0 18 2 864.733 677.998 2
2 18 0 245.126 298.835 2
-2 18 0 574.196 413.581 2
0 18 -2 217.808 224.363 2
0 -18 -2 713.896 459.276 1
-18 0 2 1232.93 665.077 4
-18 0 -2 149.095 437.627 4
-18 -2 0 454.137 477.444 4
-2 -18 0 726.294 476.034 1
0 2 -18 2.91041 89.659 4
-2 0 -18 407.376 163.265 4
2 -18 0 962.698 543.22 1
-18 2 0 531.426 167.387 2
0 -18 2 551.854 465.831 1
18 2 2 776.817 426.436 3
18 -2 2 657.263 284.631 2
2 18 2 688.677 583.096 2
-2 18 2 -14.5177 244.643 2
2 18 -2 885.729 598.525 2
-2 18 -2 646.381 428.175 2
-18 -2 -2 681.226 213.109 1
-2 -18 -2 533.63 340.339 1
-18 2 2 483.556 175.857 2
2 -18 -2 867.362 475.485 1
-18 -2 -2 1432.75 708.255 4
-18 -2 2 1145.98 778.358 4
-2 2 -18 642.836 265.915 4
-2 -18 2 618.344 414.959 1
-18 2 2 434.065 326.428 3
2 -18 2 749.414 527.647 1
18 -2 2 949.62 547.196 3
18 -3 1 578.079 386.043 3
18 1 3 968.666 357.449 3
18 -3 1 241.692 171.681 2
-1 18 3 522.437 647.273 2
3 18 1 -159.95 450.106 2
18 1 3 245.018 128.629 2
-3 18 -1 599.646 604.528 2
1 18 -3 454.163 640.237 2
-1 -18 -3 900.141 617.885 1
-1 3 -18 141.845 127.185 4
-18 3 1 352.497 188.196 2
-18 -1 3 -705.755 495.776 4
-18 -3 -1 1747.7 976.406 4
-18 -3 -1 286.934 172.139 1
3 -18 -1 656.83 408.088 1
-3 -1 -18 12.9957 225.887 4
-3 -18 1 152.751 360.308 1
-18 1 -3 258.304 120.02 1
1 -18 3 374.734 374.443 1
-18 1 -3 156.985 93.8327 1
18 -3 -1 421.415 297.509 3
1 -18 -3 89.2638 238.427 3
18 3 1 -251.1 371.085 3
-18 -1 -3 157.495 126.18 1
1 18 3 892.052 779.93 2
18 -1 3 476.42 274.321 2
-3 18 1 155.277 380.854 2
3 18 -1 634.793 565.18 2
-1 18 -3 490.691 539.692 2
-18 -3 1 156.889 109.989 1
1 -18 -3 597.383 421.079 1
-18 -1 -3 1872.59 790.128 4
-3 -18 -1 763.21 495.014 1
-18 -3 1 -875.319 690.071 4
-3 1 -18 251.62 219.196 4
-18 3 -1 188.576 148.046 2
3 -18 1 127.603 329.088 1
-18 -1 -3 268.576 167.331 1
-18 1 3 -254.697 379.171 3
-1 -18 3 534.032 431.684 1
18 -1 3 233.857 393.059 3
-18 3 -3 740.499 183.847 1
3 -18 3 1106.8 482.567 1
18 3 3 1340.23 608.549 3
3 -18 -3 1022 458.661 3
18 -3 3 1134.92 382.393 2
-18 -3 -3 1046.57 292.132 1
3 18 3 1158.95 736.328 2
-3 18 3 811.603 711.418 2
-18 3 3 1782.66 477.988 2
3 18 -3 895.577 608.445 2
-3 18 -3 731.379 703.872 2
-3 -18 -3 1530.28 666.02 1
3 -18 -3 877.841 457.54 1
-18 -3 3 639.853 214.788 1
-3 3 -18 479.044 286.521 4
-18 -3 -3 -305.385 554.394 4
-18 -3 3 452.295 505.614 4
-18 3 -3 1679.32 411.271 2
-18 3 3 657.443 327.899 3
-3 -18 3 947.737 661.095 1
18 -3 3 57.1342 342.362 3
18 2 4 1404.83 622.291 3
2 -18 4 714.918 580.698 1
18 -4 2 373.675 359.827 2
-2 18 4 -123.628 589.192 2
4 18 2 510.002 603.077 2
-4 18 -2 314.984 331.042 2
-18 -4 -2 142.347 139.746 1
2 18 -4 718.566 513.149 2
-2 -18 -4 -425.549 451.499 1
-18 4 2 334.09 259.615 2
18 2 4 253.829 208.32 2
4 -18 -2 608.333 454.453 1
-18 -2 4 103.586 397.738 4
-18 -4 -2 1033.73 739.506 4
-18 2 -4 23.2037 100.709 1
-4 -2 -18 734.205 320.807 4
-4 -18 2 333.173 354.75 1
18 -4 2 -318.832 374.95 3
18 -4 0 5.70284 220.814 3
0 -18 4 70.1939 336.039 1
18 4 0 273.248 308.242 3
0 18 4 303.683 509.073 2
4 18 0 432.059 476.427 2
-4 18 0 -63.3901 253.882 2
18 0 4 57.1603 181.066 2
0 18 -4 -6.95501 342.162 2
0 -18 -4 266.155 425.208 1
-18 0 4 269.154 461.226 4
-18 0 -4 873.85 701.593 4
-18 4 0 -110.924 185.342 2
-18 -4 0 508.432 512.787 4
-4 0 -18 -58.3517 199.121 4
-4 -18 0 -217.551 375.309 1
4 -18 0 -83.5733 180.724 1
-18 -4 0 28.6134 157.845 1
-18 0 -4 -23.5409 78.2162 1
18 0 4 -414.812 374.721 3
-2 -18 4 349.705 327.531 1
2 -18 -4 -83.4502 158.834 3
18 4 2 -364.744 481.157 3
18 -4 -2 498.592 320.122 3
-18 -2 -4 45.3407 96.1699 1
2 18 4 109.786 227.47 2
-4 18 2 -530.978 542.274 2
18 -2 4 47.9001 227.337 2
-18 2 4 178 116.095 2
4 18 -2 167.11 365.297 2
-2 18 -4 29.3814 264.164 2
2 -18 -4 358.886 419.541 1
-18 -4 2 77.5799 110.176 1
-4 -18 -2 -222.456 325.571 1
-2 4 18 349.544 261.777 4
-4 2 -18 -178.066 268.983 4
-18 -2 -4 679.267 544.939 4
-18 -4 2 1004.34 642.024 4
-18 4 -2 29.9526 152.398 2
-18 2 4 328.83 396.231 3
4 -18 2 209.208 213.105 1
18 -2 4 -117.858 413.046 3
-4 -18 4 482.946 426.71 1
18 4 4 116.515 372.264 3
4 -18 -4 242.065 188.761 3
-18 4 -4 169.352 76.332 1
4 -18 4 5.86622 255.038 1
18 4 -4 60.7185 60.2008 1
-18 -4 -4 159.019 133.664 1
4 18 4 191.298 256.38 2
-4 18 4 -49.7703 538.22 2
18 -4 4 966.189 612.31 2
-18 4 4 177.616 240.224 2
-18 -4 4 185.358 125.726 1
-4 -18 -4 113.587 249.076 1
4 18 -4 645.136 454.555 2
-4 18 -4 -394.88 412.868 2
4 -18 -4 462.682 335.411 1
-4 4 18 -123.057 140.383 4
-18 -4 -4 586.311 702.64 4
-18 -4 4 1020.06 529.696 4
18 4 4 342.126 158.696 2
-18 4 -4 296.441 245.797 2
-18 4 4 -237.117 223.092 3
18 -4 4 1077.07 590.351 3
18 3 5 738.965 467.527 3
18 5 -3 370.331 167.189 1
3 -18 5 631.709 329.285 1
-3 18 5 557.351 515.428 2
18 -5 3 459.643 336.959 2
5 18 3 209.358 261.539 2
-18 -5 -3 462.516 199.558 1
-18 5 3 506.206 311.362 2
-3 -18 -5 156.885 245.284 1
-5 18 -3 594.389 577.552 2
3 18 -5 174.085 262.426 2
-3 -5 18 1199.68 658.141 1
5 -18 -3 939.688 371.332 1
3 5 18 -1355.5 714.781 4
-18 3 -5 634.113 243.781 1
-18 -3 5 65.7595 403.311 4
18 3 5 632.733 225.976 2
-18 -5 -3 -758.294 667.611 4
-18 -3 5 637.711 231.675 1
-5 -3 -18 298.038 270.064 4
18 -5 3 882.98 350.22 3
-5 -18 3 637.204 480.127 1
18 -5 1 648.915 426.256 2
1 -18 5 598.258 488.147 1
-1 18 5 938.974 688.849 2
5 18 1 123.298 308.203 2
-5 18 -1 895.99 593.226 2
-1 -18 -5 463.665 463.295 1
-18 1 -5 899.691 283.381 1
1 18 -5 888.718 598.871 2
-18 5 1 639.436 336.963 2
18 1 5 512.591 258.969 2
-18 1 -5 488.58 560.116 4
1 5 18 233.885 250.346 4
-18 -5 -1 865.591 329.371 1
-18 -1 5 -216.359 431.444 4
-18 -5 -1 521.98 435.33 4
-5 -1 -18 713.885 429.176 4
5 -18 -1 1426.35 628.213 1
-5 -18 1 1416.34 627.116 1
-1 -5 18 541.039 420.418 1
18 1 5 177.907 417.572 3
18 -5 1 214.533 242.67 3
1 -18 -5 823.292 400.43 3
18 -5 -1 546.104 326.917 3
18 5 1 -776.542 584.453 3
-18 -5 1 718.901 255.773 1
-1 -18 5 738.913 545.259 1
-18 -1 -5 960.492 302.134 1
1 18 5 789.861 639.17 2
-18 1 5 620.622 258.986 2
-5 18 1 1134.09 749.156 2
5 18 -1 431.414 334.986 2
1 -18 -5 578.876 542.197 1
18 -1 5 1172.24 490.291 2
-1 18 -5 387.546 480.502 2
-18 -1 -5 -589.65 728.193 4
-5 -18 -1 614.958 509.448 1
-1 5 18 1753.24 515.863 4
-18 5 -1 1041.42 400.999 2
-5 1 -18 -326.176 229.985 4
-18 -5 1 49.7422 437.103 4
5 -18 1 956.517 541.924 1
18 -1 5 529.96 403.69 3
-18 1 5 725.568 468.283 3
3 -18 -5 567.805 265.99 3
18 5 3 637.633 502.518 3
5 -18 3 845.286 528.397 1
-18 -3 -5 533.705 257.642 1
-3 -18 5 735.382 548.143 1
18 5 3 482.281 206.122 2
3 18 5 360.782 594.081 2
18 3 -5 323.76 160.244 1
-18 3 5 219.863 271.309 2
-5 18 3 135.715 354.78 2
18 -3 5 1299.59 544.031 2
5 18 -3 622.969 558.244 2
3 -18 -5 391.194 225.908 1
-3 18 -5 595.447 512.115 2
-5 -18 -3 515.468 454.024 1
-18 -5 3 776.002 290.827 1
-18 -3 -5 1483.84 822.441 4
-18 5 -3 432.119 189.106 1
-3 5 18 690.898 293.885 4
-18 -5 3 183.373 493.035 4
-18 5 -3 524.818 340.655 2
18 5 3 338.679 117.481 2
-18 3 5 -408.589 384.339 3
18 -3 5 1117.5 616.321 3
5 -18 -5 1358.14 376.493 3
18 5 5 1129.54 566.986 3
-5 -18 5 2483.65 887.886 1
-5 -5 18 2431.01 847.652 1
-18 5 -5 2046.07 455.698 1
-18 -5 -5 1578.35 438.329 1
5 -18 5 2252.23 855.267 1
5 18 5 1688.99 930.201 2
-5 18 5 1539.83 839.514 2
18 5 -5 1924.08 409.504 1
-18 5 5 914.599 340.985 2
-18 -5 5 2343.9 499.003 1
18 -5 5 2591.56 810.398 2
-5 -18 -5 2224.43 930.088 1
5 -18 -5 2267.94 761.391 1
-5 18 -5 1635.23 847.863 2
5 18 -5 1672.73 819.448 2
-18 -5 -5 708.558 451.704 4
-18 -5 5 1356.6 757.553 4
-18 5 -5 2208.45 583.67 2
18 5 5 1908.66 390.139 2
-18 5 5 574.946 245.144 3
18 -5 5 1903.17 819.842 3
18 4 6 279.383 502.151 3
-6 -18 4 -410.462 419.086 1
6 -18 -4 -0.51172 157.26 3
-18 -4 6 256.521 238.133 1
18 6 -4 268.142 195.515 1
-4 18 6 1077.6 885.602 2
6 18 4 216.142 333.723 2
-18 -6 -4 -80.7796 173.289 1
4 -18 6 -6.76359 247.285 1
18 -6 4 638.055 538.964 2
-18 6 4 471.222 383.346 2
-18 -4 6 -0.3575 59.4482 2
-4 -18 -6 95.8406 367.01 1
-6 18 -4 230.43 399.824 2
4 18 -6 161.593 362.65 2
-18 4 -6 451.476 280.2 1
6 -18 -4 260.203 242.636 1
4 6 18 -1108.53 689.074 4
-4 -6 18 -30.2519 340.827 1
-18 -4 6 148.9 548.628 4
-18 -6 -4 -353.595 574.606 4
-6 -4 -18 538.417 334.894 4
18 4 6 76.1006 114.061 2
18 -6 4 1138.15 656.92 3
18 -6 2 263.336 322.854 2
-2 18 6 -367.289 593.931 2
2 -18 6 -91.9238 376.009 1
-18 2 -6 22.4952 158.799 1
6 18 2 344.845 397.092 2
-2 -18 -6 -189.765 421.141 1
-6 18 -2 58.1553 310.537 2
-18 6 2 282.61 221.689 2
-18 -6 -2 75.0678 148.494 1
2 18 -6 -97.142 378.381 2
-18 -2 6 39.2518 61.0378 2
2 6 18 -922.316 584.615 4
-18 -2 6 -66.9767 509.728 4
18 2 6 78.2307 148.958 2
6 -18 -2 772.375 512.311 1
-18 -6 -2 546.221 677.401 4
-6 -2 -18 582.906 362.597 4
-6 -18 2 238.919 212.686 1
-2 -6 18 370.786 395.746 1
18 -6 2 653.766 394.1 3
18 2 6 -169.541 649.337 3
18 6 -2 46.3572 91.0207 1
-18 0 6 -89.6821 132.55 2
0 -6 18 -267.224 372.027 1
0 18 6 73.9415 287.663 2
0 -18 6 50.6602 300.655 1
-18 0 -6 272.936 238.174 1
6 18 0 657.04 575.42 2
-6 18 0 488.57 573.538 2
0 -18 -6 472.178 354.872 1
0 18 -6 588.796 431.431 2
-18 6 0 458.087 286.218 2
18 0 6 -93.1913 241.262 2
-18 0 6 469.87 550.22 4
-18 0 -6 510.377 703.789 4
0 6 18 296.459 338.916 4
-6 0 -18 -36.8955 310.002 4
-6 -18 0 -64.6141 275.683 1
-18 -6 0 800.36 549.786 4
-18 -6 0 95.1174 168.244 1
6 -18 0 131.484 351.18 1
18 0 6 1246.08 693.174 3
18 -6 0 434.073 346.131 3
18 -6 -2 -184.323 326.895 3
18 6 2 445.977 284.002 3
-18 2 6 -23.4336 155.703 2
-2 -18 6 205.875 209.756 1
-18 -6 2 -107.554 187.075 1
2 18 6 273.556 403.26 2
-6 18 2 271.105 435.239 2
-18 6 -2 100.805 124.599 1
2 -18 -6 -14.3857 291.839 1
6 18 -2 -100.809 366.699 2
18 2 -6 27.4959 71.1651 1
18 -2 6 165.174 193.164 2
-2 18 -6 -186.488 333.839 2
-6 -18 -2 -139.098 390.993 1
-6 2 -18 462.768 368.946 4
-18 -2 -6 499.254 599.401 4
-18 6 -2 -24.1205 197.563 2
-2 6 18 104.51 200.36 4
-18 -6 2 514.298 546.776 4
2 -6 18 43.7738 206.47 1
18 -2 6 -326.382 582.396 3
-18 2 6 286.21 294.995 3
2 -18 -6 119.063 175.245 3
6 -18 2 596.809 502.972 1
-18 -4 -6 -54.9113 161.476 1
18 6 4 -118.204 314.617 3
18 6 4 -26.9987 143.311 2
6 -18 4 199.551 228.165 1
-4 -18 6 634.542 538.856 1
4 18 6 423.461 606.251 2
-18 4 6 113.886 239.23 2
-6 18 4 718.288 602.854 2
18 4 -6 453.516 245.55 1
4 -18 -6 299.341 293.412 1
18 -4 6 -430.828 432.736 2
-6 -18 -4 287.668 362.003 1
6 18 -4 603.189 425.459 2
-4 18 -6 1135.14 750.495 2
-18 -4 -6 1900.22 880.76 4
-18 -6 4 128.929 165.132 1
-18 -6 4 775.753 699.725 4
4 6 -18 -74.8525 148.647 4
-18 6 -4 -306.292 215.802 2
-4 6 18 410.435 266.576 4
4 -6 18 668.338 600.237 1
-18 6 -4 186.933 190.863 1
18 -4 6 550.694 476.259 3
-18 4 6 82.96 202.797 3
4 -18 -6 215.137 200.477 3
18 6 6 -591.109 616.587 3
-18 -6 -6 -56.9782 163.415 1
-18 6 -6 484.368 267.328 1
-6 -18 6 -12.9116 325.753 1
6 18 6 -90.7732 284.532 2
-6 18 6 45.9725 429.88 2
-18 6 6 343.728 322.975 2
-18 -6 6 124.359 140.381 2
-18 -6 6 -149.015 126.566 1
6 -18 6 -30.0646 285.29 1
-6 -18 -6 -334.145 425.76 1
18 -6 6 802.106 546.525 2
18 6 -6 456.432 299.731 1
6 -18 -6 -25.179 312.666 1
-6 18 -6 455.165 576.217 2
6 18 -6 228.145 231.077 2
18 -6 -6 -24.9624 94.3629 1
6 6 18 -636.215 714.797 4
6 6 -18 58.6403 106.75 4
-6 -6 18 -415.476 506.724 1
-18 -6 -6 -260.38 410.069 4
-18 -6 6 111.519 453.95 4
-18 6 -6 163.057 295.295 2
-18 6 6 -51.5603 206.314 3
18 -6 6 -321.75 537.666 3
18 -6 -6 124.013 93.5461 1
6 -18 -6 98.1257 162.91 3
18 5 7 -512.787 491.427 3
-7 -18 5 15.0146 455.335 1
18 -5 -7 -40.4003 90.7899 1
-5 18 7 -170.696 514.19 2
7 18 5 360.534 408.561 2
-18 -7 -5 251.281 244.706 1
-18 7 5 -29.8905 252.757 2
18 -5 -7 184.174 113.083 1
18 7 -5 137.143 169.701 1
18 -7 5 1008.06 570.168 2
-5 -18 -7 120.752 331.116 1
5 -18 7 -225.32 238.297 1
-18 -5 7 131.986 175.566 2
7 -18 -5 404.357 343.739 1
-18 5 -7 -87.0635 153.837 1
-7 18 -5 167.352 362.004 2
5 18 -7 500.194 469.744 2
5 7 18 -301.505 443.84 4
-18 -5 7 1518.55 819.56 4
-18 -7 -5 1404.99 691.166 4
-5 -7 18 186.238 348.251 1
-7 -5 -18 538.367 427.38 4
-18 5 -7 -76.431 260.289 2
18 -7 5 810.2 593.733 3
-18 -5 7 114.719 142.451 1
7 -18 -5 -166.604 197.007 3
-18 3 -7 1252.95 423.342 1
-18 -3 7 1267.3 366.698 1
18 7 -3 1086.28 361.051 1
18 -3 -7 312 96.1734 1
-3 18 7 598.518 736.181 2
18 -7 3 1146.4 513.937 2
7 18 3 1010.2 664.299 2
-3 -18 -7 868.865 444.955 1
3 -18 7 1220.18 599.173 1
-18 7 3 831.442 516.753 2
-18 -7 -3 530.7 237.468 1
-7 18 -3 891.799 635.222 2
18 -7 3 684.184 227.594 1
3 18 -7 774.797 579.507 2
-18 -3 7 659.567 241.905 2
7 -18 -3 869.721 479.026 1
18 -3 -7 456.082 164.965 1
3 7 18 1256.79 676.423 4
-18 -3 7 504.858 764.338 4
-18 -7 -3 708.196 584.985 4
-7 -3 -18 439.553 320.946 4
18 3 7 1143.51 386.811 2
-3 -7 18 1002.52 616.094 1
18 -7 3 1419.27 704.903 3
-7 -18 3 821.151 549.33 1
18 3 7 285.737 394.951 3
18 -1 -7 578.76 200.929 1
-1 -7 18 1015.09 636.033 1
18 -7 1 813.185 462.315 2
-1 18 7 381.525 445.296 2
1 -18 7 1201.79 461.382 1
7 18 1 1048.55 668.008 2
-1 -18 -7 1164.88 604.856 1
-7 18 -1 524.028 494.076 2
-18 7 1 1257.76 544.656 2
1 18 -7 852.797 484.737 2
-18 1 -7 1745.35 877.916 4
18 -7 1 989.719 259.009 1
-18 -7 -1 858.475 329.894 1
-18 -1 7 510.861 547.616 4
18 1 7 822.781 387.932 2
1 7 18 85.5426 368.397 4
-7 -1 -18 455.082 343.384 4
-18 -7 -1 424.323 677.596 4
7 -18 -1 1203.63 496.942 1
-18 -1 7 775.366 224.945 2
-7 -18 1 1369.63 661.3 1
-18 1 -7 904.812 349.869 1
18 1 7 785.488 623.458 3
18 -7 1 1293.12 451.001 3
-18 1 7 197.123 315.681 3
18 -7 -1 242.363 303.077 3
-18 7 -1 739.371 217.224 1
1 18 7 414.023 545.685 2
1 -7 18 1209.13 667.236 1
-1 -18 7 1159.99 659.903 1
1 -18 -7 971.995 499.364 1
-7 18 1 462.851 568.089 2
7 18 -1 876.019 582.827 2
-18 -1 -7 1040.41 355.237 1
-1 18 -7 1185.98 752.969 2
18 -1 7 1175.17 528.178 2
-18 7 -1 331.069 300.328 2
-18 1 7 -385.763 734.225 4
-18 -1 -7 1219.89 819.962 4
-7 -18 -1 1155.38 637.461 1
-7 1 -18 941.338 524.942 4
18 -7 -1 460.44 184.98 1
-1 7 18 -384.088 337.688 4
18 1 -7 736.363 238.186 1
-18 -7 1 900.972 570.652 4
7 -18 1 657.757 386.983 1
18 -1 7 1218.86 606.972 3
1 -18 -7 446.097 370.754 3
-18 -7 1 1318.71 429.211 1
18 7 3 622.542 507.539 3
7 -18 3 1303.75 583.405 1
-18 3 7 1010.03 432.72 2
3 18 7 735.255 548.958 2
18 7 3 1236.8 391.432 2
-3 -18 7 1146.92 573.96 1
-7 18 3 613.826 514.291 2
-18 -7 3 1190.32 391.869 1
3 -18 -7 1283.26 568.967 1
7 18 -3 1125.24 715.833 2
18 -3 7 1546.43 621.974 2
-7 -18 -3 981.845 564.629 1
-18 7 -3 875.713 303.457 1
-3 18 -7 1559.61 709.088 2
3 -7 18 1107.98 549.465 1
18 -7 -3 663.197 205.98 1
18 3 -7 959.547 339.518 1
-18 -3 -7 2235.11 1066.7 4
-18 7 -3 1019.17 517.845 2
-18 -7 3 -449.669 384.616 4
-3 7 18 481.701 333.937 4
18 -3 7 1428.27 787.517 3
3 -18 -7 564.165 329.83 3
-18 3 7 1420.31 459.646 3
-18 -5 -7 152.98 154.725 1
18 7 5 93.0397 309.537 3
-18 -7 5 -114.299 166.063 2
-18 5 7 -199.852 189.424 2
5 18 7 -279.86 397.968 2
5 -7 18 -80.0173 317.029 1
-7 -5 18 -243.157 289.894 1
-7 18 5 -231.171 287.837 2
-5 -18 7 287.368 506.233 1
7 -18 5 428.719 260.238 1
5 -18 -7 591.478 407.14 1
-7 -18 -5 188.53 287.213 1
18 -5 7 -138.689 306.741 2
7 18 -5 -141.467 296.073 2
18 5 -7 133.791 144.928 1
-5 18 -7 -119.845 344.036 2
-18 -5 -7 -294.643 453.474 4
5 7 -18 -25.306 171.265 4
-18 -7 5 460.724 536.668 4
-18 7 -5 -375.869 352.645 2
-18 -7 5 383.865 294.195 1
18 -7 -5 346.524 201.844 1
18 -5 7 -658.012 620.747 3
-18 7 -5 92.0113 175.706 1
-18 5 7 193.601 228.214 3
5 -18 -7 296.44 201.562 3
18 7 7 59.1638 346.552 3
-18 -7 -7 127.648 194.54 1
7 18 7 -346.431 428.654 2
-18 7 -7 95.2017 168.456 1
-18 7 7 60.3245 285.109 2
-7 18 7 -190.673 334.762 2
-7 -18 7 -84.9736 246.595 1
-18 -7 7 -247.524 343.474 1
-18 -7 7 -82.6664 178.46 2
-7 -18 -7 -84.5326 311.32 1
18 -7 -7 131.458 174.092 1
7 -18 -7 -327.201 399.881 1
7 -18 7 233.008 333.11 1
18 7 -7 -66.8103 173.104 1
-7 18 -7 171.693 305.088 2
7 18 -7 43.9502 282.297 2
7 7 -18 368.607 204.022 4
7 -7 18 308.926 369.794 1
-18 -7 -7 1331.07 604.186 4
-18 -7 7 257.024 578.754 4
-7 -7 18 315.938 344.375 1
-18 7 -7 252.615 283.915 2
18 -7 7 -433.99 535.825 3
7 -18 -7 -333.772 214.786 3
-8 -18 6 176.48 422.305 1
-6 18 8 -104.815 417.16 2
18 -6 -8 46.2411 123.318 1
-18 -8 -6 14.8185 122.625 1
8 18 6 -20.6659 306.587 2
-6 -8 18 466.082 493.197 1
-18 8 6 -482.812 543.755 2
-6 -18 -8 62.0655 279.268 1
18 8 -6 -59.3632 166.781 1
-18 -6 8 20.4246 132.87 2
8 -18 -6 89.4221 298.747 1
-18 6 -8 94.3116 166.979 1
-8 18 -6 37.0692 505.189 2
6 -18 8 331.635 429.664 1
18 -8 6 -346.77 257.653 1
6 18 -8 -199.422 317.927 2
18 -6 -8 225.511 157.666 1
-18 -6 8 -661.024 373.825 4
-18 -8 -6 -38.8229 389.294 4
-8 -6 -18 -152.954 333.637 4
6 8 18 119.003 344.479 3
-18 -6 8 -128.643 244.79 1
18 -8 6 496.771 476.268 3
-18 6 -8 -263.508 376.486 2
8 -18 -6 394.304 212.458 3
18 6 8 -579.039 559.48 3
-18 -4 8 388.247 324.714 1
-8 -18 4 253.18 283.093 1
8 -18 -4 35.9953 160.977 3
18 -4 -8 309.203 136.182 1
-4 18 8 463.873 640.234 2
18 8 -4 233.427 205.073 1
-4 -8 18 -1.75411 464.51 1
8 18 4 941.451 717.26 2
18 -8 4 175.171 360.774 2
-4 -18 -8 48.0242 296.595 1
-18 8 4 -21.9642 226.789 2
-18 -8 -4 566.523 291.328 1
-8 18 -4 140.033 435.329 2
4 -18 8 563.869 540.706 1
18 -4 -8 272.074 119.254 1
-18 -4 8 261.787 157.664 2
8 -18 -4 557.57 347.198 1
4 18 -8 723.599 590.871 2
4 8 18 -596.109 544.495 4
-18 -4 8 1882.75 919.404 4
18 -8 4 638.982 333.474 1
-18 -8 -4 247.79 489.541 4
-8 -4 -18 624.534 470.92 4
18 4 8 160.551 191.511 2
18 -8 4 493.437 458.21 3
-18 4 -8 657.095 315.671 1
18 4 8 152.688 430.756 3
18 8 -2 243.734 178.646 1
18 -8 2 896.682 325.484 1
-2 18 8 -197.191 443.848 2
18 -8 2 545.894 460.118 2
-2 -18 -8 95.1194 207.731 1
8 18 2 944.501 622.062 2
-2 -8 18 1087.92 588.579 1
-18 8 2 184.463 359.12 2
-8 18 -2 565.067 637.426 2
2 -18 8 693.084 475.755 1
-18 -8 -2 192.528 255.129 1
-18 2 -8 532.499 266.515 1
18 -2 -8 354.043 152.079 1
2 18 -8 622.176 490.39 2
-18 -2 8 1257.16 989.783 4
2 8 18 1769.7 850.723 4
-8 -2 -18 22.4782 270.968 4
8 -18 -2 683.101 445.939 1
-18 -2 8 586.209 222.458 2
18 2 8 803.642 278.871 2
-18 -8 -2 643.48 574.803 4
18 8 -2 509.636 179.446 2
-8 -18 2 281.714 250.671 1
18 -8 2 533.164 524.351 3
18 2 8 -467.885 378.952 3
-18 8 0 419.844 175.472 1
18 0 -8 806.309 272.667 1
18 -8 0 1077.58 390.588 2
0 18 8 793.535 666.602 2
0 -18 -8 899.712 525.43 1
8 18 0 1112.33 645.25 2
-8 18 0 412.088 639.611 2
0 -18 8 518.377 295.529 1
0 -8 18 1304.35 543.73 1
18 -8 0 731.594 272.961 1
-18 8 0 1205.98 520.428 2
-18 0 -8 859.206 358.243 1
0 18 -8 1454.49 679.175 2
18 8 0 713.281 250.156 2
-18 0 -8 104.004 520.888 4
-18 0 8 142.868 584.453 4
18 0 8 569.775 360.305 2
-8 0 -18 851.084 451.966 4
-8 -18 0 1244.14 503.338 1
0 8 18 1295.96 550.431 4
-18 -8 0 204.435 402.387 4
-18 -8 0 666.827 307.542 1
8 -18 0 607.414 465.119 1
18 0 8 1613.36 842.276 3
18 -8 0 569.527 357.644 3
-18 2 8 -241.878 298.191 3
18 -8 -2 30.5958 245.475 3
8 -18 2 86.0955 204.083 1
18 8 2 784.022 588.01 3
-18 -8 2 669.556 312.621 1
2 18 8 178.385 420.35 2
2 -18 -8 310.776 187.621 1
-8 18 2 367.723 488.377 2
-18 8 -2 481.602 231.094 1
18 8 2 349.575 216.471 2
-2 -18 8 1003.42 528.559 1
8 18 -2 764.132 611.238 2
18 -2 8 547.45 371.084 2
-2 18 -8 409.274 310.182 2
-8 -18 -2 409.604 339.17 1
-18 8 -2 961.008 496.941 2
-8 2 -18 -716.083 455.849 4
-18 -2 -8 1434.26 836.68 4
18 -8 -2 839.265 307.377 1
2 -8 18 459.736 262.732 1
-18 -8 2 552.413 656.359 4
-2 8 18 -138.264 293.966 4
18 2 -8 480.095 240.736 1
18 -2 8 -682.774 799.222 3
2 -18 -8 786.804 390.748 3
18 -8 -4 347.439 200.923 1
18 8 4 -804.231 545.326 3
-18 4 8 194.947 196.139 2
4 18 8 -72.234 517.452 2
18 8 4 340.602 278.896 2
8 -18 4 464.17 358.978 1
-8 18 4 824.496 687.652 2
4 -18 -8 316.737 298.836 1
-4 -18 8 226.076 415.881 1
-18 -8 4 244.061 247.25 1
-8 -18 -4 474.919 373.102 1
8 18 -4 485.79 522.52 2
18 -4 8 319.194 350.696 2
-4 18 -8 56.935 384.658 2
-18 8 -4 182.035 168.081 1
-18 8 -4 991.582 505.015 2
-18 -4 -8 452.859 470.967 4
18 4 -8 123.318 166.967 1
-18 -8 4 619.386 569.49 4
18 -4 8 935.849 661.588 3
4 -18 -8 125.541 231.483 3
-18 4 8 -93.7125 230.201 3
4 -8 18 584.726 333.311 1
-18 -6 -8 -49.8235 105.337 1
18 8 6 -253.436 523.274 3
-18 6 8 230.042 313.864 2
6 18 8 -135.359 561.27 2
-18 -8 6 -182.901 202.088 2
-8 18 6 81.834 479.843 2
6 -18 -8 -89.6677 298.929 1
-6 -18 8 -208.023 338.063 1
-8 -18 -6 -64.531 321.024 1
8 -18 6 -223.585 385.715 1
6 -8 18 -117.667 261.501 1
8 18 -6 480.926 476.892 2
18 -8 -6 164.287 219.349 1
-6 18 -8 320.046 431.178 2
18 6 -8 204.946 163.206 1
6 8 -18 121.538 204.903 4
-18 -6 -8 440.33 613.332 4
-18 8 -6 -154.815 351.781 2
-8 -6 18 293.166 447.317 1
-18 -8 6 201.483 468.917 4
6 -18 -8 167.032 215.803 3
18 -6 8 -129.131 442.838 3
-18 -8 6 -94.3268 173.416 1
-18 6 8 490.281 268.584 3
-18 8 -6 38.5055 142.179 1
18 -5 -9 -84.4127 115.982 1
-9 -18 5 322.795 303.194 1
-5 18 9 -154.848 450.248 2
9 18 5 168.56 262.564 2
-5 -18 -9 -70.5029 347.21 1
-18 9 5 224.961 258.523 2
18 9 -5 -32.0348 205.797 1
-18 -9 -5 -544.054 312.346 1
18 -5 -9 40.7963 160.19 1
18 -9 5 -50.6619 223.381 1
-9 18 -5 191.101 252.433 2
9 -18 -5 -245.438 385.228 1
-18 -5 9 72.1195 222.41 2
-18 -5 9 187.143 266.185 1
5 -18 9 -81.2985 389.208 1
-18 -5 9 683.442 472.559 4
-9 -5 -18 192.993 236.015 4
-18 5 -9 104.165 171.936 1
18 -9 5 90.2212 410.634 3
5 9 18 -478.695 598.634 3
-5 -9 18 -237.192 372.077 1
18 5 9 169.136 377.328 3
9 -18 -5 454.493 216.207 3
18 9 -3 -128.758 210.384 1
-3 18 9 -479.189 551.584 2
18 -3 -9 286.83 156.443 1
18 -9 3 665.225 527.055 2
-3 -18 -9 396.227 364.211 1
9 18 3 -13.9273 392.853 2
-18 9 3 -47.3181 364.131 2
-18 3 -9 343.697 217.161 1
-18 -9 -3 -25.0541 134.867 1
-9 18 -3 78.2049 319.203 2
3 -18 9 13.6075 337.356 1
3 18 -9 -47.8901 309.89 2
9 -18 -3 451.559 345.111 1
-18 -3 9 191.514 193.652 2
-18 -3 9 -948.407 715.694 4
3 9 18 171.933 481.352 4
-9 -3 -18 529.198 511.443 4
-18 -9 -3 778.963 726.028 4
18 9 -3 202.49 139.789 2
18 3 9 3.90472 328.098 2
18 -9 3 668.764 550.19 3
18 -9 3 620.749 337.18 1
-3 -9 18 -141.388 442.859 1
-9 -18 3 126.214 287.051 1
18 3 9 -816.483 926.106 3
18 9 -1 590.937 276.53 1
-18 1 -9 515.594 245.325 1
-1 18 9 477.988 526.724 2
18 -9 1 173.627 455.913 2
-1 -18 -9 155.153 210.343 1
9 18 1 -80.5246 338.482 2
18 -9 1 242.237 226.518 1
-9 18 -1 -654.791 641.767 2
-18 9 1 368.415 427.206 2
18 -1 -9 233.101 183.426 1
1 -18 9 455.592 524.978 1
1 18 -9 77.3007 323.475 2
-18 1 -9 885.552 707.476 4
18 9 -1 181.892 133.008 2
-18 -1 9 -763.293 600.252 4
-18 -9 -1 508.285 362.47 1
-9 -1 -18 246.597 305.559 4
18 1 9 275.247 166.059 2
1 9 18 -90.2768 363.325 4
-18 -9 -1 -496.344 511.31 4
-9 -18 1 490.639 440.288 1
9 -18 -1 532.534 495.889 1
-18 -1 9 279.153 181.897 2
18 -9 1 32.2946 387.895 3
18 1 9 1308.69 906.273 3
-1 -9 18 435.773 451.413 1
-18 1 9 242.665 253.493 3
1 -9 18 675.468 561.789 1
18 1 -9 568.476 331.311 1
1 18 9 -81.9407 365.364 2
-18 9 -1 312.026 208.818 1
1 -18 -9 217.476 354.245 1
-9 18 1 -284.02 498.759 2
9 18 -1 933.762 636.359 2
18 9 1 69.9665 168.79 2
-18 -1 -9 214.039 204.692 1
-1 -18 9 461.52 455.455 1
-18 9 -1 657.949 497.008 2
-1 18 -9 206.291 427.115 2
-18 1 9 456.44 496.505 4
18 -1 9 630.539 358.996 2
-18 -1 -9 728.1 747.084 4
-9 1 -18 215.665 355.528 4
-9 -18 -1 380.202 292.28 1
18 -9 -1 344.344 224.754 1
-18 -9 1 453.547 370.936 4
-1 9 18 1208.79 553.235 4
1 -18 -9 -105.095 349.091 3
18 -1 9 1820.24 1014.76 3
-18 -9 1 272.998 303.289 1
18 -9 -1 -487.198 319.037 3
9 -18 1 -25.0339 234.513 1
-18 3 9 -167.643 304.711 3
18 9 3 171.967 405.738 3
9 -18 3 234.153 236.639 1
3 18 9 -100.06 347.813 2
18 -9 -3 396.836 222.806 1
-18 -9 3 269.364 324.617 1
18 9 3 418.624 300.053 2
3 -9 18 704.464 496.654 1
3 -18 -9 13.3469 277.73 1
-9 18 3 465.844 445.936 2
9 18 -3 -170.254 400.976 2
-18 9 -3 309.562 221.628 1
-3 -18 9 27.3592 245.718 1
-9 -18 -3 -108.3 259.359 1
18 -3 9 -482.925 413.22 2
-9 3 -18 -155.889 315.212 4
-3 18 -9 -25.6538 373.692 2
-18 9 -3 497.239 370.755 2
-18 -3 -9 43.0208 579.041 4
-18 -9 3 19.8517 407.669 4
3 -18 -9 637.48 365.401 3
18 -3 9 -613.458 877.182 3
18 3 -9 468.204 261.446 1
18 9 5 -71.7733 359.587 3
-18 -9 5 1.2615 205.477 2
5 18 9 197.078 384.369 2
18 9 5 -424.371 440.334 2
-9 18 5 15.2661 337.341 2
5 -18 -9 -127.287 276.315 1
9 -18 5 413.21 483.247 1
-9 -18 -5 316.893 420.057 1
-5 -18 9 -79.7586 235.564 1
5 -9 18 164.57 353.444 1
-18 -9 5 128.562 173.625 1
-5 18 -9 -35.3385 444.64 2
-18 9 -5 -5.70913 312.646 2
-18 9 -5 249.701 260.011 1
18 -9 -5 371.532 213.768 1
-18 -9 5 -249.629 572.003 4
18 5 -9 85.5658 153.958 1
18 -5 9 -158.497 516.617 3
-18 5 9 -254.965 308.673 3
18 -2 -10 86.3378 170.425 1
18 10 -2 136.653 160.841 1
-2 18 10 421.851 886.268 2
-2 -18 -10 -218.849 287.996 1
10 18 2 255.34 370.013 2
18 -10 2 -61.9198 305.326 1
-18 10 2 61.8135 248.802 2
-10 18 -2 25.029 388.097 2
-18 -10 -2 -85.378 199.072 1
-18 2 -10 -136.617 654.236 4
-2 -10 18 159.902 331.845 1
2 18 -10 554.041 407.342 2
-10 2 18 107.802 205.649 4
18 10 -2 344.122 185.264 2
-18 -2 10 912.006 739.847 4
2 -18 10 80.3069 345.443 1
-10 -2 -18 -670.721 481.581 4
2 10 18 -429.954 577.985 4
-18 2 -10 16.0928 216.569 1
10 -18 -2 142.784 375.789 1
18 2 10 50.9612 217.109 2
-18 -2 10 -253.229 247.045 2
2 10 18 502.563 456.811 3
-10 -18 2 152.171 327.018 1
18 -10 2 342.132 427.886 3
18 2 10 1009.21 734.663 3
-18 10 0 175.528 171.604 1
0 18 10 -110.898 538.295 2
0 -18 -10 121.626 199.84 1
10 18 0 -111.953 513.372 2
-10 18 0 655.355 595.91 2
-18 10 0 182.278 393.356 2
18 0 -10 486.877 305.453 1
18 10 0 1333.68 489.673 2
0 -18 10 450.623 379.128 1
-18 0 -10 340.276 386.11 4
-18 0 10 659.4 800.976 4
0 18 -10 -44.8348 240.157 2
-18 0 -10 191.132 150.281 1
-10 0 -18 168.02 343.637 4
18 0 10 483.041 355.829 2
-10 -18 0 -87.7996 431.03 1
0 -10 18 836.353 550.217 1
0 10 18 1133.73 524.221 4
-18 -10 0 -1065.54 773.176 4
18 -10 0 657.269 317.672 1
-18 -10 0 392.986 295.973 1
18 0 10 370.714 547.682 3
10 -18 0 67.7056 371.314 1
18 -10 0 130.987 367.746 3
18 -10 -2 29.0709 204.722 3
-18 -10 2 294.098 373.472 1
-18 2 10 168.479 287.185 3
10 -18 2 140.78 267.241 1
-18 -2 -10 276.573 226.915 1
2 18 10 492.338 585.15 2
18 2 -10 286.237 251.592 1
2 -18 -10 510.342 389.223 1
18 -10 -2 -25.996 215.524 1
-18 10 -2 70.823 197.513 1
-10 18 2 142.9 423.314 2
18 10 2 414.418 320.7 2
10 18 -2 265.469 486.744 2
-18 10 -2 17.1703 277.232 2
-2 -18 10 103.75 230.007 1
-10 -18 -2 250.395 378.447 1
-10 2 -18 -324.664 337.494 4
18 -2 10 417.686 280.807 2
-2 18 -10 -220.955 420.37 2
-18 -2 -10 -99.018 621.494 4
-18 -10 2 711.597 573.234 4
2 -10 18 521.666 387.27 1
2 -18 -10 993.386 462.564 3
18 -2 10 1207.8 873.363 3
19 0 1 560.917 471.629 3
19 -1 0 -365.311 469.078 3
19 1 0 201.435 243.272 3
19 0 -1 167.212 344.028 3
0 19 1 293.582 478.212 2
1 19 0 221.868 547.657 2
-1 19 0 615.225 615.243 2
0 19 -1 1114.73 604.252 2
-19 1 0 1049.14 721.177 4
-19 0 1 613.616 502.094 4
-19 0 -1 1455.95 498.075 4
-19 -1 0 1048.83 595.289 4
0 -19 -1 -120.197 228.155 1
-1 -19 0 26.9219 418.347 1
1 -19 0 172.567 200.375 1
0 -19 1 33.2668 285.949 1
19 -2 1 437.59 275.378 3
19 1 2 1772.73 625.308 3
-1 19 2 1136.87 717.928 2
2 19 1 1166.27 716.889 2
-2 19 -1 1539.15 888.276 2
1 19 -2 888.504 693.731 2
-19 1 -2 1724.08 953.625 4
-1 -19 -2 1515.41 629.669 1
-19 -1 2 1965.63 917.362 4
-19 -2 -1 -36.9024 602.546 4
2 -19 -1 1433.99 672.084 1
-19 2 1 794.268 192.899 2
-2 -19 1 1463.48 661.014 1
-19 -2 -1 458.312 138.373 1
1 -19 2 1908.91 805.734 1
19 -1 2 -78.9716 261.704 3
19 2 1 1213.45 587.092 3
19 -2 -1 1013.09 448.01 3
19 -1 2 1228.94 341.412 2
1 19 2 619.991 491.893 2
-2 19 1 1000.23 732.599 2
2 19 -1 928.866 667.571 2
-1 19 -2 524.341 496.656 2
-19 -1 -2 406.954 137.118 1
-19 1 2 1932.21 1064.17 4
1 -19 -2 1266.5 631.267 1
-19 -1 -2 564.534 833.993 4
-19 -2 1 1667.23 951.327 4
-2 -19 -1 1437.43 650.522 1
-2 1 -19 965.503 292.961 4
2 -19 1 1067 512.203 1
-1 -19 2 1894.02 716.294 1
-19 -1 -2 704.728 199.837 1
2 -19 3 57.1861 359.35 1
19 2 3 959.923 582.891 3
-19 2 -3 7.18117 52.0666 1
19 -3 2 515.894 299.308 2
-2 19 3 625.474 624.311 2
3 19 2 425.098 642.315 2
-3 19 -2 224.453 249.668 2
2 19 -3 -112.451 233.715 2
-19 -3 -2 51.0566 85.8763 1
-2 -19 -3 176.479 318.032 1
-19 3 2 64.3291 138.474 2
-2 3 -19 198.4 204.623 4
3 -19 -2 253.78 301.469 1
-19 -2 3 -1151.58 834.012 4
-19 -3 -2 1170.63 819.084 4
-19 3 2 170.997 189.401 3
-3 -19 2 -20.7243 364.527 1
19 -3 2 426.704 394.722 3
19 0 3 923.308 583.125 3
19 -3 0 919.783 476.364 3
19 3 0 649.241 423.942 3
-19 -3 0 615.887 190.961 1
-19 0 -3 361.739 130.018 1
19 0 3 633.894 242.726 2
0 19 3 1076.11 686.177 2
3 19 0 981.593 691.958 2
-3 19 0 1819.4 932.331 2
-19 0 -3 323.989 165.027 1
0 19 -3 659.346 685.53 2
0 -19 -3 1750.65 683.08 1
-19 0 3 1111.53 748.71 4
-19 0 -3 1734.25 888.501 4
-19 -3 0 1212.87 676.158 4
0 3 -19 568.815 185.809 4
-3 0 -19 735.773 313.294 4
-3 -19 0 1015.85 618.554 1
-19 3 0 912.51 279.932 2
3 -19 0 949.141 526.577 1
0 -19 3 550.805 539.747 1
19 3 2 480.772 300.844 3
2 -19 -3 111.65 208.342 3
19 -3 -2 -141.021 242.873 3
19 -2 3 207.934 199.021 2
2 19 3 227.598 538.231 2
-19 -2 -3 332.318 155.997 1
-19 -3 2 44.1304 44.2087 1
-3 19 2 95.0016 312.888 2
3 19 -2 480.356 319.041 2
-2 19 -3 634.149 610.833 2
-19 2 3 291.845 148.128 2
2 -19 -3 163.988 275.663 1
-3 -19 -2 216.186 400.135 1
-19 -2 -3 1376.68 953.382 4
-3 2 -19 916.798 324.726 4
-19 -3 2 1144.49 905.039 4
-19 3 -2 395.856 212.758 2
3 -19 2 81.1153 255.522 1
-2 -19 3 797.351 642.148 1
19 -2 3 -169.748 483.211 3
19 3 4 -791.667 489.534 3
4 -19 -3 274.194 309.251 3
3 -19 4 246.587 338.278 1
-19 3 -4 180.795 137.926 1
19 -4 3 774.077 395.229 2
-3 19 4 651.411 715.979 2
4 19 3 227.201 475.973 2
-19 -4 -3 494.345 240.127 1
-19 4 3 622.669 331.932 2
-4 19 -3 213.437 375.526 2
3 19 -4 308.086 246.859 2
-3 -19 -4 -72.2456 307.233 1
19 3 4 142.589 112.949 2
4 -19 -3 157.551 209.516 1
-19 -3 4 325.759 837.326 4
-19 -4 -3 173.647 396.777 4
-19 -3 4 114.48 108.364 1
-19 4 3 136.77 206.769 3
-4 -19 3 315.769 424.749 1
19 -4 3 -1017.05 660.605 3
19 -4 1 1610.61 528.384 3
19 1 4 592.382 406.093 3
-19 1 -4 1686.79 355.269 1
1 -19 4 2320.38 817.791 1
-1 19 4 926.592 776.617 2
4 19 1 2348.52 930.979 2
-4 19 -1 2306.58 1012.82 2
19 1 4 2259.56 487.662 2
1 19 -4 1963.86 939.332 2
-1 -19 -4 2409.2 876.249 1
-19 4 1 2387.7 555.599 2
-19 1 -4 846.331 744.24 4
-19 -1 4 421.333 721.738 4
-19 -4 -1 1066.87 765.84 4
-19 -4 -1 1801.92 396.749 1
4 -19 -1 2937.33 914.978 1
-4 -1 -19 1330.95 444.207 4
-4 -19 1 2977.55 922.024 1
19 -4 -1 2892.85 680.844 3
-1 -19 4 2823.09 961.435 1
19 4 1 1756.56 630.101 3
-19 -1 -4 1237.19 264.891 1
1 19 4 969.443 692.084 2
19 -1 4 2623.64 630.923 2
-4 19 1 2409.47 915.982 2
4 19 -1 1380.62 699.513 2
-1 19 -4 1521.11 813.599 2
1 -19 -4 3137.05 950.791 1
-19 -4 1 2041.47 414.961 1
-19 1 4 1317.7 791.835 4
-19 -1 -4 2286.88 1023.49 4
-4 -19 -1 2381.84 925.332 1
-4 1 -19 2045.33 520.404 4
-19 -4 1 2190.62 991.367 4
-19 4 -1 2864.39 565.785 2
-19 -1 -4 2177.96 445.443 1
4 -19 1 3049.4 893.216 1
19 -1 4 1733.52 787.294 3
-3 -19 4 176.649 294.348 1
4 -19 3 436.398 416.029 1
3 -19 -4 -61.9618 170.835 3
19 4 3 203.77 382.449 3
-19 -4 3 169.289 151.211 1
-19 -3 -4 32.7514 99.3629 1
3 19 4 531.025 612.823 2
-4 19 3 -44.5281 326.996 2
19 -3 4 356.597 427.977 2
-19 3 4 111.84 205.661 2
4 19 -3 196.465 347.76 2
-3 19 -4 -416.326 460.709 2
3 -19 -4 539.465 431 1
-4 -19 -3 1070.9 668.69 1
-4 3 -19 141.248 228.127 4
-19 -3 -4 1583.8 926.758 4
-19 -4 3 1730.8 928.979 4
-19 4 -3 -19.3428 49.3235 1
-19 4 -3 181.997 139.255 2
-19 3 4 27.0056 310.606 3
19 -3 4 656.543 503.428 3
19 4 5 313.563 311.688 3
-19 -4 5 -174.965 160.374 1
-5 -19 4 -338.229 409.897 1
5 -19 -4 254.714 224.041 3
19 5 -4 -103.856 134.388 1
4 -19 5 55.4981 326.469 1
-19 4 -5 79.0103 101.074 1
-4 19 5 -362.001 374.219 2
5 19 4 -343.286 354.665 2
-19 -5 -4 84.6164 142.833 1
19 -5 4 -551.63 353.885 2
-19 5 4 296.359 274.008 2
-4 -19 -5 -109.667 436.005 1
-5 19 -4 -5.89648 359.782 2
4 19 -5 62.9619 382.373 2
5 -19 -4 -23.5071 398.825 1
-19 -4 5 -196.188 680.337 4
-19 -5 -4 357.781 460.163 4
19 4 5 -107.411 134.47 2
19 -5 4 866.766 395.022 3
19 2 5 2376.43 937.962 3
2 -19 5 2694.92 918.151 1
19 -5 2 2957.69 789.52 2
-2 19 5 2922.78 1172.58 2
5 19 2 2333.95 977.096 2
-5 19 -2 1763.6 1071.28 2
-2 -19 -5 2911.89 952.628 1
-19 5 2 3188.28 707.359 2
2 19 -5 2413.66 1070.77 2
-19 -5 -2 2327.74 498.841 1
19 2 5 2747.08 538.34 2
-19 -2 5 1756.7 829.465 4
5 -19 -2 3305.89 947.056 1
-19 -5 -2 1942.2 987.148 4
-5 -2 -19 1735.02 524.934 4
-19 2 -5 2833.29 503.124 1
-5 -19 2 3539.33 1144.27 1
19 -5 2 2818.41 863.224 3
19 -5 0 528.524 450.19 3
0 -19 5 608.829 504.114 1
0 19 5 296.788 647.758 2
5 19 0 1182.52 776.888 2
-5 19 0 970.858 674.818 2
19 0 5 1013.62 407.128 2
0 -19 -5 762.777 520.073 1
0 19 -5 170.481 245.145 2
0 5 19 699.909 429.877 4
-19 5 0 615.307 335.007 2
-19 0 5 1088.75 826.509 4
-19 0 -5 1204.45 819.499 4
-19 -5 0 2128.59 892.908 4
-5 0 -19 1000.95 408.618 4
-5 -19 0 813.251 458.239 1
5 -19 0 505.917 297.851 1
-19 0 -5 490.724 248.358 1
-19 -5 0 172.912 207.059 1
19 0 5 1231.67 690.546 3
2 -19 -5 1823.81 588.122 3
-19 -2 -5 1751.31 378.029 1
19 -5 -2 2655.4 682.117 3
19 5 2 2091.76 701.419 3
-2 -19 5 3282.72 1007.22 1
2 19 5 1761.57 965.125 2
-19 5 -2 793.203 182.062 1
-19 2 5 2107.71 491.02 2
-5 19 2 1881.23 957.644 2
19 -2 5 4241.81 928.171 2
5 19 -2 2052.48 930.617 2
-19 -5 2 2216.1 471.738 1
2 -19 -5 3648.62 1001.95 1
-2 19 -5 2499.62 1045.92 2
-5 -19 -2 4384.73 1184.89 1
-2 5 19 1465.33 459.189 4
-5 2 -19 1247.7 483.354 4
-19 -2 -5 1116 598.451 4
-19 -5 2 2234.3 1009.36 4
-19 5 -2 3228.15 679.899 2
-19 2 5 1987.61 583.843 3
19 -2 5 2515.56 860.113 3
5 -19 2 2880.68 842.878 1
4 -19 -5 -76.0598 203.712 3
19 5 4 653.546 608.15 3
-19 -5 4 -103.717 121.838 1
-4 -19 5 -213.084 465.641 1
5 -19 4 -102.909 405.617 1
19 5 4 -61.1138 175.426 2
-19 -4 -5 -131.318 199.268 1
19 4 -5 43.5861 66.1413 1
4 19 5 -345.848 510.45 2
-5 19 4 133.076 366.287 2
-19 4 5 263.916 336.475 2
19 -4 5 309.16 475.012 2
5 19 -4 263.083 529.087 2
4 -19 -5 257.295 346.501 1
-5 -19 -4 407.466 357.219 1
-4 19 -5 -2.94548 312.093 2
-19 -4 -5 -350.186 519.834 4
-4 5 19 96.6795 146.596 4
-19 -5 4 -388.095 549.501 4
19 5 4 232.68 161.096 2
-19 5 -4 88.458 171.787 2
-19 5 -4 17.9259 141.282 1
-19 4 5 243.614 323.718 3
19 -4 5 1337.73 790.308 3
6 -19 -5 752.471 268.276 3
19 5 6 665.768 409.726 3
-6 -19 5 696.627 438.184 1
19 6 -5 1062.96 369.703 1
-19 -6 -5 487.632 263.825 1
-5 19 6 1426.18 992.386 2
6 19 5 318.663 461.057 2
-19 5 -6 717.268 310.444 1
5 -19 6 1295 739.122 1
-19 6 5 468.604 324.874 2
19 -6 5 1121.6 695.271 2
-5 -19 -6 1055.77 630.463 1
-6 19 -5 900.618 859.592 2
6 -19 -5 1143.55 581.731 1
5 19 -6 377.821 428.244 2
-5 -6 19 671.126 357.152 1
-19 -5 6 -213.984 657.302 4
-19 -6 -5 657.51 592.7 4
-19 -5 6 817.224 293.661 1
19 5 6 1048.71 325.091 2
-19 5 -6 499.492 294.943 2
19 -6 5 832.128 655.897 3
19 6 -3 477.309 219.96 1
19 -6 3 165.472 242.662 2
-3 19 6 671.951 747.944 2
3 -19 6 941.904 551.699 1
6 19 3 478.849 413.073 2
-3 -19 -6 180.294 311.523 1
-19 6 3 249.89 239.268 2
-19 -6 -3 354.434 254.143 1
-6 19 -3 421.526 469.008 2
3 19 -6 977.811 650.716 2
3 6 19 773.79 639.853 4
6 -19 -3 390.849 245.42 1
-19 -3 6 -203.919 430.446 4
19 3 6 460.433 263.455 2
-19 -6 -3 733.629 521.728 4
-19 3 -6 455.972 257.416 1
-6 -3 -19 156.021 269.231 4
-3 -6 19 755.959 472.327 1
19 -6 3 319.763 311.918 3
-6 -19 3 267.081 518.389 1
19 3 6 -557.134 450.858 3
19 -6 1 1630.76 663.596 2
-1 -6 19 1392.26 665.927 1
-1 19 6 679.888 591.369 2
1 -19 6 1401.93 681.839 1
6 19 1 724.059 540.11 2
-6 19 -1 1027.92 727.024 2
-1 -19 -6 1426.03 710.395 1
-19 1 -6 1209.04 377.378 1
-19 6 1 1391.03 510.803 2
1 19 -6 862.212 584.158 2
19 1 6 1512.22 485.288 2
-19 1 -6 356.323 739.999 4
1 6 19 1627.4 469.075 4
-19 -1 6 1465.67 932.763 4
-19 -6 -1 1198.48 387.691 1
-19 -6 -1 838.673 728.28 4
-6 -1 -19 462.145 353.748 4
6 -19 -1 1215.34 547.521 1
-6 -19 1 644.238 638.446 1
19 1 6 1200.85 675.146 3
19 -6 1 1056.42 414.246 3
19 -6 -1 1500.52 522.946 3
-19 -6 1 1298.37 366.831 1
-1 -19 6 1225.45 619.131 1
1 19 6 1149.23 770.558 2
-19 1 6 749.844 290.895 2
-6 19 1 915.613 705.645 2
6 19 -1 1292.11 857.649 2
1 -19 -6 1378.63 563.582 1
1 -6 19 2089.63 871.64 1
19 -1 6 1206.72 499.505 2
-1 19 -6 865.56 502.121 2
-19 1 6 565.452 547.146 4
-19 6 -1 1589.34 562.452 2
-19 -1 -6 583.741 477.737 4
-1 6 19 1442.55 498.387 4
-6 1 -19 1031.41 464.884 4
-6 -19 -1 1253.74 649.477 1
-19 -6 1 454.159 474.332 4
-19 -1 -6 1057.17 371.616 1
6 -19 1 1355.97 621.065 1
19 -1 6 1212.8 648.712 3
-19 -3 -6 329.434 176.366 1
19 6 3 -116.36 450.079 3
6 -19 3 483.287 334.131 1
-3 -19 6 294.228 390.884 1
3 19 6 330.697 547.128 2
-19 3 6 474.612 350.543 2
19 6 3 470.236 224.524 2
-6 19 3 -295.703 627.36 2
19 3 -6 261.725 138.86 1
19 -3 6 197.501 199.591 2
3 -19 -6 1193.25 583.117 1
6 19 -3 1395.47 736.57 2
-3 19 -6 198.515 346.405 2
-19 -6 3 674.89 290.807 1
-19 6 -3 453.881 217.123 1
-6 -19 -3 613.845 420.905 1
-6 3 -19 137.889 324.384 4
-19 -3 -6 843.503 678.643 4
-3 6 19 -114.57 215.383 4
-19 -6 3 1172.54 708.531 4
-19 6 -3 431.219 325.281 2
3 6 -19 -33.2459 102.04 4
19 6 3 395.602 144.219 2
19 -3 6 291.672 369.045 3
-19 3 6 -36.8911 274.265 3
3 -19 -6 -111.949 254.278 3
19 6 5 1037.42 532.21 3
-19 -6 5 890.973 312.78 1
-19 -5 -6 578.39 288.821 1
-5 -19 6 946.7 640.637 1
5 19 6 958.739 768.227 2
6 -19 5 1047.3 484.521 1
-19 5 6 565.682 344.31 2
-6 19 5 1268.23 905.711 2
19 5 -6 809.019 256.759 1
19 -5 6 1388.5 759.585 2
-6 -19 -5 1343.91 696.183 1
5 -19 -6 318.572 380.675 1
6 19 -5 202.68 346.086 2
-5 19 -6 272.576 359.299 2
-19 -5 -6 -38.4041 459.361 4
-19 -6 5 -514.567 671.743 4
-5 6 19 -59.6496 181.724 4
-19 6 -5 596.87 424.082 2
-19 5 6 304.043 289.055 3
19 -5 6 645.58 410.759 3
-19 6 -5 966.683 350.062 1
5 -19 -6 592.125 302.86 3
-7 -19 4 338.355 321.266 1
7 -19 -4 96.8229 191.397 3
19 7 -4 353.165 284.175 1
-4 19 7 337.313 442.17 2
7 19 4 189.852 296.576 2
19 -7 4 712.537 621.136 2
-19 -7 -4 27.9199 160.946 1
-19 7 4 -221.477 328.967 2
-4 -7 19 343.276 431.71 1
-4 -19 -7 -4.0869 367.953 1
4 -19 7 -317.261 347.529 1
19 -4 -7 107.669 74.8755 1
-19 -4 7 160.304 134.94 2
-7 19 -4 934.357 714.658 2
4 19 -7 -43.4314 253.303 2
7 -19 -4 67.1802 276.217 1
4 7 19 766.325 602.017 4
-19 4 -7 256.672 228.74 1
-19 -4 7 641.898 808.901 4
19 -4 -7 36.615 46.9022 1
-19 -7 -4 424.823 510.704 4
-7 -4 -19 -485.302 385.548 4
19 4 7 253.185 205.885 2
-19 -4 7 -164.433 178.095 1
19 -7 4 -102.789 385.434 3
19 4 7 195.175 401.59 3
19 -7 2 146.992 359.837 2
-2 19 7 -414.197 520.707 2
-19 2 -7 164.767 212.856 1
7 19 2 373.173 297.405 2
2 -19 7 425.855 610.489 1
-2 -19 -7 332.369 441.294 1
-7 19 -2 -89.4379 399.4 2
-19 7 2 187.252 283.847 2
-2 -7 19 -315.947 359.363 1
-19 -7 -2 119.058 187.05 1
2 19 -7 286.325 348.809 2
-19 -2 7 21.3266 102.734 2
2 7 19 489.195 681.356 4
-19 -2 7 -35.6198 640.813 4
19 2 7 303.188 168.91 2
7 -19 -2 154.467 385.781 1
-19 -7 -2 638.15 655.76 4
-7 -2 -19 254.693 308.82 4
-7 -19 2 74.6489 378.503 1
19 -7 2 -69.5338 404.283 3
19 2 7 -710.172 636.666 3
19 7 -2 167.72 102.923 1
-19 0 7 196.049 193.957 2
0 19 7 705.147 628.054 2
-19 0 -7 355.354 169.052 1
0 -19 7 266.138 440.548 1
7 19 0 833.446 539.276 2
0 -19 -7 558.682 324.265 1
-7 19 0 421.204 368.979 2
0 19 -7 389.562 462.577 2
-19 7 0 173.786 219.722 2
19 0 7 520.58 316.552 2
19 0 -7 261.863 121.317 1
-19 0 -7 -389.651 677.761 4
-19 0 7 372.978 460.737 4
19 -7 0 213.982 107.606 1
0 7 19 582.996 440.281 4
-7 0 -19 -37.8601 214.529 4
0 -7 19 881.847 580.383 1
-19 -7 0 -788.984 766.08 4
-7 -19 0 729.024 554.481 1
-19 -7 0 230.579 176.421 1
7 -19 0 52.4696 205.855 1
19 0 7 530.227 363.017 3
19 -7 0 746.75 434.071 3
7 -19 2 498.244 490.788 1
19 -7 -2 -40.167 228.401 3
19 7 2 157.908 317.568 3
2 -7 19 168.84 263.062 1
-19 2 7 130.693 194.904 2
-19 -7 2 142.953 184.291 1
2 19 7 993.518 746.551 2
-2 -19 7 -311.533 536.587 1
-19 7 -2 199.225 144.424 1
-7 19 2 120.366 454.229 2
2 -19 -7 -46.9481 232.475 1
7 19 -2 647.322 621.725 2
19 -2 7 441.605 470.768 2
19 2 -7 84.0643 120.565 1
-2 19 -7 151.658 434.102 2
-7 -19 -2 141.464 230.305 1
-7 2 -19 -46.8313 261.501 4
-19 7 -2 269.443 303.572 2
-19 -2 -7 -127.341 444.084 4
-2 7 19 1029.81 409.397 4
-19 -7 2 -382.298 405.703 4
19 -2 7 221.17 578.587 3
2 -19 -7 -209.971 267.816 3
-19 2 7 392.177 297.365 3
-19 -4 -7 15.6997 106.128 1
19 7 4 -178.543 523.964 3
7 -19 4 -115.223 341.189 1
19 7 4 229.668 198.202 2
-19 4 7 328.104 210.599 2
4 19 7 225.038 352.537 2
-4 -19 7 160.939 533.004 1
-7 19 4 471.917 611.941 2
4 -19 -7 453.305 372.147 1
19 -4 7 460.815 416.743 2
19 4 -7 -25.1303 97.6726 1
7 19 -4 168.701 461.01 2
-7 -19 -4 -158.065 332.638 1
19 -7 -4 26.4152 84.0299 1
-4 19 -7 338.668 575.465 2
-19 -7 4 519.721 282.926 1
-19 7 -4 326.871 205.455 1
-19 -4 -7 1111.93 713.351 4
-19 7 -4 293.009 306.001 2
-19 -7 4 50.32 615.347 4
4 7 -19 -7.11934 186.876 4
-4 7 19 -322.498 243.421 4
19 -4 7 2196.12 922.144 3
-19 4 7 88.3005 227.905 3
4 -19 -7 240.843 272.853 3
4 -7 19 7.63588 415.763 1
19 -1 -8 543.38 234.267 1
19 -8 1 842.978 481.271 2
-1 19 8 388.962 651.192 2
19 -8 1 511.534 242.273 1
-1 -19 -8 870.163 523.688 1
8 19 1 912.619 694.137 2
1 -19 8 805.241 377.97 1
-8 19 -1 489.051 598.764 2
-19 8 1 -179.93 254.521 2
1 19 -8 452.027 489.889 2
-19 1 -8 1088.57 620.977 4
-19 -1 8 -688.54 828.682 4
19 1 8 566.843 364.396 2
1 8 19 -225.203 364.079 4
-19 -8 -1 371.507 237.649 1
-8 -1 -19 379.002 319.754 4
-19 -8 -1 438.551 417.527 4
-19 -1 8 819.143 286.983 2
-1 -8 19 952.337 661.472 1
-8 -19 1 759.886 485.992 1
8 -19 -1 725.157 548.749 1
-19 1 -8 633.261 324.509 1
19 1 8 1297.59 756.223 3
19 -8 1 553.652 310.099 3
1 -8 19 859.767 540.036 1
19 -8 -1 574.295 353.682 3
-19 -1 -8 633.505 277.721 1
-19 8 -1 290.086 169.028 1
1 19 8 541.117 604.345 2
1 -19 -8 369.858 361.946 1
-8 19 1 330.606 523.232 2
-1 -19 8 301.351 206.25 1
8 19 -1 1426.77 814.505 2
19 -8 -1 344.032 180.62 1
19 8 1 198.31 135.148 2
-19 8 -1 937.319 534.504 2
19 -1 8 893.777 517.422 2
-1 19 -8 847.954 664.158 2
-19 1 8 1123.07 710.733 4
-19 -1 -8 1432.83 925.916 4
-8 1 -19 665.238 374.052 4
-8 -19 -1 766.372 519.96 1
-1 8 19 -1144.01 581.963 4
-19 -8 1 988.435 762.918 4
19 1 -8 473.952 213.512 1
19 -1 8 98.8209 461.219 3
8 -19 1 642.434 387.218 1
-19 -8 1 492.912 346.074 1
20 0 0 586.701 274.74 3
0 20 0 619.959 596.43 2
-20 0 0 618.423 649.612 4
0 -20 0 1098.34 441.866 1
20 -1 1 -262.454 374.848 3
20 1 1 149.936 266.926 3
20 -1 -1 339.977 394.877 3
1 20 1 281.03 339.85 2
-1 20 1 451.416 504.382 2
1 20 -1 617.62 686.661 2
-1 20 -1 446.103 515.268 2
-20 1 1 -1123.93 837.693 4
-20 1 -1 573.519 700.423 4
-20 -1 -1 286.828 433.125 4
-20 -1 1 -162.495 610.024 4
-1 -20 -1 271.541 431.062 1
1 -20 -1 166.962 268.486 1
-1 -20 1 -10.5099 265.706 1
1 -20 1 -122.541 303.089 1
20 0 2 370.959 292.477 3
20 -2 0 409.752 268.085 3
20 2 0 -12.421 416.197 3
0 20 2 107.557 313.163 2
2 20 0 614.796 595.774 2
-2 20 0 -179.651 507.948 2
0 20 -2 859.801 774.864 2
-20 0 2 -250.327 834.336 4
-20 0 -2 -1254.81 968.586 4
0 -20 -2 430.215 234.789 1
-20 -2 0 856.41 465.677 4
-2 -20 0 918.649 646.568 1
2 -20 0 158.766 209.262 1
0 -20 2 940.177 537.468 1
20 -2 2 0.88296 319.12 3
20 2 2 764.038 626.145 3
20 -2 2 298.338 250.838 2
2 20 2 -26.5853 348.499 2
-2 20 2 832.265 527.81 2
-20 -2 -2 -1.57314 88.6195 1
2 20 -2 414.295 415.712 2
-2 20 -2 714.208 585.95 2
-20 -2 -2 -264.578 128.227 1
-2 -20 -2 128.452 343.555 1
-20 -2 -2 -1483.73 1010.43 4
-20 -2 2 -760.455 752.409 4
2 -20 -2 -9.07511 335.077 1
-2 2 -20 -106.117 184.431 4
-2 -20 2 -194.6 474.351 1
2 -20 2 -159.793 286.663 1
1 -20 3 403.623 456.461 1
20 -3 1 164.301 407.351 3
20 1 3 29.5073 292.712 3
-1 20 3 247.002 483.283 2
3 20 1 15.0377 264.92 2
-3 20 -1 -331.143 377.69 2
1 20 -3 231.264 308.234 2
-1 -20 -3 -135.57 263.464 1
-20 1 -3 -636.863 745.11 4
-20 -1 3 555.629 548.234 4
-20 -3 -1 1158.62 641.521 4
-1 3 -20 128.144 118.303 4
-20 3 1 -0.71153 87.4468 2
3 -20 -1 504.214 389.737 1
-3 -1 -20 265.404 224.664 4
-3 -20 1 553.142 478.479 1
-20 -3 -1 6.51556 93.8113 1
20 -1 3 -146.139 344.457 3
20 -3 -1 -880.642 453.484 3
20 3 1 1167.19 703.05 3
20 -1 3 208.661 195.912 2
1 20 3 594.188 511.471 2
-20 -1 -3 -2.2614 70.1146 1
-3 20 1 183.216 305.941 2
3 20 -1 336.587 580.729 2
-1 20 -3 -119.687 424.687 2
1 -20 -3 -8.54515 411.582 1
-20 1 3 -555.481 753.991 4
-20 -1 -3 -57.4475 428.305 4
-20 -3 1 1268.37 646.138 4
-3 -20 -1 -51.3281 317.077 1
-3 1 -20 -307.911 214.644 4
-20 3 -1 246.345 199.497 2
3 -20 1 -26.0135 251.261 1
-20 -1 -3 65.3436 119.839 1
-1 -20 3 583.161 503.686 1
3 -20 3 -15.2528 375.46 1
20 3 3 1117.35 649.171 3
20 -3 3 -8.02206 284.315 2
3 20 3 469.21 574.835 2
-3 20 3 55.7111 296.801 2
-20 -3 -3 -4.37908 136.494 1
3 20 -3 108.724 268.435 2
-3 20 -3 1.30861 303.053 2
-20 3 3 -95.2054 173.304 2
-3 -20 -3 -308.926 380.757 1
3 -20 -3 166.239 306.475 1
-3 3 -20 -148.268 229.97 4
-20 -3 -3 466.693 739.966 4
-20 -3 3 902.776 689.355 4
-3 -20 3 -66.7618 276.746 1
20 -3 3 -160.27 333.828 3
20 2 4 -185.552 373.841 3
2 -20 4 447.919 490.621 1
20 -4 2 425.206 422.771 2
-2 20 4 202.366 412.276 2
4 20 2 790.829 688.329 2
-20 2 -4 124.423 152.72 1
20 2 4 71.4195 139.549 2
-4 20 -2 15.1681 516.103 2
2 20 -4 -88.4396 383.422 2
-2 -20 -4 201.548 257.18 1
-20 4 2 -104.959 133.163 2
-20 -4 -2 173.937 192.537 1
-2 4 -20 313.611 202.615 4
-20 -2 4 570.367 760.985 4
-20 -4 -2 -180.432 546.38 4
4 -20 -2 414.089 618.516 1
-4 -2 -20 300.926 273.503 4
-4 -20 2 171.006 340.346 1
20 -4 2 -561.032 445.822 3
20 0 4 -497.208 406.903 3
20 -4 0 2.66635 374.426 3
0 -20 4 685.967 456.316 1
-20 0 -4 275.19 131.556 1
-20 -4 0 377.441 192.121 1
0 20 4 -66.8797 459.372 2
20 0 4 933.703 381.534 2
4 20 0 664.989 597.781 2
-4 20 0 708.332 638.424 2
-20 0 -4 75.6132 115.395 1
0 20 -4 801.496 544.779 2
0 -20 -4 402.165 387.164 1
-20 0 4 366.255 475.059 4
-20 0 -4 1146.89 921.709 4
0 4 -20 505.487 187.625 4
-20 -4 0 -1003.92 939.716 4
-20 4 0 877.398 334.314 2
-4 0 -20 -94.9158 285.927 4
-4 -20 0 825.773 623.728 1
4 -20 0 514.722 575.517 1
-2 -20 4 314.005 265.172 1
20 4 2 -630.58 644.684 3
20 -4 -2 151.311 211.621 3
-20 -2 -4 130.966 115.212 1
2 20 4 15.9157 433.392 2
20 -2 4 687.45 460.226 2
-4 20 2 773.566 764.821 2
4 20 -2 390.077 424.904 2
-2 20 -4 347.959 594.372 2
-20 2 4 209.97 174.742 2
2 -20 -4 608.116 497.827 1
-4 -20 -2 877.466 604.633 1
-20 -2 -4 300.389 488.302 4
-4 2 -20 -77.0111 220.656 4
-20 -4 2 -554.812 702.676 4
-20 -2 -4 -91.3503 168.251 1
-20 4 -2 229.328 110.475 2
-20 -4 2 222.04 175.557 1
4 -20 2 -227.357 392.781 1
20 -2 4 165.678 455.798 3
-4 -20 4 -270.628 531.181 1
20 4 4 757.164 588.138 3
4 -20 -4 52.9476 243.453 3
4 -20 4 -16.3919 214.513 1
20 -4 4 67.9827 262.21 2
4 20 4 -300.022 327.714 2
-4 20 4 -526.128 524.973 2
-20 4 4 141.631 257.571 2
-4 -20 -4 25.583 372.201 1
20 4 4 26.7248 101.027 2
4 -20 -4 685.646 462.024 1
-20 -4 4 823.867 629.505 4
-20 4 4 -440.41 390.287 3
-20 -4 4 78.8236 132.198 1
-20 4 -4 115.712 133.356 1
20 -5 1 136.597 273.682 3
1 -20 5 -216.429 269.376 1
-20 1 -5 -55.073 165.846 1
-1 20 5 548.252 682.876 2
5 20 1 693.995 668.705 2
-5 20 -1 -329.842 552.002 2
20 1 5 99.9326 145.188 2
-1 -20 -5 36.3776 235.874 1
1 20 -5 591.782 457.163 2
-20 5 1 202.424 155.978 2
-20 1 -5 1626.47 894.784 4
-20 -1 5 -137.633 433.398 4
-20 -5 -1 -694.711 641.685 4
-5 -1 -20 455.328 259.322 4
5 -20 -1 13.1829 319.038 1
-20 -5 -1 10.2395 182.617 1
-5 -20 1 -26.1314 273.352 1
20 1 5 352.557 497.418 3
-20 -1 -5 89.8625 101.425 1
20 -5 -1 747.313 332.6 3
20 5 1 458.367 268.804 3
-1 -20 5 336.467 439.257 1
-20 -5 1 220.852 181.365 1
1 20 5 601.215 762.545 2
-5 20 1 -142.115 628.923 2
20 -1 5 398.468 319.436 2
5 20 -1 -11.3065 391.642 2
-20 -1 -5 202.757 178.015 1
-20 1 5 20.8883 83.9881 2
1 -20 -5 221.456 420.288 1
-1 20 -5 120.002 294.372 2
-20 1 5 1168.38 710.027 4
-20 -1 -5 1135.53 967.34 4
-5 1 -20 229.566 320.678 4
-5 -20 -1 568.429 490.666 1
-20 5 -1 514.97 292.456 2
-20 -5 1 548.347 733.682 4
5 -20 1 -178.263 295.172 1
20 -1 5 -526.583 478.355 3
#BEGIN Loops that were not found in dictionaries:
loop_
_smtbx_masks_void_nr
_smtbx_masks_void_average_x
_smtbx_masks_void_average_y
_smtbx_masks_void_average_z
_smtbx_masks_void_volume
_smtbx_masks_void_count_electrons
1 -0.246 -0.658 -0.551 14322.1 1811.8
#END Loops that were not found in dictionaries
