#------------------------------------------------------------------------------
#$Date: 2017-12-10 21:25:10 +0200 (Sun, 10 Dec 2017) $
#$Revision: 204138 $
#$URL: file:///home/coder/svn-repositories/cod/cif/7/22/77/7227778.cif $
#------------------------------------------------------------------------------
#
# This file is available in the Crystallography Open Database (COD),
# http://www.crystallography.net/
#
# All data on this site have been placed in the public domain by the
# contributors.
#
data_7227778
loop_
_publ_author_name
'Patyk-Ka\'zmierczak, Ewa'
'Warren, Mark R.'
'Allan, David R.'
'Katrusiak, Andrzej'
_publ_section_title
;
 Pressure inverse solubility and polymorphism of an edible
 \g-cyclodextrin-based metal-organic framework.
;
_journal_issue                   13
_journal_name_full               'Physical chemistry chemical physics : PCCP'
_journal_page_first              9086
_journal_page_last               9091
_journal_paper_doi               10.1039/c7cp00593h
_journal_volume                  19
_journal_year                    2017
_chemical_absolute_configuration rm
_chemical_formula_moiety         'C48 H80 O40, 2(KOH)'
_chemical_formula_sum            'C48 H82 K2 O42'
_chemical_formula_weight         1409.34
_chemical_name_common            '\g-cyclodextrin-metal-organic framework'
_chemical_name_systematic
'catena-((\m8-\g-Cyclodextrin)-di-potassium dihydroxide)'
_space_group_crystal_system      cubic
_space_group_IT_number           211
_space_group_name_Hall           'I 4 2 3'
_space_group_name_H-M_alt        'I 4 3 2'
_atom_sites_solution_hydrogens   geom
_atom_sites_solution_primary     direct
_audit_creation_date             2017-01-18
_audit_creation_method
;
Olex2 1.2
(compiled 2017.01.04 svn.r3372 for OlexSys, GUI svn.r5289)
;
_cell_angle_alpha                90.0
_cell_angle_beta                 90.0
_cell_angle_gamma                90.0
_cell_formula_units_Z            12
_cell_length_a                   31.2695(18)
_cell_length_b                   31.2695(18)
_cell_length_c                   31.2695(18)
_cell_measurement_reflns_used    1207
_cell_measurement_temperature    295
_cell_measurement_theta_max      10.3010
_cell_measurement_theta_min      1.9890
_cell_volume                     30575(3)
_computing_cell_refinement       'CrysAlisPro 1.171.38.41 (Rigaku OD, 2015)'
_computing_data_collection       'CrysAlisPro 1.171.38.41 (Rigaku OD, 2015)'
_computing_data_reduction        'CrysAlisPro 1.171.38.41 (Rigaku OD, 2015)'
_computing_molecular_graphics    'Olex2 (Dolomanov et al., 2009)'
_computing_publication_material  'Olex2 (Dolomanov et al., 2009)'
_computing_structure_refinement  'ShelXL (Sheldrick, 2015)'
_computing_structure_solution    'ShelXS (Sheldrick, 2008)'
_diffrn_ambient_environment      'diamond-anvil cell'
_diffrn_ambient_pressure         330000
_diffrn_ambient_temperature      295
_diffrn_detector                 'CCD plate'
_diffrn_measured_fraction_theta_full 0.737
_diffrn_measured_fraction_theta_max 0.737
_diffrn_measurement_details
;
List of Runs (angles in degrees, time in seconds):

  # Type    Start    End  Width  t~exp~   \w     \q     \k     \f   Frames
--------------------------------------------------------------------------
  1  \w   -105.00 -74.00   0.20    0.70    --   15.00  70.00 155.77  155
  2  \w   -105.00 -74.00   0.20    0.70    --   15.00  70.00 -24.23  155
  3  \w   -106.00 -66.00   0.20    0.70    --  -15.00 -70.00-155.77  200
  4  \w   -106.00 -66.00   0.20    0.70    --  -15.00 -70.00  24.23  200
  5  \w   -150.00 -94.00   0.20    0.70    --  -15.00  70.00 -24.23  280
  6  \w   -150.00 -94.00   0.20    0.70    --  -15.00  70.00 155.77  280
  7  \w    -96.00 -30.00   0.20    0.70    --   15.00 -70.00  24.23  330
  8  \w    -96.00 -30.00   0.20    0.70    --   15.00 -70.00-155.77  330
;
_diffrn_measurement_device       'abstract diffractometer'
_diffrn_measurement_device_type  'Newport IS4CCD (4 circle), Pilatus 300K'
_diffrn_measurement_method       '\w scans'
_diffrn_orient_matrix_type
'CrysAlisPro convention (1999,Acta A55,543-557)'
_diffrn_orient_matrix_UB_11      -0.0002454000
_diffrn_orient_matrix_UB_12      0.0217413000
_diffrn_orient_matrix_UB_13      -0.0037440000
_diffrn_orient_matrix_UB_21      0.0188974000
_diffrn_orient_matrix_UB_22      -0.0017001000
_diffrn_orient_matrix_UB_23      -0.0112049000
_diffrn_orient_matrix_UB_31      -0.0113022000
_diffrn_orient_matrix_UB_32      -0.0033279000
_diffrn_orient_matrix_UB_33      -0.0185734000
_diffrn_radiation_monochromator  synchrotron
_diffrn_radiation_probe          x-ray
_diffrn_radiation_type           synchrotron
_diffrn_radiation_wavelength     0.6889
_diffrn_reflns_av_R_equivalents  0.0542
_diffrn_reflns_av_unetI/netI     0.0453
_diffrn_reflns_Laue_measured_fraction_full 0.737
_diffrn_reflns_Laue_measured_fraction_max 0.737
_diffrn_reflns_limit_h_max       20
_diffrn_reflns_limit_h_min       -20
_diffrn_reflns_limit_k_max       9
_diffrn_reflns_limit_k_min       -9
_diffrn_reflns_limit_l_max       20
_diffrn_reflns_limit_l_min       -20
_diffrn_reflns_number            5461
_diffrn_reflns_point_group_measured_fraction_full 0.739
_diffrn_reflns_point_group_measured_fraction_max 0.739
_diffrn_reflns_theta_full        13.267
_diffrn_reflns_theta_max         13.267
_diffrn_reflns_theta_min         1.785
_diffrn_source                   synchrotron
_exptl_absorpt_coefficient_mu    0.148
_exptl_absorpt_correction_T_max  1.00000
_exptl_absorpt_correction_T_min  0.55035
_exptl_absorpt_correction_type   multi-scan
_exptl_absorpt_process_details
;
CrysAlisPro 1.171.38.41 (Rigaku Oxford Diffraction, 2015)
Empirical absorption correction using spherical harmonics,
 implemented in SCALE3 ABSPACK scaling algorithm.
;
_exptl_crystal_colour            'clear colourless'
_exptl_crystal_colour_lustre     clear
_exptl_crystal_colour_primary    colourless
_exptl_crystal_density_diffrn    0.918
_exptl_crystal_description       plate
_exptl_crystal_F_000             8928
_exptl_crystal_recrystallization_method
'Compressed crystal that was grown in situ at 0.16 GPa in the diamond-anvil cell from methanol:water mixture by heating and subsequent cooling of the cell'
_exptl_crystal_size_max          0.15
_exptl_crystal_size_mid          0.14
_exptl_crystal_size_min          0.04
_refine_diff_density_max         0.133
_refine_diff_density_min         -0.123
_refine_diff_density_rms         0.031
_refine_ls_abs_structure_details
;
 Flack x determined using 91 quotients [(I+)-(I-)]/[(I+)+(I-)]
 (Parsons, Flack and Wagner, Acta Cryst. B69 (2013) 249-259).
;
_refine_ls_abs_structure_Flack   0.14(11)
_refine_ls_extinction_method     none
_refine_ls_goodness_of_fit_ref   1.035
_refine_ls_hydrogen_treatment    constr
_refine_ls_matrix_type           full
_refine_ls_number_parameters     77
_refine_ls_number_reflns         601
_refine_ls_number_restraints     60
_refine_ls_restrained_S_all      1.382
_refine_ls_R_factor_all          0.1019
_refine_ls_R_factor_gt           0.0814
_refine_ls_shift/su_max          0.000
_refine_ls_shift/su_mean         0.000
_refine_ls_structure_factor_coef Fsqd
_refine_ls_weighting_details
'w=1/[\s^2^(Fo^2^)+(0.1543P)^2^] where P=(Fo^2^+2Fc^2^)/3'
_refine_ls_weighting_scheme      calc
_refine_ls_wR_factor_gt          0.2122
_refine_ls_wR_factor_ref         0.2317
_reflns_Friedel_coverage         0.603
_reflns_Friedel_fraction_full    0.743
_reflns_Friedel_fraction_max     0.743
_reflns_number_gt                384
_reflns_number_total             601
_reflns_threshold_expression     'I > 2\s(I)'
_iucr_refine_instructions_details
;

    final_new.res created by SHELXL-2014/7

TITL final_new in I432 #211
REM reset to I432 #211
CELL 0.6889 31.26948 31.26948 31.26948 90 90 90
ZERR 12 0.001783 0.001783 0.001783 0 0 0
LATT -2
SYMM -Y,+X,+Z
SYMM -X,-Y,+Z
SYMM +Y,-X,+Z
SYMM +X,-Z,+Y
SYMM +X,-Y,-Z
SYMM +X,+Z,-Y
SYMM +Z,+Y,-X
SYMM -X,+Y,-Z
SYMM -Z,+Y,+X
SYMM +Z,+X,+Y
SYMM +Y,+Z,+X
SYMM -Y,-Z,+X
SYMM +Z,-X,-Y
SYMM -Y,+Z,-X
SYMM -Z,-X,+Y
SYMM -Z,+X,-Y
SYMM +Y,-Z,-X
SYMM +Y,+X,-Z
SYMM -Y,-X,-Z
SYMM -X,+Z,+Y
SYMM -X,-Z,-Y
SYMM +Z,-Y,+X
SYMM -Z,-Y,-X
SFAC C H K O
DISP C 0.003 0.001 10.848
DISP H -0 0 0.623
DISP K 0.203 0.25 967.432
DISP O 0.011 0.006 30.192
UNIT 576 960 24 504
DFIX 1.45 0.005 C4 O4
DFIX 1.5 0.005 C2 C3
DFIX 1.5 0.005 C4 C3
DFIX 2.3 C2 O3
DFIX 1.45 0.005 O3 C3
DFIX 1.45 0.005 C6 O6
DFIX 3 C2 C5
DFIX 1.5 0.005 C6 C5
DFIX 1.5 0.005 C4 C5
DFIX 2.2 O4 C12
DFIX 1.45 0.005 O14 C14
DFIX 1.5 0.005 C12 C13
DFIX 1.5 0.005 C14 C13
DFIX 2.4 O14 C13
DFIX 1.45 0.005 C11 O4
DFIX 1.5 0.005 C12 C11
DFIX 3 C11 C14
DFIX 1.5 0.005 C15 C14
DFIX 3 C12 C15
DFIX 1.5 0.005 C14 C15
DFIX 2.4 O14 C15
DFIX 1.5 0.005 C16 C15
DFIX 1.45 0.005 C2 O2
DFIX 2.2 O2 C3
DFIX 2.5 O1AA C14
DFIX 1.45 0.005 O1AA C13
DFIX 3 C1 C4
DFIX 1.5 0.005 C2 C1
DFIX 2.3 0.005 C5 C1
DFIX 1.45 0.01 O12 C12
DFIX 1.45 0.005 C16 O16
DFIX 2.5 O5 C6
DFIX 3 O5 C3
DFIX 1.45 0.005 O5 C5
DFIX 3 O15 C13
DFIX 1.45 0.005 O15 C11
DFIX 1.45 0.005 O15 C15
DFIX 2.2 O15 C16
DFIX 1.45 0.005 O5 C1
DANG 2.5 0.02 C4 C2
DANG 2.5 0.02 C5 C3
DANG 2.7 O6 C5
DANG 2.5 C13 O14
DANG 2.4 0.02 C12 C14
DANG 2.5 O4 C12
DANG 2.5 C4 C11
DANG 2.5 C11 C4
DANG 2.4 0.02 C11 C13
DANG 2.4 0.02 C13 C15
DANG 2.5 O14 C15
DANG 2.4 0.02 C15 C11
DANG 2.5 0.02 C3 C1
DANG 2.5 0.02 C1 C5
DANG 2.5 O2 C1
DANG 2.5 C1 O2
DANG 2.5 C15 O16
DANG 2.5 0.02 C2 O5
DANG 2.5 0.02 O5 C4
DANG 2.4 0.02 C14 O15
DANG 2.4 0.02 O15 C12
 
L.S. 100
PLAN  1
TEMP 21.85
CONN 4 C16
CONN 1 H16
BOND
MORE -1
BOND $H
CONF
ABIN
fmap 2
acta
OMIT 0 1 9
OMIT 2 6 6
OMIT 3 3 8
OMIT 0 7 7
OMIT 4 7 9
OMIT -4 7 9
OMIT 1 1 12
OMIT 0 1 7
OMIT 5 5 10
OMIT 1 3 4
OMIT -1 3 4
OMIT 1 2 9
OMIT -1 2 9
OMIT -1 6 17
OMIT 2 5 17
OMIT 0 1 13
OMIT 0 7 15
OMIT -3 12 13
OMIT -2 8 14
OMIT 2 2 18
OMIT 1 2 17
OMIT 2 8 14
OMIT -1 4 17
OMIT 0 8 12
OMIT -2 5 17
OMIT 2 2 4
OMIT -1 2 17
OMIT 2 2 6
OMIT -1 11 12
OMIT -3 8 9
OMIT 3 4 7
OMIT 0 0 12
OMIT 0 5 7
OMIT 0 13 13
OMIT 1 1 20
OMIT 0 5 9
OMIT -1 3 12
OMIT 1 3 12
OMIT -2 4 16
OMIT 3 3 12
REM <olex2.extras>
REM <HklSrc "%.\\final_new.hkl">
REM </olex2.extras>
 
WGHT    0.154300
FVAR       0.57523   0.23309   0.27618
C1    1    0.844883    0.687422    0.633904    11.00000   21.00000
AFIX  13
H1    2    0.839601    0.718228    0.631591    11.00000   -1.20000
AFIX   0
C2    1    0.883694    0.679870    0.661124    11.00000   21.00000
AFIX  13
H2    2    0.880347    0.694294    0.688747    11.00000   -1.20000
AFIX   0
C3    1    0.891537    0.633035    0.667965    11.00000   21.00000
AFIX  13
H3    2    0.900010    0.625252    0.638813    11.00000   -1.20000
AFIX   0
C4    1    0.852079    0.605789    0.671733    11.00000   21.00000
AFIX  13
H4    2    0.842656    0.609170    0.701432    11.00000   -1.20000
AFIX   0
C5    1    0.814886    0.620651    0.645046    11.00000   21.00000
AFIX  13
H5    2    0.821498    0.613881    0.615169    11.00000   -1.20000
AFIX   0
C6    1    0.775268    0.596178    0.656889    11.00000   21.00000
AFIX  23
H6A   2    0.750996    0.607440    0.641195    11.00000   -1.20000
H6B   2    0.778763    0.566341    0.649157    11.00000   -1.20000
AFIX   0
C11   1    0.854577    0.534806    0.704554    11.00000   21.00000
AFIX  13
H11   2    0.855157    0.555459    0.728119    11.00000   -1.20000
AFIX   0
C12   1    0.896241    0.511884    0.710807    11.00000   21.00000
AFIX  13
H12   2    0.895320    0.502196    0.740598    11.00000   -1.20000
AFIX   0
C13   1    0.895386    0.471224    0.685099    11.00000   21.00000
AFIX  13
H13   2    0.892123    0.479981    0.655185    11.00000   -1.20000
AFIX   0
C14   1    0.857206    0.444426    0.695209    11.00000   21.00000
AFIX  13
H14   2    0.859880    0.436519    0.725417    11.00000   -1.20000
AFIX   0
C15   1    0.816391    0.469263    0.691523    11.00000   21.00000
AFIX  13
H15   2    0.809388    0.475017    0.661522    11.00000   -1.20000
AFIX   0
C16   1    0.778710    0.450728    0.714768    11.00000   21.00000
AFIX  23
H16A  2    0.754335    0.469300    0.709949    11.00000   -1.20000
H16B  2    0.772053    0.423268    0.701965    11.00000   -1.20000
AFIX   0
K1    3    0.809737    0.500000    0.809737    10.50000    0.34505    0.19271 =
         0.34505   -0.03476    0.20384    0.03476
O1AA  4    0.938511    0.454617    0.688930    11.00000   31.00000
AFIX  83
H1AA  2    0.939916    0.431170    0.677270    11.00000   -1.50000
AFIX   0
O2    4    0.924065    0.692037    0.641700    11.00000   31.00000
AFIX  83
H2A   2    0.943582    0.678637    0.652979    11.00000   -1.50000
AFIX   0
O3    4    0.933374    0.631566    0.688215    11.00000   31.00000
AFIX  83
H3A   2    0.938433    0.607059    0.696059    11.00000   -1.50000
AFIX   0
O4    4    0.865834    0.561597    0.668408    11.00000   31.00000
O5    4    0.806133    0.666146    0.647343    11.00000   31.00000
O6    4    0.767265    0.599631    0.702622    11.00000   31.00000
AFIX  83
H6    2    0.778776    0.579611    0.715046    11.00000   -1.50000
AFIX   0
O12   4    0.936818    0.535542    0.707562    11.00000   31.00000
AFIX 147
H12A  2    0.956888    0.518907    0.710421    11.00000   -1.50000
AFIX   0
O14   4    0.854359    0.404627    0.671711    11.00000   31.00000
O15   4    0.818119    0.508575    0.716056    11.00000   31.00000
O16   4    0.783273    0.444577    0.760354    11.00000   31.00000
AFIX  83
H16   2    0.778394    0.419512    0.766324    11.00000   -1.50000
AFIX   0
 
OA    4    1.000000    0.500000    0.662622    10.50000    0.32009
HKLF 4
 
REM  final_new in I432 #211
REM R1 =  0.0814 for     384 Fo > 4sig(Fo)  and  0.1019 for all     601 data
REM     77 parameters refined using     60 restraints
 
END  
     
WGHT      0.1543      0.0000 

REM Highest difference peak  0.133,  deepest hole -0.123,  1-sigma level  0.031
Q1    1   0.7652  0.5000  0.7652  10.50000  0.05    0.13

  REM The information below was added by Olex2.
  REM
  REM R1 = 0.0814 for 384 Fo > 4sig(Fo) and 0.1019 for all 5980 data
  REM n/a parameters refined using n/a restraints
  REM Highest difference peak 0.13, deepest hole -0.12
  REM Mean Shift 0, Max Shift 0.000.

  REM +++ Tabular Listing of Refinement Information +++
  REM R1_all = 0.1019
  REM R1_gt = 0.0814
  REM wR_ref = 0.2317
  REM GOOF = 1.035
  REM Shift_max = 0.000
  REM Shift_mean = 0
  REM Reflections_all = 5980
  REM Reflections_gt = 384
  REM Parameters = n/a
  REM Hole = -0.12
  REM Peak = 0.13
  REM Flack = 0.14(11)

  
;
_cod_data_source_file            c7cp00593h3.cif
_cod_data_source_block           CDMOF_a_0_33GPa
_cod_depositor_comments
'Adding full bibliography for 7227776--7227790.cif.'
_cod_database_code               7227778
#BEGIN Tags that were not found in dictionaries:
_shelx_shelxl_version_number     2014/7
_chemical_oxdiff_formula         'C48 H82 K2 O40'
_shelx_space_group_comment
;
The symmetry employed for this shelxl refinement is uniquely defined
by the following loop, which should always be used as a source of
symmetry information in preference to the above space-group names.
They are only intended as comments.
;
_reflns_odcompleteness_completeness 78.82
_reflns_odcompleteness_iscentric 1
_reflns_odcompleteness_theta     13.27
_olex2_refinement_description
;
1. Fixed Uiso
 At 1.2 times of:
  All C(H) groups, All C(H,H) groups
 At 1.5 times of:
  All O(H) groups
2. Restrained distances
 C4-O4
 1.45 with sigma of 0.005
 C2-C3
 1.5 with sigma of 0.005
 C4-C3
 1.5 with sigma of 0.005
 C2-O3
 2.3 with sigma of 0.02
 O3-C3
 1.45 with sigma of 0.005
 C6-O6
 1.45 with sigma of 0.005
 C2-C5
 3 with sigma of 0.02
 C6-C5
 1.5 with sigma of 0.005
 C4-C5
 1.5 with sigma of 0.005
 O4-C12
 2.2 with sigma of 0.02
 O14-C14
 1.45 with sigma of 0.005
 C12-C13
 1.5 with sigma of 0.005
 C14-C13
 1.5 with sigma of 0.005
 O14-C13
 2.4 with sigma of 0.02
 C11-O4
 1.45 with sigma of 0.005
 C12-C11
 1.5 with sigma of 0.005
 C11-C14
 3 with sigma of 0.02
 C15-C14
 1.5 with sigma of 0.005
 C12-C15
 3 with sigma of 0.02
 C14-C15
 1.5 with sigma of 0.005
 O14-C15
 2.4 with sigma of 0.02
 C16-C15
 1.5 with sigma of 0.005
 C2-O2
 1.45 with sigma of 0.005
 O2-C3
 2.2 with sigma of 0.02
 O1AA-C14
 2.5 with sigma of 0.02
 O1AA-C13
 1.45 with sigma of 0.005
 C1-C4
 3 with sigma of 0.02
 C2-C1
 1.5 with sigma of 0.005
 C5-C1
 2.3 with sigma of 0.005
 O12-C12
 1.45 with sigma of 0.01
 C16-O16
 1.45 with sigma of 0.005
 O5-C6
 2.5 with sigma of 0.02
 O5-C3
 3 with sigma of 0.02
 O5-C5
 1.45 with sigma of 0.005
 O15-C13
 3 with sigma of 0.02
 O15-C11
 1.45 with sigma of 0.005
 O15-C15
 1.45 with sigma of 0.005
 O15-C16
 2.2 with sigma of 0.02
 O5-C1
 1.45 with sigma of 0.005
 C4-C2
 2.5 with sigma of 0.02
 C5-C3
 2.5 with sigma of 0.02
 O6-C5
 2.7 with sigma of 0.04
 C13-O14
 2.5 with sigma of 0.04
 C12-C14
 2.4 with sigma of 0.02
 O4-C12
 2.5 with sigma of 0.04
 C4-C11
 2.5 with sigma of 0.04
 C11-C4
 2.5 with sigma of 0.04
 C11-C13
 2.4 with sigma of 0.02
 C13-C15
 2.4 with sigma of 0.02
 O14-C15
 2.5 with sigma of 0.04
 C15-C11
 2.4 with sigma of 0.02
 C3-C1
 2.5 with sigma of 0.02
 C1-C5
 2.5 with sigma of 0.02
 O2-C1
 2.5 with sigma of 0.04
 C1-O2
 2.5 with sigma of 0.04
 C15-O16
 2.5 with sigma of 0.04
 C2-O5
 2.5 with sigma of 0.02
 O5-C4
 2.5 with sigma of 0.02
 C14-O15
 2.4 with sigma of 0.02
 O15-C12
 2.4 with sigma of 0.02
3. Others
 Uiso(C1)=Uiso(C2)=Uiso(C3)=Uiso(C4)=Uiso(C5)=Uiso(C6)=Uiso(C11)=Uiso(C12)=
 Uiso(C13)=Uiso(C14)=Uiso(C15)=Uiso(C16)=FVAR(1)
 Uiso(O1AA)=Uiso(O2)=Uiso(O3)=Uiso(O4)=Uiso(O5)=Uiso(O6)=Uiso(O12)=Uiso(O14)=
 Uiso(O15)=Uiso(O16)=FVAR(2)
4.a Ternary CH refined with riding coordinates:
 C1(H1), C2(H2), C3(H3), C4(H4), C5(H5), C11(H11), C12(H12), C13(H13),
 C14(H14), C15(H15)
4.b Secondary CH2 refined with riding coordinates:
 C6(H6A,H6B), C16(H16A,H16B)
4.c Tetrahedral OH refined with riding coordinates:
 O1AA(H1AA), O2(H2A), O3(H3A), O6(H6), O16(H16)
4.d Idealised tetrahedral OH refined as rotating group:
 O12(H12A)
;
_shelx_fab_file
;
-8 -17 -9 -8.4958 0.3535
-8 -15 -11 -1.5965 -10.9795
-8 -15 -9 -23.1209 8.9041
-8 -14 -10 -17.1775 6.6205
-8 -13 -11 -3.7432 7.7695
-8 -13 -9 -22.8621 -14.3463
-7 -17 -8 -0.7585 3.4979
-7 -16 -11 -3.0370 0.9090
-7 -15 -12 -22.1420 -9.0576
-7 -15 -10 -6.6127 10.7465
-7 -15 -8 21.0862 8.9600
-7 -14 -13 -21.9938 -20.9410
-7 -14 -11 -18.0775 -4.9016
-7 -14 -9 9.1895 -1.4300
-7 -13 -12 -10.3855 1.4911
-7 -13 -10 16.3080 10.2588
-7 -13 -8 7.4637 -2.8741
-7 -12 -11 21.1765 -10.3215
-7 -12 -9 -21.4914 -5.2276
-7 -11 -10 10.3069 -7.2056
-6 -18 -8 -1.0006 10.4179
-6 -17 -9 -10.4757 16.0262
-6 -17 -7 2.6253 22.3515
-6 -16 -8 -2.9312 21.9131
-6 -15 -13 -6.5248 -29.8957
-6 -15 -11 -40.2789 -14.0388
-6 -15 -9 -2.9958 26.4142
-6 -15 -7 -14.9357 12.9096
-6 -14 -10 -18.3375 8.5073
-6 -14 -8 26.4201 16.7336
-6 -13 -11 -14.1443 -2.9045
-6 -13 -9 16.2772 -12.1011
-6 -13 -7 -6.0100 2.7976
-6 -12 -10 7.7720 -16.0140
-6 -11 -7 10.1402 3.4081
-6 -9 -7 -12.3636 14.1966
-5 -19 -6 -18.6872 -12.6234
-5 -18 -9 -6.8925 -23.2652
-5 -18 -7 8.1134 -35.3570
-5 -17 -10 9.1332 -33.6734
-5 -17 -8 6.0415 -27.0835
-5 -17 -6 7.2633 -30.3860
-5 -16 -11 -10.1853 -22.3919
-5 -16 -9 7.1530 -34.5811
-5 -16 -7 -8.4826 -30.1971
-5 -15 -10 -18.5200 -21.5508
-5 -15 -8 0.8765 -12.1305
-5 -15 -6 -32.5749 -45.1308
-5 -14 -11 1.3783 -28.2243
-5 -14 -9 -13.7116 12.6399
-5 -14 -7 -53.5287 -22.9360
-5 -13 -12 23.9112 5.9965
-5 -13 -10 9.9107 16.0679
-5 -13 -8 11.0902 -4.7737
-5 -12 -11 -5.2557 -3.2342
-5 -12 -9 10.2330 -29.0742
-5 -11 -6 30.3967 18.7055
-5 -10 -9 4.8164 -1.2282
-5 -10 -7 -47.4583 22.3653
-5 -9 -8 3.8537 34.1111
-5 -9 -6 1.6345 -2.7875
-5 -8 -7 59.3171 18.1517
-5 -7 -6 4.6340 -11.8224
-4 -19 -7 -20.8930 18.8221
-4 -19 -5 -30.4886 7.6480
-4 -18 -8 -13.1636 -16.5235
-4 -18 -6 -25.8291 -0.3963
-4 -17 -11 11.9610 -7.6815
-4 -17 -7 -10.0598 8.4476
-4 -17 -5 9.3852 36.3920
-4 -16 -12 -15.7416 15.7398
-4 -16 -10 -7.6935 -23.7341
-4 -16 -8 -8.5404 12.6254
-4 -16 -6 -5.0057 -13.3213
-4 -15 -13 2.8160 -3.7434
-4 -15 -11 -2.6538 -1.9153
-4 -15 -9 -15.4448 -0.5515
-4 -15 -7 -11.9120 17.2183
-4 -15 -5 20.1120 -6.4130
-4 -14 -12 -1.4199 -13.3451
-4 -14 -10 -9.4957 20.1466
-4 -14 -8 12.8871 6.9503
-4 -14 -6 6.5672 5.5064
-4 -13 -11 11.1579 16.4532
-4 -13 -9 13.0339 -7.9627
-4 -12 -10 -4.1364 -9.3780
-4 -11 -7 8.0504 11.2360
-4 -11 -5 62.8684 -27.5855
-4 -10 -8 -12.3525 -27.8926
-4 -10 -6 6.4965 -68.9861
-4 -9 -5 10.8056 6.4621
-4 -8 -6 29.0440 -15.1514
-4 -7 -5 -23.7948 34.7191
-3 -20 -5 -4.9031 -8.8927
-3 -19 -8 -15.0059 9.4692
-3 -19 -6 -26.8456 12.5562
-3 -18 -9 5.3224 -24.5831
-3 -18 -7 -10.6256 -2.9498
-3 -18 -5 -9.9152 15.5463
-3 -17 -8 -17.3590 -1.5168
-3 -17 -6 -16.5555 15.5944
-3 -17 -4 18.8732 30.8457
-3 -16 -13 -9.0271 -2.5560
-3 -16 -9 -10.9576 -6.6621
-3 -16 -7 -4.3464 -20.7280
-3 -16 -5 25.8350 9.5148
-3 -15 -14 -3.7918 25.8466
-3 -15 -12 -8.5053 7.0457
-3 -15 -10 17.0708 -11.9924
-3 -15 -8 -4.0022 -24.2534
-3 -15 -6 6.5689 5.3819
-3 -15 -4 18.0083 -4.9296
-3 -14 -13 27.7400 -13.0923
-3 -14 -11 3.9972 6.4260
-3 -14 -9 6.6228 -30.9584
-3 -14 -7 -9.3696 0.5025
-3 -13 -12 21.6887 38.0420
-3 -13 -10 -5.1384 -8.7367
-3 -12 -11 9.4102 -3.3336
-3 -12 -7 -38.7725 -1.1334
-3 -12 -5 77.0374 17.9819
-3 -11 -6 9.9028 3.8563
-3 -11 -4 -26.5321 1.7742
-3 -10 -7 25.0383 6.2002
-3 -10 -5 -32.7335 10.9784
-3 -9 -8 63.1670 14.8102
-3 -9 -6 -24.9802 -0.2500
-3 -9 -4 18.0826 17.6066
-3 -8 -7 -14.2191 45.9070
-3 -8 -5 14.0648 81.7158
-3 -7 -6 11.8276 -0.9988
-3 -6 -5 -111.9983 56.0856
-3 -5 -4 42.0215 8.8738
-2 -20 -4 -20.4670 -5.2538
-2 -19 -7 7.6959 3.6794
-2 -19 -3 -11.8949 16.5026
-2 -18 -10 15.2919 -24.9530
-2 -18 -6 -6.5404 -11.4880
-2 -18 -4 11.2228 32.6642
-2 -17 -11 14.0609 11.0462
-2 -17 -9 -11.0406 -8.2396
-2 -17 -7 9.6322 24.7130
-2 -17 -3 25.1314 16.7457
-2 -16 -12 -26.7275 10.7214
-2 -16 -10 8.5998 10.1513
-2 -16 -8 3.5726 -5.7587
-2 -16 -6 -29.3889 29.2887
-2 -16 -4 23.1039 -3.4391
-2 -15 -13 15.0599 14.5699
-2 -15 -11 24.5422 14.7874
-2 -15 -9 10.9319 9.7939
-2 -15 -7 13.3603 16.8524
-2 -15 -5 18.9843 -2.2723
-2 -14 -12 2.1087 24.5129
-2 -14 -10 6.6186 -0.1809
-2 -13 -11 -20.0390 25.8118
-2 -13 -9 -32.3984 -1.4614
-2 -13 -3 -23.7941 26.6024
-2 -12 -10 14.1823 23.4464
-2 -12 -6 -35.9597 -42.6422
-2 -12 -4 -24.3033 32.8571
-2 -11 -9 -6.4737 -10.3418
-2 -11 -7 -34.0914 0.0370
-2 -11 -5 -0.3914 7.9645
-2 -11 -3 -27.5656 -12.5684
-2 -10 -8 7.5120 -20.3148
-2 -10 -6 20.6350 -17.9424
-2 -10 -4 31.7591 -53.0737
-2 -9 -7 103.6863 37.5285
-2 -9 -5 22.2285 37.7524
-2 -9 -3 -8.9865 -35.0426
-2 -8 -6 -36.2010 -16.2541
-2 -8 -4 119.9316 17.8117
-2 -7 -5 16.0720 20.2220
-2 -7 -3 19.4990 -2.0950
-2 -6 -4 -49.1440 -4.7328
-2 -5 -3 39.2002 -45.1091
-1 -20 -5 -16.8202 -19.1241
-1 -20 -3 0.8851 -23.6759
-1 -19 -8 -30.1620 2.3784
-1 -19 -6 -15.2920 -16.7321
-1 -19 -4 1.0550 -15.9172
-1 -19 -2 8.4788 -8.2075
-1 -18 -9 -18.3902 -0.4383
-1 -18 -7 -7.6998 -22.1436
-1 -18 -5 14.4781 -20.7324
-1 -18 -3 -13.6347 9.1035
-1 -17 -12 -24.9313 -2.4632
-1 -17 -8 -48.2376 -15.9681
-1 -17 -6 -30.8507 11.0788
-1 -17 -4 46.2665 21.1070
-1 -16 -13 -5.5427 -4.2828
-1 -16 -11 -30.8577 13.2898
-1 -16 -9 -14.6046 -23.1550
-1 -16 -7 -15.1596 19.5084
-1 -16 -5 -18.0791 16.5543
-1 -16 -3 24.6657 -18.5230
-1 -15 -14 16.1907 3.0244
-1 -15 -12 -11.3641 19.7912
-1 -15 -10 16.3130 -37.0734
-1 -15 -8 47.7797 26.2375
-1 -15 -6 0.5925 19.5401
-1 -14 -13 11.7962 -13.5088
-1 -14 -11 10.2752 -15.8379
-1 -14 -9 13.0075 12.9329
-1 -14 -3 49.6397 42.4705
-1 -13 -12 -9.5705 -5.7290
-1 -13 -10 16.2656 15.0477
-1 -13 -6 -1.4225 -14.8518
-1 -13 -4 -40.8687 62.3269
-1 -13 -2 10.2256 68.1857
-1 -12 -11 31.5061 -5.4925
-1 -12 -5 4.9917 26.9993
-1 -11 -8 -21.6334 26.5879
-1 -11 -6 -47.9795 -3.4727
-1 -11 -4 29.2238 24.3182
-1 -11 -2 -26.4739 20.4062
-1 -10 -9 23.3591 -26.6558
-1 -10 -7 -4.6635 30.9083
-1 -10 -5 40.8310 0.4926
-1 -10 -3 -37.2732 -33.6834
-1 -9 -8 2.0848 -11.8301
-1 -9 -6 86.5416 12.9804
-1 -9 -4 114.7377 -32.0189
-1 -8 -7 66.8487 -8.2938
-1 -8 -5 -88.1319 20.8159
-1 -8 -3 37.3522 -40.1613
-1 -7 -6 -66.2817 -53.1303
-1 -7 -4 61.9063 -25.6570
-1 -7 -2 -18.3253 -4.7588
-1 -6 -5 -120.8894 -26.3574
-1 -6 -3 -36.4181 -31.2964
-1 -5 -4 -80.4516 -29.6386
-1 -5 -2 2.7175 -23.2285
-1 -3 -2 -80.6986 -1.5869
0 2 2 642.8870 -0.0000
0 3 1 -246.5938 0.0000
0 3 3 218.8078 -0.0000
0 4 0 149.6896 0.0000
0 4 2 -149.6670 0.0000
0 4 4 -82.0379 -0.0000
0 5 1 94.5313 -0.0000
0 5 3 80.5137 -0.0000
0 5 5 -7.3332 0.0000
0 6 0 -108.2877 -0.0000
0 6 2 -144.8879 -0.0000
0 6 4 -70.1219 -0.0000
0 6 6 -268.9041 -0.0000
0 7 3 -41.6972 0.0000
0 8 0 -148.6776 -0.0000
0 8 2 -19.9422 0.0000
0 8 4 5.6923 -0.0000
0 8 6 16.1758 -0.0000
0 8 8 -27.5478 0.0000
0 9 3 -24.0404 0.0000
0 9 7 96.1235 -0.0000
0 9 9 30.7114 -0.0000
0 10 0 -62.6768 0.0000
0 10 2 22.8217 0.0000
0 10 4 40.8215 -0.0000
0 10 6 -30.5425 -0.0000
0 10 8 -28.2756 0.0000
0 11 1 0.9302 0.0000
0 11 3 -29.8098 -0.0000
0 11 5 2.6719 0.0000
0 11 7 -29.1184 -0.0000
0 11 9 64.6243 -0.0000
0 12 2 -12.7503 -0.0000
0 12 4 -24.8195 0.0000
0 12 6 -37.2325 -0.0000
0 12 12 -27.5743 -0.0000
0 13 3 88.6776 -0.0000
0 13 9 -49.5508 0.0000
0 13 11 -8.4048 0.0000
0 14 8 49.0516 -0.0000
0 14 10 -14.3045 -0.0000
0 14 12 -16.2392 -0.0000
0 15 5 -2.8005 -0.0000
0 15 9 -12.1930 0.0000
0 15 11 -16.3063 0.0000
0 16 0 -13.8003 -0.0000
0 16 2 14.5869 -0.0000
0 16 4 -4.7988 0.0000
0 16 6 -41.4360 0.0000
0 16 8 -20.1234 0.0000
0 16 10 -21.7495 0.0000
0 16 12 -51.8540 -0.0000
0 17 1 -7.8581 0.0000
0 17 3 7.8839 0.0000
0 17 5 41.5254 -0.0000
0 17 7 -35.6067 0.0000
0 17 9 -19.6020 0.0000
0 17 11 -20.9796 0.0000
0 18 0 28.9465 -0.0000
0 18 2 4.0861 0.0000
0 18 4 31.1872 0.0000
0 18 6 8.9857 0.0000
0 18 10 19.1185 0.0000
0 19 1 13.6428 -0.0000
0 19 3 -3.9422 0.0000
0 19 7 24.4305 0.0000
0 20 0 15.7961 -0.0000
0 20 2 -0.1780 -0.0000
0 20 4 -0.1118 0.0000
1 3 2 -80.6986 1.5869
1 4 1 21.6427 0.0000
1 5 2 2.7175 23.2285
1 5 4 -80.4516 29.6386
1 6 1 235.0912 0.0000
1 6 3 -36.4181 31.2964
1 6 5 -120.8894 26.3574
1 7 2 -18.3253 4.7588
1 7 4 61.9063 25.6570
1 7 6 -66.2817 53.1303
1 8 1 77.2973 0.0000
1 8 3 37.3522 40.1613
1 8 5 -88.1319 -20.8159
1 8 7 66.8487 8.2938
1 9 4 114.7377 32.0189
1 9 6 86.5416 -12.9804
1 9 8 2.0848 11.8301
1 10 1 31.7709 0.0000
1 10 3 -37.2732 33.6834
1 10 5 40.8310 -0.4926
1 10 7 -4.6635 -30.9083
1 10 9 23.3591 26.6558
1 11 2 -26.4739 -20.4062
1 11 4 29.2238 -24.3182
1 11 6 -47.9795 3.4727
1 11 8 -21.6334 -26.5879
1 12 5 4.9917 -26.9993
1 13 2 10.2256 -68.1857
1 13 4 -40.8687 -62.3269
1 13 6 -1.4225 14.8518
1 13 10 16.2656 -15.0477
1 13 12 -9.5705 5.7290
1 14 3 49.6397 -42.4705
1 14 9 13.0075 -12.9329
1 14 11 10.2752 15.8379
1 14 13 11.7962 13.5088
1 15 6 0.5925 -19.5401
1 15 8 47.7797 -26.2375
1 15 10 16.3130 37.0734
1 15 12 -11.3641 -19.7912
1 15 14 16.1907 -3.0244
1 16 1 -23.4068 -0.0000
1 16 3 24.6657 18.5230
1 16 5 -18.0791 -16.5543
1 16 7 -15.1596 -19.5084
1 16 9 -14.6046 23.1550
1 16 11 -30.8577 -13.2898
1 16 13 -5.5427 4.2828
1 17 8 -48.2376 15.9681
1 17 12 -24.9313 2.4632
1 18 1 14.2395 0.0000
1 18 3 -13.6347 -9.1035
1 18 5 14.4781 20.7324
1 18 7 -7.6998 22.1436
1 18 9 -18.3902 0.4383
1 19 2 8.4788 8.2075
1 19 4 1.0550 15.9172
1 19 6 -15.2920 16.7321
1 19 8 -30.1620 -2.3784
1 20 3 0.8851 23.6759
1 20 5 -16.8202 19.1241
2 3 3 73.2413 -0.0000
2 4 4 -35.0978 0.0000
2 5 3 39.2002 45.1091
2 5 5 56.7982 0.0000
2 6 4 -49.1440 4.7328
2 7 3 19.4990 2.0950
2 7 5 16.0720 -20.2220
2 7 7 48.8288 -0.0000
2 8 2 61.0965 -0.0000
2 8 4 119.9316 -17.8117
2 8 6 -36.2010 16.2541
2 8 8 59.9179 0.0000
2 9 3 -8.9865 35.0426
2 9 5 22.2285 -37.7524
2 9 7 103.6863 -37.5285
2 9 9 53.0391 0.0000
2 10 2 18.2964 -0.0000
2 10 4 31.7591 53.0737
2 10 6 20.6350 17.9424
2 10 8 7.5120 20.3148
2 10 10 24.5776 -0.0000
2 11 3 -27.5656 12.5684
2 11 5 -0.3914 -7.9645
2 11 7 -34.0914 -0.0370
2 11 9 -6.4737 10.3418
2 12 2 -55.3870 0.0000
2 12 4 -24.3033 -32.8571
2 12 6 -35.9597 42.6422
2 12 10 14.1823 -23.4464
2 12 12 5.0294 -0.0000
2 13 3 -23.7941 -26.6024
2 13 9 -32.3984 1.4614
2 13 11 -20.0390 -25.8118
2 13 13 55.7940 0.0000
2 14 2 -6.0314 -0.0000
2 14 10 6.6186 0.1809
2 14 12 2.1087 -24.5129
2 15 5 18.9843 2.2723
2 15 7 13.3603 -16.8524
2 15 9 10.9319 -9.7939
2 15 11 24.5422 -14.7874
2 15 13 15.0599 -14.5699
2 16 2 -15.9781 0.0000
2 16 6 -29.3889 -29.2887
2 16 8 3.5726 5.7587
2 16 10 8.5998 -10.1513
2 16 12 -26.7275 -10.7214
2 17 3 25.1314 -16.7457
2 17 7 9.6322 -24.7130
2 17 9 -11.0406 8.2396
2 17 11 14.0609 -11.0462
2 18 4 11.2228 -32.6642
2 18 6 -6.5404 11.4880
2 18 10 15.2919 24.9530
2 19 3 -11.8949 -16.5026
2 19 7 7.6959 -3.6794
2 20 2 19.5776 -0.0000
2 20 4 -20.4670 5.2538
3 4 3 -45.9250 -0.0000
3 5 4 42.0215 -8.8738
3 6 3 43.9666 0.0000
3 6 5 -111.9983 -56.0856
3 7 4 -68.0804 -55.4820
3 7 6 11.8276 0.9988
3 8 5 14.0648 -81.7158
3 8 7 -14.2191 -45.9070
3 9 4 18.0826 -17.6066
3 9 6 -24.9802 0.2500
3 10 3 3.8228 -0.0000
3 10 5 -32.7335 -10.9784
3 10 7 25.0383 -6.2002
3 11 4 -26.5321 -1.7742
3 11 6 9.9028 -3.8563
3 12 5 77.0374 -17.9819
3 12 7 -38.7725 1.1334
3 12 11 9.4102 3.3336
3 13 10 -5.1384 8.7367
3 14 7 -9.3696 -0.5025
3 14 9 6.6228 30.9584
3 14 11 3.9972 -6.4260
3 14 13 27.7400 13.0923
3 15 4 18.0083 4.9296
3 15 6 6.5689 -5.3819
3 15 8 -4.0022 24.2534
3 15 10 17.0708 11.9924
3 15 14 -3.7918 -25.8466
3 16 3 9.4555 0.0000
3 16 5 25.8350 -9.5148
3 16 7 -4.3464 20.7280
3 16 9 -10.9576 6.6621
3 16 13 -9.0271 2.5560
3 17 4 18.8732 -30.8457
3 17 6 -16.5555 -15.5944
3 17 8 -17.3590 1.5168
3 17 10 12.7326 28.3196
3 18 3 -8.4011 -0.0000
3 18 5 -9.9152 -15.5463
3 18 7 -10.6256 2.9498
3 18 9 5.3224 24.5831
3 19 6 -26.8456 -12.5562
3 19 8 -15.0059 -9.4692
3 20 3 0.2830 0.0000
3 20 5 -4.9031 8.8927
4 5 5 -44.3438 -0.0000
4 6 4 165.0092 -0.0000
4 6 6 -16.5886 -0.0000
4 7 5 -23.7948 -34.7191
4 7 7 -34.0993 -0.0000
4 8 4 -10.2468 0.0000
4 8 6 29.0440 15.1514
4 8 8 -28.3884 0.0000
4 9 5 10.8056 -6.4621
4 9 9 47.1798 0.0000
4 10 4 78.2129 0.0000
4 10 6 6.4965 68.9861
4 10 8 -12.3525 27.8926
4 11 5 62.8684 27.5855
4 11 7 8.0504 -11.2360
4 11 11 -11.1526 0.0000
4 12 4 58.1396 0.0000
4 12 10 -4.1364 9.3780
4 12 12 5.8168 -0.0000
4 13 9 13.0339 7.9627
4 13 11 11.1579 -16.4532
4 13 13 40.3765 -0.0000
4 14 6 6.5672 -5.5064
4 14 8 12.8871 -6.9503
4 14 10 -9.4957 -20.1466
4 14 12 -1.4199 13.3451
4 14 14 15.3396 0.0000
4 15 5 20.1120 6.4130
4 15 7 -11.9120 -17.2183
4 15 9 -15.4448 0.5515
4 15 11 -2.6538 1.9153
4 15 13 2.8160 3.7434
4 16 4 -5.7216 0.0000
4 16 6 -5.0057 13.3213
4 16 8 -8.5404 -12.6254
4 16 10 -7.6935 23.7341
4 16 12 -15.7416 -15.7398
4 17 5 9.3852 -36.3920
4 17 7 -10.0598 -8.4476
4 17 11 11.9610 7.6815
4 18 4 -42.6422 -0.0000
4 18 6 -25.8291 0.3963
4 18 8 -13.1636 16.5235
4 19 5 -30.4886 -7.6480
4 19 7 -20.8930 -18.8221
4 20 4 -14.6291 0.0000
5 7 6 4.6340 11.8224
5 8 5 41.4642 -0.0000
5 8 7 59.3171 -18.1517
5 9 6 1.6345 2.7875
5 9 8 3.8537 -34.1111
5 10 7 -47.4583 -22.3653
5 10 9 4.8164 1.2282
5 11 6 30.3967 -18.7055
5 12 9 10.2330 29.0742
5 12 11 -5.2557 3.2342
5 13 8 11.0902 4.7737
5 13 10 9.9107 -16.0679
5 13 12 23.9112 -5.9965
5 14 7 -53.5287 22.9360
5 14 9 -13.7116 -12.6399
5 14 11 1.3783 28.2243
5 15 6 -32.5749 45.1308
5 15 8 0.8765 12.1305
5 15 10 -18.5200 21.5508
5 16 5 7.2167 -0.0000
5 16 7 -8.4826 30.1971
5 16 9 7.1530 34.5811
5 16 11 -10.1853 22.3919
5 17 6 7.2633 30.3860
5 17 8 6.0415 27.0835
5 17 10 9.1332 33.6734
5 18 5 4.4425 0.0000
5 18 7 8.1134 35.3570
5 18 9 -6.8925 23.2652
5 19 6 -18.6872 12.6234
6 8 6 -55.6302 -0.0000
6 8 8 -65.4730 -0.0000
6 9 7 -12.3636 -14.1966
6 10 6 -30.6355 0.0000
6 11 7 10.1402 -3.4081
6 11 11 -1.1012 0.0000
6 12 10 7.7720 16.0140
6 12 12 -1.6387 0.0000
6 13 7 -6.0100 -2.7976
6 13 9 16.2772 12.1011
6 13 13 -2.7778 0.0000
6 14 6 -10.2123 -0.0000
6 14 8 26.4201 -16.7336
6 14 10 -18.3375 -8.5073
6 14 12 -24.3454 32.3818
6 14 14 23.2420 0.0000
6 15 7 -14.9357 -12.9096
6 15 9 -2.9958 -26.4142
6 15 13 -6.5248 29.8957
6 16 6 -9.8608 -0.0000
6 16 8 -2.9312 -21.9131
6 17 7 2.6253 -22.3515
6 17 9 -10.4757 -16.0262
6 18 8 -1.0006 -10.4179
7 11 10 10.3069 7.2056
7 12 9 -21.4914 5.2276
7 12 11 21.1765 10.3215
7 13 8 7.4637 2.8741
7 13 10 16.3080 -10.2588
7 13 12 -10.3855 -1.4911
7 14 7 -37.5804 -0.0000
7 14 9 9.1895 1.4300
7 14 11 -18.0775 4.9016
7 14 13 -21.9938 20.9410
7 15 8 21.0862 -8.9600
7 15 10 -6.6127 -10.7465
7 15 12 -22.1420 9.0576
7 16 7 12.9630 0.0000
7 16 11 -3.0370 -0.9090
7 17 8 -0.7585 -3.4979
7 18 7 -16.3397 -0.0000
8 11 11 -16.6457 0.0000
8 12 8 -3.7178 -0.0000
8 12 10 -16.8635 9.2684
8 12 12 -18.1530 0.0000
8 13 9 -22.8621 14.3463
8 13 11 -3.7432 -7.7695
8 13 13 -26.3693 0.0000
8 14 10 -17.1775 -6.6205
8 14 12 9.7339 1.8657
8 15 9 -23.1209 -8.9041
8 15 11 -1.5965 10.9795
8 16 8 -9.1239 -0.0000
8 16 10 -9.3100 -16.7472
8 17 9 -8.4958 -0.3535
9 15 10 -13.0521 -16.0958
9 16 9 -26.4601 0.0000
;
_olex2_exptl_crystal_mounting_method 'Diamond-anvil cell'
_olex2_submission_original_sample_id CDMOF_alpha_3_033
_olex2_submission_special_instructions 'No special instructions were received'
_oxdiff_exptl_absorpt_empirical_details
;
Empirical correction (ABSPACK) includes:
- Absorption correction using spherical harmonics
- Frame scaling
;
_oxdiff_exptl_absorpt_empirical_full_max 1.621
_oxdiff_exptl_absorpt_empirical_full_min 0.825
#END Tags that were not found in dictionaries
loop_
_space_group_symop_id
_space_group_symop_operation_xyz
1 'x, y, z'
2 '-y, x, z'
3 '-x, -y, z'
4 'y, -x, z'
5 'x, -z, y'
6 'x, -y, -z'
7 'x, z, -y'
8 'z, y, -x'
9 '-x, y, -z'
10 '-z, y, x'
11 'z, x, y'
12 'y, z, x'
13 '-y, -z, x'
14 'z, -x, -y'
15 '-y, z, -x'
16 '-z, -x, y'
17 '-z, x, -y'
18 'y, -z, -x'
19 'y, x, -z'
20 '-y, -x, -z'
21 '-x, z, y'
22 '-x, -z, -y'
23 'z, -y, x'
24 '-z, -y, -x'
25 'x+1/2, y+1/2, z+1/2'
26 '-y+1/2, x+1/2, z+1/2'
27 '-x+1/2, -y+1/2, z+1/2'
28 'y+1/2, -x+1/2, z+1/2'
29 'x+1/2, -z+1/2, y+1/2'
30 'x+1/2, -y+1/2, -z+1/2'
31 'x+1/2, z+1/2, -y+1/2'
32 'z+1/2, y+1/2, -x+1/2'
33 '-x+1/2, y+1/2, -z+1/2'
34 '-z+1/2, y+1/2, x+1/2'
35 'z+1/2, x+1/2, y+1/2'
36 'y+1/2, z+1/2, x+1/2'
37 '-y+1/2, -z+1/2, x+1/2'
38 'z+1/2, -x+1/2, -y+1/2'
39 '-y+1/2, z+1/2, -x+1/2'
40 '-z+1/2, -x+1/2, y+1/2'
41 '-z+1/2, x+1/2, -y+1/2'
42 'y+1/2, -z+1/2, -x+1/2'
43 'y+1/2, x+1/2, -z+1/2'
44 '-y+1/2, -x+1/2, -z+1/2'
45 '-x+1/2, z+1/2, y+1/2'
46 '-x+1/2, -z+1/2, -y+1/2'
47 'z+1/2, -y+1/2, x+1/2'
48 '-z+1/2, -y+1/2, -x+1/2'
loop_
_atom_site_label
_atom_site_type_symbol
_atom_site_fract_x
_atom_site_fract_y
_atom_site_fract_z
_atom_site_U_iso_or_equiv
_atom_site_adp_type
_atom_site_occupancy
_atom_site_site_symmetry_order
_atom_site_calc_flag
_atom_site_refinement_flags_posn
_atom_site_refinement_flags_adp
_atom_site_refinement_flags_occupancy
C1 C 0.8449(7) 0.6874(6) 0.6339(8) 0.233(7) Uiso 1 1 d D . .
H1 H 0.8396 0.7182 0.6316 0.280 Uiso 1 1 calc R . .
C2 C 0.8837(6) 0.6799(6) 0.6611(8) 0.233(7) Uiso 1 1 d D . .
H2 H 0.8803 0.6943 0.6887 0.280 Uiso 1 1 calc R . .
C3 C 0.8915(6) 0.6330(6) 0.6680(9) 0.233(7) Uiso 1 1 d D . .
H3 H 0.9000 0.6253 0.6388 0.280 Uiso 1 1 calc R . .
C4 C 0.8521(7) 0.6058(6) 0.6717(9) 0.233(7) Uiso 1 1 d D . .
H4 H 0.8427 0.6092 0.7014 0.280 Uiso 1 1 calc R . .
C5 C 0.8149(7) 0.6207(6) 0.6450(8) 0.233(7) Uiso 1 1 d D . .
H5 H 0.8215 0.6139 0.6152 0.280 Uiso 1 1 calc R . .
C6 C 0.7753(8) 0.5962(9) 0.6569(7) 0.233(7) Uiso 1 1 d D . .
H6A H 0.7510 0.6074 0.6412 0.280 Uiso 1 1 calc R . .
H6B H 0.7788 0.5663 0.6492 0.280 Uiso 1 1 calc R . .
C11 C 0.8546(7) 0.5348(5) 0.7046(9) 0.233(7) Uiso 1 1 d D . .
H11 H 0.8552 0.5555 0.7281 0.280 Uiso 1 1 calc R . .
C12 C 0.8962(6) 0.5119(6) 0.7108(9) 0.233(7) Uiso 1 1 d D . .
H12 H 0.8953 0.5022 0.7406 0.280 Uiso 1 1 calc R . .
C13 C 0.8954(6) 0.4712(6) 0.6851(10) 0.233(7) Uiso 1 1 d D . .
H13 H 0.8921 0.4800 0.6552 0.280 Uiso 1 1 calc R . .
C14 C 0.8572(6) 0.4444(6) 0.6952(8) 0.233(7) Uiso 1 1 d D . .
H14 H 0.8599 0.4365 0.7254 0.280 Uiso 1 1 calc R . .
C15 C 0.8164(5) 0.4693(7) 0.6915(7) 0.233(7) Uiso 1 1 d D . .
H15 H 0.8094 0.4750 0.6615 0.280 Uiso 1 1 calc R . .
C16 C 0.7787(7) 0.4507(9) 0.7148(8) 0.233(7) Uiso 1 1 d D . .
H16A H 0.7543 0.4693 0.7099 0.280 Uiso 1 1 calc R . .
H16B H 0.7721 0.4233 0.7020 0.280 Uiso 1 1 calc R . .
K1 K 0.8097(3) 0.5000 0.8097(3) 0.294(8) Uani 1 2 d S T P
O1AA O 0.9385(6) 0.4546(8) 0.6889(7) 0.276(5) Uiso 1 1 d D . .
H1AA H 0.9399 0.4312 0.6773 0.414 Uiso 1 1 calc R . .
O2 O 0.9241(7) 0.6920(7) 0.6417(8) 0.276(5) Uiso 1 1 d D . .
H2A H 0.9436 0.6786 0.6530 0.414 Uiso 1 1 calc R . .
O3 O 0.9334(6) 0.6316(6) 0.6882(8) 0.276(5) Uiso 1 1 d D . .
H3A H 0.9384 0.6071 0.6961 0.414 Uiso 1 1 calc R . .
O4 O 0.8658(7) 0.5616(6) 0.6684(7) 0.276(5) Uiso 1 1 d D . .
O5 O 0.8061(6) 0.6661(7) 0.6473(7) 0.276(5) Uiso 1 1 d D . .
O6 O 0.7673(8) 0.5996(8) 0.7026(7) 0.276(5) Uiso 1 1 d D . .
H6 H 0.7788 0.5796 0.7150 0.414 Uiso 1 1 calc R . .
O12 O 0.9368(7) 0.5355(8) 0.7076(10) 0.276(5) Uiso 1 1 d D . .
H12A H 0.9569 0.5189 0.7104 0.414 Uiso 1 1 calc GR . .
O14 O 0.8544(7) 0.4046(6) 0.6717(8) 0.276(5) Uiso 1 1 d D . .
O15 O 0.8181(5) 0.5086(6) 0.7161(6) 0.276(5) Uiso 1 1 d D . .
O16 O 0.7833(7) 0.4446(8) 0.7604(8) 0.276(5) Uiso 1 1 d D . .
H16 H 0.7784 0.4195 0.7663 0.414 Uiso 1 1 calc R . .
OA O 1.0000 0.5000 0.6626(14) 0.320(16) Uiso 1 2 d S T P
loop_
_atom_site_aniso_label
_atom_site_aniso_U_11
_atom_site_aniso_U_22
_atom_site_aniso_U_33
_atom_site_aniso_U_23
_atom_site_aniso_U_13
_atom_site_aniso_U_12
K1 0.345(12) 0.193(11) 0.345(12) -0.035(9) 0.204(15) 0.035(9)
loop_
_atom_type_symbol
_atom_type_description
_atom_type_scat_dispersion_real
_atom_type_scat_dispersion_imag
_atom_type_scat_source
C C 0.0030 0.0010 'International Tables Vol C Tables 4.2.6.8 and 6.1.1.4'
H H 0.0000 0.0000 'International Tables Vol C Tables 4.2.6.8 and 6.1.1.4'
K K 0.2030 0.2500 'International Tables Vol C Tables 4.2.6.8 and 6.1.1.4'
O O 0.0110 0.0060 'International Tables Vol C Tables 4.2.6.8 and 6.1.1.4'
loop_
_geom_angle_atom_site_label_1
_geom_angle_atom_site_label_2
_geom_angle_atom_site_label_3
_geom_angle
_geom_angle_site_symmetry_1
_geom_angle_site_symmetry_3
C2 C1 H1 109.4 . .
O5 C1 H1 109.4 . .
O5 C1 C2 116.1(14) . .
O14 C1 H1 109.4 7_556 .
O14 C1 C2 106(2) 7_556 .
O14 C1 O5 106.2(19) 7_556 .
C1 C2 H2 109.9 . .
C3 C2 C1 111.5(12) . .
C3 C2 H2 109.9 . .
O2 C2 C1 115.1(18) . .
O2 C2 H2 109.9 . .
O2 C2 C3 100.0(14) . .
C2 C3 H3 98.9 . .
C2 C3 C4 115.5(12) . .
C4 C3 H3 98.9 . .
O3 C3 C2 103.9(14) . .
O3 C3 H3 98.9 . .
O3 C3 C4 133.3(18) . .
C3 C4 H4 105.1 . .
C3 C4 C5 114.6(11) . .
C5 C4 H4 105.1 . .
O4 C4 C3 106.9(18) . .
O4 C4 H4 105.1 . .
O4 C4 C5 119(2) . .
C4 C5 H5 107.4 . .
C6 C5 C4 110.1(19) . .
C6 C5 H5 107.4 . .
O5 C5 C4 114.9(13) . .
O5 C5 H5 107.4 . .
O5 C5 C6 109.4(15) . .
C5 C6 H6A 109.6 . .
C5 C6 H6B 109.6 . .
H6A C6 H6B 108.1 . .
O6 C6 C5 110(2) . .
O6 C6 H6A 109.6 . .
O6 C6 H6B 109.6 . .
C12 C11 H11 101.6 . .
O4 C11 H11 101.6 . .
O4 C11 C12 99.6(13) . .
O15 C11 H11 101.6 . .
O15 C11 C12 112.4(13) . .
O15 C11 O4 135(2) . .
C11 C12 H12 104.3 . .
C11 C12 C13 108.6(12) . .
C13 C12 H12 104.3 . .
O12 C12 C11 120.0(18) . .
O12 C12 H12 104.3 . .
O12 C12 C13 114(2) . .
C12 C13 H13 106.0 . .
C14 C13 C12 112.1(12) . .
C14 C13 H13 106.0 . .
O1AA C13 C12 104(2) . .
O1AA C13 H13 106.0 . .
O1AA C13 C14 121.7(16) . .
C13 C14 H14 106.1 . .
C13 C14 C15 112.0(12) . .
C15 C14 H14 106.1 . .
O14 C14 C13 115.1(15) . .
O14 C14 H14 106.1 . .
O14 C14 C15 110.7(14) . .
C14 C15 H15 111.0 . .
C14 C15 C16 115.5(19) . .
C16 C15 H15 111.0 . .
O15 C15 C14 111.5(12) . .
O15 C15 H15 111.0 . .
O15 C15 C16 95.8(13) . .
C15 C16 H16A 108.1 . .
C15 C16 H16B 108.1 . .
C15 C16 K1 91.3(12) . .
H16A C16 H16B 107.3 . .
K1 C16 H16A 95.0 . .
K1 C16 H16B 143.4 . .
O16 C16 C15 116.8(19) . .
O16 C16 H16A 108.1 . .
O16 C16 H16B 108.1 . .
O16 C16 K1 36.0(12) . .
C16 K1 C16 73.8(9) . 23_565
O2 K1 C16 76.2(7) 44_666 23_565
O2 K1 C16 145.7(8) 41_646 23_565
O2 K1 C16 145.7(8) 44_666 .
O2 K1 C16 76.2(7) 41_646 .
O2 K1 O2 136.9(12) 44_666 41_646
O2 K1 O15 117.4(6) 44_666 .
O2 K1 O15 90.5(5) 44_666 23_565
O2 K1 O15 117.4(6) 41_646 23_565
O2 K1 O15 90.5(5) 41_646 .
O3 K1 C16 103.8(6) 44_666 23_565
O3 K1 C16 122.4(6) 41_646 23_565
O3 K1 C16 103.8(6) 41_646 .
O3 K1 C16 122.4(6) 44_666 .
O3 K1 O2 106.0(7) 44_666 41_646
O3 K1 O2 106.0(7) 41_646 44_666
O3 K1 O2 50.9(6) 44_666 44_666
O3 K1 O2 50.9(6) 41_646 41_646
O3 K1 O3 122.2(11) 44_666 41_646
O3 K1 O15 136.2(5) 41_646 .
O3 K1 O15 136.2(5) 44_666 23_565
O3 K1 O15 84.0(6) 44_666 .
O3 K1 O15 84.0(6) 41_646 23_565
O15 K1 C16 76.1(6) . 23_565
O15 K1 C16 38.7(4) 23_565 23_565
O15 K1 C16 76.1(6) 23_565 .
O15 K1 C16 38.7(4) . .
O15 K1 O15 100.6(8) . 23_565
O16 K1 C16 81.4(8) . 23_565
O16 K1 C16 20.2(6) 23_565 23_565
O16 K1 C16 20.1(6) . .
O16 K1 C16 81.4(8) 23_565 .
O16 K1 O2 64.9(8) . 41_646
O16 K1 O2 157.4(9) . 44_666
O16 K1 O2 157.4(9) 23_565 41_646
O16 K1 O2 64.9(8) 23_565 44_666
O16 K1 O3 83.9(7) 23_565 44_666
O16 K1 O3 139.8(7) 23_565 41_646
O16 K1 O3 83.9(7) . 41_646
O16 K1 O3 139.8(7) . 44_666
O16 K1 O15 70.0(7) 23_565 .
O16 K1 O15 70.0(7) . 23_565
O16 K1 O15 58.1(7) 23_565 23_565
O16 K1 O15 58.1(7) . .
O16 K1 O16 94.2(12) 23_565 .
C13 O1AA H1AA 109.5 . .
C2 O2 K1 120.1(15) . 42_566
C2 O2 H2A 109.5 . .
K1 O2 H2A 29.7 42_566 .
C3 O3 K1 131.6(13) . 42_566
C3 O3 H3A 109.5 . .
K1 O3 H3A 117.8 42_566 .
C11 O4 C4 115.0(14) . .
C1 O5 C5 106.2(7) . .
C6 O6 H6 109.5 . .
C12 O12 H12A 109.5 . .
C1 O14 C14 127.1(19) 5_565 .
C11 O15 C15 112.2(13) . .
C11 O15 K1 111.5(15) . .
C15 O15 K1 116.4(14) . .
C16 O16 K1 123.9(18) . .
C16 O16 H16 109.5 . .
K1 O16 H16 126.3 . .
loop_
_geom_bond_atom_site_label_1
_geom_bond_atom_site_label_2
_geom_bond_distance
_geom_bond_site_symmetry_2
C1 H1 0.9800 .
C1 C2 1.501(7) .
C1 O5 1.445(7) .
C1 O14 1.33(3) 7_556
C2 H2 0.9800 .
C2 C3 1.500(7) .
C2 O2 1.452(7) .
C3 H3 0.9800 .
C3 C4 1.504(7) .
C3 O3 1.454(7) .
C4 H4 0.9800 .
C4 C5 1.505(7) .
C4 O4 1.451(7) .
C5 H5 0.9800 .
C5 C6 1.502(7) .
C5 O5 1.450(7) .
C6 H6A 0.9700 .
C6 H6B 0.9700 .
C6 O6 1.456(7) .
C11 H11 0.9800 .
C11 C12 1.500(7) .
C11 O4 1.450(7) .
C11 O15 1.450(7) .
C12 H12 0.9800 .
C12 C13 1.504(7) .
C12 O12 1.472(13) .
C13 H13 0.9800 .
C13 C14 1.492(7) .
C13 O1AA 1.450(7) .
C14 H14 0.9800 .
C14 C15 1.498(5) .
C14 O14 1.448(7) .
C15 H15 0.9800 .
C15 C16 1.501(7) .
C15 O15 1.450(7) .
C16 H16A 0.9700 .
C16 H16B 0.9700 .
C16 K1 3.48(3) .
C16 O16 1.445(7) .
K1 C16 3.48(3) 23_565
K1 O2 2.82(2) 41_646
K1 O2 2.82(2) 44_666
K1 O3 2.78(2) 41_646
K1 O3 2.78(2) 44_666
K1 O15 2.95(2) .
K1 O15 2.95(2) 23_565
K1 O16 2.46(2) .
K1 O16 2.46(2) 23_565
O1AA H1AA 0.8200 .
O2 K1 2.82(2) 42_566
O2 H2A 0.8200 .
O3 K1 2.78(2) 42_566
O3 H3A 0.8200 .
O6 H6 0.8200 .
O12 H12A 0.8200 .
O14 C1 1.33(3) 5_565
O16 H16 0.8200 .
loop_
_geom_torsion_atom_site_label_1
_geom_torsion_atom_site_label_2
_geom_torsion_atom_site_label_3
_geom_torsion_atom_site_label_4
_geom_torsion
_geom_torsion_site_symmetry_1
_geom_torsion_site_symmetry_4
C1 C2 C3 C4 -35(3) . .
C1 C2 C3 O3 171(2) . .
C1 C2 O2 K1 172.5(15) . 42_566
C2 C1 O5 C5 -62(2) . .
C2 C3 C4 C5 33(3) . .
C2 C3 C4 O4 167(2) . .
C2 C3 O3 K1 -21(3) . 42_566
C3 C2 O2 K1 -67.9(19) . 42_566
C3 C4 C5 C6 -170(2) . .
C3 C4 C5 O5 -46(3) . .
C3 C4 O4 C11 122(2) . .
C4 C3 O3 K1 -168(2) . 42_566
C4 C5 C6 O6 55(3) . .
C4 C5 O5 C1 58(2) . .
C5 C4 O4 C11 -106(2) . .
C6 C5 O5 C1 -178(2) . .
C11 C12 C13 C14 -54(2) . .
C11 C12 C13 O1AA 172.9(19) . .
C12 C11 O4 C4 -135(2) . .
C12 C11 O15 C15 -58(3) . .
C12 C11 O15 K1 74.1(19) . .
C12 C13 C14 C15 53(2) . .
C12 C13 C14 O14 -180(2) . .
C13 C14 C15 C16 -160.0(19) . .
C13 C14 C15 O15 -52(2) . .
C13 C14 O14 C1 135(2) . 5_565
C14 C15 C16 K1 84.7(14) . .
C14 C15 C16 O16 58(3) . .
C14 C15 O15 C11 55(3) . .
C14 C15 O15 K1 -75.3(17) . .
C15 C14 O14 C1 -97(3) . 5_565
C15 C16 O16 K1 49(3) . .
C16 C15 O15 C11 175(2) . .
C16 C15 O15 K1 45.0(16) . .
O1AA C13 C14 C15 176(3) . .
O1AA C13 C14 O14 -56(3) . .
O2 C2 C3 C4 -157(2) . .
O2 C2 C3 O3 49(3) . .
O3 C3 C4 C5 178(3) . .
O3 C3 C4 O4 -48(4) . .
O4 C4 C5 C6 62(3) . .
O4 C4 C5 O5 -174.2(19) . .
O4 C11 C12 C13 -91(2) . .
O4 C11 C12 O12 42(3) . .
O4 C11 O15 C15 74(3) . .
O4 C11 O15 K1 -153.6(19) . .
O5 C1 C2 C3 52(3) . .
O5 C1 C2 O2 164.9(19) . .
O5 C5 C6 O6 -72(3) . .
O12 C12 C13 C14 170(2) . .
O12 C12 C13 O1AA 37(3) . .
O14 C1 C2 C3 -66(2) 7_556 .
O14 C1 C2 O2 47(2) 7_556 .
O14 C1 O5 C5 55(2) 7_556 .
O14 C14 C15 C16 70(2) . .
O14 C14 C15 O15 178.1(19) . .
O15 C11 C12 C13 57(2) . .
O15 C11 C12 O12 -170(3) . .
O15 C11 O4 C4 89(3) . .
O15 C15 C16 K1 -32.5(14) . .
O15 C15 C16 O16 -59(3) . .
loop_
_refln_index_h
_refln_index_k
_refln_index_l
_refln_F_squared_meas
_refln_F_squared_sigma
_refln_scale_group_code
2 0 2 36031.7 986.644 2
-3 1 0 9477.5 242.368 2
0 -1 3 8940.99 247.075 4
1 0 -3 8956.16 240.369 7
0 1 3 7689.53 240.061 1
-3 0 1 9076.76 236.916 5
-3 1 0 8972.38 241.889 8
1 0 3 8723.64 243.543 4
1 0 -3 8541.49 240.101 6
-3 0 -1 8290.71 239.271 5
-3 0 1 8587.91 238.806 8
-3 -1 0 9444.37 239.289 5
-3 -1 0 8433.57 243.14 8
1 0 3 9011.86 239.428 7
-3 0 -1 9016.15 242.289 8
3 -1 -2 461.918 46.5555 6
-3 -1 2 527.727 60.1898 8
-3 1 -2 358.897 48.8468 5
3 -1 -2 418.906 46.1983 1
-3 -2 -1 349.41 55.0386 5
2 1 -3 454.645 58.428 6
3 -1 -2 640.292 55.7634 7
-3 -2 -1 455.941 69.1563 8
1 2 3 338.556 54.5577 1
-2 -1 -3 361.85 54.4175 7
-3 -1 2 444.647 63.1381 3
2 1 -3 477.231 58.3294 7
3 1 2 379.608 68.8423 3
-3 1 -2 456.002 61.7458 8
-2 1 3 362.98 54.6942 1
1 -2 -3 355.347 61.2681 7
-2 -1 -3 358.703 54.0775 8
2 -1 3 448.828 59.171 2
2 -1 -3 480.473 60.326 7
2 -1 -3 359.356 53.0958 6
3 -1 2 283.509 62.2396 2
2 1 3 369.898 59.7864 8
-2 1 -3 256.614 51.6278 7
-3 -1 -2 509.134 61.6616 8
-1 2 3 431.79 53.7505 1
2 1 3 365.02 51.7818 7
2 1 3 305.192 65.6311 3
-3 -1 -2 390.081 51.7978 5
3 2 1 433.594 66.8818 3
2 1 3 299.442 49.9612 1
3 1 -2 437.616 50.1366 7
-1 -2 -3 313.331 61.5131 7
3 1 -2 467.848 59.3438 4
-2 1 -3 354.241 53.0054 8
-2 -1 3 445.317 73.21 4
-3 0 -3 20395.3 589.861 8
3 0 3 21278.4 583.792 7
3 0 3 20455.9 583.39 6
-3 0 -3 21300.4 585.98 4
-3 0 -3 21116.3 587.55 5
3 0 -3 21391.7 586.758 6
-3 0 -3 20633.4 583.125 7
3 0 3 21052.1 587.227 4
-3 0 -3 21266.7 584.115 6
3 0 3 19716.9 590.28 2
3 0 -3 22922.2 587.428 7
-3 0 3 22381.2 590.463 4
3 -2 -3 73715.8 1984.02 7
3 2 3 72129.5 1987.54 3
-3 2 3 72288.7 1983.21 1
-3 -2 -3 72496.8 1983.05 7
-3 -2 -3 73086.4 1987.06 8
3 -2 -3 73886.8 1981.99 6
-3 -2 -3 71875.6 1983.77 5
3 2 3 72103.6 1981.39 1
-4 0 0 59204 1624.78 5
0 0 4 57962.2 1628.72 4
0 0 -4 60058.9 1627.01 6
4 0 0 59265.3 1627.42 3
0 0 -4 61821 1626.27 7
-4 0 0 58633.2 1626.19 8
4 -1 1 1369.93 86.865 2
1 1 -4 1298.23 82.6544 7
-1 -1 -4 1492.09 82.3728 7
1 1 4 1512.72 80.1932 3
-1 -1 -4 1540.2 78.475 6
4 1 -1 1369.05 88.7098 3
1 1 -4 1331.9 83.0919 6
-4 -1 1 1563.59 88.3343 8
1 -1 -4 1346.45 78.9735 6
-1 1 -4 1161.32 85.2054 7
1 -1 -4 1382.32 84.3468 7
-1 -1 -4 1205.38 73.7213 3
-4 1 -1 1827.66 78.9021 5
-4 -1 -1 1563.67 81.1935 5
1 1 4 1483.57 72.4734 8
-1 -1 4 1409.54 98.1801 4
4 1 1 1467.77 93.3506 3
4 -1 -1 1393.67 78.5308 2
-1 1 -4 1464.11 83.0912 6
-1 -1 -4 1309.51 69.1207 8
1 -1 4 1522.07 99.6159 4
-4 1 -1 1536.53 89.1933 8
-4 1 1 1307.22 82.7627 8
-4 -1 -1 1456.24 90.0152 8
-4 -1 1 1831.18 76.4632 5
-4 0 2 3261.08 118.402 4
2 0 -4 3582.89 123.849 7
4 0 -2 3336.14 110.409 6
2 0 4 3489.64 135.347 4
2 0 4 2649.15 120.183 2
4 2 0 3365.8 132.319 3
-2 0 -4 3214.91 121.327 7
-4 -2 0 3201.57 134.893 8
-4 0 2 3383.39 113.656 5
0 -2 -4 3173.91 120.446 6
0 2 4 2902.94 123.599 1
-4 0 -2 3042.88 121.403 5
2 0 -4 3388.17 123.84 6
-2 0 -4 3652.5 122.557 8
4 0 -2 3425.36 110.575 7
-2 0 -4 3326.82 119.674 6
-4 0 2 3091.35 120.098 8
-4 0 2 3624.17 109.822 7
-4 0 -2 3231.28 128.139 8
-4 0 2 3368.58 108.512 6
-2 0 -4 3438.48 113.423 5
4 0 -2 3555.64 119.374 4
-2 0 4 3239.66 136.863 4
4 0 -2 3005.11 115.059 8
-4 -2 0 3383.84 119.68 5
0 -2 -4 2653.29 127.401 7
4 0 -2 3652.85 123.068 3
2 -2 -4 7552.97 215.502 6
-2 -2 -4 7027.23 212.342 6
-2 -2 -4 7080.59 208.015 5
2 -2 -4 7079.59 221.348 7
2 2 4 6307.85 219.441 3
4 -2 2 6884.77 223.747 2
-2 -2 -4 6776.84 218.691 7
2 2 4 6001.81 212.071 1
-4 -2 -2 7805.97 223.944 8
-2 -2 -4 6925.16 214.826 8
-4 -2 -2 7053.37 216.028 5
4 2 2 6377.3 225.621 3
-2 2 4 7566.71 217.869 1
-4 2 -2 6721.41 216.801 8
-4 1 -3 53.8474 85.5983 8
-3 -1 -4 95.0768 83.1582 8
4 -1 -3 13.5366 76.2024 7
-4 -1 3 90.9417 95.3977 4
-4 1 -3 7.24558 75.1063 5
4 -1 -3 53.7033 60.8401 8
3 -1 4 79.7973 96.3456 4
-4 1 -3 29.5746 62.9586 7
4 -1 -3 56.3451 53.3252 5
4 1 3 27.6388 99.8194 3
4 1 3 29.1125 58.941 7
-3 -1 -4 5.1276 67.2867 5
3 1 -4 23.8798 78.3232 6
-4 -1 3 80.47 77.0271 8
1 -3 -4 4.60035 89.9075 7
4 -1 -3 37.3533 62.4331 2
-3 -1 -4 162.301 72.6744 7
-3 -1 -4 60.2098 63.8843 6
1 3 4 5.28961 76.0103 1
3 1 -4 39.1263 79.7592 7
4 1 3 24.4623 55.2168 1
3 -1 4 32.1923 85.7502 2
4 -1 -3 25.3949 67.947 6
4 1 3 41.9339 54.71 6
3 -1 -4 173.775 82.2034 7
-4 -1 -3 18.2696 52.4872 6
-4 1 3 81.9952 55.7108 5
-3 1 -4 48.0166 77.5017 7
-4 1 3 65.0764 65.8832 8
-3 1 -4 46.5882 68.6331 5
-4 1 3 12.1883 62.3639 1
-4 -1 -3 105.212 87.0853 8
-1 3 4 57.3085 76.8891 1
-3 1 -4 37.9545 69.3077 6
4 1 -3 47.9719 71.7696 6
4 1 -3 122.944 73.6245 7
-1 -3 -4 49.8505 91.276 7
3 -1 -4 107.271 74.6274 6
-4 -1 -3 17.4453 76.7338 5
-3 -1 4 29.262 102.489 4
-3 1 -4 112.417 76.8019 8
-4 -1 -3 16.6218 63.5719 7
3 1 4 42.7107 99.6079 3
4 -1 3 3.67503 88.2515 2
-4 -3 -3 114167 3121 5
-3 -3 -4 120528 3121.68 5
4 3 3 115151 3126.19 3
3 -3 -4 115555 3122.72 7
-3 3 4 117247 3121.12 1
-4 -3 -3 108667 3124.74 8
-3 -3 -4 111801 3122.32 8
3 3 4 112007 3123.66 3
-4 0 -4 108882 3012.59 7
-4 0 -4 110649 3018.62 5
4 0 -4 109465 3016.82 6
-4 0 4 110673 3008.77 5
4 0 -4 111320 3008.83 5
-4 0 4 116103 3020.88 4
4 0 4 110365 3016.42 4
-4 0 -4 109439 3020.34 8
4 0 -4 110399 3010.26 8
4 0 -4 114134 3016.75 7
-4 0 -4 110969 3014.52 6
4 0 4 105373 3021.27 2
-4 0 4 111536 3009.94 8
4 0 -4 111217 3010.32 3
4 -2 -4 19637.7 543.044 8
-4 -2 -4 19474.9 554.651 5
4 -2 -4 20333.8 553.264 6
4 2 4 18002 563.634 3
-4 -2 -4 19114.8 553.085 7
4 2 4 18117.8 548.041 1
-4 -2 -4 19387.1 548.125 6
-4 2 4 21271.6 555.136 1
-4 2 4 19481.5 543.241 2
4 -2 -4 20547.9 557.982 7
-4 -2 -4 20434.7 560.61 8
-5 1 0 75.8398 72.8618 5
1 0 -5 34.3161 80.1246 7
-5 0 1 122.058 70.0688 5
1 0 5 64.1791 67.3639 2
0 -1 -5 31.3791 75.9964 6
0 1 -5 74.5701 87.2487 7
0 -1 -5 63.8789 83.5653 7
0 1 5 129.55 113.131 4
1 0 5 86.439 70.5178 8
-5 0 -1 62.8451 72.8558 5
1 0 5 175.643 107.285 4
-5 1 0 102.81 91.1037 8
-1 0 -5 102.956 59.4401 2
5 1 0 97.1252 98.5168 3
-1 0 -5 55.9398 77.8365 6
-5 -1 0 0.94504 72.7038 5
0 1 -5 139.341 82.5072 6
-1 0 -5 113.17 54.6437 5
-5 0 1 38.4568 85.1667 8
-5 -1 0 116.054 94.1218 8
0 -1 5 34.0222 109.508 4
-1 0 -5 56.1869 60.938 8
-1 0 5 30.6672 109.081 4
1 0 -5 107.378 78.8785 6
5 -1 0 157.589 87.7683 2
-5 0 -1 4.3449 92.0188 8
5 0 -1 75.4362 94.6401 3
-1 0 -5 97.6807 80.5689 7
-5 -2 -1 5680.78 192.003 8
5 -2 1 4894.65 184.321 2
1 -2 -5 5240.52 175.97 6
5 1 2 4580.82 191.6 3
1 2 5 4996.87 167.911 8
-2 -1 -5 5058.15 172.074 6
-5 -2 -1 5248.36 176.635 5
5 2 -1 5398.26 186.582 3
5 -1 -2 4912.16 169.215 2
2 1 -5 5832.23 180.04 7
-5 1 -2 4689.04 186.625 8
-2 -1 -5 5019.06 164.265 5
2 1 -5 4690.55 179.976 6
1 2 5 5031.76 171.921 3
1 -2 -5 4974.98 186.644 7
-5 1 -2 5022.89 178.214 5
-2 -1 -5 4916.36 175.868 7
5 -1 -2 5142.86 163.055 7
-5 2 1 5965.73 181.132 8
5 -1 -2 5193.17 159.325 6
-5 -1 2 5421.36 178.842 8
1 2 5 4355.12 175.466 1
-5 -1 2 5039.22 160.548 6
-5 -1 2 5136.94 168.497 5
-2 -1 -5 5105.27 169.286 8
-1 -2 -5 4624.98 183.918 7
-1 -2 -5 4878.57 167.562 8
-1 -2 -5 4835.53 174.385 6
-2 -1 5 5226.73 199.961 4
-5 -1 -2 4917.41 177.534 5
-5 -2 1 5347.79 173.049 5
5 1 -2 5697.99 184.369 3
-5 1 2 5168.7 162.736 7
5 1 -2 5557 163.82 7
-5 1 2 5069.99 160.477 1
-5 1 2 5146.53 176.535 8
-5 2 -1 5472.04 184.623 8
2 -1 -5 5143.41 180.566 7
2 -1 -5 5098.42 177.022 6
-2 1 -5 5937.75 183.236 7
2 1 5 5767.91 182.701 3
-5 1 2 5148.65 168.045 5
5 -2 -1 5214.28 179.66 2
-5 -2 1 5315.48 192.604 8
-1 2 5 4206.51 178.884 1
-2 1 -5 5811.37 182.867 6
2 1 5 5309.51 194.644 4
5 -1 2 5538.04 191.077 2
5 2 1 5170.76 191.872 3
-1 -2 -5 4782.96 160.484 5
-5 -1 -2 4684.55 186.595 8
-3 -2 -5 1641.15 106.866 6
5 2 3 1435.9 87.3795 7
5 -2 -3 1667.05 96.1492 6
5 -2 -3 1633.33 109.933 7
5 -2 -3 1627.27 102.891 2
-3 -2 -5 1544.13 121.43 8
-3 -2 -5 1590.04 98.2029 5
2 -3 -5 1361.77 113.978 6
2 3 5 1230.67 106.956 1
-5 -3 -2 1331.76 107.916 5
-3 -2 -5 1738.22 120.84 7
-3 2 5 1413.56 110.241 1
5 2 3 1302.54 141.646 3
-5 0 3 30732.6 784.995 4
5 0 -3 28545.4 779.417 7
-5 0 -3 28331.8 786.626 5
-3 0 -5 29894.4 787.48 8
5 0 3 26771.8 772.74 6
3 0 -5 27739.7 785.813 7
0 3 5 27553.9 788.447 1
-5 0 -3 28412.8 774.686 6
-3 0 5 29270.2 794.579 4
-3 0 -5 29777.1 783.759 7
-3 0 -5 28179.1 782.003 5
-5 0 3 29146 782.128 8
5 0 3 28807.8 777.091 4
5 0 3 27570.3 773.861 7
5 0 -3 27999.5 778.839 6
0 -3 -5 28185.8 792.324 7
3 0 5 28643.4 791.337 4
-3 0 -5 28888.1 784.353 6
-5 0 -3 26737 772.478 7
-5 0 -3 27772.7 775.781 4
-5 0 -3 27573 790.38 8
0 -3 -5 27995.7 785.947 6
3 0 5 26679.9 786.407 2
-5 0 3 28513.4 778.345 5
3 0 -5 28340.4 786.47 6
-2 -3 -5 1497.07 130.017 7
-2 -3 -5 1553.93 116.913 8
-5 2 3 1496.07 90.4381 5
3 -2 -5 1644.26 114.203 6
5 3 2 1653.54 137.975 3
-5 2 3 1605.24 96.5906 1
3 2 5 1734.51 110.363 1
-2 -3 -5 1331.19 107.551 6
-5 -2 -3 1457.65 110.615 5
-5 2 3 1893.44 105.744 8
3 2 5 1672.75 137.525 3
5 -3 -4 5356.6 206.059 7
-4 -3 -5 5306.45 190.152 6
-4 -3 -5 5193.57 192.374 5
-4 -3 -5 5279.53 214.197 7
5 -3 -4 5423.56 192.541 6
-4 -1 -5 28406.7 840.549 8
-4 -1 -5 30929.3 834.723 6
-4 -1 -5 30366.1 835.29 7
-5 1 -4 29854.9 841.632 5
-5 -1 4 30418.2 844.657 4
-4 1 5 30169.2 847.75 4
5 1 4 28936 847.372 3
5 -1 -4 30241.5 831.753 3
-4 -1 -5 28703.9 837.539 5
5 -1 -4 31404.5 836.947 7
5 1 4 29403.7 830.767 1
4 -1 5 30467.6 845.698 2
-5 -1 4 29601.5 834.947 8
5 1 4 30204.9 834.571 4
-5 1 -4 30325.3 833.109 7
5 -1 -4 31088.2 831.324 2
4 -1 5 29379.4 844.12 4
4 1 -5 30588.6 840.556 7
4 1 -5 30032.7 842.132 6
-5 1 4 29715.9 835.199 5
5 1 -4 30624.4 843.94 7
-4 -1 5 30519.6 856.834 4
-5 1 4 30289.3 850.398 4
4 1 5 28862.7 852.75 3
-5 -1 -4 29749.9 838.545 7
-5 1 4 31621.9 843.907 1
5 1 -4 29960.6 845.157 6
-4 1 -5 29356.5 846.102 6
-5 -1 -4 30182 836.099 6
-4 1 -5 30006.9 847.042 5
-4 1 -5 29190.1 844.319 7
4 -1 -5 30738.3 845.583 6
4 -1 -5 32104.6 848.01 7
-4 1 -5 29315.3 849.794 8
-5 1 4 32801.4 839.269 8
-5 -1 -4 30293.7 848.181 5
4 3 5 4690.24 216.946 3
4 3 5 5183.23 188.33 1
4 -3 -5 4907.76 193.38 6
-5 3 4 5221.7 186.092 1
-5 0 -5 6076.77 212.626 7
-5 0 -5 6515.23 213.344 6
5 0 -5 6568.53 219.574 6
5 0 -5 6495.25 207.365 3
-5 0 5 6309.84 206.219 8
5 0 5 6098.37 232.204 4
-5 0 5 6032.63 245.648 4
-5 0 5 6444.17 197.143 5
5 0 -5 6268.28 203.221 8
5 0 -5 6952.44 226.927 7
5 -2 -5 41132.4 1129.32 6
-5 2 5 41673.7 1118.32 2
5 -2 5 38492.1 1140.54 2
-5 2 -5 38516.8 1135.06 8
-5 -2 -5 41206.3 1123.59 6
5 2 5 41658.6 1124.79 1
-5 2 5 41189.3 1115.85 5
5 -2 -5 40525.7 1119.09 8
-5 -2 -5 39810.6 1127.89 7
5 4 5 2315.23 200.573 3
-5 -4 -5 2361.34 187.648 8
-5 -4 -5 2440.62 154.026 5
-6 0 0 351680 9340.12 8
0 0 6 338025 9342.46 4
0 0 6 341527 9328.38 8
6 0 0 351851 9340.19 3
0 0 -6 341462 9328.77 2
0 0 -6 346017 9326.73 5
0 0 -6 341674 9339.52 6
-6 0 0 343500 9337.33 5
-6 -1 1 36572.4 1011.39 8
-1 1 -6 36960.3 1013.97 6
-1 1 6 37371 1018.78 4
-6 -1 -1 35674.8 1008.51 5
1 1 6 37553.1 1001.73 3
6 -1 -1 36508.2 1010.14 2
-6 1 -1 36857.7 1009.68 5
-1 -1 -6 35632.4 997.266 5
-1 -1 -6 34888 1008.41 6
1 -1 -6 38425.3 1011.43 6
-6 1 1 34683.7 1006.33 5
1 1 -6 35995.4 1013.9 6
-1 -1 -6 36364.4 999.064 8
-6 -1 1 37113.7 1006.83 5
6 1 1 35813.3 1015.91 3
1 -1 6 35261.7 1016.82 4
-1 -1 6 35268.7 1018.85 4
-6 1 1 37789.1 1011.33 8
1 1 6 36630.3 1016.39 4
-2 0 -6 1150.04 109.009 8
-2 0 6 1019.07 155.724 4
-6 2 0 1405.3 125.829 8
0 -2 -6 1439.91 114.335 6
-2 0 -6 1156.08 113.744 6
-6 2 0 1238.74 105.617 5
-2 0 -6 1321.65 93.2318 5
-6 0 2 1218.85 81.6451 7
0 -2 -6 1177.62 83.9224 8
6 0 -2 1255.95 82.5025 7
2 0 6 1065.11 151.387 4
6 -2 0 1269.21 123.857 2
-6 -2 0 1505.88 111.834 5
-2 0 -6 1158.84 118.69 7
-6 0 2 1154.56 106.111 4
0 -2 -6 1241.81 89.9479 3
2 0 -6 1115.99 115.182 6
-6 0 2 1261.77 118.19 8
6 0 -2 1312.29 81.55 6
2 0 6 1227.07 108.017 2
6 0 -2 1275.15 130.745 3
6 2 0 1241.54 141.701 3
-6 0 2 1208.86 74.8279 6
-6 0 2 1364.23 99.8434 5
-2 -2 -6 2799.39 145.561 6
-6 -2 2 3268.27 138.473 5
6 -2 -2 3549.24 153.707 2
6 2 -2 2935.76 163.438 3
-2 -2 -6 2876.79 126.521 5
2 2 6 3290.97 156.401 3
-6 -2 2 3430.39 167.436 8
-6 2 2 3038.88 137.967 5
-6 2 2 3718.89 158.929 8
-2 -2 -6 2899.22 143.448 8
-3 -1 -6 14459.4 422.291 8
6 1 3 13624.8 401.455 7
-3 -1 -6 14105.8 419.908 6
6 1 3 14035.7 401.712 1
-6 1 -3 14693.4 410.875 4
-6 -1 3 14968.7 427.284 8
-3 -1 -6 14296.9 423.888 7
-3 -1 -6 14563.6 415.763 5
-6 -1 3 15715.7 424.106 4
6 -1 -3 14406.5 417.55 2
-6 1 -3 13963.3 405.999 7
6 1 3 14280.1 407.567 4
6 -1 -3 14846.7 414.804 7
3 -1 6 14790.5 424.133 2
-6 1 3 15520.8 424.192 8
-1 -3 -6 13748.5 417.162 8
6 -1 3 14171.1 408.152 6
6 1 -3 15683 415.88 7
-3 1 -6 12785.5 418.465 5
6 1 -3 14524.9 416.815 6
-6 1 3 14347.9 416.224 5
-3 1 -6 13689.3 422.861 8
6 1 -3 15400.9 428.67 3
-6 -1 -3 14137.1 403.221 6
-3 1 -6 13986.5 428.362 6
3 1 6 14583.3 430.525 3
-6 1 3 14797.6 412.86 1
-3 1 -6 14071 428.958 7
-6 -1 -3 15188.7 408.408 7
3 3 6 207.798 149.325 3
3 -3 -6 195.187 150.551 7
-3 3 6 170.334 126.786 1
-6 -3 -3 185.891 156.464 8
-3 -3 -6 4.45373 96.4223 5
-3 -3 -6 84.3393 134.032 8
-4 -2 -6 3986.44 182.647 7
2 -4 -6 3343.9 194.349 7
2 4 6 3559.11 176.445 1
6 2 4 4064.97 148.035 1
-4 -2 -6 4408.37 163.939 5
6 -2 -4 3271.47 174.418 7
-6 -2 4 3776.93 179.617 8
-6 2 -4 4094.56 189.9 8
-6 2 -4 3422.64 168.501 5
6 -2 -4 3769.21 163.776 2
2 -4 -6 3932.19 180.411 6
6 -2 -4 3393.79 161.566 6
-4 -2 -6 3803.85 165.088 6
-6 0 4 88171.1 2388.26 4
0 4 6 87983.9 2392.84 1
-4 0 -6 84323.9 2385.32 7
-6 0 -4 91442.6 2395.54 8
6 0 -4 89247.6 2384.21 3
4 0 6 84736.7 2391.84 4
-6 0 -4 84030.7 2376.77 7
-4 0 -6 88023.6 2387.61 5
6 0 4 89925.4 2398.51 2
6 0 -4 88822.5 2383.37 7
-6 0 4 87156.9 2383.55 8
6 0 4 86460.3 2381.4 4
-6 0 -4 87345.5 2379.55 6
6 0 -4 89608 2383.43 6
0 -4 -6 86374.9 2396.65 7
6 -2 4 3338.34 194.971 2
-6 2 4 3218.41 146.133 5
-6 2 4 3559.27 168.371 8
6 2 -4 3372.8 158.063 7
-6 -2 -4 3726.98 195.208 8
-6 -2 -4 3518.58 163.727 7
-6 -2 -4 3992.27 141.922 6
-2 4 6 3737.95 177.563 1
4 2 6 3535.98 163.539 1
-2 -4 -6 3427.64 203.045 7
4 2 6 3254.93 200.382 3
-6 2 4 3762.8 155.154 1
-6 -4 -4 22055.3 665.002 8
6 4 4 22032.4 668.115 3
-6 -4 -4 23216.7 651.412 5
-5 3 6 27933.4 770.551 1
-5 -3 -6 26190.1 762.28 6
6 3 5 27647.4 786.865 3
-5 3 6 26841.8 750.091 2
-5 -3 -6 26918.8 779.195 8
-5 1 6 14904.5 420.942 5
6 -1 -5 14936.7 445.673 6
5 -1 6 15519.9 464.4 2
-5 -1 -6 14501.4 440.737 6
6 -1 -5 15137.2 434.12 2
-5 -1 -6 15082.2 446.074 7
-6 1 -5 15142.5 453.092 5
6 1 5 14783.6 436.293 1
5 -1 6 14419.3 462.995 4
-6 1 -5 14642.1 440.163 7
6 -1 -5 14471.5 447.891 7
-6 -1 5 15860.1 443.713 8
-6 1 -5 15710.4 464.73 8
6 -1 -5 15597.8 439.165 3
6 1 5 15167.3 469.263 3
-5 1 6 15234.1 426.804 8
-6 1 5 15699.2 467.451 4
-5 1 -6 15006.7 450.614 7
-6 1 5 15020.7 440.177 8
5 -1 -6 14884 424.445 5
-6 -1 -5 15586.8 456.295 5
-5 1 -6 14746.3 462.008 8
-5 1 -6 14528.4 452.586 6
5 -1 -6 15709 428.955 2
-6 -1 -5 15867.3 468.485 8
6 1 -5 15319.8 451.693 7
-6 1 5 15096.3 432.762 5
-5 -1 6 14913.7 437.161 8
5 -1 -6 15384.9 428.343 8
5 1 6 15221.6 461.436 4
-6 -1 -5 15218 438.272 6
6 1 -5 15218.3 452.647 6
6 -1 5 15421.4 471.918 2
-6 -1 -5 14879 440.514 7
-6 -3 -5 26169.3 752.822 5
5 -3 -6 26661.6 735.649 8
-6 -3 -5 26263 740.347 6
5 -3 -6 26142.8 762.079 7
-6 -3 -5 26632.5 764.703 8
6 0 6 359.402 173.053 2
-6 0 6 256.251 120.056 8
-6 0 -6 76.4091 128.938 6
6 0 -6 321.654 121.288 3
-6 0 6 193.323 89.5964 5
-6 0 -6 77.5453 135.825 7
-6 0 -6 250.393 146.211 5
-6 0 -6 379.362 175.545 8
6 0 6 207.516 178.361 4
-6 -2 -6 6704.69 243.983 6
6 -2 -6 7463.55 236.295 2
-6 -2 -6 6449.72 286.013 8
-6 -2 -6 7737.39 264.914 5
-6 2 -6 7741.68 266.028 5
6 2 6 6589.45 302.802 3
6 2 -6 7753.47 274.565 7
-6 2 6 7800.53 265.647 1
-6 2 6 7503.33 226.356 5
-6 2 -6 7415.89 281.782 8
-6 -2 -6 6523.84 265.151 7
-6 2 6 6675.45 227.27 8
6 2 6 6683.67 253.333 1
6 -2 -6 7333.08 277.257 7
6 -2 6 6924.64 285.798 2
6 -4 -6 4741.85 255.005 7
-6 -4 -6 4409.01 251.873 8
6 -4 -6 4521.57 224.154 6
-6 -4 -6 4580.81 215.456 5
6 4 6 4544.62 275.932 3
-1 0 -7 3375.97 134.3 8
-1 0 -7 3219.73 128.946 5
1 0 -7 2743.8 169.954 7
0 1 7 3090.22 126.888 2
1 0 7 3212.96 137.616 2
7 0 -1 3208.53 179.922 3
0 -1 -7 3075.29 116.354 5
0 1 7 3565.13 135.156 3
-7 0 1 3437.48 151.901 5
0 -1 -7 3055.7 172.069 7
0 1 -7 2997.92 172.716 7
0 -1 -7 3574.39 130.16 8
7 -1 -2 10128.9 302.878 2
7 1 2 9704.68 328.083 3
-1 -2 7 9894.03 339.878 4
7 -2 1 11627 322.508 2
-1 2 -7 10696.1 318.141 7
-7 -2 -1 10696.5 323.523 8
7 -1 -2 9891.33 280.419 7
-7 1 -2 11823.4 324.784 8
2 1 -7 11133.9 314.929 7
-2 -1 -7 9333.4 294.998 8
-7 -1 2 10254.4 297.295 5
7 -1 -2 10123.2 277.655 6
-2 -1 -7 9974.83 284.147 5
1 -2 -7 10827.4 314.268 7
1 2 7 10672.5 313.134 1
1 2 7 11046.1 294.105 3
-1 2 7 10204.1 333.718 1
-7 1 2 9693.57 301.018 7
-1 -2 -7 10460.3 303.167 5
2 -1 -7 10362.7 335.039 7
2 1 7 10698.5 319.014 2
-1 -2 -7 9764.76 308.157 8
-7 2 -1 11497.6 338.166 8
7 -1 2 10473 341.485 2
-7 1 2 9888.14 318.786 5
7 1 -2 10400.3 337.357 3
2 1 7 9865.89 322.382 3
7 1 -2 10373.9 302.783 7
-1 -2 -7 10919.3 335.256 7
-7 -1 -2 10422.4 343.255 8
1 2 -7 11244.2 340.569 7
-7 1 2 10688.1 301.03 1
-7 1 2 9991.94 331.487 8
1 2 -7 10118.2 337.522 6
-7 2 -3 9680.74 314.478 5
7 2 3 9222.83 334.866 3
7 -2 -3 9918.3 291.321 6
-3 -2 -7 8828.58 304.715 8
2 -3 -7 9464.97 312.579 6
-3 -2 -7 9598.66 296.544 5
2 3 7 9011.5 311.606 3
7 -2 -3 9437.33 300.595 7
-7 -3 -2 8852.18 310.363 5
7 -3 2 10039.7 335.081 2
2 -3 -7 9847.85 330.763 7
7 -2 -3 9721.36 311.013 2
3 2 -7 9499.44 322.934 6
7 2 3 9343.12 281.028 7
-7 3 2 9141.46 299.928 5
-7 -2 3 10404.2 302.303 5
2 3 7 9223.28 313.084 1
-3 2 7 10202.8 318.756 1
3 2 -7 9146.1 320.846 7
-7 -3 -2 9351.02 334.593 8
0 -3 -7 20376.2 569.96 8
7 0 -3 19364.9 569.764 7
0 -3 -7 20082.9 588.056 6
0 3 7 20535 590.205 1
-3 0 -7 18812.4 575.325 5
3 0 -7 20413 591.767 7
7 -3 0 20832.1 599.251 2
0 -3 -7 20833.4 598.384 7
3 0 7 20814.1 586.469 2
7 3 0 19920.9 602.134 3
-7 0 3 21813.9 580.943 4
-7 3 0 21167 594.882 8
-3 0 -7 20115.8 584.353 8
7 0 -3 19615.9 569.905 6
-7 -3 0 22145.8 604.039 8
7 0 -3 20559.6 588.436 3
-7 0 -3 18425.2 587.282 5
-7 0 3 20854.6 584.272 8
-7 0 3 20280.9 576.892 5
7 3 2 10266.3 346.634 3
-2 -3 -7 9178.48 335.374 7
-7 2 3 9485.38 306.232 5
7 -2 3 11297.1 338.974 2
-3 -2 7 9843.34 361.055 4
-2 3 7 10616.1 324.176 1
3 2 7 9412.46 327.237 3
-7 -2 -3 9134.96 319.414 5
-2 -3 -7 9476.49 300.154 5
-7 3 -2 10537.4 333.606 8
3 -2 -7 10078.6 331.24 7
-3 2 -7 10089.5 334.03 7
-7 -2 -3 8701.75 335.199 8
-2 -3 -7 9196.7 312.321 8
-7 2 3 10115.4 323.947 8
7 2 -3 9212.67 327.066 3
-7 2 3 10802.8 301.52 1
3 -4 -7 255.184 183.353 7
3 -4 -7 85.9994 157.884 6
-4 -3 -7 180.654 179.326 7
7 -3 -4 80.4584 130.739 6
-4 3 7 151.456 152.447 1
3 4 7 220.867 148.2 1
-7 -4 -3 225.896 150.213 5
4 1 -7 23739.3 703.409 6
1 4 7 24957.1 701.047 1
7 -1 -4 25321.6 687.027 6
7 -1 -4 25124.7 689.642 7
1 -4 -7 24302.8 701.968 6
7 1 4 24588.2 677.003 1
7 -1 -4 24264 694.199 3
-7 -1 4 24606.8 697.062 8
7 1 4 25278.7 715.97 3
-7 1 -4 23282.5 680.006 7
7 1 4 23625.5 683.638 4
4 1 -7 25033.9 703.464 7
7 -1 -4 23896.1 688.835 2
-7 1 -4 23550.7 712.304 8
-7 1 -4 25066.3 703.713 5
1 -4 -7 23339 711.818 7
-7 -1 4 24467.9 688.757 5
-7 -1 -4 24360.5 681.384 6
-1 -4 -7 24508.9 715.533 7
-7 1 4 24225 702.168 4
-7 1 4 24436.9 698.069 8
-4 -1 7 24928 723.046 4
7 -1 4 25861 719.315 2
4 -1 -7 24729.7 707.923 7
-7 -1 -4 25778.9 706.316 5
7 1 -4 25315.1 704.458 3
-7 -1 -4 24068.4 684.661 7
4 -1 -7 24978.3 704.318 6
-1 4 7 23856.8 709.041 1
-7 1 4 23705.2 690.055 1
-7 1 4 25484.6 690.701 5
-1 -4 -7 24593.8 704.261 6
-7 -1 -4 23798.4 713.333 8
7 1 -4 23736.9 694.823 6
7 -3 4 242.457 186.162 2
4 3 7 262.841 144.882 1
-3 4 7 420.707 161.949 1
-7 3 4 239.521 114.466 5
-7 -3 -4 211.502 155.277 5
4 -3 -7 183.425 156.635 6
4 -3 -7 182.529 183.25 7
-3 -4 -7 270.899 188.613 7
-3 -4 -7 267.398 150.617 6
-5 4 7 6837.26 262.526 1
-5 -4 -7 6069.14 274.198 8
7 4 5 6062.55 311.686 3
-5 -4 -7 5840.04 295.891 7
-5 -4 -7 6057.55 245.376 5
-5 -4 -7 6071.1 249.411 6
4 -5 -7 6369.28 277.416 6
5 -2 7 1082.97 176.457 2
5 2 -7 1363.73 182.203 7
7 2 5 1067.61 127.171 1
7 -2 -5 974.093 150.274 6
-7 2 -5 1064.48 164.521 5
-5 -2 -7 1163.01 180.487 8
7 -2 -5 1204.03 144.46 2
7 2 5 1031.14 212.099 3
2 -5 -7 944.861 203.207 7
-7 -2 5 772.04 162.505 8
5 2 -7 1171.23 178.37 6
-5 2 7 1105.34 157.641 1
-5 -2 -7 822.839 144.268 5
-7 2 -5 1414.29 189.132 8
5 0 -7 9976.26 330.502 6
7 0 -5 10043.2 322.622 7
-7 0 -5 10520.1 309.586 6
7 0 5 11184.6 354.284 2
-7 0 5 10385.2 347.285 4
5 0 -7 9333.52 285.78 5
-5 0 -7 10889.6 343.99 8
0 -5 -7 9530.92 361.466 7
-7 0 -5 10210.1 334.439 5
7 0 -5 9730.81 319.721 6
-7 0 -5 9737.31 305.538 7
-7 0 5 9578.09 321.208 8
0 5 7 10666.8 338.911 1
-7 0 -5 9891.89 348.764 8
-7 0 5 10353.3 305.581 5
7 0 5 10190.1 327.951 4
-5 0 7 9132 292.704 3
7 0 -5 10419.4 324.332 3
-5 0 7 9632.23 291.358 8
-5 0 7 9969.03 368.929 4
5 0 7 10371.9 347.443 2
5 -2 -7 1145.71 163.813 6
-5 2 -7 1097.66 167.725 8
-5 -2 7 1106.44 241.446 4
-7 -2 -5 1044.41 198.841 8
-7 -2 -5 1166.54 117.645 6
-7 2 5 1156.82 123.845 5
7 -2 5 1257.95 202.827 2
-2 5 7 1334.43 175.828 1
-5 2 -7 1250.18 150.046 5
5 -2 -7 1060.69 183.56 7
-7 -2 -5 759.446 159.524 5
-7 2 5 1342.77 156.805 8
-7 -4 -5 6299.23 254.005 5
5 -4 -7 5760.11 255.864 6
-4 5 7 5898.51 263.399 1
5 4 7 6092.97 293.43 3
-7 -4 -5 5558.8 282.506 8
5 -4 -7 6370.72 284.577 7
5 4 7 6116.33 247.939 1
-6 -5 -7 3402.89 212.982 6
-6 -5 -7 3632.5 259.158 8
-6 5 7 3610.49 232.522 1
-6 -5 -7 3774.37 221.53 5
7 5 6 3270.21 293.877 3
7 -3 -6 2735.47 196.27 6
7 -3 -6 2963.05 225.654 7
-6 -3 -7 2943.83 194.773 5
-7 3 -6 2422.73 186.585 5
7 3 6 2596.55 259.139 3
-6 -3 -7 2667.76 230.844 8
-6 3 7 2937.02 203.754 1
6 1 -7 8554.43 301.469 6
-6 1 7 8000.94 256.31 8
6 -1 7 7907.78 317.1 2
-7 1 -6 7829.55 283.794 7
7 -1 -6 8177.56 277.895 3
7 -1 -6 8271.5 266.395 2
7 1 6 8535.99 333.895 3
-7 1 -6 7804.71 317.102 8
-7 -1 6 8266.44 286.398 8
-6 1 7 8351.54 247.407 5
-6 -1 -7 7468.23 312.212 8
-6 1 7 8461.11 338.769 4
7 1 6 7807.17 302.475 4
-7 1 -6 7555.72 301.366 5
-6 1 -7 7647.06 317.489 8
-6 -1 7 8404.58 273.302 8
-7 1 6 8545.14 262.891 5
-7 -1 -6 8248.42 320.021 8
6 -1 -7 8604.58 306.133 7
6 -1 -7 7650.18 254.595 2
-7 -1 -6 8906.12 301.556 5
6 -1 -7 8049.67 262.621 3
-7 1 6 8208.48 274.567 8
-6 1 -7 8469.38 301.218 5
6 1 7 7716.65 330.611 3
7 -1 6 8677.16 327.844 2
6 -1 -7 9117.31 298.579 6
-6 -1 7 8197.81 341.741 4
6 -1 -7 7737.42 257.113 8
-7 -1 -6 8169.09 274.052 6
-7 -3 -6 3095.23 201.358 5
-7 3 6 2807.83 154.027 5
6 -3 -7 2690.34 231.955 7
-7 -3 -6 3217.52 220.031 7
-7 3 6 3310.64 201.509 1
-7 -3 -6 2838.61 243.207 8
6 -3 -7 2988.44 206.648 6
6 3 7 2702.48 264.204 3
-7 -3 -6 2951.28 174.98 6
6 -5 -7 3642.09 250.853 6
-7 -5 -6 3681.55 222.816 5
-7 -5 -6 3132.84 268.258 8
6 5 7 3449.09 281.431 3
7 0 7 8855.7 350.653 4
-7 0 7 8682.5 300.929 8
-7 0 -7 9396.4 314.479 6
7 0 -7 8714.46 332.411 7
-7 0 -7 8697.37 353.699 8
7 0 7 9363.49 351.632 2
7 0 -7 9679 306.954 3
-7 0 7 8774.83 278.339 5
-7 0 7 9447.27 373.953 4
7 0 -7 9099.01 323.539 6
7 -2 -7 3242.01 183.5 3
7 -2 -7 3547.48 178.707 2
7 -2 -7 3899.14 223.503 6
-7 2 7 3291.16 154.023 5
7 2 7 3491.71 283.348 3
7 -2 7 3062.94 244.778 2
-7 -2 7 4009.23 305.42 4
-7 2 7 3785.84 178.444 8
7 2 -7 2883.44 228.479 6
-7 -2 -7 3189.32 249.444 8
-7 2 7 3658.95 284.242 4
-7 2 7 3541.61 217.136 1
7 -2 -7 3885.11 241.408 7
7 2 -7 3349.86 234.98 7
-7 -2 -7 3410.75 216.33 5
-7 2 -7 3197.23 246.384 8
-7 4 7 81.5411 190.329 1
7 4 7 118.086 181.521 1
7 -4 -7 170.554 202.734 6
-7 -4 -7 92.5585 234.096 8
-7 -4 -7 7.71655 193.508 5
-7 -4 -7 99.4733 263.991 7
7 4 7 223.338 275.138 3
7 -4 -7 151.487 243.805 7
8 0 0 229552 6440.82 3
0 0 -8 236247 6422.81 5
0 0 -8 238203 6439.56 7
-8 0 0 243353 6437.49 5
0 0 -8 236435 6440.8 6
-1 -1 -8 100858 2837.51 5
-1 1 -8 103149 2855.31 7
-8 1 -1 103879 2857.74 8
-8 -1 1 106250 2857.27 8
8 -1 1 107114 2858.94 2
1 1 -8 104843 2856.2 7
8 -1 -1 109002 2856.32 2
1 1 8 103070 2841.13 3
-1 -1 -8 104841 2853.43 6
-8 1 -1 103921 2853.78 5
1 1 8 104991 2861.04 4
-8 1 1 104505 2854.95 8
-1 -1 8 104570 2862.58 4
-8 -1 -1 106496 2859.37 8
1 1 -8 103035 2857.94 6
-1 1 -8 102986 2857.37 6
1 -1 -8 105503 2855.92 7
1 1 8 105816 2841.74 2
-8 -1 -1 101619 2853.22 5
1 -1 -8 104093 2853.85 6
8 0 -2 33191.1 877.407 6
0 2 8 33104.6 881.429 3
8 -2 0 34153.8 912.445 2
0 2 -8 31745.4 911.182 6
0 2 8 36624.9 907.572 1
2 0 -8 33495.3 903.334 6
-8 0 2 34843 882.877 4
8 2 0 34037.2 913.174 3
0 -2 -8 33580 875.464 5
-8 0 -2 32984.1 907.832 8
0 2 8 34170 880.577 8
-8 -2 0 34199.4 911.068 8
0 -2 -8 31223.5 876.729 8
2 0 -8 34940.8 905.607 7
2 0 8 32614.2 892.106 2
2 0 8 31580.1 917.509 4
-8 2 0 32765.8 898.817 5
0 -2 -8 35247.1 901.224 6
-2 0 -8 30860.3 901.639 7
0 2 -8 33360.1 909.662 7
0 -2 8 29150.9 920.44 4
0 -2 -8 33668.1 903.271 7
-8 -2 0 33421.9 899.504 5
-8 0 -2 34571.9 902.661 5
-2 0 -8 32261.5 901.165 6
0 2 8 31626.9 917.139 4
-8 0 2 33601.2 877.621 7
8 0 2 32765.1 912.37 3
-2 0 8 30942.2 917.722 4
2 -2 -8 5781.82 237.346 6
-8 -2 2 5603.77 257.073 8
2 -2 -8 5807.98 248.263 7
8 -2 -2 5697.8 194.196 6
8 -2 2 6489.85 262.415 2
-8 -2 -2 5879.59 231.931 5
8 2 2 5495.56 266.363 3
2 2 -8 6255.43 259.251 7
-2 -2 -8 5232.79 244.608 7
-2 2 8 5964.86 248.463 1
-2 -2 -8 5526.34 205.354 5
-8 2 -2 6246.47 236.591 5
-8 -2 -2 5563.08 265.404 8
2 2 8 5953.74 233.144 3
-2 -2 -8 5231.72 212.239 8
-2 -2 -8 5457.66 232.785 6
-2 2 -8 6292.96 254.671 6
-2 2 -8 6142.73 254.091 7
-2 -2 8 5787.04 299.143 4
-8 2 -2 6424.48 255.507 8
2 -2 8 5863.01 287.523 4
-2 2 8 5215.05 284.439 4
2 2 8 5453.36 241.201 1
2 2 8 5474.93 278.654 4
1 -3 -8 4783.85 172.294 8
-8 -3 -1 5077.45 249.946 8
-3 1 8 4884.94 279.059 4
-8 -3 -1 4506.75 217.326 5
8 3 -1 4526.48 252.219 3
-8 1 -3 5160.94 253.805 8
-8 3 1 4773.11 209.526 5
-8 1 -3 5462.79 226.854 5
1 3 8 4602.74 226.917 1
-3 -1 -8 5260.02 226.48 7
8 1 3 5189.99 265.543 3
8 -3 1 4372.87 245.594 2
8 -1 -3 5043.58 183.417 6
1 -3 -8 4886.5 231.028 6
-3 -1 -8 4728.46 218.27 8
3 1 -8 5045.53 233.842 7
-8 3 1 5716.35 248.873 8
3 1 -8 5381.95 226.451 6
8 -1 -3 5456.3 199.097 7
-3 -1 -8 5616.05 197.266 5
3 -1 -8 4870.79 220.903 6
-8 3 -1 5031.16 240.421 8
8 -3 -1 5175.58 234.845 2
-1 3 8 4065.54 222.733 1
-8 -1 -3 5537.39 220.779 5
-8 1 3 4974.69 209.7 4
-8 -3 1 4175.13 214.316 5
8 1 -3 4752.95 186.83 7
3 -1 -8 4915.91 235.122 7
8 -1 3 4465.58 246.888 2
-3 1 -8 4869.85 196.569 5
-8 1 3 4864.18 177.863 1
-8 -3 1 4964.3 244.781 8
3 1 8 4948.18 268.581 4
-3 1 -8 4993.08 226.397 6
-1 -3 -8 4674.56 244.137 7
-1 -3 -8 4747.34 195.143 8
3 1 8 4614.84 208.358 2
-1 -3 -8 5154.12 225.599 6
-3 1 -8 4848.06 229.998 7
-8 -1 -3 4784.68 246.866 8
3 1 8 4711.52 227.945 3
-3 -1 8 5193.97 276.178 4
-8 3 -1 4610.21 213.06 5
8 3 1 5263.86 256.344 3
-8 -3 -3 37899.2 1069.69 5
-3 -3 -8 38961.5 1067.58 6
-3 -3 -8 38168.8 1057.39 5
-8 -3 -3 36631.6 1082 8
3 3 8 35677.7 1069.54 3
-8 3 -3 37520.6 1076.11 8
3 3 8 38651.3 1069.72 1
-8 3 -3 37056.7 1067.31 5
-8 -3 3 37567.9 1077.05 8
-3 3 8 39231.6 1071.78 1
3 -3 -8 39826.2 1071.71 6
8 -2 -4 27875 753.818 6
4 2 -8 27225.8 779.451 6
-8 -4 -2 26350.4 786.987 8
-4 2 8 27458.1 776.411 1
8 -2 -4 25631.4 759.603 7
2 4 8 27094.9 771.329 1
-8 2 -4 25243.9 771.442 5
2 -4 -8 27053 772.904 6
2 -4 -8 27819.4 783.389 7
-4 2 8 26186.6 791.999 4
-4 -2 -8 25789.6 769.062 7
4 2 -8 25298 773.544 7
-4 -2 -8 27593.1 763.914 6
8 2 4 25992.3 787.535 3
-4 0 -8 1305.01 166.595 6
0 -4 -8 1202.17 172.702 6
8 0 -4 1349.07 137.255 6
-8 0 -4 1400.36 170.237 5
0 4 8 1262.73 174.142 1
-8 0 4 1566.58 137.55 5
4 0 -8 1225.48 177.755 6
8 0 -4 1452.59 144.292 7
-8 0 -4 1190.71 109.227 7
4 0 8 1390.23 239.174 4
8 0 -4 1447.96 179.899 3
-4 0 -8 1229.17 183.924 7
-8 0 -4 1021.07 198.719 8
-8 -4 0 1096.42 222.997 8
0 -4 -8 1405.21 209.36 7
8 0 4 1282.97 140.548 4
4 0 -8 1715.82 189.583 7
-8 0 -4 1019.01 90.872 6
-4 0 8 1293.55 237.95 4
-8 0 4 1208.7 181.823 4
-8 -2 -4 25546.2 748.034 6
4 -2 -8 28127.8 780.871 6
-2 4 8 27910.8 783.431 1
-4 -2 8 27227.7 807.034 4
-8 -2 -4 25727.1 792.096 8
4 2 8 23819.3 789.319 4
8 -2 4 29052.6 795.322 2
4 2 8 28093.2 778.109 1
-4 2 -8 27736 783.069 7
4 -2 -8 27830.3 783.977 7
-8 2 4 26725.9 761.824 1
-8 -2 -4 26830.1 779.755 5
-2 -4 -8 27295.9 790.211 7
-8 2 4 27558 765.319 5
-2 -4 -8 28030.9 779.3 6
-4 -4 -8 16101.4 520.392 7
-4 -4 -8 15097.5 485.534 5
4 4 8 17283.9 500.741 1
-4 4 8 15450.3 504.175 1
-4 -4 -8 17028.7 501.15 6
8 4 4 16093.9 537.965 3
-8 -4 -4 15476.2 501.394 5
-4 -4 -8 16537.9 510.232 8
4 -4 -8 16813.7 523.585 7
4 -4 -8 15889.6 502.251 6
-5 -3 -8 18955.7 590.987 7
3 5 8 18701.4 582.569 1
3 -5 -8 18870.7 606.393 7
-5 3 8 20518.1 584.525 1
-8 3 -5 18941.6 578.745 5
-5 -3 -8 20064.9 573.073 5
-5 -3 -8 18445.4 590.656 8
8 3 5 17510.7 605.524 3
-8 3 -5 19767.6 593.172 8
3 -5 -8 20225.2 589.325 6
8 1 5 12554.6 384.231 4
8 -1 -5 12269.6 393.052 3
5 1 -8 11954.7 404.502 7
5 -1 8 11524.6 405.669 2
-8 -1 5 13446.5 410.144 4
-8 1 -5 11837.9 369.51 7
8 1 5 12295.5 363.904 1
-8 1 -5 13024.4 402.779 5
-5 -1 -8 11847.4 387.301 6
-5 -1 -8 12180.5 384.299 5
1 -5 -8 11668 426.534 7
5 -1 8 12104.3 427.332 4
-5 1 8 12013.6 430.925 4
-8 1 -5 12088.8 417.428 8
8 -1 -5 11027.5 377.888 2
5 1 -8 12071.6 402.464 6
1 -5 -8 12189.2 400.397 6
-5 -1 -8 12290.8 402.423 8
1 5 8 11593.4 401.425 1
8 1 5 12370 434.04 3
-5 1 -8 11967.3 398.186 6
-8 -1 -5 12004.8 359.742 6
8 1 -5 12064.4 398.234 3
-1 -5 -8 10905 423.652 7
5 1 8 11835.1 417.337 3
-5 -1 8 12349.2 441.203 4
5 1 8 11805.2 420.06 4
-1 5 8 11797.2 399.168 1
-1 -5 -8 11700 393.701 6
8 -1 5 12411.2 419.405 2
-8 1 5 12203 383.801 8
-8 -1 -5 11501 415.401 8
5 1 8 13002.3 404.952 2
-5 1 -8 12603.6 392.096 5
5 -1 -8 12703.6 407.704 7
-5 1 -8 10689 395.834 7
8 1 -5 12708.4 383.468 6
-8 1 5 11184 366.306 5
5 -1 -8 12091.9 396.609 6
-5 1 -8 11997.5 403.992 8
-8 -1 -5 12853.9 400.954 5
-8 1 5 12318.7 405.929 4
-3 -5 -8 19462 588.011 8
-3 -5 -8 19986.4 607.72 7
-3 -5 -8 18138.8 572.379 6
5 -3 -8 19842.9 579.608 6
5 3 8 19759.1 574.676 1
-8 3 5 19198.9 556.419 5
8 -3 5 18377.1 603.485 2
5 -3 -8 19328.4 593.632 7
-3 5 8 20411.9 587.38 1
-8 -3 -5 20377.5 577.757 5
5 3 8 18432.7 592.803 3
-8 -3 -5 17541.8 549.264 6
8 5 5 9751.78 415.826 3
-8 -5 -5 10020 359.238 5
-5 -5 -8 9755.64 377.142 8
-5 5 8 9747.13 366.165 1
5 5 8 10882.4 359.819 1
5 -5 -8 9476.61 390.24 7
-8 -5 -5 8887.74 394.498 8
-5 -5 -8 9797.69 414.221 7
-5 -5 -8 9543.18 350.679 6
5 -5 -8 10178.6 372.535 6
-6 -4 -8 391.71 183.086 5
-6 4 8 235.789 205.206 1
-6 -4 -8 333.797 193.573 6
8 -4 -6 247.624 194.918 6
8 4 6 44.7181 269.24 3
-6 -4 -8 238.002 247.388 7
8 -4 -6 147.054 246.988 7
-8 2 -6 5549.66 254.968 5
-6 -2 -8 4909.24 237.989 5
6 2 -8 5764.12 269.052 7
-6 2 8 5048.73 259.551 1
8 2 6 5438.26 302.058 3
8 -2 -6 5418.48 226.71 2
-8 2 -6 5511.64 279.973 8
8 2 6 5430.29 211.612 1
-8 2 -6 5217.29 233.68 7
6 -2 8 5324.25 280.436 2
8 2 6 4796.29 246.71 4
-6 2 8 4193.03 160.59 5
-6 -2 -8 5141.87 237.134 6
8 -2 -6 5562.88 264.024 7
-6 -2 -8 4753.88 266.25 8
-6 -2 -8 4623.25 257.102 7
6 2 -8 5807.89 261.014 6
8 0 6 141.953 213.925 2
6 0 -8 0.61215 74.6469 5
-6 0 8 84.4716 261.249 4
-8 0 -6 111.713 156.39 6
-6 0 8 33.8594 115.364 8
6 0 -8 51.186 183.011 6
-8 0 6 104.892 136.537 5
-6 0 -8 265.106 178.881 5
8 0 -6 139.395 184.934 7
8 0 6 245.799 208.658 4
-6 0 -8 35.1094 214.497 8
6 0 8 97.8447 218.089 2
6 0 -8 66.3006 212.911 7
8 0 -6 220.209 190.568 3
-8 0 -6 29.4375 149.605 7
-6 0 -8 285.884 192.096 7
-8 0 6 327.355 177.565 8
-8 -2 -6 4689.74 240.096 7
6 -2 -8 4262.8 181.4 3
-8 -2 -6 4812.19 285.478 8
8 -2 6 5796.47 292.441 2
6 -2 -8 5561.76 253.874 6
6 -2 -8 4952.41 277.557 7
-6 2 -8 5552.1 268.703 7
6 2 8 5458.42 250.788 1
-8 2 6 5204.27 206.869 5
-8 2 6 6241.31 241.554 8
6 2 8 4784.14 292.076 4
-6 2 -8 5856.75 249.232 5
-6 -2 8 5683.81 329.519 4
-8 -2 -6 5065.28 253.653 5
-8 -2 -6 4711.64 206.487 6
8 2 -6 5305.64 262.769 7
-8 2 6 5593.7 231.268 1
-8 -4 -6 265.292 245.879 8
6 -4 -8 462.841 207.756 6
-8 4 6 361.455 186.186 1
-8 4 6 447.461 149.449 5
-8 -4 -6 403.01 191.462 5
6 4 8 88.5225 268.824 3
6 -6 -8 6459.12 347.099 6
8 -5 -7 6.23088 242.322 6
-7 -5 -8 1.80708 216.615 6
-7 -5 -8 6.33574 215.126 5
-7 -5 -8 102.097 266.155 8
8 5 7 30.298 308.445 3
-7 3 8 1781.5 212.927 1
-7 3 8 2197 139.064 5
-8 3 -7 1815.15 203.604 5
-8 3 -7 1411.89 240.461 8
-7 -3 -8 1605.74 243.475 7
-7 -3 -8 1651.07 207.391 5
-7 -3 -8 1491.66 257.431 8
8 -3 -7 2162.06 257.717 7
8 3 7 1346.24 289.792 3
-7 -3 -8 2032.49 200.767 6
8 -3 -7 2109.67 218.702 6
7 3 -8 1580.61 226.798 7
-8 -1 7 24391.3 701.888 4
7 1 -8 22648 678.72 7
8 -1 -7 22269.2 653.597 3
8 -1 -7 21624.5 645.193 2
7 1 -8 22823.2 673.846 6
-8 1 -7 22138.7 676.557 5
-8 -1 7 22648.2 658.081 8
7 -1 8 22874.2 694.032 2
8 -1 -7 22470.8 672.132 7
-7 -1 -8 20853.1 662.191 7
8 1 7 22545.4 700.894 3
-8 1 -7 22797.3 688.116 8
8 -1 -7 23979 666.403 6
7 -1 -8 23380.2 670.15 6
-8 -1 -7 21200.2 647.622 6
8 1 -7 23331.3 669.077 6
-7 1 -8 22951.9 669.795 5
8 -1 7 22950.3 687.358 2
-8 -1 -7 22223.4 669.113 5
7 1 8 21726.7 684.929 2
-8 1 7 21746.8 645.485 8
7 1 8 21399.6 693.029 3
-8 -1 -7 21981.8 681.987 8
-7 -1 8 21666.6 647.082 8
-7 -1 8 24180.1 703.992 4
-7 1 -8 23282.1 665.729 7
-8 1 7 21903.2 634.933 5
7 -1 -8 22905.9 638.552 3
-8 -3 -7 1401.66 265.109 8
7 -3 -8 2008.67 223.001 6
-8 3 7 1961.4 159.732 5
-8 3 7 2081.45 201.097 1
7 3 8 1803.08 201.718 1
8 -3 7 1805.22 272.305 2
7 -3 -8 2181.17 263.761 7
-7 3 -8 1516.33 196.311 5
-8 -3 -7 1723.98 210.401 5
7 3 8 2244.62 288.243 3
8 3 -7 1796.74 222.876 7
7 5 8 145.549 302.178 3
-8 -5 -7 228.598 276.065 8
7 -5 -8 553.752 285.144 7
8 0 -8 24551.7 718.104 6
-8 0 -8 25905.8 725.773 5
-8 0 8 23848.9 695.899 8
-8 0 -8 22563.7 739.849 8
8 0 8 24645.5 743.22 2
-8 0 -8 22764.3 708.794 7
-8 0 8 25869.2 756.457 4
-8 -2 8 29332.6 825.781 8
-8 2 8 28823.9 795.037 5
8 -2 8 27943.5 853.62 2
-8 2 8 28802 830.373 1
-8 2 -8 28162.4 837.464 5
-8 -2 -8 28252.4 833.281 5
8 -2 -8 30846.2 836.531 6
-8 -2 -8 26258 826.756 7
8 2 -8 28906 841.255 7
-8 2 -8 26575.4 829.79 7
-8 2 8 30104 809.482 8
-8 -2 -8 25849 843.053 8
8 -2 -8 28978.9 841.374 7
8 -2 -8 27389.7 808.087 2
8 2 -8 28795 844.157 6
-8 -2 8 29433.4 874.835 4
-8 4 8 325.038 227.484 1
-8 -4 -8 173.443 214.177 5
8 4 8 216.996 315.76 3
-8 -4 -8 151.612 274.815 8
8 -4 -8 340.726 284.697 7
8 4 8 494.365 222.987 1
-8 -4 -8 627.897 300.291 7
-8 -4 -8 36.0891 205.194 6
8 6 8 2.98346 336.327 3
-8 -6 -8 362.776 303.767 8
8 -6 -8 286.116 296.425 6
-8 -6 -8 294.085 251.071 5
0 1 -9 2610.37 204.631 6
0 -1 -9 2780.34 139.733 8
1 0 9 2774.68 266.845 4
-9 0 1 2705.43 221.834 8
-9 1 0 2579.58 188.605 5
0 -1 -9 2959.23 124.311 5
-9 -1 0 2462.87 185.653 5
0 1 9 2846.01 138.079 2
9 0 1 2584.47 235.411 3
-1 0 -9 2725.63 141.421 5
-1 0 -9 2488.47 208.165 7
-9 1 0 2322.58 220.203 8
-9 0 1 3055 187.423 5
0 -1 9 2014.24 263.302 4
9 1 0 2699.3 231.506 3
0 1 9 2650.23 157.398 3
1 0 -9 2623.33 121.922 2
-9 0 -1 3086.29 190.657 5
0 -1 -9 2592.91 196.634 6
-9 -1 0 2556.33 225.762 8
0 -1 -9 2685.62 209.083 7
9 -1 0 2492.84 211.457 2
1 0 -9 2621.39 203.086 6
1 0 -9 2429.55 213.591 7
-9 0 -1 2922.83 226.908 8
0 1 9 2383.71 251.126 4
-1 0 -9 2847.22 199.192 6
9 1 2 9504.77 380.226 3
9 -1 -2 9814.95 298.775 6
1 -2 -9 10236.9 346.081 6
-1 -2 9 9739.03 400.688 4
-9 2 1 9938.99 338.585 5
1 -2 -9 10195.6 358.58 7
9 -2 1 9219.6 360.609 2
-9 1 -2 10235.7 346.896 5
9 -1 -2 10666 317.328 7
9 -1 -2 9913.78 345.352 2
2 1 -9 10392.9 355.948 6
9 2 -1 10065 373.326 3
-2 1 9 8583.07 392.811 4
1 2 9 10034.2 389.476 4
9 -1 -2 9718.46 364.204 3
-9 -1 2 10673.3 365.746 8
1 2 9 9821.8 328.389 3
-9 2 1 10348.4 308.41 7
2 1 -9 10298.6 353.439 7
-1 2 -9 10060.2 363.739 6
-1 2 -9 9508 362.41 7
-9 -2 -1 9644.24 369.277 8
-9 -2 -1 10238.5 340.129 5
-9 -1 2 10119.6 332.617 5
-2 -1 9 9014.61 389.73 4
-9 -1 -2 10229.1 336.397 5
2 -1 -9 9921.38 351.915 7
1 2 -9 10098.8 349.58 7
-9 -1 -2 8518.62 360.094 8
2 -1 -9 10033.9 341.835 6
9 2 1 9843.2 369.231 3
-9 1 2 10193.3 353.013 8
2 1 9 9214.26 319.822 2
9 -2 -1 8922.07 289.071 1
9 1 -2 10317.8 360.597 3
-2 1 -9 9661.48 311.216 5
9 -2 -1 10229.2 350.033 2
1 -2 9 9799.07 391.625 4
2 1 9 8749.27 328.261 3
-9 2 -1 10610.5 336.446 5
-1 -2 -9 10209.6 300.553 5
-1 -2 -9 9212.68 307.023 8
-2 1 -9 10348.4 352.335 6
9 1 -2 10101.1 293.874 7
-9 1 2 10828.4 329.598 5
-1 -2 -9 10426 348.238 7
-1 2 9 8980.16 385.162 4
1 2 -9 10684.9 356.684 6
-9 -2 1 9641.33 329.883 5
-9 1 2 8503.97 308.639 4
2 1 9 9240.53 384.2 4
2 3 9 657.097 188.496 1
3 2 -9 741.118 211.456 7
9 -2 -3 598.455 133.725 6
2 -3 -9 591.884 186.056 6
-9 -3 -2 903.42 233.736 8
9 2 3 762.201 249.476 3
-9 2 -3 1003.74 208.96 8
-9 -2 3 732.577 169.635 5
3 -2 9 1029.31 261.504 4
9 -3 2 632.932 217.803 2
9 2 3 597.316 88.967 7
-9 3 2 1060.84 212.332 8
-9 2 -3 680.52 195.934 5
-3 -2 -9 653.836 201.123 7
9 -2 -3 705.078 182.437 2
-3 -2 -9 657.658 144.538 5
-9 3 2 728.141 168.282 5
-3 2 9 706.809 266.629 4
-3 -2 -9 707.625 183.426 6
-9 -3 -2 661.945 176.09 5
2 -3 -9 539.486 223.926 7
3 2 -9 588.484 201.926 6
2 3 9 550.68 192.967 3
-3 0 9 3291.7 289.771 4
9 3 0 3790.73 270.194 3
3 0 -9 3871.65 221.217 6
-3 0 -9 3804.45 221.949 6
-9 0 3 3802.49 235.981 8
9 0 -3 3912.41 248.702 3
3 0 9 3342.31 280.698 4
-9 0 -3 3878.09 218.075 5
0 -3 -9 3502.75 169.113 8
9 0 3 3689.92 243.711 2
-9 3 0 3326.62 206.831 5
9 0 3 3706.4 265.792 3
-3 0 -9 3467.02 180.816 5
-9 3 0 3396.98 241.635 8
0 3 9 3991.1 228.288 1
-9 0 -3 3896.18 247.595 8
9 0 -3 3791.39 169.628 6
9 0 -3 3755.36 168.043 7
-9 0 3 3195.54 202.312 4
3 0 -9 3218.73 233.538 7
-9 -3 0 3904.24 254.863 8
-3 0 -9 3904.95 231.399 7
0 -3 -9 3761.82 246.164 7
0 -3 -9 4193.84 220.533 6
9 -3 0 3540.48 240.04 2
-2 -3 -9 816.175 183.823 6
3 -2 -9 763.947 186.389 6
-2 -3 -9 633.039 129.802 5
9 3 2 1073.14 231.216 3
-3 2 -9 772.626 216.733 7
-3 -2 9 770.563 279.004 4
-3 2 -9 758.753 207.566 6
9 -2 3 772.652 216.444 2
-9 -3 2 967.133 227.526 8
3 2 9 786.691 202.358 3
-2 -3 -9 627.033 163.318 8
-9 -2 -3 400.161 231.107 8
-9 3 -2 753.65 207.8 8
-9 -3 2 712.861 178.492 5
3 -2 -9 846.047 204.844 7
-9 3 -2 685.942 179.622 5
-2 3 9 722.123 199.74 1
9 -3 -2 658.537 204.224 2
-9 -2 -3 721.633 182.05 5
9 2 -3 681.877 222.063 3
3 2 9 1076.76 253.426 4
9 2 -3 992.824 156.123 7
3 -4 -9 529.37 209.128 6
-4 -3 -9 666.461 194.944 6
-9 -3 4 627.969 222.374 8
-4 -3 -9 581.379 203.878 8
-4 -3 -9 609.386 232.152 7
-4 3 9 603.642 215.361 1
-9 4 3 685.433 178.258 5
-9 3 -4 503.541 197.449 5
-9 -4 -3 669.248 200.952 5
3 -4 -9 624.725 243.513 7
9 -3 -4 929.297 205.831 2
-9 3 -4 690.586 226.169 8
9 -3 -4 675.807 163.655 6
-9 -4 -3 599.368 245.189 8
9 3 4 848.854 269.235 3
1 -4 -9 9208.38 346.128 6
9 1 4 9296.24 302.763 4
9 1 4 8940.34 285.72 7
9 1 4 9364.93 279.363 1
-4 -1 -9 9200.88 330.374 6
9 1 4 8907.1 383.348 3
-9 1 -4 8642.54 365.308 8
9 -1 -4 9745.04 335.784 2
-9 1 -4 10168.1 345.473 5
-9 -4 -1 9444.85 376.367 8
-9 -4 -1 8921.77 335.507 5
-9 4 1 8828.11 331.711 5
4 1 -9 9348.44 347.087 6
-4 -1 -9 9652.86 348.26 7
1 -4 -9 8360.7 367.197 7
-9 -1 4 9511.41 349.369 8
1 4 9 9996.84 343.572 1
-4 -1 -9 9481.9 336.499 8
-9 1 -4 9301.46 289.228 7
-9 -1 4 10245.5 346.512 4
-4 1 9 10036.5 390.822 4
9 4 1 9027.03 375.582 3
-9 -1 -4 8850.38 283.473 6
-4 -1 9 9661.84 399.83 4
9 1 -4 9667.59 312.726 6
9 1 -4 10048.6 315.808 7
-9 1 4 9274.15 340.74 8
9 -1 4 9666.56 368.991 2
-4 1 -9 9415.53 352.856 7
4 1 9 8755.47 338.504 2
-1 4 9 8861.81 349.324 1
-9 -1 -4 10430.6 343.902 5
-4 1 -9 9939.15 341.106 8
-4 1 -9 10350.5 328.929 5
-1 -4 -9 9098.37 317.145 8
-9 -1 -4 8928.31 368.521 8
-4 1 -9 10150.5 352.249 6
4 -1 -9 9860.71 357.564 7
-9 1 4 8938.01 334.957 4
-1 -4 -9 9499.91 371.732 7
4 1 9 8749.66 382.906 4
-3 -4 -9 644.926 196.134 6
4 -3 -9 843.154 209.074 6
9 4 3 363.446 257.574 3
4 3 9 742.413 204.05 1
-9 -3 -4 792.315 124.24 6
9 -3 4 643.899 227.065 2
-3 4 9 632.635 203.749 1
-9 3 4 738.75 219.418 8
-9 -3 -4 582.996 191.277 5
-5 -4 -9 17.6893 191.552 5
4 -5 -9 15.266 222.54 6
-5 -4 -9 403.657 246.262 8
-5 4 9 202.483 206.132 1
-9 -5 -4 226.943 255.645 8
4 -5 -9 45.7407 257.088 7
4 5 9 312.898 216.946 1
-9 -5 -4 439.154 210.858 5
9 -4 -5 152.443 201.194 6
-5 -4 -9 180.734 253.075 7
9 4 5 470.165 282.533 3
-5 -2 -9 363.472 184.699 6
-5 -2 -9 541.914 217.5 8
2 -5 -9 448.522 204.892 6
5 2 -9 454.75 224.604 7
9 2 5 432.81 175.139 4
2 5 9 529.452 204.213 1
5 2 -9 575.808 222.878 6
-9 2 -5 199.013 225.356 8
2 -5 -9 638.884 249.605 7
9 2 5 721.287 277.502 3
-5 2 9 586.507 285.46 4
-5 2 9 398.635 207.242 1
-9 2 -5 499.591 204.561 5
-5 -2 -9 535.131 170.262 5
5 0 -9 3147.85 226.752 6
-5 0 -9 3185.6 215.664 6
-9 0 -5 2712.89 151.683 6
-5 0 -9 3030.32 241.068 8
0 5 9 3242.9 225.76 1
-5 0 9 2617.75 301.987 4
5 0 9 2666.42 280.702 4
5 0 9 2620 234.335 2
9 0 5 3162.5 261.94 2
9 0 -5 2738.29 190.757 6
-5 0 -9 2867.91 202.971 5
5 0 -9 3068.05 241.582 7
-9 0 5 2761.91 241.584 4
-9 0 -5 2564.13 158.838 7
-9 0 -5 2939.65 263.46 8
0 -5 -9 3467.07 269.905 7
9 0 5 3555.44 291.09 3
9 0 5 3605.34 218.882 4
-9 0 -5 2888.79 223.838 5
0 -5 -9 3117.15 225.274 6
-5 0 -9 2803.45 231.004 7
-2 -5 -9 469.37 199.61 6
-9 -2 -5 406.839 197.839 5
-2 5 9 719.719 214.957 1
5 -2 -9 392.728 199.355 6
-5 2 -9 261.941 173.287 5
5 2 9 394.973 263.427 4
-5 -2 9 611.326 295.085 4
9 -2 5 381.275 240.651 2
-2 -5 -9 281.03 245.678 7
5 -2 -9 393.038 227.361 7
-5 2 -9 411.76 219.033 7
-9 -2 -5 409.063 181.199 7
5 2 9 478.835 198.501 1
-9 -2 -5 498.106 122.925 6
9 5 4 112.373 284.329 3
-4 5 9 214.322 217.665 1
-4 -5 -9 222.503 224.607 8
5 4 9 173.806 213.743 1
-9 -4 -5 293.11 259.877 8
5 -4 -9 261.154 219.703 6
-4 -5 -9 73.6993 277.685 7
5 -4 -9 302.716 259.483 7
-9 -4 -5 103.21 201.592 5
-4 -5 -9 90.1544 216.357 6
5 4 9 350.991 268.588 3
9 5 6 91.5246 313.783 3
9 -5 -6 555.867 246.1 6
-6 -5 -9 246.572 210.737 5
5 -6 -9 390.654 296.337 7
-6 -5 -9 462.91 268.031 8
-6 -5 -9 638.496 230.307 6
9 -3 -6 3836.03 232.524 6
3 -6 -9 3564.87 275.147 6
-9 3 -6 3577.97 277.576 8
-6 -3 -9 3777.54 232.769 6
-6 -3 -9 3692.67 230.588 5
-6 -3 -9 3577.62 281.111 8
-6 -3 -9 3496.5 276.37 7
-6 3 9 3264.96 256.834 1
-9 3 -6 3185.73 241.25 5
3 -6 -9 3640.33 304.312 7
6 3 -9 3194.52 259.247 7
9 1 6 1489.93 222.735 4
1 -6 -9 1649.5 227.925 6
6 1 -9 1767.41 221.727 6
1 -6 -9 1157.82 278.275 7
-9 1 -6 1665.15 228.154 5
-6 -1 -9 1588.93 208.331 6
-9 1 -6 1525.96 255.302 8
6 -1 9 1274.12 291.797 4
-6 1 9 1887.85 307.917 4
-6 -1 -9 1415.03 228.84 7
-6 -1 -9 1712.84 201.934 5
1 6 9 1528.51 228.251 1
9 -1 -6 1077.24 215.75 3
9 1 6 1723.33 162.882 1
6 -1 9 1758.25 250 2
6 1 -9 1596.22 240.925 7
9 -1 -6 1286.76 209.866 7
9 1 6 1350.89 285 3
-9 1 -6 1333.16 177.001 7
-9 1 6 1317.79 165.446 5
-1 -6 -9 1257.82 217.084 6
-9 1 6 1174.62 180.602 1
6 -1 -9 1633.29 220.288 6
-6 -1 9 1592.76 300.568 4
-9 -1 -6 1186.57 259.084 8
-6 1 -9 1399.92 243.157 8
-6 1 -9 1907.25 238.811 6
-1 -6 -9 1725.11 272.796 7
-6 1 -9 1364.42 213.961 5
-6 1 -9 1356.95 236.739 7
6 1 9 1268.25 268.03 3
-9 -1 -6 1481.16 217.125 5
9 -1 6 1074.62 257.855 2
9 1 -6 1408.62 214.97 7
6 1 9 1277.59 279.026 4
6 -1 -9 1794.62 251.147 7
6 1 9 1815.99 234.24 2
-1 6 9 1407.2 228.65 1
-9 3 6 3740.26 217.159 1
6 -3 -9 3924.26 287.156 7
6 3 9 3631.65 239.266 1
-9 -3 -6 3806.68 248.423 5
-9 -3 -6 3187.25 289.518 8
6 3 9 3247.11 311.874 3
9 -3 6 3529.16 286.248 2
-3 6 9 3605.03 259.681 1
6 -3 -9 2664.83 131.542 8
9 3 -6 3717.52 234.151 7
6 -3 -9 3558.99 248.833 6
-3 -6 -9 3457.86 242.425 6
-9 -5 -6 562.893 288.467 8
6 5 9 434.455 225.953 1
-5 -6 -9 659.577 289.141 8
-9 -5 -6 669.051 222.159 5
6 5 9 955.172 298.704 3
9 6 7 264.234 347.808 3
-7 -6 -9 4.39201 263.666 6
-7 -6 -9 187.779 310.895 8
-7 6 9 178.136 265.966 1
-7 -4 -9 4850.55 271.398 6
-7 4 9 4067.65 185.334 5
-7 -4 -9 4521.17 270.116 5
-7 4 9 4787.05 276.211 1
-7 -4 -9 4309.65 325.743 8
9 4 7 4041.73 355.788 3
9 -4 -7 4300.16 334.227 7
9 -4 -7 4875.6 272.683 6
9 -2 -7 5750.8 271.237 6
7 2 -9 5419.01 297.253 6
-7 -2 -9 4376.41 300.523 8
-7 -2 -9 5050.8 291.551 7
-9 2 -7 5194.73 286.199 5
-7 -2 -9 5414.79 260.922 5
-7 -2 -9 5292.35 259.628 6
-7 2 9 4151.09 170.225 5
9 -2 -7 5063.4 293.343 7
9 -2 -7 5327.48 265.54 3
-7 2 9 5098.85 285.93 1
-7 2 9 5683.94 362.368 4
-9 2 -7 4950.5 311.351 8
9 2 7 4706.33 350.903 3
9 2 7 5075.48 281.829 4
9 -2 -7 4926.97 246.958 2
-7 0 9 9615.13 436.777 4
7 0 9 10617.3 427.561 4
-9 0 -7 10041.4 378.336 5
9 0 -7 10070.5 374.791 3
-7 0 -9 10491.9 384.353 7
9 0 7 9127.54 413.348 2
7 0 9 10602.3 405.945 2
-9 0 7 10624 417.183 4
-7 0 -9 9714.26 397.653 8
7 0 -9 10162.9 380.81 6
-7 0 -9 10220.4 370.691 6
-9 0 -7 8897.23 408.379 8
9 0 7 11171.9 408.368 4
7 0 -9 10487.2 399.309 7
-9 0 -7 10631.1 359.995 6
-9 0 7 9981.05 335.563 5
7 -2 -9 6292.72 300.004 6
-7 -2 9 5329.2 385.642 4
-7 2 -9 5217.93 310.689 8
-9 2 7 5145.26 221.955 5
9 -2 7 5368.72 331.599 2
7 2 9 5091.38 270.478 1
-9 -2 -7 5545.31 280.933 5
7 2 9 5374.53 345.805 3
-7 2 -9 5418.72 280.949 5
-9 2 7 5111.07 257.659 1
-9 -2 -7 4715.51 323.446 8
7 -2 -9 4588.86 201.661 3
-9 -2 -7 4822.35 230.077 6
-9 2 7 6330.5 264.638 8
-7 2 -9 5665.57 300.888 7
-9 4 7 4294.84 259.765 1
7 -4 -9 4667.06 286.119 6
-9 4 7 4234.63 228.489 5
7 4 9 4633.77 353.159 3
-9 -4 -7 4543.33 326.52 8
7 4 9 4725.81 272.631 1
7 -6 -9 209.211 346.958 7
-9 -6 -7 81.3329 317.727 8
-8 -5 -9 2523.24 267.096 5
9 -5 -8 1949.2 289.624 6
9 -5 -8 1985.51 339.839 7
-8 -5 -9 2425.73 267.724 6
-8 3 9 1485.91 237.436 1
9 3 8 392.55 332.317 3
-8 -3 -9 951 218.026 6
9 3 8 711.567 219.697 1
-8 3 9 1173.76 144.99 5
-8 -3 -9 627.03 233.177 5
-9 3 -8 314.3 275.347 8
-9 3 -8 522.413 232.963 5
9 -3 -8 621.323 243.404 6
8 -1 9 3864.38 363.071 4
-8 -1 -9 3331.52 245.308 6
8 1 -9 3789.38 294.921 7
8 -1 9 3750.21 305.014 2
9 -1 -8 3507.28 204.938 2
9 1 8 3640.34 306.523 2
-8 -1 -9 3003.59 263.937 7
9 1 8 3790.07 344.742 3
9 -1 -8 3732.45 256.588 6
-8 -1 -9 3247.15 306.297 8
8 1 -9 3632.57 276.585 6
-9 1 -8 3234.91 252.174 7
-9 -1 8 3793.68 353.158 4
-9 1 -8 3720.42 281.699 5
-8 -1 -9 3236.67 260.138 5
9 -1 -8 3577.2 277.636 7
9 -1 -8 3731.76 245.018 3
-8 1 9 3272.63 343.046 4
-8 1 9 3534.18 172.139 5
8 1 9 3309.8 328.801 4
-9 -1 -8 3560.81 269.883 5
-8 1 -9 3953.56 279.865 6
-8 1 -9 4036.62 305.277 8
9 -1 8 3439.92 312.932 2
8 -1 -9 3179.32 192.097 2
-9 1 8 3375.62 326.695 4
8 1 9 3744.2 310.526 2
-8 1 -9 3528.54 275.312 5
-9 1 8 4192.9 229.669 8
-8 -1 9 3772.42 236.034 8
8 -1 -9 4472.21 273.875 6
-9 -1 -8 3074.32 307.423 8
8 -1 -9 3635.52 302.087 7
8 1 9 2985.75 339.532 3
9 1 -8 3483.74 291.881 7
-8 -1 9 3859.48 359.259 4
9 1 -8 3531.06 263.373 6
9 -3 8 1010.99 305.092 2
8 3 9 988.757 295.305 4
8 -3 -9 705.77 251.967 6
-9 -3 -8 923.903 202.495 6
-9 -3 -8 565.485 303.176 8
-8 3 -9 591.426 225.783 5
-9 -3 -8 468.889 236.551 5
-9 -3 -8 985.034 269.161 7
9 3 -8 838.061 274.077 7
8 3 9 484.498 330.953 3
8 5 9 2383.08 373.898 3
-9 -5 -8 2364.87 251.664 6
-9 -5 -8 2218.11 328.489 8
8 -5 -9 2149.32 346.864 7
-9 5 8 2217.17 222.915 5
8 -5 -9 2058.93 276.624 6
9 0 9 12036.8 486.754 4
-9 0 -9 11691.4 413.256 6
-9 0 9 11730.3 494.196 4
-9 0 -9 11505.1 435.418 5
-9 0 -9 10817.1 463.302 8
9 0 -9 11761.5 454.37 7
-9 0 -9 11137.3 414.019 7
-9 0 9 11340.8 391.965 8
9 0 -9 11354.4 427.676 6
-9 2 9 1474.36 352.088 4
9 2 9 1258.87 314.093 4
-9 2 -9 1423.1 302.293 8
9 2 9 1464.29 242.703 1
9 2 -9 2192.63 310.106 7
9 2 9 1418.03 359.951 3
-9 -2 -9 1736.8 259.117 5
-9 -2 -9 1418.35 271.4 7
9 -2 -9 1668.65 309.681 7
-9 -2 -9 1739.45 226.988 6
-9 2 -9 1631.93 285.794 7
-9 2 9 1852.91 256.676 1
-9 -2 -9 1422.84 312.48 8
9 -4 -9 1660.91 278.442 6
-9 -4 -9 2319.29 248.168 6
9 -4 -9 2241.26 335.329 7
-9 -4 -9 1755.9 271.874 5
9 4 9 2454.26 276.44 1
0 0 10 4962.86 326.29 4
0 0 -10 5129.71 264.967 6
-10 0 0 5260.5 249.678 5
0 0 -10 5633.34 273.996 7
0 0 -10 5159.81 189.465 5
10 0 0 5158.99 304.675 3
-10 0 0 5066.62 290.031 8
-1 -1 10 10377.8 421.004 4
1 -1 10 10750.9 419.948 4
-1 1 -10 10220.1 372.686 6
-10 1 1 10428.2 378.169 8
-1 -1 -10 11134.2 332.063 8
1 1 10 9751.01 325.177 2
1 1 -10 9999.44 373.256 6
10 -1 1 9466.01 374.801 2
10 -1 -1 10514.1 366.544 2
-1 1 -10 9335.42 318.629 5
-10 -1 1 10309.8 384.202 8
-1 -1 -10 10387 363.332 6
1 1 10 10324 338.347 3
-10 1 -1 11215.2 361.343 5
-10 1 1 10197.8 348.078 5
-10 1 -1 10330.5 383.928 8
1 -1 -10 9967.07 290.032 5
-10 -1 -1 9936.45 383.07 8
10 1 -1 9977.14 387.49 3
-1 1 10 8757.14 296.142 8
-10 -1 1 10666 348.96 5
10 1 1 10419.4 400.223 3
-10 -1 -1 11085.7 354.707 5
1 -1 -10 9918.51 367.423 6
-1 -1 -10 9904.24 369.268 7
-1 -1 -10 9338.46 308.654 5
-1 1 10 9329.48 302.211 3
-1 1 10 10243.8 419.903 4
1 1 10 10524.4 418.947 4
-2 0 10 12077.9 453.99 4
0 -2 -10 11881.4 399.189 6
-10 0 2 11086.8 360.253 4
2 0 -10 11167.4 401.402 6
-2 0 -10 12179.6 403.896 6
10 0 -2 11015.2 342.371 6
10 -2 0 12846 415.346 2
0 2 10 11998.7 351.721 2
0 2 10 11915.2 363.174 3
-10 0 2 10942.2 336.22 1
-2 0 -10 11160.8 371.256 8
10 0 2 11557.3 435.695 3
-2 0 -10 11987.5 361.874 5
-10 0 -2 12214.4 397.692 5
10 0 -2 12529.8 426.541 3
0 -2 -10 11744.8 356.352 8
-10 -2 0 10743.3 386.728 5
10 2 0 11404.4 422.918 3
0 -2 -10 11515.2 343.7 5
10 0 -2 11207.1 345.536 7
0 -2 -10 11287.4 408.791 7
0 2 -10 11243.7 414.538 7
-10 0 2 12243.7 347.856 7
0 2 10 11436.1 450.828 4
2 0 10 11542.3 455.235 4
-2 0 -10 11078.5 403.525 7
2 0 10 11349.9 376.298 2
2 0 -10 12230.9 404.81 7
-10 2 0 11450.6 412.358 8
10 -2 -2 690.688 212.297 2
10 -2 -2 736.723 129.558 6
-10 -2 -2 514.324 248.725 8
-10 2 -2 856.993 193.153 5
-2 -2 -10 901.685 200.049 6
-2 -2 -10 1195.79 228.699 7
-2 -2 -10 720.759 172.216 8
-2 -2 10 956.526 292.741 4
2 2 -10 638.323 226.036 6
10 -2 2 710.769 239.602 2
2 -2 10 484.059 296.086 4
-2 2 -10 559.494 236.928 6
10 2 2 454.391 257.9 3
-10 -2 2 1152.76 240.915 8
-10 2 2 834.37 191.322 5
-2 2 -10 888.458 230.287 7
2 -2 -10 944.807 229.688 7
-10 -2 -2 892.393 192.281 5
-2 -2 -10 985.614 147.064 5
2 2 10 565.89 206.842 3
-10 -2 2 887.024 192.267 5
2 2 10 702.814 280.488 4
10 2 -2 576.869 250.547 3
2 -2 -10 908.888 210.472 6
2 2 -10 653.139 227.674 7
10 2 -2 978.363 151.448 7
10 -1 -3 10455 324.891 6
-10 -1 3 9921.23 354.795 5
3 1 -10 11275.3 385.447 6
10 -1 -3 11287 375.694 2
10 -1 -3 10674.4 343.654 7
-10 -3 -1 11118.9 412.182 8
-10 -3 -1 10590.5 369.92 5
1 3 10 10422.8 357.394 3
-10 -1 3 10227.3 395.395 8
-10 3 1 11301.5 390.661 8
10 -1 -3 11473.3 403.017 3
-10 1 -3 10740.2 379.354 5
10 1 3 11113.3 419.725 3
1 3 10 10664.5 384.324 1
-3 -1 -10 10452.5 372.467 6
-3 -1 -10 10505.1 386.112 7
-10 3 1 10488.4 363.061 5
1 -3 -10 9262.79 312.143 8
1 -3 -10 10708.5 378.032 6
3 -1 10 10576.3 435.465 4
-1 -3 -10 10582.8 329.044 5
-1 -3 -10 10426.1 381.612 6
-3 -1 10 10216.9 431.237 4
3 -1 -10 11325.6 381.181 6
-3 1 -10 11155.9 394.424 6
-10 -1 -3 10733.2 378.961 5
10 -3 -1 11406.7 402.156 2
-10 -3 1 10102.9 406.807 8
-10 3 -1 9876.91 374.609 5
-10 3 -1 10362.3 395.645 8
-10 1 3 10775.6 359.598 5
-10 1 3 10354.2 388.727 8
10 1 -3 10667.5 397.774 3
3 1 10 10532.3 427.251 4
-3 1 -10 9917.54 389.089 7
-1 -3 -10 10189.1 396.215 7
3 -1 -10 10362.3 396.467 7
-1 -3 -10 10065.9 343.179 8
-1 3 10 11232.8 390.495 1
10 1 -3 10761.8 334.607 7
-10 1 3 10751.6 353.28 4
-10 -1 -3 11077.4 404.053 8
-3 -3 -10 29344 843.198 6
10 -3 -3 30922 852.947 2
-10 -3 3 29466.9 837.948 5
-10 -3 -3 28224.3 859.504 8
10 3 3 26985.4 866.744 3
-10 3 -3 27919.7 843.651 5
-10 3 3 28871.1 833.299 5
-10 3 3 30577.4 848.585 8
-10 -3 3 27902.9 851.501 8
10 3 3 28592 811.455 7
3 -3 -10 27331.9 858.271 7
3 3 10 29797.8 847.637 1
10 -3 -3 29216.1 817.238 6
2 -4 -10 5602.94 276.78 6
10 -2 -4 5528.38 227.225 6
4 -2 10 4841.74 353.778 4
-4 -2 -10 5204.9 264.891 6
10 -2 -4 5125.48 267.592 2
-4 2 10 4839.9 348.272 4
2 4 10 4624.79 274.189 1
-10 4 2 4924.85 248.207 5
-10 2 -4 4704.46 276.484 5
10 2 4 4654.49 332.177 3
-10 -2 4 5292.48 296.596 8
-10 -4 -2 4976.44 312.138 8
2 -4 -10 5006 200.573 8
4 2 -10 5011.8 294.727 7
10 -2 -4 5563 256.819 7
-4 -2 -10 4628.03 284.244 7
10 -4 2 5215.58 312.694 2
-10 -2 4 5996.81 248.207 5
2 -4 -10 4846.59 310.292 7
-4 -2 -10 4879.73 238.533 5
10 2 4 4504.53 203.286 4
-4 0 10 8604.1 403.636 4
-10 0 4 8997.6 334.83 4
10 4 0 9366.53 378.994 3
4 0 -10 8606.58 340.44 6
10 0 -4 9724.39 302.096 6
0 -4 -10 8887.67 345.772 6
4 0 10 8971.12 340.187 2
10 0 4 7790.26 368.401 2
-10 4 0 8636.39 331.427 5
10 0 4 8843.39 390.937 3
-10 4 0 9932.95 361.793 8
-4 0 -10 9047.94 311.284 5
-10 0 -4 9793.29 344.717 5
-10 0 -4 9530.65 371.828 8
-10 0 4 9010.15 350.741 8
10 0 -4 9397.51 357.58 3
0 -4 -10 8880.96 299.16 8
10 0 4 7738.24 259.129 1
-10 -4 0 9022.89 333.819 5
4 0 -10 9227.52 352.359 7
-4 0 -10 9171.09 336.353 6
0 -4 -10 8657.71 371.526 7
10 0 -4 8956.85 297.673 7
-4 0 -10 9686.45 354.766 7
-10 -4 0 9079 371.988 8
10 -4 0 9601.04 370.585 2
4 0 10 8739.38 405.907 4
10 0 4 6992.39 257.838 6
-10 -2 -4 4581.3 174.994 6
10 2 -4 5388.61 307.52 3
4 -2 -10 4862.85 277.349 6
-4 -2 10 5266.69 363.526 4
-4 2 -10 5859.5 299.683 6
10 2 -4 5746.04 250.295 7
10 4 2 4938.85 322.449 3
-4 2 -10 5184.29 239.949 5
-10 4 -2 4803.02 268.64 5
-10 4 -2 5689.27 296.227 8
4 2 10 5043.89 301.046 3
-10 -2 -4 4933.89 267.314 5
-10 -4 2 4951.7 303.742 8
-2 -4 -10 4791.04 303.407 7
4 -2 -10 5382.44 296.99 7
-10 2 4 5269.36 221.413 1
4 4 10 77.814 229.742 1
-4 -4 -10 100.641 225.665 6
4 4 10 31.0643 272.287 3
10 -4 4 50.0512 265.24 2
-10 -4 -4 234.815 282.165 8
10 4 4 108.763 297.892 3
-10 4 -4 27.6845 210.491 5
4 -4 -10 287.93 235.191 6
-4 -4 -10 365.516 230.301 8
-4 4 10 27.4414 226.145 1
-4 -4 -10 172.861 271.373 7
4 -4 -10 134.265 276.28 7
-4 -4 -10 31.8641 191.333 5
-5 -3 -10 6665.71 296.799 6
10 -3 -5 6406.07 303.276 2
3 5 10 6612.45 308.698 1
-10 -5 -3 6247.82 303.997 5
-10 3 -5 6957.45 302.633 5
-10 3 -5 5629.65 326.838 8
-5 -3 -10 5653.96 307.659 8
-5 3 10 6685.91 311.333 1
-10 -3 5 6465.64 327.762 8
10 3 5 5988.97 374.266 3
-5 -3 -10 6590.96 282.118 5
3 -5 -10 6311.19 314.991 6
10 -3 -5 7022.76 322.97 7
-5 -3 -10 6472.96 341.914 7
-5 -1 -10 1043.96 212.577 6
1 -5 -10 848.344 230.042 6
10 -1 -5 753.729 201.251 2
-5 1 10 928.573 317.52 4
10 -1 -5 658.251 172.062 6
10 1 5 913.464 198.363 4
5 1 -10 664.568 230.946 6
-10 -1 5 812.169 260.988 4
10 1 5 944.083 134.276 1
5 -1 10 469.334 226.661 2
-10 1 -5 617.755 265.146 8
-5 -1 -10 958.845 236.057 8
-10 -1 5 731.995 234.044 8
-10 -1 5 832.037 182.055 5
1 -5 -10 1141.47 272.025 7
-10 -5 -1 721.776 286.571 8
5 1 -10 993.626 243.99 7
-10 1 -5 856.624 151.381 7
-1 -5 -10 815.722 228.182 6
5 -1 -10 722.092 222.243 6
5 1 10 1071.37 298.558 4
-5 -1 10 525.006 312.944 4
5 1 10 751.571 226.501 2
-10 -1 -5 1096.39 145.718 6
-1 5 10 1097.72 231.347 1
-5 1 -10 650.504 232.493 6
10 1 -5 592.46 191.135 6
-10 1 5 1255.56 238.99 8
-10 -1 -5 815.52 223.141 5
-1 -5 -10 1104.1 223.382 8
-10 1 5 797.731 184.897 5
-10 -1 -5 611.849 262.913 8
-1 -5 -10 1060.8 277.638 7
10 -1 5 1240.05 269.03 2
5 -1 -10 759.074 255.416 7
-5 1 -10 811.436 238.167 7
-10 -3 -5 5684.15 222.49 6
5 -3 -10 6515.36 303.12 6
-3 -5 -10 6083.23 342.632 7
-3 5 10 5919.19 305.107 1
-3 -5 -10 5480.14 304.863 8
-10 -3 -5 4910.78 338.7 8
-10 -3 -5 5797.22 297.082 5
5 3 10 6534.71 344.715 3
-3 -5 -10 6587.43 302.751 6
10 5 5 5076.14 383.198 3
5 5 10 5422.96 309.419 1
-5 5 10 5733.61 312.547 1
-10 5 5 6113.3 286.855 5
5 5 10 5750.25 351.904 3
5 -5 -10 5792.76 361.306 7
-5 -5 -10 6196.04 363.4 7
10 -5 -5 6102.97 316.98 6
-5 -5 -10 5648.77 311.66 6
5 -5 -10 6644.79 319.525 6
-6 -4 -10 4097.1 277.833 6
-6 4 10 4307.47 296.129 1
10 4 6 3566.67 354.805 3
4 -6 -10 4678.88 340.38 7
-6 -4 -10 3967.27 321.635 7
10 -4 -6 4656.35 275.021 6
4 6 10 5326.8 296.01 1
4 -6 -10 4045.02 319.659 6
10 -2 -6 10541.4 385.868 6
-6 -2 -10 10003.9 414.751 8
-6 -2 -10 11624.8 395.613 6
10 2 6 10321.3 382.375 4
2 6 10 11242.7 413.249 1
10 2 6 11172.9 358.765 1
-10 2 -6 11402.5 376.925 7
-10 2 -6 10657.8 411.213 5
-6 -2 -10 10878.9 384.624 5
6 2 -10 10966.8 428.322 6
-6 2 10 12205.8 421.664 1
10 -2 -6 10937.2 407.341 7
10 -2 -6 10565.7 391.595 2
2 -6 -10 12051.6 422.857 6
6 0 -10 5006 291.627 6
-6 0 -10 5824.6 287.15 6
-10 0 -6 5576.6 236.206 6
0 6 10 5175.82 296.909 1
-10 0 -6 5628.04 295.367 5
6 0 10 5716.05 304.786 2
-6 0 -10 5154.82 299.49 7
-10 0 -6 4900.96 227.347 7
10 0 6 4532.34 321.9 2
10 0 6 5259.54 356.669 3
-10 0 6 5372.94 294.604 8
10 0 -6 5368.1 273.07 7
6 0 -10 5724.24 316.513 7
0 -6 -10 4915.14 301.919 6
-10 -2 -6 10733 337.881 6
6 2 10 10014.5 389.257 1
10 -2 6 11196.4 430.14 2
-10 2 6 10188.1 359.402 1
-10 -2 -6 10551.8 397.128 5
-6 2 -10 10868.5 381.573 5
-10 -2 -6 8601.71 427.012 8
-2 6 10 11186.5 401.592 1
-10 2 6 9875.31 379.939 8
-2 -6 -10 10091.5 442.984 7
-10 -2 -6 9979.06 378.383 7
-6 2 -10 11015.9 415.766 7
-6 -2 10 11158.4 484.007 4
10 2 -6 10838.3 396.228 7
-10 2 6 10978.7 425.013 4
-2 -6 -10 10605.8 397.724 6
6 -4 -10 4310.49 289.365 6
-4 6 10 4115.07 290.99 1
6 4 10 4123.35 285.438 1
-4 -6 -10 4425.96 362.866 7
-10 4 6 4368.16 243.025 5
-10 -4 -6 4205.2 339.936 8
6 -4 -10 4077.14 337.581 7
6 4 10 3484.18 349.178 3
-4 -6 -10 4509.26 288.137 6
-10 -4 -6 4301.88 218.285 6
-6 6 10 8099.61 375.288 1
-6 -6 -10 7599.63 399.651 8
-10 -6 -6 7555.12 422.871 8
10 6 6 7935.71 434.874 3
-6 -6 -10 8106.11 372.726 6
-7 -5 -10 3160.54 278.145 5
-7 5 10 2878.63 295.817 1
10 -5 -7 2824.76 292.907 6
-7 -5 -10 2748.57 362.314 7
10 -3 -7 880.476 242.563 6
-7 -3 -10 798.272 227.109 6
-7 -3 -10 1224.07 286.562 8
-10 3 -7 1232.65 285.079 8
-7 -3 -10 1390.8 233.662 5
10 -3 -7 1355.01 286.85 7
-7 -3 -10 916.902 291.21 7
10 3 7 639.778 337.266 3
-7 1 10 1693.77 346.98 4
10 1 7 1548.24 276.807 4
10 -1 -7 1772.42 229.317 6
-7 -1 -10 1976.06 238.393 6
-10 -1 7 2193.47 325.968 4
7 1 -10 1701.66 258.5 6
7 -1 10 1571.52 364.322 4
10 -1 -7 1230.93 249.287 7
10 1 7 1276.5 197.817 1
-10 1 -7 1779.36 294.006 8
7 -1 10 1713.46 285.373 2
10 1 7 1144.79 338.218 3
-7 -1 -10 1202.58 234.978 5
-10 1 -7 2135.44 266.14 5
7 1 -10 1240.37 276.519 7
7 -1 -10 1446.98 262.847 6
-10 1 7 1317.79 310.471 4
7 1 10 1234.72 330.226 4
-7 1 -10 1770.4 288.681 8
-7 -1 10 1221.63 348.507 4
-7 1 -10 2176.76 270.454 6
-10 -1 -7 1261.74 209.279 7
-10 -1 -7 1400.26 301.734 8
-7 1 -10 2082.71 252.43 5
10 -1 7 1424.18 293.095 2
7 1 10 1597.56 319.973 3
-7 -1 10 1850.44 196.383 8
-10 -1 -7 1585.85 269.639 5
7 -1 -10 1599.1 282.088 7
7 1 10 1348.24 276.93 2
-10 1 7 1296.18 218.52 1
10 3 -7 568.683 284.061 7
7 3 10 1151.38 248.536 1
7 3 10 640.958 325.488 4
-10 3 7 968.488 222.838 1
10 -3 7 716.915 289.221 2
-7 3 -10 504.776 215.15 5
-10 -3 -7 851.283 252.434 5
7 3 10 377.251 346.052 3
7 5 10 2278.56 376.522 3
-10 5 7 2793.61 239.396 5
7 -5 -10 2642.59 298.013 6
7 5 10 2534.4 288.37 1
-10 -5 -7 2426.59 274.292 5
-10 -5 -7 2267.43 343.515 8
-10 -5 -7 2879.62 260.603 6
-8 -4 -10 8088.53 345.988 6
-8 -4 -10 8049.88 359.716 5
-8 4 10 6599.71 371.063 1
-8 -4 -10 6412.66 410.79 8
-8 -4 -10 7122.59 410.115 7
10 -4 -8 7537.21 414.225 7
8 2 -10 1748.76 296.555 6
-8 -2 -10 1868.31 245.681 6
-8 -2 -10 1660.65 322.536 8
10 -2 -8 1760.77 305.241 7
-10 -2 8 1706.91 383.344 4
-8 2 10 1965.25 272.694 1
-10 2 -8 1537.31 317.353 8
-10 -2 8 1929.09 302.803 8
10 2 8 1836.8 230.406 1
10 2 8 1874.18 372.835 3
-8 -2 -10 1594.49 287.476 7
10 -2 -8 2198.76 271.937 6
8 2 -10 1126.11 302.744 7
-10 2 -8 1283.66 261.411 7
8 0 -10 3104.15 280.373 6
10 0 -8 3867.94 270.405 6
8 0 -10 3881.48 321.23 7
-10 0 8 3433.48 357.014 4
8 0 10 2757.71 327.035 2
8 0 10 3391.34 367.503 4
-8 0 -10 2950.31 319.784 8
-10 0 -8 3748.16 293.568 5
-8 0 -10 3567.45 300.83 7
-8 0 -10 3449.76 282.024 6
8 2 10 1869.44 341.099 4
-10 -2 -8 1678.29 323.004 8
-8 2 -10 1844.52 304.975 8
-8 -2 10 1920.4 399.792 4
10 2 -8 1970.24 306.838 7
-10 2 8 2002.37 241.405 1
-10 2 8 2138.64 198.114 5
8 2 10 1931.79 366.797 3
-10 -2 -8 1908.84 267.261 5
10 -2 8 1768.38 324.786 2
-10 -2 -8 1745.81 262.675 7
8 -2 -10 2100.75 326.235 7
-8 2 -10 1630.42 298.765 7
-10 -4 -8 6945.68 355.161 5
8 4 10 7570.61 364.941 1
8 4 10 7134.25 442.638 3
8 -4 -10 7416.82 417.155 7
-9 5 10 3104.94 411.714 1
-9 -5 -10 1955.47 388.718 6
-9 -5 -10 2531.97 490.982 8
10 -5 -9 877.671 533.653 7
10 -5 -9 1458.24 428.822 6
-9 -5 -10 2282.36 392.581 5
-9 -5 -10 768.289 548.383 7
10 5 9 1371.11 563.083 3
10 1 9 1864.94 361.957 2
10 1 9 1857.09 352.17 4
10 -1 -9 1433.9 287.076 6
-9 -1 -10 2352.72 272.745 6
-10 -1 9 2446.75 399.84 4
9 1 -10 2402.66 311.735 6
9 -1 10 2963.39 438.071 4
-9 -1 -10 1310.41 341.275 8
-10 1 -9 2581.35 305.988 5
10 1 9 1996.76 256.957 1
9 -1 10 2326.27 349.24 2
10 1 9 1619.19 401.236 3
-9 -1 -10 2097.99 298.207 5
-9 1 10 449.213 414.915 4
10 -1 -9 1933.23 319.919 7
-10 1 -9 2089.6 272.838 7
9 1 10 1216.07 363.623 4
9 -1 -10 2309.88 332.046 7
9 -1 -10 1789.87 297.023 6
-9 -1 10 2336.87 413.621 4
-10 -1 -9 1657.12 254.529 6
9 1 10 1523.39 334.617 2
-9 1 -10 2263.31 315.687 6
9 1 10 1183.41 396.871 3
10 -1 9 2381.91 340.752 2
-10 -1 -9 761.14 266.25 7
-9 1 -10 2958.76 309.353 5
10 1 -9 2399.64 331.586 7
-9 1 -10 1956.06 300.851 7
-10 -1 -9 1401 356.337 8
10 1 -9 2238.53 307.191 6
-10 -5 -9 2015.91 355.313 6
9 -5 -10 1308.9 422.495 6
-10 -5 -9 1830.88 390.269 5
9 -5 -10 1533.65 510.226 7
-10 -5 -9 2075.63 486.582 8
-10 5 9 2405.67 388.946 1
9 5 10 1221.1 566.936 3
-10 2 -10 3235.83 466.014 8
-10 2 -10 3120.92 421.642 7
10 2 -10 3016.86 468.411 7
-1 0 11 3922.19 345.412 4
1 0 11 3951.3 346.407 4
0 -1 -11 3471.69 252.578 6
1 0 -11 2849 249.094 6
-1 0 -11 3352.7 256.287 6
0 1 11 3156.35 185.357 2
0 1 11 3371.99 335.686 4
11 -1 0 3316 264.69 2
1 0 -11 3281.33 143.758 5
-1 0 -11 3155.35 172.302 5
0 -1 -11 2964.21 166.43 8
0 1 11 3113.33 203.929 3
-11 1 0 3271.5 238.155 5
0 -1 -11 3179.37 155.066 5
-11 0 -1 3034.58 237.3 5
-11 0 1 3568.54 240.585 5
-11 -1 0 2813.6 283.012 8
-11 1 0 3046.05 288.864 8
11 1 0 2835.55 299.845 3
11 0 1 2592.26 312.16 3
0 -1 11 3026.38 333.759 4
0 1 -11 2991.69 272.348 7
0 1 -11 3037.07 252.592 6
-1 0 -11 2744.03 269.961 7
-11 -1 0 3295.02 237.785 5
1 0 -11 3016.37 268.893 7
1 -2 -11 13100.8 415.709 6
2 -1 11 11752.4 475.908 4
11 -1 -2 11094.9 338.652 6
-2 -1 -11 11668.1 410.882 6
-1 2 -11 12719.9 433.179 6
11 -2 1 12301 430.434 2
1 2 11 11899.8 367.579 2
11 2 -1 12088.4 446.346 3
1 -2 -11 11494.2 340.71 8
-2 -1 -11 10856.5 358.106 5
11 1 2 11402.7 452.314 3
-11 -2 -1 12102.2 403.91 5
-11 2 1 10518.4 341.26 7
-2 -1 -11 11659.3 422.316 7
-1 2 -11 12167 430.403 7
11 2 -1 10549.7 336.526 7
2 1 -11 12329.5 425.187 7
1 2 11 11469.3 467.936 4
-11 2 1 11678.6 424.585 8
-2 1 11 12716.6 481.001 4
11 2 -1 10427.2 349.899 4
-2 -1 11 11835.4 478.283 4
-1 -2 -11 11499.6 410.268 6
2 -1 -11 11220.6 411.535 6
-2 1 -11 11656.8 418.388 6
-1 2 11 10730.8 338.311 2
11 -2 -1 12275.1 424.199 2
2 1 11 10776.1 392.738 3
-11 2 -1 12081.1 411.636 5
-11 2 -1 11110.9 431.776 8
-11 1 2 12445.6 399.958 5
-1 -2 -11 11761 372.354 8
-11 -1 -2 11595.7 438.832 8
-11 -2 1 11407 437.56 8
11 1 -2 11708 438.095 3
-1 -2 -11 12072.4 356.344 5
11 2 1 11689.7 450.15 3
-1 2 11 10794.3 346.166 8
-1 2 11 11176.6 349.784 3
-1 -2 -11 11153.1 421.128 7
2 -1 -11 11485.5 421.952 7
-2 1 -11 11312.7 421.798 7
1 2 -11 10856.5 427.961 7
1 2 -11 11924.7 425.469 6
-11 1 2 10885.4 358.148 4
2 1 11 10679.9 464.857 4
2 -3 -11 1349.59 278.541 7
2 3 11 1596.98 248.1 1
11 -2 -3 1244.61 165.696 6
2 -3 -11 1233.95 238.261 6
-3 -2 -11 1270.19 233.378 6
3 -2 11 984.884 348.877 4
-2 -3 11 987.522 351.402 4
-11 3 2 1187.99 266.605 8
-11 -3 -2 1442.63 284.992 8
-11 -2 3 891 270.127 8
3 2 -11 1435.34 268.643 7
11 -2 -3 1178.02 229.495 2
-3 2 11 1083.55 333.714 4
11 2 3 1006.06 316.924 3
-11 -2 3 1267.08 211.26 5
-3 -2 -11 881.224 257.225 7
-11 3 0 296.31 210.308 5
-11 0 -3 153.826 267.623 8
0 -3 -11 390.631 227.175 6
0 3 11 344.292 243.413 1
-3 0 -11 93.6462 249.757 7
3 0 11 188.493 312.076 4
3 0 -11 21.2438 229.43 6
-11 0 3 51.2076 207.695 4
-3 0 -11 273.981 227.621 6
-11 0 3 116.254 132.612 1
11 0 -3 198.648 161.988 7
-11 0 3 72.0971 257.17 8
11 0 3 311.12 300.235 3
-11 -3 0 265.402 217.743 5
-11 0 3 101.653 199.172 5
3 0 -11 301.199 247.953 7
11 0 -3 27.7739 286.778 3
-11 3 0 87.1635 247.331 8
-11 0 -3 160.141 222.731 5
0 -3 -11 278.994 151.191 8
11 3 0 92.3903 282.311 3
-2 3 11 1094.32 332.455 4
11 -3 -2 1243.6 165.497 6
3 2 11 803.475 320.113 4
-11 -3 2 1260.82 269.751 8
-2 -3 -11 1016.31 233.912 6
3 -2 -11 1051.86 239.471 6
-3 -2 11 1081.08 337.436 4
3 -2 -11 1055.66 274.61 7
11 2 -3 1023.78 183.598 7
-3 2 -11 1097.4 265.644 6
-11 3 -2 1345.79 265.841 8
-11 -3 2 1011.02 221.405 5
-11 -2 -3 1295.51 232.396 5
-2 -3 -11 1056.5 274.025 7
-2 -3 -11 1300.42 173.788 5
11 -2 3 1089.3 288.858 2
-11 2 3 1321.06 245.525 8
-11 -2 -3 1047.44 284.92 8
2 3 -11 1080.11 260.439 7
-4 3 11 2008.69 269.47 1
3 -4 -11 1919.68 258.71 6
-4 -3 -11 2036.11 256.118 6
-11 4 3 1925.66 230.388 5
-11 -4 -3 1498.8 243.387 5
-11 3 -4 1638.73 253.588 5
4 3 -11 1976.75 278.534 6
11 -4 3 1574.9 303.569 2
-11 4 3 1941.69 291.284 8
11 -3 -4 1572.09 275.43 2
-4 -3 -11 1806.22 209.809 5
-4 -3 -11 1627.15 250.665 8
-11 -3 4 2369.79 298.13 8
-11 -4 -3 918.835 309.874 8
11 -3 -4 1481.79 205.772 6
11 3 4 1090.41 327.712 3
-11 -3 4 2088.98 246.808 5
4 3 -11 1656.16 281.085 7
1 -4 -11 2857.6 267.784 6
11 -1 -4 2689.82 187.156 6
11 1 4 2955.84 177.903 4
11 4 -1 2621.19 309.752 3
4 1 -11 2377.46 258.106 6
4 -1 11 2731.76 256.424 2
11 -4 1 2981.4 302.688 2
-4 1 11 2546.53 343.575 4
-11 4 1 2906.37 244.595 5
1 4 11 2929.01 256.701 1
-11 4 1 3281.02 293.987 8
-4 -1 -11 2578.59 261.865 8
11 -1 -4 2943.9 292.747 3
-11 1 -4 2958.19 305.882 8
-11 -1 4 2645.51 285.039 8
-11 -1 4 3074.27 216.955 5
-4 -1 -11 2729.59 250.304 6
-11 -4 -1 2437.19 244.006 5
11 -1 -4 2936.47 221.403 7
1 -4 -11 2210.52 301.834 7
4 1 -11 2307.54 279.963 7
11 4 1 2563.95 315.85 3
4 -1 -11 2329.67 256.149 6
-4 1 -11 2663.66 269.855 6
-4 1 -11 3063.03 256.68 8
4 1 11 2515.24 340.683 4
4 1 11 2966.68 257.285 2
11 1 -4 2715.92 199.956 7
-11 1 4 2581.74 179.769 1
-1 4 11 2812.96 274.238 1
11 -4 -1 2637.08 294.039 2
-11 1 4 3114.03 284.239 8
-11 -1 -4 2735.6 301.352 8
-11 1 4 2850.56 235.352 5
-1 -4 -11 2546.45 213.157 8
11 1 -4 3021.77 306.993 3
-11 -4 1 2821.64 242.397 5
4 -1 -11 3130.25 291.161 7
-11 -1 -4 2111.63 249.757 5
-1 -4 -11 2454.41 298.588 7
11 -1 4 2544.45 296.151 2
-11 4 -1 2453.26 277.245 8
-4 1 -11 2359.26 278.94 7
-11 1 4 2687.35 240.087 4
4 3 11 1786.7 259.21 1
11 3 -4 1710.72 296.199 3
4 -3 -11 1985.54 251.213 6
-3 -4 -11 1577.16 245.073 8
-11 3 4 1639.64 268.899 8
-11 -4 3 2158.08 302.023 8
11 -4 -3 1822.7 294.397 2
-4 -3 11 1545.33 372.96 4
-11 4 -3 2134.41 284.37 8
4 3 11 1744.7 348.711 4
-3 -4 -11 1752.23 305.285 7
4 3 11 1746.48 285.297 3
-11 -3 -4 1574.77 246.316 5
4 -3 -11 2177.45 303.853 7
4 -5 -11 5145.91 320.756 6
-5 -4 -11 5329.92 311.738 6
-5 -4 -11 4113.43 346.979 7
4 5 11 4533.25 310.17 1
-11 -5 -4 4752.54 296.939 5
-5 4 11 4441.73 306.392 1
-11 5 4 4467.85 283.47 5
-11 4 -5 4381.2 328.868 8
-11 -5 -4 4128.52 365.417 8
11 4 5 4195.11 382.603 3
-5 -4 -11 4554.94 270.906 5
11 -4 -5 4974.17 274.2 6
2 -5 -11 8922.35 374.352 6
-5 -2 -11 8599.11 359.174 6
5 2 -11 9089.58 384.482 6
11 -2 -5 8163.44 357.917 2
11 -2 -5 9114.96 393.605 3
-11 2 -5 8572.47 394.489 8
-5 -2 -11 7672.06 363.427 8
11 2 5 9146.8 436.61 3
-11 -2 5 8500.19 382.997 8
-11 -5 -2 8790.7 364.324 5
-5 -2 -11 8518.5 382.96 7
5 -2 11 9180.51 463.754 4
5 2 -11 8430.53 386.739 7
-5 2 11 9212.15 456.293 4
11 2 5 8892.13 315.225 4
5 0 -11 12785.8 450.905 6
11 0 -5 13697.2 417.039 6
5 0 11 12302.4 444.755 2
11 0 5 12922.9 486.373 2
-11 0 5 12679.9 457.619 8
-11 -5 0 10667.4 490.776 8
-5 0 -11 12299.3 458.906 7
11 0 5 12194.6 373.799 1
0 -5 -11 12147.2 479.77 7
5 0 -11 11573.5 463.247 7
5 -2 -11 9598.86 386.246 6
-5 -2 11 9179.14 454.332 4
-5 2 -11 9311.6 399.142 6
5 -2 -11 9041.58 404.888 7
5 2 11 9139.97 381.445 2
-5 2 -11 9398.68 362.681 5
-11 2 5 8869.8 374.987 8
-11 -2 -5 8424.38 419.246 8
-11 -2 -5 8977.86 377.44 5
-4 -5 -11 4436.1 310.7 6
5 -4 -11 4760.42 301.965 6
-4 5 11 4540.5 307.009 1
5 4 11 4532.92 303.794 1
-11 4 5 3960.35 263.754 5
-4 -5 -11 4316.04 315.317 8
-11 -4 -5 4723.33 293.099 5
5 4 11 4147.86 360.902 3
11 5 6 3376.6 415.249 3
-6 -5 -11 3843.78 319.706 6
5 6 11 3841.23 321.007 1
-6 5 11 4562.24 336.141 1
-6 -5 -11 3975.62 391.426 7
-11 -6 -5 4512.35 387.081 8
5 -6 -11 4370.9 411.02 7
-6 -5 -11 3449.81 350.281 8
11 -5 -6 4990.53 326.212 6
11 -3 -6 202.414 236.618 6
-6 -3 -11 234.08 254.697 6
-6 -3 -11 402.344 289.001 8
-11 3 -6 203.622 302.732 8
11 -3 -6 210.108 267.98 2
-11 3 -6 173.571 256.452 5
-11 -3 6 276.614 306.388 8
-6 3 11 130.48 269.636 1
11 -3 -6 94.5257 295.159 7
-6 -3 -11 41.5532 228.192 5
3 -6 -11 396.36 337.414 7
11 3 6 75.5826 347.642 3
-6 -3 -11 360.78 312.59 7
3 6 11 212.346 281.922 1
6 3 -11 199.601 284.615 7
1 6 11 945.596 268.292 1
1 -6 -11 1301.31 277.332 6
-6 1 11 1285.44 366.031 4
6 1 -11 1615.98 271.641 6
6 -1 11 781.481 267.46 2
-6 -1 -11 1150.95 232.919 5
-11 1 -6 810.251 305.373 8
11 1 6 834.917 349.008 3
-11 1 -6 1219.59 275.178 5
11 -1 -6 1269.81 285.594 3
1 -6 -11 1537.65 333.93 7
11 -1 -6 908.711 240.646 7
-11 -1 6 1271.88 204.403 5
6 1 -11 827.278 287.507 7
-1 6 11 1041.06 265.242 1
-1 -6 -11 1296.05 271.026 6
11 -1 6 916.378 321.053 2
-11 1 6 1319.88 298.307 4
6 -1 -11 922.854 277.168 6
-6 -1 11 1357.22 373.304 4
-6 1 -11 868.271 279.274 6
-6 1 -11 958.638 243.04 5
-11 1 6 1133.27 203.662 1
6 1 11 1314.77 318.174 3
-11 -1 -6 1106.23 255.843 5
-11 1 6 1169.56 216.757 5
-1 -6 -11 667.819 337.573 7
-11 1 6 1395.62 278.099 8
6 1 11 1377.67 287.036 2
11 1 -6 978.428 247.03 7
11 1 -6 1176.18 302.421 3
-3 6 11 516.758 271.643 1
-3 -6 -11 533.692 270.022 6
6 -3 -11 252.116 268.373 6
-3 -6 -11 197.556 301.863 8
-11 -3 -6 61.7465 265.447 5
6 3 11 223.972 338.996 3
6 -3 -11 159.249 316.598 7
-11 3 6 165.232 285.959 8
-11 3 6 433.962 226.576 1
11 3 -6 182.356 290.715 7
6 -5 -11 4065.62 336.58 6
11 6 5 4153.81 410.333 3
6 5 11 4350.97 321.827 1
6 -5 -11 4871.45 385.787 7
-11 5 6 4815.17 290.267 5
-11 -5 -6 4584.03 381.561 8
-5 -6 -11 4000.4 359.035 8
-11 -5 -6 4004.83 310.149 5
6 5 11 4305.11 403.986 3
-5 -6 -11 4060.65 334.251 6
11 6 7 1041.32 547.165 3
6 -7 -11 1133.16 548.062 7
6 -7 -11 1524.57 497.893 6
-7 -6 -11 918.781 548.662 7
-7 -6 -11 1175.74 489.466 8
-7 6 11 2312.09 422.283 1
-7 -6 -11 2213.93 416.706 6
-7 -6 -11 1663.63 394.932 5
4 -7 -11 312.582 337.585 6
-11 4 -7 305.726 277.751 5
2 -7 -11 3962.69 394.574 7
11 -2 -7 4600.72 282.417 6
-7 -2 -11 4474.59 296.793 6
7 2 -11 4548.02 341.678 6
7 -2 11 4615.08 338.728 2
-7 2 11 4368.91 427.03 4
11 -2 -7 3998.59 281.169 2
-11 2 -7 4052.09 321.469 5
-11 2 -7 4368.73 352.364 8
11 -2 -7 3988.43 319.591 3
-11 -2 7 3954.07 334.969 8
-7 2 11 5334.25 336.529 1
-7 -2 -11 4378.3 328.684 7
7 2 -11 4658.18 349.901 7
-7 -2 -11 4526.83 287.902 5
-7 -2 -11 4075.78 337.035 8
7 0 -11 16737 575.786 6
11 0 -7 18184.6 555.758 6
-7 0 -11 16693.7 570.308 6
0 7 11 17373.7 580.758 1
7 0 11 17441.4 595.426 2
11 0 7 16612 600.694 2
11 0 7 16412.8 630.9 3
-7 0 -11 17373.3 568.218 5
-11 0 7 17551.5 573.212 8
-11 0 7 16947.1 530.042 5
11 0 -7 17157.9 581.455 3
7 0 11 17341.8 622.793 4
0 -7 -11 18356.7 636.521 7
7 0 -11 17897.3 589.567 7
-7 0 -11 16455.5 578.209 7
0 -7 -11 17126.2 581.572 6
7 -2 -11 4967.36 339.706 6
-7 -2 11 5319.65 446.456 4
11 -2 7 5566.4 372.182 2
7 2 11 4301.61 327.564 2
-7 2 -11 4971.24 314.966 5
-7 2 -11 5168.89 347 8
7 2 11 4595.38 397.598 3
-11 -2 -7 4278.74 367.491 8
-11 2 7 4989.65 261.779 5
-11 -2 -7 4367.99 313.371 5
7 2 11 4981.61 322.441 1
-2 -7 -11 4893.61 423.587 7
11 2 -7 5287.28 336.044 7
-7 2 -11 4531.15 351.063 7
-11 2 7 4612.95 368.831 4
7 2 11 4280.95 395.602 4
-2 -7 -11 4414.62 321.738 6
-11 -4 -7 726.358 286.483 5
-6 -7 -11 1711.77 442.197 6
7 -6 -11 1613.58 447.894 6
-11 -6 -7 2477.92 492.33 8
7 -6 -11 508.286 530.401 7
-6 -7 -11 2000.72 536.216 8
-6 7 11 2492.99 433.456 1
7 6 11 1817.4 424.251 1
-11 1 -8 129.781 309.089 5
-8 1 -11 43.9856 300.124 5
-8 1 -11 911.577 321.213 6
-11 2 -9 135.395 466.425 8
-11 -2 9 670.682 594.164 4
9 -2 11 47.4607 445.997 2
-11 2 -9 306.324 411.27 5
-9 0 11 2283.11 529.065 4
-11 0 9 2223.02 513.377 4
9 0 -11 2167.76 383.389 6
9 0 11 822.271 527.754 4
11 0 -9 669.949 374.972 6
11 0 -9 1475.87 421.193 7
9 0 11 2150.9 438.552 2
9 0 11 1971.1 531.937 3
-9 0 -11 2661.14 399.546 7
11 0 9 1197.34 463.935 2
11 -2 9 369.219 465.28 2
-9 -2 11 578.406 605.378 4
-9 2 -11 134.537 408.13 5
11 2 -9 591.411 498.149 7
-9 2 -11 245.607 449.498 7
11 7 10 54.7753 496.268 3
11 -7 -10 371.21 433.444 6
-10 -7 -11 140.823 414.139 6
-10 -7 -11 364.436 363.421 5
-11 -7 -10 553.848 446.472 8
-11 -7 -10 242.767 360.981 5
11 -4 -11 14.4442 394.133 6
11 -4 -11 495.594 452.845 7
-11 -4 -11 22.6953 352.223 5
11 4 11 238.023 501.724 3
11 -6 -11 139.141 389.118 6
-11 6 11 263.683 355.379 1
-11 -6 -11 387.942 346.703 5
11 -6 -11 282.854 491.606 7
-11 -8 -11 2068.96 506.955 8
0 0 -12 5329.12 304.085 6
0 0 -12 5254.74 211.566 5
-12 0 0 5349.11 290.576 5
-1 -1 12 3243.99 373.449 4
1 -1 -12 3469.88 282.921 6
-1 -1 -12 3363.87 277.092 6
1 1 -12 3133.61 285.24 6
-1 -1 -12 3280.87 304.75 7
1 1 12 3237.91 223.1 2
-1 1 12 3038.37 369.447 4
-1 1 -12 3637.65 295.313 6
1 -1 12 2870.33 378.396 4
12 -1 1 3409.07 301.324 2
-1 1 -12 3679.38 213.258 5
-12 1 -1 3847.62 280.609 5
-12 1 1 3554.2 268.06 5
-12 1 -1 3100.69 316.031 8
-1 1 12 3242.91 188.377 3
-1 -1 -12 3450.32 180.356 5
-12 -1 1 3614.14 314.1 8
-12 -1 -1 3681.48 264.632 5
12 -1 1 2737.07 343.26 3
-12 1 1 3028.73 311.913 8
1 -1 -12 2716.74 302.463 7
-1 1 -12 2969.72 297.943 7
1 1 12 3267.22 249.75 3
-12 -1 -1 2728.91 314.462 8
12 -1 -1 2897.14 296.595 2
0 -2 -12 1158.39 256.417 6
-2 0 12 808.686 358.893 4
2 0 12 847.511 361.468 4
2 0 -12 921.463 255.877 6
-2 0 -12 892.982 258.148 6
0 -2 12 594.042 377.97 4
0 2 -12 937.244 280.018 6
-12 0 -2 1168.7 302.887 8
-12 2 0 1335.31 254.056 5
0 -2 -12 1400.78 196.201 8
-12 2 0 884.264 292.428 8
0 2 12 1395.12 178.126 2
-12 0 -2 1088.99 252.475 5
12 0 -2 1201.3 314.677 3
-12 0 2 949.926 238.254 5
12 -2 0 953.711 277.566 2
-12 -2 0 1207.09 238.957 5
-2 0 -12 923.81 280.054 7
0 2 12 1208.07 213.888 3
0 2 -12 395.78 281.564 7
12 -2 -2 2423.84 163.096 6
-2 2 12 2187.4 371.687 4
2 -2 -12 2325.53 277.549 6
-2 -2 -12 2345.46 272.261 6
-2 -2 12 1928 387.092 4
-2 2 -12 2359.12 299.84 6
2 2 12 2803.17 269.652 3
-2 -2 -12 2109.08 197.565 5
-12 2 -2 2150.42 305.681 8
-12 -2 2 2567.18 311.913 8
-12 2 -2 2158.85 269.862 5
-12 2 2 2675.55 304.481 8
12 -2 2 2045.76 302.924 2
-12 -2 -2 1805.49 258.641 5
-12 -2 2 2214.44 243.622 5
12 2 -2 2007.38 325.584 3
2 2 -12 2330.08 299.889 7
1 -3 -12 4681.84 305.152 6
3 -1 12 4296.36 406.746 4
12 -1 -3 4894.12 216.843 6
3 1 -12 4892.46 319.529 6
1 3 12 5073.91 300.66 3
12 -3 1 4748.44 333.951 2
-1 -3 12 3885.38 409.976 4
12 -1 -3 5208.93 360.069 3
-3 -1 -12 4655.68 288.949 8
12 1 3 4027.47 375.35 3
-12 -3 -1 4619.34 348.053 8
-12 -3 -1 4379.39 289.995 5
12 -1 -3 5361.91 271.739 7
1 -3 -12 4929.53 343.415 7
-3 -1 -12 4332.39 326.216 7
3 1 -12 4688.25 328.079 7
-1 3 -12 5138.51 331.246 7
1 3 12 4250.44 397.339 4
-3 1 12 4649.85 397.004 4
-1 -3 -12 4560.94 300.207 6
3 -1 -12 5070.78 311.04 6
1 3 -12 5441.37 335.923 6
12 -3 -1 5125.08 338.273 2
12 -1 3 5337.64 351.812 2
-12 1 3 4888.45 340.21 8
-1 -3 -12 4343.4 243.954 8
-12 1 3 5540.82 286.405 5
-12 -1 -3 4538.19 356.99 8
-12 -1 -3 5537.79 306.197 5
-12 -3 1 4736.64 344.195 8
-1 3 12 5481.2 325.639 1
-1 -3 -12 4635.4 219.981 5
1 3 -12 4810.21 334.711 7
-1 -3 -12 4955.67 338.825 7
3 -1 -12 4726 337.53 7
-12 -3 1 5063.81 280.842 5
-1 3 12 5004.6 405.305 4
3 -3 -12 3086.01 294.337 6
12 3 -3 2604.64 358.412 3
3 3 -12 2960.38 303.959 6
3 3 12 2946.72 391.57 4
-3 -3 -12 2831.27 330.913 7
-3 -3 -12 2641.66 281.413 6
3 -3 -12 2727.98 333.714 7
-3 -3 12 2122.14 417.062 4
-12 3 3 3219.06 259.52 5
-12 -3 -3 2772.73 271.602 5
3 3 12 2922.61 294.425 1
-12 3 -3 2235.86 313.768 8
-12 -3 3 3328.4 252.779 5
-3 -3 -12 2337.41 246.309 8
12 -3 -3 3101.74 309.928 2
12 3 3 2049.92 362.246 3
3 3 -12 2820.81 314.869 7
-3 3 -12 2733.47 315.066 7
12 -3 -3 3484.21 221.652 6
-4 2 12 249.478 382.954 4
2 -4 -12 676.123 278.792 6
2 4 12 868.879 284.52 1
12 -2 -4 420.133 197.189 6
-4 -2 -12 364.827 259.731 6
4 2 -12 612.192 286.381 6
4 -2 12 695.648 389.594 4
-12 4 2 531.415 236.532 5
12 -2 -4 601.099 342.216 3
12 2 4 902.052 349.944 3
-4 -2 -12 431.904 209.673 5
12 -2 -4 529.333 278.48 2
-12 2 -4 306.078 260.071 5
-12 -2 4 296.168 226.612 5
-4 -2 -12 2.36964 298.117 7
-12 -2 4 864.427 308.393 8
0 -4 -12 9631.53 391.852 6
4 0 12 8769.44 469.578 4
12 4 0 7914.11 445.21 3
4 0 -12 8916.76 393.042 6
12 0 4 10054.3 432.931 2
-12 4 0 9200.02 382.721 5
0 4 12 9374.9 397.175 1
-12 4 0 8435.64 402.492 8
-4 0 -12 9853.7 349.627 5
-12 0 -4 9864.2 387.655 5
-12 0 -4 8518.68 431.185 8
12 0 -4 9422.03 426.729 3
-12 0 4 9529.96 354.206 5
-12 -4 0 8666.46 430.839 8
12 0 -4 8738.45 331.107 7
-12 -4 0 8327.5 372.151 5
0 -4 -12 9383.84 427.7 7
4 0 -12 8690.46 401.119 7
-4 0 -12 9021.34 404.376 7
-12 -2 -4 170.569 327.104 8
-2 -4 -12 69.698 280.769 6
4 -2 -12 766.943 279.993 6
-2 4 12 304.156 273.475 1
-4 -2 12 42.2926 378.668 4
-4 2 -12 35.3822 294.407 6
-12 4 -2 528.21 255.61 5
-12 2 4 459.234 240.174 5
-4 2 -12 461.722 226.748 5
12 -2 4 252.572 320.709 2
-12 4 -2 785.673 292.62 8
-12 -2 -4 361.806 260.814 5
4 2 12 615.218 307.471 3
-12 2 4 261.215 285.525 8
-12 2 4 483.472 208.663 1
4 -2 -12 305.314 315.74 7
12 2 -4 520.791 225.825 7
12 4 2 554.309 344.891 3
12 2 -4 869.701 330.682 3
4 -4 -12 3763.23 306.845 6
-4 -4 -12 3743.11 311.857 6
12 -4 -4 3602.42 336.035 2
4 4 12 3942.05 363.31 3
-12 4 -4 3806.14 302.048 5
-12 4 4 3091.38 277.166 5
-12 4 4 4001.88 352.185 8
-4 -4 -12 3720.16 358.473 7
4 -4 -12 4507.45 374.805 7
-5 -3 -12 2269.44 298.954 8
-5 3 12 1751.06 414.269 4
-5 3 12 2206.9 316.651 1
3 -5 -12 2205.83 305.599 6
-5 -3 -12 1950 297.803 6
5 3 -12 2461.17 319.031 6
3 5 12 2056.46 309.796 1
-12 5 3 2039.92 281.881 5
12 -3 -5 2193.35 296.018 2
-12 -3 5 2719.38 290.309 5
-12 -5 -3 1640.85 366.197 8
3 -5 -12 1474.32 360.661 7
-5 -3 -12 1373.19 334.121 7
12 3 5 2187.19 389.106 3
-12 -5 -3 2356.13 284.682 5
-5 -3 -12 2286.6 244.383 5
5 3 -12 2240.99 325.35 7
1 -5 -12 5658.39 343.431 6
-12 -5 -1 6185.06 317.895 5
5 -1 12 5834.58 445.831 4
-5 -1 -12 6674.86 332.51 6
5 1 -12 5053.62 338.728 6
1 -5 -12 5066.5 382.228 7
-12 -1 5 5778.74 288.102 5
12 -1 -5 5826.96 330.967 2
-5 -1 -12 6511.03 354.082 8
-12 1 -5 5712.53 379.509 8
12 -1 -5 5720.21 371.215 3
-12 -1 5 5980.76 361.2 8
-5 -1 -12 5968.52 351.995 7
5 1 -12 5477.84 356.267 7
-5 1 12 5773.02 443.578 4
-1 -5 -12 6387 347.626 6
-5 -1 12 5572.95 435.157 4
5 -1 -12 6164.24 350.535 6
5 1 12 5599.02 332.393 2
12 -1 5 6043.59 385.944 2
-1 5 12 5740.15 352.352 1
-5 1 -12 6369.27 314.296 5
5 1 12 6195 382.085 3
-12 -1 -5 5941.16 339.937 5
-12 1 5 5985.39 298.884 5
12 1 -5 5402.05 383.262 3
-1 -5 -12 5535.08 397.902 7
5 -1 -12 6573.82 378.611 7
-5 1 -12 6260.11 371.099 7
12 3 -5 2200.09 346.406 3
5 3 12 1704.57 390.686 4
-3 -5 -12 1955.8 306.206 6
5 -3 -12 2336.88 314.272 6
-3 -5 -12 1884.84 284.261 8
-12 -3 -5 1876.88 358.233 8
-5 -3 12 1771.69 422.357 4
-3 -5 -12 2130.31 349.652 7
-12 3 5 2177.34 310.557 8
12 -3 5 1686.92 341.882 2
-3 5 12 2362.54 300.528 1
-12 -3 -5 2134.81 287.476 5
5 -3 -12 1973.18 340.995 7
5 3 12 1712.23 293.236 1
5 3 12 2168.69 362.176 3
-5 3 -12 2342.54 342.113 7
2 -6 -12 3371.54 326.015 6
6 2 -12 3494.51 346.712 6
2 6 12 2338.15 317.197 1
12 -2 -6 1286.65 262.846 6
-6 -2 -12 1035.89 296.468 6
6 -2 12 3528.95 454.979 4
-12 2 -6 3323.9 323.702 5
-12 2 -6 2757.5 336.733 8
-12 -2 6 2639.96 350.539 8
12 -2 -6 1986.93 307.921 7
-6 -2 -12 1564.34 271.474 5
2 -6 -12 2883.2 381.125 7
-12 -2 6 3102.78 264.032 5
6 2 -12 3020.28 336.81 7
0 -6 -12 162.547 303.4 6
0 6 12 366.777 295.171 1
6 0 12 123.982 403.069 4
-12 0 6 253.68 335.707 4
6 0 -12 39.9381 291.771 6
-6 0 -12 511.052 280.202 6
-12 0 -6 238.666 337.205 8
-12 0 -6 348.452 288.375 5
-6 0 -12 202.266 313.606 8
0 -6 -12 700.261 357.433 7
-12 0 6 175.757 217.093 5
12 0 -6 60.8516 326.972 3
12 0 -6 372.382 244.236 7
6 0 -12 118.989 323.514 7
-6 0 -12 836.654 328.303 7
-6 0 -12 484.446 258.811 5
12 0 6 252.742 331.536 2
-2 -6 -12 2645.93 315.573 6
6 2 12 997.452 427.771 4
-6 -2 12 2950.16 431.923 4
-12 2 6 633.926 242.137 1
-6 2 -12 3154.38 350.097 6
-6 2 -12 3916.24 296.342 5
-2 -6 -12 1687.65 331.793 8
12 -2 6 3317.38 355.066 2
-12 -2 -6 1905.71 373.929 8
-12 2 6 1363.83 276.218 5
12 2 -6 3987.28 307.589 7
6 2 12 1244.83 415.945 3
-12 -2 -6 1373.75 310.044 5
-2 -6 -12 1255.97 380.928 7
6 -2 -12 1116.84 353.241 7
6 2 12 795.629 324.258 1
-6 2 -12 3371.65 338.465 7
6 2 12 215.452 309.589 2
-12 3 -7 2092.53 434.852 8
-12 -3 7 786.314 433.643 8
3 7 12 868.658 394.797 1
7 3 -12 2198.37 417.746 7
-12 3 7 811.92 465.882 4
-7 -3 12 1517.94 584.118 4
-12 -3 -7 67.1037 459.95 8
-3 7 12 1046.21 389.865 1
12 3 -7 2465.87 460.841 7
-8 0 -12 2850.95 426.804 5
-12 0 -8 3080.25 450.059 5
8 -8 -12 38.6675 459.603 6
-8 -8 -12 340.757 519.985 8
12 7 9 292.235 497.93 3
12 -7 -9 271.498 442.568 6
-9 -7 -12 364.325 412.2 6
-9 -5 -12 1074.85 501.531 8
12 -5 -9 221.251 429.169 6
-9 -5 -12 474.253 372.878 6
-9 5 12 542.208 397.971 1
12 -5 -9 153.657 539.015 7
-9 -5 -12 900.74 500.573 7
9 -5 -12 500.533 419.132 6
-12 5 9 114.302 373.654 1
-12 -5 -9 511.962 493.092 8
9 -5 -12 581.474 490.044 7
9 5 12 434.084 411.027 1
9 -7 -12 520.003 416.099 6
-12 -7 -9 542.594 359.371 5
-12 -7 -9 459.547 441.384 8
9 -7 -12 106.226 504.898 7
12 6 10 648.648 510.118 3
-10 -6 -12 539.01 345.701 5
-10 4 12 1086.58 543.339 4
12 -4 -10 524.036 390.258 6
-10 -4 -12 61.524 334.309 6
12 -4 -10 225.333 444.031 7
-10 -4 -12 562.527 455.058 8
12 4 10 669.083 510.052 3
12 2 10 93.0626 492.09 2
12 -2 -10 1151.49 378.378 6
10 -2 12 248.701 474.709 2
10 2 12 489.371 556.54 3
10 2 12 156.046 375.004 1
-12 4 10 343.619 522.092 4
10 -4 -12 20.8081 387.089 6
-12 4 10 97.3331 336.992 1
10 4 12 54.3382 367.417 1
-12 -4 -10 332.706 363.521 5
10 4 12 34.3123 506.842 3
10 -6 -12 577.583 401.624 6
-12 -6 -10 712.753 456.767 8
-12 -6 -10 723.571 354.063 5
10 -8 -12 955.931 492.624 6
12 7 11 443.193 532.67 3
-11 -7 -12 125.494 379.121 5
12 -5 -11 77.1141 387.733 6
-11 5 12 893.252 358.872 1
12 -5 -11 252.356 485.199 7
-11 3 12 466.091 513.789 4
-11 3 12 8.63165 351.007 1
12 3 11 39.0179 494.165 3
-11 -3 -12 545.706 353.343 5
-12 3 -11 371.31 363.905 5
-12 -1 11 1496.99 529.56 4
11 1 -12 1648.48 395.036 6
-11 -1 -12 1169.51 434.173 8
11 -1 12 1368.41 428.063 2
12 1 11 805.169 533.132 3
-11 -1 -12 1705.23 380.996 5
12 -1 -11 1253.99 429.107 7
12 1 11 1575.62 429.583 2
11 1 -12 1973.26 440.773 7
11 -1 -12 1861.86 368.976 6
12 1 -11 1753.11 406.905 6
-12 -1 -11 1332.67 443.406 8
11 1 12 1705.24 518.534 3
-12 -1 -11 1794.63 386.087 5
11 -1 -12 1918.54 438.403 7
-12 1 11 1702.49 381.425 1
12 1 -11 2169.96 444.545 7
-11 3 -12 540.628 365.634 5
-12 -3 -11 89.9137 353.672 5
11 -3 -12 166.493 426.656 7
-12 3 11 164.243 338.284 1
11 -5 -12 223.692 400.97 6
-12 -5 -11 141.453 444.374 8
11 -5 -12 40.5411 469.36 7
11 5 12 336.873 513.307 3
-12 -7 -11 135.249 365.511 5
12 0 -12 427.896 370.482 6
-12 0 -12 793.182 435.964 8
12 0 12 724.424 556.982 3
-12 0 -12 946.322 395.69 5
12 0 12 810.902 454.009 2
12 0 -12 426.592 447.115 7
-12 -2 -12 193.363 443.78 8
-12 2 12 903.345 511.077 4
12 2 -12 57.6326 402.361 6
-12 -2 12 113.341 554.361 4
-12 2 -12 987.016 429.18 8
-12 2 -12 1021.51 396.822 5
-12 -2 -12 633.693 371.559 5
-12 2 12 167.245 383.152 1
12 2 -12 999.04 486.54 7
12 2 12 648.821 435.394 2
-12 4 -12 87.8668 342.687 5
-12 4 12 485.74 537.543 4
12 -4 -12 89.0532 419.164 6
-12 -4 -12 116.275 361.038 5
12 4 12 174.012 514.177 3
-12 -4 -12 766.311 464.777 8
12 -4 -12 604.195 458.348 7
12 4 -12 52.5475 482.835 7
12 -6 -12 105.184 440.731 6
12 -6 -12 219.704 529.098 7
-12 6 12 230.858 372.715 1
-12 -6 -12 443.768 367.928 5
12 -8 -12 32.3821 538.452 6
13 0 1 171.331 322.528 2
0 1 13 603.542 404.831 4
13 1 0 98.4786 352.136 3
-1 0 13 104.747 401.174 4
0 -1 -13 215.291 276.613 6
1 0 -13 481.263 293.666 6
-1 0 -13 277.441 281.708 6
0 1 -13 198.68 300.647 6
-13 0 -1 279.862 267.623 5
-13 1 0 46.6717 324.323 8
-13 0 -1 409.203 331.24 8
-13 1 0 239.82 275.208 5
13 0 1 166.045 364.776 3
13 0 -1 105.289 364.625 3
-13 0 1 544.925 269.693 5
-13 -1 0 197.498 268.521 5
0 -1 -13 452.796 306.609 7
13 -1 0 309.104 317.283 2
0 1 -13 129.327 304.076 7
2 -1 13 10014.1 519.782 4
1 -2 -13 9962.27 421.402 6
-2 -1 -13 10553 417.312 6
2 1 -13 9161.64 426.654 6
-1 2 -13 9509.1 441.012 6
13 -2 1 10217.8 446.011 2
13 -1 -2 10382.8 441.972 2
13 -1 -2 10174.9 489.239 3
-13 1 -2 11100.1 429.505 5
-13 2 1 10361.7 448.28 8
-13 1 -2 9811.42 460.673 8
13 1 2 9453.31 491.809 3
-13 -1 2 9350.57 461.634 8
-13 -1 2 10566 401.852 5
-13 -2 -1 10496.3 413.559 5
13 2 -1 9063.23 465.957 3
1 -2 -13 9815.67 452.552 7
-2 -1 -13 10203 458.484 7
2 1 -13 9404.52 442.325 7
1 2 13 10249.6 517.089 4
-2 1 13 10291.4 521.104 4
1 -2 13 9977.11 522.2 4
-2 1 -13 10852.5 441.089 6
1 2 -13 10303 451.178 6
13 -2 -1 9053.96 435.784 2
13 -1 2 10750.7 452.728 2
13 -1 2 9568.11 499.892 3
-13 2 -1 11259.8 424.218 5
-13 2 -1 10260.3 464.729 8
-13 1 2 10363.6 469.589 8
-13 -1 -2 9712.01 466.109 8
-13 -2 1 10228.5 469.629 8
-13 -1 -2 11520.5 423.26 5
13 1 -2 10066.4 469.605 3
13 2 1 9768.58 468.514 3
2 -1 -13 10032.1 444.067 7
-2 1 -13 9193.24 445.741 7
1 2 -13 10690.6 454.403 7
-1 2 13 10378.3 521.516 4
2 1 13 10652.3 513.166 4
-3 2 13 1682.93 450.696 4
2 -3 -13 2632.02 326.878 6
-13 3 2 3383.14 304.071 5
3 -2 13 4022.33 456.777 4
-2 -3 13 2895.83 461.989 4
-13 2 -3 3726.68 316.893 5
-13 -2 3 3414.1 281.224 5
2 3 13 282.688 366.944 1
-3 -2 -13 1899.06 305.45 8
-13 2 -3 3608.64 367.541 8
13 -3 2 3355.13 355.543 2
13 -2 -3 1781.06 408.707 3
-13 -2 3 2556.71 359.466 8
3 2 -13 3293.71 344.668 7
-2 3 -13 4355.54 361.452 7
13 -2 -3 2358.46 331.912 2
13 2 3 2672.15 399.977 3
2 -3 -13 3083.48 371.669 7
-3 -2 -13 1560.2 353.064 7
-13 -3 -2 3217.13 373.797 8
13 3 -2 2434.15 392.941 3
3 0 13 21063.1 742.06 4
0 -3 -13 23510.1 690.787 6
3 0 -13 21511.7 686.751 6
-3 0 -13 21430.9 682.202 6
0 -3 13 19836 756.346 4
0 3 -13 20221.7 702.101 6
3 0 13 21290.4 672.176 2
13 -3 0 20665 701.566 2
13 3 0 19600.2 715.342 3
0 3 13 22154.3 691.996 1
-13 3 0 21771.8 669.65 5
-3 0 -13 20826.8 659.765 8
-3 0 -13 20467.5 642.135 5
-13 3 0 21542.5 696.101 8
-13 0 -3 20595.9 681.866 5
-13 0 3 21666.8 704.043 8
13 0 -3 20069 713.041 3
-13 -3 0 21476.3 708.765 8
-13 0 3 22184.5 666.783 5
-13 -3 0 21854.3 667.979 5
0 -3 -13 22641.3 707.485 7
-3 0 -13 20180.1 693.069 7
0 3 -13 18997.8 704.892 7
-2 3 13 1251.71 436.074 4
-2 -3 -13 1935.44 318.274 6
3 -2 -13 3126.93 316.824 6
13 -2 3 3491.46 354.505 2
-3 -2 13 3459.39 445.092 4
-3 2 -13 3269.86 337.973 6
2 3 -13 3258.97 351.26 6
-3 2 -13 3556.44 266.924 5
3 2 13 1983.17 307.448 2
-13 3 -2 3094.95 345.508 8
-13 -2 -3 3038.47 305.981 5
-13 -3 2 2834.06 280.301 5
-13 2 3 2235.1 348.2 8
-13 -2 -3 3323.16 361.506 8
13 -3 -2 2718.75 324.423 2
3 2 13 1693.26 345.413 3
-13 2 3 3372.41 304.967 5
3 -2 -13 3719.89 357.322 7
-3 2 -13 4086.56 350.984 7
2 3 -13 3848.45 352.451 7
-2 -3 -13 1401.9 363.565 7
13 2 -3 2726.96 377.289 3
13 4 -1 279.555 404.93 3
4 1 -13 127.237 330.661 6
-13 -4 -1 515.348 287.783 5
-4 1 -13 58.0029 334.227 6
-4 1 -13 378.664 263.412 5
-4 1 -13 179.399 346.46 7
13 4 1 88.3215 394.372 3
13 1 6 2417.38 516.235 2
1 -6 -13 4287.95 458.684 6
-6 1 13 2748.62 609.529 4
-6 -1 -13 2255.93 428.045 6
6 -1 13 3417.59 604.709 4
6 1 -13 3099.12 436.91 6
6 -1 13 4056.05 451.39 2
-6 -1 -13 2073.34 451.362 8
-13 1 -6 4433.29 504.962 8
6 1 -13 3304.97 489.783 7
-6 -1 -13 3845.35 360.071 5
13 1 6 1779.82 591.853 3
13 -1 -6 361.683 501.056 3
1 -6 -13 3253.25 528.085 7
-6 -1 -13 3381.05 481.135 7
13 -1 -6 14.3193 419.854 2
-13 1 -6 3637.03 438.347 5
-1 -6 -13 3940.47 451.842 6
13 -1 6 4530.01 523.001 2
6 1 13 2375.33 582.83 4
-1 6 13 5367.35 427.059 1
6 -1 -13 2984.93 432.934 6
-6 -1 13 3371.34 617.719 4
-6 1 -13 2907.05 462.474 6
-6 1 -13 3765.52 491.62 8
-13 -1 -6 1239.5 520.018 8
6 1 13 1714.77 507.299 3
-13 -1 -6 2744.93 432.521 5
6 1 13 4346.47 461.019 2
-1 -6 -13 3078.48 541.166 7
6 -1 -13 3293.42 488.411 7
-6 1 -13 4576.24 487.332 7
13 1 -6 2467.79 504.274 3
13 6 7 26.7845 517.695 3
6 -7 -13 717.93 420.833 6
-7 -6 -13 419.352 456.349 8
-7 -6 -13 345.963 400.464 6
-7 6 13 9.10482 392.677 1
6 -7 -13 148.476 502.253 7
6 7 13 412.751 397.1 1
-7 -6 -13 508.887 502.235 7
-7 -6 -13 1214.74 373.676 5
-13 -7 -6 532.613 381.518 5
7 6 13 522.946 494.736 3
13 7 6 144.523 500.981 3
7 -6 -13 135.28 405.251 6
-6 -7 -13 160.291 485.328 8
-13 -6 -7 96.0994 466.891 8
-6 -7 -13 591.792 523.117 7
-13 -6 -7 813.892 355.976 5
13 7 8 130.741 501.639 3
7 -8 -13 864.089 466.977 6
-8 -7 -13 57.0349 456.166 8
5 -8 -13 1336.95 466.869 6
-8 -5 -13 995.564 373.06 6
-8 5 13 318.41 376.404 1
-8 -5 -13 86.954 446.442 8
5 -8 -13 388.37 513.908 7
-8 -5 -13 583.851 460.875 7
8 -5 -13 1042.13 381.216 6
-5 8 13 453.239 389.595 1
8 -5 -13 887.888 465.276 7
-13 -5 -8 777.576 358.082 5
-7 -8 -13 17.3323 442.762 6
8 -7 -13 688.373 431.73 6
-13 -7 -8 579.24 351.888 5
-9 -8 -13 163.247 483.056 6
-9 -6 -13 586.324 378.591 6
-13 4 -9 550.253 355.251 5
13 -4 -9 753.841 370.155 6
-9 -4 -13 1077.84 351.384 6
-13 4 -9 341.91 396.6 8
13 -4 -9 1530.88 456.847 7
-9 -4 -13 937.841 335.625 5
-9 -4 -13 1137.65 433.979 7
13 4 9 755.31 501.499 3
-9 -2 -13 28.2679 362.675 6
9 2 -13 384.241 420.111 6
-9 2 13 1137.59 414.794 1
-13 2 -9 465.358 392.478 5
-9 -2 -13 647.018 445.627 8
-9 -2 -13 609.234 440.692 7
-9 0 -13 1337.63 438.92 8
-13 0 -9 922.222 421.273 5
9 2 13 827.523 512.359 4
9 -2 -13 233.409 407.223 6
9 2 13 193.873 377.034 1
-9 2 -13 719.474 438.104 8
-9 2 -13 784.011 394.753 5
9 2 13 945.669 502.421 3
-13 -2 -9 571.623 374.036 5
9 2 13 631.006 424.451 2
9 -4 -13 631.302 393.261 6
13 -4 9 1215.13 444.817 2
9 4 13 497.146 366.451 1
-13 -4 -9 510.566 360.394 5
9 -4 -13 435.666 450.539 7
-13 -6 -9 18.7983 363.747 5
9 -8 -13 659.941 491.345 6
13 -7 -10 118.471 455.181 6
-10 7 13 183.028 391.259 1
-10 -7 -13 970.919 389.741 5
-10 -7 -13 397.027 484.935 8
-10 5 13 584.707 567.974 4
13 -5 -10 439.997 400.049 6
-10 5 13 446.377 367.265 1
-10 -5 -13 713.04 354.299 5
13 5 10 3.91183 509.01 3
13 -5 -10 875.437 501.967 7
-10 3 13 2095.67 536.71 4
-10 -3 -13 1201.98 436.356 8
-10 -3 -13 1179.39 347.638 5
13 3 10 1045.83 488.302 3
13 -3 -10 814.069 423.053 7
10 3 -13 795.216 438.113 7
-10 1 13 929.093 534.398 4
13 -1 -10 754.541 344.956 6
-10 -1 -13 75.5926 353.63 6
10 1 -13 305.451 391.871 6
10 -1 13 59.8167 419.629 2
-10 -1 -13 948.449 358.878 5
13 1 10 760.889 535.134 3
13 -1 -10 311.326 394.827 7
13 1 10 512.662 436.279 2
10 1 13 21.4786 488.814 4
-10 -1 13 62.1973 522.761 4
-10 1 -13 222.848 412.74 6
-10 1 -13 416.542 416.079 8
-13 -1 -10 368.682 453.781 8
13 -1 10 220.404 430.16 2
10 1 13 115.392 418.169 2
10 3 13 1649.71 363.543 1
10 -3 -13 880.956 404.247 6
13 -3 10 667.38 419.772 2
-10 3 -13 953.464 366.685 5
-13 -3 -10 1022.19 460.145 8
-13 -3 -10 1419.02 363.413 5
10 -3 -13 980.647 455.254 7
-10 3 -13 1294.94 443.717 7
10 5 13 1098.86 398.838 1
10 5 13 621.908 506.384 4
10 -5 -13 1008.54 396.552 6
-13 -5 -10 21.6511 469.216 8
10 5 13 164.142 523.1 3
10 -7 -13 553.3 437.949 6
10 -7 -13 64.2303 530.269 7
13 -8 -11 613.959 533.448 6
13 -6 -11 1383.58 451.48 6
-11 -6 -13 363.093 368.509 5
-11 6 13 909.069 396.58 1
-11 4 13 129.487 556.445 4
13 -4 -11 54.475 427.13 6
-11 -4 -13 236.776 466.639 8
-11 -4 -13 190.598 352.678 5
13 4 11 293.092 529.397 3
11 4 -13 331.856 431.445 7
-11 2 13 850.168 536.556 4
-13 2 -11 3.4799 392.955 5
13 -2 -11 714.625 367.692 6
11 2 -13 652.016 417.517 6
-11 -2 -13 1003.58 369.743 5
13 2 11 289.219 525.445 3
13 -2 -11 609.977 424.149 7
11 2 -13 278.666 468.831 7
11 0 13 193.626 540.648 3
-11 0 13 65.1417 518.148 4
11 0 -13 286.674 379.876 6
13 0 -11 610.704 361.22 6
-13 0 -11 224.851 455.782 8
-11 0 -13 170.855 380.045 5
-13 0 -11 51.463 389.073 5
13 0 -11 206.378 425.669 7
11 -2 -13 711.602 404.655 6
-11 -2 13 941.61 557.468 4
-13 -2 -11 42.2599 371.457 5
-11 2 -13 603.552 385.386 5
13 2 -11 636.678 477.957 7
11 -4 -13 101.304 429.607 6
-13 4 11 495.961 350.728 1
-13 -4 -11 666.46 362.941 5
11 4 13 286.453 518.539 3
13 4 -11 1091.51 547.629 7
11 -8 -13 161.456 502.241 6
-13 -8 -11 338.95 497.087 8
-12 7 13 240.161 412.38 1
13 -7 -12 293.725 492.002 6
-12 5 13 431.921 603.21 4
13 -5 -12 366.204 449.351 6
-12 -5 -13 3.18651 361.276 5
13 -5 -12 828.46 516.004 7
-12 3 13 1626.42 560.719 4
-12 3 13 1670.66 402.51 1
-12 -3 -13 1474.46 492.681 8
-12 -3 -13 1253.23 384.274 5
13 3 12 1511.04 541.062 3
12 3 -13 1880.82 531.814 7
13 -1 -12 925.713 379.031 6
12 1 -13 1253.61 412.982 6
12 -1 13 1879.03 464.556 2
-13 1 -12 1151.71 417.551 5
13 1 12 11.9512 566.32 3
-12 -1 -13 1127.56 390.736 5
12 1 -13 1137.69 497.464 7
-13 1 12 1465.3 389.327 1
-13 1 12 1084.84 515.762 4
12 -1 -13 619.208 406.973 6
-12 -1 13 1225.91 551.677 4
13 1 -12 1172.67 418.98 6
13 -1 12 695.616 602.373 3
-13 -1 -12 588.062 408.286 5
12 -1 -13 1307.95 457.284 7
13 1 -12 1892.98 486.955 7
-12 3 -13 1757.79 411.173 5
-13 3 12 2297.82 546.511 4
-13 -3 -12 1226.06 384.236 5
12 -3 -13 1964.13 488.911 7
13 3 -12 2561.18 570.773 7
-13 5 12 96.5089 372.612 1
-13 5 12 321.236 601.481 4
12 -5 -13 415.731 457.446 6
12 -5 -13 50.6148 505.889 7
12 5 13 777.426 557.404 3
12 -7 -13 729.842 488.642 6
12 -7 -13 73.8633 587.606 7
13 0 -13 4268.2 447.944 6
-13 0 13 4640.19 577.745 4
13 0 -13 4326.11 518.879 7
13 -2 -13 182.617 411.738 6
13 2 -13 117.046 446.3 6
-13 -2 13 265.308 594.761 4
13 2 -13 175.183 551.094 7
-13 2 13 295.632 406.855 1
-13 4 13 342.502 591.213 4
13 -4 -13 589.735 474.105 6
13 -4 -13 584.967 490.938 7
-13 6 13 954.854 691.87 4
13 -6 -13 282.022 482.051 6
-13 -6 -13 169.365 502.702 8
13 -6 -13 191.275 576.434 7
-13 6 13 250.379 406.016 1
13 8 13 476.056 603.008 3
-13 -8 -13 1258.19 575.583 8
-13 -8 -13 562.824 445.13 5
-2 2 14 1406.09 591.539 4
-2 -2 14 2419 601.906 4
2 -2 14 1481.08 595.266 4
2 2 -14 332.157 432.278 6
14 2 -2 897.188 511.575 3
-2 2 -14 535.056 437.761 6
-14 2 -2 1351.93 496.779 8
-14 -2 -2 1070.02 493.615 8
14 -2 2 1127.1 465.234 2
-14 -2 2 637.298 483.198 8
-14 -2 -2 53.6841 383.606 5
-14 -2 2 59.7728 360.479 5
14 2 2 395.714 506.754 3
-14 2 -2 675.552 400.155 5
2 2 -14 1834.79 454.42 7
-2 2 -14 1207.1 462.269 7
1 -3 -14 55.3033 445.902 6
-3 -1 -14 905.89 428.263 6
3 1 -14 985.215 447.76 6
-1 3 -14 268.894 474.663 6
-14 3 1 1824.54 467.445 8
-14 3 1 1771.66 419.263 5
14 -3 1 844.526 459.956 2
-14 1 -3 1946.17 416.109 5
14 1 3 224.124 578.401 3
-14 -1 3 279.292 385.749 5
-14 -3 -1 1912.2 410.767 5
1 -3 -14 1133.28 504.069 7
-3 -1 -14 470.252 480.235 7
3 1 -14 971.906 473.147 7
14 3 -1 1585.28 525.741 3
-1 3 -14 593.497 482.867 7
-1 3 14 1612.9 629.688 4
3 1 14 1570.76 600.269 4
3 -1 -14 969.514 430.459 6
-14 3 -1 1568.64 411.562 5
-14 -1 -3 1464.63 543.638 8
-3 1 -14 1250.17 446.005 6
1 3 -14 782.362 475.096 6
-1 3 14 397.432 465.932 1
1 -3 14 638.285 639.772 4
-14 3 -1 1470.92 480.025 8
14 -3 -1 1348.41 473.466 2
-14 -1 -3 1385.7 414.144 5
14 1 -3 384.567 524.692 3
-14 -3 1 1511.65 382.639 5
14 -1 3 1803.78 518.302 2
3 -1 -14 1245.43 480.91 7
14 3 1 741.551 528.691 3
1 3 -14 729.387 500.251 7
4 6 14 70.9704 429.911 1
-14 4 -6 409.014 453.814 8
-14 -6 -4 1531.52 511.81 8
-14 -4 6 1077.41 543.008 8
6 4 14 710.648 412.613 1
-14 4 6 92.4845 452.572 8
-14 4 6 115.582 379.278 5
14 6 6 3.92496 498.858 3
6 6 14 177.41 390.001 1
6 -6 -14 509.7 400.243 6
-6 -6 -14 359.651 381.216 6
-14 6 6 507.718 365.556 5
-14 -6 -6 10.7709 448.263 8
6 -6 -14 14.0593 458.029 7
-14 -6 -6 159.657 349.294 5
-7 5 14 3105.01 573.719 4
5 -7 -14 2528.31 403.557 6
-7 -5 -14 2540.03 381.473 6
5 -7 -14 2263.39 477.758 7
-7 5 14 2145.31 396.705 1
-7 -5 -14 2180.82 473.465 7
5 7 14 1439.81 411.345 1
-7 -5 -14 2268.86 342.646 5
-14 -7 -5 2388.78 366.759 5
-7 3 14 457.269 574.127 4
-7 -3 -14 1003.97 380.295 6
7 3 -14 1833.86 433.376 6
-14 3 -7 1179.23 433.311 8
-7 -3 -14 997.49 431.745 8
-14 3 -7 1733.72 394.463 5
-7 -3 -14 1811.75 335.616 5
3 -7 -14 1155.14 488.116 7
14 3 7 748.732 523.218 3
-7 -3 -14 1289.64 442.992 7
3 7 14 1386.97 405.99 1
-3 7 14 989.408 399.312 1
-3 -7 -14 401.11 395.833 6
7 3 14 51.6184 536.758 4
7 -3 -14 1371.61 419.805 6
-7 -3 14 893.49 588.65 4
14 -3 7 799.78 446.47 2
-7 3 -14 940.469 374.328 5
7 3 14 1310.45 391.526 1
-14 -3 -7 1316.13 389.067 5
-3 -7 -14 1103.89 499.475 7
7 3 14 633.026 478.004 3
7 -3 -14 673.975 475.806 7
-5 7 14 1823.25 391.982 1
7 5 14 2532.43 533.247 4
-5 -7 -14 1909.59 406.461 6
7 5 14 1766.75 393.391 1
-14 -5 -7 2510.45 457.597 8
-5 -7 -14 2515.1 496.753 7
7 -5 -14 2846.29 473.734 7
-14 -5 -7 2471.19 368.402 5
-7 -7 -14 238.232 397.922 6
-7 -7 -14 63.6433 494.495 7
7 7 14 150.267 390.068 1
6 -8 -14 227.832 446.479 6
-8 -6 -14 623.213 488.971 7
-8 -4 -14 20.6327 411.476 8
4 -8 -14 191.6 431.231 6
-8 4 14 337.824 400.892 1
-14 4 -8 443.794 359.653 5
-8 -4 -14 404.352 327.675 5
-8 -4 -14 100.613 430.763 7
14 4 8 241.046 497.008 3
4 8 14 735.365 404.473 1
-8 -2 -14 4527.53 385.73 6
8 2 -14 4288.1 433.418 6
2 8 14 3881.95 416.371 1
-14 2 -8 3814.09 464.367 8
14 2 8 3815.53 519.742 3
2 -8 -14 4606.7 531.07 7
-8 -2 -14 3805.72 434.322 7
0 -8 -14 783.945 397.679 6
8 0 14 456.05 536.866 4
8 0 -14 127.76 385.648 6
-8 0 -14 384.132 378.463 6
0 8 14 252.231 378.947 1
8 0 -14 186.909 439.142 7
8 -2 -14 4359.31 439.494 6
-2 -8 -14 4279.94 423.897 6
-2 8 14 4388.51 417.831 1
8 2 14 4387.12 527.581 4
-8 -2 14 4528 572.317 4
-8 2 -14 4503.59 409.732 5
-14 -2 -8 4711.32 432.894 5
8 2 14 3847.85 417.754 2
-4 -8 -14 430.546 391.506 6
8 -4 -14 145.913 409.676 6
-14 -4 -8 200.904 358.49 5
8 4 14 73.7184 374.671 1
8 -4 -14 287.496 471.497 7
8 4 14 271.197 491.742 3
8 6 14 282.904 516.167 3
8 -6 -14 418.038 392.717 6
8 6 14 430.64 407.922 1
-9 -7 -14 100.569 430.158 6
-9 5 14 612.065 589.304 4
-9 -5 -14 59.4916 348.488 6
-9 -5 -14 97.493 445.26 8
-9 -5 -14 399.129 454.751 7
-9 -5 -14 100.475 349.966 5
-9 3 14 1324.33 549.541 4
-9 -3 -14 621.878 354.76 6
-9 -3 -14 843.381 418.93 8
-9 -3 -14 730.419 340.796 5
-9 3 14 1449.75 391.808 1
14 3 9 1072.32 503.089 3
-9 -1 -14 652.794 361.437 6
9 1 -14 250.175 382.155 6
9 -1 14 128.08 563.586 4
-9 -1 -14 365.068 339.796 5
9 1 -14 152.956 436.698 7
9 1 14 68.4922 504.491 4
9 1 14 559.714 488.148 3
-14 -1 -9 242.674 377.111 5
9 3 14 1326.79 398.598 2
9 -3 -14 768.078 401.624 6
9 3 14 521.236 358.801 1
-9 -3 14 1730.15 578.542 4
9 3 14 341.283 483.786 3
9 -3 -14 803.89 467.849 7
-9 3 -14 1280.81 442.575 7
9 5 14 508.513 534.886 4
9 -5 -14 108.47 407.972 6
9 -5 -14 598.615 471.685 7
9 5 14 423.054 530.611 3
9 -7 -14 28.7096 429.537 6
-14 -7 -9 853.684 448.615 8
-10 -8 -14 551.314 561.391 8
-10 -6 -14 62.8983 376.791 5
-10 4 14 677.896 571.626 4
-10 -4 -14 1079.18 350.037 5
-10 4 14 931.085 400.559 1
10 2 -14 36.447 419.253 6
-10 2 14 69.837 409.538 1
-10 -2 -14 519.265 436.852 8
10 2 -14 6.94286 462.731 7
-10 0 14 82.9413 544.61 4
10 0 -14 99.0833 381.524 6
10 0 14 56.9022 541.31 4
-10 0 -14 265.211 417.969 8
10 0 14 40.2996 525.543 3
10 0 14 416.176 416.386 2
-10 0 -14 63.8351 380.363 5
10 2 14 112.076 359.667 1
10 2 14 210.53 505.208 4
10 -2 -14 407.283 413.274 6
-10 -2 14 146.689 554.184 4
-10 2 -14 458.261 441.163 8
-10 2 -14 40.9202 398.01 5
-14 -2 -10 354.673 374.315 5
10 2 14 488.326 512.859 3
10 2 14 237.471 422.795 2
10 4 14 1555.75 524.455 4
10 -4 -14 952.801 440.698 6
10 4 14 1863.78 397.781 1
10 4 14 861.662 517.007 3
10 6 14 450.981 564.368 3
10 6 14 981.39 570.133 4
10 -6 -14 176.921 417.32 6
-14 -8 -10 56.0503 400.441 5
14 7 11 529.691 577.62 3
-11 -7 -14 451.961 409.656 5
-11 5 14 828.431 609.791 4
-11 5 14 395.912 394.062 1
-11 -5 -14 189.875 499.51 8
-11 -5 -14 550.077 369.683 5
-11 3 14 214.327 398.147 1
-11 -3 -14 829.468 464.323 8
-11 -3 -14 538.584 360.04 5
11 3 -14 444.756 513.574 7
11 1 -14 143.272 408.89 6
11 -1 14 210.093 451.166 2
-11 -1 -14 198.282 456.067 8
-11 -1 -14 178.453 391.506 5
11 1 -14 397.28 466.507 7
11 -1 -14 1192.08 421.57 6
-11 1 -14 33.9281 443.959 8
11 1 14 80.1534 433.031 2
11 -1 -14 1019.98 496.835 7
11 3 14 356.968 456.265 2
11 -3 -14 367.386 443.849 6
11 3 14 195.047 516.139 3
-11 3 -14 712.87 412.921 5
11 -5 -14 772.141 458.364 6
11 -5 -14 722.11 515.212 7
11 5 14 128.901 554.702 3
11 7 14 1168.14 593.416 3
-14 -7 -11 205.138 514.955 8
-14 -7 -11 84.2179 399.218 5
-14 4 -12 246.828 379.504 5
-12 4 14 510.56 414.107 1
-12 -4 -14 557.568 376.673 5
12 4 -14 60.8998 525.75 7
-12 2 14 129.134 415.709 1
12 2 -14 469.01 454.651 6
-14 2 -12 128.103 448.159 8
-12 -2 -14 837.286 390.7 5
12 2 -14 246.128 540.099 7
14 2 12 157.625 477.384 2
-12 0 14 536.142 562.277 4
12 0 -14 92.5454 422.424 6
-14 0 -12 634.067 484.085 8
12 0 14 201.346 603.33 3
-12 0 -14 272.337 423.247 5
14 0 12 57.1554 470.706 2
12 -2 -14 20.9993 437.374 6
-12 -2 14 182.022 609.557 4
-12 2 -14 659.629 422.208 5
-14 -2 -12 697.466 494.662 8
14 -2 12 323.15 489.831 2
12 -4 -14 427.638 471.249 6
-14 -4 -12 240.486 514.376 8
12 4 14 252.453 564.459 3
12 -6 -14 1137.99 490.073 6
-14 -6 -12 885.116 528.964 8
-14 -8 -12 61.4629 433.619 5
-13 -7 -14 228.74 550.24 8
-13 -7 -14 441.779 429.27 5
-13 3 14 777.415 425.889 1
13 -3 14 524.918 499.547 2
-14 3 -13 298.82 467.024 8
-14 3 -13 163.873 425.432 5
-13 -3 -14 799.911 523.012 8
13 3 -14 310.128 632.549 7
-13 1 14 292.169 449.577 1
-13 1 14 786.077 593.582 4
13 1 -14 22.475 438.245 6
-14 1 -13 150.123 483.11 8
13 -1 14 789.205 485.507 2
-14 1 -13 184.743 436.22 5
14 1 13 46.3807 492.352 2
13 -1 -14 572.015 423.774 6
-13 -1 14 164.146 600.279 4
-13 1 -14 113.215 462.325 8
-14 -1 -13 62.6189 502.131 8
14 -1 13 130.054 482.076 2
-14 -1 -13 280.454 434.879 5
14 -1 13 209.176 654.407 3
13 1 14 990.928 469.607 2
13 -1 -14 153.686 516.681 7
13 3 14 1280.71 506.323 2
14 -3 13 946.084 502.532 2
-13 3 -14 184.576 477.421 8
-13 3 -14 53.4977 444.45 5
-14 -3 -13 393.596 404.742 5
13 -3 -14 1345.04 535.383 7
13 7 14 81.1783 632.591 3
-14 -7 -13 1132.41 556.681 8
-14 -7 -13 251.048 410.368 5
14 4 14 222.912 558.214 2
-14 4 -14 192.075 409.66 5
-14 -4 -14 832.418 415.245 5
14 4 14 1336.71 618.487 3
-14 -6 -14 261.617 426.143 5
14 6 14 1560.53 649.199 3
3 4 15 1841.84 592.171 4
3 -4 -15 446.819 435.862 6
-4 -3 -15 39.4062 407.693 6
4 3 -15 764.053 442.525 6
-15 4 3 148.264 429.3 8
-15 3 -4 1050.85 458.543 8
15 -3 -4 212.4 437.218 2
-15 3 -4 138.47 404.36 5
-15 4 3 413.846 382.756 5
-15 -4 -3 1484.4 499.042 8
3 -4 -15 1528.09 507.993 7
-15 -4 -3 204.794 371.499 5
-15 -3 4 267.143 362.373 5
-4 3 15 1294.7 452.83 1
4 3 -15 1119.89 443.982 7
4 -3 -15 54.0913 422.175 6
4 3 15 1190.92 438.949 1
-15 4 -3 1091.22 456.797 8
15 -3 4 905.853 469.568 2
-15 -4 3 828.417 481.193 8
-15 3 4 754.12 431.591 8
-15 -4 3 435.95 368.098 5
4 -5 -15 1370.8 398.777 6
-5 -4 -15 823.894 381.389 6
15 -5 4 614.803 471.432 2
-5 4 15 869.004 403.999 1
-15 4 -5 599.997 402.074 8
-15 4 -5 1392.38 370.478 5
-15 5 4 799.221 362.221 5
4 5 15 560.073 379.385 1
4 -5 -15 1461.51 468.626 7
-15 -5 -4 263.235 348.187 5
15 4 5 639.143 513.343 3
2 -5 -15 1611.85 405.116 6
5 2 -15 1599.7 447.92 6
5 -2 15 1029.06 596.867 4
15 -5 2 1849.37 464.251 2
-15 2 -5 1561.27 420.914 5
15 -2 -5 1949.06 492.418 3
15 -2 -5 1243.39 409.437 2
15 2 5 1283.16 533.855 3
2 -5 -15 1213.84 485.623 7
2 5 15 1673.52 423.267 1
-5 -2 -15 1223.24 451.74 7
-15 -5 -2 1569.52 368.662 5
5 2 -15 1202.35 429.732 7
15 5 0 1440.9 527.869 3
0 -5 -15 848.554 419.994 6
-5 0 -15 794.695 410.225 6
15 -5 0 1399.32 486.07 2
-15 0 -5 1180.47 489.276 8
-15 5 0 167.364 393.268 5
-15 0 5 818.896 351.786 5
-15 5 0 1285.04 448.332 8
15 5 2 1475.94 498.356 3
5 -2 -15 2023.07 421.02 6
-5 -2 15 1554.03 566.272 4
-5 2 -15 2232.38 450.622 6
15 -5 -2 1449.93 466.858 2
-15 2 5 1674.96 447.963 8
-15 5 -2 1703.12 388.362 5
-15 -2 -5 410.187 471.812 8
15 -2 5 2181.02 471.402 2
-15 2 5 1866.54 363.573 5
-15 -2 -5 2177.55 384.728 5
-2 5 15 1378.52 418.97 1
-5 2 -15 1733.58 453.856 7
15 2 -5 1189.48 485.495 3
-4 5 15 659.583 549.986 4
-4 -5 -15 1065.4 404.967 6
5 -4 -15 1828.79 398.987 6
5 4 15 1218.8 386.898 1
15 -4 5 971.412 425.791 2
-15 5 -4 724.633 397.088 8
-15 4 5 769.943 395.478 8
-15 5 -4 559.014 378.566 5
-15 -4 -5 983.335 454.297 8
-15 4 5 1378.95 356.664 5
-15 -5 4 826.683 436.352 8
-4 5 15 793.424 394.754 1
-6 5 15 2547.41 569.89 4
-6 -5 -15 2477.14 404.657 6
5 6 15 2139.18 399.684 1
-15 6 5 3398.18 391.68 5
-15 -5 6 2814.35 490.958 8
-6 -5 -15 3108.35 476.541 7
3 -6 -15 221.143 393.328 6
-6 -3 -15 325.62 355.427 6
-6 3 15 339.282 423.088 1
6 3 -15 579.939 400.453 6
15 -3 -6 218.385 372.627 2
15 3 6 456.495 504.297 3
-6 -3 -15 224.133 441.669 7
-15 -6 -3 537.345 353.01 5
15 1 6 1813.07 473.583 2
1 -6 -15 1533.27 407.263 6
-6 1 15 2301.96 560.392 4
-6 -1 -15 1464 382.287 6
6 1 -15 2065.98 384.351 6
1 6 15 1131.6 391.219 1
-15 1 -6 969.621 448.154 8
-15 -1 6 2309.04 432.484 8
-15 1 -6 1891.9 402.264 5
15 1 6 1044.16 526.967 3
1 -6 -15 1646.02 480.904 7
-15 -1 6 1165.62 315.266 5
15 -1 -6 2033.74 393.683 2
6 1 -15 2286.38 441.644 7
-15 -6 -1 1471.17 363.375 5
15 6 1 1838.08 484.84 3
-1 -6 -15 1868.11 412.112 6
6 1 15 1697.54 525.072 4
-6 1 -15 1922.52 409.39 6
-15 -1 -6 2002.31 458.733 8
-6 1 -15 2108.31 335.659 5
-15 -1 -6 1228.58 392.24 5
-15 1 6 1676.14 331.738 5
15 -1 6 3092.46 454.293 2
-1 -6 -15 1734.34 471.773 7
-6 1 -15 1682.36 446.993 7
15 1 -6 1057.19 466.231 3
6 3 15 62.448 530.022 4
-3 -6 -15 80.4279 412.366 6
6 -3 -15 894.222 389.062 6
-6 3 -15 153.294 354.32 5
-15 3 6 269.211 328.232 5
-15 -3 -6 59.6752 365.295 5
-3 -6 -15 187.14 462.308 7
6 -3 -15 357.73 450.915 7
-6 3 -15 146.125 433.324 7
6 3 15 94.2854 382.658 1
-5 -6 -15 2700.4 414.419 6
6 -5 -15 2439.7 404.506 6
-15 5 6 2942.49 385.605 5
6 5 15 2685.13 410.073 1
-5 -6 -15 2749.09 488.006 7
-7 -6 -15 1345.94 415.261 6
6 7 15 1085.63 407.181 1
-7 -4 -15 752.175 378.395 6
-7 4 15 1298.89 405.796 1
-7 -4 -15 797.887 453.91 7
4 7 15 401.064 394.394 1
2 7 15 1669.37 382.639 1
2 -7 -15 1271.88 397.044 6
-7 -2 -15 1794.94 360.096 6
-15 -2 7 2135.16 469.338 8
-15 2 -7 2190.3 400.009 5
15 2 7 2646.17 525.428 3
-15 -2 7 1505.39 314.569 5
0 -7 -15 2329.96 407.413 6
7 0 15 2993.28 553.064 4
7 0 -15 2989.81 405.258 6
-7 0 -15 2668.23 395.319 6
7 0 15 2434.67 397.411 2
-7 0 -15 2361.97 437.98 8
-15 0 -7 2641.75 403.327 5
7 0 -15 2526.26 450.576 7
-2 -7 -15 2174.38 392.235 6
7 -2 -15 1941.13 406.778 6
-7 2 -15 2005.39 420.112 6
-15 -2 -7 1732.03 380.217 5
7 2 15 1969.99 467.967 3
7 2 15 2606.49 405.816 2
7 4 15 614.141 392.048 1
7 4 15 233.882 515.567 4
-4 -7 -15 417.602 411.87 6
7 -4 -15 587.414 395.548 6
-4 -7 -15 612.189 485.436 7
7 -4 -15 193.586 474.951 7
-6 -7 -15 519.654 409.635 6
7 6 15 1193.53 402.995 1
-15 -6 -7 736.498 461.286 8
-6 -7 -15 782.715 506.959 7
-8 7 15 118.891 404.34 1
15 7 8 230.206 517.905 3
-8 -7 -15 95.3602 411.632 6
7 -8 -15 882.438 547.304 7
5 -8 -15 360.919 519.502 7
-8 -5 -15 477.657 480.944 7
-8 3 15 310.896 572.463 4
-8 -3 -15 1008.76 340.915 5
-8 -3 -15 390.46 354.248 6
8 3 -15 311.305 402.386 6
-8 -3 -15 634.376 415.149 8
-8 3 15 720.21 417.328 1
8 3 -15 518.549 433.907 7
8 1 -15 1800.31 410.48 6
-8 -1 -15 1369.45 346.571 5
-8 -1 -15 994.477 439.726 7
8 1 -15 1609.75 456.852 7
8 -1 -15 1809.33 397.92 6
-8 -1 15 1500.95 553.399 4
-8 1 -15 1921.27 414.897 6
8 1 15 1103.56 495.301 3
8 3 15 700.888 518.697 4
-8 -3 15 591.092 584.63 4
-8 3 -15 1151.21 397.7 5
8 3 15 797.016 501.325 3
8 -3 -15 1303.53 473.512 7
-8 3 -15 757.436 454.265 7
8 5 15 1741.7 575.305 4
8 -5 -15 1293.8 402.481 6
8 5 15 1428.61 414.377 1
-15 -5 -8 1191.3 467.521 8
-5 8 15 736.655 391.099 1
8 5 15 1130.09 533.611 3
-7 -8 -15 43.6609 458.512 6
-15 -7 -8 27.377 463.512 8
8 7 15 290.074 430.175 1
8 -7 -15 568.943 529.8 7
-7 8 15 100.493 412.609 1
-15 -7 -8 151.847 377.319 5
15 8 9 306.613 544.502 3
8 -9 -15 178.121 531.626 6
-9 -8 -15 111.398 494.68 6
-9 8 15 158.593 438.181 1
15 6 9 927.948 547.729 3
-9 -6 -15 130.029 406.517 6
-9 -6 -15 847.911 467.397 8
-9 -6 -15 115.264 519.138 7
-9 -6 -15 139.46 386.98 5
-9 4 15 239.633 591.68 4
-9 -4 -15 95.9895 384.298 6
-9 -4 -15 545.781 334.495 5
-9 -4 -15 338.677 472.122 7
15 2 9 252.34 476.989 2
-9 2 15 147.979 558.744 4
-9 -2 -15 80.9848 380.604 6
9 2 -15 581.883 403.733 6
-9 2 15 212.064 438.329 1
-9 -2 -15 52.2834 449.824 7
9 2 -15 361.586 473.827 7
-9 0 15 63.9967 555.906 4
9 0 -15 325.114 398.538 6
9 0 15 609.433 551.963 4
-9 0 -15 586.399 368.186 6
-9 0 -15 537.086 424.595 8
9 0 -15 263.361 460.492 7
9 2 15 831.027 397.276 1
9 2 15 554.117 530.944 4
9 -2 -15 199.292 418.522 6
-9 -2 15 199.036 585.356 4
-9 2 -15 500.597 402.247 5
15 -2 9 20.2936 452.742 2
9 2 15 171.357 423.677 2
9 -4 -15 296.809 428.031 6
15 -4 9 132.357 445.224 2
-15 -4 -9 259.218 474.974 8
9 4 15 288.619 402.493 1
9 4 15 253.2 529.51 3
9 6 15 222.171 566.925 3
-15 -6 -9 897.869 369.261 5
9 6 15 748.157 426.785 1
-8 -9 -15 345.581 568.995 6
9 -8 -15 36.7448 492.693 6
-15 -8 -9 86.5247 496.623 8
9 -8 -15 745.03 580.394 7
-15 -8 -9 541.572 401.899 5
15 7 10 314.129 584.897 3
-10 -7 -15 178.514 526.581 8
-10 7 15 1123.75 423.517 1
-10 -5 -15 28.3976 498.798 8
-10 -5 -15 201.671 360.585 5
15 5 10 680.698 561.221 3
-10 3 15 231.642 585.341 4
-10 -3 -15 235.997 463.971 8
-15 3 -10 90.6898 396.585 5
-15 3 -10 84.431 434.877 8
-10 -3 -15 557.13 362.77 5
15 3 10 125.326 508.751 3
10 1 -15 306.569 415.805 6
10 -1 15 867.043 628.394 4
-10 -1 -15 25.06 379.209 5
10 1 -15 175.319 496.202 7
15 1 10 301.991 457.454 2
10 1 15 49.512 540.385 4
10 -1 -15 52.6371 415.12 6
-10 1 -15 246.077 436.822 8
10 1 15 466.081 448.658 2
10 -1 -15 42.8604 493.084 7
10 -3 -15 199.839 441.571 6
-10 3 -15 226.016 411.242 5
-15 -3 -10 142.575 491.975 8
10 3 15 527.667 537.255 3
10 3 15 71.057 419.552 2
-15 -5 -10 3.40328 379.892 5
10 5 15 187.461 568.093 3
-15 -7 -10 88.108 512.065 8
-15 -7 -10 380.341 394.59 5
10 -9 -15 692.589 597.783 6
-11 8 15 102.289 444.646 1
-11 -6 -15 1019.03 398.039 5
-11 -4 -15 819.342 510.372 8
-15 4 -11 31.9558 387.312 5
-11 -4 -15 121.748 371.391 5
15 4 11 430.489 561.396 3
-11 -2 -15 278.875 480.807 8
11 2 -15 556.006 458.963 6
15 2 11 315.449 576.127 3
-11 0 15 1750.63 581.354 4
11 0 -15 1298.59 430.506 6
11 0 15 459.06 468.976 2
-11 0 -15 506.009 463.175 8
-15 0 -11 607.581 475.87 8
11 0 15 1500.25 595.6 3
-11 0 -15 970.342 434.8 5
15 0 11 638.413 473.281 2
11 -2 -15 157.021 453.467 6
-11 -2 15 1406.02 598.092 4
-11 2 -15 21.9815 474.809 8
15 -2 11 126.804 477.555 2
-11 2 -15 271.133 437.538 5
-15 -2 -11 68.8621 408.599 5
11 2 15 26.4458 554.351 3
11 2 15 418.829 459.504 2
11 4 15 602.145 482.973 2
15 -4 11 767.641 500.566 2
-15 -4 -11 48.4476 398.055 5
11 4 15 75.2529 561.48 3
11 -8 -15 309.819 540.573 6
11 -8 -15 122.554 648.224 7
-15 -8 -11 626.224 442.323 5
-12 -7 -15 359.118 581.5 8
-12 7 15 536.315 445.037 1
-15 3 -12 553.755 480.122 8
-15 3 -12 141.559 431.758 5
12 1 -15 263.264 447.818 6
-15 1 -12 428.47 453.471 5
15 1 12 700.166 620.101 3
12 -1 -15 318.963 453.871 6
-12 -1 15 116.941 614.089 4
-15 -1 -12 56.0792 510.149 8
15 -1 12 19.0263 661.166 3
15 -1 12 115.838 504.151 2
-15 -1 -12 160.441 431.307 5
12 -7 -15 69.3259 503.687 6
-15 -7 -12 380.282 534.958 8
12 -7 -15 200.646 614.171 7
-15 -7 -12 275.576 417.034 5
-13 6 15 314.794 449.598 1
-13 6 15 1351.97 737.093 4
-13 -6 -15 648.862 592.067 8
15 6 13 455.552 640.661 3
-13 -4 -15 213.196 415.669 5
15 4 13 336.332 614.983 3
13 2 -15 839.167 510.433 6
15 -2 13 924.907 533.23 2
-15 -4 -13 323.585 537.577 8
-15 -4 -13 372.258 423.835 5
13 4 15 528.436 600.928 3
13 6 15 431.885 648.254 3
-15 -6 -13 864.612 565.736 8
13 -6 -15 346.176 589.837 7
14 -3 15 79.9878 561.667 2
-15 3 -14 756.59 524.176 8
-15 3 -14 566.968 489.277 5
-14 -3 -15 136.44 429.513 5
15 3 14 564.233 552.144 2
14 -1 15 80.1369 526.126 2
-15 1 -14 355.158 518.258 8
14 -1 15 81.3566 726.447 3
-15 1 -14 528.827 484.819 5
15 1 14 514.735 676.865 3
-14 -1 -15 352.195 476.68 5
15 1 14 434.768 527.026 2
-15 -1 -14 509.828 536.005 8
15 -1 14 325.881 532.341 2
15 -1 14 412.3 730.066 3
14 1 15 889.99 670.481 3
-15 -1 -14 12.1299 473.461 5
-14 3 -15 36.5402 512.26 8
-14 3 -15 431.675 489.718 5
-15 -3 -14 726.411 458.011 5
16 0 0 3239.74 482.116 2
0 0 16 2975.87 581.497 4
0 0 -16 3451.01 410.738 6
-16 0 0 4007.07 408.746 5
-16 0 0 2890.44 494.558 8
16 0 0 2585.23 554.966 3
0 0 -16 2477.56 448.024 7
-1 1 16 1125.42 574.131 4
1 1 16 1465.27 575.891 4
1 -1 -16 510.16 393.596 6
-1 -1 16 928.979 573.369 4
1 -1 16 264.909 553.784 4
1 1 -16 420.86 393.758 6
-1 1 -16 531.124 402.146 6
-16 1 -1 434.488 376.507 5
16 -1 -1 699.332 539.045 3
-16 1 1 439.817 373.231 5
-16 -1 -1 333.949 382.108 5
-16 -1 1 444.087 366.646 5
16 1 1 690.402 526.164 3
-1 -1 -16 674.515 434.827 7
1 1 -16 156.974 435.796 7
-1 1 -16 575.299 443.859 7
16 0 2 323.012 431.951 2
-2 0 16 99.5169 546.235 4
0 -2 -16 32.5547 398.74 6
2 0 -16 279.251 391.552 6
-2 0 -16 411.095 385.867 6
-16 0 -2 80.2759 465.271 8
16 -2 0 574.435 523.916 3
-16 0 -2 398.707 386.408 5
16 0 -2 790.416 507.327 3
-16 -2 0 249.396 344.455 5
16 2 0 470.426 487.974 3
0 -2 -16 165.094 441.375 7
-2 0 -16 236.557 436.402 7
0 2 -16 884.063 449.5 7
-2 2 16 563.317 544.091 4
2 2 16 218.128 533.906 4
2 -2 -16 643.82 392.067 6
-2 -2 -16 323.647 390.541 6
-2 -2 16 290.94 551.199 4
2 2 -16 3.64902 403.574 6
2 -2 16 393.245 562.334 4
-16 2 -2 106.562 438.532 8
-16 2 2 572.342 437.839 8
-16 -2 -2 754.645 473.038 8
16 -2 2 478.77 519.147 3
-16 2 -2 54.3405 372.569 5
-16 2 2 117.084 369.899 5
16 -2 2 165.161 439.769 2
16 -2 -2 238.713 429.651 2
-16 -2 -2 85.1064 363.261 5
-2 -2 -16 96.7148 437.085 7
2 -2 -16 22.9223 428.385 7
-2 2 -16 340.425 431.925 7
1 3 16 718.167 548.097 4
1 -3 -16 310.369 393.038 6
-3 -1 -16 274.131 380.925 6
3 -1 16 513.598 550.111 4
3 1 -16 62.6383 390.984 6
-1 -3 16 529.911 576.657 4
-1 3 -16 72.9156 414.717 6
1 3 16 337.795 413.8 1
-16 3 1 697.449 408.806 8
-16 1 -3 142.041 453.677 8
-16 -1 3 634.833 476.191 8
-16 -3 -1 244.444 460.127 8
-16 1 -3 412.187 378.135 5
16 -1 -3 328.578 488.413 3
-16 -1 3 501.873 349.342 5
-16 -3 -1 249.15 349.232 5
-3 -1 -16 486.314 441.714 7
3 1 -16 292.397 424.711 7
16 3 -1 151.976 483.661 3
-1 3 -16 776.993 430.452 7
-1 3 16 542.773 556.779 4
3 1 16 25.7972 551.275 4
-1 -3 -16 392.931 386.992 6
-3 -1 16 203.155 546.22 4
-3 1 -16 13.9068 397.384 6
1 3 -16 423.706 418.918 6
-16 1 3 238.15 453.26 8
-16 -3 1 107.073 446.61 8
-16 3 -1 28.309 371.048 5
16 -3 -1 326.211 414.904 2
-1 3 16 390.521 420.02 1
-16 -3 1 84.6652 349.806 5
16 1 -3 325.17 471.341 3
16 -1 3 352.908 446.312 2
-1 -3 -16 540.495 457.101 7
3 -1 -16 238.225 425.601 7
16 3 1 1387.77 487.605 3
-3 1 -16 95.117 431.919 7
1 3 -16 34.4129 429.664 7
3 3 16 3762.31 561.408 4
3 -3 -16 2992.14 417.185 6
3 3 -16 2335.26 434.108 6
-3 -3 16 3061.48 586.071 4
-16 3 -3 3333.97 453.114 8
16 -3 -3 2865.63 550.955 3
16 -3 3 2634.4 439.407 2
16 -3 -3 2153.52 429.526 2
3 3 16 2838.07 418.556 1
16 3 3 3371.44 503.609 3
-3 3 -16 2932.65 458.52 7
16 3 -3 2084.89 486.804 3
2 4 16 347.679 536.977 4
-4 2 16 465.254 526.535 4
2 -4 -16 266.23 399.895 6
4 2 -16 742.609 408.311 6
-16 4 2 611.162 409.813 8
-16 -4 -2 953.178 469.23 8
-16 2 -4 996.54 367.734 5
16 -2 -4 552.103 525.998 3
16 -2 -4 703.272 399.933 2
16 2 4 581.536 506.566 3
-16 -4 -2 490.566 341.921 5
-4 -2 -16 709.126 439.001 7
-16 4 0 157.358 365.828 5
0 -4 -16 308.807 406.513 6
-4 0 16 18.697 554.853 4
4 0 16 55.0195 545.3 4
-4 0 -16 123.106 378.595 6
16 -4 0 425.143 420.695 2
16 0 4 502.396 513.561 3
16 0 -4 264.775 473.501 3
-4 0 -16 260.831 433.706 7
16 4 0 319.25 461.708 3
-2 4 16 411.395 520.206 4
-2 -4 -16 405.031 404.65 6
4 -2 -16 939.879 394.117 6
-4 -2 16 371.764 558.639 4
-4 2 -16 940.344 424.005 6
-16 4 -2 289.78 368.675 5
-16 2 4 936.989 361.092 5
-16 -2 -4 854.361 361.099 5
-2 -4 -16 1518.87 462.19 7
-4 2 -16 954.375 449.023 7
16 4 2 339.03 473.304 3
16 4 -4 301.448 490.305 3
-4 -4 -16 232.774 408.805 6
-16 4 -4 174.951 381.419 5
-16 -4 4 10.3529 455.374 8
-16 4 4 175.52 376.868 5
-4 -4 -16 466.357 455.49 7
-16 -4 4 200.203 326.494 5
-5 -3 -16 546.684 372.703 6
5 3 -16 473.26 409.1 6
-16 5 3 155.04 407.644 8
-16 5 3 267.233 365.277 5
16 -3 -5 169.603 397.101 2
16 -3 -5 846.679 530.075 3
-5 -3 -16 350.225 464.75 7
-16 -3 5 58.1091 316.542 5
16 5 -1 882.295 485.32 3
1 5 16 144.4 518.782 4
1 -5 -16 698.24 403.379 6
-5 1 16 799.686 547.06 4
-5 -1 -16 1452.55 390.533 6
5 1 -16 612.194 400.526 6
-16 5 1 1055.95 370.146 5
-16 -1 5 1265.9 468.117 8
16 1 5 852.645 516.914 3
16 -1 -5 785.399 478.885 3
-16 -1 5 1370.87 321.972 5
-16 -5 -1 942.652 350.558 5
-1 -5 -16 772.52 392.203 6
-5 1 -16 716.753 405.897 6
16 -5 -1 666.267 420.849 2
-16 5 -1 527.715 398.216 8
-16 1 5 947.903 458.878 8
-16 5 -1 1053.3 375.078 5
16 -1 5 378.782 523.418 3
-16 -1 -5 589.081 379.168 5
5 3 16 355.05 395.056 1
5 -3 -16 6.82809 401.343 6
16 -5 -3 866.041 435.703 2
-16 3 5 318.717 395.125 8
-16 5 -3 105.527 372.067 5
-16 -5 3 562.086 452.767 8
-5 3 -16 279.782 438.178 7
5 5 16 116.864 557.158 4
-5 -5 -16 273.491 406.409 6
16 -5 5 106.299 455.772 2
-16 5 5 708.465 371.1 5
4 6 16 29.6479 546.994 4
-6 -4 -16 502.404 403.34 6
-16 4 -6 291.879 416.503 8
-16 -6 -4 266.687 468.966 8
4 -6 -16 102.426 470.001 7
-6 -2 -16 197.678 370.541 6
6 2 -16 108.489 413.853 6
-16 6 2 455.03 377.593 5
-6 -2 -16 396.847 438.364 7
-16 -2 6 388.517 306.006 5
16 0 -6 182.687 417.545 2
16 6 0 161.746 491.794 3
6 0 16 130.477 559.908 4
6 0 -16 371.817 385.932 6
-6 0 -16 43.7391 386.212 6
16 0 -6 496.714 442.654 3
-6 0 -16 494.14 437.788 7
-2 -6 -16 50.9633 392.985 6
6 -2 -16 170.723 416.929 6
-6 -2 16 833.978 558.277 4
-6 2 -16 550.987 423.776 6
-16 -6 2 859.706 470.671 8
-16 2 6 512.97 347.912 5
-4 -6 -16 593.317 424.533 6
6 4 16 663.746 402.361 1
16 -4 6 294.283 427.377 2
-4 6 16 257.064 403.803 1
16 6 6 183.748 518.503 3
6 6 16 248.512 578.498 4
-6 -6 -16 243.683 428.554 6
-6 6 16 193.289 407.232 1
-16 -6 -6 296.715 490.475 8
-6 -6 -16 708.034 504.544 7
6 -6 -16 742.382 513.834 7
-16 -6 -6 159.841 365.887 5
5 -7 -16 498.126 430.583 6
-7 -5 -16 64.0607 401.058 6
-16 5 -7 459.829 440.745 8
-16 5 -7 82.529 394.731 5
-16 -7 -5 282.493 510.742 8
-16 -5 7 759.182 589.954 8
5 -7 -16 746.55 501.033 7
-7 -5 -16 35.5254 492.732 7
-7 5 16 166.021 408.514 1
-16 -3 7 335.29 506.585 8
-16 -7 -3 72.7351 515.455 8
3 -7 -16 140.708 494.487 7
16 1 7 97.2462 447.776 2
-7 -1 -16 365.822 382.253 6
7 1 -16 772.2 421.195 6
-16 1 -7 352.133 464.622 8
1 -7 -16 242.754 478.841 7
-7 -1 -16 153.302 467.594 7
-7 1 -16 233.261 410.327 6
-16 -1 -7 373.477 475.666 8
16 -1 7 184.519 445.568 2
-7 1 -16 596.496 449.708 7
-3 7 16 509.539 409.911 1
16 -3 7 379.961 450.976 2
7 3 16 90.731 405.843 1
-7 3 -16 190.754 464.454 7
7 5 16 11.5139 582.259 4
-5 7 16 3.54833 406.061 1
16 -5 7 159.056 485.276 2
7 5 16 396.917 405.974 1
-16 -5 -7 214.819 358.457 5
16 7 7 676.542 552.798 3
-7 7 16 571.074 413.293 1
7 -7 -16 619.623 439.85 6
-7 -7 -16 178.095 439.025 6
-16 -7 -7 494.028 496.278 8
7 -7 -16 820.433 532.356 7
-16 -7 -7 454.362 382.462 5
16 6 8 141.405 536.579 3
6 -8 -16 87.525 466.054 6
-8 -6 -16 471.527 422.556 6
-8 6 16 225.882 422.936 1
-8 -6 -16 690.902 520.538 7
-8 -4 -16 435.682 397.193 6
-8 4 16 47.8065 424.074 1
-16 4 -8 202.398 381.508 5
4 8 16 817.616 411.956 1
16 4 8 219.841 526.03 3
16 2 8 412.89 499.696 2
2 -8 -16 88.1842 425.674 6
-8 -2 -16 35.1954 382.955 6
-16 2 -8 296.82 433.507 8
16 2 8 295.18 527.59 3
2 -8 -16 1592 518.55 7
-8 -2 -16 882.188 457.218 7
2 8 16 3.57066 400.138 1
-8 0 -16 1795.48 406.645 6
16 0 8 508.893 542.471 3
16 0 8 1462.05 461.677 2
0 8 16 642.762 403.903 1
8 2 16 236.459 559.559 4
8 2 16 587.238 436.929 1
-8 2 -16 50.0396 405.779 5
-16 -2 -8 109.627 401.719 5
-2 8 16 294.415 399.656 1
-8 2 -16 126.851 476.455 7
8 4 16 26.6004 586.242 4
-16 -4 -8 27.4279 487.956 8
-16 -4 -8 146.396 374.701 5
8 -4 -16 1173.91 515.193 7
8 4 16 105.334 408.81 1
8 6 16 16.1464 612.226 4
8 6 16 266.96 425.124 1
8 -6 -16 301.643 431.279 6
8 -6 -16 543.653 520.263 7
-6 8 16 282.705 415.286 1
-16 -8 -8 213.415 407.21 5
-9 5 16 110.313 633.131 4
5 -9 -16 764.682 491.94 6
-9 -5 -16 148.234 412.482 6
-9 5 16 337.29 448.564 1
-9 -5 -16 399.603 517.493 7
3 -9 -16 225.498 464.328 6
-9 -3 -16 366.602 389.987 6
-16 3 -9 325.783 451.208 8
-16 3 -9 243.628 406.826 5
3 -9 -16 385.921 540.875 7
16 3 9 195.195 544.814 3
9 -1 16 749.399 635.24 4
9 -1 16 590.599 475.499 2
1 9 16 538.436 422.963 1
-16 1 -9 41.623 426.413 5
1 -9 -16 105.473 545.416 7
-9 -1 -16 896.715 476.278 7
16 1 9 772.114 488.891 2
-1 -9 -16 79.963 411.915 6
9 1 16 163.15 564.807 4
-9 1 -16 71.1698 435.219 6
-9 1 -16 200.956 445.109 8
16 -1 9 794.305 570.885 3
9 1 16 156.123 541.18 3
16 -1 9 110.688 470.694 2
-16 -1 -9 11.0767 409.779 5
-1 -9 -16 105.848 552.575 7
-9 1 -16 125.311 486.064 7
-3 -9 -16 18.2571 434.379 6
9 3 16 332.523 403.02 1
-9 3 -16 154.079 437.807 5
-16 -3 -9 162.371 410.586 5
-9 3 -16 856.286 503.999 7
9 5 16 278.216 426.15 1
-5 9 16 34.2696 424.522 1
9 -5 -16 206.972 523.742 7
-16 -5 -9 6.96378 393.06 5
9 -9 -16 18.7916 584.089 6
-10 4 16 834.778 439.134 1
16 4 10 69.0457 574.135 3
-16 2 -10 350.012 474.746 8
-10 -2 -16 720.439 478.278 8
-16 2 -10 791.13 429.718 5
10 0 16 601.721 461.229 2
-16 0 -10 105.757 494.705 8
-10 0 -16 317.798 413.129 5
-16 0 -10 204.372 423.236 5
16 0 10 246.69 497.723 2
16 -2 10 155.931 485.81 2
-10 2 -16 165.948 439.065 5
-16 -2 -10 196.8 419.528 5
10 2 16 261.242 553.384 3
10 2 16 470.92 463.612 2
10 4 16 402.566 463.921 2
16 -4 10 399.032 508.44 2
-16 -4 -10 457.493 410.595 5
10 -8 -16 226.381 526.862 6
-16 -8 -10 235.989 554.773 8
-16 -8 -10 425.724 439.566 5
-11 7 16 38.6681 743.428 4
-11 -5 -16 1188.73 410.199 5
-11 -1 -16 634.393 471.106 8
-16 1 -11 524.756 463.489 5
-11 -1 -16 432.968 415.533 5
-11 1 -16 188.43 438.277 5
11 5 16 1261.97 633.101 3
-16 -7 -11 255.512 550.602 8
11 -7 -16 299.332 617.965 7
-16 -7 -11 22.337 429.498 5
-12 4 16 340.184 677.58 4
-16 4 -12 4.0325 501.097 8
-16 4 -12 675.452 428.832 5
-12 4 16 322.357 469.563 1
16 4 12 76.644 620.148 3
12 4 -16 274.8 556.48 7
12 -2 16 1466.12 540.866 2
-16 2 -12 16.4294 459.736 5
12 2 -16 59.9598 594.745 7
12 0 -16 1377.2 583.659 7
-12 2 -16 263.857 479.254 8
12 -2 -16 1693.23 588.311 7
12 -4 -16 241.025 529.769 6
16 -4 12 166.682 537.857 2
-16 -4 -12 144.658 550.76 8
-16 -4 -12 684.397 429.244 5
-13 3 16 803.21 481.975 1
-13 -3 -16 310.633 573.197 8
-16 3 -13 169.462 486.609 5
-13 -3 -16 35.8688 418.636 5
-13 1 16 185.525 522.099 1
-16 1 -13 154.637 523.094 8
13 -1 16 79.0925 724.418 3
-16 1 -13 483.554 487.762 5
16 1 13 191.191 679.485 3
16 1 13 55.8733 545.455 2
13 1 -16 1083.38 618.382 7
16 -1 13 410.506 535.004 2
16 -1 13 490.527 729.019 3
13 1 16 67.639 502.782 2
-16 -1 -13 65.889 491.847 5
-16 -3 -13 139.593 566.461 8
-13 3 -16 33.3558 504.162 5
-16 -3 -13 852.147 449.75 5
13 3 16 395.102 625.966 3
17 0 -1 497.17 455.847 2
-17 0 -1 1360.03 484.216 8
-17 0 1 813.067 475.824 8
17 -1 0 331.753 549.594 3
-17 1 0 1528.95 384.667 5
-17 0 -1 867.528 384.535 5
17 0 -1 946.478 536.235 3
-17 -1 0 330.791 370.123 5
17 0 1 1108.75 436.826 2
-2 -1 -17 397.873 388.685 6
2 -1 17 441.958 571.646 4
17 -2 1 614.398 534.355 3
-17 2 1 292.432 386.635 5
-17 1 -2 506.736 402.067 5
17 -1 -2 125.349 541.874 3
17 -2 1 869.222 457.467 2
17 1 2 253.795 534.491 3
-17 -1 2 419.069 369.824 5
-17 -2 -1 446.295 360.94 5
2 1 17 775.371 555.427 4
-2 1 -17 350.87 390.211 6
-17 2 -1 183.69 451.226 8
-17 -2 1 700.774 483.879 8
-17 2 -1 416.991 385.084 5
-17 1 2 576.995 368.501 5
-17 -1 -2 874.071 383.562 5
17 2 1 234.247 504.829 3
-3 -2 -17 270.059 401.66 6
-17 3 2 66.3243 380.276 5
17 -2 -3 1013.44 567.58 3
2 -3 -17 220.675 456.921 7
3 0 17 15.4959 555.904 4
-3 0 -17 17.5805 403.815 6
-17 0 3 80.5747 476.256 8
17 -3 0 915.864 437.355 2
-17 -3 0 215.885 375.013 5
3 2 17 286.574 556.79 4
-17 2 3 34.1262 461.493 8
-17 -3 2 247.251 457.654 8
-2 3 17 122.08 430.455 1
17 -3 -2 350.395 425.578 2
-17 2 3 438.347 385.181 5
-17 -3 2 264.628 343.136 5
17 2 -3 64.0975 487.609 3
2 3 -17 147.473 441.09 7
17 4 -3 74.8827 511.789 3
-4 -3 -17 472.772 407.227 6
-17 4 3 120.068 414.489 8
-17 3 -4 198.988 431.827 8
-17 -4 -3 404.587 492.081 8
-17 -3 4 3.63861 483.396 8
17 -3 -4 198.349 410.505 2
17 -3 -4 31.1834 568.471 3
-17 -3 4 178.324 330.131 5
4 3 -17 572.461 448.854 7
-4 3 17 876.533 434.881 1
17 4 -1 2099.17 507.974 3
-4 -1 -17 1422.05 408.78 6
4 -1 17 2023.74 595.606 4
-17 4 1 2222.19 428.81 8
-17 4 1 2039.16 407.248 5
17 -1 -4 1687.39 522.145 3
17 -1 -4 1397.49 443.56 2
4 1 -17 810.755 453.601 7
4 1 17 1896.49 564.245 4
-4 1 -17 2816.86 441.24 6
17 -4 -1 1497.75 446.058 2
-17 1 4 1940.68 483.21 8
-17 4 -1 2260.39 409.428 5
-17 -4 1 1975.56 355.674 5
17 1 -4 1692.5 508.376 3
4 -1 -17 1773.25 447.048 7
17 3 -4 172.722 491.975 3
4 3 17 115.979 582.022 4
-17 3 4 430.47 428.955 8
17 -3 4 172.413 431.23 2
-17 -3 -4 119.292 483.359 8
-3 4 17 346.334 424.334 1
-17 -4 3 582.284 492.937 8
4 -3 -17 561.384 470.202 7
-17 -4 3 731.698 360.4 5
4 -5 -17 866.289 416.176 6
17 -5 4 117.264 470.961 2
17 -4 -5 859.116 430.88 2
-5 4 17 985.093 446.246 1
-17 4 -5 637.221 440.56 8
-17 4 -5 566.666 394.131 5
-17 -5 -4 689.189 382.148 5
-17 -4 5 893.34 364.006 5
17 5 -2 1337.49 511.235 3
2 -5 -17 1527.1 421.994 6
-5 -2 -17 1694.33 397.505 6
5 -2 17 2550.09 618.365 4
17 -2 -5 2568.14 552.937 3
17 -2 -5 1756.22 431.589 2
-17 -2 5 2280.17 345.497 5
5 2 -17 815.18 456.144 7
0 5 17 121.643 385.762 1
17 0 -5 400.861 444.798 2
5 0 17 340.89 574.615 4
-5 0 -17 279.879 407.436 6
-17 0 5 479.74 469.227 8
-17 5 0 222.109 385.354 5
-17 0 5 136.233 353.797 5
17 0 -5 721.552 475.401 3
17 0 5 124.128 456.625 2
-2 5 17 1635.66 419.735 1
-2 5 17 2377.63 567.136 4
-5 2 -17 2361.83 450.573 6
-17 2 5 1207.07 454.15 8
-17 -2 -5 1284.42 491.546 8
17 -2 5 1334.89 479.177 2
-17 2 5 1067.2 370.927 5
5 -2 -17 1059.25 460.585 7
-17 -5 2 1518.6 378.424 5
17 2 -5 1636.8 506.663 3
5 -4 -17 670.915 419.823 6
17 -5 -4 1296.52 447.973 2
17 -4 5 38.3219 452.67 2
-17 5 -4 1353.47 438.977 8
-17 5 -4 888.453 408.305 5
-17 -5 4 477.947 478.298 8
-17 4 5 537.6 393.807 5
-17 -4 -5 706.567 375.83 5
5 -4 -17 252.594 508.542 7
17 5 4 720.775 519.606 3
-6 5 17 145.944 598.285 4
5 -6 -17 288.385 432.713 6
5 6 17 36.0535 438.146 1
-17 6 5 296.377 429.815 5
5 -6 -17 128.978 517.051 7
-17 -6 -5 246.079 375.915 5
-6 5 17 34.1765 432.249 1
3 -6 -17 652.961 403.21 6
6 3 -17 292.25 434.234 6
-6 3 17 634.948 453.088 1
3 6 17 154.5 417.984 1
-17 3 -6 107.919 459.866 8
-17 6 3 634.007 427.982 5
-17 3 -6 168.756 405.461 5
3 -6 -17 323.377 500.387 7
17 3 6 4.1287 505.637 3
-17 -6 -3 103.96 364.018 5
-17 -3 6 523.919 342.449 5
17 1 6 983.024 497.299 2
1 -6 -17 632.07 405.769 6
-6 -1 -17 942.378 407.69 6
6 -1 17 1110.15 607.516 4
1 6 17 537.557 412.458 1
-17 -6 -1 345.234 479.537 8
-17 1 -6 618.102 399.419 5
17 1 6 4.19005 539.875 3
-17 -1 6 576.827 337.643 5
-6 -1 -17 1251.2 483.659 7
6 1 -17 605.204 464.384 7
-1 6 17 1278.07 540.423 4
6 1 17 1546.1 581.846 4
-6 1 -17 1068.41 439.46 6
-17 -1 -6 66.3658 475.122 8
-1 6 17 817.55 412.176 1
-17 -1 -6 431.674 394.291 5
17 -1 6 773.609 493.601 2
-1 -6 -17 803.711 503.327 7
6 -1 -17 1310.87 477.435 7
-6 1 -17 1347.08 480.682 7
17 6 3 387.613 514.412 3
-3 6 17 111.105 560.06 4
6 -3 -17 29.4278 425.526 6
-6 -3 17 21.6933 589.994 4
-17 -3 -6 522.605 493.079 8
-17 -3 -6 915.391 385.846 5
-3 -6 -17 513.787 509.808 7
6 -3 -17 662.383 481.02 7
17 6 5 105.407 537.097 3
-5 6 17 671.924 579.563 4
6 -5 -17 225.962 427.215 6
17 -5 6 44.9323 479.857 2
-5 6 17 339.132 429.717 1
6 -5 -17 148.557 525.655 7
-17 -5 -6 660.085 387.887 5
17 6 7 618.852 542.537 3
6 7 17 401.39 447.177 1
-7 6 17 582.089 653.956 4
6 -7 -17 401.491 436.239 6
-7 6 17 678.783 440.198 1
-17 -7 -6 235.072 522.105 8
6 -7 -17 147.726 547.328 7
-17 -7 -6 28.6252 416.47 5
-7 4 17 520.951 595.604 4
4 7 17 393.737 423.047 1
4 -7 -17 1096 433.151 6
-7 -4 -17 445.261 425.39 6
-7 4 17 376.152 445.748 1
-17 4 -7 139.914 450.367 8
-17 4 -7 77.8612 409.089 5
-17 -7 -4 99.6696 527.326 8
4 -7 -17 263.86 515.634 7
17 4 7 503.93 548.605 3
17 2 7 421.52 523.091 2
-7 2 17 165.128 593.378 4
2 7 17 47.5792 421.99 1
-7 -2 -17 57.8047 403.382 6
7 2 -17 398.175 439.132 6
7 -2 17 53.3668 657.732 4
-17 2 -7 851.955 403.774 5
17 2 7 203.078 536.585 3
2 -7 -17 453.812 525.346 7
-7 -2 -17 538.949 482.99 7
7 2 -17 796.676 479.835 7
0 -7 -17 170.828 426.91 6
0 7 17 234.462 424.598 1
7 0 17 1182.9 593.465 4
-17 0 -7 1173.3 497.019 8
-17 0 -7 292.962 411.559 5
17 0 7 328.896 490.627 2
7 0 -17 43.7911 469.061 7
-7 0 -17 1408.42 506.871 7
-2 -7 -17 206.982 421.698 6
7 2 17 436.127 601.021 4
7 -2 -17 142.03 403.199 6
-2 7 17 553.726 421.873 1
-7 -2 17 161.707 606.234 4
-7 2 -17 830.695 437.001 6
17 -2 7 358.423 557.138 3
-17 -2 -7 39.0787 395.046 5
-2 -7 -17 183.797 522.773 7
7 -2 -17 170.775 480.947 7
-7 2 -17 472.816 492.482 7
7 4 17 1447.32 597.561 4
-4 -7 -17 895.05 433.972 6
7 -4 -17 903.414 448.748 6
-4 7 17 287.816 424.872 1
17 -4 7 4.44631 463.436 2
-17 -4 -7 460.646 512.277 8
-4 -7 -17 629.68 523.256 7
-17 -4 -7 440.509 393.199 5
7 -6 -17 141.984 428.14 6
-6 7 17 189.914 449.549 1
-17 -6 -7 291.95 527.167 8
-6 -7 -17 417.248 549.017 7
7 -6 -17 1170.81 559.403 7
-17 -6 -7 208.757 384.617 5
17 7 8 90.3792 575.301 3
-8 7 17 13.8868 661.046 4
7 -8 -17 4.16062 508.636 6
-8 7 17 795.407 454.591 1
-17 -8 -7 67.7893 549.521 8
7 8 17 35.7266 488.849 1
7 -8 -17 289.159 598.673 7
-17 -8 -7 81.5354 434.739 5
-17 5 -8 136.212 458.195 8
-17 5 -8 378.815 415.286 5
5 -8 -17 817.629 575.985 7
5 8 17 573.198 473.438 1
3 -8 -17 116.212 445.093 6
-8 -3 -17 414.724 413.248 6
8 3 -17 497.283 449.205 6
-17 3 -8 644.324 477.489 8
-17 3 -8 202.417 418.669 5
17 3 8 893.219 535.704 3
3 8 17 657.683 426.926 1
8 3 -17 273.43 467.609 7
1 -8 -17 247.397 442.036 6
-8 1 17 176.44 599.034 4
-8 -1 -17 66.3574 404.567 6
8 1 -17 668.198 431.23 6
8 -1 17 735.945 638.595 4
-17 1 -8 161.101 414.969 5
17 1 8 695.196 575.162 3
1 -8 -17 242.618 544.826 7
-8 -1 -17 583.995 502.142 7
8 1 -17 229.621 487.77 7
17 1 8 113.298 502.605 2
1 8 17 998.609 427.359 1
-1 -8 -17 25.7377 414.667 6
8 1 17 81.8351 594.456 4
-8 -1 17 4.16714 592.482 4
-8 1 -17 773.365 440.242 6
-17 -1 -8 380.763 509.775 8
-17 -1 -8 134.477 425.436 5
17 -1 8 127.349 492.81 2
8 -1 -17 418.027 507.841 7
-8 1 -17 230.332 508.238 7
-3 -8 -17 214.079 424.85 6
8 3 17 134.294 596.481 4
8 -3 -17 523.836 438.533 6
-8 -3 17 687.512 624.683 4
17 -3 8 519.885 493.471 2
-17 -3 -8 355.099 420.959 5
8 -3 -17 19.7744 528.42 7
-5 -8 -17 49.3381 464.347 6
17 -5 8 546.054 524.826 2
-5 -8 -17 376.28 574.709 7
-17 -5 -8 694.929 399.749 5
-5 8 17 1282.75 451.617 1
17 8 7 119.693 576.234 3
-7 -8 -17 419.997 504.098 6
8 -7 -17 110.814 478.273 6
-17 -7 -8 97.9656 540.989 8
-7 -8 -17 4.43178 603.814 7
8 -7 -17 65.1049 588.292 7
-17 -7 -8 290.655 424.483 5
-7 8 17 124.074 451.073 1
8 7 17 23.0882 455.776 1
17 8 9 1149.82 608.839 3
8 -9 -17 19.5599 657.838 7
-9 6 17 609.424 681.478 4
6 -9 -17 454.545 534.043 6
6 -9 -17 782.763 616.867 7
17 6 9 354.95 601.953 3
2 -9 -17 694.286 455.261 6
-9 -2 -17 327.322 405.419 6
9 2 -17 241.928 457.061 6
-17 2 -9 768.493 491.238 8
-17 2 -9 192.718 429.344 5
2 9 17 65.9433 462.791 1
2 -9 -17 72.5587 585.745 7
-9 -2 -17 131.491 520.602 7
-9 0 17 359.321 630.897 4
9 0 -17 380.506 435.848 6
9 0 17 86.2768 625.212 4
-9 0 -17 291.358 421.173 6
-17 0 -9 558.868 527.552 8
-17 0 -9 38.9702 428.747 5
0 9 17 369.508 427.693 1
0 -9 -17 1766.94 587.636 7
17 0 9 695.218 525.43 2
9 0 -17 285.14 519.201 7
-9 0 -17 42.7461 519.361 7
9 2 17 156.953 479.843 1
-2 -9 -17 363.978 446.785 6
9 2 17 733.844 589.657 4
9 -2 -17 1452.24 493.042 6
-9 -2 17 403.354 622.224 4
-17 -2 -9 1335.6 549.957 8
17 -2 9 352.222 604.031 3
-17 -2 -9 691.942 434.673 5
-2 9 17 593.978 442.501 1
9 -2 -17 801.84 546.808 7
-9 2 -17 689.028 532.695 7
-6 -9 -17 623.84 511.432 6
9 -6 -17 59.8707 482.013 6
-17 -6 -9 263.074 524.7 8
-6 9 17 511.018 462.46 1
9 -6 -17 336.354 559.187 7
-17 -6 -9 138.758 409.685 5
9 -8 -17 516.301 538.252 6
-17 -8 -9 30.9737 546.328 8
-8 9 17 4.04746 467.316 1
9 -8 -17 28.0639 624.337 7
-17 -8 -9 540.812 434.897 5
-10 5 17 489.419 469.886 1
17 -3 10 868.478 519.066 2
-17 -5 -10 893.396 540.678 8
-17 -5 -10 901.612 425.792 5
-11 4 17 294.229 695.731 4
-17 4 -11 3.8987 437.829 5
-11 2 17 451.892 673.488 4
11 2 -17 894.875 500.548 6
-17 2 -11 16.1143 510.424 8
-11 2 17 385.743 538.095 1
-17 2 -11 417.657 459.734 5
17 2 11 116.348 640.528 3
11 2 -17 38.0077 569.52 7
17 2 11 18.6151 556.196 2
-11 0 17 64.6546 640.41 4
11 0 -17 4.02823 472.043 6
-17 0 -11 309.237 527.849 8
11 0 17 1119.3 642.787 3
17 0 11 258.786 671.268 3
-17 0 -11 197.291 461.543 5
11 0 -17 366.413 575.076 7
11 -2 -17 114.584 479.347 6
17 -2 11 464.221 538.367 2
17 -2 11 345.128 655.784 3
-17 -2 -11 191.49 458.461 5
11 -4 -17 67.1927 526.854 6
17 -4 11 1137.44 552.996 2
-17 -4 -11 74.2564 546.423 8
-17 -4 -11 18.916 449.162 5
11 -4 -17 384.063 605.812 7
-12 1 17 588.509 675.611 4
12 1 -17 425.002 495.547 6
17 1 12 744.871 685.961 3
-12 1 -17 312.003 508.154 8
17 -1 12 174.549 690.907 3
-12 1 -17 138.826 506.307 5
-17 -1 -12 318.083 497.18 5
12 -1 -17 366.182 601.498 7
0 0 -18 799.746 409.799 6
0 0 -18 221.861 458.915 7
-1 1 18 117.476 576.926 4
1 -1 -18 91.7852 396.203 6
-1 -1 18 782.814 572.419 4
1 -1 18 995.124 554.054 4
1 1 -18 430.247 416 6
18 -1 -1 186.779 576.194 3
-18 1 1 427.186 404.859 5
-18 -1 1 267.128 390.896 5
1 -1 -18 101.464 461.089 7
-1 -1 -18 123.311 469.558 7
1 1 -18 442.464 459.468 7
-1 1 -18 21.9573 463.594 7
18 0 -2 446.804 485.149 2
0 2 18 626.833 576.151 4
-2 0 18 118.82 578.818 4
2 0 -18 22.5375 409.027 6
0 -2 18 648.318 585.173 4
0 2 -18 213.933 435.832 6
-18 0 -2 826.056 504.026 8
-18 0 2 238.256 492.7 8
-18 0 2 300.663 393.066 5
-2 0 -18 566.708 459.518 7
0 2 -18 18.9002 463.551 7
18 0 2 361.414 489.77 2
-2 2 18 800.999 604.997 4
2 -2 -18 299.668 405.34 6
-2 -2 18 675.293 583.498 4
2 2 -18 395.307 426.405 6
-18 2 2 838.476 496.927 8
18 -2 -2 552.903 600.706 3
-18 2 2 437.833 390.028 5
18 -2 2 623.95 476.588 2
-2 -2 -18 726.696 470.328 7
2 -2 -18 131.448 472.529 7
18 2 -2 156.885 517.312 3
2 2 -18 370.578 479.962 7
-2 2 -18 290.333 473.752 7
18 1 3 62.0478 496.042 2
1 3 18 279.424 580.984 4
1 -3 -18 152.105 425.708 6
1 3 18 694.14 456.894 1
3 1 -18 77.5052 406.034 6
-1 -3 18 287.15 598.212 4
-1 3 -18 125.919 433.637 6
-18 1 -3 616.422 490.047 8
-18 -1 3 302.204 501.343 8
-18 -3 -1 393.908 502.823 8
-18 3 1 672.746 393.687 5
-18 1 -3 454.084 408.028 5
18 -1 -3 596.426 571.094 3
18 1 3 84.0339 539.786 3
1 -3 -18 666.901 486.394 7
18 -1 -3 179.55 471.21 2
-3 -1 -18 146.147 477.355 7
3 1 -18 216.289 445.419 7
-1 -3 -18 121.682 413.52 6
3 -1 -18 413.71 409.03 6
-3 -1 18 494.126 588.415 4
1 3 -18 572.626 429.587 6
1 -3 18 1294.3 600.687 4
-18 1 3 104.944 511.358 8
-18 -1 -3 301.243 495.949 8
-1 3 18 275.262 455.119 1
18 -3 -1 600.326 591.592 3
-18 1 3 31.9127 405.48 5
-18 -1 -3 247.389 393.732 5
18 -1 3 418.7 500.175 2
-1 -3 -18 776.268 490.131 7
-3 1 -18 650.919 484.607 7
1 3 -18 600.984 483.286 7
-3 3 18 81.7099 470.986 1
-3 3 18 395.652 564.604 4
3 -3 -18 509.375 433.574 6
3 3 -18 555.964 437.309 6
-3 -3 18 216.938 593.349 4
-18 3 -3 144.383 473.888 8
-18 3 3 309.504 470.983 8
-18 -3 -3 251.842 512.282 8
18 -3 3 182.757 464.989 2
18 -3 -3 820.387 623.627 3
3 3 18 31.1352 449.544 1
-18 -3 -3 101.946 387.394 5
-3 -3 -18 94.2245 502.897 7
3 -3 -18 330.43 491.113 7
-18 -3 3 575.073 374.023 5
18 3 3 370.639 539.389 3
3 3 -18 102.32 469.4 7
-3 3 -18 688.621 477.49 7
18 3 -3 749.963 522.655 3
2 4 18 926.855 579.042 4
-4 2 18 67.1606 589.973 4
2 -4 -18 566.44 422.033 6
4 2 -18 784.569 439.698 6
18 -4 2 608.403 476.674 2
-18 -2 4 734.405 510.061 8
-18 -4 -2 258.07 514.477 8
-18 2 -4 191.524 406.658 5
18 -2 -4 614.062 601.705 3
-18 -2 4 394.118 365.902 5
-18 -4 -2 551.173 382.936 5
-4 -2 -18 51.1691 477.627 7
4 2 -18 698.581 474.494 7
18 0 -4 759.001 483.242 2
0 4 18 663.185 570.877 4
0 -4 -18 512.909 429.299 6
-4 0 18 132.747 570.577 4
4 0 -18 595.761 428.324 6
-18 0 -4 11.9808 505.568 8
-18 -4 0 240.27 496.405 8
18 0 4 535.982 559.841 3
-18 0 -4 1072.04 424.955 5
18 0 -4 659.426 517.867 3
18 0 4 193.848 481.815 2
-2 -4 -18 7.47669 430.294 6
4 -2 -18 214.465 414.764 6
-4 -2 18 569.916 594.956 4
-18 2 4 715.818 499.787 8
-18 -2 -4 147.804 517.924 8
18 -2 4 199.408 546.73 3
-18 4 -2 740.214 407.437 5
18 -2 4 768.335 497.206 2
-18 2 4 431.251 406.664 5
4 -2 -18 37.1228 484.054 7
-4 2 -18 438.157 497.398 7
18 2 -4 217.942 530.199 3
18 4 2 376.02 521.648 3
18 4 -4 12.4802 535.247 3
-4 4 18 470.155 589.701 4
4 4 18 522.09 595.581 4
4 -4 -18 332.747 423.861 6
-4 -4 -18 561.508 451.819 6
4 4 18 523.961 457.252 1
18 -4 -4 340.619 448.375 2
18 -4 4 438.387 467.209 2
-18 4 4 574.316 451.308 8
-18 4 -4 249.524 462.839 8
-4 4 18 507.426 456.547 1
-18 4 -4 18.3656 403.585 5
-18 4 4 13.3617 424.565 5
-18 -4 -4 444.867 380.073 5
-4 -4 -18 1048.81 525.286 7
4 -4 -18 249.886 532.03 7
3 5 18 507.27 592.283 4
-5 3 18 527.864 606.514 4
3 -5 -18 259.181 452.576 6
5 3 -18 446.243 448.189 6
18 -5 3 445.169 508.85 2
-5 3 18 96.4168 459.678 1
-18 5 3 146.456 429.571 5
-18 3 -5 649.557 411.624 5
3 -5 -18 577.374 526.006 7
-5 -3 -18 287.356 507.269 7
18 3 5 8.56112 541.139 3
-18 -3 5 234.164 344.329 5
5 3 -18 635.29 475.055 7
3 5 18 40.9049 432.327 1
18 1 5 1015.14 530.594 2
1 5 18 570.289 436.019 1
1 5 18 1648.51 568.814 4
1 -5 -18 925.344 430.022 6
-5 1 18 1792.03 604.895 4
5 1 -18 713.044 424.705 6
18 -5 1 784.255 478.176 2
-18 1 -5 334.157 510.079 8
-18 1 -5 505.842 416.402 5
18 1 5 361.33 556.886 3
18 -1 -5 384.742 544.749 3
18 -1 -5 1164.29 482.237 2
-18 -5 -1 439.838 376.21 5
5 1 -18 1232.67 479.566 7
18 5 1 1078.98 520.474 3
-1 5 18 1216.58 561.057 4
-1 -5 -18 106.933 444.063 6
5 -1 -18 632.339 407.705 6
-5 -1 18 1640.88 602.336 4
-18 5 -1 882.496 462.464 8
-18 -1 -5 696.303 508.704 8
18 -1 5 518.423 560.039 3
-18 -1 -5 1112.24 415.384 5
-18 1 5 1280.76 408.41 5
18 -1 5 663.577 506.918 2
5 -1 -18 152.721 490.162 7
-5 1 -18 1030.53 481.794 7
18 1 -5 1228.1 515.02 3
-3 5 18 465.721 562.311 4
-3 -5 -18 133.913 449.564 6
5 3 18 215.682 446.706 1
5 -3 -18 815.83 433.939 6
-5 -3 18 179.644 610.622 4
-18 5 -3 135.139 451.188 8
-18 3 5 228.347 472.229 8
18 -3 5 494.68 480.083 2
-18 5 -3 56.027 425.979 5
-18 3 5 519.757 404.691 5
-18 -3 -5 425.62 393.664 5
-3 -5 -18 482.008 525.007 7
5 -3 -18 161.322 520.393 7
-5 3 -18 358.66 484.385 7
18 5 3 256.1 555.983 3
-5 5 18 94.3505 618.838 4
5 5 18 948.471 629.031 4
5 -5 -18 46.1849 463.527 6
-5 -5 -18 682.136 473.556 6
18 -5 5 774.976 495.633 2
-18 5 -5 808.931 428.455 5
-18 -5 -5 384.473 540.899 8
-5 -5 -18 620.725 537.876 7
5 -5 -18 79.0369 561.577 7
-18 -5 -5 505.592 389.193 5
5 5 18 641.368 452.485 1
18 5 5 737.051 556.358 3
-5 5 18 316.112 457.447 1
4 6 18 385.148 602.188 4
4 -6 -18 1617.34 446.634 6
-6 4 18 962.991 489.153 1
-18 4 -6 442.65 475.462 8
-18 6 4 595.609 479.218 5
-18 -4 6 689.768 589.719 8
-18 4 -6 365.148 429.087 5
-18 -6 -4 187.833 528.825 8
-6 -4 -18 840.277 530.017 7
-18 -6 -4 368.854 388.18 5
2 6 18 353.352 564.252 4
2 -6 -18 113.214 444.343 6
-6 2 18 137.501 625.849 4
6 2 -18 86.7269 454.348 6
2 6 18 567.051 438.735 1
-18 -2 6 1361.77 553.863 8
-18 -6 -2 502.573 515.811 8
-18 2 -6 728.021 430.638 5
18 2 6 39.4034 573.265 3
2 -6 -18 405.758 542.371 7
-18 -6 -2 51.9941 387.606 5
6 2 -18 406.482 493.708 7
0 6 18 775.864 568.772 4
18 6 0 415.874 528.108 3
0 -6 -18 60.3914 435.839 6
6 0 -18 351.821 444.103 6
-18 0 -6 270.585 520.678 8
-18 -6 0 954.33 505.516 8
0 6 18 359.643 423.884 1
-18 0 -6 698.796 432.182 5
0 -6 -18 32.4064 533.965 7
18 0 6 345.167 515.862 2
6 0 -18 195.631 487.368 7
-18 -6 0 79.8213 394.088 5
18 6 2 218.569 539.63 3
-2 -6 -18 242.664 439.778 6
6 -2 -18 123.537 438.619 6
-6 -2 18 299.728 612.061 4
-18 -2 -6 551.293 529.18 8
-18 6 -2 147.759 424.263 5
18 -2 6 184.386 555.077 3
-18 -6 2 240.035 500.042 8
18 -2 6 93.7944 489.806 2
-2 6 18 598.177 451.658 1
6 2 18 580.471 499.474 1
-18 -2 -6 511.327 416.852 5
-2 -6 -18 84.5853 534.972 7
6 -2 -18 263.638 505.074 7
-6 2 -18 558.547 513.648 7
18 6 4 439.365 557.103 3
-4 6 18 729.714 648.197 4
-4 -6 -18 7.81906 481.657 6
6 -4 -18 497.346 461.642 6
6 4 18 1110.85 461.052 1
18 -4 6 740.748 490.944 2
-18 -4 -6 501.02 532.801 8
-4 6 18 38.9681 474.195 1
-4 -6 -18 765.439 554.066 7
-18 -4 -6 131.928 416.365 5
-18 -7 -5 796.943 565.749 8
5 -7 -18 891.963 594.402 7
3 7 18 86.0138 588.662 4
3 -7 -18 54.3542 465.982 6
7 3 -18 815.903 485.556 6
-18 3 -7 63.0877 504.875 8
3 -7 -18 1137.59 558.518 7
-7 -3 -18 1580.03 540.236 7
1 7 18 277.224 569.014 4
1 -7 -18 710.054 451.733 6
-7 1 18 1506.01 625.879 4
1 7 18 210.469 442.071 1
7 1 -18 560.574 466.975 6
-18 1 -7 144.608 432.15 5
1 -7 -18 483.758 555.042 7
7 1 -18 94.9169 499.102 7
18 1 7 980.874 559.006 2
-1 -7 -18 1358.15 456.479 6
-7 -1 18 86.386 632.395 4
-1 7 18 130.891 439.368 1
-18 -1 -7 1344.25 555.586 8
18 -1 7 285.241 590.964 3
18 -1 7 1342.86 518.87 2
7 -1 -18 92.5742 517.683 7
18 7 3 212.116 550.154 3
-3 -7 -18 862.544 456.302 6
-7 -3 18 422.408 661.531 4
-7 3 -18 50.6639 519.196 7
-5 7 18 999.584 463.809 1
18 -5 7 620.979 525.602 2
-18 -5 -7 1715.47 573.587 8
-5 -7 -18 520.75 571.903 7
18 7 7 135.684 600.821 3
7 7 18 530.331 464.901 1
-7 7 18 144.516 698.377 4
7 -7 -18 186.102 483.635 6
-7 7 18 293.334 479.265 1
-18 -7 -7 421.543 553.46 8
-7 -7 -18 50.9608 587.894 7
7 -7 -18 611.394 597.24 7
-18 -7 -7 334.301 423.152 5
18 6 8 47.6411 611.582 3
-8 6 18 151.894 708.196 4
6 -8 -18 349.727 493.348 6
-8 -6 -18 158.241 478.365 6
-8 6 18 202.776 481.54 1
6 8 18 280.554 504.473 1
4 -8 -18 783.881 466.218 6
-18 4 -8 407.7 494.777 8
-18 4 -8 187.754 442.495 5
4 -8 -18 53.3755 570.494 7
-8 -4 -18 299.767 540.939 7
4 8 18 94.4386 483.325 1
8 4 18 77.8325 464.072 1
-4 -8 -18 521.626 471.233 6
-18 -4 -8 128.634 546.04 8
-4 -8 -18 217.453 588.047 7
-18 -4 -8 710.681 425.361 5
-6 8 18 11.9878 467.41 1
8 6 18 778.527 686.276 4
-6 -8 -18 437.816 499.05 6
8 -6 -18 350.478 500.247 6
8 6 18 68.9593 474.174 1
-6 -8 -18 270.503 606.564 7
-18 -6 -8 354.091 430.562 5
-18 5 -9 206.24 440.94 5
5 9 18 659.359 506.71 1
5 -9 -18 292.026 627.739 7
-9 -5 -18 608.251 570.559 7
3 -9 -18 292.54 499.828 6
-9 3 18 229.269 688.074 4
9 3 -18 745.833 492.739 6
3 -9 -18 136.172 620.35 7
-9 3 18 60.501 514.259 1
9 3 -18 802.628 531.279 7
1 -9 -18 719.136 474.418 6
-9 1 18 324.457 639.665 4
9 1 -18 294.886 460.599 6
-18 1 -9 347.833 485.443 5
1 -9 -18 74.3789 588.893 7
1 9 18 167.703 458.246 1
18 1 9 23.3163 530.24 2
9 1 -18 357.75 541.925 7
9 -1 -18 239.847 482.767 6
-9 -1 18 17.7478 656.423 4
-18 -1 -9 1102.92 567.017 8
18 -1 9 441.382 637.434 3
-18 -1 -9 1228.4 477.445 5
-1 -9 -18 55.7792 606.289 7
-1 9 18 298.706 472.252 1
-3 -9 -18 321.09 479.81 6
9 -3 -18 482.445 509.295 6
-9 -3 18 662.13 682.604 4
18 -3 9 103.532 532.885 2
-18 -3 -9 64.8611 571.692 8
-3 -9 -18 468.723 622.698 7
-18 -3 -9 15.4834 450.129 5
-3 9 18 160.227 468.403 1
9 -3 -18 165.657 586.184 7
-5 -9 -18 386.829 508.316 6
9 -5 -18 489.45 517.183 6
9 5 18 600.341 473.943 1
-18 -5 -9 351.129 432.595 5
10 2 -18 840.832 508.798 6
-18 2 -10 214.245 530.574 8
-18 2 -10 446.963 464.437 5
-10 2 18 626.209 565.948 1
18 2 10 811.294 646.201 3
10 0 -18 350.958 488.195 6
18 0 10 166.376 655.653 3
-18 0 -10 329.059 485.424 5
10 0 -18 151.264 574.259 7
10 -2 -18 151.217 512.238 6
-10 -2 18 852.476 683.412 4
18 -2 10 259.333 555.932 2
10 -2 -18 394.607 593.009 7
19 1 0 838.387 534.546 2
0 1 19 25.5617 581.817 4
-1 0 19 124.606 611.445 4
1 0 19 1210.27 608.025 4
0 -1 -19 157.551 428.687 6
0 -1 19 404.562 596.395 4
1 0 -19 3.92862 411.771 6
-1 0 -19 109.373 437.248 6
0 1 -19 48.3556 442.894 6
-19 0 -1 119.399 530.554 8
-19 0 1 405.167 537.774 8
-19 -1 0 24.3452 545.125 8
-19 0 -1 402.732 426.603 5
-19 -1 0 207.559 415.813 5
19 1 0 12.6407 574.333 3
19 -1 0 440.395 506.944 2
0 -1 -19 690.909 487.937 7
1 0 -19 459.48 494.991 7
0 1 -19 411.516 497.349 7
19 0 1 57.3327 513.237 2
19 0 -1 26.0205 503.027 2
19 1 2 283.051 545.765 2
1 2 19 90.7797 616.164 4
1 -2 -19 560.394 428.414 6
-2 -1 -19 34.3616 435.192 6
2 -1 19 345.461 613.716 4
2 1 -19 80.9763 436.576 6
-1 -2 19 359.786 610.233 4
-1 2 -19 156.613 452.356 6
-19 1 -2 1009.23 538.759 8
-19 -2 -1 398.728 522.075 8
19 -2 1 758.517 602.828 3
19 -2 1 289.829 484.386 2
-19 1 -2 676.057 436.049 5
-19 -2 -1 137.96 403.909 5
1 -2 -19 114.77 505.228 7
2 1 -19 3.84651 490.055 7
-1 2 -19 63.2883 494.534 7
-1 2 19 238.276 610.061 4
2 1 19 456.214 613.745 4
-1 -2 -19 95.8267 448.202 6
2 -1 -19 551.717 440.145 6
-2 -1 19 793.526 601.474 4
-2 1 -19 16.1652 447.276 6
1 -2 19 1599.7 639.812 4
1 2 -19 518.85 464.274 6
-19 2 -1 439.131 426.125 5
19 -2 -1 102.273 494.218 2
19 -1 2 1197.44 507.219 2
19 2 1 314.938 559.735 3
-1 -2 -19 861.087 503.936 7
2 -1 -19 64.9707 488.671 7
1 2 -19 309.055 500.868 7
-3 2 19 1160.87 628.774 4
2 -3 -19 258.133 450.398 6
-3 -2 -19 596.807 439.515 6
3 2 -19 368.429 452.483 6
3 -2 19 261.077 658.546 4
-2 -3 19 1137.74 633.759 4
-2 3 -19 4.37301 472.606 6
19 -3 2 4.30015 558.06 3
19 -3 2 334.736 509.491 2
-19 2 -3 233.983 441.691 5
-19 -3 -2 341.49 403.296 5
2 3 19 544.213 474.592 1
2 -3 -19 432.2 515.073 7
-3 -2 -19 123.277 514.141 7
3 2 -19 482.567 512.226 7
-2 3 -19 75.6048 497.846 7
0 3 19 64.1106 596.709 4
0 3 19 37.4947 482.068 1
0 -3 -19 707.553 434.778 6
3 0 19 944.738 615.593 4
3 0 -19 1547.65 443.655 6
-3 0 -19 914.805 448.459 6
0 3 -19 932.429 470.837 6
0 -3 19 663.131 649.48 4
-19 3 0 872.667 497.997 8
-19 -3 0 484.082 519.087 8
19 -3 0 1021.16 594.36 3
19 -3 0 893.17 478.561 2
-19 3 0 990.761 427.279 5
19 0 3 508.187 608.058 3
-19 0 -3 884.375 436.534 5
-19 -3 0 887.321 397.444 5
0 -3 -19 377.549 513.776 7
3 0 -19 1279.61 501.822 7
-3 0 -19 1015.61 509.088 7
19 0 3 530.313 513.447 2
19 3 0 215.01 560.643 3
0 3 -19 751.074 506.825 7
-2 3 19 144.536 476.404 1
-2 3 19 378.976 596.753 4
-2 -3 -19 73.8582 445.945 6
3 -2 -19 575.146 427.76 6
-3 -2 19 532.76 625.146 4
-3 2 -19 611.002 466.337 6
2 3 -19 52.2053 450.691 6
2 -3 19 211.32 653.11 4
-19 3 -2 201.759 493.979 8
-19 -2 -3 398.602 535.228 8
-19 -3 2 689.417 546.025 8
19 -2 3 940.586 589.305 3
-19 3 -2 78.3124 417.437 5
19 -2 3 752.985 523.268 2
-19 2 3 492.739 434.76 5
-19 -2 -3 275.958 421.945 5
-2 -3 -19 218.672 522.209 7
3 -2 -19 416.776 513.097 7
19 3 2 502.961 580.013 3
2 3 -19 516.803 501.51 7
19 4 -1 292.208 560.907 3
-4 1 19 1580.77 625.958 4
-4 -1 -19 788.792 433.176 6
4 1 -19 135.294 445.58 6
-19 4 1 239.383 485.96 8
-19 1 -4 1265.13 542.393 8
19 -1 -4 980.15 594.148 3
-19 -1 4 448.237 403.84 5
-19 -4 -1 414.13 391.986 5
-4 -1 -19 174.866 521.639 7
4 1 -19 648.777 503.526 7
-1 -4 -19 95.0537 452.802 6
4 1 19 38.5983 643.023 4
4 -1 -19 383.405 437.465 6
-4 -1 19 986.128 614.957 4
-19 -4 1 32.8769 540.078 8
-19 4 -1 59.2751 439.426 5
19 -1 4 1044.33 607.248 3
-1 4 19 759.871 488.403 1
-19 -1 -4 737.022 451.984 5
-19 1 4 587.844 426.391 5
-1 -4 -19 1119.04 547.199 7
-19 -4 1 611.536 390.927 5
4 -1 -19 255.086 501.752 7
19 1 -4 1026.21 559.141 3
-4 1 -19 486.395 517.129 7
19 4 1 26.0957 566.363 3
-19 -5 -4 379.909 554.146 8
-19 4 -5 43.4582 457.846 5
-19 5 4 222.237 483.53 5
4 -5 -19 1333.97 580.496 7
-19 -5 -4 115.41 406.67 5
19 4 5 218.71 576.485 3
4 5 19 586.178 475.536 1
-19 5 -4 908.137 487.897 8
-19 -4 -5 448.878 556.544 8
-19 -5 4 140.855 579.376 8
-4 -5 -19 1631.08 581.187 7
-19 -4 -5 194.147 417.14 5
19 5 4 298.087 568.001 3
5 6 19 894.01 659.97 4
-6 5 19 294.586 661.591 4
5 -6 -19 741.109 484.257 6
-6 -5 -19 856.674 490.56 6
-19 5 -6 126.312 460.586 5
-19 -6 -5 789.68 556.486 8
-6 -5 -19 166.859 578.724 7
-19 -6 -5 516.179 425.381 5
19 5 6 103.268 603.247 3
3 -6 -19 150.163 484.382 6
-6 3 19 743.426 526.734 1
6 3 -19 57.3399 473.939 6
-19 3 -6 752.248 505.68 8
-19 3 -6 518.167 441.57 5
3 -6 -19 56.2041 582.055 7
-6 -3 -19 128.5 555.474 7
19 3 6 1070.66 594.022 3
-19 -6 -3 679.972 405.092 5
1 6 19 669.311 596.793 4
6 -1 19 854.93 671.187 4
-19 6 1 100.241 456.946 5
1 6 19 577.312 471.31 1
1 -6 -19 489.979 563.329 7
-6 -1 -19 515.885 549.91 7
-1 6 19 119.995 461.321 1
6 -1 -19 221.848 534.343 7
6 3 19 188.825 497.487 1
-3 6 19 599.291 605.924 4
6 3 19 546.381 659.722 4
-3 -6 -19 376.728 487.693 6
6 -3 -19 316.854 477.788 6
-6 -3 19 335.937 662.139 4
-19 -3 -6 392.261 560.452 8
-19 -6 3 778.932 532.725 8
-3 6 19 199.067 478.695 1
-19 -3 -6 288.545 430.635 5
-3 -6 -19 975.114 571.201 7
6 -3 -19 184.04 570.242 7
-6 3 -19 165.09 535.487 7
19 6 5 804.417 592.399 3
-5 6 19 22.4937 655.8 4
6 5 19 634.62 678.755 4
6 -5 -19 678.859 477.648 6
19 -5 6 352.813 548.399 2
-19 -5 -6 1488.09 569.443 8
-19 -6 5 426.315 608.177 8
-5 6 19 798.048 491.242 1
-5 -6 -19 12.6969 565.696 7
6 5 19 423.962 486.958 1
-19 -5 -6 389.819 425.456 5
-7 4 19 158.227 677.473 4
-7 -4 -19 317.36 482.126 6
-19 4 -7 245.784 508.263 8
-19 -7 -4 930.771 595.032 8
-19 4 -7 162.88 452.373 5
-7 -4 -19 424.303 582.123 7
-19 -7 -4 336.562 419.006 5
2 7 19 669.007 614.118 4
2 -7 -19 229.396 479.356 6
-7 2 19 760.09 676.277 4
-7 2 19 110.412 538.557 1
-7 -2 -19 387.462 443.05 6
7 2 -19 21.8416 474.674 6
7 -2 19 53.5893 718.552 4
-19 2 -7 50.0843 526.735 8
-7 -2 -19 525.117 552.648 7
-19 -7 -2 347.972 454.614 5
0 -7 -19 248.277 475.946 6
-7 0 19 794.644 656.772 4
7 0 19 207.492 660.43 4
7 0 -19 345.839 459.942 6
-7 0 -19 128.367 458.925 6
0 7 19 384.948 467.929 1
-19 0 -7 169.824 553.359 8
19 0 7 75.1088 615.883 3
-19 0 -7 271.277 459.342 5
0 -7 -19 424.521 578.939 7
19 0 7 29.039 555.024 2
7 0 -19 597.677 535.172 7
-7 0 -19 1259.99 552.945 7
19 7 2 432.312 571.526 3
-2 -7 -19 28.1308 492.309 6
7 2 19 874.707 652.733 4
7 -2 -19 169.245 478.81 6
-7 2 -19 420.896 499.623 6
-2 7 19 263.294 477.853 1
-19 -2 -7 697.59 444.557 5
7 2 19 47.3278 530.13 1
-7 2 -19 479.938 553.248 7
19 7 4 1442.44 601.041 3
7 4 19 129.849 685.145 4
-4 -7 -19 430.744 491.173 6
7 4 19 193.466 489.453 1
7 -4 -19 276.198 483.62 6
-4 7 19 542.298 487.732 1
19 -4 7 663.485 509.38 2
-19 -4 -7 317.944 572.081 8
-4 -7 -19 986.62 593.735 7
-19 -4 -7 302.865 439.156 5
-8 3 19 632.711 540.783 1
-8 -3 -19 113.847 462.222 6
8 3 -19 152.358 496.035 6
-19 3 -8 111.377 454.84 5
3 -8 -19 978.902 603.285 7
-8 -3 -19 362.155 575.666 7
1 8 19 277.804 483.272 1
-8 -1 -19 128.746 471.768 6
8 1 -19 339.302 480.026 6
8 -1 19 1373.88 714.044 4
1 -8 -19 289.27 604.324 7
-8 -1 -19 3.97515 567.191 7
19 1 8 57.5851 556.952 2
8 -1 -19 118.36 480.764 6
-8 -1 19 50.3793 672.839 4
-8 1 -19 1788.53 507.038 6
-19 -1 -8 282.001 564.32 8
19 -1 8 858.637 646.208 3
19 -1 8 168.634 570.039 2
-19 -1 -8 208.144 466.433 5
-3 8 19 684.365 479.171 1
-3 -8 -19 40.5698 486.684 6
8 3 19 298.335 687.394 4
8 -3 -19 84.1458 485.823 6
-8 -3 19 610.592 677.499 4
19 -3 8 38.6563 535.895 2
-19 -3 -8 239.522 572.897 8
-3 -8 -19 167.034 620.12 7
-19 -3 -8 147.682 448.52 5
8 -3 -19 334.838 587.938 7
-8 3 -19 587.021 564.336 7
0 0 20 468.224 654.331 4
0 0 -20 889.869 517.083 7
20 1 1 1403.32 580.653 2
20 1 -1 1647.52 593.647 2
1 -1 -20 320.014 457.289 6
-1 -1 -20 60.8842 466.972 6
-1 -1 20 154.932 635.265 4
1 1 -20 63.4129 475.931 6
-1 1 -20 814.906 484.869 6
-20 1 -1 840.834 566.403 8
-20 1 1 613.109 560.842 8
-20 -1 -1 403.57 552.083 8
-20 -1 1 1141.89 564.146 8
20 -1 1 1276.16 673.299 3
-20 1 1 916.053 464.107 5
20 -1 -1 1895.56 680.765 3
-20 -1 -1 1267.17 444.698 5
-20 -1 1 736.023 429.758 5
20 -1 1 775.913 549.014 2
20 -1 -1 657.578 572.815 2
1 -1 -20 697.146 541.823 7
1 1 -20 322.592 534.515 7
-2 0 20 239.512 630.342 4
0 -2 -20 4.05506 470.612 6
2 0 20 90.2931 623.598 4
2 0 -20 700.139 464.171 6
-2 0 -20 148.064 453.272 6
0 -2 20 94.1864 675.86 4
0 2 -20 246.607 464.874 6
-20 -2 0 526.455 565.061 8
20 -2 0 465.336 661.373 3
20 -2 0 160.12 527.863 2
-20 2 0 791.273 450.525 5
20 0 2 46.7993 636.994 3
-20 0 2 627.521 442.472 5
20 2 0 22.1875 604.644 3
2 0 -20 470.641 520.097 7
-2 0 -20 85.13 543.74 7
20 0 2 719.015 570.171 2
0 2 -20 248.298 540.848 7
20 0 -2 687.01 569.2 2
-2 2 20 932.146 646.358 4
2 2 20 9.12062 653.682 4
2 -2 -20 343.544 473.6 6
-2 -2 -20 354.636 485.697 6
-2 -2 20 489.319 655.56 4
2 2 -20 92.5669 480.934 6
-2 2 -20 363.131 471.854 6
20 -2 2 148.898 641.918 3
20 -2 2 328.2 539.091 2
-20 2 -2 66.1068 437.118 5
20 -2 -2 555.102 530.53 2
-20 2 2 173.272 459.579 5
-20 -2 2 288.184 419.851 5
20 2 2 948.737 616.137 3
-2 -2 -20 169.682 537.143 7
20 2 -2 476.733 608.401 3
2 2 -20 570.972 542.669 7
-2 2 -20 400.56 543.304 7
1 3 20 184.619 656.442 4
1 -3 -20 123.102 472.027 6
3 1 -20 213.214 476.88 6
-1 3 -20 63.3675 476.65 6
-1 -3 20 400.798 673.482 4
-20 -1 3 25.3809 571.428 8
20 -3 1 32.0617 627.053 3
-20 3 1 71.5759 463.536 5
-20 1 -3 227.855 449.412 5
20 1 3 164.204 613.561 3
1 3 20 374.232 516.725 1
-20 -3 -1 61.1378 423.862 5
20 -1 -3 140.881 538.123 2
-3 -1 -20 691.49 536.868 7
3 1 -20 238.11 522.4 7
-1 3 -20 489.604 539.527 7
20 1 -3 300.058 593.037 2
-1 3 20 117.058 645.879 4
-1 -3 -20 420.963 460.101 6
3 -1 -20 8.20536 469.327 6
-3 -1 20 265.7 641.186 4
-3 1 -20 124.475 472.835 6
1 3 -20 63.2324 475.142 6
1 -3 20 253.112 667.295 4
-20 3 -1 470.079 517.548 8
-20 -1 -3 445.723 574.575 8
-20 -3 1 745.104 563.029 8
20 -3 -1 84.186 506.897 2
20 -3 -1 818.499 680.802 3
-20 3 -1 77.0729 451.136 5
-20 -1 -3 159.861 440.487 5
20 -1 3 751.818 554.348 2
-20 -3 1 902.752 428.82 5
-1 -3 -20 20.8715 562.622 7
20 1 -3 627.708 588.778 3
3 -1 -20 378.141 520.808 7
20 3 1 866.469 606.296 3
-1 3 20 8.83014 524.967 1
1 3 -20 4.1501 541.387 7
-3 3 20 159.509 668.621 4
3 3 20 399.707 659.61 4
3 -3 -20 297.447 479.034 6
-3 -3 -20 455.586 471.72 6
3 3 -20 280.497 469.339 6
3 3 20 217.139 504.295 1
20 -3 3 173.3 553.151 2
-20 -3 3 64.4565 573.057 8
20 -3 3 497.24 612.041 3
-20 3 -3 11.8614 461.047 5
-3 3 20 22.5903 525.454 1
-20 -3 -3 276.117 442.584 5
-3 -3 -20 159.5 560.857 7
3 -3 -20 155.921 575.749 7
-20 -3 3 130.257 406.84 5
20 3 3 323.593 614.792 3
3 3 -20 114.914 525.8 7
-3 3 -20 57.8792 542.456 7
20 4 -2 638.062 598.156 3
20 2 4 193.442 579.54 2
-4 -2 -20 461.089 473.542 6
4 2 -20 631.099 499.715 6
4 -2 20 1242.94 704.271 4
-20 2 -4 377.977 518.884 8
2 4 20 974.275 513.788 1
-20 -2 4 717.269 598.754 8
-20 -4 -2 305.093 586.466 8
-20 4 2 197.777 470.172 5
20 2 4 1196.21 618.5 3
2 -4 -20 156.18 581.888 7
-20 -4 -2 297.784 435.884 5
-4 -2 -20 49.0109 552.938 7
4 2 -20 4.1229 532.875 7
-4 0 20 41.1106 660.841 4
4 0 20 1014.84 650.653 4
4 0 -20 328.156 470.16 6
-4 0 -20 652.658 454.32 6
20 -4 0 77.1303 522.232 2
-20 4 0 310.946 515.021 8
-20 0 -4 167.601 550.871 8
-20 0 4 325.033 590.841 8
-20 -4 0 132.646 564.557 8
-20 4 0 200.006 456.963 5
0 4 20 367.902 503.184 1
-20 0 -4 217.437 459.948 5
20 0 4 266.375 652.392 3
0 -4 -20 607.331 587.985 7
4 0 -20 109.3 534.645 7
20 0 -4 247.772 555.798 2
20 4 0 1217.8 590.051 3
-2 4 20 81.497 660.469 4
4 2 20 425.709 684.32 4
-2 -4 -20 307.038 495.817 6
4 -2 -20 489.413 468.6 6
-4 -2 20 445.444 682.761 4
-4 2 -20 508.704 494.152 6
20 -4 -2 57.2347 496.023 2
-20 2 4 643.773 559.39 8
20 -4 -2 312.405 690.07 3
20 -2 4 77.866 618.568 3
-2 4 20 579.421 507.122 1
-20 -2 -4 610.552 458.857 5
-2 -4 -20 223.887 597.275 7
4 -2 -20 590.119 545.318 7
20 4 -4 371.5 594.418 3
-4 4 20 296.232 649.904 4
4 4 20 177.651 683.315 4
4 -4 -20 8.34281 487.701 6
-4 -4 -20 442.132 486.889 6
4 4 20 571.07 508.466 1
20 -4 4 157.9 530.113 2
-4 4 20 343.223 530.574 1
-20 -4 -4 44.5203 576.885 8
-20 -4 4 614.426 613.152 8
-20 -4 -4 545.732 431.212 5
4 -4 -20 1318.01 580.051 7
-20 -4 4 135.96 411.782 5
20 4 4 164.836 614.669 3
20 5 -3 774.897 600.861 3
3 5 20 800.111 667.958 4
-5 3 20 494.082 669.448 4
3 -5 -20 4.17735 472.14 6
-5 -3 -20 165.565 484.984 6
5 3 -20 82.0028 507.379 6
-5 3 20 431.337 540.974 1
20 -5 3 756.819 553.452 2
-20 3 -5 407.525 463.781 5
-5 -3 -20 38.0811 584.011 7
20 5 -1 428.275 585.717 3
1 5 20 398.219 507.926 1
1 5 20 4.4047 628.954 4
1 -5 -20 62.7365 489.178 6
-5 -1 -20 400.917 463.555 6
5 1 -20 95.356 490.55 6
20 -5 1 493.728 543.536 2
-20 5 1 74.5619 502.906 8
-20 5 1 480.759 468.374 5
-20 1 -5 425.824 485.18 5
1 -5 -20 65.5267 587.249 7
-5 -1 -20 268.441 564.453 7
-20 -5 -1 129.487 419.912 5
5 1 -20 243.593 537.73 7
20 1 5 96.2191 574.863 2
20 5 1 37.4063 600.429 3
-1 5 20 304.367 656.696 4
5 -1 -20 409.846 466.558 6
-5 1 -20 117.34 497.558 6
20 -5 -1 174.515 525.251 2
-20 5 -1 232.469 520.375 8
-20 -1 -5 535.422 573.841 8
-20 -5 1 428.265 547.604 8
-20 5 -1 250.064 474.206 5
20 -1 5 555.703 619.136 3
-20 -1 -5 28.1515 462.991 5
20 -1 5 213.948 555.354 2
5 -1 -20 383.909 562.315 7
-20 -5 1 159.276 418.721 5
20 5 3 90.171 606.18 3
-3 5 20 334.258 509.224 1
-3 -5 -20 854.927 487.905 6
-5 -3 20 68.3811 710.092 4
20 -5 -3 4.49885 516.581 2
20 -3 5 57.5176 552.816 2
-20 -3 -5 426.97 581.656 8
20 -3 5 77.9494 621.661 3
-20 5 -3 145.166 468.647 5
-20 -3 -5 280.878 445.2 5
-3 -5 -20 248.92 601.567 7
5 -3 -20 193.446 582.388 7
#BEGIN Loops that were not found in dictionaries:
loop_
_smtbx_masks_void_nr
_smtbx_masks_void_average_x
_smtbx_masks_void_average_y
_smtbx_masks_void_average_z
_smtbx_masks_void_volume
_smtbx_masks_void_count_electrons
1 -0.483 -0.058 -0.926 14421.2 4428.5
#END Loops that were not found in dictionaries
