#------------------------------------------------------------------------------
#$Date: 2017-12-10 21:25:10 +0200 (Sun, 10 Dec 2017) $
#$Revision: 204138 $
#$URL: file:///home/coder/svn-repositories/cod/cif/7/22/77/7227780.cif $
#------------------------------------------------------------------------------
#
# This file is available in the Crystallography Open Database (COD),
# http://www.crystallography.net/
#
# All data on this site have been placed in the public domain by the
# contributors.
#
data_7227780
loop_
_publ_author_name
'Patyk-Ka\'zmierczak, Ewa'
'Warren, Mark R.'
'Allan, David R.'
'Katrusiak, Andrzej'
_publ_section_title
;
 Pressure inverse solubility and polymorphism of an edible
 \g-cyclodextrin-based metal-organic framework.
;
_journal_issue                   13
_journal_name_full               'Physical chemistry chemical physics : PCCP'
_journal_page_first              9086
_journal_page_last               9091
_journal_paper_doi               10.1039/c7cp00593h
_journal_volume                  19
_journal_year                    2017
_chemical_absolute_configuration rm
_chemical_formula_moiety         'C48 H80 O40, 2(KOH)'
_chemical_formula_sum            'C48 H82 K2 O42'
_chemical_formula_weight         1409.34
_chemical_name_common            '\g-cyclodextrin-metal-organic framework'
_chemical_name_systematic
'catena-((\m8-\g-Cyclodextrin)-di-potassium dihydroxide)'
_space_group_crystal_system      cubic
_space_group_IT_number           211
_space_group_name_Hall           'I 4 2 3'
_space_group_name_H-M_alt        'I 4 3 2'
_atom_sites_solution_hydrogens   geom
_atom_sites_solution_primary     direct
_audit_creation_date             2017-01-18
_audit_creation_method
;
Olex2 1.2
(compiled 2017.01.04 svn.r3372 for OlexSys, GUI svn.r5289)
;
_cell_angle_alpha                90.0
_cell_angle_beta                 90.0
_cell_angle_gamma                90.0
_cell_formula_units_Z            12
_cell_length_a                   31.223(3)
_cell_length_b                   31.223(3)
_cell_length_c                   31.223(3)
_cell_measurement_reflns_used    544
_cell_measurement_temperature    295
_cell_measurement_theta_max      11.3480
_cell_measurement_theta_min      1.7850
_cell_volume                     30439(5)
_computing_cell_refinement       'CrysAlisPro 1.171.38.41 (Rigaku OD, 2015)'
_computing_data_collection       'CrysAlisPro 1.171.38.41 (Rigaku OD, 2015)'
_computing_data_reduction        'CrysAlisPro 1.171.38.41 (Rigaku OD, 2015)'
_computing_molecular_graphics    'Olex2 (Dolomanov et al., 2009)'
_computing_publication_material  'Olex2 (Dolomanov et al., 2009)'
_computing_structure_refinement  'ShelXL (Sheldrick, 2015)'
_computing_structure_solution    'ShelXS (Sheldrick, 2008)'
_diffrn_ambient_environment      'diamond-anvil cell'
_diffrn_ambient_pressure         490000
_diffrn_ambient_temperature      295
_diffrn_detector                 'CCD plate'
_diffrn_measured_fraction_theta_full 0.664
_diffrn_measured_fraction_theta_max 0.664
_diffrn_measurement_details
;
List of Runs (angles in degrees, time in seconds):

  # Type    Start    End  Width  t~exp~   \w     \q     \k     \f   Frames
--------------------------------------------------------------------------
  1  \w   -105.00 -74.00   0.20    0.70    --   15.00  70.00 155.77  155
  2  \w   -105.00 -74.00   0.20    0.70    --   15.00  70.00 -24.23  155
  3  \w   -106.00 -66.00   0.20    0.70    --  -15.00 -70.00-155.77  200
  4  \w   -106.00 -66.00   0.20    0.70    --  -15.00 -70.00  24.23  200
  5  \w   -150.00 -94.00   0.20    0.70    --  -15.00  70.00 -24.23  280
  6  \w   -150.00 -94.00   0.20    0.70    --  -15.00  70.00 155.77  280
  7  \w    -96.00 -30.00   0.20    0.70    --   15.00 -70.00  24.23  330
  8  \w    -96.00 -30.00   0.20    0.70    --   15.00 -70.00-155.77  330
;
_diffrn_measurement_device       'abstract diffractometer'
_diffrn_measurement_device_type  'Newport IS4CCD (4 circle), Pilatus 300K'
_diffrn_measurement_method       '\w scans'
_diffrn_orient_matrix_type
'CrysAlisPro convention (1999,Acta A55,543-557)'
_diffrn_orient_matrix_UB_11      -0.0037334000
_diffrn_orient_matrix_UB_12      -0.0217490000
_diffrn_orient_matrix_UB_13      -0.0001980000
_diffrn_orient_matrix_UB_21      -0.0111740000
_diffrn_orient_matrix_UB_22      0.0017036000
_diffrn_orient_matrix_UB_23      0.0189860000
_diffrn_orient_matrix_UB_31      -0.0186399000
_diffrn_orient_matrix_UB_32      0.0033240000
_diffrn_orient_matrix_UB_33      -0.0112572000
_diffrn_radiation_monochromator  synchrotron
_diffrn_radiation_probe          x-ray
_diffrn_radiation_type           synchrotron
_diffrn_radiation_wavelength     0.6889
_diffrn_reflns_av_R_equivalents  0.1225
_diffrn_reflns_av_unetI/netI     0.2244
_diffrn_reflns_Laue_measured_fraction_full 0.664
_diffrn_reflns_Laue_measured_fraction_max 0.664
_diffrn_reflns_limit_h_max       20
_diffrn_reflns_limit_h_min       -20
_diffrn_reflns_limit_k_max       9
_diffrn_reflns_limit_k_min       -9
_diffrn_reflns_limit_l_max       20
_diffrn_reflns_limit_l_min       -20
_diffrn_reflns_number            2461
_diffrn_reflns_point_group_measured_fraction_full 0.654
_diffrn_reflns_point_group_measured_fraction_max 0.654
_diffrn_reflns_theta_full        13.256
_diffrn_reflns_theta_max         13.256
_diffrn_reflns_theta_min         1.788
_diffrn_source                   synchrotron
_exptl_absorpt_coefficient_mu    0.149
_exptl_absorpt_correction_T_max  1.00000
_exptl_absorpt_correction_T_min  0.74506
_exptl_absorpt_correction_type   multi-scan
_exptl_absorpt_process_details
;
CrysAlisPro 1.171.38.41 (Rigaku Oxford Diffraction, 2015)
Empirical absorption correction using spherical harmonics,
 implemented in SCALE3 ABSPACK scaling algorithm.
;
_exptl_crystal_colour            'clear colourless'
_exptl_crystal_colour_lustre     clear
_exptl_crystal_colour_primary    colourless
_exptl_crystal_density_diffrn    0.922
_exptl_crystal_description       plate
_exptl_crystal_F_000             8928
_exptl_crystal_recrystallization_method
'Compressed crystal that was grown in situ at 0.16 GPa in the diamond-anvil cell from methanol:water mixture by heating and subsequent cooling of the cell'
_exptl_crystal_size_max          0.14
_exptl_crystal_size_mid          0.13
_exptl_crystal_size_min          0.01
_refine_diff_density_max         0.112
_refine_diff_density_min         -0.124
_refine_diff_density_rms         0.027
_refine_ls_abs_structure_details
;
 Flack x determined using 50 quotients [(I+)-(I-)]/[(I+)+(I-)]
 (Parsons, Flack and Wagner, Acta Cryst. B69 (2013) 249-259).
;
_refine_ls_abs_structure_Flack   0.27(18)
_refine_ls_extinction_method     none
_refine_ls_goodness_of_fit_ref   0.940
_refine_ls_hydrogen_treatment    constr
_refine_ls_matrix_type           full
_refine_ls_number_parameters     73
_refine_ls_number_reflns         524
_refine_ls_number_restraints     67
_refine_ls_restrained_S_all      1.332
_refine_ls_R_factor_all          0.2266
_refine_ls_R_factor_gt           0.0670
_refine_ls_shift/su_max          0.000
_refine_ls_shift/su_mean         0.000
_refine_ls_structure_factor_coef Fsqd
_refine_ls_weighting_details
'w=1/[\s^2^(Fo^2^)+(0.1518P)^2^] where P=(Fo^2^+2Fc^2^)/3'
_refine_ls_weighting_scheme      calc
_refine_ls_wR_factor_gt          0.1871
_refine_ls_wR_factor_ref         0.2693
_reflns_Friedel_coverage         0.569
_reflns_Friedel_fraction_full    0.638
_reflns_Friedel_fraction_max     0.638
_reflns_number_gt                173
_reflns_number_total             524
_reflns_threshold_expression     'I > 2\s(I)'
_iucr_refine_instructions_details
;

    final_new.res created by SHELXL-2014/7

TITL final_new in I432 #211
REM reset to I432 #211
CELL 0.6889 31.222761 31.222761 31.222761 90 90 90
ZERR 12 0.00297 0.00297 0.00297 0 0 0
LATT -2
SYMM -Y,+X,+Z
SYMM -X,-Y,+Z
SYMM +Y,-X,+Z
SYMM +X,-Z,+Y
SYMM +X,-Y,-Z
SYMM +X,+Z,-Y
SYMM +Z,+Y,-X
SYMM -X,+Y,-Z
SYMM -Z,+Y,+X
SYMM +Z,+X,+Y
SYMM +Y,+Z,+X
SYMM -Y,-Z,+X
SYMM +Z,-X,-Y
SYMM -Y,+Z,-X
SYMM -Z,-X,+Y
SYMM -Z,+X,-Y
SYMM +Y,-Z,-X
SYMM +Y,+X,-Z
SYMM -Y,-X,-Z
SYMM -X,+Z,+Y
SYMM -X,-Z,-Y
SYMM +Z,-Y,+X
SYMM -Z,-Y,-X
SFAC C H K O
DISP C 0.003 0.001 10.848
DISP K 0.203 0.25 967.432
DISP O 0.011 0.006 30.192
UNIT 576 960 24 504
DFIX 1.45 0.005 C6 O6
DFIX 1.45 0.005 C2 O2
DFIX 2.4 O14 C15
DFIX 1.5 0.005 C16 C15
DFIX 2.2 O4 C12
DFIX 3 C12 C15
DFIX 1.45 0.005 C11 O4
DFIX 1.5 0.005 C12 C11
DFIX 1.5 0.005 C6 C5
DFIX 3 C2 C5
DFIX 2 C5 O6
DFIX 1.45 O4 C4
DFIX 1.5 C4 C5
DFIX 1.5 0.01 O14 C14
DFIX 1.5 0.005 C15 C14
DFIX 1.5 0.005 C14 C15
DFIX 3 C11 C14
DFIX 2.4 O14 C13
DFIX 1.5 0.005 C12 C13
DFIX 1.5 0.005 C14 C13
DFIX 1.45 0.005 C12 O12
DFIX 2.5 O13 C14
DFIX 1.45 O13 C13
DFIX 1.45 C13 O13
DFIX 1.5 0.005 C2 C1
DFIX 2.3 0.005 C5 C1
DFIX 3.5 C15 K1
DFIX 1.45 0.005 C16 O16
DFIX 3 O16 K1
DFIX 2.5 O5 C6
DFIX 2.2 O15 C16
DFIX 1.45 0.005 O15 C15
DFIX 1.45 0.005 O15 C11
DFIX 1.45 0.005 O5 C5
DFIX 3 O15 C13
DFIX 1.45 O5 C1
DFIX 1.5 0.005 C2 C3
DFIX 2.2 O2 C3
DFIX 1.45 C4 C3
DFIX 2.3 C2 O3
DFIX 1.45 0.005 O3 C3
DANG 2.5 O14 C15
DANG 2.5 O4 C12
DANG 2.4 0.02 C15 C11
DANG 2.7 O6 C5
DANG 2.5 C11 C4
DANG 2.4 0.02 C12 C14
DANG 2.5 C13 O14
DANG 2.4 0.02 C13 C15
DANG 2.4 0.02 C11 C13
DANG 2.5 O12 C11
DANG 2.5 O12 C13
DANG 2.5 O13 C12
DANG 2.5 O13 C14
DANG 2.5 O2 C1
DANG 2.5 C1 O2
DANG 2.5 0.02 C1 C5
DANG 3 C1 C4
DANG 2.5 C15 O16
DANG 2.5 O16 C15
DANG 2.4 0.02 O15 C12
DANG 2.5 C2 O5
DANG 2.4 0.02 C14 O15
DANG 2.5 0.02 C5 C3
DANG 2.5 C3 C1
DANG 2.5 O3 C2
DANG 2.5 O3 C4
ISOR K1
 
L.S. 100
PLAN  10
TEMP 21.85
CONN 4 C16
CONN 1 H16a
CONN 1 H12
CONN 4 C15
BOND
MORE -1
BOND $H
CONF
ABIN
fmap 2
acta
OMIT 0 4 10
OMIT 0 2 10
OMIT 5 5 10
OMIT 0 7 9
OMIT 0 4 12
OMIT 2 7 7
OMIT 0 4 8
OMIT 0 5 5
OMIT 1 1 12
OMIT 2 2 4
OMIT 0 6 8
OMIT 2 2 6
OMIT 2 2 10
OMIT 2 6 6
OMIT 0 6 6
OMIT 0 1 5
OMIT 5 6 7
OMIT 2 8 10
OMIT 0 9 9
OMIT 5 5 8
OMIT 4 4 8
OMIT -3 4 7
OMIT -3 4 11
OMIT 0 8 8
OMIT 0 0 10
OMIT 0 5 7
OMIT 0 7 7
OMIT 1 1 10
OMIT 4 4 6
OMIT -4 5 15
OMIT 0 0 12
OMIT 0 7 11
OMIT 0 6 10
OMIT 0 3 9
OMIT 2 9 9
OMIT 3 4 7
OMIT 2 5 9
OMIT 6 6 10
REM <olex2.extras>
REM <HklSrc "%.\\final_new.hkl">
REM </olex2.extras>
 
WGHT    0.151800
FVAR       0.35519   0.26578   0.36455
C1    1    0.857259    0.690974    0.643436    11.00000   21.00000
AFIX  13
H1    2    0.851927    0.721891    0.642483    11.00000   -1.20000
AFIX   0
C2    1    0.897975    0.682258    0.667461    11.00000   21.00000
AFIX  13
H2A   2    0.898175    0.695363    0.695981    11.00000   -1.20000
AFIX   0
C3    1    0.901672    0.634334    0.669141    11.00000   21.00000
AFIX  13
H3A   2    0.909410    0.628576    0.639272    11.00000   -1.20000
AFIX   0
C4    1    0.865134    0.603900    0.674006    11.00000   21.00000
AFIX  13
H4    2    0.856846    0.609212    0.703810    11.00000   -1.20000
AFIX   0
C5    1    0.825970    0.624006    0.649402    11.00000   21.00000
AFIX  13
H5    2    0.834064    0.622202    0.619130    11.00000   -1.20000
AFIX   0
C6    1    0.786158    0.597296    0.652675    11.00000   21.00000
AFIX  23
H6A   2    0.762392    0.608751    0.636270    11.00000   -1.20000
H6B   2    0.790884    0.567422    0.645580    11.00000   -1.20000
AFIX   0
C11   1    0.866311    0.533740    0.714422    11.00000   21.00000
AFIX  13
H11   2    0.869361    0.554554    0.737716    11.00000   -1.20000
AFIX   0
C12   1    0.905833    0.506384    0.715302    11.00000   21.00000
AFIX  13
H12A  2    0.909715    0.496611    0.744876    11.00000   -1.20000
AFIX   0
C13   1    0.899870    0.467219    0.688028    11.00000   21.00000
AFIX  13
H13A  2    0.891205    0.479536    0.660489    11.00000   -1.20000
AFIX   0
C14   1    0.860628    0.442821    0.701075    11.00000   21.00000
AFIX  13
H14   2    0.863494    0.431964    0.730385    11.00000   -1.20000
AFIX   0
C15   1    0.822271    0.471535    0.697193    11.00000   21.00000
AFIX  13
H15   2    0.825105    0.482694    0.667994    11.00000   -1.20000
AFIX   0
C16   1    0.774542    0.468788    0.702655    11.00000   21.00000
AFIX  23
H16A  2    0.763742    0.497443    0.707890    11.00000   -1.20000
H16B  2    0.762283    0.459044    0.675823    11.00000   -1.20000
AFIX   0
K1    3    0.802319    0.500000    0.802319    10.50000    0.22073
O2    4    0.936422    0.691780    0.643197    11.00000   31.00000
AFIX  83
H2    2    0.955537    0.675196    0.650219    11.00000   -1.50000
AFIX   0
O3    4    0.942065    0.624386    0.689742    11.00000   31.00000
AFIX  83
H3    2    0.941179    0.599988    0.699423    11.00000   -1.50000
AFIX   0
O4    4    0.872449    0.557236    0.674870    11.00000   31.00000
O5    4    0.819865    0.669439    0.656982    11.00000   31.00000
O6    4    0.782105    0.604787    0.698328    11.00000   31.00000
AFIX  83
H6    2    0.779804    0.581790    0.710802    11.00000   -1.50000
AFIX   0
O12   4    0.943750    0.530638    0.703735    11.00000   31.00000
AFIX  83
H12   2    0.964120    0.514282    0.701036    11.00000   -1.50000
AFIX   0
O13   4    0.937513    0.443161    0.676578    11.00000   31.00000
AFIX 147
H13   2    0.947124    0.431258    0.697925    11.00000   -1.50000
AFIX   0
O14   4    0.853955    0.406812    0.670179    11.00000   31.00000
O15   4    0.827400    0.509831    0.723099    11.00000   31.00000
O16   4    0.759052    0.441114    0.736498    11.00000   31.00000
AFIX  83
H16   2    0.758972    0.416227    0.728108    11.00000   -1.50000
AFIX   0
 
OA    4    1.000000    0.500000    0.646547    10.50000   31.00000
HKLF 4
 
REM  final_new in I432 #211
REM R1 =  0.0670 for     173 Fo > 4sig(Fo)  and  0.2266 for all     524 data
REM     73 parameters refined using     67 restraints
 
END  
     
WGHT      0.1520      0.0000 

REM Highest difference peak  0.112,  deepest hole -0.124,  1-sigma level  0.027
Q1    1   0.8230  0.5025  0.8005  11.00000  0.05    0.11
Q2    1   0.9403  0.5338  0.6856  11.00000  0.05    0.10
Q3    1   0.8033  0.4722  0.8277  11.00000  0.05    0.10
Q4    1   0.8043  0.4676  0.8097  11.00000  0.05    0.10
Q5    1   0.8793  0.6140  0.7211  11.00000  0.05    0.09
Q6    1   0.8750  0.6010  0.7250  11.00000  0.05    0.09
Q7    1   0.8360  0.5163  0.7947  11.00000  0.05    0.09
Q8    1   0.9980  0.4515  0.6528  11.00000  0.05    0.09
Q9    1   0.8558  0.4473  0.6834  11.00000  0.05    0.09
Q10   1   0.8628  0.6043  0.7178  11.00000  0.05    0.08

  REM The information below was added by Olex2.
  REM
  REM R1 = 0.0670 for 173 Fo > 4sig(Fo) and 0.2266 for all 2729 data
  REM n/a parameters refined using n/a restraints
  REM Highest difference peak 0.11, deepest hole -0.12
  REM Mean Shift 0, Max Shift 0.000.

  REM +++ Tabular Listing of Refinement Information +++
  REM R1_all = 0.2266
  REM R1_gt = 0.0670
  REM wR_ref = 0.2693
  REM GOOF = 0.940
  REM Shift_max = 0.000
  REM Shift_mean = 0
  REM Reflections_all = 2729
  REM Reflections_gt = 173
  REM Parameters = n/a
  REM Hole = -0.12
  REM Peak = 0.11
  REM Flack = 0.27(18)

  
;
_cod_data_source_file            c7cp00593h3.cif
_cod_data_source_block           CDMOF_a_0_49GPa
_cod_depositor_comments
'Adding full bibliography for 7227776--7227790.cif.'
_cod_original_cell_volume        30438(5)
_cod_database_code               7227780
#BEGIN Tags that were not found in dictionaries:
_shelx_shelxl_version_number     2014/7
_chemical_oxdiff_formula         'C48 H82 K2 O40'
_shelx_space_group_comment
;
The symmetry employed for this shelxl refinement is uniquely defined
by the following loop, which should always be used as a source of
symmetry information in preference to the above space-group names.
They are only intended as comments.
;
_reflns_odcompleteness_completeness 72.82
_reflns_odcompleteness_iscentric 1
_reflns_odcompleteness_theta     13.26
_olex2_refinement_description
;
1. Fixed Uiso
 At 1.2 times of:
  All C(H) groups, All C(H,H) groups
 At 1.5 times of:
  All O(H) groups
2. Restrained distances
 C6-O6
 1.45 with sigma of 0.005
 C2-O2
 1.45 with sigma of 0.005
 O14-C15
 2.4 with sigma of 0.02
 C16-C15
 1.5 with sigma of 0.005
 O4-C12
 2.2 with sigma of 0.02
 C12-C15
 3 with sigma of 0.02
 C11-O4
 1.45 with sigma of 0.005
 C12-C11
 1.5 with sigma of 0.005
 C6-C5
 1.5 with sigma of 0.005
 C2-C5
 3 with sigma of 0.02
 C5-O6
 2 with sigma of 0.02
 O4-C4
 1.45 with sigma of 0.02
 C4-C5
 1.5 with sigma of 0.02
 O14-C14
 1.5 with sigma of 0.01
 C15-C14
 1.5 with sigma of 0.005
 C14-C15
 1.5 with sigma of 0.005
 C11-C14
 3 with sigma of 0.02
 O14-C13
 2.4 with sigma of 0.02
 C12-C13
 1.5 with sigma of 0.005
 C14-C13
 1.5 with sigma of 0.005
 C12-O12
 1.45 with sigma of 0.005
 O13-C14
 2.5 with sigma of 0.02
 O13-C13
 1.45 with sigma of 0.02
 C13-O13
 1.45 with sigma of 0.02
 C2-C1
 1.5 with sigma of 0.005
 C5-C1
 2.3 with sigma of 0.005
 C15-K1
 3.5 with sigma of 0.02
 C16-O16
 1.45 with sigma of 0.005
 O16-K1
 3 with sigma of 0.02
 O5-C6
 2.5 with sigma of 0.02
 O15-C16
 2.2 with sigma of 0.02
 O15-C15
 1.45 with sigma of 0.005
 O15-C11
 1.45 with sigma of 0.005
 O5-C5
 1.45 with sigma of 0.005
 O15-C13
 3 with sigma of 0.02
 O5-C1
 1.45 with sigma of 0.02
 C2-C3
 1.5 with sigma of 0.005
 O2-C3
 2.2 with sigma of 0.02
 C4-C3
 1.45 with sigma of 0.02
 C2-O3
 2.3 with sigma of 0.02
 O3-C3
 1.45 with sigma of 0.005
 O14-C15
 2.5 with sigma of 0.04
 O4-C12
 2.5 with sigma of 0.04
 C15-C11
 2.4 with sigma of 0.02
 O6-C5
 2.7 with sigma of 0.04
 C11-C4
 2.5 with sigma of 0.04
 C12-C14
 2.4 with sigma of 0.02
 C13-O14
 2.5 with sigma of 0.04
 C13-C15
 2.4 with sigma of 0.02
 C11-C13
 2.4 with sigma of 0.02
 O12-C11
 2.5 with sigma of 0.04
 O12-C13
 2.5 with sigma of 0.04
 O13-C12
 2.5 with sigma of 0.04
 O13-C14
 2.5 with sigma of 0.04
 O2-C1
 2.5 with sigma of 0.04
 C1-O2
 2.5 with sigma of 0.04
 C1-C5
 2.5 with sigma of 0.02
 C1-C4
 3 with sigma of 0.04
 C15-O16
 2.5 with sigma of 0.04
 O16-C15
 2.5 with sigma of 0.04
 O15-C12
 2.4 with sigma of 0.02
 C2-O5
 2.5 with sigma of 0.04
 C14-O15
 2.4 with sigma of 0.02
 C5-C3
 2.5 with sigma of 0.02
 C3-C1
 2.5 with sigma of 0.04
 O3-C2
 2.5 with sigma of 0.04
 O3-C4
 2.5 with sigma of 0.04
3. Uiso/Uaniso restraints and constraints
: with sigma of 0.1 and sigma for terminal atoms of 0.2
4. Others
 Uiso(C1)=Uiso(C2)=Uiso(C3)=Uiso(C4)=Uiso(C5)=Uiso(C6)=Uiso(C11)=Uiso(C12)=
 Uiso(C13)=Uiso(C14)=Uiso(C15)=Uiso(C16)=FVAR(1)
 Uiso(O2)=Uiso(O3)=Uiso(O4)=Uiso(O5)=Uiso(O6)=Uiso(O12)=Uiso(O13)=Uiso(O14)=
 Uiso(O15)=Uiso(O16)=Uiso(OA)=FVAR(2)
5.a Ternary CH refined with riding coordinates:
 C1(H1), C2(H2A), C3(H3A), C4(H4), C5(H5), C11(H11), C12(H12A), C13(H13A),
 C14(H14), C15(H15)
5.b Secondary CH2 refined with riding coordinates:
 C6(H6A,H6B), C16(H16A,H16B)
5.c Tetrahedral OH refined with riding coordinates:
 O2(H2), O3(H3), O6(H6), O12(H12), O16(H16)
5.d Idealised tetrahedral OH refined as rotating group:
 O13(H13)
;
_shelx_fab_file
;
-8 -15 -9 -8.6704 4.2747
-8 -14 -12 -2.7331 -12.2477
-8 -14 -10 -53.8778 11.3136
-8 -13 -9 10.7645 -10.0834
-7 -17 -8 -39.1872 -8.4840
-7 -16 -11 5.1855 12.3753
-7 -15 -12 -0.8177 -18.9899
-7 -15 -10 9.4301 -2.7298
-7 -14 -13 -26.2943 -8.2819
-7 -14 -9 -14.4508 -22.8483
-7 -13 -10 -23.1711 8.5587
-7 -12 -11 -14.2515 -0.3775
-7 -12 -9 29.3363 8.4888
-6 -17 -9 -28.0063 13.7994
-6 -16 -8 -20.8355 -16.1313
-6 -15 -13 0.4700 -36.7905
-6 -15 -9 27.1620 -27.8062
-6 -15 -7 -24.5845 -26.1721
-6 -14 -10 -14.3992 -3.9176
-6 -14 -8 -50.2673 -33.7792
-6 -13 -11 5.6064 -21.2599
-6 -13 -9 -6.1631 -21.3202
-6 -13 -7 -22.4649 -8.0768
-6 -12 -10 -9.1199 14.2834
-5 -19 -6 -38.3732 -13.2527
-5 -18 -9 -21.9406 7.8277
-5 -18 -7 1.8652 2.4026
-5 -17 -10 1.0325 -1.4472
-5 -17 -6 11.6813 1.4720
-5 -16 -11 21.8079 -0.5827
-5 -16 -7 -7.4173 16.6156
-5 -15 -10 14.6495 2.2979
-5 -15 -8 30.8217 -14.7313
-5 -14 -11 -24.8609 -13.7852
-5 -14 -9 -26.4679 -5.5047
-5 -14 -7 -55.6984 -13.0828
-5 -13 -10 -1.5769 3.2458
-5 -13 -8 5.0170 -2.1583
-5 -12 -11 34.6041 31.0813
-5 -12 -9 -19.7193 5.2785
-5 -11 -6 -8.9329 -17.6607
-5 -10 -9 36.5102 21.9836
-5 -10 -7 -50.2719 13.0503
-5 -9 -8 1.0335 13.4992
-5 -9 -6 47.8111 -6.1399
-5 -8 -7 43.6987 -2.4408
-4 -19 -7 -6.4374 5.1474
-4 -19 -5 -16.0682 4.1685
-4 -18 -8 -3.5186 7.3694
-4 -17 -11 19.3257 2.8204
-4 -17 -7 -14.7726 7.8405
-4 -17 -5 -31.6732 -9.3712
-4 -16 -12 25.0347 24.3853
-4 -16 -10 25.9158 10.9049
-4 -16 -8 7.2743 54.6019
-4 -16 -6 41.9180 5.4672
-4 -15 -13 -16.1999 12.6422
-4 -15 -11 15.2513 -18.2825
-4 -15 -9 1.4097 -2.9568
-4 -15 -5 35.6675 0.6438
-4 -14 -10 -30.4299 16.6569
-4 -14 -8 -3.0839 15.7541
-4 -13 -11 -20.9879 -4.1793
-4 -13 -9 17.1351 -20.9499
-4 -12 -10 1.5433 9.2292
-4 -11 -5 8.7916 22.9009
-4 -10 -8 -36.9798 -9.7532
-4 -10 -6 -21.1565 -82.7638
-4 -9 -7 23.9951 -32.0511
-4 -9 -5 -57.0743 1.5951
-4 -8 -6 61.5573 -19.8361
-4 -7 -5 -84.0829 -7.9527
-3 -19 -6 9.4370 -12.9053
-3 -18 -9 -14.7667 30.4459
-3 -18 -5 23.4597 -7.6954
-3 -17 -8 -5.0035 -2.5909
-3 -17 -6 -14.9389 -25.3485
-3 -17 -4 1.3371 -5.7753
-3 -16 -9 -49.0048 50.1674
-3 -16 -7 -16.8588 -4.8729
-3 -16 -5 -1.0799 -4.4102
-3 -15 -14 -25.5760 28.9684
-3 -15 -10 -36.5344 1.9958
-3 -15 -8 -13.6842 8.9325
-3 -15 -6 41.0844 15.6276
-3 -15 -4 -0.9449 -24.6551
-3 -14 -13 -25.6460 -8.2540
-3 -14 -11 -50.1237 -8.1070
-3 -14 -9 -63.4884 7.9760
-3 -14 -7 -63.5740 19.3024
-3 -13 -12 -54.1657 11.1960
-3 -13 -10 -20.3614 5.5249
-3 -12 -11 -1.5240 23.4256
-3 -12 -7 -50.4841 -2.1289
-3 -12 -5 6.1859 10.3742
-3 -11 -6 -53.2372 26.4290
-3 -11 -4 30.0628 4.4925
-3 -10 -7 -61.8655 -12.6251
-3 -10 -5 -100.2891 70.2167
-3 -9 -8 20.6585 -7.7806
-3 -9 -6 -72.6881 -14.0120
-3 -9 -4 -49.8470 85.7136
-3 -8 -7 -22.3090 58.6974
-3 -8 -5 -64.3990 69.0985
-3 -7 -6 -50.4176 59.6948
-3 -6 -5 -76.1980 2.5075
-3 -5 -4 5.2344 27.0265
-2 -20 -4 10.3518 -7.9979
-2 -19 -7 9.1638 4.7664
-2 -19 -3 5.4893 1.4621
-2 -18 -10 -21.3590 -11.0155
-2 -18 -6 -1.5390 -7.3295
-2 -18 -4 15.9235 28.7659
-2 -17 -11 17.8370 -2.5238
-2 -17 -9 -14.5004 17.7677
-2 -17 -7 -12.4870 -24.8744
-2 -17 -5 -4.2649 35.2996
-2 -17 -3 1.3764 15.2058
-2 -16 -12 6.4122 2.2350
-2 -16 -10 21.1242 39.2738
-2 -16 -8 -1.5479 10.6290
-2 -16 -6 -53.5810 42.2076
-2 -16 -4 5.4890 13.6790
-2 -15 -13 0.8773 10.8781
-2 -15 -11 19.4155 -1.1259
-2 -15 -9 22.3662 0.2395
-2 -15 -7 -6.8208 7.7251
-2 -15 -5 -23.6651 38.8360
-2 -14 -12 -0.4925 1.3576
-2 -14 -10 10.6955 2.1361
-2 -14 -8 4.9981 59.9769
-2 -13 -11 44.4147 -17.0565
-2 -13 -9 19.5480 3.2932
-2 -13 -3 -78.5499 19.9352
-2 -12 -10 52.6248 15.9197
-2 -12 -4 -22.2807 -20.4805
-2 -11 -9 -47.7302 -10.9385
-2 -11 -7 -87.4624 -13.6333
-2 -11 -5 -54.2248 43.7210
-2 -11 -3 25.6865 -6.2135
-2 -10 -6 -23.8163 -30.5732
-2 -10 -4 33.7634 -12.0159
-2 -9 -7 -12.3580 -29.5426
-2 -9 -3 48.3171 1.0219
-2 -8 -6 -2.7272 -9.2257
-2 -8 -4 90.8437 88.6168
-2 -7 -5 28.0086 14.5571
-2 -7 -3 -21.5286 18.4062
-2 -6 -4 -13.4205 -16.7013
-2 -5 -3 121.7284 -52.9989
-1 -20 -5 13.5412 -6.2389
-1 -20 -3 -8.4496 -22.0523
-1 -19 -8 25.1803 -28.5682
-1 -19 -2 22.2230 -1.2356
-1 -18 -9 -6.9679 -6.8825
-1 -18 -7 2.2372 -24.4645
-1 -18 -5 15.6824 37.3035
-1 -18 -3 14.4775 10.2429
-1 -17 -8 -9.7710 -29.1280
-1 -17 -6 -16.8038 3.2308
-1 -17 -4 22.1528 57.6776
-1 -17 -2 25.1355 -3.1676
-1 -16 -13 25.7580 -7.6035
-1 -16 -9 -15.4649 -1.5871
-1 -16 -7 -50.3512 18.8650
-1 -16 -5 -4.7800 44.9931
-1 -16 -3 25.0988 5.7370
-1 -15 -14 -3.6736 6.1071
-1 -15 -12 -22.9921 -1.0352
-1 -15 -10 1.5626 -18.0839
-1 -15 -8 31.4354 3.8160
-1 -15 -6 -1.2074 50.4058
-1 -14 -13 9.1831 -23.6127
-1 -14 -11 19.7063 -31.4222
-1 -14 -9 -10.8731 11.1546
-1 -14 -3 65.6426 -36.1640
-1 -13 -12 -13.4591 -13.5248
-1 -13 -10 -3.0453 3.1669
-1 -13 -6 -27.6891 -29.9190
-1 -13 -2 -110.7671 -30.2928
-1 -12 -11 7.5987 -13.0899
-1 -12 -5 -11.5468 -44.6660
-1 -12 -3 29.0731 -46.6367
-1 -11 -6 -77.4102 -36.5331
-1 -11 -4 61.6021 -25.5543
-1 -11 -2 26.7036 -44.6332
-1 -10 -9 52.1586 -31.3364
-1 -10 -7 -24.5330 57.9318
-1 -10 -5 14.4620 7.2437
-1 -10 -3 49.9144 -30.9329
-1 -9 -8 -22.3037 -91.2338
-1 -9 -6 1.0138 75.2767
-1 -9 -4 125.3781 65.2347
-1 -9 -2 161.5483 -5.7352
-1 -8 -7 -8.6222 -48.7079
-1 -8 -5 -53.3538 141.9544
-1 -8 -3 -17.0603 56.5955
-1 -7 -6 24.7073 -25.8838
-1 -7 -4 -80.2392 109.2541
-1 -7 -2 19.3842 87.4321
-1 -6 -5 -126.3105 -41.2114
-1 -6 -3 -35.9836 54.8775
-1 -5 -4 -152.7859 18.2109
-1 -5 -2 -11.5776 28.9370
-1 -4 -3 35.2005 -8.6445
-1 -3 -2 -71.8361 16.1905
0 2 2 666.7504 -0.0000
0 3 1 -228.3092 0.0000
0 3 3 194.5220 -0.0000
0 4 0 140.6350 -0.0000
0 4 2 -83.7839 0.0000
0 4 4 1.3243 -0.0000
0 5 3 92.2935 -0.0000
0 6 0 -97.3882 0.0000
0 6 2 -46.5052 -0.0000
0 6 4 -126.2403 -0.0000
0 7 1 -39.6393 0.0000
0 7 3 -110.1291 0.0000
0 8 0 -154.5784 0.0000
0 8 2 -49.8423 -0.0000
0 9 1 51.8617 -0.0000
0 9 5 -33.2627 0.0000
0 10 8 44.3240 -0.0000
0 11 1 54.8360 -0.0000
0 11 3 34.1445 -0.0000
0 11 5 -42.5767 0.0000
0 11 9 -20.1357 0.0000
0 12 2 6.8848 -0.0000
0 12 6 9.1754 -0.0000
0 12 12 -2.5736 0.0000
0 13 1 6.0054 -0.0000
0 13 3 33.7236 -0.0000
0 13 9 -10.0877 0.0000
0 13 11 -12.5463 0.0000
0 14 8 35.9010 -0.0000
0 14 10 6.0537 -0.0000
0 14 12 -59.4996 0.0000
0 15 7 22.8906 0.0000
0 15 9 -5.0125 0.0000
0 15 11 14.7521 -0.0000
0 16 0 -30.8165 0.0000
0 16 2 -6.4926 -0.0000
0 16 4 -13.6707 0.0000
0 16 6 -17.8938 -0.0000
0 16 8 -31.4410 0.0000
0 16 10 -10.1907 0.0000
0 17 1 -39.0738 0.0000
0 17 3 0.8277 0.0000
0 17 5 21.4577 -0.0000
0 17 7 -27.9146 0.0000
0 17 9 4.5912 -0.0000
0 17 11 1.2618 -0.0000
0 18 2 10.2153 -0.0000
0 18 4 42.0421 0.0000
0 18 6 -30.6256 -0.0000
0 18 10 -2.8829 -0.0000
0 19 1 -18.3482 0.0000
0 19 3 -12.8826 0.0000
0 19 7 30.3391 -0.0000
0 20 0 -31.2404 0.0000
0 20 2 -20.2812 -0.0000
0 20 4 12.6994 -0.0000
1 3 2 -71.8361 -16.1905
1 4 1 20.8934 0.0000
1 4 3 35.2005 8.6445
1 5 2 -11.5776 -28.9370
1 5 4 -152.7859 -18.2109
1 6 1 214.4494 0.0000
1 6 3 -35.9836 -54.8775
1 6 5 -126.3105 41.2114
1 7 2 19.3842 -87.4321
1 7 4 -80.2392 -109.2541
1 7 6 24.7073 25.8838
1 8 1 122.4190 0.0000
1 8 3 -17.0603 -56.5955
1 8 5 -53.3538 -141.9544
1 8 7 -8.6222 48.7079
1 9 2 161.5483 5.7352
1 9 4 125.3781 -65.2347
1 9 6 1.0138 -75.2767
1 9 8 -22.3037 91.2338
1 10 3 49.9144 30.9329
1 10 5 14.4620 -7.2437
1 10 7 -24.5330 -57.9318
1 10 9 52.1586 31.3364
1 11 2 26.7036 44.6332
1 11 4 61.6021 25.5543
1 11 6 -77.4102 36.5331
1 12 3 29.0731 46.6367
1 12 5 -11.5468 44.6660
1 12 11 7.5987 13.0899
1 13 2 -110.7671 30.2928
1 13 6 -27.6891 29.9190
1 13 10 -3.0453 -3.1669
1 13 12 -13.4591 13.5248
1 14 3 65.6426 36.1640
1 14 9 -10.8731 -11.1546
1 14 11 19.7063 31.4222
1 14 13 9.1831 23.6127
1 15 6 -1.2074 -50.4058
1 15 8 31.4354 -3.8160
1 15 10 1.5626 18.0839
1 15 12 -22.9921 1.0352
1 15 14 -3.6736 -6.1071
1 16 1 -9.7799 0.0000
1 16 3 25.0988 -5.7370
1 16 5 -4.7800 -44.9931
1 16 7 -50.3512 -18.8650
1 16 9 -15.4649 1.5871
1 16 13 25.7580 7.6035
1 17 2 25.1355 3.1676
1 17 4 22.1528 -57.6776
1 17 6 -16.8038 -3.2308
1 17 8 -9.7710 29.1280
1 18 1 24.8497 -0.0000
1 18 3 14.4775 -10.2429
1 18 5 15.6824 -37.3035
1 18 7 2.2372 24.4645
1 18 9 -6.9679 6.8825
1 19 2 22.2230 1.2356
1 19 8 25.1803 28.5682
1 20 1 -1.8628 0.0000
1 20 3 -8.4496 22.0523
1 20 5 13.5412 6.2389
2 3 3 24.3888 0.0000
2 4 4 17.4406 0.0000
2 5 3 121.7284 52.9989
2 5 5 64.7168 -0.0000
2 6 4 -13.4205 16.7013
2 7 3 -21.5286 -18.4062
2 7 5 28.0086 -14.5571
2 8 2 61.9554 0.0000
2 8 4 90.8437 -88.6168
2 8 6 -2.7272 9.2257
2 8 8 11.7101 0.0000
2 9 3 48.3171 -1.0219
2 9 5 -38.5682 -87.2954
2 9 7 -12.3580 29.5426
2 10 4 33.7634 12.0159
2 10 6 -23.8163 30.5732
2 10 8 -39.8601 50.0311
2 10 10 -1.6612 -0.0000
2 11 3 25.6865 6.2135
2 11 5 -54.2248 -43.7210
2 11 7 -87.4624 13.6333
2 12 2 -64.6647 -0.0000
2 12 4 -22.2807 20.4805
2 12 10 52.6248 -15.9197
2 12 12 -18.6144 0.0000
2 13 3 -78.5499 -19.9352
2 13 9 19.5480 -3.2932
2 13 11 44.4147 17.0565
2 13 13 2.7595 0.0000
2 14 2 -31.0270 0.0000
2 14 8 4.9981 -59.9769
2 14 10 10.6955 -2.1361
2 14 12 -0.4925 -1.3576
2 15 5 -23.6651 -38.8360
2 15 7 -6.8208 -7.7251
2 15 9 22.3662 -0.2395
2 15 11 19.4155 1.1259
2 16 2 26.5665 -0.0000
2 16 4 5.4890 -13.6790
2 16 6 -53.5810 -42.2076
2 16 8 -1.5479 -10.6290
2 16 10 21.1242 -39.2738
2 16 12 6.4122 -2.2350
2 17 3 1.3764 -15.2058
2 17 5 -4.2649 -35.2996
2 17 7 -12.4870 24.8744
2 17 11 17.8370 2.5238
2 18 2 26.4167 -0.0000
2 18 4 15.9235 -28.7659
2 18 6 -1.5390 7.3295
2 18 10 -21.3590 11.0155
2 19 3 5.4893 -1.4621
2 19 7 9.1638 -4.7664
2 20 2 9.6894 0.0000
2 20 4 10.3518 7.9979
3 4 3 34.4783 0.0000
3 5 4 5.2344 -27.0265
3 6 3 14.8746 0.0000
3 6 5 -76.1980 -2.5075
3 7 6 -50.4176 -59.6948
3 8 3 -117.9423 0.0000
3 8 5 -64.3990 -69.0985
3 8 7 -22.3090 -58.6974
3 9 4 -49.8470 -85.7136
3 9 6 -72.6881 14.0120
3 9 8 20.6585 7.7806
3 10 3 -5.3627 -0.0000
3 10 5 -100.2891 -70.2167
3 10 7 -61.8655 12.6251
3 11 6 -53.2372 -26.4290
3 12 3 42.9722 0.0000
3 12 5 6.1859 -10.3742
3 12 7 -50.4841 2.1289
3 12 11 -1.5240 -23.4256
3 13 10 -20.3614 -5.5249
3 13 12 -54.1657 -11.1960
3 14 7 -63.5740 -19.3024
3 14 9 -63.4884 -7.9760
3 14 11 -50.1237 8.1070
3 14 13 -25.6460 8.2540
3 15 4 -0.9449 24.6551
3 15 6 41.0844 -15.6276
3 15 8 -13.6842 -8.9325
3 15 10 -36.5344 -1.9958
3 15 14 -25.5760 -28.9684
3 16 3 66.0732 0.0000
3 16 5 -1.0799 4.4102
3 16 7 -16.8588 4.8729
3 16 9 -49.0048 -50.1674
3 17 4 1.3371 5.7753
3 17 6 -14.9389 25.3485
3 17 8 -5.0035 2.5909
3 17 10 -13.2597 -9.8521
3 18 3 -15.6104 -0.0000
3 18 5 23.4597 7.6954
3 18 9 -14.7667 -30.4459
3 19 6 9.4370 12.9053
3 20 3 12.8549 -0.0000
4 5 5 -50.5602 0.0000
4 6 6 14.2765 -0.0000
4 7 5 -84.0829 7.9527
4 7 7 -57.1032 -0.0000
4 8 6 61.5573 19.8361
4 8 8 40.1570 -0.0000
4 9 7 23.9951 32.0511
4 9 9 63.6266 -0.0000
4 10 4 33.7537 -0.0000
4 10 6 -21.1565 82.7638
4 10 8 -36.9798 9.7532
4 11 5 8.7916 -22.9009
4 11 11 33.2671 0.0000
4 12 4 29.2892 0.0000
4 12 10 1.5433 -9.2292
4 12 12 -1.0619 -0.0000
4 13 9 17.1351 20.9499
4 13 11 -20.9879 4.1793
4 13 13 -13.4797 0.0000
4 14 6 0.0704 -49.8787
4 14 8 -3.0839 -15.7541
4 14 10 -30.4299 -16.6569
4 14 12 -42.6723 14.6778
4 14 14 2.4301 -0.0000
4 15 7 2.5699 -9.2361
4 15 9 1.4097 2.9568
4 15 11 15.2513 18.2825
4 15 13 -16.1999 -12.6422
4 16 4 -20.6903 0.0000
4 16 6 41.9180 -5.4672
4 16 8 7.2743 -54.6019
4 16 10 25.9158 -10.9049
4 16 12 25.0347 -24.3853
4 17 5 -31.6732 9.3712
4 17 7 -14.7726 -7.8405
4 17 11 19.3257 -2.8204
4 18 4 -11.2051 0.0000
4 18 8 -3.5186 -7.3694
4 19 5 -16.0682 -4.1685
4 19 7 -6.4374 -5.1474
4 20 4 6.2614 0.0000
5 8 7 43.6987 2.4408
5 9 6 47.8111 6.1399
5 10 7 -50.2719 -13.0503
5 10 9 36.5102 -21.9836
5 11 6 -8.9329 17.6607
5 12 9 -19.7193 -5.2785
5 12 11 34.6041 -31.0813
5 13 8 5.0170 2.1583
5 13 10 -1.5769 -3.2458
5 14 7 -55.6984 13.0828
5 14 11 -24.8609 13.7852
5 15 8 30.8217 14.7313
5 15 10 14.6495 -2.2979
5 16 5 75.6518 0.0000
5 16 7 -7.4173 -16.6156
5 16 9 17.3290 -18.1278
5 16 11 21.8079 0.5827
5 17 6 11.6813 -1.4720
5 17 10 1.0325 1.4472
5 18 5 -40.4248 -0.0000
5 18 9 -21.9406 -7.8277
5 19 6 -38.3732 13.2527
6 8 8 -51.5461 0.0000
6 9 7 3.5808 -9.8779
6 11 7 56.1036 -13.7171
6 11 11 -26.0266 -0.0000
6 12 10 -9.1199 -14.2834
6 12 12 30.1145 0.0000
6 13 7 -22.4649 8.0768
6 13 9 -6.1631 21.3202
6 13 13 -16.2180 0.0000
6 14 6 -21.2616 -0.0000
6 14 8 -50.2673 33.7792
6 14 10 -14.3992 3.9176
6 14 14 7.3773 0.0000
6 15 7 -24.5845 26.1721
6 15 9 27.1620 27.8062
6 15 13 0.4700 36.7905
6 16 6 20.0323 -0.0000
6 16 8 -20.8355 16.1313
6 17 9 -28.0063 -13.7994
6 18 8 0.1946 -4.3499
7 11 10 -8.0669 -8.2081
7 12 9 29.3363 -8.4888
7 13 12 -18.2047 43.7240
7 14 7 -85.9041 -0.0000
7 14 9 -14.4508 22.8483
7 14 11 -16.2038 6.1024
7 14 13 -26.2943 8.2819
7 15 8 -27.2639 30.0129
7 15 12 -0.8177 18.9899
7 16 7 -40.5633 0.0000
7 16 11 5.1855 -12.3753
7 17 8 -39.1872 8.4840
7 18 7 -33.8271 0.0000
8 12 8 19.1972 0.0000
8 13 11 -33.1497 11.6048
8 13 13 5.2459 0.0000
8 14 12 -2.7331 12.2477
8 15 11 14.2925 0.3407
8 16 10 -8.7317 -10.0271
;
_olex2_exptl_crystal_mounting_method 'Diamond-anvil cell'
_olex2_submission_original_sample_id CDMOF_alpha_5_049
_olex2_submission_special_instructions 'No special instructions were received'
_oxdiff_exptl_absorpt_empirical_details
;
Empirical correction (ABSPACK) includes:
- Absorption correction using spherical harmonics
- Frame scaling
;
_oxdiff_exptl_absorpt_empirical_full_max 1.829
_oxdiff_exptl_absorpt_empirical_full_min 0.599
#END Tags that were not found in dictionaries
loop_
_space_group_symop_id
_space_group_symop_operation_xyz
1 'x, y, z'
2 '-y, x, z'
3 '-x, -y, z'
4 'y, -x, z'
5 'x, -z, y'
6 'x, -y, -z'
7 'x, z, -y'
8 'z, y, -x'
9 '-x, y, -z'
10 '-z, y, x'
11 'z, x, y'
12 'y, z, x'
13 '-y, -z, x'
14 'z, -x, -y'
15 '-y, z, -x'
16 '-z, -x, y'
17 '-z, x, -y'
18 'y, -z, -x'
19 'y, x, -z'
20 '-y, -x, -z'
21 '-x, z, y'
22 '-x, -z, -y'
23 'z, -y, x'
24 '-z, -y, -x'
25 'x+1/2, y+1/2, z+1/2'
26 '-y+1/2, x+1/2, z+1/2'
27 '-x+1/2, -y+1/2, z+1/2'
28 'y+1/2, -x+1/2, z+1/2'
29 'x+1/2, -z+1/2, y+1/2'
30 'x+1/2, -y+1/2, -z+1/2'
31 'x+1/2, z+1/2, -y+1/2'
32 'z+1/2, y+1/2, -x+1/2'
33 '-x+1/2, y+1/2, -z+1/2'
34 '-z+1/2, y+1/2, x+1/2'
35 'z+1/2, x+1/2, y+1/2'
36 'y+1/2, z+1/2, x+1/2'
37 '-y+1/2, -z+1/2, x+1/2'
38 'z+1/2, -x+1/2, -y+1/2'
39 '-y+1/2, z+1/2, -x+1/2'
40 '-z+1/2, -x+1/2, y+1/2'
41 '-z+1/2, x+1/2, -y+1/2'
42 'y+1/2, -z+1/2, -x+1/2'
43 'y+1/2, x+1/2, -z+1/2'
44 '-y+1/2, -x+1/2, -z+1/2'
45 '-x+1/2, z+1/2, y+1/2'
46 '-x+1/2, -z+1/2, -y+1/2'
47 'z+1/2, -y+1/2, x+1/2'
48 '-z+1/2, -y+1/2, -x+1/2'
loop_
_atom_site_label
_atom_site_type_symbol
_atom_site_fract_x
_atom_site_fract_y
_atom_site_fract_z
_atom_site_U_iso_or_equiv
_atom_site_adp_type
_atom_site_occupancy
_atom_site_site_symmetry_order
_atom_site_calc_flag
_atom_site_refinement_flags_posn
_atom_site_refinement_flags_adp
_atom_site_refinement_flags_occupancy
C1 C 0.8573(12) 0.6910(10) 0.6434(16) 0.266(15) Uiso 1 1 d D . .
H1 H 0.8519 0.7219 0.6425 0.319 Uiso 1 1 calc R . .
C2 C 0.8980(12) 0.6823(11) 0.6675(11) 0.266(15) Uiso 1 1 d D . .
H2A H 0.8982 0.6954 0.6960 0.319 Uiso 1 1 calc R . .
C3 C 0.9017(13) 0.6343(11) 0.6691(17) 0.266(15) Uiso 1 1 d D . .
H3A H 0.9094 0.6286 0.6393 0.319 Uiso 1 1 calc R . .
C4 C 0.8651(15) 0.6039(12) 0.6740(16) 0.266(15) Uiso 1 1 d D . .
H4 H 0.8568 0.6092 0.7038 0.319 Uiso 1 1 calc R . .
C5 C 0.8260(11) 0.6240(11) 0.6494(15) 0.266(15) Uiso 1 1 d D . .
H5 H 0.8341 0.6222 0.6191 0.319 Uiso 1 1 calc R . .
C6 C 0.7862(13) 0.5973(13) 0.6527(14) 0.266(15) Uiso 1 1 d D . .
H6A H 0.7624 0.6088 0.6363 0.319 Uiso 1 1 calc R . .
H6B H 0.7909 0.5674 0.6456 0.319 Uiso 1 1 calc R . .
C11 C 0.8663(12) 0.5337(9) 0.7144(15) 0.266(15) Uiso 1 1 d D . .
H11 H 0.8694 0.5546 0.7377 0.319 Uiso 1 1 calc R . .
C12 C 0.9058(11) 0.5064(10) 0.7153(13) 0.266(15) Uiso 1 1 d D . .
H12A H 0.9097 0.4966 0.7449 0.319 Uiso 1 1 calc R . .
C13 C 0.8999(9) 0.4672(9) 0.6880(13) 0.266(15) Uiso 1 1 d D . .
H13A H 0.8912 0.4795 0.6605 0.319 Uiso 1 1 calc R . .
C14 C 0.8606(10) 0.4428(9) 0.7011(10) 0.266(15) Uiso 1 1 d D . .
H14 H 0.8635 0.4320 0.7304 0.319 Uiso 1 1 calc R . .
C15 C 0.8223(9) 0.4715(12) 0.6972(8) 0.266(15) Uiso 1 1 d D . .
H15 H 0.8251 0.4827 0.6680 0.319 Uiso 1 1 calc R . .
C16 C 0.7745(9) 0.4688(14) 0.7027(14) 0.266(15) Uiso 1 1 d D . .
H16A H 0.7637 0.4974 0.7079 0.319 Uiso 1 1 calc R . .
H16B H 0.7623 0.4590 0.6758 0.319 Uiso 1 1 calc R . .
K1 K 0.8023(5) 0.5000 0.8023(5) 0.221(11) Uiso 1 2 d DS TU P
O2 O 0.9364(11) 0.6918(15) 0.6432(17) 0.365(12) Uiso 1 1 d D . .
H2 H 0.9555 0.6752 0.6502 0.547 Uiso 1 1 calc R . .
O3 O 0.9421(12) 0.6244(15) 0.6897(16) 0.365(12) Uiso 1 1 d D . .
H3 H 0.9412 0.6000 0.6994 0.547 Uiso 1 1 calc R . .
O4 O 0.8724(15) 0.5572(13) 0.6749(13) 0.365(12) Uiso 1 1 d D . .
O5 O 0.8199(11) 0.6694(11) 0.6570(15) 0.365(12) Uiso 1 1 d D . .
O6 O 0.7821(15) 0.6048(15) 0.6983(14) 0.365(12) Uiso 1 1 d D . .
H6 H 0.7798 0.5818 0.7108 0.547 Uiso 1 1 calc R . .
O12 O 0.9438(12) 0.5306(12) 0.7037(14) 0.365(12) Uiso 1 1 d D . .
H12 H 0.9641 0.5143 0.7010 0.547 Uiso 1 1 calc R . .
O13 O 0.9375(12) 0.4432(15) 0.6766(15) 0.365(12) Uiso 1 1 d D . .
H13 H 0.9471 0.4313 0.6979 0.547 Uiso 1 1 calc GR . .
O14 O 0.8540(13) 0.4068(12) 0.6702(13) 0.365(12) Uiso 1 1 d D . .
O15 O 0.8274(11) 0.5098(11) 0.7231(12) 0.365(12) Uiso 1 1 d D . .
O16 O 0.7591(12) 0.4411(12) 0.7365(12) 0.365(12) Uiso 1 1 d D . .
H16 H 0.7590 0.4162 0.7281 0.547 Uiso 1 1 calc R . .
OA O 1.0000 0.5000 0.647(2) 0.365(12) Uiso 1 2 d S T P
loop_
_atom_type_symbol
_atom_type_description
_atom_type_scat_dispersion_real
_atom_type_scat_dispersion_imag
_atom_type_scat_source
C C 0.0030 0.0010 'International Tables Vol C Tables 4.2.6.8 and 6.1.1.4'
H H 0.0000 0.0000 'International Tables Vol C Tables 4.2.6.8 and 6.1.1.4'
K K 0.2030 0.2500 'International Tables Vol C Tables 4.2.6.8 and 6.1.1.4'
O O 0.0110 0.0060 'International Tables Vol C Tables 4.2.6.8 and 6.1.1.4'
loop_
_geom_angle_atom_site_label_1
_geom_angle_atom_site_label_2
_geom_angle_atom_site_label_3
_geom_angle
_geom_angle_site_symmetry_1
_geom_angle_site_symmetry_3
C2 C1 H1 109.7 . .
C2 C1 O14 116(3) . 7_556
O5 C1 H1 109.7 . .
O5 C1 C2 118(3) . .
O5 C1 O14 93(3) . 7_556
O14 C1 H1 109.7 7_556 .
C1 C2 H2A 112.6 . .
C1 C2 C3 105.3(17) . .
C1 C2 K1 156.7(17) . 42_566
C3 C2 H2A 112.6 . .
C3 C2 K1 93.4(14) . 42_566
K1 C2 H2A 71.3 42_566 .
O2 C2 C1 114(3) . .
O2 C2 H2A 112.6 . .
O2 C2 C3 99.1(16) . .
O2 C2 K1 48(2) . 42_566
C2 C3 H3A 99.7 . .
C4 C3 C2 125(3) . .
C4 C3 H3A 99.7 . .
O3 C3 C2 107.2(16) . .
O3 C3 H3A 99.7 . .
O3 C3 C4 119(3) . .
C3 C4 H4 101.0 . .
C3 C4 C5 106.9(19) . .
C5 C4 H4 101.0 . .
O4 C4 C3 121(4) . .
O4 C4 H4 101.0 . .
O4 C4 C5 122(3) . .
C4 C5 H5 104.3 . .
C6 C5 C4 113(3) . .
C6 C5 H5 104.3 . .
O5 C5 C4 114(3) . .
O5 C5 H5 104.3 . .
O5 C5 C6 115.1(19) . .
C5 C6 H6A 113.1 . .
C5 C6 H6B 113.1 . .
H6A C6 H6B 110.5 . .
O6 C6 C5 92.8(14) . .
O6 C6 H6A 113.1 . .
O6 C6 H6B 113.1 . .
C12 C11 H11 106.5 . .
O4 C11 H11 106.5 . .
O4 C11 C12 101.2(14) . .
O4 C11 O15 122(4) . .
O15 C11 H11 106.5 . .
O15 C11 C12 113.1(14) . .
C11 C12 H12A 107.2 . .
C11 C12 C13 110.6(14) . .
C13 C12 H12A 107.2 . .
O12 C12 C11 112(2) . .
O12 C12 H12A 107.2 . .
O12 C12 C13 113(3) . .
C12 C13 H13A 102.3 . .
C14 C13 C12 111.2(14) . .
C14 C13 H13A 102.3 . .
O13 C13 C12 118(3) . .
O13 C13 H13A 102.3 . .
O13 C13 C14 118(2) . .
C13 C14 H14 110.8 . .
C13 C14 C15 109.1(14) . .
C15 C14 H14 110.8 . .
O14 C14 C13 108.7(16) . .
O14 C14 H14 110.8 . .
O14 C14 C15 106.6(16) . .
C14 C15 H15 102.4 . .
C14 C15 C16 138(3) . .
C14 C15 K1 102.7(16) . .
C16 C15 H15 102.4 . .
C16 C15 K1 74.2(18) . .
K1 C15 H15 143.9 . .
O15 C15 C14 111.0(14) . .
O15 C15 H15 102.4 . .
O15 C15 C16 95.3(15) . .
O15 C15 K1 43.9(16) . .
C15 C16 H16A 108.1 . .
C15 C16 H16B 108.1 . .
C15 C16 K1 80.4(17) . .
H16A C16 H16B 107.3 . .
K1 C16 H16A 70.6 . .
K1 C16 H16B 171.3 . .
O16 C16 C15 117(3) . .
O16 C16 H16A 108.1 . .
O16 C16 H16B 108.1 . .
O16 C16 K1 65.5(19) . .
C2 K1 C2 145.1(14) 44_666 41_646
C2 K1 C16 86.0(9) 41_646 .
C2 K1 C16 124.8(10) 41_646 23_565
C2 K1 C16 86.0(9) 44_666 23_565
C2 K1 C16 124.8(10) 44_666 .
C16 K1 C16 67.0(11) . 23_565
O2 K1 C2 24.3(7) 44_666 44_666
O2 K1 C2 127.3(15) 41_646 44_666
O2 K1 C2 24.3(7) 41_646 41_646
O2 K1 C2 127.3(15) 44_666 41_646
O2 K1 C16 146.7(14) 41_646 23_565
O2 K1 C16 90.7(13) 41_646 .
O2 K1 C16 146.7(14) 44_666 .
O2 K1 C16 90.7(13) 44_666 23_565
O2 K1 O2 119(2) 44_666 41_646
O2 K1 O3 54.7(12) 41_646 41_646
O2 K1 O3 87.4(14) 44_666 41_646
O2 K1 O3 87.4(14) 41_646 44_666
O2 K1 O3 54.7(12) 44_666 44_666
O2 K1 O16 83.1(14) 41_646 .
O2 K1 O16 156.8(15) 44_666 .
O2 K1 O16 83.1(14) 44_666 23_565
O2 K1 O16 156.8(15) 41_646 23_565
O3 K1 C2 43.8(6) 44_666 44_666
O3 K1 C2 110.8(10) 44_666 41_646
O3 K1 C2 43.8(6) 41_646 41_646
O3 K1 C2 110.8(10) 41_646 44_666
O3 K1 C16 124.3(10) 41_646 .
O3 K1 C16 124.3(10) 44_666 23_565
O3 K1 C16 117.2(12) 41_646 23_565
O3 K1 C16 117.2(12) 44_666 .
O3 K1 O3 104(2) 44_666 41_646
O3 K1 O16 101.0(11) 44_666 23_565
O3 K1 O16 140.4(12) 41_646 23_565
O3 K1 O16 140.4(12) 44_666 .
O3 K1 O16 101.0(11) 41_646 .
O15 K1 C2 99.4(9) . 41_646
O15 K1 C2 99.4(9) 23_565 44_666
O15 K1 C2 96.4(10) . 44_666
O15 K1 C2 96.4(10) 23_565 41_646
O15 K1 C16 40.3(7) 23_565 23_565
O15 K1 C16 89.9(14) . 23_565
O15 K1 C16 40.3(7) . .
O15 K1 C16 90.0(14) 23_565 .
O15 K1 O2 87.8(12) . 41_646
O15 K1 O2 87.8(12) 23_565 44_666
O15 K1 O2 120.3(13) . 44_666
O15 K1 O2 120.3(13) 23_565 41_646
O15 K1 O3 76.9(12) 23_565 41_646
O15 K1 O3 141.9(10) 23_565 44_666
O15 K1 O3 141.9(10) . 41_646
O15 K1 O3 76.9(12) . 44_666
O15 K1 O15 126(2) . 23_565
O15 K1 O16 73.4(13) 23_565 .
O15 K1 O16 64.4(9) 23_565 23_565
O15 K1 O16 64.4(9) . .
O15 K1 O16 73.4(13) . 23_565
O16 K1 C2 69.6(11) . 41_646
O16 K1 C2 145.0(12) . 44_666
O16 K1 C2 145.0(12) 23_565 41_646
O16 K1 C2 69.6(11) 23_565 44_666
O16 K1 C16 25.4(4) . .
O16 K1 C16 66.1(11) 23_565 .
O16 K1 C16 66.1(11) . 23_565
O16 K1 C16 25.4(4) 23_565 23_565
O16 K1 O16 76.7(18) . 23_565
C2 O2 K1 108(3) . 42_566
C2 O2 H2 109.5 . .
K1 O2 H2 47.1 42_566 .
C3 O3 K1 114.1(19) . 42_566
C3 O3 H3 109.5 . .
K1 O3 H3 135.7 42_566 .
C11 O4 C4 120(3) . .
C1 O5 C5 107.9(15) . .
C6 O6 H6 109.5 . .
C12 O12 H12 109.5 . .
C13 O13 H13 109.5 . .
C14 O14 C1 116(3) . 5_565
C11 O15 C15 114.3(16) . .
C11 O15 K1 119(2) . .
C15 O15 K1 113(2) . .
C16 O16 K1 89(2) . .
C16 O16 H16 109.5 . .
K1 O16 H16 141.5 . .
loop_
_geom_bond_atom_site_label_1
_geom_bond_atom_site_label_2
_geom_bond_distance
_geom_bond_site_symmetry_2
C1 H1 0.9800 .
C1 C2 1.501(7) .
C1 O5 1.41(2) .
C1 O14 1.70(5) 7_556
C2 H2A 0.9800 .
C2 C3 1.502(7) .
C2 K1 3.36(4) 42_566
C2 O2 1.450(7) .
C3 H3A 0.9800 .
C3 C4 1.49(2) .
C3 O3 1.449(7) .
C4 H4 0.9800 .
C4 C5 1.57(2) .
C4 O4 1.47(2) .
C5 H5 0.9800 .
C5 C6 1.500(7) .
C5 O5 1.451(7) .
C6 H6A 0.9700 .
C6 H6B 0.9700 .
C6 O6 1.450(7) .
C11 H11 0.9800 .
C11 C12 1.501(7) .
C11 O4 1.449(7) .
C11 O15 1.451(7) .
C12 H12A 0.9800 .
C12 C13 1.502(7) .
C12 O12 1.451(7) .
C13 H13A 0.9800 .
C13 C14 1.499(7) .
C13 O13 1.440(18) .
C14 H14 0.9800 .
C14 C15 1.501(5) .
C14 O14 1.496(13) .
C15 H15 0.9800 .
C15 C16 1.502(7) .
C15 K1 3.46(2) .
C15 O15 1.452(7) .
C16 H16A 0.9700 .
C16 H16B 0.9700 .
C16 K1 3.37(5) .
C16 O16 1.448(7) .
K1 C2 3.36(4) 41_646
K1 C2 3.36(4) 44_666
K1 C16 3.37(5) 23_565
K1 O2 2.62(5) 44_666
K1 O2 2.62(5) 41_646
K1 O3 2.93(5) 44_666
K1 O3 2.93(5) 41_646
K1 O15 2.61(4) 23_565
K1 O15 2.61(4) .
K1 O16 3.07(2) .
K1 O16 3.07(2) 23_565
O2 K1 2.62(5) 42_566
O2 H2 0.8200 .
O3 K1 2.93(5) 42_566
O3 H3 0.8200 .
O6 H6 0.8200 .
O12 H12 0.8200 .
O13 H13 0.8200 .
O14 C1 1.70(5) 5_565
O16 H16 0.8200 .
loop_
_geom_torsion_atom_site_label_1
_geom_torsion_atom_site_label_2
_geom_torsion_atom_site_label_3
_geom_torsion_atom_site_label_4
_geom_torsion
_geom_torsion_site_symmetry_1
_geom_torsion_site_symmetry_4
C1 C2 C3 C4 -36(6) . .
C1 C2 C3 O3 176(5) . .
C1 C2 O2 K1 162(2) . 42_566
C2 C1 O5 C5 -65(5) . .
C2 C3 C4 C5 35(7) . .
C2 C3 C4 O4 179(4) . .
C2 C3 O3 K1 -13(5) . 42_566
C3 C2 O2 K1 -86(2) . 42_566
C3 C4 C5 C6 -178(4) . .
C3 C4 C5 O5 -44(6) . .
C3 C4 O4 C11 110(6) . .
C4 C3 O3 K1 -163(4) . 42_566
C4 C5 C6 O6 67(4) . .
C4 C5 O5 C1 60(5) . .
C5 C4 O4 C11 -110(4) . .
C6 C5 O5 C1 -167(3) . .
C11 C12 C13 C14 -55(3) . .
C11 C12 C13 O13 165(4) . .
C12 C11 O4 C4 -134(4) . .
C12 C11 O15 C15 -51(4) . .
C12 C11 O15 K1 88(3) . .
C12 C13 C14 C15 59(3) . .
C12 C13 C14 O14 174(3) . .
C13 C14 C15 C16 177(3) . .
C13 C14 C15 K1 -102.7(19) . .
C13 C14 C15 O15 -57(3) . .
C13 C14 O14 C1 117(3) . 5_565
C14 C15 C16 K1 92(3) . .
C14 C15 C16 O16 35(5) . .
C14 C15 O15 C11 55(4) . .
C14 C15 O15 K1 -87(2) . .
C15 C14 O14 C1 -126(3) . 5_565
C15 C16 O16 K1 64(3) . .
C16 C15 O15 C11 -158(3) . .
C16 C15 O15 K1 61(3) . .
K1 C2 C3 C4 158(5) 42_566 .
K1 C2 C3 O3 11(4) 42_566 .
K1 C15 C16 O16 -56(3) . .
K1 C15 O15 C11 141(4) . .
O2 C2 C3 C4 -154(5) . .
O2 C2 C3 O3 59(5) . .
O3 C3 C4 C5 178(5) . .
O3 C3 C4 O4 -37(8) . .
O4 C4 C5 C6 37(6) . .
O4 C4 C5 O5 171(4) . .
O4 C11 C12 C13 -82(4) . .
O4 C11 C12 O12 44(4) . .
O4 C11 O15 C15 70(4) . .
O4 C11 O15 K1 -151(3) . .
O5 C1 C2 C3 50(4) . .
O5 C1 C2 K1 -167(4) . 42_566
O5 C1 C2 O2 158(3) . .
O5 C5 C6 O6 -67(5) . .
O12 C12 C13 C14 180(3) . .
O12 C12 C13 O13 39(5) . .
O13 C13 C14 C15 -161(4) . .
O13 C13 C14 O14 -45(4) . .
O14 C1 C2 C3 -58(3) 7_556 .
O14 C1 C2 K1 84(6) 7_556 42_566
O14 C1 C2 O2 50(3) 7_556 .
O14 C1 O5 C5 56(4) 7_556 .
O14 C14 C15 C16 60(4) . .
O14 C14 C15 K1 140(2) . .
O14 C14 C15 O15 -175(3) . .
O15 C11 C12 C13 50(3) . .
O15 C11 C12 O12 176(4) . .
O15 C11 O4 C4 99(5) . .
O15 C15 C16 K1 -39(2) . .
O15 C15 C16 O16 -95(3) . .
loop_
_refln_index_h
_refln_index_k
_refln_index_l
_refln_F_squared_meas
_refln_F_squared_sigma
_refln_scale_group_code
2 0 2 12953.3 496.666 2
0 -1 -3 3169.09 143.601 8
-1 0 -3 2392.77 137.459 8
1 0 -3 2386.42 132.717 8
-3 1 0 2956.32 133.368 7
-3 0 1 3076.15 120.681 6
3 1 0 2508.52 158.114 4
-3 -1 0 3045.17 129.39 7
0 -1 -3 3089.97 126.485 2
3 0 1 3025.39 158.996 4
3 -1 0 2860.62 122.767 1
-1 0 -3 2732.1 119.009 5
3 0 1 3070.65 130.146 7
0 1 -3 2522.35 138.105 8
-3 0 1 2941.58 131.018 7
0 1 -3 3093.06 118.115 5
1 0 -3 3334.35 117.076 5
-2 -1 -3 260.128 107.999 8
3 1 2 182.012 72.5179 2
2 1 -3 92.1545 83.5533 8
-2 1 3 152.775 47.6296 1
-3 1 -2 154.384 45.8352 6
-1 2 -3 106.96 99.455 8
-3 -1 2 123.854 70.9073 7
-1 2 -3 167.462 48.275 5
-2 -1 -3 255.193 52.4368 5
-2 1 3 176.951 69.627 7
3 -2 1 157.127 58.559 1
3 -1 -2 180.815 56.2122 1
-3 1 -2 97.723 73.024 7
-3 1 -2 138.047 39.3153 5
2 1 -3 215.413 102.011 3
2 -1 3 131.522 123.247 3
-3 2 1 132.349 87.921 7
-3 1 -2 173.251 87.9397 8
-3 -1 2 162.343 53.8347 6
2 1 -3 92.6919 43.6919 6
-2 1 3 165.679 47.9333 6
-3 2 -1 124.502 82.6126 7
3 -1 2 187.231 69.9668 7
-3 -1 -2 107.84 61.5455 7
3 -1 2 5.27092 112.677 3
-2 -1 3 53.9509 104.999 4
2 1 3 47.3848 74.717 2
-2 1 -3 182.702 46.3447 5
3 -1 2 185.176 54.9441 1
-2 -1 3 112.34 37.9444 5
-3 1 2 142.655 81.9678 7
1 -2 3 130.191 122.88 3
-3 1 2 92.6351 54.6842 6
-3 -1 -2 196.364 101.917 8
2 -1 -3 78.7691 47.9631 6
3 -2 -1 145.384 59.5616 1
3 -1 2 64.0505 84.7581 8
-2 1 -3 181.021 95.4401 8
2 -1 -3 204.411 47.1318 1
-2 -1 3 159.687 59.1643 7
3 1 -2 208.464 121.075 4
-3 0 -3 7415.04 279.489 7
3 0 3 6444.74 274.083 6
-3 0 -3 6974.06 273.527 6
-3 0 -3 7251.31 301.699 4
-3 0 3 7632.62 284.349 7
-3 0 3 7176.27 276.587 6
-3 0 -3 6586.05 298.926 8
3 0 3 7171.67 284.135 2
-3 0 -3 6891.68 275.514 5
3 0 3 6578.24 279.879 7
3 0 3 6798.55 301.988 4
3 -2 -3 24285 921.559 1
-3 2 -3 25146.4 931.308 8
-3 2 -3 22472.5 923.728 7
-3 2 -3 25280.9 919.93 5
3 -2 3 23942.5 919.754 1
3 -2 3 23084.1 938.556 3
0 0 4 19820.3 751.411 3
0 0 -4 18732.9 733.994 5
-4 0 0 19692.6 740.963 7
0 0 -4 19683.6 742.977 8
-4 0 0 19110.3 735.474 6
1 1 4 471.323 84.94 2
1 -1 4 504.277 150.225 3
1 1 -4 455.318 106.566 8
-4 -1 -1 515.257 69.4957 6
-1 -1 -4 492.891 131.892 8
-1 -1 -4 561.221 65.5894 5
4 1 -1 659.915 160.63 4
-4 -1 -1 424.442 91.1551 7
-4 1 -1 454.282 85.7879 8
4 -1 1 488.489 85.2865 8
1 -1 -4 574.439 63.419 5
-4 1 -1 513.758 114.708 3
-1 1 -4 478.454 114.261 8
-4 -1 1 476.526 71.6571 6
-1 1 4 453.999 76.1858 2
-4 -1 1 494.241 94.1629 7
-4 1 -1 524.532 45.2996 5
-4 1 -1 659.58 67.0398 6
-4 1 1 579.527 98.9279 7
-4 1 1 500.504 71.0358 6
-1 -1 4 634.907 134.528 3
1 -1 -4 423.285 115.858 8
4 1 1 498.404 154.233 4
4 -1 1 444.638 49.1359 5
1 1 -4 559.245 59.0723 5
4 -1 1 432.295 113.355 3
-4 1 -1 596.732 95.776 7
0 2 -4 1086.23 135.741 8
-4 2 0 1338.4 123.816 7
4 0 2 1164.7 96.0445 2
-2 0 4 1168.78 139.547 4
-2 0 4 1109.95 70.3551 6
-4 2 0 1187.62 86.4113 6
2 0 -4 1284.06 72.6065 6
0 2 -4 1252.45 78.2484 5
-2 0 4 1366.49 88.3543 7
4 -2 0 1089.12 93.4091 1
-2 0 -4 1214.69 81.7153 5
-2 0 4 1314.13 104.92 8
2 0 -4 1386.38 89.3211 7
-4 0 -2 1179.06 71.7277 5
-4 0 -2 991.248 125.691 8
-4 0 2 1189.51 114.462 7
-2 0 -4 1159.49 128.661 8
-4 0 2 1350.43 87.4643 6
-4 0 -2 1215.27 79.1434 6
-4 0 -2 1347.49 105.976 7
2 0 -4 1086.84 112.137 8
2 0 -4 1078.97 70.1862 5
4 0 -2 1376.97 182.447 4
2 0 -4 1312.16 137.271 4
-2 0 4 1079.57 139.404 3
-2 2 -4 2269.31 111.957 5
-4 2 2 2005.01 117.24 6
4 -2 2 1831.65 176.192 3
-4 2 -2 2183.47 104.23 5
4 -2 2 2460.7 124.053 1
2 2 4 2083.89 147.079 2
-2 -2 -4 2047.33 178.857 8
-2 2 -4 2059.84 167.138 8
-4 2 -2 2208.68 150.151 7
2 -2 4 2309.04 198.51 3
-4 2 -2 2328.47 148.887 8
-4 2 2 2162.15 148.396 7
-4 2 -2 2355.67 116.134 6
3 1 -4 -90.2556 163.396 4
3 1 -4 36.9474 111.276 8
4 1 3 83.6848 157.45 4
-4 1 -3 141.288 64.7659 5
4 1 3 -36.5808 106.924 2
3 -1 4 67.1811 182.968 3
-3 -1 -4 36.8255 75.1167 5
-4 1 -3 227.221 130.106 8
-4 -1 3 -30.9391 111.17 7
-4 1 -3 13.3711 68.2595 6
-3 1 4 -64.9795 104.003 7
-4 3 1 -86.858 128.955 7
-3 1 4 -46.7188 68.5246 2
-3 1 4 149.5 93.1912 8
-4 1 -3 100.526 101.558 7
3 -1 4 82.5279 61.7801 1
-3 -1 -4 -125.973 158.509 8
-3 1 4 -47.6154 72.2131 6
-3 1 4 142.502 53.9024 5
4 -3 1 35.158 86.9159 1
-4 -1 3 24.2104 78.632 6
3 -1 -4 40.1396 52.6576 5
3 -1 -4 35.7099 113.579 8
-4 -1 -3 28.0286 69.4945 6
3 -1 -4 77.8298 73.169 1
-4 3 -1 91.4942 122.52 7
-3 1 -4 -22.3819 67.5025 5
-4 -1 -3 50.8447 149.079 8
4 -1 3 20.1096 173.158 3
-3 1 -4 231.262 145.043 8
-4 -1 -3 22.4414 73.2137 5
-4 1 3 110.06 115.645 7
-3 -1 4 -30.789 96.924 7
-4 -1 -3 -8.06858 97.1781 7
3 1 4 -34.7607 106.423 2
4 -3 -1 128.966 87.7111 1
-3 -1 4 20.6367 68.1719 6
-3 1 -4 84.9991 56.7011 6
-4 1 3 -31.9267 79.0795 6
4 1 -3 104.349 185.161 4
4 -3 -3 40753.2 1553.71 1
4 -3 3 39924.7 1569.94 3
-3 3 -4 40494.2 1551.38 5
3 -3 4 40444.5 1572.91 3
-4 3 -3 39707 1562.34 8
-4 3 3 43574.4 1563.03 7
-3 3 -4 41557.2 1566.4 8
-4 3 -3 40486.7 1550.01 5
-4 0 4 39399.6 1466.93 7
4 0 4 38777.2 1477.57 4
-4 0 4 39169.5 1462.02 8
-4 0 -4 37643.2 1464.21 7
4 0 4 37367.2 1467.69 2
4 0 -4 37788.2 1456.45 5
-4 0 4 39508.3 1465.5 3
4 0 -4 42328.7 1486.94 4
-4 0 -4 35890.5 1476.02 8
-4 0 4 39118 1462.26 6
-4 2 -4 7254.15 326.55 7
-4 2 4 8381.37 338.711 7
4 -2 4 8266.37 311.164 1
-4 2 -4 7479.41 307.316 5
-4 2 4 7718.92 320.482 8
-4 2 -4 7134.82 344.262 8
4 -2 4 7556.54 374.664 3
-4 2 -4 7156.41 306.125 6
-4 2 4 7964.6 313.404 6
4 -2 -4 7867.37 315.87 1
5 0 1 -52.9843 80.5797 2
-5 0 -1 -47.7273 113.008 7
-1 0 -5 39.0652 74.7854 5
0 -1 -5 47.0897 71.9925 5
-5 1 0 140.391 87.6027 6
0 1 -5 -40.1801 144.872 8
5 0 1 136.554 112.761 8
-5 0 -1 -14.3912 52.7306 5
-5 0 -1 39.5329 79.8231 6
5 -1 0 -203.296 216.235 4
-5 -1 0 -12.933 82.7571 6
-5 -1 0 32.405 121.04 7
0 1 -5 15.1579 70.8417 5
-5 1 0 107.991 122.215 7
0 1 5 202.455 100.618 2
0 -1 -5 11.0229 153.245 8
0 -1 5 -266.666 183.544 3
-1 0 -5 73.3303 138.289 8
1 0 -5 74.9244 68.3388 5
5 1 0 118.981 203.521 4
-5 0 1 25.7151 79.8893 6
-5 0 -1 80.0919 70.0551 2
-5 0 1 -22.2789 116.149 7
1 0 -5 -117.469 135.898 8
-5 0 -1 107.794 114.503 8
-1 -2 5 2164.22 204.355 3
-5 1 -2 1919.55 117.725 6
-2 1 5 1969.05 126.325 7
2 -1 5 2197.65 229.152 3
-5 2 1 1831.8 122.92 6
-2 1 5 2050.1 99.6942 6
-5 1 -2 1511.92 147.327 7
5 -2 1 1624.11 138.676 8
5 1 2 1823.56 218.138 4
1 -2 -5 2067.69 180.216 8
-5 2 1 2179.36 167.094 7
2 1 -5 1658.83 101.693 5
-1 2 -5 1614.96 178.934 8
-2 -1 -5 2031.76 119.184 5
5 -1 -2 2184.91 250.558 4
-2 -1 -5 2167.06 202.739 8
5 -2 1 2061.87 166.808 3
-5 -1 2 2114.06 120.887 6
-2 1 5 1888.89 121.975 2
-5 -1 2 1732.65 149.736 7
-1 2 -5 1850.6 110.428 5
-5 1 -2 1816.51 148.155 8
2 -1 -5 1880.81 119.809 7
-5 -1 -2 1777.93 119.002 6
5 -2 -1 2109.8 127.801 1
5 -1 2 2362.33 235.358 4
-5 2 -1 1790.51 133.769 8
-2 -1 5 2005.21 191.326 3
1 2 -5 1770.08 175.668 8
2 -1 -5 1804.12 103.675 5
1 2 -5 1832.19 107.424 5
-2 1 -5 2009.73 185.58 8
-5 1 2 2169.18 124.363 6
-2 1 -5 1805.17 112.004 5
-1 -2 -5 1781.94 189.451 8
-5 1 2 1904.42 157.788 7
2 -1 -5 1737.95 100.322 1
-5 2 -1 1798.99 92.5884 5
1 -2 5 1733.87 217.767 3
-5 2 -1 2190.09 161.632 7
2 -1 -5 1693.51 165.281 8
5 -2 -3 608.761 114.691 1
-5 3 2 548.43 108.52 6
3 -2 5 401.621 240.63 3
-3 2 5 514.211 107.936 2
-5 2 -3 616.301 81.1804 5
-3 2 5 518.878 126.463 7
-2 3 -5 506.344 96.0267 5
5 -3 2 456.802 114.296 1
-5 2 -3 608.017 154.937 7
-5 2 -3 595 165.779 8
-3 2 5 565.433 93.3047 6
3 0 -5 11916.2 425.452 8
-5 3 0 10514.6 438.503 7
-3 0 -5 9835 441.555 8
-5 0 -3 9673.77 410.162 6
3 0 5 9636.02 403.178 6
-5 0 3 10862.8 426.784 7
-3 0 5 10408.5 415.548 7
-3 0 5 11455.9 439.241 3
-3 0 -5 10723.9 430.311 4
3 0 5 10872.3 408.151 7
-3 0 5 10615.2 407.615 6
-5 3 0 10544 415.726 6
3 0 -5 10628.9 405.312 5
-5 0 3 10317.2 413.124 6
-3 0 -5 10057.1 412.079 5
5 -3 0 9385.61 419.748 1
5 0 3 11299.7 469.124 4
3 0 5 10937.3 428.7 4
5 0 -3 12574.7 482.283 4
-5 0 -3 11218.8 442.619 8
-5 3 -2 585.869 167.234 7
-5 3 -2 585.179 156.256 8
3 -2 -5 585.276 94.8023 1
2 -3 5 590.804 232.203 3
-3 2 -5 519.652 89.9747 5
5 -2 3 570.096 209.853 3
3 -2 -5 777.652 157.272 8
-5 2 3 556.882 110.078 6
-3 2 -5 360.845 72.927 1
-5 3 -2 569.64 100.062 6
3 -2 -5 718.964 85.9841 5
5 -2 3 741.171 111.08 1
-4 3 5 1752.77 183.251 7
-4 3 5 1811.57 139.635 6
-5 3 -4 1771.43 124.323 5
-5 3 -4 1959.11 133.622 6
-5 -1 4 10959.2 427.646 6
-5 1 -4 9901.36 453.198 8
-4 -1 -5 9611.18 426.588 7
4 -1 5 11341.9 418.713 1
5 1 4 9672.36 474.965 4
-4 -1 -5 11010.8 425.93 5
4 -1 5 10235.7 462.103 4
-5 -1 4 11022.9 438 7
5 1 4 10587.4 440.062 2
-4 1 -5 10409.9 444.008 7
-4 1 -5 11245 432.174 6
-5 1 4 12156.1 460.364 7
-5 -1 -4 10458.4 449.998 7
-4 1 -5 10866.1 437.796 5
-5 -1 -4 11542.7 440.202 5
-4 -1 5 11575.9 440.127 6
-5 -1 -4 10819.6 485.976 8
5 -1 4 10172.2 498.532 3
4 -1 -5 10290.1 451.003 8
-4 -1 5 10794.8 449.761 7
-5 1 4 11716.3 443.955 6
-5 -1 -4 10389.1 437.362 6
5 -1 4 10709 499.252 4
4 -1 -5 11528.8 429.071 5
4 -3 -5 1724.41 142.041 1
-5 3 4 1816.71 144.441 6
5 -3 4 1443.94 264.507 3
5 0 -5 2465.67 116.86 5
-5 0 5 2369 163.416 8
-5 0 5 2303.07 148.601 6
-5 0 -5 2152.06 134.098 6
5 0 -5 2093.7 163.884 8
5 -2 5 13632.3 561.605 1
-5 2 -5 14430.4 580.141 7
-5 2 5 14558.3 570.433 8
-5 2 -5 14672.2 558.899 6
-5 2 5 14536.9 564.535 6
-5 -2 -5 14341.4 618.154 8
5 2 5 14148 585.648 2
5 -4 5 374.229 329.058 3
-5 4 -5 943.339 130.215 5
0 0 -6 114253 4615.16 8
6 0 0 122707 4606.01 8
0 0 -6 122946 4607.62 5
-6 0 0 120417 4609.66 6
-6 0 0 125873 4602.33 5
6 0 0 124585 4630.96 4
-6 0 0 118223 4603.44 2
-6 1 1 12546.7 513.56 6
1 -1 6 13015.5 564.929 3
6 1 -1 12661.2 579.398 4
1 1 -6 14927.8 535.698 8
-1 -1 -6 13903.5 509.907 5
1 -1 -6 13262.3 539.637 8
-6 1 -1 12645.4 499.089 5
-6 1 -1 13779.4 512.079 6
-6 -1 1 12674.6 514.695 6
6 1 1 13156.4 577.484 4
-1 -1 6 13372.3 556.811 3
6 -1 1 12839.2 577.469 4
-6 1 -1 11828.1 512.711 8
-1 1 6 12862.4 515.935 2
-6 2 0 489.021 113.911 6
-2 0 -6 522.406 100.04 5
-6 0 -2 603.013 167.724 8
0 -2 -6 206.471 194.053 8
-6 0 2 369.914 109.497 6
-6 0 -2 357.119 153.503 7
6 0 -2 566.96 284.499 4
0 2 6 469.977 139.732 2
-6 2 0 209.447 149.185 3
2 0 -6 330.368 169.302 8
2 0 -6 335.995 71.5991 6
0 -2 6 479.631 241.786 3
0 -2 -6 317.311 107.385 5
-6 0 -2 257.087 104.773 6
0 2 -6 479.359 93.4881 5
2 0 -6 298.545 100.791 7
2 0 -6 451.549 90.1901 5
6 0 2 505.5 261.013 4
-2 0 6 168.713 222.33 3
-6 0 -2 374.105 78.2506 5
-2 2 6 1096.94 136.501 2
-6 2 -2 948.301 85.6951 5
-6 2 -2 1125.95 127.378 6
6 -2 2 1087.63 213.088 3
2 2 -6 985.438 106.222 5
2 2 -6 1317.87 196.058 8
-2 -2 6 972.432 238.812 3
2 -2 -6 1060.25 197.944 8
-6 2 -2 1263.8 164.708 8
-6 1 -3 5602.94 269.09 7
3 1 -6 5268.77 276.719 8
-6 1 -3 5016.56 274.583 8
6 1 3 5317.7 259.365 2
6 1 3 5397.35 349.693 4
3 1 -6 5474.53 301.519 4
3 -1 6 5590.61 269.817 4
6 -1 3 5104.19 358.044 4
-6 -1 -3 5191.53 298.607 8
6 -1 3 5609.29 321.738 3
-3 1 -6 5196.73 238.442 7
3 -1 -6 6110.78 232.503 1
-3 -1 6 5631.31 312.324 3
-3 -1 6 5487.16 245.258 7
-6 -1 -3 5842.82 269.882 7
-3 -1 6 5222.47 228.325 6
-6 -1 -3 5690.01 244.173 6
3 1 6 4918.37 222.178 6
3 -1 -6 5693.22 227.894 5
-3 1 -6 5255.77 218.28 6
-6 3 -1 5332.12 264.334 8
3 -1 -6 5695.49 285.828 8
-6 3 -3 25.905 92.3188 5
-3 3 -6 6.98307 231.679 8
6 -4 2 1455.44 162.332 1
-4 2 6 1203.36 181.743 7
-6 2 -4 1360.2 128.752 6
-6 2 -4 978.413 201.676 7
-4 2 6 1202.56 128.643 6
4 -2 6 1171.1 111.215 1
-4 -2 -6 1656.09 290.085 8
-4 2 6 1320.67 138.898 2
-6 4 2 1318.2 232.335 7
-4 -2 -6 1299.09 147.591 5
-4 0 6 31407 1185.18 7
-6 0 -4 30757 1188.32 7
6 0 4 27863.4 1222.3 4
6 -4 0 31280 1190.52 1
-6 4 0 31291.3 1204.88 7
4 0 -6 29844.4 1188.65 8
-6 0 -4 30120.7 1181.1 6
4 0 -6 32055.1 1175.52 5
-4 0 6 30555.8 1179.4 6
-6 0 -4 31273.5 1179.91 5
4 0 6 30561.5 1192.96 2
-4 0 -6 30526.4 1212.89 8
-6 4 -2 1142.59 220.855 7
-4 2 -6 1277.63 244.896 8
6 -2 4 1077.58 286.517 3
-4 2 -6 1239.98 103.959 6
-4 2 -6 873.043 156.44 7
-4 -2 6 978.338 155.082 7
4 -2 -6 1268.19 191.834 8
4 -4 6 8996.68 508.685 3
-4 4 -6 8979.64 376.515 5
6 -3 -5 9364.55 386.041 2
-6 3 -5 10141 457.798 8
-5 -1 -6 5963.89 380.297 8
-6 1 -5 5786.22 288.185 7
-5 1 6 5888.24 291.535 7
-6 1 -5 5522.66 330.604 8
6 1 5 5717.92 304.093 2
-5 1 6 6631.18 255.596 2
-5 1 6 6404.87 263.969 6
5 -1 6 5879.9 349.639 4
6 -1 -5 6228.74 262.585 8
6 1 5 4659.13 364.343 4
6 -1 -5 5376.27 228.989 5
-5 -1 -6 5386.11 264.591 5
5 -1 -6 7037.8 415.101 4
-5 -1 6 6570.37 288.363 7
-6 -1 -5 5548.62 285.405 7
-6 -1 -5 6734.85 364.125 8
-5 -1 6 6160.75 257.238 6
6 -1 5 5890.11 387.057 4
-5 1 -6 5769.29 278.423 7
-5 1 -6 5559.27 342.067 8
-5 1 -6 5338.2 243.413 6
6 1 -5 5348.49 270.755 8
-5 1 -6 5830.25 258.075 5
5 -1 -6 6789.38 291.912 8
-6 1 5 5411.44 227.25 5
-6 -1 -5 4830.17 253.5 6
-5 3 -6 10327.7 402.529 5
-6 3 5 9888.83 414.684 8
-5 3 -6 9227.36 396.292 6
6 0 -6 -158.358 171.034 8
-6 0 -6 322.586 312.167 8
6 0 -6 59.6175 88.7035 5
6 0 6 -78.3592 210.276 2
-6 -2 -6 2873.1 201.518 5
-6 2 6 2512.27 264.679 7
-6 2 -6 2806.2 175.594 5
-6 2 -6 2593.46 169.571 6
-6 2 -6 2587.56 324.798 8
6 -2 -6 2300.45 214.014 8
-6 2 -6 2453.04 239.304 7
6 -2 -6 2759.63 140.606 5
-6 -2 -6 2375.81 338.59 8
-6 4 6 1214.42 274.794 7
-6 4 6 1242.04 189.876 6
-6 4 -6 1015.19 328.965 8
6 -4 6 1593.88 412.24 3
1 0 -7 1134.61 119.752 5
-7 0 -1 1477 181.876 8
-1 0 7 1462.85 280.907 3
-7 0 1 1159.41 191.675 7
-7 0 -1 1395.09 97.0488 5
-7 1 0 1218.93 149.038 8
-1 0 -7 1651.01 232.342 8
7 2 -1 3750.69 371.726 4
-2 1 7 3391.26 212.36 2
-2 1 7 3798.62 197.969 7
7 -2 1 4186.43 221.199 1
-7 2 1 4052.3 214.583 6
1 -2 -7 3854.42 198.927 5
-7 -2 -1 4299.65 250.913 7
-2 -1 -7 3968.74 316.845 8
1 2 7 4143.48 238.149 2
-7 1 -2 3643.11 249.729 8
2 -1 -7 3465.57 270.483 8
-7 2 -1 3580.76 217.659 8
-1 -2 -7 4247.14 311.767 8
-7 1 2 4018.78 257.82 7
-7 2 -1 4175.98 257.709 7
7 -1 2 3694.29 282.89 3
-2 1 -7 3724.21 287.227 8
-2 -1 7 3941 323.612 3
-7 -2 1 3592.11 250.932 7
-7 -2 1 3443.37 211.168 6
2 1 7 3756.93 232.222 2
7 -1 2 3836.16 199.493 2
2 -1 -7 3816.99 171.303 1
-7 2 -3 3258.72 250.818 8
-7 3 2 3889.75 210.923 6
-2 3 -7 3794.08 195.119 5
-3 2 7 3572.87 181.352 6
-7 -2 3 3673.73 253.85 7
-3 2 7 3725.32 212.164 2
-7 2 -3 3144.38 172.755 5
-3 -2 -7 4260.81 346.545 8
-7 -2 3 3554.38 215.76 6
-3 -2 -7 3819.5 205.836 5
-3 0 7 7889.33 405.141 3
-3 0 7 7798.61 308.402 6
-7 0 -3 6987 308.29 5
3 0 -7 7108.87 309.271 5
-7 3 0 7884.03 330.596 6
-3 0 -7 7192.87 321.951 5
7 -3 0 7689.09 338.703 1
3 0 -7 7305.82 358.5 8
0 3 7 8040.69 352 2
-7 3 0 7305.72 329.473 8
-7 0 -3 8028.06 379.71 8
-3 0 -7 7103.29 387.75 8
7 0 3 8055.38 336.538 2
0 -3 -7 8163.68 401.209 8
-7 0 3 7781.55 357.437 7
3 -2 -7 3699.17 172.979 1
-2 -3 -7 3276.29 320.904 8
7 -3 -2 3571.21 212.172 1
-7 3 -2 3259.88 268.389 7
-3 2 -7 2572.37 150.318 1
-7 3 -2 3310.64 160.713 5
-7 -2 -3 3718.09 238.862 7
-3 -2 7 3410.88 315.739 3
-3 2 -7 3488.57 304.594 8
-7 2 3 3782.76 205.133 6
3 -2 -7 3374.12 266.957 8
7 2 -3 3943.53 388.21 4
2 -3 7 3448.37 362.96 3
-7 4 3 294.62 268.308 7
-7 3 -4 401.896 256.419 7
-3 4 -7 214.722 149.139 5
-4 3 7 117.659 134.142 6
-4 -3 -7 -78.2805 322.003 8
-4 -1 -7 9339.2 482.34 8
-4 1 7 9434.73 381.943 6
-4 1 7 9440.77 391.839 2
-7 -1 4 9474.82 398.43 6
4 1 -7 9374.24 377.283 5
-7 4 1 9878.62 457.393 7
4 -1 7 8381.83 427.568 4
4 -1 -7 9053.57 433.613 8
4 -1 -7 9449.04 384.237 1
-4 -1 7 9343.65 452.909 3
4 -1 -7 9314.98 379.103 5
-7 4 -1 9418.45 398.935 6
7 1 -4 9871.37 548.328 4
-4 1 -7 9800.77 390.825 5
-4 1 -7 9269.97 459.894 8
-7 1 4 9675.64 398.98 6
-7 1 4 9492.95 427.63 7
4 -1 -7 9143.85 483.141 4
-4 -1 7 9304.85 384.591 6
7 -1 4 8403.38 486.935 3
4 -3 -7 133.566 126.206 5
7 -4 -3 20.4802 182.05 1
-7 3 4 250.555 170.359 6
-7 4 -3 68.3736 154.978 6
-7 4 -5 2385.73 183.215 5
-7 5 4 1833.27 306.774 7
-7 4 -5 2501.56 326.805 8
-7 4 -5 2310.56 195.506 6
-7 -2 5 149.541 172.068 6
-7 2 -5 238.764 273.764 8
-5 -2 -7 384.404 329.87 8
7 2 5 318.04 220.86 2
7 -2 -5 499.529 180.289 1
-7 0 5 2931.49 145.18 5
-5 0 -7 4244.08 356.935 8
-5 0 -7 3551.49 172.305 6
5 0 -7 4280.36 251.648 8
-7 0 5 3728.5 210.309 6
-5 0 7 4539.44 200.768 6
7 0 5 3691.97 255.563 2
-7 0 -5 4140.79 338.749 8
7 0 -5 3437.99 432.614 4
5 2 7 422.739 233.583 2
-5 2 -7 174.426 306.73 8
5 -2 -7 344.17 112.759 5
-7 -2 -5 181.989 156.669 5
-7 -2 -5 493.886 323.124 8
-5 2 -7 488.226 143.833 5
-7 2 5 420.267 171.977 6
5 -2 -7 319.793 228.111 8
-7 2 5 152.838 256.16 7
-7 4 5 2584.45 308.396 7
-5 4 -7 2458.51 189.369 5
-7 5 -6 1568.39 191.219 5
-6 5 7 1265.53 205.958 6
-7 3 -6 1234.75 326.029 8
-6 3 7 1039.75 182.981 6
-6 -3 -7 909.587 391.831 8
-6 1 7 2796.81 182.536 2
-6 1 7 2552.24 257.808 7
-6 -1 -7 2868.42 230.97 7
-7 -1 6 3362.08 217.186 6
-6 -1 -7 2547.01 383.736 8
7 -1 -6 2497.81 208.897 8
6 -1 7 3277.2 441.194 3
-7 1 -6 2753.99 320.155 8
-6 1 -7 2748.29 332.087 8
-7 -1 -6 2594.09 372.639 8
6 -1 -7 3013.44 255.749 8
7 1 -6 2699.04 444.004 4
-7 1 6 2908.66 273.894 7
-6 1 -7 2895.43 195.678 5
6 3 7 988.81 275.675 2
-6 3 -7 1033.28 154.361 6
6 -3 -7 1212.91 196.261 1
-6 3 -7 668.394 339.431 8
7 0 7 3545.23 404.859 4
7 0 -7 3088.87 495.465 4
-7 0 -7 3312.85 418.2 8
7 0 -7 2737.4 249.262 8
-7 0 7 3403.33 233.336 6
-7 0 -7 3117.5 202.723 6
-7 2 -7 1255.5 363.76 8
-7 -2 -7 1555.71 199.206 5
-7 -2 7 1436.45 260.137 7
-7 -2 -7 1547.86 394.898 8
7 -2 -7 1363.22 230.78 8
-7 4 -7 112.162 179.805 5
7 -4 -7 -153.004 226.317 1
7 -4 7 340.463 486.123 3
-8 0 0 83058.1 3111.08 5
0 0 -8 79519.5 3132.46 8
8 0 0 76928.4 3167.25 4
-8 0 0 83325.5 3122.49 6
1 -1 -8 38630.3 1525.03 8
1 -1 8 38479.6 1549.65 3
-8 -1 -1 38120.2 1512.79 7
1 1 -8 38132.4 1519.02 8
-1 -1 -8 36945.3 1530.65 8
-1 1 -8 38285 1525.02 8
-8 1 -1 40295.7 1502.61 6
-8 -1 1 40050.7 1504.59 6
-8 1 1 40560.8 1502.5 6
-1 1 8 40711.1 1506.38 2
-8 -1 -1 39797.6 1503.18 6
-8 1 -1 37599.7 1503.79 8
1 1 8 38766.6 1510.18 2
-8 -2 0 12419.8 491.836 6
0 -2 -8 10956.2 548.135 8
-8 2 0 11778.3 477.416 8
0 -2 -8 11065.7 479.441 5
0 2 -8 11569.6 474.341 5
-2 0 8 12065.4 468.625 7
-8 0 -2 11633.3 513.538 7
-8 2 0 11827.8 454.388 5
2 0 8 10766.3 599.729 3
8 -2 0 10445.8 496.796 3
-8 0 -2 11274.5 510.665 8
8 -2 0 10287 477.896 8
2 0 -8 12559.2 469.436 7
8 0 2 13408.1 484.427 2
0 -2 8 11850.6 579.982 3
-2 0 -8 11957.8 537.824 8
0 2 8 11998.7 500.775 2
-8 2 -2 2544.39 189.628 6
-8 -2 2 2550.37 262.664 7
-2 -2 -8 2776.78 189.158 5
-8 -2 -2 2224.83 193.056 6
-8 2 -2 2630.97 272.937 7
-8 2 2 2300.98 271.297 7
-2 -2 -8 2376.73 334.805 8
8 -2 2 2080.99 288.035 3
2 -2 8 3176.85 386.3 3
8 -2 2 2281.18 208.216 1
-2 2 -8 1927.15 308.657 8
-8 2 -2 1881.85 228.895 8
-8 -2 2 2479.97 203.643 6
-8 1 -3 1868.2 265.935 8
-3 -1 -8 1281.14 331.928 8
-8 1 -3 2012.2 179.559 6
-3 1 8 2124.47 145.957 6
1 -3 -8 1761.48 312.68 8
-8 -1 3 2151.39 195.892 6
-1 -3 8 1569.15 371.562 3
-1 3 -8 2195.52 168.124 5
8 -3 1 2324.99 208.042 1
1 3 8 2157.66 243.68 2
-8 -1 3 2015.77 251.758 7
-3 1 -8 1568.09 303.998 8
8 -3 -1 1437.42 96.1912 5
1 3 -8 1877.13 297.62 8
1 3 -8 1922.19 164.152 5
-8 -1 -3 2186.31 146.784 5
8 -1 3 1624 312.89 3
3 1 8 2226.23 230.843 2
8 -1 3 2152.17 410.253 4
-8 -1 -3 1681.95 174.184 6
-1 -3 -8 1892.96 320.417 8
3 3 8 13947.6 592.813 2
-8 3 -3 15079 603.651 7
8 -3 3 12761.5 620.084 3
-3 -3 -8 13558.4 651.606 8
3 3 -8 13844.7 609.763 8
-8 3 -3 13717.7 544.279 5
-8 2 -4 9372.69 472.403 7
8 -2 -4 9106.66 438.527 1
-8 2 -4 10138.3 426.975 6
-4 -2 -8 10186.7 539.648 8
-8 -2 4 10833.5 472.033 7
-8 -2 4 10728.5 441.007 6
0 4 -8 538.767 304.523 8
8 -4 0 349.826 199.328 1
-4 0 -8 506.868 91.7327 6
-4 0 -8 829.629 162.181 5
8 0 4 634.239 391.544 4
4 0 8 567.339 220.054 2
8 0 -4 512.122 456.551 4
-8 0 -4 724.935 163.369 6
-4 0 -8 177.381 352.529 8
4 -2 -8 10025.3 404.241 5
-4 2 -8 10457.6 416.884 5
-4 2 -8 9936.03 510.263 8
-4 -2 8 9484.36 424.153 7
-8 -2 -4 9321.69 455.401 7
4 -2 -8 9628.69 407.25 1
-4 2 -8 9618.38 390.822 6
-8 2 4 10914.6 432.759 6
-8 4 -2 9165.92 455.575 8
2 -4 8 10396.8 575.311 3
8 -4 -4 6622.45 347.995 1
-8 4 -4 6534.51 399.347 8
-4 4 -8 6671.55 315.959 5
-8 4 -4 6185.16 408.02 7
-8 4 4 6836.36 421.195 7
4 -4 8 6985.21 537.257 3
-8 4 -4 6481.3 321.316 6
-8 3 -5 6509.27 308.145 5
-8 3 -5 7273.18 419.418 8
8 -3 -5 7559.33 349.727 1
-8 3 -5 6491.76 407.471 7
-8 3 -5 6928.41 327.186 6
-5 -3 -8 6023.78 474.126 8
8 1 5 3756.72 451.893 4
-8 -1 5 5035.33 272.956 6
-8 5 1 5148.54 370.157 7
-8 1 -5 4381.29 318.457 7
-8 5 1 4677.01 278.281 6
-5 1 8 5273.29 247.827 6
-5 -1 -8 5318.36 424.881 8
-5 1 8 4590.33 262.222 2
-8 1 -5 4918.45 388.338 8
8 1 5 4684.54 311.314 2
8 -1 -5 4142.41 516.373 4
8 -5 1 5789.38 291.62 1
-8 -1 -5 4747.63 251.085 5
-5 -1 8 5310.17 386.492 3
-5 -1 8 4880.99 245.473 6
8 -5 -1 4743.67 290.622 1
-8 -1 -5 5007.28 388.323 8
5 -1 -8 4845.53 328.202 8
-8 -1 -5 4312.18 265.568 6
-5 1 -8 4714.92 254.286 5
-5 1 -8 4482.6 387.512 8
-5 3 -8 6530 322.202 5
-5 3 -8 6302.44 443.816 8
-8 5 -3 7287.77 336.804 6
5 -3 -8 7088.11 309.697 5
8 -5 -5 3777.6 281.807 1
-5 5 -8 3406.72 414.254 8
-8 5 -5 3356.67 248.104 6
6 -4 8 107.193 490.612 3
-8 4 -6 366.371 190.046 6
-8 -2 6 2222.23 227.958 6
-8 2 -6 2144.07 359.43 8
8 -2 -6 1865.75 224.849 1
-6 -2 -8 1863.02 227.638 7
-8 2 -6 2013.88 194.008 6
8 -2 -6 1487.63 97.0269 5
-6 -2 -8 1783.79 408.194 8
6 0 -8 16.9547 251.438 8
8 0 -6 62.3183 159.263 8
-8 0 -6 65.4482 251.573 7
6 0 8 -210.897 262.028 2
-8 0 6 -82.3156 71.4104 5
-6 0 -8 520.978 402.702 8
-8 0 -6 -106.485 382.119 8
-8 0 6 183.549 203.427 6
-6 0 -8 227.084 135.963 6
-6 2 -8 1942.65 376.279 8
6 -2 -8 1695.16 152.597 5
-8 -2 -6 1185.93 381.69 8
-8 2 6 1899.39 303.574 7
-6 -2 8 2204.49 258.23 7
6 -2 -8 1715.14 278.034 8
6 -4 -8 322.312 165.358 5
-6 4 -8 283.081 189.225 5
-6 4 -8 -215.316 377.56 8
-8 5 -7 -185.575 413.446 8
-8 3 -7 928.43 395.133 8
-7 -3 -8 921.95 454.375 8
-7 -3 -8 414.409 230.764 5
-7 -1 -8 8881.35 391.974 5
-7 1 8 8725.28 435.857 7
7 -1 8 7331.49 629.513 3
-8 -1 7 8480.29 450.539 7
-7 -1 -8 8941.28 544.209 8
8 -1 -7 7711.24 395.97 8
-8 -1 7 9107.95 401.526 6
-8 1 -7 8930.91 532.899 8
8 -1 7 8501.7 431.671 2
-8 -1 -7 9155.81 374.793 5
-7 1 -8 6931 490.996 8
-8 1 7 9297.87 442.575 7
-8 -1 -7 7955.8 421.313 7
-7 1 -8 8844.42 377.069 5
8 1 -7 7511.59 623.09 4
-7 1 -8 6997.81 353.151 6
7 -1 -8 7848.03 419.081 8
8 1 -7 8257.56 393.9 8
-8 -1 -7 8080.57 530.721 8
-7 3 -8 865.967 397.108 8
-7 -3 8 881.688 272.408 7
8 -3 7 1121.69 491.704 3
-8 5 7 74.9989 234.952 6
-8 5 7 -221.75 371.114 7
-7 5 -8 48.4272 212.75 5
8 0 -8 8680.64 442.48 8
-8 0 -8 8947.15 590.548 8
-8 0 -8 9956.79 422.565 5
8 -2 -8 10827.3 457.728 1
-8 2 8 11372.3 458.896 6
-8 2 -8 9435.39 554.03 8
8 2 -8 10109 483.461 8
-8 -2 -8 11030 616.075 8
8 -2 -8 10513.1 468.843 8
-8 4 -8 523.958 437.055 8
-8 4 -8 -165.029 208.013 6
-8 6 8 -19.1998 263.804 6
1 0 -9 553.55 281.852 8
0 -1 -9 851.563 336.428 8
0 1 -9 466.954 306.584 8
9 0 1 -6.93371 452.397 4
1 0 9 528.538 426.786 3
-1 0 9 954.688 392.278 3
-9 0 1 669.046 255.37 7
-9 -1 0 1094.12 261.172 7
-9 0 -1 833.804 236.759 8
-9 0 -1 784.106 187.476 6
-9 1 0 687.166 197.548 8
9 0 -1 805.317 160.508 8
-1 0 -9 1046.6 299.25 8
-9 1 0 952.198 183.383 6
9 -1 0 966.629 469.435 4
-2 -1 -9 4113.45 230.278 5
-9 -1 2 3705.75 312.66 7
9 -2 1 3143.24 309.038 3
-9 -2 -1 4142.51 311.381 7
-2 1 9 3290.51 434.803 3
-9 1 -2 3010.26 305.848 8
-2 1 9 3968.16 184.698 6
-9 2 1 3717.73 253.245 6
1 -2 -9 3964.09 382.093 8
-9 2 1 3290.02 208.412 8
-9 -1 2 3752.64 253.124 6
2 1 -9 4151.55 337.862 8
-1 2 -9 3414.94 357.354 8
-9 -2 -1 3958.31 252.96 6
9 -2 1 2843.43 498.137 4
-2 -1 -9 3668.13 387.112 8
2 1 -9 4338.72 213.945 5
-2 1 -9 2760.67 347.381 8
-2 1 -9 3945.09 228.576 5
9 2 1 3688.68 464.857 4
1 2 -9 3879.37 214.854 5
-9 -2 1 3618.55 302.065 7
2 -1 -9 4486.48 352.963 8
-9 2 -1 3722.34 174.834 5
-9 -1 -2 3925.25 195.525 5
-9 -1 -2 3657.4 240.852 6
1 -2 9 4209.89 452.579 3
-9 2 -1 3231.6 247.159 8
1 2 -9 3585.87 336.911 8
-9 -2 1 3514.25 250.696 6
-1 -2 -9 3321.28 379.161 8
-1 2 9 3965.95 271.495 2
9 -2 -1 3137.19 514.7 4
2 -3 -9 321.389 333.315 8
-3 2 9 168.846 136.588 6
9 2 3 749.185 466.28 4
-9 2 -3 227.315 124.328 5
3 2 -9 391.244 158.334 5
9 -2 -3 630.985 509.79 4
9 -3 2 127.394 317.107 3
-3 -2 -9 163.089 370.858 8
-9 -2 3 274.793 208.755 6
-3 0 9 1315.57 133.233 6
0 -3 -9 1401.63 186.907 5
-3 0 9 1020.14 170.028 7
-9 0 3 1111.08 278.756 7
9 0 -3 1172.22 508.14 4
0 -3 -9 744.116 353.438 8
3 0 -9 941.652 289.175 8
-3 0 -9 1259.45 324.711 8
0 3 -9 1315.84 172.848 5
3 -2 -9 41.3944 316.988 8
-9 -2 -3 401.841 203.742 6
-3 2 -9 672.041 355.844 8
-9 3 -2 511.212 248.907 8
-2 -3 -9 483.033 192.446 5
-3 -2 9 411.881 173.048 7
9 -2 3 182.218 335.763 3
-3 2 -9 185.915 170.662 5
-9 3 -2 149.25 121.854 5
9 -2 3 594.988 481.266 4
-2 -3 -9 -158.568 395.728 8
-3 4 -9 542.256 378.728 8
-9 3 -4 182.175 311.166 8
-3 4 -9 67.1941 182.883 5
-4 -3 -9 298.751 416.832 8
9 1 4 3952.15 486.795 4
-4 -1 -9 3445.46 241.972 5
-9 4 1 4237.57 384.274 7
-4 1 9 3937.45 268.382 7
-4 1 9 3202.24 255.484 2
-9 4 1 4340.04 262.322 6
-4 -1 -9 3845.71 430.752 8
-9 1 -4 3999.89 369.132 8
-9 -1 4 4422.81 263.722 6
4 1 -9 3339.89 342.061 8
-9 -1 -4 3328.48 239.286 6
-4 1 -9 2799.68 207.517 7
-9 4 -1 4182.92 375.139 7
-9 1 4 4066.27 323.192 7
-4 -1 9 3552.96 241.587 7
-4 1 -9 3415.01 367.828 8
-4 1 -9 3788.05 235.723 5
-9 -1 -4 4246.69 379.894 8
1 4 -9 3950.83 372.849 8
-4 -1 9 3424.26 201.633 6
-9 1 4 3556.63 249.327 6
9 -1 4 2813.18 501.155 4
4 -1 -9 3181.74 350.466 8
4 1 9 2892.36 297.83 2
4 -3 -9 -26.6807 319.257 8
-9 4 -3 686.478 210.264 6
9 -3 4 301.282 227.611 1
-4 5 -9 345.319 435.701 8
-5 4 9 -90.9658 188.909 6
5 -4 9 521.972 524.889 3
-9 2 -5 222.471 310.331 8
-9 2 -5 153.534 196.735 6
-9 2 -5 198.23 312 7
9 -5 2 118.429 233.456 1
-5 -2 -9 16.4294 417.57 8
9 -2 -5 -302.461 536.315 4
5 0 -9 1226.43 408.101 4
-9 0 -5 1035.5 382.958 8
-9 0 -5 1103.07 168.423 5
5 0 9 953.967 507.021 3
-5 0 -9 1504.49 197.397 5
-9 5 0 1037.08 210.458 6
-5 0 -9 1201.98 129.082 6
-9 0 5 1118.22 218.888 6
-5 0 9 1153.05 176.505 6
-5 0 -9 1170.35 414.728 8
9 0 -5 1058 550.616 4
-9 -2 -5 107.334 187.037 5
-9 5 -2 412.675 345.253 7
-9 -2 -5 288.435 287.514 7
9 -2 5 322.181 489.297 4
-5 2 -9 440.799 395.075 8
-9 5 -6 154.057 360.373 7
-9 5 -6 -89.2831 219.019 6
9 -3 -6 1528.21 263.451 1
-9 3 -6 1432.23 389.659 8
-9 -3 6 1384.99 325.487 7
-6 -3 -9 857.05 465.718 8
9 -6 1 342.559 249.137 1
-6 -1 -9 495.385 452.306 8
-9 1 -6 346.435 410.985 8
-9 1 -6 377.102 294.347 7
-9 -1 6 837.395 240.147 6
-9 -1 -6 400.48 189.163 5
-9 -1 -6 474.347 407.025 8
-9 1 6 298.773 312.897 7
-9 6 -1 614.705 227.636 6
-6 1 -9 288.772 386.374 8
-9 -1 -6 884.113 207.848 6
-6 3 -9 1545.31 430.396 8
9 -3 6 1290.91 248.501 1
-6 3 -9 1358.17 165.503 6
-9 6 -5 303.211 222.222 6
9 -4 -7 1777.43 148.572 5
-9 4 -7 1153 437.323 8
-7 4 9 1685.83 360.147 7
-9 4 -7 1632.9 219.315 5
7 -4 9 2100.31 599.374 3
-9 2 -7 1618.08 402.569 8
-7 -2 -9 1921.7 475.556 8
7 -2 9 1875.22 566.05 3
-7 2 9 2072.86 242.346 6
9 -2 -7 1735.31 623.33 4
-7 0 9 3680.02 257.412 6
9 0 -7 3152.52 242.102 8
-7 0 -9 3640.62 497.607 8
7 0 -9 3965.39 550.409 4
-9 0 -7 3724.71 469.084 8
-7 2 -9 1337.98 434.902 8
-9 -2 -7 2051.11 236.774 5
-7 -2 9 2116.14 311.916 7
7 -2 -9 2590.33 331.108 8
-9 -2 -7 2279.51 478.853 8
-7 4 -9 2765.18 482.043 8
-7 4 -9 1861.62 234.28 5
-9 6 7 -112.464 284.374 6
-9 5 -8 959.91 504.601 8
-8 5 9 439.529 422.235 7
-8 -3 -9 106.474 507.156 8
-9 3 -8 349.965 459.892 8
-8 3 9 29.6274 369.706 7
-9 3 -8 52.107 211.086 5
-9 1 -8 952.645 325.08 7
9 -1 -8 961.534 263.222 8
-8 1 9 1465.91 238.701 6
-8 -1 -9 1027.37 491.906 8
-9 1 -8 538.877 469.078 8
-9 -1 -8 1630.06 211.112 6
-8 1 -9 1424.89 231.124 5
-8 1 -9 1359.55 304.791 7
-9 1 8 1053.06 354.876 7
-8 1 -9 1844.72 500.81 8
-9 1 8 1387.49 259.548 6
-9 -1 -8 1053.69 489.992 8
8 -1 -9 1063.51 318.446 8
-8 3 -9 106.239 451.393 8
8 3 9 446.052 367.632 2
-9 -3 -8 250.345 251.443 5
-8 3 -9 53.5324 339.819 7
-9 3 8 269.133 382.238 7
-8 3 -9 222.925 215.021 5
9 -3 8 315.684 540.995 4
-9 0 -9 4785.98 303.581 5
9 0 -9 3695.29 333.652 8
-9 0 -9 3967.6 279.245 6
-9 0 -9 4878.74 564.82 8
-9 2 -9 953.034 471.303 8
-9 -2 9 988.35 277.825 6
9 2 -9 1199.78 645.991 4
-9 -2 -9 748.947 542.853 8
-9 4 -9 424.302 522.445 8
-9 4 -9 935.515 405.53 7
-10 0 0 2238.11 141.694 5
-10 0 0 2316.78 239.295 6
0 0 -10 2716.13 353.224 8
10 1 1 3785.84 551.804 4
1 1 -10 3618.54 383.648 8
-1 -1 -10 4273.62 243.629 5
1 -1 -10 4234.98 239.787 5
-10 1 1 3365.41 161.96 5
-10 -1 1 4166.88 346.822 7
-10 -1 -1 3584.55 202.268 5
-1 -1 -10 4029.25 439.375 8
-10 1 -1 4052.28 307.069 8
-10 -1 1 5199.92 274.605 6
-1 1 -10 3844.5 388.985 8
1 -1 -10 4391.67 415.305 8
10 1 -1 3615.17 553.549 4
10 -1 1 3600.15 553.333 4
-10 0 -2 3980.47 217.103 5
0 -2 -10 4453.56 437.118 8
2 0 -10 4221.86 377.326 8
-10 2 0 4292.26 194.731 5
-10 0 2 4514.91 347.709 7
-10 2 0 4328.68 288.951 8
-2 0 -10 4304.89 399.43 8
0 2 -10 4816.25 422.164 8
-10 -2 0 5004.95 289.976 6
-10 0 -2 4653.11 339.721 8
10 0 2 4398.98 277.472 2
-10 -2 -2 193.624 212.302 6
-2 2 -10 228.527 376.399 8
2 -2 -10 277.718 175.45 5
-2 2 10 437.184 250.026 2
-10 -2 2 205.419 301.996 7
-10 -2 -2 150.658 307.393 7
10 -2 -2 -239.925 582.965 4
10 -2 2 592.636 332.839 3
-2 2 -10 176.293 185.678 5
-10 2 2 329.616 222.149 6
-2 -2 -10 248.045 398.278 8
-2 2 10 194.15 129.954 6
-10 2 -2 446.689 259.09 8
2 -2 -10 187.776 384.868 8
-10 -2 2 344.836 232.295 6
-3 1 10 3595.59 252.718 7
-10 -1 3 4148.76 344.75 7
-3 1 10 3322.51 492.165 3
-10 3 1 4049.13 275.685 6
1 -3 -10 4312.4 425.498 8
-3 -1 -10 4752.68 453.596 8
-10 -1 3 3886.19 279.831 6
-10 3 1 3167.38 228.282 8
3 1 -10 3512.25 378.59 8
-3 -1 -10 4020.82 254.208 5
-3 1 -10 3421.1 432.87 8
1 3 -10 4623.04 249.576 5
-3 -1 10 3580.8 238.078 7
10 1 -3 4456.81 573.267 4
3 -1 -10 4064.64 408.198 8
-10 3 -1 4574.21 279.002 6
-1 -3 -10 4133.96 441.644 8
-10 3 -1 3466.03 300.589 8
10 -3 3 10939.4 472.062 1
10 -3 -3 11769.3 473.986 1
3 -3 10 8109.36 416.362 7
-10 3 -3 10871.7 528.729 7
3 -3 10 10317.8 661.372 3
-10 3 -3 10311.5 452.026 6
3 -3 -10 10718 553.376 8
-3 -3 -10 14225.2 605.271 8
-3 3 -10 11229 586.477 8
10 -2 -4 2280.59 602.14 4
2 4 10 2317.16 316.952 2
-10 2 -4 1894.99 179.335 5
10 2 4 2542.54 533.924 4
2 -4 -10 2463.58 230.974 5
-10 4 2 2477.78 252.475 6
-4 2 10 1830.04 189.974 6
-4 -2 -10 2499.91 452.229 8
-10 2 -4 2207.88 329.147 8
-10 -2 4 2317.28 270.967 6
4 0 -10 3237.59 353.539 8
4 0 10 3803.21 317.953 2
0 -4 -10 4172.05 271.636 5
-4 0 -10 3138.71 462.177 8
0 4 -10 2881.35 424.866 8
-10 0 -4 4424.51 406.314 8
0 4 10 3373.21 329.986 2
0 -4 -10 3354.59 442.292 8
4 -2 -10 2228.96 374.169 8
-4 2 -10 2131.61 397.535 8
-2 -4 -10 2071.95 249.64 5
-2 -4 -10 2132.71 456.902 8
-4 -4 -10 -228.339 468.262 8
4 -4 -10 59.0328 206.424 5
10 -4 4 -18.199 261.639 1
-10 4 -4 -433.619 373.488 7
-10 4 4 -404.233 368.474 7
-4 4 -10 -355.271 207.84 5
-10 4 -4 58.2676 171.18 5
10 -4 4 63.2513 433.095 3
4 -4 10 -253.351 561.274 3
-10 3 -5 2450.98 380.519 8
5 3 -10 2585.97 376.859 8
-5 -3 -10 2243.13 497.96 8
10 -5 3 2135.42 299.488 1
5 1 -10 505.202 345.578 8
-10 5 1 137.082 384.341 7
-10 1 -5 452.303 392.898 8
-5 -1 -10 177.081 475.632 8
-10 -1 5 330.499 247.029 6
-5 1 -10 158.639 410.154 8
-5 -1 10 277.173 178.473 6
-10 -1 -5 -439.955 409.278 8
-10 1 5 419.819 325.21 7
5 1 10 503.394 307.144 2
10 -1 5 297.728 271.577 2
5 -1 -10 477.366 372.608 8
-10 -1 -5 208.92 215.895 6
-5 3 -10 2602.66 465.951 8
5 3 10 1921.26 347.654 2
-10 3 5 2838.62 275.568 6
5 -3 -10 1961.8 389.051 8
-5 5 -10 2430.05 259.304 5
-10 5 -5 2526.5 220.495 5
5 -5 -10 2093.26 250.767 5
-10 5 5 2552.3 294.33 6
-10 4 -6 1711.94 428.293 8
-10 6 4 1675.84 267.09 6
-6 -2 -10 4195.19 527.711 8
-10 2 -6 3732.6 412.345 8
-10 0 6 2132.85 269.839 6
-6 0 10 2367.54 288.184 7
10 -6 0 1480.94 282.058 1
-10 0 -6 1835.95 437.433 8
-6 0 -10 1878.79 493.966 8
6 0 -10 2125.87 340.296 8
-6 2 -10 3290.81 480.059 8
-10 -2 -6 4382.37 273.125 5
-10 -2 -6 4090.27 475.476 8
6 -2 -10 3385.43 397.515 8
-6 4 -10 1189.15 469.756 8
-6 4 -10 1790.27 247.284 5
6 -6 10 3804.26 687.503 3
-10 6 6 2990.24 313.703 6
-10 5 -7 1382.92 487.073 8
-10 5 -7 378.363 443.914 7
-10 5 -7 933.633 266.673 6
10 -5 -7 819.608 323.87 1
-10 5 -7 1270.53 248.69 5
-10 3 -7 149.924 449.015 8
-7 -3 -10 482.893 531.542 8
-10 3 -7 403.796 237.014 6
7 1 -10 -59.7092 341.25 8
-7 1 10 851.189 232.389 6
-7 -1 -10 464.539 521.009 8
-10 1 -7 362.311 471.208 8
-10 -1 7 755.263 263.796 6
10 -1 7 835.169 324.135 2
-7 -1 10 294.752 294.384 7
7 -1 -10 1079.08 242.001 1
-10 1 7 380.045 259.958 6
-10 -1 -7 903.88 479.861 8
-7 1 -10 683.892 175.791 6
-7 1 -10 787.144 448.262 8
-7 3 -10 575.035 491.139 8
-10 3 7 10.1526 417.247 7
-10 5 7 1291.97 472.317 7
-10 4 -8 2263.73 523.483 8
10 -4 -8 2867.7 342.786 1
-8 4 10 2621.77 447.568 7
-8 4 10 2593.02 302.766 6
10 2 8 598.979 375.045 2
-8 2 10 514.596 257.257 6
-10 2 -8 -70.8073 461.546 8
8 0 -10 368.896 620.994 4
10 0 8 1270.9 360.531 2
-10 0 -8 1414.84 543.355 8
-8 0 -10 44.2251 533.748 8
-10 0 8 1304.43 278.742 6
-8 2 -10 137.003 482.704 8
8 -2 -10 678.28 176.286 5
-10 -2 -8 672.397 345.779 7
-10 -2 -8 934.467 553.951 8
8 -2 -10 853.746 660.92 4
-8 4 -10 2425.2 549.225 8
-10 4 8 2586.14 315.724 6
10 -4 8 2454.72 322.967 1
-10 5 -9 -969.89 373.129 6
10 -5 -9 216.838 450.952 1
-9 -1 -10 59.2831 599.006 8
-10 -1 -9 373.336 256.985 5
-9 1 -10 514.53 268.287 5
10 -5 9 -1057.51 437.111 1
9 -5 -10 844.461 439.131 1
10 2 -10 824.428 975.948 4
10 2 10 1840.01 574.387 2
-10 -2 -10 2039.14 382.426 5
-10 -2 -10 1698.6 488.041 7
-10 -2 -10 2667.02 818.161 8
-10 -2 10 532.661 433.431 6
0 1 -11 1227.22 394.992 8
-11 0 -1 1221.46 139.551 5
-1 0 -11 1681.25 218.723 5
-11 0 1 1574.68 338.013 7
-11 0 -1 1708.39 330.596 7
1 0 -11 1235.94 209.218 5
-11 -1 0 1141.02 327.777 7
-11 1 0 1027.3 263.423 8
0 1 11 675.506 285.228 2
-11 0 -1 1365.19 235.824 6
0 -1 -11 1436.45 447.873 8
-1 0 -11 770.645 394.65 8
11 0 -1 365.926 607.625 4
1 0 -11 802.25 376.288 8
2 1 -11 4011.37 422.5 8
1 -2 -11 4966.22 272.424 5
-2 -1 -11 4665.14 285.796 5
11 2 -1 3444.06 632.239 4
-1 -2 11 3069.22 257.462 4
-11 2 1 3830.15 178.872 5
-11 2 1 4823.78 300.155 6
-11 2 1 3821.25 255.364 8
1 -2 -11 5052.98 474.335 8
-2 -1 -11 5342.32 502.462 8
-1 -2 11 3920.86 541.181 3
-1 2 -11 5112.03 473.945 8
-1 2 -11 4597.96 264.983 5
1 2 11 4465.53 348.49 2
1 2 -11 4871.94 269.063 5
-11 2 -1 5010.8 400.343 7
-1 -2 -11 4379.28 495.198 8
-11 2 -1 4494.63 350.79 8
11 1 -2 4962.29 685.836 4
-11 -1 -2 4709.34 307.834 6
-2 1 -11 4421.01 450.071 8
1 2 -11 4580.61 458.1 8
-11 -2 1 4737.52 333.377 6
2 -1 -11 4933.41 470.327 8
-2 3 -11 136.543 441.619 8
3 2 -11 181.645 394.351 8
-11 3 2 210.33 372.007 7
-11 2 -3 962.134 358.961 7
2 -3 -11 734.572 415.923 8
-3 -2 -11 -140.732 459.069 8
-11 -2 3 527.857 277.834 6
3 0 -11 390.224 363.43 8
-11 3 0 -10.8357 239.97 8
0 -3 -11 -317.959 217.925 5
-3 0 11 774.402 510.683 3
-11 0 -3 -449.318 355.887 8
0 -3 -11 270.504 438.295 8
-11 3 0 218.477 249.864 6
-3 0 11 5.17774 144.78 6
-3 0 -11 322.394 471.41 8
-3 2 -11 -41.9849 444.721 8
-2 3 11 483.217 297.981 2
-3 -2 11 394.982 203.911 7
-11 -3 2 424.826 340.535 7
-3 -2 11 445.411 511.268 3
2 3 -11 565.581 213.374 5
-2 -3 -11 136.872 469.951 8
3 -2 -11 389.406 417.709 8
-11 -3 4 621.408 271.738 6
-11 3 -4 648.273 362.855 8
11 -4 3 610.754 293.947 1
11 -3 -4 -514.352 684.574 4
3 -4 -11 142.35 441.258 8
-4 -3 -11 907.456 504.646 8
-11 4 3 793.387 274.466 6
4 1 -11 990.631 376.075 8
4 -1 11 828.381 187.581 4
1 -4 -11 1919.87 460.979 8
11 -4 1 1041.57 284.492 1
-4 -1 -11 1304.96 515.137 8
-11 1 -4 1653.1 398.748 8
-11 -1 4 1439.77 273.749 6
-4 1 -11 1195.69 421.764 8
-11 -1 -4 935.858 408.121 8
-11 1 4 1332.05 264.215 6
-11 4 -1 721.182 264.35 6
1 4 -11 1513.51 426.314 8
-11 1 4 956.036 373.336 7
-4 1 -11 892.867 228.207 5
4 -1 -11 1516.32 413.532 8
4 1 11 610.112 328.153 2
-1 -4 -11 1346.67 479.834 8
-3 -4 -11 399.962 520.825 8
-4 3 -11 800.057 462.364 8
-11 4 -3 566.491 345.65 8
-3 -4 -11 1075.48 261.418 5
-11 3 4 697.767 267.559 6
11 -3 4 459.674 454.348 3
4 -3 -11 706.348 417.747 8
-11 4 -5 1393.45 424.788 8
-11 5 4 1392.4 482.555 7
-11 4 -5 1503.75 465.064 7
-11 4 -5 1593.31 209.293 5
-5 -4 -11 1736.08 570.371 8
-5 4 11 1688.72 221.85 6
-5 -2 -11 3585.58 527.843 8
-11 5 2 4602.71 467.805 7
-11 2 -5 3343.32 463.011 8
-11 -2 5 3305.2 400.112 7
11 -5 0 5138.78 365.994 1
5 0 11 4701.7 386.783 2
5 0 11 3845.87 220.417 1
11 0 5 4884.69 652.251 4
-11 0 -5 5296.37 480.611 8
-11 0 -5 4964.38 300.414 6
-5 0 11 5096.37 269.357 6
5 0 -11 4403.17 411.607 8
-11 5 0 3848.71 340.793 8
-5 0 -11 4471.94 533.645 8
-5 2 -11 2840.31 487.246 8
5 -2 -11 3768.66 427.236 8
-5 4 -11 1512.28 506.11 8
-11 5 -4 2123.57 402.178 8
-11 4 5 1844.71 448.847 7
-11 5 -4 1142.55 277.697 6
-11 5 -6 872.104 242.014 5
-11 5 -6 1410.77 287.572 6
-11 3 -6 -216.422 442.672 8
-6 3 11 -102.488 291.718 2
-11 6 3 -40.1015 294.786 6
6 1 -11 973.898 381.478 8
-6 1 11 455.201 307.938 7
-6 -1 -11 359.621 570.175 8
-11 1 -6 699.585 246.204 6
-11 1 -6 -45.9189 470.131 8
-11 -1 6 345.72 281.77 6
11 -1 -6 -59.7663 711.944 4
-6 1 -11 169.34 463.802 8
-6 1 -11 421.1 250.406 5
-11 -1 -6 145.559 486.514 8
11 -6 -1 547.18 309.148 1
6 -1 -11 543.826 422.572 8
-11 6 -1 529.969 268.709 6
-11 -1 -6 537.026 272.406 6
-6 3 -11 324.984 527.077 8
6 -3 -11 -252.988 238.852 1
-11 6 -3 163.832 271.984 6
11 -6 -3 296.545 319.919 1
11 -3 6 61.8073 668.181 4
6 -3 -11 -485.504 424.399 8
5 -6 11 1580.64 702.354 3
-11 7 2 1750.31 306.012 6
-7 -2 -11 1811.67 583.275 8
-11 2 -7 1178.23 520.402 8
-11 -2 7 2149.82 324.098 6
-7 0 -11 7137.66 369.864 5
-7 0 11 5511.58 419.556 7
7 0 11 5052.64 747.897 3
-11 0 -7 6289.12 583.696 8
-7 0 -11 6646.42 630.819 8
-11 0 -7 6097.48 360.072 6
7 0 -11 5058.53 440.432 8
11 0 -7 7451.32 810.254 4
-7 2 -11 1245.65 490.583 8
-11 -2 -7 1705.27 264.017 5
7 2 11 1358.84 409.631 2
7 -2 -11 1132.19 415.447 8
11 -6 7 -1328.93 483.018 1
11 -7 -6 -536.468 490.518 1
-7 6 -11 -825.535 396.444 5
11 2 9 -1852.2 605.707 2
11 0 -9 2585.96 1006.46 4
9 0 -11 1649.68 961.807 4
11 0 9 1419.89 950.114 3
11 0 9 1132.81 525.565 2
-11 0 9 1507.4 406.472 6
-9 0 11 -44.5417 388.537 6
-10 7 -11 -127.314 329.358 5
-11 4 -11 -1072.23 685.805 8
11 -4 11 -1651.4 885.304 3
11 -4 -11 -737.717 1013.73 4
-11 6 -11 -775.379 701.853 8
-12 0 0 1538.63 145.995 5
-12 0 0 1812.4 382.394 7
0 0 -12 1538.8 446.215 8
-1 1 -12 1481.27 467.202 8
1 1 -12 977.383 435.598 8
-12 -1 -1 970.553 168.436 5
1 1 12 919.704 625.189 3
-1 1 -12 1305.92 236.731 5
1 1 12 1274.63 340.47 2
-12 1 -1 1093.49 337.499 8
-1 -1 -12 1225.57 511.329 8
1 -1 -12 1090.6 486.737 8
-12 -1 -1 989.261 272.572 6
0 2 -12 184.908 460.861 8
-12 2 0 572.952 291.892 8
-2 0 -12 355.216 234.343 5
-12 2 0 551.302 273.073 6
-12 0 -2 351.665 269.047 6
0 -2 -12 787.645 512.782 8
-12 0 2 299.859 270.983 6
-2 0 -12 2.95653 498.264 8
-12 -2 0 1228.94 288.159 6
2 0 -12 314.411 404.629 8
12 0 -2 196.761 676.177 4
-2 2 -12 1090.47 489.784 8
2 2 -12 682.062 447.604 8
2 -2 -12 195.542 484.636 8
-12 2 2 478.916 416.25 7
2 2 12 1080.24 346.907 2
-12 2 -2 943.043 150.223 5
-2 2 12 876.366 152.61 6
-12 2 2 637.811 283.181 6
-2 -2 -12 1495.43 516 8
-12 2 -2 561.157 269.602 6
3 1 -12 959.343 426.646 8
-1 3 -12 1320.17 470.921 8
12 -3 1 1734.72 305.994 1
1 -3 -12 2610.31 504.62 8
-1 -3 12 2474.38 609.517 3
-12 1 -3 1378.7 410.795 8
-12 3 1 1774.64 288.591 6
-3 1 12 1361.02 170.153 6
-3 -1 -12 1574.61 533.263 8
-12 -1 3 1895.06 304.65 6
-3 1 -12 1418.1 459.837 8
-12 -3 1 1525.35 290.024 6
-12 3 -1 1729.55 154.635 5
12 -1 3 1377.06 294.962 2
-12 3 -1 1884.21 409.034 7
-12 -1 -3 1117.09 388.63 7
-1 -3 -12 1629.44 533.6 8
-12 3 -1 1510.66 289.995 6
-12 1 3 1465.81 283.686 6
3 -1 -12 1499.44 484.309 8
-12 -1 -3 1335.41 282.664 6
-12 3 -1 1231.87 302.353 8
-12 -3 3 609.932 302.094 6
-3 3 -12 1871.41 505.812 8
12 3 -3 515.233 707.334 4
-3 -3 -12 906.728 277.624 5
3 -3 -12 1155.93 243.356 5
12 -3 -3 803.291 316.041 1
3 -3 -12 1991.86 493.186 8
-3 -3 -12 1062.33 529.516 8
-12 3 -3 418.692 354.728 8
4 2 -12 235.491 437.26 8
-12 -2 4 -117.54 400.26 7
2 -4 -12 -501.114 506.134 8
-4 2 12 283.199 201.425 6
-4 -2 -12 -149.607 537.367 8
-12 2 -4 -625.075 447.964 8
-12 0 -4 3418.88 453.617 8
0 4 -12 3365.91 497.639 8
-12 0 4 3285.03 423.742 7
-12 0 -4 3156.03 404.596 7
-12 4 0 3492.25 318.213 6
-4 0 12 3470.05 230.373 6
0 -4 -12 3753.02 524.059 8
-4 0 -12 4166.49 572.616 8
12 0 -4 3889.62 751.191 4
4 0 -12 2839.93 426.894 8
-12 -2 -4 6.30944 294.084 6
-4 2 -12 230.692 488.418 8
-12 -2 -4 -117.226 227.807 5
4 -2 -12 438.712 478.127 8
12 -2 4 -1240.81 497.893 3
-2 -4 -12 354.117 540.15 8
-12 4 -4 968.267 414.017 8
-4 4 -12 1456.18 545.578 8
-4 -4 -12 1188.57 301.784 5
4 -4 -12 1279.59 250.628 5
-12 4 4 1296.91 484.843 7
12 -4 4 1303.42 334.099 1
-12 4 -4 1407.1 217.201 5
4 -4 -12 2067.03 504.346 8
-4 -4 -12 1355.77 596.639 8
12 -4 -4 1225.91 335.401 1
-12 3 -5 37.7077 433.295 8
-12 -3 5 509.754 313.207 6
12 -5 3 115.558 340.406 1
3 -5 -12 644.76 280.519 5
-5 -3 -12 787.398 289.713 5
12 -3 -5 655.973 339.415 1
5 -3 12 1373.75 719.791 3
-5 -3 -12 120.305 577.836 8
-12 5 3 385.373 313.172 6
5 1 -12 2466.13 445.002 8
-12 1 -5 2478.78 232.633 5
-1 5 -12 2731.46 549.435 8
-12 5 1 1934.4 502.089 7
-12 1 -5 2713.95 500.48 8
-12 1 -5 1949.01 287.597 6
-5 -1 -12 1867.83 576.275 8
-12 -1 5 2225.54 316.035 6
12 1 -5 2531.87 752.406 4
1 -5 12 2197.43 673.72 3
-12 -1 -5 2115.89 415.703 7
-5 1 -12 2618.06 279.402 5
5 -1 -12 1752.22 233.642 5
5 1 12 1479.71 385.308 2
-12 -1 -5 2269.39 500.588 8
5 -1 -12 1716.96 468.15 8
-5 1 -12 1472.48 511.514 8
-5 3 -12 956.494 516.209 8
12 -3 5 74.5289 330.089 1
-12 5 -3 860.844 510.319 7
-5 -3 12 871.983 293.021 7
-12 -3 -5 630.492 415.378 7
-5 3 -12 564.475 256.501 5
-12 3 5 383.637 325.072 6
5 -3 -12 516.028 485.675 8
6 0 -12 -1590.46 606.718 4
12 0 6 326.251 380.198 2
-12 6 0 857.548 497.363 7
-12 0 -6 -211.407 299.835 6
-6 0 -12 -9.57323 274.439 5
-12 6 0 520.891 312.887 6
-12 0 -6 -736.782 530.086 8
12 -6 0 -158.615 358.469 1
-6 0 -12 -47.2014 593.097 8
6 0 -12 133.628 411.181 8
-12 7 3 2435.12 424.052 6
-12 7 3 3340.97 687.783 7
-7 3 12 534.506 781.114 3
7 -3 12 49.5312 959.572 3
7 3 12 2867.98 560.419 2
-7 -3 12 2073.12 457.336 7
12 -7 -3 561.445 471.665 1
7 -3 -12 1287.18 913.157 4
-12 8 8 487.407 394.58 6
-12 7 -9 -584.378 360.101 6
-9 5 12 -738.436 393.479 6
-12 5 9 -1855.45 649.473 7
12 -5 9 -1252.74 426.644 1
-9 7 -12 217.896 349.302 5
-12 6 -10 93.1493 687.114 8
-10 6 12 309.191 385.225 6
-12 4 -10 -1398.6 690.288 8
-10 -2 -12 -1227.13 401.466 5
-12 2 -10 -998.072 355.809 6
-12 2 10 -1303.82 418.565 6
-10 4 -12 -1205.89 714.24 8
-12 4 10 -52.0445 617.83 7
12 -4 10 -291.588 857.325 3
-12 4 10 -198.467 407.731 6
12 -4 10 -589.392 872.489 4
-10 6 -12 587.909 712.598 8
-10 6 -12 -45.9179 355.771 5
-12 7 -11 149.198 711.086 8
11 -7 12 689.636 942.846 3
-12 5 -11 887.154 671.002 8
-11 -3 -12 24.9588 763.566 8
-12 3 -11 394.843 648.468 8
-12 1 -11 309.488 335.311 5
-11 -1 -12 842.434 748.972 8
-12 1 -11 -929.068 772.642 8
-11 1 12 249.509 384.152 6
12 -1 11 135.171 509.028 2
-12 -1 -11 761.146 745.933 8
-11 1 -12 559.733 750.758 8
-11 -1 12 409.588 402.525 6
11 3 12 128.942 529.109 2
-11 -3 12 -496.294 477.449 7
-12 -3 -11 -1004.43 772.277 8
-11 3 -12 -782.557 679.534 8
-11 5 -12 187.564 704.247 8
-12 5 11 -199.502 406.996 6
-12 0 -12 -765.019 786.821 8
12 -2 -12 158.982 369.281 1
-12 -2 -12 -254.296 365.946 5
-12 -2 -12 -761.129 751.203 8
12 -2 12 6.01192 502.139 2
-12 2 -12 651.362 755.272 8
-12 4 -12 -305.731 663.535 8
-12 -4 -12 208.885 373.372 5
-12 6 12 618.293 415.624 6
0 1 -13 72.0912 483.034 8
1 0 -13 -404.357 259.853 5
0 1 -13 -138.617 249.195 5
0 -1 -13 466.203 539.182 8
-13 -1 0 4.47387 307.7 6
-1 0 -13 114.28 531.043 8
1 0 -13 -239.378 489.535 8
2 1 -13 3503.57 519.074 8
-1 2 -13 3678.3 536.482 8
1 -2 -13 5057.5 325.606 5
-13 -1 2 3782.46 478.815 7
-13 -1 2 4272.14 368.216 6
-13 -2 -1 4426.79 373.599 6
1 -2 -13 3096.73 574.486 8
-2 -1 -13 3492.83 614.756 8
-2 1 -13 2953.43 516.62 8
1 2 -13 3912.66 523.708 8
-2 1 -13 3673.19 303.918 5
1 2 -13 3892.32 295.351 5
-13 2 -1 4784.91 493.987 7
-1 -2 -13 4223.15 600.113 8
-13 -1 -2 4047.38 469.403 7
-13 1 2 4054.12 341.92 6
-13 -1 -2 3739.83 343.792 6
2 -1 -13 3940.28 578.13 8
13 3 -2 -142.414 785.812 4
-3 -2 -13 369.344 583.288 8
-13 3 0 7743.91 571.164 7
13 -3 0 7369.03 460.727 1
-13 0 -3 6890.51 533.856 8
0 -3 -13 7143.84 639.14 8
-13 0 3 8725.51 447.539 6
-13 0 -3 7664.46 439.593 6
-3 0 -13 7726.74 661.658 8
3 0 -13 6503.55 564.572 8
0 3 -13 7408.71 632.818 8
-13 -3 2 1294.1 345.451 6
-3 2 -13 1075.47 540.765 8
-13 -2 -3 315.053 229.889 5
-2 -3 -13 960.013 605.906 8
13 -6 1 -138.349 513.91 1
6 1 -13 -1270.81 644.042 8
6 1 -13 113.619 337.807 5
-6 -1 -13 -1486.39 887.393 8
13 -6 -1 -563.888 522.107 1
-13 -1 -6 -898.162 340.699 5
13 -1 6 -38.3226 540.434 2
-13 -1 -6 -1637.59 626.983 7
-6 1 -13 -756.267 408.902 5
6 1 13 -1603.57 581.71 2
-13 -1 -6 -547.496 458.41 6
-13 6 -7 -1894.71 644.898 8
-13 6 -7 -438.039 400.67 6
-13 7 -6 -560.255 605.76 8
-13 7 -6 -454.14 654.026 7
-13 6 7 -1009.6 656.681 7
-13 5 -8 -1097.09 637.484 8
-13 5 -8 607.991 304.042 5
-8 5 -13 -492.633 725.38 8
-13 5 8 -334.075 631.924 7
-8 5 -13 370.292 350.459 5
-13 5 8 2.39111 420.1 6
-13 8 -9 -92.7446 385.826 6
-13 6 -9 608.79 662.301 8
-13 4 -9 -78.3859 608.325 8
-9 4 13 -611.478 361.405 6
-9 -4 -13 -860.71 786.13 8
-9 2 13 -450.307 511.194 7
-13 2 -9 -1901.21 755.513 8
13 0 9 -2578.44 911.861 4
13 2 -9 -3278.13 1036.3 4
-13 2 9 -1568.97 595.587 7
-13 -2 -9 -1833.81 763.984 8
-9 4 -13 90.0093 728.956 8
9 4 13 -430.238 558.779 2
-9 6 -13 76.1226 361.447 5
-13 7 -10 -595.021 716.414 8
-13 5 -10 -260.275 671.589 8
-10 -3 -13 1113.13 775.27 8
-13 3 -10 247.891 737.839 8
13 1 10 773.6 802.682 4
-10 -1 -13 -166.973 354.796 5
-10 -1 -13 -451.857 762.738 8
-13 1 -10 -1288.59 732.014 8
13 -1 -10 341.941 1002.23 4
-13 -1 -10 -74.7515 333.053 6
-13 -1 -10 -449.844 708.412 8
-10 1 -13 191.054 765.18 8
-10 -1 13 44.364 351.122 6
-10 3 -13 -587.79 665.693 8
13 -3 10 192.068 400.013 1
13 -3 10 289.713 478.729 2
13 -5 10 262.513 413.296 1
13 -5 10 -267.524 858.44 3
-13 6 -11 -39.8875 717.509 8
-13 4 -11 -146.761 667.972 8
-11 4 13 -2.25147 395.346 6
11 -2 13 700.452 499.7 2
-11 -2 -13 413.347 380.556 5
-13 2 -11 -650.585 766.625 8
13 0 11 266.785 512 2
-13 0 -11 262.152 341.879 5
-13 0 -11 -50.7055 760.812 8
-11 0 -13 -563.908 791.423 8
-13 -2 -11 1584.62 766.51 8
-11 -2 13 178.258 484.368 7
-11 2 -13 167.961 339.373 5
-11 2 -13 461.757 762.522 8
-11 4 -13 164.275 343.914 5
-13 8 11 301.589 446.188 6
13 -3 -12 293.096 1054.43 4
-13 3 -12 1205.94 813.299 8
-13 1 -12 49.6166 817.227 8
-12 1 13 697.398 392.275 6
-13 -1 12 733.734 425.105 6
-13 -1 -12 516.196 359.476 5
-13 -1 -12 564.758 793.871 8
-13 1 12 146.33 416.118 6
-12 -1 13 1161.45 433.224 6
-13 -3 -12 585.017 382.288 5
13 -3 12 1184.9 538.122 2
-12 7 -13 1596.71 788.491 8
13 -2 -13 -232.323 439.46 1
-13 4 13 -235.473 676.305 7
-13 6 -13 -643.454 782.098 8
-13 6 13 -224.874 653.381 7
13 -6 -13 -1427.48 481.682 1
-13 8 -13 -1464.33 823.681 8
-13 8 -13 -583.046 420.69 5
-14 -2 -2 375.895 451.802 6
-2 2 -14 -854.099 754.669 8
14 2 2 339.98 1106.47 4
2 2 14 891.762 544.416 2
-14 -2 2 1511.94 609.114 7
-14 -2 -2 723.844 592.726 7
-2 2 -14 -238.92 383.58 5
2 2 -14 -466.61 365.36 5
-2 -2 14 -504.828 954.629 3
-2 -2 -14 1059.76 834.551 8
14 -2 -2 -608.213 1141.56 4
-14 -3 -1 -1291.97 489.487 6
1 -3 -14 -1252.09 398.284 5
-3 -1 -14 -981.978 422.904 5
-1 3 -14 -755.625 397.83 5
-1 -3 -14 -1924.63 876.52 8
1 3 -14 -1882.49 751.047 8
-6 4 -14 -945.329 379.766 5
-14 6 -4 -1405.11 453.335 6
-14 6 6 569.491 420.411 6
-14 5 -7 1740.35 602.251 8
-14 7 5 752.577 634.594 7
-14 7 5 704.641 412.278 6
-14 5 -7 1016.89 387.511 6
-14 -3 7 281.779 425.424 6
7 3 -14 -1505.67 623.242 8
-14 7 3 -984.896 693.684 7
-7 -3 -14 -45.1568 373.229 5
-14 3 -7 212.031 294.004 5
14 -7 3 -240.912 464.782 1
-7 -3 -14 -1065.47 795.779 8
-14 3 -7 -813.466 676.364 8
-14 3 7 80.6791 420.567 6
-14 7 -3 -419.617 396.561 6
-7 5 -14 1532.32 718.951 8
-7 5 -14 763.859 347.65 5
5 -7 14 1869.89 932.922 3
-14 7 -7 218.46 623.494 8
-14 6 -8 1050.64 664.541 8
-14 4 -8 -585.358 601.727 8
-8 -4 -14 345.166 391.274 5
-14 8 4 -125.887 395.685 6
-14 8 2 1657.67 405.997 6
14 -2 -8 1206.84 417.688 1
-8 -2 -14 2480.34 801.082 8
-14 2 -8 915.835 703.541 8
-8 0 -14 -184.348 360.467 5
-14 0 -8 -10.2714 719.474 8
-8 0 -14 -1385.67 795.623 8
-14 0 8 -627.121 417.81 6
-14 0 -8 -299.337 371.899 6
8 2 14 1795.27 508.185 2
-8 2 -14 516.886 714.222 8
14 -2 8 1450.07 412.14 1
14 -4 8 115.397 949.555 4
-14 6 8 -49.1483 649.314 7
-14 7 -9 -672.146 699.805 8
-14 5 -9 -248.388 652.455 8
-14 5 -9 -78.8831 641.753 7
-14 3 -9 125.594 702.68 8
-14 1 -9 459.783 713.628 8
14 -1 9 -434.425 877.085 4
-9 1 -14 178.085 367.845 5
-14 -1 -9 -14.7849 711.316 8
-14 -3 -9 322.442 343.588 5
-14 3 9 905.32 603.884 7
-9 3 -14 526.061 347.728 5
14 -3 9 -153.813 468.744 2
-9 7 -14 -694.414 753.992 8
-14 8 -10 676.554 779.367 8
-14 6 -10 -593.639 688.965 8
-10 -4 -14 387.613 790.94 8
-14 4 -10 662.873 650.105 8
-14 2 -10 -647.238 754.707 8
-14 0 -10 459.753 755.59 8
-14 2 10 249.3 588.144 7
-14 -2 -10 -315.496 759.442 8
-14 4 10 291.428 598.291 7
-14 4 10 811.891 434.197 6
-10 6 -14 602.501 789.774 8
-14 5 -11 -24.6519 695.869 8
-11 -3 -14 280.452 856.277 8
-14 3 -11 491.512 782.932 8
-14 1 -11 -133.696 791.012 8
14 -1 11 58.335 539.853 2
-14 -1 -11 97.874 781.873 8
11 3 14 417.488 572.141 2
-14 -3 -11 -73.7927 360.808 5
-11 5 -14 728.924 758.703 8
14 -5 11 -238.268 972.617 3
-11 7 -14 -577.279 793.453 8
-14 8 -12 -570.532 805.99 8
12 -2 14 -116.726 555.817 2
-12 -2 -14 -811.974 834.203 8
14 0 -12 403.719 1128.71 4
-14 0 -12 130.184 356.625 5
-12 0 -14 563.813 881.287 8
-14 2 12 -36.8338 607.513 7
-12 2 -14 218.934 834.492 8
-12 4 -14 3.89997 740.545 8
14 -4 12 676.372 990.855 3
-12 8 -14 351.885 849.709 8
-12 8 -14 -649.613 441.303 5
-14 7 -13 37.4163 825.929 8
-13 -3 -14 -1616.08 953.197 8
-14 3 -13 -794.4 875.16 8
14 -1 -13 57.7288 1161.84 4
-13 -1 -14 -736.913 900.517 8
-14 1 -13 -729.342 912.226 8
13 1 14 803.044 1091.91 3
-13 1 -14 142.972 375.091 5
14 -1 13 -468.164 566.831 2
-14 -1 -13 708.71 849.138 8
-13 1 -14 355.507 872.534 8
-14 -3 -13 -216.589 406.576 5
-13 3 -14 -835.423 404.824 5
-14 -3 -13 -1023.98 868.471 8
-13 3 -14 -2133.13 896.528 8
-13 7 -14 -622.877 846.819 8
-14 7 13 235.769 725.36 7
14 -7 13 -539.378 1076.06 3
-14 4 -14 -1096.05 814.652 8
-14 6 -14 -482.145 859.073 8
-3 4 -15 -922.123 387.696 5
-3 -4 15 -2413.23 914.02 3
-3 -4 -15 -1234.32 441.091 5
3 4 -15 -1088.35 371.177 5
-4 5 -15 1124.13 725.738 8
-5 -4 -15 709.756 374.615 5
-5 -4 -15 754.663 785.652 8
5 2 -15 -2085.69 645.511 8
-5 2 15 -40.4801 451.278 2
5 2 -15 85.8193 332.18 5
-2 5 -15 723.103 378.295 5
2 -5 -15 -1444.5 733.457 8
-5 -2 -15 -1922.02 820.188 8
-15 2 -5 339.296 394.719 6
-5 2 -15 -1161.37 714.089 8
-15 -2 -5 378.443 415.06 6
5 2 15 -491.719 543.102 2
-15 2 5 -898.361 618.204 7
15 -5 -2 -647.368 471.039 1
-15 -2 -5 -435.899 583.626 7
2 5 -15 536.168 359.966 5
-5 -2 15 -795.851 849.972 3
15 -5 -2 -2205.37 1099.44 4
5 -2 -15 -2151.55 719.719 8
15 -2 5 -2978.99 999.047 4
5 4 15 315.941 542.141 2
-4 -5 -15 647.135 398.264 5
-15 5 -4 474.152 664.406 7
-15 4 5 -14.2712 632.637 7
-4 -5 -15 1358.32 770.722 8
5 -4 -15 -372.754 644.483 8
-15 5 -4 -207.747 398.389 6
-15 -3 6 392.128 419.092 6
15 -6 3 -170.855 461.396 1
6 3 -15 -88.5421 615.346 8
-6 -3 -15 140.142 377.001 5
6 1 -15 -115.84 557.091 8
15 1 6 -791.984 987.013 4
-6 -1 -15 806.155 372.282 5
-15 -1 6 226.814 571.044 7
-6 1 15 -769.479 813.502 3
-15 6 1 754.438 406.599 6
-6 -1 -15 736.332 827.188 8
-15 1 -6 169.973 393.067 6
15 -1 6 -471.267 964.241 4
-15 6 -1 223.596 699.621 7
-15 -1 -6 522.971 295.944 5
6 1 15 -252.473 998.877 3
-15 1 6 555.642 551.939 7
-6 1 -15 550.297 366.454 5
6 1 15 682.343 518.82 2
6 -1 -15 133.409 642.233 8
-6 1 -15 1145.2 820.121 8
15 -3 6 -590.48 412.541 1
6 -3 -15 140.611 612.193 8
-15 6 -3 219.083 401.408 6
-6 7 -15 4.10416 746.485 8
7 2 -15 353.536 583.78 8
15 2 7 -188.159 910.228 4
7 -2 15 632.641 936.383 3
-15 -2 7 563.579 437.323 6
-15 0 -7 1291.81 685.752 8
-15 -2 -7 559.983 321.697 5
-15 7 -2 482.104 695.048 7
-15 2 7 895.219 568.146 7
15 -2 7 185.724 433.984 2
15 -4 7 -7.75324 442.535 1
-15 4 7 47.434 427.909 6
-7 6 -15 724.786 730.378 8
-15 7 -6 453.846 411.462 6
15 -5 -8 1402.54 1124.69 4
-15 3 -8 159.282 301.826 5
-15 3 -8 199.053 363.533 6
-15 3 -8 596.378 702.127 8
-15 1 -8 692.069 312.598 5
-15 1 -8 -48.2511 722.26 8
-15 1 8 -29.3777 560.671 7
-15 -1 -8 614.201 715.276 8
-15 -3 -8 -238.512 553.219 7
-15 8 -3 211.992 399.247 6
-15 3 8 269.639 428.219 6
-8 5 -15 538.056 728.866 8
15 -5 8 629.929 472.412 1
-8 7 -15 270.908 778.725 8
15 -7 8 427.82 485.073 1
-15 9 8 -220.768 471.223 6
-15 6 -9 312.744 695.083 8
-9 -4 -15 -198.595 808.482 8
-15 4 -9 -86.893 658.92 8
-9 -2 -15 243.529 791.579 8
9 -2 15 921.208 522.972 2
-15 2 -9 -808.373 742.274 8
-15 2 -9 -282.391 372.123 6
-15 0 -9 -221.964 724.011 8
15 2 -9 136.108 1048.26 4
9 2 15 803.86 545.333 2
-15 -2 -9 -147.215 333.735 5
-15 2 9 -488.788 618.937 7
-9 2 -15 285.918 800.147 8
-9 4 -15 356.176 750.694 8
-9 6 -15 37.971 781.173 8
-9 6 -15 300.732 381.547 5
-15 7 -10 -701.66 766.455 8
-15 5 -10 -280.549 696.19 8
10 -5 15 16.0326 1013.58 3
-10 -3 -15 375.729 392.819 5
-10 -3 -15 440.202 868.569 8
-15 3 -10 847.634 800.599 8
-10 -1 -15 759.034 828.621 8
-15 1 -10 -131.379 780.758 8
-15 -1 10 274.576 444.318 6
10 1 15 -480.56 546.978 2
-15 -1 -10 -58.4765 356.445 5
-15 -1 -10 52.3791 767.77 8
-15 1 10 -105.577 438.556 6
-10 1 -15 132.314 856.259 8
-10 3 -15 -3.90656 734.839 8
-10 5 -15 -992.171 775.486 8
11 -4 15 58.6432 1025.38 3
-11 -4 -15 544.019 907.972 8
-15 4 -11 -310.433 832.592 8
-15 -2 11 264.317 462.5 6
-11 -2 -15 1061.76 886.371 8
-15 2 -11 365.849 826.901 8
-15 0 -11 -75.0835 832.451 8
-11 0 -15 -404.532 868.882 8
-11 2 -15 -430.54 399.206 5
-15 -2 -11 -30.5846 824.313 8
-11 2 -15 353.883 877.94 8
-11 4 -15 295.998 775.816 8
15 -4 11 377.849 957.312 3
-15 8 11 -29.9771 742.104 7
-11 8 -15 236.855 429.068 5
-15 7 -12 1044.64 775.535 8
-12 -1 -15 556.341 864.367 8
-12 1 -15 -509.112 400.073 5
-12 1 -15 -497.149 964.403 8
-12 7 -15 -1147.14 898.943 8
-12 7 -15 -413.529 417.158 5
-15 6 -13 736.001 772.054 8
15 -6 -13 351.858 519.739 1
-13 -4 -15 617.468 432.463 5
13 -4 15 -645.326 1090.91 3
-15 4 -13 -473.016 888.411 8
15 2 13 63.7292 629.993 2
-13 4 -15 305.229 814.807 8
-13 6 -15 648.046 897.312 8
14 -3 15 1350.97 1160.34 3
-14 -3 -15 111.881 976.632 8
-15 3 -14 793.211 960.663 8
-14 -1 -15 -408.716 937.327 8
-15 1 -14 -84.1805 923.233 8
-15 -1 -14 214.906 959.171 8
-14 1 -15 337.197 957.968 8
-15 -3 -14 -772.449 942.351 8
-14 3 -15 564.631 951.735 8
0 0 16 397.385 482.515 2
0 0 -16 -886.831 765.969 8
-16 1 1 -734.231 603.951 7
-16 1 -1 -1917.95 608.563 7
-16 -1 -1 -1460.33 568.077 7
-1 1 -16 -133.571 365.975 5
1 1 -16 -632.041 357.456 5
-1 -1 -16 -1458.88 808.823 8
-16 1 1 -748.078 424.594 6
1 -1 -16 -2153 759.466 8
16 -1 -1 -2281.02 1101.01 4
-1 1 -16 -994.318 694.995 8
1 1 -16 -1538.48 649.13 8
16 0 -2 -1030.64 1047.86 4
0 2 -16 -1814.64 696.045 8
16 2 0 -1419.09 1038.43 4
-16 0 2 -844.37 583.282 7
-16 -2 0 -314.715 572.536 7
2 0 -16 -567.933 337.991 5
0 -2 -16 -1429.86 764.274 8
-2 0 -16 -459.668 775.607 8
2 0 -16 -998.48 703.378 8
-2 2 -16 -873.158 655.871 8
2 2 -16 -364.887 664.816 8
16 2 -2 -1662.43 1037.8 4
16 2 2 -1001.07 999.524 4
2 2 16 -200.95 508.715 2
-16 2 -2 -13.2845 619.067 7
-2 2 16 -123.041 922.169 3
-16 -2 2 -125.546 557.956 7
2 2 -16 -376.861 341.916 5
-2 -2 -16 -895.967 768.588 8
2 -2 -16 -3.62589 747.725 8
16 -2 -2 -1108.87 1032.12 4
3 1 -16 -544.097 638.307 8
-1 3 -16 -198.333 717.244 8
16 3 -1 -1443.04 1032.47 4
-3 -1 -16 -328.26 369.63 5
-16 -1 3 455.767 550.512 7
1 -3 -16 -185.869 725.686 8
16 -3 1 2.67274 437.993 1
-3 -1 -16 -454.495 777.724 8
16 1 -3 -1092.89 1053.02 4
1 3 -16 3.3993 650.766 8
-1 3 16 -212.355 484.467 2
-16 3 -1 -509.518 600.755 7
-16 1 3 277.852 567.521 7
-16 -3 1 710.861 550.913 7
-3 1 -16 -483.88 361.242 5
-1 -3 -16 -581.941 777.067 8
3 -1 -16 363.664 697.968 8
16 -3 -1 -1780.83 1062.72 4
-3 1 -16 -1024.09 693.62 8
-16 -3 3 1262.44 433.415 6
3 3 -16 1023.36 673.064 8
16 -3 3 1420.38 442.715 1
-3 3 16 800.479 479.159 2
-16 3 -3 1901.06 628.079 7
3 -3 -16 1397.06 341.971 5
-16 -3 -3 723.367 574.079 7
-3 -3 -16 73.8281 778.885 8
3 -3 -16 1750.08 708.461 8
4 2 -16 -798.31 632.873 8
-4 2 16 -640.481 473.985 2
2 -4 -16 482.7 699.565 8
-16 4 2 266.791 421.035 6
-16 -2 4 141.614 466.723 6
16 0 4 317.863 1048.98 4
0 -4 -16 -1202.8 745.723 8
-16 4 0 212.878 415.638 6
-16 0 4 -149.843 409.614 6
4 0 -16 -73.3066 695.614 8
-16 -2 -4 19.6384 421.461 6
2 4 -16 3.50651 679.174 8
-16 4 -2 -347.869 636.625 7
-16 -2 -4 -618.054 552.714 7
-4 2 -16 128.295 354.314 5
-2 -4 -16 945.342 742.512 8
4 -2 -16 -413.308 688.187 8
16 -4 -2 -167.407 1054.71 4
4 4 -16 -165.875 685.564 8
4 -4 -16 -807.013 696.685 8
5 3 -16 371.31 669.118 8
-5 3 16 -213.562 900.382 3
3 -5 -16 -401.737 712.445 8
5 3 -16 567.208 334.889 5
5 1 -16 2.91169 597.024 8
-5 -1 -16 500.346 368.815 5
1 -5 -16 338.197 721.044 8
16 -1 5 -494.766 995.788 4
-5 1 -16 702.269 364.788 5
-1 -5 -16 -140.026 743.34 8
1 5 -16 366.843 359.897 5
-16 5 -1 1132.62 403.49 6
-16 1 5 269.458 420.454 6
5 -1 -16 1173.6 685.102 8
5 -3 -16 26.8683 666.903 8
-5 5 -16 -85.1837 757.056 8
-5 -5 -16 1228.69 789.35 8
-16 5 -5 1303 418.337 6
-4 6 -16 -456.228 727.141 8
6 4 -16 88.0058 645.915 8
-6 -4 -16 825.695 792.005 8
6 2 -16 -630.157 634.103 8
-16 2 -6 -199.557 385.993 6
16 -2 -6 681.264 1077.6 4
6 0 -16 392.306 676.076 8
-16 -2 -6 303.762 414.061 6
6 -2 -16 945.946 654.237 8
-6 4 -16 1147.09 733.808 8
-6 6 -16 142.71 767.453 8
-7 -5 -16 1386.15 839.328 8
-3 7 -16 -378.652 723.478 8
-7 -3 -16 292.698 804.274 8
-7 -1 -16 1840.4 817.098 8
-16 1 -7 259.771 399.007 6
-7 1 -16 279.998 774.646 8
-16 -1 -7 529.794 425.466 6
-7 3 -16 -752.812 706.629 8
-7 5 -16 -138.553 765.793 8
-7 5 -16 167.205 376.45 5
-7 7 -16 -379.07 811.689 8
16 -6 -8 743.988 501.038 1
-16 6 -8 335.156 417.435 6
-8 -4 -16 -74.8875 838.697 8
-8 -2 -16 -23.5024 383.458 5
16 -8 2 -801.899 488.257 1
-16 8 2 -498.28 435.682 6
-8 -2 -16 875.556 813.343 8
8 -2 16 -190.589 526.33 2
-8 0 -16 430.551 383.698 5
8 0 16 863.181 530.916 2
-8 0 -16 545.212 832.25 8
-16 -2 -8 318.516 330.426 5
-8 2 -16 477.599 803.618 8
-8 4 -16 1526.92 775.258 8
-8 6 -16 894.088 793.312 8
16 -8 -6 276.376 489.69 1
-8 6 -16 -166.885 385.145 5
-16 6 8 -263.176 454.003 6
-16 -3 9 1678.92 607.15 7
-16 9 3 68.542 430.692 6
-9 -3 -16 1135.75 841.864 8
-9 -1 -16 -204.341 396.68 5
-9 -1 -16 900.757 823.838 8
-16 -1 -9 -480.814 424.575 6
16 -1 9 804.136 519.146 2
-16 -1 -9 -536.906 353.04 5
9 1 16 558.61 1038.6 3
-16 -1 -9 323.384 785.973 8
-16 9 -1 -375 423.733 6
-9 1 -16 -279.865 840.37 8
-16 9 -3 21.972 421.105 6
-9 3 -16 328.743 753.918 8
-9 5 -16 -1006.69 784.719 8
16 -5 9 59.443 495.606 1
16 -5 9 265.69 1068.8 4
-10 -4 -16 776.112 921.571 8
16 -2 -10 819.537 454.183 1
-10 -2 -16 -312.715 860.075 8
-16 2 -10 552.06 836.397 8
-10 0 -16 44.9705 399.111 5
-16 0 -10 282.602 796.875 8
-10 0 -16 609.592 894.794 8
-10 2 -16 146.683 871.718 8
10 4 16 382.77 627.402 2
16 -4 10 647.652 935.591 3
-10 8 -16 125.114 871.789 8
16 -7 -11 -235.345 505.358 1
16 -5 -11 -1629.42 1209.51 4
16 -5 11 -875.363 1001.62 3
-11 7 -16 162.051 910.14 8
-16 7 11 60.8416 761.622 7
-12 -4 -16 30.9038 963.05 8
-16 4 -12 768.409 868.274 8
-12 -2 -16 302.635 912.389 8
-16 -2 -12 -436.258 886.378 8
12 4 16 212.812 663.041 2
-16 4 12 -174.381 727.561 7
-12 4 -16 987.616 869.019 8
-16 -1 13 380.999 681.205 7
16 -1 -13 -51.6299 500.083 1
-13 -1 -16 -488.91 940.245 8
-16 1 -13 889.239 904.536 8
-16 -1 -13 656.588 423.496 5
-13 1 -16 -503.958 440.328 5
-16 -1 -13 -699.628 935.736 8
-13 1 -16 670.797 941.872 8
17 0 1 1101.28 1061.05 4
0 1 -17 601.649 370.533 5
0 -1 -17 1108.74 762.202 8
-1 0 -17 339.475 751.293 8
1 0 -17 99.2566 746.79 8
0 1 -17 -160.229 658.115 8
17 1 2 655.289 1049.93 4
1 2 17 -588.432 989.889 3
1 2 17 357.82 505.861 2
1 -2 -17 930.385 743.806 8
2 1 -17 -223.355 648.668 8
17 -1 2 -1054.96 1045.99 4
1 2 -17 -160.665 689.644 8
-1 -2 -17 686.337 796.122 8
2 -1 -17 -166.35 763.18 8
-17 -1 -2 554.191 437.304 6
3 2 -17 -1547.82 655.053 8
3 2 -17 267.485 354.442 5
2 -3 -17 3.84054 745.943 8
0 3 17 515.913 511.029 2
0 -3 -17 -876.557 760.167 8
3 0 -17 966.538 742.641 8
-17 -2 -3 518.695 437.68 6
2 3 -17 -180.252 673.918 8
-2 3 17 -929.24 490.958 2
-17 2 3 -156.93 599.181 7
-17 -3 2 213.124 585.126 7
3 -2 -17 436.343 741.695 8
17 -3 -2 111.144 445.923 1
-3 4 -17 825.381 713.778 8
4 3 -17 380.728 675.564 8
3 -4 -17 -893.582 752.875 8
-4 -3 -17 -1413.74 818.07 8
-3 -4 17 750.41 914.831 3
1 -4 -17 815.418 746.729 8
4 1 -17 -258.28 625.395 8
4 -1 -17 -3.60659 711.454 8
-4 1 -17 1698.8 811.792 8
-17 -1 -4 551.271 418.547 6
-4 3 -17 563.751 726.606 8
3 4 -17 -222.352 686.845 8
4 -3 -17 262.403 363.118 5
3 4 -17 -140.53 378.524 5
4 -3 -17 483.784 709.38 8
-4 5 -17 903.842 766.396 8
5 4 -17 -594.478 716.581 8
4 -5 -17 564.635 761.309 8
-5 -4 -17 4.54712 826.08 8
5 2 -17 600.665 682.564 8
-2 5 -17 149.798 732.078 8
-5 -2 -17 4.39871 845.03 8
-17 5 2 147.735 433.299 6
-5 0 -17 -65.5249 800.316 8
5 0 -17 -191.414 716.636 8
-17 -2 -5 1098.91 443.022 6
5 -2 -17 3.48628 697.882 8
-5 2 -17 727.221 726.82 8
-5 4 -17 69.2989 732.704 8
-5 4 -17 826.462 371.089 5
-4 -5 -17 827.508 811.777 8
5 -4 -17 1547.44 727.186 8
-5 6 -17 207.551 810.406 8
-6 -5 -17 -460.775 422.422 5
-5 6 -17 -185.025 399.669 5
-6 -5 -17 -542.493 894.245 8
6 -5 17 -491.507 1016.71 3
-17 -3 6 457.23 475.803 6
6 3 -17 67.4336 706.205 8
-3 6 -17 507.577 763.254 8
-6 -3 -17 -108.528 804.801 8
-17 6 3 606.974 442.351 6
1 -6 -17 426.968 408.743 5
6 -1 17 -75.182 1016.05 3
6 1 -17 197.902 340.696 5
6 -1 17 283.922 544.336 2
-6 -1 -17 68.1087 842.049 8
-17 1 -6 -117.575 408.958 6
6 1 -17 -191.909 635.881 8
17 -6 -1 218.825 480.424 1
-6 1 -17 252.208 811.129 8
-17 -1 -6 91.1304 449.325 6
-6 3 -17 743.002 722.591 8
3 -6 17 -487.797 1002.81 3
17 -6 -3 -677.473 1098.43 4
-17 3 6 399.558 436.327 6
-6 5 -17 130.046 779.658 8
17 -6 -5 -510.634 497.817 1
-17 5 6 214.198 701.385 7
-17 5 6 -206.094 462.214 6
17 -6 -5 1523.24 1155.39 4
-17 7 4 151.904 734.478 7
-7 -4 -17 -84.1714 428.754 5
-4 7 -17 158.749 412.08 5
-7 -4 -17 -898.544 876.909 8
17 -7 2 281.034 487.363 1
-17 7 2 461.134 722.932 7
-7 -2 -17 621.501 868.699 8
-17 2 -7 131.618 435.84 6
-7 0 -17 -417.151 392.69 5
-7 0 -17 -626.965 861.896 8
-17 0 -7 -44.049 406.474 6
-7 2 -17 -49.4832 811.761 8
17 -2 7 -908.003 1085.65 4
-7 4 -17 -198.863 821.752 8
7 4 17 72.0182 571.008 2
-17 7 -4 237.953 436.762 6
-17 4 7 171.687 457.187 6
17 -8 7 475.994 525.291 1
-7 8 -17 259.114 428.608 5
-17 -3 8 -680.047 630.493 7
-8 -3 -17 70.9738 868.019 8
-17 8 3 -85.8653 453.336 6
17 -1 -8 -362.778 1144.48 4
-8 -1 -17 394.367 886.205 8
-17 1 -8 110.349 430.048 6
17 1 -8 -649.563 1121.7 4
-8 1 -17 -850.456 874.171 8
17 3 -8 -1839.65 1145.29 4
-17 3 8 272.628 684.337 7
-17 8 -3 -230.575 437.292 6
-17 3 8 148.548 454.231 6
-8 3 -17 419.569 775.347 8
-8 7 -17 676.675 913.511 8
-17 7 8 -48.8469 784.06 7
17 -6 -9 96.3012 536.323 1
-17 9 6 986.626 492.276 6
-17 9 2 814.552 469.449 6
-9 -2 -17 -1267.26 926.663 8
17 0 -9 -337.592 1180.54 4
-17 0 -9 -30.7807 650.48 7
-9 0 -17 144.174 411.277 5
9 0 17 -971.514 594.864 2
-9 0 -17 -296.729 937.902 8
-17 0 9 -652.825 495.285 6
-9 6 -17 116.124 853.839 8
-17 9 -6 356.075 451.335 6
10 -5 17 -696.798 1103.1 3
10 3 17 -1435.22 654.635 2
-10 5 -17 -1481.23 872.208 8
-17 5 10 597.975 492.329 6
-11 -4 -17 -390.153 974.436 8
17 -2 -11 -182.103 516.628 1
-11 -2 -17 15.132 950.853 8
-17 0 11 -62.7896 689.778 7
-11 0 -17 -1351.66 963.529 8
17 2 -11 -317.553 1233.09 4
-11 2 -17 -377.019 962.528 8
-11 4 -17 -1604.37 873.157 8
18 -1 -1 -901.275 1113.5 4
18 1 1 642.064 1059.45 4
-18 1 1 608.107 622.477 7
1 1 -18 -110.196 375.317 5
-18 1 -1 371.419 434.99 6
-18 -1 -1 -12.0846 447.768 6
-18 -2 0 42.0714 472.532 6
18 2 0 -1470.89 1081.12 4
-18 2 0 -670.629 427.356 6
-2 0 -18 391.71 766.442 8
2 0 -18 843.178 792.097 8
18 2 2 926.476 1067.51 4
-2 2 18 704.506 520.868 2
-18 -2 -2 1197.44 592.693 7
-2 -2 -18 841.693 802.888 8
2 -2 -18 -89.6636 770.608 8
18 -2 2 1696.57 1122.9 4
-2 2 -18 3.83068 687.805 8
18 -1 -3 113.737 1105.56 4
-1 3 -18 528.985 769.109 8
-3 -1 -18 -1702.92 880.296 8
3 1 -18 311.771 715.819 8
-3 1 -18 -175.378 384.624 5
3 1 18 -533.459 530.46 2
-18 3 -1 -296.162 433.784 6
3 -1 -18 -1847.3 779.105 8
-3 1 -18 -397.131 818.58 8
-3 3 -18 -340.855 749.383 8
3 -3 18 -360.58 974.806 3
-3 -3 18 1409.21 954.107 3
-3 -3 -18 1018.86 831.816 8
3 -3 -18 -793.603 777.627 8
4 2 -18 1056.78 687.07 8
-2 4 -18 4.05803 749.705 8
18 -4 2 312.551 493.843 1
-18 2 -4 -928.876 664.428 7
-4 -2 -18 220.712 835.009 8
-18 4 2 643.577 432.67 6
0 4 -18 -757.116 764.229 8
-4 0 -18 -85.2729 838.484 8
4 0 -18 -292.075 768.051 8
-2 -4 -18 1100.82 409.742 5
-18 -2 -4 -810.848 636.698 7
2 -4 18 637.734 991.911 3
-2 -4 -18 -427.005 857.161 8
4 -2 -18 -94.8165 745.732 8
-18 2 4 -156.65 433.043 6
-4 2 -18 -127.417 735.995 8
-4 4 -18 659.274 807.555 8
4 -4 -18 561.268 796.557 8
-4 -4 -18 -1210.22 849.977 8
-18 4 -4 -223.254 415.843 6
18 -4 -4 -288.813 1129.62 4
5 3 -18 -937.507 725.813 8
-3 5 -18 1436.57 805.666 8
3 -5 -18 345.215 394.179 5
5 -3 18 722.369 1019.61 3
3 -5 -18 767.851 793.731 8
-5 -3 -18 470.259 858.629 8
-18 5 3 169.942 471.015 6
18 -5 3 -1335.04 1112.82 4
18 -3 -5 -433.784 489.753 1
-1 5 -18 213.256 765.399 8
-18 5 1 123.285 461.037 6
-5 -1 -18 744.109 886.019 8
18 -5 1 479.275 1098.63 4
5 1 -18 215.965 679.073 8
1 5 -18 441.966 791.195 8
-1 -5 -18 895.214 829.296 8
18 -5 -1 297.572 493.554 1
1 -5 18 -222.547 1016.87 3
5 -1 -18 251.466 775.692 8
-18 1 5 615.205 458.211 6
-5 1 -18 1522.25 857.584 8
-5 3 -18 -296.729 758.74 8
-3 -5 -18 -4.6842 838.588 8
18 -5 -3 482.391 502.058 1
5 -3 -18 -729.462 781.864 8
-5 5 -18 -837.223 780.905 8
-5 -5 -18 -482.895 893.53 8
-18 5 -5 694.397 448.475 6
-18 -2 6 722.727 496.755 6
-2 6 -18 -82.1769 806.979 8
2 -6 -18 271.753 401.289 5
6 -2 18 -627.893 1048.58 3
-2 6 -18 367.35 429.236 5
-6 -2 -18 -1701.53 925.435 8
6 -2 18 -201.079 566.598 2
0 6 -18 332.97 809.737 8
0 6 -18 -24.5047 403.174 5
-6 0 -18 196.874 918.961 8
2 6 -18 -455.252 747.037 8
6 2 18 -436.539 597.929 2
-18 2 6 354.61 447.143 6
-6 2 -18 -1080.5 863.715 8
18 -7 5 -22.8245 518.192 1
-18 7 1 -50.6717 456.518 6
-7 -1 -18 402.748 916.59 8
7 1 18 -2889.44 1166.48 3
-7 1 -18 7109.49 956.551 8
-7 7 -18 1317.78 879.409 8
-18 7 7 372.485 804.469 7
-18 7 7 221.325 501.526 6
-8 -4 -18 -136.098 943.282 8
-8 4 -18 51.7356 832.057 8
-18 4 8 -1065.03 796.051 7
18 -8 -4 -563.846 567.731 1
18 -4 8 -511.814 530.84 1
-8 6 -18 -618.337 863.43 8
-8 6 -18 -76.7764 424.341 5
-9 -5 -18 -852.222 973.642 8
-18 9 5 -165.786 497.199 6
9 -3 18 408.003 1158.47 3
-9 -3 -18 592.649 939.315 8
18 -1 -9 1281.81 1269.63 4
-9 -1 -18 -531.567 977.005 8
-18 -1 9 416.512 494.42 6
18 1 -9 -1453.28 1235.48 4
-9 1 -18 -923.722 972.222 8
18 -9 -3 662.515 555.593 1
-9 3 -18 403.682 419.912 5
-9 3 -18 43.8296 851.883 8
-9 5 -18 -410.415 904.647 8
-18 -2 10 113.536 561.876 6
-10 -2 -18 1068.49 454.09 5
-10 -2 -18 -174.058 944.221 8
10 0 18 85.2345 621.026 2
-10 0 -18 -270.186 977.145 8
-18 2 10 -68.5392 714.173 7
-10 2 -18 -254.908 971.959 8
19 0 1 1291.66 1149.95 4
19 1 0 -780.886 1120.75 4
1 0 19 -1335.33 1076.39 3
0 1 -19 326.741 401.358 5
0 -1 -19 4.40379 842.513 8
-1 0 -19 -4.43517 851.5 8
-19 1 0 21.6474 461.019 6
1 0 -19 4.26627 830.31 8
-19 0 -1 -615.936 476.93 6
0 1 -19 415.49 849.43 8
19 1 2 -1237.3 1171 4
19 2 -1 -368.837 1143.59 4
-1 2 -19 82.8934 380.573 5
1 -2 -19 93.7779 836.216 8
-2 -1 -19 577.241 881.835 8
-19 2 1 -474.962 469.881 6
-19 -1 2 45.4557 468.311 6
-1 2 -19 59.2793 781.415 8
1 2 -19 -541.266 764.196 8
19 -1 2 458.58 1133.84 4
19 1 -2 -1373.63 1147.21 4
-1 2 19 -66.7498 562.146 2
-1 -2 -19 120.928 406.441 5
-1 -2 -19 -1130.92 857.335 8
-19 1 2 -179.004 476.849 6
-2 3 -19 -646.082 780.461 8
0 3 -19 -57.0903 784.287 8
19 0 3 -85.3641 1144.51 4
0 3 19 -24.3132 570.126 2
0 -3 -19 297.378 861.299 8
-3 0 -19 -733.058 879.066 8
-19 0 3 592.44 494.938 6
2 3 -19 -1434.56 772.47 8
-2 -3 -19 -1435.82 910.064 8
-3 2 -19 77.8632 785.708 8
-4 5 -19 -1606.18 835.089 8
-5 -4 -19 88.57 910.011 8
-5 4 -19 -1237.18 861.802 8
4 5 -19 -789.826 787.129 8
5 4 19 577.274 647.483 2
-19 4 5 -1842.12 762.305 7
-4 -5 -19 -357.246 912.086 8
-5 6 -19 2240.9 941.813 8
-6 -5 -19 116.287 462.276 5
-5 6 -19 169.12 450.578 5
-6 -5 -19 561.82 950.245 8
19 -6 5 402.198 1237.35 4
-3 6 -19 -375.413 907.557 8
-19 3 -6 -130.302 743.751 7
-3 6 -19 -240.514 448.556 5
-6 -3 -19 -220.597 950.417 8
-19 6 3 -101.576 494.611 6
3 6 -19 711.511 824.987 8
-6 3 -19 -283.127 418.23 5
-19 3 6 -362.261 494.013 6
-6 3 -19 -242.39 820.812 8
-6 5 -19 503.299 872.587 8
-19 5 6 184.874 494.089 6
-4 7 -19 297.433 890.157 8
-7 -4 -19 3095.74 996.587 8
-19 -2 7 403.56 536.31 6
-2 7 -19 1472.15 908.001 8
-19 2 -7 -282.229 729.956 7
-7 -2 -19 -120.284 442.189 5
-2 7 -19 198.734 430.654 5
-7 -2 -19 -14.9906 939.31 8
-19 0 -7 212.98 703.624 7
7 0 19 -520.048 1186.52 3
7 0 19 737.175 649.741 2
-19 7 0 430.059 515.233 6
19 -7 0 519.452 1211.57 4
-7 0 -19 -709.12 951.01 8
-19 0 -7 36.8526 480.254 6
-19 -2 -7 -126.727 491.202 6
19 -2 7 -831.923 521.092 1
-19 7 -2 -421.942 507.346 6
-7 2 -19 304.862 929.624 8
-7 4 -19 326.942 862.968 8
-7 4 -19 -553.898 431.674 5
-8 -1 -19 -1363.89 954.766 8
-19 1 -8 230.841 478.465 6
-19 -1 -8 1722.57 512.658 6
-8 1 -19 35.2549 970.357 8
0 0 -20 -1987.59 926.839 8
-20 0 0 -363.304 518.207 6
20 1 1 -1495.78 1216.5 4
-20 1 -1 1061.7 718.908 7
1 -1 -20 -2227.83 907.643 8
-20 1 1 -804.553 499.785 6
-1 1 -20 -1489.78 955.068 8
1 1 -20 8.93454 876.205 8
-20 -1 -1 442.059 490.739 6
20 0 -2 -1366.78 1234.68 4
20 0 2 1080.39 1226.08 4
-20 0 2 825.716 706.616 7
-20 -2 0 477.307 675.168 7
-2 0 -20 -8.18224 435.911 5
2 0 -20 -96.4285 423.056 5
0 -2 -20 1572.52 904.147 8
-20 2 0 -270.862 507.065 6
2 0 -20 -493.48 860.581 8
-20 0 2 518.746 514.012 6
0 2 -20 187.459 820.517 8
-20 -2 2 732.572 532.529 6
20 2 -2 -1757.48 1245.7 4
20 2 2 -438.275 1171.71 4
-20 2 2 139.135 744.972 7
-20 -2 -2 -195.377 658.58 7
-2 -2 -20 785.008 901.717 8
2 -2 -20 -1458.28 862.967 8
-20 2 -2 96.6296 490.814 6
-2 2 -20 628.126 839.157 8
2 2 -20 39.3949 811.922 8
-1 3 -20 -574.005 818.902 8
20 1 3 52.7101 1229.72 4
20 3 -1 579.693 1190.12 4
20 -3 1 -335.29 545.58 1
1 -3 -20 -80.8261 452.513 5
3 1 -20 258.573 410.684 5
3 -1 20 -150.342 616.114 2
1 -3 -20 223.482 879.274 8
-3 -1 -20 4.88406 948.392 8
3 1 -20 642.393 878.717 8
20 -3 1 1605.86 1229.63 4
1 3 -20 -124.865 786.16 8
20 3 1 175.287 1182.32 4
-20 1 3 374.16 711.033 7
3 1 20 -152.637 618.461 2
20 -3 -1 -166.507 519.835 1
-1 -3 -20 -449.393 938.127 8
3 -1 -20 -214.279 883.421 8
-20 1 3 492.662 520.001 6
-3 1 -20 -277.963 933.426 8
-3 3 -20 -236.289 812.926 8
3 3 -20 36.6906 806.179 8
20 -3 -3 -265.87 537.839 1
-3 3 -20 206.886 437.489 5
-3 -3 -20 -53.9814 967.549 8
3 -3 -20 1156.07 872.324 8
-20 3 3 672.998 490.224 6
-2 4 -20 -222.385 878.878 8
2 -4 -20 728.691 872.091 8
-4 -2 -20 58.8862 937.829 8
-20 4 2 -219.985 503.711 6
4 2 -20 3.80812 774.235 8
0 4 -20 1549.09 887.875 8
20 -4 0 -20.1593 544.362 1
-20 4 0 640.635 825.198 7
0 -4 -20 295.223 459.015 5
0 4 -20 582.405 449.27 5
-4 0 20 -384.762 544.441 2
0 -4 -20 -415.024 894.544 8
-20 4 0 468.637 478.776 6
-4 0 -20 -201.728 961.958 8
4 0 -20 683.895 901.543 8
-20 0 -4 -396.733 518.799 6
2 4 -20 749.501 821.873 8
-20 4 -2 608.871 799.276 7
-2 -4 -20 -1145.56 909.848 8
4 -2 -20 -80.4083 850.423 8
-20 4 -2 -288.894 487.422 6
20 -4 -2 -77.2007 1253.24 4
-4 2 -20 -19.457 965.852 8
-4 4 -20 -864.519 863.004 8
4 4 -20 215.377 811.427 8
-20 4 -4 31.1395 828.157 7
4 4 -20 -329.8 455.877 5
4 -4 -20 477.294 850.716 8
-4 -4 -20 130.323 962.899 8
-1 5 -20 -305.829 877.35 8
1 -5 -20 -42.3777 893.104 8
-5 -1 -20 1013.42 998.283 8
20 -5 1 -92.0771 1269.72 4
-20 1 -5 3.28429 515.19 6
1 5 -20 -1294.65 916.062 8
5 1 20 829.783 642.553 2
-1 -5 -20 273.095 943.107 8
1 -5 20 -36.5811 1170.08 3
-5 1 -20 -799.409 975.183 8
#BEGIN Loops that were not found in dictionaries:
loop_
_smtbx_masks_void_nr
_smtbx_masks_void_average_x
_smtbx_masks_void_average_y
_smtbx_masks_void_average_z
_smtbx_masks_void_volume
_smtbx_masks_void_count_electrons
1 -0.360 -0.298 -0.350 14183.3 2153.6
#END Loops that were not found in dictionaries
