#------------------------------------------------------------------------------
#$Date: 2017-12-10 21:25:10 +0200 (Sun, 10 Dec 2017) $
#$Revision: 204138 $
#$URL: file:///home/coder/svn-repositories/cod/cif/7/22/77/7227782.cif $
#------------------------------------------------------------------------------
#
# This file is available in the Crystallography Open Database (COD),
# http://www.crystallography.net/
#
# All data on this site have been placed in the public domain by the
# contributors.
#
data_7227782
loop_
_publ_author_name
'Patyk-Ka\'zmierczak, Ewa'
'Warren, Mark R.'
'Allan, David R.'
'Katrusiak, Andrzej'
_publ_section_title
;
 Pressure inverse solubility and polymorphism of an edible
 \g-cyclodextrin-based metal-organic framework.
;
_journal_issue                   13
_journal_name_full               'Physical chemistry chemical physics : PCCP'
_journal_page_first              9086
_journal_page_last               9091
_journal_paper_doi               10.1039/c7cp00593h
_journal_volume                  19
_journal_year                    2017
_chemical_absolute_configuration rm
_chemical_formula_moiety         'C48 H80 O40, 2(KOH)'
_chemical_formula_sum            'C48 H82 K2 O42'
_chemical_formula_weight         1409.34
_chemical_name_common            '\g-cyclodextrin-metal-organic framework'
_chemical_name_systematic
'catena-((\m8-\g-Cyclodextrin)-di-potassium dihydroxide)'
_space_group_crystal_system      cubic
_space_group_IT_number           211
_space_group_name_Hall           'I 4 2 3'
_space_group_name_H-M_alt        'I 4 3 2'
_atom_sites_solution_hydrogens   geom
_atom_sites_solution_primary     direct
_audit_creation_date             2017-01-18
_audit_creation_method
;
Olex2 1.2
(compiled 2017.01.04 svn.r3372 for OlexSys, GUI svn.r5289)
;
_cell_angle_alpha                90.0
_cell_angle_beta                 90.0
_cell_angle_gamma                90.0
_cell_formula_units_Z            12
_cell_length_a                   30.988(3)
_cell_length_b                   30.988(3)
_cell_length_c                   30.988(3)
_cell_measurement_reflns_used    2310
_cell_measurement_temperature    295
_cell_measurement_theta_max      10.1810
_cell_measurement_theta_min      3.6480
_cell_volume                     29756(5)
_computing_cell_refinement       'CrysAlisPro 1.171.38.41 (Rigaku OD, 2015)'
_computing_data_collection       'CrysAlisPro 1.171.38.41 (Rigaku OD, 2015)'
_computing_data_reduction        'CrysAlisPro 1.171.38.41 (Rigaku OD, 2015)'
_computing_molecular_graphics    'Olex2 (Dolomanov et al., 2009)'
_computing_publication_material  'Olex2 (Dolomanov et al., 2009)'
_computing_structure_refinement  'ShelXL (Sheldrick, 2015)'
_computing_structure_solution    'ShelXS (Sheldrick, 2008)'
_diffrn_ambient_environment      'diamond-anvil cell'
_diffrn_ambient_pressure         860000
_diffrn_ambient_temperature      295
_diffrn_detector                 'CCD plate'
_diffrn_detector_area_resol_mean 16.0338
_diffrn_detector_type            EosS2
_diffrn_measured_fraction_theta_full 0.849
_diffrn_measured_fraction_theta_max 0.849
_diffrn_measurement_details
;
List of Runs (angles in degrees, time in seconds):

  # Type    Start    End  Width  t~exp~   \w     \q     \k     \f   Frames
--------------------------------------------------------------------------
  1  \f    -35.00  19.75   0.75   35.00   0.00 -30.00   0.00    --    73
  2  \f    140.00 200.00   0.75   35.00   0.00 -30.00   0.00    --    80
  3  \f    160.00 217.00   0.75   35.00   0.00  30.00   0.00    --    76
  4  \f    -20.00  34.75   0.75   35.00   0.00  30.00   0.00    --    73
  5  \w    -24.00  24.00   0.75   35.00    --   30.00  39.46 -12.90   64
  6  \w    -24.00  24.00   0.75   35.00    --   30.00  39.46 167.10   64
  7  \w    -50.00  10.00   0.75   35.00    --  -30.00  39.46 167.10   80
  8  \w    -50.00  10.00   0.75   35.00    --  -30.00  39.46 -12.90   80
  9  \w    -64.00  -8.50   0.75   35.00    --  -30.00  81.40 -28.90   74
 10  \w    -64.00  -8.50   0.75   35.00    --  -30.00  81.40 151.10   74
 11  \w    -19.00   8.00   0.75   35.00    --   30.00  81.40 151.10   36
 12  \w    -19.00   8.00   0.75   35.00    --   30.00  81.40 -28.90   36
 13  \w    -43.00 -21.25   0.75   35.00    --   30.00 134.60 -56.90   29
 14  \w    -43.00 -21.25   0.75   35.00    --   30.00 134.60 123.10   29
 15  \w    -90.00 -36.00   0.75   35.00    --  -30.00 134.60 123.10   72
 16  \w    -90.00 -36.00   0.75   35.00    --  -30.00 134.60 -56.90   72
;
_diffrn_measurement_device       'four-circle diffractometer'
_diffrn_measurement_device_type  'New Xcalibur, EosS2'
_diffrn_measurement_method       '\w and \f scans'
_diffrn_orient_matrix_type
'CrysAlisPro convention (1999,Acta A55,543-557)'
_diffrn_orient_matrix_UB_11      0.0028009000
_diffrn_orient_matrix_UB_12      -0.0000220000
_diffrn_orient_matrix_UB_13      -0.0227393000
_diffrn_orient_matrix_UB_21      0.0222972000
_diffrn_orient_matrix_UB_22      -0.0047643000
_diffrn_orient_matrix_UB_23      0.0024687000
_diffrn_orient_matrix_UB_31      -0.0048939000
_diffrn_orient_matrix_UB_32      -0.0223478000
_diffrn_orient_matrix_UB_33      -0.0003526000
_diffrn_radiation_monochromator  graphite
_diffrn_radiation_probe          x-ray
_diffrn_radiation_type           MoK\a
_diffrn_radiation_wavelength     0.71073
_diffrn_reflns_av_R_equivalents  0.1133
_diffrn_reflns_av_unetI/netI     0.0266
_diffrn_reflns_Laue_measured_fraction_full 0.849
_diffrn_reflns_Laue_measured_fraction_max 0.849
_diffrn_reflns_limit_h_max       15
_diffrn_reflns_limit_h_min       -15
_diffrn_reflns_limit_k_max       15
_diffrn_reflns_limit_k_min       -15
_diffrn_reflns_limit_l_max       7
_diffrn_reflns_limit_l_min       -7
_diffrn_reflns_number            9256
_diffrn_reflns_point_group_measured_fraction_full 0.885
_diffrn_reflns_point_group_measured_fraction_max 0.885
_diffrn_reflns_theta_full        10.190
_diffrn_reflns_theta_max         10.190
_diffrn_reflns_theta_min         3.221
_diffrn_source                   'fine-focus sealed X-ray tube'
_diffrn_source_type              'Enhance (Mo) X-ray Source'
_exptl_absorpt_coefficient_mu    0.164
_exptl_absorpt_correction_T_max  1.00000
_exptl_absorpt_correction_T_min  0.20429
_exptl_absorpt_correction_type   multi-scan
_exptl_absorpt_process_details
;
CrysAlisPro 1.171.38.41 (Rigaku Oxford Diffraction, 2015)
Empirical absorption correction using spherical harmonics,
 implemented in SCALE3 ABSPACK scaling algorithm.
;
_exptl_crystal_colour            'clear colourless'
_exptl_crystal_colour_lustre     clear
_exptl_crystal_colour_primary    colourless
_exptl_crystal_density_diffrn    0.944
_exptl_crystal_description       prism
_exptl_crystal_F_000             8928
_exptl_crystal_recrystallization_method
'Compressed crystal that was grown in situ from methano:water solution in the diamond-anvil cell at 0.2 GPa.'
_exptl_crystal_size_max          0.18
_exptl_crystal_size_mid          0.17
_exptl_crystal_size_min          0.1
_refine_diff_density_max         0.115
_refine_diff_density_min         -0.145
_refine_diff_density_rms         0.026
_refine_ls_abs_structure_details
;
 Flack x determined using 103 quotients [(I+)-(I-)]/[(I+)+(I-)]
 (Parsons, Flack and Wagner, Acta Cryst. B69 (2013) 249-259).
;
_refine_ls_abs_structure_Flack   0.14(13)
_refine_ls_extinction_method     none
_refine_ls_goodness_of_fit_ref   1.126
_refine_ls_hydrogen_treatment    constr
_refine_ls_matrix_type           full
_refine_ls_number_parameters     75
_refine_ls_number_reflns         299
_refine_ls_number_restraints     71
_refine_ls_restrained_S_all      1.808
_refine_ls_R_factor_all          0.0863
_refine_ls_R_factor_gt           0.0863
_refine_ls_shift/su_max          0.000
_refine_ls_shift/su_mean         0.000
_refine_ls_structure_factor_coef Fsqd
_refine_ls_weighting_details
'w=1/[\s^2^(Fo^2^)+(0.1319P)^2^+337.3702P] where P=(Fo^2^+2Fc^2^)/3'
_refine_ls_weighting_scheme      calc
_refine_ls_wR_factor_gt          0.2187
_refine_ls_wR_factor_ref         0.2187
_reflns_Friedel_coverage         0.565
_reflns_Friedel_fraction_full    0.956
_reflns_Friedel_fraction_max     0.956
_reflns_number_gt                297
_reflns_number_total             299
_reflns_threshold_expression     'I > 2\s(I)'
_iucr_refine_instructions_details
;

    1.res created by SHELXL-2014/7

TITL 1 in I432 #211
REM reset to I432 #211
CELL 0.71073 30.988494 30.988494 30.988494 90 90 90
ZERR 12 0.003322 0.003322 0.003322 0 0 0
LATT -2
SYMM -Y,+X,+Z
SYMM -X,-Y,+Z
SYMM +Y,-X,+Z
SYMM +X,-Z,+Y
SYMM +X,-Y,-Z
SYMM +X,+Z,-Y
SYMM +Z,+Y,-X
SYMM -X,+Y,-Z
SYMM -Z,+Y,+X
SYMM +Z,+X,+Y
SYMM +Y,+Z,+X
SYMM -Y,-Z,+X
SYMM +Z,-X,-Y
SYMM -Y,+Z,-X
SYMM -Z,-X,+Y
SYMM -Z,+X,-Y
SYMM +Y,-Z,-X
SYMM +Y,+X,-Z
SYMM -Y,-X,-Z
SYMM -X,+Z,+Y
SYMM -X,-Z,-Y
SYMM +Z,-Y,+X
SYMM -Z,-Y,-X
SFAC C H K O
UNIT 576 960 24 504
DFIX 1.5 0.002 C16 C15
DFIX 1.5 0.002 C14 C15
DFIX 1.5 C14 C13
DFIX 3 C11 C14
DFIX 1.5 0.002 C4 C3
DFIX 3 C12 C15
DFIX 1.5 C12 C13
DFIX 3 C15 C12
DFIX 1.5 0.002 C12 C11
DFIX 1.5 0.002 C2 C3
DFIX 2.8 C1 C4
DFIX 1.5 0.002 C2 C1
DFIX 1.5 0.002 C6 C5
DFIX 1.5 0.002 C4 C5
DFIX 3 C2 C5
DFIX 3 C5 C2
DFIX 2.3 0.002 C5 C1
DFIX 1.45 0.002 C16 O16
DFIX 2.4 O14 C15
DFIX 1.45 0.002 C14 O14
DFIX 2.2 O2 C3
DFIX 1.45 0.002 O3 C3
DFIX 1.45 0.002 C11 O4
DFIX 1.45 0.002 C4 O4
DFIX 2 C12 O4
DFIX 1.45 C12 O12
DFIX 1.45 0.002 C2 O2
DFIX 2.3 C2 O3
DFIX 1.45 0.002 C6 O6
DFIX 2.5 O5 C6
DFIX 2.2 O15 C16
DFIX 1.45 0.002 O15 C15
DFIX 3 O5 C3
DFIX 3 O15 C13
DFIX 1.45 0.002 O15 C11
DFIX 1.45 0.002 O5 C1
DFIX 1.45 0.002 O5 C5
DFIX 1.45 0.002 O13 C13
DANG 2.4 0.02 C13 C15
DANG 2.4 0.02 C11 C13
DANG 2.4 0.02 C15 C11
DANG 2.5 C11 C4
DANG 2.4 0.02 C12 C14
DANG 2.5 0.02 C4 C2
DANG 2.5 C4 C11
DANG 2.5 0.02 C3 C1
DANG 2.5 C14 C16
DANG 2.5 0.02 C5 C3
DANG 2.5 0.02 C1 C5
DANG 2.5 O14 C15
DANG 2.5 C13 O14
DANG 2.5 O2 C3
DANG 2.5 O4 C3
DANG 2.5 O4 C12
DANG 2.5 O2 C1
DANG 2.1 C3 O4
DANG 2.5 O3 C4
DANG 2.5 O3 C2
DANG 2.5 O4 C5
DANG 2.4 0.02 C14 O15
DANG 2.5 0.02 O5 C4
DANG 2.4 0.02 O15 C12
DANG 2.5 0.02 C2 O5
DANG 2.5 O4 O15
DANG 2.5 O15 C16
ISOR K1
 
L.S. 100
PLAN  20
TEMP 21.85
CONN 4 C15
CONN 4 C16
CONN 4 C11
BOND
MORE -1
BOND $H
CONF
ABIN
fmap 2
acta 52
OMIT 0 1 13
OMIT 0 2 14
OMIT 0 3 11
OMIT 0 1 15
OMIT 0 6 14
OMIT 0 1 11
OMIT 0 4 14
OMIT -2 8 10
OMIT 0 4 12
OMIT 0 0 10
OMIT -1 2 11
OMIT 1 2 11
REM <olex2.extras>
REM <HklSrc "%.\\1.hkl">
REM </olex2.extras>
 
WGHT    0.131900  337.370209
FVAR       0.27452   0.16886   0.29709
C1    1    0.854086    0.685890    0.623701    11.00000   21.00000
AFIX  13
H1    2    0.850853    0.717229    0.620958    11.00000   -1.20000
AFIX   0
C2    1    0.891224    0.678951    0.653980    11.00000   21.00000
AFIX  13
H2    2    0.886427    0.695161    0.680708    11.00000   -1.20000
AFIX   0
C3    1    0.894404    0.631633    0.663836    11.00000   21.00000
AFIX  13
H3    2    0.908487    0.618416    0.638794    11.00000   -1.20000
AFIX   0
C4    1    0.851671    0.609357    0.668459    11.00000   21.00000
AFIX  13
H4    2    0.841127    0.617327    0.697190    11.00000   -1.20000
AFIX   0
C5    1    0.816866    0.623118    0.637741    11.00000   21.00000
AFIX  13
H5    2    0.827158    0.614427    0.609128    11.00000   -1.20000
AFIX   0
C6    1    0.775460    0.598881    0.644228    11.00000   21.00000
AFIX  23
H6A   2    0.750427    0.613380    0.632274    11.00000   -1.20000
H6B   2    0.776727    0.569096    0.634687    11.00000   -1.20000
AFIX   0
C11   1    0.858234    0.545331    0.713871    11.00000   21.00000
AFIX  13
H11   2    0.860300    0.568227    0.735588    11.00000   -1.20000
AFIX   0
C12   1    0.901007    0.523309    0.708527    11.00000   21.00000
AFIX  13
H12   2    0.902667    0.510144    0.737233    11.00000   -1.20000
AFIX   0
C13   1    0.897589    0.482485    0.682775    11.00000   21.00000
AFIX  13
H13   2    0.901884    0.486118    0.651654    11.00000   -1.20000
AFIX   0
C14   1    0.859534    0.455064    0.694856    11.00000   21.00000
AFIX  13
H14   2    0.863961    0.446538    0.724986    11.00000   -1.20000
AFIX   0
C15   1    0.818581    0.480861    0.693933    11.00000   21.00000
AFIX  13
H15   2    0.814881    0.492485    0.664756    11.00000   -1.20000
AFIX   0
C16   1    0.776430    0.461687    0.708029    11.00000   21.00000
AFIX  23
H16A  2    0.755668    0.484655    0.712636    11.00000   -1.20000
H16B  2    0.765418    0.443151    0.685336    11.00000   -1.20000
AFIX   0
K1    3    0.805121    0.500000    0.805121    10.50000    0.24886    0.35328 =
         0.24886   -0.06189    0.10396    0.06189
O2    4    0.933727    0.688640    0.636981    11.00000   31.00000
AFIX  83
H2A   2    0.948188    0.666492    0.636236    11.00000   -1.50000
AFIX   0
O3    4    0.924966    0.628321    0.699099    11.00000   31.00000
AFIX  83
H3A   2    0.925160    0.603513    0.708302    11.00000   -1.50000
AFIX   0
O4    4    0.860641    0.563494    0.670820    11.00000   31.00000
O5    4    0.811815    0.669582    0.635360    11.00000   31.00000
O6    4    0.779727    0.603940    0.690559    11.00000   31.00000
AFIX  83
H6    2    0.790891    0.582249    0.700810    11.00000   -1.50000
AFIX   0
O12   4    0.943229    0.541573    0.707589    11.00000   31.00000
AFIX  83
H12A  2    0.961090    0.522332    0.704281    11.00000   -1.50000
AFIX   0
O13   4    0.922731    0.448062    0.702062    11.00000   31.00000
AFIX  83
H13A  2    0.912728    0.424677    0.694763    11.00000   -1.50000
AFIX   0
O14   4    0.853409    0.415414    0.670771    11.00000   31.00000
O15   4    0.822411    0.516843    0.723633    11.00000   31.00000
O16   4    0.780947    0.436830    0.747432    11.00000   31.00000
AFIX  83
H16   2    0.768361    0.413706    0.744766    11.00000   -1.50000
AFIX   0
 
OA    4    1.000000    0.500000    0.671456    10.50000   31.00000
HKLF 4
 
REM  1 in I432 #211
REM R1 =  0.0863 for     297 Fo > 4sig(Fo)  and  0.0863 for all     299 data
REM     75 parameters refined using     71 restraints
 
END  
     
WGHT      0.1347    321.7627 

REM Highest difference peak  0.115,  deepest hole -0.145,  1-sigma level  0.026
Q1    1   1.0013  0.5683  0.6804  11.00000  0.05    0.12
Q2    1   0.9970  0.6786  0.5849  11.00000  0.05    0.11
Q3    1   0.8505  0.4710  0.7151  11.00000  0.05    0.09
Q4    1   0.9842  0.4308  0.6770  11.00000  0.05    0.09
Q5    1   0.8502  0.6780  0.6479  11.00000  0.05    0.09
Q6    1   0.8055  0.5992  0.7544  11.00000  0.05    0.09
Q7    1   0.8498  0.4800  0.7004  11.00000  0.05    0.08
Q8    1   0.8532  0.4776  0.7240  11.00000  0.05    0.08
Q9    1   0.8710  0.6317  0.7433  11.00000  0.05    0.08
Q10   1   0.7953  0.6332  0.6386  11.00000  0.05    0.08
Q11   1   0.7946  0.3765  0.7565  11.00000  0.05    0.08
Q12   1   0.8783  0.6217  0.7500  10.50000  0.05    0.08
Q13   1   0.9179  0.4332  0.6904  11.00000  0.05    0.08
Q14   1   0.8863  0.4214  0.6876  11.00000  0.05    0.07
Q15   1   0.9590  0.6110  0.6446  11.00000  0.05    0.07
Q16   1   0.9729  0.6143  0.6547  11.00000  0.05    0.07
Q17   1   0.8624  0.7384  0.7019  11.00000  0.05    0.07
Q18   1   0.8050  0.6039  0.6467  11.00000  0.05    0.07
Q19   1   0.7815  0.5846  0.6389  11.00000  0.05    0.07
Q20   1   0.8335  0.6291  0.7566  11.00000  0.05    0.07

  REM The information below was added by Olex2.
  REM
  REM R1 = 0.0863 for 297 Fo > 4sig(Fo) and 0.0863 for all 9858 data
  REM n/a parameters refined using n/a restraints
  REM Highest difference peak 0.12, deepest hole -0.14
  REM Mean Shift 0, Max Shift 0.000.

  REM +++ Tabular Listing of Refinement Information +++
  REM R1_all = 0.0863
  REM R1_gt = 0.0863
  REM wR_ref = 0.2187
  REM GOOF = 1.126
  REM Shift_max = 0.000
  REM Shift_mean = 0
  REM Reflections_all = 9858
  REM Reflections_gt = 297
  REM Parameters = n/a
  REM Hole = -0.14
  REM Peak = 0.12
  REM Flack = 0.14(13)

  
;
_cod_data_source_file            c7cp00593h3.cif
_cod_data_source_block           CDMOF_a_0_86GPa
_cod_depositor_comments
'Adding full bibliography for 7227776--7227790.cif.'
_cod_original_cell_volume        29758(6)
_cod_database_code               7227782
#BEGIN Tags that were not found in dictionaries:
_shelx_shelxl_version_number     2014/7
_chemical_oxdiff_formula         'C48 H82 K2 O40'
_shelx_space_group_comment
;
The symmetry employed for this shelxl refinement is uniquely defined
by the following loop, which should always be used as a source of
symmetry information in preference to the above space-group names.
They are only intended as comments.
;
_reflns_odcompleteness_completeness 89.38
_reflns_odcompleteness_iscentric 1
_reflns_odcompleteness_theta     10.18
_olex2_refinement_description
;
1. Fixed Uiso
 At 1.2 times of:
  All C(H) groups, All C(H,H) groups
 At 1.5 times of:
  All O(H) groups
2. Restrained distances
 C16-C15
 1.5 with sigma of 0.002
 C14-C15
 1.5 with sigma of 0.002
 C14-C13
 1.5 with sigma of 0.02
 C11-C14
 3 with sigma of 0.02
 C4-C3
 1.5 with sigma of 0.002
 C12-C15
 3 with sigma of 0.02
 C12-C13
 1.5 with sigma of 0.02
 C15-C12
 3 with sigma of 0.02
 C12-C11
 1.5 with sigma of 0.002
 C2-C3
 1.5 with sigma of 0.002
 C1-C4
 2.8 with sigma of 0.02
 C2-C1
 1.5 with sigma of 0.002
 C6-C5
 1.5 with sigma of 0.002
 C4-C5
 1.5 with sigma of 0.002
 C2-C5
 3 with sigma of 0.02
 C5-C2
 3 with sigma of 0.02
 C5-C1
 2.3 with sigma of 0.002
 C16-O16
 1.45 with sigma of 0.002
 O14-C15
 2.4 with sigma of 0.02
 C14-O14
 1.45 with sigma of 0.002
 O2-C3
 2.2 with sigma of 0.02
 O3-C3
 1.45 with sigma of 0.002
 C11-O4
 1.45 with sigma of 0.002
 C4-O4
 1.45 with sigma of 0.002
 C12-O4
 2 with sigma of 0.02
 C12-O12
 1.45 with sigma of 0.02
 C2-O2
 1.45 with sigma of 0.002
 C2-O3
 2.3 with sigma of 0.02
 C6-O6
 1.45 with sigma of 0.002
 O5-C6
 2.5 with sigma of 0.02
 O15-C16
 2.2 with sigma of 0.02
 O15-C15
 1.45 with sigma of 0.002
 O5-C3
 3 with sigma of 0.02
 O15-C13
 3 with sigma of 0.02
 O15-C11
 1.45 with sigma of 0.002
 O5-C1
 1.45 with sigma of 0.002
 O5-C5
 1.45 with sigma of 0.002
 O13-C13
 1.45 with sigma of 0.002
 C13-C15
 2.4 with sigma of 0.02
 C11-C13
 2.4 with sigma of 0.02
 C15-C11
 2.4 with sigma of 0.02
 C11-C4
 2.5 with sigma of 0.04
 C12-C14
 2.4 with sigma of 0.02
 C4-C2
 2.5 with sigma of 0.02
 C4-C11
 2.5 with sigma of 0.04
 C3-C1
 2.5 with sigma of 0.02
 C14-C16
 2.5 with sigma of 0.04
 C5-C3
 2.5 with sigma of 0.02
 C1-C5
 2.5 with sigma of 0.02
 O14-C15
 2.5 with sigma of 0.04
 C13-O14
 2.5 with sigma of 0.04
 O2-C3
 2.5 with sigma of 0.04
 O4-C3
 2.5 with sigma of 0.04
 O4-C12
 2.5 with sigma of 0.04
 O2-C1
 2.5 with sigma of 0.04
 C3-O4
 2.1 with sigma of 0.04
 O3-C4
 2.5 with sigma of 0.04
 O3-C2
 2.5 with sigma of 0.04
 O4-C5
 2.5 with sigma of 0.04
 C14-O15
 2.4 with sigma of 0.02
 O5-C4
 2.5 with sigma of 0.02
 O15-C12
 2.4 with sigma of 0.02
 C2-O5
 2.5 with sigma of 0.02
 O4-O15
 2.5 with sigma of 0.04
 O15-C16
 2.5 with sigma of 0.04
3. Uiso/Uaniso restraints and constraints
Uanis(K1) \\sim Ueq: with sigma of 0.1 and sigma for terminal atoms of 0.2
4. Others
 Uiso(C1)=Uiso(C2)=Uiso(C3)=Uiso(C4)=Uiso(C5)=Uiso(C6)=Uiso(C11)=Uiso(C12)=
 Uiso(C13)=Uiso(C14)=Uiso(C15)=Uiso(C16)=FVAR(1)
 Uiso(O2)=Uiso(O3)=Uiso(O4)=Uiso(O5)=Uiso(O6)=Uiso(O12)=Uiso(O13)=Uiso(O14)=
 Uiso(O15)=Uiso(O16)=Uiso(OA)=FVAR(2)
5.a Ternary CH refined with riding coordinates:
 C1(H1), C2(H2), C3(H3), C4(H4), C5(H5), C11(H11), C12(H12), C13(H13),
 C14(H14), C15(H15)
5.b Secondary CH2 refined with riding coordinates:
 C6(H6A,H6B), C16(H16A,H16B)
5.c Tetrahedral OH refined with riding coordinates:
 O2(H2A), O3(H3A), O6(H6), O12(H12A), O13(H13A), O16(H16)
;
_shelx_fab_file
;
-7 -11 -8 -5.0784 18.4710
-6 -11 -9 -18.3618 15.9914
-6 -11 -7 21.0030 1.3347
-6 -10 -8 -16.3116 2.7876
-6 -9 -7 -17.9157 -7.4951
-5 -13 -6 24.0515 15.3441
-5 -12 -7 17.0875 0.3259
-5 -11 -8 19.1699 43.8414
-5 -11 -6 16.3507 4.6593
-5 -10 -9 -10.3440 3.3641
-5 -10 -7 -74.4109 -6.1334
-5 -9 -8 -8.6754 -4.3857
-5 -9 -6 -3.2567 -37.8706
-5 -8 -7 29.2653 -8.1942
-5 -7 -6 12.9146 -32.3150
-4 -13 -7 22.3632 0.8050
-4 -13 -5 -22.5841 34.7444
-4 -12 -8 42.5989 -16.7741
-4 -12 -6 33.7395 14.0837
-4 -11 -9 21.7544 16.0580
-4 -11 -7 19.1409 51.3430
-4 -11 -5 51.0514 7.4333
-4 -10 -8 -18.1205 4.6057
-4 -10 -6 1.0711 -49.7669
-4 -9 -7 3.7739 -17.4669
-4 -9 -5 -3.7853 -28.7959
-4 -8 -6 52.0125 -66.5112
-4 -7 -5 -34.5294 -28.2573
-3 -14 -5 -19.8672 -2.3571
-3 -13 -6 -19.6557 4.5027
-3 -13 -4 34.1292 11.4680
-3 -12 -9 8.4103 -20.6256
-3 -12 -7 11.6061 -19.6842
-3 -12 -5 -12.2008 -5.5266
-3 -11 -10 -13.7856 4.6685
-3 -11 -8 -9.3209 9.8709
-3 -11 -6 27.9238 29.8675
-3 -11 -4 -11.9552 -5.2698
-3 -10 -9 -20.0197 -0.1260
-3 -10 -7 -0.2393 15.2395
-3 -10 -5 -53.4232 3.7389
-3 -9 -8 27.4190 -15.2680
-3 -9 -6 17.7959 -17.4400
-3 -9 -4 41.7064 45.0158
-3 -8 -7 24.0691 38.8030
-3 -8 -5 -4.2423 55.1280
-3 -7 -6 45.7951 -52.3182
-3 -7 -4 -40.9234 107.8781
-3 -6 -5 -34.8004 27.3536
-3 -5 -4 20.6157 24.4881
-2 -15 -3 22.2688 3.3833
-2 -14 -6 15.8141 -4.8710
-2 -14 -4 31.0579 5.0432
-2 -13 -7 -18.4829 -10.7517
-2 -13 -5 71.3938 -20.8413
-2 -13 -3 49.2393 22.2971
-2 -12 -8 9.5905 -15.8211
-2 -12 -6 28.5362 -73.8901
-2 -12 -4 -12.5753 -39.5903
-2 -11 -9 -9.9530 -17.2578
-2 -11 -7 0.2295 -4.0213
-2 -11 -5 -31.6409 -31.1788
-2 -11 -3 6.5682 -50.6880
-2 -10 -8 -15.5976 -63.9525
-2 -10 -6 3.3801 -28.8095
-2 -10 -4 67.6211 -69.9737
-2 -9 -7 79.4193 -6.6267
-2 -9 -5 -18.5421 19.0868
-2 -9 -3 5.4710 -60.3710
-2 -8 -6 -4.7131 -37.2301
-2 -8 -4 105.1709 59.5034
-2 -7 -5 20.6096 -15.4566
-2 -7 -3 34.8573 -6.3061
-2 -6 -4 6.5622 24.0893
-2 -5 -3 -4.2723 -70.3693
-1 -15 -2 -30.7784 -4.3722
-1 -14 -5 12.7081 9.6996
-1 -14 -3 -4.2223 5.1804
-1 -13 -8 25.7363 20.7728
-1 -13 -6 54.3253 -19.6371
-1 -13 -4 65.8720 11.4675
-1 -13 -2 146.0000 10.4038
-1 -12 -9 47.8630 11.7173
-1 -12 -7 27.4784 -12.4225
-1 -12 -5 -21.5211 -61.3062
-1 -12 -3 -45.1510 2.0755
-1 -11 -10 19.9388 -14.7328
-1 -11 -8 9.7501 0.4550
-1 -11 -6 -27.0755 -9.7099
-1 -11 -4 19.0398 -51.3905
-1 -10 -9 51.5577 -32.2860
-1 -10 -7 -13.5453 3.6917
-1 -10 -5 -60.1980 -1.3110
-1 -10 -3 12.5695 -70.9058
-1 -9 -8 64.9703 -48.2522
-1 -9 -6 -19.6328 6.1268
-1 -9 -4 63.8597 30.2918
-1 -9 -2 -31.6626 -29.5469
-1 -8 -7 12.2240 5.6470
-1 -8 -5 -128.9779 43.4353
-1 -8 -3 56.9548 8.5894
-1 -7 -6 -81.5206 -32.1418
-1 -7 -4 42.5843 16.3106
-1 -7 -2 78.5978 46.8097
-1 -6 -5 -92.3612 9.1726
-1 -6 -3 -61.0702 -23.4243
-1 -5 -4 -35.9675 25.6448
-1 -5 -2 88.4272 -29.8448
-1 -4 -3 71.3554 -22.1296
0 4 4 -101.8037 0.0000
0 5 1 11.3616 -0.0000
0 5 3 -63.4219 0.0000
0 5 5 -103.5159 0.0000
0 6 0 -138.0933 0.0000
0 6 2 -146.5178 0.0000
0 6 4 -10.9246 0.0000
0 6 6 -140.3699 0.0000
0 7 1 60.3538 -0.0000
0 7 3 -1.3217 -0.0000
0 7 5 -77.4941 0.0000
0 7 7 103.2663 -0.0000
0 8 0 -137.7191 0.0000
0 8 2 -6.4172 0.0000
0 8 4 48.1573 -0.0000
0 8 6 34.1241 -0.0000
0 8 8 63.1820 -0.0000
0 9 1 -139.1978 0.0000
0 9 3 25.5831 -0.0000
0 9 5 -18.4619 -0.0000
0 9 7 49.8536 -0.0000
0 9 9 150.7530 -0.0000
0 10 2 69.3783 -0.0000
0 10 4 64.8109 -0.0000
0 10 6 -61.5986 0.0000
0 10 8 30.2491 -0.0000
0 10 10 32.7838 -0.0000
0 11 5 -40.7101 0.0000
0 11 7 -43.3837 0.0000
0 11 9 25.0121 -0.0000
0 12 0 125.6828 -0.0000
0 12 2 -52.6034 0.0000
0 12 6 -16.8332 0.0000
0 12 8 10.2316 0.0000
0 13 3 119.2380 -0.0000
0 13 5 -0.4015 -0.0000
0 13 7 -0.2535 0.0000
0 14 0 -25.9668 -0.0000
0 15 3 -51.1283 0.0000
1 4 3 71.3554 22.1296
1 5 2 88.4272 29.8448
1 5 4 -35.9675 -25.6448
1 6 1 179.3246 0.0000
1 6 3 -61.0702 23.4243
1 6 5 -92.3612 -9.1726
1 7 2 78.5978 -46.8097
1 7 4 42.5843 -16.3106
1 7 6 -81.5206 32.1418
1 8 1 82.5420 0.0000
1 8 3 56.9548 -8.5894
1 8 5 -128.9779 -43.4353
1 8 7 12.2240 -5.6470
1 9 2 -31.6626 29.5469
1 9 4 63.8597 -30.2918
1 9 6 -19.6328 -6.1268
1 9 8 64.9703 48.2522
1 10 1 56.9437 0.0000
1 10 3 12.5695 70.9058
1 10 5 -60.1980 1.3110
1 10 7 -13.5453 -3.6917
1 10 9 51.5577 32.2860
1 11 4 19.0398 51.3905
1 11 6 -27.0755 9.7099
1 11 8 9.7501 -0.4550
1 11 10 19.9388 14.7328
1 12 1 -2.3253 -0.0000
1 12 3 -45.1510 -2.0755
1 12 5 -21.5211 61.3062
1 12 7 27.4784 12.4225
1 12 9 47.8630 -11.7173
1 13 2 146.0000 -10.4038
1 13 4 65.8720 -11.4675
1 13 6 54.3253 19.6371
1 13 8 25.7363 -20.7728
1 14 1 4.7161 -0.0000
1 14 3 -4.2223 -5.1804
1 14 5 12.7081 -9.6996
1 15 2 -30.7784 4.3722
2 4 2 46.5184 -0.0000
2 4 4 103.6405 0.0000
2 5 3 -4.2723 70.3693
2 5 5 91.0380 0.0000
2 6 2 56.5942 0.0000
2 6 4 6.5622 -24.0893
2 6 6 148.3319 -0.0000
2 7 3 34.8573 6.3061
2 7 5 20.6096 15.4566
2 7 7 38.7664 0.0000
2 8 2 16.4556 0.0000
2 8 4 105.1709 -59.5034
2 8 6 -4.7131 37.2301
2 8 8 84.3577 0.0000
2 9 3 5.4710 60.3710
2 9 5 -18.5421 -19.0868
2 9 7 79.4193 6.6267
2 9 9 25.8120 -0.0000
2 10 2 12.0142 0.0000
2 10 4 67.6211 69.9737
2 10 6 3.3801 28.8095
2 10 10 -34.9086 -0.0000
2 11 3 6.5682 50.6880
2 11 5 -31.6409 31.1788
2 11 7 0.2295 4.0213
2 11 9 -9.9530 17.2578
2 12 2 28.5588 0.0000
2 12 4 -12.5753 39.5903
2 12 6 28.5362 73.8901
2 12 8 9.5905 15.8211
2 13 3 49.2393 -22.2971
2 13 5 71.3938 20.8413
2 13 7 -18.4829 10.7517
2 14 2 20.2759 0.0000
2 14 4 31.0579 -5.0432
2 14 6 15.8141 4.8710
2 15 3 22.2688 -3.3833
3 4 3 -155.0054 0.0000
3 5 4 20.6157 -24.4881
3 6 3 -3.0124 -0.0000
3 6 5 -34.8004 -27.3536
3 7 4 -40.9234 -107.8781
3 7 6 45.7951 52.3182
3 8 3 -73.2544 0.0000
3 8 5 -4.2423 -55.1280
3 8 7 24.0691 -38.8030
3 9 4 41.7064 -45.0158
3 9 6 17.7959 17.4400
3 9 8 27.4190 15.2680
3 10 3 22.8031 -0.0000
3 10 5 -53.4232 -3.7389
3 10 7 -0.2393 -15.2395
3 10 9 -20.0197 0.1260
3 11 4 -11.9552 5.2698
3 11 6 27.9238 -29.8675
3 11 8 -9.3209 -9.8709
3 11 10 -13.7856 -4.6685
3 12 3 -78.4723 0.0000
3 12 5 -12.2008 5.5266
3 12 7 11.6061 19.6842
3 12 9 8.4103 20.6256
3 13 4 34.1292 -11.4680
3 13 6 -19.6557 -4.5027
3 14 3 -12.4587 -0.0000
3 14 5 -19.8672 2.3571
4 5 5 -27.0797 -0.0000
4 6 4 89.3915 0.0000
4 6 6 27.0682 0.0000
4 7 5 -34.5294 28.2573
4 7 7 13.1685 -0.0000
4 8 4 -11.1146 0.0000
4 8 6 52.0125 66.5112
4 8 8 16.1054 -0.0000
4 9 5 -3.7853 28.7959
4 9 7 3.7739 17.4669
4 9 9 12.1398 0.0000
4 10 4 45.2351 -0.0000
4 10 6 1.0711 49.7669
4 10 8 -18.1205 -4.6057
4 10 10 21.5561 -0.0000
4 11 5 51.0514 -7.4333
4 11 7 19.1409 -51.3430
4 11 9 21.7544 -16.0580
4 12 4 26.4982 -0.0000
4 12 6 33.7395 -14.0837
4 12 8 42.5989 16.7741
4 13 5 -22.5841 -34.7444
4 13 7 22.3632 -0.8050
4 14 4 -21.5752 0.0000
5 7 6 12.9146 32.3150
5 8 5 -41.0780 0.0000
5 8 7 29.2653 8.1942
5 9 6 -3.2567 37.8706
5 9 8 -8.6754 4.3857
5 10 5 -28.9488 0.0000
5 10 7 -74.4109 6.1334
5 10 9 -10.3440 -3.3641
5 11 6 16.3507 -4.6593
5 11 8 19.1699 -43.8414
5 12 5 8.1121 0.0000
5 12 7 17.0875 -0.3259
5 13 6 24.0515 -15.3441
6 8 8 35.2247 0.0000
6 9 7 -17.9157 7.4951
6 9 9 2.9936 -0.0000
6 10 6 -62.2113 0.0000
6 10 8 -16.3116 -2.7876
6 10 10 -13.8017 0.0000
6 11 7 21.0030 -1.3347
6 11 9 -18.3618 -15.9914
6 12 6 45.9025 0.0000
7 11 8 -5.0784 -18.4710
0 0 0 0.0 0.0
;
_olex2_exptl_crystal_mounting_method 'Diamond-anvil cell'
_olex2_submission_special_instructions 'No special instructions were received'
_oxdiff_exptl_absorpt_empirical_details
;
Empirical correction (ABSPACK) includes:
- Absorption correction using spherical harmonics
- Frame scaling
;
_oxdiff_exptl_absorpt_empirical_full_max 3.886
_oxdiff_exptl_absorpt_empirical_full_min 0.766
#END Tags that were not found in dictionaries
loop_
_space_group_symop_id
_space_group_symop_operation_xyz
1 'x, y, z'
2 '-y, x, z'
3 '-x, -y, z'
4 'y, -x, z'
5 'x, -z, y'
6 'x, -y, -z'
7 'x, z, -y'
8 'z, y, -x'
9 '-x, y, -z'
10 '-z, y, x'
11 'z, x, y'
12 'y, z, x'
13 '-y, -z, x'
14 'z, -x, -y'
15 '-y, z, -x'
16 '-z, -x, y'
17 '-z, x, -y'
18 'y, -z, -x'
19 'y, x, -z'
20 '-y, -x, -z'
21 '-x, z, y'
22 '-x, -z, -y'
23 'z, -y, x'
24 '-z, -y, -x'
25 'x+1/2, y+1/2, z+1/2'
26 '-y+1/2, x+1/2, z+1/2'
27 '-x+1/2, -y+1/2, z+1/2'
28 'y+1/2, -x+1/2, z+1/2'
29 'x+1/2, -z+1/2, y+1/2'
30 'x+1/2, -y+1/2, -z+1/2'
31 'x+1/2, z+1/2, -y+1/2'
32 'z+1/2, y+1/2, -x+1/2'
33 '-x+1/2, y+1/2, -z+1/2'
34 '-z+1/2, y+1/2, x+1/2'
35 'z+1/2, x+1/2, y+1/2'
36 'y+1/2, z+1/2, x+1/2'
37 '-y+1/2, -z+1/2, x+1/2'
38 'z+1/2, -x+1/2, -y+1/2'
39 '-y+1/2, z+1/2, -x+1/2'
40 '-z+1/2, -x+1/2, y+1/2'
41 '-z+1/2, x+1/2, -y+1/2'
42 'y+1/2, -z+1/2, -x+1/2'
43 'y+1/2, x+1/2, -z+1/2'
44 '-y+1/2, -x+1/2, -z+1/2'
45 '-x+1/2, z+1/2, y+1/2'
46 '-x+1/2, -z+1/2, -y+1/2'
47 'z+1/2, -y+1/2, x+1/2'
48 '-z+1/2, -y+1/2, -x+1/2'
loop_
_atom_site_label
_atom_site_type_symbol
_atom_site_fract_x
_atom_site_fract_y
_atom_site_fract_z
_atom_site_U_iso_or_equiv
_atom_site_adp_type
_atom_site_occupancy
_atom_site_site_symmetry_order
_atom_site_calc_flag
_atom_site_refinement_flags_posn
_atom_site_refinement_flags_adp
_atom_site_refinement_flags_occupancy
C1 C 0.8541(10) 0.6859(9) 0.6237(11) 0.169(10) Uiso 1 1 d D . .
H1 H 0.8509 0.7172 0.6210 0.203 Uiso 1 1 calc R . .
C2 C 0.8912(8) 0.6790(7) 0.6540(11) 0.169(10) Uiso 1 1 d D . .
H2 H 0.8864 0.6952 0.6807 0.203 Uiso 1 1 calc R . .
C3 C 0.8944(8) 0.6316(8) 0.6638(11) 0.169(10) Uiso 1 1 d D . .
H3 H 0.9085 0.6184 0.6388 0.203 Uiso 1 1 calc R . .
C4 C 0.8517(9) 0.6094(8) 0.6685(11) 0.169(10) Uiso 1 1 d D . .
H4 H 0.8411 0.6173 0.6972 0.203 Uiso 1 1 calc R . .
C5 C 0.8169(8) 0.6231(8) 0.6377(12) 0.169(10) Uiso 1 1 d D . .
H5 H 0.8272 0.6144 0.6091 0.203 Uiso 1 1 calc R . .
C6 C 0.7755(9) 0.5989(12) 0.6442(13) 0.169(10) Uiso 1 1 d D . .
H6A H 0.7504 0.6134 0.6323 0.203 Uiso 1 1 calc R . .
H6B H 0.7767 0.5691 0.6347 0.203 Uiso 1 1 calc R . .
C11 C 0.8582(11) 0.5453(8) 0.7139(10) 0.169(10) Uiso 1 1 d D . .
H11 H 0.8603 0.5682 0.7356 0.203 Uiso 1 1 calc R . .
C12 C 0.9010(8) 0.5233(11) 0.7085(14) 0.169(10) Uiso 1 1 d D . .
H12 H 0.9027 0.5101 0.7372 0.203 Uiso 1 1 calc R . .
C13 C 0.8976(9) 0.4825(12) 0.6828(14) 0.169(10) Uiso 1 1 d D . .
H13 H 0.9019 0.4861 0.6517 0.203 Uiso 1 1 calc R . .
C14 C 0.8595(9) 0.4551(9) 0.6949(13) 0.169(10) Uiso 1 1 d D . .
H14 H 0.8640 0.4465 0.7250 0.203 Uiso 1 1 calc R . .
C15 C 0.8186(7) 0.4809(10) 0.6939(10) 0.169(10) Uiso 1 1 d D . .
H15 H 0.8149 0.4925 0.6648 0.203 Uiso 1 1 calc R . .
C16 C 0.7764(10) 0.4617(12) 0.7080(12) 0.169(10) Uiso 1 1 d D . .
H16A H 0.7557 0.4847 0.7126 0.203 Uiso 1 1 calc R . .
H16B H 0.7654 0.4432 0.6853 0.203 Uiso 1 1 calc R . .
K1 K 0.8051(6) 0.5000 0.8051(6) 0.284(15) Uani 1 2 d S TU P
O2 O 0.9337(10) 0.6886(12) 0.6370(14) 0.297(10) Uiso 1 1 d D . .
H2A H 0.9482 0.6665 0.6362 0.446 Uiso 1 1 calc R . .
O3 O 0.9250(12) 0.6283(13) 0.6991(12) 0.297(10) Uiso 1 1 d D . .
H3A H 0.9252 0.6035 0.7083 0.446 Uiso 1 1 calc R . .
O4 O 0.8606(12) 0.5635(8) 0.6708(10) 0.297(10) Uiso 1 1 d D . .
O5 O 0.8118(8) 0.6696(9) 0.6354(11) 0.297(10) Uiso 1 1 d D . .
O6 O 0.7797(15) 0.6039(15) 0.6906(13) 0.297(10) Uiso 1 1 d D . .
H6 H 0.7909 0.5822 0.7008 0.446 Uiso 1 1 calc R . .
O12 O 0.9432(12) 0.5416(15) 0.7076(13) 0.297(10) Uiso 1 1 d D . .
H12A H 0.9611 0.5223 0.7043 0.446 Uiso 1 1 calc R . .
O13 O 0.9227(13) 0.4481(13) 0.7021(13) 0.297(10) Uiso 1 1 d D . .
H13A H 0.9127 0.4247 0.6948 0.446 Uiso 1 1 calc R . .
O14 O 0.8534(13) 0.4154(11) 0.6708(14) 0.297(10) Uiso 1 1 d D . .
O15 O 0.8224(9) 0.5168(10) 0.7236(11) 0.297(10) Uiso 1 1 d D . .
O16 O 0.7809(14) 0.4368(14) 0.7474(12) 0.297(10) Uiso 1 1 d D . .
H16 H 0.7684 0.4137 0.7448 0.446 Uiso 1 1 calc R . .
OA O 1.0000 0.5000 0.671(2) 0.297(10) Uiso 1 2 d S T P
loop_
_atom_site_aniso_label
_atom_site_aniso_U_11
_atom_site_aniso_U_22
_atom_site_aniso_U_33
_atom_site_aniso_U_23
_atom_site_aniso_U_13
_atom_site_aniso_U_12
K1 0.249(19) 0.35(3) 0.249(19) -0.062(19) 0.10(2) 0.062(19)
loop_
_atom_type_symbol
_atom_type_description
_atom_type_scat_dispersion_real
_atom_type_scat_dispersion_imag
_atom_type_scat_source
C C 0.0033 0.0016 'International Tables Vol C Tables 4.2.6.8 and 6.1.1.4'
H H 0.0000 0.0000 'International Tables Vol C Tables 4.2.6.8 and 6.1.1.4'
K K 0.2009 0.2494 'International Tables Vol C Tables 4.2.6.8 and 6.1.1.4'
O O 0.0106 0.0060 'International Tables Vol C Tables 4.2.6.8 and 6.1.1.4'
loop_
_geom_angle_atom_site_label_1
_geom_angle_atom_site_label_2
_geom_angle_atom_site_label_3
_geom_angle
_geom_angle_site_symmetry_1
_geom_angle_site_symmetry_3
C2 C1 H1 105.9 . .
O5 C1 H1 105.9 . .
O5 C1 C2 119.2(16) . .
O14 C1 H1 105.9 7_556 .
O14 C1 C2 123(3) 7_556 .
O14 C1 O5 95(3) 7_556 .
C1 C2 H2 109.8 . .
C1 C2 C3 108.5(13) . .
C3 C2 H2 109.8 . .
O2 C2 C1 116(3) . .
O2 C2 H2 109.8 . .
O2 C2 C3 102.5(15) . .
C2 C3 H3 106.0 . .
C4 C3 C2 114.3(13) . .
C4 C3 H3 106.0 . .
O3 C3 C2 105.4(16) . .
O3 C3 H3 106.0 . .
O3 C3 C4 118(3) . .
C3 C4 H4 105.4 . .
C5 C4 C3 116.3(13) . .
C5 C4 H4 105.4 . .
O4 C4 C3 107(2) . .
O4 C4 H4 105.4 . .
O4 C4 C5 117(2) . .
C4 C5 H5 105.2 . .
C4 C5 C6 113(3) . .
C6 C5 H5 105.2 . .
O5 C5 C4 113.1(15) . .
O5 C5 H5 105.2 . .
O5 C5 C6 114.3(19) . .
C5 C6 H6A 113.6 . .
C5 C6 H6B 113.6 . .
H6A C6 H6B 110.9 . .
O6 C6 C5 90(3) . .
O6 C6 H6A 113.6 . .
O6 C6 H6B 113.6 . .
C12 C11 H11 110.3 . .
O4 C11 H11 110.3 . .
O4 C11 C12 91.7(14) . .
O4 C11 O15 118(3) . .
O15 C11 H11 110.3 . .
O15 C11 C12 115.0(14) . .
C11 C12 H12 97.8 . .
C13 C12 C11 112.3(15) . .
C13 C12 H12 97.8 . .
O12 C12 C11 129(3) . .
O12 C12 H12 97.8 . .
O12 C12 C13 113(3) . .
C12 C13 H13 114.7 . .
C12 C13 C14 114(2) . .
C14 C13 H13 114.7 . .
O13 C13 C12 111(4) . .
O13 C13 H13 114.7 . .
O13 C13 C14 84(3) . .
C13 C14 H14 106.3 . .
C15 C14 C13 111.0(18) . .
C15 C14 H14 106.3 . .
O14 C14 C13 117(3) . .
O14 C14 H14 106.3 . .
O14 C14 C15 109.3(17) . .
C14 C15 H15 108.2 . .
C14 C15 K1 99.9(19) . .
C16 C15 C14 121(3) . .
C16 C15 H15 108.2 . .
C16 C15 K1 71.3(16) . .
K1 C15 H15 145.8 . .
O15 C15 C14 109.2(15) . .
O15 C15 H15 108.2 . .
O15 C15 C16 101.0(15) . .
O15 C15 K1 42.2(14) . .
C15 C16 H16A 109.3 . .
C15 C16 H16B 109.3 . .
C15 C16 K1 83.7(16) . .
H16A C16 H16B 107.9 . .
K1 C16 H16A 77.5 . .
K1 C16 H16B 162.4 . .
O16 C16 C15 112(3) . .
O16 C16 H16A 109.3 . .
O16 C16 H16B 109.3 . .
O16 C16 K1 54(2) . .
C15 K1 C15 105.1(10) 23_565 .
C16 K1 C15 25.1(2) . .
C16 K1 C15 25.0(2) 23_565 23_565
C16 K1 C15 84.6(10) . 23_565
C16 K1 C15 84.6(10) 23_565 .
C16 K1 C16 69.5(14) . 23_565
O2 K1 C15 139.5(8) 44_666 .
O2 K1 C15 139.5(8) 41_646 23_565
O2 K1 C15 82.2(9) 44_666 23_565
O2 K1 C15 82.2(9) 41_646 .
O2 K1 C16 88.4(11) 41_646 .
O2 K1 C16 150.8(12) 44_666 .
O2 K1 C16 88.4(11) 44_666 23_565
O2 K1 C16 150.8(12) 41_646 23_565
O2 K1 O2 118.1(19) 44_666 41_646
O2 K1 O3 54.5(8) 41_646 41_646
O2 K1 O3 97.4(11) 41_646 44_666
O2 K1 O3 54.5(8) 44_666 44_666
O2 K1 O3 97.4(11) 44_666 41_646
O2 K1 O16 72.0(12) 41_646 .
O2 K1 O16 168.2(14) 41_646 23_565
O2 K1 O16 72.0(12) 44_666 23_565
O2 K1 O16 168.2(14) 44_666 .
O3 K1 C15 121.9(9) 44_666 23_565
O3 K1 C15 90.4(8) 44_666 .
O3 K1 C15 121.9(9) 41_646 .
O3 K1 C15 90.4(8) 41_646 23_565
O3 K1 C16 108.6(10) 41_646 .
O3 K1 C16 108.6(10) 44_666 23_565
O3 K1 C16 113.7(8) 41_646 23_565
O3 K1 C16 113.7(8) 44_666 .
O3 K1 O3 127.9(18) 44_666 41_646
O15 K1 C15 21.7(5) 23_565 23_565
O15 K1 C15 21.7(5) . .
O15 K1 C15 106.2(12) 23_565 .
O15 K1 C15 106.2(12) . 23_565
O15 K1 C16 81.8(11) 23_565 .
O15 K1 C16 81.8(11) . 23_565
O15 K1 C16 42.6(7) 23_565 23_565
O15 K1 C16 42.6(7) . .
O15 K1 O2 117.8(9) 23_565 41_646
O15 K1 O2 117.8(9) . 44_666
O15 K1 O2 94.8(9) . 41_646
O15 K1 O2 94.8(9) 23_565 44_666
O15 K1 O3 142.4(9) 23_565 44_666
O15 K1 O3 142.4(9) . 41_646
O15 K1 O3 71.1(10) 23_565 41_646
O15 K1 O3 71.1(10) . 44_666
O15 K1 O15 115.4(17) 23_565 .
O15 K1 O16 64.8(11) 23_565 23_565
O15 K1 O16 64.8(11) . .
O15 K1 O16 74.4(12) . 23_565
O15 K1 O16 74.4(12) 23_565 .
O16 K1 C15 86.0(11) 23_565 .
O16 K1 C15 43.7(10) 23_565 23_565
O16 K1 C15 43.7(10) . .
O16 K1 C15 86.0(12) . 23_565
O16 K1 C16 80.5(14) . 23_565
O16 K1 C16 80.5(14) 23_565 .
O16 K1 C16 25.1(5) . .
O16 K1 C16 25.1(5) 23_565 23_565
O16 K1 O3 133.2(11) 23_565 41_646
O16 K1 O3 83.6(11) . 41_646
O16 K1 O3 83.6(11) 23_565 44_666
O16 K1 O3 133.2(11) . 44_666
O16 K1 O16 98.7(19) 23_565 .
C2 O2 K1 117(2) . 42_566
C2 O2 H2A 109.5 . .
K1 O2 H2A 70.6 42_566 .
C3 O3 K1 114.2(19) . 42_566
C3 O3 H3A 109.5 . .
K1 O3 H3A 129.1 42_566 .
C11 O4 C4 115(2) . .
C1 O5 C5 105.1(3) . .
C6 O6 H6 109.5 . .
C12 O12 H12A 109.5 . .
C13 O13 H13A 109.5 . .
C1 O14 C14 127(4) 5_565 .
C11 O15 C15 113.5(15) . .
C11 O15 K1 118(2) . .
C15 O15 K1 116.1(18) . .
C16 O16 K1 101(3) . .
C16 O16 H16 109.5 . .
K1 O16 H16 144.7 . .
loop_
_geom_bond_atom_site_label_1
_geom_bond_atom_site_label_2
_geom_bond_distance
_geom_bond_site_symmetry_2
C1 H1 0.9800 .
C1 C2 1.500(3) .
C1 O5 1.450(3) .
C1 O14 1.30(5) 7_556
C2 H2 0.9800 .
C2 C3 1.501(3) .
C2 O2 1.450(3) .
C3 H3 0.9800 .
C3 C4 1.500(3) .
C3 O3 1.450(3) .
C4 H4 0.9800 .
C4 C5 1.500(3) .
C4 O4 1.450(3) .
C5 H5 0.9800 .
C5 C6 1.500(3) .
C5 O5 1.450(3) .
C6 H6A 0.9700 .
C6 H6B 0.9700 .
C6 O6 1.450(3) .
C11 H11 0.9800 .
C11 C12 1.500(3) .
C11 O4 1.450(3) .
C11 O15 1.450(3) .
C12 H12 0.9800 .
C12 C13 1.50(2) .
C12 O12 1.43(3) .
C13 H13 0.9800 .
C13 C14 1.50(2) .
C13 O13 1.450(3) .
C14 H14 0.9800 .
C14 C15 1.500(3) .
C14 O14 1.450(3) .
C15 H15 0.9800 .
C15 C16 1.500(3) .
C15 K1 3.52(3) .
C15 O15 1.451(3) .
C16 H16A 0.9700 .
C16 H16B 0.9700 .
C16 K1 3.35(4) .
C16 O16 1.450(3) .
K1 C15 3.52(3) 23_565
K1 C16 3.35(4) 23_565
K1 O2 2.73(4) 41_646
K1 O2 2.73(4) 44_666
K1 O3 3.11(4) 44_666
K1 O3 3.11(4) 41_646
K1 O15 2.63(4) .
K1 O15 2.63(4) 23_565
K1 O16 2.75(4) 23_565
K1 O16 2.75(4) .
O2 K1 2.73(4) 42_566
O2 H2A 0.8200 .
O3 K1 3.11(4) 42_566
O3 H3A 0.8200 .
O6 H6 0.8200 .
O12 H12A 0.8200 .
O13 H13A 0.8200 .
O14 C1 1.30(5) 5_565
O16 H16 0.8200 .
loop_
_geom_torsion_atom_site_label_1
_geom_torsion_atom_site_label_2
_geom_torsion_atom_site_label_3
_geom_torsion_atom_site_label_4
_geom_torsion
_geom_torsion_site_symmetry_1
_geom_torsion_site_symmetry_4
C1 C2 C3 C4 -38(3) . .
C1 C2 C3 O3 -169(3) . .
C1 C2 O2 K1 166(2) . 42_566
C2 C1 O5 C5 -63(3) . .
C2 C3 C4 C5 39(4) . .
C2 C3 C4 O4 171(3) . .
C2 C3 O3 K1 -36(3) . 42_566
C3 C2 O2 K1 -76(2) . 42_566
C3 C4 C5 C6 179(3) . .
C3 C4 C5 O5 -49(3) . .
C3 C4 O4 C11 103(3) . .
C4 C3 O3 K1 -165(2) . 42_566
C4 C5 C6 O6 44(3) . .
C4 C5 O5 C1 56(3) . .
C5 C4 O4 C11 -125(3) . .
C6 C5 O5 C1 -173(3) . .
C11 C12 C13 C14 -43(4) . .
C11 C12 C13 O13 -137(3) . .
C12 C11 O4 C4 -131(3) . .
C12 C11 O15 C15 -52(4) . .
C12 C11 O15 K1 90(2) . .
C12 C13 C14 C15 52(4) . .
C12 C13 C14 O14 179(3) . .
C13 C14 C15 C16 -175(3) . .
C13 C14 C15 K1 -101(3) . .
C13 C14 C15 O15 -59(3) . .
C13 C14 O14 C1 118(5) . 5_565
C14 C15 C16 K1 90(2) . .
C14 C15 C16 O16 44(4) . .
C14 C15 O15 C11 59(3) . .
C14 C15 O15 K1 -84(2) . .
C15 C14 O14 C1 -115(4) . 5_565
C15 C16 O16 K1 64(3) . .
C16 C15 O15 C11 -172(3) . .
C16 C15 O15 K1 45(3) . .
K1 C15 C16 O16 -47(3) . .
K1 C15 O15 C11 142(3) . .
O2 C2 C3 C4 -161(3) . .
O2 C2 C3 O3 67(4) . .
O3 C3 C4 C5 164(3) . .
O3 C3 C4 O4 -64(3) . .
O4 C4 C5 C6 52(3) . .
O4 C4 C5 O5 -176(3) . .
O4 C11 C12 C13 -79(3) . .
O4 C11 C12 O12 72(5) . .
O4 C11 O15 C15 55(3) . .
O4 C11 O15 K1 -164(2) . .
O5 C1 C2 C3 54(3) . .
O5 C1 C2 O2 169(3) . .
O5 C5 C6 O6 -87(4) . .
O12 C12 C13 C14 160(3) . .
O12 C12 C13 O13 67(5) . .
O13 C13 C14 C15 163(3) . .
O13 C13 C14 O14 -70(4) . .
O14 C1 C2 C3 -65(3) 7_556 .
O14 C1 C2 O2 50(3) 7_556 .
O14 C1 O5 C5 70(3) 7_556 .
O14 C14 C15 C16 54(4) . .
O14 C14 C15 K1 128(3) . .
O14 C14 C15 O15 171(3) . .
O15 C11 C12 C13 43(4) . .
O15 C11 C12 O12 -166(4) . .
O15 C11 O4 C4 109(3) . .
O15 C15 C16 K1 -30(2) . .
O15 C15 C16 O16 -77(4) . .
loop_
_refln_index_h
_refln_index_k
_refln_index_l
_refln_F_squared_meas
_refln_F_squared_sigma
_refln_scale_group_code
4 2 2 1213.78 148.251 12
-3 -4 1 87.457 37.4556 9
-3 4 -1 112.305 50.74 6
3 4 1 94.3254 44.1817 5
-4 3 1 13.4274 40.6659 3
4 -3 1 29.3148 19.6762 4
-4 -3 -1 93.7983 42.0567 9
4 -3 -1 135.173 81.3391 4
4 3 1 73.553 32.9645 5
-4 3 -1 84.4213 42.8348 3
-4 3 -1 55.8292 23.5932 11
-4 -3 1 188.813 74.2973 9
3 -4 1 62.8967 43.3516 7
3 4 -1 71.3543 30.8555 14
4 -3 3 12384.9 600.192 4
4 3 3 16279.2 672.605 5
3 4 3 14959.5 616.622 12
-4 3 -3 15493.9 586.101 6
4 -3 3 16000.2 599.365 7
-3 4 -3 15491.2 607.25 6
4 3 3 16679.9 631.471 12
-4 -4 0 19872.9 646.917 9
4 -4 0 19134.6 632.739 7
-4 4 0 20128.4 638.269 6
-4 4 0 18192.1 561.708 3
-4 -4 0 19528.2 633.217 8
4 -4 0 19531.8 571.419 10
4 -4 -2 2199.68 243.889 10
-4 4 -2 2498.85 216.812 3
4 -4 2 2628.66 228.324 4
4 -4 2 2452.67 206.044 2
-4 4 -2 2577.42 229.996 6
4 -4 2 2434.11 204.978 10
-4 4 -2 2461.05 219.726 11
-4 4 -2 2413.33 214.319 1
-4 -4 -2 2095.6 194.983 15
-4 -4 -2 2409.76 227.954 8
-4 -4 -2 2586.06 211.977 16
4 4 2 2286.61 233.434 12
-4 -4 -2 1967.94 209.632 9
4 4 2 2084.24 205.806 5
4 -4 2 2374.77 212.759 7
0 5 -1 62.5679 57.9776 14
-1 5 0 43.356 29.1627 6
5 -1 0 38.951 32.732 5
-5 -1 0 22.2561 34.3658 3
-5 0 1 19.9723 61.5365 1
1 -5 0 12.1758 29.428 10
-5 0 1 102.019 65.3922 8
0 -5 1 98.4119 53.9418 16
5 0 1 55.8771 33.9222 4
-5 0 1 10.5391 49.8693 3
0 -5 1 21.4538 33.1079 15
0 -5 -1 0.14535 41.4572 15
5 1 0 88.1347 47.8753 4
5 0 1 87.4706 51.3912 5
0 5 1 90.2829 53.4895 13
-5 0 -1 2.34533 29.7815 3
-5 1 0 86.1556 37.4824 6
-5 0 -1 41.1919 35.6996 1
5 0 -1 25.1891 68.2701 4
0 5 -1 7.92354 24.7394 11
-5 -1 0 111.23 46.1493 8
0 -5 -1 67.345 44.2407 16
5 -2 1 499.995 91.9973 7
-2 5 -1 560.813 95.5774 6
-5 -2 -1 480.405 98.3331 8
-5 1 -2 418.475 83.1276 6
-2 -5 1 472.633 96.254 15
5 1 2 522.371 99.4537 4
-5 1 -2 499.167 98.7609 1
5 1 2 489.211 89.6349 2
1 -5 2 344.201 91.415 16
1 5 -2 491.878 102.816 11
2 -5 -1 546.053 109.403 10
-1 5 2 445.389 100.496 13
-1 -5 -2 451.222 99.8217 16
5 1 2 419.747 82.4857 12
-5 -2 -1 321.251 72.047 9
-1 -5 -2 560.871 103.787 15
1 -5 2 250.539 78.4365 10
-5 1 -2 502.086 95.6649 3
-5 -2 -1 421.459 80.9938 3
-5 2 1 328.381 110.736 3
-2 5 -1 493.558 93.4132 14
5 1 2 414.74 93.4252 5
2 5 1 445.361 94.0782 12
2 -5 1 335.357 83.6074 10
-1 5 -2 352.944 86.0653 11
-1 -5 2 393.611 114.569 15
1 5 2 493.934 105.334 13
-2 5 1 557.296 100.447 13
2 5 -1 515.985 108.662 14
-5 -1 -2 445.492 102.211 8
-5 -1 -2 379.621 89.5244 1
-2 -5 -1 393.732 90.6476 15
5 -1 2 434.656 93.7312 4
-2 -5 -1 456.287 90.2372 16
5 -1 2 469.804 96.5047 2
-5 1 2 87.9932 143.732 1
1 -5 -2 363.029 84.1714 15
-5 2 -1 395.7 88.3554 6
-5 -2 1 473.365 124.172 3
-5 2 -1 516.686 96.5224 3
1 5 2 404.979 95.3985 12
-1 5 -2 277.502 73.093 6
-5 2 -1 484.531 97.8691 1
-2 5 1 489.593 112.505 6
5 -1 2 336.191 82.7267 5
1 -5 -2 378.396 106.213 10
-2 -5 -1 411.792 91.3417 9
2 -5 1 424.052 87.8734 7
-5 -1 -2 428.817 91.7292 3
5 2 1 452.866 86.9635 4
3 5 2 45.4477 34.8766 12
-3 5 -2 39.2835 48.3692 11
-5 2 -3 71.2598 44.2526 1
5 -3 2 127.753 59.9398 2
5 -3 2 52.5234 50.6363 7
3 -5 -2 53.1431 76.0285 7
-5 -3 -2 55.5083 56.0984 8
-2 -5 -3 58.4865 68.0457 15
-5 -3 -2 120.065 52.4423 3
3 5 2 59.4258 50.0252 5
-3 -5 2 29.0456 57.9029 15
3 -5 -2 69.4547 63.3366 10
5 -3 2 112.429 58.7104 4
5 2 3 68.6824 37.9692 12
-3 -5 2 155.962 101.467 9
5 2 3 108.422 61.2277 4
-3 -5 2 73.4251 59.5155 16
-5 -3 -2 151.831 78.4292 9
-5 2 -3 129.747 70.2336 3
-5 3 2 105.014 100.085 1
-3 5 -2 63.8236 38.1112 14
-3 5 -2 64.4913 35.0596 3
-3 5 -2 36.0893 43.3103 6
-5 2 -3 103.092 62.3199 6
3 5 2 32.6458 44.7674 13
5 -3 2 72.7779 36.3549 5
5 2 3 194.279 81.7293 5
3 -5 0 2382.88 208.657 10
-3 -5 0 2354.82 211.811 15
-5 3 0 2319.78 229.189 1
-3 5 0 2586.34 224.111 6
-5 -3 0 2488.15 227.845 9
5 0 3 2583.32 262.711 5
-3 5 0 2549.94 188.546 3
-5 -3 0 2638.88 207.399 3
5 -3 0 2317.75 231.49 2
-5 -3 0 2638 243.814 8
5 -3 0 2412.02 229.301 7
3 -5 0 2150.76 211.197 7
3 -5 0 2658.09 193.485 4
-5 3 0 2642.41 227.966 6
-5 0 -3 2326.98 245.449 3
-5 3 0 2713.1 234.549 3
3 -5 2 98.0001 48.5671 4
-3 -5 -2 74.5541 47.6536 15
3 -5 2 110.028 66.2661 7
-5 3 -2 51.9502 47.7699 3
-5 3 -2 83.162 44.6655 11
-2 5 -3 114.392 68.9831 11
5 3 2 80.7948 46.589 4
5 -2 3 168.483 85.9012 2
-5 -2 -3 158.926 85.0664 8
5 -3 -2 127.694 116.04 7
5 3 2 76.4209 62.7965 12
5 -3 -2 2.86861 122.985 2
3 -5 2 116.929 53.2977 10
3 5 -2 65.6347 50.0249 14
-5 3 -2 79.0266 47.4748 6
5 3 2 55.8402 46.3101 13
-5 -2 -3 78.0364 50.4372 3
-3 -5 -2 107.457 48.5633 16
2 5 3 28.8923 34.283 13
-3 -5 -2 71.9765 52.2789 9
5 3 2 101.259 52.6435 5
5 -2 3 21.4862 41.5935 4
-5 -3 2 65.997 54.5655 9
2 5 3 82.9422 65.1356 12
-5 -3 2 23.1011 91.7013 8
5 -2 3 68.4265 36.7814 7
-5 3 -2 136.337 59.8459 1
-5 -4 -3 500.433 120.9 15
5 -4 3 790.522 142.301 2
5 -4 3 721.188 130.775 7
-5 -4 -3 628.004 161.785 8
4 5 3 811.917 181.024 5
-4 5 -3 752.125 140.364 11
-4 5 -3 697.602 137.606 3
4 5 3 527.384 120.9 12
5 -4 3 799.335 155.754 4
-4 5 -3 647.021 131.131 6
-5 -4 -3 935.47 140.453 16
-5 -4 -3 619.688 124.642 9
-5 4 1 4226.28 349.934 3
-4 5 -1 3861.04 249.375 14
-5 -4 -1 4376.85 270.03 16
-5 -4 -1 4434.76 312.113 8
4 -5 -1 4631.71 363.579 7
-5 -4 -1 4893.82 255.727 3
-4 5 -1 4552.6 310.481 6
-5 4 1 4621.61 361.239 6
5 -4 1 4087.11 286.298 4
-5 -4 -1 4747.45 318.325 9
-5 -4 -1 4245.09 270.398 15
-4 -5 1 4168.82 309.026 15
-4 -5 1 5068.5 337.468 16
-4 -5 1 5086.33 382.266 9
5 -4 1 4571.47 308.701 7
4 -5 -1 4498.8 315.349 10
5 4 -1 4806.64 316.699 14
5 -4 1 4161.88 268.907 10
-4 5 -1 4630.28 286.362 1
-4 5 -1 4465.5 270.341 3
5 -4 1 4328.81 291.334 2
4 -5 1 4612.27 276.821 2
4 5 -1 4740.11 334.672 14
4 -5 1 4456.78 310.536 7
-4 -5 -1 4451.8 316.773 9
-5 -4 1 4925.16 407.649 8
-4 -5 -1 4609.72 293.386 8
-5 -4 1 4241.93 326.612 3
-4 -5 -1 4495.47 290.845 16
5 -4 -1 4370.3 361.712 7
-5 -4 1 4319.83 300.162 15
-4 5 1 4475.63 357.864 6
-5 4 -1 3904.63 287.607 1
5 4 1 4381.01 253.296 4
-4 5 1 4513.17 284.857 13
-5 -4 1 4957.89 380.061 9
-5 4 -1 4789.94 304.223 3
-5 4 -1 4377.22 303.645 6
4 -5 1 4389.95 284.729 10
5 -4 -1 4710.72 315.563 10
-4 -5 -1 4207.88 289.649 15
-4 5 1 4493.18 337.802 3
-5 4 -3 628.17 127.381 6
-5 4 -3 691.638 134.949 3
-5 4 -3 576.251 133.982 1
4 -5 3 656.964 125.086 10
5 4 3 718.978 135.33 5
5 4 3 657.984 134.686 12
4 -5 3 745.047 153.084 4
4 -5 3 770.35 140.279 7
-4 -5 -3 628.196 136.434 9
-4 -5 -3 692.581 140.319 8
-4 -5 -3 777.529 141.94 16
-4 -5 -3 580.05 121.517 15
5 -5 0 527.549 116.388 4
5 -5 0 646.985 133.1 2
-5 5 0 379.93 88.1079 3
-5 -5 0 513.022 119.493 15
-5 -5 0 640.679 135.912 8
-5 5 0 443.027 114.785 1
-5 5 0 379.234 115.186 6
5 -5 0 551.098 135.348 7
5 -5 0 590.266 112.878 10
-5 5 -2 8950.74 482.148 6
5 -5 -2 8407.5 611.401 7
-5 5 -2 9372.3 473.355 11
5 -5 2 9290.31 438.816 2
-5 -5 2 9607.16 528.979 15
-5 -5 -2 9162.18 443.789 16
5 -5 2 8753.89 445.651 4
-5 -5 -2 9106.32 393.806 3
5 5 -2 8872.57 481.413 14
-5 -5 -2 8594.47 450.481 8
5 5 2 11287.5 462.502 4
5 -5 2 7909.9 409.877 10
-5 5 -2 8881.17 446.812 1
-5 5 -2 8498.84 391.249 14
-5 -5 -2 9003.02 485.924 9
5 -5 2 9254.27 459.71 7
5 5 4 660.564 164.859 12
-5 5 -4 620.205 143.048 6
-5 -5 -4 570.316 169.962 9
5 -5 4 792.494 161.78 7
0 -6 0 48844.3 955.044 10
-6 0 0 48730.2 919.887 6
0 -6 0 48103 973.137 15
-6 0 0 50782.7 1057.25 3
-6 0 0 48905.7 1066.6 8
0 6 0 50231.8 814.818 6
-6 0 0 48703 1070.61 1
6 0 0 45137.2 1053.19 2
1 6 -1 6741.9 363.924 11
6 1 1 7055.07 369.36 2
1 6 1 6361.6 353.654 12
-1 6 1 7055.01 382.177 13
-1 6 -1 6794.46 332.458 6
-1 -6 -1 6977.75 380.503 15
1 -6 1 6623.48 360.601 10
1 -6 1 6908.84 370.208 15
6 -1 1 7130.95 382.898 2
1 -6 -1 7381.64 374.426 15
6 -1 -1 6210.51 490.836 2
-1 -6 -1 7087.85 367.798 10
-1 6 -1 6482.03 372.206 11
6 -1 1 6467.33 336.104 7
-6 1 -1 7027.97 374.699 3
-6 1 -1 7025.3 370.542 8
-1 -6 1 6355.98 345.388 10
-6 -1 1 6985.99 480.548 1
-6 -1 -1 6680.85 368.938 1
-1 6 1 6884.33 373.245 6
-6 -1 -1 6619.09 353.671 3
-6 1 1 7515.03 499.257 1
-6 1 -1 7018.55 352.497 6
-1 -6 1 7142.52 394.051 15
-6 -1 -1 6793.06 378.829 8
-1 -6 -1 7126.13 384.055 16
-6 1 -1 6970.81 384.455 1
1 6 -1 7134.21 408.382 14
-1 -6 -1 6401.36 342.361 9
1 -6 -1 7114.79 394.214 10
-2 -6 0 363.5 93.6814 9
-2 -6 0 393.644 84.7527 10
2 -6 0 303.085 82.6691 15
-6 2 0 315.315 101.746 3
2 -6 0 386.802 98.5694 10
2 -6 0 313.89 83.9072 16
6 0 2 324.968 89.5343 4
0 6 -2 328.172 81.7294 6
6 -2 0 179.62 80.2763 2
-6 0 -2 316.746 73.37 1
-2 -6 0 305.463 85.9956 16
0 6 2 257.727 83.0025 13
-6 -2 0 375.792 86.9756 1
-6 0 2 217.524 106.778 8
-6 -2 0 268.518 85.4692 3
6 0 2 320.91 86.881 2
6 0 2 286.885 67.6186 12
0 -6 2 288.193 104.635 16
0 -6 2 251.606 73.9275 10
-6 0 -2 302.649 72.9361 6
-2 -6 0 296.269 95.6309 15
0 6 -2 380.122 94.1805 11
6 2 0 347.661 103.933 2
6 0 2 293.49 83.2494 5
0 -6 -2 219.311 64.4821 9
0 -6 -2 283.078 93.1035 10
-6 -2 0 329.857 100.428 8
2 -6 0 371.991 100.246 7
0 6 2 398.864 100.767 12
6 -2 0 314.334 87.2162 7
-6 -2 0 294.124 82.7802 9
0 -6 2 289.848 96.5119 15
-6 0 2 50.0487 85.6738 1
-6 2 0 402.388 98.818 6
-6 2 0 256.471 86.9337 1
-6 0 -2 219.3 70.0222 3
-6 0 -2 311.168 87.7406 8
6 0 -2 149.334 145.85 2
0 6 -2 277.81 79.0348 14
-2 6 0 368.887 90.1945 6
0 -6 -2 430.28 102.048 15
2 -6 -2 59.8474 46.8981 10
-6 -2 2 10.001 74.979 9
6 2 2 27.592 30.8499 4
2 6 2 58.4634 34.6176 12
-2 -6 2 4.49695 55.0149 15
2 -6 2 24.6121 39.0264 16
-2 -6 -2 31.0584 52.1236 10
-6 -2 -2 69.1724 40.0265 1
-6 2 2 2.51024 95.4274 1
-2 6 -2 64.8378 39.6624 6
-2 -6 -2 27.7644 56.0546 16
2 -6 -2 52.8248 92.6791 7
6 2 2 0.94054 37.2093 5
6 -2 2 26.2737 37.9543 2
2 -6 2 26.8406 33.8051 15
-2 6 2 57.6948 50.8382 13
-2 -6 2 96.0743 75.8206 9
2 -6 2 32.5378 45.2608 10
-6 2 -2 34.4192 46.0803 3
-2 6 -2 80.7425 44.9591 14
-6 -2 -2 18.7287 41.0637 8
-2 -6 -2 77.7971 55.338 15
6 -2 -2 64.666 85.0464 7
6 -2 2 29.4312 37.4948 4
-6 2 2 53.689 98.4235 3
2 6 2 82.3116 49.1983 13
2 6 -2 133.326 61.605 11
-6 2 -2 78.2869 56.884 6
2 6 2 15.9371 30.7347 5
2 -6 -2 9.08457 32.735 15
2 -6 2 121.05 58.6154 7
-6 2 -2 24.0051 57.2998 1
-6 -2 -2 11.8482 29.9583 3
-2 -6 -2 65.0124 36.7783 9
-6 2 -2 95.8824 50.5466 11
2 -6 -2 26.7755 43.6113 16
6 2 2 110.96 53.6119 12
-2 -6 2 120.66 83.4638 16
6 -2 2 65.2224 36.661 5
-6 -2 2 230.088 132.6 8
6 2 2 38.0241 39.9409 2
-2 6 -2 30.8456 36.1103 11
-6 -2 -2 75.2578 47.2001 9
-2 -6 2 119.733 45.8389 10
6 -2 -2 41.7149 78.8812 2
-6 2 -2 124.298 66.4037 8
2 6 -2 47.913 57.3125 14
6 -2 2 55.8004 53.3987 7
6 -3 1 1502.87 159.042 5
-6 -3 -1 1667.96 187.455 9
-6 1 -3 968.03 214.306 8
-6 -3 -1 1730.95 203.206 8
-6 -3 -1 1793.76 178.749 3
-6 3 1 1564.4 222.334 6
6 1 3 1934.58 225.417 4
6 -3 1 1626.27 182.873 7
3 -6 -1 1733.87 180.175 15
-6 1 -3 1575.02 212.285 1
-6 1 -3 1439.47 179.294 6
-3 6 -1 1958.55 167.243 3
6 1 3 1760 197.959 12
-3 -6 1 1780.26 211.291 15
6 1 3 1751.98 216.683 5
3 -6 -1 1710.23 200.774 10
-3 6 -1 1582.46 197.145 11
3 6 1 1509.48 158.778 5
-6 3 1 1837.24 224 8
-3 -6 1 1580.8 162.429 10
-6 -3 -1 1736.26 180.725 1
6 1 3 2103.89 224.661 2
-1 -6 -3 1874.72 214.971 15
6 -3 1 1993.05 211.6 2
-6 1 -3 1508.85 205.531 3
3 -6 -1 1860.67 227.156 7
-3 6 -1 1569.8 186.336 6
-6 3 1 1893.99 249.411 3
3 -6 1 1817.66 162.583 4
-3 -6 -1 1591.13 200.109 16
-3 -6 -1 1542.16 183.761 15
-3 6 1 1803.67 217.053 6
6 -1 3 1443.94 196.25 5
-6 3 -1 1773.21 197.706 3
-3 6 1 1852.28 202.534 3
-3 -6 -1 1588.32 194.862 9
3 -6 1 1494.9 181.482 10
6 -1 3 1801.96 221.319 4
-6 3 -1 1692.59 169.163 8
-6 3 -1 1840.56 211.211 1
6 -1 3 1810.88 193.998 7
3 6 -1 1799.54 184.299 11
-6 3 -1 1777.31 198.557 6
6 3 1 1793.74 184.588 2
6 -1 3 1978.08 222.857 2
6 -3 -1 1702.43 264.003 2
-6 -1 -3 1363.35 220.977 8
3 -6 1 1638.08 192.726 7
6 -3 -1 1650.81 234.338 7
3 -6 1 1534.98 165.984 15
-6 -1 -3 1395.39 187.602 3
-3 6 1 1904.39 197.671 13
3 6 -1 1751.39 214.756 14
-6 -3 1 1507.04 214.387 3
-6 -1 -3 1625.71 194.803 9
-6 -1 -3 1762.44 219.696 1
-3 6 -3 115.569 75.7526 6
3 6 3 73.8116 68.5035 12
-6 3 -3 119.852 77.5976 8
-3 -6 -3 34.9813 56.3595 9
-3 -6 -3 76.2534 67.2531 8
3 -6 3 115.508 70.9872 10
6 3 3 64.4166 63.8526 5
-3 -6 -3 160.755 83.3745 16
6 -3 3 56.718 50.9414 2
3 6 3 48.7862 58.6231 13
-6 -3 -3 48.4439 40.9074 3
-6 -3 -3 45.9202 48.6537 1
6 3 3 105.013 43.4888 2
-6 -3 -3 82.0932 47.3824 9
6 -3 3 159.173 80.3652 5
-6 3 -3 72.5462 78.6367 1
3 -6 3 103.708 60.094 7
-6 3 -3 106.594 58.4708 6
6 -3 3 76.6494 48.6657 10
-6 3 -3 100.152 49.4111 11
6 3 3 67.4965 54.1655 12
-3 6 -3 140.843 85.0778 11
-6 -3 -3 127.301 66.5416 8
-3 -6 -3 66.2694 66.5453 15
6 -3 3 56.8801 52.3632 4
6 3 3 148.026 81.1556 4
-6 3 -3 69.8936 71.7995 3
6 -3 3 161.993 69.802 7
-6 -4 -2 358.632 95.8144 8
-4 -6 2 484.111 150.389 9
-6 4 2 482.458 146.63 3
-4 -6 2 699.344 198.801 8
-6 4 2 245.819 129.16 1
6 -4 2 488.198 114.764 2
4 6 2 300.275 91.5275 12
4 -6 -2 509.026 101.054 16
6 -4 2 581.272 127.153 4
6 -4 2 377.73 84.5094 5
-4 -6 2 492.712 134.711 16
6 2 4 89.7291 66.9089 5
-6 -4 -2 509.511 93.2889 16
-6 -4 -2 510.871 92.7493 1
-4 6 -2 498.962 115.336 11
-6 -4 -2 506.892 102.133 3
-4 6 -2 535.42 116.913 6
6 -4 2 350.374 76.1327 7
-4 -6 2 678.988 142.195 15
-4 6 -2 537.985 110.872 3
6 -4 2 438.127 93.4528 10
-6 -4 -2 430.072 115.043 9
-4 6 -2 350.496 75.1475 1
-4 6 -2 380.28 92.5109 14
4 -6 -2 466.584 149.533 7
4 6 2 512.684 112.346 5
-6 -4 -2 433.244 82.8782 15
-6 2 -4 539.68 139.243 3
-4 -6 0 11130.6 512.63 15
-6 4 0 11426 545.775 6
4 -6 0 11558.9 468.815 4
-4 -6 0 12063.6 536.182 8
-6 -4 0 11709 467.387 16
6 -4 0 12030.1 562.21 7
4 -6 0 11312.9 508.233 2
-4 -6 0 12328.6 571.952 9
-4 6 0 11200.7 447.445 3
-6 4 0 12189 573.459 1
4 6 0 11080.1 413.161 11
-6 4 0 10765.9 520.897 3
-6 -4 0 11796.9 469.703 3
-6 -4 0 10745.6 449.31 15
4 -6 0 11406.1 437.98 15
-4 6 0 11601 525.824 6
6 -4 0 10657.4 546.298 2
-4 -6 0 11066.9 508.849 16
6 4 0 11726.7 477.941 14
-6 -4 0 11676.4 563.438 8
6 -4 0 12212.1 484.699 10
4 -6 0 11649.9 518.766 10
-6 4 -2 355.705 90.1497 11
6 4 2 384.009 96.123 4
4 -6 2 543.346 116.23 7
6 4 2 480.708 95.2908 2
-4 -6 -2 497.517 126.587 9
-6 4 -2 534.2 117.378 1
-6 -4 2 438.639 176.825 8
6 -2 4 473.659 145.723 4
-6 4 -2 546.329 116.124 3
6 -4 -2 336.501 141.739 7
4 -6 2 434.186 95.5202 15
-4 -6 -2 288.635 88.303 8
4 -6 2 424.112 104.177 16
4 -6 2 572.49 108.174 4
4 -6 2 504.466 95.8456 2
-4 -6 -2 560.886 122.745 16
-6 -2 -4 516.193 132.057 8
-4 -6 -2 414.652 107.496 15
-6 4 -2 511.499 117.76 6
6 -4 -2 546.391 199.382 2
6 -4 4 4912.15 397.449 7
4 -6 4 6062.27 423.047 7
6 -4 4 6296.63 456.563 2
-6 -4 -4 5667.86 469.043 8
-4 6 -4 5251.62 413.71 6
6 4 4 5627.31 444.717 5
6 4 4 5954.48 441.279 12
-6 4 -4 5741.12 446.775 1
-4 6 -4 5542.06 429.537 11
-6 4 -4 5691.89 440.4 3
-6 4 -4 5367.82 402.36 6
4 6 4 5043.4 414.458 12
6 -4 4 6405.7 485.755 4
6 -5 3 5251.73 399.414 4
-5 6 -3 5168.84 377.715 3
-5 6 -3 4793.04 377.452 11
-6 -5 -3 5103.33 397.046 8
5 6 3 5053.56 389.721 5
-6 -5 -3 4374.4 373.771 9
-6 -5 -3 5356.83 360.698 16
-5 6 -3 4965.24 386.83 6
5 6 3 4939.06 400.582 12
-6 -5 -3 5054.57 359.969 15
6 -5 3 4591.49 329.601 10
-5 6 -3 4876.18 360.819 1
6 -5 3 4872.6 375.312 7
6 -5 3 5356.48 376.327 2
-5 -6 1 2519.53 307.747 8
5 -6 -1 2275.29 245.613 10
-6 -5 -1 2439.72 195.672 3
-5 -6 1 2460.2 262.231 15
-6 5 1 1982.77 265.472 6
6 -5 1 2112.13 173.16 5
5 -6 -1 2055.18 291.564 2
6 5 -1 2551.63 250.622 14
6 -5 1 2509.1 244.557 4
-5 -6 1 2606.55 261.145 16
5 -6 -1 2283.51 208.863 15
-6 -5 1 2595.4 299.666 9
-6 5 -1 2292.09 236.666 3
5 6 -1 2596.13 270.275 14
6 -5 -1 2326.16 294.509 7
-5 6 1 2284.75 286.84 6
-6 -5 1 2132.41 231.523 15
-6 5 -1 2186.67 242.555 6
6 5 1 2273.67 200.084 4
-5 6 1 1842.45 196.313 13
-6 -5 1 2038.45 230.184 16
6 -5 -1 2363.09 246.07 10
6 -5 -1 2281.88 321.717 2
5 -6 3 5033.53 349.369 2
6 5 3 4929.78 395.087 12
-6 5 -3 4996.95 383.674 1
-5 -6 -3 4568.55 363.803 8
6 5 3 5682.67 358.983 2
5 -6 3 5319.26 409.926 4
-5 -6 -3 4714.76 388.43 9
5 -6 3 4807.43 348.628 10
-6 5 -3 3711.02 324.446 3
-5 -6 -3 5350.21 377.126 15
5 -6 3 4312.41 351.351 7
6 5 3 4561.41 360.738 5
-6 5 -3 5067.81 385.344 6
-6 5 -3 5017.08 375.558 11
-5 -6 -3 4881.18 362.924 16
-6 6 0 137.815 84.6788 6
6 -6 0 85.5573 84.3334 7
-6 -6 0 71.0891 72.2072 9
-6 -6 0 59.6635 91.1521 8
-6 -6 0 75.7094 72.7432 15
6 6 0 172.535 109.78 5
-6 6 0 76.3876 51.5692 1
-6 -6 0 139.561 72.8441 16
-6 6 0 46.468 60.9845 3
6 6 0 2.76124 43.3921 4
-6 6 0 105.446 48.6412 13
6 -6 0 127.657 64.7895 4
-6 -6 0 56.5326 35.5282 3
6 -6 0 116.75 96.468 2
6 -6 0 112.071 69.8278 10
-6 -6 2 4731.86 393.735 15
6 -6 2 4399.99 362.847 7
-6 -6 -2 5000.85 301.451 3
6 6 2 5555.92 295.087 2
6 -6 2 4944.22 357.834 4
6 -6 2 4002.75 277.111 5
6 -6 2 5365.38 355.502 2
-6 6 -2 5624.85 379.499 3
6 -6 -2 4922.99 391.158 10
-6 -6 -2 5514.12 306.359 1
6 6 2 4660.17 361.295 5
6 -6 2 4780.82 343.55 10
-6 6 -2 5445.55 400.141 11
-6 -6 -2 4766.27 351.379 15
-6 6 2 5125.07 510.88 3
-6 -6 -2 5458.25 389.534 8
-6 6 -2 5664.37 389.149 1
-6 6 -2 4765.13 322.671 14
-6 -6 -2 4733.15 382.157 9
-6 6 -4 1339.55 247.986 1
-6 6 -4 1697.73 252.22 3
6 -6 4 2177.89 267.754 2
-6 -6 -4 1500.96 220.686 16
6 6 4 1521.51 259.972 13
-6 -6 -4 1601.54 243.253 9
6 -6 4 1686.42 263.817 4
-6 6 -4 1484.41 246.754 6
-6 -6 -4 1708.49 239.258 15
-6 -6 -4 1756.92 267.646 8
6 6 4 1836.33 271.74 12
6 6 4 1618.03 252.399 5
6 -6 4 1845.34 248.757 7
0 7 1 345.05 78.8484 6
-7 0 -1 425.035 105.582 8
1 -7 0 576.878 124.594 16
-7 -1 0 611.917 132.332 3
0 7 -1 449.219 94.0639 6
0 -7 1 452.542 117.5 16
7 0 1 361.716 102.573 2
7 1 0 518.265 125.057 2
-1 -7 0 466.654 122.749 15
0 7 1 390.223 90.9581 12
7 0 -1 580.209 159.022 2
1 -7 0 427.955 123.317 10
7 0 -1 457.518 126.391 7
0 -7 -1 554.756 126.505 10
0 -7 -1 399.608 99.12 15
-7 0 1 543.862 162.162 3
-1 -7 0 673.752 128.402 9
0 -7 1 449.637 104.811 15
7 1 0 761.893 166.034 4
0 -7 -1 435.715 99.6861 9
7 -1 0 465.163 114.509 5
-7 0 1 400.993 134.754 8
1 -7 0 584.841 127.392 15
-1 7 0 466.35 98.3569 6
-1 -7 0 416.852 96.6917 10
0 -7 -1 237.952 81.7364 16
7 0 1 441.413 87.3826 7
1 -7 0 489.396 109.328 7
-7 -1 0 481.51 112.587 1
-7 1 0 428.182 112.639 1
-7 0 -1 461.754 97.5334 6
-7 1 0 377.246 90.4587 6
0 -7 1 554.746 124.85 10
-7 -1 0 446.689 94.3511 6
-7 0 -1 564.899 115.234 3
7 -1 0 437.005 128.678 2
0 7 -1 593.208 126.267 11
-1 -7 -2 1256.46 167.337 9
1 -7 2 1034.77 162.026 10
-1 7 2 1004.68 164.111 12
-7 -2 -1 1354.59 136.444 6
-2 -7 1 1377.62 197.482 16
-7 1 -2 1257.08 160.172 6
-7 2 1 1059.05 195.557 8
-7 1 -2 1067.03 168.117 1
7 1 2 1271.83 173.666 4
-7 1 -2 1383.22 183.5 8
-1 7 2 1306.67 178.947 13
-2 -7 1 1120.17 170.706 15
-7 -2 -1 1048.98 148.827 3
-7 -2 -1 1133.54 159.292 9
7 1 2 1136.51 162.799 12
-7 1 -2 1140.21 165.198 3
1 7 -2 1294.31 182.871 11
-2 7 -1 1232.79 165.324 6
2 7 1 1103.8 129.698 5
2 -7 -1 1103.03 159.614 15
2 -7 -1 1354.89 184.978 10
-1 -7 -2 1453.63 194.807 15
1 -7 2 1388.6 163.351 7
1 7 -2 1254.4 199.873 14
7 1 2 1303.61 169.028 2
-2 7 -1 1091.77 169.76 11
7 -2 1 1180.55 185.169 2
-7 -1 2 940.068 219.823 3
-7 2 1 950.389 181.096 3
2 -7 -1 1321.59 191.582 7
7 2 -1 1392.15 259.199 2
-1 -7 -2 1000.4 158.567 10
7 -2 1 898.655 147.756 7
-7 2 1 915.552 197.497 6
7 1 2 1147.73 165.793 5
-7 -2 -1 1202.69 183.256 8
-7 -2 -1 1197.64 168.725 1
-7 2 -1 1347.43 190.953 1
-7 -1 -2 1198.29 168.881 3
-2 -7 -1 1134.57 172.522 15
7 -1 2 1222.24 142.28 12
-7 2 -1 1356.26 180.275 3
-1 -7 2 1296.23 198.293 15
1 -7 -2 1032 139.627 9
-2 7 1 1132.78 166.203 6
-1 -7 2 1100.87 169.426 10
-7 1 2 1100.62 230.089 3
-7 -2 1 1209.02 191.611 9
7 -1 2 1214.43 159.887 7
-1 7 -2 1011.86 176.146 14
7 -1 2 1261.64 180.992 2
2 7 -1 1440.43 201.294 14
7 -1 2 1190.45 172.57 4
7 -2 -1 1342.59 251.439 2
-7 -1 -2 1244.26 188.405 8
-7 -1 -2 1204.24 161.069 9
-7 2 -1 1191.09 157.76 8
-2 -7 -1 1361.58 183.486 16
2 -7 1 1200.62 172.689 10
-2 7 1 1253.69 151.54 12
-1 7 -2 1205.05 178.347 11
-7 2 -1 1382.95 143.494 11
-7 -2 1 1354.04 203.247 3
-2 7 1 1266.46 172.76 13
-7 -1 -2 1455.44 198.696 1
-7 2 -1 1160.56 163.346 6
2 -7 1 1283.95 161.533 7
-7 1 2 832.593 186.172 8
2 -7 1 1144.97 163.988 15
2 7 -1 1068.54 154.502 11
7 -2 -1 1154.86 202.516 7
1 -7 -2 1004.23 188.874 10
-2 -7 -1 1156.56 161.784 9
-7 -1 -2 1180.47 146.231 6
1 7 2 1291.37 178.721 12
7 2 1 1288.29 176.197 2
-2 -7 -1 1410.88 172.447 10
1 -7 -2 1132.16 164.125 15
-1 7 -2 1038.02 148.612 6
7 -1 2 966.786 149.972 5
7 2 3 1505.67 204.975 4
-7 3 2 1194.28 261.456 3
-3 -7 2 1407.73 217.486 16
-7 -3 -2 1439.21 180.611 1
-2 -7 -3 1775.06 222.882 15
-7 2 -3 1593.58 201.255 6
3 -7 -2 1600.54 195.181 15
-3 7 -2 1410.99 202.155 11
-7 2 -3 1552.07 203.434 8
2 -7 3 1392.11 202.817 10
-7 -3 -2 1486.25 203.472 8
-3 7 -2 1400.75 188.914 6
7 -3 2 1383.2 189.256 2
7 -3 2 1526.22 196.069 7
2 -7 3 1697.91 205.111 7
-2 -7 -3 1486.25 204.2 9
-7 -3 -2 1829.54 199.269 3
7 -3 2 1387.84 195.373 4
-3 7 -2 1512.67 202.135 14
3 7 2 1306.94 191.004 12
3 -7 -2 1352.61 194.222 10
-2 -7 -3 1530.34 210.522 16
-3 -7 2 1382.85 186.212 10
-2 -7 -3 1277.54 227.581 10
7 2 3 1154.57 185.842 5
3 -7 -2 1217.93 233.382 7
-3 7 -2 1529.36 176.403 3
-7 2 -3 1667.99 214.343 3
7 -3 2 1297.5 147.838 10
-7 2 -3 1270.78 197.741 1
-3 -7 2 1510.42 225.253 15
3 7 2 1497 185.29 5
-7 -3 -2 1334.5 199.252 9
7 2 3 1898.6 223.638 2
3 -7 0 3065.43 280.225 10
3 -7 0 3331.43 222.637 4
-7 3 0 3490.13 296.899 8
-7 -3 0 3685.06 318.211 9
-3 -7 0 3197.69 288.644 15
7 -3 0 3445.45 306.721 7
7 0 3 3943.9 316.063 2
-7 3 0 3526.58 304.097 6
-7 -3 0 3427.59 322.071 8
3 -7 0 3333.62 265.273 15
-3 -7 0 3395.73 275.463 8
-3 -7 0 3458.9 259.717 10
7 3 0 3108.02 302.428 2
3 7 0 3567.52 263.449 11
0 -7 -3 3028.8 319.149 10
3 -7 0 3702.3 306.599 7
7 3 0 3317 242.042 14
-7 0 -3 3258.58 304.771 8
0 -7 3 3484.35 336.341 15
-7 3 0 3292.92 300.39 3
0 -7 -3 3219.9 311.097 16
7 -3 0 3485.06 252.469 10
-3 7 0 3398.92 222.975 3
7 0 3 3369.31 258.864 7
-7 0 -3 3074.41 264.003 9
7 -3 0 2995.12 318.136 2
-7 3 0 2949.83 299.361 1
-3 7 0 3219.77 279.074 6
-7 -3 0 3577.43 284.985 3
0 -7 -3 3083.04 291.782 15
-3 -7 0 2982.23 277.977 16
7 0 3 2839.82 275.467 5
-7 -3 0 2977.29 286.149 1
-7 0 -3 3457.31 318.591 1
-7 3 -2 1481.79 170.549 11
-7 3 -2 1508.84 194.243 6
2 -7 -3 653.746 218.646 10
-7 -3 2 1171.62 334.052 1
3 7 -2 1355.59 191.786 11
-2 7 -3 1311.49 194.388 6
-7 -2 -3 1231.44 201.257 8
3 -7 2 1916.08 220.214 4
-3 7 2 1505.42 205.926 13
3 -7 2 1349.81 179.246 7
-3 -7 -2 1281.53 191.325 9
7 -3 -2 1639.35 290.11 7
7 -2 3 1676.67 215.139 4
2 7 3 1589.67 217.261 12
7 -2 3 1526.44 209.232 2
-3 -7 -2 1369.95 187.945 10
-7 -2 -3 1362.94 187.463 3
3 -7 2 1486.56 202.318 10
7 -2 3 1384.09 190.378 5
-7 -2 -3 1504.93 203.708 1
7 -2 3 1641.09 206.158 7
-3 -7 -2 1212.34 170.015 8
-7 -3 2 1478.41 245.385 9
-7 -2 -3 1561.08 207.654 9
-7 3 -2 1429.38 202.518 1
-3 -7 -2 1602.24 211.255 15
-7 3 -2 1329.53 189.298 3
7 3 2 1377.81 183.237 4
-7 3 -2 1377 171.081 8
-7 -3 2 1439.3 253.31 3
7 3 2 1548.03 182.152 2
-4 -7 3 288.356 133.567 16
-7 -4 -3 181.603 79.959 9
-3 -7 -4 149.949 65.438 16
4 -7 -3 111.167 90.5466 10
7 -4 3 250.159 108.418 5
-7 -4 -3 250.957 77.1844 3
-7 -4 -3 261.861 72.0229 16
7 3 4 25.2788 36.7377 4
-7 3 -4 257.132 84.8838 8
7 3 4 380.271 125.135 5
-4 7 -3 224.366 91.6899 11
7 -4 3 260.666 92.5348 7
7 3 4 414.936 134.674 12
-4 7 -3 159.66 84.4108 3
7 -4 3 242.665 96.8354 4
3 -7 4 244.511 102.804 7
4 7 3 489.745 154.723 13
-7 3 -4 385.358 140.723 3
-7 -4 -3 348.965 121.417 8
-4 -7 3 395.927 146.074 15
-7 3 -4 125.44 65.5767 6
-7 3 -4 211.02 95.5711 1
7 -4 3 253.92 114.296 2
-3 -7 -4 367.395 108.357 15
-4 -7 3 233.008 117.401 9
4 -7 -3 69.8725 158.978 7
-7 -4 -3 244.095 87.9791 15
-4 7 -3 228.882 84.2308 14
-4 7 -3 268.351 93.1713 1
4 7 3 363.559 124.715 5
4 7 3 186.957 89.2788 12
-4 7 -3 161.077 75.652 6
3 -7 4 119.293 91.1758 10
-7 -4 -3 145.64 56.4722 1
7 -4 3 318.277 88.4407 10
-7 -4 -1 5716.24 323.741 15
-7 -4 -1 5559.06 318.6 16
4 -7 -1 5600.48 440.28 7
-7 -4 -1 6257.93 406.257 9
7 -4 1 6148.78 339.495 10
-7 4 1 5577.1 440.435 6
-7 -4 -1 5825.34 362.918 1
4 -7 -1 6672.54 429.197 10
-7 4 1 5722.75 456.187 3
-4 -7 1 6539.05 433.935 16
-4 7 -1 5746.75 390.301 6
7 -4 1 5396.65 318.337 5
7 1 4 6493.9 462.771 2
-7 -4 -1 5833.53 418.979 8
-4 7 -1 6040.34 350.228 1
7 1 4 6813.86 493.298 4
-7 1 -4 6519.83 482.214 1
7 1 4 5629.3 449.275 5
-7 1 -4 5343.74 416.86 3
-4 7 -1 6233.14 337.634 3
4 -7 -1 5945.5 355.362 15
-7 1 -4 5370.76 452.438 8
7 -4 1 4881.92 371.629 4
-4 -7 1 6116.09 421.316 15
-4 -7 1 6597 502.846 8
7 -4 1 5972.11 410.305 2
-7 4 1 6041.01 490.399 1
-7 -4 -1 6371.63 358.39 3
-4 -7 -1 5907.41 393.421 16
4 -7 1 5997.96 336.846 2
7 -1 4 6397.97 418.267 7
-4 -7 -1 5664.83 332.143 10
4 -7 1 5582.68 382.12 10
7 -4 -1 5593.3 494.48 2
4 7 -1 5542.24 338.99 11
-7 -4 1 5881.13 415.576 3
-7 -1 -4 5941.78 473.561 8
-4 -7 -1 6233.63 366.656 8
-7 -4 1 5785.27 478.485 8
-7 4 -1 5960.92 350.323 8
-7 -1 -4 6465.47 472.94 1
-4 7 1 6692.1 447.582 6
7 4 1 5854.1 360.907 2
-7 -4 1 5557.67 359.199 15
-4 -7 -1 4985.56 371.315 15
-7 4 -1 5993.44 399.915 3
4 -7 1 5942.65 332.192 4
-4 7 1 5914.44 378.912 3
4 7 -1 7065.56 454.858 14
-4 7 1 5709.36 365.797 13
-7 4 -1 5990.74 407.912 1
4 -7 1 6042.61 398.019 7
7 -4 -1 6294.26 483.185 7
-7 -4 1 6354.71 505.33 1
4 -7 1 5790.45 336.128 15
7 -1 4 5678.42 451.259 5
-7 -1 -4 5426.02 407.567 3
-7 -4 1 5863.47 379.68 16
-7 -4 1 5813.56 442.878 9
-7 4 -1 6151.36 410.135 6
-4 -7 -1 5527.6 403.54 9
7 -3 4 362.111 124.551 4
4 -7 3 217.838 94.4696 10
-4 -7 -3 295.356 101.867 8
-7 4 -3 251.976 87.1682 6
7 4 3 302.215 85.5696 13
4 -7 3 124.182 82.4615 4
-7 -3 -4 139.551 87.0644 9
-7 -3 -4 113.287 71.0819 8
-4 -7 -3 262.817 83.4804 16
7 4 3 353.674 78.7314 2
4 -7 3 143.629 101.917 16
-7 4 -3 202.154 96.0826 1
4 7 -3 229.608 105.563 14
-4 -7 -3 369.95 121.303 9
-7 -3 -4 130.134 98.9333 1
4 -7 3 328.484 110.559 15
3 7 4 229.541 104.662 12
7 4 3 273.041 105.262 12
3 7 4 22.7803 78.649 13
4 -7 3 205.558 72.7584 2
-4 -7 -3 259.067 104.638 15
7 4 3 157.653 80.5417 4
-7 4 -3 268.355 104.763 11
7 4 3 185.504 78.6164 5
-7 4 -3 242.215 81.8347 3
4 -7 3 168.231 73.5029 7
-7 4 -3 148.172 63.3555 8
7 -3 4 264.193 99.0583 2
7 -3 4 270.829 119.781 7
-3 7 -4 173.639 89.9664 11
-5 7 -4 931.46 182.685 6
-5 7 -4 649.404 220.774 1
7 -5 4 1320.21 210.62 2
5 7 4 463.004 135.236 5
7 -5 4 1504.52 241.464 4
7 -5 4 1407.26 213.697 7
-7 -5 -4 1156.45 228.134 8
-7 -5 -4 1002.1 194.448 1
-5 7 -4 1184.35 220.78 11
5 7 4 1264.02 229.122 12
-7 -5 -4 1152.83 203.348 9
-7 5 2 120.286 83.4561 3
-5 -7 2 216.082 108.096 15
5 7 2 225.391 92.6582 12
-5 -7 2 236.109 78.8817 10
7 -5 2 215.816 83.2889 2
5 -7 -2 325.054 212.431 2
7 -5 2 100.387 64.6888 10
-7 -5 -2 213.349 69.3577 1
5 7 2 294.716 110.968 13
5 -7 -2 334.365 87.811 15
-5 -7 2 180.084 112.381 16
5 -7 -2 441.388 176.055 4
5 -7 -2 224.337 85.3346 16
-5 -7 2 503.208 216.315 8
-7 -5 -2 313.781 105.454 16
-5 7 -2 276.207 83.055 1
7 5 -2 382.989 204.153 4
-7 5 2 298.697 195.753 1
-5 7 -2 249.883 91.1036 3
-5 -7 2 348.447 152.281 9
7 5 -2 393.93 121.349 14
-7 -5 -2 294.9 105.135 9
-7 -5 -2 264.857 84.5473 15
5 -7 -2 183.435 141.892 7
5 -7 -2 165.586 90.6907 10
-7 -5 -2 310.66 108.382 8
5 -7 0 3861.1 348.478 7
-5 -7 0 3913.75 355.907 9
7 -5 0 3386.09 349.589 2
-7 -5 0 3657.96 359.293 8
-7 5 0 3846.26 345.927 6
-5 7 0 3993.56 336.027 6
5 -7 0 4175.16 312.856 4
5 -7 0 3768.21 331.585 2
-7 5 0 3961.42 331.439 3
7 -5 0 4122.79 311.803 10
7 -5 0 3506.47 334.587 7
-5 -7 0 4001.56 325.42 16
-5 7 0 3258.26 276.74 3
-5 -7 0 4247.37 362.351 8
-7 -5 0 4282.91 302.475 3
-7 5 0 4013.57 359.36 1
5 -7 0 4044.34 278.311 15
-5 7 0 3894.55 284.357 13
-7 -5 0 3979.89 306.599 15
-5 -7 0 3986.79 336.95 15
-5 -7 0 3797.54 256.919 10
5 -7 0 3987.23 324.065 10
-7 -5 0 3975.28 303.658 16
5 7 0 3869.27 272.034 11
-7 -5 0 4035 324.197 1
5 7 -2 206.367 93.6174 14
7 -5 -2 107.883 93.5095 10
-7 5 -2 386.937 124.965 3
5 -7 2 257.672 103.047 10
-7 5 -2 244.292 81.9262 8
5 -7 2 325.111 89.9964 2
7 5 2 157.853 78.4272 5
5 -7 2 122.11 79.9919 7
7 5 2 213.819 93.1955 12
7 5 2 372.819 95.1421 4
5 -7 2 268.779 84.3722 15
-5 -7 -2 279.361 104.833 9
7 5 2 260.023 82.741 2
-5 7 2 275.385 177.559 1
-5 -7 -2 231.188 99.0329 16
-5 -7 -2 202.686 74.8508 8
-5 -7 -2 147.069 66.7275 15
7 5 2 368.771 113.25 13
-5 7 2 126.01 111.686 3
-7 -5 2 190.548 110.932 3
7 -5 -2 47.7834 98.5586 7
7 -5 -2 428.426 212.118 2
-7 -5 2 305.947 97.2331 15
-7 5 -2 279.791 99.6488 1
7 -5 -2 380.8 159.106 4
-5 7 2 121.264 95.8795 13
-7 -5 2 106.548 100.873 8
-7 -5 2 79.853 83.4209 16
-7 5 -2 266.773 107.909 6
-7 5 -4 1045.68 187.243 8
-5 -7 -4 1188.72 182.633 16
-7 5 -4 1189.5 211.42 6
-7 5 -4 1187.31 205.309 3
7 5 4 1076.65 212.186 12
5 -7 4 1117.89 200.699 7
7 5 4 1309.98 230.329 5
5 -7 4 1609.68 215.201 2
-5 -7 -4 795.917 201.165 8
-7 5 -4 1406.63 220.612 1
-5 -7 -4 940.242 204.722 15
7 5 4 1514.58 216.15 2
-5 -7 -4 1365.66 226.411 9
-6 7 -5 1008.77 211.437 6
-7 -6 -5 923.048 211.865 9
-7 -6 -5 387.237 201.965 8
7 -6 5 940.199 213.769 2
6 7 5 694.822 188.246 12
7 -6 5 1097.55 214.763 7
-6 -7 3 447.338 159.592 15
-6 -7 3 846.14 249.001 9
6 7 3 674.588 184.382 12
6 7 3 668.643 115.187 2
-7 -6 -3 639.669 147.65 15
-7 -6 -3 604.927 125.869 3
-6 7 -3 654.945 154.088 1
-7 -6 -3 543.62 141.023 8
-7 -6 -3 731.548 170.888 9
-7 6 3 592.925 216.509 3
-6 7 -3 902.448 189.5 6
-7 -6 -3 534.274 117.467 1
7 -6 3 790.103 165.112 2
6 7 3 429.899 131.369 5
-6 7 -3 700.778 164.364 3
-7 -6 -3 810.027 161.439 16
6 -7 -3 550.474 168.65 10
7 -6 3 620.901 155.03 7
-6 -7 3 753.369 192.007 16
7 -6 3 707.272 143.274 10
-6 7 -3 566.403 154.137 11
6 -7 -3 627.82 229.724 7
7 -6 3 690.494 157.639 4
-7 -6 -1 1527.54 216.172 8
-7 6 1 1243.71 250.887 6
-7 -6 -1 1136.42 152.514 3
-7 6 1 1091.47 215.566 3
-7 -6 -1 1176.73 174.439 16
7 -6 1 1367.82 203.556 4
6 -7 -1 1295.46 169.33 15
-6 7 -1 937.98 164.887 3
6 -7 -1 1236.64 234.652 7
-6 -7 1 939.041 197.917 9
6 7 1 1209.28 142.762 4
-6 -7 1 1351.27 252.845 8
7 -6 1 895.827 183.66 7
7 -6 1 1047.59 197.96 2
7 6 -1 1320.69 211.462 14
-7 -6 -1 1022.73 195.254 9
-7 -6 -1 1100.59 165.854 1
-6 -7 1 1035.97 176.888 16
6 -7 -1 939.913 178.144 10
-6 -7 1 918.964 134.164 3
-6 -7 1 1138.97 199.933 15
-7 6 1 1346.16 258.603 1
-6 -7 1 1135.97 145.826 10
7 6 -1 966.699 289.105 2
-6 7 -1 1403.55 224.075 6
-7 -6 -1 1139.64 168.823 15
7 -6 1 1324.21 192.589 10
-7 6 -1 1223.36 156.189 14
7 -6 -1 1296.62 244.233 7
6 -7 1 1181.47 155.952 15
7 -6 -1 1505.18 276.977 2
-7 -6 1 1172.4 195.033 15
6 -7 1 1139.79 181.561 4
-7 6 -1 981.087 184.789 1
7 -6 -1 1224.41 197.943 10
-6 7 1 1068.37 161.903 13
-6 -7 -1 1034.91 203.377 9
-6 7 1 1058.69 203.845 3
-7 -6 1 1268.28 202.597 16
7 6 1 1306.55 169.376 2
6 -7 1 1340.91 220.238 7
-6 -7 -1 1193.16 182.183 15
7 6 1 1287.05 172.787 4
-6 -7 -1 1191.38 203.331 8
-7 6 -1 1273.57 192.226 3
6 -7 1 1498.66 224.507 10
-7 6 -1 1332.9 207.178 6
-6 -7 -1 1149.24 135.583 3
-7 -6 1 1026.54 165.55 3
-6 -7 -1 1411.27 211.356 16
-6 7 1 1023.07 218.363 6
-7 -6 1 765.068 226.12 1
6 -7 1 1010.66 182.366 2
-7 -6 1 1391.16 281.335 8
6 -7 3 618.676 136.335 15
6 -7 3 633.99 138.513 4
-6 -7 -3 689.614 156.347 15
-7 -6 3 471.023 148.821 15
-7 6 -3 333.058 111.208 8
6 -7 3 610.358 138.77 10
-6 -7 -3 800.797 167.19 8
-7 6 -3 755.723 176.738 1
-7 6 -3 629.045 163.259 11
-6 -7 -3 647.461 170.599 9
-7 6 -3 399.258 120.108 6
-6 -7 -3 610.654 125.079 1
-7 -6 3 650.387 210.801 9
6 -7 3 645.981 142.84 2
6 -7 3 703.64 171.514 7
-7 6 -3 620.555 145.68 3
7 6 3 673.147 144.846 4
7 -6 -3 846.132 261.44 7
7 6 3 470.039 135.644 5
7 6 3 834.65 146.913 2
7 6 3 476.296 147.353 12
6 -7 5 381.395 176.672 10
-7 6 -5 842.781 194.948 1
-6 -7 -5 677.399 212.02 9
7 6 5 1335.63 246.206 12
7 6 5 455.671 162.176 5
6 -7 5 1017.98 206.007 7
-7 6 -5 970.84 203.217 6
7 7 0 2254.93 201.009 11
7 -7 0 2070.76 298.282 7
-7 7 0 2050.15 259.852 3
-7 -7 0 2518.98 307.126 9
-7 -7 0 2171.46 254.916 16
-7 -7 0 2312.43 302.182 8
-7 7 0 2616.86 313.991 6
-7 7 0 2009.11 204.747 13
-7 -7 0 1845.33 255.322 1
-7 7 0 2239.39 287.204 1
7 -7 0 2430.19 311.845 2
7 7 -2 525.133 138.382 14
-7 7 -2 633.763 140.814 3
7 -7 2 526.932 107.46 15
-7 -7 2 456.38 136.075 15
7 -7 -2 756.367 212.688 7
-7 -7 -2 494.355 104.488 3
-7 -7 2 699.491 131.357 10
7 -7 2 618.82 143.845 10
7 7 2 519.335 137.445 5
-7 7 2 437.01 163.877 6
7 -7 2 702.348 129.177 5
-7 -7 2 658.683 204.083 9
-7 -7 -2 559.81 149.781 15
-7 -7 -2 663.055 119.081 1
-7 -7 -2 597.738 141.09 16
-7 7 -2 746.595 169.631 1
7 7 2 584.778 149.698 13
-7 -7 -2 654.012 159.54 9
-7 -7 -2 837.382 173.201 8
7 7 2 513.76 101.75 2
7 -7 -2 722.989 279.568 2
7 -7 2 674.945 139.381 2
-7 7 -2 816.819 161.219 14
-7 7 -2 725.28 175.987 11
7 -7 2 700.283 162.52 4
7 -7 2 544.085 142.755 7
-7 7 -2 532.456 144.635 6
7 7 2 815.384 140.295 4
-7 -7 2 689.657 182.566 16
7 -7 -2 751.029 173.084 10
-7 7 2 701.424 208.043 3
-7 -7 2 626.256 222.438 8
7 7 2 470.735 153.741 12
-7 7 2 728.498 259.903 1
-7 7 -4 70.165 87.8637 11
7 -7 4 165.504 99.8981 10
-7 -7 -4 30.5555 85.6105 15
-7 -7 -4 44.4975 112.181 8
7 -7 4 75.1489 106.052 4
7 7 4 7.87441 98.7298 13
7 7 4 97.7395 93.8876 12
-7 7 -4 66.7317 81.6537 6
-7 7 -4 23.7375 55.3237 8
7 -7 4 61.5423 82.007 7
-7 7 -4 78.5876 91.4964 3
7 -7 4 63.4295 87.8366 2
7 7 4 57.3618 86.9742 5
-7 7 -4 87.9463 92.3057 1
7 -7 4 10.6479 58.1714 15
-7 -7 -4 36.0214 70.7115 1
-7 -7 -4 3.46849 98.5396 9
0 -8 0 40999 1011.24 10
-8 0 0 40342.4 952.196 6
8 0 0 39740.1 1018.04 7
-8 0 0 36977.4 1067.6 8
0 -8 0 38747.5 1013.63 15
-8 0 0 37819.3 1093.8 1
-8 0 0 38366.1 1066.42 3
-8 1 -1 19952.7 671.411 6
8 1 1 18519.7 592.45 7
-8 1 1 18394.9 852.373 1
-8 1 -1 18591.8 702.747 8
-8 -1 -1 19254.9 701.863 3
-8 -1 1 16132.8 760.833 3
8 1 -1 18670.3 927.415 2
-8 1 1 17623.6 807.355 3
-8 1 -1 18225.9 709.331 3
1 -8 -1 19911.4 756.144 10
-8 1 -1 18333.4 722.508 1
-1 -8 -1 19142.4 710.702 10
-8 1 1 18506.9 839.821 8
-8 -1 -1 17217.6 690.614 1
-1 -8 1 19140.8 746.469 15
-1 8 1 19318.9 669.618 6
1 -8 -1 19642.5 748.503 7
1 -8 -1 18852.9 697.701 15
-1 -8 -1 19153.8 723.898 15
-8 -1 -1 19731.3 655.791 9
-1 8 1 18997.8 728.302 13
-8 -1 1 18893.5 855.046 8
8 -1 -1 18538.7 914.818 2
1 8 -1 18957.9 706.164 11
8 1 1 19164.6 725.525 2
1 8 -1 18993.5 576.571 6
1 8 1 18605.9 559.176 6
-8 -1 1 18405.4 753.864 9
1 -8 1 18775.4 630.322 7
1 8 1 18492 676.03 12
-8 1 1 17928.8 759.661 6
8 -1 1 19322 670.746 7
-8 -1 -1 18268.6 720.42 8
1 -8 1 17347.4 679.334 10
-1 8 -1 19750.6 737.634 11
-1 8 1 18268.9 621.069 12
-1 8 -1 18813.9 635.314 6
1 -8 1 19095.4 702.831 15
-1 -8 1 18884.6 674.181 10
8 -1 -1 16621.9 799.936 7
-8 -1 -1 18690 584.885 6
-8 0 -2 7174.92 370.084 9
-8 0 -2 7890.17 462.478 8
8 -2 0 7867.16 482.563 7
-8 0 -2 7483.22 466.006 1
0 -8 2 7030.54 444.704 10
0 -8 2 8151.17 501.549 15
8 0 2 6894.89 379.977 7
0 -8 -2 7792.06 489.504 10
0 8 2 7337.28 438.724 12
-2 -8 0 8142.17 437.866 10
-2 8 0 7598.84 356.118 12
0 8 -2 7439.72 467.867 11
-8 0 2 6306.67 583.742 3
-8 -2 0 7940.34 513.238 8
0 8 -2 7502.35 418.157 6
-8 2 0 7438.08 485.579 3
0 -8 -2 7621.77 462.789 15
2 -8 0 8006.14 457.926 10
8 -2 0 8359.13 540.442 2
-2 -8 0 7553.47 462.442 15
-8 -2 0 8256.9 382.604 6
8 0 2 7892.31 458.065 2
2 -8 0 7981.49 452.387 7
0 -8 -2 7686.65 418.855 9
0 8 2 7766.66 489.297 13
-8 0 -2 7549.81 403.993 6
-8 -2 0 7836.52 472.906 3
2 -8 0 7750.65 440.764 15
-8 2 0 8135.5 472.609 6
-8 -2 0 7408.86 470.855 1
-8 0 2 7981.7 620.953 8
-2 8 0 7445.42 423.585 6
0 -8 2 7662.22 383.939 7
8 -2 2 706.971 153.251 2
-8 -2 2 942.77 214.858 8
8 -2 2 690.907 137.349 5
2 -8 -2 917.872 168.824 15
-2 8 -2 990.298 157.388 6
-8 2 -2 834.04 173.595 1
2 -8 2 719.332 148.487 10
8 -2 2 835.302 155.641 4
-8 -2 -2 780.133 156.193 8
-2 -8 -2 806.553 154.187 15
-8 -2 -2 907.693 156.389 9
-8 -2 -2 959.028 132.921 6
8 2 2 844.751 157.918 2
2 -8 -2 878.812 136.527 9
-8 2 2 962.491 239.356 3
2 -8 -2 858.254 182.369 10
-2 8 -2 791.857 160.202 11
-8 -2 -2 859.6 144.556 3
8 -2 -2 759.579 232.284 2
8 -2 2 899.96 157.826 7
-2 -8 2 692.489 140.69 10
-8 2 2 1035.65 239.94 1
2 -8 2 1104.19 179.89 15
-8 2 -2 1032.45 168.897 8
-8 -2 2 687.103 177.161 3
8 2 2 868.37 160.451 4
-8 -2 2 893.976 291.448 1
-8 -2 2 374.407 164.018 9
-8 2 -2 1103.61 179.84 3
2 8 -2 1005.04 173.681 11
-2 -8 -2 851.624 156.246 9
8 2 -2 813.619 253.766 2
2 8 -2 905.709 183.04 14
-2 8 2 927.848 174.472 13
2 -8 2 1120.9 172.602 7
-2 -8 2 812.627 167.646 15
2 8 2 779.003 160.013 12
2 -8 -2 819.563 199.982 7
-8 2 -2 1119.98 187.108 6
2 8 2 961.95 158.746 5
-2 -8 -2 776.66 159.514 10
-8 2 -2 1060.86 142.027 11
-8 -2 -2 1026.1 170.872 1
-1 -8 -3 1351.09 204.311 16
1 -8 3 1251.77 195.609 10
3 -8 -1 1285.51 215.022 7
8 1 3 1231 187.223 12
-8 -3 -1 1389.88 185.85 3
-3 -8 1 1122.47 195.254 15
-8 -3 -1 1320.4 202.649 8
-8 1 -3 1145.2 163.267 9
8 -3 1 1527.42 163.606 10
-8 3 1 1509.59 267.321 3
3 -8 -1 1591 222.582 10
-3 -8 1 1436.79 181.028 10
-8 -3 -1 1400.24 200.564 1
-3 -8 1 1516.03 272.115 8
-1 -8 -3 1382.78 208.708 9
8 1 3 1519.46 212.363 4
8 -3 1 1353.3 205.984 2
-1 -8 -3 1415.61 251.393 10
3 8 1 1073.25 146.423 5
-8 1 -3 1114.69 187.764 8
3 -8 -1 1286.28 181.395 15
3 8 1 1243.05 202.987 12
8 1 3 1707.33 223.269 2
-3 8 -1 1432.15 199.421 6
-8 -3 -1 1503.63 202.883 9
8 1 3 1430.85 174.729 7
-8 1 -3 1370.93 198.102 3
8 -3 1 1048.07 178.975 7
-1 -8 -3 1713.54 226.729 15
-8 -3 -1 1359.24 133.153 6
1 -8 3 1286.09 208.642 15
-8 1 -3 1622.41 240.929 1
-8 3 1 977.734 192.418 6
1 -8 3 1237.6 181.629 7
-3 8 -1 1407.86 150.868 3
-8 1 -3 1370.65 191.556 6
8 1 3 1314.15 205.942 5
8 -3 -1 1263.74 224.664 7
-1 -8 3 1344.07 237.137 15
1 8 3 1451.35 229.072 12
-8 -3 1 1182.72 222.089 1
-8 -3 1 1187.17 196.773 3
-3 -8 -1 1098.13 184.759 16
-8 3 -1 1274.89 198.394 6
-1 8 -3 1409.69 204.566 6
-8 -3 1 1293.2 156.998 15
8 -1 3 1233.69 191.037 4
1 8 3 1232.97 214.418 13
3 -8 1 1256.2 178.582 7
3 8 -1 1449.66 232.483 14
-8 -1 -3 1258.87 193.976 3
-3 8 1 1321.1 166.819 12
-8 -1 -3 1489.41 224.445 8
8 -3 -1 1184.21 170.973 10
-3 -8 -1 1424.29 188.84 10
-3 8 1 1622.89 206.557 13
-3 -8 -1 1167.37 188.735 9
3 -8 1 1449.04 163.619 4
-3 -8 -1 1527.64 213.013 15
3 8 -1 1135.75 167.075 11
-8 3 -1 1331.97 185.672 8
-8 -1 -3 1358.22 202.658 1
-8 -3 1 1322.98 237.403 8
3 -8 1 1347.08 187.84 15
8 3 1 1119.3 181.714 2
-3 8 1 1227.31 190.196 6
8 -1 3 1459.27 191.613 7
1 -8 -3 1422.64 211.859 15
-8 -1 -3 1243.04 186.667 9
1 -8 -3 1500.67 244.233 10
8 -1 3 1297.57 199.612 2
-8 3 -1 978.264 179.561 3
-1 8 -3 1134.98 192.302 11
-1 -8 3 1259.88 203.392 10
-8 -3 1 1522.64 237.839 9
3 8 3 8244.86 543.401 12
-3 -8 3 8258.2 579.903 15
3 -8 3 8424.14 512.472 10
-3 -8 -3 9014.24 527.657 15
8 -3 3 9145.1 521.269 2
8 3 3 8631.94 528.906 12
8 -3 3 9330.94 504.509 7
-8 3 3 8396.23 822.761 3
-8 -3 -3 9492.2 421.922 16
-3 8 3 7539.93 524.402 13
3 -8 -3 8117.1 499.762 15
-3 -8 3 9063.82 519.504 10
-3 8 -3 8204.01 532.947 11
8 -3 3 8265.42 485.796 5
-8 -3 -3 8142.49 475.982 3
8 3 3 7393.38 488.193 5
8 -3 3 7775.95 504.935 4
-3 -8 3 9597.52 626.578 16
-3 -8 -3 8480.13 520.102 9
8 3 3 10328.2 520.015 2
8 3 3 8897.08 515.319 4
-8 -3 -3 8571.77 509.821 1
-3 8 -3 7710.51 482.581 6
3 -8 3 9520.15 529.436 15
-3 -8 -3 8119.47 453.6 8
3 -8 3 7980.19 433.11 2
-8 3 -3 8371 492.086 6
-8 -3 3 7826.77 706.693 8
3 -8 -3 8477.76 570.061 10
-3 -8 -3 8095.76 515.81 16
-8 3 -3 8382.75 531.401 1
-8 3 -3 8330.87 512.687 3
-8 -3 -3 9108.35 521.653 9
-8 3 -3 8154.62 476.748 8
-8 -3 -3 8396.62 545.007 8
3 -8 3 8558.03 488.683 7
-3 8 -3 8983.11 449.719 1
8 -3 3 7907.1 388.234 10
-8 -4 -2 6358.47 395.023 3
-8 4 2 5256.8 528.111 3
-4 8 -2 5309.04 404.517 6
-4 8 -2 5255.15 337.579 1
4 -8 -2 6213.84 459.029 10
-4 -8 2 5794.18 456.945 15
-4 -8 2 5781.33 451.315 16
8 -4 2 5604.18 422.943 4
-8 2 -4 5226.13 416.836 6
-8 2 -4 5826.01 440.542 3
8 -4 2 5527.32 339.631 10
-8 -4 -2 5539.99 330.765 16
8 2 4 6537.26 470.425 2
-8 2 -4 5903.13 463.979 1
4 -8 -2 5420.93 508.158 7
-8 -4 -2 6117.59 447.29 8
-4 8 -2 5838.89 423.236 14
-8 -4 -2 5948.95 388.825 1
8 2 4 5575.67 420.794 12
8 2 4 5412.06 452.995 4
8 -4 2 5999.14 426.223 2
8 -4 2 5755.39 417.58 7
-2 -8 -4 6011.72 444.778 15
-4 -8 2 5752.64 371.886 10
-4 8 -2 5758.01 430.187 11
8 2 4 5422.91 442.919 5
4 8 2 5492.45 370.761 5
-4 8 -2 5271.11 355.985 3
-8 -4 -2 5657.11 343.127 15
4 -8 -2 6290.44 407.257 15
-8 -4 -2 5888.63 424.153 9
4 -8 0 181.302 103.628 10
4 -8 0 320.731 106.865 16
-4 -8 0 305.887 88.0676 8
-4 -8 0 360.528 119.416 15
8 4 0 263.642 134.298 5
-8 -4 0 302.023 90.6855 15
8 0 4 107 74.7154 7
8 4 0 359.309 136.301 2
-4 -8 0 277.456 118.361 16
-4 8 0 214.913 66.2654 3
4 -8 0 150.7 67.2182 15
-4 8 0 242.192 104.488 6
8 0 4 138.042 72.5191 4
-8 4 0 209.817 96.1361 1
-4 8 0 268.795 107 1
-8 -4 0 191.046 83.3975 3
-8 4 0 354.483 107.166 6
-8 0 -4 214.774 138.448 8
-8 4 0 194.536 73.3561 8
-8 -4 0 214.944 79.1335 1
8 -4 0 174.832 82.8901 10
-8 4 0 317.117 113.388 3
4 8 0 252.58 80.3249 5
-4 -8 0 266.002 92.9341 10
8 4 0 287.708 113.535 4
4 8 0 344.079 102.753 11
4 -8 0 358.679 131.908 7
-4 -8 0 346.392 120.167 9
-8 -4 0 226.355 105.443 9
-8 0 -4 188.999 105.039 1
8 0 4 285.896 110.995 5
4 -8 0 300.512 77.9985 4
8 -4 0 215.213 100.698 2
-8 -4 0 38.5993 84.5532 8
8 4 0 259.122 90.0384 14
8 -4 0 348.556 138.539 4
8 0 4 300.391 101.775 2
8 -4 0 298.634 123.248 7
-8 0 -4 306.697 123.911 3
4 -8 0 411.543 139.115 2
8 -4 0 348.865 105.656 5
-4 -8 -2 5536.42 387.135 10
-8 -2 -4 5759.26 441.869 9
8 -2 4 6146.55 472.813 4
4 -8 2 5289.25 385.096 10
4 -8 2 6248.23 418.817 7
-8 -4 2 5404.12 478.059 3
8 4 2 6003.62 393.586 4
4 -8 2 6198.84 395.585 15
4 -8 2 6035.19 341.144 2
-8 4 -2 6289.07 422.856 3
-4 -8 -2 5579 423.014 9
8 -2 4 6901.83 486.383 2
-8 4 -2 6159.38 431.782 6
-8 -2 -4 5487.56 440.076 3
8 4 2 6106.55 381.135 2
-4 -8 -2 5760.88 371.099 8
-8 -2 -4 5599.06 473.964 8
-4 8 2 6041.58 504.065 3
-4 -8 -2 6050.94 434.123 16
-8 4 -2 5195.9 349.658 8
-4 8 2 6020.19 430.265 13
4 8 -2 5983.96 469.761 14
4 -8 2 6510.52 406.267 4
-8 -4 2 5578.15 494.617 9
8 -2 4 5362.9 404.199 7
-8 -2 -4 5246.69 432.282 1
-8 4 -2 5930.69 380.505 11
-4 -8 -2 5643.07 413.651 15
8 4 2 5337.04 405.442 5
-4 8 2 5397.34 486.89 6
-8 4 -2 5906.05 436.825 1
-8 -4 -4 3414 376.363 8
8 4 4 3253 346.411 12
8 4 4 3324.64 358.847 5
-8 4 -4 3627.49 372.262 1
-8 4 -4 3248.14 348.371 3
4 8 4 2856.1 345.143 12
-4 -8 -4 3305.99 365.726 9
-8 -4 -4 3723.26 358.057 1
8 -4 4 3942.61 390.801 4
-8 4 -4 3328.42 339.689 8
8 -4 4 3919.21 373.381 2
-4 -8 -4 3392.84 344.087 8
-4 8 -4 3198.38 337.504 6
8 -4 4 3668.17 356.971 7
-8 -4 -4 3113.1 327.062 3
-8 4 -4 3468.77 350 6
-4 8 -4 3560.24 381.328 11
-4 -8 -4 4084.41 381.286 15
8 4 4 3843.99 370.725 4
-8 -4 -4 3328.91 358.234 9
8 -5 3 4482.38 332.966 10
-5 8 -3 4634.96 415.052 11
-5 8 -3 4593.07 388.83 3
5 -8 -3 4447.94 547.148 7
8 -5 3 5113.69 397.831 2
-8 -5 -3 4809.78 419.833 9
5 8 3 4566.62 393.015 5
8 -5 3 4502.17 381.342 4
-5 8 -3 4509.74 402.33 6
-8 -5 -3 5055.93 375.255 1
-5 8 -3 4484.98 346.928 1
-8 -5 -3 4826 365.037 15
-5 -8 3 4358.27 434.584 16
8 3 5 4162.48 434.379 5
-8 5 3 4914.61 616.727 1
8 -5 3 4459.18 383.237 7
-8 -5 -3 4577.55 420.531 8
5 -8 -3 4153.23 417.268 10
8 -5 3 5185.74 384.157 5
-8 -5 -3 4826.61 352.022 16
5 8 3 4381.96 408.506 12
5 -8 -1 3872.91 434.194 2
5 -8 -1 3229.73 283.557 15
-8 -5 -1 3693.41 305.542 1
-8 -5 -1 3666.49 291.84 16
-8 -5 -1 3476.39 351.841 8
-5 -8 1 4476.83 427.715 8
-5 -8 1 3170.11 332.642 15
5 -8 -1 3711.36 358.132 10
-5 8 -1 3567.61 345.561 6
-8 1 -5 2249.6 350.155 3
5 -8 -1 3719.95 389.375 7
-8 1 -5 3284.58 379.42 1
8 -5 1 3644.82 293.396 10
-5 -8 1 3616.01 283.966 10
-8 5 1 3167.92 360.247 6
-5 -8 1 3788.28 402.315 9
8 -5 1 3470.2 340.108 7
-8 5 1 2843.01 337.065 3
-8 -5 -1 3085.14 339.393 9
5 8 -1 3779.39 370.65 14
8 5 1 3534.88 305.108 2
-5 8 1 3357.34 296.552 3
-8 -5 1 3500.13 377.881 9
-8 -5 1 3292.45 302.517 15
5 -8 1 3417.39 330.794 7
8 -1 5 2790.95 345.739 2
-5 8 1 3484.49 355.799 6
8 -1 5 2412.64 327.127 4
-8 -5 1 3850.45 414.397 1
-8 5 -1 3689.24 294.672 8
8 -5 -1 3220.63 379.948 7
5 -8 1 3517.08 297.355 2
-5 -8 -1 3357.92 311.755 8
-8 -5 1 3831.44 410.051 8
-8 -5 1 3705.61 340.7 3
5 -8 1 3413.1 282.11 15
8 -5 -1 3023.32 397.118 2
5 -8 1 3509.29 338.126 10
-8 5 -1 3605.5 353.753 1
-8 -5 1 3188.31 311.418 16
-8 5 -1 3988.12 370.471 6
-5 -8 -1 3637.27 353.199 9
8 -5 -1 3613.93 329.402 10
-5 -8 -1 3614.11 330.189 16
-8 -1 -5 3439.13 408.394 8
-8 5 -3 5269.65 401.766 11
8 5 3 4068.97 374.029 5
-8 -3 -5 4378.65 419.597 9
-5 -8 -3 4403.96 407.1 9
5 -8 3 6245 459.024 4
-5 -8 -3 4623.92 376.863 8
8 5 3 5169.12 364.804 2
-5 -8 -3 5288.56 422.251 16
8 -3 5 4738.11 472.308 4
-8 -5 3 3949.63 519.652 8
5 -8 3 5199.83 382.147 15
-8 5 -3 4525.93 338.001 8
5 -8 3 4687.45 378.666 7
8 -3 5 3792.67 377.493 7
5 -8 3 5282.23 351.787 2
-8 5 -3 5010.6 411.058 3
-5 -8 -3 4228.82 380.713 15
-8 5 -3 4507.89 391.771 6
-8 -5 3 3511.74 431.514 9
5 -8 3 4303.31 378.214 10
8 5 3 5597.84 410.387 4
-8 5 -3 3838.96 368.246 1
8 5 5 1676.56 270.769 12
5 8 5 1445.8 256.904 12
8 -5 5 1429.46 204.283 10
8 -5 5 2511.53 327.12 2
-8 5 -5 1749.45 291.961 1
-5 -8 -5 1590.6 280.206 9
-8 -5 -5 1540.37 255.556 9
8 -5 5 2166 329.656 4
8 5 5 1617 284.854 5
5 -8 5 1344.98 250.593 7
-8 -5 -5 1909.77 313.096 8
8 -5 5 1838.74 278.619 7
-8 5 -5 1557.44 253.084 3
-8 5 -5 1496.18 248.615 6
-6 8 -4 84.1311 80.7283 1
8 -6 4 92.5851 87.8571 7
-8 -6 -4 136.936 108.811 16
-8 -6 -4 19.3208 75.6463 15
6 8 4 14.9218 76.478 13
6 8 4 184.604 121.104 5
-8 -6 -4 10.5126 79.2702 9
-8 -6 -4 90.1506 75.7157 8
-6 8 -4 115.56 90.0704 11
8 -6 4 39.1399 98.0247 4
-6 8 -4 13.0465 61.1913 3
-6 8 -4 151.213 123.059 6
6 8 4 66.2946 92.7154 12
-8 -6 -4 8.31258 90.3022 1
8 -6 4 28.6993 88.5781 2
8 -6 4 89.1662 64.035 10
-8 6 2 1877.55 320.769 3
6 -8 -2 1904.05 278.452 10
6 8 2 1436.04 185.488 4
8 -6 2 1736.78 238.446 2
-6 -8 2 2023.93 362.8 8
-8 6 2 2012.21 338.643 6
-6 -8 2 1750.13 274.297 15
-6 -8 2 2202.49 304.149 16
8 -6 2 1956.92 265.019 7
6 -8 -2 2024.27 223.244 15
8 -6 2 2125.84 239.96 10
-8 -6 -2 1878.22 259.303 8
6 -8 -2 1831.22 310.604 7
-8 -6 -2 2522.99 266.044 16
8 -6 0 313.936 153.387 7
6 8 0 428.864 133.123 5
6 -8 0 533.222 114.867 15
-8 6 0 506.574 108.805 13
-6 8 0 337.469 108.108 6
-8 6 0 435.535 142.007 3
-6 8 0 498.479 123.642 13
-8 -6 0 477.09 125.163 3
-8 6 0 371.169 142.004 6
8 6 0 579.612 157.093 14
-8 6 0 336.607 144.866 1
-8 -6 0 591.686 167.21 8
6 -8 0 382.308 157.72 7
-8 6 0 424.923 126.885 8
8 -6 0 493.071 138.787 10
8 6 0 421.474 142.682 2
-6 8 0 516.119 147.222 3
-6 -8 0 286.361 137.016 9
-6 -8 0 612.275 160.271 16
6 -8 0 442.663 144.663 10
6 8 0 324.151 87.2746 11
-8 -6 0 504.519 146.858 16
8 -6 0 479.895 175.845 2
-8 -6 2 1281.71 278.512 16
-8 -6 2 2184.83 286.768 15
-6 8 2 1767.76 250.984 13
-8 -6 2 2086.55 328.917 9
-6 -8 -2 2246.86 269.36 15
-8 6 -2 1652.05 177.948 14
8 6 2 2029.21 233.081 4
-8 6 -2 2049.84 258.099 1
8 -6 -2 1467.98 300.65 7
-6 -8 -2 1908 189.146 3
6 -8 2 1795.82 221.851 4
8 6 4 53.7405 100.43 12
6 -8 4 71.6558 71.6677 10
-8 6 -4 104.901 90.7088 3
8 6 4 30.8996 59.4058 2
-8 6 -4 47.4647 61.4625 11
-8 6 -4 95.0597 87.2041 8
-6 -8 -4 51.8503 78.8457 8
-8 6 -4 69.6398 106.82 1
6 -8 4 113.311 84.9205 2
8 6 4 68.9895 70.7974 5
-6 -8 -4 117.891 94.9148 9
6 -8 4 220.929 112.43 15
8 6 4 13.1392 85.9389 13
-6 -8 -4 15.3057 77.3732 15
-8 6 -4 39.719 103.061 6
6 -8 4 67.5491 101.541 7
6 -8 4 55.9048 94.4954 4
7 8 5 7.72378 59.6059 5
-7 8 -5 53.7614 82.4938 6
7 8 5 92.1427 118.827 12
-8 -7 -5 54.5906 74.9029 16
8 -7 5 38.559 90.7473 2
8 -7 5 148.319 125.045 4
-7 8 -5 93.655 130.874 1
8 -7 5 12.0108 80.7966 7
-7 8 -5 57.1446 101.471 11
8 -7 5 14.811 71.7635 10
-8 -7 -5 49.95 89.8704 9
-8 -7 -5 41.7098 124.435 8
-7 8 -3 524.277 157.927 6
-7 -8 3 512.729 197.953 9
-8 7 3 404.928 160.759 3
8 -7 3 391.65 99.063 15
8 -7 3 316.116 107.964 10
7 8 3 456.177 130.371 12
-8 -7 -3 343.664 110.673 3
-7 -8 3 565.554 194.287 16
7 -8 -3 477.49 165.314 10
-8 -7 -3 401.69 110.696 1
7 -8 -3 282.047 204.136 7
-8 -7 -3 501.608 144.332 15
8 -7 3 449.873 135.989 4
-7 8 -3 383.262 107.792 14
-8 -7 -3 521.745 157.725 8
-7 8 -3 297.414 104.248 8
-8 -7 -3 333.555 142.531 9
7 8 3 702.038 119.982 2
-7 -8 3 376.142 141.973 15
8 -7 3 518.576 157.275 2
7 8 3 474.542 146.744 13
-7 8 -3 487.377 125.862 3
7 -8 -3 1153.87 340.829 4
-8 -7 -3 694.763 160.814 16
-7 8 -3 395.786 140.592 11
7 8 3 467.979 164.832 5
8 -7 3 363.483 79.2643 7
-7 8 -3 316.341 93.4342 1
-7 8 -1 5059.29 437.793 6
-8 -7 -1 4560.7 372.135 15
8 -7 1 5213.53 298.804 15
-7 8 -1 5049.91 390.288 3
-7 -8 1 5237.38 324.963 10
-7 -8 1 5428.31 497.152 9
-8 -7 -1 5039.45 361.767 1
-8 -7 -1 4779.39 378.577 16
-8 7 1 5055.99 480.37 6
7 -8 -1 5237.72 429.384 10
-8 -7 -1 5419.41 462.947 9
-8 -7 -1 5571.39 454.678 8
7 -8 -1 4638.78 522.205 2
-8 7 1 5050.13 438.06 3
-7 -8 1 5336.72 511.432 8
7 8 1 4559.67 328 2
-7 -8 1 5048.7 424.343 15
7 8 1 5360.65 319.14 4
-8 7 1 4921.01 492.934 1
8 -7 1 5422.43 451.656 7
7 8 1 5168.13 313.595 11
7 -8 -1 5339.69 360.345 15
-7 -8 1 4824.59 420.69 16
-8 -7 -1 5848.68 351.672 3
8 -7 1 5370.36 448.765 2
8 -7 1 5127.71 311.389 5
-7 -8 1 5483.01 351.776 3
8 -7 1 5716.32 413.492 10
8 7 -1 5221.47 431.261 14
7 -8 -1 3892.57 445.515 7
-7 8 1 5268.22 434.147 3
-8 7 -1 5124.05 437.129 6
-8 -7 1 4497.36 391.679 16
-8 7 -1 5019.9 348.542 8
8 7 1 4519.74 348.129 2
-7 8 1 5286.08 470.474 6
-8 7 -1 4932.44 421.15 1
7 -8 1 4898.47 412.267 2
8 -7 -1 5426.35 423.524 10
7 8 -1 5457.34 454.231 14
-8 -7 1 5082.16 474.283 9
7 -8 1 5306.05 338.159 15
7 -8 1 4967.98 278.501 5
-7 -8 -1 4685.66 400.343 15
7 -8 1 4984.74 391.635 4
-8 -7 1 5640.1 514.277 8
8 -7 -1 5389.38 559.601 2
-7 -8 -1 5640.52 432.282 8
7 8 -1 4842.1 347.478 11
7 -8 1 4500.5 421.617 7
-8 7 -1 5444.46 320.674 13
-8 -7 1 5074.93 385.003 3
-7 -8 -1 4512.75 293.892 3
8 -7 -1 4862.63 486.9 7
-7 8 1 5247.6 394.378 13
-7 -8 -1 4918.77 318.431 10
-8 7 -1 5594.04 416.354 3
-8 -7 1 4473.95 389.735 15
-7 -8 -1 5017.39 395.401 16
-8 7 -1 4985.97 328.846 14
8 7 1 4882.02 260.412 11
7 -8 3 424.809 149.279 16
-7 8 3 703.707 309.483 3
-7 -8 -3 561.896 134.986 1
-8 -7 3 476.428 157.145 15
-7 -8 -3 486.788 161.087 9
8 -7 -3 745.755 234.845 4
-7 -8 -3 368.345 128.291 15
-8 7 -3 319.946 108.107 8
7 -8 3 633.258 191.666 7
7 -8 3 499.189 147.027 4
-7 -8 -3 671.383 164.468 8
8 7 3 550.882 180.241 13
-8 7 -3 444.319 138.732 11
-8 7 -3 349.809 129.917 1
8 7 3 493.266 130.214 5
8 -7 -3 413.043 148.226 10
-8 7 -3 432.432 117.182 6
8 7 3 655.767 132.96 2
7 -8 3 583.884 138.881 2
7 -8 3 562.699 124.595 15
7 -8 3 619.21 161.093 10
8 7 3 657.192 156.065 4
-8 -7 3 573.518 232.686 8
-7 -8 -3 569.408 151.404 16
8 -7 -3 465.531 203.991 7
7 8 -3 528.76 155.539 14
-8 7 -3 676.194 172.668 3
-8 -7 3 709.095 235.133 9
-8 7 -5 71.9094 116.207 6
7 -8 5 67.6893 111.387 7
8 7 5 78.7466 82.8236 12
7 -8 5 232.889 125.649 10
8 7 5 14.3397 71.6312 5
-7 -8 -5 147.675 110.866 9
8 7 5 5.9091 81.8941 2
-7 -8 -5 31.7012 95.4454 8
7 -8 5 97.2555 121.54 2
-8 7 -5 139.404 116.495 3
-8 7 -5 27.5291 68.8452 1
-7 -8 -5 13.3131 87.1544 16
-8 -8 0 6719.2 475.3 1
8 -8 0 6295.45 377.412 15
8 8 0 6541.94 495.182 14
-8 8 0 5745.08 497.537 6
8 -8 2 5059.23 427.852 4
-8 8 -2 6045.84 501.948 6
-8 8 -2 5477.32 448.346 1
-8 8 -2 6337.43 451.709 3
-8 -8 2 5173.44 480.687 15
-8 8 2 5462.34 518.987 3
8 -8 2 5149.31 423.873 2
8 -8 2 4974.01 315.833 15
-8 -8 2 5835.05 610.744 8
-8 -8 -2 5796.94 373.012 1
-8 8 -2 5750.5 400.286 14
8 8 2 5943.97 391.168 4
-8 -8 -2 6191.73 482.97 8
-8 -8 2 5133.61 484.987 16
-8 8 2 6043.5 588.671 6
-8 -8 2 5602.28 359.904 10
-8 8 -2 5461.31 462.236 11
8 -8 2 6382.32 445.406 10
-8 -8 2 5679.13 562.822 9
-8 -8 2 5134.51 433.897 3
-8 -8 -2 5622.11 436.335 16
-8 -8 -2 5657.4 444.02 15
-8 -8 -2 5168.61 365.249 10
8 -8 -2 6070.96 483.177 10
8 -8 2 5434.21 464.109 7
8 8 2 6421.31 380.699 2
8 8 -2 5507.98 475.542 14
8 8 4 40.7986 107.283 13
-8 8 -4 133.037 128.508 6
-8 8 -4 72.3104 68.7526 8
8 -8 4 33.4542 91.4848 10
8 -8 4 106.846 97.7074 2
-8 8 -4 194.222 130.77 3
-8 -8 -4 95.5544 81.1434 8
8 -8 4 38.4375 90.9673 4
8 8 4 178.778 87.4644 2
-8 -8 -4 75.701 61.7154 1
8 -8 4 215.648 100.957 7
-8 -8 -4 153.148 110.169 15
8 8 4 197.226 138.234 12
8 8 4 2.09576 95.4436 5
8 -8 4 92.7667 74.8467 15
-8 8 -4 87.216 95.7971 11
-8 -8 -4 101.868 94.9114 16
-8 8 -4 89.8264 71.9375 1
-8 -8 -4 6.10561 106.519 9
-8 -8 -6 100.055 102.855 9
-8 8 -6 413.87 172.854 6
8 -8 6 337.201 156.091 7
8 8 6 62.0199 119.623 12
-9 1 0 977.538 199.383 1
0 -9 1 1284.71 202.732 10
-9 -1 0 1235.78 177.329 6
-9 1 0 1125.74 189.829 6
-9 0 -1 1408.18 187.905 9
9 0 1 1447.19 187.721 7
9 -1 0 1365.1 242.739 2
-1 -9 0 1234.81 207.958 16
0 9 1 1320.33 172.073 6
-9 -1 0 1064.24 202.636 1
-9 -1 0 1486.72 233.171 3
9 0 1 1428.44 230.653 2
0 -9 -1 1374.66 213.345 15
0 -9 -1 1178.2 199.779 10
-9 0 1 1239.09 240.701 3
-1 -9 0 1516.08 221.215 15
0 -9 -1 1143.9 172.705 9
-9 0 -1 1393.69 212.865 1
-9 1 0 1315.41 180.192 9
0 -9 1 1317.41 208.408 15
-1 -9 0 1368.46 167.026 7
-1 -9 0 1364.59 203.736 10
-9 0 1 1256.08 207.642 6
-9 0 -1 1097.17 186.41 3
-9 0 -1 1419.14 221.393 8
-1 9 0 1235.4 171.169 12
0 -9 1 1295.43 160.966 7
0 9 -1 1102.66 182.587 11
9 -1 0 1324.99 206.311 7
1 9 0 1294.82 152.931 6
9 1 0 1329.55 204.681 7
-9 0 -1 1151.05 167.894 6
-9 1 0 1174.16 216.932 3
0 9 -1 1299.97 170.011 6
1 -9 0 1162.86 189.803 15
0 -9 -1 1323 213.784 7
1 -9 0 1446.47 220.339 16
0 9 1 1083.63 174.062 12
2 -9 -1 4043.79 358.198 10
1 9 -2 4164.53 325.636 6
-2 9 -1 4271.86 327.49 6
1 -9 2 3912.96 355.091 10
-9 -2 -1 3898.71 338.758 3
-2 9 -1 4036.09 366.888 11
-9 -1 2 4078.56 464.591 3
-9 1 -2 3817.8 270.132 9
2 -9 -1 4402.38 398.73 7
-1 -9 -2 4016.81 330.038 9
2 -9 -1 4211.27 291.777 9
-9 -2 -1 3889.02 327.727 9
-9 2 1 3909.55 413.804 1
-9 2 1 3937.7 407.836 3
9 1 2 3605.8 331.708 2
-9 -2 -1 3819.38 270.424 6
9 -2 1 3476.92 362.065 2
9 1 2 4289.82 367.35 4
-9 2 1 3736.18 361.246 6
-9 -2 -1 3653.11 349.249 8
-9 1 -2 3836.13 346.792 8
-9 1 -2 4282.11 361.948 3
1 -9 2 4333.02 319.33 7
-1 9 2 3981.52 337.029 12
-9 -1 2 4272.38 500.616 1
1 -9 2 3917.07 360.45 15
-1 -9 -2 3868.29 352.487 15
9 -2 1 4506.71 357.325 7
2 -9 -1 4416.08 351.381 15
2 9 1 3730.27 334.385 12
9 1 2 3772.39 282.77 7
2 9 1 3734.02 263.377 5
-2 -9 1 4164.9 375.806 15
-2 -9 1 3609.06 313.444 10
-1 -9 -2 2690.45 397.909 7
-1 9 2 4087.79 370.193 6
-9 -2 -1 4186.31 361.539 1
2 9 1 3990.83 247.572 6
-2 9 1 3916.92 346.892 13
2 9 -1 3043.95 241.541 6
-9 -1 -2 4507.55 384.085 8
-1 9 -2 4218.14 367.208 11
2 9 -1 4386.24 351.16 11
-9 2 -1 3882.84 265.969 11
9 2 1 3894.98 281.874 7
-2 -9 -1 3988.47 361.301 15
9 -2 -1 3968.48 413.863 7
1 9 2 3939.67 320.529 6
-9 -2 1 3519.08 349.177 9
-9 -2 1 4191.93 441.124 8
1 -9 -2 4166.77 359.689 15
2 -9 1 4806.73 290.749 4
-9 2 -1 3800.62 349.79 3
-2 -9 -1 4034.39 346.279 10
9 -2 -1 3521.12 435.214 2
-2 9 1 3861.21 332.305 6
-9 2 -1 3978.69 349.818 8
-9 2 -1 3829.51 363.756 1
-9 -1 -2 3948.93 359.638 1
9 2 1 4008.62 364.935 2
1 9 2 4060.76 350.763 12
-9 -2 1 3518.29 390.838 1
-9 1 2 3328.56 434.415 3
-1 9 -2 3991.46 329.294 6
-1 -9 2 3518.68 325.954 10
-9 1 2 3420.99 469.535 1
9 -1 2 4006.42 331.547 7
2 -9 1 3855.45 319.866 7
-2 9 1 4140.76 311.908 12
-9 -2 1 3743.96 385.009 3
-9 -1 -2 3924.63 313.681 9
1 -9 -2 3819.78 372.365 10
-2 -9 -1 4364.77 349.205 9
2 -9 1 3885.06 339.399 15
9 -1 2 3904.98 353.107 2
-1 9 -2 4395.51 407.338 14
-9 2 -1 4217.58 353.082 6
3 -9 -2 23.742 94.4385 10
-2 9 3 29.3064 107.849 13
-2 -9 -3 123.991 82.5906 9
-3 -9 2 99.0616 89.2081 16
-3 9 -2 49.2726 57.7695 11
-2 -9 -3 133.668 114.722 10
2 -9 3 34.8196 67.7733 10
3 9 2 50.5534 63.4942 13
9 -2 -3 479.793 364.942 4
9 3 -2 261.734 175.734 4
2 -9 3 24.7417 74.4632 7
3 9 2 32.1306 49.3164 5
9 3 -2 152.858 191.97 2
9 -3 2 8.415 73.8659 2
9 2 3 43.7611 44.9448 7
-3 9 -2 32.555 45.5887 1
9 2 3 14.4234 77.4856 5
9 -3 2 3.98865 73.1024 5
-9 2 -3 6.3464 58.5646 9
-9 2 -3 146.09 94.9924 3
-9 -3 -2 36.8152 68.2956 1
-9 -3 -2 42.2162 86.5515 9
9 -2 -3 243.436 245.293 2
2 9 -3 65.1596 76.8251 11
-9 -3 -2 47.5835 66.9914 16
-3 -9 2 109.682 132.708 9
-9 2 -3 38.9072 71.9576 8
-2 -9 -3 58.1406 51.4912 8
-9 2 -3 90.6334 110.961 1
9 -3 2 27.8213 44.6863 12
9 -3 2 131.459 63.2362 7
-9 -3 -2 34.238 95.1075 8
9 2 3 4.81751 70.9446 4
-9 2 -3 125.329 110.284 6
9 -3 2 61.6239 63.8235 10
-9 3 2 51.956 179.006 1
9 -3 2 90.1747 86.2381 4
-3 9 -2 0.31672 68.3802 3
9 2 3 82.0153 84.3312 2
-9 -2 3 11.0378 140.998 8
3 -9 -2 52.2579 69.4912 15
-3 -9 2 159.762 133.61 15
2 -9 3 2.52925 66.4978 15
3 9 2 60.133 82.2419 12
-9 3 2 140.291 121.861 8
2 9 -3 10.7946 111.891 14
-3 9 -2 104.418 101.764 14
-9 3 2 84.9453 154.279 3
2 -9 3 19.3149 90.9651 16
3 -9 -2 9.4281 82.5203 4
-9 -3 -2 65.1188 64.4627 6
-9 -3 -2 40.7152 78.4594 3
3 -9 -2 23.1682 49.8328 9
-3 -9 2 173.317 77.86 10
-2 -9 -3 64.8994 101.022 16
3 -9 -2 62.4227 128.771 7
-2 -9 -3 48.1192 70.8905 15
9 2 3 143.5 100.345 12
-3 9 -2 22.7538 74.0288 6
3 -9 -2 26.4976 74.3644 16
-9 0 -3 1141.82 210.924 3
-9 0 -3 928.045 155.037 6
9 3 0 1015.81 212.103 2
3 9 0 934.619 166.489 11
-9 0 -3 654.09 153.475 1
3 -9 0 782.481 173.231 10
-3 -9 0 973.404 174.536 10
9 0 3 758.335 159.154 5
-3 -9 0 937.989 198.43 9
-9 -3 0 1032.76 210.758 1
-9 3 0 828.424 166.411 6
-9 -3 0 763.597 196.85 8
-9 -3 0 901.487 124.356 6
-9 -3 0 999.89 170.545 3
-9 3 0 990.432 202.948 3
0 -9 -3 731.97 183.459 10
-3 9 0 1199.16 189.47 6
-3 -9 0 1080.47 177.436 8
0 -9 3 935.21 170.781 7
9 -3 0 934.126 190.253 7
0 -9 -3 789.529 175.325 9
-9 0 -3 917.514 155.753 9
9 -3 0 743.824 185.209 2
0 -9 3 1224.14 221.528 15
0 -9 -3 991.795 199.884 16
-9 0 -3 1072.01 211.143 8
9 0 3 840.82 181.758 4
3 -9 0 1068.49 196.535 7
3 -9 0 918.851 164.522 15
9 0 3 1331.43 208.955 2
-3 -9 0 916.624 198.254 16
3 -9 0 804.821 119.176 4
-3 9 0 990.02 131.712 3
-9 0 3 693.201 261.926 3
-3 -9 0 698.436 167.783 15
-9 3 0 810.943 190.09 1
9 -3 0 888.662 149.681 10
0 9 -3 1069.25 209.048 11
-9 -3 0 869.2 134.033 15
0 9 3 790.926 182.293 12
-9 -3 0 720.57 135.513 16
9 0 3 884.677 152.158 7
9 3 0 1063.31 140.34 14
0 -9 -3 928.189 182.684 15
-3 9 0 940.601 125.598 12
9 0 3 797.176 146.209 12
-3 9 2 8.52821 78.4658 13
2 9 3 44.1457 70.7468 13
9 3 2 57.6155 93.1722 5
2 -9 -3 19.3174 62.4377 15
-9 3 -2 110.317 130.781 1
-9 -2 -3 50.8867 72.1906 6
-9 3 -2 107.662 87.8253 3
-9 3 -2 14.0001 76.9306 6
3 9 -2 25.1404 64.8633 11
9 -3 -2 63.3243 137.953 7
-2 9 -3 28.979 66.5362 11
-9 3 -2 35.937 47.4269 11
-3 9 2 21.8239 106.605 6
3 -9 2 146.243 95.4235 10
-9 -2 -3 87.7636 75.5199 3
9 3 2 51.665 80.8459 2
3 9 -2 24.9356 88.4649 14
9 -2 3 41.565 83.0423 7
-9 -3 2 21.3524 184.099 1
-3 -9 -2 62.427 102.74 10
9 3 2 91.1349 118 12
2 -9 -3 216.924 102.933 10
-2 -9 3 14.4426 56.0822 10
9 -2 3 72.425 89.2012 5
9 3 2 64.4974 55.1696 13
-3 -9 -2 106.065 104.064 9
-3 9 2 25.8531 88.5931 3
2 -9 -3 49.3759 65.0314 16
-9 -2 -3 35.959 74.49 9
-2 -9 3 85.7984 99.2165 15
-9 2 3 169.309 178.953 1
-9 -3 2 32.7311 93.1727 9
-2 -9 3 115.041 163.394 9
-3 -9 -2 58.3454 57.0743 8
3 -9 2 19.0505 54.9446 4
-9 -2 -3 91.5596 85.5102 1
3 -9 2 66.6208 88.5566 7
3 -9 2 51.555 92.1309 15
9 -2 3 23.9739 53.0971 10
-9 3 -2 22.5257 90.2187 8
-9 2 3 98.4687 184.693 3
9 -2 3 103.982 89.206 4
9 3 2 154.896 97.9014 4
2 9 3 96.5826 56.7616 12
-9 -3 2 158.176 122.63 8
-3 -9 -2 20.7196 100.001 16
3 -9 2 19.8245 46.9717 2
3 -9 2 34.2231 76.2767 16
9 -2 3 28.3888 71.1784 2
-2 9 -3 62.8017 92.1108 6
9 -3 -2 134.787 176.813 4
9 -3 -2 312.658 193.409 2
-9 -2 -3 1.72989 75.6697 8
-9 -3 2 89.7613 158.005 3
-2 -9 3 42.0033 84.5625 16
-2 9 -3 105.625 78.5703 14
-3 -9 -2 48.584 101.485 15
3 -9 4 395.341 144.24 10
-4 9 -3 370.671 126.252 11
-4 -9 3 228.333 170.954 15
-9 4 3 398.036 228.089 3
9 3 4 179.572 107.544 5
4 -9 -3 54.0824 129.988 7
-3 -9 -4 263.721 120.621 15
-4 -9 3 149.369 103.8 10
-9 -4 -3 160.015 107.028 8
9 -4 3 270.096 95.0245 10
4 9 3 246.822 117.798 12
4 -9 -3 441.893 155.345 10
-4 9 -3 133.734 77.8555 6
3 -9 4 184.72 125.936 16
4 9 3 266.602 122.939 5
-4 9 -3 185.978 73.5996 1
-3 -9 -4 166.554 93.5177 9
9 -4 3 322.572 85.7 4
-9 -4 -3 285.628 139.775 9
4 -9 -3 260.958 119.549 16
9 3 4 189.731 91.2381 7
-4 9 -3 326.367 145.596 14
-9 -4 -3 215.586 92.6061 16
-4 -9 3 260.322 159.264 9
-9 3 -4 330.03 137.659 3
-3 -9 -4 138.302 92.9123 8
-9 3 -4 79.9159 71.2825 8
3 -9 4 411.641 140.073 15
9 -4 3 256.894 109.26 5
-9 -4 -3 239.239 98.4696 3
9 3 4 303.89 123.8 2
9 3 4 32.8951 82.8773 12
3 9 -4 226.843 102.716 14
9 -4 3 310.614 130.122 2
-9 -4 -3 359.285 106.383 15
4 9 3 353.535 139.657 13
-9 4 3 148.984 163.679 1
-9 -4 -3 266.331 101.558 1
-4 -9 3 222.777 111.046 16
3 -9 4 382.515 124.315 7
-9 3 -4 178.056 81.6814 6
-3 -9 -4 327.391 115.692 16
9 -4 3 278.163 120.805 7
4 -9 -3 554.866 155.596 15
-9 3 -4 305.458 146.269 1
9 3 4 279.476 104.92 4
4 -9 -1 2158.95 277.356 10
-9 -4 -1 2013.86 278.713 8
-9 1 -4 1315.67 289.385 8
4 -9 -1 2311.36 304.903 7
-4 -9 1 2392.35 240.826 10
1 -9 4 2297.43 280.042 10
-9 4 1 2089.9 296.099 6
4 9 1 1719.69 202.5 5
9 1 4 1701.73 259.274 5
-1 9 4 1815.09 289.336 13
-1 -9 -4 1306.55 261.273 9
-9 1 -4 1589.66 243.272 9
-4 -9 1 2099.27 283.477 16
-4 -9 1 2154.26 290.721 15
-9 -4 -1 2709.71 272.512 3
-9 4 1 1625.48 263.912 1
9 1 4 1899.3 266.308 2
-9 -4 -1 1965.82 253.842 1
-9 1 -4 1965.02 251.935 6
9 1 4 2330.72 273.121 12
4 -9 -1 2453.46 265.269 15
9 1 4 2078.54 233.214 7
9 -4 1 1477.65 252.48 7
-4 9 -1 2445.87 227.46 3
-9 -4 -1 1780.51 248.498 9
-9 -4 -1 2166.51 216.617 16
-9 4 1 2129.91 309.88 3
4 -9 -1 2182.56 345.995 2
-9 -4 -1 2198.21 220.095 15
-1 -9 -4 2329.58 294.799 15
-9 1 -4 1848 272.874 3
9 -4 1 2311.92 236.046 10
9 1 4 2574.71 319.879 4
9 -4 1 2313.8 301.816 2
-9 1 -4 2332.11 302.631 1
-4 9 -1 2435.94 279.954 6
-9 -4 -1 2368.08 178.452 6
-9 4 -1 1897.28 262.823 6
-4 9 1 2378.18 274.493 13
4 -9 1 2241.19 275.181 10
-4 -9 -1 2756.78 286.726 10
-4 9 1 2009.29 276.791 6
9 -4 -1 2141.98 246.745 10
4 9 -1 2217.87 252.534 11
-9 -4 1 2398.72 299.659 3
-9 -4 1 2257.22 308.476 9
-9 -1 -4 2434.45 283.054 9
-4 -9 -1 2516.75 310.23 9
9 -4 -1 2469.43 347.713 7
9 -1 4 2415.72 306.38 4
-9 -1 -4 2212.19 329.234 8
-9 4 -1 2291.88 258.683 8
-9 -1 -4 2541.31 317.35 3
4 -9 1 2242.16 224.82 4
-9 -1 -4 2146.01 283.977 1
9 -1 4 2764.79 320.61 2
-9 -4 1 2175.17 323.092 8
-4 -9 -1 2313.52 282.939 15
9 -1 4 2353.84 302.787 5
-9 4 -1 1812.24 261.481 1
-4 -9 -1 1864.1 264.262 16
9 -1 4 2540.37 276.871 7
4 -9 1 2446.55 283.114 7
-9 -4 1 2458.16 266.213 16
-4 9 1 2416.05 242.26 3
-9 4 -1 2612.49 296.321 3
4 -9 1 1996.38 237.737 15
-1 -9 4 2169.13 323.891 15
4 -9 1 2106.03 217.131 2
-9 -4 1 2185.9 327.273 1
9 -4 -1 2050.5 342.374 2
4 9 -1 2297.39 312.679 14
9 4 1 2315.02 280.023 2
9 4 3 288.82 109.683 13
-9 4 -3 238.641 110.961 6
-9 4 -3 349.491 147.033 3
4 -9 3 177.032 122.54 16
9 -3 4 235.019 102.159 2
9 4 3 336.968 105.381 12
-3 9 -4 406.547 141.531 11
-9 4 -3 300.954 107.804 11
4 -9 3 351.382 140.942 10
-9 -3 -4 172.984 94.235 16
-3 -9 4 297.316 130.514 16
4 -9 3 199.674 89.3427 15
-9 4 -3 450.483 146.994 1
9 -4 -3 60.3818 200.26 2
9 -3 4 268.878 99.1234 10
4 -9 3 271.899 112.236 7
9 -4 -3 878.586 335.314 4
-4 -9 -3 137.563 113.668 10
3 -9 -4 109.228 133.722 10
9 -3 4 312.123 131.05 5
-9 -3 -4 290.547 128.769 9
9 -3 4 301.492 126.979 7
9 -3 4 163.242 113.279 4
-9 4 -3 281.857 106.822 8
-4 -9 -3 270.121 112.357 15
4 -9 3 239.996 91.8242 2
9 4 3 274.197 128.61 5
-4 -9 -3 108.826 120.387 16
-4 9 3 146.307 78.0454 13
-3 9 -4 169.793 79.6896 6
3 9 4 349.04 128.782 12
-9 -3 -4 202.42 96.8938 3
9 4 3 397.478 115.424 2
3 9 4 137.453 129.207 13
-3 9 -4 214.303 101.423 14
-3 -9 4 268.786 148.841 15
-4 -9 -3 334.052 107.555 8
9 4 3 233.563 101.003 4
-9 -3 -4 206.495 102.56 1
-9 -4 3 133.616 157.645 8
-9 -3 -4 265.516 120.051 8
9 -4 -3 431.867 288.132 7
4 9 -3 274.906 132.521 14
-4 -9 -3 216.021 105.196 9
-9 -5 -4 108.591 97.1875 9
-9 4 -5 269.465 143.694 6
9 -5 4 18.9108 86.4886 5
-9 -5 -4 280.248 123.263 1
9 -5 4 11.1563 55.7482 10
9 4 5 202.876 119.888 5
-9 4 -5 168.723 123.754 1
-9 -5 -4 125.314 79.1901 8
-9 4 -5 25.536 89.2818 3
5 9 4 32.4443 70.9282 12
9 4 5 96.6155 91.4463 2
-9 4 -5 230.973 128.259 8
5 9 4 76.8137 111.06 13
-9 -5 -4 35.5562 77.7933 3
9 -5 4 206.924 111.104 2
-5 9 -4 149.612 84.1946 1
9 -5 4 79.0947 80.7118 4
-5 9 -4 62.639 92.8297 6
-5 -9 4 244.752 131.668 15
9 4 5 14.3027 98.5899 12
-9 -5 -4 272.227 114.729 16
9 -5 4 138.88 97.7801 7
4 -9 5 184.523 128.381 7
-4 -9 -5 52.6865 61.6391 9
4 -9 5 207.087 109.763 10
-5 9 -4 221.613 127.965 11
9 5 -2 57 116.309 4
-5 9 -2 170.855 140.959 11
9 5 -2 209.331 299.665 2
9 -5 2 111.334 96.2309 2
-5 -9 2 3.14571 84.4119 16
5 -9 -2 172.055 109.071 16
5 9 2 66.5013 58.1099 5
9 -5 2 130.711 91.7134 5
-9 -5 -2 66.7819 106.194 8
-9 -5 -2 51.5943 62.7621 16
5 -9 -2 145.673 115.608 10
5 -9 -2 87.3771 123.945 7
9 2 5 228.805 152.781 4
-9 2 -5 23.614 87.9829 8
-9 2 -5 105.949 119.072 3
5 -9 -2 105.19 92.6146 15
-5 -9 2 9.95661 151.04 8
-9 2 -5 240.389 150.195 1
-5 9 -2 248.059 102.677 14
9 5 -2 186.872 184.563 5
-9 5 2 268.656 147.014 6
-5 -9 2 2.31991 109.243 15
9 2 5 161.243 91.1504 2
-9 -5 -2 88.1503 90.9123 9
9 2 5 151.931 116.308 5
-9 5 2 124.439 117.523 3
-5 9 -2 18.91 55.3067 3
-9 -5 -2 60.4899 88.835 3
-5 -9 2 117.627 100.1 10
9 0 5 291.323 91.4855 5
5 -9 0 194.565 93.1969 10
9 0 5 243.392 119.343 7
-9 5 0 356.382 121.457 1
9 5 0 369.971 129.026 2
-9 -5 0 329.439 146.01 8
-9 5 0 512.442 160.974 6
-5 9 0 379.243 116.916 6
9 -5 0 198.461 92.6222 7
9 -5 0 541.403 142.404 10
-5 -9 0 324.262 146.368 9
-9 -5 0 425.864 129.517 3
-9 -5 0 426.852 129.064 9
5 9 0 333.807 99.5357 11
-5 9 0 473.109 124.574 3
9 0 5 545.704 166.419 4
-9 0 -5 398.122 164.597 8
9 0 5 423.252 147.718 2
-9 5 0 511.742 162.039 3
-9 5 0 235.685 97.8378 8
5 -9 0 457.166 118.697 4
-9 0 -5 266.04 106.291 1
5 -9 0 508.878 152.418 2
-9 -5 0 347.487 117.435 16
-5 -9 0 330.637 149.881 16
9 -5 0 156.771 130.438 2
5 -9 0 388.523 114.175 15
5 -9 0 471.508 144.665 7
-9 0 -5 221.573 111.435 3
9 -2 5 67.8487 78.8057 7
9 -2 5 273.018 118.831 2
9 -5 -2 122.876 84.2774 10
9 -5 -2 23.6417 146.781 2
-9 -5 2 206.496 137.535 3
-9 -2 -5 76.1826 66.9693 9
5 9 -2 18.831 89.2643 14
-9 5 -2 139.852 104.476 1
-5 -9 -2 69.161 87.8706 15
-9 -5 2 69.5545 133.622 9
9 -2 5 177.459 113.329 4
-5 9 2 132.975 138.459 1
-9 5 -2 130.692 83.268 3
5 -9 2 48.5867 75.7707 4
9 5 2 47.3926 72.0824 4
9 -5 -2 78.3983 153.467 7
-9 -5 2 69.2526 192.615 1
5 9 -2 77.0892 73.8182 11
-9 -5 2 344.08 153.973 8
-9 -2 -5 258.09 159.869 8
-5 9 2 78.1977 97.0442 13
-5 9 2 33.2514 98.1632 6
-9 -2 -5 13.0252 81.6986 3
-5 -9 -2 48.4698 82.7245 10
5 -9 2 135.196 131.935 16
-9 -2 -5 74.6795 118.034 1
9 5 4 20.1138 81.5332 12
-9 5 -4 252.512 112.425 8
9 5 4 64.5054 65.4991 5
9 -4 5 127.589 87.8639 7
9 -4 5 21.5912 57.373 10
-9 5 -4 28.3053 92.3188 3
-4 9 -5 152.093 125.532 11
-9 -4 -5 82.9265 94.8868 9
5 -9 4 63.1104 76.1897 15
9 5 4 94.4964 101.022 4
9 -4 5 52.4913 101.746 4
-5 -9 -4 1.02899 83.0119 8
5 -9 4 206.697 70.3299 2
5 -9 4 75.8988 68.2654 10
9 -4 5 147.098 112.317 2
9 5 4 29.2228 68.5123 2
-5 -9 -4 61.828 92.2604 15
-9 -4 -5 66.8598 96.0048 1
-9 5 -4 80.6952 104.131 6
-9 -4 -5 252.738 144.215 8
-9 5 -4 221.932 123.392 11
5 -9 4 87.5551 67.6988 7
-5 -9 -4 229.103 120.489 9
-5 -9 -4 37.4699 92.6166 16
-9 5 -4 187.664 129.266 1
9 -6 5 376.394 178.059 7
-9 -6 -5 330.23 164.786 8
9 -6 5 363.047 113.526 10
6 9 5 288.135 150.565 12
-9 -6 -5 290.741 136.494 9
9 -6 5 483.869 196.089 4
9 -6 5 305.724 149.302 2
-9 -6 -5 363.488 121.57 16
-6 9 -5 140.572 150.677 1
-9 -6 -5 437.813 165.283 1
-6 9 -5 154.056 110.217 11
6 9 5 256.641 144.427 13
-6 9 -5 625.016 193.371 6
-6 -9 3 578.742 192.796 15
6 9 3 811.404 176.429 5
-6 9 -3 1003.18 178.517 1
6 -9 -3 715.578 286.172 4
-6 9 -3 688.475 171.54 11
-6 -9 3 583.028 137.853 10
-6 9 -3 797.632 182.806 3
-9 -6 -3 800.299 165.075 1
9 -6 3 903.876 172.72 10
9 -6 3 825.091 165.872 5
9 -6 3 808.649 157.492 2
-9 6 3 1037.36 274.345 3
6 9 3 817.391 192.737 12
-9 -6 -3 962.845 199.129 9
-9 -6 -3 762.732 153.857 16
-9 -6 -3 1051.54 224.831 8
6 -9 -3 928.538 287.385 7
9 -6 3 677.281 181.402 4
-9 -6 -3 950.889 176.684 15
-6 -9 3 1090.61 236.73 16
-9 6 3 476.708 265.438 1
9 -6 3 697.621 186.227 7
6 -9 -3 779.545 188.34 10
-6 9 -3 886.166 204.462 6
-6 -9 1 707.472 129.016 10
9 -6 1 591.664 196.228 2
6 -9 -1 748.623 239.99 2
-9 6 1 709.335 178.274 3
-6 -9 1 685.652 106.834 3
-9 -6 -1 1114.95 225.066 9
-6 -9 1 401.778 160.082 9
-6 9 -1 651.426 174.605 6
-9 -6 -1 764.194 162.827 1
9 6 -1 680.7 187.82 2
-6 -9 1 1071.53 218.439 15
9 -6 1 820.366 178.63 7
-6 -9 1 674.301 206.534 8
6 -9 -1 670.136 146.909 15
-6 9 -1 780.519 157.377 1
-9 -6 -1 632.616 169.246 8
-9 6 1 753.216 193.641 6
6 -9 -1 767.036 186.068 10
6 -9 -1 836.963 213.686 7
-6 -9 -1 1176.15 208.542 8
9 -6 -1 813.734 217.635 7
-9 -6 1 981.994 195.872 3
6 9 -1 630.252 130.34 11
6 -9 1 724.42 171.474 2
9 -6 -1 560.329 202.673 2
-9 6 -1 796.263 188.162 6
-9 6 -1 623.742 153.692 1
-6 9 1 661.841 137.458 3
9 6 1 861.092 179.211 2
-9 -6 1 673.379 169.83 16
-6 -9 -1 687.244 175.319 9
-9 -6 1 953.524 224.335 9
-9 -6 1 485.091 143.419 15
-9 6 -1 845.4 147.102 8
-6 -9 -1 635.333 100.307 3
-6 -9 -1 717.316 172.185 16
9 -6 -1 1028.01 262.148 4
6 -9 1 1031.96 171.544 15
-9 -6 1 681.286 191.24 8
-9 -6 1 713.7 213.853 1
6 -9 1 471.14 153.887 7
6 -9 1 643.387 153.04 10
6 9 -1 683.93 184.983 14
-9 -6 3 548.174 171.515 15
-6 -9 -3 611.387 158.614 16
6 -9 3 711.737 173.726 10
-6 -9 -3 967.365 190.738 8
-9 6 -3 1012.76 186.536 6
-9 6 -3 942.72 191.602 11
9 -6 -3 489.892 190.114 7
-6 -9 -3 943.396 175.876 15
-6 9 3 304.145 219.431 3
-6 -9 -3 617.305 185.149 10
-9 6 -3 935.995 193.461 3
-9 -6 3 742.988 236.453 3
9 -6 -3 901.199 342.505 2
-9 6 -3 643.351 173.839 1
-9 -6 3 688.597 216.242 9
6 -9 3 1084.63 203.391 4
6 -9 3 881.675 158.213 2
-9 -6 3 530.577 256.619 8
9 6 3 659.775 180.247 5
6 -9 3 779.538 165.044 7
9 6 3 790.494 145.693 2
6 -9 3 775.061 167.205 15
9 6 3 734.125 177.959 13
-6 -9 -3 888.901 209.274 9
-9 6 -3 948.264 167.218 8
9 6 3 895.688 178.814 4
9 6 5 347.485 142.774 12
-6 -9 -5 343.619 119.437 16
6 -9 5 281.164 148.836 7
-9 6 -5 421.526 167.716 3
6 -9 5 280.333 137.53 10
6 -9 5 395.616 139.905 2
9 -5 6 60.9559 119.888 2
-9 6 -5 296.087 109.987 8
-6 -9 -5 85.9335 74.7086 8
9 6 5 435.37 136.762 2
-6 -9 -5 379.461 143.13 9
-9 6 -5 195.923 134.937 1
9 6 5 220.303 124.238 5
6 -9 5 283.032 138.141 15
-9 6 -5 306.15 143.921 6
-6 -9 -5 163.707 115.825 15
-9 -7 -6 193.274 157.413 8
7 9 6 128.88 109.706 12
9 -7 6 51.4565 134.809 2
9 -7 6 331.927 146.387 7
-7 9 -6 70.4522 97.3193 6
-9 -7 -6 255.079 147.954 9
-9 -7 -4 1290.29 213.202 16
9 -7 4 1048.05 201.335 10
-7 9 -4 1291.74 249.973 6
-9 -7 -4 1108.09 196.322 1
-9 -7 -4 1078.94 239.328 8
7 9 4 1080.38 233.163 5
-9 -7 -4 1317.62 269.121 9
7 9 4 1264.9 182.336 2
-7 9 -4 944.904 156.608 8
9 -7 4 1358.88 246.079 4
-7 9 -4 1071.14 214.927 3
9 -7 4 846.524 200.28 2
-7 9 -4 971.656 203.425 1
9 -7 4 1076.66 226.049 7
-9 -7 -4 981.194 197.259 15
-7 9 -4 1254.62 254.853 11
-9 -7 -2 545.642 130.835 3
-7 9 -2 777.852 169.645 3
7 9 2 500.61 182.109 13
-9 -7 -2 602.544 144.155 1
7 9 2 504.564 161.223 12
-9 7 2 784.165 217.796 3
9 -7 2 458.865 91.2473 15
-7 9 -2 787.16 198.875 11
-9 -7 -2 540.38 143.508 15
7 -9 -2 444.997 198 7
-7 -9 2 577.725 132.47 10
-9 7 2 483.429 171.859 6
-9 -7 -2 500.202 172.15 9
9 -7 2 689.816 149.71 10
-7 -9 2 479.788 192.059 15
7 -9 -2 812.23 204.39 10
9 -7 2 530.457 121.918 5
-7 9 -2 445.96 134.229 6
7 9 2 522.285 99.2667 2
7 -9 -2 357.059 195.452 2
-7 -9 2 773.737 176.141 3
-7 9 -2 676.099 159.004 1
7 9 2 861.862 153.628 4
-9 -7 -2 685.587 140.846 16
-9 7 2 634.066 255.501 1
9 -7 2 427.086 141.721 4
-7 -9 2 588.948 240.863 8
-7 -9 2 692.073 181.363 16
9 -7 2 487.698 117.439 7
9 -7 2 704.369 178.606 2
-9 -7 -2 793.254 184.751 8
-7 -9 2 626.632 180.855 9
-7 9 -2 682.944 162.993 14
9 -7 0 2207.43 326.57 7
-9 7 0 2361.02 319.813 6
-7 9 0 2251.82 313.858 6
-9 7 0 2166.04 279.797 3
-7 -9 0 2460.77 237.843 10
-7 9 0 2659.5 271.416 13
-9 -7 0 2155.94 260.351 16
7 -9 0 2467.71 297.846 10
-7 9 0 2487.71 328.683 1
-9 -7 0 2289.28 323.641 8
-7 -9 0 2750.16 337.602 8
9 -7 0 1681.57 276.999 2
-7 -9 0 2101.87 291.352 16
-9 -7 0 1898.57 254.172 15
7 -9 0 2266.84 329.906 7
-9 -7 0 2339.74 250.566 3
-7 -9 0 2701.23 309.947 15
9 -7 0 2359.6 286.062 10
7 -9 2 710.538 177.816 4
-7 -9 -2 574.694 160.865 8
-7 -9 -2 642.556 125.946 3
-9 7 -2 591.346 160.887 6
9 -7 -2 630.15 170.555 10
-9 7 -2 614.829 157.634 11
7 -9 2 620.541 128.552 15
9 -7 -2 467.93 209.777 2
7 -9 2 846.736 192.593 10
-9 7 -2 643.324 151.466 3
-7 -9 -2 670.128 183.463 16
-7 -9 -2 522.117 126.241 10
-9 -7 2 583.028 168.824 3
7 -9 2 749.639 171.428 2
-7 -9 -2 652.4 201.87 9
-9 -7 2 607.771 213.306 9
-9 7 -2 670.268 176.212 1
-7 -9 -2 524.509 114.469 1
-9 -7 2 630.072 181.437 16
-9 -7 2 574.253 231.965 8
-7 9 2 329.747 127.223 6
9 -7 -2 979.009 280.767 4
-7 9 2 911.556 278.094 1
7 -9 2 542.45 156.178 7
9 7 2 724.214 191.722 12
9 7 2 725.038 158.741 2
-7 -9 -2 617.302 153.216 15
9 -7 -2 546.791 169.534 7
-7 9 2 350.795 135.982 3
-9 7 -2 383.1 100.75 14
-9 7 -4 1150 214.04 6
7 -9 4 894.712 209.51 7
-9 7 -4 994.834 201.734 1
-7 -9 -4 773.927 231.675 8
-7 -9 -4 977.861 205.384 16
7 -9 4 915.837 200.442 10
7 -9 4 1334.29 255.943 4
-7 -9 -4 988.226 224.26 9
-9 7 -4 961.344 193.223 3
9 7 4 331.414 132.055 4
9 7 4 902.285 216.192 13
9 7 4 1183.36 196.28 2
7 -9 4 1172.26 205.171 2
-7 -9 -4 1103.74 171.385 1
-9 7 -4 640.207 195.152 8
-7 -9 -4 1244.39 225.503 15
-7 -9 -6 138.19 120.256 9
9 7 6 153.647 136.045 5
-9 7 -6 30.13 105.943 1
9 7 6 138.919 139.298 12
7 -9 6 43.7745 95.7282 7
-9 7 -6 120.8 90.8607 6
-8 9 -5 538.584 172.466 6
8 9 5 225.874 137.385 12
-9 -8 -5 164.202 144.157 9
-8 9 -5 480.569 171.331 11
8 9 5 78.3402 88.0803 5
-9 -8 -5 365.58 156.959 8
-9 -8 -5 404.01 152.183 1
-8 9 -5 243.197 119.317 1
9 -8 5 445.947 157.307 10
8 9 5 598.638 170.255 2
9 -8 5 529.709 193.423 4
9 -8 5 421.496 149.363 2
-9 -8 -5 326.256 121.551 16
8 9 5 549.517 155.952 13
9 -8 5 216.99 86.8697 15
-8 9 -5 168.268 109.074 3
9 -8 5 361.611 130.234 7
8 -9 -3 259.249 161.248 4
-8 9 -3 22.0872 75.3792 3
-9 -8 -3 231.485 119.079 16
-8 -9 3 44.0381 73.6164 10
-8 9 -3 383.338 173.139 11
9 8 -3 239.036 127.066 4
-9 8 3 101.666 182.001 6
8 -9 -3 232.476 129.678 10
-9 -8 -3 83.9922 95.654 15
8 9 3 290.65 147.05 5
8 9 3 130.182 112.987 13
-9 8 3 233.664 196.781 3
-9 -8 -3 86.5472 108.053 9
8 -9 -3 257.323 146.366 7
8 -9 -3 29.3 92.709 16
-8 -9 3 59.8341 119.724 16
-8 -9 3 254.072 182.265 9
-8 -9 3 229.567 183.893 8
-8 9 -3 65.9165 75.0344 1
-8 9 -3 181.871 66.0467 8
-9 -8 -3 475.008 191.229 8
-8 9 -3 93.1479 91.0168 6
8 9 3 223.422 78.0515 2
8 9 3 65.7044 95.9818 12
-8 9 -3 214.863 105.258 14
-8 -9 3 134.51 170.459 15
-9 -8 -3 171.663 68.4995 3
-9 -8 -3 209.011 99.919 1
-9 -8 -1 993.372 174.228 3
8 9 1 887.413 148.496 11
-8 9 -1 913.489 182.394 3
-8 9 -1 783.205 178.309 6
-9 -8 -1 880.13 194.66 16
-9 -8 -1 831.543 164.727 1
-8 -9 1 920.781 150.946 10
8 -9 -1 820.29 247.401 2
-8 -9 1 950.827 165.439 3
-9 8 1 1063.47 218.834 3
-9 -8 -1 1002.81 227.253 9
8 -9 -1 933.026 200.452 10
9 -8 1 849.661 129.578 5
9 8 -1 615.337 292.571 2
-9 8 1 756.929 202.091 6
-8 -9 1 1016.01 213.798 16
-8 -9 1 980.118 236.587 9
-9 -8 -1 954.108 213.913 8
9 -8 1 842.137 139.56 15
8 -9 -1 880.032 247.733 7
-8 -9 1 635.61 202.33 8
-9 -8 -1 937.115 196.147 15
-9 8 1 1113.17 250.102 1
-8 9 -1 773.931 194.505 1
9 -8 1 656.385 183.83 2
9 -8 1 764.701 202.131 7
9 -8 1 817.169 197.066 4
-8 -9 1 980.553 223.775 15
8 -9 -1 1108.67 176.345 15
9 -8 1 1087.34 199.996 16
8 9 1 969.449 186.767 2
9 -8 1 977.437 193.032 10
-8 9 1 822.698 177.649 13
-9 8 -1 1105.82 202.372 3
-8 -9 -1 1006.49 150.802 3
9 8 1 1047.48 135.474 11
9 -8 -1 937.601 225.25 7
-9 -8 1 639.101 121.609 10
9 -8 -1 531.152 208.144 2
-8 9 1 880.262 219.992 6
-9 -8 1 637.035 149.992 16
-9 -8 1 1061.17 197.264 15
-9 -8 1 722.476 153.795 3
8 -9 1 710.294 180.856 10
-8 -9 -1 852.967 142.173 10
9 -8 -1 1068.99 208.251 10
8 -9 1 846.53 124.744 5
-8 -9 -1 957.219 154.796 1
8 -9 1 979.953 224.625 7
-9 8 -1 1245.07 250.193 6
-9 -8 1 725.09 216.994 8
8 -9 1 893.554 195.119 4
-8 -9 -1 725.808 172.528 15
-9 8 -1 953.362 152.429 13
-8 -9 -1 881.25 187.249 16
-9 -8 1 420.915 266.453 1
-9 -8 1 776.974 212.684 9
8 -9 1 889.251 157.196 15
8 -9 1 830.877 195.387 2
-8 -9 -1 722.173 165.024 8
-8 9 1 1222.43 224.615 3
8 9 -1 699.632 178.86 14
-9 8 -1 1020.97 166.791 14
9 8 3 274.277 113.396 2
9 8 3 63.8622 118.931 5
8 -9 3 151.69 130.302 16
-9 -8 3 40.8175 123.518 15
9 -8 -3 67.8602 114.866 7
-8 -9 -3 155.388 77.9674 1
9 8 3 124.64 113.486 13
9 -8 -3 115.952 263.976 4
9 -8 -3 99.708 105.169 10
-8 9 3 270.978 170.988 3
-8 -9 -3 375.703 146.981 16
-8 -9 -3 224.796 118.234 15
-9 -8 3 77.9773 172.906 3
-8 -9 -3 214.337 143.869 9
9 -8 -3 31.9774 232.083 2
8 -9 3 42.573 92.7697 2
-9 -8 3 75.9787 148.834 9
9 8 3 211.791 110.592 4
9 8 3 8.96511 124.055 12
8 9 -3 78.2368 70.6869 14
8 -9 3 248.834 116.496 4
-8 -9 -3 32.3517 86.3942 8
-9 -8 3 518.439 297.088 8
-8 9 3 345.832 203.883 6
8 -9 3 72.6891 88.9679 10
8 -9 3 20.3321 106.544 7
8 -9 3 254.952 100.144 15
-9 8 -5 359.651 167.931 6
-9 8 -5 536.398 175.738 1
9 8 5 373.886 122.784 12
8 -9 5 238.245 98.4667 10
9 8 5 375.473 160.646 5
-9 8 -5 566.026 170.913 3
-8 -9 -5 350.884 154.432 9
-8 -9 -5 204.721 125.182 16
-8 -9 -5 324.171 139.463 15
8 -9 5 368.129 141.275 4
-9 8 -5 321.342 134.861 8
9 8 5 245.536 78.9585 2
-8 -9 -5 145.233 117.198 8
8 -9 5 361.349 150.045 7
8 -9 5 399.32 128.253 2
-8 -9 -5 525.082 139.963 1
-9 8 -5 484.632 174.385 11
8 -9 5 386.269 159.117 15
-9 -9 0 2523.01 368.52 9
-9 9 -2 157.824 115.895 14
-9 9 -2 119.443 84.8224 3
-9 -9 2 286.17 101.886 10
-9 -9 2 38.6015 98.0663 16
-9 -9 -2 137.889 130.772 15
9 -9 2 188.289 146.436 10
-9 9 -2 70.2776 107.46 6
-9 9 2 406.343 240.703 1
-9 -9 2 109.25 131.075 3
-9 -9 -2 59.059 100.154 10
9 -9 2 287.379 184.223 7
-9 9 2 240.285 163.692 3
9 9 -2 365.751 175.622 5
-9 -9 -2 81.1104 99.5681 9
9 -9 2 150.277 135.678 2
-9 -9 2 338.257 187.92 9
9 9 2 123.729 82.3823 4
-9 9 -2 26.4132 91.9782 1
-9 -9 -2 46.2985 101.244 8
-9 9 -2 151.473 83.4516 8
9 -9 2 117.184 104.594 4
-9 9 -2 87.5096 101.907 11
9 -9 -2 18.9792 152.068 7
-9 -9 2 59.9309 147.554 8
9 -9 -2 379.173 158.78 10
-9 -9 -2 133.127 94.7011 1
9 -9 -2 340.743 223.583 4
9 9 -2 143.885 104.105 4
-9 -9 2 8.54361 102.367 15
9 -9 -2 30.8405 101.861 16
-9 9 2 79.727 142.468 6
9 -9 2 310.273 178.306 16
9 9 2 226.547 157.488 12
9 -9 2 188.188 93.2551 15
9 -9 -2 498.768 338.252 2
9 9 2 191.926 104.667 2
-9 -9 -2 206.762 134.533 16
9 9 -2 82.6276 95.9577 14
9 9 2 459.383 219.766 13
9 9 2 111.497 101.823 5
9 9 4 87.529 126.134 13
9 -9 4 327.981 107.063 15
-9 9 -4 222.324 114.501 11
-9 9 -4 417.29 167.668 3
-9 -9 -4 102.609 115.184 16
-9 9 -4 42.1765 125.539 6
9 9 4 1.60624 73.1326 5
9 -9 4 0.22721 111.967 10
9 -9 4 333.412 140.111 7
-9 -9 -4 153.243 144.781 9
-9 -9 -4 258.129 109.91 15
-9 9 -4 89.2395 123.202 1
-9 -9 4 209.013 148.55 9
9 -9 4 374.13 146.301 4
-9 9 -4 127.241 83.8479 8
-9 -9 -4 333.006 125.342 8
9 9 4 236.143 139.554 12
9 9 4 132.658 94.5858 2
9 -9 4 198.023 101.204 2
-9 -9 4 79.1567 148.237 15
-9 -9 -4 235.534 88.0261 1
9 -9 -4 186.749 160.472 7
-9 9 -6 102.093 110.522 6
9 -9 6 163.596 125.532 10
-9 -9 -6 300.995 192.2 8
-9 9 -6 82.4407 125.703 1
9 -9 6 125.369 84.2886 2
9 9 6 64.6876 106.782 12
9 -9 6 76.7599 128.476 7
10 0 0 1937.7 291.014 2
-10 0 0 1627.49 223.233 6
0 -10 0 2349.18 295.157 10
-10 0 0 1685.93 265.191 1
0 -10 0 2157.33 244.085 7
-10 0 0 1919.27 273.371 3
0 -10 0 2334.31 280.637 9
0 -10 0 2260.32 264.693 15
-10 0 0 1652.79 230.365 9
-10 0 0 2033.1 296.522 8
10 0 0 2446.8 297.772 7
0 10 0 1993.81 220.755 6
1 10 1 2330.46 218.413 6
-10 1 1 1556.95 227.312 9
-1 10 1 2124.17 246.896 12
1 -10 1 2103.61 268.913 10
1 -10 1 2427.16 251.683 7
1 10 -1 2155.7 218.051 6
10 -1 -1 1818.72 329.875 2
-10 -1 -1 1702.4 229.583 3
1 10 -1 1940.88 253.192 11
-1 10 -1 1899.6 267.49 11
10 1 -1 1993.19 344.549 2
-1 10 1 1618.65 209.052 6
1 -10 -1 2038.42 274.019 10
-10 -1 -1 2061.53 231.061 6
-1 -10 -1 1890.82 257.955 15
-10 1 -1 2027.7 239.327 6
-1 -10 1 1910.54 257.419 10
-10 -1 1 1724.52 276.844 3
-1 -10 -1 1819.36 256.881 10
1 -10 -1 2103.55 285.361 7
-10 -1 -1 2565.52 274.231 9
-1 -10 1 2032.37 271.063 15
-10 1 -1 2004.93 217.786 9
-10 -1 1 1504.59 257.782 1
-10 1 1 1833.39 269.639 6
10 -1 -1 1794.45 294.385 7
-10 -1 1 1927.84 275.94 9
-1 -10 -1 2225.89 264.646 7
10 -1 1 1804.16 269.168 2
-10 1 1 1720.05 293.151 3
-10 1 -1 2114.67 290.498 1
-10 -1 1 1890.13 239.003 6
-10 1 -1 1969.58 261.313 8
-10 1 1 1966.34 303.025 8
-10 1 -1 2028.97 175.586 11
-10 1 1 1469.33 255.535 1
-10 -1 -1 1933.05 276.509 8
-1 -10 1 2061.01 217.059 7
1 10 1 1818.07 250.116 12
-10 -1 -1 2108.02 285.977 1
1 -10 -1 2039.4 251.466 15
10 -1 1 1932.48 252.903 7
10 1 1 1570.13 287.594 2
1 -10 1 1897.53 261.193 15
-10 1 -1 2123.63 279.286 3
10 1 -1 2014.19 323.693 7
10 1 1 1688.26 223.651 7
-1 10 -1 2055.11 237.712 6
-1 -10 1 1911.66 280.576 16
-10 -1 1 1882.39 312.181 8
-1 -10 -1 1812.91 254.375 16
1 10 1 2298.84 212.97 5
0 10 2 5327.84 416.382 12
-2 10 0 5170.22 342.659 12
0 -10 2 4372.93 383.357 10
2 -10 0 5464.32 438.233 10
0 -10 -2 4645.88 461.957 7
10 -2 0 4631.76 311.19 10
-2 -10 0 5310.33 415.9 10
0 10 -2 5327.68 383.65 6
-2 -10 0 4965.38 427.669 15
0 -10 -2 4611.63 365.557 9
-10 0 -2 5797.09 372.413 9
2 -10 0 5292.67 413.899 7
-10 -2 0 5686.16 434.2 9
10 0 2 6017.14 453.878 2
0 10 2 5688.78 404.674 6
2 -10 0 5341.73 267.538 4
10 2 0 4747.98 465.529 2
-10 0 -2 4954.95 421.3 8
-10 -2 0 5421.92 478.792 8
-10 2 0 5121.56 435.933 8
-10 0 2 5446.9 550.063 8
0 -10 -2 4677.76 406.635 15
-10 2 0 4789.2 434.609 1
-10 -2 0 4720.13 441.009 1
2 10 0 4530.99 280.314 5
10 -2 0 4967.08 437.674 7
0 -10 -2 5488.92 447.788 10
0 -10 2 5301.39 358.253 7
10 0 2 5614.17 381.838 7
-2 -10 0 5819.54 347.43 7
0 -10 2 6451.43 501.862 16
-10 0 2 5051.83 531.224 3
-10 0 -2 5573.1 384.787 6
-10 0 -2 5688.86 441.05 3
2 -10 0 4734.29 401.941 15
-10 -2 0 5057.06 422.099 3
-10 2 0 5335.46 453.249 3
-10 2 0 4881.68 415.052 6
-10 0 -2 4362.48 425.33 1
-10 -2 0 4786.63 338.963 6
2 10 0 5423.9 315.616 6
0 10 -2 5454.1 474.564 14
-2 10 0 5685.48 398.623 6
0 10 -2 5150.73 431.099 11
0 -10 2 5403.57 440.39 15
10 2 2 380.596 87.7203 13
-2 10 -2 231.858 96.4101 6
2 -10 2 393.891 132.342 7
10 2 2 296.264 122.103 12
10 2 2 485.979 141.195 7
-10 2 -2 337.202 87.0064 9
-2 10 -2 413.194 128.62 11
2 10 2 380.564 110.305 6
-2 10 2 359.812 120.267 6
-2 -10 2 200.331 96.5811 10
10 -2 2 228.281 57.8354 10
10 -2 -2 201.584 151.926 2
-10 2 2 130.288 118.416 3
-10 -2 2 331.371 148.546 3
-2 10 2 337.598 116.22 3
-10 2 2 67.5758 144.3 1
10 -2 2 300.594 131.343 2
10 2 2 496.915 165.757 5
10 -2 -2 320.883 194.573 7
-2 10 2 217.946 91.1099 12
-2 -10 -2 343.202 129.85 9
-10 -2 -2 163.72 86.5342 9
2 -10 2 435.141 149.793 10
2 -10 -2 324.237 118.7 10
-10 2 -2 237.838 122.432 1
-10 -2 -2 234.857 118.488 1
-10 -2 2 172.787 106.674 9
2 -10 -2 276.523 181.618 7
-2 -10 -2 285.43 83.8654 8
-2 -10 2 185.208 91.9286 16
10 2 -2 352.096 275.739 2
2 -10 -2 341.904 107.359 4
-10 -2 -2 302.311 131.543 8
-10 2 -2 305.878 112.606 8
10 2 2 247.11 117.196 4
-2 -10 -2 230.541 114.341 16
10 -2 -2 479.707 293.005 4
-10 -2 2 338.546 146.661 8
-10 2 2 437.801 180.092 8
2 -10 -2 268.356 89.5601 15
-10 2 -2 322.614 133.44 3
-10 -2 2 279.919 151.654 1
10 -2 2 235.739 119.324 7
10 2 2 427.534 136.72 2
-2 -10 -2 453.762 152.262 15
-2 -10 2 157.41 115.722 15
2 -10 2 145.476 87.6053 15
10 2 -2 373.878 254.12 4
-10 2 -2 258.706 84.2146 11
2 10 2 165.238 76.266 5
-10 2 -2 307.803 120.153 6
2 10 -2 364.517 139.741 14
-2 10 -2 153.977 85.7051 14
2 10 2 180.186 81.5006 12
-1 10 3 1893.45 280.401 13
-10 -3 -1 2421.17 210.886 16
3 -10 -1 2243.38 306.526 7
-10 -3 -1 2015.26 189.106 15
1 10 -3 1929.4 273.26 11
-3 10 -1 1632.17 258.716 11
10 -3 1 2203.83 217.158 10
-10 3 1 1978.95 313.021 3
-10 3 1 2224.87 304.645 6
-10 3 1 1716.4 294.324 1
-10 1 -3 2047.64 281.42 1
3 10 1 2082.69 219.408 5
-10 -3 -1 2379.56 277.177 3
3 10 1 2326.4 186.913 6
3 -10 -1 2012.44 278.204 10
-10 1 -3 2392.99 276.152 6
-10 1 -3 2472.97 241.88 9
-10 -3 -1 2283.23 280.812 9
10 1 3 1777.61 262.159 5
10 1 3 2277.5 243.652 7
-1 -10 -3 1939.08 246.682 9
10 -1 -3 1885.14 509.895 2
10 1 3 2238.89 290.728 4
3 -10 -1 2269.19 207.049 4
-1 -10 -3 1955.9 217.746 8
-3 -10 1 2138.28 253.284 10
-1 -10 -3 2232.99 291.14 10
1 -10 3 2386.52 304.501 15
-10 1 -3 2094.88 277.249 8
-10 -3 -1 1881.36 309.911 8
-3 -10 1 1975.38 283.528 15
-1 -10 -3 2191.28 287.671 15
-10 -1 3 2053.81 373.524 8
1 -10 3 2153.22 249.148 7
1 -10 3 2200.61 275.543 10
10 1 3 2248.03 276.907 2
-3 -10 1 2341.52 301.036 16
-1 -10 -3 2279.33 296.357 16
-10 -1 3 1972.93 392.06 1
3 -10 -1 2116.86 268.353 15
-10 -3 -1 2283.13 206.438 6
-3 10 -1 2113.61 205.513 3
-10 -3 -1 2124.94 277.433 1
-10 1 -3 2163.71 287.397 3
10 -3 1 1560.4 252.455 7
-3 10 -1 1946.05 270.19 6
10 -3 1 2052.62 296.794 2
-3 10 1 2310.93 243.081 12
1 10 3 1846.02 264.582 12
-3 -10 -1 2259.84 280.064 16
-10 -3 1 1833.22 251.062 6
-10 3 -1 2164.18 231.549 11
-1 10 -3 2171.85 296.942 11
3 10 -1 1747.9 236 11
-3 10 1 2332.6 284.064 6
-3 -10 -1 1919.99 260.453 15
-3 -10 -1 2072.58 277.85 9
3 -10 1 2136.77 273.825 10
-10 -3 1 1586.31 253.936 3
-10 -3 1 1809.22 290.942 1
-10 -1 -3 2416.71 278.179 9
1 -10 -3 1773.85 222.242 9
-10 1 3 355.4 344.91 3
10 3 1 2156.78 293.115 2
3 10 -1 1994.8 305.293 14
-10 -3 1 2090.35 289.224 9
3 -10 1 2244.25 216.881 4
3 -10 1 2161.2 212.831 2
10 -1 3 2224.7 287.322 4
-3 -10 -1 2254.72 269.694 10
-10 -1 -3 2619.31 322.054 8
-10 3 -1 2203.33 284.17 3
-10 3 -1 2241.8 275.787 8
-10 -3 1 1844.09 301.727 8
1 -10 -3 2188.44 297.704 10
10 -1 3 1967.37 249.97 7
3 -10 1 2020.51 259.663 7
10 3 1 2292.63 227.655 7
10 -1 3 2279.2 292.585 2
-10 -1 -3 2224.44 284.94 3
-10 1 3 1826.28 388.65 1
10 -1 3 2325.8 246.568 12
-10 -1 -3 2474.7 258.662 6
-1 -10 3 2362.33 325.285 15
3 -10 1 2029.99 253.511 15
1 -10 -3 2184.82 281.903 15
-3 10 1 2168.11 201.227 3
-10 3 -1 2028.09 286.898 1
-10 -1 -3 2202.42 276.93 1
3 10 -1 2055.26 218.93 6
10 3 1 2263.05 214.469 14
-1 10 -3 2155.57 271.177 6
10 -3 -1 1780.26 325.955 2
-10 3 -1 2129.02 275.886 6
-3 10 -3 4780.23 444.443 11
-3 -10 3 2896.55 344.16 10
3 -10 3 4595.99 414.124 10
10 -3 3 4743.48 310.304 10
-3 -10 -3 4418.68 413.296 10
3 10 3 4873.68 442.166 12
10 -3 3 4163.03 378.913 5
10 -3 3 5488.9 443.126 2
3 -10 -3 4851.28 339.909 9
-3 -10 -3 5040.77 431.143 9
-10 3 -3 4401.36 295.928 9
-10 -3 -3 4959.33 419.71 9
-10 3 -3 4968.1 373.557 11
3 -10 -3 5063.38 423.966 15
-10 3 3 3839.09 538.726 3
3 -10 3 5296.03 325.907 2
10 3 3 4928.05 406.067 2
-3 10 -3 5324.19 346.15 1
10 3 3 5498.07 437.783 4
10 -3 3 5058.17 440.859 4
-10 3 -3 5003.36 414.112 8
-10 -3 -3 5495.53 459.818 8
-10 -3 -3 4591.75 415.855 1
-10 3 -3 4732.74 430.095 1
-3 -10 -3 4735.33 422.107 16
-3 10 -3 4512.67 403.055 6
-10 -3 3 3336.94 467.066 8
3 -10 3 4900.58 395.069 7
10 3 3 5844.63 343.78 7
10 -3 3 4947.4 405.177 7
-10 -3 -3 5120.56 318.282 16
-3 -10 3 4936.78 482.207 16
-10 -3 -3 4992.1 413.539 3
-10 3 -3 4537.3 404.918 6
-10 3 -3 5447.99 446.66 3
3 -10 3 4507.55 395.73 15
-3 -10 -3 5423.76 459.028 15
-10 -3 3 2053.39 472.976 3
3 -10 -3 5040.44 468.904 10
-3 10 3 4803 446.318 13
-2 10 4 1058.32 241.381 13
-10 2 -4 1020.13 250.43 1
-10 -4 -2 982.546 151.685 15
-10 -4 -2 1206.44 152.945 6
-10 2 -4 1217.41 218.594 6
2 -10 4 1119.44 189.806 7
-4 10 -2 957.696 200.594 11
4 -10 -2 1059.64 269.315 7
10 2 4 998.458 180.499 7
-4 10 -2 1135.83 170.276 1
-4 10 -2 982.201 207.574 14
4 -10 -2 1271.65 250.601 10
-10 4 2 625.6 215.803 3
-2 -10 -4 878.194 187.298 9
-10 2 -4 1046.94 167.645 9
10 -4 2 925.828 177.689 5
-4 -10 2 1244.26 262.47 9
-10 -4 -2 1212.32 207.108 1
-10 2 -4 622.695 194.555 8
10 2 4 1056.29 210.019 4
-10 -4 -2 1429.49 221.02 3
-10 -4 -2 706.411 173.074 8
10 2 4 1105.82 213.312 5
10 -4 2 1267.27 235.111 4
10 2 4 1501.96 246.929 2
-4 -10 2 1231.93 246.205 15
10 -4 2 1181.74 178.604 10
2 -10 4 1475.74 233.779 10
10 4 -2 1155.57 361.985 2
-10 -4 -2 1051.64 156.939 16
-4 -10 2 1196.98 238.561 16
-4 10 -2 1210.5 181.714 3
10 -4 2 1224.97 220.518 7
10 -4 2 1086.72 208.054 2
-10 4 2 914.96 234.916 6
2 -10 4 1198.6 230.38 15
4 -10 -2 1368.04 218.075 15
4 10 2 842.195 160.389 5
-10 2 -4 1111.99 230.321 3
4 -10 0 2059.31 286.714 7
10 0 4 1773.53 241.505 12
-4 10 0 2070.65 204.767 12
-10 -4 0 1685.73 285.209 8
4 10 0 2077.19 250.169 11
10 0 4 2156.82 292.586 2
-4 10 0 2034.7 268.45 6
-10 4 0 1853.06 272.187 6
-4 -10 0 2182.4 255.172 10
-10 4 0 1977.65 303.334 1
10 -4 0 2333.09 249.806 10
10 -4 0 1731.15 293.406 2
0 -10 4 1791.81 314.488 16
10 4 0 1807.95 271.17 2
4 -10 0 2021.99 275.111 2
0 10 4 1618.56 271.795 13
10 0 4 2091.73 293.865 5
0 -10 -4 1582.35 273.576 10
-10 0 -4 2129.38 263.501 9
0 10 -4 2257.77 325.147 11
0 -10 -4 1335.99 255.045 9
-10 -4 0 1558.61 257.72 1
0 -10 4 2121.48 289.574 10
-4 -10 0 1902.68 280.135 9
-10 -4 0 2123.8 289.564 9
-10 0 -4 2816.81 338.395 1
4 -10 0 1977.01 211.651 4
-10 0 -4 1884.4 277.133 8
10 0 4 2185.94 306.764 4
-10 -4 0 2143.05 193.052 6
-4 -10 0 2046.18 284.548 8
-10 4 0 1914.34 282.261 8
-4 -10 0 1754.79 268.531 16
10 0 4 2190.46 261.588 7
-10 -4 0 1879.4 225.707 16
4 -10 0 2211.24 292.888 10
-4 10 0 2233.78 219.405 3
-10 -4 0 2263.41 230.223 15
0 -10 4 1553.82 234.252 7
4 -10 0 2170.75 260.559 15
-10 -4 0 2209.23 280.438 3
-10 4 0 2716.79 349.438 3
0 -10 -4 1989.22 297.614 15
10 -4 0 1741.25 274.64 7
-4 -10 0 1948.06 279.328 15
10 4 0 2328.45 238.176 14
-10 0 -4 1953.88 256.887 6
-10 0 -4 2260.45 293.63 3
-4 10 2 1193.28 219.627 13
2 10 4 1271.91 237.118 12
-10 4 -2 1272.75 217.854 6
-10 4 -2 1050.54 205.58 3
4 -10 2 1185.87 161.089 2
-2 -10 4 628.521 245.91 16
-10 -2 -4 1030.29 203.83 3
4 -10 2 1249.6 202.783 7
-2 -10 4 733.103 186.352 10
10 -2 4 1097.32 150.865 10
-4 10 2 989.73 212.639 6
-10 -2 -4 1021.37 199.872 9
-4 -10 -2 803.879 186.697 16
4 -10 2 1232.05 218.5 10
10 -4 -2 1054.76 334.77 2
-4 -10 -2 1050.42 197.714 15
-10 4 -2 1126.94 170.397 11
-4 -10 -2 1082.94 197.037 10
10 -2 4 1099.86 221.427 5
-4 10 2 1285.25 218.319 3
-10 -4 2 1144.02 280.954 1
-10 -4 2 1172.91 262.973 3
-4 -10 -2 1081.77 214.212 9
-10 -4 2 1134.36 246.016 9
-10 4 -2 1240.22 259.19 1
4 -10 2 1377.23 196.346 4
2 -10 -4 452.441 218.774 10
-10 -2 -4 1424.91 265.483 8
10 -2 4 1326.29 235.363 4
4 10 -2 1098.19 198.654 11
-4 -10 -2 1096.96 175.723 8
-10 4 -2 1213.38 209.443 8
10 -2 4 1117.9 198.061 7
10 -2 4 1321.41 243.99 2
-10 -4 2 1243.14 270.696 8
-10 -2 -4 1239.2 146.071 16
-2 10 -4 983.657 194.913 6
2 -10 -4 1087.71 200.183 15
4 10 -2 1246.59 229.535 14
10 4 2 1070.02 189.323 2
-10 -4 2 928.338 171.335 15
-2 -10 4 806.219 216.855 15
10 -4 -2 1137.35 279.131 7
-10 -2 -4 1337.01 237.942 1
4 -10 4 159.516 123.9 15
4 10 4 18.7595 98.271 13
4 -10 4 150.641 143.633 16
-10 -4 -4 87.7479 87.8641 8
-4 10 -4 43.9592 67.3892 6
-10 4 -4 17.9598 96.8927 1
4 10 4 39.8135 94.9941 12
-10 4 -4 53.8308 107.671 6
-4 -10 -4 37.6663 104.141 16
10 4 4 16.9406 98.1984 12
-4 -10 4 51.895 129.202 16
10 4 4 93.7965 67.3048 7
-4 10 -4 21.3005 99.6331 11
10 -4 4 49.5526 91.3997 5
4 -10 -4 167.809 136.841 10
-4 -10 -4 93.8436 107.751 9
-10 -4 -4 83.0529 95.9179 9
4 -10 4 19.9708 92.8626 10
10 -4 4 99.3197 85.0815 7
4 -10 4 18.2801 58.3271 2
-4 -10 -4 60.2882 89.8268 8
10 4 4 11.2459 82.3039 4
-10 4 -4 181.832 86.6557 8
10 -4 4 96.15 118.992 4
-4 10 -4 144.371 140.79 14
10 4 4 62.4103 98.0484 2
-4 10 -4 21.637 63.6441 1
10 -4 4 70.3188 114.486 2
4 -10 4 7.91373 65.6431 7
4 -10 -4 11.4879 76.9719 16
-10 -4 -4 47.6367 55.0505 16
-4 -10 4 95.4775 149.589 15
-4 -10 -4 70.3942 99.0851 15
-10 -4 -4 100.324 72.5457 1
-10 -4 -4 9.59124 71.6293 3
4 10 -4 51.4515 73.5281 14
-10 4 -4 94.9413 118.803 3
-5 10 -3 867.453 178.919 1
-5 -10 3 1020.95 200.345 10
10 3 5 571.858 146.033 7
10 -5 3 1186.92 220.877 2
3 -10 5 1192.07 244.491 10
10 -5 3 1228.64 180.323 10
5 10 3 852.993 214.943 13
-10 -5 -3 1061.21 196.07 1
-10 5 3 1178.03 345.958 1
5 10 3 1031.89 190.09 5
10 3 5 1107.03 237.19 5
5 10 3 1124.05 227.611 12
5 -10 -3 1230.28 246.023 10
10 -5 3 1158.8 199.731 5
-3 -10 -5 1038.08 233.882 9
-10 3 -5 1209.39 244.727 1
-5 10 -3 976.113 199.685 6
-10 5 3 950.521 276.186 3
-10 -5 -3 994.797 219.672 9
-3 -10 -5 1045.22 227.125 16
10 3 5 1530.14 278.351 4
10 3 5 1274.05 266.99 2
-10 3 -5 832.766 203.791 3
-10 -5 -3 907.786 206.761 8
10 -5 3 1214.34 236.624 7
-5 -10 3 1005.5 230.871 16
-5 10 -3 1111.36 230.524 11
-10 -5 -3 1265.29 216.005 3
5 -10 -3 610.177 192.567 16
3 -10 5 960.192 185.859 7
-10 -5 -3 1138.21 184.113 16
10 5 -3 1489.36 426.915 4
-10 3 -5 1041.96 242.666 8
-5 -10 3 940.984 229.932 15
10 -5 3 1267.69 240.501 4
-10 3 -5 1190.9 238.763 6
-5 10 -3 996.38 167.745 3
-10 -5 -3 1235.1 200.283 15
5 -10 -3 1079.69 204.026 15
-3 -10 -5 974.286 230.125 15
-5 10 -3 984.779 218.654 14
-5 10 -1 125.499 97.5931 6
-10 1 -5 66.4902 83.5309 3
5 -10 -1 191.544 99.7266 16
10 -5 1 95.3412 84.5796 5
-10 5 1 87.5061 116.401 6
10 5 -1 240.775 182.219 2
-5 -10 1 18.6408 66.1344 10
-10 5 1 145.73 167.838 3
-10 -5 -1 21.9038 92.2629 1
5 -10 -1 363.9 217.907 2
-10 -5 -1 116.059 59.2926 16
5 -10 -1 105.37 101.343 10
-5 -10 1 192.211 98.1239 16
10 1 5 299.065 136.558 7
-10 -5 -1 256.362 131.816 9
-5 -10 1 299.084 148.516 9
-10 1 -5 0.94561 97.2768 1
10 1 5 112.173 84.5999 4
-10 1 -5 195.738 128.032 8
-10 5 1 23.515 128.075 1
10 1 5 4.55167 95.0458 2
-10 -5 -1 165.926 145.007 8
-5 10 -1 208.446 99.9838 1
10 -5 1 94.1543 69.2497 10
-5 -10 1 102.952 104.522 8
10 -5 1 357.611 149.107 4
-10 5 1 12.8978 100.812 8
5 -10 -1 240.611 106.386 4
10 5 -1 146.782 105.884 4
-5 -10 1 165.385 120.142 15
5 10 1 6.86405 54.0027 5
-10 -5 -1 150.109 99.1158 3
10 5 -1 21.464 106.641 5
-10 -5 -1 154.075 79.4733 15
10 1 5 232.11 130.731 5
5 -10 -1 189.593 97.9953 15
-5 10 -1 122.197 64.5916 3
-10 -5 -1 137.716 53.4182 6
10 -5 1 231.363 129.659 2
10 5 -1 162.414 82.1635 14
5 -10 -1 106.032 111.986 7
5 -10 1 78.04 92.1701 15
-10 5 -1 111.442 116.699 6
-10 5 -1 99.7621 98.9318 3
5 10 -1 141.305 79.9436 11
-10 -5 1 67.9099 109.603 1
10 -5 -1 203.643 151.846 2
-10 -1 -5 187.168 99.6239 3
5 -10 1 174.567 127.168 16
-5 10 1 206.551 147.323 6
10 5 1 27.5271 87.1455 2
5 -10 1 95.4483 119.606 10
-5 10 1 39.7794 90.7696 13
-5 -10 -1 188.722 111.883 10
5 -10 1 97.4501 93.2578 2
10 -1 5 55.5208 87.4259 5
-5 10 1 260.659 148.353 1
10 -5 -1 227.994 111.306 10
-10 -1 -5 187.293 109.666 9
10 5 1 144.526 109.45 5
-10 -5 1 51.5865 65.5899 6
-5 -10 -1 162.92 92.385 9
10 -5 -1 279.239 146.186 5
-10 -5 1 93.3471 106.066 9
5 10 -1 268.182 143.117 14
10 -1 5 184.586 108.037 4
-10 -1 -5 209.533 143.378 8
10 -1 5 91.3677 116.49 2
-10 5 -1 24.6913 81.9456 1
-10 -5 1 14.2136 80.8745 16
-5 -10 -1 52.8731 97.9006 8
5 -10 1 134.984 73.5552 4
-10 5 -1 168.602 105.416 8
-10 -5 1 20.6389 99.5711 8
-10 -1 -5 294.801 134.917 1
10 5 1 4.98583 74.768 4
10 -5 -1 382.261 206.127 4
10 -1 5 123.295 60.4498 7
-5 -10 -1 123.437 86.1555 16
-10 -5 1 115.006 111.777 15
5 -10 1 290.582 132.756 7
5 10 -1 346.118 127.78 5
-10 -5 1 134.593 98.5045 3
10 -5 -1 48.5017 116.34 7
-5 -10 -1 32.6393 90.8438 15
-5 10 1 113.99 69.2253 3
3 10 5 781.019 203.146 13
-10 -3 -5 1383.76 255.928 1
-10 5 -3 1057.38 214.471 6
-10 5 -3 1189.05 204.773 11
-10 -5 3 1365.4 276.151 9
10 -3 5 969.298 169.394 10
5 -10 3 880.373 192.825 10
10 -3 5 816.34 192.315 5
-5 -10 -3 938.753 205.273 15
-5 -10 -3 874.413 170.913 10
-10 -3 -5 1093.42 240.939 9
-5 10 3 1502.01 351.329 3
-10 -5 3 790.973 221.767 3
-5 -10 -3 882.473 178.872 9
10 -5 -3 625.567 291.725 2
-5 -10 -3 1042.37 208.099 16
10 -3 5 894.995 191.961 7
5 -10 3 1528.43 263.768 4
10 -3 5 965.309 231.88 4
-10 -3 -5 1033.45 268.412 8
-10 5 -3 1107.76 237.415 1
-5 -10 -3 816.595 142.722 8
-10 5 -3 739.185 169.501 8
10 5 3 1079.39 193.33 4
10 -3 5 1142.47 253.938 2
-10 -3 -5 780.686 215.516 3
5 -10 3 1009.54 156.083 2
-10 -5 3 908.76 284.137 8
-10 5 -3 984.846 198.294 3
5 -10 3 1194.18 215.07 7
5 -10 3 1016.58 179.364 15
10 5 3 1399.6 215.317 2
-5 10 3 1017.28 230.661 13
5 10 5 957.386 223.754 13
-5 10 -5 1124.04 239.343 6
-10 5 -5 1108.44 215.786 6
5 10 5 1005.14 224.488 12
-10 -5 -5 1079.26 221.721 1
10 -5 5 917.158 181.845 10
-10 -5 -5 689.268 192.495 9
10 5 5 457.419 165.328 4
5 -10 5 542.423 137.292 2
-5 -10 -5 951.323 214.036 8
-10 5 -5 1183.08 225.85 8
10 -5 5 865.788 203.848 4
-10 -5 -5 1076.78 256.173 8
10 5 5 1055.65 216.363 2
10 -5 5 1560.59 264.367 2
-10 5 -5 1123.63 233.48 3
-10 -5 -5 1285.67 214.362 16
-5 -10 -5 867.888 206.392 16
5 -10 5 1095.06 215.412 7
10 -5 5 925.583 206.897 7
-10 5 -5 1101.88 246.025 1
-5 -10 -5 1191.51 242.212 15
-10 -6 -4 1473.17 231.183 1
6 10 4 907.946 208.889 12
-6 10 -4 1039.46 225.765 11
-6 10 -4 1137.5 203.239 1
-10 -6 -4 1322.75 197.535 16
10 -6 4 1580 272.033 7
10 4 6 1105.33 262.582 5
6 10 4 1500.43 266.267 5
6 -10 -4 556.754 243.308 10
-10 -6 -4 1538.68 263.119 9
-6 -10 4 1226.11 329.289 9
6 10 4 783.088 164.272 2
10 4 6 484.798 156.409 2
-10 -6 -4 1173.18 251.057 8
10 -6 4 1149 219.734 4
10 -6 4 1148.58 230.97 2
-10 4 -6 725.255 200.327 1
-6 -10 4 1141.67 251.972 16
10 -6 4 1148.41 214.783 5
10 -6 4 780.578 154.198 10
-10 4 -6 1147.59 256.359 3
-6 10 -4 1124.82 245.953 6
-10 -6 -4 982.585 196.021 15
-10 -6 -4 1188.42 207.677 3
-6 10 -2 3480.37 318.076 3
-10 6 2 3141.97 465.213 3
-6 10 -2 3010.49 361.4 11
-6 -10 2 3237.83 316.786 10
10 -6 2 3736.87 323.395 10
-6 10 -2 3045.8 340.51 14
6 -10 -2 2775.74 353.253 10
6 10 2 3162.14 335.62 5
10 -6 2 3133.63 300.945 5
10 2 6 1810.4 310.887 5
6 -10 -2 3572.36 339.385 15
-10 -6 -2 3842.58 401.152 9
-10 6 2 3390.56 482.139 1
-10 2 -6 3335.28 422.42 1
10 -6 2 3112.33 365.806 2
-10 -6 -2 3301.66 366.735 8
-6 10 -2 2946.81 310.27 1
-10 2 -6 2954.99 396.678 3
-10 -6 -2 3041.41 316.916 1
-6 -10 2 3506.12 486.482 8
10 -6 2 3343.9 370.963 7
-10 -6 -2 3098.81 302.164 16
-6 -10 2 3505.36 406.016 16
-10 -6 -2 3781.08 335.5 3
6 -10 -2 3462.72 448.993 7
-6 -10 2 3474.42 441.926 9
-10 -6 -2 2871.89 285.341 15
-6 -10 2 3052.84 275.706 3
-10 6 2 3148.67 441.821 6
-6 -10 2 3251.05 382.093 15
-6 10 -2 3316.21 356.285 6
-6 10 0 2419.08 280.297 13
-10 6 0 2606.3 335.981 6
-10 -6 0 2444.19 283.299 3
10 -6 0 2566.38 280.8 10
-6 -10 0 2874.67 282.672 10
6 -10 0 2263.67 316.397 10
-10 -6 0 2779.22 347.493 9
-6 -10 0 2328.05 321.35 16
-10 0 -6 2594.42 373.143 1
-6 -10 0 2545.34 316.423 15
-10 -6 0 2270.14 267.848 15
-6 10 0 2637.47 334.171 1
-10 -6 0 2154.4 332.283 8
-6 -10 0 2703.71 327.981 8
-10 6 0 2361.18 297.617 8
-10 -6 0 2689.23 290.435 16
-6 10 0 2489.44 270.363 3
10 -6 0 2493.32 342.061 2
6 10 0 2443.27 261.743 11
6 -10 0 2520.96 280.391 15
-10 6 0 3000.89 353.611 3
6 -10 0 2520.04 339.005 7
10 -6 0 2222.21 324.362 7
10 6 0 2840.07 306.363 14
-6 10 0 2656.17 327.685 6
-10 6 -2 3154.53 333.276 11
-6 -10 -2 2941.71 316.192 10
10 -6 -2 2900.59 319.758 10
-10 -6 2 2629.89 363.631 3
-6 10 2 3413.51 380.658 3
-6 -10 -2 3138.04 355.805 9
6 -10 2 3860.7 341.053 2
10 6 2 3509.16 327.306 2
6 -10 2 3586.42 330.866 4
-10 -6 2 3210.75 412.07 9
10 6 2 3363.42 344.411 4
-10 -2 -6 3308.43 440.921 8
10 -2 6 1902.7 336.707 4
-6 -10 -2 3427.07 340.79 8
-10 6 -2 3434.41 313.437 8
10 -2 6 1759.1 360.808 2
-10 6 -2 3425.23 381.056 1
-10 -6 2 2771.85 423.921 8
6 -10 2 2929.59 351.465 10
6 -10 2 3322.56 365.208 7
-6 -10 -2 3180.71 353.222 16
-10 6 -2 3919.81 380.051 3
-6 10 2 3413.79 431.869 6
-10 -6 2 2639.36 298.808 15
6 -10 2 3133.9 301.791 15
-6 -10 -2 3344.01 368.661 15
10 -6 -2 2935.33 424.729 7
6 10 -2 3451.9 399.247 14
-10 6 -2 3418.7 384.779 6
-6 10 2 3170.52 352.091 13
10 6 4 1053.84 232.302 13
-10 6 -4 1475.28 277.885 1
-10 6 -4 1224.41 231.668 11
6 -10 4 1330.43 231.408 10
10 -4 6 1103.63 236.607 7
10 6 4 950.305 206.708 5
-10 -4 -6 1021.67 270.765 9
-10 6 -4 1316.5 235.342 3
-10 6 -4 1269.58 240.718 6
-6 -10 -4 1160.13 240.286 9
10 -4 6 819.806 227.23 4
10 6 4 1404.34 244.622 4
-10 -4 -6 1260.4 280.011 8
10 -4 6 1218.43 255.331 2
-6 -10 -4 909.959 200.95 8
-10 6 -4 1190.08 194.581 8
6 -10 4 1155.64 207.933 2
10 6 4 1110.37 178.824 2
6 -10 4 1233.09 233.002 7
6 -10 4 1085.11 210.636 15
-6 -10 -4 1141.11 226.129 15
-10 6 -6 1660.64 294.404 1
10 6 6 1133.8 270.155 5
-10 -6 -6 1167.22 287.753 9
10 -6 6 868.407 232.507 4
10 6 6 573.014 219.023 2
-10 -6 -6 1010.91 298.372 8
10 -6 6 2345.94 360.853 2
-10 -6 -6 1219.31 274.947 1
10 -6 6 1263.94 302.033 7
-10 6 -6 1572.13 280.998 6
-10 6 -6 1160.88 244.009 3
10 -6 6 904.94 181.493 10
7 10 5 321.396 171.786 13
-7 10 -5 210.972 104.929 6
10 -7 5 420.727 142.467 7
-10 -7 -5 574.916 189.696 1
10 -7 5 247.727 118.938 10
-7 10 -5 288.027 129.415 11
-7 10 -5 331.211 148.478 1
-10 -7 -5 660.037 215.649 9
10 -7 5 688.087 191.518 4
-10 -7 -5 661.801 202.206 8
10 -7 5 353.343 149.011 2
-10 -7 -5 659.585 211.152 16
7 10 5 592.414 217.956 12
7 10 3 282.003 216.713 13
7 -10 -3 82.7631 91.974 16
7 10 3 44.875 115.468 12
-7 10 -3 137.31 75.5503 6
7 -10 -3 128.995 161.499 4
-7 10 -3 189.402 121.347 11
-7 10 -3 8.41578 78.0939 1
10 -7 3 164.469 94.6344 5
7 -10 -3 31.3174 77.421 10
-10 7 3 240.998 260.964 1
-10 7 3 478.547 245.272 3
-10 -7 -3 158.06 131.395 1
10 -7 3 128.611 138.852 10
-10 -7 -3 246.034 124.107 9
-7 -10 3 82.7367 168.11 9
-10 -7 -3 40.384 86.6429 16
-7 -10 3 339.63 198.209 15
-10 -7 -3 47.4451 103.158 8
10 -7 3 198.505 127.531 4
10 -7 3 75.8328 65.8075 15
7 10 3 176.192 76.039 2
-7 -10 3 62.1847 142.631 16
10 7 -3 250.611 209.612 4
10 -7 3 172.552 123.222 2
7 10 3 224.379 160.803 5
10 -7 3 74.9738 92.804 7
-10 -7 -3 95.8969 69.9242 15
7 -10 -3 223.328 220.736 7
-7 -10 3 223.028 116.373 10
-10 -7 -3 208.061 112.007 3
-7 10 -3 136.589 106.41 3
-7 10 -3 201.973 126.662 14
-7 10 -1 25.7793 72.494 3
10 -7 1 1.86602 99.4082 7
-10 -7 -1 2.63304 96.1034 1
7 10 1 23.0979 83.4484 11
-10 7 1 25.4899 133.779 6
-7 -10 1 46.2372 88.1011 3
7 -10 -1 114.804 217.156 2
-10 7 1 114.323 161.341 3
-7 -10 1 133.481 105.879 10
-10 -7 -1 27.2926 128.25 8
10 7 -1 68.2505 231.452 2
10 -7 1 13.6093 83.1293 5
10 7 -1 87.1701 195.278 5
-10 -7 -1 216.422 157.155 9
-7 -10 1 69.3145 107.873 9
10 7 -1 77.2402 87.7171 14
-7 -10 1 50.5341 83.4995 15
7 -10 -1 158.113 128.979 10
7 10 1 39.1904 56.2866 4
-10 -7 -1 62.8933 75.2977 3
-7 -10 1 40.8902 144.997 8
10 -7 1 11.9985 85.6696 4
-10 7 1 46.1871 127.544 1
-10 7 1 148.545 109.338 8
7 -10 -1 60.1944 124.336 4
10 7 -1 99.2409 105.86 4
-7 10 -1 212.578 136.753 6
-7 -10 1 188.528 155.235 16
7 -10 -1 46.2206 106.302 16
10 -7 1 120.809 82.4704 10
-10 -7 -1 53.7965 113.476 16
7 -10 -1 30.0074 74.1037 15
7 -10 -1 81.3814 154.414 7
-7 10 -1 167.029 130.813 1
10 -7 1 51.8304 128.498 2
7 10 1 98.9552 69.7794 5
-10 -7 -1 44.3776 96.2881 15
-10 7 -1 9.16898 60.8034 13
-7 10 1 174.096 104.875 13
-10 -7 1 2.07179 96.8117 3
10 7 1 56.7284 77.2424 2
-7 10 1 120.685 122.486 1
-10 7 -1 2.03299 88.0895 3
7 -10 1 124.64 109.17 15
-10 7 -1 300.791 141.534 6
10 -7 -1 107.113 152.093 2
-7 10 1 142.715 138.365 6
-7 10 1 139.028 96.1714 3
7 -10 1 61.2157 101.767 10
-7 -10 -1 75.7434 136.404 16
7 -10 1 64.8305 112.108 16
-7 -10 -1 20.4661 69.1376 10
10 -7 -1 3.27344 80.4744 10
-10 7 -1 39.1049 102.629 1
10 7 1 17.8481 105.764 5
7 10 -1 43.6554 82.7512 5
-7 -10 -1 15.8887 133.839 9
10 -7 -1 45.6688 102.42 5
-10 -7 1 149.537 180.229 9
-7 -10 -1 178.073 152.579 15
-7 -10 -1 72.5638 109.471 8
-10 7 -1 148.641 98.0315 8
7 -10 1 27.2847 91.1392 4
-10 -7 1 339.406 209.322 8
10 7 1 116.402 96.1342 4
7 10 -1 41.2261 70.0702 4
10 -7 -1 324.283 204.559 4
10 -7 -1 64.3587 81.687 16
7 -10 1 44.8624 124.518 2
-10 -7 1 93.7376 103.804 16
7 -10 1 121.36 139.806 7
10 -7 -1 135.599 171.192 7
-10 -7 1 30.1152 184.675 1
-10 -7 1 39.6231 84.9884 15
7 10 -1 13.0242 56.2584 11
-10 7 -1 30.4397 54.4545 14
-7 -10 -1 77.1267 51.071 3
7 10 -1 61.8087 111.973 14
7 -10 3 340.966 140.332 15
10 7 3 264.34 162.07 13
-10 7 -3 154.96 152.487 6
-10 7 -3 5.16567 85.1432 11
-7 -10 -3 133.952 70.616 1
7 -10 3 223.149 126.27 2
-7 -10 -3 126.465 117.946 16
-7 10 3 540.117 283.283 6
7 -10 3 235.327 131.743 10
-10 7 -3 203.114 140.225 1
7 10 -3 59.1554 92.8799 14
-7 -10 -3 174.728 114.687 10
-7 10 3 182.499 169.705 3
10 7 3 193.292 140.804 5
-10 -7 3 741.276 245.437 3
10 -7 -3 111.735 236.863 2
-7 -10 -3 85.5037 118.031 9
-10 -7 3 397.086 211.559 9
7 -10 3 158.074 103.35 4
-10 7 -3 299.855 130.666 3
10 7 3 152.87 97.3146 4
-7 -10 -3 127.75 94.1806 8
-10 7 -3 201.687 108.401 8
10 7 3 87.1643 100.082 12
-10 -7 3 600.129 289.768 8
10 -7 -3 196.678 182.414 4
10 7 3 11.4117 97.9299 2
-10 -7 3 232.775 170.487 15
7 -10 3 35.7789 132.548 16
7 -10 3 299.288 122.81 7
-7 -10 -3 55.3466 116.719 15
10 -7 -3 183.952 168.554 7
-10 7 -5 461.289 164.656 11
-10 7 -5 512.831 188.007 6
10 7 5 749.164 227.565 12
7 -10 5 448.476 171.18 10
10 7 5 339.281 153.413 5
-7 -10 -5 248.823 138.676 9
-10 7 -5 371.558 124.342 8
-7 -10 -5 239.509 135.235 8
7 -10 5 318.078 145.123 2
10 7 5 525.099 152.185 2
-7 -10 -5 362.204 124.147 15
7 -10 5 384.849 142.896 7
-10 7 -5 139.197 106.225 3
-10 7 -5 119.332 88.252 1
-10 -8 -6 600.005 199.599 16
10 -8 6 666.922 203.008 10
10 -8 6 770.914 231.8 7
-10 -8 -6 520.043 142.881 9
10 -8 6 306.561 130.872 4
-10 -8 -6 507.241 179.679 8
10 -8 6 826.408 222.208 2
-10 -8 -6 1125.67 236.618 1
-8 10 -6 212.121 176.16 1
-8 10 -4 974.668 213.569 6
10 -8 4 1366.6 175.662 15
-8 10 -4 1536.07 257.723 1
-10 -8 -4 1582.4 252.703 1
-8 10 -4 1328.57 265.152 11
10 -8 4 1552.35 234.412 10
-8 -10 4 621.379 283.626 15
-10 -8 -4 1555.34 298.267 9
10 -8 4 1394.06 255.319 4
10 -8 4 1476.39 258.639 2
-8 -10 4 1227.55 360.693 9
-8 10 -4 985.406 170.659 8
-10 -8 -4 1697.4 291.543 8
8 -10 -4 979.823 347.028 7
8 10 4 1794.02 210.126 2
-10 -8 -4 1053.31 208.667 3
-10 -8 -4 1917.17 262.969 16
-8 10 -4 1308.43 244.406 3
-10 -8 -4 1238.09 234.874 15
10 -8 4 1389.39 258.115 7
-10 -8 -2 403.207 119.689 3
-8 10 -2 738.451 154.48 3
8 10 2 820.452 228.785 13
-8 10 -2 732.406 220.54 11
-8 10 -2 646.009 183.415 6
-10 8 2 266.275 147.393 6
10 -8 2 786.232 172.754 10
-10 -8 -2 897.458 218.647 15
-10 8 2 296.952 146.785 3
10 -8 2 468.317 171.392 2
8 -10 -2 786.004 203.446 10
8 -10 -2 334.853 262.095 2
8 10 2 352.38 113.855 5
-10 -8 -2 548.432 201.34 9
10 8 -2 693.241 287.237 5
-8 -10 2 513.183 136.643 10
-8 -10 2 553.05 170.705 15
-8 -10 2 466.117 220.914 9
8 10 2 673.391 142.712 4
-10 8 2 300.394 188.567 1
-8 10 -2 515.578 147.501 1
-10 -8 -2 500.805 176.761 8
10 -8 2 454.318 151.408 4
-8 -10 2 0.94758 193.663 8
8 -10 -2 513.803 200.035 7
-10 -8 -2 480.042 151.615 1
8 -10 -2 658.642 215.977 4
10 8 -2 1006.9 263.387 4
-8 -10 2 433.458 174.197 16
-10 -8 -2 503.832 166.508 16
10 -8 2 347.643 169.913 7
8 10 2 585.485 120.154 2
8 10 2 312.573 143.829 12
10 8 -2 549.395 172.503 14
-8 10 -2 479.551 145.453 14
-8 -10 2 836.35 169.212 3
-10 8 0 904.884 183.056 13
10 -8 0 968.269 256.652 7
-8 -10 0 1080.66 230.841 15
-8 10 0 1092.62 211.278 13
-10 -8 0 895.664 185.749 16
8 -10 0 1301.87 286.172 2
-8 10 0 1078.78 200.709 3
-10 8 0 856.911 196.089 3
-10 8 0 1263.94 291.913 6
-8 -10 0 1034.72 180.409 10
8 -10 0 987.749 250.476 7
-8 10 0 828.04 199.03 6
8 10 0 1479.05 433.112 2
-10 -8 0 971.979 218.214 1
-8 -10 0 532.777 192.088 9
-10 -8 0 1037.41 251.778 9
-10 -8 0 1119.31 205.347 3
10 -8 0 909.925 253.33 2
10 8 0 1271.65 291.49 2
-10 -8 0 959.385 259.772 8
-8 -10 0 1039.57 236.514 8
8 10 0 1068.05 176.977 11
8 10 0 1010.28 225.127 14
-8 -10 0 1034.36 232.172 1
8 -10 0 792.802 164.189 15
-8 -10 0 1193.73 257.921 16
8 10 -2 445.034 144.474 14
-8 -10 -2 621.366 177.253 16
-10 8 -2 595.423 155.836 3
-8 10 2 583.182 249.321 6
10 8 2 305.547 121.725 12
-10 8 -2 599.915 185.63 6
-8 -10 -2 702.99 148.768 1
10 8 2 547.866 96.2125 11
-8 -10 -2 605.511 129.448 3
-10 8 -2 489.259 141.596 11
8 -10 2 530.15 134.367 10
-8 10 2 465.53 165.472 3
10 8 2 797.312 172.627 2
8 -10 2 646.779 188.547 16
-8 -10 -2 423.066 117.261 10
10 -8 -2 536.078 176.854 10
10 8 2 654.13 173.827 5
-10 -8 2 508.42 107.837 10
10 -8 -2 171.943 144.591 7
-8 -10 -2 510.775 163.216 9
10 -8 -2 1118.71 276.6 5
-10 -8 2 221.813 123.838 9
10 8 2 719.267 168.617 4
-10 8 -2 427.694 159.991 1
-8 -10 -2 780.38 208.672 8
8 -10 2 575.035 151.82 4
-10 8 -2 659.144 141.523 8
-8 -10 -2 443.738 157.054 15
-10 -8 2 19.0256 149.787 8
10 -8 -2 395.563 220.236 2
-8 10 2 205.844 190.551 1
-10 -8 2 731.071 194.869 16
8 -10 2 585.786 181.454 7
-10 -8 2 633.489 153.668 15
10 -8 -2 549.127 144.7 16
8 -10 2 391.14 157.53 2
-10 8 -2 378.242 92.6356 14
8 -10 2 574.154 134.371 15
-10 8 -4 1282.05 258.33 6
-10 8 -4 1625.98 283.206 11
-8 -10 -4 1355.55 250.861 16
-10 8 -4 1620.81 269.446 1
8 -10 4 1221.2 217.583 10
-8 -10 -4 1307.26 246.641 15
-8 -10 -4 912.471 234.962 9
-10 -8 4 891.817 349.356 9
10 8 4 814.626 191.619 4
8 -10 4 1758.93 302.391 4
-10 8 -4 868.54 198.541 8
-8 -10 -4 1470.72 266.995 8
8 -10 4 1317.9 255.182 7
8 -10 4 1566.82 243.3 2
10 8 4 1716.19 227.574 2
8 -10 4 1569.58 226.659 15
-8 -10 -4 1589.2 205.222 1
10 -8 -4 984.889 306.834 7
-10 8 -4 1587.81 261.848 3
-10 8 -6 474.754 168.55 6
10 8 6 431.776 144.707 12
-8 -10 -6 206.012 138.977 16
-8 -10 -6 669.147 213.875 9
10 8 6 724.666 214.529 5
10 8 6 623.538 161.674 2
-8 -10 -6 590.696 172.647 8
8 -10 6 646.069 207.266 2
-10 8 -6 804.493 215.877 3
8 -10 6 620.104 213.165 7
-10 -9 -5 657.042 173.816 15
-9 10 -5 523.449 185.768 6
9 10 5 474.134 151.324 12
-9 10 -5 730.94 238.881 11
10 -9 5 547.801 148.279 10
9 10 5 297.28 140.236 5
-10 -9 -5 547.769 214.53 9
10 -9 5 930.223 222.482 4
-9 10 -5 245.685 140.473 8
9 10 5 310.75 174.36 13
-10 -9 -5 393.88 176.126 8
9 10 5 720.946 163.634 2
10 -9 5 308.87 149.415 2
-9 10 -5 359.493 176.019 3
10 -9 5 365.399 144.385 7
-10 -9 -5 567.198 155.566 1
-10 -9 -5 676.054 181.873 16
-9 10 -5 785.928 225.482 1
9 10 3 853.083 295.62 13
9 10 3 759.191 242.297 12
-9 10 -3 763.402 233.302 6
-9 10 -3 534.343 191.503 11
-10 9 3 462.028 304.689 1
-9 -10 3 435.644 217.242 16
-9 -10 3 412.731 158.465 10
10 -9 3 895.366 206.914 10
-10 9 3 1383.44 400.688 6
-10 9 3 840.383 300.517 3
9 -10 -3 616.832 208.594 10
9 10 3 530.699 197.215 5
-9 -10 3 703.107 256.846 3
-10 -9 -3 541.827 198.489 9
-9 10 -3 554.394 181.445 1
10 9 -3 737.133 270.713 5
-10 -9 -3 458.264 154.162 1
-9 -10 3 555.455 243.389 9
-10 -9 -3 574.335 208.938 8
10 -9 3 645.087 214.333 4
-10 -9 -3 568.542 150.409 3
-9 -10 3 487.931 292.677 8
9 -10 -3 527.375 172.629 16
9 -10 -3 842.952 280.352 4
10 9 -3 554.875 179.769 14
10 9 -3 758.98 234.383 4
9 10 3 669.731 149.568 2
10 -9 3 709.264 218.726 7
10 -9 3 564.081 215.936 2
-10 -9 -3 633.804 189.202 16
-9 -10 3 472.923 190.108 15
10 -9 3 546.781 146.339 15
-10 -9 -3 686.333 203.953 15
9 -10 -3 433.638 229.446 7
-9 10 -3 683.635 186.7 14
-9 10 -3 649.805 203.985 3
-9 10 -1 685.942 146.764 13
-10 -9 -1 604.602 160.021 3
9 -10 -1 643.976 152.913 16
-9 10 -1 335.397 140.168 3
9 -10 -1 402.318 202.784 7
9 10 1 615.542 163.126 2
-9 10 -1 547.729 190.841 6
-10 9 1 489.924 196.554 6
-9 -10 1 527.883 124.361 3
-10 9 1 516.268 148.492 3
9 -10 -1 430.421 211.67 2
-9 -10 1 275.823 84.5003 10
10 -9 1 653.945 181.16 10
9 -10 -1 392.754 167.789 10
-10 -9 -1 306.821 100.084 10
10 -9 1 585.968 121.4 5
-10 -9 -1 502.926 165.012 1
9 10 1 413.555 175.841 5
-10 -9 -1 331.918 121.228 15
10 9 -1 583.451 377.809 2
9 -10 -1 469.48 116.314 5
10 9 -1 368.316 199.094 5
-10 -9 -1 638.474 201.299 9
-9 -10 1 703.839 206.365 16
-9 -10 1 108.754 95.6912 9
9 10 1 566.949 129.767 4
-10 -9 -1 577.397 179.416 8
10 -9 1 604.022 130.824 15
10 9 -1 499.341 159.652 14
10 -9 1 475.092 146.913 4
-9 -10 1 590.405 206.059 8
-9 10 -1 557.297 134.934 8
10 -9 1 439.818 136.369 7
9 -10 -1 656.641 212.209 4
10 9 -1 783.959 187.977 4
-10 -9 -1 395.243 132.098 16
-10 9 1 144.457 163.142 1
-9 10 -1 687.965 179.524 14
9 -10 -1 660.379 150.943 15
-9 10 -1 373.81 124.27 1
-9 -10 1 676.621 188.811 15
10 -9 1 618.158 199.324 2
-10 9 -1 654.511 174.694 3
10 9 1 518.246 108.879 11
-10 -9 1 447.232 167.489 16
9 -10 1 527.558 186.16 2
-9 10 1 607.458 181.241 6
-9 10 1 954.023 218.073 3
10 -9 -1 673.847 169.862 16
10 -9 -1 517.967 227.031 2
-10 -9 1 573.196 121.252 10
-9 -10 -1 474.233 123.134 3
9 -10 1 186.448 97.4477 10
-9 -10 -1 618.428 150.877 10
10 -9 -1 615.237 193.619 10
-10 -9 1 396.245 120.487 3
10 9 1 696.602 188.641 2
9 10 -1 493.865 178.499 5
10 -9 -1 598.958 140.204 5
-9 -10 -1 310.44 163.051 9
-10 -9 1 301.363 210.337 9
-9 -10 -1 410.342 142.303 1
-9 -10 -1 422.862 148.258 8
-10 9 -1 294.352 106.816 8
-10 -9 1 369.616 140.876 15
9 -10 1 326.233 125.817 4
-10 -9 1 590.403 240.018 8
-9 10 1 434.554 164.784 13
10 -9 -1 531.895 234.371 4
-10 9 -1 507.853 139.091 14
-9 -10 -1 495.115 151.757 16
9 -10 1 573.875 181.857 16
9 -10 1 390.205 165.104 7
-10 9 -1 277.591 123.045 6
10 -9 -1 465.944 210.937 7
-9 -10 -1 393.962 148.521 15
9 -10 1 508.026 117.003 15
9 -10 1 452.058 102.964 5
-10 9 -1 523.753 175.834 1
-10 9 -1 421.077 92.4994 13
-9 10 1 635.189 237.529 1
-10 -9 1 525.164 213.885 1
9 10 -1 413.451 123.026 14
-10 9 -3 685.818 188.75 3
9 -10 3 745.237 208.562 4
10 9 3 874.282 266.822 12
-10 9 -3 705.799 213.804 11
-10 9 -3 448.736 196.592 6
-10 -9 3 737.906 178.221 10
-9 10 3 621.267 286.236 6
9 -10 3 1175.97 272.232 16
-9 10 3 1215.16 332.067 3
10 -9 -3 776.248 222.376 10
10 9 3 948.916 248.35 5
-10 -9 3 683.965 228.256 3
9 10 -3 904.975 252.709 4
-9 -10 -3 403.623 187.963 9
10 -9 -3 361.257 355.402 2
-9 -10 -3 673.306 171.362 1
-10 9 -3 651.233 230.482 1
10 9 3 690.389 239.46 13
9 10 -3 726.511 253.139 5
-9 -10 -3 481.619 178.471 16
-10 -9 3 727.341 261.112 9
10 9 3 641.27 184.614 4
-9 -10 -3 566.68 206.431 8
-10 -9 3 373.164 232.586 8
10 -9 -3 1056.43 370.115 4
9 -10 3 714.346 212.309 10
-10 -9 3 576.216 198.199 16
9 -10 3 620.355 187.693 2
9 -10 3 636.893 219.247 7
-10 -9 3 861.481 262.447 15
9 -10 3 826.302 180.413 15
-9 -10 -3 822.395 237.191 15
10 -9 -3 117.661 173.314 7
10 9 3 755.153 159.98 2
9 10 -3 684.513 215.9 14
10 9 5 528.202 214.849 13
-10 9 -5 520.245 168.865 1
-10 9 -5 704.577 213.018 6
10 9 5 444.906 179.156 12
9 -10 5 545.341 178.724 10
10 9 5 376.321 163.782 5
-10 9 -5 629.895 197.333 11
-9 -10 -5 392.308 194.299 9
-10 9 -5 506.939 172.946 3
9 -10 5 799.657 216.454 4
-10 9 -5 86.2785 109.912 8
-9 -10 -5 551.711 212.003 8
10 9 5 676.305 145.309 2
9 -10 5 853.404 201.659 2
9 -10 5 296.722 128.536 7
-9 -10 -5 506.104 160.352 15
-9 -10 -5 593.454 174.988 16
-9 -10 -5 482.805 115.496 1
9 -10 5 617.149 152.089 15
10 10 0 7.63691 58.9472 11
-10 -10 0 167.783 78.2833 10
10 10 0 103.195 153.92 2
10 -10 0 80.971 68.9723 5
-10 -10 0 201.803 195.37 9
-10 -10 0 39.4757 151.598 1
-10 -10 0 0.07693 168.58 8
10 10 0 69.3238 70.9624 4
-10 -10 0 40.1733 106.215 16
-10 10 -2 1789.09 288.595 3
10 10 2 1686.63 202.782 11
10 -10 2 1374.13 197.143 15
-10 10 -2 1729.54 317.729 11
-10 -10 -2 1569.45 270.664 16
-10 10 2 1507.17 332.652 6
-10 10 -2 1513.25 288.581 6
10 -10 2 1266.74 247.911 10
-10 -10 2 1387.38 227.772 3
10 -10 2 1604.23 215.66 5
-10 -10 2 1530.59 208.003 10
10 -10 -2 1237.1 383.167 2
10 -10 -2 1130.77 253.942 10
10 10 2 1314.55 219.671 2
-10 -10 -2 1030.23 266.988 9
10 -10 2 1461 276.146 2
10 10 2 1744.94 237.425 4
-10 -10 -2 1317.44 252.251 8
-10 10 2 1495.32 304.416 3
10 -10 2 1277.16 245.504 4
10 -10 -2 1300.42 300.115 7
-10 10 -2 1669.29 284.289 1
-10 -10 -2 1145.24 191.403 10
-10 -10 2 1643.25 303.914 16
10 -10 2 1534.28 300.046 7
-10 -10 2 1018.78 252.043 15
-10 -10 -2 1544.29 275.976 15
-10 -10 -2 1339.38 201.598 1
-10 -10 -2 1523.59 216.704 3
10 10 -2 1694.52 297.48 14
-10 10 -2 1489.61 222.901 14
10 -10 4 3297.7 306.91 15
-10 10 -4 2640.3 403.427 6
-10 -10 -4 3069.29 383.082 15
10 10 4 2458.17 361.842 5
-10 10 4 3759.45 677.508 6
-10 10 4 2951.71 551.897 3
-10 -10 -4 3225.58 451.493 9
10 10 4 2904.82 320.033 2
10 -10 4 3120.31 381.265 2
10 -10 4 3513.81 433.601 4
-10 -10 4 2340.3 470.354 9
-10 -10 -4 3341.79 438.378 8
-10 -10 -4 3136.5 332.198 1
-10 10 -4 3073.4 399.535 1
10 -10 4 3314.39 431.149 7
-10 -10 -4 3110.79 391.593 16
10 -10 4 2829.89 350.255 10
-10 -10 4 2757.76 429.696 15
-10 10 -4 2645.47 374.411 3
-10 10 -6 220.223 160.42 6
-10 10 -6 272.593 178.94 11
-10 -10 -6 312.533 147.004 16
10 -10 6 262.472 171.15 10
10 10 6 201.929 133.759 5
-10 -10 -6 544.776 235.223 9
10 -10 6 359.439 146.148 15
-10 10 -6 382.116 137.4 8
10 10 6 285.192 182.807 12
-10 -10 -6 197.636 115.084 8
10 10 6 137.707 135.573 2
10 -10 6 88.3491 135.574 2
-10 10 -6 333.368 171.953 1
10 -10 6 312.314 199.379 7
-10 -10 -6 338.88 185.086 1
11 -1 0 455.623 201.912 2
11 1 0 712.005 197.968 2
0 11 -1 611.963 129.688 6
-1 11 0 763.865 163.475 12
1 11 0 608.506 114.461 6
-1 11 0 705.592 153.422 6
-11 0 -1 660.066 175.614 3
11 0 -1 494.807 191.784 2
0 11 -1 522.918 147.047 11
0 11 1 833.722 148.979 6
-11 -1 0 771.129 185.784 3
-11 1 0 517.628 159.531 3
-11 0 1 708.754 170.865 6
-1 -11 0 491.245 151.213 16
-11 1 0 720.242 195.664 1
0 -11 1 649.049 179.543 10
-11 -1 0 599.359 190.305 1
-11 0 1 802.921 208.596 3
-1 -11 0 506.484 153.631 10
1 -11 0 660.093 163.57 10
11 1 0 669.543 171.259 7
0 -11 -1 1013.08 209.633 10
0 -11 -1 785.964 167.928 9
0 -11 1 876.836 195.954 16
1 11 0 750.701 111.671 5
-11 -1 0 445.487 137.46 9
0 11 1 676.723 146.527 12
-11 1 0 796.209 177.196 9
-11 0 1 476.742 139.875 9
-11 0 -1 773.114 186.138 8
-11 1 0 826.617 208.25 8
-11 0 1 856.485 223.485 1
-11 0 1 897.377 231.784 8
11 0 1 578.596 182.597 4
-11 0 -1 817.245 191.576 1
11 0 -1 1127.87 273.354 4
0 -11 -1 661.332 178.704 16
1 -11 0 522.681 133.714 15
1 -11 0 824.789 177.071 7
0 -11 1 649.022 138.911 7
11 0 1 603.407 180.442 2
-11 0 -1 887.348 161.051 6
-1 -11 0 970.258 175.001 7
11 0 1 958.437 178.857 7
0 -11 1 849.142 188.67 15
11 -1 0 710.513 181.24 7
-1 -11 0 803.727 186.136 15
0 -11 -1 728.345 160.959 7
0 -11 -1 606.914 158.939 15
11 0 -1 762.16 229.331 7
-1 11 2 3220.56 337.147 12
-11 2 1 2805.36 358.825 6
-11 1 -2 3077.02 246.598 11
1 11 -2 3441.31 371.296 11
-2 11 -1 3009.8 354.522 11
-2 -11 1 2991.46 359.217 16
-11 -2 -1 2254.42 320.684 1
1 -11 2 3404.78 352.733 10
-2 -11 1 2729.13 312.072 10
2 -11 -1 3422.39 352.223 10
-1 -11 -2 2709.17 331.677 10
-11 -1 2 3260.86 431.842 3
-1 -11 -2 2927.46 319.507 9
-11 1 -2 3038.9 276.061 9
-11 -2 -1 3338.36 339.066 9
-11 -2 -1 3102.3 276.506 6
-11 -2 -1 2968.42 338.518 3
11 -2 1 2766.48 237.513 10
11 1 2 2882.61 335.985 2
-11 1 -2 3403.33 328.346 6
2 -11 -1 2724.59 210.515 4
11 2 -1 2655.79 420.351 2
-11 -2 -1 3175.51 371.739 8
-1 11 2 3245.22 347.931 6
-11 1 -2 2867.22 344.337 1
-11 2 1 2682.75 375.867 1
-11 -1 2 3067.62 445.43 1
-11 2 1 3272.26 409.764 3
-11 -1 2 2925.79 413.619 8
1 -11 2 3152.53 304.346 7
-2 -11 1 3276.28 269.067 7
11 1 2 2950.33 286.42 7
11 -2 1 3086.66 331.1 7
1 -11 2 3739.33 408 16
2 -11 -1 2967.87 360.133 7
-11 1 -2 2965.29 342.367 3
1 -11 2 3402.86 361.583 15
-2 -11 1 2711.7 336.306 15
2 -11 -1 3041.67 329.903 15
-2 11 -1 3023.14 246.643 3
-1 -11 -2 2618.52 323.947 15
11 -2 1 2722.79 358.11 2
1 11 -2 2978.92 297.887 6
-2 11 -1 2789.52 294.612 6
2 11 1 3039.17 248.776 6
-2 11 1 3157.37 315.337 6
1 11 2 3204.59 288.961 6
-11 -2 1 3188.28 315.388 6
-2 11 1 3127.64 301.443 12
1 11 2 2742.99 318.935 12
-1 11 -2 2959.58 341.595 11
2 11 -1 2908.54 325.575 11
-11 2 -1 2927.52 241.212 11
-1 -11 2 3201.81 341.627 10
2 -11 1 2605.78 316.007 10
-2 -11 -1 3522.07 354.793 10
1 -11 -2 3562.66 387.137 10
-11 1 2 2385.92 414.102 3
-11 -2 1 3127.74 370.812 3
-11 -1 -2 3309.79 349.933 3
1 -11 -2 2937.34 296.127 9
-11 -1 -2 2960.26 302.534 9
-11 2 -1 3267.89 285.83 9
-11 -2 1 2608.31 333.404 9
-2 -11 -1 2914.73 307.713 7
-1 -11 2 2938.51 355.568 15
11 -2 -1 2872.16 383.416 7
2 -11 1 4461.73 319.101 4
11 -1 2 2833.34 351.252 2
11 2 1 2512.34 360.676 2
11 -1 2 3214.69 373.243 4
-1 11 -2 3061.78 309.109 6
-11 -1 -2 3369.63 371.193 8
-11 2 -1 2758.76 337.042 8
-11 -1 -2 3019.99 350.206 1
-11 -2 1 2898.73 385.329 8
-11 1 2 2839.74 409.027 8
-1 -11 2 2896.73 266.404 7
2 -11 1 3467.47 328.057 7
11 -1 2 2983.38 310.281 7
-2 -11 -1 2768.81 348.538 16
11 2 1 3253.32 310.136 7
1 -11 -2 3256.99 414.798 7
-1 -11 2 2972.88 361.858 16
-11 -2 1 1879.14 297.818 1
-11 2 -1 3258.86 365.34 3
2 -11 1 3017.74 333.589 15
-2 11 1 2910.36 206.789 3
-2 -11 -1 2892.74 335.187 15
1 -11 -2 3091.8 342.508 15
2 11 -1 2740.88 257.545 6
-11 -1 -2 3281.58 298.58 6
-11 2 -1 3069.14 327.107 6
-2 -11 -3 286.224 118.608 15
-2 11 3 298.546 131.416 13
-11 2 -3 257.296 150.613 3
11 2 3 315.709 90.8882 7
-3 11 -2 379.509 105.043 3
11 -3 2 358.266 101.846 12
-11 -3 -2 349.918 118.074 3
3 11 2 196.419 115.262 12
3 11 2 417.091 188.861 13
-3 11 -2 335.778 144.794 11
3 11 2 435.753 98.8598 6
2 -11 3 350.258 145.231 10
-3 -11 2 206.261 110.149 10
-11 3 2 447.32 207.055 6
-11 3 2 463.637 236.463 1
-3 11 -2 501.997 120.176 1
11 -3 2 455.551 108.008 10
11 2 3 427.157 143.105 2
3 11 2 471.859 131.952 5
3 -11 -2 434.504 150.866 10
11 3 -2 851.483 291.156 4
11 3 -2 403.431 229.985 2
-11 2 -3 282.295 119.185 1
-11 2 -3 270.366 113.453 6
11 2 3 355.105 137.814 5
-3 -11 2 467.144 148.619 15
-11 -2 3 93.4935 165.76 3
11 -3 2 200.16 101.098 5
-11 -2 3 42.3253 165.789 1
-2 -11 -3 324.39 126.223 9
-11 2 -3 317.497 87.1632 9
-11 -3 -2 417.263 133.6 9
-3 11 -2 358.901 138.332 14
11 3 -2 44.9534 148.288 5
-3 -11 2 494.452 208.612 9
-2 -11 -3 475.258 114.739 8
-11 2 -3 478.359 131.773 8
-11 -3 -2 368.938 160.121 8
11 2 3 330.828 127.879 4
11 -3 2 115.22 88.8004 4
-2 -11 -3 286.34 149.386 10
-11 3 2 292.231 122.133 8
-11 -2 3 429.219 186.356 8
-2 -11 -3 342.702 145.249 16
3 -11 -2 418.073 134.991 16
11 -2 -3 759.843 380.772 4
-11 -3 -2 307.578 85.5334 16
2 -11 3 239.047 121.439 7
2 -11 3 623.472 204.629 16
2 11 -3 254.239 98.1992 11
11 -3 2 290.044 124.827 7
11 -3 2 381.922 155.041 2
2 -11 3 283.148 121.56 15
11 -2 -3 253.36 241.283 2
3 -11 -2 152.175 147.006 7
-11 -3 -2 278.221 90.4422 15
-11 -3 -2 319.644 92.7593 6
11 2 3 514.943 153.794 12
-11 3 2 282.415 222.969 3
2 11 -3 364.438 134.109 14
2 -11 3 267.576 92.1987 2
-11 0 -3 24.3543 116.361 3
0 11 -3 20.1607 69.9949 6
0 11 3 117.539 116.241 13
11 -3 0 51.0944 142.548 2
11 0 3 5.33161 69.7695 12
-11 0 -3 16.8793 66.1365 6
3 11 0 73.5043 69.8697 6
-3 11 0 42.1716 68.4292 12
11 3 0 128.511 103.589 2
11 0 -3 454.918 342.796 4
0 11 -3 16.9249 66.8902 11
-3 11 0 76.2248 91.5394 6
3 11 0 59.1812 99.7742 11
-11 3 0 33.7869 88.556 6
11 0 3 6.0318 67.0229 7
3 -11 0 28.1042 102.198 2
-11 -3 0 49.7975 99.3561 3
-11 3 0 158.646 139.728 3
-3 -11 0 17.3624 107.677 15
0 -11 3 107.415 118.16 10
-11 3 0 59.2804 104.134 1
-3 -11 0 166.031 114.025 10
11 -3 0 52.6675 96.8855 7
3 -11 0 49.588 113.768 10
3 -11 0 116.561 104.349 15
-11 0 -3 139.418 103.106 1
0 -11 -3 115.696 112.489 10
11 -3 0 49.2288 69.1432 10
-11 -3 0 189.439 155.845 1
11 0 3 13.4811 81.7285 5
-11 0 3 48.5315 118.726 3
0 -11 -3 91.2551 73.3837 9
-11 -3 0 40.3508 58.5173 16
3 11 0 67.493 62.161 5
-11 0 3 125.899 166.599 1
-11 0 -3 19.5515 60.4502 9
11 0 -3 439.224 282.779 2
11 -3 0 80.6806 102.198 5
11 3 0 3.8212 103.055 5
3 -11 0 21.3692 81.6865 9
-3 -11 0 33.8876 92.8708 9
-11 -3 0 42.0616 89.1425 9
-11 3 0 144.207 94.3718 9
0 -11 3 51.8024 162.577 9
-11 0 -3 190.775 125.748 8
-3 11 0 13.6194 79.6091 1
11 0 3 144.833 135.21 4
3 -11 0 10.5376 46.481 4
-11 -3 0 61.8076 108.529 8
-3 -11 0 157.843 125.301 8
-11 3 0 236.322 165.873 8
0 11 3 1.97166 100.257 12
11 3 0 44.6867 111.368 4
11 -3 0 73.2727 129.568 4
-11 0 3 112.132 140.729 8
0 -11 -3 53.0142 137.155 16
0 11 -3 3.85811 117.856 14
0 -11 3 76.1346 65.1906 7
11 0 3 224.123 121.65 2
3 -11 0 45.6823 87.4698 16
0 -11 3 112.807 141.832 16
0 -11 3 29.1531 130.973 15
-3 -11 0 35.0709 63.529 7
11 3 0 68.7323 114.993 7
0 -11 -3 99.0167 97.1409 15
-3 11 0 50.6325 51.4703 3
-3 -11 0 152.072 126.085 16
11 3 0 35.7964 41.3245 14
2 11 3 303.504 123.833 13
-2 11 -3 398.182 135.747 6
-11 -2 -3 440.301 124.363 6
11 -2 3 287.552 93.5844 12
11 3 2 401.506 143.441 2
2 -11 -3 133.823 100.983 16
-11 3 -2 334.585 138.191 3
3 -11 2 438.39 138.814 15
2 11 3 156.763 113.542 12
-11 3 -2 318.525 132.384 6
-2 11 -3 586.128 169.121 11
-2 -11 3 244.463 135.062 15
-11 -2 -3 556.842 159.661 3
11 -2 3 290.373 76.6628 10
11 -3 -2 637.858 280.484 2
-3 -11 -2 194.213 98.8228 10
-2 -11 3 212.901 100.199 10
-3 11 2 560.713 135.613 3
-11 -3 2 336.133 170.484 3
-11 -2 -3 326.374 132.268 1
11 -2 3 222.922 101.331 5
2 -11 -3 188.476 97.9695 9
-11 2 3 495.962 223.172 3
11 3 2 440.924 151.799 5
-11 -2 -3 280.903 127.244 9
-3 -11 -2 272.007 118.373 9
-11 3 -2 430.66 107.439 9
11 2 -3 44.5122 221.313 2
11 -3 -2 541.463 252.032 5
-11 -3 2 312.217 140.149 9
-2 -11 3 554.578 218.997 9
3 -11 2 354.838 198.768 9
3 -11 2 168.779 86.718 4
-3 -11 -2 314.038 82.3859 8
-11 -2 -3 386.286 151.991 8
-11 3 -2 274.42 106.128 8
11 -2 3 239.116 110.044 4
11 2 -3 798.826 321.219 4
3 11 -2 315.284 110.938 11
11 3 2 405.737 136.955 4
-11 -3 2 539.948 220.666 8
-11 2 3 502.704 237.683 1
-3 11 2 285.652 126.525 13
11 -3 -2 634.143 263.174 4
-3 -11 -2 354.507 156.27 16
11 -2 3 404.606 145.787 2
3 -11 2 408.842 167.419 16
3 -11 2 172.718 94.3333 7
-2 -11 3 479.681 209.771 16
-11 -3 2 372.086 125.99 15
11 3 2 321.918 95.2123 7
3 -11 2 491.529 140.114 10
11 -2 3 334.804 105.99 7
-11 3 -2 410.324 107.434 11
-11 -3 2 115.516 163.104 1
-3 -11 -2 291.032 127.734 15
11 -3 -2 381.179 188.643 7
2 -11 -3 490.764 156.655 15
2 -11 -3 324.173 183.063 7
2 -11 -3 330.258 131.735 10
-2 11 -3 362.541 151.801 14
-3 11 4 293.027 119.439 13
-11 3 -4 447.765 147.441 6
-4 11 -3 334.59 123.142 6
11 3 4 460.823 153.628 12
4 11 3 355.358 145.446 12
-11 -4 -3 335.853 91.9281 16
-11 3 -4 331.67 136.746 1
-4 11 -3 438.64 169.959 11
4 11 3 453.62 148.729 13
-4 -11 3 312.636 132.575 10
3 -11 4 323.749 142.756 10
11 -4 3 473.12 131.425 10
-4 -11 3 217.067 115.218 15
4 -11 -3 270.721 131.942 16
11 -4 3 633.045 190.752 7
4 11 3 460.904 131.101 5
-4 11 -3 492.319 121.64 1
4 -11 -3 516.674 187.166 10
-3 -11 -4 247.875 119.649 10
11 3 4 218.867 124.656 5
11 -4 3 507.855 146.222 5
-11 -4 -3 606.262 170.923 1
-11 4 3 348.176 214.702 3
4 -11 -3 396.942 115.586 9
-11 3 -4 337.671 95.7015 9
-3 -11 -4 368.159 149.236 9
-11 -4 -3 418.535 150.361 9
4 -11 -3 537.834 271.221 7
11 -4 3 632.494 170.654 2
3 -11 4 593.624 219.421 16
3 -11 4 236.461 110.603 7
-4 -11 3 267.633 134.712 9
3 -11 4 422.63 103.427 2
-3 -11 -4 295.167 122.259 8
-11 4 3 256.471 205.571 1
-11 3 -4 299.54 148.937 8
11 3 4 643.231 185.13 4
-11 -4 -3 481.69 188.47 8
-3 -11 -4 315.512 131.431 16
11 -4 3 295.394 127.927 4
-4 -11 3 427.586 189.605 16
11 4 -3 824.117 329.858 4
11 3 4 655.75 182.501 2
-4 -11 3 354.576 102.744 7
11 3 4 487.208 118.576 7
-11 -4 -3 396.706 148.304 3
3 -11 4 536.848 176.028 15
-3 -11 -4 645.038 178.562 15
4 -11 -3 415.809 137.55 15
-11 -4 -3 360.71 105.701 15
3 11 -4 460.631 167.652 14
-4 11 -3 114.354 89.5546 14
-11 3 -4 387.226 150.219 3
-11 -4 -1 892.248 141.928 6
-11 -4 -1 799.023 146.377 16
11 -4 1 809.071 121.746 12
-4 11 -1 839.625 130.353 12
-11 1 -4 887.391 194.479 1
4 11 1 812.403 116.256 6
1 11 -4 939.665 203.119 11
11 1 4 612.547 158.63 12
-11 -4 -1 768.8 167.409 3
-4 11 -1 1125.79 205.224 6
-4 -11 1 785.716 192.282 15
-11 4 1 324.77 152.769 6
1 -11 4 730.571 190.125 10
4 -11 -1 730.999 189.424 10
11 4 -1 543.251 208.437 2
-11 4 1 860.572 228.151 3
-4 -11 1 983.732 194.962 10
11 -4 1 676.313 133.099 10
-1 11 4 1075.34 251.802 13
-1 -11 -4 620.878 179.362 10
11 1 4 711.271 188.224 5
4 -11 -1 1010.39 305.408 2
4 11 1 830.141 147.063 5
-1 -11 -4 717.781 163.508 9
-11 1 -4 880.65 162.557 9
11 -4 1 863.795 195.496 5
-4 11 -1 888.651 165.838 1
1 -11 4 609.455 149.776 7
-11 4 1 1007.25 269.404 1
11 1 4 741.092 190.463 4
-4 -11 1 456.603 99.4509 16
-11 -4 -1 1244.62 248.063 8
-11 4 1 789.868 216.135 8
11 1 4 767.806 178.743 2
4 -11 -1 1033.46 213.954 16
11 1 4 1138.78 195.516 7
-4 11 -1 1029.84 156.671 3
-11 1 -4 805.068 177.261 6
11 -4 1 959.429 214.071 7
-11 -4 -1 977.745 197.024 9
4 -11 -1 859.63 218.522 7
-11 -4 -1 711.368 140.046 15
4 -11 -1 705.92 166.261 15
-11 -4 -1 625.11 169.187 1
-1 -11 -4 756.173 193.17 15
11 -4 1 871.599 212.281 2
-4 11 -1 860.532 211.313 11
1 -11 4 577.004 220.483 16
-11 1 -4 980.665 222.019 3
-11 -1 -4 666.446 160.038 6
-11 -4 1 703.124 215.44 1
-4 11 1 907.067 167.803 12
4 -11 1 1078.81 174.376 2
11 -1 4 792.898 171.555 7
-1 11 -4 564.172 167.101 11
-11 4 -1 742.031 172.487 6
-11 4 -1 815.441 208.378 3
11 -4 -1 784.404 246.513 2
-11 4 -1 641.485 143.582 11
-4 11 1 706.956 182.349 6
-4 11 1 875.232 143.439 3
11 -1 4 658.501 116.272 10
-1 -11 4 550.319 188.851 10
11 -4 -1 412.963 138.451 7
-11 -4 1 731.34 172.881 6
-11 -4 1 933.97 199.923 3
4 -11 1 685.578 168.006 10
-4 -11 -1 636.423 141.273 10
-11 -1 -4 694.713 186.828 1
1 -11 -4 784.953 219.052 10
11 -4 -1 613.481 138.973 10
11 -1 4 766.261 200.47 5
-4 -11 -1 774.287 171.421 15
1 -11 -4 1004.48 188.72 9
-11 -1 -4 1024.94 184.853 9
11 4 1 1031.33 248.291 5
4 11 -1 836.103 184.23 11
-4 -11 -1 929.475 231.934 9
-1 -11 4 787.904 226.954 16
-11 -4 1 903.569 207.213 9
11 4 1 633.67 126.152 7
-11 -1 -4 818.513 213.785 8
11 -1 4 943.091 211.821 4
-4 -11 -1 805.188 183.735 8
-4 11 1 799.029 192.511 13
-11 4 -1 666.372 174.345 8
-11 -4 1 918.781 236.363 8
11 -1 4 905.375 200.144 2
-1 -11 4 579.41 166.313 7
1 -11 -4 778.712 188.277 15
-4 -11 -1 866.889 184.621 16
-11 4 -1 946.883 222.563 1
4 -11 1 860.715 197.212 7
-1 -11 4 701.775 214.328 15
-11 -4 1 684.577 142.526 15
4 -11 1 778.019 168.673 15
-11 -1 -4 982.962 196.109 3
11 4 1 924.96 162.542 14
11 4 1 861.299 202.483 2
4 11 -1 677.312 196.147 14
11 4 3 335.978 114.782 13
-4 11 3 371.154 153.731 13
3 11 4 343.859 155.861 13
-3 11 -4 412.223 156.957 6
-11 4 -3 500.153 154.108 3
3 11 4 282.226 92.754 12
3 -11 -4 231.416 146.674 10
11 4 3 642.847 179.452 12
-11 4 -3 358.152 134.725 6
-11 -3 -4 265.131 114.699 1
4 11 -3 327.286 132.245 11
-11 4 -3 491.313 139.303 11
-3 11 -4 278.833 146.738 11
-3 -11 4 144.015 111.994 15
-3 -11 4 174.708 119.074 10
11 -3 4 264.327 90.8441 10
4 -11 3 207.374 118.912 10
-4 11 3 444.237 178.772 6
11 -3 4 460.75 150.334 5
-4 -11 -3 444.901 146.569 10
-3 -11 4 184.423 135.452 16
-11 4 -3 554.557 174.423 1
11 4 3 336.07 130.966 5
-11 -4 3 187.74 127.252 3
11 -4 -3 482.025 313.818 2
-4 11 3 49.4099 132.494 3
-11 -3 -4 467.314 164.091 9
-4 -11 -3 444.115 172.904 9
-11 -3 -4 367.433 99.3529 16
-11 -4 3 86.4643 156.179 9
-4 -11 -3 264.799 112.706 8
-11 -3 -4 289.348 159.715 8
11 -3 4 413.595 162.677 4
-11 4 -3 524.264 151.41 8
11 4 3 328.416 135.001 4
-3 11 -4 388.713 115.72 1
4 -11 3 296.767 102.113 2
-11 -4 3 299.46 135.946 8
11 -4 -3 11.823 144.624 7
11 -3 4 689.65 211.124 2
3 -11 -4 174.477 114.755 16
11 -4 -3 455.066 341.924 4
-4 -11 -3 377.51 161.967 16
11 4 3 561.574 167.424 2
3 -11 -4 548.456 147.044 15
11 -3 4 554.94 165.99 7
11 4 3 371.952 103.497 7
4 -11 3 158.345 153.433 16
4 -11 3 377.786 147.761 15
-4 -11 -3 518.112 171.782 15
4 -11 3 297.443 126.444 7
-3 11 -4 380.64 156.09 14
-11 -3 -4 306.417 127.749 3
4 11 -3 359.12 149.621 14
5 11 4 985.345 284.058 13
-11 4 -5 829.343 194.429 6
-5 11 -4 822.33 207.176 6
11 4 5 924.248 228.126 12
5 11 4 699.16 215.853 12
-5 11 -4 912.129 241.732 11
-11 -5 -4 1005.01 213.419 1
11 -5 4 909.435 175.731 10
11 -5 4 924.133 199.497 5
11 4 5 919.327 234.339 5
5 -11 -4 881.169 277.26 10
11 -5 4 1010.78 229.182 7
-4 -11 -5 858.728 216.449 9
-11 -5 -4 790.895 201.194 9
-11 4 -5 1015.04 245.502 3
-5 -11 4 973.948 308.482 9
11 4 5 982.322 231.897 4
-11 -5 -4 1029.18 224.499 3
-11 4 -5 838.694 214.68 8
-11 -5 -4 847.752 221.021 8
11 -5 4 1018.25 227.064 4
4 -11 5 908.164 231.396 15
11 4 5 720.95 174.516 2
11 -5 4 811.087 192.734 2
-4 -11 -5 720.001 215.303 16
4 -11 5 790.709 193.871 7
-5 -11 4 663.472 242.716 16
-5 11 -4 690.117 194.078 1
-5 -11 4 731.146 231.443 15
-4 -11 -5 835.619 217.634 15
-11 4 -5 1206.06 283.321 1
-5 11 -4 811.047 212.837 14
-11 -5 -2 1294.84 218.857 3
-5 11 -2 1608.71 274.923 11
-5 -11 2 1269.06 206.177 10
11 2 5 1428.14 263.208 5
-11 5 2 1068.44 232.109 6
5 11 2 1476.11 221.127 5
-11 2 -5 1250.31 213.276 9
-2 -11 -5 1208.1 233.752 9
5 11 2 1330.32 252.428 12
11 -5 2 1284.78 212.834 5
5 -11 -2 1512.49 244.997 15
-11 2 -5 1504.06 273.691 8
11 2 5 1733.12 283.574 2
11 -5 2 1350.82 202.756 10
-5 -11 2 1109.13 287.354 8
11 2 5 1426.24 217.451 7
-11 -5 -2 1249.37 181.462 16
-5 -11 2 1124.06 234.784 16
11 -5 2 1295.43 229.541 7
2 -11 5 981.593 313.841 15
11 -5 2 1404.01 254.942 2
-5 -11 2 1168.8 224.616 15
-11 2 -5 1351.94 261.698 1
-2 -11 -5 1328.67 249.646 15
-11 -5 -2 1534.27 175.359 6
-5 11 -2 1243.65 189.982 3
-5 11 -2 1188.97 222.183 14
-5 11 0 6231 374.69 12
5 11 0 5478.84 429.007 11
-11 -5 0 5514.2 313.017 6
-5 -11 0 5294.99 406.516 10
11 -5 0 5890.15 418.133 10
11 0 5 5578.81 517.511 5
-5 -11 0 7131.26 562.315 9
-11 -5 0 5605.08 502.685 9
-11 0 -5 5877.9 516.398 3
-11 5 0 5634.46 511.759 6
11 0 5 5127.04 503.39 2
11 0 5 6290.89 548.309 4
-11 0 -5 6032.73 550.677 1
5 -11 0 5775.92 471.976 10
5 -11 0 5810.47 379.117 4
11 -5 0 4824.16 522.731 2
11 5 0 5107.12 529.196 2
5 -11 0 5369.67 478.746 2
-11 0 -5 5323.69 511.588 8
-11 -5 0 5064.81 494.481 8
-11 5 0 5865.48 486.214 8
-11 5 0 5088.82 506.671 1
-11 -5 0 4952.22 464.544 1
11 0 5 6236.44 477.555 7
5 -11 0 5002.68 513.016 7
-5 -11 0 5753.85 490.672 16
-11 -5 0 5031.38 387.978 16
-5 11 0 6109.24 384.087 3
-11 -5 0 5309.89 376.339 15
-5 -11 0 5341.02 476.681 15
-11 -5 0 5177.44 428.898 3
-11 5 0 4924.95 479.371 3
5 -11 0 5624.82 440.738 15
-5 11 0 5717.57 486.119 6
5 -11 2 1207.9 203.001 15
11 5 2 1373.4 225.822 2
5 11 -2 1406.58 234.554 11
11 -2 5 1298.61 187.732 10
-5 11 2 1373.83 262.157 6
5 -11 2 1371.8 228.828 10
11 -5 -2 994.295 303.26 2
-11 -5 2 1332.86 256.563 3
-11 -2 -5 1903.26 298.289 9
-11 -2 -5 1395.93 274.574 1
-5 -11 -2 1253.81 233.498 9
-11 -5 2 1479.24 283.144 9
11 -2 5 1460.61 284.34 4
5 -11 2 1722.18 230.366 4
11 -2 5 1659.07 256.025 7
11 -2 5 1983.2 313.938 2
11 5 2 1534.89 247.876 4
-11 -5 2 263.736 197.908 1
-11 -5 2 1131.97 259.888 8
-5 -11 -2 1209.14 239.303 16
5 -11 2 1332.63 239.125 7
-5 -11 -2 1268.91 226.658 15
11 -5 -2 1346.78 290.14 7
-11 -2 -5 1179.41 235.146 3
-4 11 -5 702.396 190.958 6
-11 5 -4 960.151 212.796 6
-4 11 -5 720.972 217.328 11
-11 5 -4 1376.25 274.42 1
11 -4 5 623.405 133.655 10
5 -11 4 941.246 227.237 10
-5 -11 -4 1038.35 239.124 15
5 -11 4 842.05 208.292 15
-11 -4 -5 1063.46 226.258 9
-5 -11 -4 802.701 206.971 9
-5 -11 -4 909.443 227.274 16
11 -4 5 1071.21 231.438 7
-5 -11 -4 553.523 170.34 8
11 -4 5 710.814 213.24 4
11 5 4 1157.22 234.014 4
-11 -4 -5 910.413 249.034 8
-11 5 -4 814.613 210.667 8
5 -11 4 911.46 172.521 2
11 -4 5 1075.75 240.56 2
-11 -4 -5 753.968 180.036 16
11 5 4 856.12 136.583 7
5 -11 4 845.635 195 7
-11 -4 -5 921.676 221.4 1
11 -4 5 631.534 201.807 5
-11 -4 -5 950.042 223.186 3
4 11 5 944.1 243.297 12
-11 5 -4 745.973 205.589 3
-11 5 -6 844.891 219.128 6
-6 11 -5 812.624 213.236 6
11 5 6 577.422 185.45 12
6 11 5 851.428 227.083 12
11 5 6 572.96 188.497 5
-11 -6 -5 776.024 215.216 9
-11 5 -6 492.561 166.329 8
11 -6 5 749.157 219.048 4
11 5 6 722.339 241.232 2
-11 -6 -5 733.53 244.843 8
11 -6 5 627.049 161.276 2
-6 11 -5 677.624 148.761 1
-11 -6 -5 934.508 181.712 16
11 -6 5 884.392 220.216 7
-11 5 -6 900.82 223.446 1
-11 -6 -5 792.212 189.046 1
-11 -6 -5 419.347 192.571 3
-11 5 -6 629.707 183.414 3
6 11 3 72.9243 160.809 13
6 11 3 59.6368 134.486 12
-6 11 -3 27.4991 89.6686 11
-6 -11 3 45.268 98.73 10
-6 11 -3 57.7857 88.6979 1
11 -6 3 21.9305 80.2788 10
11 3 6 6.60005 71.791 5
6 11 3 32.7462 66.4129 5
6 -11 -3 213.869 141.915 10
11 -6 3 102.261 101.773 5
-11 6 3 394.382 235.384 3
-6 -11 3 38.895 112.425 16
-11 3 -6 126.83 141.429 3
-11 -6 -3 49.2327 97.8687 9
-11 -6 -3 203.048 125.908 1
-6 -11 3 273.983 224.794 9
-11 3 -6 152.161 144.826 8
11 3 6 136.986 141.096 2
-11 6 3 127.361 237.152 1
-11 -6 -3 173.607 147.338 8
11 -6 3 277.73 172.769 4
6 -11 -3 49.5452 182.027 7
6 -11 -3 105.306 106.206 16
6 -11 -3 183.311 110.352 4
11 6 -3 126.236 170.346 4
-11 -6 -3 152.395 82.8896 16
11 -6 3 69.0881 111.267 2
-6 11 -3 141.861 90.1839 6
-6 -11 3 61.5217 130.411 15
-11 3 -6 5.89429 117.805 1
-6 11 -3 51.2574 99.5379 3
-11 -6 -3 124.552 85.9443 15
6 -11 -3 13.5843 66.5531 15
11 -6 3 75.4114 134.244 7
-6 11 -3 185.061 133.474 14
-11 -6 -3 11.8227 86.5452 3
-11 -6 -1 336.342 81.2483 6
-11 -6 -1 328.888 129.285 1
-11 -6 -1 196.125 89.5986 3
-6 11 -1 326.644 103.066 3
-6 11 -1 251.412 154.809 6
6 11 1 325.716 117.182 11
-11 6 1 520.961 212.645 6
-11 6 1 775.177 223.433 3
-6 -11 1 610.167 174.177 10
11 6 -1 345.543 221.701 2
11 1 6 206.205 133.182 5
11 -6 1 200.751 81.6844 10
6 -11 -1 335.634 144.488 10
6 11 1 265.748 130.282 5
11 -6 1 294.498 134.801 5
11 6 -1 247.225 154.544 5
-11 -6 -1 207.727 140.915 9
-6 -11 1 696.143 243.435 9
11 1 6 358.769 151.277 4
-11 1 -6 412.967 208.678 8
11 1 6 207.801 137.372 2
-11 6 1 228.492 181.354 1
-11 -6 -1 170.862 123.686 8
-6 -11 1 468.118 215.749 8
11 -6 1 460.702 187.91 4
-11 6 1 186.821 118.455 8
6 -11 -1 261.852 113.389 4
11 6 -1 303.407 138.631 4
6 -11 -1 416.049 236.879 2
-11 -6 -1 379.626 144.201 16
-6 -11 1 385.023 152.013 16
11 -6 1 322.733 153.486 7
-6 11 -1 258.755 129.27 1
-6 -11 1 1061.29 267.051 15
6 -11 -1 346.607 169.12 7
6 -11 -1 105.915 109.768 16
-11 1 -6 397.998 168.494 3
-11 -6 -1 337.489 129.356 15
-11 1 -6 174.098 150.925 1
6 -11 -1 256.167 112.75 15
11 6 -1 262.542 102.775 14
11 -6 1 349.736 150.375 2
11 6 1 247.75 142.6 2
-6 11 1 205.245 111.182 13
11 -1 6 251.125 126.313 7
-11 6 -1 378.989 141.08 3
-11 6 -1 513.697 177.938 6
11 -6 -1 431.442 198.175 2
-6 11 1 418.309 173.446 6
-6 11 1 341.285 116.421 3
-11 -6 1 242.667 101.717 6
-11 -6 1 402.902 177.722 3
-6 11 1 410.426 211.322 1
6 -11 1 165.423 104.509 10
11 -1 6 29.1254 106.353 5
-6 -11 -1 203.28 112.144 10
11 -6 -1 432.619 126.885 10
11 6 1 189.994 139.653 5
-11 -6 1 469.236 200.257 1
-6 -11 -1 96.8189 83.662 15
6 11 -1 357.459 144.118 5
-6 -11 -1 224.761 143.764 9
11 -6 -1 446.21 149.622 5
-11 -6 1 546.852 201.763 9
11 -1 6 278.522 144.899 4
-11 -1 -6 186.375 173.155 8
11 -1 6 236.412 140.82 2
-6 -11 -1 528.051 182.498 8
6 -11 1 293.474 116.775 4
-11 6 -1 441.077 156.56 8
-11 -6 1 998.632 294.438 8
11 6 1 303.904 149.847 4
6 -11 1 341.107 120.9 15
11 -6 -1 311.572 225.647 4
-11 -1 -6 177.478 128.177 1
6 11 -1 359.106 132.186 11
-6 -11 -1 548.457 207.595 16
6 -11 1 451.377 174.806 16
-11 -6 1 228.165 156.69 16
-11 6 -1 336.99 157.627 1
6 -11 1 249.379 154.785 7
-11 -6 1 550.113 165.617 15
-11 -1 -6 381.461 163.973 3
11 -6 -1 341.794 187.64 7
6 -11 1 233.923 138.815 2
6 11 -1 442.136 193.144 14
11 6 1 436.727 129.543 14
-6 11 3 27.5466 94.0445 13
11 6 3 115.516 90.9406 13
11 6 3 76.6382 143.89 12
-11 6 -3 226.024 139.958 6
-11 6 -3 73.3281 96.3485 11
-11 6 -3 160.073 145.521 3
-6 11 3 165.536 136.363 6
-6 -11 -3 262.623 164.054 16
11 -3 6 13.6279 73.5454 7
6 -11 3 157.086 114.483 10
-6 -11 -3 102.539 109.099 10
-6 11 3 261.624 193.069 3
11 6 3 63.9424 93.0778 5
-11 -3 -6 83.4479 111.844 9
-11 -6 3 430.904 255.771 3
11 -6 -3 59.5609 222.557 2
-11 6 -3 62.6849 111.344 1
-6 -11 -3 110.677 104.007 9
-6 -11 -3 229.135 147.198 15
6 -11 3 309.093 166.634 16
-11 -6 3 135.712 155.243 9
11 -3 6 47.8906 82.7813 4
6 -11 3 164.078 137.159 4
-11 -3 -6 200.217 158.593 8
11 -3 6 57.4968 77.2353 2
-6 -11 -3 7.22622 91.882 8
11 6 3 100.894 104.133 4
-11 6 -3 41.543 82.4172 8
-11 -6 3 81.7852 152.967 8
-11 -3 -6 62.8753 100.035 1
11 -6 -3 387.095 299.394 4
6 -11 3 27.0101 70.1122 2
6 11 -3 91.3691 116.959 14
11 6 3 163.107 120.176 2
-11 -6 3 95.3155 125.453 15
6 -11 3 24.5081 75.7862 15
6 -11 3 230.974 141.487 7
11 -6 -3 227.113 217.119 7
-11 6 -5 696.917 216.157 1
-11 6 -5 736.292 190.18 6
11 6 5 610.41 200.087 12
-11 -5 -6 806.828 195.876 1
11 -5 6 837.494 212.61 7
6 -11 5 875.47 185.044 7
11 -5 6 808.468 163.878 10
6 -11 5 677.094 189.063 10
-11 -5 -6 968.046 246.95 9
-6 -11 -5 664.691 197.962 9
11 6 5 520.721 173.042 4
11 -5 6 1061.66 261.216 4
-6 -11 -5 654.394 170.801 8
-11 -5 -6 653.507 209.362 8
-11 6 -5 942.753 193.82 8
6 -11 5 653.506 152.503 2
11 -5 6 861.856 238.241 2
11 6 5 992.092 208.259 2
11 6 5 780.242 206.95 5
-11 6 -5 629.097 165.394 3
-6 -11 -5 875.33 218.252 15
-7 11 -6 410.495 134.611 6
7 11 6 90.7605 155.168 12
-11 -7 -6 724.865 229.135 1
-7 11 -6 578.163 198.218 11
11 -7 6 736.958 189.499 10
-11 -7 -6 421.155 193.167 9
11 -7 6 542.484 187.924 4
-11 -7 -6 726.209 221.611 8
11 -7 6 342.958 160.034 2
-11 -7 -6 677.914 181.629 16
11 -7 6 643.683 187.664 7
-7 11 -4 238.372 174.166 6
-7 11 -4 26.281 79.3564 1
7 11 4 90.7631 135.729 12
-11 -7 -4 6.97186 139.652 1
11 -7 4 180.915 120.148 10
11 -7 4 112.173 106.635 5
7 11 4 50.0304 94.6512 5
7 -11 -4 28.1417 110.581 10
-7 -11 4 210.716 240.571 9
7 11 4 216.824 165.476 13
11 -7 4 49.3502 120.734 4
-11 -7 -4 48.0311 114.549 8
7 11 4 23.2749 64.4042 2
-7 11 -4 192.008 145.944 11
7 -11 -4 106.965 115.484 16
-11 -7 -4 111.193 107.953 16
11 -7 4 40.2596 110.809 7
-7 -11 4 437.916 221.7 15
11 -7 4 53.0317 48.8659 15
-7 11 -4 218.05 127.327 3
-7 -11 4 235.28 178.721 16
7 -11 -4 31.6394 170.91 7
-7 11 -4 273.318 147.538 14
11 -7 4 50.4772 116.908 2
-7 11 -2 881.486 175.627 3
-11 -7 -2 1044.5 205.841 3
-7 11 -2 1028.51 234.844 6
-7 11 -2 840.404 198.131 11
-7 -11 2 653.362 197.266 16
-11 7 2 550.085 210.04 6
-7 -11 2 631.575 146.049 10
11 -7 2 797.871 163.724 10
-11 7 2 869.525 251.691 3
7 -11 -2 724.701 164.29 15
7 -11 -2 817.901 201.077 10
-7 -11 2 932.166 160.313 3
-11 -7 -2 710.84 134.407 16
7 -11 -2 857.012 259.606 2
-11 7 2 398.121 196.328 1
-11 -7 -2 893.775 204.942 9
11 7 -2 725.548 322.467 5
-7 -11 2 736.185 228.944 9
-7 11 -2 760.156 188.731 1
-11 -7 -2 922.042 229.752 8
-7 -11 2 900.339 307.542 8
11 7 -2 1203.11 279.166 4
-11 -7 -2 1069.26 201.601 1
11 -7 2 721.388 231.474 7
-7 -11 2 773.928 225.786 15
7 -11 -2 620.497 233.166 7
11 -7 2 859.341 212.208 2
-11 -7 -2 752.171 168.25 15
-7 11 -2 781.275 187.202 14
-7 11 0 1951.83 273.818 13
11 -7 0 2121.71 354.612 2
7 11 0 2397.75 276.036 11
11 -7 0 2732.8 321.762 10
-11 7 0 2434.48 360.92 1
-7 -11 0 2670.99 198.367 3
-11 -7 0 2249.7 341.661 9
-11 -7 0 2404.9 287.773 16
-11 7 0 2053.5 295.164 8
-7 11 0 2853.38 295.367 3
7 -11 0 2428.9 286.71 15
11 -7 0 1799.08 307.224 7
-7 11 2 955.245 224.317 13
-11 7 -2 1025.63 129.017 13
-11 7 -2 741.832 183.835 3
-7 -11 -2 955.334 234.22 16
7 11 -2 780.47 173.518 11
-11 7 -2 955.868 220.807 6
-7 11 2 687.084 204.935 6
7 -11 2 1101.13 212.367 10
-7 11 2 920.361 198.913 3
11 -7 -2 596.536 230.152 2
-7 -11 -2 795.669 162.943 10
11 -7 -2 997.939 209.625 10
11 7 2 506.07 154.644 5
-7 -11 -2 692.978 208.049 9
-11 -7 2 475.826 184.713 9
7 -11 2 783.734 167.165 4
-7 -11 -2 895.886 199.817 8
7 -11 2 1064.7 181.881 15
11 7 2 1103.53 199.762 4
-11 7 -2 878.567 169.434 8
-11 7 -2 597.222 185.044 1
-11 -7 2 566.06 223.026 8
11 -7 -2 1341.64 352.838 4
-11 7 -2 952.054 204.009 11
-11 -7 2 804.506 209.833 16
7 -11 2 491.131 105.936 7
-11 -7 2 1026.63 208.325 15
7 -11 2 758.738 140.256 2
-7 -11 -2 809.34 206.975 15
11 -7 -2 637.801 235.805 7
11 7 2 653.004 171.002 2
-7 11 2 607.912 230.669 1
7 11 -2 931.02 230.118 14
-11 7 -4 64.9041 129.206 6
-11 7 -4 119.175 118.202 11
7 -11 4 88.8826 94.0599 10
-11 7 -4 37.2324 130.944 1
-7 -11 -4 1.13773 73.7108 1
-7 -11 -4 83.1296 114.926 9
7 -11 4 63.0473 117.582 4
-7 -11 -4 141.316 143.436 8
-11 7 -4 159.151 109.396 8
7 -11 4 103.864 87.122 2
7 -11 4 41.9936 100.347 7
-7 -11 -4 202.8 154.86 16
7 -11 4 9.48636 131.555 16
-7 -11 -4 61.611 134.439 15
7 11 -4 149.56 101.986 14
-11 7 -4 49.5396 90.3152 3
-11 7 -6 426.445 156.862 6
11 7 6 669.889 213.772 12
7 -11 6 893.402 221.855 10
11 7 6 645.809 213.196 5
-7 -11 -6 583.432 200.739 9
-7 -11 -6 252.586 128.063 8
-11 7 -6 607.707 169.144 8
7 -11 6 242.127 153.192 2
11 7 6 677.235 199.447 2
-7 -11 -6 261.9 106.033 16
7 -11 6 445.18 157.526 7
-11 7 -6 790.817 213.602 1
-11 7 -6 446.918 135.694 3
-11 -8 -7 270.486 156.408 9
-11 -8 -7 183.588 202.778 8
11 -8 7 232.205 161.257 2
11 -8 7 111.756 128.612 7
-11 -8 -5 2376.17 316.235 1
8 11 5 2264.87 424.396 13
8 11 5 2148.32 361.231 12
-8 11 -5 2039.82 312.294 1
11 -8 5 2350.56 302.632 10
8 11 5 1867.59 343.375 5
8 11 5 1357.18 259.566 2
-8 11 -5 969.366 234.737 8
11 -8 5 2097.07 351.105 4
-11 -8 -5 2201.15 346.867 8
11 -8 5 1986.54 334.718 2
-11 -8 -5 2370.3 315.813 16
11 -8 5 2108.05 333.566 7
11 -8 5 2232.94 238.425 15
-8 11 -5 1858.29 325.376 6
-11 8 3 479.516 306.944 1
8 11 3 55.5687 160.662 13
8 11 3 84.3348 142.582 12
-8 11 -3 39.1076 97.6899 6
-11 -8 -3 25.1914 114.12 16
-8 11 -3 37.9453 97.0441 14
-8 -11 3 66.2912 104.045 10
-11 8 3 235.469 193.648 6
11 -8 3 65.2996 111.369 10
-8 -11 3 114.512 150.581 15
11 -8 3 74.0397 126.636 5
-11 8 3 85.3542 192.493 3
8 -11 -3 171.043 172.296 10
8 11 3 35.7614 76.5684 5
-8 11 -3 83.6021 97.1236 1
-8 -11 3 11.2132 156.761 3
-11 -8 -3 363.305 196.992 9
-8 11 -3 1.09662 130.063 11
11 8 -3 167.61 193.393 5
-8 -11 3 41.5554 173.328 9
-11 -8 -3 36.3393 91.5628 1
-11 -8 -3 69.7337 117.701 8
11 -8 3 8.4938 113.633 4
-8 -11 3 21.5534 221.548 8
8 -11 -3 279.288 231.849 4
8 -11 -3 25.1435 95.7643 16
11 8 -3 23.7285 126.949 4
8 11 3 11.7873 75.2529 2
11 -8 3 47.9055 153.989 7
11 -8 3 195.261 143.047 2
11 -8 3 62.0489 76.8749 15
-11 -8 -3 101.509 109.539 15
8 -11 -3 26.8822 168.159 7
-11 -8 -3 68.5428 86.1001 3
-8 -11 3 253.535 176.878 16
-8 11 -3 206.385 128.445 3
-8 11 -1 172.027 152.78 1
-8 11 -1 71.057 96.8255 3
-11 -8 -1 140.698 120.23 3
-8 11 -1 359.322 150.487 6
-8 -11 1 200.792 144.617 15
8 11 1 126.039 89.8817 11
-8 -11 1 123.251 93.7273 3
-11 8 1 522.435 232.249 6
8 11 1 93.8728 117.203 2
-11 8 1 441.786 212.26 3
8 -11 -1 116.454 154.712 7
8 -11 -1 429.966 254.657 2
-8 -11 1 133.982 153.478 10
11 -8 1 2.47623 84.2488 10
8 -11 -1 257.29 150.982 10
-11 -8 -1 112.607 117.703 1
11 8 -1 81.565 270.309 2
11 -8 1 83.4284 75.5279 5
8 11 1 17.4743 88.6945 5
8 -11 -1 68.5251 54.6276 5
11 8 -1 145.312 192.872 5
-11 -8 -1 321.897 230.188 9
-8 -11 1 273.92 200.522 9
8 11 1 54.0093 57.2109 4
-11 -8 -1 218.389 162.112 8
-8 -11 1 298.199 169.32 8
11 -8 1 190.365 172.913 4
-11 -8 -1 235.791 157.078 15
8 -11 -1 203.732 151.808 16
8 -11 -1 118.7 114.554 4
-11 8 1 174.782 108.432 8
11 8 -1 49.9282 105.017 4
-11 8 1 263.258 221.356 1
-11 -8 -1 140.748 116.496 16
11 -8 1 106.264 106.93 16
-8 -11 1 357.508 219.095 16
11 -8 1 197.176 157.16 7
8 -11 -1 144.473 91.8262 15
11 -8 1 111.837 72.9855 15
11 8 -1 63.8473 89.6358 14
11 -8 1 46.7222 149.051 2
8 -11 1 250.612 161.177 2
-11 8 -1 156.002 90.5033 13
-8 11 1 273.532 156.883 13
-11 -8 1 81.2869 214.486 1
11 8 1 1.55021 132.288 2
-8 11 1 163.594 172.236 1
8 -11 1 66.396 120.388 16
-11 8 -1 120.678 145.372 3
8 11 -1 74.7697 97.2306 11
-11 8 -1 234.409 161.928 6
-8 11 1 90.0418 135.803 6
11 -8 -1 104.894 132.603 2
-8 11 1 362.459 155.923 3
-11 -8 1 12.3797 99.3728 3
8 -11 1 209.746 164.73 10
8 -11 1 31.0182 55.7945 5
-8 -11 -1 40.3501 79.6744 10
11 -8 -1 136.667 105.043 10
11 8 1 19.2034 106.015 5
8 11 -1 212.102 113.959 5
11 -8 -1 195.502 134.841 5
-8 -11 -1 252.612 184.348 9
-11 -8 1 161.367 148.135 9
-8 -11 -1 402.502 174.231 8
-8 -11 -1 40.0691 53.1092 3
8 -11 1 64.5447 119.542 4
11 8 1 125.38 121.557 4
-11 8 -1 201.25 130.384 8
-11 -8 1 315.661 261.063 8
8 11 -1 53.7369 65.1707 4
11 -8 -1 90.0252 166.998 4
11 -8 -1 121.521 96.6053 16
-8 -11 -1 118.164 134.338 16
-11 -8 1 133.881 111.47 16
11 -8 -1 237.548 150.908 7
-8 -11 -1 67.7087 79.5851 1
8 -11 1 47.9573 120.322 7
-11 -8 1 134.237 153.221 15
-8 -11 -1 385.466 167.494 15
8 -11 1 13.5117 73.8669 15
-11 8 -1 420.364 199.355 1
-11 8 -1 140.83 115.132 14
8 11 -1 135.483 150.099 14
8 -11 3 117.378 116.381 2
11 8 3 328.626 204.468 13
-11 8 -3 28.8059 125.012 3
8 11 -3 1.61496 92.4772 4
11 8 3 57.8208 156.358 12
-11 8 -3 117.169 142.515 6
8 -11 3 134.568 124.995 16
-11 8 -3 3.23869 123.717 11
-8 11 3 28.0256 179.155 6
8 -11 3 268.752 186.444 10
-8 11 3 16.9984 150.227 3
-8 -11 -3 8.3839 119.563 10
-11 -8 3 299.325 205.293 3
11 8 3 136.981 116.381 5
11 -8 -3 274.21 303.861 2
-8 -11 -3 96.4092 151.436 9
-8 -11 -3 15.5529 64.7834 1
8 11 -3 76.2827 123.166 5
-11 8 -3 127.011 137.757 1
-11 -8 3 102.87 135.57 9
11 8 3 81.4826 121.894 4
8 -11 3 186.842 163.585 4
-8 -11 -3 36.3431 104.032 8
-11 8 -3 100.646 98.1595 8
-8 -11 -3 44.5624 143.811 15
-11 -8 3 520.475 280.152 8
11 -8 -3 56.0183 220.969 4
-8 -11 -3 68.4078 116.619 16
11 8 3 10.6511 85.9377 2
-11 -8 3 101.545 139.54 15
8 -11 3 52.4615 105.168 15
11 -8 -3 44.3575 118.839 7
8 -11 3 135.33 199.05 7
8 11 -3 158.439 142.431 14
-8 -11 -5 1846.17 335.648 15
8 -11 5 1631.34 268.547 10
-11 8 -5 1680.97 303.019 1
11 8 5 2053.11 360.129 5
-8 -11 -5 1953.84 360.338 9
-11 8 -5 1978.89 325.556 6
-8 -11 -5 2017.39 329.423 16
-11 8 -5 2209.18 284.164 8
-8 -11 -5 1847.8 315.956 8
8 -11 5 2218.19 310.781 2
11 8 5 2357.34 307.126 2
-8 -11 -5 1576.45 258.435 1
-11 8 -5 2175.07 349.396 3
-11 8 -7 191.263 119.315 6
-9 11 -6 300.983 152.299 6
9 11 6 328.431 178.55 12
-9 11 -6 295.555 175.937 11
11 -9 6 205.468 117.121 10
-11 -9 -6 162.471 123.626 9
11 -9 6 70.8782 94.2809 4
9 11 6 184.217 110.276 2
-11 -9 -6 81.6177 119.056 8
11 -9 6 275.342 192.71 2
-11 -9 -6 243.047 176.398 16
11 -9 6 67.1843 101.824 7
-11 -9 -6 84.0545 124.455 1
11 -9 6 97.818 100.216 15
-9 11 -6 180.453 137.841 1
9 11 4 493.571 260.547 13
11 -9 4 492.678 129.747 15
-9 11 -4 412.061 166.571 6
9 11 4 447.509 192.386 12
-9 11 -4 295.681 160.118 11
9 -11 -4 763.143 259.349 4
11 -9 4 502.065 172.767 10
-9 11 -4 442.116 160.238 1
9 -11 -4 749.727 308.261 7
-11 -9 -4 595.177 205.039 1
9 11 4 258.626 137.798 5
9 -11 -4 401.964 198.361 10
-11 9 4 879.558 367.892 3
-11 -9 -4 421.711 154.666 9
-9 -11 4 562.282 285.656 9
-9 11 -4 336.348 115.22 8
11 -9 4 386.625 171.265 4
-11 -9 -4 738.644 234.586 8
-11 -9 -4 732.133 219.397 16
11 -9 4 481.543 197.785 2
11 -9 4 551.676 232.03 7
-9 -11 4 134.148 115.404 15
-11 -9 -4 1018.46 238.909 3
-9 11 -4 699.419 206.654 3
-11 -9 -4 501.178 196.265 15
-11 -9 -2 92.0282 85.615 3
9 11 2 363.428 126.699 2
-9 11 -2 99.772 86.7765 3
9 11 2 227.527 158.415 13
9 11 2 278.092 225.014 12
-9 11 -2 429.635 179.683 6
-11 -9 -2 164.957 93.8609 16
-9 11 -2 270.357 156.832 11
11 -9 2 39.9519 107.088 2
9 11 2 319.989 107.045 11
-11 9 2 450.109 254.337 6
-9 -11 2 16.755 94.9033 10
-9 -11 2 424.698 145.811 3
11 -9 2 186.546 147.174 10
9 -11 -2 203.003 88.2646 10
11 -9 2 319.935 108.988 5
9 -11 -2 324.369 193.041 2
9 11 2 252.65 135.767 5
-11 -9 -2 151.233 144.274 9
11 9 -2 373.603 142.009 5
-9 -11 2 237.923 207.213 9
9 11 2 246.943 78.7165 4
-11 9 2 278.286 254.741 1
-11 -9 -2 54.4966 133.006 8
11 -9 2 294.877 128.37 4
-9 11 -2 245.256 103.723 8
-9 -11 2 494.488 179.739 16
-9 -11 2 350.444 240.175 8
-9 11 -2 365.296 168.413 1
9 -11 -2 413.691 135.78 4
11 9 -2 160.342 120.294 4
9 -11 -2 212.909 124.557 16
9 -11 -2 188.307 159.149 7
11 -9 2 201.63 85.6681 16
11 -9 2 74.8845 132.354 7
-9 -11 2 444.034 177.955 15
-11 -9 -2 154.774 87.8694 1
11 -9 2 308.815 92.3408 15
-11 -9 -2 255.304 119.093 15
-11 9 2 255.462 184.211 3
11 9 -2 201.296 98.7471 14
-9 11 -2 308.014 178.915 14
-11 9 0 890.718 177.823 13
-9 11 0 1064.7 204.38 13
-9 -11 0 1254.57 160.492 3
-11 -9 0 843.79 177.967 1
9 -11 0 533.139 174.546 2
-11 -9 0 863.077 175.841 3
9 11 0 1236.18 201.584 11
-9 11 0 1289.81 242.829 3
-11 9 0 1292.56 262.123 3
-9 11 0 1015.9 266.12 6
-11 9 0 831.939 204.656 6
11 9 0 1157.74 288.373 2
-9 -11 0 1240.13 194.717 10
-11 -9 0 885.421 132.784 10
9 -11 0 973.828 236.754 10
11 -9 0 1144.04 236.67 10
-11 9 0 965.214 244.816 1
-9 -11 0 756.153 241.574 9
-11 -9 0 970.133 262.848 9
-9 11 0 621.708 155.075 1
-9 -11 0 1041.79 197.567 1
-11 -9 0 885.678 241.185 8
-9 -11 0 907.268 211.164 8
-11 9 0 934.803 171.542 8
-9 -11 0 995.003 230.08 16
-11 -9 0 991.322 203.197 16
11 -9 0 909.286 255.428 7
-11 -9 0 1003.62 201.557 15
-9 -11 0 1185.68 257.601 15
9 -11 0 806.765 164.171 15
11 -9 0 1157.32 162.907 15
11 9 0 1163.21 223.846 14
9 11 0 1133.8 244.37 14
-9 -11 -2 194.057 100.996 1
-11 9 -2 309.13 95.6531 13
11 9 2 271.952 164.807 13
-11 9 -2 131.484 119.38 3
11 9 2 55.4231 132.9 12
-11 9 -2 140.411 137.01 6
11 9 2 254.506 71.2886 11
-11 9 -2 276.543 165.964 11
-9 -11 -2 371.902 110.348 3
-9 11 2 496.999 218.445 6
-11 -9 2 231.224 97.1874 10
-9 11 2 583.981 209.016 3
9 -11 2 76.0357 119.872 10
-11 -9 2 272.597 149.984 3
11 -9 -2 176.211 211.017 2
-9 -11 -2 334.502 127.898 10
11 -9 -2 321.861 144.209 10
11 9 2 19.288 113.845 5
9 -11 2 430.86 191.882 16
-9 -11 -2 247.943 161.644 9
9 11 -2 381.493 199.169 5
11 -9 -2 431.332 171.874 5
-11 -9 2 281.43 195.52 9
11 9 2 119.023 67.1185 4
-9 -11 -2 273.217 168.251 8
9 -11 2 276.082 119.537 4
-11 9 -2 175.59 104.044 8
-11 -9 2 617.307 262.297 8
-11 9 -2 484.697 210.54 1
11 -9 -2 240.657 207.096 4
9 11 -2 364.167 111.528 4
11 -9 -2 411.27 129.77 16
-9 -11 -2 157.646 118.185 16
-11 -9 2 194.746 168.364 16
9 -11 2 237.849 127.12 7
-11 -9 2 282.935 188.513 15
9 -11 2 268.419 114.153 15
-9 -11 -2 291.472 137.721 15
9 -11 2 187.006 107.85 2
11 -9 -2 97.4355 123.264 7
-9 11 2 128.001 184.988 1
-11 9 -2 256.317 120.555 14
9 11 -2 521.715 163.261 14
11 9 2 363.583 138.488 2
11 9 4 590.801 244.616 13
11 9 4 444.189 211.953 12
-11 9 -4 435.353 175.835 6
11 -9 -4 520.7 355.174 4
-11 9 -4 226.36 115.002 11
9 -11 4 760.87 226.562 10
-9 11 4 267.913 254.267 6
-11 9 -4 562.531 216.661 1
11 9 4 857.757 251.04 5
-9 11 4 170.301 206.777 3
-11 -9 4 41.0796 183.291 9
11 9 4 368.316 169.84 4
9 -11 4 420.679 171.693 4
-9 -11 -4 174.788 148.225 8
-11 9 -4 672.358 175.833 8
9 -11 4 411.744 165.128 2
-9 -11 -4 482.169 182.604 16
11 9 4 369.255 121.69 2
9 -11 4 435.761 160.905 7
-11 -9 4 221.335 209.536 15
9 -11 4 357.839 147.537 15
-9 -11 -4 479.779 189.932 15
11 -9 -4 84.8217 202.951 7
-11 9 -4 534.974 252.812 3
-11 9 -6 312.12 178.584 6
11 9 6 7.25087 133.788 12
9 -11 6 201.44 136.94 10
11 9 6 124.7 155.422 5
-9 -11 -6 191.754 160.814 9
-11 9 -6 320.388 116.318 8
-9 -11 -6 375.326 181.808 8
11 9 6 229.956 98.3892 2
9 -11 6 129.765 123.91 2
-9 -11 -6 120.851 83.6151 1
-9 -11 -6 125.457 142.433 16
9 -11 6 191.38 128.21 7
9 -11 6 98.9786 111.744 15
-11 9 -6 25.0734 93.616 3
-11 9 -6 323.61 187.843 1
10 11 3 46.4636 142.544 12
-10 11 -3 170.493 190.028 6
10 11 3 11.9717 172.685 13
-10 11 -3 80.8976 135.254 11
-10 -11 3 11.9277 85.0299 10
-11 10 3 90.2748 166.609 6
11 -10 3 8.10365 108.984 10
11 -10 3 16.1287 75.982 5
-11 10 3 200.638 216.08 3
10 -11 -3 66.5644 174.933 10
-10 -11 3 68.4526 147.768 3
10 11 3 49.1994 122.177 5
-11 -10 -3 3.35459 136.661 9
11 10 -3 45.3774 150.56 5
-10 -11 3 28.1815 123.671 9
-10 11 -3 34.9645 105.704 1
11 -10 3 27.0993 134.229 4
-11 -10 -3 69.7484 147.917 8
-11 -10 -3 54.4808 88.221 1
-11 10 3 106.91 160.138 1
-10 -11 3 508.19 339.364 8
10 -11 -3 130.961 158.297 4
11 10 -3 145.62 175.156 4
10 -11 -3 113.08 128.407 16
-11 -10 -3 69.2268 105.161 16
-11 -10 -3 23.4931 86.8619 3
-10 -11 3 69.3433 134.404 16
11 -10 3 170.366 150.972 7
11 -10 3 69.4325 115.985 2
10 11 3 12.4328 82.1261 2
11 -10 3 28.1825 70.8432 15
-10 -11 3 16.4222 110.013 15
-11 -10 -3 103.497 95.6807 15
11 10 -3 68.4789 97.9578 14
-10 11 -3 85.115 102.986 14
10 -11 -3 221.832 253.569 7
-10 11 -3 75.8265 101.13 3
-10 11 -1 292.194 136.674 13
-11 -10 -1 347.281 131.533 3
-10 11 -1 316.601 121.865 3
-10 11 -1 265.488 111.758 1
-10 -11 1 219.845 143.547 15
-10 11 -1 55.2888 125.42 6
11 -10 1 99.0233 144.571 2
-10 -11 1 182.612 91.6785 3
-10 11 -1 322.103 216.72 11
-11 10 1 167.046 134.56 6
-11 10 1 116.213 122.198 3
10 11 1 36.3164 172.21 2
10 -11 -1 514.156 289.358 2
-10 -11 1 364.113 120.224 10
11 -10 1 200.46 122.626 10
10 -11 -1 226.137 153.437 10
-11 -10 -1 255.367 93.9681 10
11 -10 1 393 129.361 5
10 11 1 322.002 158.965 5
10 -11 -1 498.304 131.393 5
11 10 -1 475.086 230.8 5
-11 -10 -1 453.907 210.605 9
-10 -11 1 244.236 174.109 9
-11 -10 -1 260.999 144.96 1
10 11 1 237.594 97.198 4
-11 -10 -1 370.834 171.228 8
10 -11 -1 640.152 211.675 16
11 -10 1 8.50194 154.879 4
-10 -11 1 189.234 146.34 8
-10 11 -1 217.869 116.639 8
11 10 -1 321.892 146.992 4
10 -11 -1 319.868 178.567 4
11 10 -1 176.454 125.471 14
-11 -10 -1 312.844 128.791 16
11 -10 1 630.79 200.866 16
-10 -11 1 535.285 213.268 16
11 -10 1 66.8805 167.722 7
10 -11 -1 202.469 174.034 7
-11 -10 -1 193.45 124.496 15
11 -10 1 362.57 129.234 15
-11 10 1 263.62 183.168 1
10 -11 -1 269.28 116.946 15
-10 11 -1 19.2571 100.276 14
-10 11 1 170.474 99.7341 13
-11 10 -1 356.258 116.523 13
-10 11 1 192.858 143.038 1
10 -11 1 328.897 146.441 2
-11 10 -1 294.854 172.058 1
-11 10 -1 239.818 136.151 3
11 10 1 405.889 112.619 11
11 10 1 439.768 175.839 2
-11 10 -1 283.967 134.495 6
-11 10 -1 87.4373 93.0283 11
-10 11 1 408.506 225.99 6
-11 -10 1 351.298 131.668 3
-10 11 1 7.46046 133.379 3
11 -10 -1 161.056 207.921 2
-10 -11 -1 199.388 103.171 15
-11 -10 1 270.805 108.099 10
10 -11 1 114.948 115.83 10
-10 -11 -1 337.796 128.533 10
11 -10 -1 506.685 177.221 10
10 -11 1 223.664 84.0536 5
10 -11 1 180.588 199.032 7
11 10 1 339.281 171.806 5
11 -10 -1 491.77 124.749 5
10 11 -1 474.669 176.133 5
-10 -11 -1 368.117 207.498 9
-11 -10 1 95.962 143.052 9
11 10 1 284.427 114.412 4
-10 -11 -1 291.432 160.708 8
10 -11 1 61.6296 97.4637 4
-11 -10 1 478.173 219.716 8
-11 10 -1 459.49 158.461 8
10 11 -1 333.616 141.242 4
11 -10 -1 586.658 218.161 4
11 -10 -1 388.646 153.842 16
10 -11 1 504.418 179.703 16
-10 -11 -1 143.794 145.041 1
-11 -10 1 60.9558 96.3979 16
-11 -10 1 159.414 116.101 15
11 -10 -1 16.5638 169.198 7
10 -11 1 311.72 117.645 15
10 11 -1 137.15 99.6333 14
-11 10 -1 226.238 97.7295 14
-11 10 -3 58.6574 165.186 3
11 10 3 151.739 188.371 13
11 10 3 32.9916 158.778 12
-11 10 -3 93.5308 155.155 6
-11 10 -3 147.85 114.703 11
-10 11 3 72.5507 215.114 1
-11 -10 3 37.6829 93.4976 10
-10 11 3 486.246 278.11 6
10 -11 3 29.1129 108.897 2
10 -11 3 41.7071 118.386 10
-10 11 3 28.5003 154.094 3
-11 -10 3 279.935 124.258 3
11 -10 -3 169.162 157.482 10
11 10 3 292.936 166.611 5
-10 -11 -3 105.676 121.021 9
11 -10 -3 154.879 326.968 2
10 11 -3 33.3671 126.446 5
-11 -10 3 237.259 251.594 9
11 10 3 89.2056 78.2972 4
-11 10 -3 235.826 156.48 1
10 -11 3 161.35 136.923 4
-10 -11 -3 358.108 184.967 8
-11 10 -3 2.03013 87.2113 8
-10 -11 -3 83.683 101.65 1
-11 -10 3 212.121 237.323 8
11 -10 -3 197.591 230.137 4
11 -10 -3 111.93 109.253 16
10 11 -3 244.011 190.135 4
-10 -11 -3 69.2295 127.081 16
10 -11 3 99.5659 151.998 16
-11 -10 3 157.457 176.387 16
10 -11 3 10.1087 112.921 7
-11 -10 3 68.9502 172.168 15
10 -11 3 28.8735 99.5811 15
11 10 3 37.5476 85.2815 2
11 -10 -3 60.6044 138.205 7
-10 -11 -3 83.8605 126.045 15
10 11 -3 283.201 175.297 14
-12 0 0 1275.04 223.626 6
-12 0 0 1273.73 267.133 3
0 -12 0 1727.88 272.797 10
-12 0 0 1410.49 276.133 1
-12 0 0 1579.69 256.894 9
-12 0 0 1374.01 274.486 8
0 -12 0 1310.32 197.476 7
0 -12 0 1896.19 291.824 15
12 0 0 1608.81 287.116 7
-1 -12 1 1821.64 291.63 16
-1 12 1 1620.65 223.837 12
1 12 1 1787.76 266.44 12
-1 12 -1 1970.25 249.558 6
-12 1 -1 1814.51 179.528 11
-12 -1 -1 1552.3 221.846 6
-12 -1 -1 1766.71 282.065 3
-12 1 -1 1476.66 252.885 3
-12 1 -1 1666.73 250.327 6
12 -1 -1 1615.82 372.913 2
1 12 -1 1838.73 262.592 11
-1 12 1 1602.06 216.315 6
-1 12 -1 2134.58 311.446 11
-12 1 1 1171.03 253.506 6
-12 -1 1 1105.92 225.303 6
1 12 -1 1943.29 234.592 6
-12 1 1 1593.37 299.089 3
-12 -1 1 1618.92 296.865 3
-1 -12 1 1892.59 280.004 10
-1 -12 -1 2283.42 306.721 10
1 -12 -1 2104.56 304.249 10
12 -1 1 1492.94 257.978 7
-12 1 -1 1740.58 230.467 9
-12 -1 1 1538.03 259.471 9
-12 1 1 1422.84 232.044 9
-12 -1 -1 1831.58 308.803 8
-12 1 -1 1843.34 260.488 8
-12 1 1 1782.52 317.047 1
-12 -1 1 1180.29 266.321 8
-12 1 1 1865.94 314.162 8
1 -12 -1 1809.73 272.992 15
-12 -1 1 1587.77 281.905 1
-1 -12 1 2137.86 229.265 7
1 -12 1 2155.43 269.532 7
-12 1 -1 1244.99 248.322 1
12 1 1 1844.1 252.016 7
-1 -12 1 1533 273.519 15
1 -12 1 1558.68 257.077 15
-12 -1 -1 1747.69 307.601 1
1 -12 -1 1599.74 270.893 7
-1 -12 -1 1863.53 288 15
12 -1 -1 1717.16 320.18 7
12 -1 1 1869.06 311.43 2
12 1 1 1298.59 287.569 2
1 12 1 2013.06 222.379 6
-2 12 0 116.341 61.4416 3
0 12 2 41.13 158.6 13
0 12 -2 106.285 85.8868 6
0 12 2 170.872 92.1589 12
12 -2 0 124.241 108.172 2
12 0 2 164.786 87.5625 12
-2 12 0 5.98596 70.5118 12
-12 0 -2 74.7442 74.9543 3
12 2 0 82.274 170.591 2
2 12 0 129.197 59.628 6
-12 0 -2 149.154 91.903 6
-2 12 0 218.409 91.2427 6
0 12 -2 5.08552 103.311 11
2 12 0 183.235 126.945 11
-12 -2 0 106.889 161.875 3
-12 2 0 200.698 172.732 3
0 12 2 53.0189 101.133 6
0 -12 2 26.6358 143.087 10
-12 0 2 53.8544 156.239 6
-2 -12 0 78.286 133.089 10
2 -12 0 242.951 164.679 10
-12 2 0 4.37012 138.479 1
12 0 -2 75.1831 174.944 2
0 -12 -2 77.4029 117.442 10
-12 0 2 62.6419 164.695 3
12 -2 0 82.9473 70.1289 10
-2 -12 0 80.2094 108.794 15
-12 -2 0 29.7139 148.057 1
12 0 2 12.3677 104.81 5
0 -12 -2 43.2378 81.8594 9
12 -2 0 57.0166 133.381 5
12 2 0 234.618 126.767 5
-12 0 -2 104.578 80.5777 9
2 -12 0 247.846 127.855 9
-2 -12 0 26.3332 119.284 9
-12 0 2 60.0447 215.168 1
12 0 -2 7.8115 171.014 5
-12 -2 0 79.5342 102.62 9
0 -12 2 16.8529 127.473 9
-12 2 0 139.118 98.4567 9
2 -12 0 105.289 59.7375 4
-12 0 -2 140.522 152.767 8
-12 0 -2 233.945 145.278 1
-12 -2 0 50.3139 127.232 8
-12 2 0 17.0327 86.2153 8
12 0 2 25.6949 89.8941 4
-2 -12 0 203.603 104.221 8
-12 0 2 50.6416 172.835 8
12 2 0 240.839 145.149 4
12 -2 0 339.824 174.252 4
12 0 -2 40.7346 217.568 4
0 -12 -2 118.796 93.5406 16
-2 -12 0 82.4828 77.2088 16
0 -12 2 75.0347 119.681 16
0 -12 2 91.5161 70.4589 7
12 0 2 31.3002 83.2432 7
12 0 2 178.151 128.012 2
12 -2 0 383.472 171.701 7
2 -12 0 66.052 97.974 15
12 2 0 138.768 93.1422 7
0 -12 2 357.278 132.117 15
0 -12 -2 159.136 143.479 15
0 -12 -2 329.949 171.095 7
0 12 -2 14.7806 100.959 14
-2 12 2 992.1 207.131 12
-2 12 -2 611.25 162.913 6
-12 -2 -2 870.497 204.098 3
-12 2 -2 1048.82 231.542 3
-12 2 -2 879.013 198.057 6
-12 2 -2 944.621 149.272 11
-2 12 -2 722.205 195.133 11
2 12 2 775.606 131.822 6
-2 12 2 652.242 167.389 6
-12 2 2 613.657 158.679 6
12 2 2 782.232 156.33 7
-2 -12 2 524.146 158.327 10
12 -2 -2 777.753 255.486 2
-12 2 2 406.051 220.118 1
-2 12 2 870.314 146.623 3
12 -2 2 942.015 147.177 10
-12 2 2 950.304 270.74 3
-2 -12 -2 816.303 195.89 10
2 -12 -2 626.525 186.894 10
-12 -2 2 619.147 222.764 3
12 2 -2 752.12 244.88 2
12 -2 2 473.591 145.456 5
2 -12 -2 916.213 167.371 9
-12 -2 -2 698.313 157.151 9
-12 2 -2 669.808 137.546 9
12 -2 -2 831.138 324.917 5
-2 -12 2 941.833 264.504 9
-12 -2 2 598.189 219.127 9
-2 -12 2 728.36 139.878 7
-2 -12 -2 761.771 130.072 8
-12 -2 -2 1025.57 225 8
-12 2 -2 932.215 199.095 8
-12 2 -2 959.246 220.403 1
-12 -2 -2 789.965 211.284 1
12 -2 2 752.973 189.714 4
-12 -2 2 709.36 222.178 8
-12 2 2 598.126 206.199 8
2 -12 -2 839.141 219.275 7
-12 -2 2 587.098 194.136 1
2 -12 -2 906.044 144.317 4
-2 -12 2 704 185.428 16
2 -12 2 922.177 173.132 7
12 -2 2 651.336 175.018 7
-12 -2 2 628.337 137.162 15
-2 -12 2 876.193 196.394 15
12 -2 2 824.459 210.902 2
2 -12 2 707.265 172.687 15
12 2 2 502.832 172.268 2
-2 -12 -2 1201.55 228.262 15
2 -12 -2 803.39 184.703 15
12 -2 -2 762.093 283.331 7
-2 -12 -2 763.895 230.565 7
2 12 -2 881.352 234.479 14
-2 12 -2 814.894 198.367 14
12 2 2 909.951 117.728 14
-1 12 3 1269.17 252.053 13
-12 1 -3 1321.51 262.104 3
-1 12 3 1304.87 239.006 12
-12 1 -3 1118.02 219.329 6
-3 12 -1 1188.45 214.864 6
-12 -3 -1 1465.32 203.005 6
-12 -3 -1 1401.42 251.81 3
1 12 -3 1195.51 230.937 11
-3 12 -1 1067.12 254.519 11
1 -12 3 1472.41 211.926 7
-12 3 1 1034.08 230.062 6
1 -12 3 1354.46 252.109 10
-1 12 3 1552.06 278.555 6
-12 3 1 1430.8 311.78 3
-3 -12 1 1297.02 233.018 10
3 -12 -1 1042.81 216.612 16
12 -3 1 1424.05 188.062 10
-12 -1 3 1246.13 407.82 1
-1 -12 -3 1602.51 287.472 10
3 12 1 1252.11 180.241 5
-12 -1 3 928.691 318.946 3
12 -1 -3 1173.52 382.561 2
-1 -12 -3 1006.84 175.628 9
-12 1 -3 1536.92 261.579 1
-12 1 -3 1094.69 175.976 9
-12 -3 -1 1683.22 257.675 9
-3 -12 1 1499.5 310.332 9
-1 -12 -3 1145.74 175.34 8
-12 3 1 1336.29 298.822 1
-12 1 -3 1612.47 245.583 8
-12 -3 -1 1219.39 301.473 8
-12 -1 3 1431.07 348.535 8
-3 -12 1 1214.76 256.653 16
12 1 3 1140.05 223.746 2
12 1 3 1507.22 218.565 7
-3 -12 1 1437.76 180.7 7
12 -3 1 953.517 217.717 7
-3 -12 1 1200.15 245.923 15
3 -12 -1 1599.51 278.126 7
12 -3 1 1450.82 273.643 2
-12 -3 -1 1498.05 176.909 15
3 -12 -1 1512.9 252.24 15
-1 -12 -3 1506.14 250.573 15
-12 -3 -1 1491.32 261.128 1
3 12 1 1310.18 171.062 6
3 -12 1 1393.14 203.231 2
1 12 3 958.598 228.049 13
3 12 -1 1417.96 198.302 6
-3 12 1 1211.67 229.811 13
-1 12 -3 1541.89 240.611 6
-12 -1 -3 1528.77 262.76 3
1 12 3 1077.23 224.493 12
-3 12 1 1307.39 205.288 12
-12 -1 -3 1400.35 206.456 6
-1 12 -3 1119.26 233.847 11
-12 3 -1 1325.24 263.061 6
12 -3 -1 1322.59 333.205 2
3 12 -1 1477.74 244.961 11
-3 12 1 1125.53 230.649 6
-12 -3 1 1273.83 204.729 6
-1 -12 3 1476.98 253.237 10
1 12 3 1354.36 246.018 6
-12 -3 1 1126.59 255.602 3
3 -12 1 1247.14 250.977 10
-12 1 3 1130.93 364.163 3
1 -12 -3 1331.01 216.346 9
-12 -1 -3 1615.23 280.304 1
12 1 -3 1248.3 395.288 2
-12 -1 -3 1190.07 213.619 9
-12 3 -1 1444.35 192.509 9
-12 -3 1 1185.07 250.059 9
3 -12 1 1669.62 206.623 4
-12 -1 -3 1605.71 281.983 8
-3 -12 -1 1717.8 227.614 8
-12 3 -1 1400.11 245.465 8
-12 1 3 1373.49 423.052 1
-12 -3 1 1125.31 250.4 8
-12 1 3 1131.48 298.009 8
-3 -12 -1 1303.48 220.932 7
-1 -12 3 1373.56 207.138 7
12 -1 3 1135.14 230.157 2
12 -1 3 1401.57 213.178 7
3 -12 1 1467.43 244.574 7
-1 -12 3 1345.22 284.745 15
-12 3 -1 1168.6 263.786 1
12 3 1 1353.88 212.806 7
12 -3 -1 1149.31 241.269 7
1 -12 -3 1097.69 212.078 15
-12 -3 1 1473.93 299.849 1
1 -12 -3 1073.1 310.639 7
12 3 1 806.04 201.434 2
3 12 -1 1422.74 295.609 14
-3 12 3 1394.89 270.74 13
-12 -3 -3 1343.99 247.045 3
-12 -3 -3 1372.81 204.882 6
-12 3 -3 1383.75 258.123 3
-3 12 -3 1615.82 271.379 6
3 12 3 1555.62 287.193 12
-12 3 -3 1520.77 276.151 6
-12 3 -3 1269.1 202.31 11
-3 12 -3 1160.34 253.769 11
12 -3 3 1674.77 201.686 10
3 12 3 1916.44 240.232 6
-3 -12 3 1114.08 228.712 10
-3 12 3 1479.5 316.767 6
3 -12 -3 1172.14 248.743 10
-3 -12 -3 920.355 221.531 10
-12 3 3 1010.82 348.498 3
12 -3 3 1652 275.834 5
-12 -3 3 908.86 288.074 3
12 -3 -3 1492.79 423.865 2
-3 12 3 1460.57 365.068 3
-12 -3 -3 1535.24 264.097 9
-12 3 -3 1244.87 177.118 9
-12 3 3 933.764 283.792 1
3 -12 3 1483.46 183.737 2
-12 3 -3 1513.95 291.748 1
12 3 -3 1447.71 462.123 2
-12 -3 -3 1197.09 246.457 1
12 -3 3 1355.05 186.319 12
-3 -12 -3 1368.32 196.021 8
-12 -3 -3 1478.57 294.47 8
-12 3 -3 1470.84 255.552 8
12 -3 3 1288.88 281.138 4
-3 -12 3 1413.69 194.552 7
-12 -3 3 870.259 249.223 8
-3 -12 -3 1180.59 241.153 16
-12 -3 -3 1438.04 179.516 16
3 -12 3 1571.77 274.594 7
12 -3 3 1236.7 268.779 2
12 3 3 1579.88 266.892 2
12 -3 3 1421.2 267.88 7
12 3 3 1478.53 207.642 7
-3 -12 3 1244.19 282.972 15
-3 -12 3 1162.56 305.557 16
-12 -3 3 1270.76 376.808 1
-3 -12 -3 1310.54 255.185 15
3 -12 -3 1277.02 248.389 15
3 -12 -3 802.426 241.643 7
-3 12 -3 970.312 195.982 1
-3 12 -3 1027.85 221.808 14
-12 2 -4 155.828 152.372 3
-2 12 4 347.077 190.454 13
12 -4 2 162.044 80.6755 12
-12 2 -4 354.01 128.245 6
12 2 4 180.137 117.758 12
4 12 2 42.4095 110.146 12
2 12 -4 47.4774 94.5592 11
-4 12 -2 141.189 103.756 11
-2 -12 -4 11.3749 90.9431 15
-12 4 2 74.0485 149.154 1
-12 2 -4 171.571 126.667 1
2 -12 4 206.212 117.898 10
-12 4 2 248.17 215.575 6
12 -4 2 231.82 106.835 10
2 -12 4 178.35 125.551 7
4 12 2 179.816 114.786 5
-2 -12 -4 350.497 151.807 10
12 4 -2 34.395 219.33 2
12 2 4 320.953 213.126 5
12 -4 2 400.961 179.594 5
-2 -12 -4 38.9702 73.3102 9
-12 2 -4 139.709 102.313 9
4 -12 -2 128.416 95.64 9
-12 -4 -2 78.301 93.6757 9
-4 -12 2 342.524 219.251 9
2 -12 4 222.946 102.804 2
-2 -12 -4 136.78 101.566 8
-12 2 -4 177.496 113.232 8
12 2 4 234.712 143.947 4
-12 -4 -2 417.617 180.848 8
12 -4 2 135.99 156.924 4
-12 4 2 72.1677 150.642 8
4 -12 -2 164.747 98.9103 4
12 4 -2 216.024 185.789 4
12 2 4 126.024 125.951 2
-2 -12 -4 197.2 124.141 16
-4 -12 2 309.058 107.296 7
12 2 4 204.619 114.873 7
2 -12 4 478.37 213.814 16
12 -4 2 292.848 162.069 7
2 -12 4 335.473 166.739 15
-4 -12 2 437.378 207.799 15
12 -4 2 107.689 148.304 2
-4 12 -2 312.857 119.976 3
4 -12 -2 324.433 199.859 7
4 -12 -2 253.251 146.665 16
2 12 -4 213.798 178.548 14
-4 12 -2 7.71597 93.8581 14
-4 12 0 1618.2 213.014 12
12 0 4 1570.38 250.722 12
12 -4 0 1697.1 377.56 2
0 -12 4 1843.05 255.599 7
12 4 0 916.683 259.568 2
0 12 -4 1648.82 301.09 11
-4 12 0 1484.3 254.177 6
4 12 0 1523.45 243.482 11
-12 0 -4 1494.76 252.314 6
-12 4 0 1922.46 326.31 6
-12 -4 0 1555.44 282.893 3
-12 4 0 1747.36 304.705 3
-12 0 -4 1782.04 299.337 1
4 -12 0 1998.99 327.792 2
-4 -12 0 1971.76 287.688 10
4 -12 0 1697.41 290.853 10
-12 4 0 1810.83 310.364 1
12 -4 0 1354.68 214.75 10
12 -4 0 1650.67 325.739 7
4 -12 0 1397.77 236.631 15
12 0 4 1689.98 286.151 5
-12 0 -4 1651.06 238.657 9
-4 -12 0 2010.69 344.158 9
-12 -4 0 1622.63 295.883 1
-12 -4 0 1370.97 277.629 9
4 -12 0 1705.13 210.486 4
-12 0 -4 1479.64 285.958 8
12 0 4 1647.44 306.464 4
-12 -4 0 1748.89 336.754 8
-12 4 0 2243.5 341.319 8
12 0 4 1725.55 289.704 2
-4 12 0 1782.46 204.863 3
-4 -12 0 1627.61 285.327 16
12 0 4 1849.2 262.179 7
-12 -4 0 1746.72 239.657 16
-12 -4 0 1675.32 204.206 15
4 -12 0 2006.61 313.883 7
-4 -12 0 1489.51 281.495 15
4 12 0 1915.41 206.481 6
-12 -4 0 1860.41 229.017 6
-12 0 -4 1995.58 318.428 3
2 12 4 381.953 190.503 13
-12 -2 -4 103.644 60.6018 6
-4 12 2 189.645 109.53 13
-2 12 -4 97.9104 98.4773 6
12 4 2 498.137 161.02 13
2 12 4 266.598 138.886 12
-2 12 -4 484.16 211.908 11
4 12 -2 16.5173 77.4592 11
-12 -2 -4 119.97 114.974 1
-4 12 2 18.6308 104.893 6
-2 -12 4 23.0141 108.465 10
12 -2 4 143.834 83.8964 10
12 -4 -2 414.366 309.701 2
4 -12 2 492.118 209.457 10
-12 -4 2 228.025 144.851 3
-4 -12 -2 198.128 101.901 10
2 -12 -4 116.238 117.247 10
12 -2 4 184.599 115.02 5
2 -12 -4 93.8192 89.9546 9
-12 -2 -4 10.7554 88.9754 9
-4 -12 -2 262.645 159.504 9
-12 4 -2 145.72 94.1495 9
12 -4 -2 163.606 155.332 5
-12 -4 2 7.08295 149.098 9
4 -12 2 451.779 176.088 9
4 -12 2 227.025 117.592 4
-2 12 -4 111.135 86.139 14
-12 -2 -4 109.232 145.605 8
12 -2 4 286.416 163.013 4
-12 -4 2 91.63 139.876 8
-2 -12 4 63.1074 132.285 16
2 -12 -4 469.216 193.185 16
-12 -2 -4 163 85.6735 16
-2 -12 4 215.842 113.226 7
-4 -12 -2 132.506 137.782 16
4 -12 2 205.403 142.943 7
4 -12 2 179.862 117.741 15
12 4 2 379.744 170.882 2
-4 -12 -2 145.743 104.224 15
12 -4 -2 215.811 219.637 7
4 -12 2 225.193 174.196 16
2 -12 -4 9.01438 87.6717 15
-12 -4 2 79.3267 146.172 1
-12 -2 -4 148.224 100.983 3
-4 12 4 1127.39 264.571 13
-12 4 -4 1530.21 275.789 3
-4 12 -4 1210.71 237.479 6
4 12 4 1076.66 248.204 12
-12 4 -4 1483.53 263.085 6
-4 12 -4 1172.23 267.001 11
-4 -12 4 1304.71 253.702 10
-12 -4 -4 1110.21 219.032 1
12 -4 4 1302.05 200.118 10
-12 4 -4 1503.53 277.552 1
12 -4 4 1297.28 235.282 5
4 -12 -4 1030.36 219.371 10
-4 -12 -4 508.973 201.383 10
-4 -12 -4 1127.36 239.446 9
-12 4 -4 1455.47 173.231 9
-12 -4 -4 1282.69 261.611 9
-4 -12 4 973.306 306.469 9
-4 -12 -4 1154.56 196.741 8
-12 4 -4 1380.27 252.089 8
-12 -4 -4 1139.76 234.782 8
4 -12 4 1166.74 197.464 2
12 -4 4 1233.68 253.025 4
12 4 4 1144.82 230.69 2
12 -4 4 1450.46 259.64 2
-12 -4 -4 1199.83 173.273 16
-4 12 -4 595.159 201.293 1
4 -12 4 1193.45 232.625 7
12 4 4 1451.45 198.593 7
12 -4 4 1209.38 229.863 7
-4 -12 4 771.98 271.746 16
-4 -12 4 991.146 307.947 15
-4 -12 -4 1372.37 261.328 15
4 -12 -4 1333.11 251.15 15
-12 -5 -3 993.09 200.3 3
-12 3 -5 1276.24 246.65 6
-12 3 -5 1409.84 265.141 1
12 3 5 1366.37 251.455 12
-5 12 -3 1160.25 239.455 6
-5 12 -3 1267.79 251.303 11
-12 -5 -3 1254.9 201.194 16
3 -12 5 570.958 158.854 10
-5 -12 3 1433.9 240.465 10
-12 5 3 956.69 287.366 6
12 -5 3 1133.39 200.151 10
5 12 3 935.156 187.085 5
5 -12 -3 1175.06 268.048 10
-12 5 3 471.319 225.689 3
12 -5 3 1225.66 214.786 5
-12 3 -5 1230.31 196.141 9
-3 -12 -5 1099.57 239.158 9
-12 5 3 622.181 261.519 1
-12 -5 -3 1181.67 232.323 1
-5 -12 3 1079.71 288.573 9
-12 3 -5 759.856 243.744 8
12 3 5 1109.41 230.957 2
-3 -12 -5 1052.53 243.694 16
-5 -12 3 1436.33 178.403 7
3 -12 5 1822.08 275.118 7
12 3 5 1161.49 221.778 7
-5 -12 3 824.112 235.744 16
12 -5 3 1944.4 294.362 7
12 -5 3 1407.18 269.527 2
-5 -12 3 1236.95 269.17 15
-5 12 -3 1011.35 206.737 3
5 -12 -3 1122.66 324.133 7
-12 -5 -3 1117.82 186.685 15
5 -12 -3 1256.27 227.955 15
-3 -12 -5 1307.65 280.405 15
-12 3 -5 1158.29 249.644 3
-12 1 -5 1655.93 294.084 1
-12 1 -5 1942.3 292.001 6
12 -5 1 1996.35 187.991 12
-5 12 -1 1972.26 202.502 12
-12 -5 -1 1729.33 272.683 1
-12 -5 -1 1788.34 271.808 3
-5 12 -1 1915.59 282.007 6
-5 12 -1 1813.74 335.307 11
-12 5 1 1496.58 300.206 6
1 -12 5 935.994 276.2 10
-12 5 1 1862.45 316.64 3
12 5 -1 1370.84 348.1 2
-5 -12 1 2163.81 285.27 10
5 -12 -1 1528.34 272.349 10
12 -5 1 1646.87 222.091 10
12 1 5 2096.57 315.453 5
5 -12 -1 1476.4 326.175 2
-1 -12 -5 1554.02 255.81 9
-12 1 -5 1851.07 266.244 9
-12 -5 -1 1941.99 299.545 9
-5 -12 1 2258.72 356.12 9
5 -12 -1 2025.74 253.888 4
12 1 5 2346.32 340.277 4
-12 1 -5 1196.87 286.679 8
-12 -5 -1 2053.71 330.777 8
-12 5 1 1672.97 322.757 1
12 1 5 2007.82 294.607 2
-12 5 1 1721.45 294.552 8
12 1 5 2512.66 295.96 7
-12 -5 -1 2109 264.164 16
-5 -12 1 1767.73 313.322 16
1 -12 5 1109.39 353.869 16
1 -12 5 1885.56 326.379 15
12 -5 1 1786.76 308.324 7
-5 -12 1 1674.25 290.268 15
5 -12 -1 1971.8 321.719 7
-12 -5 -1 1537.94 202.38 15
5 -12 -1 1902.64 264.659 15
-1 -12 -5 1876.89 326.167 15
-12 1 -5 1960.84 316.527 3
-5 12 -1 2084.03 237.254 3
-12 -5 -1 2252.49 213.443 6
12 -5 1 1817.23 321.029 2
1 12 5 1443.54 286.682 13
-12 -1 -5 2103.78 351.155 1
5 -12 1 2186.88 289.427 2
12 5 1 1720.98 293.78 2
-12 -5 1 1587.01 303.384 1
-12 5 -1 1690.3 280.647 3
5 12 -1 2135.03 288.944 11
-12 5 -1 1862.99 310.187 6
12 -5 -1 1611.63 386.179 2
-5 12 1 1848.93 233.026 3
-12 5 -1 1559.31 242.334 11
12 -1 5 1716.88 192.223 10
-5 12 1 1893.33 298.385 6
-1 -12 5 1776.34 299.006 10
-12 -5 1 1781.27 198.401 6
-12 -5 1 1745.28 278.396 3
-5 -12 -1 1831.85 288.412 15
5 -12 1 2194.81 333.346 10
-5 -12 -1 2408.16 315.353 10
12 -1 5 2034.98 326.525 5
12 -5 -1 1820.02 254.288 10
-12 -1 -5 1869.64 287.07 9
-5 -12 -1 1605.21 276.755 16
-12 -5 1 1342.43 261.984 9
5 -12 1 2020.14 245.241 4
12 -1 5 2047.46 324.927 4
-12 -1 -5 2106.93 341.692 8
-5 -12 -1 1986.18 264.805 8
-12 5 -1 1852.28 283.626 8
-12 -5 1 1445.54 292.182 8
12 -1 5 2375.61 343.944 2
12 -1 5 2104.51 278.84 7
-1 -12 5 1753.23 369.708 16
5 -12 1 2094.6 325.692 7
-12 -5 1 1612.05 226.964 15
5 -12 1 1653.04 248.784 15
12 -5 -1 1900.92 346.234 7
12 5 1 1522.47 251.668 7
-12 5 -1 1652.19 334.097 1
-12 -1 -5 2080.04 311.841 3
12 5 1 2340.86 261.529 14
3 12 5 837.268 219.725 13
-5 12 3 1017.39 239.604 13
-12 -3 -5 1030.1 229.952 1
-12 5 -3 1515.68 274.956 3
3 12 5 1245.26 266.718 12
-12 5 -3 1384.97 273.181 6
5 12 -3 1058.23 219.611 11
-3 12 -5 1217.04 236.713 11
12 -3 5 1296.85 186.214 10
-5 12 3 1259.39 331.77 6
5 -12 3 1112.15 220.584 10
-5 -12 -3 1510.19 261.524 10
-12 -5 3 897.914 251.236 3
12 -5 -3 681.295 343.654 2
-12 -3 -5 1523.18 277.188 9
-5 -12 -3 1331.5 253.941 9
-12 5 -3 997.46 208.204 1
-12 -5 3 1330.4 314.572 9
5 -12 3 742.386 180.597 4
12 -3 5 1453.14 276.197 4
-12 -3 -5 1285.38 270.85 8
12 -3 5 1441.32 269.469 2
-12 -5 3 942.267 287.329 8
12 -3 5 1431.89 270.725 7
-12 -3 -5 1221.79 188.32 16
-5 -12 -3 1382.36 256.151 16
5 -12 3 1478.98 258.366 7
12 5 3 1473.86 258.077 2
-12 -5 3 792.104 169.875 15
12 -5 -3 814.352 264.988 7
-5 -12 -3 1095 230.226 15
-12 -3 -5 1062.56 218.882 3
5 12 5 104.22 130.444 13
-5 12 -5 191.575 156.849 6
-12 -5 -5 346.93 171.989 1
-12 5 -5 142.391 177.532 6
5 12 5 88.2837 103.918 12
12 5 5 383.579 191.624 12
-12 5 -5 139.764 137.669 1
-5 12 -5 299.15 200.002 11
5 -12 5 81.5046 106.87 10
12 -5 5 282.642 113.869 10
12 -5 5 300.817 178.1 5
12 5 5 324.034 172.572 5
-12 5 -5 221.406 116.15 9
-5 -12 -5 291.624 167.797 9
-12 -5 -5 152.704 133.396 9
12 5 5 521.562 221.761 4
12 -5 5 281.973 144.726 4
-12 5 -5 371.763 158.871 8
-12 -5 -5 193.799 175.562 8
12 5 5 179.483 145.739 2
12 -5 5 445.558 216.23 2
-5 12 -5 387.881 174.003 1
-5 -12 -5 262.351 151.613 16
12 5 5 134.563 108.559 7
5 -12 5 230.037 150.756 7
12 -5 5 256.105 160.374 7
5 -12 5 217.009 119.257 15
-12 -5 -5 21.295 98.754 3
-5 -12 -5 200.492 123.449 15
6 12 4 513.376 186.333 13
-12 4 -6 653.236 218.246 6
-6 12 -4 772.5 196.636 1
12 4 6 153.949 139.205 12
-6 12 -4 376.819 194.843 6
6 12 4 676.121 219.374 12
-6 12 -4 445.689 174.61 11
-6 -12 4 511.343 194.414 10
12 -6 4 388.761 144.739 10
-12 -6 -4 516.433 158.373 3
6 12 4 476.429 196.066 5
-12 -6 -4 463.956 159.817 1
12 4 6 570.925 212.18 5
12 -6 4 768.124 207.62 5
6 -12 -4 422.294 156.396 10
-12 -6 -4 381.046 208.432 9
-6 -12 4 402.863 161.717 9
12 4 6 363.77 181.227 4
-12 4 -6 595.894 198.062 8
-12 -6 -4 529.354 190.13 8
12 -6 4 909.578 240.559 4
12 4 6 871.318 232.47 2
6 -12 -4 206.962 161.581 16
-12 -6 -4 609.268 164.607 16
6 -12 -4 560.006 289.9 4
12 -6 4 705.408 194.18 2
12 -6 4 865.01 239.431 7
-6 -12 4 302.72 149.006 16
-6 -12 4 403.082 189.896 15
-12 4 -6 745.437 260.879 1
-12 4 -6 442.164 146.371 3
-12 -6 -4 498.126 180.572 15
6 -12 -4 748.978 354.422 7
-6 12 -4 620.994 211.105 14
6 12 2 634.191 242.893 13
-12 -6 -2 662.808 185.229 3
-6 -12 2 1085.42 285.499 15
6 12 2 667.465 219.985 12
-6 12 -2 800.309 186.576 6
-6 12 -2 606.434 185.139 11
-12 6 2 845.186 269.795 6
-6 -12 2 692.434 175.803 10
12 -6 2 844.599 195.469 10
-12 6 2 608.844 254.679 3
-12 6 2 804.992 297.956 1
6 -12 -2 443.973 132.634 10
6 12 2 204.698 92.8673 5
12 -6 2 596.941 171.503 5
12 6 -2 180.241 268.714 2
-12 -6 -2 712.848 239.416 9
12 6 -2 452.862 189.536 5
-6 -12 2 1181.72 347.951 9
12 2 6 644.365 204.799 4
-12 2 -6 402.635 131.208 8
-6 12 -2 524.051 149.941 1
12 2 6 676.252 166.86 2
-12 -6 -2 684.765 210.698 8
12 -6 2 575.037 193.085 4
-6 -12 2 946.669 366.814 8
12 6 -2 1033 276.859 4
6 -12 -2 419.339 158.409 16
6 -12 -2 399.295 173.179 7
-12 -6 -2 843.781 206.547 1
-12 -6 -2 759.95 172.374 16
-6 -12 2 836.755 251.524 16
12 -6 2 486.127 158.803 7
-12 2 -6 640.377 197.119 1
12 -6 2 573.188 205.851 2
-12 2 -6 435.755 198.256 3
-12 -6 -2 467.902 116.551 15
6 -12 -2 496.75 159.849 15
-6 12 -2 511.838 134.072 3
-6 12 0 108.981 118.636 13
12 -6 0 40.387 112.181 2
-6 12 0 43.4134 79.9782 3
6 -12 0 289.122 203.212 2
6 12 0 146.576 103.316 11
12 0 6 78.199 121.367 7
12 0 6 22.5547 169.338 5
12 -6 0 194.082 119.398 10
-12 6 0 42.4062 124.575 1
-12 0 -6 82.6182 109.362 9
6 12 0 1.30741 73.0772 5
-12 -6 0 128.024 158.814 9
12 0 6 55.2948 165.398 4
-12 0 -6 45.5556 121.37 8
-12 -6 0 199.293 131.142 1
12 0 6 39.7902 79.458 2
6 -12 0 20.3552 90.11 4
-12 6 0 153.572 126.147 8
-12 -6 0 98.7119 95.7593 16
-12 0 -6 219.399 200.086 1
-12 0 -6 134.345 153.122 3
12 6 0 11.6574 103.392 14
-6 12 2 525.785 200.134 13
-12 6 -2 798.135 201.255 3
-12 -2 -6 535.5 182.097 3
12 6 2 663.73 206.744 12
6 12 -2 559.734 165.812 11
-12 6 -2 507.003 174.793 6
-12 6 -2 466.54 140.828 11
-12 -6 2 414.535 302.71 1
-6 12 2 662.357 234.959 6
-6 12 2 568.903 186.682 3
6 -12 2 712.995 190.359 10
12 -6 -2 835.524 287.922 2
12 -2 6 64.5723 138.964 5
-12 -6 2 895.519 273.125 3
-12 -2 -6 318.699 142.631 9
12 6 2 438.884 195.088 5
-6 -12 -2 586.479 204.912 9
-12 -6 2 428.253 200.666 9
12 -2 6 514.61 220.935 4
-12 -2 -6 400.392 243.339 8
6 -12 2 497.723 129.375 4
-6 -12 -2 677.621 179.982 8
12 -2 6 644.015 206.648 2
-12 6 -2 551.338 177.903 8
-12 6 -2 520.992 222.417 1
-12 -6 2 1038.1 310.344 8
12 -6 -2 849.477 341.181 4
-6 -12 -2 598.826 187.419 16
6 -12 2 661.648 236.277 16
6 -12 2 738.796 221.121 7
-12 -2 -6 697.148 225.176 1
-12 -6 2 771.789 201.363 15
6 -12 2 586.221 149.118 2
6 -12 2 523.482 153.826 15
-6 -12 -2 397.873 168.631 15
12 -6 -2 506.755 248.714 7
12 6 2 516.446 178.384 2
6 12 -2 911.111 256.123 14
-12 6 -4 586.527 182.042 3
12 6 4 778.781 204.684 13
12 6 4 640.976 205.802 12
-12 6 -4 370.144 144.609 6
-12 6 -4 433.524 157.797 11
12 -4 6 508.508 143.68 10
6 -12 4 195.421 118.341 10
-12 6 -4 622.659 186.097 1
12 6 4 587.445 117.857 7
12 6 4 511.763 200.205 5
-12 -4 -6 452.998 190.022 9
-6 12 4 414.791 288.64 3
-6 -12 -4 688.633 221.854 9
12 -4 6 598.971 235.248 4
-12 -4 -6 329.333 144.909 8
-6 -12 -4 440.258 142.9 8
-12 6 -4 366.914 158.768 8
12 -4 6 908.609 260.248 2
6 -12 4 586.695 161.671 2
-6 -12 -4 654.472 193.874 16
12 6 4 528.042 169.026 2
12 -4 6 657.709 219.998 7
6 -12 4 497.274 211.551 16
6 -12 4 546.764 198.402 7
-12 -4 -6 952.835 263.041 1
6 -12 4 603.599 184.633 15
-12 -4 -6 415.331 164.001 3
-6 -12 -4 507.832 181.986 15
6 12 -4 696.139 213.287 14
6 12 6 140.579 142.734 13
-6 12 -6 651.686 271.359 6
-12 6 -6 56.3216 94.8233 6
6 12 6 42.1267 117.949 12
12 6 6 7.53435 104.193 12
-6 12 -6 29.4717 155.804 11
12 -6 6 54.4067 83.6767 10
6 -12 6 65.0086 118.268 10
12 6 6 164.132 155.567 5
-6 -12 -6 94.9707 153.228 9
-12 -6 -6 29.787 140.135 9
12 -6 6 85.987 138.644 4
-12 6 -6 38.7121 107.978 8
-12 -6 -6 112.322 160.493 8
12 6 6 91.4039 124 2
12 -6 6 78.3723 179.948 2
-12 -6 -6 6.11124 82.3807 16
-6 -12 -6 108.056 112.076 16
6 -12 6 20.0413 100.868 7
12 -6 6 30.3488 129.479 7
6 -12 6 11.3739 106.459 15
-12 -6 -6 85.3557 155.002 1
-12 6 -6 144.814 150.74 3
-12 6 -6 14.428 97.2122 1
-6 -12 -6 34.2048 127.313 15
7 12 5 87.4165 144.487 13
7 12 5 175.418 134.638 12
-12 -7 -5 78.709 104.827 1
12 -7 5 135.139 122.442 10
12 5 7 302.348 227.551 5
7 12 5 69.6842 79.1325 2
12 -7 5 380.257 198.278 4
-12 -7 -5 139.242 158.236 8
12 -7 5 210.14 129.745 2
-12 -7 -5 18.7253 101.406 16
-12 5 -7 78.473 121.555 1
12 -7 5 93.7914 145.528 7
12 -7 5 64.2685 64.5536 15
-12 -7 -5 339.066 221.594 3
-7 12 -5 125.204 91.4479 1
7 12 3 131.064 180.416 13
7 12 3 60.6562 215.591 12
-7 12 -3 309.061 175.237 6
-7 12 -3 315.229 162.357 11
-7 -12 3 99.1251 95.9408 10
-12 7 3 187.933 208.931 6
12 -7 3 13.0439 105.945 10
-12 7 3 202.601 291.246 3
7 -12 -3 117.05 124.348 10
7 12 3 8.31491 115.368 5
12 -7 3 222.662 95.6925 5
7 -12 -3 21.9766 53.4368 9
-7 12 -3 61.0023 125.446 1
-7 -12 3 57.9088 128.436 3
-12 -7 -3 214.193 135.962 9
12 7 -3 20.3972 167.801 5
-7 -12 3 140.42 257.138 9
-12 7 3 49.35 211.607 1
-12 -7 -3 15.6103 109.21 1
-12 -7 -3 47.7257 113.921 8
12 -7 3 72.0179 125.764 4
7 -12 -3 38.0285 170.934 4
12 7 -3 314.082 209.695 4
7 -12 -3 152.65 135.87 16
-12 -7 -3 429.796 153.546 16
-7 -12 3 146.735 141.903 16
12 -7 3 94.4225 106.06 7
12 -7 3 17.6475 131.563 2
-7 -12 3 165.201 216.755 15
7 -12 -3 11.1594 149.419 7
-12 -7 -3 219.017 113.644 15
-7 12 -3 29.5225 90.6395 3
-7 12 -3 134.691 123.733 14
-12 -7 -3 0.28099 97.8549 3
12 -7 1 491.89 192.455 2
-12 -7 -1 745.78 117.992 6
-7 12 -1 1019.35 195.917 3
7 12 1 537.712 233.436 12
-12 -7 -1 603.331 167.248 3
-7 12 -1 933.696 214.561 6
-7 -12 1 594.946 109.733 3
7 12 1 837.718 180.175 11
-7 12 -1 691.388 212.721 11
-12 7 1 629.105 218.299 6
-12 7 1 295.831 155.466 3
-7 -12 1 577.199 165.985 10
-12 -7 -1 555.886 178.731 1
7 -12 -1 491.96 278.71 2
12 -7 1 1036.27 221.914 10
7 -12 -1 859.206 225.934 10
12 7 -1 746.512 317.565 2
12 7 -1 856.095 267.574 5
-12 -7 -1 745.021 239.311 9
-7 -12 1 672.429 246.634 9
-12 -7 -1 814.73 228.69 8
-7 -12 1 694.724 264.525 8
-12 7 1 441.461 180.308 8
12 7 -1 850.785 257.492 4
-12 7 1 524.298 199.731 1
7 -12 -1 1011.45 240.905 16
-12 -7 -1 1015.18 219.2 16
-7 -12 1 333.583 179.843 16
12 -7 1 936.198 234.596 7
-7 -12 1 832.426 232.913 15
7 -12 -1 744.193 277.514 7
-12 -7 -1 906.795 188.828 15
7 -12 -1 863.562 209.531 15
-7 12 1 707.114 203.303 13
7 -12 1 860.506 234.586 2
12 7 1 569.095 199.534 2
-12 7 -1 586.249 170.045 3
7 12 -1 1031.17 212.994 11
-12 7 -1 758.105 229.499 6
-12 7 -1 524.157 139.8 11
-7 12 1 879.789 203.418 3
-7 12 1 574.335 203.671 6
12 -7 -1 1100.8 327.735 2
-12 -7 1 756.578 121.872 6
-12 -7 1 617.347 189.291 3
7 -12 1 716.668 214.277 10
-7 -12 -1 868.266 214.064 10
-7 12 1 440.74 227.636 1
12 -7 -1 878.824 206.92 10
12 7 1 895.27 245.364 5
7 12 -1 917.182 227.754 5
-7 -12 -1 768.299 220.309 9
-12 -7 1 831.583 225.998 9
-7 -12 -1 662.859 198.202 8
7 -12 1 719.297 182.61 4
-12 7 -1 706.901 190.991 8
-12 -7 1 577.954 224.391 8
-12 -7 1 784.492 277.963 1
12 -7 -1 711.19 219.981 4
7 -12 1 1132.19 283.908 16
-12 -7 1 913.284 224.338 16
7 -12 1 888.851 270.183 7
-12 -7 1 583.275 182.851 15
12 -7 -1 558.559 226.314 7
-7 -12 -1 460.443 175.398 15
7 -12 1 626.82 180.493 15
-12 7 -1 658.156 114.418 14
7 12 -1 833 274.677 14
12 7 1 790.917 186.78 14
-12 7 -1 620.504 214.632 1
12 7 3 26.2097 115.646 13
-12 7 -3 105.253 122.75 3
12 7 3 80.0528 186.103 12
-12 7 -3 248.64 114.179 6
-12 7 -3 34.4035 126.03 11
-7 12 3 56.0518 247.961 6
7 -12 3 39.571 142.547 10
-7 12 3 135.864 205.868 3
-7 -12 -3 72.8947 156.09 10
-12 -7 3 50.8052 132.212 3
12 7 3 17.6236 159.438 5
12 -7 -3 109.097 242.027 2
-7 -12 -3 187.753 107.839 9
7 -12 3 262.725 165.816 16
7 12 -3 100.376 151.847 5
-12 -7 3 319.933 191.074 9
12 -3 7 134.123 156.574 4
-12 7 -3 200.803 108.882 1
7 -12 3 176.847 105.727 4
12 -3 7 66.9611 136.534 2
12 7 3 74.5839 99.0673 4
-7 -12 -3 15.4916 87.4679 8
-12 7 -3 83.3677 78.2018 8
-12 -7 3 86.9573 232.979 8
12 -7 -3 433.676 295.224 4
-7 -12 -3 58.9128 128.676 16
7 -12 3 27.5917 111.289 2
7 -12 3 124.875 182.045 7
12 7 3 29.5821 84.4539 2
-12 -7 3 95.3675 145.741 15
7 -12 3 1.81176 107.15 15
-7 -12 -3 110.054 113.193 15
12 -7 -3 4.63106 129.986 7
7 12 -3 52.71 91.711 14
-12 7 -5 9.43147 146.907 6
12 7 5 57.4778 124.621 12
-12 7 -5 53.1152 106.656 11
-12 7 -5 80.7287 122.459 1
7 -12 5 104.636 149.688 10
12 7 5 9.47105 137.907 5
-7 -12 -5 57.9815 134.548 9
12 -5 7 99.7911 159.64 4
12 7 5 121.758 160.466 4
-12 -5 -7 160.394 133.308 8
-7 -12 -5 40.0329 92.9356 8
-12 7 -5 93.2867 126.363 8
12 -5 7 23.0499 144.899 2
7 -12 5 47.5429 99.9442 2
-7 -12 -5 44.526 87.1753 1
12 7 5 3.6274 98.3809 2
-7 -12 -5 63.1098 142.217 16
12 -5 7 6.43596 122.053 7
12 7 5 54.5001 65.9866 7
7 -12 5 20.0652 96.7096 15
-7 -12 -5 76.1464 144.599 15
-12 7 -5 39.9798 146.972 3
8 12 4 313.65 221.81 13
-8 12 -4 21.0466 99.8147 6
8 12 4 96.6816 186.773 12
-8 12 -4 139.572 208.774 11
-8 -12 4 151.477 110.726 10
-8 12 -4 151.287 114.028 1
12 -8 4 151.253 133.995 10
12 -8 4 13.7012 78.0557 5
8 12 4 140.167 96.2426 5
8 -12 -4 146.501 150.718 10
-12 -8 -4 16.6087 90.4613 1
-12 -8 -4 99.1244 179.47 9
-8 -12 4 148.847 228.177 9
-8 12 -4 23.0983 51.7528 8
12 -8 4 58.1787 119.864 4
-12 -8 -4 29.8588 107.061 8
8 -12 -4 43.3418 123.222 16
8 -12 -4 193.242 181.99 4
-12 -8 -4 45.879 124.891 16
12 -8 4 202.787 185.179 2
12 -8 4 216.693 166.507 7
-8 -12 4 10.219 137.736 16
-8 -12 4 2.46648 164.717 15
12 -8 4 10.8363 53.9005 15
-8 12 -4 148.305 125.358 3
-12 -8 -4 60.3597 107.967 15
8 -12 -4 10.4099 151.054 7
-8 12 -4 53.9147 84.0976 14
-8 12 -2 634.515 169.536 3
-12 -8 -2 852.823 195.584 3
8 12 2 770.094 262.603 13
8 12 2 627.035 150.645 2
8 12 2 774.154 283.675 12
-8 12 -2 782.436 233.792 6
-8 12 -2 681.594 237.202 11
-12 8 2 810.019 305.409 6
-8 -12 2 736.16 216.946 10
-12 8 2 555.688 241.112 3
-8 -12 2 653.521 155.325 3
12 -8 2 844.285 176.988 10
8 -12 -2 573.078 189.333 10
12 -8 2 714.929 175.569 5
8 -12 -2 632.814 380.84 2
-12 -8 -2 724.19 247.252 9
12 8 -2 648.684 250.227 5
-8 -12 2 363.099 201.989 9
-12 8 2 1080.44 358.801 1
-12 -8 -2 594.181 182.155 8
12 -8 2 807.153 237.838 4
-8 -12 2 835.069 354.288 8
-8 12 -2 579.491 196.221 1
8 -12 -2 641.574 171.757 16
-12 -8 -2 726.601 205.416 16
8 -12 -2 689.174 173.937 15
-8 -12 2 670.821 236.627 16
12 -8 2 1007.93 278.228 7
-8 -12 2 781.199 251.672 15
-12 -8 -2 611.922 176.546 1
8 -12 -2 341.801 213.903 7
-12 -8 -2 688.083 196.912 15
12 -8 2 689.266 122.964 15
12 -8 2 684.665 224.832 2
12 8 -2 674.004 189.675 14
-8 12 -2 528.037 202.989 14
-8 12 0 1325.56 243.131 13
12 -8 0 635.785 284.969 2
-8 12 0 1402.57 230.013 3
8 -12 0 1196.63 292.647 2
8 12 0 1622.32 242.711 11
-12 -8 0 1351.57 247.585 3
-8 12 0 1520.01 278.511 6
-12 8 0 1009.25 244.44 3
-12 8 0 1178.18 268.842 6
12 8 0 1384.34 326.408 2
-8 -12 0 1239.39 221.508 10
8 -12 0 1651.98 287.922 10
12 -8 0 1454.12 254.375 10
-12 8 0 1257.27 291.668 1
-8 -12 0 1024.7 270.534 9
-12 -8 0 1526.49 344.032 9
-8 12 0 1240.8 279.524 1
-12 -8 0 1059.69 283.512 8
-12 8 0 1483.58 257.5 8
-8 -12 0 1315.03 286.188 16
-12 -8 0 1286.67 241.213 16
-8 -12 0 1749.23 179.87 3
8 -12 0 1095.97 280.112 7
12 -8 0 963.618 253.126 7
-12 -8 0 1523.41 271.107 15
-8 -12 0 1669.94 313.004 15
8 -12 0 1169.42 197.991 15
-12 -8 0 1437.82 282.074 1
12 8 0 1217.7 235.143 14
8 12 0 1253.4 309.866 14
-8 12 2 485.31 202.062 13
-12 8 -2 874.126 149.691 13
12 8 2 1082.21 276.049 13
-12 8 -2 806.3 213.205 3
-12 8 -2 561.054 197.263 6
-12 8 -2 623.449 195.636 11
-8 12 2 1042.45 288.559 6
-12 -8 2 657.903 124.679 10
-8 -12 -2 698.687 138.73 1
-8 12 2 915.078 236.569 3
8 -12 2 1084.84 276.397 10
-12 -8 2 856.387 251.819 3
12 -8 -2 329.667 361.269 2
-8 -12 -2 801.347 202.995 10
12 -8 -2 668.179 185.904 10
-8 -12 -2 793.507 260.46 9
8 12 -2 675.418 201.076 5
-12 -8 2 877.748 279 9
8 -12 2 752.664 209.171 4
-8 -12 -2 810.355 242.929 8
-12 8 -2 799.435 198.414 8
-12 -8 2 625.855 237.46 8
12 -8 -2 1362.22 420.727 4
-8 12 2 970.273 347.799 1
-12 8 -2 863.988 252.667 1
-8 -12 -2 401.148 170.805 16
-12 -8 2 668.196 231.274 16
8 -12 2 551.905 239.237 7
-12 -8 2 844.874 229.299 15
8 -12 2 796.389 204.266 15
-8 -12 -2 798.574 242.66 15
12 -8 -2 595.318 258.657 7
8 -12 2 693.219 209.079 2
12 8 2 726.932 191.623 2
8 12 -2 831.505 260.2 14
12 8 4 74.7294 162.021 13
12 8 4 11.2127 147.936 12
-12 8 -4 77.8867 98.5551 6
-12 8 -4 34.7953 94.1413 11
-8 12 4 145.574 308.873 6
8 -12 4 150.373 157.97 10
-12 8 -4 69.0046 145.361 1
-8 12 4 38.9624 224.882 3
-12 -8 4 149.277 202.558 9
8 -12 4 271.557 172.24 4
-8 -12 -4 115.612 130.722 8
-12 8 -4 67.9026 88.1051 8
8 -12 4 34.3922 87.6596 2
12 -8 -4 104.541 522.786 4
-8 -12 -4 103.397 116.749 16
12 8 4 36.8399 93.6322 2
8 -12 4 53.3853 143.583 7
8 -12 4 149.983 168.599 16
8 -12 4 156.258 136.896 15
-8 -12 -4 43.2233 136.631 15
8 12 -4 47.2246 120.934 14
-12 8 -4 123.981 158.192 3
9 12 3 333.734 174.532 13
9 12 3 80.4874 126.797 12
-9 12 -3 272.091 152.531 6
-9 12 -3 320.466 150.774 11
-12 9 3 0.23298 203.829 6
-9 -12 3 106.236 150.965 10
12 -9 3 359.585 128.561 10
-12 9 3 42.0704 163.715 3
12 -9 3 139.176 106.131 5
9 -12 -3 21.9812 124.711 10
9 12 3 279.445 134.725 5
-9 -12 3 400.245 130.847 3
-12 -9 -3 191.318 128.121 9
12 9 -3 89.6677 151.62 5
-9 -12 3 119.583 198.106 9
-9 12 -3 504.509 192.286 1
-12 -9 -3 188.292 145.08 8
12 -9 3 229.977 138.359 4
-12 -9 -3 71.1076 88.1129 1
-9 -12 3 103.518 216.021 8
9 -12 -3 301.403 191.238 4
12 9 -3 302.703 174.815 4
9 -12 -3 358.452 198.088 16
-12 -9 -3 115.041 123.681 16
-9 -12 3 367.79 183.674 16
12 -9 3 136.416 141.835 7
12 -9 3 213.975 135.65 2
9 12 3 260.433 105.71 2
12 -9 3 365.708 110.665 15
-12 9 3 249.335 241.308 1
-12 -9 -3 117.36 118.29 15
9 -12 -3 119.741 167.267 7
-12 -9 -3 353.644 160.514 3
-9 12 -3 334.261 150.04 14
-9 12 -3 189.122 124.901 3
12 -9 1 1170.86 313.551 2
-9 12 -1 801.588 188.892 13
-12 -9 -1 988.973 198.806 3
-9 12 -1 1247.57 242.462 3
-9 12 -1 914.033 229.545 6
-9 12 -1 550.571 177.306 1
-9 -12 1 954.933 162.021 3
9 12 1 709.812 158.26 11
-9 12 -1 1086.29 274.59 11
-12 9 1 765.58 201.283 6
-12 9 1 587.111 217.577 3
9 -12 -1 722.922 320.897 2
9 12 1 1445.76 377.257 2
-9 -12 1 939.895 197.508 10
12 -9 1 671.759 194.401 10
9 -12 -1 837.962 225.404 10
12 9 -1 867.208 427.054 2
12 -9 1 497.327 138.253 5
9 12 1 427.567 134.112 5
9 -12 -1 745.685 105.962 5
12 9 -1 895.595 298.262 5
-12 -9 -1 804.84 252.271 9
-9 -12 1 712.842 265.215 9
-12 -9 -1 504.145 169.708 1
9 12 1 737.559 152.602 4
-12 -9 -1 692.848 255.535 8
12 -9 1 567.319 215.404 4
-9 -12 1 341.604 142.436 8
-12 -9 -1 766.607 213.315 16
-9 -12 1 842.753 227.18 16
-12 9 1 778.642 257.648 1
12 -9 1 613.745 216.201 7
-9 -12 1 682.726 236.801 15
9 -12 -1 873.464 292.336 7
-12 -9 -1 582.049 166.348 15
9 -12 -1 943.118 198.965 15
12 -9 1 779.821 136.882 15
12 9 -1 850.784 227.114 14
-9 12 -1 788.4 191.56 14
-12 9 -1 895.116 178.095 13
-9 12 1 822.178 206.567 13
9 -12 1 455.011 147.232 2
-12 9 -1 700.275 196.857 1
-9 12 1 816.32 247.478 1
-12 9 -1 993.556 239.57 3
9 12 -1 827.314 203.363 11
12 9 1 917.3 265.085 2
-12 9 -1 480.275 184.168 6
-9 12 1 885.421 231.134 3
-12 9 -1 1007.1 239.184 11
-9 12 1 697.997 212.214 6
-9 -12 -1 655.149 170.942 1
-12 -9 1 753.255 193.144 3
12 -9 -1 610.109 262.956 2
-12 -9 1 820.836 112.09 10
9 -12 1 783.283 136.327 5
9 -12 1 786.797 228.949 10
-9 -12 -1 586.053 170.36 10
12 -9 -1 649.206 178.543 10
9 12 -1 566.007 209.693 5
-9 -12 -1 574.227 196.649 9
-12 -9 1 527.366 227.629 9
-12 -9 1 269.426 155.41 1
-9 -12 -1 618.299 222.405 8
9 -12 1 706.61 178.903 4
-12 -9 1 768.767 267.009 8
12 -9 -1 1064.32 297.379 4
-9 -12 -1 1400.17 323.995 16
-12 -9 1 1057.8 265.959 16
9 -12 1 745.174 233.385 7
-12 -9 1 712.038 170.868 15
12 -9 -1 801.522 240.381 7
-9 -12 -1 799.095 222.004 15
9 -12 1 444.918 137.279 15
-9 -12 -1 757.665 142.138 3
-12 9 -1 610.607 139.834 14
9 12 -1 764.301 218.273 14
12 9 1 833.831 218.711 14
12 9 3 174.992 133.854 13
-12 9 -3 415.516 166.279 3
12 9 3 238.524 146.302 12
-12 9 -3 24.4514 137.559 6
-12 9 -3 231.313 144.483 11
12 9 3 194.829 61.4777 11
-12 -9 3 190.742 111.624 10
-9 12 3 64.7286 209.467 6
9 -12 3 253.961 154.893 10
-9 12 3 150.239 139.592 3
-12 -9 3 159.921 171.564 3
-9 -12 -3 60.9604 133.358 10
12 9 3 192.464 128.974 5
12 -9 -3 98.1319 306.914 2
-9 -12 -3 270.321 193.086 9
9 12 -3 293.798 167.511 5
12 9 3 137.692 95.731 4
-12 9 -3 232.636 140.919 1
9 -12 3 298.638 155.709 4
-9 -12 -3 262.473 136.49 8
-12 9 -3 137.235 115.414 8
-9 -12 -3 240.738 94.7863 1
-12 -9 3 120.892 183.287 8
12 -9 -3 42.8605 262.919 4
12 -9 -3 312.063 120.46 16
9 12 -3 130.301 121.354 4
-9 -12 -3 502.933 211.22 16
9 -12 3 403.839 183.69 16
9 -12 3 185.124 162.222 7
9 -12 3 157.795 116.03 2
-12 -9 3 32.6111 133.066 15
9 -12 3 183.023 106.082 15
12 9 3 238.028 140.429 2
-9 -12 -3 159.635 137.37 15
12 -9 -3 675.414 347.905 7
9 12 -3 214.857 125.127 14
0 13 1 117.488 93.8014 12
0 13 -1 10.936 100.565 6
13 -1 0 137.91 166.044 2
-1 13 0 187.679 123.009 12
13 1 0 40.2338 166.923 2
1 13 0 46.2181 85.3002 12
1 13 0 56.4699 81.4747 6
-1 13 0 64.1602 100.114 6
-13 0 -1 66.8412 102.016 3
-13 0 -1 69.3739 128.176 6
0 13 1 106.988 79.8865 6
0 13 -1 41.0278 91.6199 11
-13 -1 0 21.5239 86.0451 6
-13 1 0 130.23 113.688 6
-13 -1 0 42.1409 99.4421 3
13 0 -1 240.139 196.661 2
-13 1 0 22.2386 109.318 3
-13 0 1 83.8722 138.737 6
-13 0 1 96.2382 143.166 3
0 -13 1 170.128 135.93 10
-1 -13 0 149.606 130.586 10
1 -13 0 115.585 163.87 10
0 -13 -1 144.414 145.86 10
1 13 0 9.79912 41.0412 5
-13 1 0 80.3414 143.542 1
-13 -1 0 43.201 84.1422 1
13 0 1 205.444 183.007 5
13 -1 0 318.466 216.927 5
13 1 0 151.988 137.952 5
0 -13 -1 55.337 90.1459 9
13 0 -1 146.458 175.183 5
-1 -13 0 42.8152 101.443 9
1 -13 0 1.16921 97.0582 9
-13 0 -1 99.0032 94.4868 9
0 -13 1 153.667 159.753 9
-13 -1 0 272.721 153.484 9
-13 1 0 269.536 151.142 9
-13 0 1 111.268 126.582 9
-13 0 -1 1.52616 148.335 8
-13 -1 0 167.51 148.856 8
-13 1 0 219.826 154.417 8
-13 0 1 157.112 175.213 8
13 0 1 91.9732 118.321 4
13 1 0 225.566 157.045 4
13 -1 0 199.678 194.907 4
13 0 -1 149.09 195.455 4
-13 0 1 303.709 225.647 1
0 -13 -1 43.0427 134.204 16
1 -13 0 22.4776 89.3087 16
-1 -13 0 75.5025 125.775 16
0 -13 1 408.607 251.759 16
0 -13 1 14.0465 106.217 7
1 -13 0 55.0669 145.035 7
-1 -13 0 61.9514 115 7
13 0 1 12.6682 87.3702 7
0 -13 1 341.963 180.572 15
-1 -13 0 297.989 183.2 15
13 -1 0 146.255 141.143 7
1 -13 0 96.3887 133.8 15
0 -13 -1 21.9277 108.696 7
0 -13 -1 92.0982 104.03 15
13 1 0 74.5148 96.4366 7
13 0 -1 92.721 141.215 7
-13 0 -1 70.3172 127.763 1
13 0 1 224.566 153.076 2
-13 -2 -1 2949.39 366.324 1
-1 13 2 2587.97 351.587 13
-1 13 2 2808.01 329.368 12
-13 1 -2 2798.5 253.061 11
1 13 -2 2843.34 362.816 11
-13 -2 -1 2733.59 351.008 3
-2 13 -1 2549 354.606 11
-1 13 2 2665.22 311.533 6
13 -2 1 2803.42 256.304 10
-13 2 1 2158.06 324.807 6
13 2 -1 2641.94 433.809 2
-13 2 1 2439 345.423 3
-13 -1 2 1218.86 311.471 6
2 13 1 2765.27 272.154 5
-2 -13 1 2624.13 320.24 10
2 -13 -1 2828.92 365.468 10
-13 -1 2 1851.5 338.424 3
-1 -13 -2 2617.89 331.674 10
-13 1 -2 2463.96 280.178 9
-13 -2 -1 3063.55 336.448 9
13 1 2 2675.28 378.953 2
2 -13 -1 2613.98 198.514 4
-13 -1 2 1487.98 301.04 1
-13 1 -2 2353.87 346.507 8
-13 -2 -1 2708.18 378.309 8
-13 2 1 2422.92 360.989 8
-13 1 -2 2704.51 365.435 1
-13 -1 2 1702.4 333.776 8
-13 2 1 2144.63 362.366 1
-2 -13 1 3449.74 522.572 8
-2 -13 1 2798.05 273.883 7
13 1 2 2910.72 317.347 7
-1 -13 -2 2882.25 377.101 16
-2 -13 1 2385.17 337.563 16
1 -13 2 2830.13 291.145 7
-13 1 -2 3062.22 387.554 3
13 -2 1 2884.88 369.578 7
1 -13 2 2464.73 322.851 15
-2 -13 1 2773.34 364.575 15
2 -13 -1 2631.19 370.641 7
2 -13 -1 2597.98 321.141 15
-1 -13 -2 2891.33 370.62 15
-1 -13 -2 2738.6 393.019 7
13 2 -1 2140.61 436.031 7
1 13 -2 2968.95 323.232 6
-2 13 -1 2926.79 323.09 6
-13 1 -2 3097.04 350.289 6
-13 -2 -1 2617.63 282.257 6
13 -2 1 1095.85 268.358 2
1 13 2 2776.13 289.633 6
13 2 1 2298.9 395.586 2
-13 -2 1 2497.14 320.964 6
-2 13 1 2832.59 309.554 12
1 13 2 2010.75 277.531 12
-13 -1 -2 2782.82 349.88 3
-1 13 -2 3009.8 384.16 11
-13 2 -1 2814.04 339.488 6
2 13 -1 1943.11 294.656 11
13 -2 -1 2141.72 411.771 2
1 -13 -2 3035.75 390.013 10
-13 1 2 1963.62 288.675 6
-13 -2 1 2420.25 360.788 3
2 -13 1 2479.32 322.245 10
-2 -13 -1 3055.15 362.473 10
-13 1 2 2208.85 395.103 3
13 1 -2 2311.23 462.903 2
1 -13 -2 2616.94 294.789 9
-13 1 2 1789.28 337.756 1
-13 -1 -2 3124.33 333.658 9
-13 2 -1 2555.59 292.279 9
-13 -2 1 2676.77 357.687 9
-13 -1 -2 2920.58 373.643 1
-13 -1 -2 2657.61 358.291 8
-13 2 -1 2642.87 342.484 8
-13 -2 1 1805.07 347.163 8
-13 1 2 1772.71 336.717 8
13 -1 2 2937.34 346.691 7
13 2 1 3035.02 343.972 7
-1 -13 2 2755.72 379.653 16
-1 -13 2 2627.07 271.219 7
-2 13 1 2990.6 208.365 3
-2 -13 -1 2748.05 393.281 15
2 -13 1 2809.81 330.989 7
-1 -13 2 2332.97 333.168 15
2 -13 1 2168.92 308.436 15
-13 -2 1 2206.72 366.131 1
-2 -13 -1 2266.22 293.068 7
13 -1 2 3169.07 399.654 2
1 -13 -2 2259 324.533 15
1 -13 -2 2633.71 398.791 7
-1 13 -2 2925.2 399.859 14
-13 2 -1 2314.2 339.802 1
2 13 -1 2787.89 290.884 6
-1 13 -2 3113.9 329.664 6
-13 -1 -2 3102.88 321.261 6
2 13 -1 2980.32 401.351 14
-2 13 1 2900.47 335.898 6
-13 2 -3 979.864 252.244 3
-13 -3 -2 887.333 206.007 3
-13 -3 -2 1140.3 183.921 6
-3 13 -2 941.918 197.537 6
-13 2 -3 706.322 190.106 6
2 13 -3 724.868 206.864 11
-3 13 -2 782.611 195.528 11
3 13 2 1167.16 177.136 6
-13 3 2 666.757 291.796 1
-2 13 3 989.339 241.261 6
-13 3 2 808.904 262.232 6
2 -13 3 450.311 134.657 10
-13 3 2 893.641 321.971 3
3 13 2 683.762 172.299 5
13 -3 2 956.132 155.857 10
3 -13 -2 753.476 214.804 10
-2 -13 -3 1154.97 271.507 10
13 3 -2 676.041 263.403 2
-13 -2 3 731.909 351.737 3
13 -2 -3 1081.65 435.658 2
-2 13 3 968.826 228.601 3
-13 2 -3 810.149 157.609 9
-13 -3 -2 710.075 181.909 9
-13 2 -3 868.127 255.182 1
-2 -13 -3 867.891 158.573 8
-13 -2 3 971.374 382.002 1
-13 2 -3 1018.51 236.563 8
-13 -3 -2 830.405 216.192 8
13 -3 2 801.164 196.027 4
2 -13 3 806.872 137.657 2
-13 3 2 970.066 256.877 8
-13 -2 3 908.514 334.102 8
3 -13 -2 1147.23 169.158 4
-13 -3 -2 803.771 211.269 1
13 -2 -3 2204.47 566.141 4
3 -13 -2 1046.08 242.63 16
-13 -3 -2 797.311 121.453 16
-3 -13 2 579.811 182.949 16
2 -13 3 758.593 158.487 7
-3 -13 2 950.784 143.562 7
13 2 3 1022.37 187.149 7
13 2 3 989.529 237.815 2
13 -3 2 559.722 165.983 7
2 -13 3 733.554 178.011 15
-3 -13 2 622.455 177.866 15
13 -3 2 998.886 258.989 2
3 -13 -2 1347.68 290.568 7
3 -13 -2 959.764 212.787 15
-2 -13 -3 902.049 213.986 15
-13 -3 -2 918.185 152.986 15
2 13 -3 675.998 209.474 14
-3 13 -2 1107.77 254.331 14
-13 3 0 5183.09 487.694 6
0 13 3 7626.8 560.714 6
0 13 3 6883.71 563.134 12
-3 13 0 7242.46 469.715 12
0 13 -3 7165.7 583.071 11
3 13 0 7926.13 574.368 11
-3 -13 0 7244.02 545.019 10
3 -13 0 7264.98 580.255 10
0 -13 -3 6724.8 586.694 10
13 -3 0 6448.23 434.822 10
3 13 0 6816.06 395.905 5
-13 0 3 4797.87 587.933 3
0 -13 -3 7249.77 526.943 9
-13 0 -3 8053.01 526.055 9
-13 -3 0 7201.04 556.883 9
-13 3 0 6024.14 436.228 9
13 0 3 7204.24 584.148 2
3 -13 0 7740.22 387.354 4
13 -3 0 10483.1 864.288 4
13 -3 0 5499.57 601.834 2
13 3 0 6360.6 632.11 2
3 -13 0 7642.14 583.62 2
-13 0 -3 6885.55 599.407 8
-13 3 0 6094.83 550.007 8
-13 0 3 5724.82 638.425 8
-13 0 -3 6564.73 573.72 1
-13 -3 0 6823.56 585.188 1
0 -13 3 7437.03 494.445 7
13 0 3 6681.36 494.035 7
-3 -13 0 6962.18 592.914 16
-3 -13 0 7536.89 458.035 7
13 -3 0 7302.93 619.5 7
-3 13 0 7745.86 394.117 3
-13 0 -3 7590.54 596.588 3
0 -13 3 6542.16 562.277 15
-13 -3 0 6590.13 378.217 15
-3 -13 0 6606.27 571.826 15
3 -13 0 7605.17 560.549 15
-13 -3 0 6404.88 540.98 3
-13 3 0 7340.1 612.957 3
0 -13 -3 6882.12 567.365 15
0 13 -3 7276.29 551.607 6
3 13 0 8295.04 448.6 6
-13 0 -3 7633.07 537.838 6
-3 13 0 7412.68 536.303 6
-13 -3 0 7193.54 458.646 6
-3 13 2 765.666 201.741 13
2 13 3 455.605 154.579 13
-13 -2 -3 1042.99 224.345 3
-3 13 2 743.87 163.527 12
-2 13 -3 869.158 184.042 6
-13 -2 -3 944.097 172.899 6
2 13 3 898.467 198.506 12
-13 3 -2 1010.63 237.811 3
-13 3 -2 1127.86 237.62 6
3 13 -2 795.436 184.015 11
-13 3 -2 1074.55 178.733 11
-2 13 -3 959.685 202.881 11
-3 13 2 1059.65 259.072 6
2 13 3 1074.49 188.071 6
-2 -13 3 560.9 161.558 10
-3 13 2 958.262 159.375 3
-13 -3 2 785.659 208.592 6
13 -3 -2 930.443 325.245 2
3 -13 2 1095.06 216.456 10
13 -2 3 935.856 140.008 10
-13 -3 2 979.538 312.039 3
-3 -13 -2 1050.39 230.864 10
2 -13 -3 841.99 217.298 10
-13 2 3 2024.7 466.905 3
-13 2 3 831.086 409.036 1
2 -13 -3 692.293 159.36 9
13 2 -3 764.907 371.824 2
-3 -13 -2 941.38 217.514 9
-13 -2 -3 1103.95 220.58 9
-13 3 -2 1051.8 176.117 9
-2 -13 3 738.35 228.133 9
-13 -3 2 1027.04 253.136 9
-13 -2 -3 752.464 214.214 1
-13 -2 -3 935.513 224.363 8
-3 -13 -2 1108.94 176.109 8
-13 3 -2 643.69 184.632 8
13 -2 3 559.124 170.812 4
-13 -3 2 999.501 310.761 8
-13 3 -2 917.593 243.537 1
-13 2 3 629.929 270.223 8
13 2 -3 1639.02 494.322 4
-13 -3 2 1037 309.456 1
-3 -13 -2 775.134 205.228 16
-2 -13 3 868.554 165.408 7
3 -13 2 987.171 208.49 7
13 -2 3 916.344 190.919 7
13 -2 3 905.457 201.442 2
-13 -3 2 461.315 130.129 15
3 -13 2 1054.32 148.815 2
13 3 2 1190.48 209.934 7
-2 -13 3 437.738 163.191 15
-3 -13 -2 626.394 190.014 15
13 3 2 872.851 223.396 2
2 -13 -3 969.177 214.828 15
13 -3 -2 824.805 252.691 7
2 -13 -3 520.216 195.435 7
-2 13 -3 537.244 143.251 1
-2 13 -3 631.074 201.839 14
3 13 -2 1125.4 256.849 14
13 3 2 1101.32 142.76 14
-3 13 4 129.172 118.941 13
-13 3 -4 154.519 117.415 3
-13 -4 -3 141.325 110.557 3
4 13 3 426.837 236.189 13
-13 -4 -3 0.51569 79.7763 6
-4 13 -3 247.489 170.292 6
-13 3 -4 97.9051 131.08 6
13 3 4 151.684 169.017 12
4 13 3 140.489 164.855 12
3 13 -4 222.625 197.782 11
-4 13 -3 15.3353 133.905 11
-4 -13 3 159.285 165.382 10
3 -13 4 540.12 213.886 10
-13 4 3 446.866 284.188 1
-13 4 3 226.95 243.679 6
13 -4 3 7.79829 94.3352 10
4 -13 -3 104.014 168.716 10
4 -13 -3 99.8154 128.246 16
-13 3 -4 8.78887 112.747 1
-13 4 3 246.372 234.295 3
-3 -13 -4 173.299 160.799 10
13 3 4 95.4058 142.533 5
13 -4 3 245.723 189.585 5
4 -13 -3 192.336 104.048 9
-3 -13 -4 13.7351 117.852 9
-13 3 -4 25.4993 89.3019 9
-13 -4 -3 25.056 116.342 9
-4 -13 3 154.89 226.253 9
-13 -4 -3 101.025 122.481 1
-3 -13 -4 115.445 118.979 8
3 -13 4 97.4238 98.3138 2
13 3 4 170.688 156.19 4
-13 3 -4 259.318 146.894 8
-13 -4 -3 122.498 121.66 8
13 -4 3 182.715 205.236 4
-3 -13 -4 189.916 162.707 16
-4 -13 3 156.217 117.013 7
13 3 4 61.5903 127.248 2
-13 -4 -3 79.6352 90.3709 16
3 -13 4 226.509 143.816 7
-4 -13 3 57.8645 137.685 16
13 3 4 49.8957 82.0836 7
3 -13 4 115.942 204.302 16
13 -4 3 253.576 175.044 7
13 -4 3 567.941 209.225 2
3 -13 4 101.604 170.862 15
-4 -13 3 35.0949 131.021 15
-3 -13 -4 408.777 188.967 15
4 -13 -3 672.371 303.401 7
4 -13 -3 121.119 117.72 15
-13 -4 -3 152.189 125.557 15
3 13 -4 254.578 171.639 14
-4 13 -3 117.394 143.059 14
-13 1 -4 816.178 221.414 3
-1 13 4 693.5 235.637 13
-13 1 -4 739.073 203.104 6
13 1 4 194.957 119.651 12
-4 13 -1 516.297 131.858 12
4 13 1 698.841 209.373 12
4 13 1 577.512 123.248 6
-13 -4 -1 698.817 139.624 6
-4 13 -1 1058.35 236.547 6
-13 -4 -1 674.569 207.664 3
1 13 -4 583.06 201.062 11
-13 -4 -1 618.114 178.395 1
-4 13 -1 714.661 236.452 11
-13 4 1 1020.48 271.72 6
-13 4 1 647.862 251.923 3
1 -13 4 843.015 247.315 10
13 4 -1 360.68 202.974 2
-4 -13 1 859.285 235.57 10
13 -4 1 554.536 135.531 10
-13 1 -4 978.508 292.722 1
-1 -13 -4 531.845 172.694 10
4 13 1 483.789 135.375 5
13 1 4 682.527 207.4 5
-1 -13 -4 807.757 211.091 9
13 -4 1 540.383 138.208 5
-13 1 -4 874.908 180.588 9
13 4 -1 732.955 283.033 5
4 -13 -1 489.62 300.881 2
-13 -4 -1 600.958 206.254 9
-4 -13 1 1029.63 327.323 9
-1 -13 -4 478.873 115.673 8
-13 1 -4 940.286 242.029 8
13 1 4 547.732 179.428 4
-13 -4 -1 698.218 237.458 8
-13 4 1 565.062 202.07 1
-13 4 1 709.552 254.084 8
13 -4 1 505.341 222.321 4
-4 -13 1 907.547 290.264 8
13 4 -1 955.774 275.587 4
-1 -13 -4 387.812 144.636 16
13 1 4 524.842 172.506 2
4 -13 -1 519.448 193.999 16
1 -13 4 607.689 180.117 7
-4 -13 1 945.017 299.184 16
13 1 4 951.341 202.624 7
1 -13 4 898.909 287.685 16
-4 -13 1 900.607 177.313 7
1 -13 4 687.315 246.614 15
13 -4 1 248.85 153.709 7
4 -13 -1 533.294 228.242 7
-13 -4 -1 427.681 121.18 15
4 -13 -1 391.874 148.371 15
-1 -13 -4 736.121 235.146 15
1 13 -4 651.989 214.114 14
-4 13 -1 718.635 151.603 3
13 -4 1 804.089 217.357 2
-13 -1 -4 640.602 203.622 3
1 13 4 620.998 248.177 13
-4 13 1 736.545 213.803 13
13 4 1 767.142 204.679 2
-13 -1 -4 805.549 198.246 6
1 13 4 407.199 170.672 12
13 -1 4 498.888 152.581 12
4 -13 1 809.12 208.153 2
-4 13 1 569.421 146.383 12
-13 -4 1 833.064 271.008 1
-1 13 -4 796.85 217.933 11
-13 4 -1 940.662 252.279 3
-13 4 -1 863.559 247.239 6
4 13 -1 587.559 181.749 11
13 -4 -1 488.642 206.539 2
-4 13 1 724.707 219.087 6
-13 -4 1 688.572 177.052 6
-1 -13 4 1060.27 272.489 10
-13 -4 1 758.923 240.683 3
13 -1 4 547.061 122.228 10
4 -13 1 669.875 227.529 10
-13 -1 -4 788.697 265.237 1
1 -13 -4 215.698 122.389 10
13 -1 4 530.426 197.422 5
1 -13 -4 244.57 121.27 9
13 4 1 519.248 224.679 5
-13 -1 -4 718.536 199.996 9
4 13 -1 544.36 143.554 5
-4 -13 -1 720.272 192.481 9
13 -4 -1 792.296 264.893 5
4 -13 1 949.991 247.012 9
-13 -4 1 812.481 262.297 9
-13 -1 -4 722.889 226.673 8
-4 -13 -1 882.42 194.878 8
-13 4 -1 735.654 238.666 8
-13 -4 1 1128.94 320.314 8
13 4 1 680.815 210.729 4
13 -4 -1 814.758 277.061 4
-4 13 1 1096.82 288.124 1
1 -13 -4 500.913 192.399 16
13 -1 4 587.315 174.967 2
-4 -13 -1 512.21 191.423 16
13 -1 4 774.005 187.254 7
-1 -13 4 1159.51 367.862 16
4 -13 1 762.91 235.282 7
-1 -13 4 934.269 271.475 15
-13 -4 1 651.433 171.613 15
4 -13 1 746.213 199.582 15
13 -4 -1 569.822 215.022 7
13 4 1 834.264 194.435 7
1 -13 -4 385.379 125 15
-1 13 -4 659.05 225.259 14
-13 4 -1 689.397 257.166 1
4 13 -1 561.592 212.67 14
13 4 3 73.5979 80.3091 13
-4 13 3 58.3594 144.18 13
3 13 4 122 161.546 13
-3 13 -4 488.341 213.906 6
-13 4 -3 173.997 143.604 3
3 13 4 206.026 150.822 12
13 4 3 137.975 164.233 12
-13 4 -3 184.87 175.561 6
4 13 -3 299.301 174.787 11
-13 4 -3 94.3836 98.2069 11
-3 13 -4 140.055 152.723 11
-4 13 3 21.1662 175.34 6
-3 -13 4 218.075 179.622 10
13 -3 4 195.383 113.306 10
4 -13 3 378.704 232.123 10
-13 -3 -4 21.5917 102.777 1
3 -13 -4 296.665 163.673 10
13 -3 4 152.671 148.695 5
-13 -4 3 36.6054 180.768 3
13 -4 -3 191.823 327.642 2
3 -13 -4 328.649 146.744 9
-4 -13 -3 265.438 181.05 9
-13 -3 -4 80.395 113.589 9
-3 -13 4 191.366 238.588 9
-13 4 -3 164.066 130.879 1
-13 -3 -4 144.959 145.993 8
13 -3 4 487.36 248.92 4
-13 4 -3 114.277 131.556 8
13 4 3 8.50117 98.7194 4
-13 -4 3 334.826 251.225 8
13 -4 -3 46.3379 320.455 4
3 -13 -4 142.936 151.27 16
-3 -13 4 160.944 119.02 7
-13 -3 -4 111.149 97.4055 16
-4 -13 -3 186.72 156.483 16
-3 13 -4 157.111 108.909 1
13 -3 4 469.071 209.685 2
4 -13 3 176.211 128.629 7
13 -3 4 264.762 189.175 7
-3 -13 4 127.903 168.692 16
13 4 3 12.5519 109.845 2
-3 -13 4 49.8207 130.748 15
4 -13 3 246.723 140.95 15
-4 -13 -3 237.387 145.421 15
3 -13 -4 385.534 170.814 15
13 -4 -3 15.4532 151.19 7
-3 13 -4 145.188 164.215 14
4 13 -3 57.3451 156.164 14
-13 -3 -4 97.3207 115.808 3
-5 13 -4 302.965 141.421 1
5 13 4 322.91 200.274 13
-13 4 -5 138.987 119.103 6
-5 13 -4 128.558 111.868 6
13 4 5 276.542 167.73 12
5 13 4 345.7 219.965 12
-5 13 -4 288.339 170.777 11
-13 4 -5 163.958 122.546 1
-5 -13 4 113.397 97.8901 10
4 -13 5 191.064 145.806 10
13 -5 4 133.823 78.3553 10
13 -5 4 201.423 106.59 5
13 4 5 80.6254 151.132 5
5 -13 -4 249.517 193.457 10
-13 -5 -4 402.939 185.085 1
-13 4 -5 239.178 86.4155 9
-4 -13 -5 238.127 146.386 9
-13 -5 -4 56.281 144.679 9
-5 -13 4 779.175 326.312 9
13 4 5 103.003 124.216 4
-13 4 -5 116.239 117.811 8
-13 -5 -4 265.347 194.155 8
13 -5 4 112.014 117.713 4
13 4 5 388.719 184.667 2
5 -13 -4 274.892 156.785 16
-4 -13 -5 134.94 118.259 16
-13 -5 -4 317.998 122.421 16
5 -13 -4 150.21 175.017 4
4 -13 5 198.621 124.18 7
13 4 5 215.128 122.544 7
13 -5 4 169.425 148.928 2
-5 -13 4 129.069 156.76 16
13 -5 4 371.007 164.801 7
4 -13 5 343.716 213.384 16
-5 -13 4 24.6434 169.936 15
-4 -13 -5 372.301 153.425 15
5 -13 -4 258.477 217.875 7
4 13 -5 38.4532 107.111 14
-5 13 -4 94.2465 144.54 14
-13 -5 -4 144.736 118.139 3
13 -5 2 1019.11 158.254 12
-13 -5 -2 1147.66 182.64 6
13 2 5 1257.1 246.018 12
-13 -5 -2 1586.76 259.717 3
-5 13 -2 1223.73 250.037 6
5 13 2 1304.08 146.815 6
-13 2 -5 1371.9 299.24 1
-5 13 -2 1228.26 262.711 11
-13 5 2 296.906 182.227 1
-13 5 2 1129.09 273.561 6
-5 -13 2 1087.65 190.323 10
-13 5 2 858.505 275.185 3
13 -5 2 1313.62 212.721 10
5 -13 -2 1036.94 244.385 10
5 13 2 1282.09 227.952 5
13 5 -2 1076.97 390.542 2
-2 -13 -5 1256.97 258.606 9
-13 2 -5 1195.27 214.269 9
13 2 5 1039.45 255.809 4
-13 2 -5 1484.74 280.052 8
-13 5 2 464.331 174.091 8
-5 -13 2 1640.4 397.442 8
13 2 5 1482.51 303.128 2
13 2 5 1423.64 235.825 7
-13 -5 -2 1235.52 200.145 16
-5 -13 2 621.02 184.143 16
-5 -13 2 1167.64 160.704 7
2 -13 5 963.213 274.25 16
13 -5 2 1095.73 268.673 7
2 -13 5 722.942 212.19 15
-5 -13 2 674.26 176.931 15
5 -13 -2 1300.32 305.253 7
13 -5 2 1466.33 309.805 2
-13 -5 -2 1167.36 187.009 15
5 -13 -2 1530.81 280.241 15
-5 13 -2 1394.71 221.432 3
-2 -13 -5 1664.53 303.313 15
-13 2 -5 1020.92 255.111 3
-5 13 -2 1006.14 243.366 14
0 13 5 1195.03 323.198 13
-5 13 0 1313.68 216.345 12
-5 13 0 1368.68 196.951 3
13 -5 0 1302.78 336.003 2
0 13 -5 1450.65 306.978 11
-13 0 -5 1633.82 344.571 1
13 5 0 678.157 244.675 2
-5 13 0 988.757 235.253 6
5 13 0 1220.66 246.181 11
-13 -5 0 1074.45 263.093 3
-13 5 0 1360.31 304.611 6
-13 5 0 1304.83 279.923 3
13 0 5 1443.16 171.687 10
5 -13 0 1255.52 312.293 2
0 -13 5 1143.85 304.019 10
-5 -13 0 1017.17 229.316 10
5 -13 0 1296.01 287.37 10
13 -5 0 1239.52 222.413 10
-13 5 0 445.293 236.547 1
0 -13 -5 796.341 201.269 9
-13 0 -5 1431.21 279.539 9
-5 -13 0 1044.67 258.814 9
-13 -5 0 1017.98 244.162 9
-13 -5 0 1289.15 275.354 1
13 0 5 1488.87 321.881 4
-13 0 -5 1524.37 321.499 8
5 -13 0 1416.39 213.693 4
-13 -5 0 770.452 236.626 8
-13 5 0 1455.99 284.555 8
13 0 5 1347.79 309.971 2
0 -13 -5 1070.6 258.588 16
0 -13 5 1028.82 245.549 7
13 0 5 1512.35 263.423 7
-13 -5 0 1120.43 230.82 16
0 -13 5 1330.14 355.559 16
0 -13 5 1085.62 294.842 15
13 -5 0 769.557 237.537 7
-5 -13 0 1005.55 252.701 15
5 -13 0 1266.49 276.652 15
0 -13 -5 1603.13 292.121 15
-13 0 -5 1485.09 310.606 3
0 13 -5 1285.96 311.712 14
2 13 5 1032.53 285.625 13
-5 13 2 1090.2 242.475 13
-13 5 -2 1299.28 260.402 3
-2 13 -5 1620.32 332.952 11
-13 -2 -5 1453.3 275.145 1
-13 5 -2 1126.86 237.169 6
5 13 -2 1274.1 248.675 11
-13 5 -2 1152.95 212.711 11
-5 13 2 1362.96 286.612 6
13 -2 5 1371.6 179.757 10
-13 -5 2 585.471 218.281 1
-5 13 2 1031.94 204.802 3
13 -5 -2 1042.42 407.273 2
5 -13 2 1025.36 243.209 10
-13 -5 2 558.416 154.712 3
-5 -13 -2 1326.84 245.326 10
13 -2 5 943.08 216.417 5
2 -13 -5 964.589 287.331 10
-13 -2 -5 1221.92 260.282 9
-5 -13 -2 1124.31 240.656 9
-13 5 -2 939.258 156.711 9
-13 -5 2 993.582 251.3 9
5 -13 2 1766.91 288.105 4
13 -2 5 1495.15 285.727 4
-13 -2 -5 1340.81 278.446 8
-13 -5 2 543.76 149.057 8
-13 5 -2 1049.15 288.036 1
13 -2 5 1464.68 302.664 2
-13 -2 -5 1471.99 205.619 16
2 -13 -5 1339.57 294.663 16
-5 -13 -2 803.351 216.395 16
13 -2 5 1492.44 278.698 7
5 -13 2 1134.31 246.12 7
-13 -5 2 774.105 192.262 15
5 -13 2 909.352 208.944 15
5 -13 2 898.939 171.035 2
-5 -13 -2 1048.28 246.985 15
13 -5 -2 999.866 318.539 7
-13 -2 -5 1076.2 232.908 3
5 13 -2 1127.25 263.604 14
-13 5 -4 119.319 154.021 3
4 13 5 340.256 213.509 13
-4 13 -5 78.2564 126.947 6
4 13 5 276.239 201.117 12
13 5 4 259.331 195.302 12
-13 5 -4 102.641 108.34 6
-13 5 -4 127.675 108.797 11
-4 13 -5 234.068 146.552 11
-13 -4 -5 269.911 167.766 1
13 -4 5 268.937 115.168 10
5 -13 4 16.2953 99.9713 10
-5 13 4 575.433 330.924 6
13 -4 5 185.916 124.377 5
-5 -13 -4 447.029 188.255 10
4 -13 -5 58.6566 141.121 10
-13 5 -4 183.529 169.389 1
13 -4 5 185.316 126.465 7
13 5 4 188.896 144.634 5
-5 13 4 61.8506 253.524 3
-13 -4 -5 77.7371 112.081 9
-5 -13 -4 602.679 209.964 9
-13 5 -4 87.4772 63.7308 9
-5 -13 -4 173.198 116.501 8
13 -4 5 192.389 159.787 4
13 5 4 138.724 167.192 4
-13 -4 -5 228.425 174.566 8
-13 5 -4 359.501 153.066 8
5 -13 4 250.951 115.982 2
-4 13 -5 105.285 140.089 1
13 -4 5 135.901 118.721 2
-5 -13 -4 433.26 205.86 16
13 5 4 213.917 118.79 2
5 -13 4 156.177 101.942 7
13 5 4 317.155 111.864 7
5 -13 4 311.839 243.893 16
-4 -13 5 153.773 213.806 16
-4 -13 5 6.53825 197.184 15
5 -13 4 104.979 105.251 15
-5 -13 -4 148.865 120.461 15
-13 -4 -5 170.242 132.623 3
-4 13 -5 139.866 86.2809 14
5 13 -4 346.565 206.731 14
6 13 5 629.45 228.057 13
-13 5 -6 382.494 178.806 1
-13 5 -6 207.079 119.307 6
-6 13 -5 220.437 130.302 6
13 5 6 316.461 160.828 12
6 13 5 290.234 145.071 12
-6 13 -5 541.194 222.714 11
-13 -6 -5 359.36 171.989 1
5 -13 6 492.233 190.465 10
13 -6 5 487.621 163.541 10
13 -6 5 308.144 129.927 5
13 5 6 541.445 244.402 5
-13 5 -6 82.8796 93.9295 9
-5 -13 -6 239.82 120.112 9
-13 -6 -5 343.468 152.273 9
13 5 6 279.943 131.598 4
-13 5 -6 210.009 128.033 8
13 -6 5 678.256 215.159 4
-13 -6 -5 161.394 141.005 8
13 5 6 283.806 110.975 2
13 -6 5 543.671 190.974 2
-5 -13 -6 335.551 184.649 16
13 5 6 609.399 162.342 7
-13 -6 -5 326.701 127.589 16
5 -13 6 622.361 159.301 7
13 -6 5 238.887 180.71 7
5 -13 6 298.251 231.485 15
-6 13 -5 346.439 165.464 1
-13 -6 -5 302.385 131.178 3
-13 5 -6 116.738 134.462 3
-5 -13 -6 151.239 127.26 15
-13 -6 -3 248.815 133.782 3
-13 3 -6 757.192 234.218 6
6 13 3 686.102 256.737 13
6 13 3 992.13 283.738 12
-6 13 -3 302.084 145.875 6
-6 13 -3 430.159 204.053 11
6 13 3 490.426 97.1502 6
-6 -13 3 443.066 183.166 10
-13 6 3 468.353 243.21 6
13 -6 3 581.437 190.038 10
-13 6 3 311.687 290.884 1
13 3 6 623.043 199.771 5
-13 6 3 375.662 234.527 3
6 13 3 408.887 144.832 5
6 -13 -3 188.491 146.955 10
13 -6 3 529.046 141.678 5
-13 3 -6 169.067 95.7585 9
6 -13 -3 426.823 146.108 9
-6 13 -3 492.379 150.307 1
-13 -6 -3 243.317 154.27 9
13 6 -3 557.562 289.798 5
-6 -13 3 859.11 294.95 9
13 3 6 607.033 227.475 4
-13 3 -6 528.497 213.231 8
-13 -6 -3 365.78 157.537 1
-13 -6 -3 646.897 219.028 8
13 -6 3 628.758 226.626 4
13 3 6 620.768 223.162 2
6 -13 -3 485.819 171.408 4
13 6 -3 706.901 314.453 4
-6 -13 3 480.943 106.954 7
6 -13 -3 257.256 145.784 16
13 3 6 559.819 162.473 7
-13 -6 -3 306.395 126.705 16
-6 -13 3 357.349 198.597 16
13 -6 3 537.265 241.229 7
13 -6 3 691.9 235.569 2
-6 -13 3 274.431 179.819 15
-6 13 -3 422.37 156.127 3
-13 3 -6 279.355 180.336 3
6 -13 -3 438.296 253.754 7
-13 -6 -3 546.16 178.782 15
6 -13 -3 350.092 145.481 15
-6 13 -3 404.492 178.945 14
-13 3 -6 623.312 231.789 1
13 -6 1 1135.22 313.445 2
-6 13 -1 906.006 178.379 3
-6 13 -1 581.906 117.505 12
-13 -6 -1 878.792 137.444 6
-13 -6 -1 859.361 214.96 3
-6 13 -1 955.082 217.228 6
6 13 1 1093.09 220.684 11
-6 13 -1 716.826 224.197 11
-13 6 1 553.45 229.987 6
-13 6 1 1027.12 279.354 3
-13 -6 -1 670.462 215.089 1
-6 -13 1 1203.07 257.913 10
13 6 -1 688.736 252.57 2
13 -6 1 780.877 176.282 10
13 1 6 814.947 231.906 5
6 -13 -1 761.466 303.042 2
6 13 1 634.861 147.055 5
-13 1 -6 601.73 186.071 9
13 6 -1 815.649 299.597 5
-13 -6 -1 941.875 244.372 9
-6 -13 1 580.949 204.388 9
13 1 6 1018.02 243.973 4
-13 1 -6 58.4689 183.577 8
-13 -6 -1 449.122 212.847 8
13 1 6 801.869 197.447 2
13 -6 1 1000.5 253.566 4
-6 -13 1 870.091 277.012 8
6 -13 -1 925.072 184.68 4
-13 6 1 993.946 279.859 1
13 1 6 819.682 192.02 7
-6 -13 1 720.439 223.975 16
-13 -6 -1 837.84 170.696 16
13 -6 1 822.818 219.249 7
-6 -13 1 751.339 240.713 15
-13 -6 -1 610.541 152.731 15
-13 1 -6 766.382 223.833 3
6 -13 -1 794.343 171.815 15
-13 1 -6 834.6 238.871 1
-13 6 -1 854.693 251.508 1
6 -13 1 722.654 207.253 2
13 6 1 802.231 221.353 2
-13 6 -1 681.469 205.213 3
6 13 -1 914.718 167.731 11
-13 6 -1 703.514 203.87 6
-6 13 1 860.552 172.169 3
-13 6 -1 686.196 174.167 11
13 -6 -1 758.567 300.482 2
-13 -6 1 668.782 135.176 6
-13 -6 1 570.305 229.677 3
6 -13 1 686.524 205.282 10
-6 -13 -1 937.129 201.083 10
13 -1 6 511.126 188.312 5
13 -6 -1 667.521 153.604 10
-13 -6 1 332.427 220.527 1
-13 -1 -6 692.317 172.495 9
13 6 1 791.898 232.029 5
-13 -6 1 1033.43 295.101 9
-13 -1 -6 908.867 243.974 8
6 -13 1 840.749 161.684 4
-6 -13 -1 822.945 203.386 8
13 -1 6 913.771 206.496 2
-13 -6 1 865.159 287.914 8
13 6 1 728.51 187.066 4
13 -6 -1 650.224 279.559 4
13 -1 6 988.734 227.99 7
-6 -13 -1 648.218 211.803 16
6 -13 1 783.378 200.938 16
-13 -6 1 1002.06 211.465 16
-6 13 1 808.879 237.127 1
6 -13 1 886.303 214.185 7
-13 -6 1 702.065 174.315 15
6 -13 1 671.317 141.231 15
13 -6 -1 679.248 230.537 7
-6 -13 -1 595.039 227.612 15
-13 -1 -6 575.669 217.695 3
-13 -1 -6 859.076 228.501 1
13 6 1 759.246 180.933 14
6 13 -1 826.034 203.609 14
-6 13 3 521.355 222.983 13
13 6 3 531.315 181.762 13
-13 6 -3 709.526 226.965 3
13 6 3 671.113 291.673 12
-13 6 -3 426.447 225.486 6
6 13 -3 612.984 194.542 11
-13 6 -3 530.275 192.843 11
13 -3 6 229.746 101.997 10
-6 13 3 794.872 307.138 6
6 -13 3 673.567 209.054 10
13 -3 6 325.579 179.403 5
-6 13 3 139.089 219.847 3
-6 -13 -3 669.19 221.905 10
-13 -6 3 320.49 182.086 3
13 -6 -3 343.428 322.615 2
13 6 3 557.098 208.718 5
-13 -3 -6 19.6906 111.457 9
-6 -13 -3 193.711 198.103 9
6 13 -3 37.0258 89.0052 5
-13 -6 3 501.299 224.539 9
6 -13 3 589.222 190.781 4
13 -3 6 339.655 132.526 4
-13 6 -3 441.647 181.662 1
-13 -3 -6 506.105 224.055 8
-6 -13 -3 204.308 140.219 8
13 6 3 383.131 182.382 4
-13 6 -3 369.668 177.354 8
13 -3 6 557.741 218.748 2
-13 -6 3 311.736 187.611 8
13 -6 -3 638.456 313.97 4
-6 -13 -3 540.983 233.359 16
13 -3 6 256.466 157.717 7
6 -13 3 608.553 253.458 16
6 -13 3 457.995 149.319 2
6 -13 3 435.501 210.583 7
-13 -6 3 302.465 159.324 15
13 6 3 514.841 129.042 7
13 6 3 190.477 137.986 2
6 -13 3 700.549 209.281 15
-13 -3 -6 505.115 198.816 3
-6 -13 -3 474.561 216.059 15
-13 -3 -6 379.162 198.253 1
13 -6 -3 209.074 162.505 7
6 13 -3 720.425 241.774 14
5 13 6 240.775 173.204 13
-13 6 -5 417.265 166.091 6
13 6 5 97.5735 126.133 12
-5 13 -6 328.901 160.894 11
-13 6 -5 494.047 192.479 1
13 -5 6 468.283 150.23 10
6 -13 5 383.054 207.162 10
13 6 5 232.591 112.998 5
-13 6 -5 523.923 124.373 9
-13 -5 -6 587.887 243.713 9
-6 -13 -5 949.44 280.57 9
13 6 5 524.187 190.213 4
13 -5 6 412.976 165.192 4
-6 -13 -5 483.962 164.967 8
-13 -5 -6 610.174 256.961 8
-13 6 -5 461.906 177.99 8
6 -13 5 484.079 147.096 2
13 -5 6 657.79 233.527 2
13 6 5 585.254 198.136 2
-13 -5 -6 313.08 138.289 16
-6 -13 -5 320.711 147.648 16
13 6 5 401.973 115.826 7
13 -5 6 399.599 156.727 7
6 -13 5 350.919 126.112 7
6 -13 5 546.362 166.742 15
-13 -5 -6 99.7109 154.554 3
-6 -13 -5 247.355 140.742 15
-13 6 -5 315.02 99.8786 3
-13 -5 -6 702.524 244.804 1
7 13 4 36.3825 121.731 13
-7 13 -4 65.4211 116.328 6
7 13 4 249.174 171.782 12
-7 13 -4 86.194 135.39 11
-7 13 -4 312.631 120.51 1
-7 -13 4 103.938 114.654 10
13 -7 4 74.8939 109.414 10
13 4 7 139.198 143.751 5
7 13 4 103.368 95.2299 5
13 -7 4 16.13 120.844 5
-13 7 4 10.2022 249.562 3
-13 -7 -4 66.3285 129.687 9
-13 -7 -4 193.266 131.77 1
-7 -13 4 440.031 289.426 9
-13 4 -7 88.1799 130.892 8
13 4 7 73.8243 115.683 2
13 -7 4 366.21 174.511 4
-13 -7 -4 77.5262 143.719 8
7 13 4 29.1096 46.6206 2
7 -13 -4 46.928 132.317 16
7 -13 -4 40.8945 141.485 4
-13 -7 -4 35.5503 107.641 16
13 -7 4 13.4156 94.8263 2
-7 -13 4 355.75 212.243 16
13 -7 4 174.033 127.737 7
-13 4 -7 165.292 142.574 1
-7 13 -4 56.9142 83.0224 3
-13 4 -7 69.5916 103.275 3
-13 -7 -4 50.24 93.3736 15
-13 -7 -4 102.026 99.3216 3
7 -13 -4 298.012 267.469 7
-7 13 -4 98.7508 133.985 14
7 13 2 349.292 212.665 13
-13 -7 -2 388.902 154.285 3
-7 13 -2 279.843 81.3021 12
7 13 2 53.2859 134.302 12
-7 13 -2 513.432 226.587 6
-7 13 -2 197.134 101.551 11
-13 7 2 121.563 186.445 6
-7 -13 2 341.062 74.4118 3
-7 -13 2 184.23 120.461 10
-13 7 2 238.832 135.288 3
13 2 7 285.913 184.173 5
13 -7 2 133.128 84.8505 10
7 -13 -2 639.941 215.706 10
7 13 2 347.453 137.212 5
13 -7 2 250.032 121.762 5
-13 7 2 278.954 147.202 1
13 7 -2 188.021 281.657 2
-13 -7 -2 251.102 152.067 9
13 7 -2 869.14 309.852 5
-7 -13 2 138.778 170.394 9
13 2 7 297.264 217.353 2
-13 -7 -2 433.538 193.3 8
13 -7 2 340.02 197.279 4
-7 -13 2 225.336 208.319 8
7 -13 -2 451.826 177.511 4
13 7 -2 421.412 229.884 4
-7 13 -2 233.555 128.496 1
7 -13 -2 647.907 182.443 16
-13 -7 -2 538.545 156.974 16
-7 -13 2 555.475 223.598 16
13 -7 2 91.8083 108.401 7
-7 -13 2 19.355 151.574 15
-13 2 -7 342.304 217.617 3
-13 -7 -2 225.435 161.267 1
7 -13 -2 216.901 197.718 7
-13 -7 -2 377.69 155.68 15
7 -13 -2 464.288 161.099 15
13 -7 2 413.756 223.577 2
-7 13 -2 332.911 122.191 3
-7 13 -2 322.899 156.887 14
-7 13 0 1422.85 279.459 13
-7 13 0 1882.64 266.589 3
13 -7 0 775.447 292.708 2
7 13 0 887.385 192.351 11
-7 13 0 1293.11 298.696 6
-13 -7 0 1618 277.458 3
-13 7 0 1349.54 296.743 3
-13 7 0 1682.88 337.931 6
7 -13 0 1430.8 334.489 2
13 7 0 1083.78 315.965 2
-7 -13 0 1411.58 270.617 10
7 -13 0 1302.45 278.031 10
13 -7 0 1529.54 250.543 10
-13 7 0 422.946 202.955 1
-7 -13 0 1098.23 297.459 9
-13 -7 0 1117.71 293.919 9
13 0 7 669.109 217.958 4
-13 0 -7 724.301 253.114 8
13 0 7 976.93 268.34 2
-7 13 0 1179.82 294.968 1
-13 -7 0 1077.83 269.548 8
-7 -13 0 1287.7 286.769 8
7 -13 0 1643.67 257.697 4
-13 7 0 1554.23 291.613 8
-7 -13 0 1531.13 298.487 16
-13 -7 0 768.581 220.369 1
-13 -7 0 1767.16 276.161 16
-13 0 -7 794.329 274.371 1
7 -13 0 1380.97 303.694 7
-13 0 -7 1516.81 333.883 3
13 -7 0 1510.07 360.214 7
-13 -7 0 1000.48 208.587 15
-7 -13 0 1143.64 264.712 15
7 -13 0 1110.69 229.425 15
13 7 0 1129.58 225.78 14
-7 13 2 185.655 117.727 13
13 7 2 338.195 114.122 13
-13 7 -2 234.961 119.574 3
13 7 2 330.858 172.621 12
7 13 -2 513.101 168.969 11
-13 7 -2 463.934 207.19 6
-7 13 2 246.833 160.33 1
-13 7 -2 421.862 137.276 11
-7 13 2 43.1518 141.555 6
-7 13 2 278.146 174.098 3
-13 -7 2 193.909 135.427 3
7 -13 2 249.299 186.903 10
13 -7 -2 347.058 279.339 2
-13 -7 2 450.462 255.395 1
-7 -13 -2 349.907 140.32 10
13 -7 -2 285.942 150.413 10
13 7 2 147.657 119.224 5
-7 -13 -2 462.412 203.55 9
7 13 -2 314.488 171.748 5
13 -7 -2 639.444 228.189 5
-13 -7 2 516.594 220.18 9
-13 -2 -7 275.059 167.659 8
7 -13 2 471.296 163.376 4
13 -2 7 204.906 184.146 2
-7 -13 -2 324.835 145.83 8
13 7 2 172.115 128.13 4
-13 7 -2 329.788 141.876 8
-13 -7 2 155.014 139.307 8
13 -7 -2 636.946 309.865 4
13 -7 -2 236.889 110.15 16
13 -2 7 24.6575 148.485 7
-7 -13 -2 516.821 197.962 16
-13 7 -2 245.186 169.852 1
-13 -2 -7 272.152 137.082 1
7 -13 2 473.787 197.016 16
7 -13 2 459.039 194.969 7
-13 -7 2 550.675 183.018 15
7 -13 2 326.236 147.615 15
-7 -13 -2 3.83085 165.135 15
13 -7 -2 479.568 226.696 7
7 -13 2 378.889 145.844 2
13 7 2 427.405 182.682 2
7 13 -2 224.292 147.41 14
-13 7 -4 68.4028 103.069 3
13 7 4 96.6878 135.788 13
-7 -13 -4 148.392 77.3865 1
13 7 4 88.8978 145.599 12
-13 7 -4 48.3372 151.066 6
-13 7 -4 128.244 110.724 11
-7 13 4 332.233 261.668 6
7 -13 4 67.3537 125.518 10
13 7 4 87.6895 143.725 5
-7 13 4 295.74 251.348 3
-13 -4 -7 225.572 172.852 9
-13 7 -4 40.0691 143.332 1
-7 -13 -4 107.022 170.679 9
7 -13 4 64.2555 104.341 4
13 -4 7 185.18 151.682 4
13 7 4 7.77753 115.592 4
-7 -13 -4 101.36 127.148 8
-13 7 -4 214.342 115.04 8
13 -4 7 239.99 191.916 2
13 -7 -4 450.711 359.978 4
7 -13 4 7.88842 94.5844 2
-7 -13 -4 9.42965 127.026 16
13 -4 7 6.71396 132.333 7
-13 -4 -7 8.99686 177.457 1
7 -13 4 192.766 120.181 7
13 7 4 31.4535 97.8519 2
7 -13 4 296.011 249.462 16
13 7 4 165.675 77.6677 7
7 -13 4 127.78 107.445 15
-7 -13 -4 57.185 133.282 15
7 13 -4 114.71 123.624 14
13 -8 1 157.589 139.284 2
-8 13 -1 149.215 89.3969 3
-13 -8 -1 331.231 152.568 3
8 13 1 399.678 215.482 12
-8 -13 1 172.201 74.7844 3
-8 13 -1 109.503 144.408 6
8 13 1 276.02 138.153 11
-8 13 -1 38.1014 116.439 11
-13 8 1 95.8418 135.246 6
-13 8 1 0.6775 143.312 3
-8 13 -1 151.612 155.013 1
-8 -13 1 118.748 141.377 10
13 -8 1 225.453 114.267 10
8 -13 -1 424.153 249.834 2
8 -13 -1 364.299 171.857 10
13 8 -1 116.525 195.366 2
8 13 1 240.256 138.125 5
13 -8 1 114.27 109.687 5
13 8 -1 163.049 134.487 5
-13 -8 -1 32.8218 123.655 1
-13 -8 -1 280.214 163.923 9
-8 -13 1 317.968 179.756 9
8 13 1 75.4878 58.0886 4
-13 -8 -1 89.5436 131.263 8
13 -8 1 122.96 141.656 4
-8 -13 1 91.6539 147.07 8
8 -13 -1 248.373 139.782 4
13 8 -1 331.74 136.261 4
-13 8 1 345.74 180.509 8
8 -13 -1 217.02 163.401 16
-13 -8 -1 162.768 91.6757 16
-8 -13 1 192.348 126.651 16
-13 8 1 205.485 203.011 1
13 -8 1 227.865 174.268 7
-8 -13 1 83.5025 123.949 15
8 -13 -1 11.3459 142.434 7
-13 -8 -1 114.868 90.9432 15
8 -13 -1 338.046 150.859 15
13 8 -1 132.472 124.444 14
-8 13 -1 167.979 113.736 14
-8 13 1 245.709 128.47 13
8 -13 1 305.077 179.972 2
-13 8 -1 65.1122 131.538 3
13 8 1 241.379 174.571 2
-13 8 -1 262.89 158.394 1
8 13 -1 271.488 133.115 11
-13 8 -1 54.2211 161.785 6
-8 13 1 262.778 159.201 3
-13 -8 1 226.641 78.7632 6
-8 13 1 286.133 193.665 6
-13 8 -1 321.464 144.187 11
-13 -8 1 73.6181 133.71 3
13 -8 -1 72.3218 185.897 2
8 -13 1 88.6823 105.689 10
-8 -13 -1 169.859 96.6138 10
13 -8 -1 217.72 126.493 10
13 8 1 253.787 178.138 5
8 13 -1 154.081 95.1273 5
13 -8 -1 207.782 162.453 5
-8 -13 -1 369.07 200.986 9
-8 13 1 197.285 171.893 1
-13 -8 1 366.53 216.582 9
8 -13 1 501.716 174.405 4
-8 -13 -1 96.9934 130.612 8
13 8 1 451.699 192.648 4
-13 8 -1 39.202 119.485 8
8 13 -1 351.106 98.3099 4
-13 -8 1 243.673 182.426 8
13 -8 -1 314.441 268.585 4
13 -8 -1 508.396 144.865 16
-8 -13 -1 256.461 138.62 16
8 -13 1 57.382 153.4 16
-13 -8 1 62.1842 108.854 16
8 -13 1 212.849 173.249 7
-8 -13 -1 141.86 60.1303 3
-13 -8 1 23.236 101.677 15
-13 -8 1 165.331 209.47 1
13 -8 -1 83.0636 150.184 7
-8 -13 -1 207.279 126.45 15
8 -13 1 241.708 124.51 15
-13 8 -1 195.722 67.186 14
8 13 -1 6.95501 82.7332 14
13 8 1 214.567 125.675 14
0 14 0 413.541 201.929 12
14 0 0 221.313 249.94 2
0 14 0 73.315 108.806 6
-14 0 0 58.3858 160.192 6
-14 0 0 37.1448 141.058 3
0 -14 0 22.3569 138.893 10
-14 0 0 163.245 157.679 1
14 0 0 368.55 290.801 5
0 -14 0 319.106 193.457 9
-14 0 0 70.3495 95.2858 9
-14 0 0 528.029 247.82 8
14 0 0 248.917 171.578 4
0 -14 0 47.4768 125.282 16
0 -14 0 72.3214 138.818 7
0 -14 0 159.172 134.214 15
14 0 0 8.3261 132.172 7
14 -1 1 716.67 204.796 2
14 1 1 359.413 181.172 2
-14 1 -1 477.187 191.068 1
-14 -1 -1 531.646 134.508 1
1 14 -1 737.437 206.707 6
-1 14 1 551.001 178.8 12
1 14 1 63.0387 113.665 12
-1 14 -1 588.775 179.194 6
14 -1 1 519.772 143.059 12
-14 -1 -1 244.003 126.043 3
-14 -1 -1 406.43 116.188 6
1 14 1 605.4 147.67 6
-14 1 -1 278.993 139.306 3
-14 1 -1 357.335 115.559 6
-14 1 -1 634.561 111.374 11
-1 14 1 363.116 114.459 6
1 14 -1 275.264 147.996 11
-1 14 -1 496.499 185.863 11
14 -1 -1 516.053 283.221 2
-14 1 1 349.05 141.209 6
-14 -1 1 253.399 132.431 6
14 1 -1 496.23 267.328 2
-14 1 1 131.971 162.224 3
-14 -1 1 10.7638 196.764 3
-1 -14 1 199.732 167.104 10
1 -14 1 129.753 209.254 10
-1 -14 -1 682.918 195.198 10
1 -14 -1 356.826 147.365 10
1 14 -1 664.329 134.113 5
14 -1 1 662.023 245.381 5
14 1 1 1025.18 331.227 5
14 1 -1 690.875 308.563 5
14 -1 -1 785.089 295.409 5
-14 -1 -1 62.5182 114.137 9
-1 -14 1 615.128 187.551 9
1 -14 1 538.1 225.974 9
-14 1 -1 602.187 168.952 9
-14 -1 1 291.178 103.087 9
-14 1 1 204.619 143.831 9
-14 -1 -1 547.652 174.101 8
-14 1 -1 531.611 163.561 8
-14 -1 1 401.725 257.65 8
-14 1 1 223.687 269.441 8
14 1 1 581.329 258.557 4
14 -1 -1 1106.46 341.401 4
1 -14 -1 536.587 220.993 16
-1 -14 -1 164.923 174.125 16
-14 1 1 31.5923 264.175 1
1 -14 1 494.041 252.704 16
-1 -14 1 431.602 266.222 16
-1 -14 1 272.697 117.641 7
1 -14 1 121.33 110.844 7
-14 -1 1 19.5623 199.168 1
14 -1 1 448.784 183.711 7
14 1 1 435.374 174.303 7
-1 -14 1 94.8412 158.487 15
1 -14 1 10.5167 197.301 15
1 -14 -1 565.801 202.776 7
-1 -14 -1 510.19 205.909 7
-1 -14 -1 511.546 200.543 15
1 -14 -1 482.084 143.509 15
14 -1 -1 413.307 249.773 7
14 1 -1 697.37 294.046 7
1 14 -1 498.152 169.017 14
0 14 2 282.868 241.488 13
0 14 -2 76.8969 85.2423 6
0 14 2 183.192 158.503 12
-2 14 0 90.9308 80.8502 12
14 0 2 235.799 183.096 12
2 14 0 6.26754 80.2899 6
-14 0 -2 138.795 137.892 3
2 14 0 132.72 168.301 12
14 -2 0 3.87007 103.416 2
-14 0 -2 159.447 93.6528 6
14 2 0 60.9493 167.882 2
-2 14 0 4.08748 103.888 6
0 14 -2 52.7926 97.4164 11
-14 -2 0 27.7501 142.806 6
2 14 0 90.5991 114.164 11
-14 -2 0 145.36 164.545 3
-14 2 0 200.066 167.39 3
0 14 2 99.304 170.248 6
-14 0 2 172.307 244.54 6
0 -14 2 672.265 274.65 10
-14 0 2 281.693 227.772 3
-2 -14 0 165.912 180.969 10
14 0 -2 34.8188 199.709 2
2 -14 0 141.571 131.547 10
0 -14 -2 146.401 144.216 10
2 14 0 79.0327 74.6974 5
14 0 2 247.694 228.13 5
14 2 0 167.127 175.662 5
0 -14 -2 41.4545 96.7826 9
-14 0 -2 128.748 93.5938 9
-2 -14 0 27.1235 135.149 9
14 0 -2 231.327 362.012 5
2 -14 0 70.7387 167.013 9
-14 -2 0 121.57 138.551 1
-14 -2 0 6.6386 120.522 9
0 -14 2 289.075 300.538 9
-14 0 2 327.741 241.337 1
-14 2 0 90.1835 131.816 9
2 -14 0 259.487 115.133 4
-14 0 -2 160.36 178.367 8
-14 -2 0 30.6474 169.692 8
14 0 2 303.147 175.833 4
-2 -14 0 169.27 177.478 8
-14 0 2 321.53 300.699 8
14 2 0 74.2839 188.908 4
14 0 -2 413.984 266.125 4
0 -14 -2 246.928 196.343 16
-14 0 -2 49.2586 130.553 1
2 -14 0 487.436 248.565 16
-2 -14 0 410.655 253.791 16
0 -14 2 254.25 219.603 7
14 0 2 46.1168 108.471 7
2 -14 0 169.439 162.713 7
-2 -14 0 22.3703 157.486 7
0 -14 2 1558.6 398.115 15
-2 -14 0 9.27605 149.929 15
2 -14 0 299.808 178.397 15
0 -14 -2 159.109 163.432 15
14 2 0 209.719 147.234 7
0 -14 -2 107.795 200.169 7
14 0 2 62.9509 132.661 2
-2 14 0 45.3042 51.2687 3
0 14 -2 2.10024 188.072 14
14 2 2 58.5199 108.876 13
2 14 -2 307.648 165.387 6
-2 14 2 470.828 242.031 13
2 14 2 624.247 300.611 13
-2 14 2 36.1286 105.496 12
-2 14 -2 136.105 155.939 6
2 14 2 145.455 158.703 12
14 -2 2 34.8014 127.679 12
-14 -2 -2 88.0296 143.923 3
14 2 2 340.006 256.06 12
-14 2 -2 65.395 117.076 3
-14 -2 -2 190.291 146.102 6
-14 2 -2 37.42 105.686 6
-14 2 -2 87.1253 119.456 11
2 14 -2 205.747 168.919 11
-2 14 -2 85.3832 105.702 11
2 14 2 28.6228 95.8943 6
-2 14 2 88.8121 126.41 6
-2 14 2 113.403 84.5772 3
-14 2 2 100.446 161.262 6
-14 -2 2 241.036 171.567 6
-2 -14 2 147.053 148.784 10
2 -14 2 519.107 242.114 10
14 -2 -2 136.639 169.523 2
-14 -2 2 20.9511 129.75 3
14 -2 2 58.8775 90.5294 10
-2 -14 -2 119.357 99.6304 10
2 -14 -2 275.5 170.465 10
-14 2 2 82.9004 200.134 1
14 2 -2 18.5289 165.297 2
14 -2 2 366.215 256.932 5
14 2 2 394.788 236.778 5
2 -14 -2 198.667 146.972 9
2 14 -2 4.85323 103.83 5
-2 -14 -2 92.9158 120.34 9
-14 -2 -2 335.121 170.282 9
14 2 -2 279.988 248.689 5
14 -2 -2 56.6828 380.877 5
-14 2 -2 34.6412 108.523 9
2 -14 2 255.121 308.922 9
-14 -2 2 4.90046 121.049 9
-2 14 -2 37.1961 83.9163 1
-2 -14 -2 92.4142 68.0635 8
-14 -2 -2 30.7025 131.488 8
-14 2 -2 225.25 168.493 8
14 2 2 323.099 257.085 4
14 -2 2 469.705 248.799 4
-14 -2 2 127.228 236.311 8
2 -14 -2 48.7548 51.0945 4
-14 2 2 120.446 188.89 8
-14 -2 2 168.236 143.658 1
14 -2 -2 154.485 400.791 4
14 2 -2 231.814 337.28 4
2 -14 -2 217.969 206.524 16
-14 2 -2 189.821 179.503 1
-2 -14 -2 52.1123 89.5827 16
2 -14 2 468.259 301.094 16
-2 -14 2 335.611 272.549 16
-14 -2 -2 76.7426 125.467 1
-2 -14 2 80.9388 146.131 7
2 -14 2 215.402 191.248 7
-14 -2 2 21.6721 77.3965 15
14 -2 2 163.027 182.361 7
14 2 2 139.914 127.745 7
-2 -14 2 491.089 276.956 15
2 -14 2 220.329 201.341 15
2 -14 2 261.401 133.23 2
-2 -14 -2 117.592 149.685 15
2 -14 -2 170.775 188.304 7
2 -14 -2 59.1353 135.196 15
14 -2 2 35.8013 160.45 2
14 -2 -2 14.1247 224.501 7
14 2 2 122.317 111.132 2
-2 -14 -2 52.8129 183.766 7
14 2 2 33.9438 78.6252 14
2 14 -2 23.9529 124.609 14
-2 14 -2 217.91 171.14 14
14 -3 1 940.056 280.008 2
-1 14 3 673.745 204.616 13
-1 14 3 843.238 188.9 12
-14 1 -3 1350.64 267.263 3
-14 1 -3 964.587 206.899 6
-3 14 -1 1069.48 161.95 12
-3 14 -1 788.826 188.774 6
3 14 1 1115.93 168.139 6
-14 -3 -1 1002.31 248.165 3
-14 -3 -1 1015.42 171.804 6
1 14 -3 580.542 151.313 11
-3 14 -1 1029.48 255.066 11
-14 -3 -1 851.506 240.023 1
-14 3 1 978.609 249.645 6
-1 14 3 916.974 246.705 6
-14 3 1 490.621 202.001 3
14 3 -1 700.363 238.551 2
1 -14 3 844.413 235.835 10
-3 -14 1 666.569 192.519 10
3 -14 -1 1069.09 211.029 10
-1 -14 -3 858.037 241.43 10
14 -3 1 896.897 173.348 10
-14 -1 3 264.244 242.584 3
3 14 1 649.079 121.159 5
-1 14 3 889.98 162.152 3
14 -1 -3 456.04 223.264 2
-14 1 -3 1079.54 191.291 9
-14 -3 -1 1236.5 251.669 9
-3 -14 1 697.785 173.587 9
-14 1 -3 797.884 223.255 1
-1 -14 -3 1074.15 159.631 8
-14 1 -3 1216.96 257.832 8
14 1 3 612.959 176.094 4
-14 -3 -1 711.661 221.615 8
3 -14 -1 673.837 110.546 4
-14 -1 3 1292.88 320.975 8
-1 -14 -3 698.481 209.348 16
-3 -14 1 1071.34 254.155 16
1 -14 3 1078.62 197.129 7
-14 -3 -1 416.403 110.464 16
-14 -1 3 757.289 294.51 1
14 1 3 901.869 184.854 7
-3 -14 1 980.598 169.623 7
14 1 3 611.444 210.51 2
14 -3 1 1056.23 236.525 7
-3 -14 1 672.008 172.063 15
3 -14 -1 917.873 237.091 7
-3 14 -1 1107.22 152.572 3
3 -14 -1 753.362 201.009 15
-14 -3 -1 767.367 140.317 15
-1 -14 -3 794.585 212.804 15
-14 -3 1 955.905 268.661 1
3 14 -1 911.481 163.462 6
-14 3 -1 1265 293.605 1
-1 14 -3 993.827 206.139 6
14 3 1 669.635 205.025 2
-14 -1 -3 1145.14 262.075 3
1 14 3 875.075 198.111 12
-3 14 1 942.978 190.462 12
-14 -1 -3 871.017 176.017 6
-3 14 1 1049.9 151.103 3
3 -14 1 893.953 189.798 2
-14 3 -1 1138.42 290.21 3
-1 14 -3 765.94 207.901 11
-14 3 -1 944.702 221.239 6
3 14 -1 791.936 193.491 11
-3 14 1 1270.13 252.276 6
-14 3 -1 960.055 182.989 11
14 -3 -1 320.47 266.962 2
-14 -3 1 853.798 194.035 6
1 14 3 856.9 191.965 6
-14 -3 1 1076.87 272.842 3
-1 -14 3 1314.14 267.615 10
14 -1 3 996.295 139.932 10
-3 -14 -1 1052.06 267.042 10
1 -14 -3 714.923 215.057 10
-14 1 3 1011.7 306.938 3
14 -1 3 493.674 118.12 5
14 1 -3 259.695 289.563 2
1 -14 -3 934.025 214.829 9
14 3 1 758.71 268.317 5
-14 -1 -3 1053.1 211.023 9
-14 3 -1 783.528 175.198 9
-14 -3 1 980.709 244.022 9
3 -14 1 935.24 148.279 4
-14 -1 -3 1316.65 261.845 1
-14 -1 -3 993.465 249.013 8
-3 -14 -1 919.95 184.706 8
-14 3 -1 947.188 261.604 8
-14 -3 1 1021.82 293.179 8
-14 1 3 479.601 240.707 8
-3 -14 -1 509.031 200.82 16
-1 -14 3 912.449 189.63 7
-1 -14 3 485.212 222.179 16
14 -1 3 949.124 208.431 7
3 -14 1 866.259 198.634 7
14 -1 3 715.145 217.92 2
-14 -3 1 730.853 132.623 15
-1 -14 3 982.415 243.798 15
3 -14 1 650.056 156.899 15
-3 -14 -1 840.157 210.877 15
14 -3 -1 803.155 295.414 7
-3 -14 -1 1077.72 229.357 7
1 -14 -3 759.253 193.045 15
1 -14 -3 693.804 242.792 7
-1 14 -3 1386.65 291.027 14
3 14 -1 944.607 217.564 14
-3 14 3 326.17 184.104 13
3 14 3 598.399 260.977 13
-14 -3 -3 125.135 127.13 3
-14 -3 -3 1.53323 76.9661 6
14 -3 3 236.384 105.475 12
-14 3 -3 27.64 137.712 3
-3 14 -3 133.947 121.003 6
3 14 3 248.687 175.783 12
14 3 3 296.571 179.646 12
-14 3 -3 104.272 110.704 6
-14 3 -3 198.088 114.803 11
3 14 -3 32.0306 89.4203 11
-3 14 -3 368.337 191.552 11
-14 3 3 352.045 220.997 1
3 14 3 80.8126 81.93 6
-3 14 3 627.672 278.633 6
-3 14 -3 147.162 92.6206 1
-3 -14 3 235.2 166.001 10
-14 3 3 490.354 287.057 6
3 -14 3 642.164 249.947 10
14 -3 3 246.91 97.6416 10
-3 14 3 298.768 170.971 3
-14 3 3 319.066 232.752 3
3 -14 -3 121.966 142.947 10
-3 -14 -3 463.97 220.567 10
-14 -3 3 239.757 191.242 3
14 -3 -3 390.42 341.655 2
14 -3 3 196.595 139.524 5
14 3 3 375.536 216.517 5
3 -14 -3 150.763 111.16 9
-14 -3 3 17.4391 183.146 1
-3 -14 -3 156.232 108.4 9
14 3 -3 28.6777 312.334 2
-14 -3 -3 29.9877 128.203 9
-14 3 -3 275.812 117.53 9
3 14 -3 61.9801 66.1855 5
14 3 -3 177.597 283.376 5
14 -3 -3 1036.1 447.091 5
-3 -14 3 53.9864 168.033 9
-14 3 -3 124.508 175.715 1
-14 -3 -3 103.282 104.025 1
-3 -14 -3 257.124 111.05 8
-14 -3 -3 405.925 201.606 8
-14 3 -3 299.222 153.687 8
14 3 3 48.1882 108.441 4
14 -3 3 503.826 240.647 4
-14 -3 3 27.7782 191.533 8
3 -14 -3 361.675 141.522 4
14 -3 -3 406.35 321.325 4
14 3 -3 46.3944 248.105 4
3 -14 -3 319.428 192.053 16
3 -14 3 423.494 125.084 2
-3 -14 -3 55.1605 149.709 16
-14 -3 -3 192.085 93.1853 16
-3 -14 3 169.481 128.681 7
3 -14 3 16.8131 137.196 16
-3 -14 3 265.397 215.622 16
3 -14 3 338.015 141.372 7
14 -3 3 442.328 194.779 7
14 3 3 239.003 128.521 7
14 -3 3 269.905 129.977 2
14 3 3 522.725 205.17 2
-3 -14 3 376.562 250.071 15
3 -14 3 68.7332 137.316 15
-3 -14 -3 129.673 164.035 15
3 -14 -3 298.433 161.543 15
3 -14 -3 336.247 183.254 7
3 14 -3 415.867 186.735 14
-3 14 -3 51.4841 131.653 14
-2 14 4 520.985 240.482 13
-14 2 -4 223.406 151.136 3
4 14 2 497.41 260.193 13
-14 2 -4 236.434 97.5144 6
14 -4 2 439.579 127.399 12
14 2 4 443.247 196.496 12
-14 -4 -2 352.598 139.387 6
-14 -4 -2 485.063 203.242 3
4 14 2 282.683 179.792 12
-4 14 -2 287.008 127.903 6
2 14 -4 337.161 138.854 11
4 14 2 459.837 115.393 6
-4 14 -2 110.926 125.663 11
-14 4 2 253.882 197.148 6
-14 4 2 383.832 218.173 1
2 -14 4 389.246 196.074 10
-2 14 4 413.46 260.964 6
-4 -14 2 622.208 220.148 10
-14 4 2 166.027 212.522 3
14 -4 2 384.39 135.341 10
4 14 2 353.96 133.128 5
4 -14 -2 334.733 166.917 10
-2 -14 -4 232.877 145.886 10
14 4 -2 64.542 269.157 2
14 2 4 770.105 251.139 5
-14 2 -4 267.801 132.39 1
14 -4 2 644.783 219.909 5
-2 -14 -4 148.58 111.991 9
4 -14 -2 266.716 125.549 9
-14 2 -4 341.898 139.441 9
-14 -4 -2 150.084 124.472 9
14 4 -2 429.93 260.352 5
-4 -14 2 91.0129 173.916 9
-2 -14 -4 497.518 136.226 8
2 -14 4 237.651 102.262 2
-14 2 -4 197.494 184.695 8
14 2 4 358.145 184.591 4
-14 -4 -2 354.992 159.664 8
14 -4 2 443.646 234.858 4
-14 4 2 209.891 196.248 8
4 -14 -2 386.052 117.235 4
14 4 -2 751.045 286.66 4
-2 -14 -4 371.144 183.463 16
4 -14 -2 326.773 172.934 16
2 -14 4 506.59 173.357 7
-14 -4 -2 381.519 113.988 16
-4 -14 2 382.066 191.74 16
14 2 4 582.651 229.457 2
2 -14 4 492.992 217.623 16
-4 -14 2 365.136 136.317 7
14 2 4 463.762 163.062 7
-14 -4 -2 305.941 183.4 1
14 -4 2 486.825 194.191 7
2 -14 4 539.989 236.446 15
-4 14 -2 519.542 175.284 3
-4 -14 2 297.748 160.96 15
4 -14 -2 461.324 251.088 7
4 -14 -2 488.853 216.446 15
-14 -4 -2 277.527 123.53 15
-2 -14 -4 224.769 173.398 15
14 -4 2 290.94 172.007 2
2 14 -4 548.223 210.153 14
-4 14 -2 430.454 188.153 14
-14 0 -4 134.376 117.476 3
0 14 4 440.972 196.845 13
-4 14 0 214.893 95.4743 3
4 14 0 53.5013 59.7001 6
-14 0 -4 31.5253 87.8068 6
14 0 4 152.162 104.289 12
-4 14 0 23.5107 84.9463 12
14 -4 0 59.303 146.518 2
0 14 -4 114.083 105.813 11
14 4 0 8.1142 160.271 2
-4 14 0 18.3956 93.4162 6
-14 -4 0 108.763 104.641 6
-14 -4 0 227.712 203.953 3
-4 14 0 140.41 141.337 1
4 14 0 22.0248 87.0117 11
-14 4 0 362.816 226.025 3
0 -14 4 296.733 179.479 10
0 14 4 300.948 202.399 6
4 -14 0 74.2496 184.586 2
-4 -14 0 223.102 161.947 10
4 -14 0 242.192 198.959 10
0 -14 -4 174.464 128.855 10
14 -4 0 26.5305 85.4429 10
14 0 4 276.42 177.51 5
-14 0 -4 35.3681 126.324 1
4 14 0 309.762 123.01 5
0 -14 -4 82.315 101.272 9
14 -4 0 45.0674 133.361 5
14 4 0 179.293 236.195 5
-14 0 -4 7.4897 94.7474 9
-4 -14 0 294.925 212.545 9
4 -14 0 49.3649 123.628 9
-14 -4 0 205.562 131.56 9
-14 -4 0 156.024 160.269 1
0 -14 -4 40.2486 59.0131 8
-14 0 -4 420.062 210.529 8
14 0 4 252.814 157.247 4
4 -14 0 98.662 91.024 4
-14 -4 0 442.126 239.622 8
-14 4 0 104.534 129.618 8
-4 -14 0 293.352 167.119 8
14 4 0 147.154 139.145 4
0 -14 -4 173.793 122.151 16
0 -14 4 164.663 164.962 7
4 -14 0 111.329 119.913 16
-4 -14 0 27.5375 140.983 16
14 0 4 311.152 185.9 2
0 -14 4 408.024 255.762 16
14 0 4 249.587 138.199 7
0 -14 4 104.063 147.202 15
4 -14 0 80.555 158.943 7
-4 -14 0 322.402 141.972 7
-14 -4 0 95.4056 102.147 15
14 -4 0 120.489 140.495 7
-4 -14 0 363.695 172.909 15
4 -14 0 131.687 107.629 15
0 -14 -4 112.184 133.776 15
14 4 0 193.599 143.852 7
0 14 -4 88.3659 162.276 14
-14 -2 -4 319.231 140.023 3
2 14 4 364.746 217.281 13
14 4 2 632.101 193.799 13
-4 14 2 177.033 157.965 13
-2 14 -4 312.099 176.31 6
-14 -2 -4 399.818 140.146 6
14 4 2 625.954 263.187 12
-14 4 -2 335.665 161.162 3
-14 4 -2 487.958 204.534 6
-2 14 -4 422.527 203.994 11
4 14 -2 277.824 136.339 11
-14 4 -2 268.823 118.227 11
-4 14 2 118.901 163.108 6
-4 14 2 373.07 123.491 3
-2 -14 4 274.224 161.748 10
-14 -4 2 333.203 186.177 6
2 14 4 459.294 193.227 6
14 -4 -2 440.352 335.654 2
14 -2 4 356.426 126.782 10
4 -14 2 414.19 206.955 10
-14 -4 2 178.497 204.038 3
-4 -14 -2 342.789 172.685 10
2 -14 -4 7.95504 116.172 10
14 -2 4 348.933 159.016 5
2 -14 -4 203.975 107.323 9
-14 -2 -4 460.101 211.207 1
14 4 2 412.486 196.482 5
-14 -2 -4 336.267 172.885 9
4 14 -2 407.078 135.649 5
-4 -14 -2 567.991 237.456 9
14 -4 -2 1102.55 381.636 5
-14 4 -2 359.491 114.378 9
-14 -4 2 41.6252 155.829 9
4 -14 2 373.443 241.473 9
4 -14 2 124.853 90.459 4
-14 -2 -4 677.584 217.592 8
14 -2 4 718.187 228.606 4
-4 -14 -2 436.284 134.387 8
-14 4 -2 348.134 163.194 8
14 4 2 591.613 223.006 4
-14 -4 2 450.265 229.226 8
14 -4 -2 197.203 209.159 4
-2 14 -4 313.744 108.097 1
2 -14 -4 282.326 137.794 16
-2 -14 4 185.629 132.911 7
-14 -2 -4 244.294 73.4771 16
-4 -14 -2 368.144 192.598 16
-14 4 -2 404.317 170.919 1
4 -14 2 624.904 252.964 16
14 -2 4 444.257 200.057 2
-2 -14 4 498.652 272.623 16
14 -2 4 158.733 141.299 7
4 -14 2 710.376 232.634 7
-14 -4 2 171.698 115.498 15
-2 -14 4 243.173 207.715 15
14 4 2 362.061 156.226 7
4 -14 2 193.986 156.115 15
-4 -14 -2 432.202 199.182 15
4 -14 2 223.213 122.23 2
14 -4 -2 72.4707 180.745 7
-14 -4 2 4.50832 157.483 1
2 -14 -4 434.924 179.191 15
14 4 2 163.648 156.586 2
-2 14 -4 340.734 157.723 14
4 14 -2 440.509 177.228 14
14 4 2 447.149 133.346 14
-4 14 4 979.252 266.709 13
-14 4 -4 789.34 230.795 3
4 14 4 692.1 212.653 13
-4 14 -4 745.019 221.679 6
4 14 4 655.397 206.358 12
-14 4 -4 945.673 254.106 6
4 14 -4 456.925 168.062 11
-4 14 -4 698.595 245.463 11
-4 -14 4 650.103 196.301 10
4 14 4 703.806 167.548 6
-4 14 4 1013.42 308.552 6
4 -14 4 645.102 213.93 10
14 -4 4 998.484 205.646 10
4 -14 -4 363.13 198.447 10
-4 -14 -4 959.544 257.092 10
14 -4 4 645.179 175.688 5
4 -14 -4 493.247 131.17 9
-4 14 4 535.516 223.015 3
-4 -14 -4 891.764 219.137 9
-14 -4 -4 649.352 190.141 9
-14 4 -4 776.265 146.539 9
-14 4 -4 778.884 227.577 1
-14 -4 -4 534.652 179.472 1
-4 -14 4 1100.48 376.366 9
-4 -14 -4 698.484 152.57 8
14 4 4 957.296 262.94 4
-14 -4 -4 965.078 263.473 8
-14 4 -4 1320.57 283.491 8
14 -4 4 972.741 272.556 4
4 -14 4 942.787 170.116 2
4 -14 -4 556.434 183.745 16
14 -4 -4 568.345 399.943 4
-4 -14 -4 617.994 223.476 16
-14 -4 -4 869.178 163.738 16
4 -14 4 704.304 195.066 7
4 -14 4 667.308 271.523 16
-4 -14 4 883.281 269.074 16
14 -4 4 1021.3 277.704 2
14 4 4 855.2 225.068 2
14 -4 4 762.524 212.368 7
14 4 4 631.117 147.705 7
-4 -14 4 1192.24 327.48 15
4 -14 4 610.751 194.312 15
-4 -14 -4 758.044 207.432 15
4 -14 -4 756.699 189.202 15
4 14 -4 1189.59 307.591 14
-4 14 -4 480.872 198.181 14
-14 -4 -4 844.152 231.625 3
-4 14 -4 704.836 149.02 1
-14 -5 -3 14.0076 78.2071 6
-14 -5 -3 44.4064 108.113 3
5 14 3 89.949 166.018 13
-14 3 -5 21.8963 136.965 6
14 3 5 41.124 107.953 12
-5 14 -3 76.516 96.0035 6
5 14 3 28.1226 103.826 12
-14 5 3 54.0651 263.167 1
-5 14 -3 4.73212 131.465 11
5 14 3 47.4177 78.1009 6
3 -14 5 136.13 162.738 10
-14 5 3 175.945 230.802 6
-5 -14 3 216.539 148.838 10
-14 3 -5 103.03 146.746 1
14 -5 3 24.8377 119.276 10
5 14 3 75.0453 127.703 5
-14 5 3 168.293 197.75 3
5 -14 -3 19.7879 119.729 10
14 3 5 56.0693 186.551 5
14 -5 3 102.362 108.376 5
-3 -14 -5 76.0206 141.302 9
5 -14 -3 73.3472 74.3356 9
-14 3 -5 84.9395 93.8102 9
-5 14 -3 55.1786 92.9911 1
-14 -5 -3 132.352 133.439 9
14 5 -3 529.259 359.66 5
-5 -14 3 224.862 239.246 9
3 -14 5 137.027 78.6278 2
-3 -14 -5 30.5725 75.506 8
14 3 5 111.397 134.293 4
-14 3 -5 54.4888 112.16 8
-14 -5 -3 122.561 156.735 8
14 -5 3 31.0438 121.479 4
-14 -5 -3 138.084 176.918 1
5 -14 -3 87.7787 105.844 4
14 5 -3 218.312 308.29 4
14 3 5 68.1985 132.877 2
-3 -14 -5 219.827 203.404 16
5 -14 -3 15.2038 106.163 16
-5 -14 3 26.4456 70.172 7
-14 -5 -3 2.91284 93.01 16
14 3 5 0.80134 89.196 7
-5 -14 3 84.6996 173.655 16
3 -14 5 211.425 157.967 16
14 -5 3 128.606 98.9627 7
3 -14 5 205.765 131.738 15
14 -5 3 61.6268 182.865 2
-5 -14 3 84.998 171.614 15
5 -14 -3 87.8753 212.183 7
5 -14 -3 122.65 118.995 15
-3 -14 -5 74.7922 118.207 15
-14 -5 -3 35.3917 122.522 15
3 14 -5 90.2039 124.603 14
-14 3 -5 97.37 122.604 3
-5 14 -3 337.042 194.297 14
-1 14 5 24.4101 141.938 13
14 -5 1 15.4742 146.495 2
14 1 5 34.096 85.1006 12
5 14 1 35.905 51.7498 6
14 -5 1 18.8776 66.6623 12
-5 14 -1 76.4688 86.9232 12
5 14 1 6.87781 119.801 12
-14 -5 -1 81.5205 78.4557 6
-14 -5 -1 121.78 144.013 3
1 14 -5 110.408 111.224 11
-5 14 -1 25.9873 122.169 6
-5 14 -1 28.5677 99.473 11
5 14 1 64.4074 139.195 11
-14 5 1 43.6065 147.433 6
-14 5 1 91.8359 141.993 3
1 -14 5 88.1521 121.173 10
14 5 -1 47.3317 188.032 2
-14 -5 -1 76.7981 146.677 1
-5 -14 1 173.313 158.465 10
-5 14 -1 180.935 142.876 1
14 -5 1 130.734 91.6465 10
14 1 5 174.811 176.188 5
-1 -14 -5 113.367 139.779 10
5 14 1 119.005 95.3848 5
-1 -14 -5 34.0756 104.851 9
14 -5 1 101.767 129.676 5
5 -14 -1 303.679 233.076 2
14 5 -1 339.298 291.188 5
-14 -5 -1 11.0378 107.108 9
-5 -14 1 111.535 160.945 9
14 1 5 63.6555 148.961 4
-14 -5 -1 207.883 192.119 8
14 -5 1 100.572 168.071 4
-14 5 1 282.304 206.746 8
-5 -14 1 43.7054 237.363 8
14 5 -1 26.4707 148.947 4
-14 5 1 59.0529 156.925 1
14 1 5 26.6307 157.971 2
-1 -14 -5 184.836 190.93 16
1 -14 5 40.9281 117.249 7
-5 -14 1 173.386 180.798 16
14 1 5 2.33222 103.465 7
-14 -5 -1 96.7925 135.011 16
1 -14 5 185.819 163.707 16
-5 -14 1 62.2266 101.321 7
1 -14 5 111.481 111.595 15
14 -5 1 394.1 201.484 7
-5 -14 1 109.33 150.2 15
-14 -5 -1 23.9949 88.0101 15
-1 -14 -5 164.363 155.895 15
1 14 -5 84.4027 109.067 14
-14 1 -5 40.5115 105.478 3
-5 14 -1 21.3231 64.1115 3
1 14 5 214.286 163.745 13
-14 -1 -5 58.1454 123.581 6
-14 5 -1 50.1531 181.125 1
14 5 1 53.5163 112.513 2
5 -14 1 117.385 147.939 2
-1 14 -5 73.5039 119.696 11
-14 5 -1 154.529 168.365 3
-5 14 1 81.2148 216.471 1
-14 -5 1 25.9714 136.596 1
-14 5 -1 54.8826 128.169 6
5 14 -1 46.6192 95.6917 11
-5 14 1 4.58986 102.246 6
-14 5 -1 190.759 115.305 11
14 -5 -1 238.935 251.845 2
-14 -5 1 125.412 110.665 6
-14 -1 -5 54.1697 171.365 1
-14 -5 1 91.1931 107.395 3
5 -14 1 94.1484 131.318 10
-5 -14 -1 72.4485 110.602 10
1 -14 -5 58.193 145.184 10
1 -14 -5 181.96 131.725 9
-14 -1 -5 77.5293 115.057 9
14 5 1 180.155 162.113 5
5 14 -1 3.73719 83.1581 5
14 -5 -1 36.2125 171.3 5
-5 -14 -1 109.36 160.794 9
-14 -5 1 105.476 144.73 9
5 -14 1 9.45866 178.849 9
5 -14 1 183.145 106.41 4
-14 -1 -5 72.5156 128.597 8
-5 -14 -1 51.7328 135.326 8
-14 5 -1 175.402 175.554 8
-14 -5 1 133.266 145.198 8
14 5 1 7.89519 128.678 4
14 -5 -1 237.657 250.697 4
1 -14 -5 13.1506 136.366 16
-1 -14 5 68.1707 93.4373 7
-5 -14 -1 28.2963 132.289 16
5 -14 1 91.9382 170.752 16
-1 -14 5 185.64 184.018 16
5 -14 1 45.8456 114.788 7
-1 -14 5 157.758 134.635 15
-14 -5 1 41.8975 86.4323 15
5 -14 1 117.533 133.535 15
-5 -14 -1 22.6061 123.872 15
14 -5 -1 164.767 202.665 7
14 5 1 22.6602 125.417 7
1 -14 -5 47.2062 111.31 15
-5 -14 -1 65.9132 123.109 7
-1 14 -5 98.9386 147.419 14
-14 -1 -5 1.40905 101.955 3
14 5 1 20.5027 88.8483 14
5 14 -1 61.175 124.338 14
14 5 3 46.4377 85.3768 13
3 14 5 205.802 190.69 13
-5 14 3 279.668 177.668 13
3 14 5 56.7544 90.685 12
-14 5 -3 1.00775 130.264 3
14 5 3 82.0617 166.921 12
-14 5 -3 136.466 128.764 6
5 14 -3 35.3919 82.2189 11
-3 14 -5 95.6262 118.686 11
-14 5 -3 42.7473 88.6892 11
-5 14 3 141.43 132.145 6
-3 -14 5 98.2694 177.915 10
-14 -3 -5 39.5756 145.676 1
14 -3 5 37.8639 64.1764 10
5 -14 3 6.24257 153.044 10
-5 14 3 27.5398 141.391 3
-14 -5 3 120.811 157.743 3
14 -3 5 20.1648 140.336 5
-5 -14 -3 336.437 191.42 10
3 -14 -5 6.28497 136.621 10
14 -5 -3 277.848 216.386 2
14 5 3 244.844 206.326 5
-14 -3 -5 45.1856 99.8139 9
-5 -14 -3 123.222 115.128 9
-14 5 -3 96.1829 72.9916 9
5 14 -3 19.5739 80.3605 5
14 -5 -3 238.097 255.555 5
-14 -5 3 286.115 234.462 9
14 -3 5 27.1622 155.831 4
-14 -3 -5 145.602 152.951 8
-14 5 -3 47.7792 142.274 1
-5 -14 -3 189.921 130.102 8
-14 5 -3 109.439 139.269 8
14 5 3 35.3417 100.403 4
-14 -5 3 519.146 280.491 8
14 -5 -3 46.2293 235.528 4
3 -14 -5 81.4857 117.549 16
14 -3 5 18.8079 159.202 2
-14 -3 -5 2.24727 65.4653 16
-5 -14 -3 210.113 157.48 16
5 -14 3 80.4182 225.596 16
14 -3 5 93.527 106.432 7
-3 -14 5 297.678 179.471 16
5 -14 3 6.50151 100.994 7
5 -14 3 104.27 79.2884 2
-14 -5 3 109.941 140.57 15
-3 -14 5 118.506 161.583 15
14 5 3 57.2525 70.5611 7
5 -14 3 54.9574 140.65 15
14 5 3 22.5641 109.161 2
-5 -14 -3 394.859 207.605 15
14 -5 -3 336.647 229.901 7
-14 -3 -5 57.5347 104.3 3
-3 14 -5 103.974 170.078 14
5 14 -3 172.248 145.185 14
-14 2 -6 796.23 228.372 6
-14 -6 -2 810.316 162.199 6
-14 -6 -2 816.476 218.416 3
-14 2 -6 658.282 210.412 1
6 14 2 709.132 116.244 6
6 14 2 545.779 200.206 12
-6 14 -2 812.373 151.673 12
-6 14 -2 743.23 219.503 6
-6 14 -2 667.266 242.517 11
-14 6 2 562.546 286.236 6
14 -6 2 701.402 209.588 10
6 -14 -2 716.389 242.48 10
14 2 6 554.935 213.475 5
6 14 2 766.386 197.861 5
14 -6 2 853.86 219.595 5
-14 2 -6 491.279 171.797 9
14 6 -2 853.547 376.046 2
-14 -6 -2 509.555 198.31 9
14 6 -2 205.021 296.42 5
-6 -14 2 763.044 274.639 9
-14 2 -6 600.814 188.412 8
-14 -6 -2 574.613 196.61 8
14 -6 2 805.32 237.333 4
14 2 6 953.203 252.808 2
6 -14 -2 809.307 180.325 4
-14 6 2 648.405 243.921 8
6 -14 -2 893.26 224.757 16
14 2 6 714.596 194.14 7
-14 -6 -2 844.666 180.054 16
-6 -14 2 662.001 209.602 16
-6 -14 2 975.086 145.913 7
14 -6 2 493.943 165.986 7
6 -14 -2 566.953 254.534 7
-14 -6 -2 728.212 170.412 15
6 -14 -2 839.521 220.13 15
-14 2 -6 510.833 209.335 3
-14 -6 -2 628.598 233.069 1
-6 14 -2 880.262 200.42 3
14 -6 2 686.576 252.459 2
-6 14 0 152.228 108.299 13
-6 14 0 17.9002 70.6917 12
-14 0 -6 101.794 141.088 1
-6 14 0 59.6123 90.1475 3
14 -6 0 4.04921 66.2928 12
14 -6 0 92.8635 192.416 2
-14 -6 0 9.20245 66.1128 6
-6 14 0 21.2579 118.563 6
-14 -6 0 6.11169 103.794 3
6 14 0 53.2822 114.081 11
-14 6 0 165.946 216.577 3
-14 6 0 95.9554 135.664 6
14 6 0 88.4937 181.234 2
14 0 6 37.745 51.0943 10
6 -14 0 231.252 206.369 2
-6 -14 0 42.5579 118.418 10
6 -14 0 142.952 175.666 10
14 0 6 92.3048 122.354 5
14 -6 0 53.0852 126.371 10
-14 0 -6 51.5126 103.862 9
6 14 0 31.8681 73.1994 5
14 -6 0 133.355 135.225 5
14 6 0 217.478 214.296 5
-14 6 0 129.851 178.682 1
-6 -14 0 121.776 153.459 9
6 -14 0 87.6857 155.017 9
-14 -6 0 9.76487 134.748 9
14 0 6 363.107 191.902 4
-14 0 -6 42.0065 112.617 8
6 -14 0 2.76672 94.9269 4
-14 -6 0 66.6386 119.051 8
-6 -14 0 116.449 133.036 8
-14 6 0 179.027 126.915 8
14 6 0 100.686 132.034 4
14 -6 0 103.634 186.359 4
14 0 6 184.96 172.754 2
-14 -6 0 41.0726 124.041 1
14 0 6 197.057 186.991 7
6 -14 0 76.6458 123.453 16
-6 -14 0 37.996 116.392 16
-14 -6 0 15.9701 127.411 16
6 -14 0 4.94155 150.339 7
14 -6 0 113.319 193.627 7
-14 -6 0 30.4801 85.6723 15
-6 -14 0 113.696 135.878 15
6 -14 0 59.2316 107.89 15
-14 0 -6 57.4084 125.292 3
-6 14 0 139.638 158.806 1
14 6 0 42.9257 78.2903 14
-6 14 2 870.901 194.691 13
-14 -2 -6 362.867 187.997 1
-14 6 -2 983.043 249.5 3
14 6 2 1085.29 303.414 12
-14 6 -2 792.487 245.275 6
6 14 -2 791.025 201.25 11
-14 6 -2 508.326 182.035 11
-6 14 2 821.301 264.529 6
-6 14 2 901.698 211.507 3
14 -2 6 899.946 177.346 10
-14 -6 2 690.106 178.146 6
14 -6 -2 455.183 262.279 2
6 -14 2 378.435 161.721 10
14 -2 6 470.467 198.565 5
-6 -14 -2 673.419 185.836 10
-14 -2 -6 820.302 220.187 9
14 6 2 864.671 275.33 5
6 14 -2 539.416 173.125 5
-6 -14 -2 475.751 189.191 9
14 -2 6 554.199 148.476 4
6 -14 2 844.692 200.874 4
-14 -2 -6 779.884 274.339 8
-6 -14 -2 790.866 196.544 8
-14 6 -2 680.701 200.65 8
14 6 2 838.972 246.031 4
14 -2 6 787.101 243.688 2
14 -6 -2 1471.47 426.805 4
-6 -14 -2 619.179 175.426 16
14 -2 6 1053.81 272.466 7
-14 6 -2 783.02 227.687 1
6 -14 2 893.238 224.71 7
6 -14 2 559.215 152.405 15
14 6 2 502.45 141.953 7
-6 -14 -2 681.216 222.118 15
-14 -2 -6 750.986 223.937 3
14 -6 -2 738.633 296.058 7
6 -14 2 916.228 213.101 2
6 14 -2 803.525 244.506 14
14 6 2 584.447 198.698 2
14 6 2 802.482 173.906 14
0 15 1 167.275 111.427 13
15 0 1 251.861 130.228 2
0 15 -1 284.401 138.071 6
0 15 1 470.165 163.331 12
-1 15 0 279.153 96.9217 12
1 15 0 309.279 131.11 12
15 0 1 265.63 162.561 12
1 15 0 447.717 133.032 6
-1 15 0 517.463 162.824 6
15 1 0 237.338 193.728 2
-15 0 -1 406.012 173.446 3
-15 0 -1 275.853 73.7867 11
-15 0 -1 313.946 144.42 6
0 15 1 494.98 150.073 6
-15 0 -1 109.787 167.84 1
-15 -1 0 343.841 143.242 6
0 15 -1 290.095 155.868 11
-15 -1 0 112.319 110.89 3
1 15 0 478.937 155.778 11
-15 0 1 392.539 178.744 6
15 0 -1 498.983 193.171 2
-15 0 1 495.32 215.498 3
0 -15 1 239.807 147.653 10
-1 -15 0 264.297 105.831 10
1 -15 0 391.011 185.547 10
0 -15 -1 259.634 168.062 10
1 15 0 359.615 100.745 5
15 0 1 18.4772 128.929 5
15 -1 0 302.344 256.369 5
15 1 0 562.467 299.961 5
15 0 -1 586.539 297.145 5
0 -15 -1 505.543 180.085 9
-15 1 0 312.735 331.066 1
1 -15 0 344.241 172.567 9
0 -15 1 762.963 239.045 9
-15 0 -1 309.047 91.8886 9
-15 -1 0 537.564 154.204 9
-15 -1 0 222.085 190.998 1
-15 0 1 251.46 163.206 9
-15 0 -1 466.45 218.208 8
-15 -1 0 254.603 142.84 8
-15 0 1 242.609 205.649 8
15 0 1 699.337 253.86 4
15 1 0 456.31 232.634 4
-1 -15 0 787.729 227.441 8
15 0 -1 532.039 243.533 4
0 -15 -1 337.402 167.158 16
1 -15 0 203.229 149.586 16
-1 -15 0 388.486 177.268 16
0 -15 1 247.93 169.689 16
0 -15 1 390.685 171.15 7
1 -15 0 224.131 116.1 7
-15 0 1 436.547 244.423 1
-1 -15 0 395.175 174.109 7
15 0 1 189.038 102.993 7
0 -15 1 165.506 136.008 15
-1 -15 0 423.34 189.554 15
1 -15 0 282.616 139.931 15
0 -15 -1 215.102 191.467 7
15 -1 0 55.1056 157.239 7
0 -15 -1 549.783 212.028 15
15 1 0 398.223 165.75 7
15 0 -1 580.004 251.014 7
0 15 -1 177.062 131.642 14
-1 15 2 2942.13 417.684 13
15 -2 1 2062.13 380.688 2
-2 15 -1 2744.8 311.515 12
-1 15 2 2471.39 343.156 12
-15 1 -2 2542.12 387.756 3
-15 1 -2 2418.85 254.138 11
-15 1 -2 2735.88 355.928 6
-15 -2 -1 2303.44 371.923 3
1 15 -2 2605.49 370.422 11
-2 15 -1 2068.94 351.858 11
-1 15 2 2715.68 332.07 6
15 -2 1 2442.49 256.413 10
-15 2 1 2156.37 387.327 3
-15 -2 -1 2124.05 359.812 1
-15 -1 2 2500.68 364.877 6
2 15 1 2799.52 306.062 5
1 -15 2 3091.09 408.684 10
-2 -15 1 2543.98 372.524 10
15 -1 -2 1611.02 467.511 2
2 -15 -1 2509.32 400.648 10
-1 -15 -2 2675.09 398.499 10
-15 1 -2 2951.97 345.805 9
-15 -2 -1 3027.51 394.524 9
2 -15 -1 2469.39 213.618 4
-15 -1 2 1779.44 378.25 1
-15 1 -2 2516.4 380.911 8
-15 -2 -1 2044.43 419.869 8
-15 -1 2 1676.02 337.974 8
-2 -15 1 2989.62 337.268 7
-2 -15 1 2766.85 412.821 16
-15 2 1 2136.93 402.586 1
-15 -1 2 1690.74 220.768 15
1 -15 2 2519.65 336.373 7
-15 1 -2 2348.93 380.594 1
15 1 2 2460.76 333.077 7
15 -2 1 2977.77 390.656 7
1 -15 2 2278.44 367.488 15
-2 -15 1 2434.13 365.524 15
2 -15 -1 2635 408.91 7
2 -15 -1 2811.98 397.606 15
-1 -15 -2 2869.11 384.748 15
-1 -15 -2 3270.86 472.494 7
1 15 -2 2998.98 355.438 6
-2 15 -1 3018.37 347.305 6
2 15 1 2831.7 300.507 6
-15 -2 -1 2949.79 341.964 6
-2 15 1 3257.5 363.55 12
15 2 1 1977.17 378.047 2
1 15 2 2561.21 368.011 12
-15 -1 -2 2667.85 399.624 3
-1 15 -2 2993.25 417.84 11
-15 2 -1 2565.34 257.783 11
2 15 -1 3097.29 400.663 11
-15 2 -1 1764.9 334.154 1
-15 2 -1 2525.5 348.118 6
-15 -2 1 2609.23 340.123 6
15 -2 -1 1468.81 374.912 2
15 -1 2 2398.16 229.958 10
-15 -2 1 1928.13 364.011 3
-15 1 2 2371.91 376.956 6
-1 -15 2 2681.9 377.64 10
-15 1 2 1785.54 414.24 3
2 15 -1 2648.87 240.447 5
2 -15 1 2173.39 349.524 10
-2 -15 -1 3392.05 435.374 10
1 -15 -2 2710.4 409.031 10
-15 1 2 1848.64 410.85 1
-15 -1 -2 2678.6 359.631 9
-15 2 -1 2741.98 335.096 9
-15 -2 1 2000.08 319.597 9
-15 2 -1 2487.25 387.299 8
-15 -2 1 1925.2 371.023 8
-15 1 2 2074.66 418.421 8
-2 -15 -1 2247.77 363.163 16
-2 15 1 2921.06 228.07 3
-15 -2 1 2040.06 222.323 15
-1 -15 2 2835.31 322.868 7
2 -15 1 2786.74 363.849 7
-15 -1 -2 2559.2 384.483 1
15 -1 2 2967.93 389.288 7
2 -15 1 2212.74 354.578 15
15 2 1 2675.07 384.99 7
-2 -15 -1 2581.23 380.292 15
-2 -15 -1 2836.59 382.434 7
1 -15 -2 2486.77 366.815 15
15 -1 2 2472.25 392.025 2
2 15 -1 2884.06 325.806 6
-1 15 -2 3029.85 367.82 6
-15 -1 -2 2760.39 336.925 6
-1 15 -2 2864.94 426.529 14
-2 15 1 3312.26 375.719 6
2 15 -1 2835.06 429.84 14
1 15 2 2928.68 324.16 6
-15 -2 1 1995.14 368.208 1
-2 15 3 521.902 122.578 13
3 15 2 526.88 195.329 13
15 -3 2 812.415 181.39 12
3 15 2 718.436 202.819 12
-3 15 -2 757.132 198.766 6
-15 -3 -2 1030.99 189.874 6
-15 2 -3 653.025 191.726 6
2 15 -3 570.272 191.93 11
3 15 2 874.909 169.251 6
-2 15 3 664.668 144.581 3
15 -3 2 858.537 175.929 10
3 -15 -2 592.668 187.415 10
-2 -15 -3 590.752 213.071 10
15 3 -2 538.586 366.192 2
15 -2 -3 762.263 326.813 2
15 2 3 511.236 219.324 5
-2 -15 -3 373.992 162.634 9
-15 2 -3 756.453 186.752 9
15 3 -2 625.066 267.751 5
15 -2 -3 1234.53 496.032 5
-3 -15 2 932.338 289.384 9
2 -15 3 1437.61 398.096 9
-2 -15 -3 561.43 155.338 8
15 -3 2 492.477 200.004 4
3 -15 -2 575.424 129.058 4
15 3 -2 1954.66 480.013 4
15 -2 -3 1267.94 547.949 4
-2 -15 -3 619.474 224.178 16
3 -15 -2 716.837 233.724 16
2 -15 3 791.756 132.996 2
2 -15 3 644.66 249.042 16
-15 -3 -2 625.902 111.649 16
2 -15 3 716.569 184.051 7
-3 -15 2 631.793 159.138 7
15 2 3 765.731 194.709 7
15 -3 2 674.075 185.15 7
15 2 3 489.29 206.081 2
3 -15 -2 931.158 292.767 7
3 -15 -2 784.395 225.948 15
-2 -15 -3 740.941 223.19 15
-15 -3 -2 737.214 147.454 15
15 -3 2 762.345 249.946 2
15 2 3 739.824 123.001 14
0 15 3 196.632 126.407 13
0 15 -3 417.462 160.848 6
-15 0 -3 346.908 165.501 3
0 15 3 391.234 160.392 12
3 15 0 583.148 132.567 6
15 0 3 357.454 149.077 12
-3 15 0 584.463 161.876 12
-15 0 -3 433.644 168.736 6
3 15 0 558.51 210.683 12
-3 15 0 555.125 189.872 6
15 3 0 374.615 214.006 2
0 15 -3 371.273 163.25 11
-15 -3 0 454.332 159.548 6
-15 -3 0 460.712 204.174 3
3 15 0 295.193 128.809 11
-3 15 0 470.934 170.308 1
0 15 3 480.881 166.855 6
0 -15 3 584.66 249.442 10
-15 0 3 206.004 202.155 6
-3 -15 0 474.59 181.665 10
3 -15 0 611.865 223.835 10
0 -15 -3 377.027 176.714 10
3 15 0 420.823 113.729 5
15 0 3 248.028 135.787 5
15 0 -3 730.989 379.636 2
3 -15 0 628.773 272.505 2
0 -15 -3 369.693 162.737 9
15 3 0 331.702 205.354 5
-15 0 -3 563.166 158.236 9
-15 3 0 14.0899 198.961 1
-3 -15 0 478.148 202.198 9
3 -15 0 437.042 184.848 9
15 0 -3 789.566 367.93 5
-15 -3 0 384.923 164.867 9
0 -15 3 592.097 285.279 9
-15 -3 0 676.44 211.04 1
3 -15 0 419.158 91.6578 4
0 -15 -3 420.666 107.803 8
-15 0 -3 614.173 214.494 8
-15 0 -3 552.622 198.552 1
15 0 3 603.442 218.385 4
-15 -3 0 348.694 211.888 8
-3 -15 0 752.056 245.132 8
15 3 0 547.675 220.755 4
-15 0 3 211.143 225.964 8
15 0 -3 2.39992 272.947 4
0 -15 -3 98.6298 135.549 16
3 -15 0 369.472 220.904 16
-3 -15 0 299.938 171.175 16
0 -15 3 226.946 199.265 16
0 -15 3 352.16 128.816 7
15 0 3 280.198 154.407 7
3 -15 0 492.367 211.06 7
0 -15 3 426.973 189.648 15
15 0 3 468.66 169.973 2
-3 -15 0 162.115 98.5775 7
-15 -3 0 185.039 76.5283 15
-3 -15 0 382.705 222.973 15
3 -15 0 467.139 212.229 15
0 -15 -3 503.96 172.992 15
15 3 0 148.777 148.834 7
-3 15 0 405.63 118.008 3
0 15 -3 447.538 202.851 14
-3 15 2 786.434 222.765 13
2 15 3 840.571 269.893 13
-2 15 -3 488.061 165.821 6
-3 15 2 572.355 189.079 12
2 15 3 983.904 248.321 12
-15 3 -2 822.503 238.676 6
-15 3 -2 683.128 142.547 11
3 15 -2 1003.92 265.171 11
-2 15 -3 767.704 235.49 11
-3 15 2 961.429 152.531 3
-3 15 2 927.905 235.615 6
2 15 3 737.396 173.037 6
-15 -3 2 565.044 175.751 6
15 -3 -2 315.534 241.865 2
3 -15 2 514.502 179.223 10
15 -2 3 859.036 161.599 10
-3 -15 -2 446.333 157.739 10
2 -15 -3 1085.31 300.628 10
15 -2 3 581.734 178.968 5
15 3 2 562.403 202.556 5
15 2 -3 571.511 373.832 2
2 -15 -3 680.735 189.002 9
3 15 -2 554.69 122.334 5
-3 -15 -2 741.13 230.822 9
15 -3 -2 1153.22 437.162 5
15 2 -3 1133.62 444.785 5
-15 3 -2 729.09 164.661 9
-2 -15 3 510.944 313.527 9
15 -2 3 640.71 233.683 4
15 3 2 732.745 210.584 4
15 -3 -2 549.632 320.175 4
2 -15 -3 885.789 156.886 4
-3 -15 -2 698.176 260.205 16
3 -15 2 954.281 279.307 16
-2 -15 3 915.876 196.577 7
3 -15 2 789.343 229.6 7
15 -2 3 690.353 208.461 7
15 3 2 843.825 203.708 7
15 -2 3 596.485 219.477 2
3 -15 2 702.068 233.763 15
-3 -15 -2 872.62 217.172 15
2 -15 -3 490.365 182.064 15
15 -3 -2 487.984 265.466 7
2 -15 -3 920.741 329.883 7
3 -15 2 727.264 147.09 2
15 3 2 653.317 214.157 2
#BEGIN Loops that were not found in dictionaries:
loop_
_smtbx_masks_void_nr
_smtbx_masks_void_average_x
_smtbx_masks_void_average_y
_smtbx_masks_void_average_z
_smtbx_masks_void_volume
_smtbx_masks_void_count_electrons
1 -0.006 -0.939 -0.888 14121.1 1750.1
#END Loops that were not found in dictionaries
