#------------------------------------------------------------------------------
#$Date: 2017-04-08 04:55:47 +0300 (Sat, 08 Apr 2017) $
#$Revision: 195273 $
#$URL: file:///home/coder/svn-repositories/cod/cif/7/22/80/7228033.cif $
#------------------------------------------------------------------------------
#
# This file is available in the Crystallography Open Database (COD),
# http://www.crystallography.net/
#
# All data on this site have been placed in the public domain by the
# contributors.
#
data_7228033
loop_
_publ_author_name
'Kutzscher, Christel'
'M\"uller, Daniel'
'Notzon, Andreas'
'Stoeck, Ulrich'
'Bon, Volodymyr'
'Senkovska, Irena'
'Kaskel, Stefan'
'Glorius, Frank'
_publ_section_title
;
 Synthesis of the homochiral metal-organic framework DUT-129 based on a
 chiral dicarboxylate linker with 6 stereocenters.
;
_journal_name_full               CrystEngComm
_journal_paper_doi               10.1039/C7CE00410A
_journal_year                    2017
_chemical_absolute_configuration rmad
_chemical_formula_sum            'C52 H60 N4 O8 Zn'
_chemical_formula_weight         934.41
_chemical_name_systematic        DUT-129
_chemical_properties_physical    ', Moisture-sensitive'
_space_group_crystal_system      tetragonal
_space_group_IT_number           79
_space_group_name_Hall           'I 4'
_space_group_name_H-M_alt        'I 4'
_symmetry_space_group_name_Hall  'I 4'
_symmetry_space_group_name_H-M   'I 4'
_atom_sites_solution_hydrogens   geom
_audit_creation_method           SHELXL-2014/7
_audit_update_record
;
2017-01-05 deposited with the CCDC.
2017-04-07 downloaded from the CCDC.
;
_cell_angle_alpha                90
_cell_angle_beta                 90
_cell_angle_gamma                90
_cell_formula_units_Z            12
_cell_length_a                   32.490(5)
_cell_length_b                   32.490(5)
_cell_length_c                   25.780(5)
_cell_measurement_reflns_used    312
_cell_measurement_temperature    293(2)
_cell_measurement_theta_max      21.23
_cell_measurement_theta_min      4.51
_cell_volume                     27213(8)
_computing_cell_refinement       'mosflm 1.0.5'
_computing_data_collection       'marCCD 1994-2002'
_computing_data_reduction        scala
_computing_molecular_graphics    'Diamond 3.1'
_computing_publication_material  WinGX
_computing_structure_refinement  'SHELXL-2014/7 (Sheldrick, 2014)'
_computing_structure_solution    'SHELXT-2014/7 (Sheldrick, 2014)'
_diffrn_ambient_temperature      296(2)
_diffrn_measured_fraction_theta_full 0.891
_diffrn_measured_fraction_theta_max 0.872
_diffrn_measurement_device_type  'MX-225 CCD'
_diffrn_measurement_method       '\D\f scans'
_diffrn_radiation_monochromator  'Si 111'
_diffrn_radiation_probe          x-ray
_diffrn_radiation_type           synchrotron
_diffrn_radiation_wavelength     0.88561
_diffrn_reflns_av_unetI/netI     0.3164
_diffrn_reflns_Laue_measured_fraction_full 0.891
_diffrn_reflns_Laue_measured_fraction_max 0.872
_diffrn_reflns_limit_h_max       41
_diffrn_reflns_limit_h_min       0
_diffrn_reflns_limit_k_max       41
_diffrn_reflns_limit_k_min       0
_diffrn_reflns_limit_l_max       31
_diffrn_reflns_limit_l_min       0
_diffrn_reflns_number            12946
_diffrn_reflns_point_group_measured_fraction_full 0.456
_diffrn_reflns_point_group_measured_fraction_max 0.446
_diffrn_reflns_theta_full        32.098
_diffrn_reflns_theta_max         34.140
_diffrn_reflns_theta_min         3.315
_diffrn_source                   synchrotron
_diffrn_source_type              'BESSY BL MX-14.2'
_exptl_absorpt_coefficient_mu    0.538
_exptl_crystal_colour            colorless
_exptl_crystal_density_diffrn    0.684
_exptl_crystal_description       block
_exptl_crystal_F_000             5928
_exptl_crystal_size_max          0.070
_exptl_crystal_size_mid          0.050
_exptl_crystal_size_min          0.050
_refine_diff_density_max         0.373
_refine_diff_density_min         -0.521
_refine_diff_density_rms         0.039
_refine_ls_abs_structure_details
;
No quotients, so Flack parameter determined by classical intensity fit
;
_refine_ls_abs_structure_Flack   0.045(12)
_refine_ls_extinction_method     none
_refine_ls_goodness_of_fit_ref   0.906
_refine_ls_hydrogen_treatment    constr
_refine_ls_matrix_type           full
_refine_ls_number_parameters     807
_refine_ls_number_reflns         12946
_refine_ls_number_restraints     485
_refine_ls_restrained_S_all      0.920
_refine_ls_R_factor_all          0.1579
_refine_ls_R_factor_gt           0.0669
_refine_ls_shift/su_max          0.001
_refine_ls_shift/su_mean         0.000
_refine_ls_structure_factor_coef Fsqd
_refine_ls_weighting_details
'w=1/[\s^2^(Fo^2^)+(0.0202P)^2^] where P=(Fo^2^+2Fc^2^)/3'
_refine_ls_weighting_scheme      calc
_refine_ls_wR_factor_gt          0.1498
_refine_ls_wR_factor_ref         0.1952
_reflns_Friedel_coverage         0.000
_reflns_Friedel_fraction_full    0.000
_reflns_Friedel_fraction_max     0.000
_reflns_number_gt                4869
_reflns_number_total             12946
_reflns_threshold_expression     'I > 2\s(I)'
_cod_data_source_file            c7ce00410a2.cif
_cod_data_source_block           i4m_sq
_cod_original_cell_volume        27213(9)
_cod_database_code               7228033
_platon_squeeze_void_probe_radius 1.20
_shelx_shelxl_version_number     2014/7
_shelx_space_group_comment
;
The symmetry employed for this shelxl refinement is uniquely defined
by the following loop, which should always be used as a source of
symmetry information in preference to the above space-group names.
They are only intended as comments.
;
_shelx_estimated_absorpt_t_min   0.963
_shelx_estimated_absorpt_t_max   0.974
_shelx_res_file
;

    i4m_sq.res created by SHELXL-2014/7


TITL i4 in I4
CELL 0.88561  32.49000  32.49000  25.78000  90.0000  90.0000  90.0000
ZERR   12   0.00459   0.00459   0.00516   0.0000   0.0000   0.0000
LATT -2
SYMM -X, -Y, Z
SYMM -Y, X, Z
SYMM Y, -X, Z
SFAC C  H  N  O  Zn
DISP  C     0.006     0.003      18.6
DISP  H     0.000     0.000       0.7
DISP  N     0.010     0.005      33.8
DISP  O     0.018     0.010      57.9
DISP Zn     0.035     2.098   10597.8
UNIT 624  720  48  96  12
L.S. 30
acta
BOND $H
htab
FMAP 2
PLAN 10
DFIX 1.25 C1 O2 C1 O1 C10 O3 C10 O4 C11 O5 C11 O6 C20 O7 C20 O8
DFIX 1.25 C21 O9 C21 O10 C30 O11 C30 O12
DFIX 1.52 C1 C2 C2 C3 C2 C8 C2 C7 C3 C4 C8 C9 C7 C6 C10 C5
DFIX 1.52 C5 C4 C5 C9 C5 C6 C11 C12 C20 C15 C12 C13 C12 C19
DFIX 1.52 C12 C17 C13 C14 C19 C18 C17 C16 C15 C14 C15 C18 C15 C16
DFIX 1.52 C21 C22 C22 C23 C22 C28 C22 C27 C23 C24 C28 C29 C27 C26
DFIX 1.52 C25 C24 C25 C29 C25 C26 C25 C30 c55 c57 c63 c65 c47 c48
DFIX 1.45 C17 N6 C14 N5 C29 N4 C23 N3 C4 N2 C8 N1 c55 n3
DFIX 1.52 C31 C32 C39 C40 C55 C56 C63 C64 c71 c72
simu 0.01 n6 c39 c40 c41 c42 c43 c44 c45 c46
delu 0.01 n6 c39 c40 c41 c42 c43 c44 c45 c46
simu 0.01 n5 c63 c64 c65 c66 c67 c68 c69 c70
delu 0.01 n5 c63 c64 c65 c66 c67 c68 c69 c70
simu 0.01 n4 c47 c48 c49 c50 c51 c52 c53 c54
delu 0.01 n4 c47 c48 c49 c50 c51 c52 c53 c54
simu 0.01 n1 c31 c32 c33 c34 c35 c36 c37 c38
delu 0.01 n1 c31 c32 c33 c34 c35 c36 c37 c38
simu 0.01 n2 c71 c72 c73 c74 c75 c76 c77 c78
delu 0.01  n2 c71 c72 c73 c74 c75 c76 c77 c78
isor 0.005 n3 c55 c56 c57 c58 c59 c60 c61 c62
EQIV $1 -y+1/2, x+1/2, z-1/2
HTAB N2 O7_$1
EQIV $2 y, -x+1, z
HTAB N4 O9_$2
EQIV $3 -y+1, x, z
HTAB N3 O12_$3
EQIV $4 y-1/2, -x+1/2, z+1/2
HTAB N5 O4_$4
HTAB C31 O6
HTAB C39 O2
HTAB C48 O9_$2
HTAB C72 O7_$1
ABIN
WGHT    0.020200
FVAR       0.22113
ZN1   5    0.264663    0.499995    0.383786    11.00000    0.04619    0.07349 =
         0.09770    0.00413   -0.00021    0.00007
ZN2   5    0.000000    0.500000    0.133919    10.50000    0.06055    0.06519 =
         0.07475    0.00000    0.00000    0.00483
O1    4    0.232578    0.507465    0.322623    11.00000    0.04151    0.10156 =
         0.10540    0.01154   -0.00541    0.00379
O2    4    0.191944    0.550286    0.362971    11.00000    0.11920    0.16039 =
         0.17555   -0.05470   -0.06750    0.03495
O3    4    0.046498    0.498699    0.179936    11.00000    0.06087    0.07665 =
         0.10966    0.00809   -0.01848   -0.00320
O4    4    0.088843    0.522797    0.121026    11.00000    0.08165    0.12431 =
         0.07443    0.01746   -0.00797    0.03594
O5    4    0.232078    0.491059    0.447098    11.00000    0.05108    0.10478 =
         0.09211    0.02060    0.01114   -0.02127
O6    4    0.191376    0.448920    0.408878    11.00000    0.12324    0.14870 =
         0.15921   -0.04446    0.06488   -0.04040
O7    4    0.089681    0.476682    0.652645    11.00000    0.08778    0.15069 =
         0.05812   -0.00574   -0.00485   -0.02298
O8    4    0.047709    0.500720    0.590383    11.00000    0.08171    0.08804 =
         0.07033    0.00482    0.01514   -0.02350
O9    4    0.344349    0.517394    0.447202    11.00000    0.10699    0.09006 =
         0.11944    0.03492   -0.01354   -0.02815
O10   4    0.300013    0.549723    0.390962    11.00000    0.02325    0.11322 =
         0.14880    0.02365   -0.01262    0.01681
O11   4    0.450609    0.701226    0.382189    11.00000    0.11997    0.04146 =
         0.13360   -0.03201    0.03738    0.01200
O12   4    0.480838    0.656368    0.325485    11.00000    0.09040    0.09614 =
         0.09511   -0.01368    0.01645   -0.03650
C1    1    0.199832    0.527653    0.324942    11.00000    0.08631    0.08585 =
         0.07840   -0.02043   -0.01778    0.00191
C2    1    0.166600    0.524804    0.283930    11.00000    0.05044    0.04429 =
         0.08668    0.00832   -0.01861    0.01055
C3    1    0.127507    0.547203    0.298497    11.00000    0.05667    0.09476 =
         0.09364   -0.01885   -0.02076    0.02449
AFIX  23
H3A   2    0.132566    0.576588    0.300394    11.00000   -1.20000
H3B   2    0.117843    0.537904    0.332113    11.00000   -1.20000
AFIX   0
C4    1    0.094065    0.537653    0.255344    11.00000    0.05973    0.07728 =
         0.08202    0.01094   -0.01516    0.01609
AFIX  13
H4A   2    0.075284    0.517000    0.269745    11.00000   -1.20000
AFIX   0
C5    1    0.114099    0.518637    0.207442    11.00000    0.06138    0.04993 =
         0.08915   -0.01067    0.00907    0.00273
C6    1    0.150570    0.545488    0.191714    11.00000    0.06618    0.09678 =
         0.08901   -0.00160   -0.00896    0.01121
AFIX  23
H6A   2    0.141165    0.573297    0.184868    11.00000   -1.20000
H6B   2    0.162833    0.534762    0.160184    11.00000   -1.20000
AFIX   0
C7    1    0.183005    0.546092    0.235437    11.00000    0.10039    0.08663 =
         0.11271    0.00933    0.00301    0.00819
AFIX  23
H7A   2    0.207766    0.532224    0.223757    11.00000   -1.20000
H7B   2    0.190104    0.574351    0.243641    11.00000   -1.20000
AFIX   0
C8    1    0.158807    0.480158    0.271006    11.00000    0.06801    0.10253 =
         0.07537    0.01091   -0.02416    0.03027
AFIX  13
H8A   2    0.145900    0.468564    0.302102    11.00000   -1.20000
AFIX   0
C9    1    0.126696    0.474410    0.227330    11.00000    0.08317    0.06542 =
         0.08427    0.01781   -0.00623    0.03630
AFIX  23
H9A   2    0.102737    0.459973    0.240479    11.00000   -1.20000
H9B   2    0.138391    0.458433    0.199168    11.00000   -1.20000
AFIX   0
C10   1    0.079975    0.513059    0.165533    11.00000    0.05807    0.07205 =
         0.06833    0.00064   -0.02064    0.03166
C11   1    0.199703    0.471349    0.446100    11.00000    0.06288    0.09841 =
         0.08419   -0.02154    0.04047   -0.00405
C12   1    0.166488    0.476506    0.487180    11.00000    0.08403    0.07621 =
         0.05710   -0.00064   -0.00057   -0.02227
C13   1    0.127524    0.453106    0.474229    11.00000    0.06664    0.09792 =
         0.09294   -0.00794    0.02741   -0.02100
AFIX  23
H13A  2    0.133086    0.423774    0.474138    11.00000   -1.20000
H13B  2    0.117965    0.460865    0.439950    11.00000   -1.20000
AFIX   0
C14   1    0.093684    0.463141    0.515291    11.00000    0.05925    0.07308 =
         0.07689   -0.02715    0.02179   -0.01505
AFIX  13
H14A  2    0.074595    0.483415    0.500681    11.00000   -1.20000
AFIX   0
C15   1    0.114196    0.481499    0.563487    11.00000    0.05912    0.05700 =
         0.06093   -0.01162    0.00633   -0.00795
C16   1    0.126963    0.524864    0.546132    11.00000    0.08038    0.06889 =
         0.09144    0.01564    0.05053   -0.02760
AFIX  23
H16A  2    0.102874    0.540330    0.535448    11.00000   -1.20000
H16B  2    0.139883    0.539333    0.574734    11.00000   -1.20000
AFIX   0
C17   1    0.157057    0.521269    0.500959    11.00000    0.05395    0.07536 =
         0.10298   -0.00124    0.00333   -0.01821
AFIX  13
H17A  2    0.143312    0.533280    0.470696    11.00000   -1.20000
AFIX   0
C18   1    0.150288    0.455804    0.579990    11.00000    0.04380    0.10554 =
         0.10584    0.00862    0.00051   -0.01559
AFIX  23
H18A  2    0.141100    0.428085    0.587814    11.00000   -1.20000
H18B  2    0.162326    0.467355    0.611193    11.00000   -1.20000
AFIX   0
C19   1    0.183495    0.454367    0.535936    11.00000    0.05751    0.10625 =
         0.16024   -0.02323    0.02149   -0.00188
AFIX  23
H19A  2    0.208499    0.467832    0.547547    11.00000   -1.20000
H19B  2    0.190031    0.425995    0.527605    11.00000   -1.20000
AFIX   0
C20   1    0.082342    0.485563    0.608087    11.00000    0.09498    0.07501 =
         0.11236   -0.01692    0.00040   -0.01527
C21   1    0.334637    0.545600    0.415559    11.00000    0.09669    0.07081 =
         0.16671   -0.03559    0.05934   -0.01263
C22   1    0.367774    0.578145    0.397334    11.00000    0.09205    0.05487 =
         0.07367   -0.00367   -0.00805   -0.01446
C23   1    0.357723    0.599344    0.346505    11.00000    0.14829    0.06403 =
         0.10801    0.01309   -0.00798   -0.05196
AFIX  13
H23A  2    0.332010    0.614543    0.351800    11.00000   -1.20000
AFIX   0
C24   1    0.390534    0.630817    0.332194    11.00000    0.05715    0.07828 =
         0.12453    0.00749   -0.00667   -0.01431
AFIX  23
H24A  2    0.404271    0.622549    0.300454    11.00000   -1.20000
H24B  2    0.377907    0.657490    0.326495    11.00000   -1.20000
AFIX   0
C25   1    0.421370    0.633573    0.375903    11.00000    0.08379    0.04990 =
         0.08730   -0.01311    0.01305   -0.00484
C26   1    0.441837    0.590761    0.383875    11.00000    0.07243    0.07534 =
         0.15772   -0.00483    0.02735   -0.01019
AFIX  23
H26A  2    0.458167    0.583970    0.353562    11.00000   -1.20000
H26B  2    0.460165    0.591956    0.413538    11.00000   -1.20000
AFIX   0
C27   1    0.409986    0.557427    0.392611    11.00000    0.06426    0.07508 =
         0.13869   -0.00793    0.02844    0.00443
AFIX  23
H27A  2    0.416240    0.542291    0.424071    11.00000   -1.20000
H27B  2    0.410021    0.538280    0.363742    11.00000   -1.20000
AFIX   0
C28   1    0.368682    0.611410    0.439498    11.00000    0.10232    0.07609 =
         0.09464   -0.03755    0.02028   -0.01486
AFIX  23
H28A  2    0.376268    0.599094    0.472414    11.00000   -1.20000
H28B  2    0.341480    0.623358    0.443201    11.00000   -1.20000
AFIX   0
C29   1    0.399972    0.645581    0.425393    11.00000    0.09294    0.10155 =
         0.06610   -0.01432    0.00245   -0.00878
AFIX  13
H29A  2    0.384855    0.671242    0.419378    11.00000   -1.20000
AFIX   0
C30   1    0.453649    0.667122    0.359414    11.00000    0.09528    0.09248 =
         0.08521    0.02434   -0.01726    0.00494
N2    3    0.069555    0.575333    0.245674    11.00000    0.10240    0.08124 =
         0.08512   -0.00928    0.00062    0.05210
AFIX  43
H2A   2    0.073158    0.589862    0.218162    11.00000   -1.20000
AFIX   0
N1    3    0.195641    0.454138    0.261528    11.00000    0.07270    0.08906 =
         0.14560   -0.01588   -0.02921    0.03178
AFIX  43
H1A   2    0.215241    0.462313    0.241615    11.00000   -1.20000
AFIX   0
N4    3    0.428846    0.652140    0.467173    11.00000    0.15913    0.22088 =
         0.22485   -0.11487    0.02574   -0.02010
AFIX  43
H4B   2    0.449671    0.636059    0.470811    11.00000   -1.20000
AFIX   0
N3    3    0.349693    0.568000    0.304171    11.00000    0.11015    0.11267 =
         0.10329    0.00055   -0.00936   -0.00233
AFIX  43
H3C   2    0.364772    0.546421    0.300702    11.00000   -1.20000
AFIX   0
N5    3    0.070263    0.423641    0.526829    11.00000    0.09541    0.08521 =
         0.08613   -0.00125    0.00270   -0.04274
AFIX  43
H5A   2    0.074700    0.408854    0.553926    11.00000   -1.20000
AFIX   0
N6    3    0.195124    0.544919    0.508842    11.00000    0.07343    0.06995 =
         0.14765   -0.00813    0.01715   -0.03133
AFIX  43
H6C   2    0.215378    0.535537    0.526771    11.00000   -1.20000
AFIX   0
C31   1    0.197320    0.413806    0.287527    11.00000    0.10340    0.08404 =
         0.15395   -0.01018   -0.03791    0.03627
AFIX  13
H31A  2    0.194019    0.418601    0.324826    11.00000   -1.20000
AFIX   0
C32   1    0.241137    0.394877    0.278910    11.00000    0.12253    0.11157 =
         0.20410   -0.01760   -0.04993    0.05274
AFIX  33
H32A  2    0.242673    0.368538    0.295676    11.00000   -1.50000
H32B  2    0.246037    0.391588    0.242422    11.00000   -1.50000
H32C  2    0.261551    0.412904    0.293352    11.00000   -1.50000
AFIX  66
C33   1    0.161022    0.388661    0.269626    11.00000    0.12627    0.10917 =
         0.14657   -0.01341   -0.02485    0.00984
C34   1    0.159061    0.371549    0.220271    11.00000    0.13705    0.13388 =
         0.15178   -0.03161   -0.00332   -0.01548
AFIX  43
H34A  2    0.180323    0.375995    0.196777    11.00000   -1.20000
AFIX  65
C35   1    0.125323    0.347793    0.206031    11.00000    0.14273    0.15606 =
         0.15638   -0.02809   -0.00583   -0.02042
AFIX  43
H35A  2    0.124011    0.336345    0.173009    11.00000   -1.20000
AFIX  65
C36   1    0.093545    0.341149    0.241145    11.00000    0.14415    0.15356 =
         0.16655   -0.01947   -0.00515   -0.02018
AFIX  43
H36A  2    0.070971    0.325254    0.231617    11.00000   -1.20000
AFIX  65
C37   1    0.095505    0.358260    0.290501    11.00000    0.14665    0.13196 =
         0.15944   -0.01630   -0.00482   -0.00692
AFIX  43
H37A  2    0.074244    0.353814    0.313995    11.00000   -1.20000
AFIX  65
C38   1    0.129244    0.382016    0.304742    11.00000    0.13801    0.10998 =
         0.15174    0.00235   -0.01882    0.00974
AFIX  43
H38A  2    0.130555    0.393465    0.337764    11.00000   -1.20000
AFIX   0
C39   1    0.196380    0.588497    0.482340    11.00000    0.10701    0.08057 =
         0.14486    0.00059    0.02025   -0.03321
AFIX  13
H39A  2    0.193369    0.584671    0.444825    11.00000   -1.20000
AFIX   0
C40   1    0.239983    0.601969    0.493092    11.00000    0.13135    0.13118 =
         0.19407   -0.01820    0.03068   -0.08089
AFIX  33
H40A  2    0.258798    0.582344    0.478509    11.00000   -1.50000
H40B  2    0.244666    0.628475    0.477730    11.00000   -1.50000
H40C  2    0.244235    0.603663    0.529881    11.00000   -1.50000
AFIX  66
C41   1    0.162276    0.612980    0.500393    11.00000    0.13584    0.08599 =
         0.14523   -0.00794    0.01063   -0.01264
C42   1    0.160050    0.628245    0.550684    11.00000    0.15086    0.10906 =
         0.15577   -0.02047    0.00873    0.00417
AFIX  43
H42A  2    0.181771    0.624042    0.573574    11.00000   -1.20000
AFIX  65
C43   1    0.125361    0.649790    0.566762    11.00000    0.15596    0.12935 =
         0.15865   -0.02796    0.00229    0.00284
AFIX  43
H43A  2    0.123872    0.660003    0.600410    11.00000   -1.20000
AFIX  65
C44   1    0.092897    0.656071    0.532549    11.00000    0.15608    0.13766 =
         0.16867   -0.01933    0.00551   -0.00029
AFIX  43
H44A  2    0.069687    0.670487    0.543306    11.00000   -1.20000
AFIX  65
C45   1    0.095122    0.640807    0.482258    11.00000    0.15983    0.12888 =
         0.15944   -0.00266    0.00451    0.00754
AFIX  43
H45A  2    0.073401    0.645009    0.459368    11.00000   -1.20000
AFIX  65
C46   1    0.129811    0.619261    0.466180    11.00000    0.14304    0.10219 =
         0.14987    0.00831    0.01409   -0.00045
AFIX  43
H46A  2    0.131300    0.609048    0.432532    11.00000   -1.20000
AFIX   0
C47   1    0.422296    0.687244    0.504282    11.00000    0.17581    0.24869 =
         0.24426   -0.12082    0.03328   -0.02820
AFIX  13
H47A  2    0.420367    0.712689    0.484012    11.00000   -1.20000
AFIX   0
C48   1    0.456848    0.691875    0.541861    11.00000    0.20760    0.24810 =
         0.27329   -0.11952   -0.00413   -0.02434
AFIX  33
H48A  2    0.482119    0.695935    0.523257    11.00000   -1.50000
H48B  2    0.451763    0.715191    0.563818    11.00000   -1.50000
H48C  2    0.458915    0.667481    0.562712    11.00000   -1.50000
AFIX  66
C49   1    0.383450    0.681042    0.530295    11.00000    0.19098    0.28851 =
         0.26508   -0.11479    0.06372   -0.02841
C50   1    0.370849    0.652097    0.566685    11.00000    0.20172    0.31254 =
         0.28059   -0.10278    0.07577   -0.02537
AFIX  43
H50A  2    0.389281    0.632336    0.578582    11.00000   -1.20000
AFIX  65
C51   1    0.330700    0.652687    0.585294    11.00000    0.20403    0.32121 =
         0.29290   -0.10488    0.08501   -0.01990
AFIX  43
H51A  2    0.322270    0.633321    0.609641    11.00000   -1.20000
AFIX  65
C52   1    0.303151    0.682222    0.567513    11.00000    0.20503    0.31405 =
         0.29683   -0.10874    0.08129   -0.02220
AFIX  43
H52A  2    0.276289    0.682616    0.579963    11.00000   -1.20000
AFIX  65
C53   1    0.315751    0.711167    0.531123    11.00000    0.20298    0.31059 =
         0.29876   -0.10922    0.08204   -0.01195
AFIX  43
H53A  2    0.297319    0.730928    0.519226    11.00000   -1.20000
AFIX  65
C54   1    0.355900    0.710577    0.512514    11.00000    0.19344    0.29910 =
         0.28533   -0.11013    0.07547   -0.01642
AFIX  43
H54A  2    0.364331    0.729944    0.488167    11.00000   -1.20000
AFIX   0
C55   1    0.314088    0.576485    0.268558    11.00000    0.21993    0.22066 =
         0.22021   -0.00626   -0.00468   -0.00236
AFIX  13
H55A  2    0.288865    0.577578    0.289359    11.00000   -1.20000
AFIX   0
C56   1    0.308803    0.541857    0.225739    11.00000    0.21546    0.20658 =
         0.21835   -0.01670    0.00709   -0.01394
AFIX  33
H56A  2    0.285795    0.548478    0.203916    11.00000   -1.50000
H56B  2    0.333341    0.540312    0.205085    11.00000   -1.50000
H56C  2    0.304074    0.515814    0.242289    11.00000   -1.50000
AFIX  66
C57   1    0.318051    0.618504    0.236934    11.00000    0.20302    0.20548 =
         0.20334    0.00301   -0.00791   -0.00239
C58   1    0.348025    0.633322    0.203299    11.00000    0.21926    0.21311 =
         0.21392   -0.00050   -0.00070   -0.00008
AFIX  43
H58A  2    0.367887    0.615577    0.190081    11.00000   -1.20000
AFIX  65
C59   1    0.348316    0.674661    0.189421    11.00000    0.26524    0.26246 =
         0.26486    0.00283   -0.00120   -0.00377
AFIX  43
H59A  2    0.368371    0.684575    0.166917    11.00000   -1.20000
AFIX  65
C60   1    0.318631    0.701183    0.209177    11.00000    0.25806    0.25990 =
         0.26067   -0.00153   -0.00602   -0.00450
AFIX  43
H60A  2    0.318825    0.728842    0.199891    11.00000   -1.20000
AFIX  65
C61   1    0.288656    0.686366    0.242811    11.00000    0.42601    0.42562 =
         0.42515    0.00048    0.00055    0.00091
AFIX  43
H61A  2    0.268795    0.704111    0.256029    11.00000   -1.20000
AFIX  65
C62   1    0.288365    0.645026    0.256690    11.00000    0.34703    0.34508 =
         0.34590   -0.00033   -0.00124    0.00417
AFIX  43
H62A  2    0.268310    0.635112    0.279194    11.00000   -1.20000
AFIX   0
C63   1    0.038835    0.412911    0.486726    11.00000    0.10964    0.10697 =
         0.09989   -0.02704    0.00099   -0.04767
AFIX  13
H63A  2    0.049418    0.423277    0.453613    11.00000   -1.20000
AFIX   0
C64   1   -0.001923    0.435547    0.496633    11.00000    0.09568    0.13016 =
         0.12223   -0.01707   -0.01784   -0.03614
AFIX  33
H64A  2   -0.021501    0.428105    0.470367    11.00000   -1.50000
H64B  2   -0.012439    0.427963    0.530095    11.00000   -1.50000
H64C  2    0.002700    0.464720    0.495630    11.00000   -1.50000
AFIX  66
C65   1    0.035514    0.366098    0.481051    11.00000    0.14400    0.10741 =
         0.13251   -0.04218    0.00905   -0.04972
C66   1    0.045102    0.347400    0.434085    11.00000    0.19609    0.13658 =
         0.15924   -0.05901    0.02680   -0.05215
AFIX  43
H66A  2    0.055680    0.363006    0.406940    11.00000   -1.20000
AFIX  65
C67   1    0.038878    0.305378    0.427690    11.00000    0.22453    0.14483 =
         0.18935   -0.06669    0.03842   -0.04438
AFIX  43
H67A  2    0.045293    0.292868    0.396266    11.00000   -1.20000
AFIX  65
C68   1    0.023068    0.282054    0.468261    11.00000    0.20706    0.13711 =
         0.19902   -0.04927    0.03734   -0.04418
AFIX  43
H68A  2    0.018904    0.253938    0.463982    11.00000   -1.20000
AFIX  65
C69   1    0.013480    0.300751    0.515227    11.00000    0.19170    0.12660 =
         0.20210   -0.03350    0.04206   -0.04963
AFIX  43
H69A  2    0.002902    0.285146    0.542371    11.00000   -1.20000
AFIX  65
C70   1    0.019703    0.342773    0.521623    11.00000    0.16403    0.11407 =
         0.16584   -0.02661    0.02346   -0.04882
AFIX  43
H70A  2    0.013289    0.355283    0.553046    11.00000   -1.20000
AFIX   0
C71   1    0.038805    0.586946    0.284956    11.00000    0.11270    0.09632 =
         0.12098   -0.02698   -0.00558    0.04704
AFIX  13
H71A  2    0.047456    0.575275    0.318271    11.00000   -1.20000
AFIX   0
C72   1   -0.002303    0.566326    0.269258    11.00000    0.08597    0.14074 =
         0.17551   -0.02901   -0.00845    0.04248
AFIX  33
H72A  2   -0.023175    0.573258    0.294126    11.00000   -1.50000
H72B  2   -0.010439    0.575936    0.235570    11.00000   -1.50000
H72C  2    0.001213    0.536998    0.268341    11.00000   -1.50000
AFIX  66
C73   1    0.034069    0.631740    0.291669    11.00000    0.16009    0.10709 =
         0.14506   -0.04536   -0.03106    0.07007
C74   1    0.044709    0.649093    0.339093    11.00000    0.23886    0.13335 =
         0.16013   -0.05684   -0.03712    0.06622
AFIX  43
H74A  2    0.056067    0.632770    0.365039    11.00000   -1.20000
AFIX  65
C75   1    0.038372    0.690844    0.347736    11.00000    0.26111    0.12559 =
         0.17232   -0.06357   -0.04617    0.06861
AFIX  43
H75A  2    0.045491    0.702455    0.379466    11.00000   -1.20000
AFIX  65
C76   1    0.021396    0.715242    0.308956    11.00000    0.23614    0.12603 =
         0.18457   -0.04808   -0.04177    0.07859
AFIX  43
H76A  2    0.017156    0.743176    0.314739    11.00000   -1.20000
AFIX  65
C77   1    0.010756    0.697889    0.261532    11.00000    0.21475    0.11440 =
         0.18856   -0.03592   -0.03898    0.07757
AFIX  43
H77A  2   -0.000602    0.714213    0.235585    11.00000   -1.20000
AFIX  65
C78   1    0.017092    0.656138    0.252888    11.00000    0.18112    0.10376 =
         0.17229   -0.02594   -0.04100    0.08086
AFIX  43
H78A  2    0.009973    0.644528    0.221158    11.00000   -1.20000

AFIX   0
HKLF 4

REM  i4 in I4
REM R1 =  0.0669 for    4869 Fo > 4sig(Fo)  and  0.1579 for all   12946 data
REM    807 parameters refined using    485 restraints

END

WGHT      0.0150      0.0000

REM Instructions for potential hydrogen bonds
HTAB N2 O7_$1
HTAB N4 O9_$2
HTAB N3 O12_$3
HTAB N5 O4_$4
HTAB C31 O6
HTAB C39 O2
HTAB C48 O9_$2
HTAB C72 O7_$1

REM Highest difference peak  0.373,  deepest hole -0.521,  1-sigma level  0.039
Q1    1   0.2164  0.4964  0.3832  11.00000  0.05    0.37
Q2    1   0.2567  0.5491  0.3834  11.00000  0.05    0.37
Q3    1   0.3118  0.5059  0.3825  11.00000  0.05    0.37
Q4    1   0.0000  0.5000  0.1145  10.50000  0.05    0.32
Q5    1   0.0493  0.5068  0.6361  11.00000  0.05    0.31
Q6    1   0.0000  0.5000  0.1478  10.50000  0.05    0.29
Q7    1  -0.0248  0.4617  0.1415  11.00000  0.05    0.29
Q8    1   0.0470  0.5099  0.1290  11.00000  0.05    0.28
Q9    1   0.0176  0.4712  0.1838  11.00000  0.05    0.27
Q10   1   0.0178  0.4744  0.5811  11.00000  0.05    0.27
;
_shelx_res_checksum              79166
_shelx_fab_file
;
    0    0   10     32.23     47.86
    0    0   12    -81.42    -14.24
    0    0   14    -35.27     20.94
    0    0   16     24.82    -29.91
    0    0   18      1.91     -7.48
    0    0   20      2.75    -27.04
    0    0   22      0.03     33.59
    0    1    7     20.39     76.67
    0    1    9     -7.53    -35.37
    0    1   11    -12.98     43.28
    0    1   13    -31.18    -20.33
    0    1   15     -5.93     -0.53
    0    1   17      2.89     -2.43
    0    1   19     -1.79     12.15
    0    1   21     -9.51      7.69
    0    1   23     -6.10     -9.99
    0    2    4     62.48     35.68
    0    2    6    -52.65    108.64
    0    2    8     54.38      5.85
    0    2   10     18.90    -18.82
    0    2   12    -12.64     -8.91
    0    2   14    -14.39     14.07
    0    2   16     10.36     -2.69
    0    2   18      2.10     -1.11
    0    2   20     20.78     -3.45
    0    2   22     -8.23     -2.34
    0    2   24      1.27    -18.02
    0    3    3     20.75     57.54
    0    3    5     32.44      0.65
    0    3    7      2.52    -28.43
    0    3    9     34.40      6.39
    0    3   11     15.79     36.65
    0    3   13    -12.89     -6.67
    0    3   15     -0.73    -25.12
    0    3   17      2.87      1.84
    0    3   19      4.50     21.96
    0    3   21     -3.40     -1.83
    0    3   23      1.79     -1.96
    0    3   25      1.56      1.16
    0    4    2    -14.83     52.63
    0    4    6     74.06    -79.90
    0    4   10     27.39    -60.76
    0    4   12    -23.34      4.86
    0    4   14    -16.92     23.49
    0    4   16     15.70     15.50
    0    4   18      8.08     -3.32
    0    4   20     -6.40    -12.67
    0    4   22     -0.97     -0.56
    0    4   24     -3.83      7.68
    0    4   26    -16.76      7.93
    0    5    1     50.48    -84.45
    0    5    3     -4.21    -64.75
    0    5    7     15.18     28.57
    0    5    9    -17.32     -6.40
    0    5   11      1.53    -42.50
    0    5   13      3.36    -15.50
    0    5   15     -2.27     19.52
    0    5   17     -3.90     14.20
    0    5   19     -6.25     -1.74
    0    5   21      6.80     -8.58
    0    5   23     11.91      7.27
    0    5   25      4.77     -9.76
    0    5   27    -24.99    -10.38
    0    6    2     52.78   -254.39
    0    6    4     55.27     49.70
    0    6    6    -53.20     51.91
    0    6    8     -2.48     -4.52
    0    6   10      6.98    -16.21
    0    6   12    -16.75     21.81
    0    6   14     18.08     21.60
    0    6   16     16.05    -11.88
    0    6   18      5.78      0.73
    0    6   20     -5.45      1.60
    0    6   22     -0.16     -6.76
    0    6   24      3.34      6.73
    0    6   26     19.65      1.07
    0    7    1     -2.31    -15.53
    0    7    3    -50.44   -106.34
    0    7    5    -19.68     26.81
    0    7    7     -1.79    -27.75
    0    7    9     23.57     -7.69
    0    7   11      5.78     -7.85
    0    7   13     -3.34    -22.78
    0    7   15     -4.92    -13.79
    0    7   17      6.36     12.22
    0    7   19    -19.97      2.76
    0    7   21      0.49     10.67
    0    7   23      0.23     -2.61
    0    7   25     -2.98      6.33
    0    7   27    -11.33    -19.64
    0    8    0     59.00     10.32
    0    8    2    -17.85    102.88
    0    8    4      6.76     -6.58
    0    8    6     -6.68      2.00
    0    8    8     -6.68      3.83
    0    8   10      0.98      0.47
    0    8   12      0.52    -20.22
    0    8   14      7.80      9.94
    0    8   16     -6.77     -8.03
    0    8   18      9.24      1.19
    0    8   20      6.63    -13.96
    0    8   22      8.20     -4.10
    0    8   24     -3.50     -3.98
    0    8   26    -15.24     -9.41
    0    8   28     -0.80      4.12
    0    9    1    -25.86     20.06
    0    9    3    -62.59   -103.83
    0    9    5     16.84     -3.70
    0    9    7    -11.06      6.14
    0    9    9      5.02     -1.75
    0    9   11      0.49    -34.19
    0    9   13     18.84     11.81
    0    9   15     -4.81     34.35
    0    9   17      3.87    -15.22
    0    9   19      5.64     -2.56
    0    9   21     -8.07     -1.16
    0    9   23     -8.63     -1.70
    0    9   25     -7.08      1.66
    0    9   27     -5.67     -2.97
    0    9   29     -1.16      9.55
    0   10    0    -42.34   -110.25
    0   10    2     29.59   -102.18
    0   10    4      5.11     30.95
    0   10    6      9.75     21.88
    0   10    8     -2.40     -9.32
    0   10   10     -7.09    -31.15
    0   10   12     -7.30      2.32
    0   10   14      3.70     -5.12
    0   10   16     -6.55     -5.42
    0   10   18     15.12      3.29
    0   10   20     -9.71      6.35
    0   10   22     -4.95     18.12
    0   10   24      4.13     -5.50
    0   10   26      5.46     -5.05
    0   10   28      2.28     -7.64
    0   10   30      4.53      5.63
    0   11    1     17.02      6.46
    0   11    3     20.15     -0.16
    0   11    5    -18.54     -7.15
    0   11    7     -5.58     -5.48
    0   11    9     20.82    -10.16
    0   11   11      9.20      5.69
    0   11   13     -9.97     -3.18
    0   11   15      6.05     -8.43
    0   11   17     -0.31    -12.94
    0   11   19     10.39      6.56
    0   11   21     -0.04     -4.18
    0   11   23     -0.89      1.60
    0   11   25      3.70     -0.27
    0   11   27     -1.27     -2.21
    0   11   29      5.02     -8.99
    0   12    0    -50.47      3.51
    0   12    2      9.99    -20.16
    0   12    4     -4.21     -0.12
    0   12    6     -0.23    -17.64
    0   12    8    -18.03     -6.03
    0   12   10     11.93      6.65
    0   12   12      3.41     17.47
    0   12   14      1.04      6.32
    0   12   16      5.50      3.69
    0   12   18     -2.87      9.33
    0   12   20     -3.54     -2.69
    0   12   22      0.79     -4.12
    0   12   24     -2.91      4.74
    0   12   26      5.71      3.09
    0   12   28     -7.50     -1.16
    0   12   30     19.24      4.36
    0   13    1     -2.08    -20.79
    0   13    3     26.65     27.63
    0   13    5      2.64      0.88
    0   13    7     13.82     10.61
    0   13    9    -30.27     -7.51
    0   13   11      5.63     -7.54
    0   13   13     -4.06      0.72
    0   13   15      5.57      7.96
    0   13   17    -12.95      6.18
    0   13   19     10.77     -2.81
    0   13   21     -3.93      2.13
    0   13   23     -6.06      2.59
    0   13   25     16.51     -2.84
    0   13   27     -6.62      1.47
    0   13   29     -0.59      9.68
    0   13   31     -7.60      1.08
    0   14    0      2.30    -10.70
    0   14    2      4.07    -17.83
    0   14    4     30.12     15.01
    0   14    6      2.77     14.76
    0   14    8     10.19      4.83
    0   14   10    -12.38     11.08
    0   14   12      2.73     12.49
    0   14   14     -4.69     -5.35
    0   14   16      5.28    -12.68
    0   14   18     12.00      0.87
    0   14   20     -3.15     15.88
    0   14   22     -0.36     -0.69
    0   14   24      4.98     -8.50
    0   14   26     12.55      0.02
    0   14   28      9.24     12.38
    0   14   30     -9.32     -2.87
    0   15    1      5.33     -6.84
    0   15    3     -1.89     19.52
    0   15    5      4.08     -6.43
    0   15    7    -11.50      3.34
    0   15    9      7.82      0.37
    0   15   11      7.58      5.25
    0   15   13     -5.91      2.80
    0   15   15     -3.48      6.51
    0   15   17      4.03      0.40
    0   15   19     -6.87      4.07
    0   15   21     -3.96    -20.46
    0   15   23      6.69     -4.86
    0   15   25    -11.62     37.83
    0   15   27    -23.42    -24.04
    0   15   29    -11.24      5.57
    0   16    0     44.59     -0.20
    0   16    2    -13.89     20.72
    0   16    4     10.69      8.35
    0   16    6     -7.87     10.10
    0   16    8     -1.94      0.02
    0   16   10      6.42      5.17
    0   16   12     -5.33      0.28
    0   16   14      8.45      8.36
    0   16   16     11.84      1.61
    0   16   18      1.09     13.33
    0   16   20      0.99      6.94
    0   16   22      0.93     -7.03
    0   16   24     10.40    -17.59
    0   16   26      7.55     -4.07
    0   16   28     12.87     10.02
    0   16   30      5.93     -3.08
    0   17    1     -6.67      3.17
    0   17    3     -9.04    -18.73
    0   17    5      4.43      2.99
    0   17    7     -1.10    -10.93
    0   17    9     13.44    -15.33
    0   17   11    -13.01     10.88
    0   17   13     -0.97     -5.48
    0   17   15     -5.34     -1.32
    0   17   17      4.31     10.04
    0   17   19    -19.46      5.01
    0   17   21     -3.64      2.98
    0   17   23     -3.77      3.95
    0   17   25     -3.62    -13.97
    0   17   27     16.62    -33.08
    0   17   29     11.65      6.33
    0   18    0    -10.79     -0.31
    0   18    2      5.06     -4.85
    0   18    4    -14.70     -9.69
    0   18    6     11.71    -19.09
    0   18    8     -7.67      8.54
    0   18   10     24.62     15.32
    0   18   12     -2.88     13.17
    0   18   14      5.16    -22.99
    0   18   16     12.24    -10.64
    0   18   18     12.24     -1.56
    0   18   20     -2.07     -0.18
    0   18   22     12.25     -1.43
    0   18   24     -4.46     16.30
    0   18   26    -15.09     -7.68
    0   19    1      3.46      0.11
    0   19    3    -11.26     12.40
    0   19    5     -8.33     -0.61
    0   19    7     10.44      0.95
    0   19    9      5.18      1.59
    0   19   11    -12.74     11.11
    0   19   13     -6.30     -6.28
    0   19   15     12.81      5.68
    0   19   17     -8.38      8.42
    0   19   19      3.81      8.50
    0   19   21      5.29     -5.10
    0   19   23     -5.05     -6.19
    0   19   25     -5.14     -8.63
    0   19   27     14.06    -26.05
    0   20    0     -0.08     -2.39
    0   20    2      2.63      4.79
    0   20    4    -26.93     10.94
    0   20    6     -0.57    -20.97
    0   20    8     10.58     -0.34
    0   20   10     10.97     -1.41
    0   20   12     -4.04     -1.90
    0   20   14     -1.19     -1.20
    0   20   16     -0.45      6.30
    0   20   18     -1.87     -2.93
    0   20   20      2.97     -3.14
    0   20   22     -6.30      0.67
    0   20   24     21.64      4.42
    0   20   26      5.39      5.40
    0   21    1     -7.90    -12.64
    0   21    3     12.15      8.37
    0   21    5     -7.75     -6.93
    0   21    7     10.73      5.67
    0   21    9     -2.66     11.38
    0   21   11     -2.11     11.05
    0   21   13     -8.57    -15.36
    0   21   15     11.22     -7.73
    0   21   17      0.31     15.09
    0   21   19     -8.92     -4.46
    0   21   21      1.50     -2.78
    0   21   23      1.07    -10.17
    0   21   25      8.02      8.36
    0   21   27    -21.19      8.91
    0   22    0      5.60      3.69
    0   22    2      1.27     -2.98
    0   22    4      6.83     10.41
    0   22    6     -1.14      7.21
    0   22    8      2.35      8.04
    0   22   10    -13.57      3.03
    0   22   12     -3.67     -7.82
    0   22   14     -5.05     12.91
    0   22   16     -7.78      4.23
    0   22   18     -5.63     -4.62
    0   22   20     -0.10     -3.05
    0   22   22      0.12     -3.10
    0   22   24      6.45    -16.52
    0   22   26      5.80     14.01
    0   23    1     -0.62     -1.28
    0   23    3      0.16     11.27
    0   23    5    -10.41      5.29
    0   23    7      9.70      0.37
    0   23    9     -4.04      8.34
    0   23   11     -6.66    -13.24
    0   23   13      7.96      2.55
    0   23   15     -1.53      2.32
    0   23   17     -2.95     -7.17
    0   23   19     10.01     -6.40
    0   23   21     13.96      7.54
    0   23   23      0.57      1.70
    0   23   25     16.85      9.81
    0   23   27     -0.24    -12.95
    0   24    0     16.29     -3.51
    0   24    2     -4.03     10.80
    0   24    4      9.94     -6.33
    0   24    6     -3.73     -0.27
    0   24    8     -2.41      4.09
    0   24   10      0.44     -5.40
    0   24   12      9.52     -3.18
    0   24   14      2.05      4.77
    0   24   16      4.04      9.46
    0   24   18     -7.18     -4.00
    0   24   20      5.15      4.59
    0   24   22     -8.25      2.07
    0   24   24     -3.62      5.08
    0   24   26    -39.44     40.94
    0   25    1    -12.73     -7.77
    0   25    3     -8.41    -10.25
    0   25    5     -0.49      2.22
    0   25    7     -4.18     -2.09
    0   25    9      6.75     -0.80
    0   25   11     -0.58     -2.57
    0   25   13     -5.24     -1.66
    0   25   15     -5.21      6.20
    0   25   17      0.68     12.84
    0   25   19      4.13      0.50
    0   25   21      8.82      4.48
    0   25   23     -6.46      4.97
    0   25   25      8.25     -2.10
    0   26    0     -9.32     -1.85
    0   26    2      5.53     -0.66
    0   26    4      3.09     -9.78
    0   26    6      4.47     -8.63
    0   26    8      7.60      4.16
    0   26   10      6.57      3.27
    0   26   12      6.83    -14.77
    0   26   14     -4.31      3.01
    0   26   16      1.57      2.39
    0   26   18    -12.41     -5.43
    0   26   20     -1.47     -0.30
    0   26   22     -4.33      4.08
    0   26   24      3.95     -3.22
    0   27    1      9.88      0.80
    0   27    3    -13.58      7.51
    0   27    5      2.42      0.80
    0   27    7      5.91     15.61
    0   27    9     -9.58    -18.91
    0   27   11     -3.67      6.32
    0   27   13      7.23      4.02
    0   27   15     16.68      6.18
    0   27   17      3.79      3.30
    0   27   19      3.40      6.78
    0   27   21     -1.35      3.48
    0   27   23     -3.59      7.86
    0   28    0      6.07      0.66
    0   28    2     -4.90      0.58
    0   28    4     -5.02    -12.89
    0   28    6      6.96      9.09
    0   28    8     -2.28      7.02
    0   28   10     -5.63      6.38
    0   28   12      7.67      4.51
    0   28   14     -7.05      2.82
    0   28   16     -2.32      0.66
    0   28   18      6.87     -2.79
    0   28   20    -13.04     -6.91
    0   28   22     -8.28     -1.37
    0   29    1      2.37      3.54
    0   29    3     -0.30     10.50
    0   29    5     -2.27     14.87
    0   29    7    -10.17      5.03
    0   29    9      4.46     -2.08
    0   29   11      4.66     -2.08
    0   29   13    -13.62      8.91
    0   29   15     -2.77     -9.28
    0   29   17      7.56      0.23
    0   29   19      6.29     -0.74
    0   29   21      0.13     -5.25
    0   29   23      1.22      2.49
    0   30    0     -3.85     -0.86
    0   30    2      1.85      7.45
    0   30    4     -9.92     -5.86
    0   30    6     -8.21    -23.29
    0   30    8      8.24      3.17
    0   30   10     -4.73      2.54
    0   30   12     14.68      1.11
    0   30   14    -14.23     -1.51
    0   30   16    -14.09     -8.65
    0   30   18     -0.13      6.25
    0   30   20      1.82     12.66
    0   30   22      9.72     -2.65
    0   31    1     -2.81     14.33
    0   31    3      2.02      6.21
    0   31    5     -2.12     -0.74
    0   31    7     -4.50    -17.66
    0   31    9     25.13     -2.11
    0   31   11     -4.23     12.24
    0   31   13     -1.70     -5.69
    0   31   15     -7.27      0.49
    0   31   17      5.51     -1.53
    0   31   19     -0.65      3.75
    0   31   21     -0.07      4.64
    0   32    0     -3.21     -3.50
    0   32    2     -0.68    -13.76
    0   32    4     -4.99     -9.28
    0   32    6      2.61     -0.04
    0   32    8     -8.98     -8.58
    0   32   10      1.05      0.26
    0   32   12     10.49     14.01
    0   32   14     -7.28      3.59
    0   32   16     10.72      3.36
    0   32   18      5.68      1.37
    0   32   20    -14.39     -3.65
    0   33    1      3.77      3.42
    0   33    3     11.33      4.76
    0   33    5      1.21     -6.69
    0   33    7      5.89      5.10
    0   33    9     11.05      3.17
    0   33   11     -2.62      4.22
    0   33   13    -13.77      5.85
    0   33   15      8.17     -6.03
    0   33   17      3.36      8.54
    0   33   19      0.73    -15.40
    0   34    0    -13.22     -1.40
    0   34    2     -4.10     10.52
    0   34    4      2.75      0.38
    0   34    6      2.66      4.25
    0   34    8    -16.90     -4.13
    0   34   10     10.95    -22.57
    0   34   12      4.57     -2.44
    0   34   14    -10.36      2.86
    0   34   16     -0.33     -3.75
    0   34   18     -8.76      3.18
    0   35    1     10.88     -1.48
    0   35    3      1.93     13.53
    0   35    5      0.11     -2.05
    0   35    7      4.89     13.22
    0   35    9     -8.44     19.76
    0   35   11      0.33     10.08
    0   35   13     -4.18    -12.32
    0   35   15     -4.68     -7.51
    0   35   17     -5.49     -1.32
    0   36    0    -24.34    -28.56
    0   36    2     16.67     -8.36
    0   36    4     33.96    -37.81
    0   36    6     10.40      6.84
    0   36    8    -15.12    -11.52
    0   36   10      2.53      0.64
    0   36   12     14.30     15.44
    0   36   14    -11.10     10.68
    0   37    1     -4.14      3.98
    0   37    3     -1.99      3.23
    0   37    5      1.53     -2.24
    0   37    7      1.82      3.15
    0   37    9    -12.66      3.91
    0   37   11    -14.57    -29.35
    0   37   13     13.83    -18.09
    0   38    0     28.61      1.01
    0   38    2      3.79     -6.28
    0   38    4     22.35     -0.78
    0   38    6     -6.26     20.65
    0   38    8     12.32     10.72
    0   38   10     -1.55      2.71
    0   38   12     15.23      7.07
    0   39    1     -7.38      9.63
    0   39    3     -0.67      4.92
    0   39    5     31.10     11.16
    0   39    7     -1.85      0.82
    0   39    9     -5.85      1.70
    0   40    0    -11.18    -29.43
    0   40    2      3.36     -6.15
    0   40    4      5.68     -1.53
    0   40    6    -20.98     20.25
    0   41    1     26.64    -21.69
    0   41    3     18.02    -15.18
    1    1    6     30.50    -59.13
    1    1    8    -16.34    -16.65
    1    1   10     13.93     30.62
    1    1   12     -5.47     12.89
    1    1   14     -9.15     -2.72
    1    1   16      1.21    -13.68
    1    1   18     -8.09      6.81
    1    1   20     18.85    -12.77
    1    1   22     -4.92      8.78
    1    1   24      7.25      4.57
    1    2    3      2.98    167.76
    1    2    5     28.66    -49.20
    1    2    7     82.85    -15.08
    1    2    9    -13.10    -17.60
    1    2   11      3.39      3.99
    1    2   13     -8.29     -3.37
    1    2   15      1.83      9.66
    1    2   17    -13.67      2.23
    1    2   19      5.41     -2.89
    1    2   21     -1.53      5.54
    1    2   23     -7.25     -0.57
    1    2   25      5.37     -0.64
    1    3    6    -37.90    -56.15
    1    3    8    -36.08    -10.78
    1    3   10     -5.23     43.19
    1    3   12      0.08      2.45
    1    3   14     -4.93     -4.47
    1    3   16     -9.45     -6.01
    1    3   18     -5.27      2.26
    1    3   20     13.41    -10.54
    1    3   22      2.99     16.21
    1    3   24      6.06      6.40
    1    3   26      3.05    -15.64
    1    4    7      0.18    -16.92
    1    4    9     10.95     -1.64
    1    4   11     15.86     19.95
    1    4   13     -2.64     -5.95
    1    4   15      1.81     -5.55
    1    4   17     12.25     -8.15
    1    4   19     -5.07     15.01
    1    4   21     13.85    -11.26
    1    4   23    -11.39     -4.15
    1    4   25     -7.47     -3.46
    1    4   27      9.04     23.18
    1    5    6    -28.78    -13.32
    1    5    8    -25.88    -11.44
    1    5   10      7.92     -4.64
    1    5   14      0.23      0.26
    1    5   16     -4.81    -10.53
    1    5   18      4.01     -5.42
    1    5   20      5.77     -7.38
    1    5   22      4.01     -0.59
    1    5   24     -6.46     11.48
    1    5   26     21.67     15.34
    1    6    7      2.65    -39.60
    1    6    9     10.91     10.58
    1    6   11     -7.90    -16.50
    1    6   13     21.57      0.92
    1    6   15     -4.54      4.85
    1    6   17    -10.19     12.36
    1    6   19    -16.10    -13.19
    1    6   21     -1.43      4.80
    1    6   23     14.38     12.21
    1    6   25      4.38      1.00
    1    6   27    -36.54     -6.39
    1    7    4    -69.19    -66.46
    1    7    6     37.77    -64.46
    1    7    8     22.18     -9.86
    1    7   10     32.87     18.41
    1    7   12      4.41      1.25
    1    7   14     11.24    -18.87
    1    7   16     16.68     -8.43
    1    7   18     -1.97     15.09
    1    7   20      2.15     -2.14
    1    7   22     -7.48    -12.68
    1    7   24      3.96      0.75
    1    7   26     -2.39    -18.63
    1    7   28     -9.87     -9.48
    1    8    3    -51.34    -32.13
    1    8    5     41.46    -55.51
    1    8    7      3.61    -11.10
    1    8    9    -15.37     -2.93
    1    8   11    -16.52      2.11
    1    8   13      0.83     -0.09
    1    8   15      5.33    -11.91
    1    8   17     10.78      7.15
    1    8   19      7.76      9.03
    1    8   21     -7.50     13.70
    1    8   23    -14.51     -4.73
    1    8   25    -12.46      4.67
    1    8   27     -4.69    -12.21
    1    8   29     19.07     -3.79
    1    9    2     22.09    -56.97
    1    9    4      4.42      9.73
    1    9    6     -2.92      4.69
    1    9    8    -20.93     -1.95
    1    9   10     11.92    -24.99
    1    9   12     15.55     -1.78
    1    9   14     -1.95      7.31
    1    9   16    -10.52    -10.28
    1    9   18     12.22      9.87
    1    9   20      2.40      1.23
    1    9   22      5.96      4.07
    1    9   24      5.53     -7.47
    1    9   26     -6.44     -4.61
    1    9   28      3.63     -4.12
    1    9   30     19.19    -25.43
    1   10    1    -42.60    -15.68
    1   10    3     -1.60     27.48
    1   10    5      9.34    -20.85
    1   10    7     22.39    -22.51
    1   10    9    -14.44    -12.78
    1   10   11     29.05      6.22
    1   10   13     -1.91     -0.12
    1   10   15     -3.87     -6.84
    1   10   17      0.95    -18.83
    1   10   19      1.45      3.94
    1   10   21     -5.11      3.15
    1   10   23    -18.99      6.46
    1   10   25     14.13     -1.20
    1   10   27      4.26     -1.00
    1   10   29      2.87      8.87
    1   11    0     52.41    -26.28
    1   11    2     20.47      5.58
    1   11    4    -18.31     14.40
    1   11    6     -3.69      8.83
    1   11    8      7.26     41.09
    1   11   10    -25.40     -8.32
    1   11   12    -30.27    -22.17
    1   11   14      2.71     -5.03
    1   11   16    -11.62     11.83
    1   11   18      0.10      2.16
    1   11   20      6.90      0.35
    1   11   22     28.14     -2.30
    1   11   24     -7.63      9.45
    1   11   26      6.70      2.50
    1   11   28      0.99    -13.48
    1   11   30      0.86     16.18
    1   12    1     -5.55    -11.13
    1   12    3     32.41    -25.04
    1   12    5     19.62      6.61
    1   12    7     15.89      5.52
    1   12    9     -7.61      9.51
    1   12   11      0.47      6.44
    1   12   13     12.24      1.19
    1   12   15      7.25      3.82
    1   12   17     -2.76    -11.72
    1   12   19     -4.19    -11.30
    1   12   21     -6.98     -3.38
    1   12   23      3.05      3.96
    1   12   25     -5.34    -18.89
    1   12   27      8.59      5.79
    1   12   29     -7.62      2.89
    1   12   31    -32.93    -15.41
    1   13    0     -5.66    -13.05
    1   13    2     -4.38    -18.24
    1   13    4     22.66     20.25
    1   13    6    -12.76     14.88
    1   13    8     -8.81     -8.48
    1   13   10     -9.65    -25.26
    1   13   12     -0.47     27.00
    1   13   14     -7.71     12.84
    1   13   16     -8.42      3.95
    1   13   18      2.90      3.03
    1   13   20      5.31     -0.80
    1   13   22     -0.04      5.57
    1   13   24      5.01     12.35
    1   13   26     -6.07      5.38
    1   13   28     -6.28     -4.88
    1   13   30      8.73      3.02
    1   14    1     16.12      2.37
    1   14    3      4.94    -12.57
    1   14    5     13.99     19.80
    1   14    7    -19.82      2.04
    1   14    9     -4.32      6.29
    1   14   11     12.84      0.40
    1   14   13    -15.52     -0.89
    1   14   15     -1.18     -5.03
    1   14   17     -5.61     -4.75
    1   14   19     -6.01     14.20
    1   14   21     -4.33     -2.82
    1   14   23      0.13     12.47
    1   14   25     -6.94     11.33
    1   14   27     -0.43     -0.02
    1   14   29     -3.53      4.68
    1   15    0    -15.81      0.43
    1   15    2      1.34      8.29
    1   15    4    -13.58    -11.08
    1   15    6      8.30      1.22
    1   15    8      9.52     10.68
    1   15   10     11.55     11.91
    1   15   12      1.02     -4.57
    1   15   14      9.26     -0.03
    1   15   16      2.46      8.48
    1   15   18     -0.35     -2.12
    1   15   20     -2.38      3.25
    1   15   22      7.78      1.02
    1   15   24     -8.88      1.82
    1   15   26      6.91    -23.42
    1   15   28     12.60     20.75
    1   15   30     -1.27     -4.34
    1   16    1     -0.75    -32.09
    1   16    3     -4.69     -5.54
    1   16    5      0.51     -7.09
    1   16    7     -1.09     19.86
    1   16    9     -5.07    -16.31
    1   16   11      4.05     -8.30
    1   16   13      8.71      5.01
    1   16   15      3.11     -3.55
    1   16   17      4.05      8.50
    1   16   19     -0.38      7.34
    1   16   21      4.74      2.17
    1   16   23      5.36     -3.83
    1   16   25     -4.94     16.95
    1   16   27     14.61    -42.13
    1   16   29      6.63     -5.24
    1   17    0      3.60     -4.12
    1   17    2     -5.25      1.68
    1   17    4     -3.48     13.69
    1   17    6     -0.85    -13.00
    1   17    8     -8.27     -2.34
    1   17   10     12.75     -3.65
    1   17   12      8.84     17.72
    1   17   14     -4.31     11.29
    1   17   16      2.17     -5.83
    1   17   18     10.16     -4.40
    1   17   20      0.91      3.76
    1   17   22     -3.12      6.27
    1   17   24      5.02    -12.42
    1   17   26    -17.06      3.51
    1   17   28     -5.54      7.78
    1   18    1      1.81     -7.29
    1   18    3     -6.20      6.94
    1   18    5    -14.46     -5.93
    1   18    7      3.87     -4.07
    1   18    9      7.70    -12.66
    1   18   11     17.49      3.27
    1   18   13     -2.93     -9.19
    1   18   15      6.86     11.35
    1   18   17     -7.95      0.06
    1   18   19      2.39      1.58
    1   18   21    -10.40     -2.18
    1   18   23    -11.95    -14.64
    1   18   25     -0.31     10.70
    1   18   27     27.29    -27.13
    1   18   29     36.48    -38.47
    1   19    0      3.05     -1.05
    1   19    2     11.11     -2.84
    1   19    4     12.46      9.03
    1   19    6     -4.56     -0.55
    1   19    8     -8.57     13.16
    1   19   10     -6.99     13.61
    1   19   12    -21.54      6.46
    1   19   14     -8.94    -12.39
    1   19   16    -14.22      4.27
    1   19   18      3.04     -9.63
    1   19   20     -2.80      4.94
    1   19   22      6.26      0.68
    1   19   24     15.16    -13.23
    1   19   26      3.14      0.84
    1   20    1      4.71      8.32
    1   20    3      3.82     -4.86
    1   20    5     -4.95      0.14
    1   20    7      0.47     -3.60
    1   20    9      3.67      2.00
    1   20   11     -5.15     -1.77
    1   20   13     -2.42      8.43
    1   20   15     12.10      3.57
    1   20   17     13.22      7.54
    1   20   19     -1.01     -4.19
    1   20   21     -4.67     -1.97
    1   20   23    -36.74      1.11
    1   20   25     10.79    -11.27
    1   20   27      7.37    -12.51
    1   21    0     11.61     -0.29
    1   21    2    -17.43     -0.18
    1   21    4      4.72     -2.10
    1   21    6     -6.45     -2.52
    1   21    8     -8.12     -3.44
    1   21   10     -0.58     -6.84
    1   21   12      9.93      8.19
    1   21   14      3.51      3.20
    1   21   16     -5.59     -1.50
    1   21   18      1.82     -3.90
    1   21   20      0.08      4.87
    1   21   22     14.37     -6.52
    1   21   24     35.24     -4.22
    1   21   26    -12.85     38.95
    1   21   28      4.90      7.01
    1   22    1     -1.36     -5.04
    1   22    3    -17.09     -2.44
    1   22    5     -0.84      8.99
    1   22    7      8.82     -9.67
    1   22    9    -11.76     -5.17
    1   22   11      9.74      3.34
    1   22   13      5.74     -0.79
    1   22   15      3.62      7.96
    1   22   17     -8.50      1.62
    1   22   19      6.88     -1.12
    1   22   21      8.03     -7.29
    1   22   23    -17.02     -1.94
    1   22   25      4.77     -5.36
    1   22   27     -7.04    -36.07
    1   23    0    -11.27     -2.77
    1   23    2      1.76     -5.97
    1   23    4     -7.25     -1.23
    1   23    6      3.14     -5.52
    1   23    8      4.47      2.37
    1   23   10    -17.59    -12.84
    1   23   12      1.72      1.89
    1   23   14     -0.83     -1.31
    1   23   16     -0.71      0.63
    1   23   18     -9.21      0.21
    1   23   20     -1.22     -0.50
    1   23   22     -2.07      4.66
    1   23   24      4.93    -11.57
    1   23   26     21.76     11.30
    1   24    1      8.85    -16.27
    1   24    3     -1.47      0.14
    1   24    5     -0.26     -9.36
    1   24    7     -8.39     -2.78
    1   24    9    -14.26      5.71
    1   24   11     27.50     -0.47
    1   24   13     -6.23     -4.33
    1   24   15      0.67     -3.27
    1   24   17      7.68     -1.31
    1   24   19      0.23     -1.96
    1   24   21      3.58      5.16
    1   24   23     -0.66      2.75
    1   24   25     -3.20     11.53
    1   25    0     -2.88     -1.14
    1   25    2      5.53      0.01
    1   25    4     20.29    -11.04
    1   25    6     -2.93      7.83
    1   25    8     -3.43      5.61
    1   25   10     -7.10     -8.91
    1   25   12      7.50     11.52
    1   25   14     -7.61      4.97
    1   25   16    -11.95      4.41
    1   25   18     -6.07      4.46
    1   25   20      5.45      7.97
    1   25   22      3.29     -7.95
    1   25   24      7.48     -8.28
    1   26    1      7.45      7.54
    1   26    3      6.32     10.38
    1   26    5     -9.44      0.01
    1   26    7      1.19     -4.41
    1   26    9    -12.23      9.26
    1   26   11     -1.20      3.13
    1   26   13     10.19      2.77
    1   26   15      6.19      7.80
    1   26   17      1.35      1.28
    1   26   19     -4.32      8.68
    1   26   21      1.99      3.40
    1   26   23      6.16      4.19
    1   26   25      5.56      7.55
    1   27    0      1.40      0.71
    1   27    2     -9.40      3.28
    1   27    4     -1.78     10.28
    1   27    6      6.47     -2.47
    1   27    8     -0.43     17.31
    1   27   10     -9.23     -4.92
    1   27   12     -1.89    -12.82
    1   27   14     -6.71     -0.85
    1   27   16     -0.64     -9.80
    1   27   18      4.35     -4.39
    1   27   20      1.25     -3.26
    1   27   22     -7.47     -6.30
    1   27   24      0.51      0.86
    1   28    1      9.48     15.45
    1   28    3    -13.48      9.93
    1   28    5    -10.88    -14.34
    1   28    7    -12.15     -4.10
    1   28    9     12.19     -1.63
    1   28   11      2.21     11.04
    1   28   13    -13.21      2.95
    1   28   15     -6.85     12.30
    1   28   17      3.43      3.82
    1   28   19      4.81     -1.33
    1   28   21      5.29     -0.98
    1   28   23      0.29      0.06
    1   29    0     -7.13      0.71
    1   29    2     -4.79     -7.18
    1   29    4      8.37     -5.96
    1   29    6     -1.25     -4.47
    1   29    8    -13.99    -22.60
    1   29   10      5.21      1.06
    1   29   12     20.82      1.90
    1   29   14      5.39      0.16
    1   29   16     -5.08      0.28
    1   29   18     -2.01      0.99
    1   29   20     -7.14     20.17
    1   29   22      0.39      1.17
    1   30    1      9.15     15.08
    1   30    3     -1.47     -0.39
    1   30    5      5.88    -13.57
    1   30    7     17.28     -2.68
    1   30    9     -4.80      3.50
    1   30   11    -12.10      7.68
    1   30   13      1.14      2.76
    1   30   15     13.67      0.82
    1   30   17     10.93      2.70
    1   30   19      7.41      3.81
    1   30   21     -2.06     -2.94
    1   31    0     -1.01     -0.84
    1   31    2     -5.46     12.35
    1   31    4    -17.25     -2.60
    1   31    6     -1.04      1.96
    1   31    8      2.93     11.54
    1   31   10     -1.04    -11.14
    1   31   12     -0.43     -5.05
    1   31   14     -1.67      2.36
    1   31   16     -2.34      2.58
    1   31   18     -5.81      2.38
    1   31   20    -17.22      4.25
    1   32    1     14.55     -6.94
    1   32    3      5.39      2.82
    1   32    5     -6.75     -1.84
    1   32    7      0.50    -14.77
    1   32    9      7.76      2.72
    1   32   11      5.86      8.64
    1   32   13    -12.73      7.90
    1   32   15     -1.53     -5.10
    1   32   17      6.59      7.91
    1   32   19      3.08     -2.53
    1   33    0    -10.87     -0.32
    1   33    2     -3.56     -6.01
    1   33    4     -1.20     -0.10
    1   33    6     -6.89      2.80
    1   33    8    -10.49    -13.30
    1   33   10      3.76     -5.95
    1   33   12      1.87     19.18
    1   33   14    -13.25     -3.58
    1   33   16     15.19     -1.48
    1   33   18      0.66      1.42
    1   34    1     10.38      5.21
    1   34    3     12.84      5.95
    1   34    5     -0.94      0.51
    1   34    7     10.11     12.20
    1   34    9      1.31      6.73
    1   34   11     -1.92     11.11
    1   34   13    -14.84     -5.96
    1   34   15    -10.49      0.02
    1   34   17     -3.77      9.37
    1   35    0      0.10    -21.90
    1   35    2    -11.51    -17.90
    1   35    4     -6.20     -8.40
    1   35    6      3.13    -21.44
    1   35    8     16.44    -12.72
    1   35   10     -3.20    -12.22
    1   35   12     22.15     -0.38
    1   35   14      1.25      4.45
    1   35   16     -2.68      4.24
    1   36    1     10.35     10.74
    1   36    3     -4.05     23.28
    1   36    5     11.90      3.38
    1   36    7      6.05     -6.76
    1   36    9     -0.71      5.52
    1   36   11      1.03      2.13
    1   36   13     -3.32      8.43
    1   36   15      1.89      6.39
    1   37    0      2.36     -2.47
    1   37    2     16.15    -21.17
    1   37    4     16.46     -0.98
    1   37    6      0.03     26.06
    1   37    8      9.63      0.42
    1   37   10      4.41      8.58
    1   37   12     -6.12     -2.96
    1   37   14    -10.69      0.80
    1   38    1     -1.02     -2.77
    1   38    3     19.93    -15.40
    1   38    5      4.90     -3.90
    1   38    7    -20.98      0.27
    1   38    9    -11.04      6.46
    1   38   11    -17.76     -1.89
    1   39    0      2.00     -0.45
    1   39    2      4.35      5.55
    1   39    4     -4.71     -1.89
    1   39    6     -2.16      6.25
    1   39    8     32.78      1.15
    1   39   10     -6.35     11.68
    1   40    1     13.78    -11.19
    1   40    3     -1.67     -0.72
    1   40    5     29.96      1.93
    1   40    7      4.24     10.85
    1   41    0    -22.58     -8.64
    1   41    2     -4.11     -2.67
   -1    2    3    135.00     73.29
   -1    2    5     26.33      5.78
   -1    2    7    -70.21      4.66
   -1    2    9    -17.38     25.86
   -1    2   11     -5.81     -4.72
   -1    2   13     15.91     -3.97
   -1    2   15      4.78     10.53
   -1    2   17    -14.52    -14.02
   -1    2   19     10.67      8.03
   -1    2   21     -7.63     -5.15
   -1    2   23     10.62     -0.33
   -1    2   25    -15.39     24.52
    2    2    4     22.83    -21.17
    2    2    6    -65.52    172.42
    2    2    8      4.06      1.55
    2    2   10      9.52    -43.45
    2    2   12    -20.08    -19.84
    2    2   14    -23.50     15.15
    2    2   16      4.06      9.62
    2    2   18     -0.64     -3.10
    2    2   20     10.18     -9.25
    2    2   22      0.67     11.33
    2    2   24      3.77      1.86
    2    2   26     -7.14    -16.77
    2    3    5     50.44     61.46
    2    3    7    -16.56     26.86
    2    3    9     -3.60    -30.92
    2    3   11    -17.06    -12.66
    2    3   13     -0.06     -9.58
    2    3   15     -1.02     11.32
    2    3   17     -4.71     -5.84
    2    3   19    -12.44    -14.13
    2    3   21      8.80     -6.38
    2    3   23     -8.21     16.47
    2    3   25      3.25      1.28
    2    3   27     11.01     -3.47
    2    4    4    -55.25    -53.51
    2    4    6    -54.86      6.46
    2    4    8     45.38     21.15
    2    4   10      9.77     -4.61
    2    4   12     -2.20    -15.93
    2    4   14     21.26     28.48
    2    4   16    -20.51     -2.20
    2    4   18     -7.99    -18.17
    2    4   20     11.06     -4.73
    2    4   22      4.00      5.75
    2    4   24     13.99      1.79
    2    4   26     -6.53     19.63
    2    4   28    -24.94     12.63
    2    5    5     78.44     24.46
    2    5    7     35.92      7.34
    2    5    9     -1.19    -36.19
    2    5   11     39.95    -16.95
    2    5   17      2.80      3.97
    2    5   19     12.05     -1.53
    2    5   21      8.98      1.67
    2    5   23     -9.21     -4.51
    2    5   25      7.16     -1.99
    2    5   27    -43.68     -4.94
    2    6    6     26.62     45.02
    2    6    8     -9.48    -24.13
    2    6   10     14.12    -22.43
    2    6   16      6.83     -1.02
    2    6   18     11.51     -5.56
    2    6   20      1.40     -4.67
    2    6   22      9.64    -16.69
    2    6   24     11.99      8.48
    2    6   26     -0.78     -7.98
    2    6   28     -6.04    -40.78
    2    7    5    -55.24    -50.74
    2    7    7      3.21     12.40
    2    7    9     41.17    -20.82
    2    7   11      2.46     13.80
    2    7   15     13.06    -16.76
    2    7   17     18.78     28.58
    2    7   19     -5.44      5.39
    2    7   21     -2.32      5.37
    2    7   23    -13.44     -6.84
    2    7   25    -14.62     11.33
    2    7   27     -7.63     12.67
    2    7   29      2.08     -7.53
    2    8    6     36.51    -55.65
    2    8    8    -20.28     10.57
    2    8   10     -6.47    -28.71
    2    8   12     12.05    -18.72
    2    8   16      9.13      0.99
    2    8   18     -3.42     -2.70
    2    8   20      0.79     -1.74
    2    8   22     -4.80     -0.07
    2    8   24     14.82      5.19
    2    8   26      0.91      0.28
    2    8   28      7.69      9.84
    2    8   30     54.32     -6.41
    2    9    5     -7.10     38.67
    2    9    7      3.77     20.13
    2    9    9     -0.75      7.73
    2    9   11    -24.65    -18.42
    2    9   13     -3.52      5.89
    2    9   15    -16.40    -17.09
    2    9   17     10.63    -15.71
    2    9   19      4.40      0.98
    2    9   21      1.68     -1.88
    2    9   23      5.38     -4.99
    2    9   25      4.62    -10.89
    2    9   27      5.82     -5.05
    2    9   29    -24.20      2.68
    2   10    4     12.12      2.80
    2   10    6    -24.87    -12.23
    2   10    8     17.98    -24.77
    2   10   10     10.23     20.68
    2   10   12     -3.30     14.06
    2   10   14      5.88      5.29
    2   10   16      3.84     -7.09
    2   10   18      8.40      3.00
    2   10   20     13.57    -10.51
    2   10   22     11.07      8.52
    2   10   24    -19.03      3.31
    2   10   26      3.03     -1.34
    2   10   28    -12.44     -0.97
    2   10   30    -13.03    -19.75
    2   11    5      9.03      4.95
    2   11    7     -7.47    -14.20
    2   11    9     -4.61     11.50
    2   11   11      8.27      9.47
    2   11   13    -11.68     -3.19
    2   11   15      8.97      4.58
    2   11   17      7.41     -7.67
    2   11   19     -3.47     -4.47
    2   11   21    -14.23     -3.87
    2   11   23    -12.16      4.66
    2   11   25     12.18    -17.38
    2   11   27      6.72     20.74
    2   11   29      5.71      6.37
    2   11   31    -11.43     -6.77
    2   12    4    -12.66      2.00
    2   12    6      9.77      2.17
    2   12    8     10.55      7.49
    2   12   10     -3.76    -11.69
    2   12   12    -22.12      2.24
    2   12   14     -1.32    -17.80
    2   12   16      1.02      2.16
    2   12   18     -8.64      4.89
    2   12   20     -0.19      7.96
    2   12   22     11.32      7.83
    2   12   24     -5.91      4.41
    2   12   26    -11.51    -17.73
    2   12   28     -4.77     -2.71
    2   12   30      5.06     40.99
    2   13    3    -20.09    -27.61
    2   13    5      1.13    -36.02
    2   13    7     21.94     31.45
    2   13    9      2.44     14.16
    2   13   11     10.67    -14.82
    2   13   13      0.24     -7.73
    2   13   15     -1.03      4.97
    2   13   17      3.73      0.59
    2   13   19     -3.93      6.81
    2   13   21     -0.21      5.01
    2   13   23      5.10      0.28
    2   13   25    -16.99     23.58
    2   13   27      5.73     -4.93
    2   13   29     16.60     -5.68
    2   14    0     -1.09     -1.75
    2   14    2     20.70     -8.99
    2   14    4      9.97     15.38
    2   14    6     -1.65      1.30
    2   14    8    -16.81     12.36
    2   14   10     -0.33     13.19
    2   14   12    -11.32     13.51
    2   14   14     10.46      7.14
    2   14   16     -0.60     14.75
    2   14   18     -4.09     -1.63
    2   14   20      0.52      0.22
    2   14   22     -3.87      1.25
    2   14   24      6.61      4.19
    2   14   26      7.38     -8.88
    2   14   28     -1.91      6.19
    2   14   30     -9.17     -2.01
    2   15    1     -2.95      4.78
    2   15    3     -1.99     10.33
    2   15    5      9.60      5.54
    2   15    7     13.34    -22.36
    2   15    9      2.12    -21.51
    2   15   11      4.70      1.53
    2   15   13     -6.61      2.27
    2   15   15      2.84      1.12
    2   15   17      1.22     -1.22
    2   15   19     11.10     -0.90
    2   15   21     -7.86      8.23
    2   15   23     -5.03      7.73
    2   15   25     -0.81     -1.63
    2   15   27      6.82    -13.60
    2   15   29    -13.14     -1.92
    2   16    0     -9.00     -1.56
    2   16    2      8.47      3.61
    2   16    4     -7.29      7.35
    2   16    6      4.72      6.10
    2   16    8    -10.58     20.84
    2   16   10      1.81     12.57
    2   16   12      1.35     14.99
    2   16   14    -10.51    -15.25
    2   16   16    -10.25      4.97
    2   16   18     -6.41     -3.11
    2   16   20     -0.70     -3.82
    2   16   22      0.54      3.49
    2   16   24      8.69      4.56
    2   16   26     -2.88     -1.79
    2   16   28     -5.78      5.91
    2   16   30     -6.03     10.81
    2   17    1     11.16     15.92
    2   17    3      3.18      2.86
    2   17    5      4.43     15.53
    2   17    7      7.96     -1.08
    2   17    9      0.26     18.48
    2   17   11     -7.65     -4.28
    2   17   13      2.23     10.62
    2   17   15     -0.85     -2.68
    2   17   17      7.29      2.51
    2   17   19      6.49      8.08
    2   17   21      0.41    -10.39
    2   17   23     -4.82    -20.23
    2   17   25     -5.38     13.72
    2   17   27      8.97    -34.54
    2   17   29     43.21    -18.57
    2   18    0     -7.34     -2.35
    2   18    2    -20.95    -11.69
    2   18    4      5.91    -11.47
    2   18    6     -2.14     -3.38
    2   18    8     -1.60     -2.08
    2   18   10     -6.74     -7.67
    2   18   12     -5.47     -1.95
    2   18   14      3.91      8.04
    2   18   16    -20.21     -1.50
    2   18   18      6.01    -13.30
    2   18   20     -2.42      0.14
    2   18   22     -3.39     12.12
    2   18   24      1.77     -6.51
    2   18   26     -0.10      0.00
    2   18   28    -17.80      7.56
    2   19    1     -4.14     12.29
    2   19    3     -6.21     10.95
    2   19    5      2.05      9.90
    2   19    7     -1.33     -8.56
    2   19    9     11.87    -14.58
    2   19   11      0.88      4.21
    2   19   13      5.06     -1.24
    2   19   15     14.33     16.90
    2   19   17     -6.60     -0.52
    2   19   19     -0.76     -2.44
    2   19   21      4.36      8.25
    2   19   23     -0.75      7.56
    2   19   25      9.52      3.50
    2   19   27    -12.46     -8.43
    2   20    0     -1.48      1.83
    2   20    2    -21.36     -0.28
    2   20    4     11.86     -5.61
    2   20    6     -1.14      5.21
    2   20    8     -4.05      3.00
    2   20   10      8.97      3.21
    2   20   12      7.98     -2.19
    2   20   14     -7.06     -9.41
    2   20   16      2.49     -1.00
    2   20   18      7.61      7.91
    2   20   20     -1.63     -3.44
    2   20   22      3.83      5.88
    2   20   24      6.23     -7.96
    2   20   26     -3.29     12.40
    2   20   28     29.31      0.48
    2   21    1    -13.67    -23.57
    2   21    3     -6.87    -15.02
    2   21    5     -7.57    -15.31
    2   21    7      2.46      1.11
    2   21    9    -11.11    -16.56
    2   21   11     21.34    -10.18
    2   21   13     -2.78      4.69
    2   21   15     -6.38      0.71
    2   21   17     -6.29     -6.35
    2   21   19      1.05     -2.28
    2   21   21     10.73      5.90
    2   21   23    -34.56     -8.95
    2   21   25     -2.99    -21.74
    2   21   27     24.91    -37.40
    2   22    0     -8.24     -9.84
    2   22    2      8.62     -3.24
    2   22    4     13.95     -2.01
    2   22    6    -15.60      5.52
    2   22    8    -10.16     15.64
    2   22   10     -2.47    -20.09
    2   22   12      2.72      6.32
    2   22   14     -0.82     -1.86
    2   22   16     -9.14     -0.65
    2   22   18     11.64    -16.31
    2   22   20     -0.47      3.02
    2   22   22     -4.58      1.25
    2   22   24     15.32     10.37
    2   22   26     -3.39     15.45
    2   23    1      8.52      1.94
    2   23    3    -17.28      6.89
    2   23    5     -1.80     -8.06
    2   23    7      3.63     -1.16
    2   23    9     -2.99      2.93
    2   23   11     19.35      3.49
    2   23   13      1.75      7.19
    2   23   15     -1.06      1.25
    2   23   17      2.91      3.68
    2   23   19     -5.02      5.71
    2   23   21      1.34     -4.30
    2   23   23     -5.91      4.01
    2   23   25     -1.01     -6.39
    2   23   27    -18.93     20.91
    2   24    0    -11.01      0.15
    2   24    2      5.02      4.24
    2   24    4     -9.23     10.60
    2   24    6      4.10      7.94
    2   24    8     11.47     13.38
    2   24   10    -10.75    -32.44
    2   24   12     -7.95      7.61
    2   24   14    -11.79     -8.30
    2   24   16      5.80      4.71
    2   24   18     -1.44      2.00
    2   24   20      1.59      3.84
    2   24   22      1.40     -8.73
    2   24   24     16.58     -1.63
    2   24   26     40.06    -10.69
    2   25    1      3.60      2.30
    2   25    3     -7.79     -4.53
    2   25    5      4.62      9.68
    2   25    7    -10.45    -10.08
    2   25    9    -16.13      8.81
    2   25   11     24.55      7.26
    2   25   13    -14.85      5.86
    2   25   15     -4.63      8.78
    2   25   17     -5.01    -18.96
    2   25   19      6.25    -11.42
    2   25   21      0.17      4.89
    2   25   23    -13.61     15.48
    2   25   25    -19.00      5.63
    2   26    0     -7.35     -0.87
    2   26    2     -3.00     -1.15
    2   26    4      0.61     -1.02
    2   26    6    -11.63     -2.21
    2   26    8      1.43     -6.21
    2   26   10     -5.20     -1.98
    2   26   12     15.46      0.91
    2   26   14      2.33      2.09
    2   26   16    -13.93     -1.22
    2   26   18      1.06     -5.69
    2   26   20     10.82     -4.61
    2   26   22     -3.32      3.84
    2   26   24     -0.24     -4.59
    2   27    1     14.41     15.67
    2   27    3     -0.83      8.02
    2   27    5     -7.25     -8.89
    2   27    7      0.36      0.59
    2   27    9      4.56     -4.39
    2   27   11      6.25     -7.13
    2   27   13      5.56      1.99
    2   27   15      5.93      0.92
    2   27   17      5.52      6.44
    2   27   19    -10.21     18.49
    2   27   21     -3.79     -2.91
    2   27   23      5.13     -2.98
    2   28    0      4.19      0.38
    2   28    2    -10.60     -0.30
    2   28    4      6.03     -5.27
    2   28    6     10.85     -5.44
    2   28    8     -5.33      6.02
    2   28   10     -4.84      9.45
    2   28   12      3.71     -5.30
    2   28   14      4.29      0.95
    2   28   16     -3.61     -5.43
    2   28   18     11.28     -0.98
    2   28   20      2.70     12.40
    2   28   22     -6.92      3.02
    2   29    1      1.92      2.33
    2   29    3      7.28      0.46
    2   29    5     -6.88     -0.29
    2   29    7     -1.94     15.59
    2   29    9     -5.62    -10.11
    2   29   11     -1.63      0.02
    2   29   13      9.49      0.07
    2   29   15     -7.49     21.75
    2   29   17    -12.92     -2.82
    2   29   19      2.33     -5.45
    2   29   21      9.51     -1.46
    2   29   23     -5.26      3.21
    2   30    0     -2.29      0.49
    2   30    2     -4.12      1.62
    2   30    4     -2.90     -0.31
    2   30    6     -6.05      6.51
    2   30    8    -18.84     13.94
    2   30   10     -0.90     -1.24
    2   30   12      3.90     -4.99
    2   30   14      0.27    -12.95
    2   30   16     -2.41     -6.66
    2   30   18      9.12     -2.87
    2   30   20     -9.30     -0.99
    2   30   22     -2.61     -4.75
    2   31    1      4.15     -2.02
    2   31    3      2.43      4.53
    2   31    5     12.05      2.01
    2   31    7      7.02     -3.82
    2   31    9    -11.06      3.46
    2   31   11      4.61     -2.02
    2   31   13     -0.69      2.45
    2   31   15      3.09      1.53
    2   31   17      9.18     10.24
    2   31   19      2.92     13.56
    2   31   21      3.24      0.89
    2   32    0    -17.29     -1.55
    2   32    2    -13.82      6.90
    2   32    4     -5.96     -0.47
    2   32    6    -11.40    -12.52
    2   32    8     14.28     13.64
    2   32   10     -4.36     -1.10
    2   32   12     -0.88     -6.41
    2   32   14     -4.99     -3.61
    2   32   16     -1.05      2.73
    2   32   18     -6.02     -4.67
    2   32   20     -3.72      2.46
    2   33    1      4.38      2.28
    2   33    3     17.86    -25.10
    2   33    5     -4.58      1.36
    2   33    7     -7.79     -8.57
    2   33    9     -6.51     -3.20
    2   33   11     15.85     13.34
    2   33   13      3.66     -1.17
    2   33   15    -17.89    -10.28
    2   33   17    -22.09      7.82
    2   33   19     -0.37      4.60
    2   34    0    -10.01     -5.52
    2   34    2     -5.09    -11.82
    2   34    4     14.25      0.48
    2   34    6      0.75     -5.37
    2   34    8      4.30     -3.70
    2   34   10      0.50     -2.57
    2   34   12     15.06     -0.26
    2   34   14     25.45     15.15
    2   34   16      0.99      2.47
    2   34   18     -1.14     -4.06
    2   35    1     17.28     17.15
    2   35    3     15.15     23.01
    2   35    5    -10.11     -6.21
    2   35    7     -4.02      0.20
    2   35    9     13.54      2.18
    2   35   11      9.39     19.19
    2   35   13    -13.97      9.06
    2   35   15    -16.94     18.89
    2   35   17      7.37     -4.38
    2   36    0    -21.86     -0.03
    2   36    2      8.12    -18.26
    2   36    4     -2.55     -2.93
    2   36    6     -2.18    -21.25
    2   36    8     12.83     -4.08
    2   36   10     -5.60      9.11
    2   36   12      0.58     -2.99
    2   36   14     -4.43    -18.49
    2   37    1      4.74      4.71
    2   37    3     -3.23     12.13
    2   37    5     18.07     -2.87
    2   37    7     -1.61     13.30
    2   37    9      9.83     -1.70
    2   37   11     -8.40     14.47
    2   37   13     -5.87      0.55
    2   38    0      6.38     -4.65
    2   38    2      9.16     -9.79
    2   38    4     16.61      4.56
    2   38    6    -10.61      5.79
    2   38    8      1.64      1.02
    2   38   10      4.94     -2.43
    2   38   12      3.85     -1.68
    2   39    1      9.75     -2.19
    2   39    3     21.77    -17.87
    2   39    5      2.62      1.33
    2   39    7     -6.22    -13.62
    2   39    9    -20.59      7.12
    2   40    0    -27.47      3.60
    2   40    2     -8.44     20.73
    2   40    4     -0.36      3.65
    2   40    6     -4.48      6.52
    2   41    1      5.13     -1.87
   -1    3    6    -21.81    -10.44
   -1    3    8    -43.82     -8.92
   -1    3   10    -47.33     10.28
   -1    3   12     25.01    -12.25
   -1    3   14     -4.03      0.13
   -1    3   16     -4.94    -17.99
   -1    3   18      4.82      1.13
   -1    3   20     -2.88     -0.81
   -1    3   22     -6.84    -24.11
   -1    3   24      5.97     10.49
   -1    3   26    -14.40     -1.20
   -2    3    5     -5.59    -87.47
   -2    3    7     27.44     13.23
   -2    3    9     12.14     11.06
   -2    3   11     -0.62    -25.11
   -2    3   13     -2.96     -2.86
   -2    3   15     23.70     15.97
   -2    3   17     -0.09     -0.90
   -2    3   19    -12.36     -3.61
   -2    3   21     -3.95      3.30
   -2    3   23     -5.71     14.92
   -2    3   25     -8.00      9.50
   -2    3   27      0.04     -9.41
    3    3    0   -532.37     -1.12
    3    3    2    -76.28     15.87
    3    3    6     84.75    -18.80
    3    3    8     15.42    -15.13
    3    3   10      0.03     -6.39
    3    3   12     16.12      0.18
    3    3   14     -3.08     -4.76
    3    3   16    -11.25      1.32
    3    3   18     -2.22      5.54
    3    3   20     16.94     -3.63
    3    3   22      3.82      2.76
    3    3   24     -1.76      1.57
    3    3   26    -10.86     -1.23
    3    3   28      3.75    -18.26
    3    4    3     84.02     17.58
    3    4    5    107.20     54.40
    3    4    7    -99.62     33.08
    3    4    9     -5.18    -13.31
    3    4   11     18.89     -8.40
    3    4   13    -12.30     12.85
    3    4   15     -1.45      3.85
    3    4   17      6.96      0.24
    3    4   19      3.72     -0.17
    3    4   21      6.10     -3.73
    3    4   23     -0.41      3.99
    3    4   25     10.99    -18.46
    3    4   27      8.16    -13.12
    3    5    4      9.16    -30.78
    3    5    6      8.56    -18.93
    3    5    8    -17.34      1.54
    3    5   10     -6.79    -18.64
    3    5   12     26.46      2.04
    3    5   14     10.68      3.96
    3    5   16    -21.94      2.08
    3    5   18     -9.76     -8.13
    3    5   20      4.76      5.13
    3    5   22     -1.95      2.99
    3    5   24     14.34     -4.87
    3    5   26     -8.74      3.72
    3    5   28    -40.42     -1.45
    3    6    3     25.84    -23.13
    3    6    5     10.83     11.96
    3    6    7    -12.13    -12.43
    3    6    9    -35.69     19.78
    3    6   11     -5.81     -8.97
    3    6   17     12.32      1.59
    3    6   19     -1.00      7.51
    3    6   21     -2.25    -13.97
    3    6   23     -1.39    -10.25
    3    6   25     -5.57     14.30
    3    6   27    -11.77     13.01
    3    6   29     41.75     -3.05
    3    7    4     40.49     -7.14
    3    7    6    -16.08      6.29
    3    7    8     -2.37     11.80
    3    7   10     -1.72     20.58
    3    7   12     -7.06    -15.23
    3    7   18     -5.38     -3.03
    3    7   20      4.80     -2.44
    3    7   22     15.01      4.66
    3    7   24      8.73     15.58
    3    7   26     17.39    -10.49
    3    7   28     -0.93     -8.68
    3    7   30     31.25    -20.59
    3    8    5     17.69      9.42
    3    8    7     12.86      1.59
    3    8    9     -7.42    -20.04
    3    8   11      2.75     -5.60
    3    8   13      6.14      8.61
    3    8   17      1.90     -6.11
    3    8   19     -4.02    -13.63
    3    8   21     -3.01      2.71
    3    8   23      0.10     -2.33
    3    8   25     -0.94     -1.43
    3    8   27     -3.66     -6.17
    3    8   29    -27.89    -11.97
    3    8   31     30.34    -15.03
    3    9    6    -14.75     49.61
    3    9    8    -13.37    -17.39
    3    9   10      3.56    -15.87
    3    9   12      4.88    -11.88
    3    9   14     -9.43    -16.39
    3    9   16      6.96     -6.19
    3    9   18      0.61      3.04
    3    9   20     15.56      3.89
    3    9   22      9.10      3.69
    3    9   24      5.16      0.16
    3    9   26      7.44     -2.52
    3    9   28    -18.03     16.28
    3    9   30    -39.33      2.17
    3   10    7     -1.91    -18.80
    3   10    9     11.91     12.15
    3   10   11     -9.73      3.58
    3   10   13     13.32     -3.73
    3   10   15      8.88     -3.73
    3   10   17      1.61      2.41
    3   10   19     -7.37      0.49
    3   10   21     -6.25     -8.22
    3   10   23      8.48     -1.00
    3   10   25      4.82     -3.53
    3   10   27      0.16      3.51
    3   10   29      6.20     -7.30
    3   10   31     -8.20     -0.92
    3   11    6      6.06    -14.93
    3   11    8      1.28      3.48
    3   11   10      4.69     -4.66
    3   11   12      2.90      8.70
    3   11   14     -1.63     -8.96
    3   11   16      3.53      0.43
    3   11   18     -4.02      6.13
    3   11   20      3.55      5.86
    3   11   22     -9.56     10.39
    3   11   24     -6.95     -5.35
    3   11   26      4.37      2.26
    3   11   28      6.38     -4.92
    3   11   30     32.85     29.20
    3   12    5     22.37     12.17
    3   12    7      2.56     -1.79
    3   12    9    -23.01      5.81
    3   12   11     -9.78     -4.89
    3   12   13     10.68      5.82
    3   12   15     -9.01      1.27
    3   12   17     -1.85     -4.08
    3   12   19     10.95      8.80
    3   12   21     -2.77      5.76
    3   12   23      0.12      3.98
    3   12   25      6.42      4.58
    3   12   27      7.60      6.67
    3   12   29     16.33     -1.88
    3   12   31      2.52     -5.77
    3   13    6     -9.44     11.08
    3   13    8      4.23      1.43
    3   13   10     25.53      6.96
    3   13   12     -9.14      9.24
    3   13   14     -7.38      2.14
    3   13   16      4.64     -5.52
    3   13   18     -0.02      1.93
    3   13   20      0.98      7.44
    3   13   22     -2.94    -11.48
    3   13   24     -1.28      4.85
    3   13   26     -0.41     -5.65
    3   13   28     -3.57     -3.01
    3   13   30    -44.88     -0.69
    3   14    5    -10.68      8.45
    3   14    7     25.37     -9.49
    3   14    9      7.58     28.31
    3   14   11    -22.53     -0.35
    3   14   13      6.08     -1.37
    3   14   15     -8.25      3.00
    3   14   17     -2.56     -2.78
    3   14   19      0.36      7.82
    3   14   21     -0.55      7.11
    3   14   23     10.01    -11.37
    3   14   25     12.65     13.51
    3   14   27     -5.94     -2.95
    3   14   29      2.43      2.48
    3   15    4     16.61     -3.03
    3   15    6      8.63      8.06
    3   15    8     -6.33     11.40
    3   15   10    -18.95      6.67
    3   15   12     -7.31     -0.78
    3   15   14      1.01      6.00
    3   15   16     -0.89      1.28
    3   15   18     -0.42      5.51
    3   15   20    -10.85     -3.66
    3   15   22     -5.79     -0.21
    3   15   24      7.28    -13.80
    3   15   26      4.19     -2.42
    3   15   28      2.11      4.43
    3   15   30      5.24     -0.41
    3   16    1     -9.66      5.11
    3   16    3     -4.10     -9.73
    3   16    5      0.09    -14.05
    3   16    7      4.22    -21.04
    3   16    9     17.82     -1.49
    3   16   11      6.11      3.63
    3   16   13     -2.94     21.07
    3   16   15     -5.73     -7.50
    3   16   17      5.12     -8.37
    3   16   19     -2.33      7.10
    3   16   21     -4.00      4.29
    3   16   23     -1.34     -7.38
    3   16   25     -3.29     20.95
    3   16   27     -1.29      2.39
    3   16   29      2.55    -12.02
    3   17    0      2.41      1.97
    3   17    2     -8.04     -7.65
    3   17    4     -0.56      4.59
    3   17    6     -1.27      6.62
    3   17    8    -14.28      0.07
    3   17   10     -4.77     -1.98
    3   17   12     -3.48      2.15
    3   17   14     -3.16     -6.01
    3   17   16    -11.25      7.99
    3   17   18      6.44     -8.34
    3   17   20      1.39      1.38
    3   17   22     -2.32      5.60
    3   17   24     -4.46      0.65
    3   17   26     -7.92     -7.91
    3   17   28      3.27      2.42
    3   18    1      2.85      1.37
    3   18    3      0.92     -3.62
    3   18    5    -12.96      6.77
    3   18    7      7.42      2.36
    3   18    9     13.78     11.30
    3   18   11     -4.04      6.07
    3   18   13      5.17      1.17
    3   18   15      8.60     18.44
    3   18   17     -2.57      8.96
    3   18   19     -3.51      4.67
    3   18   21      7.38      4.27
    3   18   23     -0.69     -0.58
    3   18   25     -4.08     -6.95
    3   18   27     15.06    -23.84
    3   18   29      0.81      0.91
    3   19    0    -12.52     -2.59
    3   19    2     -1.01    -11.30
    3   19    4    -18.15     -9.65
    3   19    6      8.60    -16.57
    3   19    8      2.50     -6.69
    3   19   10     -2.97      5.16
    3   19   12    -20.14     17.73
    3   19   14     13.71    -24.51
    3   19   16      5.69     -9.88
    3   19   18      5.23     12.13
    3   19   20     -1.29      1.98
    3   19   22      5.25      2.08
    3   19   24     -1.45      7.92
    3   19   26    -11.83     -6.18
    3   19   28     10.09     15.61
    3   20    1     -4.76    -12.13
    3   20    3      1.65      0.13
    3   20    5     -0.31      2.34
    3   20    7    -10.72      6.60
    3   20    9     -3.50     -5.00
    3   20   11     15.08     -1.49
    3   20   13    -12.21     -6.04
    3   20   15    -11.75     -9.97
    3   20   17      7.80     -4.25
    3   20   19     -5.99     -1.79
    3   20   21     -1.44     -6.33
    3   20   23     -6.34    -11.94
    3   20   25      4.35     -4.82
    3   20   27      4.50     -8.04
    3   21    0     -2.19     -2.07
    3   21    2     -0.90      4.34
    3   21    4      2.04     12.43
    3   21    6     -0.40    -11.26
    3   21    8      0.86      1.57
    3   21   10    -12.58     -7.76
    3   21   12     11.37     -0.22
    3   21   14      3.54      5.98
    3   21   16     -3.94      1.57
    3   21   18      1.96      0.95
    3   21   20      5.44     15.53
    3   21   22     -8.34      1.53
    3   21   24     20.97    -13.35
    3   21   26      8.31      8.36
    3   21   28      2.91      0.30
    3   22    1      0.99      0.45
    3   22    3      3.28    -12.20
    3   22    5     -5.28      3.10
    3   22    7     -5.86      1.70
    3   22    9      1.41     -4.56
    3   22   11      4.20      3.97
    3   22   13     -7.86     -3.15
    3   22   15      7.21      6.30
    3   22   17     -2.46      0.95
    3   22   19     -5.58     -2.32
    3   22   21      9.68     -0.66
    3   22   23      2.14     -0.01
    3   22   25     -3.78     -6.05
    3   22   27      2.69      5.95
    3   23    0     -0.56     -1.58
    3   23    2    -16.67     -1.15
    3   23    4     13.13     -5.43
    3   23    6    -14.23     -5.24
    3   23    8      2.10     -8.01
    3   23   10    -16.58     -3.71
    3   23   12    -13.88      6.36
    3   23   14    -12.94    -16.50
    3   23   16      1.04     -7.46
    3   23   18      2.16     -1.95
    3   23   20      5.21     -0.06
    3   23   22     11.96     -4.28
    3   23   24      0.93      2.70
    3   23   26     -6.01      3.39
    3   24    1     -1.43      5.30
    3   24    3    -16.22      4.99
    3   24    5     -2.36    -17.35
    3   24    7     -8.66    -11.50
    3   24    9      3.40     -3.73
    3   24   11     31.58     16.02
    3   24   13     -5.24     18.21
    3   24   15    -18.62     -2.56
    3   24   17     11.95     -2.02
    3   24   19      5.91      1.96
    3   24   21     -5.36      8.48
    3   24   23     -8.99     14.50
    3   24   25    -12.46     -6.34
    3   25    0     -1.91     -2.95
    3   25    2      8.03     -0.99
    3   25    4     -8.05      0.33
    3   25    6     16.91     -4.04
    3   25    8     15.18      4.55
    3   25   10      1.88    -16.41
    3   25   12     -8.92      0.51
    3   25   14     12.78     -5.36
    3   25   16      7.30      7.12
    3   25   18     -5.12     -2.91
    3   25   20     17.26      8.21
    3   25   22      6.08     -7.63
    3   25   24      4.67      4.29
    3   26    1      6.53     -1.24
    3   26    3    -26.12      0.26
    3   26    5     -2.30      0.92
    3   26    7     -2.55     -7.80
    3   26    9      7.74     -0.68
    3   26   11      0.14      5.36
    3   26   13      1.78     -1.66
    3   26   15      0.34     12.08
    3   26   17     -5.46     -8.10
    3   26   19     -2.97      2.67
    3   26   21     -5.77      2.11
    3   26   23    -14.53      9.95
    3   26   25     -7.52     -5.95
    3   27    0      0.61      0.34
    3   27    2     11.74     10.92
    3   27    4      0.95    -11.88
    3   27    6      8.41     -1.33
    3   27    8     -6.45      0.84
    3   27   10     -5.51      4.61
    3   27   12      8.14      3.00
    3   27   14    -14.04      6.14
    3   27   16      0.97     -1.94
    3   27   18     15.40     -1.16
    3   27   20      4.12      0.62
    3   27   22     -0.14      3.19
    3   27   24     -3.22    -14.53
    3   28    1     11.27      4.76
    3   28    3     11.47     10.71
    3   28    5      5.06     20.76
    3   28    7    -12.19      2.85
    3   28    9    -13.88    -16.12
    3   28   11      4.86     -8.37
    3   28   13     -8.50     -0.65
    3   28   15      5.35     -4.52
    3   28   17     -7.38     -4.37
    3   28   19     -3.18      5.17
    3   28   21      2.17      6.90
    3   28   23      6.83     -4.92
    3   29    0    -16.50     -2.91
    3   29    2    -16.90     -5.62
    3   29    4     -2.18      9.90
    3   29    6     -6.56      7.17
    3   29    8      4.66      8.31
    3   29   10    -13.37      5.02
    3   29   12     -5.23     -1.81
    3   29   14      4.26      8.14
    3   29   16     -4.75     -4.64
    3   29   18      7.77     -4.11
    3   29   20      6.95      5.46
    3   29   22     -3.29      6.73
    3   30    1      4.85     -6.65
    3   30    3      9.40     -7.55
    3   30    5     -4.80     -4.40
    3   30    7    -13.31     -1.17
    3   30    9      5.93     -0.04
    3   30   11      6.40     -8.54
    3   30   13     -2.93     -0.49
    3   30   15     -9.27     20.87
    3   30   17      3.57      1.55
    3   30   19     -2.14      2.36
    3   30   21     -2.09     -1.88
    3   31    0    -11.75     -1.45
    3   31    2     -5.62      9.95
    3   31    4      0.34      3.58
    3   31    6     -3.10     -2.56
    3   31    8      3.60     -5.21
    3   31   10     -7.15     -7.24
    3   31   12     -2.96     -8.02
    3   31   14      1.80     -0.35
    3   31   16     -3.91      0.67
    3   31   18      9.91    -13.21
    3   31   20      0.46     -5.03
    3   32    1     -3.64     -0.12
    3   32    3     10.22     -6.00
    3   32    5      5.12     -1.88
    3   32    7      2.78      5.52
    3   32    9    -15.86     -0.85
    3   32   11     -1.04     11.59
    3   32   13     14.84     -5.81
    3   32   15      9.95      8.35
    3   32   17     -0.34      6.54
    3   32   19     -7.90      6.14
    3   33    0      1.27      0.22
    3   33    2     -7.78     -9.12
    3   33    4     12.40      9.90
    3   33    6     11.34      3.63
    3   33    8     -3.46      7.38
    3   33   10      5.62     -6.68
    3   33   12     -6.26     -0.86
    3   33   14      9.92     11.00
    3   33   16      6.17      5.78
    3   33   18      5.35     -9.21
    3   34    1      3.30      4.88
    3   34    3      3.47     -3.83
    3   34    5      9.91     -6.77
    3   34    7      1.34      7.63
    3   34    9      4.97     -5.20
    3   34   11      2.21      8.89
    3   34   13    -17.55     -3.48
    3   34   15    -15.65     18.11
    3   34   17     -4.43     -1.69
    3   35    0    -13.12      4.54
    3   35    2     -0.81     -7.99
    3   35    4     -3.32      3.49
    3   35    6     -2.32    -10.18
    3   35    8     14.93      1.25
    3   35   10     -3.76      1.14
    3   35   12     -3.32     -7.59
    3   35   14     11.80     -7.72
    3   35   16     -5.89     -7.02
    3   36    1      7.11      3.00
    3   36    3      0.36    -10.46
    3   36    5     -0.07      0.54
    3   36    7      7.64     10.10
    3   36    9      3.90     -2.57
    3   36   11     -9.71     -3.94
    3   36   13     -1.84      0.91
    3   36   15      1.65     13.03
    3   37    0      4.14      0.00
    3   37    2      0.43     -5.64
    3   37    4      8.25     -7.93
    3   37    6      9.92     -8.56
    3   37    8      6.14      4.70
    3   37   10     -0.74     -7.88
    3   37   12     12.17      9.64
    3   37   14    -31.48     13.06
    3   38    1     -5.18      3.22
    3   38    3     -1.05      4.33
    3   38    5      7.68     24.96
    3   38    7      4.47     -0.03
    3   38    9     -6.09     -3.49
    3   38   11     -3.00      0.57
    3   39    0     -1.51     -1.45
    3   39    2     -3.74    -13.03
    3   39    4      5.16     25.12
    3   39    6    -12.84      7.15
    3   39    8     -0.78     24.28
    3   39   10      0.53     -3.19
    3   40    1     12.28    -12.51
    3   40    3     32.86     -8.72
    3   40    5     -4.35     -2.53
    3   40    7      3.39    -19.47
   -1    4    1   -171.23   -204.45
   -1    4    7     -1.35    -18.51
   -1    4    9     14.03    -24.37
   -1    4   11     -3.54     12.34
   -1    4   13     -7.87    -19.80
   -1    4   15     -1.72    -22.99
   -1    4   17      3.25     12.07
   -1    4   19     -8.77     13.06
   -1    4   21    -11.07      5.25
   -1    4   23      5.87     15.05
   -1    4   25     10.75     -2.91
   -1    4   27     -8.41    -32.72
   -2    4    0    173.40     -0.84
   -2    4    4    -49.99     -2.70
   -2    4    6     32.20     18.82
   -2    4    8     34.62     16.28
   -2    4   10      9.73    -19.67
   -2    4   12    -23.04      1.07
   -2    4   14    -14.51      2.61
   -2    4   16     22.66     -3.01
   -2    4   18      9.66      8.27
   -2    4   20     -3.61      6.07
   -2    4   22      7.71    -16.52
   -2    4   24     13.96     -5.46
   -2    4   26     -9.97    -14.30
   -3    4    3     17.52    111.74
   -3    4    5     -4.78   -107.22
   -3    4    7     53.79    -21.83
   -3    4    9     -4.78     21.56
   -3    4   11    -21.46     -6.85
   -3    4   13     -4.16     13.84
   -3    4   15      2.10     -1.03
   -3    4   17      7.86      1.07
   -3    4   19     -2.25      0.48
   -3    4   21     -1.09    -24.16
   -3    4   23      3.55     -1.97
   -3    4   25     -1.59      4.96
   -3    4   27     -1.30     -2.72
    4    4    0    -98.49      3.23
    4    4    2     -6.69    -24.01
    4    4    6    -29.24     77.66
    4    4    8     -4.64    -37.14
    4    4   10      0.05      9.14
    4    4   12     -4.25     -4.49
    4    4   14     -7.73     12.27
    4    4   16      2.33     -5.39
    4    4   18     -1.05     -7.00
    4    4   20      0.73    -13.58
    4    4   22      8.33     -8.41
    4    4   24     -3.27     13.29
    4    4   26     -1.88      0.81
    4    4   28    -16.03     16.38
    4    5    1     95.93    -39.34
    4    5    5     33.11     18.37
    4    5    7     -9.55    -14.72
    4    5    9      0.55     28.18
    4    5   11     -5.57      4.81
    4    5   13     -5.06    -29.56
    4    5   15     -9.97     -3.11
    4    5   17      5.84      6.22
    4    5   19      0.36     13.98
    4    5   21     -4.43     -7.22
    4    5   23     -3.98      5.99
    4    5   25      0.22      8.58
    4    5   27     28.17      6.13
    4    5   29     35.77     -8.53
    4    6    2    -40.49    -67.27
    4    6    4     23.30    -37.10
    4    6    6    -30.34     -2.11
    4    6    8     66.51     -1.42
    4    6   10      8.93     -0.64
    4    6   12    -24.39      8.97
    4    6   14     -3.34     -3.57
    4    6   20      0.52      1.31
    4    6   22      3.89      5.71
    4    6   24     -9.51     -8.26
    4    6   26     -4.23     -2.22
    4    6   28    -26.93    -12.60
    4    6   30     -1.23      5.85
    4    7    3    -74.26     45.00
    4    7    5    -24.34    -13.58
    4    7    7     34.68    -12.90
    4    7    9    -14.63      7.31
    4    7   11    -12.19    -10.16
    4    7   19     -2.52    -12.05
    4    7   21      0.76    -18.58
    4    7   23     11.04     -2.30
    4    7   25     -1.74     -0.98
    4    7   27    -12.21     -6.18
    4    7   29     -7.54      5.66
    4    7   31     10.31     -6.23
    4    8    4    -17.10      6.08
    4    8    6     12.01      8.56
    4    8    8     11.85    -27.24
    4    8   10     10.19     -5.70
    4    8   12      0.17     15.21
    4    8   18      9.54      3.83
    4    8   20     -0.38     10.66
    4    8   22     -9.35      2.01
    4    8   24     -1.03      3.05
    4    8   26      4.97     -8.65
    4    8   28    -12.61     14.15
    4    8   30    -15.60     -9.83
    4    9    5    -15.88    -21.07
    4    9    7     11.27     28.99
    4    9    9     -6.04      3.91
    4    9   11     -0.48    -12.21
    4    9   13    -16.75    -17.66
    4    9   19      5.87      4.75
    4    9   21     -6.36      0.97
    4    9   23     -1.49    -10.84
    4    9   25     -5.07     -1.40
    4    9   27     14.84     -9.50
    4    9   29     29.58     -6.60
    4    9   31     15.60     -9.74
    4   10    6     -4.63      1.36
    4   10    8    -17.36     -8.92
    4   10   10      0.46      6.87
    4   10   12     -1.84    -11.21
    4   10   14    -18.94     -0.96
    4   10   18      1.35     -3.68
    4   10   20     16.17     -3.00
    4   10   22      8.96      2.57
    4   10   24      1.60      5.53
    4   10   26     -0.02     -1.66
    4   10   28     19.80     -0.12
    4   10   30      4.29     58.07
    4   11    7      1.02    -11.24
    4   11    9     40.04    -13.08
    4   11   11      1.65     -0.51
    4   11   13      8.31      4.33
    4   11   15     -5.34      6.14
    4   11   17      3.50      5.73
    4   11   19     -5.86     -4.53
    4   11   21      9.57     -0.96
    4   11   23      9.98      0.63
    4   11   25      0.86     -0.05
    4   11   27     -9.95      0.93
    4   11   29     -4.25     -4.30
    4   11   31    -11.60     -9.28
    4   12    6      6.74     25.45
    4   12    8     -8.69     20.81
    4   12   10    -30.55     10.61
    4   12   12      6.99    -17.46
    4   12   14      4.24     11.35
    4   12   16      5.65     -3.73
    4   12   18      4.39     -1.46
    4   12   20     -9.48      6.48
    4   12   22     -9.63    -11.70
    4   12   24      4.78     13.16
    4   12   26     19.33     15.61
    4   12   28     -3.48      2.61
    4   12   30     -9.19     -1.37
    4   13    7      9.87    -33.66
    4   13    9      7.79     34.68
    4   13   11    -31.89    -17.25
    4   13   13     23.03      1.10
    4   13   15     -7.89     13.38
    4   13   17      2.33     -9.65
    4   13   19      8.88      9.77
    4   13   21    -10.77      2.64
    4   13   23     -2.24     -5.03
    4   13   25      7.55    -15.37
    4   13   27      1.61      2.32
    4   13   29     -4.65      8.62
    4   14    6     15.85     -0.41
    4   14    8      0.20     -0.84
    4   14   10      7.44     -5.80
    4   14   12      9.80      3.52
    4   14   14      4.79      0.81
    4   14   16      6.76      1.81
    4   14   18    -10.85     -4.10
    4   14   20     -4.24      1.28
    4   14   22      7.98     -1.97
    4   14   24     10.77     -0.67
    4   14   26    -14.42      7.71
    4   14   28     -2.58     -1.42
    4   14   30    -14.43     -1.18
    4   15    5     11.16     12.80
    4   15    7     -9.57      6.74
    4   15    9     11.09     13.28
    4   15   11     -2.39     -2.24
    4   15   13     -3.88     16.16
    4   15   15    -12.99      1.56
    4   15   17      3.35     10.03
    4   15   19    -13.67      6.18
    4   15   21      0.10      3.38
    4   15   23     -0.10      4.83
    4   15   25     13.66     21.05
    4   15   27      1.80      3.36
    4   15   29     12.58     14.13
    4   16    4    -18.41      2.87
    4   16    6     17.58     -5.61
    4   16    8    -12.11     -0.49
    4   16   10      9.75     -4.44
    4   16   12      1.86     -0.08
    4   16   14     10.76     -3.40
    4   16   16      1.32     -1.09
    4   16   18     -2.50     -0.79
    4   16   20     -3.15      3.07
    4   16   22    -10.93     -4.84
    4   16   24     -3.45    -15.30
    4   16   26      1.95    -21.84
    4   16   28      8.85     13.14
    4   17    3     12.46     13.70
    4   17    5     -8.54      0.24
    4   17    7     15.41      0.88
    4   17    9      3.05      9.33
    4   17   11      0.96     -2.35
    4   17   13     -8.23      9.34
    4   17   15     -2.33      6.52
    4   17   17     -5.73     -2.71
    4   17   19     -1.44     -3.63
    4   17   21     -3.91     14.37
    4   17   23      2.62     -4.10
    4   17   25      6.20      5.46
    4   17   27      9.63     -7.81
    4   17   29    -19.95    -10.45
    4   18    2     -0.29     10.31
    4   18    4     -6.84     -2.48
    4   18    6     -0.89     -5.69
    4   18    8     -1.60     20.85
    4   18   10     -3.66     -3.75
    4   18   12     -1.43     -0.55
    4   18   14     -8.63    -20.03
    4   18   16     -4.61      9.49
    4   18   18      2.47      7.05
    4   18   20     -0.88     -4.29
    4   18   22     -7.07     -0.49
    4   18   24      1.78      5.69
    4   18   26     -2.28      7.54
    4   18   28      1.70      7.86
    4   19    1     -2.78     -6.47
    4   19    3     -7.48     -0.30
    4   19    5     -2.00      2.72
    4   19    7     -7.33     -3.55
    4   19    9      7.08    -15.93
    4   19   11     21.00     10.26
    4   19   13     -5.36     12.56
    4   19   15     -3.76     -5.86
    4   19   17      7.28     -5.57
    4   19   19    -14.79     -5.25
    4   19   21     -2.31     -6.02
    4   19   23      5.13     -0.94
    4   19   25     -8.37    -13.25
    4   19   27     24.13    -13.43
    4   20    0     16.14      0.20
    4   20    2      9.40      4.45
    4   20    4     -2.80      7.95
    4   20    6    -14.36     11.08
    4   20    8     10.31     -6.34
    4   20   10    -18.61      2.57
    4   20   12    -14.22      3.96
    4   20   14     -1.31     -4.21
    4   20   16     -3.36     -1.32
    4   20   18      8.21      3.60
    4   20   20      9.31     -0.49
    4   20   22     -2.95     -3.66
    4   20   24      6.88     15.99
    4   20   26      8.17     -5.60
    4   20   28     -3.14      4.50
    4   21    1    -18.94      2.26
    4   21    3    -10.40      8.03
    4   21    5     -4.19      3.89
    4   21    7     -2.29    -10.38
    4   21    9      4.56      0.24
    4   21   11    -13.01     -4.31
    4   21   13      7.70      5.20
    4   21   15     -0.33      0.61
    4   21   17      8.54      2.07
    4   21   19     -6.60     -1.45
    4   21   21      0.51     -4.90
    4   21   23     -8.55     -0.35
    4   21   25     14.85     -6.12
    4   21   27     -3.95     28.76
    4   22    0      1.69     -1.07
    4   22    2    -23.07    -10.19
    4   22    4     -2.91     -7.41
    4   22    6     -3.73    -13.86
    4   22    8     -4.44     -2.96
    4   22   10      5.07     -3.17
    4   22   12      1.46     -8.86
    4   22   14     -1.50    -14.70
    4   22   16      6.54      0.78
    4   22   18     -1.51     -2.04
    4   22   20      0.38      3.32
    4   22   22    -14.29      7.63
    4   22   24      9.91     -2.16
    4   22   26     14.29     24.45
    4   23    1      2.35     12.77
    4   23    3     -7.93     -6.88
    4   23    5      9.45     -3.32
    4   23    7      6.36      4.05
    4   23    9      8.00      0.21
    4   23   11      4.39     16.89
    4   23   13     -3.33    -12.50
    4   23   15     -2.16      3.04
    4   23   17      3.35     -3.48
    4   23   19     -0.95      0.17
    4   23   21      6.54      1.28
    4   23   23      0.22      2.12
    4   23   25    -10.93     -4.45
    4   24    0    -13.90     -2.82
    4   24    2     11.50     -4.08
    4   24    4     -5.69     -2.82
    4   24    6      7.26    -18.77
    4   24    8      0.36      5.27
    4   24   10     -7.36     -0.86
    4   24   12      4.02     -6.74
    4   24   14      3.36      1.87
    4   24   16      6.27    -10.28
    4   24   18     -3.55      6.31
    4   24   20      2.33     -2.79
    4   24   22      5.96     -2.65
    4   24   24     -7.13     23.90
    4   24   26    -16.75    -10.30
    4   25    1      4.08     -7.48
    4   25    3     -6.21     11.24
    4   25    5    -12.05    -13.08
    4   25    7     -4.91      8.70
    4   25    9      9.64      8.35
    4   25   11     -8.32     10.39
    4   25   13      4.41     -8.54
    4   25   15      4.85     -0.22
    4   25   17      1.20      3.47
    4   25   19      3.89      6.63
    4   25   21     -9.60      4.09
    4   25   23     10.45     -3.16
    4   25   25     -2.35      0.15
    4   26    0     11.60     -0.37
    4   26    2      9.06     23.55
    4   26    4      2.22     -9.37
    4   26    6     11.13     -0.37
    4   26    8      3.24     -5.22
    4   26   10      2.55      2.98
    4   26   12     -2.17      6.10
    4   26   14     -8.17     -4.99
    4   26   16      3.51      2.42
    4   26   18      7.04      1.67
    4   26   20      2.70      8.72
    4   26   22     -2.64     -8.12
    4   26   24     -2.87     -5.37
    4   27    1      1.01      1.35
    4   27    3    -20.88      1.49
    4   27    5     -1.69      1.05
    4   27    7    -22.04      1.41
    4   27    9      5.61     -7.90
    4   27   11     10.18      0.81
    4   27   13    -12.90     -1.34
    4   27   15     -3.65    -10.54
    4   27   17     -5.07      1.36
    4   27   19     -5.12      6.45
    4   27   21     -5.21     -2.74
    4   27   23      1.69      4.88
    4   28    0     -1.98     -2.49
    4   28    2     -4.51     -3.60
    4   28    4     -8.08     -1.20
    4   28    6     -7.62      2.20
    4   28    8     -5.75      3.50
    4   28   10     10.38     12.86
    4   28   12      6.52      3.28
    4   28   14     -6.87      0.07
    4   28   16      2.61     -1.59
    4   28   18      4.75      1.80
    4   28   20      5.55     -0.37
    4   28   22      0.21      0.77
    4   29    1     -2.84     -1.16
    4   29    3     14.97     -7.55
    4   29    5     10.54      2.57
    4   29    7     -9.70    -11.75
    4   29    9      2.43     -4.46
    4   29   11      5.31      2.64
    4   29   13      3.26     -8.20
    4   29   15      2.43     -2.56
    4   29   17     -4.59      2.71
    4   29   19     -2.64      2.99
    4   29   21     -1.39     -2.27
    4   30    0      5.50     -1.62
    4   30    2      3.18      5.86
    4   30    4     -5.83      8.44
    4   30    6    -10.24      6.81
    4   30    8      8.34     -6.22
    4   30   10      2.56      5.47
    4   30   12      8.62      4.47
    4   30   14      5.18     10.81
    4   30   16     -4.23     -3.83
    4   30   18      3.66     -2.39
    4   30   20      1.64      6.59
    4   30   22     -0.27      5.12
    4   31    1      7.71     -6.47
    4   31    3     -4.68     -2.78
    4   31    5     -2.09     -4.64
    4   31    7     -6.44      9.51
    4   31    9     -7.61      7.65
    4   31   11     -4.85     19.22
    4   31   13      4.30     -5.72
    4   31   15      0.00     -6.93
    4   31   17     -2.09      3.75
    4   31   19     -5.88     19.14
    4   31   21      2.88     -2.09
    4   32    0     -6.00      2.00
    4   32    2     13.57      3.83
    4   32    4     13.50     -5.10
    4   32    6     15.43     -4.51
    4   32    8    -10.98      3.71
    4   32   10     -2.15     -2.22
    4   32   12    -11.05     -6.87
    4   32   14     -3.77     -0.79
    4   32   16     -4.16     -6.88
    4   32   18     10.72     -4.78
    4   32   20      7.41      1.06
    4   33    1     -8.97     -3.38
    4   33    3     -3.97      7.20
    4   33    5     -7.23      3.67
    4   33    7     -4.78     -1.44
    4   33    9      4.39     -2.95
    4   33   11      5.73      9.41
    4   33   13      0.42    -10.47
    4   33   15    -14.40      6.84
    4   33   17     -3.06     -4.22
    4   33   19      1.58     -1.76
    4   34    0     -5.65     -0.17
    4   34    2     -7.37     -5.05
    4   34    4      5.24     -6.47
    4   34    6    -15.10      1.31
    4   34    8     -7.31     -6.44
    4   34   10     10.85     -9.49
    4   34   12      8.80     11.05
    4   34   14      5.57    -10.48
    4   34   16     -7.78      0.17
    4   34   18     -2.06     -1.11
    4   35    1      5.89     -8.07
    4   35    3      5.29    -18.55
    4   35    5     11.11     -1.64
    4   35    7      9.68      5.86
    4   35    9     -6.01      0.11
    4   35   11     -1.24     -0.91
    4   35   13     -1.88     -8.61
    4   35   15      3.54      9.93
    4   36    0      2.50      0.70
    4   36    2     -3.86     -6.00
    4   36    4     17.43     -1.79
    4   36    6     -0.54     -2.97
    4   36    8      1.66     25.79
    4   36   10    -14.05     14.15
    4   36   12      7.86     16.71
    4   36   14     -9.16     12.08
    4   37    1     -1.01      4.12
    4   37    3     -0.71      0.56
    4   37    5      1.47      0.52
    4   37    7     -4.92     -6.56
    4   37    9      3.45      1.90
    4   37   11     -4.52    -25.46
    4   37   13     26.83    -16.02
    4   38    0    -13.00      0.80
    4   38    2     17.77      0.07
    4   38    4      9.08      3.70
    4   38    6     -0.56     -1.40
    4   38    8     -6.61      7.42
    4   38   10     -1.37      6.71
    4   38   12     -0.22     10.29
    4   39    1     -0.08     -2.95
    4   39    3     23.30    -13.17
    4   39    5      4.59     -4.83
    4   39    7      0.71     10.26
    4   39    9      3.05    -15.93
    4   40    0     -4.21      1.68
    4   40    2    -18.08    -16.31
    4   40    4     -7.20      9.69
    4   40    6     -1.23     -0.78
   -1    5    2    -54.81    -26.89
   -1    5    6     53.75     -0.68
   -1    5    8    -22.52    -20.14
   -1    5   10      8.19     -8.08
   -1    5   12      6.77      7.11
   -1    5   14     10.36     14.77
   -1    5   16     -7.44      2.95
   -1    5   18      1.31      1.40
   -1    5   20      1.89     -0.05
   -1    5   22     -6.56    -21.03
   -1    5   24      4.74     -2.20
   -1    5   26     15.89      6.22
   -2    5    1    113.06    145.16
   -2    5    3     15.56    -52.09
   -2    5    5    -73.87     -5.13
   -2    5    7    -32.85      8.44
   -2    5    9     17.69     31.37
   -2    5   11    -19.05      2.73
   -2    5   13     22.16    -21.73
   -2    5   15     -8.47    -10.97
   -2    5   17     -0.52     -1.51
   -2    5   19     -3.59      1.36
   -2    5   21      8.28      3.32
   -2    5   23      6.68     -2.36
   -2    5   25      2.41      0.52
   -2    5   27     13.62      9.42
   -3    5    0     30.76     -7.87
   -3    5    2    -62.95    -88.43
   -3    5    4     31.00     23.48
   -3    5    6     13.30    -50.18
   -3    5    8    -11.90    -26.86
   -3    5   10     42.45     19.71
   -3    5   12     -3.84     25.65
   -3    5   14    -13.13    -21.81
   -3    5   16      6.67     -1.71
   -3    5   18     -1.52     16.32
   -3    5   20     -7.58     -9.14
   -3    5   22      7.09      1.36
   -3    5   24      6.74     11.00
   -3    5   26     -7.47     -8.99
   -3    5   28     -4.84     33.24
   -4    5    1     27.42    -65.75
   -4    5    3    -72.04    -38.33
   -4    5    5      6.53    -20.18
   -4    5    7     17.54    -12.35
   -4    5    9     11.19      5.10
   -4    5   11    -11.18     -2.34
   -4    5   13    -13.52     -4.12
   -4    5   15     12.27     -1.26
   -4    5   17    -10.25      4.14
   -4    5   19    -14.32      4.06
   -4    5   21    -10.17      3.41
   -4    5   23     -4.43     -4.83
   -4    5   25     11.39     -9.59
   -4    5   27     -0.44      8.72
   -4    5   29      6.96      0.71
    5    5    0    -84.89     -1.59
    5    5    2     17.41     -2.41
    5    5    4     11.82     -8.69
    5    5    6    -38.89     26.18
    5    5    8      9.29    -20.06
    5    5   10    -11.43     11.03
    5    5   12     -1.06     -9.27
    5    5   14      9.84     15.34
    5    5   16     -4.96    -11.20
    5    5   18      2.33    -12.95
    5    5   20      1.08     -1.37
    5    5   22     -2.50     -4.76
    5    5   24     17.38     -3.95
    5    5   26      1.04     13.89
    5    5   28    -42.33    -24.78
    5    5   30     -4.53      4.53
    5    6    1     73.54     64.82
    5    6    3    -29.16     86.84
    5    6    5    -15.38    -95.28
    5    6    7     61.84      5.43
    5    6    9     -5.42     26.63
    5    6   11     11.74     -3.66
    5    6   13    -13.14     -2.88
    5    6   15     24.37      8.35
    5    6   17     12.97      8.97
    5    6   21      2.51      4.07
    5    6   23     -8.83     -3.31
    5    6   25      2.73     -5.61
    5    6   27     -2.40     -4.65
    5    6   29     17.89     -6.71
    5    6   31     21.82    -49.19
    5    7    2     -2.44     -5.33
    5    7    4     24.66      6.74
    5    7    6     -7.64     25.74
    5    7    8     30.85     16.57
    5    7   10    -36.12     20.58
    5    7   12     -9.34    -25.71
    5    7   20    -14.94     -5.67
    5    7   22      8.04     -1.42
    5    7   24      1.76     -1.59
    5    7   26     -1.61    -19.63
    5    7   28     -5.06    -10.66
    5    7   30     -7.27     13.35
    5    8    3      4.90     32.55
    5    8    5     -0.89     -9.74
    5    8    7    -44.39    -23.48
    5    8    9      0.64    -11.94
    5    8   11     -3.85     24.70
    5    8   13    -10.70    -24.22
    5    8   21      0.31     -2.13
    5    8   23      9.84     -8.45
    5    8   25    -11.52     -1.95
    5    8   27      8.31      8.46
    5    8   29      3.06     10.84
    5    8   31      6.90      0.40
    5    9    4     -5.69     -5.94
    5    9    6    -18.87    -35.60
    5    9    8     15.75     -1.20
    5    9   10     23.41     13.68
    5    9   12     -1.38      9.14
    5    9   14    -13.68      8.03
    5    9   20      7.10      2.92
    5    9   22     -3.75      2.48
    5    9   24      7.95     14.69
    5    9   26      6.97      8.68
    5    9   28      5.55      4.80
    5    9   30      8.85     12.20
    5   10    5      0.78     28.05
    5   10    7     24.72      4.20
    5   10    9     -1.48     -1.27
    5   10   11    -15.34     12.10
    5   10   13     11.46      3.39
    5   10   19      1.44     -1.92
    5   10   21      0.10     -5.08
    5   10   23      8.70      6.61
    5   10   25      0.20     -0.78
    5   10   27     -2.88    -16.22
    5   10   29     -0.81     -5.47
    5   10   31      2.61    -34.71
    5   11    6     -3.99    -35.18
    5   11    8     19.13     -1.54
    5   11   10      0.46      5.66
    5   11   12     -2.60    -21.33
    5   11   14      0.05     14.36
    5   11   20      7.88      0.90
    5   11   22     17.90     -3.74
    5   11   24      3.43      4.06
    5   11   26     -4.09     -6.07
    5   11   28      5.82     -1.58
    5   11   30    -29.28     20.85
    5   12    5     -0.89     -0.90
    5   12    7    -10.99    -16.83
    5   12    9     13.60     -7.62
    5   12   11      6.88      7.14
    5   12   13      6.16     10.79
    5   12   15     -5.42      0.15
    5   12   19     -4.86      8.94
    5   12   21     -1.96      7.38
    5   12   23     -8.38      7.14
    5   12   25      3.95    -16.59
    5   12   27      7.96      4.08
    5   12   29     -2.03      7.80
    5   12   31      2.26     21.68
    5   13    6      5.56     -3.93
    5   13    8     -7.46     -5.78
    5   13   10     11.26     -6.43
    5   13   12      1.79      3.96
    5   13   14      3.22    -17.61
    5   13   16      3.08     21.02
    5   13   18      1.84      1.52
    5   13   20     -0.18      5.58
    5   13   22     -5.30     -4.93
    5   13   24      6.98     21.26
    5   13   26      8.28     12.31
    5   13   28      8.30      7.66
    5   13   30     16.11      6.47
    5   14    7     25.99    -14.87
    5   14    9      3.29     18.76
    5   14   11    -22.81      7.03
    5   14   13      5.19     -0.57
    5   14   15     12.42     -3.51
    5   14   17      2.33      6.07
    5   14   19    -16.14     -0.84
    5   14   21     -3.44      8.03
    5   14   23      4.16     -8.71
    5   14   25     -2.00     -1.60
    5   14   27     -4.95      0.42
    5   14   29     -3.92      7.63
    5   15    8    -12.33     18.94
    5   15   10    -16.67     -4.58
    5   15   12      5.05     -3.53
    5   15   14      9.87      6.18
    5   15   16     -3.32     14.10
    5   15   18     -7.46     -2.36
    5   15   20     15.65     -9.03
    5   15   22     -6.87    -14.99
    5   15   24      4.48      0.92
    5   15   26      2.79     -6.47
    5   15   28      6.35      8.44
    5   15   30    -38.05    -15.69
    5   16    7     -7.26     -9.18
    5   16    9     -3.86      9.79
    5   16   11      7.67     -3.70
    5   16   13      3.83      5.77
    5   16   15    -14.41     -6.84
    5   16   17      5.65      5.09
    5   16   19     -1.42      9.48
    5   16   21     -1.08      3.98
    5   16   23     -0.84      3.09
    5   16   25     -0.88     -1.90
    5   16   27     13.00    -12.37
    5   16   29      0.99      0.71
    5   17    6      6.20      5.28
    5   17    8      3.65    -12.37
    5   17   10      7.08     -0.05
    5   17   12     -1.07     15.16
    5   17   14     -2.31    -11.57
    5   17   16     -5.27      4.73
    5   17   18     -2.73     -8.17
    5   17   20      4.18      2.22
    5   17   22      4.30     -3.27
    5   17   24     10.33     -8.16
    5   17   26     -9.26      0.61
    5   17   28     -4.86     -2.48
    5   18    5     10.24     10.91
    5   18    7     -5.48     -1.96
    5   18    9      0.03     15.44
    5   18   11    -16.52     -8.70
    5   18   13     11.32      3.35
    5   18   15      3.97     -1.24
    5   18   17     -6.42      4.58
    5   18   19     -6.20      0.87
    5   18   21     -0.18     -5.23
    5   18   23      1.07     -5.38
    5   18   25     15.55     -2.40
    5   18   27      3.44      5.49
    5   18   29     -4.18     -2.61
    5   19    4      1.67      3.18
    5   19    6      0.17     -2.60
    5   19    8    -10.30     -6.89
    5   19   10     -9.41    -16.67
    5   19   12      8.74      1.13
    5   19   14    -10.92     11.38
    5   19   16      1.36      3.62
    5   19   18     -2.81      6.25
    5   19   20     -9.79      0.53
    5   19   22     -3.81      2.06
    5   19   24     -2.49      2.11
    5   19   26      2.07      2.03
    5   19   28     -0.72     16.16
    5   20    1     -8.51     -6.90
    5   20    3    -11.82      6.63
    5   20    5     -1.70    -12.01
    5   20    7     -9.08      2.72
    5   20    9      1.96     -7.62
    5   20   11     12.65      2.75
    5   20   13      5.58      9.97
    5   20   15     -7.03      7.35
    5   20   17      1.10     -3.87
    5   20   19      0.83     -7.03
    5   20   21      9.78      2.11
    5   20   23      4.00      7.97
    5   20   25    -15.94    -10.62
    5   20   27     18.96     16.46
    5   21    0      1.70     -0.30
    5   21    2     12.23     -7.98
    5   21    4      6.85     -4.05
    5   21    6     -8.53     14.52
    5   21    8     -0.13     -3.87
    5   21   10     -8.81     -5.95
    5   21   12      5.81     -9.76
    5   21   14     -5.88     -0.86
    5   21   16     -2.18    -14.44
    5   21   18     -4.81     -1.37
    5   21   20      5.45      2.70
    5   21   22     10.89     -1.47
    5   21   24      6.76    -10.53
    5   21   26     -6.37     -0.07
    5   22    1     -8.19    -14.58
    5   22    3      0.01      4.55
    5   22    5    -10.23     -7.20
    5   22    7     -0.12      7.35
    5   22    9     -4.08    -12.19
    5   22   11     -5.94     -3.42
    5   22   13      8.35     -9.24
    5   22   15     -4.98      5.30
    5   22   17     -4.81     13.84
    5   22   19      2.32     -6.86
    5   22   21      5.55     -4.46
    5   22   23    -13.56      1.26
    5   22   25     18.22    -11.72
    5   22   27     -7.34      8.38
    5   23    0     13.08     -1.08
    5   23    2     -2.00      4.86
    5   23    4     -0.54     16.30
    5   23    6     -8.83     -6.00
    5   23    8     -0.53     -7.19
    5   23   10      2.14     -0.45
    5   23   12     -9.66      6.59
    5   23   14      2.46     -3.72
    5   23   16      3.71     -0.75
    5   23   18      2.68     -1.59
    5   23   20      5.46     11.46
    5   23   22     -2.72      1.38
    5   23   24      3.25      2.03
    5   23   26     10.17      6.67
    5   24    1     -0.61     -5.91
    5   24    3    -14.00     -0.39
    5   24    5      4.28      6.40
    5   24    7      2.70      0.84
    5   24    9      3.90      4.47
    5   24   11    -10.90      0.76
    5   24   13      2.36    -14.70
    5   24   15      5.23      7.26
    5   24   17      2.90     -3.20
    5   24   19     -5.64      3.22
    5   24   21     -2.66     -4.50
    5   24   23     19.06     -0.45
    5   24   25     -3.71     13.38
    5   25    0    -21.02     -0.93
    5   25    2     11.54     10.97
    5   25    4     -2.65     -9.96
    5   25    6     14.31      3.75
    5   25    8     -1.12      1.68
    5   25   10     -5.61    -12.49
    5   25   12      6.36      0.05
    5   25   14     -2.97      4.10
    5   25   16      1.29      2.22
    5   25   18     -7.67      5.80
    5   25   20      0.78     -1.42
    5   25   22      3.39     -0.42
    5   25   24    -12.53      7.86
    5   26    1      3.34     -5.00
    5   26    3    -15.38     -5.16
    5   26    5      7.72      0.17
    5   26    7    -18.76    -11.83
    5   26    9      3.53     -0.99
    5   26   11      4.94     13.21
    5   26   13    -13.44     -5.55
    5   26   15      5.22     -7.72
    5   26   17      0.61     -1.22
    5   26   19     -0.95     -4.80
    5   26   21      0.25      3.57
    5   26   23     29.12     -3.90
    5   26   25      3.51      1.69
    5   27    0      4.75     -0.95
    5   27    2     -9.44     10.01
    5   27    4     -5.49     -5.25
    5   27    6      8.53     -6.12
    5   27    8     11.76     -4.89
    5   27   10      8.39      4.49
    5   27   12     -7.86      5.71
    5   27   14     -3.91      7.53
    5   27   16     13.58      1.43
    5   27   18      5.90     14.13
    5   27   20      1.05      1.70
    5   27   22     -3.57     -1.50
    5   27   24     -5.63      8.58
    5   28    1     -2.26      6.50
    5   28    3      8.96     -0.60
    5   28    5      2.11      0.69
    5   28    7     -3.80     13.36
    5   28    9      8.23     -9.61
    5   28   11      6.53     14.98
    5   28   13      1.26      4.15
    5   28   15      3.99      5.90
    5   28   17      4.61      2.05
    5   28   19     -0.46     -3.33
    5   28   21    -17.59     -7.95
    5   28   23     -3.62     -2.92
    5   29    0     13.41      0.29
    5   29    2      0.07      9.32
    5   29    4      1.87      3.26
    5   29    6     13.98      9.17
    5   29    8     -2.83      4.41
    5   29   10     -4.79      1.50
    5   29   12     -5.21     -4.94
    5   29   14      7.41     -3.21
    5   29   16      2.27      0.47
    5   29   18     -0.16      3.01
    5   29   20     -6.36      2.27
    5   29   22      2.87      2.64
    5   30    1     -3.20      1.05
    5   30    3    -10.88     11.72
    5   30    5      2.78    -17.21
    5   30    7      6.61     -8.09
    5   30    9     -8.21      5.23
    5   30   11     -9.45     -1.58
    5   30   13     -5.15      1.38
    5   30   15      0.13      6.46
    5   30   17     -1.74      2.80
    5   30   19     -3.75      3.81
    5   30   21      6.06     -0.83
    5   31    0     -8.12      0.12
    5   31    2      3.13      5.48
    5   31    4      0.95     11.43
    5   31    6      2.59      7.40
    5   31    8     -0.22     -3.95
    5   31   10      4.85    -10.00
    5   31   12      0.02     -6.33
    5   31   14    -10.66     10.19
    5   31   16      2.77     -0.82
    5   31   18      1.11    -12.42
    5   31   20      3.28     -1.58
    5   32    1     -3.10     -4.30
    5   32    3     -3.25     -7.15
    5   32    5     -9.13      0.83
    5   32    7     -7.00      5.99
    5   32    9      4.64     -0.36
    5   32   11     -1.88     -7.80
    5   32   13      7.55     -3.38
    5   32   15     -5.81      4.75
    5   32   17      0.94     -4.29
    5   32   19     -1.51     -1.39
    5   33    0      1.53     -0.91
    5   33    2     -0.14      1.03
    5   33    4     13.56     -6.11
    5   33    6      1.31      2.93
    5   33    8      0.69      1.12
    5   33   10     -1.43      2.96
    5   33   12      0.06     -0.81
    5   33   14      3.07      0.48
    5   33   16     -4.75      8.26
    5   33   18     -3.86      2.92
    5   34    1     -1.56      2.19
    5   34    3      3.48      7.51
    5   34    5    -10.27      4.92
    5   34    7      1.57    -11.98
    5   34    9     12.85     -2.93
    5   34   11      0.14      8.01
    5   34   13    -14.43     10.30
    5   34   15     -2.59     10.45
    5   34   17      4.82     -4.55
    5   35    0     -2.35      0.20
    5   35    2     -1.49     -3.27
    5   35    4      8.05      5.38
    5   35    6     -0.82      4.57
    5   35    8     -0.68     -0.40
    5   35   10     13.75     -0.40
    5   35   12      8.00      9.15
    5   35   14     -0.90      0.64
    5   35   16      7.00      3.74
    5   36    1     -9.05      0.55
    5   36    3      2.27      4.07
    5   36    5     17.40     -3.89
    5   36    7      2.16     -5.69
    5   36    9      8.75     -9.97
    5   36   11      1.83     -4.70
    5   36   13      5.32    -16.30
    5   36   15     -6.02    -16.03
    5   37    0     -7.35     -2.08
    5   37    2     17.36    -12.09
    5   37    4      8.66      0.70
    5   37    6    -13.09      3.64
    5   37    8     -2.48      6.47
    5   37   10    -21.48     17.80
    5   37   12    -18.14     14.81
    5   38    1      0.43    -17.65
    5   38    3     -3.53     15.47
    5   38    5      2.43      0.06
    5   38    7      0.83     -3.46
    5   38    9     19.94     -9.76
    5   38   11      4.95    -23.28
    5   39    0    -14.57     11.31
    5   39    2      0.44      0.63
    5   39    4    -16.56     10.44
    5   39    6      1.09     -5.40
    5   39    8     -1.63      1.17
    5   40    1     -1.79      5.15
    5   40    3      7.52    -16.64
    5   40    5      8.23      1.02
   -1    6    1   -191.19    -96.58
   -1    6    3    122.04    -69.55
   -1    6    5     43.43     19.56
   -1    6    7    -28.54    -45.88
   -1    6    9     17.71    -22.26
   -1    6   11     30.29     11.12
   -1    6   13      8.68     -6.06
   -1    6   15      6.34      5.68
   -1    6   17      9.08      8.93
   -1    6   19     -3.59      0.35
   -1    6   21      3.40      9.25
   -1    6   23     -9.49     -5.62
   -1    6   25     -2.00      3.22
   -1    6   27    -20.50     -0.78
   -2    6    0    -61.81     -4.24
   -2    6    2    -97.96    -39.28
   -2    6    4     42.60    -41.80
   -2    6    6    -11.12     19.08
   -2    6    8    -27.41     -6.23
   -2    6   10     21.69    -20.56
   -2    6   12     -4.75    -17.39
   -2    6   14     -5.61     14.14
   -2    6   16    -13.04      3.43
   -2    6   18      0.02    -12.54
   -2    6   20    -13.54    -14.06
   -2    6   22     -6.88    -19.99
   -2    6   24      4.38      5.36
   -2    6   26     -7.45     14.42
   -2    6   28     13.82     21.72
   -3    6    1    101.84    113.88
   -3    6    3    -22.54     -0.01
   -3    6    5    -14.31    -38.63
   -3    6    7     25.49    -16.81
   -3    6    9    -36.22    -14.57
   -3    6   11      1.14      5.61
   -3    6   13      7.54     -3.40
   -3    6   15     17.08     -5.53
   -3    6   17    -13.96     14.41
   -3    6   19     12.32      8.13
   -3    6   21      7.19     -0.53
   -3    6   23     -0.15      3.09
   -3    6   25     10.12      8.37
   -3    6   27      0.64      1.09
   -4    6    0     17.76      0.92
   -4    6    2     33.53    -54.20
   -4    6    4     -4.20     42.34
   -4    6    6     35.51     14.40
   -4    6    8     45.69     31.21
   -4    6   10    -14.22    -12.02
   -4    6   12     -8.58     -1.61
   -4    6   14     -9.30      9.62
   -4    6   16     -0.54     11.77
   -4    6   18      2.03     -8.56
   -4    6   20      7.65     -3.95
   -4    6   22     -0.74      3.33
   -4    6   24     13.27    -16.31
   -4    6   26      6.10     12.83
   -4    6   28    -22.06    -15.88
   -4    6   30     -0.45     -5.07
   -5    6    1    -91.85    -84.26
   -5    6    3     84.13    -11.93
   -5    6    5     63.65    119.18
   -5    6    7    -51.48     46.98
   -5    6    9     -5.29    -13.75
   -5    6   11     -5.52    -12.81
   -5    6   13    -11.28     23.22
   -5    6   15      5.23      3.95
   -5    6   17      4.28     -0.97
   -5    6   19     -2.37      2.44
   -5    6   23     -5.55      1.27
   -5    6   25      7.50    -10.39
   -5    6   27     -3.09      0.96
   -5    6   29      3.12      5.98
   -5    6   31      0.04     -7.23
    6    6    0    114.60      2.33
    6    6    2     26.22     -7.68
    6    6    4    -40.39     -0.92
    6    6    6    -17.77    -26.41
    6    6    8     -4.33    -10.18
    6    6   10    -38.93     26.36
    6    6   12      1.57    -12.28
    6    6   14     -3.40     16.49
    6    6   16      6.33    -17.67
    6    6   18     -5.67      1.52
    6    6   22     -5.73     -4.84
    6    6   24      6.17      4.92
    6    6   26     -3.67      2.19
    6    6   28     -0.57      5.24
    6    6   30      5.15     27.09
    6    7    1      3.17      9.95
    6    7    3    -37.67      9.68
    6    7    5     28.10    -32.71
    6    7    7     25.95     29.13
    6    7    9     -6.83     10.64
    6    7   11      0.38     -6.68
    6    7   13      2.59    -15.10
    6    7   15     -4.35      4.31
    6    7   21      5.61      7.83
    6    7   23      0.21      2.70
    6    7   25     -4.58      2.34
    6    7   27     -5.27     12.39
    6    7   29    -16.79     -4.23
    6    7   31     30.15    -44.56
    6    8    2     -7.62     36.48
    6    8    4     51.79     -8.35
    6    8    6     -4.53     28.38
    6    8    8      8.75     -0.06
    6    8   10    -10.41     10.95
    6    8   12     19.88    -21.20
    6    8   22      3.13     -6.69
    6    8   24     -5.89     11.16
    6    8   26     16.18      1.48
    6    8   28      1.77    -16.54
    6    8   30     -0.06    -12.79
    6    9    3     -4.51     -5.06
    6    9    5      4.50    -22.40
    6    9    7    -10.33     14.89
    6    9    9    -11.40    -33.31
    6    9   11     23.45     13.27
    6    9   13     -8.22     -1.22
    6    9   21     -0.81     11.21
    6    9   23     -2.85     -3.27
    6    9   25     -0.79     -4.80
    6    9   27     -1.16     -3.26
    6    9   29    -29.71     -2.12
    6    9   31      0.53     -6.52
    6   10    4    -26.99     36.15
    6   10    6     -5.01    -26.29
    6   10    8     20.56    -24.30
    6   10   10     -1.40      1.03
    6   10   12    -12.84      9.48
    6   10   14     -8.61     -5.12
    6   10   22     -6.17      5.50
    6   10   24      9.21      0.71
    6   10   26     -0.93      5.22
    6   10   28     13.83     25.29
    6   10   30      1.59     17.97
    6   11    5    -12.68      3.84
    6   11    7      5.08     16.43
    6   11    9      9.49     -2.13
    6   11   11      3.63     -2.14
    6   11   13      6.26      3.67
    6   11   15     18.68      9.16
    6   11   21     -4.84     -0.54
    6   11   23     -2.45     -2.18
    6   11   25     11.47      2.81
    6   11   27     -1.62     -2.24
    6   11   29      0.75     -1.57
    6   11   31     27.73      5.28
    6   12    4     -5.90     -1.16
    6   12    6     11.17    -23.08
    6   12    8     -6.54      1.06
    6   12   10     20.25    -13.80
    6   12   12      5.85      8.83
    6   12   14      7.11     -3.40
    6   12   16     -1.53     15.24
    6   12   20     14.73      4.90
    6   12   22     10.58      2.64
    6   12   24     -3.26     -4.68
    6   12   26     -2.15      3.12
    6   12   28     -3.24    -14.39
    6   12   30     -0.21      1.30
    6   13    5     15.02     21.11
    6   13    7     -4.31      6.42
    6   13    9    -24.07     25.56
    6   13   11    -13.59     -3.44
    6   13   13     -9.83      4.68
    6   13   15    -13.38      3.19
    6   13   19    -10.63      5.70
    6   13   21      1.11      5.91
    6   13   23      8.22      7.94
    6   13   25     -1.85     -2.06
    6   13   27      1.28      4.24
    6   13   29     -2.84     -1.59
    6   14    6     -9.77    -27.98
    6   14    8     15.21      2.22
    6   14   10     24.67      6.70
    6   14   12     -0.58      1.77
    6   14   14     -1.01     -5.68
    6   14   16     -0.53     -2.04
    6   14   20      9.40      6.78
    6   14   22     -5.97    -13.02
    6   14   24      9.86     13.09
    6   14   26      5.05     -0.10
    6   14   28     11.49     16.10
    6   14   30    -14.42     -1.88
    6   15    7     28.84    -17.05
    6   15    9     18.99     12.13
    6   15   11     -7.62    -19.54
    6   15   13     12.71     -1.84
    6   15   15      5.14     -2.07
    6   15   17      7.10     -6.26
    6   15   19    -12.35     -0.67
    6   15   21      3.91      0.20
    6   15   23      7.77     -9.69
    6   15   25     -1.66     -1.20
    6   15   27      5.42     -6.12
    6   15   29    -14.49     -4.50
    6   16    6     13.63     20.56
    6   16    8      7.36     13.01
    6   16   10     -5.78      5.70
    6   16   12     -7.28      6.18
    6   16   14     -3.39      6.83
    6   16   16     -4.47      7.47
    6   16   18     -0.21     -7.53
    6   16   20     -4.23      2.01
    6   16   22      0.79      0.66
    6   16   24      5.68      3.42
    6   16   26      2.67      2.04
    6   16   28      7.68      3.47
    6   17    7      5.32    -10.48
    6   17    9     -4.75     -4.28
    6   17   11    -13.22     -2.70
    6   17   13     -1.82     -2.49
    6   17   15      2.02      1.61
    6   17   17      0.86     -2.63
    6   17   19     -5.64      0.59
    6   17   21     -2.30     -0.78
    6   17   23     -4.42     19.36
    6   17   25     -1.94     -0.57
    6   17   27     -3.41     -2.85
    6   17   29      5.73     12.47
    6   18    6     -1.68      3.77
    6   18    8     -3.01      2.50
    6   18   10      3.70     12.55
    6   18   12      6.24      5.51
    6   18   14      0.68     10.72
    6   18   16     -2.98     -2.60
    6   18   18     -2.82    -11.71
    6   18   20      8.34      3.10
    6   18   22      7.17     -0.13
    6   18   24     -3.64     -3.44
    6   18   26      0.61      4.11
    6   18   28     -1.33     -3.52
    6   19    5      1.79      7.58
    6   19    7     14.92     13.80
    6   19    9     -0.17     -3.75
    6   19   11    -11.94     -1.02
    6   19   13     16.06      5.55
    6   19   15     -2.61     -4.80
    6   19   17      4.98      3.54
    6   19   19      0.74      5.16
    6   19   21     -3.14      1.15
    6   19   23     -1.04     -0.33
    6   19   25      3.07     -6.45
    6   19   27     12.39     11.73
    6   20    4     -2.52     -9.82
    6   20    6      2.89     -1.77
    6   20    8    -21.35     11.54
    6   20   10      6.54    -15.79
    6   20   12     16.52    -17.30
    6   20   14     -9.66     -5.71
    6   20   16     -5.19     -9.92
    6   20   18     -7.33     -0.17
    6   20   20     -8.40     -0.31
    6   20   22     -7.94     -3.25
    6   20   24      2.62      1.46
    6   20   26      6.39     -4.30
    6   20   28     -1.11     -5.28
    6   21    3     10.65      5.80
    6   21    5      1.97     14.40
    6   21    7    -15.81     -4.65
    6   21    9    -15.12    -10.14
    6   21   11    -12.72    -10.23
    6   21   13      1.01     -2.50
    6   21   15      3.12      9.22
    6   21   17     -1.89     -8.12
    6   21   19      4.67     -2.78
    6   21   21      5.13     -0.22
    6   21   23      2.43      1.93
    6   21   25      0.92     -3.89
    6   21   27     -3.75      5.98
    6   22    2     -5.10     -0.75
    6   22    4     -5.85     -1.28
    6   22    6     -6.62     12.45
    6   22    8      4.91      1.07
    6   22   10     -7.43     -2.34
    6   22   12     18.68     -9.36
    6   22   14      3.60      4.16
    6   22   16      1.76      8.35
    6   22   18     -2.22      0.08
    6   22   20      1.73     -2.90
    6   22   22     -4.79      2.77
    6   22   24      1.85     -4.25
    6   22   26      8.81      4.37
    6   23    1     -6.13    -12.81
    6   23    3     -2.60     -9.72
    6   23    5      3.82     -3.07
    6   23    7    -13.65      9.14
    6   23    9     -6.46    -15.87
    6   23   11      2.68     -1.16
    6   23   13     -1.62      5.40
    6   23   15      8.62      2.36
    6   23   17    -12.15     -3.84
    6   23   19      5.09      0.75
    6   23   21      0.62      1.58
    6   23   23      5.04     -5.04
    6   23   25      4.97      8.81
    6   24    0    -10.88     -0.32
    6   24    2     -3.97     -3.29
    6   24    4     17.31     -3.48
    6   24    6    -13.67     12.98
    6   24    8     -1.29      3.60
    6   24   10     -4.02     -0.88
    6   24   12     -0.90      7.38
    6   24   14     -5.56    -10.84
    6   24   16     -5.93     -2.30
    6   24   18      3.40     -1.66
    6   24   20     -3.76     -3.45
    6   24   22     10.42     -0.46
    6   24   24     -0.96      5.99
    6   24   26      0.82      0.67
    6   25    1     -0.63    -20.19
    6   25    3    -12.08      0.51
    6   25    5      4.61     -1.89
    6   25    7     -2.80    -19.64
    6   25    9      1.58     -1.34
    6   25   11     20.62      4.68
    6   25   13     -0.05     -5.48
    6   25   15     -2.80      4.41
    6   25   17      5.43      2.45
    6   25   19      0.48     -2.83
    6   25   21      3.38     -4.10
    6   25   23      0.36      3.87
    6   25   25      7.37     16.71
    6   26    0      8.19      0.36
    6   26    2     15.96     13.61
    6   26    4     -5.56      7.96
    6   26    6      1.96      9.79
    6   26    8      7.05     11.42
    6   26   10      9.14     -5.05
    6   26   12     -5.19      2.54
    6   26   14      3.47     -0.53
    6   26   16     10.91      3.10
    6   26   18     -2.45     19.42
    6   26   20     -3.14      0.05
    6   26   22     -5.02      1.31
    6   26   24     -3.88      3.83
    6   27    1      6.56     12.07
    6   27    3     -4.28     -3.17
    6   27    5      0.27      6.42
    6   27    7     -6.98     -3.07
    6   27    9      0.17      4.48
    6   27   11      3.13     12.97
    6   27   13     -1.04      3.73
    6   27   15     -2.13     -3.94
    6   27   17     -3.12     -8.61
    6   27   19     -1.81     -3.34
    6   27   21      0.67     -5.36
    6   27   23     14.68     -4.88
    6   28    0     -2.16     -0.30
    6   28    2      0.59     -2.76
    6   28    4      7.53      3.41
    6   28    6      4.79     -7.98
    6   28    8     -9.02      1.02
    6   28   10     -7.24     -2.23
    6   28   12      7.75     -8.02
    6   28   14      7.05      1.27
    6   28   16     -9.66     -7.65
    6   28   18     -5.33      2.82
    6   28   20      2.61     14.22
    6   28   22      6.08      2.63
    6   29    1     -3.08     -0.76
    6   29    3     -1.96      3.70
    6   29    5     -2.80     -4.78
    6   29    7     -0.28      7.74
    6   29    9     -5.86      2.01
    6   29   11      4.56     -2.83
    6   29   13     -4.02      4.58
    6   29   15    -12.11     18.47
    6   29   17    -14.74      6.66
    6   29   19      9.47     -1.57
    6   29   21      1.67     -4.98
    6   30    0     -3.06     -1.23
    6   30    2     -2.27     -4.06
    6   30    4     -2.26     -2.00
    6   30    6     -2.11     -2.31
    6   30    8     -0.46      6.37
    6   30   10      2.33      5.83
    6   30   12     -1.84     -7.30
    6   30   14      4.08     -9.99
    6   30   16      3.82      0.09
    6   30   18      2.96     -4.24
    6   30   20     -0.72      0.74
    6   31    1     -4.97    -10.54
    6   31    3      8.70     -9.58
    6   31    5      0.94     -5.03
    6   31    7      2.95     -2.09
    6   31    9     -2.44      4.60
    6   31   11      6.45      5.07
    6   31   13     14.77      0.12
    6   31   15     -3.32      0.41
    6   31   17     -5.16      3.65
    6   31   19     -3.45      5.26
    6   32    0     12.69     -1.92
    6   32    2     -4.08      3.46
    6   32    4     -0.36      4.42
    6   32    6     -3.30     12.28
    6   32    8      0.49      8.80
    6   32   10      3.36      4.32
    6   32   12      3.71      1.49
    6   32   14     -8.28      5.28
    6   32   16      0.09      6.44
    6   32   18     -3.36     -6.32
    6   32   20      2.63     -1.58
    6   33    1     -2.63     -6.11
    6   33    3      7.95    -10.16
    6   33    5      2.88      0.26
    6   33    7      4.67      2.77
    6   33    9      0.87     -1.48
    6   33   11      0.16     -5.41
    6   33   13     15.71      6.98
    6   33   15      4.01      0.44
    6   33   17     -9.70     -6.02
    6   34    0     18.15     -1.55
    6   34    2      0.66     -1.21
    6   34    4     13.55      3.84
    6   34    6      4.46    -11.97
    6   34    8      0.60     -3.71
    6   34   10     -7.08     19.23
    6   34   12     -4.43     -3.29
    6   34   14      5.18      0.43
    6   34   16     -2.00      7.68
    6   35    1     -2.23     -0.24
    6   35    3     -5.22     -2.01
    6   35    5     -6.08      1.22
    6   35    7     -8.00    -10.81
    6   35    9     11.01    -11.78
    6   35   11     -3.61      3.98
    6   35   13     -7.91     -3.28
    6   35   15    -11.58      1.14
    6   36    0     -3.88      1.83
    6   36    2      8.05     -4.20
    6   36    4      0.88     -4.80
    6   36    6     -5.25      1.77
    6   36    8      0.25     -2.97
    6   36   10      1.45     -3.12
    6   36   12     -2.16     -5.21
    6   36   14      7.24    -10.82
    6   37    1      3.93      0.91
    6   37    3    -10.72     20.29
    6   37    5     -0.49      0.41
    6   37    7      1.65      8.19
    6   37    9     18.75      0.16
    6   37   11     13.20      4.21
    6   37   13      1.09      5.79
    6   38    0     -7.29     -0.11
    6   38    2     21.64    -14.13
    6   38    4    -13.17      7.26
    6   38    6     -5.68    -15.83
    6   38    8     -7.70     -4.48
    6   38   10    -22.98      5.51
    6   39    1      0.65    -12.45
    6   39    3      6.86      6.60
    6   39    5      0.38     -4.96
    6   39    7     -2.48     -2.65
    6   39    9     17.16      2.62
    6   40    0     -7.82      1.18
    6   40    2     -9.11      7.25
    6   40    4     -0.78      4.07
    6   40    6     -1.86      6.49
   -1    7    0     23.66     -8.31
   -1    7    2      9.85     51.26
   -1    7    4   -106.07     41.03
   -1    7    6     42.10    -90.37
   -1    7    8      8.89      3.72
   -1    7   10    -13.88    -24.60
   -1    7   12     -1.51     10.04
   -1    7   14      6.08     -8.34
   -1    7   16    -12.05      5.09
   -1    7   18      7.67      8.11
   -1    7   20      0.46     -4.04
   -1    7   22     -6.78      6.60
   -1    7   24      8.46    -10.58
   -1    7   26     -7.19      4.60
   -1    7   28     20.38      0.53
   -2    7    1     44.32    -45.11
   -2    7    3     -9.93    -85.31
   -2    7    5     18.14     36.48
   -2    7    7      1.46     13.30
   -2    7    9     43.63     10.30
   -2    7   11    -17.49      1.96
   -2    7   13    -20.32     18.32
   -2    7   15     16.67     -0.41
   -2    7   17      7.02      3.21
   -2    7   19     20.43      9.51
   -2    7   21     -4.14     13.23
   -2    7   23      1.78     -4.30
   -2    7   25     11.75    -10.07
   -2    7   27    -14.51     -9.99
   -2    7   29    -17.32     10.87
   -3    7    0     68.00     12.95
   -3    7    2     27.42     50.04
   -3    7    4     -5.50     27.11
   -3    7    6    -32.37     22.82
   -3    7    8     -5.79     -0.08
   -3    7   10    -11.26     20.36
   -3    7   12     -4.23     -3.81
   -3    7   14    -23.49     -0.91
   -3    7   16     -2.92     -0.70
   -3    7   18     -8.63      0.55
   -3    7   20    -13.52     -2.46
   -3    7   22      1.64    -25.62
   -3    7   24      0.41      0.61
   -3    7   26     11.06     -0.31
   -3    7   28      1.72     10.39
   -3    7   30      4.50      9.93
   -4    7    1    -23.89    -37.92
   -4    7    3     56.47    -57.19
   -4    7    5    -10.80     20.28
   -4    7    7    -22.52     11.97
   -4    7    9     -5.93      0.67
   -4    7   11     15.30     -2.94
   -4    7   13     -2.52      5.18
   -4    7   15     13.86      4.09
   -4    7   17     -4.43     10.80
   -4    7   19      7.03      8.83
   -4    7   21     18.14    -15.95
   -4    7   23      7.06      2.32
   -4    7   25     -7.71      2.48
   -4    7   27     -8.96      2.88
   -4    7   29      6.17     -2.92
   -4    7   31      3.16     -1.65
   -5    7    0     63.24     -3.22
   -5    7    2      5.77     20.22
   -5    7    4     18.81     38.08
   -5    7    6     -6.69      2.89
   -5    7    8     21.86     -5.60
   -5    7   10     -5.24     41.09
   -5    7   12     10.36     -6.13
   -5    7   14    -22.41      7.82
   -5    7   16    -16.24     -3.15
   -5    7   18     -1.42      0.02
   -5    7   20      0.04     -9.96
   -5    7   24      8.56     -3.81
   -5    7   26     -3.08      9.53
   -5    7   28      1.51     -7.41
   -5    7   30     11.51      5.00
   -6    7    1     -9.11    -28.56
   -6    7    3     -6.88    -20.63
   -6    7    5     30.24    -16.94
   -6    7    7     15.56     52.29
   -6    7    9    -10.57    -10.88
   -6    7   11      8.50    -11.49
   -6    7   13      7.24      1.30
   -6    7   15      2.51    -12.98
   -6    7   17      0.11     -3.08
   -6    7   19     -2.30     15.54
   -6    7   23      6.63      2.77
   -6    7   25    -11.59      2.53
   -6    7   27     -8.15      6.09
   -6    7   29    -22.70      4.75
   -6    7   31      8.86    -32.38
    7    7    0     -8.72     -2.29
    7    7    2     12.25    -54.04
    7    7    4     17.52      7.68
    7    7    6    -16.44      3.96
    7    7    8     -1.29      1.84
    7    7   10     -0.23    -14.03
    7    7   12     -3.82      3.87
    7    7   14     -0.09      5.11
    7    7   16     13.69     -6.37
    7    7   22      1.48      8.28
    7    7   24      2.46     -1.67
    7    7   26     10.15     -4.31
    7    7   28     -0.49     -4.91
    7    7   30     -3.19     -1.81
    7    8    1     -1.03    -52.54
    7    8    3     54.64     -2.15
    7    8    5     36.41     34.34
    7    8    7    -24.00     41.51
    7    8    9    -33.24     -6.95
    7    8   11      2.86     -3.00
    7    8   23      5.95     -2.23
    7    8   25      6.79      0.48
    7    8   27     -7.10      7.73
    7    8   29    -21.16      1.02
    7    8   31     17.87     -5.39
    7    9    2     14.75      9.54
    7    9    4     -8.95     16.68
    7    9    6     -7.06      1.69
    7    9    8     16.67    -14.31
    7    9   10     21.02      4.29
    7    9   12     -5.68     -0.29
    7    9   22     -7.33      7.01
    7    9   24      8.67     -7.44
    7    9   26      0.34     -4.54
    7    9   28     -4.06      8.45
    7    9   30      6.91      8.58
    7   10    1    -10.94    -17.27
    7   10    3     -0.95     12.75
    7   10    5     22.52    -35.30
    7   10    7     13.37     16.17
    7   10    9    -22.62      8.21
    7   10   11     -1.78    -15.19
    7   10   13      8.26     -4.91
    7   10   23      2.48     -8.01
    7   10   25      0.11     11.37
    7   10   27     -0.32      1.87
    7   10   29     -6.25    -10.24
    7   10   31     26.24     -6.13
    7   11    2    -20.71    -26.86
    7   11    4     34.24     -8.58
    7   11    6     -8.68     10.77
    7   11    8     -4.55      2.79
    7   11   10    -19.22      2.34
    7   11   12      6.94     -9.03
    7   11   14     -6.51      5.14
    7   11   22     -1.40      1.30
    7   11   24      2.15      1.13
    7   11   26      9.71      7.79
    7   11   28      1.88      0.62
    7   11   30     -5.46      3.93
    7   12    3    -10.49      3.90
    7   12    5      3.82     36.79
    7   12    7    -16.44    -18.41
    7   12    9      1.17    -22.69
    7   12   11     28.50      2.77
    7   12   13      7.03     22.68
    7   12   15     -4.00      7.37
    7   12   21      5.79     -2.11
    7   12   23     -4.77     18.74
    7   12   25      0.09      1.40
    7   12   27     -8.35     -0.55
    7   12   29      2.69      5.62
    7   13    4     21.21    -11.49
    7   13    6     -5.12      1.89
    7   13    8      8.37     -1.39
    7   13   10     15.33     -6.61
    7   13   12     11.14     11.79
    7   13   14     -0.38     -5.81
    7   13   16      0.35      5.42
    7   13   22      1.92     -7.46
    7   13   24      0.44     -3.05
    7   13   26      0.13      3.31
    7   13   28     -2.98     -3.37
    7   13   30     -0.95      1.11
    7   14    5      0.82     -9.97
    7   14    7     20.72    -16.63
    7   14    9    -17.28     20.43
    7   14   11    -11.44    -16.66
    7   14   13     12.09     -2.12
    7   14   15     -5.15      6.22
    7   14   17      2.94     -1.07
    7   14   21      7.91     -1.19
    7   14   23      9.66      2.54
    7   14   25      4.47      1.78
    7   14   27      0.03    -10.32
    7   14   29     -1.40     -3.18
    7   15    4    -10.13    -14.86
    7   15    6     25.54    -28.11
    7   15    8     -6.37     12.16
    7   15   10     -7.62      5.71
    7   15   12      3.51      7.30
    7   15   14    -10.14      6.30
    7   15   16    -10.18      4.95
    7   15   20      3.48    -10.40
    7   15   22      0.94      0.97
    7   15   24      6.74      5.82
    7   15   26      0.41     -0.93
    7   15   28      7.71      4.94
    7   16    5     -8.60     13.85
    7   16    7      4.19     -7.41
    7   16    9      3.74     -1.17
    7   16   11      2.27     12.68
    7   16   13     -9.80     -1.19
    7   16   15     -5.95     -8.96
    7   16   17     -4.15     -5.08
    7   16   19     -2.63      5.56
    7   16   21      7.50      0.68
    7   16   23      0.92      5.85
    7   16   25      0.64     -2.28
    7   16   27      1.52      1.31
    7   16   29    -13.45     17.95
    7   17    6      5.35      3.25
    7   17    8      9.27      5.68
    7   17   10      6.81     -0.94
    7   17   12     -8.42      9.85
    7   17   14     14.38     13.40
    7   17   16      7.35      2.04
    7   17   18      2.50      1.23
    7   17   20     -4.56      1.64
    7   17   22     -6.31      4.84
    7   17   24      3.40      6.08
    7   17   26     -1.40      2.68
    7   17   28      4.21     -1.45
    7   18    5      7.86      3.20
    7   18    7     13.96      7.05
    7   18    9    -12.77      3.43
    7   18   11     -8.85      6.01
    7   18   13     -4.19    -17.78
    7   18   15    -16.04     -9.28
    7   18   17     10.38     -4.28
    7   18   19      7.08      5.57
    7   18   21    -12.34     -3.14
    7   18   23      0.05     -6.18
    7   18   25     -0.71      2.45
    7   18   27    -10.31     13.37
    7   19    6     -7.30     -4.09
    7   19    8      1.47     -2.22
    7   19   10     -2.65     15.59
    7   19   12      5.25    -18.29
    7   19   14     -4.71     -5.55
    7   19   16     -3.11     -3.43
    7   19   18     -2.58     11.89
    7   19   20      6.45      0.68
    7   19   22     19.80     -4.26
    7   19   24      0.15     -4.78
    7   19   26      5.98    -16.33
    7   19   28     -0.23     -2.61
    7   20    7      3.79      0.31
    7   20    9      2.76    -13.07
    7   20   11     -1.23      2.51
    7   20   13      5.65      1.10
    7   20   15     -0.30      4.79
    7   20   17      1.77      3.55
    7   20   19      6.64      9.62
    7   20   21     -3.93     -3.96
    7   20   23      1.85      4.63
    7   20   25      7.31     -2.74
    7   20   27     -0.71     -3.47
    7   21    6      1.01      5.93
    7   21    8     -6.26     -3.56
    7   21   10    -14.11     -4.31
    7   21   12      3.01      9.98
    7   21   14     12.85      3.09
    7   21   16     -1.43     -3.46
    7   21   18     -2.35    -10.79
    7   21   20     -8.73     -2.23
    7   21   22     -5.18     -3.63
    7   21   24      2.48      3.68
    7   21   26      6.78     -0.06
    7   22    5      4.91      0.65
    7   22    7      7.54      6.91
    7   22    9    -15.58      6.40
    7   22   11     -3.18    -14.82
    7   22   13    -13.45    -14.89
    7   22   15      0.66     -3.89
    7   22   17      4.99      2.41
    7   22   19      0.29      0.00
    7   22   21      1.10     -2.48
    7   22   23      1.49      2.43
    7   22   25     -3.05      1.19
    7   22   27    -10.37     26.28
    7   23    2     -0.98     10.28
    7   23    4      3.91     -2.05
    7   23    6     15.50     -9.14
    7   23    8      1.42     15.17
    7   23   10      2.59     -4.33
    7   23   12      8.00     -1.92
    7   23   14     -4.15     -2.39
    7   23   16      5.37      0.34
    7   23   18     -4.73      1.71
    7   23   20     -0.45      7.10
    7   23   22      1.38      6.14
    7   23   24      0.19    -14.31
    7   23   26     10.24     -4.06
    7   24    1     13.84      5.52
    7   24    3     -3.09     -3.07
    7   24    5      6.93      5.88
    7   24    7      2.44     -3.37
    7   24    9     -0.60     -1.89
    7   24   11     10.96      4.46
    7   24   13      1.55      8.19
    7   24   15      7.12      8.13
    7   24   17     -2.30     -3.58
    7   24   19      5.49     -6.08
    7   24   21      6.16      4.78
    7   24   23     -1.74      6.92
    7   24   25    -14.66      0.58
    7   25    0      0.97      0.04
    7   25    2      6.27     13.63
    7   25    4     -2.66      7.58
    7   25    6    -19.51     -4.29
    7   25    8     10.48     -1.14
    7   25   10    -15.71     -2.51
    7   25   12    -10.77     -1.45
    7   25   14     -0.57     -5.24
    7   25   16     -2.85      0.10
    7   25   18      2.38      5.47
    7   25   20      0.19     -7.47
    7   25   22      6.14     -1.08
    7   25   24      7.32     -2.43
    7   26    1     -0.25     -3.31
    7   26    3     -7.76      9.78
    7   26    5      0.65      2.53
    7   26    7     -2.01      2.11
    7   26    9     -8.05     -2.35
    7   26   11      2.34      0.25
    7   26   13      7.17     -4.39
    7   26   15     -1.18     -1.36
    7   26   17     -2.06      3.97
    7   26   19     -0.99     -6.39
    7   26   21     -0.64      1.06
    7   26   23     -3.06      0.22
    7   27    0      8.42      0.51
    7   27    2     -8.85      5.28
    7   27    4      4.91      6.01
    7   27    6     -2.35     10.74
    7   27    8     -1.32     -1.75
    7   27   10      9.02     -9.53
    7   27   12     -4.18      1.73
    7   27   14      3.97      3.45
    7   27   16      0.19     -4.71
    7   27   18     -5.12     -1.58
    7   27   20     -0.32      4.25
    7   27   22     -2.02     -3.29
    7   27   24      1.70      0.35
    7   28    1     -2.59      0.66
    7   28    3     -4.78    -12.51
    7   28    5      5.79      6.71
    7   28    7     -7.13     -8.32
    7   28    9     -7.47     -4.54
    7   28   11      3.87     -2.98
    7   28   13     -6.51      6.30
    7   28   15     -2.12      9.43
    7   28   17     -7.57      2.34
    7   28   19      0.92     -3.15
    7   28   21     -0.92      4.00
    7   28   23     13.82      2.62
    7   29    0    -10.50     -1.75
    7   29    2     -6.00     -2.40
    7   29    4     -1.72      5.91
    7   29    6      3.01      3.88
    7   29    8      5.81      3.21
    7   29   10      5.10      5.58
    7   29   12      2.72      7.44
    7   29   14      0.13     -3.23
    7   29   16      6.26      1.70
    7   29   18      9.97     -3.04
    7   29   20      0.14      1.64
    7   29   22     -3.93      1.45
    7   30    1      6.90      8.71
    7   30    3     10.73      2.04
    7   30    5      3.60     -1.11
    7   30    7     -2.36     12.50
    7   30    9     -1.71      5.33
    7   30   11      9.47     -2.86
    7   30   13      4.81      9.92
    7   30   15     -2.06     10.04
    7   30   17     -1.61     -5.77
    7   30   19     -3.07     -3.42
    7   30   21     -2.47     -5.31
    7   31    0      4.40     -1.70
    7   31    2     -4.38      1.54
    7   31    4      8.52      9.52
    7   31    6      3.25      1.27
    7   31    8      2.51      1.60
    7   31   10     -4.98     -1.12
    7   31   12     -0.37      0.23
    7   31   14     -0.58     -0.75
    7   31   16     -4.00      1.38
    7   31   18     -3.11     -0.67
    7   31   20      1.48     -1.58
    7   32    1     -9.50     -1.64
    7   32    3      9.31     -0.59
    7   32    5     -0.75      0.67
    7   32    7     -3.82     -8.67
    7   32    9      3.89     -3.83
    7   32   11      1.01      6.49
    7   32   13     -5.58      3.44
    7   32   15     -1.91     -3.19
    7   32   17     -0.37      3.37
    7   32   19     -1.31      3.62
    7   33    0      5.77      0.16
    7   33    2     -3.35      9.22
    7   33    4     -4.06      4.21
    7   33    6      5.74    -10.41
    7   33    8     -1.97     -3.03
    7   33   10     -7.32     -1.69
    7   33   12     -0.77     -6.96
    7   33   14     -8.18     -8.24
    7   33   16     -0.12      2.28
    7   33   18      1.44     -6.09
    7   34    1     -7.28      2.99
    7   34    3      6.75     -5.28
    7   34    5     -3.43     -4.12
    7   34    7     15.93      5.77
    7   34    9     11.78      3.89
    7   34   11      1.08     -7.48
    7   34   13      7.09      6.11
    7   34   15      0.92      9.89
    7   34   17     -0.02     -9.85
    7   35    0      1.67     -1.62
    7   35    2     -3.11      0.19
    7   35    4     16.98      4.24
    7   35    6     -6.29      4.53
    7   35    8     -1.16      1.09
    7   35   10      1.14      7.03
    7   35   12     -3.49     -2.85
    7   35   14      4.19      1.59
    7   35   16    -19.25     -1.35
    7   36    1      5.25     -4.34
    7   36    3     -5.45     -0.79
    7   36    5      2.46     -3.22
    7   36    7     -4.61      2.79
    7   36    9      0.20     -0.22
    7   36   11      3.46      9.74
    7   36   13     -3.57     -0.22
    7   37    0      3.37     -0.94
    7   37    2      6.96      2.28
    7   37    4     -5.62     -2.91
    7   37    6      7.70    -16.85
    7   37    8      2.45      2.70
    7   37   10      2.55     -4.86
    7   37   12     -5.18     -8.80
    7   38    1     -0.15      7.03
    7   38    3     -1.70      7.06
    7   38    5     -5.20      1.65
    7   38    7      4.23     10.01
    7   38    9     22.95      3.33
    7   38   11     -3.54     -7.69
    7   39    0    -18.37     -2.27
    7   39    2      8.12     -5.16
    7   39    4     10.23      6.33
    7   39    6     -2.69     -3.05
    7   39    8    -22.48    -14.66
    7   40    1      8.16     -3.63
    7   40    3     -0.59     -0.71
    7   40    5      6.58      2.15
   -1    8    1    -35.87      2.59
   -1    8    3     45.79    -77.06
   -1    8    5     47.20      0.97
   -1    8    7    -14.19     -6.57
   -1    8    9    -26.64      7.40
   -1    8   11    -13.96    -12.51
   -1    8   13      4.34     -6.35
   -1    8   15      0.88     -4.61
   -1    8   17     -2.06      4.41
   -1    8   19     -4.39      0.08
   -1    8   21      7.87     -7.26
   -1    8   23    -10.10      2.04
   -1    8   25      2.29     -5.65
   -1    8   27     15.78    -15.92
   -2    8    0     94.69    -11.71
   -2    8    2    -25.86     71.60
   -2    8    4   -136.03      0.97
   -2    8    6     18.30    -52.63
   -2    8    8     58.40    -28.24
   -2    8   10      5.50     16.17
   -2    8   12    -13.97     23.79
   -2    8   14     -5.30      2.93
   -2    8   16     12.55      2.18
   -2    8   18     -0.11      3.16
   -2    8   20     -8.91     -6.20
   -2    8   22    -10.95      5.90
   -2    8   24      9.38     -0.67
   -2    8   26     10.41     -5.25
   -2    8   28      0.68     -0.66
   -2    8   30     -6.40     -2.95
   -3    8    1     39.44     54.66
   -3    8    3    -71.20     72.29
   -3    8    5     22.21    -20.57
   -3    8    7     17.81    -34.08
   -3    8    9     27.83     33.83
   -3    8   11    -11.24     -2.70
   -3    8   13      5.88     11.47
   -3    8   15      3.88     -4.10
   -3    8   17      7.20     -7.36
   -3    8   19      3.52     -1.77
   -3    8   21    -31.82     16.43
   -3    8   23     10.60      6.37
   -3    8   25      1.23     -2.94
   -3    8   27     -4.08      2.19
   -3    8   29      5.33      0.22
   -3    8   31      2.79      4.58
   -4    8    0    -15.85      0.26
   -4    8    2     48.16    -14.50
   -4    8    4    -17.92    -24.14
   -4    8    6    -28.31     -6.24
   -4    8    8    -21.98     11.11
   -4    8   10     21.34      1.33
   -4    8   12     -4.93     21.82
   -4    8   14     -6.00     -4.09
   -4    8   16      7.02      8.36
   -4    8   18    -16.07     -4.15
   -4    8   20     -1.59      1.29
   -4    8   22     -7.25     11.83
   -4    8   24    -14.38     -1.96
   -4    8   26     -4.57     -1.96
   -4    8   28      0.17      2.46
   -4    8   30      7.17     26.19
   -5    8    1     24.75     43.80
   -5    8    3     20.93     23.76
   -5    8    5     15.47    -26.26
   -5    8    7     15.57    -26.48
   -5    8    9    -12.13     -4.60
   -5    8   11     10.76     23.30
   -5    8   13    -12.33     -5.13
   -5    8   15     11.10     -9.96
   -5    8   17     -0.44      4.56
   -5    8   19     12.44     18.38
   -5    8   21     -0.70    -24.07
   -5    8   25      3.19     -2.57
   -5    8   27     -1.80    -10.48
   -5    8   29     -1.18      7.45
   -5    8   31     -3.01    -15.97
   -6    8    0     57.72      0.28
   -6    8    2     14.05     40.50
   -6    8    4     13.68     66.17
   -6    8    6    -19.35     22.43
   -6    8    8      2.39      3.46
   -6    8   10     -3.78     18.43
   -6    8   12    -14.21     14.86
   -6    8   14    -13.16     -0.04
   -6    8   16      1.32      3.48
   -6    8   18      5.03      9.23
   -6    8   20      9.53      1.83
   -6    8   24      3.89    -15.61
   -6    8   26      7.28     13.49
   -6    8   28     -5.87     -4.31
   -6    8   30      3.41    -13.76
   -7    8    1     53.84     14.29
   -7    8    3     -0.06     57.21
   -7    8    5     -9.19    -46.43
   -7    8    7     47.01     17.10
   -7    8    9    -20.63     11.31
   -7    8   11      4.75     -4.07
   -7    8   13     -5.06     -2.69
   -7    8   15     17.82      5.64
   -7    8   17     -1.00      3.97
   -7    8   19    -11.47     -2.73
   -7    8   23      1.80      6.28
   -7    8   25      5.01      6.57
   -7    8   27      0.98    -10.03
   -7    8   29     -7.43     -0.25
   -7    8   31     13.87     19.00
    8    8    2    -24.60    -24.23
    8    8    4     34.17     33.25
    8    8    6    -20.58      1.84
    8    8    8     31.73     -8.47
    8    8   10    -22.16     25.16
    8    8   12    -17.82     -0.79
    8    8   14      1.29     -7.79
    8    8   20      0.08      2.50
    8    8   24      4.10     -4.10
    8    8   26      3.23      1.25
    8    8   28     -2.14     12.80
    8    8   30      6.84      4.18
    8    9    1    -31.61    -34.26
    8    9    3      9.56    -28.76
    8    9    5     -2.18     11.82
    8    9    7     -7.89      5.53
    8    9    9     25.19     -0.53
    8    9   11    -16.58      2.86
    8    9   13     10.45      1.22
    8    9   21      5.56      5.25
    8    9   23      5.29      8.25
    8    9   25      4.71     -0.01
    8    9   27      2.89      1.26
    8    9   29    -16.69      3.40
    8    9   31      7.91     -3.68
    8   10    0    -14.03     -0.29
    8   10    2      0.67      2.27
    8   10    4    -15.24      7.04
    8   10    6     11.97    -23.70
    8   10    8      0.77     -5.19
    8   10   10     10.63      9.55
    8   10   12     15.12     -1.25
    8   10   14      5.02     -4.28
    8   10   22      8.53     -4.96
    8   10   24     -3.87      1.88
    8   10   26     -6.22     -0.99
    8   10   28     -5.69     -7.33
    8   10   30      0.12      9.38
    8   11    1      4.29      3.20
    8   11    3     18.08     -1.45
    8   11    5     27.42    -18.09
    8   11    7    -18.38      1.10
    8   11    9     -0.64     12.94
    8   11   11     23.82     -4.12
    8   11   13     -1.01     -0.34
    8   11   23      0.30      4.82
    8   11   25      3.78     10.97
    8   11   27      3.53      5.46
    8   11   29     -0.66    -15.89
    8   12    2     -4.29    -45.32
    8   12    4     -3.18    -19.94
    8   12    6     13.55      3.74
    8   12    8     12.80     -2.90
    8   12   10    -23.22    -16.50
    8   12   12      3.39    -10.78
    8   12   14     16.08      7.61
    8   12   22      2.66      4.72
    8   12   24      5.59     -4.74
    8   12   26     -2.37     10.09
    8   12   28     -1.81     -5.63
    8   12   30     11.57     16.51
    8   13    3    -32.66     30.87
    8   13    5    -10.27     12.74
    8   13    7     17.98    -10.38
    8   13    9      8.78     -9.69
    8   13   11      9.14     -3.65
    8   13   13    -10.03     16.73
    8   13   15     -6.46     -1.62
    8   13   23     -1.12      5.07
    8   13   25      9.60     -3.61
    8   13   27      1.30     -4.66
    8   13   29     -1.41     10.00
    8   14    4     25.98    -17.75
    8   14    6      7.47     19.38
    8   14    8     -8.96      7.02
    8   14   10     -7.48     -4.88
    8   14   12      3.18     10.52
    8   14   14     -3.42      7.16
    8   14   16      3.15     -1.21
    8   14   22      2.08      2.52
    8   14   24     -5.92      4.80
    8   14   26      4.43      0.57
    8   14   28      6.31     -4.10
    8   14   30      1.94      0.05
    8   15    3      3.97      8.86
    8   15    5     -2.19      2.22
    8   15    7      2.82     -2.38
    8   15    9    -13.72      1.81
    8   15   11      5.91      3.26
    8   15   13     -2.66     -5.23
    8   15   15     -3.80     -6.60
    8   15   17     -2.77      5.59
    8   15   21      7.91      6.74
    8   15   23      7.72      3.46
    8   15   25      3.39      8.43
    8   15   27    -14.02     -1.56
    8   15   29     -1.61      3.09
    8   16    4      4.41      2.39
    8   16    6    -20.95     -8.48
    8   16    8      1.27      4.58
    8   16   10     -0.88      3.29
    8   16   12     -7.31     -1.20
    8   16   14      0.38      8.74
    8   16   16      5.57    -10.47
    8   16   18     -1.76     -0.91
    8   16   20     -3.27     -0.92
    8   16   22     17.27     -5.97
    8   16   24      2.38     -6.96
    8   16   26     -6.71      7.53
    8   16   28      8.52      7.04
    8   17    5     -0.88     13.62
    8   17    7     13.89     -2.63
    8   17    9     -3.99      5.74
    8   17   11     11.17      4.79
    8   17   13      2.14     -6.14
    8   17   15     -0.75      4.36
    8   17   17     -1.70     -8.31
    8   17   21      0.36     -0.50
    8   17   23     -4.95     -1.88
    8   17   25      7.16      0.46
    8   17   27     -0.49     -3.74
    8   17   29    -21.59    -18.86
    8   18    4     -4.21      1.74
    8   18    6     -4.19     -2.27
    8   18    8     14.03     -4.27
    8   18   10      9.02     -5.46
    8   18   12     -0.71     10.62
    8   18   14      5.84     -1.17
    8   18   16     -5.92      3.09
    8   18   18     -7.88      0.67
    8   18   20      2.02    -11.65
    8   18   22     10.11      6.41
    8   18   24      1.02     12.58
    8   18   26     -0.02      4.64
    8   18   28      1.40      8.89
    8   19    5     13.27     16.47
    8   19    7    -10.26     12.50
    8   19    9      4.95      0.77
    8   19   11     -9.38      2.99
    8   19   13    -20.33     -0.39
    8   19   15      8.76      8.76
    8   19   17      4.38    -11.23
    8   19   19     -3.19     -1.30
    8   19   21      3.68      1.34
    8   19   23     -2.61      1.86
    8   19   25     -2.35     -7.76
    8   19   27      2.08      8.20
    8   20    6      0.76      5.90
    8   20    8     -8.12     10.61
    8   20   10     -5.85     -0.64
    8   20   12      3.29     -5.49
    8   20   14      1.67      7.00
    8   20   16     -1.28     -2.76
    8   20   18      2.88      2.97
    8   20   20     -0.07      1.52
    8   20   22      1.82      3.55
    8   20   24      1.86      0.23
    8   20   26      2.48     -1.52
    8   21    5     -2.50    -11.72
    8   21    7     22.82      4.31
    8   21    9     -5.29    -12.89
    8   21   11      4.46     -0.24
    8   21   13     -1.92      0.82
    8   21   15      0.27     -7.61
    8   21   17     -0.27     -4.72
    8   21   19     -5.69     11.95
    8   21   21     -4.96      0.33
    8   21   23      1.59     -5.38
    8   21   25      2.26     -0.79
    8   21   27     -2.81     11.00
    8   22    6     -3.02     -8.84
    8   22    8     -0.84      2.02
    8   22   10      3.52     11.18
    8   22   12     -1.08      7.50
    8   22   14      3.15     -5.43
    8   22   16      1.96     -0.52
    8   22   18      4.32     -1.39
    8   22   20      3.83     -0.96
    8   22   22     -1.68     -5.12
    8   22   24      0.85     -5.20
    8   22   26     18.97    -10.74
    8   23    5     -5.85     -2.81
    8   23    7     21.64      1.01
    8   23    9     -6.62      6.38
    8   23   11     -5.17    -11.79
    8   23   13     -2.91     -9.94
    8   23   15      8.92     -1.09
    8   23   17      6.25     11.70
    8   23   19     -4.64      2.04
    8   23   21      3.58      3.11
    8   23   23    -11.81      8.98
    8   23   25    -23.00     -6.48
    8   24    2    -12.84     -1.42
    8   24    4     -2.48      9.83
    8   24    6     -5.87      1.51
    8   24    8     -4.48      0.46
    8   24   10     -4.67     -4.16
    8   24   12      7.18     -0.91
    8   24   14     -5.00     -2.39
    8   24   16     -4.32     -0.97
    8   24   18     -4.90      2.80
    8   24   20     -4.26      1.34
    8   24   22     -2.08     -6.53
    8   24   24     19.82     -0.82
    8   25    1      7.49      8.97
    8   25    3     -3.62      2.50
    8   25    5      4.31      6.01
    8   25    7     -7.76     -2.24
    8   25    9      5.99      7.80
    8   25   11     -5.47     -6.29
    8   25   13      2.60      5.72
    8   25   15      1.23     -1.34
    8   25   17      0.62     -2.26
    8   25   19      2.40     -0.89
    8   25   21      3.27      4.56
    8   25   23      4.14     -9.00
    8   25   25     -7.35      6.20
    8   26    0     -6.09     -0.86
    8   26    2     -1.26      0.44
    8   26    4    -12.39     -2.62
    8   26    6     -0.22    -17.14
    8   26    8      5.82      1.62
    8   26   10      9.98     11.65
    8   26   12     -7.25      0.53
    8   26   14      3.78     -8.49
    8   26   16      5.37     -2.60
    8   26   18     -6.63     -3.90
    8   26   20      3.81      1.85
    8   26   22      1.06      6.73
    8   26   24      1.46     -5.20
    8   27    1      3.40      4.18
    8   27    3     -1.76     -7.05
    8   27    5      9.88      8.26
    8   27    7      0.04      3.82
    8   27    9      1.15     -5.37
    8   27   11     -1.70     11.38
    8   27   13     -8.60     -8.37
    8   27   15     -2.28     -0.96
    8   27   17     -0.41     15.89
    8   27   19      8.42     -7.04
    8   27   21      2.00      3.12
    8   27   23      0.78      1.91
    8   28    0      1.46      0.51
    8   28    2    -15.20      0.43
    8   28    4      5.16     -1.97
    8   28    6     -9.65     10.44
    8   28    8     -1.92      1.84
    8   28   10      7.59      1.82
    8   28   12      2.18      8.81
    8   28   14     -0.51      5.06
    8   28   16      6.10      4.77
    8   28   18     -4.74      1.30
    8   28   20     -9.91     -6.69
    8   28   22      3.02     -6.46
    8   29    1     13.64     -1.74
    8   29    3      2.07      7.24
    8   29    5      3.96      3.75
    8   29    7     -4.18     -0.76
    8   29    9      2.05     -3.23
    8   29   11      6.16     -1.75
    8   29   13     -2.35      6.52
    8   29   15      1.00     -6.75
    8   29   17     -1.72     -1.10
    8   29   19     -2.30      4.36
    8   29   21     -0.94     -1.56
    8   30    0      8.10     -0.12
    8   30    2     -6.18     10.15
    8   30    4     -5.84      4.24
    8   30    6     -2.34      1.03
    8   30    8      2.08      0.18
    8   30   10     -1.82      0.24
    8   30   12     -2.58     -3.55
    8   30   14     -2.80     -0.59
    8   30   16     -2.92     -1.25
    8   30   18     -1.86     -0.20
    8   30   20      2.26      5.00
    8   31    1     -4.91      9.81
    8   31    3    -10.05     -6.94
    8   31    5     -1.68      1.21
    8   31    7     -1.51     -9.73
    8   31    9     -3.98      1.03
    8   31   11     -5.89      3.09
    8   31   13      0.26     -6.84
    8   31   15     -3.13     -3.04
    8   31   17     -1.48     -1.63
    8   31   19     -1.67     -4.61
    8   32    0     -1.72     -1.22
    8   32    2      2.01     -3.80
    8   32    4     16.37      4.40
    8   32    6      0.51     -2.99
    8   32    8     -4.59     -7.87
    8   32   10      4.93     -8.55
    8   32   12      3.58      0.58
    8   32   14     -2.95      0.12
    8   32   16      2.50      5.32
    8   32   18      0.35     -5.25
    8   33    1      3.16     -5.68
    8   33    3      8.41      7.02
    8   33    5     -5.69      7.80
    8   33    7     -4.62     10.33
    8   33    9      5.89     -0.49
    8   33   11      9.99      7.38
    8   33   13    -12.92     10.88
    8   33   15     -2.20      4.02
    8   33   17      1.51     -3.11
    8   34    0      9.69      0.69
    8   34    2     -2.97     -2.96
    8   34    4    -10.32     -2.91
    8   34    6      7.51     -1.52
    8   34    8    -11.90     -5.45
    8   34   10      2.65     -2.87
    8   34   12      7.24      6.07
    8   34   14     -3.36    -12.53
    8   34   16    -11.75     -2.66
    8   35    1      1.27      4.47
    8   35    3      3.32     -3.66
    8   35    5      4.12     -5.93
    8   35    7      9.82      5.15
    8   35    9     13.22      8.47
    8   35   11      1.91     11.84
    8   35   13     -0.83     -4.52
    8   35   15     14.36      1.46
    8   36    0      8.69    -10.80
    8   36    2     -1.38      4.47
    8   36    4     11.04      9.96
    8   36    6     -0.44      3.40
    8   36    8     -2.02     -3.20
    8   36   10      3.67     -3.45
    8   36   12    -14.43      5.84
    8   36   14     -3.86      3.14
    8   37    1     12.10     -1.96
    8   37    3     -3.38     -7.87
    8   37    5     -7.72      9.03
    8   37    7     -1.50     -4.55
    8   37    9     -4.24    -10.76
    8   37   11     -0.88    -20.96
    8   38    0      2.06      0.86
    8   38    2     -5.35      1.06
    8   38    4     15.13      1.24
    8   38    6      2.18     -3.04
    8   38    8     -9.99     -4.69
    8   38   10     -0.36     10.27
    8   39    1      6.55      3.49
    8   39    3    -13.58     -8.13
    8   39    5     -0.33      0.41
    8   39    7      5.35     16.57
    8   40    0    -13.39     -0.47
    8   40    2     -0.23     -8.72
    8   40    4      2.45     -0.37
   -1    9    0    -49.59    -16.42
   -1    9    2     37.81    -51.96
   -1    9    4    -10.53     15.70
   -1    9    6    -17.72      9.76
   -1    9    8    -14.24    -12.45
   -1    9   10     22.31     -8.18
   -1    9   12     12.33      3.22
   -1    9   14      6.78      0.85
   -1    9   16     -2.85     -8.49
   -1    9   18      9.86     16.33
   -1    9   20      2.75     -1.06
   -1    9   22     -5.39      3.23
   -1    9   24     -2.03     -7.21
   -1    9   26      6.65      0.37
   -1    9   28     -4.05     11.99
   -1    9   30      2.83     -2.03
   -2    9    1     -0.02    -52.11
   -2    9    3      5.50    -18.50
   -2    9    5    -13.72    -40.67
   -2    9    7      9.72      8.30
   -2    9    9     -8.18    -14.80
   -2    9   11     12.48    -17.73
   -2    9   13     -8.27    -12.43
   -2    9   15      5.56     -8.46
   -2    9   17     -1.78     11.71
   -2    9   19    -11.61      7.06
   -2    9   21      6.68      3.65
   -2    9   23     -8.12     -3.64
   -2    9   25    -14.76     -1.97
   -2    9   27      8.98     -0.61
   -2    9   29     -1.36     -1.30
   -3    9    0      6.95     -7.64
   -3    9    2     10.06     -2.12
   -3    9    4     -5.29     12.13
   -3    9    6    -10.57     56.07
   -3    9    8     -1.46    -13.78
   -3    9   10      0.12     -1.41
   -3    9   12      2.92      2.78
   -3    9   14    -10.44     -0.60
   -3    9   16     -8.45     -1.45
   -3    9   18     -5.90     -6.15
   -3    9   20      9.68      8.98
   -3    9   22      0.22      5.63
   -3    9   24      1.69      0.22
   -3    9   26      2.00    -10.01
   -3    9   28      0.06     -3.88
   -3    9   30    -14.89      6.36
   -4    9    1    107.69      3.15
   -4    9    3     -4.88     62.54
   -4    9    5     -8.84     21.94
   -4    9    7      6.28     14.75
   -4    9    9     -3.08      0.72
   -4    9   11     -4.69    -15.36
   -4    9   13      5.89     15.36
   -4    9   15     -6.08      5.03
   -4    9   17     -8.76      7.97
   -4    9   19     28.21      2.51
   -4    9   21    -25.23      6.66
   -4    9   23      6.63    -11.35
   -4    9   25      7.95     -4.25
   -4    9   27     -7.16      7.89
   -4    9   29     10.65     -4.19
   -4    9   31      4.36     -5.98
   -5    9    0     25.92      2.91
   -5    9    2     -1.82     -2.87
   -5    9    4     -9.20      2.42
   -5    9    6      9.27     -9.10
   -5    9    8      7.76     24.32
   -5    9   10    -22.10    -12.35
   -5    9   12    -16.44     -2.86
   -5    9   14      7.40     14.77
   -5    9   16      3.04      3.42
   -5    9   18     -5.50      3.34
   -5    9   20    -13.33      7.47
   -5    9   22     -4.96     -2.13
   -5    9   26      0.54     -2.21
   -5    9   28    -16.15    -10.86
   -5    9   30      5.35     12.39
   -6    9    1     54.92     55.86
   -6    9    3    -32.26    -10.03
   -6    9    5     12.41     -5.71
   -6    9    7     17.63      4.45
   -6    9    9      3.35     27.52
   -6    9   11     -8.08     21.59
   -6    9   13     -9.81     -1.48
   -6    9   15      5.64      5.92
   -6    9   17     -1.36     -0.05
   -6    9   19     -6.73     13.83
   -6    9   21     17.59    -18.86
   -6    9   25     -5.44     -7.02
   -6    9   27     12.86      1.63
   -6    9   29     -0.72      0.27
   -6    9   31     16.73      6.50
   -7    9    0      2.07      3.88
   -7    9    2    -23.02      0.45
   -7    9    4    -10.66     -0.67
   -7    9    6      3.36      7.00
   -7    9    8     -8.13     19.31
   -7    9   10      1.17     -7.40
   -7    9   12     17.31    -12.49
   -7    9   14    -10.58     12.87
   -7    9   16    -10.09      6.56
   -7    9   18      6.92     -4.63
   -7    9   24     -0.44      1.20
   -7    9   26     -7.82      2.44
   -7    9   28     -0.20      9.63
   -7    9   30     -7.57     -1.75
   -8    9    1     24.20     22.30
   -8    9    3      0.54     -0.92
   -8    9    5     -8.28    -16.05
   -8    9    7     11.82    -13.66
   -8    9    9     27.69    -14.63
   -8    9   11     13.10      9.81
   -8    9   13      0.13      1.96
   -8    9   15      2.00     -2.16
   -8    9   17      8.66      2.05
   -8    9   19      1.83      1.30
   -8    9   21     -1.70     -0.99
   -8    9   25     -4.30      1.32
   -8    9   27     -1.41     -0.98
   -8    9   29      3.05      5.83
   -8    9   31     12.74    -11.96
    9    9    0     51.02     -1.82
    9    9    2    -16.15      9.64
    9    9    4      4.07     24.26
    9    9    6     -2.20    -15.53
    9    9    8     21.06      9.65
    9    9   10     -0.30     15.93
    9    9   12     -4.19      3.11
    9    9   20     -9.39     25.18
    9    9   22      5.82     -1.00
    9    9   24      4.31     -5.27
    9    9   26      6.40      0.10
    9    9   28     -6.57     -2.42
    9    9   30      3.93      2.06
    9   10    1     -4.95    -31.32
    9   10    3     -8.25      8.24
    9   10    5     -9.88    -41.79
    9   10    7     12.54     -5.98
    9   10    9     14.85     -9.81
    9   10   11     15.32      7.62
    9   10   13     -3.04     -4.06
    9   10   21     -0.61     -6.29
    9   10   23     -6.59     11.22
    9   10   25      3.25      1.57
    9   10   27      4.15      8.07
    9   10   29      0.92     -9.31
    9   11    0    -34.81     -0.01
    9   11    2     14.80     15.40
    9   11    4     -4.73     22.15
    9   11    6     12.79    -12.91
    9   11    8      4.37    -13.29
    9   11   10     -9.22      8.00
    9   11   12    -10.72      7.86
    9   11   14     -9.72     -9.72
    9   11   24      2.87      0.71
    9   11   26     -7.00     -0.39
    9   11   28     -8.40      0.61
    9   11   30      6.26     31.19
    9   12    1     13.21      8.74
    9   12    3     15.49     11.05
    9   12    5     -2.70      1.49
    9   12    7     -6.14    -14.33
    9   12    9     14.70     16.29
    9   12   11      7.84      8.45
    9   12   13    -16.10     -3.26
    9   12   15     -4.91      2.20
    9   12   23      4.78     -9.39
    9   12   25     10.70     -5.75
    9   12   27      1.17     -3.74
    9   12   29      8.37      1.82
    9   13    0     -2.11     -7.54
    9   13    2    -10.27    -26.18
    9   13    4     -5.63    -18.52
    9   13    6     -7.22    -15.64
    9   13    8      0.59     -2.99
    9   13   10    -12.21      6.10
    9   13   12     -5.82    -12.23
    9   13   14     16.61      9.40
    9   13   16     16.91      2.19
    9   13   24      1.64      4.29
    9   13   26     -1.90      7.04
    9   13   28     -2.41    -16.92
    9   13   30      8.28      6.22
    9   14    1      5.50     16.76
    9   14    3    -16.06      2.19
    9   14    5      6.89     -5.18
    9   14    7     10.04      0.64
    9   14    9     -9.41      1.10
    9   14   11    -13.58     -8.07
    9   14   13     11.07     -5.01
    9   14   15     -2.23     -1.60
    9   14   23      1.93     12.99
    9   14   25     -1.17      4.69
    9   14   27     -2.19     -1.76
    9   14   29     -0.87     -1.92
    9   15    2    -21.69      1.28
    9   15    4     -4.13      0.45
    9   15    6     -3.40     -2.46
    9   15    8     10.55    -11.16
    9   15   10      5.47     -4.53
    9   15   12     -5.41    -20.05
    9   15   14     -1.02     -3.11
    9   15   16      2.51      2.39
    9   15   22     -2.59     -0.80
    9   15   24      3.21      2.21
    9   15   26      9.68     -4.53
    9   15   28      6.87      5.78
    9   16    3     13.88     27.57
    9   16    5      2.67      8.28
    9   16    7     13.62    -11.29
    9   16    9     -1.85     17.30
    9   16   11     14.69     21.05
    9   16   13      3.05    -19.88
    9   16   15      7.04      4.62
    9   16   17      0.78      2.60
    9   16   21      0.49    -14.00
    9   16   23      4.28      1.78
    9   16   25      7.62      2.01
    9   16   27    -18.03     -5.70
    9   16   29     -2.05     -4.32
    9   17    2      2.39    -17.23
    9   17    4     16.68    -16.09
    9   17    6     -0.28     16.66
    9   17    8     -5.65     11.07
    9   17   10    -16.88      3.67
    9   17   12     -6.59      9.90
    9   17   14    -10.77     -7.50
    9   17   16     -7.25      0.17
    9   17   18      3.84      2.00
    9   17   22     13.66      0.85
    9   17   24      2.55      3.02
    9   17   26      7.61     11.04
    9   17   28     -7.13     15.69
    9   18    3     -2.03      3.08
    9   18    5     12.15     -4.61
    9   18    7      7.79      6.66
    9   18    9    -15.62     -0.45
    9   18   11     11.64     -0.77
    9   18   13     -9.08      3.52
    9   18   15      6.31     11.38
    9   18   17    -14.84      4.57
    9   18   19      3.36     -4.32
    9   18   21      5.42      9.98
    9   18   23     -4.64     10.15
    9   18   25      9.16     -4.97
    9   18   27      1.29     -6.71
    9   19    4      5.00     18.99
    9   19    6      1.73      5.36
    9   19    8    -10.01      0.86
    9   19   10    -16.88    -19.88
    9   19   12      4.13     13.05
    9   19   14      8.21     16.41
    9   19   16     -0.56      0.34
    9   19   18    -12.11    -20.66
    9   19   20      5.63    -13.37
    9   19   22      0.14     16.93
    9   19   24      2.08      4.32
    9   19   26     -1.49      4.81
    9   19   28     -6.05      2.41
    9   20    3     -3.14      6.40
    9   20    5     -6.14     18.86
    9   20    7     -7.55     -3.51
    9   20    9      9.81     -2.24
    9   20   11     16.60      4.26
    9   20   13      2.60    -11.30
    9   20   15    -13.26     -5.81
    9   20   17      4.03      3.15
    9   20   19      0.38     -3.13
    9   20   21      0.36      2.53
    9   20   23    -17.78    -11.46
    9   20   25     11.19     -9.50
    9   20   27     11.10     18.18
    9   21    4      4.59     -4.44
    9   21    6     22.73      7.93
    9   21    8    -11.81     -3.53
    9   21   10      8.42     -6.42
    9   21   12      4.61     -6.37
    9   21   14      5.23      8.83
    9   21   16     -2.47     11.42
    9   21   18     -4.00      4.48
    9   21   20      3.47      4.41
    9   21   22      2.85      2.18
    9   21   24     10.25     -7.68
    9   21   26     -6.61     -3.13
    9   22    5      2.21     10.64
    9   22    7    -14.17     -3.54
    9   22    9      0.86      6.59
    9   22   11      1.08      5.88
    9   22   13     -6.83      1.34
    9   22   15      0.35     -5.48
    9   22   17     -2.87     -0.61
    9   22   19     -3.58      7.75
    9   22   21     -7.03     -2.24
    9   22   23     -3.83      7.07
    9   22   25     -8.85     -4.57
    9   23    4    -11.26      3.88
    9   23    6     -9.21     -4.89
    9   23    8      4.89      0.95
    9   23   10     -1.23      1.66
    9   23   12      6.09     10.01
    9   23   14      6.11      5.60
    9   23   16     -2.45     -0.28
    9   23   18     -2.05     -5.04
    9   23   20      2.23      0.18
    9   23   22      2.52     -8.91
    9   23   24     11.89     -2.64
    9   23   26     11.68      0.59
    9   24    5     11.36     -6.30
    9   24    7     16.30     11.38
    9   24    9     -2.69     -7.42
    9   24   11      3.15      2.85
    9   24   13     -3.17      3.34
    9   24   15     -6.27    -15.04
    9   24   17      4.42      5.53
    9   24   19      6.07     -3.00
    9   24   21      5.83      6.80
    9   24   23     -3.27      0.59
    9   24   25     -1.42      1.11
    9   25    4      5.64     16.49
    9   25    6     13.50      8.30
    9   25    8      1.08      1.28
    9   25   10      4.76      4.34
    9   25   12     -5.29      3.75
    9   25   14      0.31      0.28
    9   25   16      8.82      2.59
    9   25   18      2.33     -3.82
    9   25   20     -4.02     -1.55
    9   25   22     -8.19      2.39
    9   25   24     -2.85     -3.46
    9   26    1      0.28      1.64
    9   26    3      7.31      8.77
    9   26    5     -0.44      4.01
    9   26    7     -6.38     -7.21
    9   26    9     -1.73      5.72
    9   26   11     -2.62     -4.33
    9   26   13     -1.40     -1.14
    9   26   15      3.24     -3.83
    9   26   17      0.57      3.17
    9   26   19     -7.43     -2.81
    9   26   21      1.32     -0.42
    9   26   23      5.47      0.24
    9   27    0    -12.36     -1.72
    9   27    2     -0.09      3.65
    9   27    4     -1.47     -6.53
    9   27    6     -6.64     -7.39
    9   27    8     -3.10     13.65
    9   27   10     -1.37      6.87
    9   27   12     10.35     -5.45
    9   27   14      1.16      2.54
    9   27   16      2.62     10.68
    9   27   18     -1.38      1.37
    9   27   20     -0.07      0.25
    9   27   22     -2.87      0.90
    9   28    1      4.56      5.52
    9   28    3     -7.18      8.93
    9   28    5      5.54      8.64
    9   28    7     -1.49     -4.04
    9   28    9     12.15     -2.69
    9   28   11     -7.26      1.69
    9   28   13      2.12      5.74
    9   28   15     -5.34    -11.31
    9   28   17     -3.88      2.39
    9   28   19      3.69     -4.15
    9   28   21      1.00      2.49
    9   29    0      0.62      1.78
    9   29    2     -5.35     -6.18
    9   29    4     -8.42     -0.61
    9   29    6     -6.27     -3.97
    9   29    8      0.27     -9.59
    9   29   10      1.39     -0.81
    9   29   12     -1.09     -1.87
    9   29   14      2.55     -0.71
    9   29   16    -10.21     -6.87
    9   29   18     -5.08      1.74
    9   29   20     -1.91      1.84
    9   29   22      9.04     -1.32
    9   30    1     -6.74     -5.34
    9   30    3      2.18      2.47
    9   30    5      1.86      0.22
    9   30    7     -0.58     -4.54
    9   30    9     -0.32     -1.06
    9   30   11      0.20     -1.06
    9   30   13      1.84     -7.28
    9   30   15      0.26      4.95
    9   30   17      1.35     -3.75
    9   30   19      3.45     -0.34
    9   30   21      2.08      2.25
    9   31    0     -9.34      1.44
    9   31    2     -6.24      3.59
    9   31    4      3.51     -2.34
    9   31    6     -3.30      4.77
    9   31    8     -0.48     -6.67
    9   31   10      1.41      1.55
    9   31   12      0.16      4.68
    9   31   14      0.14      3.76
    9   31   16     -0.31      4.39
    9   31   18      1.11     -2.80
    9   31   20     -4.21     -3.21
    9   32    1      4.79      2.57
    9   32    3      2.79     -2.76
    9   32    5      1.07      9.08
    9   32    7     -9.72     11.69
    9   32    9      6.24      0.75
    9   32   11      3.98      5.80
    9   32   13      3.11     -2.36
    9   32   15     -0.21      2.67
    9   32   17     -3.74     -6.73
    9   32   19     -2.08     -3.00
    9   33    0      0.49     -0.90
    9   33    2     -0.84     -7.44
    9   33    4     -1.30     -0.25
    9   33    6      4.14     -0.69
    9   33    8     -2.33     -4.58
    9   33   10      7.21      2.13
    9   33   12      0.07      3.09
    9   33   14      1.13     -1.88
    9   33   16      2.61      2.15
    9   33   18     -4.97      3.26
    9   34    1      2.46      0.27
    9   34    3      7.67      7.72
    9   34    5     -8.73     -0.75
    9   34    7     -1.21     -2.10
    9   34    9      3.21      2.42
    9   34   11     -4.58      3.69
    9   34   13     -6.80    -12.20
    9   34   15     -1.40     -4.93
    9   35    0     -0.23     -2.24
    9   35    2      1.30      1.52
    9   35    4      7.49     -2.40
    9   35    6     -1.28      0.18
    9   35    8    -10.16     -5.98
    9   35   10      4.60    -10.94
    9   35   12     -7.07     -3.91
    9   35   14     -3.03     -5.06
    9   36    1      7.34      3.37
    9   36    3      1.82      2.03
    9   36    5     -2.35      4.32
    9   36    7     -0.87     -3.97
    9   36    9     -7.10     -7.43
    9   36   11     10.01     -2.83
    9   36   13     -0.53      8.57
    9   37    0    -11.81     -1.31
    9   37    2      3.16     -2.82
    9   37    4     22.58     11.72
    9   37    6     -6.33      8.17
    9   37    8     -2.55      1.09
    9   37   10      0.45      2.53
    9   37   12     -1.84     17.76
    9   38    1     -0.85      6.28
    9   38    3     -5.98     -5.38
    9   38    5     -0.41     -4.10
    9   38    7      1.71     -2.71
    9   38    9     -1.88      4.33
    9   39    0     11.51     -4.21
    9   39    2     -2.24      2.32
    9   39    4      9.73     -2.14
    9   39    6      5.73     -7.06
    9   40    1      7.22      2.58
    9   40    3     -3.33     -8.12
   -1   10    1      2.88     38.09
   -1   10    3     38.41     17.25
   -1   10    5     16.26     23.79
   -1   10    7    -36.88    -10.14
   -1   10    9    -13.67    -11.18
   -1   10   11     -5.62     10.71
   -1   10   13     -9.53     -0.86
   -1   10   15     14.69     -8.93
   -1   10   17     -1.14     -3.46
   -1   10   19     -6.21    -12.07
   -1   10   21     -5.09     -3.88
   -1   10   23     10.60      8.91
   -1   10   25      9.72      3.92
   -1   10   27    -10.51      5.94
   -1   10   29     -2.97     -1.71
   -1   10   31     -3.87     -8.26
   -2   10    0     -5.08     10.32
   -2   10    2     37.84     -6.63
   -2   10    4      6.19      3.94
   -2   10    6      9.80     -1.64
   -2   10    8    -25.66     41.98
   -2   10   10    -19.01     -6.20
   -2   10   12      8.58    -13.90
   -2   10   14      7.73     10.89
   -2   10   16     -4.68    -12.29
   -2   10   18      4.22      3.30
   -2   10   20      1.39     -7.40
   -2   10   22      9.06      4.82
   -2   10   24      1.68      0.10
   -2   10   26      2.38     -1.74
   -2   10   28     -5.70      6.52
   -2   10   30      0.62      5.00
   -3   10    1     -6.89     19.56
   -3   10    3     43.74     16.33
   -3   10    5     42.28     -3.24
   -3   10    7    -20.97    -28.26
   -3   10    9     -3.40     -3.35
   -3   10   11     -1.33     11.54
   -3   10   13     14.16      4.88
   -3   10   15      1.31      6.65
   -3   10   17      5.31     12.50
   -3   10   19     14.06      2.62
   -3   10   21     -4.52      2.25
   -3   10   23    -15.03    -18.24
   -3   10   25    -10.15    -11.12
   -3   10   27      0.10     -0.07
   -3   10   29    -11.50      7.56
   -3   10   31      6.05    -22.34
   -4   10    0    -20.48     -6.96
   -4   10    2     -6.50    -30.05
   -4   10    4      9.25      3.68
   -4   10    6     -3.28     27.72
   -4   10    8      6.25     -3.57
   -4   10   10    -19.59     13.63
   -4   10   12    -10.46    -14.25
   -4   10   14      0.99     11.40
   -4   10   16      0.89     -5.01
   -4   10   18     -3.59     -0.47
   -4   10   20     -8.51      5.65
   -4   10   22    -11.50    -13.57
   -4   10   24     20.40     22.68
   -4   10   26      5.16     -5.93
   -4   10   28     -1.04     -4.31
   -4   10   30     -3.60     -3.34
   -5   10    1    -22.49    -13.26
   -5   10    3     -2.02     33.29
   -5   10    5    -16.76     -2.24
   -5   10    7      0.60      4.83
   -5   10    9      0.00    -12.42
   -5   10   11     23.09      4.55
   -5   10   13      8.07      7.97
   -5   10   15      0.38     -1.06
   -5   10   17      2.64     -6.16
   -5   10   19     -9.18     -7.90
   -5   10   21      0.62     11.47
   -5   10   23     11.84     13.88
   -5   10   27     -3.13      0.36
   -5   10   29      5.71     -2.35
   -5   10   31     12.45     13.10
   -6   10    0     52.64      6.06
   -6   10    2    -24.23     15.96
   -6   10    4     -0.25    -43.37
   -6   10    6     19.17     -2.29
   -6   10    8     -4.87     15.03
   -6   10   10     -7.36    -15.24
   -6   10   12      9.90     -5.07
   -6   10   14      6.53      9.27
   -6   10   16    -13.25      0.76
   -6   10   18     -3.25     -2.61
   -6   10   20     -6.17    -11.94
   -6   10   22      1.33      6.95
   -6   10   26     -3.39     -5.22
   -6   10   28     -5.76     -3.52
   -6   10   30     -5.42     -0.35
   -7   10    1     16.06     -8.07
   -7   10    3      6.35      6.59
   -7   10    5     51.82    -10.92
   -7   10    7    -15.62     24.20
   -7   10    9    -18.40      0.28
   -7   10   11     17.43     -4.71
   -7   10   13      8.45     16.11
   -7   10   15     -1.34     12.35
   -7   10   17     -6.09      3.11
   -7   10   19     -4.79     11.73
   -7   10   25      5.59    -10.77
   -7   10   27     -6.56    -10.56
   -7   10   29     -6.64      1.07
   -7   10   31     20.54     -6.56
   -8   10    0    -31.86     -1.99
   -8   10    2     19.29    -10.99
   -8   10    4     -3.13     14.62
   -8   10    6      6.86     -9.13
   -8   10    8    -15.73     16.36
   -8   10   10      1.53     -3.70
   -8   10   12     10.29     10.47
   -8   10   14      1.00      0.25
   -8   10   16    -10.28      7.25
   -8   10   18     -1.60      8.30
   -8   10   26      0.90      0.11
   -8   10   28      0.24      4.67
   -8   10   30     -0.68     10.33
   -9   10    1     19.71     30.95
   -9   10    3     28.29    -13.73
   -9   10    5     22.68     25.94
   -9   10    7     -0.28    -18.26
   -9   10    9     10.37     -1.41
   -9   10   11     -3.80      6.25
   -9   10   13     -8.14      3.70
   -9   10   15     -7.16     -5.43
   -9   10   17      3.07    -12.54
   -9   10   19    -23.54    -16.67
   -9   10   21      8.87    -18.23
   -9   10   25      7.01      6.10
   -9   10   27      4.13      0.21
   -9   10   29      3.72    -16.39
   10   10    0    -41.47     -1.24
   10   10    2    -18.30    -13.98
   10   10    4      8.51      7.71
   10   10    6      9.07      1.34
   10   10    8     -3.06     -2.94
   10   10   10     -6.08     -6.72
   10   10   12     -1.52     18.79
   10   10   18    -16.46     16.30
   10   10   20     -5.03     10.88
   10   10   22    -10.82      0.77
   10   10   26      8.95      4.21
   10   10   28    -16.51     11.75
   10   10   30     -7.81     10.33
   10   11    1      9.65    -11.54
   10   11    3    -13.74      4.29
   10   11    5     -1.27     -4.61
   10   11    7      4.08     -3.49
   10   11    9      2.78     -1.38
   10   11   11      5.42     -6.93
   10   11   13     14.63     -7.44
   10   11   19      4.29    -12.70
   10   11   21     -7.57     -7.56
   10   11   23     -2.29      4.88
   10   11   25      0.95      1.95
   10   11   27     -1.72     -5.38
   10   11   29     13.74     -0.75
   10   12    0     28.95     -0.29
   10   12    2    -14.36     10.15
   10   12    4     -5.50      2.13
   10   12    6      2.17     -9.94
   10   12    8      6.04     -9.18
   10   12   10     -7.04     12.79
   10   12   12      2.55     -7.87
   10   12   14      3.78      5.17
   10   12   20      5.51     14.17
   10   12   22     -9.38     11.19
   10   12   24     -1.13     -0.79
   10   12   26     -2.92      4.62
   10   12   28      0.72      1.46
   10   12   30      1.29      5.21
   10   13    1    -15.59     -5.25
   10   13    3     -1.64    -11.00
   10   13    5    -12.49    -28.68
   10   13    7      7.92    -10.44
   10   13    9      4.83    -11.46
   10   13   11     13.61      2.89
   10   13   13      0.16    -11.09
   10   13   15      4.30      4.47
   10   13   21     22.48     11.93
   10   13   23     12.81      5.82
   10   13   25     -5.07     -2.14
   10   13   27     -0.51     -6.43
   10   13   29      0.52     -1.51
   10   14    0     -4.74      2.50
   10   14    2    -22.76      3.61
   10   14    4     -1.16      4.05
   10   14    6     12.38     10.55
   10   14    8    -13.44     -2.07
   10   14   10      1.24     -0.96
   10   14   12     -4.21    -14.28
   10   14   14      2.25    -16.39
   10   14   16      8.62      2.26
   10   14   22     16.43    -20.65
   10   14   24     -2.49     -1.55
   10   14   26      4.29      3.84
   10   14   28      2.78      8.54
   10   15    1     -1.55     -9.65
   10   15    3     12.33      3.86
   10   15    5    -15.68    -18.68
   10   15    7      5.75     -2.55
   10   15    9      8.37      9.88
   10   15   11    -10.19     17.99
   10   15   13      2.54     -7.59
   10   15   15     16.00     -0.96
   10   15   17      7.53    -11.27
   10   15   23     -1.13      8.65
   10   15   25     -4.80      0.61
   10   15   27      5.17     -0.92
   10   15   29      2.06     -1.69
   10   16    0      0.45     -4.87
   10   16    2    -11.23      5.70
   10   16    4     -8.99      8.12
   10   16    6      9.62     -8.61
   10   16    8     11.79      0.37
   10   16   10     -9.49     -7.07
   10   16   12    -22.08     -0.98
   10   16   14     -4.39     -2.96
   10   16   16      3.51     -0.71
   10   16   22     -5.35      3.23
   10   16   24     -0.34      9.06
   10   16   26      8.59      4.16
   10   16   28     -8.16     -0.88
   10   17    1     23.17      3.37
   10   17    3      6.29      2.86
   10   17    5      1.40     13.03
   10   17    7      3.37      8.45
   10   17    9     -6.41      1.53
   10   17   11     -7.30     -7.07
   10   17   13     -6.55      0.14
   10   17   15     13.84     -1.14
   10   17   17     -9.13     -8.65
   10   17   23     11.86      1.14
   10   17   25      0.77     -3.33
   10   17   27     -8.66      8.89
   10   18    2    -10.87    -10.82
   10   18    4     14.30     -1.71
   10   18    6      1.35      6.47
   10   18    8    -13.73     10.05
   10   18   10     -4.24      4.41
   10   18   12     20.17    -10.86
   10   18   14     -5.01      5.20
   10   18   16      1.09      4.50
   10   18   18     11.33      7.39
   10   18   22     -7.11      5.37
   10   18   24     -4.84     -4.79
   10   18   26      1.33      2.05
   10   18   28      3.49      5.19
   10   19    1      1.02      5.44
   10   19    3      5.06     -7.16
   10   19    5      3.74     15.86
   10   19    7     -0.09      2.84
   10   19    9      9.08    -10.40
   10   19   11      5.74      4.48
   10   19   13     -3.47     11.52
   10   19   15     -1.40    -12.91
   10   19   17     -1.78      0.56
   10   19   19     -6.84      3.10
   10   19   21      9.71     -3.53
   10   19   23      1.01     -3.73
   10   19   25      3.22      6.55
   10   19   27     -8.29    -11.64
   10   20    2     -6.54     -0.03
   10   20    4      5.11     -0.42
   10   20    6     -2.94      4.82
   10   20    8     -6.75     -3.71
   10   20   10    -16.06     -0.89
   10   20   12     -0.35     -3.40
   10   20   14      9.85      7.76
   10   20   16      0.77      7.18
   10   20   18     -2.45     -1.48
   10   20   20     -1.42    -17.03
   10   20   22     -2.20     -4.83
   10   20   24      0.48     -2.54
   10   20   26      3.60      4.01
   10   21    3     -8.54      3.24
   10   21    5     12.05      1.29
   10   21    7    -21.51      1.64
   10   21    9      6.86     -0.20
   10   21   11     11.59     11.29
   10   21   13     -6.69     -2.24
   10   21   15      1.59     -1.83
   10   21   17      0.61      3.20
   10   21   19    -11.44     13.09
   10   21   21     -0.78      8.52
   10   21   23      0.69     -3.77
   10   21   25      1.38     -6.23
   10   22    2     30.78     -3.91
   10   22    4     -7.54     -5.59
   10   22    6     19.20     17.77
   10   22    8      3.53     12.63
   10   22   10     15.14     -7.73
   10   22   12      0.50      4.92
   10   22   14      3.32     13.32
   10   22   16     -7.85      6.34
   10   22   18      1.23     -6.83
   10   22   20     -0.98      7.02
   10   22   22      4.19     -3.01
   10   22   24      7.59     -1.45
   10   22   26     -1.17      4.07
   10   23    3     11.53      1.49
   10   23    5     15.47     15.14
   10   23    7     -4.40     -2.98
   10   23    9     -4.80     -6.14
   10   23   11      3.03     -0.69
   10   23   13    -14.59     13.64
   10   23   15    -10.18     -8.75
   10   23   17      5.22     -4.98
   10   23   19      0.01     -2.12
   10   23   21     -1.94     -3.29
   10   23   23     -0.28      3.62
   10   23   25      1.25     -1.12
   10   24    2     15.99      9.35
   10   24    4     -4.54     12.15
   10   24    6      8.89      7.75
   10   24    8     -0.63      7.47
   10   24   10      5.04      2.14
   10   24   12     -3.22     -2.84
   10   24   14      2.17      2.25
   10   24   16      9.36      9.88
   10   24   18     -5.72      1.99
   10   24   20      5.13      0.00
   10   24   22     -5.07      5.66
   10   24   24     -0.67     -6.96
   10   25    3    -14.71      8.78
   10   25    5     -4.10      5.20
   10   25    7    -12.45     -2.92
   10   25    9     11.69    -13.47
   10   25   11     10.92      4.39
   10   25   13      1.87      8.17
   10   25   15     -3.02     -9.01
   10   25   17     -2.82     -1.21
   10   25   19      0.94     -5.09
   10   25   21      5.20      6.55
   10   25   23     -0.71     -5.09
   10   26    2    -13.35    -12.30
   10   26    4     10.80    -13.34
   10   26    6     -2.87      1.22
   10   26    8     -7.27      3.86
   10   26   10    -13.30     -5.73
   10   26   12      8.46      1.30
   10   26   14      0.05      7.19
   10   26   16     -2.15      3.80
   10   26   18     -0.60     -3.90
   10   26   20     -2.48      2.14
   10   26   22      9.88      1.83
   10   26   24     -1.23     -3.69
   10   27    1      7.01     -7.32
   10   27    3     -6.46     15.34
   10   27    5      7.32      7.49
   10   27    7     16.37    -10.17
   10   27    9     -0.69     -0.51
   10   27   11     -9.45    -12.09
   10   27   13      0.16      3.75
   10   27   15     -5.62     -4.59
   10   27   17    -11.69      1.28
   10   27   19      4.44     -6.30
   10   27   21      4.20     -1.35
   10   27   23     -4.60      8.59
   10   28    0    -10.99      0.88
   10   28    2      0.39      2.94
   10   28    4      1.40      0.76
   10   28    6     -2.70     -2.01
   10   28    8      5.93      7.05
   10   28   10     12.16     15.89
   10   28   12      3.35     -3.15
   10   28   14      2.44      3.14
   10   28   16      3.64     -1.74
   10   28   18      6.29     -7.27
   10   28   20      5.12      2.75
   10   28   22     -1.89      6.97
   10   29    1    -11.34      2.50
   10   29    3     -5.77     -2.29
   10   29    5      5.60     -2.12
   10   29    7     -0.64     -1.05
   10   29    9     -1.79     -3.30
   10   29   11     -0.02     -0.17
   10   29   13     -3.38      4.95
   10   29   15     -6.14     15.02
   10   29   17      3.27     -3.48
   10   29   19      3.98    -10.19
   10   29   21     -0.66      3.30
   10   30    0    -21.22      0.98
   10   30    2     -4.86     -9.24
   10   30    4      7.98      0.27
   10   30    6      3.28      6.14
   10   30    8     -7.83     -2.92
   10   30   10     -0.68     -2.72
   10   30   12     -1.11      4.91
   10   30   14      3.23     -1.08
   10   30   16     -8.33     -2.57
   10   30   18     -0.07     -5.63
   10   30   20     -5.75      2.49
   10   31    1      5.27     -9.85
   10   31    3      3.63      3.23
   10   31    5     10.95      1.94
   10   31    7      0.21      9.86
   10   31    9      3.91      0.95
   10   31   11      3.24     -5.00
   10   31   13     10.50     -1.18
   10   31   15      7.34     -0.15
   10   31   17     -4.60     -2.31
   10   31   19     -0.41      3.86
   10   32    0      5.12     -0.26
   10   32    2     -5.95      2.09
   10   32    4    -18.55     -1.64
   10   32    6     -4.31     -8.83
   10   32    8     -1.26    -11.46
   10   32   10     -5.29     -0.40
   10   32   12     -2.27    -13.43
   10   32   14     -1.62      7.70
   10   32   16     -0.71     15.40
   10   32   18      1.76     -3.91
   10   33    1     -9.45      9.66
   10   33    3      0.64      4.21
   10   33    5      0.88      3.69
   10   33    7      2.37     -2.69
   10   33    9      2.15     -2.99
   10   33   11     -8.25     -7.26
   10   33   13     13.17    -14.79
   10   33   15     -4.18     -2.08
   10   33   17     -9.05     -6.19
   10   34    0     -4.47     -1.38
   10   34    2      6.53     -6.27
   10   34    4     11.12      3.63
   10   34    6      2.54      0.51
   10   34    8     -0.22      9.59
   10   34   10     -6.31      5.15
   10   34   12     -5.96     -7.55
   10   34   14      0.52      6.16
   10   34   16     11.91      4.63
   10   35    1      3.23     -5.83
   10   35    3      0.28     11.28
   10   35    5     -3.04      4.06
   10   35    7      9.82     -4.88
   10   35    9     -8.43     -1.70
   10   35   11      1.48     -1.74
   10   35   13     -5.40      2.34
   10   35   15     -6.26     -1.11
   10   36    0     -0.96      1.06
   10   36    2      1.80     -6.12
   10   36    4     -3.04      3.42
   10   36    6      0.13      3.17
   10   36    8     -4.61     -4.25
   10   36   10      6.81     -9.91
   10   36   12      4.90     -1.57
   10   37    1      2.10      4.93
   10   37    3     -4.99      2.83
   10   37    5     -6.73    -12.76
   10   37    7     -2.94     -0.82
   10   37    9     -1.19      7.00
   10   37   11     11.88      0.80
   10   38    0      4.64     -1.81
   10   38    2     -2.02     -2.48
   10   38    4     10.56      6.49
   10   38    6      2.27      5.37
   10   38    8     -2.57     -2.52
   10   39    1      1.52      4.82
   10   39    3     -3.38     -4.91
   10   39    5      4.99      5.96
   -1   11    0     93.50    -43.54
   -1   11    2    -22.24     24.36
   -1   11    4    -11.16      8.62
   -1   11    6      4.02      6.05
   -1   11    8     47.53    -10.22
   -1   11   10     -7.08     15.41
   -1   11   12    -16.16    -20.18
   -1   11   14     -2.44      0.21
   -1   11   16     -1.36      0.25
   -1   11   18     -0.73      9.33
   -1   11   20     -4.43     -2.61
   -1   11   22      4.36      3.85
   -1   11   24    -13.55     -8.78
   -1   11   26     -5.24     -0.78
   -1   11   28     -5.93      5.12
   -1   11   30     -8.11     -5.87
   -2   11    1      0.08    -26.49
   -2   11    3     12.52     -8.41
   -2   11    5     -8.82     -5.88
   -2   11    7     -2.12      8.53
   -2   11    9      1.46    -11.84
   -2   11   11      7.64     11.71
   -2   11   13     -8.07     14.75
   -2   11   15      5.05     -5.93
   -2   11   17      9.52     17.55
   -2   11   19      6.34     -4.11
   -2   11   21      5.57    -10.60
   -2   11   23      5.03     -2.56
   -2   11   25     10.39      5.09
   -2   11   27     -2.73     -5.75
   -2   11   29      1.88      6.13
   -2   11   31      6.63     -3.45
   -3   11    0    -16.58      1.98
   -3   11    2    -25.54    -24.55
   -3   11    4    -28.65     -6.41
   -3   11    6      6.12    -13.79
   -3   11    8      7.41     13.12
   -3   11   10     -0.26      6.95
   -3   11   12     -1.35    -26.71
   -3   11   14     13.83      2.87
   -3   11   16      0.64      5.01
   -3   11   18     -2.32      5.47
   -3   11   20    -14.80     -0.31
   -3   11   22     -5.76      0.80
   -3   11   24     22.35     21.56
   -3   11   26      5.02      6.43
   -3   11   28      0.07     -5.56
   -3   11   30      1.95      5.17
   -4   11    1     19.19      3.41
   -4   11    3     -0.20     -4.73
   -4   11    5    -16.96      6.63
   -4   11    7      7.19    -11.46
   -4   11    9     23.74     -8.76
   -4   11   11     -4.41      1.93
   -4   11   13     14.90     -2.51
   -4   11   15      7.60     14.54
   -4   11   17     -8.25     -9.67
   -4   11   19     19.82      5.27
   -4   11   21     15.30     -1.93
   -4   11   23    -12.27    -24.00
   -4   11   25    -29.00     -2.51
   -4   11   27     -6.44      7.69
   -4   11   29     -1.13     -0.51
   -4   11   31      3.84     -2.82
   -5   11    0     40.46     -0.21
   -5   11    2     23.23      9.18
   -5   11    4     -6.42     -2.18
   -5   11    6     26.08    -10.92
   -5   11    8     -3.90      9.27
   -5   11   10     18.35     -5.06
   -5   11   12    -11.54      5.31
   -5   11   14    -18.90    -14.39
   -5   11   16      8.61      4.57
   -5   11   18     -5.60      5.87
   -5   11   20     -8.31      7.74
   -5   11   22     -0.79     -4.85
   -5   11   24      9.49     16.41
   -5   11   26     -4.50     -3.16
   -5   11   28     -3.67     -4.90
   -5   11   30      2.06     -7.27
   -6   11    1     17.47    -17.04
   -6   11    3      6.24    -21.89
   -6   11    5     -2.34      9.26
   -6   11    7     -2.20     19.13
   -6   11    9     -4.77     10.30
   -6   11   11     -9.37     -7.94
   -6   11   13     -6.43     -3.04
   -6   11   15      6.02     -1.55
   -6   11   17     -5.11      5.29
   -6   11   19     -5.89    -13.19
   -6   11   21     17.71    -10.87
   -6   11   23      0.89     26.58
   -6   11   27      4.43     -3.35
   -6   11   29     12.48      8.82
   -6   11   31     -3.47      5.43
   -7   11    0    -49.14     -1.33
   -7   11    2     21.80    -15.81
   -7   11    4     22.53     48.47
   -7   11    6    -12.91     20.36
   -7   11    8     18.50    -23.62
   -7   11   10     -0.41      9.32
   -7   11   12     -7.64     12.50
   -7   11   14     -3.09     -0.84
   -7   11   16    -13.58     -5.21
   -7   11   18      3.71     -6.33
   -7   11   20      5.93      3.05
   -7   11   26     10.97      1.70
   -7   11   28      2.85     -7.27
   -7   11   30      4.98     -2.12
   -8   11    1     -4.92    -33.58
   -8   11    3     -1.83      4.47
   -8   11    5     10.11     -5.81
   -8   11    7      5.05    -14.56
   -8   11    9      5.08      2.23
   -8   11   11    -12.66      1.27
   -8   11   13     -8.66     15.18
   -8   11   15     -7.76      7.78
   -8   11   17      4.11     -5.87
   -8   11   19    -26.47      3.75
   -8   11   27     -7.73      3.74
   -8   11   29     -0.89    -13.59
   -9   11    0     30.01      3.18
   -9   11    2    -22.51     15.56
   -9   11    4      2.09    -35.43
   -9   11    6     12.28    -13.59
   -9   11    8     -3.78     16.13
   -9   11   10     -0.30     10.14
   -9   11   12      7.19     -8.78
   -9   11   14      5.17      5.11
   -9   11   16      4.17      4.13
   -9   11   18     -1.01      9.81
   -9   11   20      1.96     -7.03
   -9   11   26     -4.33     -3.69
   -9   11   28     -8.64      6.40
   -9   11   30      1.43      2.26
  -10   11    1      1.54     -5.77
  -10   11    3     12.21    -25.69
  -10   11    5     18.34     29.42
  -10   11    7    -12.40     -0.68
  -10   11    9      7.27      8.93
  -10   11   11     -9.86    -13.87
  -10   11   13     21.86      1.31
  -10   11   15    -10.41     13.64
  -10   11   17     -3.73      8.78
  -10   11   19    -22.24    -15.29
  -10   11   21     11.64    -11.35
  -10   11   25     -9.54     -0.62
  -10   11   27      2.50     -5.92
  -10   11   29     10.57      3.54
   11   11    0    -51.09     -5.27
   11   11    2     17.94    -16.08
   11   11    4    -31.03     -1.62
   11   11    6      2.69     -1.55
   11   11    8     -7.92      5.87
   11   11   10     11.39    -22.09
   11   11   12      1.96      4.19
   11   11   14     -0.52     25.05
   11   11   16     -2.45      9.94
   11   11   18    -27.51      9.48
   11   11   20      4.43     16.65
   11   11   22     -8.08      3.33
   11   11   26     12.51     -6.35
   11   11   28     -2.27     -3.22
   11   11   30    -27.73      6.36
   11   12    1      9.71    -11.12
   11   12    3      3.13     10.78
   11   12    5      6.34      0.75
   11   12    7      2.17     -3.42
   11   12    9     -1.27     -8.33
   11   12   11      8.42      7.03
   11   12   13     -8.54     -0.30
   11   12   17      6.87    -16.24
   11   12   19      0.12    -12.27
   11   12   21     -9.14    -11.22
   11   12   23     11.72      1.00
   11   12   25     -0.14      7.08
   11   12   27     -2.64     -2.00
   11   12   29      4.15      1.53
   11   13    0    -14.70      0.95
   11   13    2    -13.50     36.19
   11   13    4      7.73     -9.37
   11   13    6     23.72     -6.19
   11   13    8    -10.87      8.06
   11   13   10    -12.47     -5.34
   11   13   12      5.46    -12.86
   11   13   14      1.29    -20.34
   11   13   18      2.83      4.33
   11   13   20      7.05      3.89
   11   13   22     -2.64     13.84
   11   13   24     -0.62      1.87
   11   13   26     11.06     -0.04
   11   13   28     -1.51      5.78
   11   14    1      3.95    -15.95
   11   14    3      1.29     12.83
   11   14    5    -10.95    -12.92
   11   14    7     -7.10      1.65
   11   14    9    -10.95     -4.58
   11   14   11     19.07    -17.10
   11   14   13      1.02     -0.15
   11   14   15     14.10     16.00
   11   14   19     -0.66    -11.85
   11   14   21     28.77      7.78
   11   14   23     16.55     20.21
   11   14   25     -6.58     -9.77
   11   14   27      2.79     -6.75
   11   14   29      0.49      4.55
   11   15    0     33.75      1.04
   11   15    2    -13.82     -5.71
   11   15    4      7.98     11.60
   11   15    6     -8.67      8.59
   11   15    8     -4.18    -13.85
   11   15   10     -6.64     -6.05
   11   15   12      0.90      7.09
   11   15   14    -14.34      4.41
   11   15   16     12.31    -13.59
   11   15   20      2.90      0.38
   11   15   22    -12.21     -6.70
   11   15   24      0.69      4.03
   11   15   26     12.82     -3.41
   11   15   28     -8.09     12.18
   11   16    1     -4.95      1.10
   11   16    3      6.42    -10.14
   11   16    5    -14.58     -7.73
   11   16    7     -2.49    -14.19
   11   16    9      7.96    -17.03
   11   16   11     -8.57      6.97
   11   16   13     -9.35     -6.21
   11   16   15     13.46    -15.07
   11   16   17     19.65      0.54
   11   16   21    -13.11     36.55
   11   16   23      0.15      4.16
   11   16   25     -0.36      4.65
   11   16   27      3.04     -1.11
   11   17    0     -3.91      2.12
   11   17    2    -22.96      0.10
   11   17    4     13.46      9.18
   11   17    6      9.30     -0.82
   11   17    8      4.62      2.53
   11   17   10     -5.53     11.05
   11   17   12     11.08     -6.09
   11   17   14      5.75      9.97
   11   17   16      8.63      3.37
   11   17   22     13.33     -1.75
   11   17   24      0.07     -8.05
   11   17   26      0.40     -5.38
   11   17   28     -1.41      0.05
   11   18    1      3.17     21.29
   11   18    3     -5.38      2.48
   11   18    5     -0.18      3.51
   11   18    7     -7.31     10.71
   11   18    9      9.16      7.19
   11   18   11     -4.13     -9.72
   11   18   13      1.40      0.77
   11   18   15     -2.99     -7.79
   11   18   17      8.31     -5.50
   11   18   21     -9.22     -6.89
   11   18   23     -2.23     21.51
   11   18   25     -3.63      3.44
   11   18   27      3.11     -2.36
   11   19    0     -9.72     -3.19
   11   19    2    -21.51     -4.90
   11   19    4     -6.06     -4.93
   11   19    6      8.43     -6.99
   11   19    8     -5.28      0.08
   11   19   10     -0.80      7.81
   11   19   12     10.52     -3.51
   11   19   14     -8.89     -2.74
   11   19   16      5.52     -8.82
   11   19   18     -0.29      3.58
   11   19   22     12.26      3.44
   11   19   24      4.07      5.60
   11   19   26     -4.25     -2.90
   11   20    1     16.79      5.29
   11   20    3      0.54      5.04
   11   20    5     12.74     18.46
   11   20    7     -3.48      4.21
   11   20    9      7.05     -8.90
   11   20   11     10.27     15.03
   11   20   13    -17.59      7.68
   11   20   15     -7.92     -7.60
   11   20   17      1.30      5.49
   11   20   19     -3.05     13.87
   11   20   21     -0.97     -1.72
   11   20   23      8.01      1.97
   11   20   25      2.10      6.38
   11   20   27    -12.18     -4.50
   11   21    0      2.04      6.80
   11   21    2     27.82    -17.34
   11   21    4     -3.22     10.25
   11   21    6      4.29      5.78
   11   21    8      3.94      5.71
   11   21   10      2.67      3.20
   11   21   12    -28.27      3.96
   11   21   14     12.01     -3.04
   11   21   16     10.04     10.77
   11   21   18     -3.53      7.07
   11   21   20     -2.04      3.82
   11   21   22     -5.55     -7.78
   11   21   24     -4.66     -7.22
   11   21   26     13.58     -1.15
   11   22    1    -17.88     -8.74
   11   22    3    -10.88     -8.77
   11   22    5     11.43    -12.31
   11   22    7     17.62     -2.57
   11   22    9    -11.46      1.20
   11   22   11     -0.62     13.64
   11   22   13      5.25     -7.85
   11   22   15      1.79     -3.97
   11   22   17     -3.45      4.88
   11   22   19     -3.04     -6.94
   11   22   21     -8.87      2.25
   11   22   23     -2.93      1.62
   11   22   25      3.67     -8.42
   11   23    2     13.60     14.90
   11   23    4     -1.34     25.66
   11   23    6      4.04     12.36
   11   23    8     -3.00     -9.27
   11   23   10      2.93      1.45
   11   23   12      5.08      1.52
   11   23   14     -0.80     13.65
   11   23   16      2.94      2.27
   11   23   18      0.85     -1.68
   11   23   20      1.43      1.88
   11   23   22      2.09      1.38
   11   23   24     -3.70      1.83
   11   24    1     -2.56     -5.49
   11   24    3     -7.15     -3.34
   11   24    5      0.81     -1.27
   11   24    7    -27.30     -0.22
   11   24    9      8.39      3.70
   11   24   11     21.86     -4.36
   11   24   13      1.42     12.09
   11   24   15    -13.56     -7.05
   11   24   17     -2.62     -5.11
   11   24   19      0.93     -8.37
   11   24   21     -3.88      3.71
   11   24   23      5.54      0.56
   11   24   25      3.74      1.36
   11   25    2      4.97      3.75
   11   25    4     14.57    -12.28
   11   25    6      7.01     18.86
   11   25    8     -6.81      6.17
   11   25   10      3.80      3.25
   11   25   12     -1.28     -5.81
   11   25   14     -6.82    -10.87
   11   25   16     -1.96     -0.55
   11   25   18     -1.47      6.44
   11   25   20      7.43      1.42
   11   25   22      3.22      2.10
   11   25   24      2.49     -2.54
   11   26    1      5.62     10.87
   11   26    3    -31.15      3.04
   11   26    5      6.36      6.95
   11   26    7      6.77      0.15
   11   26    9     -0.15     -7.26
   11   26   11     -5.80      2.23
   11   26   13      4.30     11.34
   11   26   15      4.69     -2.96
   11   26   17     -2.59     -3.89
   11   26   19     -4.91      3.47
   11   26   21     10.16      2.33
   11   26   23      0.19      6.27
   11   27    2      3.01     -5.90
   11   27    4      3.40     -0.64
   11   27    6     -0.20      1.00
   11   27    8     -4.17     -0.15
   11   27   10      4.08     -7.58
   11   27   12     -0.28     15.44
   11   27   14      2.89      1.81
   11   27   16     -4.68     -1.46
   11   27   18     16.88      0.69
   11   27   20     -2.34      0.88
   11   27   22      3.42      0.68
   11   28    1     -5.92     -7.37
   11   28    3     -0.86      0.84
   11   28    5      6.30      3.38
   11   28    7     -1.22      1.74
   11   28    9     -2.50      7.09
   11   28   11      6.14      0.27
   11   28   13     -7.29     -4.02
   11   28   15     -3.17     -0.21
   11   28   17     -8.55     -6.47
   11   28   19     -1.76     -5.58
   11   28   21      6.03     -5.38
   11   29    0      5.48     -1.25
   11   29    2    -11.45      5.29
   11   29    4     -0.21     -6.10
   11   29    6     -4.12      1.96
   11   29    8      1.56      4.22
   11   29   10      1.49     10.34
   11   29   12      6.28     -3.89
   11   29   14      1.99      5.05
   11   29   16      0.28     -0.09
   11   29   18      1.58     -2.80
   11   29   20      1.95      6.04
   11   30    1     10.57      2.38
   11   30    3     -6.15     -0.91
   11   30    5     -6.80     -5.52
   11   30    7      4.37     -2.13
   11   30    9      2.67     -3.76
   11   30   11      6.15     -5.99
   11   30   13      9.72     -1.61
   11   30   15     -4.62     -1.53
   11   30   17     -4.28      4.07
   11   30   19      6.10     -6.01
   11   31    0     -9.67     -0.64
   11   31    2      4.86     -7.89
   11   31    4     -2.48     10.24
   11   31    6     -8.36     -2.10
   11   31    8     -6.09     -3.70
   11   31   10     -2.86     -7.23
   11   31   12     -4.30     -2.34
   11   31   14     -0.85      0.00
   11   31   16     -0.79      1.84
   11   31   18     -2.16     -6.44
   11   32    1    -14.45     -2.45
   11   32    3     -1.97     -3.98
   11   32    5      6.54     -8.79
   11   32    7      9.94      6.50
   11   32    9      5.91      6.70
   11   32   11     -2.00      1.94
   11   32   13      6.86     -6.78
   11   32   15      3.13     -6.12
   11   32   17     -4.77     -1.24
   11   33    0      1.35      1.82
   11   33    2      9.56      3.98
   11   33    4      1.67     -3.89
   11   33    6      9.09     -6.14
   11   33    8     -1.03     -0.25
   11   33   10     -2.64      3.31
   11   33   12      0.03     -3.34
   11   33   14     -5.91      8.07
   11   33   16     -0.55      6.66
   11   34    1     -3.72     -8.01
   11   34    3      0.78      0.94
   11   34    5      4.58      0.08
   11   34    7     -2.61     -0.06
   11   34    9     -9.37    -11.82
   11   34   11     -0.41     -2.39
   11   34   13      7.64      9.86
   11   34   15     -1.86     -1.02
   11   35    0     -3.26     -0.97
   11   35    2      2.38     -5.12
   11   35    4     -3.58      1.14
   11   35    6     -4.34      1.77
   11   35    8      1.45      7.71
   11   35   10     -1.30      1.33
   11   35   12     -1.44      1.17
   11   35   14      4.69     -6.14
   11   36    1     -5.33      1.89
   11   36    3     -1.19      1.01
   11   36    5     -2.17     -3.12
   11   36    7      1.87     -2.32
   11   36    9     -3.39      4.15
   11   36   11      0.06     -1.02
   11   36   13      7.65    -10.86
   11   37    0      7.59     -0.59
   11   37    2      1.10     -3.61
   11   37    4     -0.54     -0.92
   11   37    6      0.72      9.43
   11   37    8     -9.06     -2.89
   11   37   10      3.66    -16.18
   11   38    1      7.43     -4.99
   11   38    3      2.86     -6.53
   11   38    5      2.18     -4.33
   11   38    7      3.33     -2.04
   11   38    9     -4.72      4.31
   11   39    0    -10.55      1.31
   11   39    2     -2.32      0.91
   11   39    4     -4.34     -0.77
   -1   12    1     -7.35     15.07
   -1   12    3    -34.79      0.76
   -1   12    5      6.69    -36.93
   -1   12    7     -4.12      2.29
   -1   12    9    -10.63      6.43
   -1   12   11      5.37      2.58
   -1   12   13      7.43      2.21
   -1   12   15      8.61     -3.23
   -1   12   17     -4.56     -0.27
   -1   12   19     -0.25      8.95
   -1   12   21     -3.47      5.40
   -1   12   23      6.86      3.14
   -1   12   25     15.30     12.79
   -1   12   27     -2.70     -3.28
   -1   12   29      0.26      1.16
   -1   12   31      5.47      3.19
   -2   12    0     92.77    -19.68
   -2   12    2     -4.66     39.38
   -2   12    4    -11.39      2.94
   -2   12    6     16.73      4.46
   -2   12    8     28.80    -12.68
   -2   12   10     -2.35      9.59
   -2   12   12      4.93    -15.15
   -2   12   14      3.86      0.53
   -2   12   16     10.95      2.84
   -2   12   18     -6.67      1.82
   -2   12   20     -8.71      5.68
   -2   12   22      0.29    -11.00
   -2   12   24     12.57      8.49
   -2   12   26    -16.58      6.76
   -2   12   28     -3.88     -4.19
   -2   12   30     -3.56     -0.65
   -3   12    1     -2.01    -19.15
   -3   12    3     20.70      5.76
   -3   12    5      4.61    -30.54
   -3   12    7     10.39      9.95
   -3   12    9    -19.42      5.78
   -3   12   11      3.41    -10.79
   -3   12   13     13.62     -3.19
   -3   12   15      8.85      4.82
   -3   12   17     -9.50     11.14
   -3   12   19     11.53     -3.90
   -3   12   21      0.62     -2.24
   -3   12   23      6.57      8.21
   -3   12   25     14.31    -19.76
   -3   12   27     -7.30     -5.71
   -3   12   29     -0.98      6.43
   -3   12   31     -4.78      1.73
   -4   12    0     43.44     -4.32
   -4   12    2     -4.05      8.21
   -4   12    4     37.71     23.69
   -4   12    6    -47.78     10.12
   -4   12    8     15.95    -25.79
   -4   12   10      1.75     25.10
   -4   12   12    -11.48      6.86
   -4   12   14      3.04     -6.08
   -4   12   16    -10.14     -2.20
   -4   12   18     -2.75     -8.72
   -4   12   20    -10.84      8.13
   -4   12   22      2.56      0.61
   -4   12   24     -3.87     19.19
   -4   12   26     13.58      4.31
   -4   12   28     -5.51      3.03
   -4   12   30      0.79     -0.17
   -5   12    1      3.43     15.97
   -5   12    3    -22.65     24.71
   -5   12    5      5.64     -5.40
   -5   12    7      8.76    -28.43
   -5   12    9     12.55     12.85
   -5   12   11     -8.56      8.46
   -5   12   13     -5.56     -9.16
   -5   12   15      6.82     -0.60
   -5   12   17     11.08     -9.07
   -5   12   19     10.57      0.72
   -5   12   21     -4.44     -6.85
   -5   12   23     -4.18    -13.77
   -5   12   25     29.47    -26.79
   -5   12   27      1.67     -2.79
   -5   12   29     -0.60      3.89
   -5   12   31      6.04      8.48
   -6   12    0     -8.79      0.53
   -6   12    2      8.41     -2.98
   -6   12    4     -9.32    -11.50
   -6   12    6     17.87    -27.03
   -6   12    8    -13.45      0.04
   -6   12   10      5.50     -9.11
   -6   12   12      8.26      2.77
   -6   12   14      5.07      4.01
   -6   12   16     -0.77      3.45
   -6   12   18      1.55     -0.13
   -6   12   20      7.08      4.89
   -6   12   22     -8.30      2.80
   -6   12   28     -4.28     -9.67
   -6   12   30     17.02     -8.14
   -7   12    1    -23.42      9.49
   -7   12    3     36.90    -15.81
   -7   12    5     -9.93      0.28
   -7   12    7      5.97    -32.98
   -7   12    9     13.12      9.14
   -7   12   11    -23.21      6.11
   -7   12   13      1.40     -3.23
   -7   12   15      4.49     -1.09
   -7   12   17      6.77    -18.07
   -7   12   19    -20.96    -12.04
   -7   12   21     14.34    -10.35
   -7   12   27     -1.35     -3.44
   -7   12   29      0.19      4.59
   -8   12    0    -35.91     -2.79
   -8   12    2      8.55    -27.80
   -8   12    4    -30.23     18.90
   -8   12    6     10.18    -14.11
   -8   12    8     10.45      6.69
   -8   12   10     16.22      7.58
   -8   12   12     -4.51      9.08
   -8   12   14     -4.87    -20.98
   -8   12   16      0.60      4.97
   -8   12   18      0.72     21.24
   -8   12   20     -0.14     -5.73
   -8   12   28     -4.47      6.15
   -8   12   30     20.18    -14.98
   -9   12    1     -3.25     -0.84
   -9   12    3      5.54     20.09
   -9   12    5     11.09      1.61
   -9   12    7    -23.74     -5.80
   -9   12    9      8.62     14.99
   -9   12   11    -11.01      6.13
   -9   12   13     -5.08     -0.82
   -9   12   15    -14.45      3.86
   -9   12   17      0.10     17.82
   -9   12   19    -19.84      5.94
   -9   12   27      3.88     -5.96
   -9   12   29     -1.14      0.59
  -10   12    0     26.92     -0.99
  -10   12    2      4.25     12.56
  -10   12    4      8.83    -10.10
  -10   12    6     29.95     10.12
  -10   12    8     -8.75     11.32
  -10   12   10    -10.20      3.16
  -10   12   12      9.25     -8.83
  -10   12   14      1.88      2.29
  -10   12   16    -15.67     -0.63
  -10   12   18      0.65    -20.17
  -10   12   20      3.78      1.94
  -10   12   26     -8.39     -7.90
  -10   12   28     -0.18      0.14
  -10   12   30     -3.03     -2.88
  -11   12    1     10.21    -12.96
  -11   12    3     11.28     -4.81
  -11   12    5      5.54      7.88
  -11   12    7     15.48    -10.28
  -11   12    9      6.83      1.27
  -11   12   11     -7.19      1.46
  -11   12   13      1.79      2.26
  -11   12   15     -7.50     -0.81
  -11   12   17    -29.37      1.52
  -11   12   19     -1.20    -12.31
  -11   12   21      1.32     -2.01
  -11   12   27     -8.24      1.24
  -11   12   29     11.45     -1.24
   12   12    0      4.36     -2.67
   12   12    2      7.82     24.55
   12   12    4     -4.24     -0.56
   12   12    6    -12.51    -12.35
   12   12    8     -7.09      4.90
   12   12   10    -15.06      5.18
   12   12   12     -6.14     -2.29
   12   12   14     -6.30      0.65
   12   12   16     13.26      4.57
   12   12   18    -10.57     -5.57
   12   12   20      3.22      4.49
   12   12   22      3.55     -1.52
   12   12   26     12.60     -1.34
   12   12   28     -0.87     -0.05
   12   13    1      7.42      7.31
   12   13    3    -21.94     21.88
   12   13    5     -3.60      8.95
   12   13    7     -4.42    -15.29
   12   13    9      2.36      0.47
   12   13   11      6.34     -4.15
   12   13   13     -7.74      6.55
   12   13   15     -6.69     -6.93
   12   13   17     11.50     -1.05
   12   13   19     29.34    -10.45
   12   13   21    -20.06     -7.74
   12   13   23     -9.62     -0.83
   12   13   25     -1.58     -2.15
   12   13   27     15.74     -0.45
   12   13   29      3.26      4.47
   12   14    0    -32.30     -1.52
   12   14    2      4.52    -14.43
   12   14    4     -0.20     -7.45
   12   14    6    -14.07    -12.50
   12   14    8     -1.48    -16.67
   12   14   10     -7.67    -12.07
   12   14   12     15.00     -4.66
   12   14   14      3.25      4.22
   12   14   16      4.41      6.53
   12   14   18    -17.04     21.29
   12   14   20     -7.46    -10.74
   12   14   22      3.03     23.07
   12   14   24     -3.26      2.85
   12   14   26     -3.21     -4.77
   12   14   28     -4.96      3.66
   12   15    1     12.82     -8.75
   12   15    3      3.04     17.73
   12   15    5     -4.27      7.99
   12   15    7      3.10     -1.38
   12   15    9     -5.93    -10.54
   12   15   11      6.99    -10.85
   12   15   13      6.78     -1.25
   12   15   15      7.57     -3.77
   12   15   17      4.72    -12.98
   12   15   19    -21.60     -3.49
   12   15   21     36.51      4.26
   12   15   23      7.87     -6.98
   12   15   25     -4.85      6.37
   12   15   27     -0.19     -1.59
   12   16    0     -7.33      3.69
   12   16    2    -13.85    -12.77
   12   16    4     -0.29     16.65
   12   16    6     -8.72     -5.02
   12   16    8      6.04     -8.73
   12   16   10     14.33      9.46
   12   16   12     12.60      8.71
   12   16   14     -7.01     -5.29
   12   16   16      4.92     -5.02
   12   16   18     14.14     36.51
   12   16   20      9.81      2.31
   12   16   22     -7.50     -1.75
   12   16   24     -4.60      4.70
   12   16   26      4.94     -0.78
   12   16   28     15.64     13.29
   12   17    1      4.40      1.23
   12   17    3     -8.29     14.19
   12   17    5     -4.12    -14.31
   12   17    7      1.05      6.41
   12   17    9     -0.82      9.04
   12   17   11      4.41     -0.02
   12   17   13     -6.13     -0.52
   12   17   15     -2.42     -2.08
   12   17   17      0.21     -4.09
   12   17   19     27.57     -4.53
   12   17   21      0.55      2.10
   12   17   23     -0.63     28.19
   12   17   25     -4.21      3.07
   12   17   27      3.18     -8.50
   12   18    0     11.64     -0.39
   12   18    2      0.59     11.51
   12   18    4      5.92     -1.07
   12   18    6     -6.27      3.95
   12   18    8     -4.40     -7.35
   12   18   10    -12.36      3.20
   12   18   12      7.38      2.63
   12   18   14    -12.06     -1.89
   12   18   16     13.22     -6.61
   12   18   18     -9.28      1.51
   12   18   20      6.05    -21.89
   12   18   22     28.36    -13.90
   12   18   24     -9.14     -3.07
   12   18   26     -1.20     -2.78
   12   19    1      6.11     -2.34
   12   19    3      1.87     -7.87
   12   19    5     10.76      6.34
   12   19    7     -4.11      3.44
   12   19    9     -1.77    -18.21
   12   19   11      3.47     -6.25
   12   19   13     -1.39      5.13
   12   19   15      6.89     -0.30
   12   19   17     -0.32      5.04
   12   19   19    -20.12     18.57
   12   19   21    -18.83     46.65
   12   19   23     -2.47     -5.62
   12   19   25      3.64     -6.63
   12   19   27     16.88      8.57
   12   20    0    -16.14     -3.37
   12   20    2      5.68     -1.12
   12   20    4      4.68     24.68
   12   20    6     -0.58     -2.11
   12   20    8      8.30      1.39
   12   20   10      6.68      5.98
   12   20   12    -11.16      0.90
   12   20   14      2.76     -5.54
   12   20   16      4.31      5.52
   12   20   18      6.05      9.80
   12   20   20     13.31    -10.62
   12   20   22     -4.55     -6.71
   12   20   24      3.87      0.99
   12   20   26      2.40     -4.46
   12   21    1     -4.31      0.49
   12   21    3      0.51     -4.16
   12   21    5    -10.05    -20.66
   12   21    7      6.27     -2.84
   12   21    9      6.66     12.40
   12   21   11      4.45      0.34
   12   21   13      4.04     -5.18
   12   21   15      7.44     11.73
   12   21   17     -3.98     -9.86
   12   21   19     -0.91     -2.57
   12   21   21     -6.29     -2.52
   12   21   23      1.00     -3.42
   12   21   25      2.55     -4.67
   12   22    0     10.46     -1.02
   12   22    2      1.06     -6.65
   12   22    4     -9.65     15.72
   12   22    6     14.27     -1.79
   12   22    8     -2.81    -10.51
   12   22   10     15.66     11.40
   12   22   12    -13.45     11.00
   12   22   14     -6.55      4.52
   12   22   16      2.56      3.74
   12   22   18     -8.39      6.91
   12   22   20      0.61      8.72
   12   22   22     -4.85     -0.87
   12   22   24     -2.51     -0.33
   12   23    1      0.14     20.22
   12   23    3     -3.53      1.49
   12   23    5      6.53      5.40
   12   23    7     13.35     14.54
   12   23    9      0.95      5.61
   12   23   11     -0.14      0.88
   12   23   13      2.11      3.70
   12   23   15     -4.56    -11.74
   12   23   17     -4.28     -0.52
   12   23   19      3.09      0.46
   12   23   21      0.43      0.88
   12   23   23      4.09     -1.49
   12   23   25     -4.78    -11.39
   12   24    0     -3.79     11.19
   12   24    2      9.36      7.61
   12   24    4      4.87     22.34
   12   24    6    -17.57     -3.03
   12   24    8    -10.32    -14.10
   12   24   10      3.94      3.43
   12   24   12      2.46      3.37
   12   24   14     -5.01      1.08
   12   24   16      2.76     -5.48
   12   24   18      4.47     -1.00
   12   24   20      0.50      1.67
   12   24   22      3.46      0.64
   12   24   24     -7.03      0.12
   12   25    1      4.11      2.93
   12   25    3    -15.66     -9.12
   12   25    5     10.60    -22.31
   12   25    7      7.77     -2.42
   12   25    9     -9.21      3.53
   12   25   11     -9.24     -9.87
   12   25   13     -3.65      4.71
   12   25   15      6.00     13.10
   12   25   17      7.90      6.79
   12   25   19     -3.95     -5.84
   12   25   21      1.47     -3.29
   12   25   23      5.36     12.61
   12   26    0     21.06     -3.90
   12   26    2      2.06     26.26
   12   26    4      9.02     -1.64
   12   26    6     20.56     17.29
   12   26    8     -5.10      6.97
   12   26   10     12.82      0.47
   12   26   12     -4.43      4.22
   12   26   14     -3.63     -5.00
   12   26   16     -1.01     -5.68
   12   26   18      4.42     -0.07
   12   26   20      1.61    -10.30
   12   26   22     -0.19      7.53
   12   27    1    -26.71     -1.89
   12   27    3    -30.89      0.93
   12   27    5     -3.44      3.97
   12   27    7     -4.89     13.62
   12   27    9      1.62      2.27
   12   27   11      8.15     -5.87
   12   27   13      0.57      0.25
   12   27   15     -2.32      7.41
   12   27   17     -1.32     -8.66
   12   27   19     -5.97     -0.11
   12   27   21      2.47     -1.21
   12   28    0     11.23     -0.78
   12   28    2      8.73     -1.40
   12   28    4      6.38     -0.96
   12   28    6     -6.06     -5.31
   12   28    8     -5.07    -11.83
   12   28   10     -5.56     -3.69
   12   28   12    -11.42      3.38
   12   28   14     -1.98     -1.39
   12   28   16     -1.77     -0.76
   12   28   18      6.37      3.93
   12   28   20     -3.10      9.20
   12   29    1     -0.86      2.74
   12   29    3      1.12      2.34
   12   29    5      4.54      3.66
   12   29    7      4.94     -9.38
   12   29    9     13.77     -2.01
   12   29   11     -6.64      3.93
   12   29   13      5.58     -0.79
   12   29   15      5.92    -13.76
   12   29   17      1.82     -0.44
   12   29   19      2.68     -8.75
   12   29   21      6.42      0.45
   12   30    0      5.11     -0.69
   12   30    2    -12.90      1.43
   12   30    4      1.60      7.70
   12   30    6     10.70     -2.93
   12   30    8     -3.40      1.73
   12   30   10      1.49      5.72
   12   30   12     -2.75     -0.23
   12   30   14     -0.95      3.40
   12   30   16      3.93      6.38
   12   30   18     -0.24     -0.95
   12   30   20      4.01     -4.53
   12   31    1    -13.93      9.03
   12   31    3     -1.63      4.39
   12   31    5     -3.50    -10.04
   12   31    7      7.01     -1.29
   12   31    9      2.39     -3.44
   12   31   11      7.65      1.71
   12   31   13    -13.59     -5.82
   12   31   15     -1.24     -2.76
   12   31   17      2.36     -1.02
   12   31   19     -1.01      0.65
   12   32    0      5.76     -0.16
   12   32    2     10.97     -2.93
   12   32    4      4.83     12.71
   12   32    6      2.37      5.34
   12   32    8     -7.79     -3.96
   12   32   10      0.78     -6.53
   12   32   12      5.39      6.05
   12   32   14     -2.57      3.42
   12   32   16      0.73      5.78
   12   32   18     -4.05     -7.04
   12   33    1     -2.46     -0.04
   12   33    3     -4.64      1.75
   12   33    5      5.02     -5.40
   12   33    7     -3.45      7.70
   12   33    9     -0.07     -3.24
   12   33   11     -0.71      4.50
   12   33   13      8.15      2.66
   12   33   15     -0.09      0.85
   12   33   17     -0.95     -0.25
   12   34    0     -1.05      0.48
   12   34    2     -3.86      8.71
   12   34    4    -13.07     -1.76
   12   34    6      4.95     -3.98
   12   34    8      3.85      3.21
   12   34   10      6.72      1.31
   12   34   12      3.69     -6.46
   12   34   14     -9.22    -15.71
   12   35    1     -2.91     -6.62
   12   35    3      3.43     -9.60
   12   35    5      0.22      2.13
   12   35    7     -5.04     -6.85
   12   35    9      3.52     -1.63
   12   35   11      3.81     -7.88
   12   35   13      1.41      0.87
   12   36    0      0.70     -0.09
   12   36    2      6.44      4.15
   12   36    4     11.61      9.50
   12   36    6     -4.99      0.73
   12   36    8     -4.00     -4.64
   12   36   10     -3.76      3.68
   12   36   12    -10.70     -6.06
   12   37    1     -4.33     -3.04
   12   37    3      3.75      0.02
   12   37    5      2.07     -0.13
   12   37    7      8.19      0.33
   12   37    9     -4.00     -2.44
   12   38    0    -14.57     -0.16
   12   38    2     -4.79    -13.77
   12   38    4     -6.22     -0.09
   12   38    6      2.08      1.69
   12   38    8     -3.97      8.14
   12   39    1      0.12     -0.72
   12   39    3     -0.51     -4.15
   -1   13    0     15.52     -1.98
   -1   13    2     10.37    -17.31
   -1   13    4     32.74    -18.78
   -1   13    6      8.75     28.54
   -1   13    8     -7.77     12.85
   -1   13   10     21.19     10.28
   -1   13   12     13.96     -8.01
   -1   13   14     -9.21      8.27
   -1   13   16      7.39     -2.89
   -1   13   18      2.01      0.69
   -1   13   20      0.66     13.17
   -1   13   22     -4.80     -6.37
   -1   13   24      4.77     -9.07
   -1   13   26      9.03     -8.80
   -1   13   28     -1.22      3.58
   -1   13   30      9.82      3.91
   -2   13    1     -2.86     -2.26
   -2   13    3    -15.39    -18.77
   -2   13    5     24.07     18.07
   -2   13    7    -20.73     31.92
   -2   13    9    -12.51     -4.98
   -2   13   11     -6.65    -19.44
   -2   13   13     -2.37     11.18
   -2   13   15     -1.76     13.61
   -2   13   17     -1.42      1.90
   -2   13   19      6.81      2.06
   -2   13   21      2.39     -5.96
   -2   13   23     -5.29     15.35
   -2   13   25    -18.58     15.82
   -2   13   27      1.42     -6.08
   -2   13   29     -0.63      4.07
   -3   13    0    -27.56      6.98
   -3   13    2      3.99    -23.74
   -3   13    4     36.70     13.19
   -3   13    6      6.63     19.28
   -3   13    8     27.26    -28.77
   -3   13   10     -4.14     -4.80
   -3   13   12      8.08     -8.93
   -3   13   14     -1.67     13.49
   -3   13   16      5.90     -7.62
   -3   13   18     -7.57    -13.12
   -3   13   20    -15.18     -8.71
   -3   13   22     18.12    -21.07
   -3   13   24      1.21     17.46
   -3   13   26     -6.43      5.74
   -3   13   28      1.57     -1.84
   -3   13   30      6.54     -9.48
   -4   13    1     -1.51    -24.17
   -4   13    3    -15.82     -0.36
   -4   13    5    -21.56    -30.23
   -4   13    7     -0.28    -20.82
   -4   13    9     16.94      1.31
   -4   13   11      2.96     -5.93
   -4   13   13     18.23      3.99
   -4   13   15     -2.77      7.82
   -4   13   17     10.89      2.64
   -4   13   19     11.97     15.15
   -4   13   21    -11.21     -3.39
   -4   13   23      9.07     -7.25
   -4   13   25     49.95    -28.39
   -4   13   29     -6.23     -5.71
   -5   13    0     10.54     -4.23
   -5   13    2    -13.58     28.59
   -5   13    4     -9.18    -28.74
   -5   13    6      6.58     -9.00
   -5   13    8     -8.99      1.63
   -5   13   10     -9.36     -9.52
   -5   13   12     11.35     -4.82
   -5   13   14     15.75      6.39
   -5   13   16    -11.10     10.20
   -5   13   18     -2.42     -8.83
   -5   13   20      7.95      8.04
   -5   13   22     -5.21      3.47
   -5   13   24    -25.42     42.88
   -5   13   28      1.38     16.06
   -5   13   30      1.31      0.15
   -6   13    1    -17.61    -32.96
   -6   13    3    -27.13     -9.67
   -6   13    5      0.61     -8.09
   -6   13    7     13.43     12.56
   -6   13    9      4.59    -22.10
   -6   13   11     14.78      2.41
   -6   13   13    -16.27     -4.05
   -6   13   15     -3.73     -9.67
   -6   13   17     10.47     -3.64
   -6   13   19      4.85     -0.28
   -6   13   21      5.27     -5.75
   -6   13   23    -11.61    -34.25
   -6   13   29      9.25      3.04
   -7   13    0     23.02      0.83
   -7   13    2     -4.13    -20.16
   -7   13    4      8.18     25.10
   -7   13    6     -3.81     -2.03
   -7   13    8     -9.66      6.85
   -7   13   10      9.93     -6.40
   -7   13   12     -3.79      8.93
   -7   13   14      2.93     -9.43
   -7   13   16     12.35      4.98
   -7   13   18    -19.12     11.54
   -7   13   20    -13.32    -16.27
   -7   13   22     23.10     12.67
   -7   13   28     -3.86     -6.81
   -7   13   30      5.77     -0.62
   -8   13    1     22.52     19.64
   -8   13    3     39.97    -18.51
   -8   13    5      0.30      9.14
   -8   13    7      2.63     -4.78
   -8   13    9      6.26      6.19
   -8   13   11      3.81     -2.79
   -8   13   13    -11.62      3.00
   -8   13   15     -1.35     -1.01
   -8   13   17      0.25     -5.55
   -8   13   19      0.84     -0.45
   -8   13   27      0.76      8.66
   -8   13   29     -7.73     -7.97
   -9   13    0    -18.94    -16.93
   -9   13    2      8.02    -12.99
   -9   13    4    -17.06      6.86
   -9   13    6     29.76      1.84
   -9   13    8     -2.73     10.54
   -9   13   10    -24.79    -24.96
   -9   13   12      7.44     -0.85
   -9   13   14      3.98     -4.76
   -9   13   16    -12.32      2.82
   -9   13   18      4.81     -8.15
   -9   13   20     -2.67      9.11
   -9   13   28      2.96    -11.85
   -9   13   30      6.38      3.52
  -10   13    1     16.35     33.96
  -10   13    3     -4.37     -8.23
  -10   13    5     10.24     18.02
  -10   13    7    -16.77    -13.90
  -10   13    9     14.72     31.18
  -10   13   11    -28.18      2.98
  -10   13   13     -2.70      9.83
  -10   13   15    -14.50     -4.34
  -10   13   17    -14.39    -15.10
  -10   13   19    -11.88    -13.22
  -10   13   21     -1.54      7.24
  -10   13   27     -2.42     -0.34
  -10   13   29      1.03      4.60
  -11   13    0    -10.34      3.77
  -11   13    2     -8.45      9.10
  -11   13    4      8.82     18.65
  -11   13    6    -18.23    -10.71
  -11   13    8      1.07    -13.83
  -11   13   10      7.93      4.34
  -11   13   12     -5.67      6.55
  -11   13   14    -17.21     -3.52
  -11   13   16     11.24     -7.27
  -11   13   18      6.15      4.44
  -11   13   20     -1.65     10.60
  -11   13   22     -1.04     -0.14
  -11   13   28     -0.29     -1.96
  -12   13    1     13.71    -12.25
  -12   13    3     -1.11     -9.26
  -12   13    5      5.24     13.14
  -12   13    7      5.34     -5.23
  -12   13    9     -5.30    -11.79
  -12   13   11     -2.60     -8.27
  -12   13   13     -1.89      0.27
  -12   13   15      4.19     -9.09
  -12   13   17      2.48      9.19
  -12   13   19      0.01     10.32
  -12   13   21    -15.76     -5.27
  -12   13   27     -3.17      6.23
  -12   13   29      6.28      1.74
   13   13    0     10.33      1.51
   13   13    2     20.67     -3.62
   13   13    4     -4.47     -8.04
   13   13    6     -4.53      2.42
   13   13    8      3.33     -1.47
   13   13   10    -10.28      7.06
   13   13   12      0.23    -17.08
   13   13   14      6.53      7.91
   13   13   16      8.20     -8.08
   13   13   18    -14.83      1.28
   13   13   20    -10.90     -3.86
   13   13   22      6.96      8.85
   13   13   26     -3.09      2.48
   13   13   28     -7.31    -10.22
   13   14    1    -15.66     -4.39
   13   14    3    -22.86     34.63
   13   14    5     -9.62    -22.95
   13   14    7     29.63      7.63
   13   14    9     -5.32      5.58
   13   14   11     -5.53     -3.24
   13   14   13     -0.50      4.37
   13   14   15     -0.42     -1.24
   13   14   17      5.18    -16.96
   13   14   19     16.18     -1.21
   13   14   21      7.42      8.58
   13   14   23     -4.53      2.87
   13   14   27      4.79     -6.05
   13   15    0      2.51      0.01
   13   15    2      9.25      7.89
   13   15    4     -6.46     16.59
   13   15    6    -29.22    -19.04
   13   15    8      3.20     -7.84
   13   15   10      9.80      4.12
   13   15   12     -2.79     12.85
   13   15   14     -8.15    -10.26
   13   15   16      6.62     -2.88
   13   15   18     -5.50     19.20
   13   15   20     -5.34    -18.49
   13   15   22     26.07     17.22
   13   15   24      6.98     -5.63
   13   15   26      1.26      0.69
   13   15   28     -3.49     12.59
   13   16    1      6.77      0.84
   13   16    3     10.71     14.33
   13   16    5      9.51      9.11
   13   16    7     -2.29      7.75
   13   16    9     -4.91    -11.70
   13   16   11     12.06     -9.73
   13   16   13     -7.33      0.48
   13   16   15      9.14      7.21
   13   16   17     17.66     -2.68
   13   16   19     -4.68     13.97
   13   16   21    -21.39      0.21
   13   16   23      3.29     -6.27
   13   16   25      7.32      4.03
   13   16   27     -1.76     -0.10
   13   17    0      1.60     -0.18
   13   17    2     -2.34     -6.38
   13   17    4     -3.36     -9.83
   13   17    6     -5.86      0.47
   13   17    8      2.25      1.51
   13   17   10     -0.42     -3.43
   13   17   12     -1.80      3.97
   13   17   14    -11.81     -5.13
   13   17   16      7.25     -7.74
   13   17   18    -26.93      2.62
   13   17   20      6.81     18.87
   13   17   22      3.35      7.05
   13   17   24     -2.74      7.76
   13   17   26     -4.96     -4.09
   13   18    1      3.36    -13.69
   13   18    3     -6.11      7.36
   13   18    5     11.33     18.18
   13   18    7     16.20     -7.10
   13   18    9      3.49     -2.14
   13   18   11      6.61     -4.68
   13   18   13      2.66     -0.82
   13   18   15      3.05     10.72
   13   18   17    -10.43      6.54
   13   18   19     14.21    -14.75
   13   18   21     -1.11      0.58
   13   18   23      2.97      3.99
   13   18   25      8.63      2.65
   13   18   27     16.43      0.34
   13   19    0     12.92      0.67
   13   19    2     -5.72      1.21
   13   19    4     -5.99      0.24
   13   19    6    -16.03     -6.91
   13   19    8     12.45    -14.36
   13   19   10      2.04      2.57
   13   19   12     -8.70      5.58
   13   19   14      9.21      7.55
   13   19   16     12.08      1.91
   13   19   18     -1.18      6.62
   13   19   20     32.43    -17.46
   13   19   22      3.40     -1.62
   13   19   24      1.32     -8.89
   13   19   26     -4.94     -5.65
   13   20    1    -10.69     -3.15
   13   20    3     -2.40     -4.72
   13   20    5      3.92    -19.94
   13   20    7     -2.69      2.03
   13   20    9    -13.54     -1.03
   13   20   11     11.85      9.26
   13   20   13      4.42     -1.72
   13   20   15      2.25     11.53
   13   20   17      0.64    -11.14
   13   20   19    -14.20     16.58
   13   20   21    -23.94     16.58
   13   20   23     -0.15     -1.40
   13   20   25      5.79      1.47
   13   21    0     -7.41     -4.20
   13   21    2      7.85     -1.39
   13   21    4    -12.32     14.89
   13   21    6     16.01     13.09
   13   21    8      7.12      8.64
   13   21   10      4.96      0.45
   13   21   12     -3.21     11.09
   13   21   14     -6.77      3.21
   13   21   16      2.73     -5.55
   13   21   18      4.78      0.69
   13   21   20    -30.32    -18.94
   13   21   22     10.55      3.28
   13   21   24     -0.48     -1.86
   13   21   26      0.45      8.69
   13   22    1     16.57     -6.27
   13   22    3     13.33      8.71
   13   22    5    -17.66      1.15
   13   22    7      6.37     13.86
   13   22    9      0.97      8.03
   13   22   11      3.24    -17.00
   13   22   13      4.61     -5.81
   13   22   15     -6.01      2.05
   13   22   17      2.66     -2.84
   13   22   19     13.21     17.40
   13   22   21      5.52      3.61
   13   22   23     -2.34      0.12
   13   22   25      1.72     -9.91
   13   23    0     15.70     -0.40
   13   23    2      9.75     -2.73
   13   23    4      8.97     22.78
   13   23    6      8.48     -3.17
   13   23    8     -2.87    -11.92
   13   23   10     16.29      4.08
   13   23   12     -3.23      7.98
   13   23   14     -4.95      3.30
   13   23   16     -7.51      5.33
   13   23   18     -8.13      3.18
   13   23   20      7.17     -1.99
   13   23   22      7.22     -3.94
   13   23   24     -1.94      0.39
   13   24    1      0.01     -1.86
   13   24    3    -14.19    -11.09
   13   24    5    -15.28      7.59
   13   24    7     14.54    -12.57
   13   24    9     -5.21      2.77
   13   24   11     -8.85     -2.94
   13   24   13     -1.34     13.04
   13   24   15     10.14     -3.39
   13   24   17      5.36     -4.73
   13   24   19     -3.39      1.87
   13   24   21     -4.08      3.77
   13   24   23      3.08     -1.31
   13   25    0    -12.66      0.61
   13   25    2      0.32     -4.18
   13   25    4      4.68     16.63
   13   25    6     -2.00      0.46
   13   25    8    -12.27     -5.76
   13   25   10     -1.38     -5.47
   13   25   12      7.18      1.70
   13   25   14     -1.37     -0.75
   13   25   16     -6.93     -5.59
   13   25   18     -6.44      5.01
   13   25   20      1.39      1.25
   13   25   22     -5.41     -1.62
   13   26    1    -11.86      2.40
   13   26    3    -17.64     -1.94
   13   26    5     -6.84    -14.94
   13   26    7     -7.66     12.43
   13   26    9      1.68     10.77
   13   26   11      5.54     -6.37
   13   26   13     10.08     -4.76
   13   26   15      0.21      6.13
   13   26   17      4.88      7.57
   13   26   19     -1.16     -1.15
   13   26   21     -1.91     -0.18
   13   26   23      9.23      0.31
   13   27    0     32.87     -0.82
   13   27    2     14.25      0.16
   13   27    4     -4.35     11.48
   13   27    6     10.46     -0.34
   13   27    8      0.89     -3.34
   13   27   10      5.40      6.33
   13   27   12     -4.63     -3.57
   13   27   14     -0.91     -7.38
   13   27   16     -4.04     -0.90
   13   27   18      5.01      0.35
   13   27   20      2.36     -0.52
   13   27   22     -5.15      8.01
   13   28    1     -6.65    -16.59
   13   28    3     -0.74    -10.28
   13   28    5     -8.42     -0.61
   13   28    7      1.55     -7.82
   13   28    9     15.16      2.75
   13   28   11     -6.02     10.50
   13   28   13     -2.62      1.96
   13   28   15      0.28     -0.56
   13   28   17     -0.80     -9.09
   13   28   19     -3.17      0.77
   13   28   21      9.61      5.96
   13   29    0    -23.92      0.64
   13   29    2     -0.81     18.44
   13   29    4     11.69     17.47
   13   29    6      0.50      5.96
   13   29    8     -6.30     -8.85
   13   29   10     -1.01     -0.61
   13   29   12    -13.89      0.17
   13   29   14     -0.47     -5.90
   13   29   16     -0.54     -1.36
   13   29   18      1.57      2.85
   13   29   20      5.51     -5.91
   13   30    1     -8.90    -12.39
   13   30    3     -6.79     -5.87
   13   30    5    -10.22    -10.38
   13   30    7     -9.37      4.08
   13   30    9      0.08     -0.98
   13   30   11      4.47      4.04
   13   30   13      2.24      1.79
   13   30   15      5.43     -4.89
   13   30   17     -1.92     -0.52
   13   30   19     -0.98     -4.58
   13   31    0     13.95      1.18
   13   31    2      3.36     -8.30
   13   31    4      0.59      3.29
   13   31    6      2.63     -1.85
   13   31    8      1.47     -6.52
   13   31   10      6.51     -2.10
   13   31   12      1.50      7.84
   13   31   14      3.37      1.83
   13   31   16      2.89      2.00
   13   31   18      0.10      0.59
   13   32    1     -4.26      4.10
   13   32    3     -6.08     -4.07
   13   32    5      6.41      2.62
   13   32    7      0.96      3.38
   13   32    9     -1.68      4.24
   13   32   11     -2.33     -0.26
   13   32   13      2.65     -4.77
   13   32   15     -6.29     -5.45
   13   32   17      2.01      2.89
   13   33    0      1.12     -0.42
   13   33    2     -0.40     -3.31
   13   33    4      0.87     -5.66
   13   33    6     -0.99      2.73
   13   33    8      0.66     10.16
   13   33   10     -8.74     -0.12
   13   33   12     -1.58     -0.60
   13   33   14      6.57     -1.57
   13   33   16     11.60     -5.40
   13   34    1      6.34      1.40
   13   34    3      2.86      3.74
   13   34    5      2.96      7.14
   13   34    7      1.43     -0.96
   13   34    9      7.62     -7.39
   13   34   11     -0.28     -7.08
   13   34   13     -3.77     -1.05
   13   34   15     -4.96      5.20
   13   35    0     -2.69      1.19
   13   35    2      6.42     -0.42
   13   35    4     -2.60      3.76
   13   35    6      0.40     -4.77
   13   35    8     -4.48     -7.36
   13   35   10     -2.18      5.67
   13   35   12     -2.29     -0.16
   13   36    1     -0.22      0.73
   13   36    3      4.04     -4.26
   13   36    5     -3.86     -1.93
   13   36    7      0.13     -2.63
   13   36    9      7.73     -4.23
   13   36   11     -4.68     -1.79
   13   37    0     -4.28      0.11
   13   37    2     -4.03      3.24
   13   37    4     -0.84     10.61
   13   37    6      1.36     -4.01
   13   37    8      0.71     -2.98
   13   38    1     -4.94      6.32
   13   38    3      4.32     -2.22
   13   38    5      0.97     -3.14
   13   38    7      1.00     -4.61
   13   39    0      2.44      0.55
   -1   14    1    -12.22    -32.17
   -1   14    3    -10.60     30.68
   -1   14    5    -12.94    -29.59
   -1   14    7      9.75     -1.32
   -1   14    9     10.82    -11.58
   -1   14   11     11.91      4.68
   -1   14   13     -3.03     -8.46
   -1   14   15      1.78      5.52
   -1   14   17     -2.94      8.62
   -1   14   19      6.08     -4.46
   -1   14   21      1.71     -9.58
   -1   14   23      4.07      5.66
   -1   14   25     -2.79     25.76
   -1   14   27    -38.63    -28.74
   -1   14   29     -0.33    -12.44
   -2   14    0      1.96      0.08
   -2   14    2     -6.67     -5.31
   -2   14    4     16.85    -18.53
   -2   14    6      5.90      8.22
   -2   14    8      7.64     -7.43
   -2   14   10    -15.14     11.67
   -2   14   12     13.74     -1.93
   -2   14   14     19.72     10.68
   -2   14   16     -7.00     -0.08
   -2   14   18     -3.78      3.84
   -2   14   20     -4.59      2.61
   -2   14   22     -0.41     -9.13
   -2   14   24     14.42     -7.98
   -2   14   26     17.10      2.89
   -2   14   28     12.28     10.22
   -2   14   30     -0.56     -4.02
   -3   14    1    -35.32    -49.26
   -3   14    3     11.30      1.94
   -3   14    5     -0.76      2.61
   -3   14    7    -20.62      9.89
   -3   14    9     -5.94    -24.44
   -3   14   11     25.09      0.19
   -3   14   13     -8.25     16.82
   -3   14   15      3.32     15.88
   -3   14   17      4.60    -16.63
   -3   14   19     -0.97     10.96
   -3   14   21     -2.68     11.25
   -3   14   23     -2.06      0.19
   -3   14   25     16.81     32.17
   -3   14   27    -25.02     -5.65
   -3   14   29     -6.96      1.85
   -4   14    0     -5.05      8.20
   -4   14    2     -7.13    -30.60
   -4   14    4     -1.68     -2.61
   -4   14    6      2.58    -13.23
   -4   14    8     -2.80     -5.32
   -4   14   10      4.29     -2.83
   -4   14   12      9.98     -7.33
   -4   14   14     -4.20      6.22
   -4   14   16      2.57     -7.59
   -4   14   18     -2.19      4.28
   -4   14   20     -8.42      1.43
   -4   14   22      6.78    -21.06
   -4   14   24     -3.11     23.48
   -4   14   26    -16.35    -16.80
   -4   14   28     -2.64      6.54
   -4   14   30      7.53     -1.40
   -5   14    1     14.16     16.48
   -5   14    3      3.72     10.10
   -5   14    5      7.59     -1.54
   -5   14    7    -14.48      4.06
   -5   14    9     -2.12     -4.41
   -5   14   11     12.11      2.45
   -5   14   13     16.89     -2.75
   -5   14   15    -16.83     -6.78
   -5   14   17      9.94     -2.83
   -5   14   19     14.74      3.04
   -5   14   21    -13.80     12.44
   -5   14   23     20.01    -19.82
   -5   14   25     25.69    -36.30
   -5   14   29     -6.26      2.26
   -6   14    0     -0.84     -3.20
   -6   14    2      3.75     13.69
   -6   14    4      3.98     -6.85
   -6   14    6     11.58     -6.36
   -6   14    8      6.51      9.73
   -6   14   10     -6.34     -9.84
   -6   14   12      2.89      0.40
   -6   14   14     12.51     -2.21
   -6   14   16     -1.31     12.87
   -6   14   18    -19.25     -6.36
   -6   14   20     27.56    -13.43
   -6   14   22     17.76     -9.54
   -6   14   24    -33.98     42.30
   -6   14   28     10.35      2.86
   -6   14   30      2.91     -1.08
   -7   14    1    -15.75      0.03
   -7   14    3      2.58    -20.21
   -7   14    5     19.73     -1.57
   -7   14    7    -12.97     -7.04
   -7   14    9     -9.23     -8.78
   -7   14   11      9.46    -11.84
   -7   14   13     -0.12      6.50
   -7   14   15    -17.99     -4.47
   -7   14   17      1.23     -5.69
   -7   14   19     -2.76     -9.37
   -7   14   21    -18.56     10.25
   -7   14   23     -3.12      4.29
   -7   14   29      3.33     -1.64
   -8   14    0      3.56     -6.41
   -8   14    2     -9.82    -12.30
   -8   14    4      7.11     17.37
   -8   14    6    -12.00      1.51
   -8   14    8     -2.85     -2.50
   -8   14   10      1.13     -9.46
   -8   14   12     -0.90      5.72
   -8   14   14     -8.89      5.56
   -8   14   16     -3.61      2.09
   -8   14   18      2.49     -6.36
   -8   14   20    -11.39     -0.06
   -8   14   28      0.66     10.26
   -8   14   30     10.08      2.76
   -9   14    1    -10.79      3.43
   -9   14    3     -2.71      1.07
   -9   14    5     17.24     -0.14
   -9   14    7     14.95     12.26
   -9   14    9    -16.06      1.99
   -9   14   11      8.53     -9.59
   -9   14   13      0.71      5.36
   -9   14   15      4.25     -7.50
   -9   14   17      3.44      6.67
   -9   14   19      1.65    -10.45
   -9   14   29      4.13     -1.81
  -10   14    0      7.62     -3.46
  -10   14    2     31.31    -14.96
  -10   14    4     11.55     -4.65
  -10   14    6    -15.32     -4.15
  -10   14    8    -12.43     -3.10
  -10   14   10      2.10      0.77
  -10   14   12     -0.63      2.16
  -10   14   14     -0.42     -6.47
  -10   14   16      1.16      6.99
  -10   14   18     -1.70      6.31
  -10   14   20      1.94     -1.70
  -10   14   28     -1.05     -0.63
  -11   14    1     -5.24     10.27
  -11   14    3     16.97     -6.99
  -11   14    5     20.83     14.93
  -11   14    7     -4.92     -1.56
  -11   14    9    -10.20      5.29
  -11   14   11     -4.39      2.10
  -11   14   13     -1.38     -5.71
  -11   14   15     -4.39     -5.74
  -11   14   17      5.91      0.71
  -11   14   19     -8.52     -9.14
  -11   14   21      2.30    -15.64
  -11   14   27      4.37     -7.56
  -11   14   29     -7.10      6.17
  -12   14    0    -29.68     -0.94
  -12   14    2      1.47     13.80
  -12   14    4    -14.50     19.57
  -12   14    6      0.07     -8.53
  -12   14    8     -7.86      7.78
  -12   14   10      7.20     -9.33
  -12   14   12     -4.03      6.07
  -12   14   14    -14.93    -11.44
  -12   14   16      0.28     -4.26
  -12   14   18      8.58      6.22
  -12   14   20     -0.40     -4.15
  -12   14   22      3.35      8.49
  -12   14   28     -2.27     -3.71
  -13   14    1     13.76     -9.75
  -13   14    3      6.40    -10.11
  -13   14    5      8.69     18.77
  -13   14    7     -7.76      7.61
  -13   14    9     -4.99     -2.23
  -13   14   11     -1.34      0.22
  -13   14   13     -7.03     -8.77
  -13   14   15      3.70    -10.23
  -13   14   17     -5.27      3.67
  -13   14   19      0.69      5.60
  -13   14   21     10.12    -14.94
  -13   14   23     10.39     -3.69
  -13   14   27     -6.90      5.39
   14   14    0     28.70      1.55
   14   14    2     -2.07      5.06
   14   14    4      5.64     -4.82
   14   14    6      1.70     -4.20
   14   14    8      0.07     -5.41
   14   14   10     -5.88      1.55
   14   14   12      9.88    -18.25
   14   14   14     -3.13      1.01
   14   14   16     12.37     -8.20
   14   14   18      0.91     -2.35
   14   14   20     -5.75      2.38
   14   14   22     -9.13      5.88
   14   14   24      0.50      8.61
   14   14   26      6.75      0.55
   14   14   28     -0.69      2.31
   14   15    1     -7.88     -4.67
   14   15    3     -3.13      6.77
   14   15    5     -8.69     -7.20
   14   15    7     13.84     -4.67
   14   15    9     -2.93      2.93
   14   15   11      1.76      7.17
   14   15   13      0.87     -1.46
   14   15   15      1.81      5.42
   14   15   17     -6.50     11.33
   14   15   19     12.75     20.38
   14   15   21    -18.24     -5.83
   14   15   23     -5.77     12.38
   14   15   27      5.10     -6.79
   14   16    0     16.74      0.06
   14   16    2     -8.94      8.40
   14   16    4     12.54      3.58
   14   16    6     -7.87     -1.97
   14   16    8     -5.89      2.27
   14   16   10      6.75     23.90
   14   16   12      1.14     11.22
   14   16   14    -18.81     -6.05
   14   16   16      1.42      1.22
   14   16   18     -8.80      2.14
   14   16   20      6.39    -21.25
   14   16   22     11.15      0.38
   14   16   24      1.51     -3.62
   14   16   26     -0.43      2.85
   14   17    1    -14.64    -10.80
   14   17    3      6.24     -6.69
   14   17    5     -3.58    -12.25
   14   17    7     16.17     -8.61
   14   17    9      4.21    -22.96
   14   17   11     -6.86     -0.73
   14   17   13      2.60     -1.30
   14   17   15      6.71     -1.90
   14   17   17     17.51    -21.69
   14   17   19      4.70      5.65
   14   17   21    -16.29     24.61
   14   17   23     14.31    -21.93
   14   17   25      9.37      6.79
   14   17   27      0.84      1.87
   14   18    0     -2.31     -2.27
   14   18    2     -7.19     -6.20
   14   18    4      4.17      1.28
   14   18    6     -0.53     -2.61
   14   18    8     -7.53     10.99
   14   18   10     -3.82      3.78
   14   18   12     -1.26     -5.40
   14   18   14      4.23      4.47
   14   18   16     -8.12      8.38
   14   18   18     -6.48      4.67
   14   18   20     28.49     -5.66
   14   18   22     -6.17     11.93
   14   18   24     -2.13     19.31
   14   18   26     -6.07      4.10
   14   19    1      1.46     -0.72
   14   19    3     -0.20     24.55
   14   19    5    -16.04      0.82
   14   19    7      5.74      0.66
   14   19    9     -2.35     12.64
   14   19   11     14.61     10.19
   14   19   13      2.64     -2.88
   14   19   15      7.28      5.97
   14   19   17      0.11     -2.76
   14   19   19    -11.15     17.57
   14   19   21    -17.85    -25.52
   14   19   23     14.81     -1.71
   14   19   25      4.26      6.55
   14   20    0     16.45     -0.34
   14   20    2     -0.89    -10.10
   14   20    4     -7.78     -7.56
   14   20    6     17.61      1.13
   14   20    8      3.54      9.17
   14   20   10      7.64     -4.53
   14   20   12     -4.05    -15.08
   14   20   14     -5.39     -6.89
   14   20   16      1.65      4.98
   14   20   18      4.92      4.55
   14   20   20     -9.88    -20.20
   14   20   22      5.24     -0.57
   14   20   24     -2.29     -2.24
   14   20   26      7.25      5.50
   14   21    1     12.61      3.31
   14   21    3      5.81     18.23
   14   21    5     20.93      0.94
   14   21    7      7.82      0.86
   14   21    9    -26.28     -7.56
   14   21   11      1.83      4.09
   14   21   13     -0.58      3.58
   14   21   15     -8.88     -0.50
   14   21   17     -5.07      0.60
   14   21   19      2.93     42.13
   14   21   21     29.10      2.64
   14   21   23      0.12     -1.85
   14   21   25     -2.55    -10.91
   14   22    0    -28.72      2.75
   14   22    2      8.59      9.25
   14   22    4      2.18      1.30
   14   22    6      7.39    -12.70
   14   22    8     14.41      0.80
   14   22   10     -2.04      4.42
   14   22   12      4.32      9.28
   14   22   14      7.02      4.80
   14   22   16      4.02      1.65
   14   22   18      2.42     -0.04
   14   22   20    -29.84    -34.63
   14   22   22     -3.59      2.05
   14   22   24     -2.78      1.24
   14   23    1    -12.18    -10.54
   14   23    3      1.25    -10.79
   14   23    5    -24.93     -0.13
   14   23    7    -22.85    -10.55
   14   23    9      9.14     16.13
   14   23   11      9.74     -3.42
   14   23   13    -10.67      4.38
   14   23   15      2.29     -0.04
   14   23   17      6.78      0.26
   14   23   19     -1.91      1.50
   14   23   21     -2.08      3.36
   14   23   23     12.57      2.88
   14   24    0      2.08    -10.52
   14   24    2     18.50      8.28
   14   24    4     10.34     19.71
   14   24    6      5.14      6.64
   14   24    8      0.83    -10.17
   14   24   10      9.27     -8.02
   14   24   12      1.63     -1.58
   14   24   14     -1.49     -0.35
   14   24   16     -3.95     -1.98
   14   24   18     -6.59      2.20
   14   24   20      1.08      4.91
   14   24   22     -1.21      1.42
   14   24   24      5.22     -0.48
   14   25    1     -5.37    -10.75
   14   25    3     -2.60      9.53
   14   25    5    -11.23     12.72
   14   25    7     16.19      4.17
   14   25    9      2.87      2.36
   14   25   11     -4.01     -5.22
   14   25   13      9.51     -2.50
   14   25   15      8.27      9.97
   14   25   17      1.53      7.52
   14   25   19     -0.36     -2.49
   14   25   21     -1.57      6.32
   14   25   23     -6.30     -7.27
   14   26    0      4.05      8.90
   14   26    2     -3.58    -15.30
   14   26    4      7.96      8.08
   14   26    6     22.25     -2.52
   14   26    8    -14.21      5.43
   14   26   10     -1.86     -4.56
   14   26   12    -12.35      7.10
   14   26   14     -4.49     -2.09
   14   26   16     -4.23     -0.53
   14   26   18      1.03     -1.84
   14   26   20     -2.47     -0.10
   14   26   22      0.23     -1.15
   14   27    1    -21.72      9.98
   14   27    3     14.80     -2.65
   14   27    5     -6.89    -20.26
   14   27    7    -13.42     -6.10
   14   27    9     -0.88      2.93
   14   27   11     -2.91     -0.07
   14   27   13     -0.66      4.28
   14   27   15      1.82      2.81
   14   27   17      2.46     -1.53
   14   27   19     -0.65     -2.50
   14   27   21      5.80     -0.80
   14   28    0    -12.29     -0.52
   14   28    2     -7.81      8.52
   14   28    4     -2.29     32.91
   14   28    6     -2.31     -0.97
   14   28    8     -1.92     -7.61
   14   28   10      4.84      1.96
   14   28   12      4.41     -1.08
   14   28   14      4.60     -0.19
   14   28   16      1.17     -1.72
   14   28   18      3.46     -2.29
   14   28   20     -2.34     -3.96
   14   29    1      9.88    -23.50
   14   29    3     -7.77    -15.40
   14   29    5      0.84      0.49
   14   29    7     -4.03      0.05
   14   29    9      5.67      2.47
   14   29   11      2.05     -2.57
   14   29   13     -8.46      7.37
   14   29   15     -5.36      1.15
   14   29   17      4.20     -1.46
   14   29   19      2.48      2.88
   14   30    0    -29.41     -1.12
   14   30    2     -7.73      3.10
   14   30    4      0.28     -7.41
   14   30    6      1.88      4.35
   14   30    8      6.58     -2.13
   14   30   10      1.66     -4.96
   14   30   12      7.76    -11.10
   14   30   14     -6.24     -3.76
   14   30   16     -0.76      0.31
   14   30   18      6.21      5.64
   14   31    1      2.74      2.12
   14   31    3      2.80     13.32
   14   31    5     -6.99      1.00
   14   31    7     -5.70      4.05
   14   31    9      5.79      6.59
   14   31   11     -2.10     -2.14
   14   31   13      8.16      2.44
   14   31   15     -3.19      3.16
   14   31   17     -0.82     -1.32
   14   32    0      1.50      1.72
   14   32    2      3.70      1.31
   14   32    4      5.19      5.14
   14   32    6     -4.00     -4.13
   14   32    8     -1.29     -5.79
   14   32   10     -8.98     -0.37
   14   32   12     -1.12     -2.47
   14   32   14      3.84     -4.03
   14   32   16      0.38     -6.57
   14   33    1     -5.72     -0.49
   14   33    3      1.10     -4.64
   14   33    5     12.99      7.76
   14   33    7      2.48     -6.27
   14   33    9      1.18     -4.10
   14   33   11      3.35     -6.18
   14   33   13     -7.56      5.69
   14   33   15     -7.92     -0.96
   14   34    0      3.49     -0.69
   14   34    2      0.56     -3.49
   14   34    4     -4.74     -1.09
   14   34    6     -0.44     -5.84
   14   34    8      1.46      3.80
   14   34   10     -0.53      9.87
   14   34   12      0.09      3.49
   14   34   14     -5.85      2.24
   14   35    1     -0.65      9.96
   14   35    3      5.03     11.39
   14   35    5     -1.62      5.14
   14   35    7     -2.07      7.05
   14   35    9      5.39     -6.59
   14   35   11     -4.28     -6.76
   14   35   13     16.80     -9.20
   14   36    0     -8.02      0.72
   14   36    2     -1.02     -8.54
   14   36    4     -3.88      0.42
   14   36    6     -0.83     -4.27
   14   36    8     -8.39     -4.63
   14   36   10      1.35      7.93
   14   37    1     -2.01      0.66
   14   37    3     -3.45    -12.39
   14   37    5      8.17     -0.44
   14   37    7     -0.82     -0.98
   14   37    9      4.13     11.77
   14   38    0      6.56      0.24
   14   38    2      4.18      1.95
   14   38    4      1.58      0.47
   -1   15    0    -16.14     -2.36
   -1   15    2     -6.05     -5.38
   -1   15    4    -25.24      2.64
   -1   15    6     14.77    -13.62
   -1   15    8     17.45      2.75
   -1   15   10     -0.75      3.32
   -1   15   12    -12.38      1.93
   -1   15   14      6.27     -3.49
   -1   15   16     14.48     13.80
   -1   15   18     -2.00      1.26
   -1   15   20      1.21      9.95
   -1   15   22      5.42      2.46
   -1   15   24     12.31      0.14
   -1   15   26     18.64     23.46
   -1   15   28     50.55      7.90
   -1   15   30    -18.95    -10.93
   -2   15    1     20.92     -9.21
   -2   15    3      2.28      8.88
   -2   15    5      2.78    -12.75
   -2   15    7      1.23     -0.98
   -2   15    9     -9.69      3.52
   -2   15   11     -3.33      5.99
   -2   15   13      1.27     -2.69
   -2   15   15     15.46      1.40
   -2   15   17    -11.87     -1.50
   -2   15   19      5.34      1.06
   -2   15   21      4.52     -6.13
   -2   15   23     -7.07     -3.75
   -2   15   25     14.11     12.97
   -2   15   27    -57.26    -34.90
   -2   15   29      2.50      2.59
   -3   15    0     48.71     -2.57
   -3   15    2    -24.79     35.56
   -3   15    4     18.66      3.38
   -3   15    6    -12.02     -2.17
   -3   15    8     18.20      1.75
   -3   15   10    -12.29     11.88
   -3   15   12      1.22      2.24
   -3   15   14     -0.26     -3.88
   -3   15   16    -14.08     12.42
   -3   15   18     13.33     -4.51
   -3   15   20      5.11     10.81
   -3   15   22    -13.27      9.48
   -3   15   24     30.64    -21.91
   -3   15   26      7.88     -0.15
   -3   15   28    -16.09     14.85
   -3   15   30     -1.39     -2.63
   -4   15    1     -1.94    -14.17
   -4   15    3      1.80     -9.13
   -4   15    5     -6.65     -4.40
   -4   15    7     -3.03     14.03
   -4   15    9     -3.49    -16.08
   -4   15   11     15.67     -9.36
   -4   15   13      3.07     -3.38
   -4   15   15     -9.38      6.05
   -4   15   17     14.21     -2.92
   -4   15   19     12.03      9.85
   -4   15   21      4.39     -2.08
   -4   15   23     -8.05    -29.34
   -4   15   25      8.53     29.83
   -4   15   27     -0.29     11.88
   -4   15   29      8.88     -1.81
   -5   15    0      7.50      2.46
   -5   15    2    -29.18    -13.97
   -5   15    4      8.99     13.38
   -5   15    6     -9.57     -6.90
   -5   15    8     24.13    -23.37
   -5   15   10     10.59     14.28
   -5   15   12     -9.94      0.84
   -5   15   14      2.54      7.35
   -5   15   16     12.65    -10.49
   -5   15   18    -18.75    -14.78
   -5   15   20    -15.09    -21.31
   -5   15   22      6.06    -12.74
   -5   15   24      4.02     13.94
   -5   15   26     30.87    -36.14
   -5   15   30     -1.26      0.05
   -6   15    1    -12.01    -21.14
   -6   15    3     -4.56      5.93
   -6   15    5    -14.97     -5.82
   -6   15    7      1.70    -20.00
   -6   15    9      7.04     -5.90
   -6   15   11     -8.24     -3.46
   -6   15   13      4.46     -3.19
   -6   15   15    -13.88      0.44
   -6   15   17     -0.19     -0.57
   -6   15   19     11.66     -0.59
   -6   15   21     -5.25     26.38
   -6   15   23      0.40     11.92
   -6   15   25      3.62      2.39
   -6   15   29     -2.66      6.86
   -7   15    0    -35.17     -3.04
   -7   15    2     25.76     -6.52
   -7   15    4    -15.78     12.09
   -7   15    6     -1.88    -28.33
   -7   15    8      4.73     -2.29
   -7   15   10     -0.88      3.95
   -7   15   12      8.22     -1.64
   -7   15   14      5.93      4.76
   -7   15   16     -3.37     -6.86
   -7   15   18      8.71      7.28
   -7   15   20      5.07     15.98
   -7   15   22    -27.01    -21.11
   -8   15    1     17.55     -2.07
   -8   15    3     -8.63      5.36
   -8   15    5     -7.72     -1.15
   -8   15    7     -5.80      8.07
   -8   15    9     -7.48     -8.12
   -8   15   11     -4.13     12.03
   -8   15   13      2.19     -0.77
   -8   15   15      6.40     -5.87
   -8   15   17     -0.92     11.93
   -8   15   19     -6.24     -3.54
   -8   15   21     -2.71     -6.07
   -8   15   29     -2.72      3.14
   -9   15    0      0.99      1.24
   -9   15    2     25.26      8.74
   -9   15    4     -1.60      0.31
   -9   15    6     24.00     -7.66
   -9   15    8     -6.20     13.83
   -9   15   10      4.75    -12.12
   -9   15   12    -12.19      4.03
   -9   15   14     -2.47      3.90
   -9   15   16     -8.03      5.59
   -9   15   18     -6.60    -12.04
   -9   15   28     -2.64      4.92
  -10   15    1     -2.84    -16.57
  -10   15    3     -2.64      3.73
  -10   15    5     -0.19     21.69
  -10   15    7      1.19      0.65
  -10   15    9     -3.19    -10.22
  -10   15   11     -0.32      7.09
  -10   15   13     -4.49     -8.60
  -10   15   15     -1.51     -3.80
  -10   15   17     -9.94      8.14
  -10   15   19      1.90     -1.63
  -10   15   29      2.37      0.58
  -11   15    0     43.39     -6.02
  -11   15    2      7.27     20.65
  -11   15    4      5.30     12.80
  -11   15    6      2.00     16.59
  -11   15    8     -7.15      2.28
  -11   15   10     -4.33    -17.19
  -11   15   12      7.73     -0.80
  -11   15   14      3.50     -1.92
  -11   15   16    -10.55     -4.51
  -11   15   18      7.68     -5.49
  -11   15   20     -1.10      5.51
  -11   15   28     -1.11     -1.25
  -12   15    1    -11.07     -1.41
  -12   15    3      3.99    -21.11
  -12   15    5     10.26      2.21
  -12   15    7     -1.15     -8.15
  -12   15    9     -3.21      4.76
  -12   15   11     18.20      1.53
  -12   15   13     -5.52      9.23
  -12   15   15     11.43    -12.39
  -12   15   17      3.85     -5.43
  -12   15   19     -9.51      3.64
  -12   15   21    -10.26      4.35
  -13   15    0     -9.76      3.87
  -13   15    2     -9.20      3.60
  -13   15    4     12.17    -15.63
  -13   15    6     -4.66      9.30
  -13   15    8     -1.19      4.24
  -13   15   10    -21.56    -11.88
  -13   15   12     -3.46     -7.79
  -13   15   14    -14.59     -8.49
  -13   15   16     14.94      2.76
  -13   15   18    -12.49     19.75
  -13   15   20      6.33     -6.02
  -13   15   22      1.88      7.67
  -13   15   28      0.71     -4.73
  -14   15    1     12.24     -1.80
  -14   15    3     -1.63     -1.35
  -14   15    5      1.35     11.24
  -14   15    7      3.22     -8.79
  -14   15    9     -3.65     -9.52
  -14   15   11     -2.13      3.93
  -14   15   13      3.92      8.02
  -14   15   15     -5.87     12.07
  -14   15   17      1.08     -0.60
  -14   15   19     -5.63      1.60
  -14   15   21      1.78     -8.29
  -14   15   23      4.30      3.48
  -14   15   27     -4.95      4.32
   15   15    0    -10.81      1.59
   15   15    2     -7.83     -8.35
   15   15    4     -6.12      7.75
   15   15    6     23.72      1.11
   15   15    8      4.25      6.04
   15   15   10     22.55     -0.06
   15   15   12     -1.48      2.68
   15   15   14     -3.78      9.02
   15   15   16      2.58    -19.61
   15   15   18     -0.79     -1.45
   15   15   20      3.06     12.62
   15   15   22      0.97     -0.62
   15   15   24      3.16      6.48
   15   15   28      2.12     -4.09
   15   16    1      4.20     -3.22
   15   16    3      9.38     -3.60
   15   16    5     -6.09    -17.47
   15   16    7      3.30     11.12
   15   16    9      1.55     -9.44
   15   16   11    -10.98      5.48
   15   16   13     -8.13     -5.54
   15   16   15      4.65      0.86
   15   16   17     -0.47     -7.42
   15   16   19      8.68    -11.32
   15   16   21     19.06    -16.42
   15   16   23     -0.68     18.20
   15   16   27     -4.95     -0.42
   15   17    0     13.46     -0.46
   15   17    2    -12.49     -2.55
   15   17    4     -2.48     13.71
   15   17    6      1.50      6.03
   15   17    8     -2.76      2.10
   15   17   10      5.98     14.13
   15   17   12      9.56      1.25
   15   17   14      3.26     11.14
   15   17   16     -2.94     -3.98
   15   17   18    -10.09      3.40
   15   17   20     25.95     -2.34
   15   17   22    -15.98     16.37
   15   17   24     -2.98    -12.31
   15   17   26     -6.53      0.47
   15   18    1     -7.06     -9.55
   15   18    3      4.47      7.32
   15   18    5    -23.61      1.45
   15   18    7     16.07     -4.50
   15   18    9     -0.61    -10.94
   15   18   11    -21.63     -0.66
   15   18   13    -10.97     -2.10
   15   18   15      2.11      9.31
   15   18   17     -0.68    -11.37
   15   18   19     -2.56      2.12
   15   18   21    -10.82     12.24
   15   18   23     23.28      5.89
   15   18   25     -1.49      0.92
   15   19    0      8.70     -0.47
   15   19    2      9.44    -13.90
   15   19    4     11.97    -11.92
   15   19    6     -2.92      0.71
   15   19    8     -0.87     11.21
   15   19   10      2.44     -6.32
   15   19   12      5.61    -12.47
   15   19   14    -13.41      0.97
   15   19   16     -8.54     -3.53
   15   19   18      1.27    -16.55
   15   19   20     -9.19    -16.16
   15   19   22     16.54     -5.13
   15   19   24     -0.92     -1.18
   15   19   26      4.92     -4.64
   15   20    1    -14.68      7.50
   15   20    3     -4.10      7.68
   15   20    5     -3.30     -5.63
   15   20    7     26.76     -8.43
   15   20    9      2.38     -3.80
   15   20   11     -5.29      0.41
   15   20   13      6.54      5.66
   15   20   15     12.54      3.65
   15   20   17      1.42      7.25
   15   20   19      0.27     36.77
   15   20   21     -1.81      0.88
   15   20   23      5.14     -9.25
   15   20   25     -2.50      3.69
   15   21    0     14.78     -3.03
   15   21    2    -14.94     -9.35
   15   21    4     -0.87     -8.03
   15   21    6     13.05      6.65
   15   21    8     17.52     11.71
   15   21   10      9.36      8.85
   15   21   12     -5.12     -1.10
   15   21   14     -1.41     -0.62
   15   21   16      0.94     -4.61
   15   21   18      1.17     -0.86
   15   21   20     -9.58    -24.28
   15   21   22      6.84      6.80
   15   21   24      2.96      5.26
   15   22    1      5.76    -12.71
   15   22    3     -7.80     13.63
   15   22    5     -4.34     10.51
   15   22    7    -13.11     -9.95
   15   22    9    -13.45     16.29
   15   22   11      0.49     -0.53
   15   22   13     -1.50      1.51
   15   22   15      5.45      4.20
   15   22   17     -1.11     -0.35
   15   22   19     -9.52      3.70
   15   22   21     35.06    -12.68
   15   22   23      0.18     12.66
   15   23    0     -9.27      9.66
   15   23    2     29.41    -15.52
   15   23    4      3.60     -3.83
   15   23    6      6.47      6.78
   15   23    8     -0.79    -10.89
   15   23   10     -6.29    -19.21
   15   23   12     -1.70     -0.96
   15   23   14     -0.09     -5.25
   15   23   16      2.68     -2.53
   15   23   18      2.28     13.08
   15   23   20    -36.47     -7.65
   15   23   22     -1.95      6.07
   15   23   24     -1.68      4.25
   15   24    1      7.95     -3.39
   15   24    3      7.72     11.78
   15   24    5      5.74     11.94
   15   24    7     -4.32     18.71
   15   24    9     -6.03      3.03
   15   24   11      2.72      2.00
   15   24   13      4.22      4.79
   15   24   15      7.82     13.32
   15   24   17      7.58      1.80
   15   24   19      2.39      2.33
   15   24   21      4.94     -2.25
   15   24   23      2.88     -5.85
   15   25    0    -28.31      5.34
   15   25    2    -12.76     -5.75
   15   25    4    -16.67     12.33
   15   25    6     10.83     -0.54
   15   25    8      2.97     10.53
   15   25   10      7.24     -7.81
   15   25   12     -4.92    -10.40
   15   25   14      9.60     -7.38
   15   25   16     -9.23     -0.18
   15   25   18      6.68      6.13
   15   25   20     -1.97     -1.98
   15   25   22      5.73     -1.51
   15   26    1      7.33    -11.14
   15   26    3      4.71    -25.42
   15   26    5     -8.27     -9.09
   15   26    7     -7.37    -11.49
   15   26    9    -10.17      3.64
   15   26   11     -3.27      3.65
   15   26   13      1.43     -0.24
   15   26   15      0.35      8.31
   15   26   17    -10.43     -1.31
   15   26   19    -13.03     -1.68
   15   26   21      1.20      2.39
   15   27    0      6.99     -1.48
   15   27    2    -14.56     26.39
   15   27    4     10.42     11.68
   15   27    6     16.39      5.74
   15   27    8      4.25      2.10
   15   27   10      1.08     -1.84
   15   27   12     -1.69     10.54
   15   27   14     -1.67      4.25
   15   27   16      8.58     -1.56
   15   27   18     -2.35      1.46
   15   27   20      0.04      0.81
   15   28    1    -12.45    -23.86
   15   28    3      1.92    -11.32
   15   28    5      2.93      2.15
   15   28    7     -6.44      1.12
   15   28    9     -0.17      6.62
   15   28   11      0.74     -1.71
   15   28   13      6.35      3.84
   15   28   15     -4.79    -13.61
   15   28   17     -1.34      3.69
   15   28   19      5.45      1.82
   15   29    0     -8.51      3.27
   15   29    2    -18.38     -3.39
   15   29    4     -9.37    -15.10
   15   29    6     -1.11      3.60
   15   29    8      3.19      5.39
   15   29   10     -6.89     -6.22
   15   29   12     12.99     -6.80
   15   29   14      4.57      0.77
   15   29   16      3.87      0.38
   15   29   18      0.55      1.87
   15   30    1     41.84     15.38
   15   30    3    -11.86     13.51
   15   30    5      7.37      5.57
   15   30    7      2.89    -15.30
   15   30    9      6.73     -0.14
   15   30   11     -6.05      4.83
   15   30   13    -13.18     10.46
   15   30   15      2.87     -2.71
   15   30   17      3.18      0.26
   15   31    0    -26.98     -2.14
   15   31    2    -11.46      4.08
   15   31    4      4.49     -4.06
   15   31    6      3.24     -6.36
   15   31    8    -11.23     -6.92
   15   31   10     -5.43     -1.82
   15   31   12     -2.21     -7.96
   15   31   14      2.73      3.74
   15   31   16     -0.86     -0.48
   15   32    1     -0.83     -6.63
   15   32    3     -2.16      2.64
   15   32    5     -2.10      2.61
   15   32    7      2.98      6.68
   15   32    9      7.68     -1.91
   15   32   11      8.31      4.60
   15   32   13      1.55      1.87
   15   32   15     -2.36      2.63
   15   33    0     -5.50      5.34
   15   33    2      0.12      0.30
   15   33    4      0.01     -0.01
   15   33    6     -7.54     -3.21
   15   33    8      1.66      2.28
   15   33   10     -8.29     -5.53
   15   33   12     -1.99     -1.21
   15   33   14      0.06     -2.95
   15   34    1     -4.88     12.57
   15   34    3     -2.71     -3.44
   15   34    5      4.67      1.98
   15   34    7     -5.09     -5.89
   15   34    9     -2.57     -4.21
   15   34   11      3.07      2.84
   15   34   13      8.30      6.08
   15   35    0     -0.63      0.10
   15   35    2      2.49     -4.66
   15   35    4     -3.24     -1.60
   15   35    6      0.10      1.51
   15   35    8      2.52     -1.80
   15   35   10      5.16      4.82
   15   35   12     -1.74      3.42
   15   36    1      0.97     -3.03
   15   36    3     -0.84      2.32
   15   36    5      6.74      3.69
   15   36    7      0.65      5.36
   15   36    9      5.00      1.54
   15   37    0      1.61      0.27
   15   37    2      7.16     -2.37
   15   37    4     -6.54     -6.01
   15   37    6      2.49      5.96
   15   37    8      5.60     -1.60
   15   38    1     -1.43      4.11
   15   38    3     -1.67      3.91
   -1   16    1     27.02     14.21
   -1   16    3     -5.03     -5.26
   -1   16    5      8.52     -1.86
   -1   16    7     20.51      4.93
   -1   16    9    -11.25     17.61
   -1   16   11    -18.71     -5.26
   -1   16   13      1.18     -5.51
   -1   16   15     -2.19     15.86
   -1   16   17      3.02    -10.46
   -1   16   19     -3.24     -9.34
   -1   16   21     -9.21     -0.67
   -1   16   23    -17.16     -1.65
   -1   16   25     -1.78    -10.29
   -1   16   27     -4.69    -30.75
   -1   16   29     -6.96     36.05
   -2   16    0      7.59      1.13
   -2   16    2    -22.21     -0.37
   -2   16    4      1.24    -19.72
   -2   16    6     -6.38     -0.37
   -2   16    8      6.81     -3.89
   -2   16   10     11.79      3.36
   -2   16   12     17.45     -4.48
   -2   16   14      4.67      5.62
   -2   16   16     -1.12      7.11
   -2   16   18     -8.93    -15.13
   -2   16   20     12.77     13.35
   -2   16   22     12.04     12.72
   -2   16   24     -2.78     -2.87
   -2   16   26     10.94     -2.67
   -2   16   28     11.10      5.76
   -2   16   30     -8.16     -8.74
   -3   16    1     13.23     -1.60
   -3   16    3    -11.03     10.98
   -3   16    5      2.44      7.39
   -3   16    7    -14.82     -3.58
   -3   16    9      3.37      3.13
   -3   16   11      9.43     -1.72
   -3   16   13      4.10    -13.85
   -3   16   15      5.53      0.93
   -3   16   17     -8.35     10.67
   -3   16   19      8.48     -0.59
   -3   16   21      9.75    -12.79
   -3   16   23    -12.56     -2.21
   -3   16   25     37.95     24.78
   -3   16   27     -4.81     -5.63
   -4   16    0    -12.08     -4.13
   -4   16    2    -10.29     12.67
   -4   16    4    -12.43      2.92
   -4   16    6     -9.80    -21.16
   -4   16    8      8.79     -0.75
   -4   16   10      7.56     -2.62
   -4   16   12     -5.74     10.65
   -4   16   14      1.93    -10.90
   -4   16   16      8.69      0.31
   -4   16   18      6.07    -14.66
   -4   16   20      2.19     -8.29
   -4   16   22     -7.32     -2.74
   -4   16   24      7.19    -18.05
   -4   16   26     12.04     17.67
   -5   16    1    -15.98    -26.74
   -5   16    3     -9.94      1.27
   -5   16    5    -10.27    -21.45
   -5   16    7      6.02     -9.94
   -5   16    9      4.43    -15.82
   -5   16   11     -9.50     -1.83
   -5   16   13     -5.37     -2.75
   -5   16   15     11.14     -2.18
   -5   16   17     14.66      0.34
   -5   16   19     -0.34      3.92
   -5   16   21     -6.31     17.67
   -5   16   23    -34.04      9.83
   -5   16   25     -7.18     -9.59
   -5   16   29     -0.89      3.04
   -6   16    0     29.21      0.81
   -6   16    2     17.07      1.04
   -6   16    4     -1.50      3.41
   -6   16    6     -5.83      1.25
   -6   16    8      1.31     13.28
   -6   16   10     -8.79     -4.17
   -6   16   12      7.67    -11.47
   -6   16   14     -2.99     11.16
   -6   16   16     -7.66      2.68
   -6   16   18      0.08      5.63
   -6   16   20     -3.65      5.08
   -6   16   22     -7.13     -3.75
   -6   16   24      5.88    -10.70
   -7   16    1     -6.98    -16.04
   -7   16    3      5.22     24.51
   -7   16    5    -14.37      3.51
   -7   16    7      8.47     -9.05
   -7   16    9      4.62     -6.12
   -7   16   11     -1.47     16.67
   -7   16   13     -5.31    -10.35
   -7   16   15      4.88      1.83
   -7   16   17      7.57     -5.15
   -7   16   19      6.43    -18.76
   -7   16   21      2.59      1.01
   -7   16   23     26.12     -4.48
   -7   16   29     -8.24      2.66
   -8   16    0     19.20      1.00
   -8   16    2      2.59      0.48
   -8   16    4      9.45      4.02
   -8   16    6      1.10     -4.67
   -8   16    8     -6.32     12.76
   -8   16   10     10.16     14.74
   -8   16   12     -1.14    -12.68
   -8   16   14     -8.11     -3.89
   -8   16   16      3.46     -8.22
   -8   16   18     -1.52     19.90
   -8   16   20    -19.77    -12.23
   -8   16   22     -2.18    -18.77
   -9   16    1     -1.00     16.08
   -9   16    3      8.67      7.95
   -9   16    5     -9.70     -6.80
   -9   16    7     -2.02     -4.08
   -9   16    9     -1.10     -5.76
   -9   16   11    -15.26     10.79
   -9   16   13      9.62      4.39
   -9   16   15      4.78      8.71
   -9   16   17    -23.03     -1.28
   -9   16   19      8.64     10.19
   -9   16   29     -6.36     12.08
  -10   16    0     -4.21     -2.15
  -10   16    2      7.81      8.89
  -10   16    4    -10.45      6.00
  -10   16    6     10.83     -7.51
  -10   16    8      2.77      2.16
  -10   16   10     -5.34    -13.23
  -10   16   12      2.76     -9.24
  -10   16   14      5.11     12.64
  -10   16   16     -4.75      0.68
  -10   16   18     20.92    -24.16
  -11   16    1      6.81     -8.64
  -11   16    3     -3.53     -5.82
  -11   16    5     -5.68      8.36
  -11   16    7    -13.94    -14.45
  -11   16    9     22.54     10.84
  -11   16   11     -1.97      5.96
  -11   16   13     -8.88     -2.26
  -11   16   15     -3.18      0.67
  -11   16   17     -2.65     14.05
  -11   16   19     -8.34     -1.51
  -12   16    0     -3.83      3.06
  -12   16    2     20.31     -1.76
  -12   16    4     -0.07     -0.23
  -12   16    6      6.09     -0.10
  -12   16    8     -4.34      2.91
  -12   16   10     -2.49      3.28
  -12   16   12      4.79      1.75
  -12   16   14    -13.20    -10.61
  -12   16   16      9.59      5.03
  -12   16   18      1.63      1.37
  -12   16   20      7.70     -4.02
  -12   16   28     -1.36      4.05
  -13   16    1     -4.66    -10.19
  -13   16    3      2.95      4.08
  -13   16    5     -3.70      4.06
  -13   16    7     12.09     -0.99
  -13   16    9     -1.34     -2.65
  -13   16   11     11.83      2.10
  -13   16   13      7.59      7.04
  -13   16   15      7.80      0.09
  -13   16   17     -1.63     -3.54
  -13   16   19     -4.73      1.74
  -13   16   21      6.21      4.60
  -14   16    0     -0.61      0.59
  -14   16    2     15.09      7.29
  -14   16    4     10.01      9.38
  -14   16    6     -8.89    -11.70
  -14   16    8     -6.49      7.36
  -14   16   10      7.63     13.28
  -14   16   12     -3.43      7.35
  -14   16   14      1.96      9.33
  -14   16   16      6.60     -9.93
  -14   16   18     -2.13     11.22
  -14   16   20      4.06    -12.22
  -14   16   22     -7.17      6.72
  -15   16    1     10.57      7.17
  -15   16    3     -1.85      7.53
  -15   16    5    -13.24    -19.14
  -15   16    7     11.10     10.69
  -15   16    9    -18.33    -16.78
  -15   16   11      4.06     -3.35
  -15   16   13     -1.05     -6.61
  -15   16   15    -15.57     16.35
  -15   16   17      4.02      3.83
  -15   16   19      7.00    -15.39
  -15   16   21      7.49     -1.60
  -15   16   23      1.56      8.08
  -15   16   27     -9.61      5.93
   16   16    0     -5.46      0.30
   16   16    2    -11.81     -7.70
   16   16    4      1.55      5.99
   16   16    6      9.86      8.80
   16   16    8     -4.49     -0.85
   16   16   10     17.34      2.96
   16   16   12      7.91     11.16
   16   16   14    -20.79      2.94
   16   16   16    -11.94    -17.68
   16   16   18     -6.02     -5.36
   16   16   20      2.98     11.86
   16   16   22    -15.08     11.48
   16   16   24     -4.82     -4.03
   16   17    1      8.23      0.80
   16   17    3     -3.53     -6.14
   16   17    5     13.34      1.23
   16   17    7     -7.58      0.80
   16   17    9      0.23      5.92
   16   17   11     -5.42     -6.80
   16   17   13      1.67     -4.17
   16   17   15      3.52     11.28
   16   17   17    -12.52     -1.27
   16   17   19      2.59    -13.41
   16   17   21     14.72     -0.13
   16   17   23     -0.87      0.55
   16   18    0    -12.08      0.96
   16   18    2    -15.85     -3.84
   16   18    4      5.88    -10.48
   16   18    6     11.79     -0.46
   16   18    8      4.58    -14.02
   16   18   10     19.80      6.33
   16   18   12     10.08     -3.11
   16   18   14     -8.49    -13.07
   16   18   16     -3.64      0.02
   16   18   18      9.75      9.27
   16   18   20     14.63    -12.03
   16   18   22    -19.82    -20.15
   16   18   24      1.21     -7.22
   16   18   26      0.57     -2.29
   16   19    1    -15.27     -8.08
   16   19    3      3.05     -1.48
   16   19    5     -5.57     -9.87
   16   19    7      3.95     -8.44
   16   19    9     -8.29      5.97
   16   19   11     -3.98     11.86
   16   19   13      1.69      6.50
   16   19   15      1.59      1.75
   16   19   17    -20.93    -18.72
   16   19   19     -0.94      3.89
   16   19   21     13.80     30.21
   16   19   23     22.97     16.36
   16   19   25     -4.71     -3.22
   16   20    0      4.11     -0.32
   16   20    2     -1.98      4.60
   16   20    4      9.91     -7.53
   16   20    6     -1.27     -7.08
   16   20    8     -2.78      6.11
   16   20   10     -6.50      2.53
   16   20   12     12.17     -4.99
   16   20   14     -4.18      9.05
   16   20   16     -2.54     -8.48
   16   20   18     20.90     -2.80
   16   20   20     -1.78    -22.20
   16   20   22    -10.77     -4.58
   16   20   24     -0.39      7.71
   16   21    1     10.77      0.80
   16   21    3      0.77     -4.07
   16   21    5    -13.25     -3.29
   16   21    7      7.65      2.75
   16   21    9      1.15      7.14
   16   21   11    -21.20     -4.35
   16   21   13     -0.89    -11.45
   16   21   15      4.93      5.24
   16   21   17     -3.08      2.25
   16   21   19     -3.44      2.87
   16   21   21     -2.45     -0.26
   16   21   23     -4.81     -7.31
   16   21   25      2.63     -0.53
   16   22    0     18.33     -5.83
   16   22    2      3.83     12.38
   16   22    4     -3.49     15.99
   16   22    6      7.32     14.88
   16   22    8      5.99      0.80
   16   22   10      2.29    -12.68
   16   22   12     -1.93     -4.98
   16   22   14     -4.33     -0.95
   16   22   16     -2.42      3.33
   16   22   18      1.35      3.84
   16   22   20    -13.80    -10.77
   16   22   22     20.62     21.26
   16   22   24     -8.20      8.59
   16   23    1      4.67     -1.07
   16   23    3     14.53     20.99
   16   23    5     -0.94      6.44
   16   23    7     -3.62    -11.56
   16   23    9     -4.18      5.88
   16   23   11     12.93     -0.96
   16   23   13     17.44     -0.16
   16   23   15     -2.47     12.44
   16   23   17     -0.25      0.53
   16   23   19      7.11     -9.53
   16   23   21     42.23    -13.53
   16   23   23     -2.27      1.72
   16   24    0    -35.61     24.76
   16   24    2    -22.90    -25.46
   16   24    4      1.74     -7.43
   16   24    6     15.89      5.10
   16   24    8    -15.73     -6.10
   16   24   10     -2.28    -11.25
   16   24   12     -6.91     -3.12
   16   24   14      0.44      5.63
   16   24   16    -10.55     -9.60
   16   24   18      2.12      0.25
   16   24   20    -22.89      5.46
   16   24   22     -3.05     -3.94
   16   25    1      0.22     -3.46
   16   25    3     -2.25     -9.60
   16   25    5      8.44    -10.14
   16   25    7    -11.43      5.08
   16   25    9     -7.57     14.53
   16   25   11      5.01      2.72
   16   25   13      0.51      4.12
   16   25   15     -5.26      5.59
   16   25   17      0.27      3.34
   16   25   19      0.59      1.60
   16   25   21     -3.36     -8.98
   16   26    0     -4.82     -4.43
   16   26    2      8.65      8.35
   16   26    4      5.19      4.88
   16   26    6     -2.30      7.96
   16   26    8     10.22     10.58
   16   26   10      3.07     -5.97
   16   26   12     10.48     -8.90
   16   26   14      6.07      8.35
   16   26   16      3.72      3.01
   16   26   18      6.14      9.30
   16   26   20      0.77      3.18
   16   27    1     -1.08    -16.07
   16   27    3      1.97     -2.92
   16   27    5     21.06     20.86
   16   27    7     -6.41      6.32
   16   27    9     -2.03      1.73
   16   27   11     -3.80     -5.36
   16   27   13     -6.93      0.45
   16   27   15    -10.12     -2.82
   16   27   17     -0.62     -1.53
   16   27   19     -7.33     -2.99
   16   27   21     -1.09     -2.02
   16   28    0    -13.51     -1.17
   16   28    2     -3.33     -2.78
   16   28    4     -7.40     -9.84
   16   28    6      6.05     14.29
   16   28    8      0.72      5.80
   16   28   10     -4.44    -13.43
   16   28   12     -2.42      0.19
   16   28   14     -0.26     -1.06
   16   28   16     12.89      9.20
   16   28   18      2.43      4.00
   16   28   20      3.46     -6.30
   16   29    1      8.24     14.26
   16   29    3      4.39      8.21
   16   29    5      5.79    -18.50
   16   29    7     -1.40    -10.60
   16   29    9      0.13      6.11
   16   29   11     -0.29     -1.25
   16   29   13     -7.65     -3.54
   16   29   15      3.11     -1.93
   16   29   17     -4.63      0.92
   16   29   19     -3.70      2.67
   16   30    0     12.33      2.56
   16   30    2    -33.71      7.37
   16   30    4     -5.93    -12.30
   16   30    6      0.57      1.88
   16   30    8     -6.53     -0.60
   16   30   10     -3.04      5.64
   16   30   12      4.09     -0.80
   16   30   14      8.39     -1.08
   16   30   16     -3.40      1.21
   16   30   18     -0.56      0.68
   16   31    1     15.60     13.26
   16   31    3    -16.39      2.23
   16   31    5      2.68     -0.40
   16   31    7      5.17      2.20
   16   31    9      7.28     -4.54
   16   31   11     -0.52      2.37
   16   31   13     -1.76      3.05
   16   31   15      8.09     -0.09
   16   31   17     -1.81     -4.54
   16   32    0    -21.10      1.65
   16   32    2     -2.24     -3.52
   16   32    4     -2.85     -7.50
   16   32    6     -5.22     -5.41
   16   32    8      1.05      3.38
   16   32   10      4.66      1.55
   16   32   12     -6.04     -7.06
   16   32   14     -2.37     -2.43
   16   32   16     -8.22      9.38
   16   33    1      4.48      3.33
   16   33    3     -2.15     -3.10
   16   33    5      2.76      1.30
   16   33    7     -2.64     -0.41
   16   33    9      1.40      7.48
   16   33   11      6.60      1.08
   16   33   13      4.62     -7.74
   16   34    0      2.08     -0.36
   16   34    2     -2.58      4.35
   16   34    4      1.52     -2.65
   16   34    6      3.18     -1.83
   16   34    8     -0.76      2.22
   16   34   10     -4.24     -5.16
   16   34   12     -2.12     -1.20
   16   35    1      0.85      1.25
   16   35    3     -6.62     -5.68
   16   35    5      0.10      0.78
   16   35    7     -5.78     -2.45
   16   35    9      0.87     -8.55
   16   35   11      1.52     -1.31
   16   36    0     -2.50      0.42
   16   36    2      4.91      2.32
   16   36    4     -0.92     -0.67
   16   36    6      4.12      3.31
   16   36    8      0.44      0.23
   16   37    1     -1.28     -2.05
   16   37    3      8.07      1.46
   16   37    5      3.86      0.91
   -1   17    0      6.24     -4.85
   -1   17    2     -3.98      8.84
   -1   17    4     15.14     -2.90
   -1   17    6      9.56      5.77
   -1   17    8     -8.13      2.24
   -1   17   10     15.09     -4.57
   -1   17   12      2.56     15.35
   -1   17   14      0.65     -3.79
   -1   17   16      2.98    -11.14
   -1   17   18      7.85     10.51
   -1   17   20     -3.02     -4.86
   -1   17   22      1.63     -0.43
   -1   17   24     10.13      9.27
   -1   17   26     20.56    -10.77
   -1   17   28     -4.70      4.54
   -2   17    1    -28.64    -30.67
   -2   17    3     -9.79     10.75
   -2   17    5     -5.83    -11.11
   -2   17    7      3.21      3.81
   -2   17    9     -5.59     -5.70
   -2   17   11     -5.33      4.92
   -2   17   13     10.07     -5.02
   -2   17   15     -3.52     11.17
   -2   17   17      4.74    -10.71
   -2   17   19     19.82      1.56
   -2   17   21      6.69     -0.07
   -2   17   23     -3.01      1.41
   -2   17   25      5.25      1.38
   -2   17   27     -3.31    -13.79
   -2   17   29      8.24     -4.89
   -3   17    0     12.98      0.40
   -3   17    2      4.10     -6.52
   -3   17    4     -7.94      5.93
   -3   17    6     -4.95     -0.97
   -3   17    8     -6.19     -4.03
   -3   17   10     17.47      1.76
   -3   17   12      9.52     -4.63
   -3   17   14     -5.68     -3.34
   -3   17   16     14.29      2.10
   -3   17   18     -9.06    -17.33
   -3   17   20     -3.14      1.61
   -3   17   22      6.27     -6.08
   -3   17   24    -29.61     -8.69
   -3   17   26    -11.50     -6.46
   -4   17    1      2.89    -15.05
   -4   17    3      9.45     10.54
   -4   17    5      5.10      4.59
   -4   17    7      9.73     -6.81
   -4   17    9     -9.32     -2.84
   -4   17   11     -6.00      5.78
   -4   17   13     -8.24     -7.89
   -4   17   15     20.58     -9.77
   -4   17   17     -5.78     14.20
   -4   17   19      7.09     21.35
   -4   17   21      8.92     -3.42
   -4   17   23     -3.18     -6.57
   -4   17   25     21.82      3.26
   -4   17   27     -6.97      8.05
   -5   17    0     -5.32     -0.74
   -5   17    2     -4.47     11.33
   -5   17    4      9.48     -1.93
   -5   17    6      7.48    -10.45
   -5   17    8    -12.86      8.85
   -5   17   10    -20.52     -4.87
   -5   17   12      9.55     -2.83
   -5   17   14     -7.80    -12.16
   -5   17   16      6.89     -3.92
   -5   17   18      5.09      4.26
   -5   17   20     -3.93     -4.11
   -5   17   22     15.53      7.82
   -5   17   24     15.02      9.44
   -5   17   26     14.47    -55.76
   -6   17    1     15.49      0.89
   -6   17    3    -11.38    -12.03
   -6   17    5     -0.77     -0.28
   -6   17    7    -10.54      2.44
   -6   17    9      2.74     -5.45
   -6   17   11      5.29     -4.88
   -6   17   13     16.85      9.94
   -6   17   15     -9.39     -2.50
   -6   17   17     -1.45      3.95
   -6   17   19     12.53     -7.54
   -6   17   21      0.31     -7.27
   -6   17   23      4.36    -11.41
   -6   17   25     -5.57     -1.78
   -7   17    0      5.81     -1.47
   -7   17    2    -22.59     14.01
   -7   17    4     -3.91      3.39
   -7   17    6      3.01     -5.77
   -7   17    8      2.04      3.74
   -7   17   10     -6.14     -7.59
   -7   17   12      5.60     -0.18
   -7   17   14      0.98      5.68
   -7   17   16      1.82     -6.02
   -7   17   18     -9.18      6.61
   -7   17   20      0.48     -3.23
   -7   17   22      3.51      1.97
   -7   17   24     -2.36      6.45
   -8   17    1      6.65     12.49
   -8   17    3     -7.24     -5.18
   -8   17    5      0.66    -10.06
   -8   17    7      3.79      1.81
   -8   17    9     -7.85     -5.46
   -8   17   11      4.25      0.13
   -8   17   13      0.05    -12.41
   -8   17   15    -12.49      1.48
   -8   17   17     -2.39      5.77
   -8   17   19     12.49     12.49
   -8   17   21    -11.88     -3.44
   -9   17    0      1.04     -2.34
   -9   17    2     -3.16    -13.46
   -9   17    4      5.97     14.53
   -9   17    6      3.04      4.70
   -9   17    8      2.51     -3.10
   -9   17   10     -1.51      0.84
   -9   17   12     14.70     -6.60
   -9   17   14     -3.43      3.34
   -9   17   16      1.71     -6.43
   -9   17   18     13.78      9.19
   -9   17   20    -27.59     -6.41
  -10   17    1     -3.82    -25.39
  -10   17    3      4.25     15.08
  -10   17    5     -4.03     -5.58
  -10   17    7     10.14      3.01
  -10   17    9     -6.10      5.28
  -10   17   11      3.59      8.43
  -10   17   13     -2.92      2.33
  -10   17   15      0.09      1.64
  -10   17   17     -9.57     10.55
  -10   17   19     13.49      3.71
  -11   17    0     -9.92      1.94
  -11   17    2     29.05     -6.95
  -11   17    4     -2.70      6.58
  -11   17    6     -4.22     -0.67
  -11   17    8     -7.03     -7.11
  -11   17   10     -5.78      5.61
  -11   17   12     -7.62     11.41
  -11   17   14     -5.43     -8.95
  -11   17   16     -3.43     -4.09
  -11   17   18      0.89      2.17
  -12   17    1      3.48      0.09
  -12   17    3      9.92      2.98
  -12   17    5      4.45     -5.46
  -12   17    7     -2.32      2.17
  -12   17    9      2.73     -4.52
  -12   17   11    -14.39      0.04
  -12   17   13      8.02    -11.95
  -12   17   15     20.85     10.32
  -12   17   17     -5.70     13.93
  -12   17   19    -14.90     -2.92
  -13   17    0      1.36      1.54
  -13   17    2      3.98     -5.26
  -13   17    4    -15.64     30.84
  -13   17    6     19.74     -2.08
  -13   17    8      5.48      4.46
  -13   17   10      5.34      1.30
  -13   17   12     -0.72     -5.17
  -13   17   14     -0.48      5.16
  -13   17   16     -6.19     13.06
  -13   17   18      6.58      5.55
  -13   17   20      3.51      5.74
  -14   17    1      0.52      3.39
  -14   17    3      7.64     -5.69
  -14   17    5     -3.83     17.81
  -14   17    7     -1.70      0.25
  -14   17    9      4.70      5.96
  -14   17   11      3.77      1.01
  -14   17   13     -2.26     16.17
  -14   17   15    -12.15      1.08
  -14   17   17     -9.60      3.24
  -14   17   19     -2.06     -2.57
  -14   17   21      0.83     -3.98
  -15   17    0      0.02      0.75
  -15   17    2      0.53     -0.73
  -15   17    4      1.14      1.51
  -15   17    6    -12.74     -3.33
  -15   17    8     14.00    -10.62
  -15   17   10     16.30     13.69
  -15   17   12     -0.97     11.50
  -15   17   14     -6.76     -6.60
  -15   17   16      9.60    -15.81
  -15   17   18    -15.14     15.84
  -15   17   20     -3.64      7.21
  -15   17   22     -8.19     -5.22
  -16   17    1     -7.02     -9.06
  -16   17    3      4.33     -6.48
  -16   17    5      6.11     -3.47
  -16   17    7     10.71      2.21
  -16   17    9     -7.78    -12.55
  -16   17   11      0.23     -4.86
  -16   17   13     -0.47      3.91
  -16   17   15     -5.26     15.56
  -16   17   17      0.82      1.24
  -16   17   19     14.33     -4.46
  -16   17   21      2.22      2.34
  -16   17   23      1.36     -1.70
   17   17    0      5.03     -0.47
   17   17    2      0.04     -5.28
   17   17    4     -0.62    -15.48
   17   17    6     10.88      8.02
   17   17    8     -3.43      1.90
   17   17   10     -2.11      1.68
   17   17   12     -3.95     14.43
   17   17   14     -3.04      6.48
   17   17   16    -18.88    -11.03
   17   17   18      3.90    -15.96
   17   17   20      1.95     -5.57
   17   17   22     12.53     -1.71
   17   17   24      5.12      1.98
   17   18    1    -14.19    -10.63
   17   18    3      1.34      2.64
   17   18    5      0.95    -13.53
   17   18    7     -9.82      3.41
   17   18    9     -2.49     -7.16
   17   18   11     10.79     -5.88
   17   18   13     -1.54     -1.58
   17   18   15      7.27      9.01
   17   18   17      0.91    -11.68
   17   18   19     -0.54     -9.01
   17   18   21      5.01      7.16
   17   18   23     -1.26      1.06
   17   19    0      8.10     -1.45
   17   19    2     -3.97     -7.55
   17   19    4     -3.82     -1.59
   17   19    6     11.35     21.05
   17   19    8      1.36      0.02
   17   19   10      3.26     -9.70
   17   19   12     -7.79     -9.15
   17   19   14      6.72     -5.42
   17   19   16      2.88      2.70
   17   19   18      8.18     11.72
   17   19   20      5.80      4.03
   17   19   22    -23.29     -6.45
   17   20    1     10.69    -13.84
   17   20    3     -4.03     -5.39
   17   20    5      5.64     19.48
   17   20    7      7.23     -2.80
   17   20    9      0.26      7.34
   17   20   11    -15.50      4.93
   17   20   13    -10.49     -1.03
   17   20   15      0.46      5.45
   17   20   17    -11.45    -11.14
   17   20   19     -4.90    -17.54
   17   20   21     10.99     -1.13
   17   20   23      1.44      1.50
   17   20   25     11.55     -6.10
   17   21    0     -9.37      0.62
   17   21    2    -11.51     -6.56
   17   21    4     10.76    -12.08
   17   21    6    -16.72     -5.76
   17   21    8      3.34     -5.08
   17   21   10     -2.43     -6.23
   17   21   12     13.67     -9.71
   17   21   14      6.50     10.21
   17   21   16     -2.52     -4.16
   17   21   18      4.77      5.69
   17   21   20      6.28      4.99
   17   21   22      2.50     10.76
   17   21   24      1.99      0.90
   17   22    1      9.52     17.25
   17   22    3     22.87     -5.20
   17   22    5     -7.45      1.83
   17   22    7     -1.18     -8.08
   17   22    9      6.42     -1.09
   17   22   11     -8.63     -1.81
   17   22   13      7.49     -3.60
   17   22   15     -1.99      3.28
   17   22   17     -6.25     -6.36
   17   22   19      0.16    -27.34
   17   22   21      8.46     -2.32
   17   22   23     12.79     -7.42
   17   23    0     -8.13      0.39
   17   23    2    -24.66    -10.25
   17   23    4    -20.92     18.61
   17   23    6      4.00      6.40
   17   23    8      5.60     -9.87
   17   23   10      2.72     -3.05
   17   23   12     -0.26     -0.18
   17   23   14     -0.61      7.59
   17   23   16    -10.25     -6.65
   17   23   18     -0.89      2.27
   17   23   20     13.03     18.25
   17   23   22    -10.21      1.43
   17   24    1     -2.95     -8.16
   17   24    3     10.47      5.80
   17   24    5     -5.02     -4.17
   17   24    7    -17.15     -3.61
   17   24    9     14.10      6.56
   17   24   11      4.56      2.63
   17   24   13      9.08     -0.39
   17   24   15     -0.22      8.37
   17   24   17      3.79      3.12
   17   24   19     -0.83     -7.98
   17   24   21    -13.52      9.10
   17   25    0     11.28      4.79
   17   25    2     42.18      9.15
   17   25    4     20.47      8.93
   17   25    6     -0.35     13.30
   17   25    8    -15.98     -8.10
   17   25   10     -0.78      0.58
   17   25   12      1.32      3.84
   17   25   14      2.71      3.71
   17   25   16     -0.76     -1.36
   17   25   18     -5.01      1.47
   17   25   20      0.69      9.27
   17   25   22      6.87      0.08
   17   26    1     -7.98    -15.15
   17   26    3    -24.55     18.57
   17   26    5      1.22     14.99
   17   26    7     18.37      0.29
   17   26    9    -13.16      1.99
   17   26   11     -8.64     -6.86
   17   26   13     -0.30      3.30
   17   26   15      0.17      0.85
   17   26   17      4.47     -5.63
   17   26   19     -5.73     -2.66
   17   26   21      2.52     -7.86
   17   27    0    -11.51      4.59
   17   27    2     -2.20    -16.55
   17   27    4      3.80    -15.45
   17   27    6     -7.17     -0.52
   17   27    8      3.21      3.85
   17   27   10      2.61     -4.69
   17   27   12     -4.92      4.19
   17   27   14      4.15      2.15
   17   27   16     -2.56      0.11
   17   27   18      0.75     -5.46
   17   27   20      2.21     -4.96
   17   28    1      7.44      1.42
   17   28    3      2.56     -0.33
   17   28    5     17.29     -3.78
   17   28    7    -10.84     -8.74
   17   28    9    -12.42      4.04
   17   28   11      6.68      9.41
   17   28   13     -6.16      1.11
   17   28   15     -2.84      4.65
   17   28   17      0.36     -2.11
   17   28   19     -0.44      4.67
   17   29    0    -23.44     -1.45
   17   29    2    -10.05     -3.12
   17   29    4     -4.21     17.78
   17   29    6     -3.24      4.98
   17   29    8      4.92      3.26
   17   29   10      8.49     -1.98
   17   29   12      0.20     -0.24
   17   29   14      4.83      3.35
   17   29   16      3.28      0.09
   17   29   18     -2.08     -0.44
   17   30    1     -5.58     -4.57
   17   30    3      0.61    -13.86
   17   30    5     16.85      2.35
   17   30    7      1.15      3.74
   17   30    9     -2.11      1.81
   17   30   11     -4.20      1.12
   17   30   13      8.59    -10.10
   17   30   15      0.62     -4.48
   17   30   17     -4.37     -5.43
   17   31    0    -21.01      6.76
   17   31    2     -7.78      7.22
   17   31    4      5.42    -21.61
   17   31    6     -0.66      5.05
   17   31    8      1.77      0.30
   17   31   10     -2.57      3.13
   17   31   12     -9.36      3.54
   17   31   14      0.43     -2.89
   17   31   16      2.76     -0.75
   17   32    1      9.38     -0.53
   17   32    3     -5.43     -0.52
   17   32    5     10.84      0.37
   17   32    7      4.32     -1.15
   17   32    9     -6.73     -1.66
   17   32   11     -7.95     -2.89
   17   32   13      1.81     -3.20
   17   32   15      9.67      3.59
   17   33    0     12.04     -4.00
   17   33    2     -2.32      0.42
   17   33    4     -9.65      8.75
   17   33    6      2.28      0.55
   17   33    8     -2.86     -5.20
   17   33   10     -0.42     -3.86
   17   33   12     -5.64     -4.56
   17   33   14      5.66     -3.42
   17   34    1     -8.49      6.40
   17   34    3     -0.55     -1.02
   17   34    5     -3.46     -1.41
   17   34    7     -4.87     -2.56
   17   34    9      3.02     -7.03
   17   34   11      3.82     -3.26
   17   35    0      7.75     -0.03
   17   35    2     -1.27      7.41
   17   35    4     -0.92     -4.37
   17   35    6      5.40     -2.91
   17   35    8      0.03      1.41
   17   35   10      4.21     -3.36
   17   36    1      4.15     14.44
   17   36    3     -4.61      8.45
   17   36    5     -1.67      0.13
   17   36    7     -7.01     -5.06
   17   37    0     -3.47     -2.40
   17   37    2     -2.69      0.58
   17   37    4      0.87     -5.06
   -1   18    1     12.23      7.22
   -1   18    3    -11.09     11.31
   -1   18    5     -2.84     10.10
   -1   18    7    -12.18     15.66
   -1   18    9     10.73     11.78
   -1   18   11    -20.26      6.56
   -1   18   13    -13.87     -9.12
   -1   18   15     -2.77     18.78
   -1   18   17     -2.15      7.13
   -1   18   19     -5.47     -1.22
   -1   18   21      5.60     -7.88
   -1   18   23     -2.43      9.77
   -1   18   25      2.89     11.06
   -1   18   27    -24.16    -10.09
   -1   18   29      9.20    -41.09
   -2   18    0     -1.64     -2.47
   -2   18    2     20.47     -8.24
   -2   18    4      0.37     16.03
   -2   18    6      8.94     -2.04
   -2   18    8     -4.93     -0.21
   -2   18   10      8.22     -3.58
   -2   18   12     -1.10      8.49
   -2   18   14     -4.10     -7.46
   -2   18   16      3.85     -4.37
   -2   18   18      8.41      1.94
   -2   18   20     14.49     -1.42
   -2   18   22    -12.92      1.24
   -2   18   24    -12.42     -4.91
   -2   18   26     29.33      7.06
   -3   18    1     -5.29      0.31
   -3   18    3      0.18    -10.77
   -3   18    5     -5.30     16.75
   -3   18    7     -3.38     -5.43
   -3   18    9      8.34     -2.36
   -3   18   11     -5.85    -10.52
   -3   18   13      6.04     10.11
   -3   18   15     -2.30      3.89
   -3   18   17     17.78    -19.06
   -3   18   19     10.89     -0.38
   -3   18   21    -14.25      4.45
   -3   18   23      2.14     -0.59
   -3   18   25     23.28    -24.24
   -3   18   27     -0.13    -14.50
   -3   18   29     30.83    -31.58
   -4   18    0     24.94      1.36
   -4   18    2    -12.54      1.30
   -4   18    4      5.22     -6.85
   -4   18    6     -1.96     -3.65
   -4   18    8      9.70     -3.51
   -4   18   10    -11.28     -0.40
   -4   18   12     -0.43     -7.92
   -4   18   14     -8.72      1.67
   -4   18   16      9.41     -1.08
   -4   18   18      2.96      1.75
   -4   18   20    -11.28      3.45
   -4   18   22     10.92     -2.70
   -4   18   24    -19.71     11.44
   -4   18   26    -17.51    -53.36
   -4   18   28     -3.15      8.72
   -5   18    1     -8.09     -3.47
   -5   18    3    -15.76     -4.44
   -5   18    5      1.18    -20.50
   -5   18    7     17.10     13.49
   -5   18    9     -5.04     -1.01
   -5   18   11      8.49    -10.21
   -5   18   13     18.42      5.06
   -5   18   15      5.97      6.82
   -5   18   17     -3.99     -7.30
   -5   18   19      8.52     -6.64
   -5   18   21     -4.76    -10.38
   -5   18   23     36.00     12.50
   -5   18   25     24.19     71.38
   -5   18   27      8.10     10.40
   -6   18    0     -7.09     -1.39
   -6   18    2    -17.64    -15.23
   -6   18    4     -9.66      9.03
   -6   18    6     -6.88     -3.91
   -6   18    8    -16.86      8.27
   -6   18   10     13.23      2.68
   -6   18   12     12.93    -11.62
   -6   18   14     -0.29      0.23
   -6   18   16     17.78      3.06
   -6   18   18     -7.40     -4.08
   -6   18   20      0.99     -0.98
   -6   18   22    -25.60    -38.91
   -6   18   24    -15.85     -0.29
   -6   18   26    -20.54    -25.41
   -7   18    1      8.23     -1.13
   -7   18    3     10.80     11.64
   -7   18    5     -0.11    -12.34
   -7   18    7      9.94      3.17
   -7   18    9      5.85    -19.79
   -7   18   11      0.20      3.85
   -7   18   13    -25.46     14.67
   -7   18   15      5.75    -10.85
   -7   18   17      2.43     11.71
   -7   18   19      4.67     -1.04
   -7   18   21    -23.75     26.11
   -7   18   23    -10.26      4.24
   -8   18    0     -7.83     -1.22
   -8   18    2      4.77    -16.74
   -8   18    4     -5.44     -4.49
   -8   18    6     -0.75    -11.49
   -8   18    8      6.66     10.59
   -8   18   10    -12.18     -7.47
   -8   18   12     -3.33      1.08
   -8   18   14      3.67      0.45
   -8   18   16      6.77     -8.70
   -8   18   18     13.00      0.48
   -8   18   20     14.66     -0.86
   -8   18   22      8.13     22.71
   -9   18    1      3.35     -5.86
   -9   18    3      5.22     -9.88
   -9   18    5      8.41     10.20
   -9   18    7     -3.50     17.40
   -9   18    9     -9.09     -2.61
   -9   18   11      3.58      0.69
   -9   18   13     -1.13      3.99
   -9   18   15      8.32      2.73
   -9   18   17      4.33     -8.17
   -9   18   19    -10.95    -13.80
   -9   18   21      4.52     -9.71
  -10   18    0     10.11      1.70
  -10   18    2      7.41      4.86
  -10   18    4      0.95      6.28
  -10   18    6     -8.54    -13.20
  -10   18    8      4.61      0.68
  -10   18   10     12.96     -1.05
  -10   18   12      1.55      0.98
  -10   18   14     -1.87      0.72
  -10   18   16     -0.25      6.36
  -10   18   18    -14.99      6.41
  -11   18    1    -15.71    -11.27
  -11   18    3      1.39     -2.69
  -11   18    5     -1.14      7.99
  -11   18    7     11.08      5.68
  -11   18    9      2.44      0.96
  -11   18   11     -1.38    -10.09
  -11   18   13     -8.79      0.18
  -11   18   15     13.49     -6.10
  -11   18   17     14.95     10.59
  -11   18   19     -8.05      0.19
  -12   18    0     15.11      0.12
  -12   18    2     -2.23      6.06
  -12   18    4      2.15     -3.52
  -12   18    6      2.94      7.40
  -12   18    8     -4.82      6.90
  -12   18   10    -21.28     10.17
  -12   18   12     -3.08      8.02
  -12   18   14      7.97      4.07
  -12   18   16    -11.91      7.87
  -12   18   18      4.28      5.85
  -13   18    1    -13.41    -14.79
  -13   18    3      9.49     -2.05
  -13   18    5      5.85      4.40
  -13   18    7    -12.23     -1.38
  -13   18    9      6.18     -5.94
  -13   18   11      3.00      3.27
  -13   18   13     -0.93      0.35
  -13   18   15      7.46      5.34
  -13   18   17     -0.32      6.92
  -13   18   19     -7.70      1.74
  -14   18    0      4.75      1.21
  -14   18    2      7.64      3.42
  -14   18    4     -2.97     -7.20
  -14   18    6      6.34     -1.68
  -14   18    8     -4.06      3.63
  -14   18   10      5.18      6.78
  -14   18   12      9.73     -1.45
  -14   18   14    -13.94      8.67
  -14   18   16     -0.65     -4.01
  -14   18   18      6.47     -7.34
  -14   18   20     -7.13      5.79
  -15   18    1     17.27      0.46
  -15   18    3      9.94      1.15
  -15   18    5      6.02     13.54
  -15   18    7     -4.13      9.36
  -15   18    9      1.33      0.63
  -15   18   11      8.10      1.40
  -15   18   13     -4.88     19.74
  -15   18   15    -12.75    -10.98
  -15   18   17      1.39      0.34
  -15   18   19     -0.73     12.61
  -15   18   21     -2.26      1.59
  -16   18    0     -7.58      0.51
  -16   18    2     -3.45     -1.71
  -16   18    4    -10.76      6.19
  -16   18    6     14.10     -8.00
  -16   18    8     -0.31     10.88
  -16   18   10      1.74      5.55
  -16   18   12     -9.39      3.81
  -16   18   14     10.02      7.59
  -16   18   16     -3.40     -1.39
  -16   18   18     14.40     -2.10
  -16   18   20      6.06      9.79
  -16   18   22     -7.20     -1.83
  -17   18    1     -4.54     -0.81
  -17   18    3      4.56      0.40
  -17   18    5    -11.33     -6.22
  -17   18    7     -5.26     11.07
  -17   18    9     -9.49      4.95
  -17   18   11      0.23     -8.42
  -17   18   13     -4.76    -15.37
  -17   18   15     -3.36     -4.93
  -17   18   17    -10.85     -6.62
  -17   18   19     -8.38     -4.42
  -17   18   21     -7.80      1.14
  -17   18   23     -2.49     -1.07
   18   18    0      8.55     -0.06
   18   18    2     12.39     -2.11
   18   18    4      7.92     -6.94
   18   18    6     -3.73      0.28
   18   18    8     -0.78     -6.12
   18   18   10     -5.78      0.94
   18   18   12     -3.54      3.77
   18   18   14      4.70      3.64
   18   18   16      2.48     10.61
   18   18   18      5.42      1.50
   18   18   20     -0.04     -2.73
   18   18   22     -9.67      3.82
   18   18   24      2.58     -2.05
   18   19    1    -17.09    -15.37
   18   19    3     -4.21    -16.41
   18   19    5      7.60      3.18
   18   19    7      7.19     -5.94
   18   19    9      5.29      0.49
   18   19   11     -3.13     -7.17
   18   19   13     -0.61    -13.03
   18   19   15      0.98      5.85
   18   19   17     -4.86     11.65
   18   19   19      3.21     -1.32
   18   19   21      8.22    -19.64
   18   19   23      7.52    -18.38
   18   20    0     -9.26     -1.98
   18   20    2    -24.93      2.32
   18   20    4      9.06    -11.92
   18   20    6     -4.93     12.70
   18   20    8      8.66     -2.54
   18   20   10      0.99      1.27
   18   20   12      1.32     -8.53
   18   20   14      3.25     -9.70
   18   20   16    -11.27     -0.56
   18   20   18     -0.51     -8.07
   18   20   20      7.26      1.46
   18   20   22     -1.70     13.31
   18   20   24     -0.77     -7.60
   18   21    1      5.46     12.28
   18   21    3      5.08     -3.02
   18   21    5      4.61     -0.12
   18   21    7      4.26    -17.30
   18   21    9     -1.02     11.03
   18   21   11      7.32      4.99
   18   21   13     -2.30     -6.29
   18   21   15      0.00      4.55
   18   21   17      4.05      0.12
   18   21   19     -5.11    -26.55
   18   21   21      9.25      1.61
   18   21   23     11.59      4.05
   18   22    0     -4.76      3.63
   18   22    2     -5.46    -20.52
   18   22    4      4.41     20.19
   18   22    6     -1.61     -6.98
   18   22    8     -1.56    -11.35
   18   22   10      1.86      4.98
   18   22   12     -4.50     -7.93
   18   22   14      6.12      0.57
   18   22   16      6.01      2.30
   18   22   18    -14.81     14.09
   18   22   20     10.03     12.58
   18   22   22    -12.32    -10.03
   18   23    1      6.89    -14.30
   18   23    3     18.87     14.07
   18   23    5    -10.70     18.76
   18   23    7    -29.43     23.44
   18   23    9      6.89     -8.39
   18   23   11     -0.82     -3.49
   18   23   13      2.91     -2.08
   18   23   15     -2.87     -4.28
   18   23   17      5.17      5.49
   18   23   19      7.13     -5.34
   18   23   21    -18.22     -1.75
   18   23   23      7.54     -9.50
   18   24    0     -7.71     -3.13
   18   24    2     26.20     -7.90
   18   24    4     -2.38    -12.24
   18   24    6     11.90     -1.45
   18   24    8     -4.12    -13.16
   18   24   10     -6.81     -1.11
   18   24   12     -2.11     -2.10
   18   24   14      2.70      4.18
   18   24   16     -3.80      1.20
   18   24   18      4.90     -1.85
   18   24   20     22.18      9.38
   18   24   22     -5.70     -2.32
   18   25    1     -6.48      6.05
   18   25    3    -18.26      1.00
   18   25    5      5.88     -3.64
   18   25    7      7.43      5.01
   18   25    9      5.70     -1.83
   18   25   11      1.53     -3.91
   18   25   13     -4.99     -2.50
   18   25   15     -5.48     15.38
   18   25   17     -9.28      2.61
   18   25   19     -1.44    -19.93
   18   25   21     -2.19      2.08
   18   26    0      4.00     -0.66
   18   26    2     -0.02     15.42
   18   26    4     -5.62     15.62
   18   26    6     -5.58     -7.98
   18   26    8      2.91      1.72
   18   26   10      4.45      0.73
   18   26   12     -3.43     11.37
   18   26   14      3.59      4.08
   18   26   16      1.40     -3.07
   18   26   18     -2.89    -11.73
   18   26   20      2.50      0.51
   18   27    1     -3.67     -8.19
   18   27    3      2.47     -4.28
   18   27    5     -7.81      8.04
   18   27    7     -2.19     -6.67
   18   27    9     -1.88     11.98
   18   27   11      7.34      4.29
   18   27   13     -2.83     -3.17
   18   27   15     -3.17      1.14
   18   27   17      2.38     -0.57
   18   27   19      1.03     20.59
   18   28    0     21.25      5.53
   18   28    2     -3.44    -23.25
   18   28    4      4.26      2.02
   18   28    6     -6.40     12.96
   18   28    8     14.93     -3.24
   18   28   10      8.20      2.82
   18   28   12     -4.06      2.25
   18   28   14     -0.99     -4.61
   18   28   16     -4.08     -1.29
   18   28   18      1.37     -1.06
   18   29    1    -17.17      5.37
   18   29    3     17.27     13.96
   18   29    5     10.95     -0.91
   18   29    7     -0.38     -6.97
   18   29    9     -1.79      7.57
   18   29   11     -7.75     -4.94
   18   29   13      3.97     -6.36
   18   29   15     -0.91     11.56
   18   29   17      9.06     -2.65
   18   30    0    -16.76      0.24
   18   30    2     11.74     -6.30
   18   30    4    -13.79     -3.91
   18   30    6    -14.94     -5.36
   18   30    8     -2.61      3.04
   18   30   10      1.47     -0.97
   18   30   12     -6.01     -3.73
   18   30   14      2.26      2.92
   18   30   16      1.27     -4.38
   18   31    1     16.72     -2.46
   18   31    3     -9.30      4.58
   18   31    5      9.14      4.58
   18   31    7      4.94     -1.57
   18   31    9      2.24      2.00
   18   31   11     -7.56     -5.30
   18   31   13     -6.56     -9.80
   18   31   15      0.37      0.95
   18   32    0    -11.54     -5.07
   18   32    2     -4.62     -8.68
   18   32    4      0.00      2.07
   18   32    6      2.43      0.04
   18   32    8    -14.33      4.91
   18   32   10      0.13     -1.86
   18   32   12      2.94     -0.72
   18   32   14      0.69     -5.81
   18   33    1    -17.83      3.65
   18   33    3      7.57    -16.30
   18   33    5     -2.79     -4.44
   18   33    7     -0.01      2.33
   18   33    9     12.48     -9.30
   18   33   11      3.43      6.67
   18   33   13     -1.27      6.05
   18   34    0      3.38      1.00
   18   34    2     -1.44     -0.46
   18   34    4      6.41     -2.13
   18   34    6     -2.66      5.10
   18   34    8     -7.52     -2.79
   18   34   10      2.47      1.32
   18   35    1      1.42      1.46
   18   35    3      0.86      3.13
   18   35    5     -2.73      4.30
   18   35    7     -6.26      1.41
   18   35    9     -7.48      3.67
   18   36    0     -0.90    -10.67
   18   36    2      0.14     -2.68
   18   36    4      0.88     -4.26
   18   36    6      4.27     -0.35
   18   37    1     -1.02     -1.09
   -1   19    0      2.67      2.07
   -1   19    2    -16.07     -5.87
   -1   19    4      1.93      8.13
   -1   19    6     22.03     -3.99
   -1   19    8      7.03     -8.89
   -1   19   10     -3.51     22.36
   -1   19   12      6.30    -10.45
   -1   19   14     12.87    -15.18
   -1   19   16     23.27     -4.65
   -1   19   18      0.01      1.51
   -1   19   20      3.47      3.59
   -1   19   22     -0.20     -3.89
   -1   19   24    -13.83     -8.32
   -1   19   26     -3.88     -9.83
   -1   19   28     -5.01    -11.53
   -2   19    1      7.84     15.05
   -2   19    3      6.40      6.03
   -2   19    5     -5.95    -13.70
   -2   19    7    -10.90     -4.33
   -2   19    9      5.04     27.11
   -2   19   11     -9.55     -2.82
   -2   19   13     -0.80      0.25
   -2   19   15     -9.77      5.94
   -2   19   17     -5.89      2.88
   -2   19   19     -5.28     -8.23
   -2   19   21     15.01      1.80
   -2   19   23      1.76    -23.87
   -2   19   25     20.55      0.66
   -2   19   27    -43.44     38.46
   -3   19    0    -15.88     -1.50
   -3   19    2      1.70     -1.79
   -3   19    4    -21.72     -1.27
   -3   19    6      8.43    -22.90
   -3   19    8      3.97    -14.06
   -3   19   10      0.12      0.70
   -3   19   12      0.29      5.54
   -3   19   14      0.37     -1.90
   -3   19   16     -1.34     -0.43
   -3   19   18     12.68     -0.18
   -3   19   20     15.92     -0.09
   -3   19   22      6.11     15.93
   -3   19   24      5.62     25.27
   -3   19   26      4.78     -1.99
   -4   19    1      2.07     -2.28
   -4   19    3     -9.11     -6.76
   -4   19    5      6.73      4.74
   -4   19    7    -11.92      4.94
   -4   19    9      0.86     13.56
   -4   19   11      3.06      1.33
   -4   19   13     18.24     -7.46
   -4   19   15      8.08      0.37
   -4   19   17    -16.09      3.23
   -4   19   19      2.96     21.49
   -4   19   21     -9.19      0.83
   -4   19   23      1.75      9.42
   -4   19   25      8.44     -1.35
   -4   19   27      2.33     -6.71
   -5   19    0     -9.63     -2.32
   -5   19    2     -4.31    -13.31
   -5   19    4     -6.29     -9.00
   -5   19    6     21.99      8.07
   -5   19    8     -4.68      8.90
   -5   19   10      2.93     -3.80
   -5   19   12    -20.18     -0.24
   -5   19   14      7.51    -19.31
   -5   19   16      2.67     18.18
   -5   19   18      3.99     -7.38
   -5   19   20      1.21     11.70
   -5   19   22    -39.26    -29.62
   -5   19   24    -23.68    -31.87
   -5   19   26    -30.26    -36.21
   -6   19    1      1.05     -5.53
   -6   19    3     13.11     15.67
   -6   19    5     -4.28     -6.04
   -6   19    7      1.02     -5.33
   -6   19    9     -4.65     -7.81
   -6   19   11     22.43     12.88
   -6   19   13     -1.71     -0.79
   -6   19   15    -13.03     -5.50
   -6   19   17      1.09     -2.42
   -6   19   19     38.12    -13.15
   -6   19   21     17.32     29.65
   -6   19   23     19.21     -9.48
   -6   19   25    -11.35     23.27
   -7   19    0     25.04      1.69
   -7   19    2      1.57      8.30
   -7   19    4     11.50     11.49
   -7   19    6     -5.17    -16.49
   -7   19    8      0.97     -0.52
   -7   19   10      5.84      9.49
   -7   19   12     15.49     -2.75
   -7   19   14      9.86      3.77
   -7   19   16     -9.75     -1.17
   -7   19   18     -6.17     -1.79
   -7   19   20      1.59     10.79
   -7   19   22     -9.91     -6.25
   -7   19   24     62.13      8.62
   -8   19    1      0.59     -3.19
   -8   19    3     -9.26      4.41
   -8   19    5     -4.66     -4.22
   -8   19    7     19.50     -9.50
   -8   19    9      3.12     -0.86
   -8   19   11     -1.84      9.05
   -8   19   13     -5.95    -10.78
   -8   19   15      2.20     -5.96
   -8   19   17     -4.34     29.73
   -8   19   19      2.66      0.81
   -8   19   21      7.29    -19.03
   -8   19   23     -2.17      2.34
   -9   19    0      9.25      0.86
   -9   19    2    -22.44     -3.52
   -9   19    4      7.29     -4.08
   -9   19    6     -0.69    -15.50
   -9   19    8      4.63     -8.99
   -9   19   10    -14.28      5.74
   -9   19   12     -1.20      3.45
   -9   19   14     -2.45      8.23
   -9   19   16     -5.19     -3.18
   -9   19   18     -0.85      3.49
   -9   19   20     11.92    -12.50
  -10   19    1    -20.90    -12.16
  -10   19    3     17.37     -8.39
  -10   19    5     -8.45      2.02
  -10   19    7    -21.03     -3.12
  -10   19    9     14.04      0.70
  -10   19   11     22.37      2.89
  -10   19   13      2.80     -6.49
  -10   19   15      6.26     -9.82
  -10   19   17     -1.41     12.47
  -10   19   19     -5.70     -1.78
  -11   19    0     -0.29      1.47
  -11   19    2      0.97     -0.23
  -11   19    4     -6.72      0.77
  -11   19    6     10.92     -2.84
  -11   19    8      3.64      3.63
  -11   19   10    -12.95     -5.95
  -11   19   12     14.91     -3.12
  -11   19   14      9.95      1.47
  -11   19   16    -10.58     15.19
  -11   19   18     18.66     16.21
  -12   19    1    -11.39    -22.54
  -12   19    3      4.97     -1.25
  -12   19    5     25.66     18.09
  -12   19    7     -4.81      0.61
  -12   19    9      2.05     12.90
  -12   19   11      1.43      1.69
  -12   19   13    -10.24     -1.80
  -12   19   15     -0.76     -6.66
  -12   19   17      1.11     -2.44
  -12   19   19      1.62     -3.70
  -13   19    0      1.12     -0.94
  -13   19    2     13.10      0.11
  -13   19    4     -5.24    -17.22
  -13   19    6      6.31      0.17
  -13   19    8     -3.02     13.22
  -13   19   10     -5.61      7.00
  -13   19   12     -7.52      8.45
  -13   19   14     -0.55     -7.32
  -13   19   16    -13.00     18.11
  -13   19   18      3.39      5.18
  -14   19    1     11.81      7.49
  -14   19    3      1.79     19.51
  -14   19    5    -10.12      3.20
  -14   19    7      4.26      0.60
  -14   19    9     -7.18     -2.29
  -14   19   11      3.36      8.24
  -14   19   13     -1.62      1.11
  -14   19   15     -3.09     -7.26
  -14   19   17      6.84      1.87
  -14   19   19      2.08     11.54
  -15   19    0     11.55     -0.07
  -15   19    2     -6.17    -20.96
  -15   19    4     13.30      6.43
  -15   19    6      4.22     14.80
  -15   19    8    -11.24      5.96
  -15   19   10     -5.48      1.09
  -15   19   12     -0.83      1.01
  -15   19   14     -7.30     16.54
  -15   19   16     -6.51     -4.05
  -15   19   18      9.26    -13.57
  -15   19   20     -6.92     -1.51
  -16   19    1      6.65      0.58
  -16   19    3      4.72      1.65
  -16   19    5     -7.27      1.35
  -16   19    7     -5.55     -2.17
  -16   19    9     -7.51      1.51
  -16   19   11     -3.31     -4.62
  -16   19   13     -6.48      8.79
  -16   19   15     -4.58     -4.27
  -16   19   17     -4.46      5.05
  -16   19   19      0.42     -9.42
  -16   19   21     -3.00      0.88
  -17   19    0     -5.60      1.49
  -17   19    2     -2.37      0.45
  -17   19    4     -7.95     12.95
  -17   19    6      0.48     -2.12
  -17   19    8     24.60     -6.75
  -17   19   10      7.39      6.19
  -17   19   12     -6.30     -0.59
  -17   19   14      2.54     -3.83
  -17   19   16      9.45      9.43
  -17   19   18      1.57      1.22
  -17   19   20     13.14     11.18
  -17   19   22     -1.92     -0.79
  -18   19    1     -3.77      7.28
  -18   19    3    -15.19     -7.97
  -18   19    5      0.46      3.55
  -18   19    7     -8.71     -5.04
  -18   19    9     -2.53      6.70
  -18   19   11      0.74    -10.90
  -18   19   13      4.70      3.93
  -18   19   15    -12.50    -13.64
  -18   19   17    -10.00      7.32
  -18   19   19     -2.43     -0.99
  -18   19   21      5.68    -16.63
  -18   19   23      2.43     -5.16
   19   19    0     -6.26      3.50
   19   19    2      0.43     -1.09
   19   19    4     -1.39    -13.78
   19   19    6     -4.04     -6.04
   19   19    8      3.40     -4.70
   19   19   10     -4.08      0.86
   19   19   12     -0.91      0.68
   19   19   14     10.58      1.42
   19   19   16      3.32    -12.97
   19   19   18      0.51     -4.89
   19   19   20    -10.87     11.80
   19   19   22     -5.38     13.71
   19   19   24      3.33      2.63
   19   20    1      5.39     -2.51
   19   20    3     16.42      0.43
   19   20    5     -2.25     -1.59
   19   20    7      6.37      0.47
   19   20    9     -7.36      5.26
   19   20   11     -6.24      0.34
   19   20   13     -9.74     -9.09
   19   20   15     11.02      9.64
   19   20   17      8.36      5.12
   19   20   19      9.69      4.23
   19   20   21     -1.81     -7.36
   19   20   23      9.24     -2.45
   19   21    0     25.98     -7.11
   19   21    2      5.75      0.09
   19   21    4    -12.02     14.43
   19   21    6    -10.76     -4.05
   19   21    8      1.46      9.33
   19   21   10     -6.09     -0.69
   19   21   12     -2.64     -3.45
   19   21   14      8.96    -17.32
   19   21   16      1.86     -9.62
   19   21   18     -3.44      1.05
   19   21   20      1.80     -0.81
   19   21   22     -6.62     -6.70
   19   22    1    -16.81     -1.49
   19   22    3      7.37      3.03
   19   22    5      6.01      5.42
   19   22    7     -0.57      2.02
   19   22    9     -5.94    -16.96
   19   22   11     -8.86     -0.61
   19   22   13     -3.89      1.20
   19   22   15     10.68      8.94
   19   22   17     16.30      5.35
   19   22   19     -2.55     -3.55
   19   22   21    -15.08     -2.06
   19   22   23     14.68     -2.58
   19   23    0     -0.48      1.08
   19   23    2      1.05     -2.37
   19   23    4     -3.30    -30.01
   19   23    6     11.92     -1.51
   19   23    8     -0.58     -2.62
   19   23   10      7.33      3.54
   19   23   12      5.13     -2.40
   19   23   14     -3.29      1.25
   19   23   16     -7.57     -0.43
   19   23   18    -18.59     -2.80
   19   23   20      1.02      2.52
   19   23   22     12.63     -7.30
   19   24    1     17.96     11.26
   19   24    3    -34.92      9.20
   19   24    5      7.04      8.32
   19   24    7      1.29      8.08
   19   24    9     -1.23      5.56
   19   24   11      0.62      0.54
   19   24   13      1.52     -0.58
   19   24   15      4.14     -1.16
   19   24   17      7.66      0.79
   19   24   19      1.58    -12.41
   19   24   21     -1.45      0.23
   19   25    0    -14.87      4.67
   19   25    2    -18.70     -4.93
   19   25    4      8.57    -12.98
   19   25    6      6.75    -10.57
   19   25    8     -2.40      0.06
   19   25   10      1.18      4.36
   19   25   12     -8.13      1.18
   19   25   14      1.02     -0.14
   19   25   16      1.72     -3.28
   19   25   18     -4.53      1.49
   19   25   20      0.54      1.91
   19   26    1     11.95     -1.26
   19   26    3     14.14     -7.04
   19   26    5      8.45      6.80
   19   26    7     -6.65     12.90
   19   26    9     -0.81      1.64
   19   26   11     11.35      4.44
   19   26   13     -2.78      3.97
   19   26   15     -0.63      3.43
   19   26   17     -6.95      4.27
   19   26   19      2.63      1.64
   19   27    0     -6.58     -9.90
   19   27    2     13.42     23.15
   19   27    4     -2.54     13.39
   19   27    6     -4.58     -6.10
   19   27    8      1.92     -1.93
   19   27   10     -2.00     -1.14
   19   27   12      7.03      0.50
   19   27   14      0.62     -0.09
   19   27   16      1.97      2.48
   19   27   18      1.92     -0.41
   19   28    1     -1.77      7.79
   19   28    3      0.70      3.18
   19   28    5      4.26      9.30
   19   28    7     -0.81     -6.07
   19   28    9      9.66     -0.97
   19   28   11    -11.38      4.31
   19   28   13     -1.73     -3.95
   19   28   15      3.27     -4.23
   19   28   17      0.86     -5.06
   19   29    0     11.41      0.08
   19   29    2     -8.21    -13.18
   19   29    4     -1.96     -7.28
   19   29    6      2.96     -7.51
   19   29    8    -10.98     -2.86
   19   29   10     -7.12     -1.16
   19   29   12     -2.50      3.15
   19   29   14      5.61      2.04
   19   29   16      3.05     -0.79
   19   30    1     -1.52      7.51
   19   30    3      0.43     11.51
   19   30    5     -6.66      1.10
   19   30    7     14.67     -0.25
   19   30    9      3.22      5.25
   19   30   11     -3.30     -5.52
   19   30   13     -1.73      1.36
   19   30   15     -7.46     10.20
   19   31    0     10.60     -0.14
   19   31    2     -2.24      1.83
   19   31    4    -11.06     -5.48
   19   31    6     -1.59     -1.32
   19   31    8    -10.19      3.47
   19   31   10      2.61     -1.58
   19   31   12      7.51      3.64
   19   31   14      0.04     -2.13
   19   32    1    -10.21     12.16
   19   32    3     -3.69      4.24
   19   32    5     16.62     -2.66
   19   32    7      6.05     -6.08
   19   32    9     -0.62      3.91
   19   32   11      2.26      3.66
   19   32   13     -1.05      1.02
   19   33    0     -0.88     -0.43
   19   33    2     -0.88     -0.86
   19   33    4     -1.81     -4.23
   19   33    6     -4.32      4.11
   19   33    8     -6.42     -1.54
   19   33   10      2.56    -13.49
   19   33   12     -6.49     -1.92
   19   34    1     -4.86     -3.20
   19   34    3      1.12     -9.25
   19   34    5      3.34      5.72
   19   34    7     -2.65      0.00
   19   34    9      2.28      1.71
   19   35    0     -0.55     -2.89
   19   35    2      0.85     -0.94
   19   35    4      1.23      1.36
   19   35    6     -0.55      0.67
   19   35    8      3.19      1.67
   19   36    1      0.19     -4.85
   19   36    3      2.68      2.25
   -1   20    1      5.94     -1.71
   -1   20    3    -14.34    -10.22
   -1   20    5    -23.26    -11.42
   -1   20    7      6.32      2.19
   -1   20    9     -0.34      7.30
   -1   20   11    -13.03      3.34
   -1   20   13      2.84      5.56
   -1   20   15     -0.51     -0.19
   -1   20   17     -0.76     10.05
   -1   20   19      7.88    -14.42
   -1   20   21      9.38      0.88
   -1   20   23      4.62      8.70
   -1   20   25      9.97      7.87
   -2   20    0      4.51     -0.87
   -2   20    2      2.14      0.49
   -2   20    4     -2.62      8.12
   -2   20    6     24.56      7.48
   -2   20    8     -7.44      1.26
   -2   20   10     14.91      0.21
   -2   20   12     -8.23      5.88
   -2   20   14     -7.25    -13.57
   -2   20   16     20.45     -6.29
   -2   20   18     -4.33      3.35
   -2   20   20     -6.09      9.40
   -2   20   22      3.85     -4.50
   -2   20   24     -5.93     18.20
   -2   20   26    -32.67     -5.61
   -2   20   28    -14.19    -51.37
   -3   20    1     -3.87    -12.73
   -3   20    3      7.17     10.39
   -3   20    5     -2.83      0.78
   -3   20    7     -2.40      4.79
   -3   20    9      4.59      5.77
   -3   20   11     -2.91      3.20
   -3   20   13    -13.79    -16.76
   -3   20   15     16.80      2.76
   -3   20   17      8.47      3.73
   -3   20   19     -6.94     -3.72
   -3   20   21     -6.94     -3.90
   -3   20   23    -26.38     27.41
   -3   20   25     -3.59      8.34
   -3   20   27     -0.60      1.29
   -4   20    0      7.56     -0.04
   -4   20    2      6.99     -4.84
   -4   20    4     -1.70     -7.40
   -4   20    6     -1.40      9.16
   -4   20    8     -5.42      6.32
   -4   20   10      3.41     10.26
   -4   20   12    -13.93     20.99
   -4   20   14      4.98     -9.89
   -4   20   16      4.49      4.26
   -4   20   18     23.74     -9.23
   -4   20   20     17.48     -5.25
   -4   20   22     -1.09    -15.07
   -4   20   24    -16.61    -18.58
   -4   20   26      5.26    -36.69
   -4   20   28     -0.19      2.97
   -5   20    1      6.67     -2.44
   -5   20    3     -7.18      2.96
   -5   20    5     12.22     18.43
   -5   20    7      8.61    -12.10
   -5   20    9     18.68      9.91
   -5   20   11     12.65     -9.25
   -5   20   13     -1.54     -2.80
   -5   20   15     14.91     17.50
   -5   20   17     -8.95      2.50
   -5   20   19     -5.58    -18.50
   -5   20   21     13.27     25.93
   -5   20   23      1.69     26.88
   -5   20   25      4.45      9.74
   -5   20   27     17.00     -6.64
   -6   20    0     12.35     -1.28
   -6   20    2      8.99      1.51
   -6   20    4      4.70    -22.36
   -6   20    6      2.37     -3.62
   -6   20    8     -3.53      3.13
   -6   20   10    -16.00    -13.16
   -6   20   12    -27.80     -9.30
   -6   20   14      8.57     14.93
   -6   20   16    -27.64      1.16
   -6   20   18    -12.55      2.62
   -6   20   20     -8.91     -0.90
   -6   20   22     -9.77      1.48
   -6   20   24     59.86     31.91
   -6   20   26    -15.57     29.71
   -7   20    1     -6.31      1.17
   -7   20    3    -15.77      6.06
   -7   20    5     -8.29     14.91
   -7   20    7      6.15     -5.43
   -7   20    9     22.73      0.00
   -7   20   11     -7.22     12.24
   -7   20   13     20.72     10.74
   -7   20   15      3.49      2.45
   -7   20   17     22.15    -14.06
   -7   20   19      3.87      2.18
   -7   20   21    -22.02     -6.78
   -7   20   23     -7.10    -32.42
   -8   20    0     -0.01     -0.71
   -8   20    2     -8.79     -8.34
   -8   20    4     -4.28     -5.13
   -8   20    6     -1.86     -3.80
   -8   20    8      9.26     -9.62
   -8   20   10      7.19      6.53
   -8   20   12     11.08      3.02
   -8   20   14      5.47     10.71
   -8   20   16     20.10      3.18
   -8   20   18     12.11     -4.71
   -8   20   20    -12.18      8.58
   -8   20   22    -17.75      1.43
   -9   20    1      6.53    -10.80
   -9   20    3     -7.66      6.94
   -9   20    5     -5.98    -15.74
   -9   20    7      6.93     -5.65
   -9   20    9     12.13     -4.00
   -9   20   11      6.72    -14.10
   -9   20   13     -7.92      6.16
   -9   20   15     15.98      5.64
   -9   20   17    -22.17     12.01
   -9   20   19      6.98    -16.93
   -9   20   21     18.28      9.95
  -10   20    0      2.22      1.43
  -10   20    2     -4.36    -15.22
  -10   20    4     12.67     -2.87
  -10   20    6      6.88      4.62
  -10   20    8    -13.14     -3.50
  -10   20   10     -7.71     -7.28
  -10   20   12     15.52      6.61
  -10   20   14     -4.93      1.12
  -10   20   16     -0.95      8.38
  -10   20   18      5.46      4.82
  -10   20   20      1.16      0.42
  -11   20    1     -1.87    -15.65
  -11   20    3      5.00      4.32
  -11   20    5     -5.22     -2.92
  -11   20    7      3.26      4.39
  -11   20    9     10.79    -10.25
  -11   20   11     -6.11     10.84
  -11   20   13     -2.21      6.22
  -11   20   15      6.96      6.53
  -11   20   17    -13.13    -19.28
  -11   20   19      1.08     -5.85
  -12   20    0      9.37      0.37
  -12   20    2      0.19     -1.50
  -12   20    4      0.98    -12.99
  -12   20    6     -5.45     -1.95
  -12   20    8      5.56     10.96
  -12   20   10      6.73      5.56
  -12   20   12    -13.93      2.75
  -12   20   14      7.84      2.06
  -12   20   16      8.84     -2.14
  -12   20   18     13.20     -5.54
  -12   20   20     -3.77     19.15
  -13   20    1      8.77      2.32
  -13   20    3     -7.63     -5.30
  -13   20    5      9.35     16.00
  -13   20    7      3.78     11.94
  -13   20    9      2.02      4.83
  -13   20   11      5.88     -8.62
  -13   20   13     -5.53      3.00
  -13   20   15     -0.83      4.52
  -13   20   17     -6.16     -4.52
  -13   20   19      4.42     -2.87
  -14   20    0     -6.94     -1.85
  -14   20    2     -2.50     -3.43
  -14   20    4      4.56      4.30
  -14   20    6     -7.36    -10.24
  -14   20    8      6.42      4.22
  -14   20   10     -3.96     -3.35
  -14   20   12    -10.64      8.55
  -14   20   14      6.34      2.62
  -14   20   16     -8.51     14.73
  -14   20   18    -11.74      2.33
  -15   20    1      3.89      5.90
  -15   20    3     -2.54     -1.24
  -15   20    5     -9.36     22.55
  -15   20    7      0.81     -6.91
  -15   20    9      4.09      6.14
  -15   20   11     -9.47     -3.33
  -15   20   13     -6.50      3.99
  -15   20   15     -3.04     -3.13
  -15   20   17      5.04      5.69
  -15   20   19      6.19      1.51
  -16   20    0     -8.69      2.77
  -16   20    2      3.28      2.91
  -16   20    4      1.10     -2.25
  -16   20    6     -4.88     -3.80
  -16   20    8     -3.08      2.66
  -16   20   10     -4.04      5.87
  -16   20   12      2.22     -7.90
  -16   20   14     -2.79     -3.27
  -16   20   16     -0.71     -5.23
  -16   20   18      2.22    -11.25
  -16   20   20      2.49      5.03
  -17   20    1     -5.00     -5.26
  -17   20    3      3.40     -3.02
  -17   20    5      2.32    -11.23
  -17   20    7    -10.97      9.31
  -17   20    9    -17.03      2.29
  -17   20   11      8.44     -4.94
  -17   20   13      8.85     -4.85
  -17   20   15     -1.44     -4.31
  -17   20   17     -7.62     23.97
  -17   20   19      0.16      2.02
  -17   20   21     10.51      5.58
  -18   20    0     11.55     -0.46
  -18   20    2      1.12     -4.30
  -18   20    4      3.15     12.95
  -18   20    6      6.92     12.78
  -18   20    8      5.83     -2.51
  -18   20   10     -1.05     -0.09
  -18   20   12    -10.78     -0.60
  -18   20   14     -0.49      7.18
  -18   20   16      2.57     -1.64
  -18   20   18     -0.50    -15.76
  -18   20   20     -4.81     -2.78
  -18   20   22     -3.97      3.53
  -19   20    1     11.07     -5.76
  -19   20    3     -0.22      8.17
  -19   20    5     -8.24     11.59
  -19   20    7     -9.75     -7.86
  -19   20    9     -5.13      6.38
  -19   20   11     -5.93     -6.15
  -19   20   13     -1.66     -3.35
  -19   20   15     -2.15     -1.43
  -19   20   17     16.56      0.95
  -19   20   19      8.47      5.89
  -19   20   21     -6.52      1.47
  -19   20   23     -3.15      3.56
   20   20    0     -9.21     -0.37
   20   20    2      9.51      8.48
   20   20    4    -13.20      4.44
   20   20    6     -5.72    -17.81
   20   20    8      9.44     -2.92
   20   20   10      4.19     -4.44
   20   20   12     -0.66     -2.39
   20   20   14     -8.03      0.97
   20   20   16     -7.96     -8.87
   20   20   18      4.96      0.21
   20   20   20      1.94      8.00
   20   20   22     -1.68     -0.82
   20   21    1      4.87      6.74
   20   21    3     -0.38     -7.92
   20   21    5     -9.87      0.01
   20   21    7      6.86      0.81
   20   21    9      2.81      5.71
   20   21   11     -4.43      3.63
   20   21   13     -8.04     -5.34
   20   21   15     -2.24     -1.41
   20   21   17    -16.76      4.86
   20   21   19     18.25      8.80
   20   21   21      8.53    -10.71
   20   21   23     11.11     -6.04
   20   22    0      1.63     -0.43
   20   22    2    -21.75      1.41
   20   22    4     -1.77    -14.58
   20   22    6     -5.42     -0.71
   20   22    8      2.15      1.55
   20   22   10      0.52      2.11
   20   22   12      6.85     -2.30
   20   22   14      4.06     -5.26
   20   22   16      1.90     -4.79
   20   22   18      4.11     -9.61
   20   22   20     -7.00    -12.72
   20   22   22      3.15      0.35
   20   23    1     11.22      9.51
   20   23    3     -3.61     -7.26
   20   23    5     15.45      0.38
   20   23    7     -7.00     -5.18
   20   23    9     -5.63     -4.96
   20   23   11     -6.83     -4.85
   20   23   13     -1.97     -5.79
   20   23   15      2.84      4.44
   20   23   17     16.41      8.16
   20   23   19      6.25      5.93
   20   23   21     -7.01     -1.79
   20   24    0    -10.11     -4.49
   20   24    2    -11.93      6.59
   20   24    4     -6.48     -0.08
   20   24    6      9.04      2.20
   20   24    8      9.21      4.54
   20   24   10      4.08     -2.22
   20   24   12      1.39     -2.27
   20   24   14     -6.58      5.54
   20   24   16      0.64     -3.73
   20   24   18    -12.50      5.63
   20   24   20    -18.03     -3.76
   20   25    1     13.89     -0.39
   20   25    3     -6.06      7.44
   20   25    5      5.77     13.69
   20   25    7      0.05     11.56
   20   25    9      2.56      6.37
   20   25   11      0.79     10.26
   20   25   13     -8.72     -6.01
   20   25   15      4.00     -7.59
   20   25   17     13.72      2.94
   20   25   19      5.43      8.31
   20   26    0      5.92     -1.00
   20   26    2     18.54     -2.95
   20   26    4     -6.13     -9.43
   20   26    6     -3.06     -1.34
   20   26    8     -8.05    -12.04
   20   26   10     -2.51     -1.69
   20   26   12     -7.07     -3.59
   20   26   14      1.62     -1.88
   20   26   16     -1.05      8.65
   20   26   18     -1.80     -4.08
   20   27    1      4.08      7.83
   20   27    3      3.39      7.17
   20   27    5     10.69     -8.51
   20   27    7      0.56     -0.81
   20   27    9      2.83      6.92
   20   27   11      5.32     -1.07
   20   27   13     -1.81      1.45
   20   27   15      2.26     -8.86
   20   27   17     -1.31      1.56
   20   28    0      8.50    -15.22
   20   28    2    -18.34     -6.42
   20   28    4     -7.87     -4.68
   20   28    6      0.69     -8.27
   20   28    8    -10.62     -3.97
   20   28   10     -4.11      1.90
   20   28   12      0.65      3.20
   20   28   14     -0.94      6.58
   20   28   16      2.97      7.56
   20   29    1      5.33     16.48
   20   29    3      4.04     -1.17
   20   29    5     -6.99     16.88
   20   29    7      0.76      8.25
   20   29    9     21.87     -2.22
   20   29   11      2.76      2.98
   20   29   13     -2.57      5.05
   20   29   15     -0.97      2.41
   20   30    0      7.70      1.69
   20   30    2      2.46     -5.71
   20   30    4     -2.42      9.67
   20   30    6     -0.35      1.32
   20   30    8     -7.50     -7.19
   20   30   10      2.43     -5.50
   20   30   12      5.29      4.93
   20   30   14      3.10     -8.56
   20   31    1    -10.90     10.18
   20   31    3     -3.24     -3.38
   20   31    5     20.13     -4.71
   20   31    7     -3.24      3.29
   20   31    9     -3.22      4.62
   20   31   11      7.46     -6.67
   20   31   13     -3.09      0.65
   20   32    0     11.36      0.30
   20   32    2     -2.43      3.73
   20   32    4     -3.85    -28.69
   20   32    6     -2.57      9.27
   20   32    8     -6.96     -2.80
   20   32   10     -7.16     -6.13
   20   32   12     -0.54      4.62
   20   33    1      1.26      5.59
   20   33    3     -3.82      0.75
   20   33    5      4.46      1.00
   20   33    7     -0.22      1.97
   20   33    9     -0.38      6.16
   20   33   11     -1.69     -2.21
   20   34    0      2.37     -0.98
   20   34    2     -5.97      1.68
   20   34    4      3.92      6.75
   20   34    6     -2.99     -4.40
   20   34    8     -2.69     -1.01
   20   35    1      1.32     -6.78
   20   35    3      2.09    -10.92
   20   35    5      1.15      0.47
   -1   21    0     18.86     -0.64
   -1   21    2      6.08     -3.86
   -1   21    4      0.59     -0.97
   -1   21    6     12.56      1.83
   -1   21    8    -21.20      0.44
   -1   21   10      8.57      0.33
   -1   21   12      3.69      6.75
   -1   21   14     -9.65     -8.50
   -1   21   16      4.13     -8.04
   -1   21   18     10.64      0.83
   -1   21   20      5.83      7.58
   -1   21   22     -0.74     -3.61
   -1   21   24     -4.43     -0.28
   -1   21   26    -29.00     -2.79
   -1   21   28      2.86    -38.75
   -2   21    1      3.84     24.13
   -2   21    3     -9.02    -12.35
   -2   21    5      2.06     15.97
   -2   21    7     -3.20      0.86
   -2   21    9     -1.44     10.05
   -2   21   11    -16.01     -4.85
   -2   21   13      6.80     15.15
   -2   21   15     -4.44      1.12
   -2   21   17     -5.45     -2.71
   -2   21   19      6.52      9.49
   -2   21   21     20.32      4.63
   -2   21   23      0.05     24.04
   -2   21   25    -10.99    -19.74
   -2   21   27      0.43    -12.32
   -3   21    0     -0.48      0.45
   -3   21    2      1.32     -2.41
   -3   21    4      3.88     -1.88
   -3   21    6     12.75     -7.34
   -3   21    8      4.69      7.36
   -3   21   10     12.51      8.75
   -3   21   12    -17.46     13.27
   -3   21   14      0.71     -9.36
   -3   21   16      4.79     -3.39
   -3   21   18      2.12      8.67
   -3   21   20    -10.38     -0.58
   -3   21   22      9.52     -4.65
   -3   21   24      5.53     -3.27
   -3   21   26     35.10    -31.41
   -3   21   28      3.61      0.03
   -4   21    1    -12.18     -3.98
   -4   21    3     -7.37     -8.78
   -4   21    5      5.06     16.84
   -4   21    7      9.03    -17.51
   -4   21    9     -3.02      0.74
   -4   21   11     15.74     -7.58
   -4   21   13      6.93    -34.49
   -4   21   15      1.42     -0.93
   -4   21   17      3.77     14.44
   -4   21   19    -14.47     -6.61
   -4   21   21     17.94     -8.59
   -4   21   23     11.83      3.23
   -4   21   25    -25.34     37.78
   -4   21   27    -14.97     10.15
   -5   21    0      2.71      1.02
   -5   21    2     14.51     27.24
   -5   21    4     11.60      4.79
   -5   21    6     -9.08      0.31
   -5   21    8    -30.69     16.68
   -5   21   10     -5.34     -1.06
   -5   21   12      3.82     23.83
   -5   21   14     -5.07      8.85
   -5   21   16    -14.68    -11.66
   -5   21   18      0.08      7.69
   -5   21   20     -0.04     -8.31
   -5   21   22      3.43      4.42
   -5   21   24     10.40     -1.08
   -5   21   26    -51.05    -21.79
   -6   21    1     18.70    -15.77
   -6   21    3     -8.03     14.83
   -6   21    5     -4.95    -21.40
   -6   21    7     11.92    -11.81
   -6   21    9     13.00     16.59
   -6   21   11     18.40      9.44
   -6   21   13     25.70     -0.82
   -6   21   15     -6.49     13.19
   -6   21   17      9.27     13.26
   -6   21   19     15.24     12.99
   -6   21   21      5.16     -0.84
   -6   21   23    -34.00    -11.53
   -6   21   25     27.73     29.03
   -7   21    0     -2.48     -1.12
   -7   21    2     11.01      3.49
   -7   21    4    -10.28      1.84
   -7   21    6     -7.95      4.72
   -7   21    8     -7.66    -21.35
   -7   21   10     -0.91     -2.53
   -7   21   12    -33.39    -10.01
   -7   21   14      4.15      5.26
   -7   21   16     -0.83     10.09
   -7   21   18      5.50     -3.94
   -7   21   20     -1.86     -2.39
   -7   21   22      4.55      1.84
   -7   21   24     -6.52      7.34
   -8   21    1     -0.41     -5.96
   -8   21    3     -4.14      0.90
   -8   21    5     25.05     -8.53
   -8   21    7    -12.64      8.18
   -8   21    9     10.57     13.61
   -8   21   11     24.26     -2.30
   -8   21   13     11.54      3.08
   -8   21   15     -9.04    -14.48
   -8   21   17    -32.44      2.26
   -8   21   19     21.93     15.51
   -8   21   21      5.51      1.62
   -8   21   23      4.45     -7.99
   -9   21    0     -9.68      0.72
   -9   21    2      7.86     -1.07
   -9   21    4     -2.19     -4.63
   -9   21    6     -9.77     -1.34
   -9   21    8      9.37     -0.57
   -9   21   10      7.48      8.73
   -9   21   12     27.13     10.12
   -9   21   14     -8.42    -23.96
   -9   21   16     14.65      4.43
   -9   21   18      4.60     -3.50
   -9   21   20     -2.04      1.46
  -10   21    1      9.64     12.83
  -10   21    3      0.71     -0.83
  -10   21    5     12.88     -1.33
  -10   21    7      7.15     -2.97
  -10   21    9     -7.59     -1.46
  -10   21   11     -2.68      4.13
  -10   21   13     -4.23      9.52
  -10   21   15      1.86     27.49
  -10   21   17    -16.90     11.11
  -10   21   19     19.16    -22.87
  -11   21    0      3.02      1.43
  -11   21    2    -27.91    -12.31
  -11   21    4      9.24     -1.23
  -11   21    6     19.31    -10.17
  -11   21    8     -4.89     -1.80
  -11   21   10     -0.11      0.74
  -11   21   12      3.92     -5.20
  -11   21   14      6.16     -7.75
  -11   21   16    -11.91      4.37
  -11   21   18     -7.85     23.51
  -11   21   20     -4.99     -3.39
  -12   21    1      1.74     -1.21
  -12   21    3      0.72     -5.56
  -12   21    5     -1.78     -8.92
  -12   21    7    -10.48      1.93
  -12   21    9      1.59      2.14
  -12   21   11     10.18      2.57
  -12   21   13      2.69    -11.88
  -12   21   15     -1.18      4.89
  -12   21   17     18.17     12.91
  -12   21   19     -5.48      1.93
  -13   21    0     12.86     -1.67
  -13   21    2     -3.37      0.69
  -13   21    4     -7.28     10.43
  -13   21    6     -9.69     -8.56
  -13   21    8      9.69     -7.17
  -13   21   10     -4.83      7.19
  -13   21   12      1.43     13.64
  -13   21   14      1.26     10.97
  -13   21   16     -5.39     -3.07
  -13   21   18      8.28     -9.95
  -13   21   20      0.85      1.33
  -14   21    1    -11.75     -6.07
  -14   21    3      8.42      1.66
  -14   21    5     10.14      8.40
  -14   21    7     -9.05      1.70
  -14   21    9     -7.42      0.34
  -14   21   11      4.30      3.99
  -14   21   13      7.85     -8.94
  -14   21   15     11.47     -6.58
  -14   21   17     -0.60      8.52
  -14   21   19     10.46     11.75
  -15   21    0     -2.53      0.63
  -15   21    2      0.34     -0.05
  -15   21    4      5.87     -5.53
  -15   21    6     -0.78      3.70
  -15   21    8    -15.63     11.29
  -15   21   10      0.83     -1.34
  -15   21   12      5.39     -3.17
  -15   21   14     -0.87      3.35
  -15   21   16    -17.13     11.61
  -15   21   18      2.72     -3.22
  -16   21    1     11.70      3.98
  -16   21    3      2.28     -8.66
  -16   21    5     13.74      2.18
  -16   21    7      1.32      9.11
  -16   21    9     -7.27      2.42
  -16   21   11      1.75     -4.83
  -16   21   13      0.61     10.78
  -16   21   15     -7.24     -0.86
  -16   21   17      2.13     -4.71
  -16   21   19      8.23      5.42
  -17   21    0     10.01      1.61
  -17   21    2     -1.73     -2.31
  -17   21    4    -12.98      4.81
  -17   21    6      6.17      6.07
  -17   21    8     -6.18      3.86
  -17   21   10     -1.19     -7.41
  -17   21   12    -14.39     -0.68
  -17   21   14      8.58      1.94
  -17   21   16     -5.98     -3.38
  -17   21   18      0.77    -16.28
  -17   21   20     -1.44      5.77
  -18   21    1     -2.61      2.20
  -18   21    3     -0.46     -7.27
  -18   21    5     -5.86      0.54
  -18   21    7    -12.75     -1.24
  -18   21    9     -5.15      3.58
  -18   21   11     -4.97      1.22
  -18   21   13      4.95     -4.61
  -18   21   15      6.51      4.74
  -18   21   17      3.29     10.21
  -18   21   19      8.19      0.54
  -18   21   21      1.63      7.97
  -19   21    0      8.13      0.05
  -19   21    2     -1.62      4.43
  -19   21    4      5.07    -14.75
  -19   21    6     -2.70      3.32
  -19   21    8      5.55      0.64
  -19   21   10     -8.23      2.44
  -19   21   12      9.01      0.84
  -19   21   14     -6.42     11.54
  -19   21   16    -13.04     -3.15
  -19   21   18     -2.68    -15.27
  -19   21   20      3.72     -0.55
  -19   21   22      7.44      1.04
  -20   21    1     -1.05     -1.46
  -20   21    3    -10.20      1.60
  -20   21    5     -0.89     -1.24
  -20   21    7     -1.48     -9.98
  -20   21    9      3.42      3.33
  -20   21   11     -5.45      0.03
  -20   21   13     -6.23      0.68
  -20   21   15      7.49     -9.62
  -20   21   17      9.53     -1.20
  -20   21   19      4.37     -6.18
  -20   21   21     -5.32     -3.79
  -20   21   23     -2.75      2.78
   21   21    0     -5.70      0.39
   21   21    2     -9.65     -2.48
   21   21    4     -8.83     16.92
   21   21    6     -2.47      9.86
   21   21    8      1.93     -4.31
   21   21   10     -1.35      2.21
   21   21   12     -2.86    -13.28
   21   21   14      3.82     -8.02
   21   21   16      1.07     10.23
   21   21   18     -4.01      5.06
   21   21   20     -8.97      2.31
   21   21   22      5.70      3.56
   21   22    1     22.44     15.65
   21   22    3      0.06      3.28
   21   22    5     -1.01     -4.14
   21   22    7     -2.69     -5.66
   21   22    9     -8.25      3.94
   21   22   11     -0.84      0.25
   21   22   13     -0.02     -2.47
   21   22   15      5.61      3.59
   21   22   17     -4.46     -5.81
   21   22   19      9.17     11.01
   21   22   21     -0.72      4.92
   21   23    0     -8.60      0.58
   21   23    2     -4.91      0.40
   21   23    4     -8.90     -7.52
   21   23    6     -4.17     -7.08
   21   23    8      6.46      6.79
   21   23   10      1.12      4.24
   21   23   12     -3.14     -4.46
   21   23   14      0.25     -1.66
   21   23   16      0.77     -9.72
   21   23   18     12.87      0.92
   21   23   20     -4.69     -3.43
   21   24    1      0.69     -0.85
   21   24    3      7.15     10.78
   21   24    5     -3.40     -1.07
   21   24    7     -8.10    -11.36
   21   24    9      0.21     -3.63
   21   24   11    -13.21      7.37
   21   24   13      0.18      3.03
   21   24   15      0.63     -9.07
   21   24   17     11.64     -6.69
   21   24   19      4.63      7.61
   21   25    0     -5.85    -17.68
   21   25    2     19.04      3.65
   21   25    4     -5.34     -6.06
   21   25    6     -8.70      0.28
   21   25    8     -3.24     -2.97
   21   25   10      7.10     -0.26
   21   25   12     -0.73      1.69
   21   25   14      1.78      1.12
   21   25   16     -3.45     -3.06
   21   25   18     -5.92      2.19
   21   26    1     -0.91      3.82
   21   26    3    -25.23     -9.98
   21   26    5     18.48     -1.92
   21   26    7     15.23     -5.09
   21   26    9     -2.60      7.70
   21   26   11     -0.90      6.78
   21   26   13     -8.89      1.75
   21   26   15      0.26     -2.87
   21   26   17      1.19     -3.49
   21   26   19      5.62     -0.44
   21   27    0     -0.38     -0.72
   21   27    2     -7.75     -0.72
   21   27    4      7.37      8.95
   21   27    6     -7.02      6.38
   21   27    8      2.42     -2.49
   21   27   10      6.07     -4.02
   21   27   12      1.31     -2.42
   21   27   14     -4.37      5.61
   21   27   16     -1.58      2.71
   21   27   18      8.35    -24.41
   21   28    1      0.03      4.18
   21   28    3     16.28     -3.73
   21   28    5     -5.49     18.08
   21   28    7     -7.52      4.80
   21   28    9     10.44     -0.33
   21   28   11     14.08      2.01
   21   28   13     -1.65      5.98
   21   28   15      1.61     -6.59
   21   28   17      4.38     -1.85
   21   29    0     -8.10     -1.48
   21   29    2      2.68     -1.11
   21   29    4      5.72     -5.92
   21   29    6     -0.61     -7.82
   21   29    8     -8.31    -14.78
   21   29   10     -0.59      5.50
   21   29   12     -8.25     -1.95
   21   29   14      0.47     -8.47
   21   29   16      2.41     10.65
   21   30    1      7.22     -6.56
   21   30    3      5.40     11.17
   21   30    5      8.07      1.96
   21   30    7     -4.30     -0.91
   21   30    9     -2.91      3.07
   21   30   11     -2.70     -1.50
   21   30   13      4.20     -1.53
   21   31    0    -16.34     -1.57
   21   31    2      2.29     -5.00
   21   31    4     -2.21      1.38
   21   31    6     -3.56      8.62
   21   31    8      0.97     -4.47
   21   31   10      3.98     -9.27
   21   31   12     -3.99      1.18
   21   32    1      2.38      8.31
   21   32    3     -9.63    -11.85
   21   32    5     -1.94      2.45
   21   32    7    -10.40     -0.15
   21   32    9      7.20      0.93
   21   32   11      3.24     -1.06
   21   33    0     12.76      4.17
   21   33    2     -3.06      9.61
   21   33    4      7.96      5.65
   21   33    6      2.32      0.34
   21   33    8     -0.01     -2.64
   21   33   10     -2.10      0.31
   21   34    1      1.56     -1.35
   21   34    3      1.68      2.82
   21   34    5      2.06      4.55
   21   34    7     -3.60    -12.70
   21   35    0     -2.87     -0.77
   21   35    2     -3.24      3.42
   21   35    4     -1.39     -5.92
   -1   22    1    -19.57     -6.56
   -1   22    3     10.99      8.79
   -1   22    5     -1.17     -7.57
   -1   22    7     -9.19     -6.37
   -1   22    9      9.05      0.60
   -1   22   11     -0.69    -19.29
   -1   22   13      8.11     -2.18
   -1   22   15     -9.16      7.92
   -1   22   17      6.32     -2.43
   -1   22   19    -12.59    -10.81
   -1   22   21     -0.27     -4.69
   -1   22   23      3.20     17.80
   -1   22   25     20.11     32.67
   -1   22   27     -8.39     11.82
   -2   22    0      2.50     -0.51
   -2   22    2     -7.78     -5.87
   -2   22    4     11.05     -6.66
   -2   22    6     -7.46      5.13
   -2   22    8      1.03     -4.95
   -2   22   10     13.47      4.56
   -2   22   12      7.09     -0.34
   -2   22   14      1.94      3.56
   -2   22   16     10.40    -10.58
   -2   22   18     22.63      7.43
   -2   22   20      3.08     -0.48
   -2   22   22      6.15     -1.71
   -2   22   24     -3.15    -10.65
   -2   22   26     14.89     -1.01
   -3   22    1      2.73     -1.46
   -3   22    3    -16.41    -18.25
   -3   22    5      3.08     16.60
   -3   22    7     14.07      2.29
   -3   22    9    -19.62      9.21
   -3   22   11     -8.75    -10.09
   -3   22   13     18.35     -3.56
   -3   22   15      8.02     12.13
   -3   22   17      0.02      4.30
   -3   22   19     -7.40     -2.99
   -3   22   21    -17.15     -6.30
   -3   22   23     -3.03      1.88
   -3   22   25     11.02     29.34
   -3   22   27    -39.89     18.90
   -4   22    0    -10.99     -1.34
   -4   22    2     27.94     -1.53
   -4   22    4     -6.82     -2.51
   -4   22    6      7.52    -12.96
   -4   22    8    -17.59     15.38
   -4   22   10      1.81     -8.87
   -4   22   12    -18.09     15.79
   -4   22   14      5.50      9.49
   -4   22   16     -9.20      6.21
   -4   22   18     -8.36      5.90
   -4   22   20     -3.22      1.34
   -4   22   22     -9.49      3.77
   -4   22   24      3.97     -4.78
   -4   22   26     -5.09    -19.38
   -5   22    1      5.52      0.07
   -5   22    3      3.64     -4.16
   -5   22    5      7.05     26.34
   -5   22    7     -0.16     11.06
   -5   22    9      0.90    -18.78
   -5   22   11     11.86    -14.49
   -5   22   13      1.82     13.52
   -5   22   15     -7.49     13.40
   -5   22   17     13.19    -14.40
   -5   22   19     13.00      0.90
   -5   22   21     -1.91      3.15
   -5   22   23      1.62     -9.06
   -5   22   25     28.01     34.03
   -5   22   27    -23.47    -48.51
   -6   22    0     -9.33     -0.01
   -6   22    2     -4.10     -1.65
   -6   22    4      0.05     17.18
   -6   22    6      6.13      4.69
   -6   22    8    -14.83     -4.06
   -6   22   10      2.39      6.31
   -6   22   12     -5.21     16.07
   -6   22   14     13.99     -8.72
   -6   22   16     -1.08      4.22
   -6   22   18      2.04     -8.20
   -6   22   20     -2.41     -6.28
   -6   22   22     -2.07     -5.89
   -6   22   24    -12.85     -3.54
   -6   22   26    -63.01      7.48
   -7   22    1     11.88    -15.16
   -7   22    3      5.70    -17.85
   -7   22    5      3.29      3.00
   -7   22    7     19.95     -2.48
   -7   22    9     14.05      7.40
   -7   22   11      2.65     21.82
   -7   22   13    -19.45      0.59
   -7   22   15      9.99    -25.91
   -7   22   17      8.40      1.57
   -7   22   19     -3.29      1.67
   -7   22   21     -2.69      9.42
   -7   22   23     19.09     19.10
   -7   22   25     64.88     15.15
   -8   22    0     19.64      0.66
   -8   22    2      6.52      1.78
   -8   22    4     -2.02     15.76
   -8   22    6    -22.77    -14.39
   -8   22    8      8.46      1.93
   -8   22   10      5.31     11.66
   -8   22   12     -7.10    -23.58
   -8   22   14      0.09     -2.49
   -8   22   16     -6.15     25.69
   -8   22   18     -1.53    -18.50
   -8   22   20      8.44     -8.95
   -8   22   22     -3.22     -0.28
   -9   22    1      1.17      0.82
   -9   22    3     -8.12     -0.41
   -9   22    5      4.95     -5.25
   -9   22    7     14.97      1.79
   -9   22    9     10.76    -19.49
   -9   22   11     -7.17     -8.48
   -9   22   13     -4.88     27.56
   -9   22   15      6.39     18.58
   -9   22   17    -22.00     -0.15
   -9   22   19     -8.36     11.11
   -9   22   21      1.98     -0.22
  -10   22    0     -1.31     -0.63
  -10   22    2      3.43      3.54
  -10   22    4     -3.86      2.28
  -10   22    6    -13.76     -5.57
  -10   22    8     -3.96     -1.20
  -10   22   10     -3.35     -7.39
  -10   22   12     -1.60      4.49
  -10   22   14     13.33     -5.43
  -10   22   16      1.36    -16.97
  -10   22   18     -9.88      2.70
  -10   22   20     -4.14     -2.06
  -11   22    1      2.64    -11.55
  -11   22    3     -9.42     -6.24
  -11   22    5     -1.33      3.07
  -11   22    7     10.52      4.87
  -11   22    9      2.63      3.52
  -11   22   11      1.38      5.51
  -11   22   13     -5.24     -8.49
  -11   22   15     30.35     24.13
  -11   22   17     36.20      6.65
  -11   22   19      8.12    -14.45
  -11   22   21     -3.02     -1.39
  -12   22    0     -2.98      0.37
  -12   22    2      1.13     14.06
  -12   22    4    -10.57      4.97
  -12   22    6     -1.29    -10.55
  -12   22    8      3.14      4.37
  -12   22   10     -1.66      1.58
  -12   22   12      1.15      3.03
  -12   22   14      3.72     -6.54
  -12   22   18    -14.18     31.18
  -12   22   20      5.83     12.67
  -13   22    1     12.50     -6.48
  -13   22    3      3.63     -3.26
  -13   22    5      8.29      9.95
  -13   22    7     -2.93     -2.06
  -13   22    9      0.85     -7.48
  -13   22   11     -1.07     -2.45
  -13   22   13     -2.96     -3.72
  -13   22   15    -12.84     -5.13
  -13   22   17      8.67     13.64
  -13   22   19    -10.91      3.19
  -14   22    0      5.50      1.21
  -14   22    2     -9.54    -10.10
  -14   22    4     12.14    -17.45
  -14   22    6     10.09      4.24
  -14   22    8    -13.26     13.29
  -14   22   10      5.89    -12.78
  -14   22   12     -0.38      4.90
  -14   22   14     -1.49     32.65
  -14   22   16    -10.06     -1.33
  -14   22   18     14.02    -20.26
  -14   22   20      1.25      0.72
  -15   22    1      4.51      1.05
  -15   22    3     -2.47      1.13
  -15   22    5      3.03      4.79
  -15   22    7     -0.65      7.61
  -15   22    9      2.40     -8.46
  -15   22   11     13.40      5.06
  -15   22   13      4.77     -6.91
  -15   22   15     -2.11     -2.70
  -15   22   17      1.13    -13.54
  -16   22    0     12.69     -2.20
  -16   22    2    -13.01      3.63
  -16   22    4     -3.45      8.44
  -16   22    6     -5.08      7.38
  -16   22    8      5.23      5.49
  -16   22   10     -6.06      9.06
  -16   22   12     -8.03     -1.76
  -16   22   14     14.80      5.81
  -16   22   16     -7.18      9.71
  -16   22   18     -7.74     -6.46
  -17   22    1     -1.77      6.23
  -17   22    3      0.24     -7.79
  -17   22    5      0.29     -9.63
  -17   22    7     -2.02     -3.37
  -17   22    9      3.23     -7.42
  -17   22   11     -5.09     -8.37
  -17   22   13     -1.75      6.96
  -17   22   15     -1.05      5.12
  -17   22   17     -0.45     14.83
  -17   22   19      6.39     -7.69
  -18   22    0    -10.00      3.35
  -18   22    2      4.97     -9.68
  -18   22    4      1.05     -2.36
  -18   22    6      6.41      3.08
  -18   22    8    -11.02      0.32
  -18   22   10      7.86      1.20
  -18   22   12      3.58     -3.18
  -18   22   14     -5.27      5.04
  -18   22   16    -10.47      9.94
  -18   22   18      0.98      1.97
  -18   22   20      6.95     -0.77
  -19   22    1     -4.40     10.30
  -19   22    3     -5.15      7.54
  -19   22    5     -4.05      1.45
  -19   22    7     -3.89      6.47
  -19   22    9     11.24      9.13
  -19   22   11      5.97     -5.83
  -19   22   13      4.62     -4.74
  -19   22   15     -7.45    -12.55
  -19   22   17    -11.13      1.06
  -19   22   19      1.13      3.01
  -19   22   21      3.32     -5.02
  -20   22    0      2.80      1.44
  -20   22    2     10.38     -0.40
  -20   22    4      7.62      5.95
  -20   22    6     -1.31      9.12
  -20   22    8    -15.32     -0.84
  -20   22   10    -11.40      2.06
  -20   22   12     -3.10      3.93
  -20   22   14      2.17     -3.84
  -20   22   16      5.36      5.41
  -20   22   18      6.55      0.74
  -20   22   20     -2.80     -1.79
  -20   22   22      6.67      7.32
  -21   22    1      4.43    -10.39
  -21   22    3      3.74     -4.00
  -21   22    5     -5.87     -7.83
  -21   22    7     -4.63     -2.07
  -21   22    9     -7.94     -0.77
  -21   22   11     -1.08      0.48
  -21   22   13     -6.71      1.10
  -21   22   15     15.33      7.64
  -21   22   17      5.44      1.72
  -21   22   19     -3.97     -3.30
  -21   22   21     -2.12     -5.57
   22   22    0     -5.27     -1.62
   22   22    2    -14.74      4.66
   22   22    4    -10.45      4.29
   22   22    6      6.99      5.87
   22   22    8      8.14     -2.56
   22   22   10     -0.40     -3.38
   22   22   12     -1.60     -6.86
   22   22   14     -3.76     -6.96
   22   22   16     -0.86      4.80
   22   22   18      5.28      1.33
   22   22   20     -5.49     -3.14
   22   23    1     -3.07      7.34
   22   23    3     -7.05     -4.99
   22   23    5      4.22     -5.27
   22   23    7    -11.03     -3.48
   22   23    9     -4.90      6.21
   22   23   11     -0.03      0.05
   22   23   13     -2.99     -1.78
   22   23   15     -9.19      2.74
   22   23   17     -3.22     -4.13
   22   23   19      6.84      9.72
   22   24    0     -4.61     -0.35
   22   24    2      1.83    -14.28
   22   24    4     -0.09     -8.17
   22   24    6      4.49      4.23
   22   24    8     -0.93     -7.76
   22   24   10     -0.20      9.63
   22   24   12     -6.77     -4.24
   22   24   14      0.87     -1.30
   22   24   16     -5.89     -7.52
   22   24   18      6.89     -6.53
   22   24   20     -0.74     -1.97
   22   25    1     -0.44     13.44
   22   25    3    -15.62      5.72
   22   25    5     -3.56    -11.39
   22   25    7     -2.75    -12.45
   22   25    9     -0.36     10.11
   22   25   11      3.52     -3.27
   22   25   13      2.78      0.13
   22   25   15     -2.10     -5.60
   22   25   17      7.27     -3.99
   22   25   19      5.99      6.67
   22   26    0      7.08     -5.18
   22   26    2      7.57      3.59
   22   26    4     -2.98      5.59
   22   26    6     -6.84     11.69
   22   26    8      7.52      1.23
   22   26   10      6.59     -8.43
   22   26   12     -1.24      2.86
   22   26   14      0.77     -3.98
   22   26   16      4.77     -9.95
   22   26   18     20.29     -0.31
   22   27    1     -2.78     -3.78
   22   27    3     -0.44     -4.77
   22   27    5      1.69      1.47
   22   27    7     -1.71    -12.83
   22   27    9     -8.82      2.32
   22   27   11      2.77      6.31
   22   27   13     -5.25      3.07
   22   27   15      1.15      2.23
   22   27   17     -2.37      0.69
   22   28    0     -3.17     -0.75
   22   28    2     10.06      6.84
   22   28    4     -2.06      9.09
   22   28    6     -0.83     -2.23
   22   28    8      9.20     -5.12
   22   28   10      0.37     -0.31
   22   28   12     -5.90     -6.55
   22   28   14      2.26     -1.50
   22   28   16      1.57     -2.20
   22   29    1      1.13      0.44
   22   29    3      2.10      1.94
   22   29    5      8.92     -2.61
   22   29    7     -4.58      2.14
   22   29    9     -2.07      2.84
   22   29   11     -0.29      3.12
   22   29   13      1.40     -2.43
   22   29   15     -3.88     -6.12
   22   30    0     -6.11     -0.32
   22   30    2     -3.54    -16.08
   22   30    4     -0.93    -10.87
   22   30    6     -3.95     -1.83
   22   30    8     -8.65     -0.09
   22   30   10      3.18      2.05
   22   30   12      1.89      4.19
   22   30   14      3.71      0.19
   22   31    1      4.68     -4.02
   22   31    3     14.36      7.97
   22   31    5    -12.41     13.46
   22   31    7     -1.95     -5.37
   22   31    9     -0.27     -0.04
   22   31   11     -1.65     -1.91
   22   32    0     -3.33      0.17
   22   32    2      3.96      5.49
   22   32    4     16.16     17.49
   22   32    6      0.51      3.31
   22   32    8      2.17     -2.97
   22   32   10      6.74     -2.73
   22   33    1     -6.59     -8.14
   22   33    3     -8.12    -18.81
   22   33    5     -3.47     -1.15
   22   33    7     -8.18     -6.19
   22   34    0      0.71      0.64
   22   34    2     -0.14      8.23
   22   34    4      6.04      2.88
   -1   23    0     -3.12     -1.15
   -1   23    2     11.98     -8.38
   -1   23    4    -10.30     -7.96
   -1   23    6      3.50    -17.95
   -1   23    8    -11.31     12.48
   -1   23   10      7.46     14.84
   -1   23   12      8.20    -13.41
   -1   23   14     19.59     16.49
   -1   23   16      4.91      9.94
   -1   23   18     -9.68      4.62
   -1   23   20      2.51      5.03
   -1   23   22     -3.02      0.62
   -1   23   24      2.71     -2.67
   -1   23   26     -7.37     10.49
   -2   23    1      0.08     -3.75
   -2   23    3     -8.12      5.43
   -2   23    5      5.61      6.85
   -2   23    7     -2.12      1.84
   -2   23    9    -11.06    -26.79
   -2   23   11      1.78      2.59
   -2   23   13     -2.71    -15.78
   -2   23   15    -15.36      2.86
   -2   23   17    -10.40     15.94
   -2   23   19     -6.06     -3.16
   -2   23   21      2.68     -2.22
   -2   23   23      1.58     -6.14
   -2   23   25     14.27     29.26
   -2   23   27    -43.79     23.60
   -3   23    0      4.84      1.99
   -3   23    2      8.42      7.72
   -3   23    4     10.32     -4.24
   -3   23    6      4.45     11.84
   -3   23    8    -18.91     18.14
   -3   23   10      1.10     10.67
   -3   23   12      1.39      0.62
   -3   23   14     11.14     -5.34
   -3   23   16     -0.84     16.54
   -3   23   18     11.52     -7.85
   -3   23   20      7.80      4.37
   -3   23   22     -7.82     -3.81
   -3   23   24    -17.11    -42.55
   -3   23   26    -16.88    -22.83
   -4   23    1      3.91     -7.06
   -4   23    3     -1.23     -6.56
   -4   23    5      6.75     -4.87
   -4   23    7     -8.65     -4.46
   -4   23    9      7.28      7.07
   -4   23   11      5.42     -4.65
   -4   23   13      1.35     12.93
   -4   23   15     -1.23      6.07
   -4   23   17     -9.16     -8.42
   -4   23   19      9.61     14.90
   -4   23   21      3.36      2.94
   -4   23   23     -5.88      1.11
   -4   23   25     30.45     25.39
   -5   23    0     -0.02     -0.09
   -5   23    2      5.02      1.36
   -5   23    4     12.86      1.95
   -5   23    6     -6.42     15.40
   -5   23    8     -8.20      0.08
   -5   23   10      5.37     -7.79
   -5   23   12     13.10     -7.55
   -5   23   14      7.98     20.95
   -5   23   16    -27.16      4.79
   -5   23   18     -4.58    -14.36
   -5   23   20      1.40      7.41
   -5   23   22     -0.95      4.87
   -5   23   24     -9.52     20.47
   -5   23   26     -2.04     22.54
   -6   23    1      0.61      8.72
   -6   23    3     12.16    -21.63
   -6   23    5     -4.98     36.56
   -6   23    7     -2.67     -1.82
   -6   23    9      2.69      7.51
   -6   23   11     11.59     -9.06
   -6   23   13     -1.03      8.36
   -6   23   15    -19.23    -13.22
   -6   23   17     -0.50    -15.10
   -6   23   19     12.74     -1.07
   -6   23   21     -1.72      4.26
   -6   23   23     33.15    -30.18
   -6   23   25     41.37    -43.95
   -7   23    0    -15.90     -0.59
   -7   23    2     -4.11    -14.98
   -7   23    4      4.40     16.11
   -7   23    6      1.51    -17.61
   -7   23    8     -5.87      7.62
   -7   23   10     -2.50     -5.46
   -7   23   12      2.51    -14.86
   -7   23   14     21.59    -18.12
   -7   23   16     -3.33     17.68
   -7   23   18    -14.76      4.37
   -7   23   20     -9.08     -1.72
   -7   23   22    -20.07     -3.88
   -7   23   24     -5.00     16.20
   -8   23    1      2.66      6.10
   -8   23    3     23.74     17.64
   -8   23    5    -12.59    -22.29
   -8   23    7     16.81    -16.84
   -8   23    9    -24.94     18.44
   -8   23   11     -9.45     14.60
   -8   23   13     -4.50      6.32
   -8   23   15      4.20      6.59
   -8   23   17     14.59     18.54
   -8   23   19    -10.66      9.22
   -8   23   21      1.38     -9.16
   -8   23   23     -1.16     -0.08
   -9   23    2      2.34    -25.40
   -9   23    4      4.35     22.81
   -9   23    6      4.92     -8.05
   -9   23    8    -13.78     -8.53
   -9   23   10     -2.52     -7.62
   -9   23   12     -0.91    -19.10
   -9   23   14     26.69     -4.32
   -9   23   16     -0.90      1.79
   -9   23   18     12.04     -9.21
   -9   23   20     22.11    -14.74
  -10   23    1     -4.15    -13.21
  -10   23    3     -3.17     -1.35
  -10   23    5     -4.03     -3.81
  -10   23    7     -8.32      8.13
  -10   23    9      0.47      7.20
  -10   23   11     10.99      8.85
  -10   23   13     -1.97    -26.95
  -10   23   15     12.07     16.58
  -10   23   17     -9.36      7.21
  -10   23   19      1.35     -0.33
  -10   23   21      1.91     -1.20
  -11   23    0     10.89      1.07
  -11   23    2     14.15      7.44
  -11   23    4      6.33      1.53
  -11   23    6     -5.42      5.32
  -11   23    8     -1.81     12.38
  -11   23   10      1.84     11.55
  -11   23   12    -13.82     15.01
  -11   23   14    -10.73    -15.44
  -11   23   16    -13.86     -8.07
  -11   23   18     -5.56      7.04
  -12   23    1     -7.70     -0.05
  -12   23    3     -0.31     -5.51
  -12   23    5     16.45    -14.34
  -12   23    7      7.89     -2.03
  -12   23    9      5.56      5.16
  -12   23   11      6.75      2.11
  -12   23   13     -8.61     -0.37
  -12   23   17      1.78     -9.29
  -12   23   19      7.31      0.61
  -12   23   21     -0.93     -2.98
  -13   23    0      9.51      0.48
  -13   23    2     -9.14     -0.13
  -13   23    4      4.72     -6.44
  -13   23    6     -6.92     -1.24
  -13   23    8     -4.07     -4.43
  -13   23   10     -3.65      0.61
  -13   23   12     11.79     15.11
  -13   23   14      0.10      9.67
  -13   23   18     21.78     16.03
  -13   23   20      9.17     -2.28
  -14   23    1     22.79     15.01
  -14   23    3    -14.35      5.36
  -14   23    5      0.11      9.07
  -14   23    7     -4.21     -0.64
  -14   23    9     -0.54     -5.69
  -14   23   11      5.79      0.90
  -14   23   13     -2.13     -7.39
  -14   23   15     -8.33     10.18
  -15   23    0     -5.88      1.07
  -15   23    2     -8.13     -5.97
  -15   23    4     -6.37     -4.72
  -15   23    6      1.13     -2.86
  -15   23    8     -5.80     -2.03
  -15   23   10      9.85     -1.83
  -15   23   12     -9.91      5.84
  -15   23   14      1.97     -2.96
  -15   23   16     -2.82      2.48
  -15   23   18      1.47      5.13
  -15   23   20     -3.08     -7.58
  -16   23    1      1.79     -2.60
  -16   23    3      8.52     -2.84
  -16   23    5     -1.18    -10.10
  -16   23    7     -3.01     -4.97
  -16   23    9     -2.34     -1.82
  -16   23   11      1.41      3.87
  -16   23   13     13.09      5.56
  -16   23   15      2.25      6.99
  -16   23   17      1.65     11.46
  -16   23   19     -3.23     -3.79
  -17   23    0     13.06      2.28
  -17   23    2      6.51     -2.93
  -17   23    4     -6.96     20.84
  -17   23    6      5.43     -0.62
  -17   23    8     -1.54      3.09
  -17   23   10      7.80     16.35
  -17   23   12      8.38     -3.65
  -17   23   14     -0.96      4.84
  -17   23   16      2.18      3.63
  -17   23   18      3.26      1.14
  -18   23    1     -5.05     -8.69
  -18   23    3      4.70     16.17
  -18   23    5     -9.40    -10.42
  -18   23    7      4.64      6.19
  -18   23    9      0.84     -3.10
  -18   23   11     -8.03      2.29
  -18   23   13     -1.61      3.11
  -18   23   15     -0.70      1.44
  -18   23   17      1.73      3.30
  -18   23   19     -6.38     -5.01
  -19   23    0      5.22     -2.50
  -19   23    2     18.36    -10.95
  -19   23    4     -2.35      9.98
  -19   23    6     -8.97     -0.67
  -19   23    8     -2.33     -7.98
  -19   23   10      6.10      4.89
  -19   23   12     -3.77     15.78
  -19   23   14      9.20      3.28
  -19   23   16      1.96      0.69
  -19   23   18      2.08      0.64
  -19   23   20     -3.76     -2.40
  -20   23    1     -7.06     -3.41
  -20   23    3     -0.52     -3.19
  -20   23    5      0.32     17.72
  -20   23    7      5.27     -9.18
  -20   23    9      1.56      1.94
  -20   23   11      8.53      5.14
  -20   23   13     -3.33      2.74
  -20   23   15    -12.88      4.02
  -20   23   17     -3.75     -2.48
  -20   23   19     -3.43      1.30
  -20   23   21     -4.69     -3.30
  -21   23    0      0.49      0.68
  -21   23    2      1.86      5.96
  -21   23    4      6.35    -15.14
  -21   23    6     -4.26     10.68
  -21   23    8     -0.45     12.81
  -21   23   10     -1.59    -11.72
  -21   23   12     -1.16     -3.90
  -21   23   14     -1.24      4.07
  -21   23   16     -5.32      0.25
  -21   23   18     -1.98      2.54
  -21   23   20      1.18     -2.71
  -22   23    1     -0.87     10.10
  -22   23    3     -9.04    -19.09
  -22   23    5     -2.36    -16.43
  -22   23    7     -6.38     -5.88
  -22   23    9    -11.60      9.28
  -22   23   11     -9.23     -3.20
  -22   23   13     -0.93      8.32
  -22   23   15      1.56      2.39
  -22   23   17     -7.37    -13.70
  -22   23   19      3.34      0.18
   23   23    0     -7.32      2.11
   23   23    2    -29.66    -10.80
   23   23    4      2.41      0.31
   23   23    6     15.02     19.63
   23   23    8     -5.09     -4.66
   23   23   10      0.32      1.27
   23   23   12      4.24     -2.40
   23   23   14      8.15     -5.18
   23   23   16      8.80     -4.18
   23   23   18      6.72      2.22
   23   23   20     -2.57     -8.77
   23   24    1     -2.64      3.07
   23   24    3     -0.77      3.26
   23   24    5      0.74      3.43
   23   24    7     -7.17     -0.89
   23   24    9     -1.68     -4.42
   23   24   11      0.75     -3.00
   23   24   13     -4.45     -1.84
   23   24   15     -0.06      7.36
   23   24   17      6.04     -1.09
   23   24   19     -3.64     -1.48
   23   25    0     -9.55      4.61
   23   25    2     11.85    -10.80
   23   25    4     -1.83     -3.46
   23   25    6     -2.52      3.79
   23   25    8      0.76     -2.28
   23   25   10      5.12     -5.64
   23   25   12     -0.04     -6.78
   23   25   14     -6.19     -4.01
   23   25   16     -0.67     -4.75
   23   25   18     12.12     -0.44
   23   26    1     -4.93      5.23
   23   26    3    -13.34      8.69
   23   26    5      3.04     -5.58
   23   26    7      1.95     -5.31
   23   26    9     -8.45      5.00
   23   26   11      0.13      2.63
   23   26   13     -1.31      4.45
   23   26   15      3.71     -2.21
   23   26   17      0.87     -1.90
   23   27    0     -6.88     -3.40
   23   27    2     12.31      0.34
   23   27    4     -4.49     -6.52
   23   27    6      1.75     -7.23
   23   27    8     -5.91      0.26
   23   27   10      0.58      2.45
   23   27   12     -4.15     -4.02
   23   27   14      2.18     -0.52
   23   27   16      2.83     -7.86
   23   28    1      4.68    -11.33
   23   28    3     -4.30     -4.31
   23   28    5     -8.55     -3.40
   23   28    7      0.90     -3.70
   23   28    9     -2.11     -2.57
   23   28   11     -2.85      0.87
   23   28   13      2.86     -0.58
   23   28   15      3.20     -1.52
   23   29    0      7.95     -0.17
   23   29    2     -2.87     12.08
   23   29    4      5.19     10.84
   23   29    6     -6.44      9.62
   23   29    8      5.73      1.12
   23   29   10      8.22      2.15
   23   29   12     -0.55      0.65
   23   29   14      4.90     -4.04
   23   30    1     -3.61     11.96
   23   30    3     -2.42     -5.83
   23   30    5      6.37      7.55
   23   30    7     -1.87     -1.48
   23   30    9      3.77     -5.94
   23   30   11     -0.38      0.35
   23   31    0     -4.83      1.14
   23   31    2      4.17     -6.66
   23   31    4     16.68      3.02
   23   31    6      1.40     -0.39
   23   31    8     -1.37      4.11
   23   31   10     -2.66     -3.29
   23   32    1      1.71     -6.80
   23   32    3     -5.73      2.12
   23   32    5    -10.77     -0.68
   23   32    7     -2.40    -11.75
   23   32    9      1.47     -1.67
   23   33    0      7.26     -0.23
   23   33    2      4.21      6.90
   23   33    4      0.40      1.26
   23   33    6     -3.83      8.14
   23   34    1     -1.05      1.49
   -1   24    1      7.38      4.16
   -1   24    3      7.78     13.78
   -1   24    5    -12.85      5.43
   -1   24    7     10.25      1.65
   -1   24    9    -10.04     -6.30
   -1   24   11    -18.43     29.48
   -1   24   13    -12.25     15.76
   -1   24   15    -15.24     -5.81
   -1   24   17     -7.04     -6.67
   -1   24   19     15.41     -6.74
   -1   24   21      3.74      2.37
   -1   24   23     -5.12      3.57
   -1   24   25      6.95      2.07
   -2   24    0     -0.11      0.21
   -2   24    2    -11.87     -1.63
   -2   24    4    -13.75    -17.05
   -2   24    6     12.95      0.50
   -2   24    8    -12.88     -1.21
   -2   24   10     32.66      7.63
   -2   24   12     -8.73     -2.34
   -2   24   14      9.47      1.17
   -2   24   16     11.15     10.35
   -2   24   18     -1.09      3.92
   -2   24   20     -7.77     10.31
   -2   24   22     -5.87      6.23
   -2   24   24      3.55     -7.02
   -2   24   26     -3.15    -42.95
   -3   24    1      3.51      9.88
   -3   24    3      2.31      4.94
   -3   24    5      6.22     -1.04
   -3   24    7      7.18     -1.94
   -3   24    9     -2.57      5.71
   -3   24   11     -5.36      3.62
   -3   24   13     -0.06      4.36
   -3   24   15      5.09     -0.84
   -3   24   17    -10.89     -0.08
   -3   24   19     -6.57      9.02
   -3   24   21      1.15    -12.42
   -3   24   23      7.18      7.58
   -3   24   25      6.41     46.14
   -4   24    0      2.86     -0.96
   -4   24    2     11.87     -2.64
   -4   24    4      2.53     15.27
   -4   24    6     -0.20     10.03
   -4   24    8    -10.87      5.78
   -4   24   10      0.28      2.50
   -4   24   12     21.48     -4.82
   -4   24   14     -8.96      1.55
   -4   24   16    -18.55      6.05
   -4   24   18      5.39     -4.64
   -4   24   20     -3.07     -0.74
   -4   24   22      2.64     -5.36
   -4   24   24     -3.68     -3.23
   -4   24   26     -2.70     15.27
   -5   24    1      3.04     -1.27
   -5   24    3     -4.48      3.80
   -5   24    5     -7.56      6.58
   -5   24    7      2.68     -3.64
   -5   24    9     -0.56     -8.38
   -5   24   11     -9.66    -20.09
   -5   24   13      1.54     13.03
   -5   24   15      3.35      5.39
   -5   24   17     11.46    -13.49
   -5   24   19     -9.00    -16.88
   -5   24   21    -17.26      5.88
   -5   24   23      0.42     -1.04
   -5   24   25     32.79    -43.20
   -6   24    0     11.00     -0.25
   -6   24    2     10.01     -8.02
   -6   24    4     15.47      2.94
   -6   24    6    -10.42     -0.24
   -6   24    8    -19.60     -6.27
   -6   24   10     -6.35     -1.86
   -6   24   12     10.27     -1.37
   -6   24   14     11.19     -0.77
   -6   24   16    -15.28     10.10
   -6   24   18     -2.30     20.27
   -6   24   20     15.24     -0.09
   -6   24   22     -8.31     -5.05
   -6   24   24    -39.34     60.70
   -6   24   26      3.40      5.51
   -7   24    1      2.61      7.11
   -7   24    3     -0.46      6.16
   -7   24    5     -5.88    -16.37
   -7   24    7      5.06      3.79
   -7   24    9    -12.95     26.71
   -7   24   11      3.46    -34.53
   -7   24   13     13.98     19.44
   -7   24   15      4.29     17.11
   -7   24   17     17.16      1.30
   -7   24   19      4.20     10.03
   -7   24   21     -3.25     -0.92
   -7   24   23     15.81    -32.15
   -7   24   25     -1.69    -26.45
   -8   24    0    -30.21     -6.88
   -8   24    2      4.63     -3.92
   -8   24    4     -4.66     -7.61
   -8   24    6      6.55      5.71
   -8   24    8     -1.92     -9.06
   -8   24   10     -9.79    -26.93
   -8   24   12    -14.68    -10.64
   -8   24   14     26.38      0.05
   -8   24   16      2.81     -9.17
   -8   24   18     -6.30     -4.95
   -8   24   20     11.18    -10.75
   -8   24   22     -8.78     -5.88
   -9   24    1     14.78     13.46
   -9   24    3    -26.91     11.83
   -9   24    5     -5.26     10.22
   -9   24    7     22.75     11.17
   -9   24    9    -27.98     13.94
   -9   24   11     -3.34     18.58
   -9   24   13     10.22     -7.84
   -9   24   15    -14.06      9.40
   -9   24   17    -23.37      1.87
   -9   24   19    -16.01    -21.35
   -9   24   21      0.99     13.11
  -10   24    4      6.73     -0.04
  -10   24    6      7.45    -10.31
  -10   24    8      3.54     12.61
  -10   24   10     21.14      3.70
  -10   24   12     -5.05     -8.09
  -10   24   14     -3.32    -12.17
  -10   24   16      3.70    -13.35
  -10   24   18     12.70     -4.46
  -11   24    1      1.40     -1.14
  -11   24    3     -3.84     -5.61
  -11   24    5      4.55     -0.12
  -11   24    7      6.45      1.13
  -11   24    9     -9.32     -4.93
  -11   24   11    -12.46    -18.37
  -11   24   13    -12.02     -4.26
  -11   24   15     -1.88     18.63
  -11   24   17    -21.10     -8.58
  -11   24   19     12.45      6.99
  -11   24   21     -8.00     -1.37
  -12   24    0    -11.76      0.99
  -12   24    2     -4.05      3.00
  -12   24    4      1.20      5.11
  -12   24    6     -7.65     -6.11
  -12   24    8    -11.97    -11.38
  -12   24   10     -6.15     -7.70
  -12   24   12      1.64     10.92
  -12   24   18     31.04     -0.91
  -12   24   20      1.74      3.23
  -13   24    1     -3.73     -3.47
  -13   24    3     -5.80      0.48
  -13   24    5      1.57     -4.37
  -13   24    7      5.60     11.86
  -13   24    9     -4.04      9.80
  -13   24   11      3.20     -5.57
  -13   24   13     -6.48     -5.34
  -13   24   17      6.79     -6.52
  -13   24   19     -4.87      7.87
  -13   24   21      7.28      8.25
  -14   24    0      1.28     -0.29
  -14   24    2      3.61      3.32
  -14   24    4     -1.40      0.28
  -14   24    6    -11.58     -2.45
  -14   24    8      5.00      7.19
  -14   24   10      0.58      6.72
  -14   24   12      0.83      7.09
  -14   24   14      1.97     -7.58
  -14   24   18     -8.89     11.79
  -14   24   20     -4.21      0.84
  -15   24    1     -1.00    -10.27
  -15   24    3      5.58     -2.97
  -15   24    5     16.99     -5.06
  -15   24    7      0.88     -0.47
  -15   24    9     -1.60     -5.83
  -15   24   11    -15.18      2.71
  -15   24   13     -1.79     -4.04
  -15   24   15     11.99     21.29
  -15   24   19      1.88     -6.37
  -16   24    0     -1.98      2.53
  -16   24    2      5.34      5.58
  -16   24    4     -1.05     -0.55
  -16   24    6      0.04      3.49
  -16   24    8     -1.58      4.49
  -16   24   10     16.60      6.97
  -16   24   12     -3.98     -4.90
  -16   24   14    -12.09    -12.71
  -16   24   16      1.98      2.79
  -16   24   18      0.48     22.96
  -16   24   20      2.61    -14.63
  -17   24    1     -9.87     -2.54
  -17   24    3      8.52     -4.25
  -17   24    5      0.69      7.01
  -17   24    7      0.19      4.71
  -17   24    9      5.16     -1.92
  -17   24   11     10.42      8.04
  -17   24   13      9.06     16.52
  -17   24   15     -2.86      7.12
  -17   24   17     -3.90      0.44
  -17   24   19    -17.04     -4.12
  -18   24    0     11.40      0.01
  -18   24    2     13.20      2.89
  -18   24    4     -1.85      5.18
  -18   24    6      0.60     -9.51
  -18   24    8     -3.16     -6.96
  -18   24   10     11.71     -1.86
  -18   24   12      4.34     11.83
  -18   24   14      1.81      6.41
  -18   24   16      3.91     -8.57
  -18   24   18      2.46    -10.15
  -19   24    1     -3.80     -5.89
  -19   24    3      0.26      5.22
  -19   24    5      1.61      9.19
  -19   24    7     -2.52     -2.07
  -19   24    9     -2.16      5.76
  -19   24   11      6.02     13.42
  -19   24   13    -11.87      4.39
  -19   24   15    -32.24      8.47
  -19   24   17     -5.34     -0.92
  -19   24   19      5.21      6.92
  -20   24    0      9.02      0.29
  -20   24    2     -6.62      2.10
  -20   24    4      3.67     -9.16
  -20   24    6    -11.23     -0.18
  -20   24    8      1.62      2.91
  -20   24   10      7.09     -3.42
  -20   24   12      2.51      2.69
  -20   24   14      7.05     18.71
  -20   24   16     -1.81     -0.67
  -20   24   18     -1.31     -1.35
  -20   24   20     -0.65     -6.43
  -21   24    1     -4.23     11.58
  -21   24    3     -3.88     -9.35
  -21   24    5      7.86      2.43
  -21   24    7      2.53     -8.03
  -21   24    9     -6.77      5.18
  -21   24   11      4.10      3.77
  -21   24   13      0.32    -14.38
  -21   24   15     -9.05     -1.04
  -21   24   17      3.15     -0.51
  -21   24   19      3.25      2.28
  -22   24    0     -1.90      5.40
  -22   24    2    -11.52     -0.19
  -22   24    4      5.19      4.23
  -22   24    6     11.61     10.07
  -22   24    8     -6.88      6.22
  -22   24   10     -3.15      3.49
  -22   24   12      4.67     -1.80
  -22   24   14      2.98      4.99
  -22   24   16     -3.64      0.16
  -22   24   18     14.52      3.45
  -22   24   20      3.91     -0.33
  -23   24    1      7.19     10.73
  -23   24    3      3.28    -11.03
  -23   24    5    -21.59    -16.46
  -23   24    7     -3.21      1.82
  -23   24    9     -3.26      4.57
  -23   24   11      2.70     -7.49
  -23   24   13      1.78     -1.41
  -23   24   15    -15.56     -4.96
  -23   24   17     -8.16    -11.82
  -23   24   19      5.29      3.76
   24   24    0     -9.49     -0.04
   24   24    2    -10.09     -5.03
   24   24    4     -2.49     -7.92
   24   24    6     10.16     -6.95
   24   24    8     -4.58      4.22
   24   24   10     -4.95      1.50
   24   24   12     -0.97     -0.38
   24   24   14     15.13      6.31
   24   24   16     10.39      3.13
   24   24   18     -0.61      2.82
   24   25    1      0.73     -0.77
   24   25    3     -6.76     10.32
   24   25    5      1.17      2.43
   24   25    7     -2.95    -12.32
   24   25    9     -2.20      6.10
   24   25   11     -5.76      2.61
   24   25   13     -5.85     -8.51
   24   25   15      0.12      2.20
   24   25   17     -4.36      1.21
   24   26    0     -9.08      0.96
   24   26    2      3.04     -2.16
   24   26    4     -4.68     -1.67
   24   26    6     -2.87      1.64
   24   26    8     -2.64     -1.99
   24   26   10     -0.51     -4.70
   24   26   12      3.76     -6.17
   24   26   14      4.76      3.03
   24   26   16     -3.10     -2.18
   24   27    1     -4.06      5.65
   24   27    3     -1.98     -0.29
   24   27    5      6.65     -0.70
   24   27    7      0.46      9.06
   24   27    9     -1.29     -4.52
   24   27   11      7.66      2.43
   24   27   13     -2.51     -0.46
   24   27   15      2.92     -1.79
   24   28    0     -0.36      0.66
   24   28    2      6.24    -11.39
   24   28    4      2.35      3.54
   24   28    6     -4.05     -1.93
   24   28    8     -5.73     -5.50
   24   28   10      3.28      1.75
   24   28   12      2.49     -2.08
   24   28   14      0.36      2.65
   24   29    1     -4.02      0.42
   24   29    3      2.29      2.30
   24   29    5      2.05      4.71
   24   29    7    -13.22     -4.23
   24   29    9     -2.32     -4.84
   24   29   11      5.11     -1.59
   24   29   13      1.04     -4.66
   24   30    0      5.20     -0.71
   24   30    2      1.38     -1.13
   24   30    4      9.49      1.33
   24   30    6     -3.74     16.41
   24   30    8     -1.54     -5.94
   24   30   10      3.44      3.60
   24   31    1    -11.48      3.07
   24   31    3     -4.73     -5.57
   24   31    5      6.23    -12.69
   24   31    7      3.62      1.85
   24   31    9      5.60      0.96
   24   32    0      8.56      0.23
   24   32    2      2.63     -4.87
   24   32    4     10.69      2.57
   24   32    6     -0.95      3.50
   24   33    1      5.90      3.40
   24   33    3     -4.40     -0.61
   -1   25    0      3.56      2.30
   -1   25    2     -7.40     -1.69
   -1   25    4     14.71      7.76
   -1   25    6     -9.84      3.43
   -1   25    8     -4.07     -7.05
   -1   25   10     11.42      6.80
   -1   25   12     12.28      3.14
   -1   25   14     -6.85     -0.86
   -1   25   16      9.69     -0.02
   -1   25   18     -3.80     -6.07
   -1   25   20      0.81     -2.29
   -1   25   22      9.33      4.58
   -1   25   24      2.27     14.37
   -2   25    1      3.11    -18.50
   -2   25    3     14.04     -0.90
   -2   25    5    -10.53     -1.08
   -2   25    7     28.43     18.64
   -2   25    9    -17.11     -0.52
   -2   25   11     -2.24     -6.29
   -2   25   13      8.94     20.77
   -2   25   15     -5.05     -3.34
   -2   25   17    -11.61    -10.34
   -2   25   19     -7.52      7.17
   -2   25   21     -6.87    -19.02
   -2   25   23      6.23     22.56
   -2   25   25    -48.04     30.17
   -3   25    0      6.16     -1.84
   -3   25    2     -1.57      1.63
   -3   25    4      5.34     12.83
   -3   25    6     -9.19      4.29
   -3   25    8     -7.93     -5.59
   -3   25   10     18.30     -1.59
   -3   25   12     -6.71     -3.86
   -3   25   14    -12.04     -9.22
   -3   25   16      1.60      0.50
   -3   25   18      6.76     10.67
   -3   25   20    -11.74     19.47
   -3   25   22     -0.43     -2.03
   -3   25   24     24.65     -3.92
   -4   25    1      4.08     -1.53
   -4   25    3     13.33      2.98
   -4   25    5     -5.30      2.80
   -4   25    7      3.31     18.96
   -4   25    9    -15.62      2.45
   -4   25   11      3.98      1.81
   -4   25   13     -7.09     17.26
   -4   25   15      3.78      9.31
   -4   25   17      9.18      4.03
   -4   25   19      2.65     -5.26
   -4   25   21    -10.25     -4.15
   -4   25   23      4.76    -16.89
   -4   25   25    -20.87     -4.71
   -5   25    0      2.35     -0.76
   -5   25    2     17.08     -8.79
   -5   25    4    -11.73      9.58
   -5   25    6     -1.96    -15.77
   -5   25    8    -38.46    -22.44
   -5   25   10      3.58     -5.35
   -5   25   12     19.81     26.68
   -5   25   14      2.78     -4.30
   -5   25   16    -15.19     -8.83
   -5   25   18     -1.71     10.96
   -5   25   20      3.38    -19.41
   -5   25   22      9.89      7.09
   -5   25   24     -7.51     58.11
   -6   25    1     -6.31     19.47
   -6   25    3     -4.54     24.41
   -6   25    5     22.91     18.39
   -6   25    7     -1.61     -1.39
   -6   25    9     -4.30     -3.14
   -6   25   11      1.89    -12.22
   -6   25   13     -2.99     11.31
   -6   25   15      2.50     18.93
   -6   25   17     11.00     -1.61
   -6   25   19     -8.51     16.46
   -6   25   21      6.03      1.15
   -6   25   23     15.71    -12.46
   -6   25   25    -10.41     -7.59
   -7   25    0     -1.53     -7.93
   -7   25    2    -11.32     -5.77
   -7   25    4     -8.48    -29.98
   -7   25    6     -6.02     13.93
   -7   25    8     26.00     -7.79
   -7   25   10     13.30      8.78
   -7   25   12     -9.65    -11.72
   -7   25   14     -5.39    -28.57
   -7   25   16     -0.26    -10.69
   -7   25   18     -2.13      2.60
   -7   25   20     -6.41     -6.98
   -7   25   22      1.53     -2.80
   -7   25   24     -0.53      2.22
   -8   25    1     22.70     -3.35
   -8   25    3    -22.60      6.56
   -8   25    5      8.63    -13.71
   -8   25    7    -13.74     -8.11
   -8   25    9    -20.94     41.84
   -8   25   11     -0.03    -18.02
   -8   25   13     25.05      8.00
   -8   25   15    -17.10      3.41
   -8   25   17     -9.34      0.16
   -8   25   19     -2.14    -17.23
   -8   25   21      5.55      3.20
   -8   25   23    -30.98     18.01
   -9   25    2     25.19     19.07
   -9   25    4     -7.19     11.42
   -9   25    6     -3.27      4.84
   -9   25    8     11.03      4.95
   -9   25   10      4.28    -17.40
   -9   25   12    -13.67    -24.66
   -9   25   14     21.85     25.23
   -9   25   16     -8.44      0.01
   -9   25   18     -4.08      0.39
   -9   25   20      0.44      2.08
   -9   25   22      7.79      3.27
  -10   25    3      4.59     -2.38
  -10   25    5    -14.55    -29.04
  -10   25    7     -6.23      7.78
  -10   25    9    -30.52     -6.55
  -10   25   11     -0.01     -8.17
  -10   25   13     15.56     -0.28
  -10   25   15     -2.42      0.77
  -10   25   17    -16.53    -10.38
  -10   25   19      1.94     15.64
  -10   25   21     -1.93     -3.16
  -11   25    8     -8.63     -4.08
  -11   25   10    -20.93      3.16
  -11   25   12     -5.04     11.95
  -11   25   14     -9.61    -32.22
  -11   25   16     42.31    -15.94
  -11   25   18     17.98     -3.79
  -11   25   20      1.04     -3.28
  -11   25   22     -2.64     -3.84
  -12   25    1      0.00     -7.20
  -12   25    3      4.38     -1.23
  -12   25    5      1.70     10.34
  -12   25    7      3.09     -0.93
  -12   25    9      1.42     19.66
  -12   25   17      1.33     16.36
  -12   25   19     -3.79     -4.76
  -12   25   21      1.74      7.92
  -13   25    0      7.90      2.84
  -13   25    2     -1.37     -1.86
  -13   25    4    -10.29      3.06
  -13   25    6     -3.15     -8.32
  -13   25    8     -3.96     -0.67
  -13   25   10     -2.99     -5.51
  -13   25   18      3.64      4.98
  -13   25   20      2.04    -12.91
  -14   25    1      2.84     -7.12
  -14   25    3      4.84     -6.71
  -14   25    5     15.90      6.27
  -14   25    7     -9.27      7.70
  -14   25    9     -3.02     -0.61
  -14   25   11      4.03     -0.79
  -14   25   13      1.13      5.50
  -14   25   19     -6.11     20.02
  -14   25   21      0.30     -5.27
  -15   25    0      7.16     -1.97
  -15   25    2     -2.59      3.09
  -15   25    4     -0.07     -6.13
  -15   25    6     -0.66      1.75
  -15   25    8     13.77      2.44
  -15   25   10     -2.81     18.23
  -15   25   12     -1.26      4.25
  -15   25   14      9.28     -9.59
  -15   25   18      3.51     -6.59
  -15   25   20     -1.14     -0.72
  -16   25    1      4.30      4.03
  -16   25    3    -13.06     -2.64
  -16   25    5      5.60     -0.03
  -16   25    7      2.82     -0.32
  -16   25    9     -4.28     -1.93
  -16   25   11     -8.52      5.46
  -16   25   13      0.87      2.21
  -16   25   15      7.08     15.19
  -16   25   19     -4.18      3.52
  -17   25    0      8.02     -0.27
  -17   25    2      7.16      2.01
  -17   25    4      4.37    -10.73
  -17   25    6     -4.97      0.86
  -17   25    8      1.27     -2.39
  -17   25   10      4.55      1.94
  -17   25   12      6.69      1.76
  -17   25   14     -8.81     -2.93
  -17   25   16    -12.22     -6.06
  -17   25   18     -8.47      8.80
  -18   25    1     -3.38     -5.80
  -18   25    3     -9.45     -6.45
  -18   25    5      6.88     10.70
  -18   25    7      0.32      4.08
  -18   25    9      3.42     -3.12
  -18   25   11      8.56      6.47
  -18   25   13     -1.76     11.72
  -18   25   15    -15.89      4.76
  -18   25   17      1.59      3.49
  -18   25   19      1.25      3.87
  -19   25    0     -1.97     10.82
  -19   25    2      6.55      1.44
  -19   25    4      0.81    -13.47
  -19   25    6     12.03      7.08
  -19   25    8     -0.58      5.42
  -19   25   10      3.78     -9.56
  -19   25   12     -2.13     -0.13
  -19   25   14      2.97     15.61
  -19   25   16      6.37     -4.20
  -19   25   18      7.74     -2.78
  -20   25    1     -0.28      1.74
  -20   25    3      1.73     -9.47
  -20   25    5      4.10      3.94
  -20   25    7     -1.21      6.69
  -20   25    9    -10.67      5.09
  -20   25   11      2.18      7.13
  -20   25   13      1.50     -0.67
  -20   25   15     -6.02      5.65
  -20   25   17      4.28     -7.53
  -20   25   19     -8.78      1.40
  -21   25    0      6.27     -1.62
  -21   25    2    -14.97     -2.88
  -21   25    4     -2.99      7.93
  -21   25    6      1.84     -1.10
  -21   25    8     -4.73      6.76
  -21   25   10      3.03     -2.66
  -21   25   12      2.92      7.18
  -21   25   14      9.03     10.24
  -21   25   16      1.27      1.89
  -21   25   18     -3.93      1.75
  -22   25    1     -5.24      0.73
  -22   25    3      6.48     -6.44
  -22   25    5     -2.95      3.23
  -22   25    7      0.67     -0.08
  -22   25    9     -6.89     -9.68
  -22   25   11      5.48      8.57
  -22   25   13      2.73     -4.87
  -22   25   15     -2.99      0.61
  -22   25   17    -12.48     -0.75
  -22   25   19     -3.61     -6.49
  -23   25    0      1.42      1.90
  -23   25    2     -8.32     -5.42
  -23   25    4      0.21     -4.39
  -23   25    6      9.64     -3.91
  -23   25    8      1.80      1.56
  -23   25   10     -1.79      4.52
  -23   25   12     -9.35     -7.72
  -23   25   14     -1.70     17.37
  -23   25   16      3.39      6.11
  -23   25   18      0.89     -7.67
  -24   25    1     -3.84      6.75
  -24   25    3     -0.88     -5.62
  -24   25    5      2.81      4.43
  -24   25    7      3.55      0.21
  -24   25    9      0.66     -0.92
  -24   25   11     -3.90     -1.59
  -24   25   13     -3.22     -7.87
  -24   25   15    -12.37    -14.41
  -24   25   17     -6.22     -6.94
   25   25    0     -5.41      4.12
   25   25    2     -1.50     -0.15
   25   25    4     -5.09     -1.42
   25   25    6     -6.21      4.55
   25   25    8     -3.57      2.16
   25   25   10     -3.03     -1.17
   25   25   12      4.08      0.97
   25   25   14     16.70     10.40
   25   25   16      3.99      8.66
   25   26    1      3.88     -3.42
   25   26    3     -5.95     -2.72
   25   26    5     -2.37     -5.35
   25   26    7      0.12     -9.74
   25   26    9     -1.06      2.71
   25   26   11     -1.96     -0.37
   25   26   13      3.33     -6.11
   25   26   15      0.45     -3.59
   25   27    0     -4.42      0.09
   25   27    2      2.17      6.32
   25   27    4      2.93      5.61
   25   27    6     -3.55      3.68
   25   27    8      2.35     -3.30
   25   27   10      5.89      2.43
   25   27   12     -3.42      1.64
   25   27   14      0.01      2.08
   25   28    1     -4.26      4.07
   25   28    3      0.42      6.99
   25   28    5      0.03      1.85
   25   28    7      0.21      2.36
   25   28    9      0.80     -2.18
   25   28   11     -0.11      3.23
   25   28   13     -3.80      1.73
   25   29    0     -2.65      0.33
   25   29    2      1.42     -5.79
   25   29    4     -2.71     -3.36
   25   29    6      3.27     -8.19
   25   29    8     -2.24     -2.35
   25   29   10     -6.76     -0.32
   25   29   12      6.50     -2.75
   25   30    1      8.72     -2.73
   25   30    3      0.25      4.86
   25   30    5      0.53     -0.08
   25   30    7     -4.22      9.49
   25   30    9      1.56     -0.28
   25   31    0     -1.86      0.71
   25   31    2      0.81     -7.39
   25   31    4      5.41      4.34
   25   31    6     -6.26      9.07
   25   31    8     -9.14    -14.50
   25   32    1     -3.28      3.04
   25   32    3      4.19     -3.84
   25   32    5      4.91      4.59
   -1   26    1    -10.83    -17.96
   -1   26    3      2.50     -6.49
   -1   26    5     17.64      5.08
   -1   26    7     -1.20     15.89
   -1   26    9    -26.91      9.73
   -1   26   11      8.09     -8.11
   -1   26   13      4.68      1.49
   -1   26   15      7.79      0.29
   -1   26   17     -5.25      7.66
   -1   26   19      2.00      4.82
   -1   26   21     -0.95      0.96
   -1   26   23     -6.75      9.35
   -1   26   25    -29.84    -16.44
   -2   26    0      1.72      0.21
   -2   26    2     -4.30    -15.49
   -2   26    4     19.63      6.03
   -2   26    6     -6.94      5.05
   -2   26    8      2.97      2.20
   -2   26   10     -4.81      4.01
   -2   26   12      1.37      6.74
   -2   26   14     -8.93     -2.27
   -2   26   16      1.70     10.52
   -2   26   18     12.36      1.27
   -2   26   20      4.37     -7.72
   -2   26   22     15.90    -10.07
   -2   26   24      6.50      0.63
   -3   26    1     -8.43     -1.45
   -3   26    3     26.12     -7.55
   -3   26    5      2.10    -19.59
   -3   26    7    -16.88      4.99
   -3   26    9     -7.31     -2.30
   -3   26   11     -0.94     -1.52
   -3   26   13     -4.50     12.52
   -3   26   15      0.65     18.62
   -3   26   17     -5.79      3.19
   -3   26   19    -14.98     -1.12
   -3   26   21    -13.87    -11.62
   -3   26   23     -2.61      7.25
   -3   26   25    -40.16     43.86
   -4   26    0      9.88      1.09
   -4   26    2    -15.07     19.60
   -4   26    4     10.51      5.97
   -4   26    6      6.55     19.47
   -4   26    8      3.85    -12.05
   -4   26   10      6.90      7.54
   -4   26   12    -16.42      7.58
   -4   26   14     -6.08    -13.64
   -4   26   16    -10.04     -5.34
   -4   26   18     -9.73      0.68
   -4   26   20      9.33      5.52
   -4   26   22      0.07     -2.25
   -4   26   24     28.39     12.60
   -5   26    1     -8.48     -7.92
   -5   26    3      5.06    -14.73
   -5   26    5      0.41      0.08
   -5   26    7     -8.32     19.42
   -5   26    9      4.86     11.71
   -5   26   11     26.72     17.39
   -5   26   13      7.20     12.81
   -5   26   15     -5.10      0.24
   -5   26   17     -4.51    -10.94
   -5   26   19     20.05      5.28
   -5   26   21      3.71      7.83
   -5   26   23     12.94     -8.61
   -5   26   25    -34.26      5.04
   -6   26    0     -7.28     -8.44
   -6   26    2      5.42     -5.58
   -6   26    4     -5.47    -14.49
   -6   26    6     -8.04    -19.22
   -6   26    8     -5.34     -0.61
   -6   26   10      9.63     -5.88
   -6   26   12     -7.68     -6.91
   -6   26   14     -4.53    -17.66
   -6   26   16     -5.99     -5.69
   -6   26   18      8.53      3.89
   -6   26   20    -18.16    -13.90
   -6   26   22      3.92      1.94
   -6   26   24      8.30     -2.38
   -7   26    1     16.59     -6.34
   -7   26    3     11.42     21.76
   -7   26    5    -10.42     45.29
   -7   26    7    -15.15    -23.14
   -7   26    9     -6.78     -0.38
   -7   26   11    -11.89      4.98
   -7   26   13      0.80     22.19
   -7   26   15      1.49      3.30
   -7   26   17     -4.73     -6.86
   -7   26   19     -4.96      0.55
   -7   26   21      1.28      3.45
   -7   26   23    -38.89     19.79
   -8   26    0     -3.71      0.16
   -8   26    2      6.54     -2.41
   -8   26    4    -10.70    -17.87
   -8   26    6      3.90     -7.98
   -8   26    8     14.09     -4.03
   -8   26   10    -12.36     -9.81
   -8   26   12      6.53    -21.52
   -8   26   14     16.10      1.94
   -8   26   16    -14.35      0.55
   -8   26   18     -4.39     -1.92
   -8   26   20      3.79      1.69
   -8   26   22      7.17      0.81
   -9   26    1     -7.72    -19.91
   -9   26    3      2.26     15.18
   -9   26    5      0.40     -3.05
   -9   26    7     -8.99    -17.69
   -9   26    9    -15.62      9.04
   -9   26   11      2.02    -22.78
   -9   26   13     17.34     -8.60
   -9   26   15    -17.85     13.05
   -9   26   17     17.31      0.53
   -9   26   19     20.10      3.22
   -9   26   21     -1.50    -11.14
  -10   26    4     -3.06     26.82
  -10   26    6     -8.69    -14.01
  -10   26    8     -3.66      5.98
  -10   26   10     -0.59     44.04
  -10   26   12    -37.22     -3.41
  -10   26   14      8.84     -3.80
  -10   26   16      5.13     17.19
  -10   26   18     -4.83     -1.01
  -10   26   20      6.18      0.60
  -10   26   22     -2.27    -11.72
  -11   26    7     -2.88      3.37
  -11   26    9     10.77    -10.97
  -11   26   11     11.54     -3.33
  -11   26   13    -10.65      0.56
  -11   26   15     25.24    -47.32
  -11   26   17     -5.25      6.39
  -11   26   19    -14.15      1.89
  -11   26   21      1.17     -3.63
  -12   26   18    -28.97     13.24
  -12   26   20      3.92    -16.48
  -12   26   22     13.60      4.93
  -13   26    1     -2.35      6.82
  -13   26    3     -4.96     -2.35
  -13   26    5     11.13      9.91
  -13   26    7     -2.74     -9.77
  -13   26   17     31.02      0.32
  -13   26   19     -5.07      8.49
  -13   26   21     -5.51     -6.70
  -14   26    0      4.35     -0.48
  -14   26    2     -4.11      5.10
  -14   26    4      2.93     -5.37
  -14   26    6     -4.20     -3.68
  -14   26    8     -2.07     -2.16
  -14   26   10     -5.29      6.07
  -14   26   18     17.76     -4.76
  -14   26   20      0.05      0.27
  -15   26    1      6.19     18.11
  -15   26    3     -5.58      6.83
  -15   26    5      3.50      2.55
  -15   26    7      5.34     -2.93
  -15   26    9     -6.36      5.69
  -15   26   11      4.10      3.96
  -15   26   13      2.25      4.33
  -15   26   19     -2.56     13.92
  -15   26   21     -2.71     -2.72
  -16   26    0     -4.80     -0.70
  -16   26    2     -2.86    -12.24
  -16   26    4      6.26     -9.80
  -16   26    6      8.13    -10.52
  -16   26    8     -2.46      9.27
  -16   26   10      5.31      3.22
  -16   26   12      4.70     -9.43
  -16   26   14     -2.28     -3.50
  -16   26   18     -5.41     -6.06
  -16   26   20     -2.36      6.85
  -17   26    1      1.76      4.87
  -17   26    3     -1.30      1.30
  -17   26    5      3.34     -0.97
  -17   26    7    -13.45     -0.54
  -17   26    9     -1.10     -0.88
  -17   26   11     -3.69      5.38
  -17   26   13     -1.32     10.90
  -17   26   15     -4.79      4.75
  -17   26   19     19.26      7.01
  -18   26    0      2.44      3.55
  -18   26    2     10.01     11.30
  -18   26    4     -1.06     -4.39
  -18   26    6      2.26      2.22
  -18   26    8      7.90     -2.33
  -18   26   10      5.86     14.25
  -18   26   12      2.60     -1.32
  -18   26   14     -5.79      5.47
  -18   26   16     -0.62      0.31
  -18   26   18     -3.35      2.38
  -18   26   20     -8.21      1.62
  -19   26    1     -0.86      3.43
  -19   26    3    -10.48      4.09
  -19   26    5     -2.73     -7.01
  -19   26    7      1.24      5.68
  -19   26    9     -0.08      0.19
  -19   26   11      5.77      5.18
  -19   26   13      8.39     -1.70
  -19   26   15      2.26     -2.00
  -19   26   17      2.81      8.05
  -20   26    0     -9.94      0.78
  -20   26    2      5.31      1.33
  -20   26    4      8.58      3.85
  -20   26    6      5.98     -2.57
  -20   26    8     -7.40      5.24
  -20   26   10     -0.65      0.13
  -20   26   12      4.07      5.79
  -20   26   14     -9.53      0.41
  -20   26   16     -2.68      4.98
  -20   26   18     -0.51     12.16
  -21   26    1     -6.83     -3.25
  -21   26    3     11.47    -15.93
  -21   26    5     -7.28      0.83
  -21   26    7     -4.52      5.16
  -21   26    9     -2.65      2.92
  -21   26   11      6.08     -0.29
  -21   26   13      7.23     -6.61
  -21   26   15      2.09      5.59
  -21   26   17    -17.03     -5.57
  -21   26   19    -11.47      2.50
  -22   26    0     -1.69      0.41
  -22   26    2     -4.25     -3.09
  -22   26    4      1.24     -0.40
  -22   26    6      9.60     -5.94
  -22   26    8     -3.70      3.65
  -22   26   10     -3.30      0.88
  -22   26   12     -9.67     -4.43
  -22   26   14     -0.29      6.18
  -22   26   16      6.46      2.86
  -22   26   18      6.16     -0.07
  -23   26    1    -10.11     -1.84
  -23   26    3     -1.87     -0.39
  -23   26    5      0.92     -0.15
  -23   26    7     -2.86      0.01
  -23   26    9      1.05      2.68
  -23   26   11     -4.19      0.30
  -23   26   13      2.79    -10.60
  -23   26   15      3.07     -1.19
  -23   26   17     -1.17      1.45
  -24   26    0      5.48      1.06
  -24   26    2     -4.14      1.79
  -24   26    4     -3.30     -5.27
  -24   26    6     -2.27      4.79
  -24   26    8     -5.30     -2.79
  -24   26   10      1.24      1.87
  -24   26   12      2.03      1.60
  -24   26   14      0.15      6.85
  -24   26   16      3.73     -0.33
  -25   26    1     -3.56     -8.36
  -25   26    3      7.39     -1.37
  -25   26    5      8.63     -0.29
  -25   26    7     -1.69      0.21
  -25   26    9     -1.01      5.89
  -25   26   11      7.70      2.58
  -25   26   13     -0.43     -8.08
  -25   26   15    -13.58     -5.29
   26   26    0     -5.88     -0.10
   26   26    2      6.32      0.57
   26   26    4     -1.89      0.33
   26   26    6     -1.00     -0.70
   26   26    8      1.13     -0.36
   26   26   10     -1.73      4.25
   26   26   12      4.22      4.94
   26   26   14      0.05     13.91
   26   27    1      1.21     -0.28
   26   27    3     -5.75     -4.51
   26   27    5     -0.64      0.07
   26   27    7     -8.22     -2.88
   26   27    9     -2.95      0.72
   26   27   11      0.93     -0.46
   26   27   13      0.86     -6.16
   26   28    0     -0.29      0.08
   26   28    2     -1.93      6.63
   26   28    4     -3.07      2.62
   26   28    6      0.23      3.91
   26   28    8      3.84      0.14
   26   28   10     -2.14      2.85
   26   28   12     -0.93      2.61
   26   29    1      5.76      3.36
   26   29    3      8.77      7.28
   26   29    5      1.07     -3.16
   26   29    7      5.91      4.26
   26   29    9     -6.05      0.97
   26   30    0     -3.46      0.49
   26   30    2     -3.11    -12.28
   26   30    4      4.47      1.22
   26   30    6      3.05      1.84
   26   30    8     -3.44     -3.38
   26   31    1      0.96      2.03
   26   31    3      5.93      0.67
   26   31    5     -0.63      1.65
   -1   27    0      6.42     -2.14
   -1   27    2     -8.10     11.03
   -1   27    4      0.23    -30.75
   -1   27    6     13.40     -2.90
   -1   27    8      8.99     -5.25
   -1   27   10     -7.84      7.78
   -1   27   12     13.42      2.12
   -1   27   14      0.14      6.08
   -1   27   16    -15.24     10.80
   -1   27   18     -7.26      2.09
   -1   27   20      2.87     -6.20
   -1   27   22      6.15      4.10
   -1   27   24    -15.42    -11.47
   -2   27    1     -5.84     -4.65
   -2   27    3     11.39      1.96
   -2   27    5      2.76      6.42
   -2   27    7    -17.49      9.58
   -2   27    9     -1.28      2.88
   -2   27   11     -1.86      3.37
   -2   27   13    -15.05      2.98
   -2   27   15    -11.75      9.97
   -2   27   17     -1.05      2.94
   -2   27   19     -9.49      6.38
   -2   27   21     -4.53     -2.44
   -2   27   23     -4.87      6.89
   -3   27    0      3.82     -2.82
   -3   27    2    -20.29     -7.31
   -3   27    4     10.41     -5.42
   -3   27    6     13.40      2.29
   -3   27    8      2.93    -15.01
   -3   27   10      4.88     25.58
   -3   27   12     -1.24      9.12
   -3   27   14     10.72     -2.27
   -3   27   16      5.54    -13.20
   -3   27   18     -6.98     -4.49
   -3   27   20     -6.53     -4.39
   -3   27   22      6.34     -8.56
   -3   27   24     34.68     -9.38
   -4   27    1      5.66      1.23
   -4   27    3    -16.52     11.77
   -4   27    5     -6.40     13.12
   -4   27    7      6.06     -2.88
   -4   27    9     11.14     -2.73
   -4   27   11     -9.21     -6.35
   -4   27   13     10.23     -4.01
   -4   27   15      2.43     -5.14
   -4   27   17     -8.55      8.36
   -4   27   19     13.87     -3.86
   -4   27   21     -3.47      5.55
   -4   27   23     -3.75      3.89
   -5   27    0     14.64      0.15
   -5   27    2      1.54     -1.43
   -5   27    4      5.05     -4.33
   -5   27    6      3.34     -6.69
   -5   27    8     18.65     25.38
   -5   27   10    -19.69     -2.03
   -5   27   12     -4.29    -19.13
   -5   27   14    -10.77     -2.27
   -5   27   16     -4.83      5.57
   -5   27   18     -3.05    -19.48
   -5   27   20      0.12      3.34
   -5   27   22     -9.45     -2.45
   -5   27   24      0.38      0.71
   -6   27    1     -4.31    -18.41
   -6   27    3     10.41    -16.50
   -6   27    5    -18.41    -24.56
   -6   27    7    -15.64    -14.17
   -6   27    9     -9.67      2.86
   -6   27   11     -2.52      3.19
   -6   27   13      3.56     22.33
   -6   27   15      0.79      0.68
   -6   27   17     -1.96    -13.72
   -6   27   19     14.02      6.63
   -6   27   21     -3.76      3.77
   -6   27   23    -15.09      2.79
   -7   27    0    -37.63     -1.07
   -7   27    2    -11.23     -5.91
   -7   27    4     21.86      9.50
   -7   27    6     30.09     15.13
   -7   27    8      1.87      6.62
   -7   27   10     -9.34    -12.97
   -7   27   12    -18.23      4.28
   -7   27   14     10.93    -10.24
   -7   27   16     13.60      3.80
   -7   27   18     11.30     11.95
   -7   27   20     -8.96      8.32
   -7   27   22     -6.02      7.40
   -7   27   24     31.87    -40.97
   -8   27    1     -0.51      2.99
   -8   27    3     -4.65      8.55
   -8   27    5    -16.57      0.20
   -8   27    7      5.78    -13.53
   -8   27    9     -3.99     31.40
   -8   27   11     10.63     11.10
   -8   27   13     12.19     -1.02
   -8   27   15      3.92    -20.57
   -8   27   17     -4.73      8.30
   -8   27   19     -0.17     -1.26
   -8   27   21      7.37     -5.17
   -8   27   23    -12.68     -0.13
   -9   27    2      9.79    -11.68
   -9   27    4     -1.94     -3.42
   -9   27    6    -12.64     13.57
   -9   27    8     -7.08     -9.70
   -9   27   10     -7.67     16.20
   -9   27   12    -28.22     12.52
   -9   27   14    -10.02      1.14
   -9   27   16    -12.47      3.20
   -9   27   18    -24.06    -21.66
   -9   27   20     -2.14     -4.69
   -9   27   22     -1.98      1.55
  -10   27    5     17.30     22.35
  -10   27    7      2.64    -18.68
  -10   27    9     24.87    -27.36
  -10   27   11     -7.61    -16.04
  -10   27   13     -7.43     -4.69
  -10   27   15      6.79     -4.66
  -10   27   17      0.98     -0.20
  -10   27   19     -5.53      0.70
  -10   27   21      3.55     -8.85
  -11   27    8     -4.32     -6.76
  -11   27   10     15.41     39.61
  -11   27   12    -12.43      2.23
  -11   27   14     -5.61    -13.37
  -11   27   20      3.32     -4.30
  -11   27   22     -1.87      0.25
  -12   27   17      2.35    -49.13
  -12   27   19      1.89      7.77
  -12   27   21     -0.05      7.26
  -13   27   18    -14.51      8.36
  -13   27   20     -1.45     13.27
  -13   27   22      0.89     -2.91
  -14   27    3     -0.69     -6.21
  -14   27    5     -5.61      2.37
  -14   27    7     -1.08     -2.95
  -14   27   19     10.55     -5.15
  -14   27   21      5.06      1.71
  -15   27    0     -1.73      0.76
  -15   27    2      8.50    -15.17
  -15   27    4      8.75      7.02
  -15   27    6     -2.39      6.17
  -15   27    8      0.58      2.20
  -15   27   10    -10.92     -0.88
  -15   27   18    -15.09      0.05
  -15   27   20      1.40    -10.78
  -16   27    1      5.99      3.63
  -16   27    3     -3.00      5.75
  -16   27    5    -12.23      3.67
  -16   27    7      4.31     -3.31
  -16   27    9      9.69      2.74
  -16   27   11     -6.96      4.76
  -16   27   19     -1.02      2.14
  -17   27    0      0.44     -0.19
  -17   27    2      3.75     -3.34
  -17   27    4     -4.42      4.68
  -17   27    6     12.11      0.72
  -17   27    8      1.26     -1.87
  -17   27   10      2.99      3.71
  -17   27   12      0.48     -3.64
  -17   27   14     -1.65     -3.79
  -17   27   18     -1.08      5.22
  -17   27   20    -17.95     -0.02
  -18   27    1      5.52      2.73
  -18   27    3     -5.67     -0.20
  -18   27    5     -4.29      4.32
  -18   27    7     -4.90     -0.61
  -18   27    9     -5.51     -0.79
  -18   27   11     -2.11      4.30
  -18   27   13      8.51      4.93
  -18   27   15      6.78      0.01
  -18   27   19      7.29      0.80
  -19   27    0     -4.05     -1.77
  -19   27    2      4.85     -4.90
  -19   27    4      2.86      2.36
  -19   27    6      2.28     -2.08
  -19   27    8     -3.10     -5.81
  -19   27   10     12.49      1.99
  -19   27   12      1.57      3.20
  -19   27   14     -9.62      0.26
  -19   27   16     -0.88     -5.57
  -19   27   18    -27.93     -1.39
  -20   27    1      2.56     -9.12
  -20   27    3     -0.32      4.43
  -20   27    5     -6.29      0.61
  -20   27    7      4.70     -9.13
  -20   27    9      4.31     -3.04
  -20   27   11     -9.18      6.09
  -20   27   13      6.34     -8.44
  -20   27   15      7.60      1.23
  -20   27   17     -0.85      2.63
  -21   27    0     -9.80      4.01
  -21   27    2     -2.95      1.48
  -21   27    4     -5.30      2.36
  -21   27    6      6.64      1.79
  -21   27    8      3.17      2.34
  -21   27   10     -9.09      0.80
  -21   27   12      0.32     -3.93
  -21   27   14    -10.61      8.57
  -21   27   16     -5.11     -4.81
  -21   27   18     35.70      6.34
  -22   27    1     -7.29     -3.08
  -22   27    3     -1.61     -8.51
  -22   27    5     -2.82     -8.31
  -22   27    7     -1.48      6.16
  -22   27    9     -3.89     -4.00
  -22   27   11      1.42     -9.58
  -22   27   13     10.30     -0.68
  -22   27   15      2.97     -1.37
  -22   27   17      3.81    -13.18
  -23   27    0      5.69      1.42
  -23   27    2      8.15     -2.29
  -23   27    4     -1.30      2.95
  -23   27    6      0.73      2.00
  -23   27    8     -0.99     -0.14
  -23   27   10     -0.37      9.40
  -23   27   12      8.47      9.42
  -23   27   14     -3.02      1.00
  -23   27   16     -1.79      0.57
  -24   27    1     -7.60     -4.86
  -24   27    3      1.91      6.56
  -24   27    5     -2.31     -1.15
  -24   27    7     -2.10     -5.77
  -24   27    9      0.77      4.56
  -24   27   11     -2.14      3.93
  -24   27   13      2.13      2.58
  -24   27   15      8.17     -3.54
  -25   27    0     -6.03     -0.36
  -25   27    2      2.11      5.36
  -25   27    4     -2.16     -3.91
  -25   27    6      1.32     -1.65
  -25   27    8      2.50     -0.92
  -25   27   10     -1.60     -0.32
  -25   27   12     -2.16     -0.21
  -25   27   14     -0.47      1.21
  -26   27    1      1.08      1.33
  -26   27    3     -1.93      5.56
  -26   27    5      7.47      4.84
  -26   27    7      3.34      4.88
  -26   27    9     -5.20      0.71
  -26   27   11     -4.71     -6.80
  -26   27   13      0.28      0.65
   27   27    0      8.46      0.29
   27   27    2      0.70      6.60
   27   27    4     -2.89     -1.19
   27   27    6      0.26     -2.64
   27   27    8      0.74     -4.14
   27   27   10     -0.38      4.46
   27   27   12      1.14      3.62
   27   28    1      6.64     -2.81
   27   28    3      0.22     -2.61
   27   28    5      1.45      2.77
   27   28    7     -0.45      0.74
   27   28    9     -0.32      3.85
   27   29    0     -8.77      1.48
   27   29    2     -1.12      0.52
   27   29    4     -3.02      1.59
   27   29    6      1.78      3.90
   27   29    8      1.25      2.28
   27   30    1     -0.78      3.31
   27   30    3      4.43     -5.51
   27   30    5      1.22     -6.27
   27   31    0      3.39      0.45
   -1   28    1     -4.25     -2.12
   -1   28    3      9.88     -4.56
   -1   28    5     11.12    -15.16
   -1   28    7    -25.85     -6.90
   -1   28    9      7.59    -22.56
   -1   28   11      2.96      5.27
   -1   28   13      3.32     -2.61
   -1   28   15      4.04     -6.54
   -1   28   17      0.48      3.31
   -1   28   19    -10.96     17.67
   -1   28   21      6.33      4.52
   -1   28   23     -0.36      5.45
   -2   28    0     -4.78      0.57
   -2   28    2     -4.56      1.79
   -2   28    4      4.88      4.08
   -2   28    6      1.62     17.14
   -2   28    8      8.68     10.88
   -2   28   10     19.43     15.81
   -2   28   12      2.56     -7.26
   -2   28   14    -12.16     -0.12
   -2   28   16      4.52     -6.19
   -2   28   18     -2.82     -1.03
   -2   28   20     -1.00     -4.71
   -2   28   22     -6.34     -1.28
   -3   28    1     18.36      2.12
   -3   28    3     -2.95     14.47
   -3   28    5    -35.57    -25.32
   -3   28    7      2.35     -4.60
   -3   28    9     -7.79     18.54
   -3   28   11    -12.07     24.17
   -3   28   13     20.87     -9.22
   -3   28   15    -17.37    -21.26
   -3   28   17      3.15      2.01
   -3   28   19      7.69     -5.99
   -3   28   21      1.20    -12.90
   -3   28   23      6.33      4.47
   -4   28    0      7.65     -0.02
   -4   28    2      0.33     -0.06
   -4   28    4     18.66     -9.72
   -4   28    6      3.68    -22.77
   -4   28    8      3.73     -8.32
   -4   28   10    -12.19     -3.24
   -4   28   12    -23.71     -6.00
   -4   28   14     -1.00     15.63
   -4   28   16     19.72     14.19
   -4   28   18     -0.84     -1.66
   -4   28   20     -6.08      1.55
   -4   28   22      2.17     -1.34
   -5   28    1     -8.63     12.82
   -5   28    3    -15.66     -0.52
   -5   28    5      3.22    -13.27
   -5   28    7     10.61     13.08
   -5   28    9    -12.23     34.75
   -5   28   11     -2.72     -9.78
   -5   28   13     12.36    -14.41
   -5   28   15      8.55     -8.19
   -5   28   17    -13.60     25.03
   -5   28   19      4.75      5.61
   -5   28   21      1.31     -3.99
   -5   28   23      1.50     -4.65
   -6   28    0    -29.01      2.83
   -6   28    2    -19.62    -15.22
   -6   28    4     17.07     -3.00
   -6   28    6     28.87      0.14
   -6   28    8     11.76      4.79
   -6   28   10    -15.85    -15.15
   -6   28   12     10.33      8.22
   -6   28   14    -16.31     -5.22
   -6   28   16     25.32    -13.98
   -6   28   18      9.07     -9.58
   -6   28   20     -3.18     -0.27
   -6   28   22     -7.55     -1.55
   -7   28    1     25.56     30.22
   -7   28    3    -26.69     25.21
   -7   28    5    -17.06    -39.11
   -7   28    7     -4.70    -22.76
   -7   28    9      6.86     31.31
   -7   28   11      2.19    -16.16
   -7   28   13     18.78    -12.29
   -7   28   15    -21.23      0.78
   -7   28   17    -31.45      8.59
   -7   28   19      6.03    -10.23
   -7   28   21      1.13      1.68
   -7   28   23     -9.81      0.45
   -8   28    0     -1.99     -0.07
   -8   28    2      4.83     21.94
   -8   28    4      4.97     -2.88
   -8   28    6      8.49     14.01
   -8   28    8     -3.80     31.98
   -8   28   10     -0.54     12.34
   -8   28   12    -24.13     16.59
   -8   28   14    -12.34     12.05
   -8   28   16      9.70      9.74
   -8   28   18    -20.43      6.79
   -8   28   20      2.79      4.95
   -8   28   22      2.36     -1.45
   -9   28    3     -1.53     -4.19
   -9   28    5     -5.66    -18.63
   -9   28    7     -4.96     -2.69
   -9   28    9      2.68      6.59
   -9   28   11      7.86    -10.03
   -9   28   13      1.21      3.42
   -9   28   15     15.36    -50.52
   -9   28   17     15.23      3.23
   -9   28   19     -4.96     -5.47
   -9   28   21    -10.04     -7.23
  -10   28    4     -4.21    -14.53
  -10   28    6    -11.44     -0.25
  -10   28    8      2.22     -6.44
  -10   28   10     -7.62     22.16
  -10   28   12    -23.44     16.60
  -10   28   14     -0.60      1.09
  -10   28   16      3.76     -0.54
  -10   28   18     15.32    -12.70
  -10   28   20     -0.27      2.41
  -10   28   22     -7.51     -2.69
  -11   28    9     -4.82    -12.00
  -11   28   11     -7.06     -6.35
  -11   28   13     13.67     -4.99
  -11   28   17    -20.92    -17.25
  -11   28   19     10.28      7.79
  -11   28   21      3.42      9.35
  -12   28   18      5.94     -3.59
  -12   28   20      6.12      7.14
  -13   28   17      9.15     -0.98
  -13   28   19      6.07    -13.33
  -13   28   21     -0.72     -5.95
  -14   28   18    -27.88     10.35
  -14   28   20     -0.05     -1.08
  -15   28    5     -1.81     -5.74
  -15   28   19     -2.17     -9.75
  -16   28    0     -3.12     -2.52
  -16   28    2      3.96      0.79
  -16   28    4     -5.25      5.28
  -16   28    6      9.20      4.95
  -16   28    8     -1.65    -12.37
  -16   28   20    -19.12    -21.56
  -17   28    1     -0.06      4.43
  -17   28    3      6.97     -1.22
  -17   28    5     -2.89     -5.54
  -17   28    7      0.71     -8.64
  -17   28    9      4.22     -3.89
  -17   28   11     -2.79     15.03
  -17   28   19      5.50     15.64
  -18   28    0     -3.77     -0.14
  -18   28    2      4.88      2.65
  -18   28    4      5.94     -4.26
  -18   28    6     -5.77     -3.04
  -18   28    8     -2.14      3.87
  -18   28   10      2.21     -0.39
  -18   28   12      4.34     -6.12
  -18   28   18      5.18     -4.65
  -19   28    1     -0.31      4.91
  -19   28    3     -2.12      1.57
  -19   28    5     -2.12     -0.49
  -19   28    7     -0.47     -6.08
  -19   28    9     -0.86      7.42
  -19   28   11     -3.21     -3.70
  -19   28   13      7.59     -5.76
  -20   28    0     -0.95      0.37
  -20   28    2      0.02      0.39
  -20   28    4     -7.35     -0.97
  -20   28    6     -4.71     -1.38
  -20   28    8     -0.57      1.63
  -20   28   10      0.75      0.03
  -20   28   12      0.44     -6.58
  -20   28   14      4.27      3.24
  -21   28    1      4.07      0.76
  -21   28    3     -2.60      2.86
  -21   28    5     -1.60     -7.10
  -21   28    7     -2.08     -5.10
  -21   28    9      2.57      0.97
  -21   28   11     -0.91     -2.12
  -21   28   13      5.75      3.03
  -21   28   15     -4.53      9.93
  -22   28    0     -4.39      1.30
  -22   28    2     -0.41     -2.81
  -22   28    4      4.12      5.57
  -22   28    6     -1.48      3.06
  -22   28    8     -4.59      3.05
  -22   28   10      0.14      7.81
  -22   28   12      9.03      3.13
  -22   28   14     -9.08      4.71
  -22   28   16     -4.46     -6.31
  -23   28    1     -0.89      3.45
  -23   28    3      1.41      4.90
  -23   28    5     -4.90     -2.36
  -23   28    7     -0.57      2.38
  -23   28    9     -4.48     -8.54
  -23   28   11     13.01    -13.20
  -23   28   13      1.99     -4.56
  -23   28   15      0.37     -7.40
  -24   28    0     -0.10      0.65
  -24   28    2      5.00      1.94
  -24   28    4     -2.14      1.20
  -24   28    6      0.28     -4.97
  -24   28    8      1.76     -4.74
  -24   28   10     -2.90      6.09
  -24   28   12      4.75     10.54
  -24   28   14      0.89     -6.18
  -25   28    1      5.79     -9.91
  -25   28    3     -1.57     -0.56
  -25   28    5     -1.57      6.28
  -25   28    7      2.31      5.02
  -25   28    9     -1.65     -0.72
  -25   28   11     -1.93     -6.93
  -25   28   13     -3.51      1.80
  -26   28    0      1.60     -0.81
  -26   28    2      4.52      8.55
  -26   28    4     -3.96     -1.08
  -26   28    6      0.72      3.08
  -26   28    8      0.04      2.53
  -26   28   10      1.45     -5.04
  -26   28   12      2.68     -0.28
  -27   28    1     -4.43      1.27
  -27   28    3      6.00     -1.17
  -27   28    5      0.14     -1.80
  -27   28    7     -5.20     -1.78
  -27   28    9      0.56      4.70
   28   28    0      9.42      0.68
   28   28    2     -1.27     -0.69
   28   28    4     -4.20     -2.70
   28   28    6      6.40      0.92
   28   28    8      2.27      1.62
   28   29    1     -2.49      6.42
   28   29    3     -1.63      2.61
   28   29    5      1.49     -5.13
   28   30    0     -1.07      0.57
   28   30    2     -1.06      4.07
   -1   29    0    -15.56      0.17
   -1   29    2     10.54    -14.09
   -1   29    4      8.52      7.18
   -1   29    6     -4.86     -1.13
   -1   29    8     -0.91      2.06
   -1   29   10      3.87      4.74
   -1   29   12      0.05     14.24
   -1   29   14    -19.35      2.63
   -1   29   16      7.93    -14.33
   -1   29   18      3.60     -2.10
   -1   29   20     -0.98      1.47
   -1   29   22      1.12     -2.34
   -2   29    1     -1.85      2.08
   -2   29    3    -11.02      3.26
   -2   29    5      5.77     -9.37
   -2   29    7      3.62      1.21
   -2   29    9      6.05    -16.09
   -2   29   11    -30.19     -7.31
   -2   29   13     13.51     -3.19
   -2   29   15     -2.11      2.69
   -2   29   17      7.39      3.39
   -2   29   19     -2.06    -10.17
   -2   29   21      1.57     -0.72
   -2   29   23     -4.93      5.45
   -3   29    0     -5.44      4.95
   -3   29    2      0.83      2.01
   -3   29    4     18.78      9.66
   -3   29    6      0.88     11.16
   -3   29    8     -4.38      5.67
   -3   29   10      8.76     10.57
   -3   29   12    -11.78      6.69
   -3   29   14     -6.64      6.31
   -3   29   16      0.30     -4.87
   -3   29   18      0.97      5.96
   -3   29   20      6.09      8.54
   -3   29   22     -1.19      0.62
   -4   29    1    -10.96     -5.03
   -4   29    3     -0.43    -17.34
   -4   29    5    -15.40     -8.05
   -4   29    7     -7.33     -2.03
   -4   29    9      0.97    -18.85
   -4   29   11     15.77     23.32
   -4   29   13     16.36     -5.63
   -4   29   15    -14.97    -11.56
   -4   29   17     -3.85     -1.49
   -4   29   19     -0.24      5.76
   -4   29   21     -2.87    -19.31
   -5   29    0     11.92     -0.85
   -5   29    2    -15.74      9.28
   -5   29    4      2.31     10.17
   -5   29    6     13.73    -13.60
   -5   29    8     10.91    -12.34
   -5   29   10     -6.51     -6.30
   -5   29   12    -24.22      5.12
   -5   29   14     -4.31    -16.95
   -5   29   16     40.00     -1.40
   -5   29   18     -2.26      5.48
   -5   29   20    -14.84     -1.47
   -5   29   22     -1.44      4.81
   -6   29    1     18.07     24.72
   -6   29    3    -25.17     16.93
   -6   29    5    -10.26    -12.38
   -6   29    7     17.70     13.90
   -6   29    9     19.72     31.93
   -6   29   11     -9.29     -0.03
   -6   29   13     -4.29     -0.66
   -6   29   15     18.28    -26.85
   -6   29   17    -28.56     28.99
   -6   29   19     -6.26     -5.56
   -6   29   21      4.83     -3.07
   -7   29    0      3.76      0.29
   -7   29    2     -0.56    -26.19
   -7   29    4    -21.36    -24.92
   -7   29    6     10.86     -7.87
   -7   29    8     -1.89      5.76
   -7   29   10    -54.48     13.40
   -7   29   12     30.85      8.88
   -7   29   14      6.66     -1.58
   -7   29   16      9.63      3.81
   -7   29   18      5.92     -6.90
   -7   29   20     -2.48    -15.91
   -7   29   22     -3.98     -3.27
   -8   29    1     17.74    -12.24
   -8   29    3      7.18     27.83
   -8   29    5     17.57      2.11
   -8   29    7      6.13    -27.74
   -8   29    9     11.36      0.51
   -8   29   11    -42.42    -27.55
   -8   29   13     -1.62     -6.37
   -8   29   15      3.24      6.27
   -8   29   17      1.36     -2.55
   -8   29   19     10.92     -6.43
   -8   29   21     -0.83     10.02
   -9   29    2     -4.79    -15.66
   -9   29    4     -7.10     16.90
   -9   29    6      3.16      3.12
   -9   29    8     20.75     10.10
   -9   29   10     23.21     13.59
   -9   29   12      8.93     20.42
   -9   29   14    -18.48     13.58
   -9   29   16      7.55      1.65
   -9   29   18    -11.20    -11.33
   -9   29   20     10.85      2.77
   -9   29   22     -0.28     -0.05
  -10   29    5     12.92    -18.44
  -10   29    7     -1.44     11.10
  -10   29    9    -39.88     32.77
  -10   29   11      6.18     -5.73
  -10   29   13     17.40     13.80
  -10   29   15    -13.00    -44.80
  -10   29   17    -17.94     12.58
  -10   29   19     -7.36      0.70
  -10   29   21      3.98      1.69
  -11   29   10     -3.46     -3.88
  -11   29   12    -23.38    -10.83
  -11   29   18    -10.74    -12.47
  -11   29   20     17.28     -2.99
  -12   29   17     11.82     12.42
  -12   29   19     -2.08     -5.62
  -12   29   21     -2.31      1.75
  -13   29   18    -10.37     -5.73
  -13   29   20      2.46     -5.13
  -14   29   19    -27.75      9.72
  -15   29   18     -2.18    -10.05
  -16   29   19     23.31      7.38
  -17   29    2     -5.09     -2.65
  -17   29    4     -3.57     -6.13
  -17   29    6     -3.83      4.51
  -17   29    8      2.37     -4.42
  -17   29   18     -7.19      3.02
  -18   29    1      4.06      9.14
  -18   29    3     -6.11      1.86
  -18   29    5     15.20     11.14
  -18   29    7     -3.62    -11.09
  -18   29    9     -3.50      3.29
  -19   29    0      9.97      0.28
  -19   29    2     -2.20      0.39
  -19   29    4     -0.39     -8.89
  -19   29    6     -7.44     13.07
  -19   29    8     -1.89     -3.39
  -19   29   10     -5.23      3.54
  -19   29   12      6.16      6.22
  -20   29    1      0.53      9.88
  -20   29    3     -7.41      0.39
  -20   29    5     -2.78     -5.71
  -20   29    7      4.10      2.26
  -20   29    9     -7.91     -4.46
  -20   29   11      4.61     -0.95
  -20   29   13      6.85      4.53
  -21   29    0      6.89      0.81
  -21   29    2     -1.92     -1.52
  -21   29    4      1.82      3.21
  -21   29    6      1.55      1.38
  -21   29    8     -0.17     -0.12
  -21   29   10      0.77     -3.75
  -21   29   12      3.96     -9.17
  -21   29   14      7.55     -7.63
  -22   29    1     -2.66      2.25
  -22   29    3      2.82      4.90
  -22   29    5     -1.30      2.19
  -22   29    7     -6.97     -9.70
  -22   29    9      4.18    -10.84
  -22   29   11     -0.22      5.13
  -22   29   13     -2.00     -0.11
  -22   29   15      5.75     -2.28
  -23   29    0     -1.28      0.53
  -23   29    2     -1.55     -3.47
  -23   29    4     -1.21      1.27
  -23   29    6      6.06      1.20
  -23   29    8     -4.49      4.28
  -23   29   10     -0.72     -0.22
  -23   29   12      1.58      5.68
  -23   29   14     -2.33      0.76
  -24   29    1      9.91     -1.50
  -24   29    3      8.98      7.59
  -24   29    5     -4.82      1.14
  -24   29    7      1.49     -2.49
  -24   29    9     -2.69     -3.34
  -24   29   11      6.75     -4.75
  -24   29   13     -2.80      3.94
  -25   29    0     -0.87     -0.04
  -25   29    2      0.87      0.92
  -25   29    4     -4.77      0.19
  -25   29    6      3.14     -0.56
  -25   29    8     -2.99      0.85
  -25   29   10     -4.93      4.85
  -25   29   12      9.80      1.81
  -26   29    1     -2.45     -2.20
  -26   29    3      0.71     -1.02
  -26   29    5      0.85     -3.09
  -26   29    7     -0.32      3.93
  -26   29    9     -0.27      6.66
  -27   29    0     -1.71      0.65
  -27   29    2      3.22      3.98
  -27   29    4     -0.13      5.62
  -27   29    6      0.45      1.28
  -27   29    8      1.88     -1.66
  -28   29    1      0.11      7.89
  -28   29    3      0.92      0.67
  -28   29    5      1.23      0.38
   29   29    0      4.56      0.30
   29   29    2      3.30      5.11
   -1   30    1    -10.42     -6.74
   -1   30    3     -1.52     -0.74
   -1   30    5      4.88     18.28
   -1   30    7    -23.98     12.79
   -1   30    9     -3.85     -2.15
   -1   30   11      7.69     13.37
   -1   30   13      2.75      5.61
   -1   30   15    -20.02      7.52
   -1   30   17      9.64     -0.72
   -1   30   19      1.66     -7.45
   -1   30   21      0.20     -2.54
   -2   30    0    -12.85     -0.94
   -2   30    2     11.74     -1.93
   -2   30    4      5.60     -5.79
   -2   30    6     19.28     -8.72
   -2   30    8      8.44     -0.52
   -2   30   10    -15.10     -6.56
   -2   30   12     -6.42     -5.78
   -2   30   14     -1.89      7.81
   -2   30   16      5.83      2.82
   -2   30   18      4.50     -0.25
   -2   30   20     -4.08      1.79
   -2   30   22     -1.84      0.10
   -3   30    1      5.99      4.01
   -3   30    3     -6.10     -3.58
   -3   30    5      2.93     -0.59
   -3   30    7    -14.24     12.79
   -3   30    9     -4.99      5.21
   -3   30   11     12.64     -2.13
   -3   30   13     18.34     -4.15
   -3   30   15    -18.32    -15.34
   -3   30   17     -9.69     -8.65
   -3   30   19      1.05     -1.51
   -3   30   21      1.42     -0.39
   -4   30    0      1.62      3.29
   -4   30    2     -9.62      8.16
   -4   30    4     -5.90     13.31
   -4   30    6     -3.10    -24.43
   -4   30    8     -9.43      0.12
   -4   30   10     19.63      1.84
   -4   30   12     -7.70      4.35
   -4   30   14    -19.83      5.76
   -4   30   16      3.55    -16.17
   -4   30   18     19.88     -9.52
   -4   30   20      3.39     12.37
   -4   30   22     -7.58      7.41
   -5   30    1     -0.32      1.82
   -5   30    3     23.97    -11.61
   -5   30    5    -13.56    -12.96
   -5   30    7    -24.88     -5.79
   -5   30    9      7.09    -17.53
   -5   30   11      2.01     14.68
   -5   30   13     12.48     -2.57
   -5   30   15      1.75    -14.92
   -5   30   17     -4.19     -0.97
   -5   30   19      7.54     -4.48
   -5   30   21     -0.67     -5.72
   -6   30    0    -16.03     -1.35
   -6   30    2      0.78    -14.06
   -6   30    4     15.52     -1.17
   -6   30    6     -3.51     13.83
   -6   30    8      3.17     19.76
   -6   30   10    -31.31      0.93
   -6   30   12      0.94      0.32
   -6   30   14      0.26      8.37
   -6   30   16     28.37     18.79
   -6   30   18      0.65     12.88
   -6   30   20     -6.62     -0.86
   -7   30    1     -2.80     -4.38
   -7   30    3     15.44      1.14
   -7   30    5     31.86    -17.80
   -7   30    7     -1.03      0.91
   -7   30    9     33.78     38.20
   -7   30   11      4.62      7.74
   -7   30   13    -20.77    -14.90
   -7   30   15      8.68    -18.46
   -7   30   17     -4.73     -0.59
   -7   30   19      1.12    -11.38
   -7   30   21      2.12      2.76
   -8   30    0    -17.73      0.70
   -8   30    2     -9.32      9.27
   -8   30    4      2.91     -0.96
   -8   30    6    -13.11     22.10
   -8   30    8     -7.83    -17.55
   -8   30   10     -8.01     -9.83
   -8   30   12     23.39     16.79
   -8   30   14    -16.90      0.79
   -8   30   16    -10.72    -10.91
   -8   30   18      2.86    -11.51
   -8   30   20      4.26     -6.21
   -9   30    3     12.18     12.63
   -9   30    5     22.02     29.08
   -9   30    7     -8.18     -2.97
   -9   30    9     -3.41      4.92
   -9   30   11    -17.39    -15.80
   -9   30   13     16.32     -1.82
   -9   30   15     -9.30    -10.39
   -9   30   17    -18.37     51.44
   -9   30   19     -2.26      5.63
   -9   30   21      3.25      1.09
  -10   30    6    -15.47      8.97
  -10   30    8     -5.03     -4.45
  -10   30   10     10.59     -9.90
  -10   30   12     15.21      8.22
  -10   30   14     -3.88      8.71
  -10   30   16     31.04     13.06
  -10   30   18    -36.83    -23.19
  -10   30   20     11.40     -8.80
  -11   30   17     35.74     -3.03
  -11   30   19    -17.70    -11.61
  -12   30   18     -5.27     16.49
  -12   30   20      6.02     -1.74
  -13   30   17      3.76     -7.33
  -13   30   19     -7.36     10.95
  -14   30   18     -1.19    -32.44
  -16   30   18     32.17    -18.40
  -19   30    1      1.70      4.08
  -19   30    3      3.17      6.74
  -19   30    5     -0.97      3.74
  -19   30    7     -3.55     -6.58
  -19   30    9      5.89      0.72
  -20   30    0     -4.53      0.77
  -20   30    2     -2.68     -4.91
  -20   30    4     -0.85     -2.35
  -20   30    6      2.18      5.44
  -20   30    8     -8.41     -4.68
  -20   30   10      7.40     -4.46
  -21   30    1      0.14     -1.35
  -21   30    3      6.90      0.12
  -21   30    5     -2.70     -1.19
  -21   30    7      1.08      2.61
  -21   30    9     -8.46      2.88
  -21   30   11     -1.89      1.61
  -22   30    0      0.97     -0.76
  -22   30    2      2.66     -2.12
  -22   30    4      2.89     -0.82
  -22   30    6     -0.59      1.14
  -22   30    8      2.39      1.75
  -22   30   10     -5.48     -0.87
  -22   30   12      4.08     -5.17
  -23   30    1     -0.89     -1.29
  -23   30    3      0.52     -2.93
  -23   30    5     -1.09      0.58
  -23   30    7      0.82      6.66
  -23   30    9      3.77      1.21
  -23   30   11     -2.04      0.49
  -24   30    0      1.60      0.02
  -24   30    2     -0.72      1.87
  -24   30    4      2.27     -0.24
  -24   30    6      2.30      0.76
  -24   30    8     -2.96      4.14
  -24   30   10      3.84     -8.13
  -25   30    1     -2.50      5.36
  -25   30    3      5.30      3.33
  -25   30    5      2.74      1.37
  -25   30    7     -3.71     -0.49
  -25   30    9     -0.55      1.06
  -26   30    0      2.26      0.06
  -26   30    2      2.11     -3.32
  -26   30    4      3.50      0.91
  -26   30    6      6.18      5.48
  -26   30    8     -6.99     -3.58
  -27   30    1      1.96     -2.69
  -27   30    3     -2.54      0.57
  -27   30    5     -1.02      2.10
  -28   30    0     -2.35      0.74
  -28   30    2      3.91     -0.35
   -1   31    0      8.87     -4.71
   -1   31    2     16.29     -6.66
   -1   31    4    -10.34     -2.29
   -1   31    6      3.74    -20.49
   -1   31    8     -4.85     12.70
   -1   31   10    -13.86      6.17
   -1   31   12     11.35      8.02
   -1   31   14     -0.12     -4.65
   -1   31   16    -11.64    -17.34
   -1   31   18     12.66      5.97
   -1   31   20      1.87      6.90
   -2   31    1     -2.86      5.62
   -2   31    3     -2.19     -1.11
   -2   31    5    -22.18     11.32
   -2   31    7    -22.09    -16.96
   -2   31    9      8.61    -15.59
   -2   31   11     17.50     17.84
   -2   31   13     -4.69     15.35
   -2   31   15      0.78     -1.77
   -2   31   17     -7.91    -10.57
   -2   31   19     -2.26     -8.69
   -2   31   21      1.61      4.70
   -3   31    0      6.30     -2.88
   -3   31    2      9.27     22.14
   -3   31    4    -16.45      6.88
   -3   31    6      6.11    -24.68
   -3   31    8      8.13     -3.96
   -3   31   10    -14.86     -6.40
   -3   31   12     -6.85      3.80
   -3   31   14    -26.29    -15.00
   -3   31   16      9.15     -4.94
   -3   31   18     19.06     12.66
   -3   31   20      9.50      6.22
   -4   31    1      5.67     -3.21
   -4   31    3      5.05     -3.61
   -4   31    5     -2.06      5.44
   -4   31    7     20.45     40.81
   -4   31    9      3.79     -2.85
   -4   31   11    -24.39     -5.21
   -4   31   13      3.41     20.99
   -4   31   15      3.82     -2.57
   -4   31   17     24.21    -22.94
   -4   31   19     -1.67    -23.83
   -4   31   21     -2.64     -0.76
   -5   31    0    -25.23      0.30
   -5   31    2    -15.87    -24.03
   -5   31    4     31.09     -2.31
   -5   31    6      7.05    -15.20
   -5   31    8    -15.01     -9.84
   -5   31   10    -11.66     22.70
   -5   31   12     16.97     -3.85
   -5   31   14     11.10     10.26
   -5   31   16    -29.55      6.22
   -5   31   18     -1.44     13.69
   -5   31   20     12.22     11.30
   -6   31    1      9.80     -8.92
   -6   31    3     -4.88      8.25
   -6   31    5     17.01     25.23
   -6   31    7      2.87     -5.56
   -6   31    9     11.35     -2.70
   -6   31   11     -8.41      1.07
   -6   31   13      1.98    -26.62
   -6   31   15      4.60    -14.06
   -6   31   17      8.20     -2.70
   -6   31   19      3.27     -6.45
   -7   31    0      1.25      0.03
   -7   31    2      1.40      5.15
   -7   31    4      4.60     -3.15
   -7   31    6    -22.10     36.75
   -7   31    8     -9.46      7.64
   -7   31   10     -0.23    -26.13
   -7   31   12     12.15      8.54
   -7   31   14    -34.24      7.54
   -7   31   16     10.98    -20.97
   -7   31   18     -6.19     18.95
   -7   31   20     -4.38     -2.08
   -8   31    1     14.09      1.38
   -8   31    3     -1.17     -0.26
   -8   31    5     32.26     -5.21
   -8   31    7    -18.45      4.71
   -8   31    9      0.37     -6.33
   -8   31   11     -5.81      1.70
   -8   31   13     11.29     32.70
   -8   31   15     -1.06      4.71
   -8   31   17     -7.33      6.56
   -8   31   19     -2.52      6.19
   -9   31    4     27.94    -10.57
   -9   31    6     -0.40     34.43
   -9   31    8     -8.65     -9.77
   -9   31   10    -13.68     15.16
   -9   31   12     16.83     16.30
   -9   31   14     -5.22    -12.69
   -9   31   16     10.15      2.13
   -9   31   18     11.49    -21.39
   -9   31   20      5.93     -4.95
  -10   31    7      6.18      7.02
  -10   31    9      7.43     -6.96
  -10   31   11     -2.10     -6.87
  -10   31   13     12.17      8.94
  -10   31   15     11.77    -14.82
  -10   31   17      8.73     -3.63
  -10   31   19      3.46      3.07
  -11   31   18      2.27      9.36
  -12   31   17     19.71    -33.62
  -12   31   19    -17.08     19.66
  -13   31   18     -4.96      2.81
  -14   31   17     -2.04     11.57
  -21   31    2     -3.25     -3.21
  -21   31    4    -10.66      0.85
  -21   31    6     -1.46     -7.15
  -21   31    8     -5.36      1.81
  -22   31    1     -0.48      6.15
  -22   31    3      1.97     -0.92
  -22   31    5     -1.73      0.28
  -22   31    7      6.91      1.57
  -22   31    9     -6.15      3.12
  -23   31    0     14.25     -0.34
  -23   31    2     -1.23      0.60
  -23   31    4      3.10      1.15
  -23   31    6      4.46     -5.21
  -23   31    8      2.75     -2.96
  -23   31   10      2.87     -0.40
  -24   31    1     -1.15      3.57
  -24   31    3      0.01     -0.09
  -24   31    5      3.84      8.09
  -24   31    7     -1.04      7.15
  -24   31    9     -2.49      2.04
  -25   31    0      1.18      0.38
  -25   31    2      1.34      2.07
  -25   31    4      1.62     -5.14
  -25   31    6      1.85     -3.96
  -25   31    8      0.59     -1.00
  -26   31    1     -1.32     -1.81
  -26   31    3     -2.19      0.81
  -26   31    5      1.88      1.74
  -27   31    0     -3.91      0.48
   -1   32    1     -7.42     14.23
   -1   32    3     12.85     -3.15
   -1   32    5     -0.34     14.11
   -1   32    7    -19.95     -5.56
   -1   32    9      4.17     -6.24
   -1   32   11      0.53     -3.80
   -1   32   13     -6.50     -1.05
   -1   32   15     -5.53    -12.64
   -1   32   17     -4.86     -7.88
   -1   32   19      1.55     -1.31
   -2   32    0     -1.84     -1.10
   -2   32    2     14.39      2.02
   -2   32    4      7.51     12.84
   -2   32    6     -4.65      2.36
   -2   32    8     -2.10     18.97
   -2   32   10     -2.87     -1.09
   -2   32   12    -10.79     -1.14
   -2   32   14      2.82     -3.50
   -2   32   16    -10.17     -0.38
   -2   32   18     12.25     -3.30
   -2   32   20     11.30    -17.17
   -3   32    1     -1.18      2.34
   -3   32    3      4.34    -12.50
   -3   32    5     -0.58     -8.98
   -3   32    7     -8.70    -40.35
   -3   32    9     14.07    -10.36
   -3   32   11      1.35     40.83
   -3   32   13     -3.92     -4.37
   -3   32   15      1.41      9.34
   -3   32   17     11.73      3.34
   -3   32   19    -16.32     -6.04
   -4   32    0      1.83      0.39
   -4   32    2     -5.10     13.83
   -4   32    4      0.10     12.25
   -4   32    6     -6.27     16.80
   -4   32    8    -16.27      3.70
   -4   32   10     10.56    -19.93
   -4   32   12      6.62    -17.95
   -4   32   14    -14.55     -5.83
   -4   32   16      3.33     -1.61
   -4   32   18     -5.22     29.67
   -4   32   20      4.72      2.64
   -5   32    1      1.01      2.26
   -5   32    3      9.23      8.24
   -5   32    5     -6.51     -0.99
   -5   32    7      1.16     38.93
   -5   32    9    -22.71      7.84
   -5   32   11     26.99     -6.05
   -5   32   13     17.29      4.20
   -5   32   15     -9.63    -29.81
   -5   32   17     12.59    -16.74
   -5   32   19      5.22     -7.29
   -6   32    0     12.15     -0.64
   -6   32    2     20.14      6.54
   -6   32    4     27.24     12.62
   -6   32    6    -12.44     -9.64
   -6   32    8      2.24    -27.43
   -6   32   10    -44.20    -12.22
   -6   32   12     -0.47    -11.94
   -6   32   14    -13.23     13.28
   -6   32   16    -19.43     -6.61
   -6   32   18    -11.20      5.11
   -6   32   20      1.53      9.91
   -7   32    1     18.52    -16.16
   -7   32    3    -18.91     20.66
   -7   32    5    -15.80      1.05
   -7   32    7      4.22     -0.49
   -7   32    9     17.46     34.47
   -7   32   11    -13.15     31.91
   -7   32   13     14.54      1.34
   -7   32   15     -7.51      6.90
   -7   32   17     24.10     16.94
   -7   32   19      3.26     -5.45
   -8   32    2     -2.19    -20.55
   -8   32    4     17.74    -27.98
   -8   32    6      8.07     11.33
   -8   32    8      7.88     11.86
   -8   32   10     -2.29     16.94
   -8   32   12     16.00     26.10
   -8   32   14    -12.53      2.14
   -8   32   16     41.08    -51.11
   -8   32   18     11.61     -5.67
   -9   32    5     24.34    -17.45
   -9   32    7    -36.08      7.73
   -9   32    9     -7.95     -0.81
   -9   32   11     10.68     -8.46
   -9   32   13     -6.99     -8.94
   -9   32   15    -13.76     12.55
   -9   32   17     -7.89    -23.12
   -9   32   19      7.71      3.79
  -10   32    8     18.46     25.56
  -10   32   10     12.48    -22.33
  -10   32   12      2.96     -7.26
  -10   32   14    -14.59      7.63
  -10   32   16    -33.90     33.53
  -10   32   18     16.21      4.01
  -11   32   17      0.53    -33.00
  -12   32   18      5.46     -0.59
  -13   32   17     21.57     12.15
  -23   32    3     -6.18      0.82
  -23   32    5     -3.33      7.81
  -23   32    7     -0.41     -0.46
  -24   32    0      6.77      0.40
  -24   32    2      4.35    -10.33
  -24   32    4      1.70     -0.97
  -24   32    6     -2.80      2.18
  -25   32    1      2.78      1.38
  -25   32    3      1.37      2.90
  -25   32    5     -1.14      1.91
   -1   33    0     -1.43     -1.38
   -1   33    2    -10.32      7.10
   -1   33    4      8.48      2.91
   -1   33    6     12.56      9.14
   -1   33    8      4.68     -8.69
   -1   33   10     -6.87      5.69
   -1   33   12      1.11     -6.82
   -1   33   14     -2.24      6.60
   -1   33   16     -2.40     10.70
   -1   33   18     -6.43      1.57
   -2   33    1     -7.54      7.28
   -2   33    3     -3.84     -8.95
   -2   33    5     10.81     12.42
   -2   33    7    -11.96      1.25
   -2   33    9      5.96     -9.63
   -2   33   11    -11.48      8.54
   -2   33   13     -9.07    -28.23
   -2   33   15     -6.99      5.13
   -2   33   17     15.51      1.82
   -2   33   19     -9.37     10.28
   -3   33    0     26.17      2.25
   -3   33    2     15.83    -14.15
   -3   33    4      9.29      6.03
   -3   33    6    -36.04     11.83
   -3   33    8    -13.33     -5.27
   -3   33   10     21.65    -10.80
   -3   33   12      5.27     -2.97
   -3   33   14      9.96    -11.34
   -3   33   16    -11.70    -22.95
   -3   33   18     -0.50      9.46
   -4   33    1      0.24      5.24
   -4   33    3      8.62     -3.73
   -4   33    5     -0.88      3.87
   -4   33    7      4.57    -17.92
   -4   33    9    -19.15    -10.91
   -4   33   11      2.97      8.07
   -4   33   13    -15.73     19.74
   -4   33   15      5.82    -18.90
   -4   33   17     22.46      3.53
   -4   33   19     -6.26      4.29
   -5   33    0     15.17     -1.09
   -5   33    2      1.84     13.17
   -5   33    4    -10.70     -0.35
   -5   33    6      3.61     -5.36
   -5   33    8    -19.00     30.54
   -5   33   10    -21.92     -7.07
   -5   33   12     23.38    -12.55
   -5   33   14    -24.24      1.52
   -5   33   16      4.77      2.59
   -5   33   18     -4.69      6.64
   -6   33    1    -17.63    -32.10
   -6   33    3     21.85     -2.80
   -6   33    5     -6.66     -8.15
   -6   33    7     34.65     11.44
   -6   33    9      4.14      6.07
   -6   33   11    -19.39     21.56
   -6   33   13    -11.08     33.65
   -6   33   15     18.79     13.69
   -6   33   17     33.50     -7.24
   -7   33    0     -0.76     -0.49
   -7   33    2     21.33     38.84
   -7   33    4     41.19     28.56
   -7   33    6      2.44     -6.40
   -7   33    8     14.24     13.27
   -7   33   10    -41.83     16.43
   -7   33   12     13.85    -27.27
   -7   33   14     -6.68     -7.37
   -7   33   16    -12.18    -41.46
   -7   33   18     -7.55      1.12
   -8   33    3     -6.58     11.47
   -8   33    5    -17.26     31.04
   -8   33    7     -5.36     14.50
   -8   33    9     13.06    -25.92
   -8   33   11      4.52      5.77
   -8   33   13      2.15     -3.00
   -8   33   15    -29.96      8.16
   -8   33   17     -8.87      4.99
   -9   33    4    -12.35     -9.29
   -9   33    6     15.13     -8.43
   -9   33    8     -4.54    -13.20
   -9   33   10      3.05    -15.66
   -9   33   12     30.49     25.37
   -9   33   14     -1.75      2.07
   -9   33   16     -1.25      4.98
   -9   33   18      6.40      3.73
  -10   33    9    -30.85    -27.86
  -10   33   11     -3.27      4.03
  -10   33   13      0.15      1.60
  -10   33   17     -1.28    -28.00
  -11   33   16      4.40     12.49
  -12   33   17      1.97     -2.65
   -1   34    1      6.67     -8.57
   -1   34    3     13.14    -26.35
   -1   34    5      7.17     -5.34
   -1   34    7     -8.58    -10.93
   -1   34    9     -5.82     -3.12
   -1   34   11      4.85      4.57
   -1   34   13     13.71     -4.53
   -1   34   15      1.00      1.57
   -1   34   17     -5.25      6.60
   -2   34    0     32.26     -4.06
   -2   34    2      9.08     31.38
   -2   34    4    -20.98     -8.17
   -2   34    6     -5.85    -22.08
   -2   34    8     13.99      4.30
   -2   34   10    -20.12     25.71
   -2   34   12      4.07     -3.26
   -2   34   14     -5.14     -0.53
   -2   34   16      2.42    -17.18
   -2   34   18      0.58     -0.57
   -3   34    1    -14.25      1.65
   -3   34    3     -2.03     11.28
   -3   34    5     -1.15     11.39
   -3   34    7     -6.33     -8.43
   -3   34    9     -7.82      2.41
   -3   34   11      2.22     10.35
   -3   34   13    -19.76      2.61
   -3   34   15      8.68    -14.69
   -3   34   17     13.69      4.66
   -4   34    0     10.23     -2.27
   -4   34    2     -5.82    -15.54
   -4   34    4     21.25     -8.04
   -4   34    6     18.57     22.37
   -4   34    8     12.71     -0.09
   -4   34   10    -16.08    -14.07
   -4   34   12     14.01      7.49
   -4   34   14     -0.02     -6.85
   -4   34   16      6.56     -0.75
   -4   34   18     -4.87     -0.47
   -5   34    1     -2.89    -16.87
   -5   34    3     33.56    -15.73
   -5   34    5     11.34      5.16
   -5   34    7     -9.17     18.29
   -5   34    9    -19.75    -11.81
   -5   34   11     -8.70     10.35
   -5   34   13    -12.18      5.29
   -5   34   15    -14.23     -4.30
   -5   34   17     28.82      4.04
   -6   34    0     12.74      3.29
   -6   34    2     -4.10      5.89
   -6   34    4     -7.47     35.68
   -6   34    6    -30.32      3.38
   -6   34    8    -17.32     11.54
   -6   34   10     22.27     30.74
   -6   34   12     15.18    -29.64
   -6   34   14      2.74     -7.44
   -6   34   16     -1.28    -23.04
   -7   34    1     26.58     25.70
   -7   34    3     17.99      2.89
   -7   34    5      8.08    -16.00
   -7   34    7     20.05    -19.80
   -7   34    9      9.71     -1.16
   -7   34   11    -16.92     14.59
   -7   34   13    -27.49    -22.63
   -7   34   15      8.24     -6.06
   -7   34   17      5.25     30.78
   -8   34    4     12.00     15.58
   -8   34    6    -28.99     43.68
   -8   34    8    -23.98    -11.55
   -8   34   10     -3.44    -11.51
   -8   34   12     16.46     26.26
   -8   34   14    -41.21    -13.71
   -8   34   16     20.82     -8.61
   -9   34    5      9.83      0.93
   -9   34    7    -16.88     22.70
   -9   34    9     22.48     -1.86
   -9   34   11      9.07     12.95
   -9   34   13      0.17     -2.36
   -9   34   15     16.10      0.93
  -10   34   16     25.75     -6.10
   -1   35    0     35.84     -9.87
   -1   35    2     13.80     11.33
   -1   35    4    -14.79    -27.48
   -1   35    6      1.21    -17.64
   -1   35    8      3.74     -0.43
   -1   35   10    -11.72      4.88
   -1   35   12    -10.27     -0.60
   -1   35   14    -12.43     18.27
   -1   35   16      1.21      2.24
   -2   35    1      0.02      1.06
   -2   35    3     -2.70      8.56
   -2   35    5      9.96      9.79
   -2   35    7     12.98     -5.15
   -2   35    9     14.89     -7.93
   -2   35   11      7.72    -18.41
   -2   35   13      2.74     10.81
   -2   35   15      2.63      4.32
   -2   35   17     -5.16     -3.95
   -3   35    0    -19.91     -1.17
   -3   35    2      8.09     15.92
   -3   35    4     -8.46     -0.74
   -3   35    6      8.98     -6.55
   -3   35    8    -15.03      3.40
   -3   35   10    -13.76      9.05
   -3   35   12     30.71      6.94
   -3   35   14     -5.22     -7.70
   -3   35   16      5.62     11.84
   -4   35    1      1.56      3.19
   -4   35    3      4.12     -1.92
   -4   35    5     -3.24     -6.09
   -4   35    7      3.28     -8.83
   -4   35    9    -13.27     -0.63
   -4   35   11    -20.26    -27.79
   -4   35   13    -14.83    -12.20
   -4   35   15      8.54     22.05
   -5   35    0      3.41     -0.67
   -5   35    2      6.94      9.63
   -5   35    4     42.79     16.01
   -5   35    6    -17.47     22.70
   -5   35    8      0.10     -1.16
   -5   35   10      1.00     10.80
   -5   35   12     12.08    -41.18
   -5   35   14     13.51     -5.66
   -5   35   16    -11.27    -13.97
   -6   35    1     22.69      6.92
   -6   35    3     -2.20     -9.49
   -6   35    5      0.10     21.02
   -6   35    7     29.88     10.01
   -6   35    9      5.18    -13.73
   -6   35   11    -47.90     -6.91
   -6   35   13     -3.93      0.95
   -6   35   15     -3.20     12.82
   -7   35    2    -33.11    -61.31
   -7   35    4     31.01     -3.26
   -7   35    6    -55.54     30.16
   -7   35    8    -51.03    -19.44
   -7   35   10     12.58     37.23
   -7   35   12     40.34     35.06
   -7   35   14    -17.15    -25.66
   -7   35   16     20.33      0.40
   -8   35    5     36.05    -21.24
   -8   35    7     52.22    -22.97
   -8   35    9     39.83      7.42
   -8   35   11    -34.42     14.37
   -8   35   13    -53.31     -1.76
   -8   35   15     52.81    -16.77
   -9   35    8     -0.40      2.47
   -9   35   10     -4.95     13.23
   -9   35   12     11.14     23.82
   -9   35   14    -50.92    -23.89
   -1   36    1      7.11      3.11
   -1   36    3    -23.76     35.56
   -1   36    5     -6.50      7.26
   -1   36    7     13.61     18.83
   -1   36    9      7.73      1.69
   -1   36   11     -5.86     -5.69
   -1   36   13     21.52    -17.29
   -1   36   15      2.09      7.05
   -2   36    0     16.97     -0.84
   -2   36    2      4.78     -5.79
   -2   36    4     -1.40      4.78
   -2   36    6    -20.06     -6.72
   -2   36    8     -1.01    -32.73
   -2   36   10     11.77     -3.83
   -2   36   12     -5.43     -1.22
   -2   36   14    -10.50      5.88
   -3   36    1     15.31     -0.85
   -3   36    3     35.38     -8.34
   -3   36    5    -20.13      1.61
   -3   36    7    -22.10    -12.01
   -3   36    9      0.85     -6.71
   -3   36   11      0.89    -11.49
   -3   36   13     -7.33    -11.58
   -3   36   15      1.21    -12.73
   -4   36    0     -5.87      3.40
   -4   36    2     -1.97    -12.82
   -4   36    4     -1.68      3.76
   -4   36    6      0.37     -6.90
   -4   36    8     -6.29      8.15
   -4   36   10     -9.84    -16.94
   -4   36   12     48.69     -9.06
   -4   36   14     15.13     10.57
   -5   36    1     -0.07     -1.73
   -5   36    3      0.24    -10.44
   -5   36    5      6.35      3.14
   -5   36    7     20.46    -37.59
   -5   36    9    -21.63     52.09
   -5   36   11     -5.56     -7.22
   -5   36   13     10.76     13.96
   -5   36   15      3.17     20.55
   -6   36    0    -15.53    -11.09
   -6   36    2     -5.13    -19.16
   -6   36    4      0.71     -8.94
   -6   36    6    -11.86     24.57
   -6   36    8     11.68     -0.45
   -6   36   10    -39.85     23.55
   -6   36   12     -6.27     -7.04
   -6   36   14     10.26    -28.02
   -7   36    3     12.86     19.62
   -7   36    5      4.53    -19.81
   -7   36    7     24.43     15.49
   -7   36    9     34.86     -6.16
   -7   36   11      1.57     -6.98
   -7   36   13    -16.37      8.71
   -8   36    8    -47.54      6.89
   -8   36   10    -36.90     -2.89
   -8   36   12     46.35     -6.04
   -8   36   14    -12.88      1.67
   -9   36    9      1.58     -4.39
   -9   36   11     -0.50     -7.11
   -9   36   13     15.83     -7.01
   -1   37    0      2.46     -1.60
   -1   37    2     20.64     -8.52
   -1   37    4     12.23    -13.95
   -1   37    6     -5.34     -1.38
   -1   37    8    -34.73    -10.27
   -1   37   10     -1.50      1.52
   -1   37   12     19.83      9.61
   -1   37   14     -8.27      2.08
   -2   37    1     -0.41     -2.42
   -2   37    3      2.56      2.18
   -2   37    5    -15.91      7.15
   -2   37    7     22.92    -19.28
   -2   37    9     21.16     -2.35
   -2   37   11      2.33    -12.50
   -2   37   13     -9.41      2.02
   -3   37    0     -0.85     -2.86
   -3   37    2    -11.46    -15.41
   -3   37    4     30.80     -2.65
   -3   37    6      9.36    -20.05
   -3   37    8     18.57      1.14
   -3   37   10     -3.61      2.64
   -3   37   12     -1.76    -15.57
   -3   37   14      0.15      6.90
   -4   37    1    -14.82    -18.13
   -4   37    3      5.17      8.11
   -4   37    5    -24.91     31.79
   -4   37    7     -7.53     13.63
   -4   37    9    -24.68     18.77
   -4   37   11     -2.92      6.75
   -4   37   13      5.36      9.33
   -5   37    0      5.38      1.06
   -5   37    2     -3.07      9.12
   -5   37    4    -25.07    -35.10
   -5   37    6      8.99    -16.60
   -5   37    8      2.02      0.17
   -5   37   10    -23.68    -53.80
   -5   37   12     39.15    -14.42
   -6   37    1      8.51      0.00
   -6   37    3      4.95      8.23
   -6   37    5     56.44     -1.12
   -6   37    7      1.47      5.86
   -6   37    9     -6.28    -18.81
   -6   37   11     46.64    -12.34
   -6   37   13    -19.89     32.44
   -7   37    4     -8.52     -3.83
   -7   37    6      3.73      0.91
   -7   37    8    -46.99    -18.90
   -7   37   10    -15.29      6.02
   -7   37   12     -4.20    -20.28
   -8   37    7     -4.12      3.46
   -8   37    9     47.14    -15.92
   -8   37   11      8.32    -11.00
   -1   38    1      1.47     -3.94
   -1   38    3     -3.33      0.13
   -1   38    5      3.77     -5.21
   -1   38    7     30.02     -5.08
   -1   38    9     -3.18      4.69
   -1   38   11     -7.72    -21.94
   -2   38    0      9.28     -0.48
   -2   38    2      3.35     25.74
   -2   38    4    -13.10      0.46
   -2   38    6      2.88    -39.88
   -2   38    8     -0.55     17.40
   -2   38   10    -21.02     33.07
   -2   38   12      3.58      7.26
   -3   38    1     -7.43     -6.36
   -3   38    3      4.57      1.54
   -3   38    5    -19.98      6.22
   -3   38    7      6.38     -8.69
   -3   38    9     -5.75     -4.10
   -3   38   11      9.66      1.94
   -4   38    0     19.37      7.00
   -4   38    2     -1.77      4.60
   -4   38    4      0.26    -26.63
   -4   38    6     44.15      0.88
   -4   38    8     -7.04    -12.54
   -4   38   10     -7.28    -38.66
   -4   38   12     -2.12    -38.43
   -5   38    1     -2.28      9.31
   -5   38    3     -1.48      6.10
   -5   38    7    -52.26     32.62
   -5   38    9     -2.87      4.34
   -5   38   11     22.58     13.32
   -6   38    2    -19.90     -5.16
   -6   38    4    -14.27    -31.87
   -6   38    6      0.08      4.14
   -6   38    8      1.84    -44.77
   -6   38   10     -6.06    -13.87
   -7   38    5     14.46     -3.48
   -7   38    7     -4.84     -3.66
   -7   38    9     14.99      5.18
   -7   38   11     33.43     13.55
   -8   38    8      4.32    -23.69
   -8   38   10     -9.87      2.52
   -1   39    0     21.52    -36.29
   -1   39    2     -2.89      5.83
   -1   39    4     29.94     -9.26
   -1   39    6     10.85     15.21
   -1   39    8     -6.40      7.87
   -1   39   10     -4.31      1.12
   -2   39    1     14.85     -8.12
   -2   39    3      5.16     10.48
   -2   39    5    -40.27      6.46
   -2   39    7      4.92      8.88
   -2   39    9    -12.53    -19.44
   -3   39    0     24.36     39.69
   -3   39    2     -1.05     16.60
   -3   39    4     -8.09     -6.00
   -3   39    6     -3.75    -36.34
   -3   39    8      0.83      4.25
   -3   39   10     -4.19     12.53
   -4   39    1     -3.09    -14.72
   -4   39    3     -8.91    -13.81
   -4   39    5     29.83     18.70
   -4   39    7     -7.30     -1.18
   -4   39    9     33.36    -10.68
   -5   39    2     -5.37      0.30
   -5   39    4     36.72    -24.19
   -5   39    6      8.77     18.37
   -5   39    8    -19.20    -45.83
   -6   39    3    -35.10      0.01
   -6   39    5    -32.99     -0.80
   -6   39    7     -0.90     -0.57
   -6   39    9     29.95     38.57
   -7   39    6    -17.39    -10.07
   -7   39    8     13.24    -25.18
   -1   40    1     23.08     20.71
   -1   40    3     -2.45      1.51
   -1   40    5    -14.22      3.45
   -1   40    7     -6.51     -8.01
   -2   40    0      1.38      2.66
   -2   40    2     -0.05    -16.28
   -2   40    4     48.40     -8.48
   -2   40    6     11.86     -5.62
   -3   40    1     -7.62     -2.53
   -3   40    3     -0.97     -7.65
   -3   40    5    -15.73      7.98
   -3   40    7      4.81      7.78
   -4   40    0     31.01     14.40
   -4   40    2     -9.05      0.00
   -4   40    4      4.62     -1.51
   -4   40    6     -8.23      9.16
   -5   40    3     -4.36      2.00
   -5   40    5     -0.82     -1.85
   -6   40    4     -4.52      1.37
   -6   40    6      9.78    -24.72
   -1   41    0    -29.52      4.22
   -1   41    2     -4.36     -0.18
   -2   41    1     -7.63      7.56
   -3   41    0     16.85     -3.51
    1    1    0    639.93     -1.18
    0    2    0   -284.10      4.74
    2    2    0    279.12     -6.14
   -1    3    0    127.70      1.36
    1    3    0    136.62     -2.66
    0    4    0    181.42      2.54
    2    4    0    185.66      0.02
   -1    5    0    -89.39      3.08
    1    5    0   -110.96      1.11
    3    5    0    107.40     -7.71
    0    6    0    -66.69     -5.43
    2    6    0    -21.93     -3.65
    4    6    0    -63.83     -7.25
    1    7    0     48.39     -8.60
    3    7    0     18.42     17.60
    5    7    0     45.25     -8.95
    2    8    0     61.36    -11.86
    4    8    0     28.97     -3.78
    6    8    0     23.12     -3.73
    8    8    0     42.26     -4.66
    1    9    0    -13.90    -16.68
    3    9    0     60.30    -10.25
    5    9    0     48.61      0.69
    7    9    0      8.54     -0.76
    2   10    0     -7.15     10.95
    4   10    0     -5.30     -6.03
    6   10    0     61.17     -0.73
    3   11    0    -34.95     -2.89
    5   11    0     14.05      3.26
    7   11    0     -0.40     -3.18
    2   12    0     54.04    -14.90
    4   12    0     25.70     -4.86
    6   12    0    -16.62      0.59
    8   12    0    -64.39     -5.16
    3   13    0    -28.84     10.86
    5   13    0     10.43     -4.39
    7   13    0     12.06      0.97
    4   14    0    -47.08      4.47
    6   14    0     31.82     -2.83
    8   14    0      5.82     -1.78
    3   15    0     30.57     -3.77
    5   15    0      2.31      0.88
    7   15    0    -21.30     -1.40
    9   15    0    -27.90      0.26
    4   16    0    -11.19     -0.03
    6   16    0      7.81     -1.49
    8   16    0     -3.51      1.70
    5   17    0     -8.17     -1.77
    7   17    0     11.56     -1.65
    9   17    0      1.60      0.72
    4   18    0     20.26     -1.59
    6   18    0     -4.67      0.54
    8   18    0      8.41     -3.71
   10   18    0     -3.12      3.40
    5   19    0     -5.50     -0.46
    7   19    0     17.49     -0.11
    9   19    0      8.47      0.79
    6   20    0      1.94     -2.84
    8   20    0      5.57     -1.36
   10   20    0     -2.29      0.74
    7   21    0     11.98      0.39
    9   21    0     -9.84     -2.73
    6   22    0      6.38      0.06
    8   22    0      1.16      2.26
   10   22    0     18.97      1.28
   -9   23    0    -20.55     -0.23
    7   23    0    -22.94      0.94
    9   23    0     -1.27      0.44
   11   23    0      1.75      1.25
  -10   24    0     24.78      2.13
    8   24    0      9.99      1.02
   10   24    0     -2.79     -3.75
  -11   25    0     16.91     -1.56
   -9   25    0     17.73      1.32
    9   25    0      3.66      1.49
   11   25    0     12.37      1.27
  -12   26    0     30.10      1.33
  -10   26    0    -16.19      0.17
   10   26    0      3.26      1.91
  -13   27    0     -1.04     -1.76
  -11   27    0     22.52      2.36
   -9   27    0     -1.85     -0.85
   11   27    0      3.87      1.68
  -14   28    0     -5.06      0.77
  -12   28    0      0.31      0.05
  -10   28    0      7.01      0.82
  -17   29    0    -16.28      0.21
  -15   29    0      7.20     -0.96
  -13   29    0      7.49     -0.34
  -11   29    0     23.98      0.67
   -9   29    0    -23.80      0.45
  -18   30    0      0.38     -1.70
  -16   30    0     11.07     -0.66
  -14   30    0     -5.62     -0.65
  -12   30    0      4.71     -0.35
  -10   30    0      0.06      0.43
   30   30    0      1.40      0.41
  -29   31    0    -10.31      1.00
  -21   31    0      1.89      0.57
  -19   31    0     -3.10     -0.84
  -17   31    0     12.31     -0.07
  -15   31    0     -3.43     -0.70
  -13   31    0     -8.05     -1.53
  -11   31    0     -0.82      0.69
   -9   31    0     -5.78     -1.88
   29   31    0     -6.80     -0.06
  -26   32    0     -1.38      0.31
  -22   32    0     14.39     -1.20
  -20   32    0      5.33      0.04
  -18   32    0     -2.74      0.13
  -16   32    0     -6.89      1.77
  -14   32    0     13.72     -2.28
  -12   32    0      7.38     -0.89
  -10   32    0     19.35      0.83
   -8   32    0     -7.72     -0.54
   26   32    0     -3.29      0.01
  -25   33    0     10.40     -0.05
  -23   33    0     10.01      0.59
  -21   33    0      1.62     -1.15
  -19   33    0      7.99      1.12
  -17   33    0     -9.34     -0.72
  -15   33    0      1.41      0.27
  -13   33    0     -5.67      0.04
  -11   33    0     -7.93      0.64
   -9   33    0     28.19      1.79
   25   33    0     -0.98     -0.73
  -24   34    0      3.76     -0.32
  -22   34    0     -4.89      0.45
  -20   34    0     -4.51      0.13
  -18   34    0      8.81     -0.72
  -16   34    0     -5.02      0.61
  -14   34    0     -7.29     -0.15
  -12   34    0     -0.09      1.90
  -10   34    0     13.06     -0.54
   -8   34    0      8.71     -2.31
   24   34    0      7.94      0.78
  -23   35    0      3.03     -0.27
  -21   35    0      3.32     -0.25
  -19   35    0     -8.42     -0.36
  -17   35    0     -2.49     -0.50
  -15   35    0    -10.04      1.06
  -13   35    0     12.19     -2.02
  -11   35    0     -7.36      1.27
   -9   35    0    -21.99     -1.04
   -7   35    0    -35.06     -4.84
   23   35    0      9.34      1.26
  -22   36    0      2.41     -0.45
  -20   36    0      2.46      0.83
  -18   36    0     -5.47      0.24
  -16   36    0     -3.46     -0.84
  -14   36    0     20.40     -0.05
  -12   36    0     13.54     -0.72
  -10   36    0      7.41      0.09
   -8   36    0      1.67     -0.83
   20   36    0     -0.65      1.30
   22   36    0      6.40      0.08
  -19   37    0      5.70     -0.13
  -17   37    0      9.38     -0.94
  -15   37    0     -7.89      0.75
  -13   37    0     -6.55     -0.61
  -11   37    0      3.30      0.56
   -9   37    0     10.27     -3.09
   -7   37    0    -21.69      0.42
   19   37    0      0.52     -2.09
  -18   38    0     -0.16     -0.71
  -16   38    0     -0.65      2.08
  -14   38    0      4.22      0.18
  -12   38    0     -7.29      0.76
  -10   38    0      4.41      0.27
   -8   38    0    -13.77     -2.10
   -6   38    0     35.69      3.00
   16   38    0     -2.27     -0.72
   18   38    0     13.57      1.64
  -15   39    0     -1.39     -0.21
  -13   39    0      6.19      0.63
  -11   39    0     -2.04     -0.14
   -9   39    0    -16.29     -0.78
   -7   39    0     -3.58     -0.46
   -5   39    0    -19.63     -1.74
   15   39    0     -5.47      1.68
  -14   40    0     -7.92      1.55
  -12   40    0      9.38     -1.12
  -10   40    0     21.43     -0.42
   -8   40    0     -3.64     -2.35
   -6   40    0    -13.71      1.15
   10   40    0      1.41     -1.61
   12   40    0     -7.50      1.24
   14   40    0     -4.56      1.19
  -11   41    0      1.00     -0.91
   -9   41    0      9.91     -2.70
   -7   41    0     -3.79      0.75
   -5   41    0     15.09      4.93
    3   41    0    -19.52      0.38
    5   41    0      3.05     -1.60
    7   41    0     -8.87     -0.55
    9   41    0     -1.28      2.57
   11   41    0     -9.90     -0.72
    0    1    1   -412.74    298.87
   -1    2    1    170.55     17.21
    1    2    1    -47.41   -196.43
   -2    3    1     19.57    -88.32
    0    3    1    128.96   -184.53
    2    3    1    120.95     10.91
   -3    4    1     72.43     -8.91
    1    4    1    119.25    166.28
    3    4    1     86.53    -46.57
    2    5    1   -133.36    -77.79
    1    6    1    103.35    166.08
    3    6    1    -69.03    -56.65
    2    7    1     48.53     -4.56
    4    7    1     77.60     24.17
    1    8    1    -61.39     57.86
    3    8    1    -59.17    -46.47
    5    8    1    -25.93    -48.78
    2    9    1     19.34    -19.20
    4    9    1      2.76    -45.36
    6    9    1    -17.70    -71.80
    3   10    1      2.09      6.37
    5   10    1     45.38     48.42
    2   11    1     20.11      8.99
    4   11    1     15.05    -15.34
    6   11    1     21.86      5.70
    3   12    1      6.30    -15.03
    5   12    1    -10.47    -16.56
    7   12    1    -23.39    -11.39
    2   13    1     -8.82    -24.89
    4   13    1      4.53     22.96
    6   13    1    -13.33     11.92
    8   13    1     -3.48    -26.65
    3   14    1     35.33     28.83
    5   14    1     -5.59    -12.03
    7   14    1    -14.07      6.61
    4   15    1     -5.15     11.97
    6   15    1     -2.22     12.74
    8   15    1      8.01     -0.06
    5   16    1    -10.78      6.85
    7   16    1     18.84      3.32
    9   16    1     -8.35     -7.69
    4   17    1     -7.17     -0.86
    6   17    1    -13.38    -10.93
    8   17    1     -8.88      8.28
    5   18    1     -7.40      4.08
    7   18    1     -8.25     -9.12
    9   18    1     -1.25    -11.71
    6   19    1     -9.38     -8.61
    8   19    1     -6.76     -3.67
    7   20    1    -10.02     19.31
    9   20    1      9.63      2.40
    6   21    1    -11.33      3.36
    8   21    1     11.26      5.75
   10   21    1    -21.58      9.94
    7   22    1     -7.88    -16.99
    9   22    1     -7.37     14.04
    8   23    1     -2.83      1.61
   10   23    1     -6.61    -24.58
    9   24    1      9.85    -11.17
  -10   25    1    -16.94     11.57
   10   25    1      5.45     19.20
  -11   26    1      1.90      4.77
  -14   27    1     -1.98      7.47
  -12   27    1     10.45      6.19
  -10   27    1     12.77      0.68
  -15   28    1     -3.27      3.83
  -13   28    1      3.86     -1.02
  -11   28    1    -10.70     20.46
   -9   28    1      5.54     -8.23
  -16   29    1      1.22     -1.93
  -14   29    1     -3.78     -8.26
  -12   29    1      1.76      2.93
  -10   29    1     -4.76      4.35
  -29   30    1      2.04      0.63
  -17   30    1      1.16      2.85
  -15   30    1     -4.34      0.43
  -13   30    1     -4.07      6.98
  -11   30    1     -0.25      0.96
   -9   30    1      2.42      1.14
   29   30    1      0.46     -2.16
  -28   31    1     -5.17     -4.03
  -20   31    1     -6.74     -8.48
  -18   31    1      1.78     -2.04
  -16   31    1    -11.74     -1.99
  -14   31    1      2.43      2.63
  -12   31    1      3.33      1.24
  -10   31    1     -6.84    -12.86
   28   31    1      6.85      5.79
  -27   32    1     -7.13     -2.45
  -23   32    1     -1.21     12.65
  -21   32    1     -2.74     -6.54
  -19   32    1     -4.85     -4.85
  -17   32    1     12.94      0.76
  -15   32    1     -9.40     -3.40
  -13   32    1     -4.00     -2.30
  -11   32    1     -4.53      1.12
   -9   32    1     -6.95     -3.13
   27   32    1      1.64     -2.14
  -26   33    1      0.63      1.06
  -24   33    1    -11.57      5.32
  -22   33    1     -1.13     -8.74
  -20   33    1      7.03      4.35
  -18   33    1     -1.42      6.55
  -16   33    1     -5.79     -3.40
  -14   33    1      0.76     -0.93
  -12   33    1     -6.35     13.37
  -10   33    1     10.80     -2.06
   -8   33    1      9.36    -20.17
   26   33    1     -0.83      4.42
  -25   34    1     -5.48      1.61
  -23   34    1     -0.05      2.44
  -21   34    1      6.93     -5.58
  -19   34    1     -0.51     -1.94
  -17   34    1     -1.10     -5.72
  -15   34    1      1.44      5.16
  -13   34    1     14.48      9.94
  -11   34    1      5.80      5.78
   -9   34    1     -2.35     -6.86
   25   34    1     -0.79     -5.00
  -24   35    1      4.12     -4.01
  -22   35    1     -0.29      6.07
  -20   35    1     -8.39     -8.82
  -18   35    1     -3.69     -0.04
  -16   35    1     11.03     -3.46
  -14   35    1     -7.66      8.37
  -12   35    1      6.22     -7.73
  -10   35    1      2.04      7.91
   -8   35    1     24.70     29.25
   22   35    1      8.82      4.32
   24   35    1      1.18      1.29
  -21   36    1     -2.91     -3.66
  -19   36    1      3.41     -3.89
  -17   36    1     -3.14     -1.89
  -15   36    1      3.84     -8.31
  -13   36    1     -0.81     -0.83
  -11   36    1      2.11      2.01
   -9   36    1     17.22     -5.28
   -7   36    1     11.61     22.21
   21   36    1     -5.03     -6.14
  -20   37    1     -1.76      2.47
  -18   37    1     -2.32     -1.28
  -16   37    1     -1.62     -2.04
  -14   37    1     13.32      3.82
  -12   37    1      2.65     -2.94
  -10   37    1    -13.24    -14.87
   -8   37    1    -10.59     -7.23
   20   37    1      4.72     -0.10
  -17   38    1      7.85     -2.40
  -15   38    1      4.40      0.84
  -13   38    1      8.68     -0.21
  -11   38    1     -3.83    -15.80
   -9   38    1     -5.18      5.06
   -7   38    1     -1.44     -7.81
   17   38    1      1.13     -4.21
  -16   39    1     -2.63     -4.36
  -14   39    1     -0.62     -2.16
  -12   39    1      1.43     -1.10
  -10   39    1      1.52      3.21
   -8   39    1      6.11     -7.74
   -6   39    1      6.65     25.71
   14   39    1     -1.09      3.14
   16   39    1     -0.21     -1.13
  -13   40    1      0.79     -5.42
  -11   40    1     -0.31      4.24
   -9   40    1     -3.26     -2.53
   -7   40    1      5.90      3.20
   -5   40    1      0.41     -2.32
   11   40    1     -1.20      0.93
   13   40    1      1.20      0.56
  -10   41    1     -1.95      0.52
   -8   41    1      4.75      0.55
   -6   41    1      2.57    -17.29
   -4   41    1     -6.17      2.43
    4   41    1      2.93      0.67
    6   41    1     11.41      8.36
    8   41    1      0.79     -1.27
   10   41    1      3.47     -8.01
    0    0    2     -2.43    352.99
    1    1    2    -36.49    176.11
    0    2    2    -26.72     14.86
    2    2    2     47.63   -361.25
   -1    3    2    -31.08    157.76
    1    3    2     36.73    104.08
   -2    4    2     -5.45    -43.31
    2    4    2    -23.04    -23.74
    1    5    2     26.46     11.19
    3    5    2     53.36    -23.51
    2    6    2     36.22    -14.87
    1    7    2    -49.78     42.47
    3    7    2    -17.09    -12.08
    2    8    2     21.00     15.93
    4    8    2     -1.33    -15.95
    3    9    2      5.06    -22.98
    5    9    2     25.48     33.28
    2   10    2    -12.38      6.92
    4   10    2     10.30     -4.77
    6   10    2    -14.24     26.53
    3   11    2     30.31    -10.70
    5   11    2    -31.50      3.21
    2   12    2    -38.78     33.74
    4   12    2     17.74      2.34
    6   12    2      5.84      4.30
    3   13    2     -2.18     -1.56
    5   13    2     26.86      1.52
    7   13    2     22.65     12.58
    4   14    2      3.50    -17.86
    6   14    2      7.13     15.03
    8   14    2     16.80      2.29
    3   15    2      1.83      7.39
    5   15    2     26.48     -2.97
    7   15    2     -0.62      3.56
    4   16    2     13.19    -11.68
    6   16    2     -2.33      8.27
    8   16    2     -0.69    -10.66
    5   17    2     -2.29      0.87
    7   17    2      3.99      6.01
    6   18    2      8.67     -0.87
    8   18    2      2.97     11.49
    5   19    2      1.58      6.08
    7   19    2     -0.50      1.66
    9   19    2     14.31     14.23
    6   20    2      6.20    -11.21
    8   20    2      2.57     -9.19
    7   21    2    -24.58      4.47
    9   21    2      1.06     -7.23
    8   22    2     -2.57     -4.32
    9   23    2      2.88     -2.92
  -10   24    2      9.22    -19.22
  -11   25    2     -7.01      9.07
    9   25    2    -13.31      4.33
  -12   26    2      3.83     14.32
  -10   26    2     14.14     26.59
  -13   27    2      0.21      8.60
  -11   27    2     -1.99      3.10
  -14   28    2     12.56     -5.46
  -12   28    2    -16.48     -1.92
  -10   28    2     13.47     -0.09
  -15   29    2      3.84     -2.53
  -13   29    2      2.18     -1.28
  -11   29    2     -2.30     26.55
  -18   30    2     -2.55     -1.08
  -16   30    2      2.48     10.02
  -14   30    2     10.45     -4.02
  -12   30    2      3.09      5.82
  -10   30    2     -0.96    -22.50
  -27   31    2     13.49     -6.90
  -19   31    2      8.00     -0.76
  -17   31    2     -0.99     11.39
  -15   31    2     -1.86     11.71
  -13   31    2     -8.60     -5.50
  -11   31    2     -0.96    -15.34
   -9   31    2     -2.90      3.11
   27   31    2     -8.10      6.43
  -26   32    2      2.84      1.27
  -22   32    2      1.68      6.62
  -20   32    2     -0.80     13.05
  -18   32    2     -1.44      8.84
  -16   32    2     -5.14     -2.07
  -14   32    2     -3.39      2.45
  -12   32    2     -0.74     -5.73
  -10   32    2      2.98     34.58
   26   32    2     -6.53      0.62
  -25   33    2     -0.36     -3.29
  -23   33    2      5.26     -4.48
  -21   33    2      3.72     13.12
  -19   33    2     -2.83     -5.51
  -17   33    2    -10.61      7.36
  -15   33    2      1.39      3.51
  -13   33    2     -6.00     11.51
  -11   33    2     -9.92      1.88
   -9   33    2     -7.03     20.14
   25   33    2     -3.56      3.36
  -24   34    2      2.63      0.41
  -22   34    2      0.67      1.61
  -20   34    2     -5.87     -3.00
  -18   34    2      3.78      5.44
  -16   34    2     -6.96     -5.84
  -14   34    2      6.85      0.55
  -12   34    2      2.55     -9.26
  -10   34    2      6.55     -2.12
   -8   34    2     -4.99     -6.24
   24   34    2     -1.44     10.33
  -23   35    2      1.09      1.23
  -21   35    2     -4.85     -4.85
  -19   35    2      2.88      2.00
  -17   35    2      2.59     -3.07
  -15   35    2     -6.09     -5.38
  -13   35    2     -4.94      6.07
  -11   35    2     11.36     10.39
   -9   35    2     -6.29     16.91
   23   35    2     -7.34      2.70
  -22   36    2     -2.86      1.76
  -20   36    2      2.35      6.09
  -18   36    2     -2.61     -7.37
  -16   36    2      3.59      1.10
  -14   36    2      0.40      6.92
  -12   36    2      2.00      2.83
  -10   36    2     -4.13     -1.15
   -8   36    2    -11.58    -30.28
   20   36    2     -1.00     10.49
   22   36    2     -2.77     -1.71
  -19   37    2      1.29     -0.11
  -17   37    2      0.29      6.31
  -15   37    2     -1.91     -4.48
  -13   37    2     -0.42      8.97
  -11   37    2     -1.71      2.50
   -9   37    2      1.15     -0.51
   -7   37    2     -9.19     24.47
   19   37    2      4.33      1.75
  -18   38    2      1.56      2.04
  -16   38    2      6.73     -7.08
  -14   38    2     -2.06     -5.63
  -12   38    2      0.57     -9.49
  -10   38    2     20.96      0.61
   -8   38    2    -13.99    -20.07
   16   38    2     -3.72      2.73
   18   38    2      0.99      6.81
  -15   39    2     11.44     -3.63
  -13   39    2     -3.73      3.28
  -11   39    2     -1.23      6.49
   -9   39    2     -4.10      4.21
   -7   39    2     -0.22    -14.87
   13   39    2      1.41     -4.22
   15   39    2     -0.64      1.78
  -14   40    2      2.17     -7.54
  -12   40    2     -2.44      3.32
  -10   40    2    -10.79     -1.82
   -8   40    2      8.19      5.66
   -6   40    2      0.18     -0.12
   10   40    2      3.97     -0.99
   12   40    2     -0.47     -3.95
   14   40    2      1.47      1.90
   -9   41    2      3.78      6.09
   -7   41    2     -4.37     15.67
   -5   41    2      3.00      6.98
   -3   41    2      4.06     -0.94
    3   41    2     -9.77     -1.12
    5   41    2     -8.68      0.62
    7   41    2     -8.47      1.27
    9   41    2      1.07     -1.32
    0    1    3    -22.31    -34.80
   -2    3    3    -83.93    -74.78
    2    3    3    -70.99    -63.01
   -1    4    3    -32.85    -72.04
    1    4    3    -26.14    -22.19
    2    5    3    -74.93    -59.27
    4    5    3    -19.36    -55.18
    1    6    3   -115.74      3.77
    2    7    3    -34.80    -47.41
    3    8    3     38.36     11.46
    2    9    3     -0.01    -29.24
    4    9    3      5.11     35.17
    3   10    3    -17.18     20.91
    5   10    3    -15.47     19.49
    2   11    3     11.59      3.27
    4   11    3    -25.77     23.26
    6   11    3      1.82    -10.41
    3   12    3     -1.72      1.36
    5   12    3     15.48      2.34
    4   13    3      8.86    -18.32
    6   13    3     10.37     -6.40
    3   14    3    -12.04      3.70
    5   14    3    -14.09     10.15
    7   14    3    -22.01     -3.89
    4   15    3    -12.14      6.09
    6   15    3    -12.71     -5.29
    5   16    3      5.70     -8.69
    7   16    3     11.44      9.77
    6   17    3     -4.90    -10.84
    8   17    3      6.33      6.17
    5   18    3      4.43    -10.66
    7   18    3     13.70      4.08
    6   19    3     -0.55     14.94
    8   19    3      9.73     -7.96
    7   20    3     -4.20     -0.68
    8   21    3      0.15      5.37
    7   22    3      2.03    -13.55
    9   22    3      7.88      8.55
    8   23    3      9.04      0.83
    9   24    3     -1.79    -16.84
  -11   26    3     -9.18     -9.06
  -12   27    3      0.93     -7.83
  -10   27    3    -15.73     20.79
  -15   28    3      6.54      1.22
  -13   28    3     13.55      4.12
  -11   28    3     -4.25      7.79
  -16   29    3      8.17     -4.58
  -14   29    3     -8.24      4.05
  -12   29    3     10.70     -3.69
  -10   29    3     -1.43    -11.13
  -29   30    3     -2.86     -3.30
  -17   30    3     -1.70     -1.46
  -15   30    3     -9.41      9.32
  -13   30    3     12.18     -2.21
  -11   30    3     -3.76      8.94
   29   30    3     -8.14     -2.20
  -28   31    3     -1.79      1.20
  -20   31    3     14.34     10.22
  -18   31    3     -7.21      3.47
  -16   31    3      0.82    -18.31
  -14   31    3     -2.01      1.41
  -12   31    3      2.98     13.36
  -10   31    3    -19.81     -4.81
   28   31    3     -4.81     -1.31
  -27   32    3     -2.93      2.93
  -21   32    3     -1.08     -3.54
  -19   32    3      0.00     -4.42
  -17   32    3      1.30     -6.48
  -15   32    3     -1.20    -13.78
  -13   32    3      3.35    -11.30
  -11   32    3     -4.42     -9.21
   -9   32    3     11.79      2.77
   27   32    3     -2.32     -4.84
  -26   33    3      1.13     -2.33
  -24   33    3      0.10      3.14
  -22   33    3      0.18      0.86
  -20   33    3     -4.98     -1.46
  -18   33    3      1.01     -0.08
  -16   33    3     -3.95     -0.11
  -14   33    3     -7.53    -12.60
  -12   33    3      2.72    -19.17
  -10   33    3     -7.07      1.74
   26   33    3      4.36     -0.26
  -25   34    3      0.80     -1.35
  -23   34    3     -3.46      5.09
  -21   34    3      1.90      0.59
  -19   34    3      0.65      1.61
  -17   34    3     -2.52     -8.46
  -15   34    3    -12.90     -6.06
  -13   34    3     -6.45      9.94
  -11   34    3     -2.23      0.21
   -9   34    3      1.25    -19.65
   23   34    3      1.84     -4.85
   25   34    3     -5.34     -5.09
  -22   35    3     -0.82      2.02
  -20   35    3      5.04      0.51
  -18   35    3      3.83      1.48
  -16   35    3     -0.78      2.63
  -14   35    3     -2.42      6.57
  -12   35    3    -12.02     -4.49
  -10   35    3      1.86     11.46
   -8   35    3      8.18     10.54
   22   35    3      0.88      3.99
  -21   36    3      4.86     -3.11
  -19   36    3     -2.13     -5.38
  -17   36    3     -1.19      1.64
  -15   36    3      6.14     -0.69
  -13   36    3      0.68    -12.91
  -11   36    3      0.13     -7.91
   -9   36    3     -3.39     18.53
   21   36    3      0.71     -2.49
  -20   37    3     -3.81     -1.20
  -18   37    3      2.71     -0.22
  -16   37    3      1.86      4.80
  -14   37    3     -0.23     -3.22
  -12   37    3     10.20     13.40
  -10   37    3     -8.76    -11.91
   -8   37    3      5.39     -3.13
   18   37    3      1.30     -2.83
   20   37    3     -2.20      3.72
  -17   38    3      2.41      0.42
  -15   38    3      0.88      3.99
  -13   38    3     -2.68      3.98
  -11   38    3     -4.50     -0.11
   -9   38    3      1.39      9.79
   -7   38    3     -6.10    -20.23
   17   38    3     -3.39     -4.53
  -16   39    3      1.66      5.18
  -14   39    3      1.27      0.48
  -12   39    3      2.42    -12.06
  -10   39    3     -6.27      8.03
   -8   39    3    -15.89     15.41
   14   39    3     -2.86     -2.62
   16   39    3     -0.49      0.12
  -13   40    3      4.79     -5.94
  -11   40    3      0.20     -2.43
   -9   40    3    -10.17     -2.36
   -7   40    3     -5.60      2.40
   11   40    3      5.56      6.53
   13   40    3    -13.32     -9.40
  -10   41    3      2.46     -9.38
   -8   41    3     -7.65     -5.42
   -6   41    3     -2.58     -3.79
   -4   41    3     -1.57     -5.76
   -2   41    3    -18.76      2.66
    2   41    3      7.43     -0.22
    4   41    3     13.01      3.62
    6   41    3     -2.98    -11.29
    8   41    3      9.38      0.88
   10   41    3     -0.95     -2.49
    0    0    4   -481.84   -160.72
    1    1    4    134.91     36.88
   -1    3    4     95.36    -70.02
    1    3    4     51.60     66.24
    3    3    4     54.57    -18.15
    0    4    4   -195.89    -67.89
    4    4    4     -1.46    -11.89
   -1    5    4     93.33     -2.31
    1    5    4     71.80     69.06
    2    6    4     31.35     61.99
    2    8    4    -59.99     -3.66
    3    9    4     21.87     -5.54
    4   10    4     40.02     12.86
    3   11    4     -5.85    -12.32
    5   11    4    -24.41     -5.82
    4   12    4     25.44     20.80
    3   13    4      4.14     28.54
    5   13    4     -5.74      9.76
    4   14    4     -4.74    -21.02
    6   14    4    -15.78     11.45
    5   15    4     -4.98     -6.30
    6   16    4     -0.45    -17.40
    5   17    4     -0.81     -0.17
    7   17    4     -8.73     13.94
    6   18    4     -0.58     -0.43
    7   19    4     -3.28     -4.67
    8   20    4    -13.32     -1.82
    7   21    4     -2.97      4.41
    8   22    4     -0.28     10.77
  -11   25    4    -20.16      4.60
  -12   26    4     -3.36    -14.04
  -13   27    4      3.57      3.89
  -11   27    4    -13.69     -1.32
  -14   28    4      3.71      1.68
  -12   28    4     -3.69      0.77
  -15   29    4     -9.02     -2.32
  -13   29    4     -9.34      1.68
  -11   29    4    -12.51      8.07
   29   29    4      2.92     -5.87
  -28   30    4     -5.11      2.27
  -18   30    4     -7.45    -11.14
  -16   30    4     -2.03      2.85
  -14   30    4      3.10    -11.84
  -12   30    4    -10.99      1.43
  -10   30    4      5.86    -12.01
   28   30    4     -3.84      1.20
  -27   31    4      4.84      2.14
  -19   31    4     -2.56      5.95
  -17   31    4      0.36      2.65
  -15   31    4      3.92    -10.43
  -13   31    4      5.88     14.53
  -11   31    4      9.75     -5.30
   27   31    4      4.87      0.76
  -26   32    4     -1.95      0.22
  -22   32    4      3.17      4.91
  -20   32    4      3.48     -2.54
  -18   32    4    -10.71      1.46
  -16   32    4      7.10     -3.20
  -14   32    4    -11.63     -0.65
  -12   32    4      4.86     -7.30
  -10   32    4      3.75      5.69
   26   32    4     -0.68      0.80
  -25   33    4     -1.32      2.94
  -23   33    4      7.68     -1.84
  -21   33    4      0.38      3.97
  -19   33    4     -0.39     -4.50
  -17   33    4     -6.24      4.47
  -15   33    4      6.55      8.17
  -13   33    4    -10.84     11.38
  -11   33    4      8.80     17.73
   25   33    4     11.10      0.18
  -24   34    4      6.06     -0.19
  -22   34    4     -2.28     -2.07
  -20   34    4      0.67      0.27
  -18   34    4      6.05      7.22
  -16   34    4      1.05     -9.97
  -14   34    4    -13.94     -1.31
  -12   34    4     -1.29     27.85
  -10   34    4     -5.39     -6.68
   24   34    4     -1.22      2.44
  -23   35    4     -4.18     -3.54
  -21   35    4      1.98     -4.34
  -19   35    4     -3.91      7.30
  -17   35    4      1.40      2.49
  -15   35    4      7.61      5.49
  -13   35    4     -6.17      1.30
  -11   35    4     11.37     18.42
   -9   35    4     -7.71     10.01
   23   35    4      4.78      5.08
  -20   36    4     -4.45     -6.51
  -18   36    4     -5.34      3.55
  -16   36    4      5.32      3.80
  -14   36    4     -9.87      6.26
  -12   36    4      0.22    -12.37
  -10   36    4    -21.17     -9.03
   -8   36    4      0.76    -10.15
   20   36    4     -2.14     -4.93
  -19   37    4     -2.51     -2.57
  -17   37    4     -3.30     -1.01
  -15   37    4     -8.40      5.84
  -13   37    4     -3.61      3.41
  -11   37    4      7.51      2.57
   -9   37    4      8.90    -17.20
   19   37    4      0.90      3.78
  -18   38    4     -5.03      0.09
  -16   38    4     -0.58     -0.21
  -14   38    4      0.11      3.88
  -12   38    4      5.91     -5.65
  -10   38    4      1.83      1.63
   -8   38    4     -6.29      0.01
   16   38    4     -7.41     -3.89
   18   38    4     -0.43      3.78
  -15   39    4      6.40      6.36
  -13   39    4      5.42      0.70
  -11   39    4     -2.67     -4.04
   -9   39    4     -0.09     -6.72
   -7   39    4      7.88      3.72
   13   39    4      0.04     -3.78
   15   39    4     -3.08     -0.41
  -12   40    4      2.17      1.76
  -10   40    4    -11.38     -3.60
   -8   40    4     -0.58     -7.93
   10   40    4      4.20     -1.06
   12   40    4      0.41     -1.34
   -9   41    4     -0.12      6.67
   -7   41    4     -8.57     -8.13
   -5   41    4     -3.13     -2.50
   -3   41    4     21.50     -7.39
   -1   41    4     15.37     -1.25
    1   41    4      2.80      4.32
    3   41    4     -1.75      3.49
    5   41    4      1.30      2.66
    7   41    4      0.46     -3.01
    9   41    4      4.04      0.69
    0    1    5    -22.98      5.92
   -1    4    5     46.37     64.80
    1    4    5    -15.32    -62.94
    0    5    5    -37.33    -18.60
    1    6    5     27.74    -51.80
    3   10    5     -6.04    -40.22
    4   11    5    -30.83      8.71
    4   13    5     11.20      0.41
    5   14    5     -0.74      3.59
    6   15    5    -12.03      5.52
    5   16    5      5.84      5.67
    6   17    5     11.27    -16.15
    7   20    5      1.25    -11.39
  -11   26    5     -8.01     -3.22
  -12   27    5    -14.28     -1.93
  -13   28    5      7.97     22.42
  -11   28    5     16.91     12.86
  -16   29    5      0.21      1.36
  -14   29    5     15.12     -0.79
  -12   29    5     -5.90     13.67
  -29   30    5      5.46     -2.54
  -17   30    5     -0.57      3.91
  -15   30    5     -7.78      6.61
  -13   30    5     -4.60     -9.49
  -11   30    5     17.23    -13.80
   29   30    5      3.82      0.37
  -28   31    5      0.69     -5.07
  -20   31    5      1.36      6.32
  -18   31    5    -13.17     -6.29
  -16   31    5     -7.09      4.49
  -14   31    5     -2.22     10.05
  -12   31    5      2.75     11.81
  -10   31    5     -3.01     -3.51
   28   31    5      2.21     -2.91
  -27   32    5     -0.09     -0.89
  -21   32    5     -0.74     -1.34
  -19   32    5     -6.00      4.67
  -17   32    5     -9.23      3.05
  -15   32    5     -0.38     -0.67
  -13   32    5      8.43     -1.37
  -11   32    5    -25.92      7.63
   27   32    5     -3.92     -1.16
  -24   33    5     -2.01      1.48
  -22   33    5     -9.52      1.57
  -20   33    5     -2.26     -1.51
  -18   33    5      3.80     -2.51
  -16   33    5     -2.41     -0.85
  -14   33    5     -4.15    -14.76
  -12   33    5      7.03     -9.80
  -10   33    5     11.81     11.46
   24   33    5     -1.20      4.23
  -23   34    5     -0.88     -0.77
  -21   34    5     -6.83      2.51
  -19   34    5     -6.32     -2.21
  -17   34    5     -6.05     -2.41
  -15   34    5     -9.21    -11.92
  -13   34    5      2.68     -9.04
  -11   34    5    -11.19    -15.01
   23   34    5     -0.79     -2.80
  -22   35    5      5.54     -3.45
  -20   35    5     -1.99     -4.86
  -18   35    5     -5.43      0.95
  -16   35    5     -6.73      5.28
  -14   35    5     12.00     -0.40
  -12   35    5    -11.38     -2.94
  -10   35    5      0.21      1.23
   22   35    5     -3.86     -0.05
  -21   36    5     -2.35      3.01
  -19   36    5      5.06      6.99
  -17   36    5     -2.40     -1.30
  -15   36    5      5.76      1.95
  -13   36    5      5.27      2.05
  -11   36    5     15.42      6.11
   -9   36    5     -0.84    -12.77
   19   36    5      4.41      0.34
   21   36    5      9.10      1.44
  -18   37    5      5.60      2.57
  -16   37    5      2.58      2.69
  -14   37    5     11.31    -15.25
  -12   37    5     12.34     10.01
  -10   37    5      8.79     10.64
   -8   37    5    -21.94      7.67
   18   37    5     -3.29     -1.75
  -17   38    5      3.23      5.36
  -15   38    5     -1.51     -2.66
  -13   38    5     10.24     -4.04
  -11   38    5     -6.99      2.20
   -9   38    5     -6.29      6.43
   -5   38    5     11.42     -2.85
   15   38    5      7.16     -4.54
   17   38    5     -2.87     -1.50
  -14   39    5     -0.14      5.41
  -12   39    5      0.78      9.45
  -10   39    5     -5.28    -11.86
   -8   39    5     -7.27    -12.41
   12   39    5      8.80     -3.72
   14   39    5     -1.39     -7.11
  -11   40    5      5.69      7.63
   -9   40    5    -11.43     -6.27
   -7   40    5     -5.61    -11.66
    9   40    5     -4.07      3.39
   11   40    5      8.75     -2.18
   -8   41    5     -1.88     -0.32
   -6   41    5      5.59      8.84
   -4   41    5    -14.62      5.12
   -2   41    5     -0.64     15.93
    0   41    5      9.00     -3.99
    2   41    5      2.31     -7.29
    4   41    5     -5.66      3.35
    6   41    5      4.08     -2.97
    8   41    5     -1.09      6.19
    0    0    6     18.55   -103.01
    5   15    6     22.28     10.78
  -11   25    6     22.86    -17.98
  -12   26    6     -3.44      7.42
  -13   27    6      8.44     -6.07
  -11   27    6    -11.49     -4.47
  -14   28    6    -11.96      9.62
  -12   28    6      3.81    -20.87
  -15   29    6     15.57    -12.30
  -13   29    6     -4.86     13.58
  -11   29    6     -1.45     -2.07
   29   29    6      0.42     10.11
  -28   30    6     -1.02      5.49
  -18   30    6     -0.05     -2.93
  -16   30    6     -5.03     -5.81
  -14   30    6     -4.10      7.82
  -12   30    6     -0.20    -12.93
   28   30    6      4.93      3.15
  -27   31    6      1.28      4.44
  -19   31    6     -4.35     -0.46
  -17   31    6     11.28     -5.85
  -15   31    6     10.60      4.91
  -13   31    6     -7.14      2.08
  -11   31    6     23.56    -15.31
   27   31    6      8.21      0.58
  -26   32    6      4.91     -9.25
  -22   32    6      3.64    -13.34
  -20   32    6     -2.68      1.00
  -18   32    6      8.05      1.97
  -16   32    6      4.04     -7.80
  -14   32    6      7.11     -5.10
  -12   32    6    -20.93      1.05
  -10   32    6     27.06     -3.03
   26   32    6      3.96     -3.87
  -25   33    6      3.95      0.06
  -23   33    6      0.80     -1.20
  -21   33    6      2.23     -0.06
  -19   33    6     -0.98      1.31
  -17   33    6      6.35     -7.14
  -15   33    6      9.07      3.60
  -13   33    6      6.59    -14.06
  -11   33    6      0.65    -14.39
   25   33    6      0.83      5.04
  -24   34    6      3.02     -0.11
  -22   34    6      0.83      0.42
  -20   34    6      8.29      4.61
  -18   34    6     -5.67      2.12
  -16   34    6     10.19      7.71
  -14   34    6    -12.56     -9.11
  -12   34    6     -6.05     -6.36
  -10   34    6     -9.36    -17.53
   22   34    6     -1.70      6.32
   24   34    6      2.77     -3.58
  -21   35    6      1.31      5.34
  -19   35    6      2.91      2.02
  -17   35    6     -4.54      1.21
  -15   35    6     -5.81     -0.73
  -13   35    6      5.38     -3.85
  -11   35    6      1.10     -1.73
   -9   35    6     -0.12      0.09
   21   35    6     -7.24      9.46
  -20   36    6      1.42     -2.28
  -18   36    6     -4.27     -3.54
  -16   36    6    -12.81     11.16
  -14   36    6    -10.27     -7.24
  -12   36    6     -8.74      2.43
  -10   36    6      5.92      1.47
   -8   36    6      6.29     12.53
   20   36    6      1.30      1.08
  -19   37    6     -2.40     -0.63
  -17   37    6     -3.92      6.06
  -15   37    6      3.64     -0.16
  -13   37    6     -1.05     -6.26
  -11   37    6     -1.88     -1.84
   -9   37    6      0.56     -3.55
   17   37    6      6.24      4.41
   19   37    6     -5.12     -1.60
  -16   38    6     -3.62      2.31
  -14   38    6     -1.89     11.23
  -12   38    6      7.38     11.69
  -10   38    6     -4.21     -9.53
   -8   38    6    -16.70      2.90
   14   38    6      6.14      4.08
   16   38    6      4.49      0.30
  -15   39    6     -5.94      2.58
  -13   39    6     -0.07      7.29
  -11   39    6     10.22     -1.00
   -9   39    6      5.56    -12.40
   11   39    6     -0.11      1.49
   13   39    6      0.17      6.67
   15   39    6      7.06     -1.68
  -12   40    6     -1.51      2.32
  -10   40    6      7.37     -2.93
   -8   40    6      3.37      7.43
    8   40    6      6.50     -7.22
   10   40    6     -0.13      0.99
   12   40    6      1.91      3.95
   -7   41    6     -2.15    -17.66
   -5   41    6      8.41    -15.56
   -3   41    6      9.79     -6.29
   -1   41    6    -22.43      6.31
    1   41    6     -4.99     17.93
    3   41    6      2.82      5.46
    5   41    6     -1.75     -2.34
    7   41    6      1.14      5.68
  -12   27    7    -20.76     -0.27
  -15   28    7    -16.76      0.61
  -13   28    7     -7.57      0.71
  -11   28    7     10.37     -4.32
  -28   29    7     -4.65    -14.16
  -16   29    7     -7.07      9.22
  -14   29    7      8.75      1.57
  -12   29    7      0.71     -3.08
   28   29    7     -3.38     -5.71
  -27   30    7      0.42     -4.11
  -17   30    7     -4.61      0.33
  -15   30    7      8.84     -6.61
  -13   30    7     11.06    -11.12
  -11   30    7    -19.09     10.80
   27   30    7     -1.76      3.80
  -26   31    7     -5.50      3.35
  -20   31    7     -3.18     -3.43
  -18   31    7      6.23     -2.74
  -16   31    7     -1.53     -5.69
  -14   31    7    -14.26     -5.47
  -12   31    7      9.77     -3.85
   26   31    7     -7.30     10.08
  -25   32    7      2.27      3.52
  -21   32    7      7.37     10.40
  -19   32    7     -0.14      0.36
  -17   32    7     -1.73      3.91
  -15   32    7     -8.77     -0.39
  -13   32    7      0.89     -5.89
  -11   32    7     -3.87      8.16
   25   32    7     -0.58      8.10
  -24   33    7     -4.37     -7.33
  -22   33    7      5.31      2.85
  -20   33    7      2.90     -7.86
  -18   33    7     -3.36      0.15
  -16   33    7     -0.76     -0.70
  -14   33    7     14.17     -7.39
  -12   33    7      3.09      3.00
  -10   33    7    -21.70      6.48
   24   33    7     -6.24      2.43
  -23   34    7      2.52     -8.35
  -21   34    7      5.40     -6.45
  -19   34    7     -4.49     -4.80
  -17   34    7      4.43     -0.17
  -15   34    7      1.17     -1.61
  -13   34    7      4.46      7.71
  -11   34    7      9.70     -9.76
   23   34    7     -5.57     -1.33
  -22   35    7      2.84     -4.23
  -20   35    7      3.20     -0.30
  -18   35    7      0.07     -5.36
  -16   35    7     -7.81    -11.70
  -14   35    7     -1.71      0.28
  -12   35    7     10.73     -4.76
  -10   35    7     -6.96      6.21
   20   35    7      0.35      3.31
   22   35    7    -11.05     -6.28
  -19   36    7     -2.04      7.32
  -17   36    7     -2.42     -0.94
  -15   36    7      6.90     -2.51
  -13   36    7     -6.02      5.43
  -11   36    7     -8.92      3.42
   -9   36    7      3.64     -9.58
   19   36    7      1.65      3.26
  -18   37    7     -2.21     -2.22
  -16   37    7      6.56     -4.82
  -14   37    7     11.82     15.28
  -12   37    7      2.34      1.60
  -10   37    7     -2.73     -4.63
   16   37    7     -8.80     -1.37
   18   37    7     -1.17      2.39
  -15   38    7     -2.72      3.51
  -13   38    7     13.64      3.66
  -11   38    7     -7.52      1.93
   -9   38    7     -1.11    -12.32
   15   38    7     -2.33     -3.23
  -14   39    7      2.32     -3.36
  -12   39    7    -10.19      3.00
  -10   39    7      7.40      5.08
   -8   39    7     18.30    -17.28
   10   39    7      4.68      4.48
   12   39    7      2.79    -10.17
   14   39    7     -0.89     -0.95
  -11   40    7     -3.52     -1.16
   -9   40    7     -2.28     -9.90
   -7   40    7      8.41     -6.02
   -5   40    7     -5.90     -8.51
    5   40    7     -2.66     12.84
    7   40    7     -8.33     -4.60
    9   40    7      3.49     13.17
   11   40    7      0.24     -6.27
   -6   41    7      4.98      5.77
   -4   41    7     -2.45      0.01
   -2   41    7     15.43     -0.90
    0   41    7     -1.43      7.11
    2   41    7     -2.98     -0.99
    4   41    7     -1.55     -7.88
    6   41    7     -4.81     -0.74
    0    0    8    108.81     82.31
    0    4    8     66.23     30.20
  -12   26    8     -0.21      8.64
  -13   27    8      2.43      3.00
  -14   28    8     -9.55      1.45
  -12   28    8     -9.96      5.56
  -15   29    8     -5.46     -9.64
  -13   29    8    -15.66    -12.26
  -11   29    8      9.50      5.52
   29   29    8     -2.88      5.34
  -28   30    8      3.73      4.42
  -18   30    8      4.20     -5.53
  -16   30    8     -1.23      7.28
  -14   30    8     -4.69     -1.00
  -12   30    8     12.98      9.24
   28   30    8     -0.05     -0.42
  -27   31    8     -3.39      4.57
  -19   31    8      0.80     -8.03
  -17   31    8     -7.20     -2.54
  -15   31    8     -1.89     -3.15
  -13   31    8     -6.86      3.09
  -11   31    8      8.24     -6.70
   27   31    8     -2.15     -0.69
  -26   32    8      3.74     -4.63
  -24   32    8      1.86     -0.05
  -22   32    8     -3.15      7.52
  -20   32    8     -3.11     -5.26
  -18   32    8     -3.24      6.48
  -16   32    8     -4.52     -0.27
  -14   32    8      3.58      1.76
  -12   32    8     -8.46      7.40
   24   32    8    -11.94     -3.83
   26   32    8     -3.23     -7.64
  -23   33    8     -2.43     13.36
  -21   33    8      4.66     -0.39
  -19   33    8     -6.80      2.27
  -17   33    8     -1.34      3.74
  -15   33    8     -7.59     -5.80
  -13   33    8      4.54     -6.18
  -11   33    8     19.74      6.56
   23   33    8     -0.86      0.53
  -22   34    8      3.12      5.22
  -20   34    8      3.25      7.84
  -18   34    8     -3.56     -2.57
  -16   34    8     -6.67      3.27
  -14   34    8      4.93     10.02
  -12   34    8     -2.05      5.58
  -10   34    8     22.58     -8.55
   22   34    8      1.97      4.93
  -21   35    8     -2.86      7.07
  -19   35    8      2.57     -5.77
  -17   35    8     -2.11     -3.84
  -15   35    8      2.80     -3.98
  -13   35    8      2.87     -8.65
  -11   35    8     -3.32     -3.17
   21   35    8     10.28      6.56
  -20   36    8     -1.61     -2.89
  -18   36    8     -2.41     -5.70
  -16   36    8     -0.83     -0.86
  -14   36    8      6.33     -8.06
  -12   36    8     11.22     11.65
  -10   36    8     21.54      2.82
   18   36    8      4.45     -0.40
   20   36    8      1.41     12.76
  -17   37    8     -1.30     -1.88
  -15   37    8      1.81     -0.88
  -13   37    8      9.40      5.10
  -11   37    8     16.90     -5.56
   -9   37    8     12.36      1.28
   17   37    8      1.66      7.44
  -16   38    8     -2.88      1.32
  -14   38    8      0.20      7.99
  -12   38    8     -6.57     -0.02
  -10   38    8      9.34     -0.48
   14   38    8      1.59     -0.76
   16   38    8      7.35      2.01
  -13   39    8     -8.78      5.72
  -11   39    8      1.47      3.34
   -9   39    8     -9.05     -5.72
    9   39    8     -7.78     -4.87
   11   39    8      2.00      1.97
   13   39    8      1.80      5.02
  -10   40    8     10.97      3.52
   -8   40    8     -6.93     -7.40
   -6   40    8      4.08    -17.74
   -4   40    8      0.42    -10.49
   -2   40    8     -1.59     -0.23
    0   40    8    -15.00    -20.97
    2   40    8     13.41     22.41
    4   40    8     -7.03      8.94
    6   40    8     -0.03     -1.60
    8   40    8     -4.05     -3.84
   10   40    8     -5.25     -0.36
   -3   41    8     -7.87      1.62
   -1   41    8      4.33     -8.47
    1   41    8     -6.38     -4.67
    3   41    8     -0.74     -1.73
  -13   26    9     -5.03     -6.39
  -14   27    9     -5.06     -6.15
  -12   27    9    -13.50      3.06
  -15   28    9      0.45      2.55
  -13   28    9    -13.74      0.83
  -28   29    9      3.27     -9.32
  -16   29    9    -10.50     -1.66
  -14   29    9      2.84     18.82
  -12   29    9     12.48    -14.52
   28   29    9      8.53      1.29
  -27   30    9      6.31     -6.40
  -17   30    9     -6.43     10.00
  -15   30    9     -6.76     -3.44
  -13   30    9      4.95     15.66
  -11   30    9    -20.00     11.45
   27   30    9     -4.18     -0.14
  -26   31    9     -0.29     -5.48
  -20   31    9      0.85      7.07
  -18   31    9     -2.19      8.30
  -16   31    9     -1.27     -9.44
  -14   31    9      0.20      7.89
  -12   31    9    -27.14     -2.24
   26   31    9      7.28      5.21
  -25   32    9      2.34      7.11
  -23   32    9     -3.80    -11.26
  -21   32    9      2.43     -3.65
  -19   32    9     -4.33      3.05
  -17   32    9     -4.97     -5.20
  -15   32    9      3.58      0.00
  -13   32    9      5.20     -6.38
  -11   32    9    -14.77    -13.53
   25   32    9      5.35      1.86
  -24   33    9      3.05     -1.99
  -22   33    9     -1.37     -4.36
  -20   33    9     -5.91      6.25
  -18   33    9      2.59     -7.33
  -16   33    9     -8.05     -0.43
  -14   33    9     -0.21     -1.95
  -12   33    9      6.84     -0.52
   22   33    9      5.60     -3.32
   24   33    9      5.00     -0.58
  -21   34    9     -0.27      3.90
  -19   34    9      5.20      0.21
  -17   34    9     -0.30     -7.24
  -15   34    9      2.71      2.59
  -13   34    9     -5.41     -2.94
  -11   34    9     -9.39      8.51
   21   34    9     -9.81     -2.93
  -20   35    9      0.60      5.44
  -18   35    9     -4.33     -0.86
  -16   35    9      2.88      3.20
  -14   35    9      0.32     -6.60
  -12   35    9      6.98    -17.41
  -10   35    9      1.20     -6.87
   20   35    9     -6.23     -2.62
  -19   36    9      2.63      0.66
  -17   36    9      1.65      2.29
  -15   36    9     -2.50     -5.05
  -13   36    9      8.17      1.68
  -11   36    9      5.69     12.67
   17   36    9     -2.52     -0.55
   19   36    9    -12.61     -3.83
  -16   37    9      1.56     -0.91
  -14   37    9    -10.12      3.64
  -12   37    9    -11.05     13.62
  -10   37    9      0.86     -7.54
   16   37    9      1.00      1.08
  -15   38    9      4.08      8.43
  -13   38    9     -9.62     -1.41
  -11   38    9     -9.56    -10.51
   -9   38    9     -4.57      9.88
   13   38    9     -6.38     -1.27
   15   38    9      2.59      6.46
  -12   39    9      1.87     -9.33
  -10   39    9     -7.93      8.01
   -8   39    9     -5.63     -8.34
    8   39    9     17.11      5.52
   10   39    9     -5.04      4.55
   12   39    9      2.04      4.52
   -7   40    9     -1.14      9.38
   -5   40    9     15.21     14.95
   -3   40    9      3.35      7.74
   -1   40    9      3.78     -0.86
    1   40    9    -14.12     -3.93
    3   40    9      3.40    -11.13
    5   40    9     -5.63     -1.24
    7   40    9      9.11     -1.53
  -12   26   10    -10.50    -10.50
  -13   27   10     -7.44     -7.96
  -16   28   10     11.23     -0.85
  -14   28   10      5.93     -5.24
  -12   28   10     13.58     15.58
   28   28   10     -5.82     10.51
  -27   29   10     -0.94      1.68
  -17   29   10      2.71     -5.00
  -15   29   10     12.21      6.18
  -13   29   10     -9.32      1.98
   27   29   10     -3.01      1.57
  -26   30   10     -4.75     -0.88
  -18   30   10     -7.69      2.08
  -16   30   10      7.11      5.46
  -14   30   10     -4.37     -0.69
  -12   30   10     13.23     17.78
   26   30   10      0.00     -1.90
  -25   31   10     -3.77     -5.43
  -21   31   10      4.50      7.92
  -19   31   10     -1.99     -2.70
  -17   31   10      1.27      6.07
  -15   31   10     -3.14     -0.01
  -13   31   10      5.68    -14.88
  -11   31   10     -2.68     -6.85
   25   31   10      3.21      1.68
  -24   32   10     -2.18      1.98
  -22   32   10     10.38     -0.70
  -20   32   10      0.55      1.62
  -18   32   10     -1.37     -0.86
  -16   32   10      6.03      2.05
  -14   32   10      5.96      2.03
  -12   32   10     -7.29    -11.28
   24   32   10     -3.02      3.14
  -23   33   10      0.96      1.85
  -21   33   10      3.00      4.77
  -19   33   10      4.96      5.50
  -17   33   10     -1.95      0.99
  -15   33   10    -12.91     -6.43
  -13   33   10     -8.46      8.20
  -11   33   10     10.78      3.54
   23   33   10      7.49     -5.00
  -22   34   10      0.19      3.81
  -20   34   10     -8.02     -0.93
  -18   34   10      4.47      5.62
  -16   34   10     -2.20     -3.10
  -14   34   10     -5.10     -5.04
  -12   34   10     14.55    -19.83
  -10   34   10     -6.03     18.86
   20   34   10      7.06     -2.72
   22   34   10     -0.67     -1.73
  -19   35   10     -1.45      0.29
  -17   35   10     -1.51     -2.82
  -15   35   10      2.74     -9.93
  -13   35   10    -16.24     10.69
  -11   35   10     -2.07    -18.13
   19   35   10      0.54      0.06
  -18   36   10      5.01      1.13
  -16   36   10      2.99    -14.28
  -14   36   10      2.40     15.13
  -12   36   10     -8.92      5.09
  -10   36   10      2.33      7.59
   16   36   10      0.20      4.85
   18   36   10      6.03     -6.14
  -15   37   10     -7.64      4.40
  -13   37   10     -4.45     -1.56
  -11   37   10     -4.92     16.96
   -9   37   10    -27.19     14.40
   13   37   10      6.45      2.60
   15   37   10    -11.01     -0.47
  -14   38   10     -2.39      3.41
  -12   38   10      0.85     -3.61
  -10   38   10      4.20     -0.89
   10   38   10      4.62    -12.71
   12   38   10      4.44      0.16
   14   38   10     -1.24     -3.32
  -11   39   10      3.25      1.63
   -9   39   10     15.74    -13.49
   -7   39   10      0.97     -4.72
   -5   39   10     -0.43     10.68
    5   39   10     -1.25     -0.55
    7   39   10    -10.97     -2.43
    9   39   10     13.40     -4.54
   11   39   10     -6.70     -1.93
   -6   40   10     -9.82     -4.43
   -4   40   10    -11.54      7.07
   -2   40   10     12.23      3.34
    0   40   10     -7.28      8.45
    2   40   10     -2.17      0.72
    4   40   10     -0.44      1.35
    6   40   10      2.13      0.07
  -12   25   11     -1.65      5.86
  -13   26   11     -2.31      6.36
  -14   27   11      8.35      1.26
  -12   27   11      7.99     -6.39
  -27   28   11      0.16      2.59
  -15   28   11     -4.55      0.83
  -13   28   11      5.70     -0.82
   27   28   11      2.61      0.74
  -26   29   11      0.62      1.89
  -18   29   11      7.13     -8.75
  -16   29   11      1.49      2.85
  -14   29   11     -9.43      0.98
  -12   29   11    -13.80     -9.01
   26   29   11      2.40     -5.59
  -25   30   11      3.86      1.84
  -19   30   11      5.93     -4.94
  -17   30   11      3.80    -11.26
  -15   30   11     -5.43     -5.07
  -13   30   11    -12.44     -9.84
  -11   30   11      8.62     -2.77
   25   30   11      3.60     -7.57
  -24   31   11     -0.53      2.90
  -22   31   11     -4.90      3.28
  -20   31   11     -0.61      0.38
  -18   31   11     -3.13     -2.55
  -16   31   11      7.34     -2.76
  -14   31   11     -0.27     -5.24
  -12   31   11      7.79      0.32
   24   31   11     -0.01     -3.56
  -23   32   11      2.63      8.31
  -21   32   11     -5.36     -1.89
  -19   32   11      3.33     -4.61
  -17   32   11      3.98    -12.87
  -15   32   11      4.60      2.83
  -13   32   11      0.89      0.78
  -11   32   11     17.53      1.49
   23   32   11      2.54      4.88
  -22   33   11      1.88      2.80
  -20   33   11     -4.13      2.57
  -18   33   11     10.04     -2.51
  -16   33   11      4.08     -6.58
  -14   33   11     -2.28     -9.78
  -12   33   11     -1.81     12.37
   22   33   11      2.92      4.37
  -21   34   11     -0.18      0.07
  -19   34   11     -0.92      5.03
  -17   34   11     -2.46     -9.86
  -15   34   11      7.45     -7.10
  -13   34   11      1.21     -9.68
  -11   34   11      0.36     11.54
   19   34   11     -1.16      3.21
   21   34   11     -2.80      8.03
  -18   35   11     -8.14     -2.38
  -16   35   11      8.20      9.04
  -14   35   11     -0.53      8.72
  -12   35   11     10.16     16.71
  -10   35   11     -1.19     -6.92
   18   35   11     -2.15     -4.28
  -17   36   11      3.88      2.76
  -15   36   11      1.15     10.55
  -13   36   11      6.10     10.74
  -11   36   11     -6.30     15.06
   15   36   11     -8.60    -10.67
   17   36   11      4.26      3.96
  -14   37   11      0.61     -2.68
  -12   37   11    -14.49     -6.11
  -10   37   11     -8.47      5.56
   12   37   11     -4.14     -4.33
   14   37   11      0.42      2.61
  -11   38   11      3.52      1.77
   -9   38   11      9.00     -4.01
    9   38   11     -4.68     -6.95
   11   38   11     -0.23     -1.11
   -8   39   11      5.06      5.65
   -6   39   11      0.55     -0.49
   -4   39   11     -0.94     10.91
   -2   39   11      1.68    -12.04
    0   39   11     -3.98    -16.69
    2   39   11      1.05     -1.13
    4   39   11     -4.88     -4.09
    6   39   11      1.73    -13.79
    8   39   11     -7.70     -1.55
   -3   40   11     -7.74      3.20
   -1   40   11      1.72     -6.57
    1   40   11      2.12     -4.57
    3   40   11     -2.78     -0.30
    1    5   12     -3.82     21.58
    2    6   12     -7.19      4.04
  -13   25   12      1.87    -15.91
  -14   26   12     -6.76    -17.68
  -12   26   12     -6.99      1.91
  -15   27   12      1.78    -12.01
  -13   27   12    -15.84     -2.72
  -16   28   12     -0.82      5.48
  -14   28   12      4.66     -6.35
  -12   28   12     -0.96     -4.45
   28   28   12     -1.82      0.94
  -27   29   12      2.67      2.88
  -17   29   12     -4.82      5.86
  -15   29   12     -4.12     -0.49
  -13   29   12     19.84     14.24
   27   29   12     -0.44      2.73
  -24   30   12      5.42     -2.88
  -20   30   12     -3.36     -3.42
  -18   30   12      1.74      1.52
  -16   30   12     -2.93      4.07
  -14   30   12      6.35     -2.53
  -12   30   12    -23.57      3.91
   24   30   12     -2.15      7.54
  -23   31   12      6.69     -3.58
  -21   31   12      0.75     -3.66
  -19   31   12     -2.32      0.76
  -17   31   12      4.64     11.43
  -15   31   12     -7.96      6.92
  -13   31   12     10.98     -2.66
  -11   31   12      2.20     19.04
   23   31   12     -0.88      1.62
  -22   32   12     -7.19      1.74
  -20   32   12      1.05     -3.16
  -18   32   12      0.07     11.89
  -16   32   12     -9.98     -2.66
  -14   32   12      8.07      8.58
  -12   32   12      8.46     -7.90
   22   32   12     -1.50     -2.51
  -21   33   12     -7.28     -0.14
  -19   33   12     -4.06     -0.29
  -17   33   12     -2.26      5.30
  -15   33   12      6.93      8.79
  -13   33   12     -0.67     -0.17
  -11   33   12      3.70     -0.58
   21   33   12      0.97      0.02
  -20   34   12     -7.65      1.00
  -18   34   12     -4.57     -2.35
  -16   34   12      6.95      3.94
  -14   34   12      1.99    -15.28
  -12   34   12      5.01     -4.83
  -10   34   12     13.11     28.83
   18   34   12     -0.90      1.81
   20   34   12     -4.16     -8.57
  -17   35   12      1.21     -0.56
  -15   35   12      2.42     -8.76
  -13   35   12     -4.32     11.14
  -11   35   12      8.64      5.86
   17   35   12     -1.01      7.37
  -16   36   12      1.28      0.05
  -14   36   12     -9.68     -0.85
  -12   36   12      4.67     -4.72
  -10   36   12      1.02      2.99
   14   36   12      3.93     -1.97
   16   36   12      2.01      2.07
  -13   37   12     -2.81    -12.94
  -11   37   12      4.43      6.32
   -9   37   12     18.77     -7.02
   11   37   12     -6.87     -8.46
   13   37   12     -2.99     -1.67
  -10   38   12     -0.04     -0.15
   -8   38   12     -1.52      4.80
   -6   38   12     -2.67      2.55
    6   38   12     -2.76     13.81
    8   38   12      3.48      1.56
   10   38   12     -2.58      4.28
   -7   39   12     -8.35      5.02
   -5   39   12     -7.37     -5.19
   -3   39   12     -7.34    -24.05
   -1   39   12      6.94      7.22
    1   39   12    -12.23     -2.74
    3   39   12      5.96     -0.88
    5   39   12      1.57      8.16
    7   39   12      7.36      4.71
    2    5   13     11.28     18.08
    3    6   13      4.61     -7.63
    2    7   13    -24.98      0.79
    4    7   13     -3.48     -6.27
    7    8   13     -3.86     10.61
  -12   25   13    -17.33     -9.83
  -13   26   13      8.00    -10.92
  -16   27   13      1.69     -4.38
  -14   27   13      6.01      3.62
  -12   27   13     10.81      3.14
  -27   28   13      1.60      3.54
  -17   28   13     -5.63    -11.89
  -15   28   13      0.39     -0.95
  -13   28   13     -6.42     19.85
   27   28   13      0.07     -6.12
  -26   29   13      8.71      3.81
  -18   29   13     -0.87     -5.95
  -16   29   13     -2.75     -3.53
  -14   29   13     -7.48      1.71
  -12   29   13     10.41      0.85
   26   29   13      1.61      3.49
  -25   30   13      9.46      6.38
  -23   30   13     -4.72      3.64
  -21   30   13      4.41     -1.24
  -19   30   13     -9.57      5.27
  -17   30   13      0.12     -2.06
  -15   30   13      7.00     -1.44
  -13   30   13      8.92     -4.53
  -11   30   13      4.87      4.04
   23   30   13     -6.72     -5.18
   25   30   13      6.93      1.16
  -22   31   13      6.36      2.82
  -20   31   13      4.01     11.62
  -18   31   13     -8.08     -2.94
  -16   31   13      1.09      0.14
  -14   31   13     -2.14     -7.91
  -12   31   13     13.54      4.77
   22   31   13      1.13     -3.97
  -21   32   13      1.48      3.68
  -19   32   13     -2.70      4.87
  -17   32   13     -5.74      1.70
  -15   32   13    -10.50      3.17
  -13   32   13      0.95     -1.75
  -11   32   13     25.85      8.11
   21   32   13      1.85     -1.63
  -20   33   13     -0.29      1.09
  -18   33   13      2.62      2.52
  -16   33   13      2.35     -2.22
  -14   33   13      6.06     -8.18
  -12   33   13     17.37      7.52
   20   33   13      0.57     -0.12
  -19   34   13     -2.75      1.68
  -17   34   13      1.16      0.48
  -15   34   13     10.05     -0.93
  -13   34   13     20.00     -5.75
  -11   34   13      4.34     -3.65
   17   34   13     -1.14      0.04
   19   34   13      5.35     -2.92
  -16   35   13     -1.58      3.35
  -14   35   13     13.23     -4.44
  -12   35   13     -3.11      1.24
  -10   35   13      9.14      4.74
   16   35   13     -2.33      0.40
  -15   36   13    -14.67     -3.13
  -13   36   13      2.48      1.55
  -11   36   13     -4.44     -8.98
   13   36   13     15.66      5.67
   15   36   13     -2.60     -6.49
  -12   37   13      0.90     -4.73
  -10   37   13     -3.54      2.82
   -8   37   13     10.45      6.24
    8   37   13     10.23    -11.67
   10   37   13     -1.93      0.66
   12   37   13     15.52     -6.83
   -9   38   13      5.93      0.23
   -7   38   13     11.02     -2.00
   -5   38   13      1.06     11.07
   -3   38   13     20.92      6.55
   -1   38   13    -18.59     -4.27
    1   38   13      1.91    -10.31
    3   38   13     17.02     -3.01
    5   38   13      1.63     -7.20
    7   38   13     13.93     -0.95
    9   38   13      1.90     -5.98
   -2   39   13      5.10     -4.63
    0   39   13     -8.12     -6.42
    2   39   13      3.53      4.53
    2    6   14    -18.31      5.28
    3    7   14      5.62      4.51
    5    7   14    -13.93     -9.81
    2    8   14      1.04     -0.10
    4    8   14      5.71    -10.14
    6    8   14      6.57     22.57
    7    9   14      0.90     -7.75
    9    9   14     -0.14      8.09
   10   10   14     -6.57     21.18
  -12   24   14     -4.53     -0.37
  -13   25   14    -12.43      2.29
  -14   26   14     -0.84     -3.02
  -12   26   14    -15.73     -4.88
  -15   27   14      1.10     -8.50
  -13   27   14      3.02      9.70
   27   27   14     -3.41      3.81
  -26   28   14     -3.75     -0.72
  -18   28   14     -9.94      7.53
  -16   28   14      0.99     -9.14
  -14   28   14      8.53      2.28
  -12   28   14    -15.54    -11.45
   26   28   14      3.58      5.07
  -25   29   14     -2.02     -2.34
  -19   29   14      1.55      3.46
  -17   29   14     13.29      3.00
  -15   29   14     -0.46     -1.04
  -13   29   14      0.35     -4.97
  -11   29   14      3.10     12.53
   25   29   14      0.54     12.65
  -24   30   14     -0.73      3.56
  -22   30   14      9.36     -2.74
  -20   30   14     -9.57     -5.22
  -18   30   14     12.22     -0.75
  -16   30   14     -2.88      7.89
  -14   30   14     -0.18      9.45
  -12   30   14     13.14      2.40
   24   30   14      5.38     -4.15
  -23   31   14      9.66     -4.20
  -21   31   14     -9.64     -1.52
  -19   31   14      1.22     -3.16
  -17   31   14     -7.08     -1.22
  -15   31   14     14.71      0.34
  -13   31   14      8.18      4.53
  -11   31   14      3.89     -3.66
   21   31   14      0.93      2.71
   23   31   14      8.04     -0.48
  -20   32   14      2.22      1.02
  -18   32   14     -3.98      6.08
  -16   32   14     -0.63    -10.67
  -14   32   14     -3.30     -3.64
  -12   32   14     21.57     -0.40
   20   32   14      0.62      1.10
  -19   33   14      1.57     -0.78
  -17   33   14      5.19     -3.62
  -15   33   14      0.16     -0.42
  -13   33   14      3.34     -0.63
  -11   33   14      7.27     -9.31
   19   33   14     -5.83      2.44
  -18   34   14      5.77     -3.24
  -16   34   14     -3.60      0.64
  -14   34   14     10.08     12.85
  -12   34   14    -21.67      6.68
  -10   34   14      6.49    -11.25
   16   34   14      1.76     -2.41
   18   34   14      0.11     -5.30
  -15   35   14      1.18      2.53
  -13   35   14     11.92     -2.41
  -11   35   14    -13.77     -0.81
   13   35   14    -11.56     -0.13
   15   35   14     -0.33      8.13
  -14   36   14     -1.80     -8.63
  -12   36   14     -0.41      1.78
  -10   36   14    -26.50     -2.53
   10   36   14     -2.60     -5.67
   12   36   14     -2.09      7.74
   14   36   14     -5.62      1.47
  -11   37   14      0.89     -6.69
   -9   37   14     -1.36      6.22
   -7   37   14     -3.94     -7.93
   -5   37   14      4.13     -1.51
    5   37   14    -10.29      1.91
    7   37   14      2.17     -2.86
    9   37   14     -2.05      1.61
   11   37   14     -0.30      5.05
   -6   38   14      9.43     -6.10
   -4   38   14     -1.60     11.87
   -2   38   14      5.33    -13.74
    0   38   14     -4.30      9.10
    2   38   14    -15.34      0.03
    4   38   14     -7.48      4.82
    6   38   14     -1.98     -1.02
    2    5   15     -2.86     13.66
    3    6   15     -3.74    -16.11
    4    7   15     16.15     -2.42
    3    8   15     17.69     -7.79
    5    8   15     -1.62    -14.55
    7    8   15      2.78     10.67
    4    9   15     18.96      2.48
    6    9   15      3.61    -11.90
    8    9   15     -1.11     18.56
    5   10   15      5.05     -4.31
    7   10   15      4.72      3.95
    9   10   15     22.13     11.31
    8   11   15      3.60      1.43
   10   11   15      3.26      3.44
   11   12   15      4.74     -7.70
  -12   23   15     -5.96     -9.33
  -13   24   15     -3.77    -11.09
  -14   25   15     -4.36     -5.69
  -12   25   15     15.98     -4.73
  -15   26   15     -6.30     11.14
  -13   26   15      7.41     -2.67
  -26   27   15     -3.30      0.88
  -16   27   15     13.93     14.85
  -14   27   15    -12.79      5.14
  -12   27   15     12.34    -27.74
   26   27   15     -3.53    -11.44
  -25   28   15      2.53      2.68
  -19   28   15      6.13      4.61
  -17   28   15      6.28     -6.11
  -15   28   15     11.03     -4.27
  -13   28   15     -2.21     -7.00
  -11   28   15    -23.10     11.98
   25   28   15      0.91     -4.82
  -24   29   15      0.09     -1.21
  -20   29   15      3.27      1.80
  -18   29   15     -1.44     -1.99
  -16   29   15     -9.88     -3.45
  -14   29   15      4.72    -13.44
  -12   29   15     -1.17      7.84
   24   29   15      1.47      0.52
  -23   30   15     -2.87      7.35
  -21   30   15      3.82     -5.62
  -19   30   15      2.76     -4.40
  -17   30   15     -2.58      4.17
  -15   30   15     -9.62      8.51
  -13   30   15     -6.31    -11.45
  -11   30   15      0.92    -14.35
   21   30   15      3.13     -1.01
   23   30   15     -1.16      5.76
  -22   31   15     -0.75     -1.50
  -20   31   15     -2.96     -5.93
  -18   31   15      0.33     -5.79
  -16   31   15     -1.29     -7.60
  -14   31   15     14.17     -8.73
  -12   31   15    -26.67     13.69
   20   31   15     -2.18     -1.69
   22   31   15      2.06     10.16
  -19   32   15     -7.53     -5.81
  -17   32   15      4.27     -1.11
  -15   32   15      9.28    -19.38
  -13   32   15      0.35      8.17
  -11   32   15     -3.66      6.38
   19   32   15      4.75     -6.08
  -18   33   15     -4.91     -3.58
  -16   33   15      5.66     -0.21
  -14   33   15     -1.89     -8.90
  -12   33   15      5.29     -7.85
  -10   33   15      4.21     19.25
   16   33   15      2.17      1.18
   18   33   15      3.13     -3.48
  -17   34   15      1.75      5.28
  -15   34   15      2.30     -1.46
  -13   34   15     -6.89      8.91
  -11   34   15    -19.13     -3.85
   15   34   15     -0.45     -3.65
   17   34   15      0.74     -0.01
  -14   35   15     -2.69      4.42
  -12   35   15     -8.67     -1.70
  -10   35   15     -0.51     -5.33
   12   35   15     -3.45      2.08
   14   35   15      2.89     -4.70
  -11   36   15      8.92     -5.35
   -9   36   15     -1.21     -5.78
   -7   36   15      7.78      0.97
    7   36   15      0.62     12.31
    9   36   15      1.62     -6.45
   11   36   15     -0.64      7.45
   -8   37   15     10.86     11.54
   -6   37   15    -10.70     11.58
   -4   37   15      7.76      2.05
   -2   37   15      0.74     -2.40
    0   37   15     -0.47      7.68
    2   37   15      3.51     -8.73
    4   37   15     -0.88     -6.04
    6   37   15      1.20     -0.34
    8   37   15     -4.29      4.12
   -1   38   15      5.24     -5.51
    1   38   15     -1.07     -4.42
    4    6   16      0.66    -11.91
    3    7   16      5.21      0.81
    5    7   16     -1.01    -12.02
    4    8   16     27.44     -6.06
    6    8   16    -12.46      0.28
    8    8   16     14.73    -13.51
    5    9   16      8.14    -18.56
    7    9   16     23.94     21.78
    9    9   16    -10.87     -7.44
    4   10   16     -2.46    -12.95
    6   10   16     17.95      4.63
    8   10   16      2.26     -6.30
   10   10   16      1.64      8.52
    5   11   16      4.45     -1.32
    7   11   16    -12.37      5.39
    9   11   16      1.87     -0.19
    8   12   16      3.45      9.86
   10   12   16     -4.88    -19.68
   11   13   16     -7.10      5.89
  -12   22   16     -4.10    -10.82
  -13   23   16      9.65    -17.02
  -14   24   16      8.63    -15.72
  -12   24   16     13.65    -10.18
  -15   25   16      3.78     -6.14
  -13   25   16     -6.07     -3.13
  -16   26   16     -0.44     -6.63
  -14   26   16     -2.79    -14.97
  -12   26   16      8.84      7.31
   26   26   16     -4.33      3.90
  -25   27   16      2.67      0.76
  -17   27   16      7.26     -5.45
  -15   27   16      6.67     -6.61
  -13   27   16     -9.82     -0.84
  -11   27   16      3.81     27.69
   25   27   16     -5.39      4.10
  -24   28   16      2.74      5.76
  -20   28   16      4.93     -7.03
  -18   28   16     -6.29     -3.04
  -16   28   16      4.53      6.05
  -14   28   16      8.52      4.67
  -12   28   16     -4.20      5.96
   24   28   16     -0.94      3.67
  -23   29   16      1.14     -4.34
  -21   29   16      3.25     -7.14
  -19   29   16     -0.67      2.97
  -17   29   16      0.18      1.43
  -15   29   16     -2.33      1.26
  -13   29   16      2.42     -4.21
  -11   29   16     -2.05      9.57
   23   29   16      5.82      0.95
  -22   30   16      1.73      0.58
  -20   30   16      3.47     -1.97
  -18   30   16      5.31      2.04
  -16   30   16     -2.48     -6.70
  -14   30   16    -13.73     11.88
  -12   30   16     -7.12      3.55
   20   30   16      0.18      2.97
   22   30   16      3.83     -1.58
  -19   31   16      0.04     -7.43
  -17   31   16      0.13     -9.17
  -15   31   16      4.45      3.71
  -13   31   16    -15.89     10.72
  -11   31   16    -20.79      3.21
   19   31   16     -0.59     -8.51
  -18   32   16     -5.69     -2.15
  -16   32   16      0.32     -2.14
  -14   32   16     11.88     11.44
  -12   32   16     -4.08     -1.82
   18   32   16      2.03     -3.53
  -17   33   16     -5.61     -0.18
  -15   33   16     -5.24      2.25
  -13   33   16     11.28     -1.71
   15   33   16      0.16     -0.77
   17   33   16      1.33      4.59
  -14   34   16     -2.95      3.96
  -12   34   16      6.82      8.24
   12   34   16      4.06     -3.37
   14   34   16      0.65      0.74
  -13   35   16     -0.26     -1.32
  -11   35   16      7.87     -3.95
   -9   35   16     24.66    -11.16
    9   35   16      2.30      0.28
   11   35   16      4.88     -8.88
   13   35   16      6.11     -2.92
  -10   36   16      8.76     -2.06
   -8   36   16     -2.33      3.66
   -6   36   16     14.41     -7.79
   -4   36   16    -13.63     10.19
   -2   36   16      9.64     12.88
    0   36   16     -6.92     -0.45
    2   36   16      1.81     -3.29
    4   36   16      6.36     -3.06
    6   36   16     -1.58      2.36
    8   36   16     -3.48     -2.11
   10   36   16     -5.37     -3.65
   -5   37   16     -8.36     12.03
   -3   37   16      6.67     18.89
   -1   37   16     -2.05     -6.24
    1   37   16      7.06      6.35
    3   37   16     -0.38      2.56
    5   37   16     10.63      3.15
    4    7   17      5.31      3.10
    6    7   17     -0.30     -6.51
    5    8   17     -6.99      5.27
    7    8   17     -7.02     -5.68
    4    9   17      0.96      3.29
    6    9   17     -1.96     -8.61
    8    9   17      4.69      5.19
    5   10   17      2.58    -16.46
    7   10   17     -1.89     -1.72
    9   10   17      6.89     16.16
    6   11   17     -5.73     -7.53
    8   11   17     -0.85      8.30
   10   11   17     18.13      6.67
    5   12   17     -6.04     -8.75
    7   12   17      0.07     -0.75
    9   12   17      9.49     -7.39
    6   13   17      1.98     -5.15
    8   13   17     -1.25    -15.82
   10   13   17    -12.33      0.24
    9   14   17      1.38     -9.87
   11   14   17    -12.51     -2.26
  -14   23   17      3.37     -2.38
  -15   24   17      1.20     19.88
  -16   25   17      5.74     -3.24
  -14   25   17      8.25     -4.14
  -25   26   17     -1.19     -3.78
  -17   26   17     15.93     -8.95
  -15   26   17     -8.77      3.23
   25   26   17     -0.28    -15.90
  -24   27   17     -7.65      2.27
  -18   27   17      2.57      4.53
  -16   27   17      2.71      8.00
  -14   27   17     14.33     11.64
   24   27   17      4.27     -2.12
  -23   28   17      4.53      9.96
  -21   28   17      2.43    -11.61
  -19   28   17      4.55      0.66
  -17   28   17      0.79      4.44
  -15   28   17     11.23     13.18
   23   28   17     -3.41      2.91
  -22   29   17      8.35      3.96
  -20   29   17    -10.67      4.72
  -18   29   17      2.10     -5.84
  -16   29   17     -7.79    -10.06
  -14   29   17      3.33      6.13
   20   29   17     -8.07    -10.44
   22   29   17      2.92      1.31
  -21   30   17      5.60      9.16
  -19   30   17     -4.54      2.81
  -17   30   17     -8.54     -7.78
  -15   30   17    -11.97      1.49
   19   30   17      5.45     -0.89
   21   30   17     -4.58     -2.76
  -18   31   17     -1.94      4.65
  -16   31   17     -8.25      1.14
   18   31   17     -1.34      3.53
  -17   32   17      4.37      0.25
  -15   32   17      2.55     -3.30
   15   32   17     -3.31     -5.32
   17   32   17     -3.59      3.68
  -14   33   17      5.36      6.50
   14   33   17      3.84      3.54
  -13   34   17     -4.37    -13.17
  -11   34   17      3.82      1.46
   -9   34   17    -14.63     -4.47
    9   34   17     -0.94      3.49
   11   34   17     -0.78     -5.29
   13   34   17      3.05      2.36
  -10   35   17     -9.34     -4.19
   -8   35   17     11.70     19.39
   -6   35   17      8.30      3.85
   -4   35   17      0.19     -1.01
    4   35   17     -8.42      8.64
    6   35   17     -2.21      0.21
    8   35   17      4.46     -4.33
   10   35   17      0.04     -3.40
   -5   36   17     -6.62     -6.29
   -3   36   17    -12.49     -2.20
   -1   36   17     -8.80     -3.68
    1   36   17     -6.50     -7.63
    3   36   17      5.72      3.71
    5   36   17     -3.20      2.23
    4    6   18      1.92      2.61
    5    7   18      0.60      4.40
    7    7   18    -10.07      3.69
    6    8   18      1.87     -6.10
    8    8   18     -1.75     -3.20
    5    9   18      7.28     -7.19
    7    9   18     -3.94      1.24
    9    9   18    -12.36     16.01
    6   10   18     -4.37      5.06
    8   10   18     -4.39      6.83
    5   11   18      5.90      7.69
    7   11   18     -7.82     -7.38
    9   11   18      1.40     -1.93
    6   12   18     -3.11    -18.60
    8   12   18    -13.03      0.85
   10   12   18     -8.78     13.87
    7   13   18      6.97      2.83
    9   13   18     -6.37      3.20
    6   14   18     -3.55      3.01
    8   14   18    -13.20    -11.99
   10   14   18     12.76      2.11
    7   15   18      0.93    -14.50
    9   15   18      1.34      6.33
   11   15   18     -0.49     11.09
   10   16   18    -13.21     -5.10
   11   17   18      3.87      6.20
   25   25   18      4.88      2.10
  -24   26   18      5.96     -4.36
   24   26   18      4.28      1.39
  -23   27   18     -8.43     -2.78
  -11   27   18     13.60     13.85
   23   27   18     11.30      3.78
  -22   28   18      4.80      7.80
  -20   28   18      9.57     -1.29
  -16   28   18    -21.91     -0.97
   20   28   18      1.29     -4.70
   22   28   18      2.00     -8.02
  -21   29   18     -7.71      1.44
  -19   29   18      7.87     -3.44
   19   29   18     -2.07     -0.95
   21   29   18     -0.94     -1.39
  -18   30   18     -9.57      7.29
   18   30   18      4.15     11.44
  -17   31   18      6.56     -3.89
  -15   31   18     -5.15     -8.68
   15   31   18      0.47      1.64
   17   31   18      6.97      1.11
  -16   32   18      1.53      5.75
  -14   32   18    -14.02     -4.56
   14   32   18      2.94      4.98
   16   32   18      4.53     -0.31
  -13   33   18     -8.62      6.28
  -11   33   18      4.52      0.60
   11   33   18     -0.86     -8.56
   13   33   18     -8.52     -1.44
  -10   34   18      3.90     -5.83
   -8   34   18     -4.45      1.19
   -6   34   18    -17.51      1.95
    6   34   18     -1.57     -0.55
    8   34   18      2.57      4.36
   10   34   18     -2.20     -0.45
   -7   35   18     -6.57     -6.35
   -5   35   18     -7.26     11.78
   -3   35   18     -1.44      7.49
   -1   35   18      3.92     -3.23
    1   35   18     -0.75     -1.12
    3   35   18     -5.78     -2.19
    5   35   18      1.63     -2.99
    7   35   18      1.78     -3.85
    5    6   19     13.07     19.35
    6    7   19     17.35      7.99
    5    8   19      4.87      9.99
    7    8   19      2.41      1.26
    6    9   19      4.17      6.08
    8    9   19     -2.82      2.08
    7   10   19      1.03     14.76
    9   10   19     -9.30      0.29
    6   11   19     -9.44     12.08
    8   11   19      2.36     19.76
    7   12   19     -3.11     -1.05
    9   12   19      7.55      3.31
    8   13   19     -3.28     -6.42
   10   13   19     -6.23     11.01
    7   14   19     -8.84     10.05
    9   14   19      1.70     -2.67
    8   15   19     -0.13      6.59
   10   15   19     19.46      1.67
    9   16   19      7.35      2.45
   11   16   19      8.55     -8.62
    8   17   19     -4.01     12.56
   10   17   19     -3.49     -6.76
   11   18   19     -4.71      0.49
  -15   22   19      7.76     18.35
  -14   23   19     -8.20     -2.68
  -24   25   19      5.89     -1.82
   24   25   19     -4.90     -6.93
  -23   26   19      5.44     -5.88
  -19   26   19     -1.92     -2.60
   23   26   19     -2.84      7.82
  -22   27   19     -0.76      2.62
  -20   27   19     -0.25      2.01
   20   27   19      3.88     -0.15
   22   27   19      0.62     11.39
  -21   28   19     -2.96      2.10
  -19   28   19     14.31      2.29
   19   28   19     -7.10      3.88
   21   28   19      6.96     13.02
  -18   29   19      0.03      2.39
   18   29   19     -2.46     -1.95
  -17   30   19     -3.86     -4.01
  -15   30   19      6.52     11.53
   15   30   19     -3.96     -6.38
   17   30   19     -3.58      8.48
  -16   31   19    -13.14      9.51
  -14   31   19      6.97     -7.23
   14   31   19     -2.32     -8.37
   16   31   19      3.46     -1.19
  -13   32   19    -13.25      2.17
  -11   32   19      4.98     12.70
   11   32   19     -1.38      8.73
   13   32   19      1.47     -5.89
  -10   33   19      1.26      8.43
   -8   33   19      5.35      1.91
   -6   33   19      6.83     -6.96
    6   33   19     -6.26     -2.20
    8   33   19     -5.56      3.78
   10   33   19     -1.35      0.64
   -7   34   19      4.52     12.88
   -5   34   19      0.81      3.78
   -3   34   19      2.05     14.87
   -1   34   19      2.90     -1.85
    1   34   19     -7.30     -2.93
    3   34   19     -3.60     -5.25
    5   34   19     -1.18     -6.19
    7   34   19      0.31     -2.35
   -2   35   19      4.94     -8.85
    0   35   19      3.34      7.16
    2   35   19     -4.85      4.63
    6    6   20     -9.53    -17.71
    7    7   20     10.81      6.47
    6    8   20     19.19    -15.46
   -7    9   20     11.11    -11.03
    7    9   20      8.91    -12.01
   -8   10   20     14.07     12.20
    6   10   20     -8.88      5.14
    8   10   20      5.55      5.30
    7   11   20      2.11      2.54
    9   11   20      6.48      2.30
    8   12   20     -6.24      7.65
    7   13   20      0.44     -0.90
    9   13   20      5.31     -6.48
    8   14   20     -0.16     -2.42
   10   14   20      5.06    -16.40
   -9   15   20     -3.77      4.26
    9   15   20      1.81      3.97
  -10   16   20    -12.15     14.66
   10   16   20     15.00     15.51
  -11   17   20     14.26     -0.86
    9   17   20      0.49      3.16
   11   17   20      6.57      7.20
  -12   18   20     -8.72     15.68
  -10   18   20     -9.36    -21.53
   10   18   20     14.66     22.35
  -13   19   20     10.78      4.40
  -11   19   20     -4.26      8.72
   11   19   20      5.74     -2.95
  -14   20   20     -0.08     -2.34
  -15   21   20      2.65     -4.27
  -16   22   20     -4.55      4.15
  -17   23   20     -3.59      5.93
  -11   23   20     -0.31     14.59
  -18   24   20     -4.52      7.09
  -10   24   20     12.86      6.42
   24   24   20      4.44     -6.89
  -23   25   20      5.05      0.60
  -21   25   20     -1.52     -2.46
  -19   25   20      2.59     -2.33
  -17   25   20     -2.72     -2.07
   21   25   20     -8.12     -4.20
   23   25   20      0.27      0.55
  -22   26   20      0.16     -0.03
  -20   26   20     -2.95     -7.86
   20   26   20     -2.63     -3.30
   22   26   20     -2.26      4.51
  -19   27   20     -9.85      3.38
   19   27   20      4.29      0.52
  -18   28   20     -8.08      1.29
   18   28   20      3.14     -3.32
  -17   29   20     -6.91     -4.54
  -15   29   20      1.03      3.29
   15   29   20     -7.16      3.95
   17   29   20      3.30     -6.30
  -16   30   20      3.22     10.99
  -14   30   20      9.40     -3.80
   14   30   20      0.30      5.89
   16   30   20     -2.82     -4.09
  -13   31   20     13.69      0.92
  -11   31   20     -0.05      4.11
   11   31   20      0.66      1.43
   13   31   20     -5.02      8.82
  -12   32   20     -1.00     -0.37
  -10   32   20      0.61      9.01
   -8   32   20     -8.24      4.56
    8   32   20      1.58     -3.96
   10   32   20     -0.75     -3.85
   12   32   20     -2.00      0.83
   -7   33   20      7.69     -0.39
   -5   33   20      2.27     -1.55
   -3   33   20      2.35     -4.16
   -1   33   20     -1.67     -6.77
    1   33   20      0.00     -5.17
    3   33   20      1.37      1.39
    5   33   20      0.51      2.57
    7   33   20      0.57      4.15
   -2   34   20     -7.35      2.51
    0   34   20      1.06     -0.26
    2   34   20      1.82     -5.93
   -5    6   21    -10.84      1.97
   -6    7   21    -10.82      2.07
   -7    8   21    -11.21      6.68
    7    8   21      4.56      3.62
   -7   10   21    -10.92     -2.49
    7   10   21     -4.01      1.36
   -8   11   21      6.05     -5.54
    8   11   21     -7.20     -0.76
   -9   12   21     -2.34      2.07
    9   12   21     -4.87     16.03
   -8   13   21      0.62     -3.53
    8   13   21     12.21     -0.33
   -9   14   21     -7.16     -9.95
    9   14   21     -6.40     13.68
  -10   15   21     13.47    -12.75
   10   15   21    -10.85     25.25
  -11   16   21    -17.33     -1.53
   -9   16   21      0.60     -0.45
  -12   17   21      8.44     -4.47
  -10   17   21     13.73     16.00
   10   17   21      0.36      1.83
  -13   18   21     -8.12    -10.87
  -11   18   21     10.73      4.99
  -14   19   21     -4.73      3.82
  -12   19   21     -2.05    -15.39
  -10   19   21      8.11     -9.18
  -15   20   21     -3.49     -5.75
  -13   20   21     -7.25      6.76
  -11   20   21      1.74      9.71
  -16   21   21    -11.28      4.18
  -14   21   21     -1.20    -10.25
  -12   21   21     -2.54     -0.96
  -10   21   21     13.80     -1.48
  -17   22   21      1.23     -5.41
  -15   22   21     -0.19     11.52
  -13   22   21     -4.07     -8.16
  -22   23   21     -2.34      2.84
  -18   23   21      1.17      3.60
  -16   23   21      7.36     -0.73
  -14   23   21     -8.61     12.31
   22   23   21      3.33      7.16
  -21   24   21     -6.59     -5.49
  -19   24   21      6.05      7.59
  -17   24   21      2.02      2.25
  -15   24   21      5.15      1.18
   21   24   21      5.69     -2.86
  -20   25   21      2.85     -0.89
  -18   25   21     -5.99     -2.52
  -16   25   21     -0.09      9.46
   20   25   21     11.93     -3.19
  -19   26   21      1.78     -2.08
  -17   26   21      0.75     -8.10
   19   26   21     -3.06     -3.26
  -18   27   21      6.92    -10.74
  -16   27   21      4.14      4.09
   18   27   21     -5.99     -3.70
  -17   28   21      8.74     -3.03
  -15   28   21     13.25      3.03
   15   28   21     -4.24      6.03
   17   28   21     -2.55     -0.92
  -16   29   21      6.17      0.26
  -14   29   21      7.47     -0.60
   14   29   21     -3.70      4.59
   16   29   21     -1.80      4.85
  -13   30   21     -1.70      2.44
  -11   30   21     -9.07     -7.90
   11   30   21      4.27      1.18
   13   30   21      0.40      4.37
  -10   31   21      2.48     -3.60
   -8   31   21     -0.13      1.34
   -6   31   21      0.12      0.73
    6   31   21      6.18      0.07
    8   31   21      7.63     -0.75
   10   31   21      4.23      0.96
   -7   32   21      0.27      4.67
   -5   32   21     -4.70     -4.35
   -3   32   21      6.92      6.21
   -1   32   21      6.50     10.62
    1   32   21     10.01     -0.69
    3   32   21     -2.41      6.65
    5   32   21     -1.37     -4.33
    7   32   21      2.80     -0.59
   -2   33   21      0.87      8.89
    0   33   21     12.04      3.71
    2   33   21      6.92      3.40
   -5    7   22     -2.04     17.16
   -6    8   22     -3.18      0.65
    8    8   22    -10.75      7.79
   -7    9   22      2.42     11.45
   -8   10   22      7.22      1.57
   -9   11   22    -10.24      0.94
   -7   11   22     -7.87      1.79
    9   11   22     -0.81      7.73
  -10   12   22     -2.05    -11.35
   -8   12   22    -11.97     -0.29
   -9   13   22    -12.38    -10.35
    9   13   22      0.57     -3.19
  -10   14   22     -5.53     13.76
   -8   14   22     -0.37     -0.32
  -11   15   22    -11.85     -7.10
   -9   15   22     12.01     23.80
  -12   16   22     -7.15      3.71
  -10   16   22    -16.60     -7.65
  -13   17   22     -9.84      2.75
  -11   17   22     -6.04     -4.08
   -9   17   22     -9.25     -6.25
  -14   18   22      4.59     -0.70
  -12   18   22    -20.45      5.77
  -10   18   22      4.03      8.11
  -15   19   22     -4.80    -12.14
  -13   19   22      9.60      7.54
  -11   19   22     -3.21      0.64
   -9   19   22     -1.71     12.34
  -16   20   22      2.49     -4.39
  -14   20   22      5.04     -3.86
  -12   20   22      7.64     10.11
  -10   20   22     -7.49     -2.56
  -17   21   22    -17.76     -4.18
  -15   21   22     13.99     13.62
  -13   21   22      2.56    -12.16
  -11   21   22    -12.47     -5.88
   -9   21   22      1.66     11.48
  -18   22   22      5.68     -3.17
  -16   22   22     -0.53      1.12
  -14   22   22      5.91      8.48
  -12   22   22      2.27      3.50
  -10   22   22     -6.56      2.79
   22   22   22      1.85     -5.26
  -21   23   22     12.17     -1.93
  -19   23   22     -0.14     -5.13
  -17   23   22      0.50      0.24
  -15   23   22     -0.52      0.84
  -13   23   22     -5.43     11.42
  -11   23   22     -1.14      8.62
   -9   23   22     -9.08    -10.60
   21   23   22     -5.72     -3.58
  -20   24   22      2.16     -5.72
  -18   24   22     -3.26     -4.01
  -16   24   22      2.93     -0.11
  -14   24   22      9.52     -1.56
  -12   24   22     -3.90     -3.25
  -10   24   22     -0.09      3.75
   20   24   22      7.90     -0.85
  -19   25   22      1.08     -1.99
  -17   25   22     -1.04     -0.49
  -15   25   22     -2.96     -0.18
  -13   25   22      9.80      1.83
   19   25   22     -4.00     -4.99
  -18   26   22     -3.97     -4.45
  -16   26   22      7.26      2.66
  -14   26   22     -4.48     -1.50
   16   26   22      4.93      3.72
   18   26   22     -0.10      5.13
  -17   27   22      7.28     -4.44
  -15   27   22     -3.05     -4.26
   15   27   22      6.22     -7.19
   17   27   22      4.35      8.15
  -14   28   22      0.85     -2.27
  -12   28   22     -2.40     -9.35
   12   28   22      9.04      5.00
   14   28   22     -3.66     -1.04
  -13   29   22     -0.72     -4.96
  -11   29   22     -1.38     -1.58
   11   29   22     -2.62      7.18
   13   29   22      3.96     -2.01
  -10   30   22     14.25      1.37
   -8   30   22     -2.89      4.85
   -6   30   22      1.12     -4.42
    6   30   22     -6.58      3.04
    8   30   22      8.54      6.15
   10   30   22      1.71     -0.40
   -7   31   22     -1.19      2.92
   -5   31   22      0.23      0.09
   -3   31   22     -4.28     -1.82
   -1   31   22      4.76     -5.08
    1   31   22      1.76     -3.53
    3   31   22      5.07     -3.43
    5   31   22     -1.27      1.80
    7   31   22      0.87      5.05
   -2   32   22      6.63     -0.81
    0   32   22     -6.26      1.66
    2   32   22      5.63     -5.69
   -5    8   23     -1.23     10.11
   -8    9   23     -7.79     11.79
   -6    9   23     -8.80     -1.18
   -9   10   23      0.40     24.60
   -7   10   23    -10.97      8.88
  -10   11   23     16.44     26.63
   -8   11   23    -21.45    -16.59
  -11   12   23     17.52      8.37
   -9   12   23     -4.33     -1.39
   -7   12   23    -11.80      9.68
  -12   13   23      5.33    -17.35
  -10   13   23     -6.14     -1.39
   -8   13   23     -0.60     -3.07
  -11   14   23     -1.25      0.82
   -9   14   23     -9.36     -5.64
  -12   15   23      7.09     12.91
  -10   15   23      6.18     -8.84
   -8   15   23      5.91     -9.98
  -13   16   23     -4.99     12.10
  -11   16   23      4.25     -0.87
   -9   16   23     -0.18     16.00
  -14   17   23     -8.11      5.87
  -12   17   23     -3.69     -8.12
  -10   17   23      0.82     16.53
   -8   17   23     -4.87     -5.01
  -15   18   23      2.47      1.87
  -13   18   23     -5.60      0.92
  -11   18   23     -6.59      3.98
   -9   18   23     14.03      6.96
  -16   19   23    -11.72      1.05
  -14   19   23     -8.85      6.43
  -12   19   23      0.22     -6.33
  -10   19   23     -7.14     -3.07
  -17   20   23      5.11      1.37
  -15   20   23     -6.91      0.66
  -13   20   23     -4.40     -3.19
  -11   20   23     -3.59      0.92
   -9   20   23      6.40     30.13
  -18   21   23      0.51     -6.12
  -16   21   23     -1.13     -4.61
  -14   21   23      3.03     -4.58
  -12   21   23     -1.99     11.29
  -10   21   23      0.06     11.21
  -21   22   23     -2.82      1.90
  -19   22   23     -2.36     -0.87
  -17   22   23      5.57     -2.88
  -15   22   23     -3.91     -9.79
  -13   22   23      6.78      5.49
  -11   22   23     21.34     -1.27
   -9   22   23     -3.99      7.49
   21   22   23      2.17     -1.56
  -20   23   23     -1.90     -1.36
  -18   23   23      1.48      3.45
  -16   23   23     -1.42      1.21
  -14   23   23      2.71     -5.06
  -12   23   23      3.83    -13.73
  -10   23   23      7.13      9.72
   20   23   23     -0.60      1.83
  -19   24   23     -5.39     -2.65
  -17   24   23      0.12     -5.50
  -15   24   23     -0.95      3.07
  -13   24   23      0.17     -6.33
  -11   24   23     -8.50      4.68
   -9   24   23     -8.30     21.15
   17   24   23     -0.57     -3.14
   19   24   23      1.48      4.56
  -18   25   23      2.58     -0.70
  -16   25   23     -0.33     -3.69
  -14   25   23      6.04     -4.69
  -12   25   23    -12.48     11.03
  -10   25   23      2.02     -1.53
   16   25   23      0.29      4.50
   18   25   23      1.05     -1.09
  -15   26   23      1.39     -3.51
  -13   26   23      1.62      2.81
  -11   26   23     -0.25      2.77
   -9   26   23     -8.74     14.97
   15   26   23      1.98      5.38
  -14   27   23      3.60      4.32
  -12   27   23     -1.01     -6.95
  -10   27   23      2.92     14.43
   12   27   23      6.63      4.84
   14   27   23      2.40      6.83
  -13   28   23     -5.07      2.39
  -11   28   23     -0.42     11.14
   -9   28   23      2.35      4.12
    9   28   23      0.52      1.06
   11   28   23      3.51      4.49
   13   28   23      0.94      4.56
  -10   29   23      3.57      4.71
   -8   29   23     -1.73     -6.96
   -6   29   23      2.21      0.38
   -4   29   23     23.81     -5.61
    4   29   23      2.11     -5.94
    6   29   23      6.60     -5.78
    8   29   23     -4.90      0.71
   10   29   23      2.03     -1.04
   -7   30   23      2.32     -1.12
   -5   30   23     10.72     -0.84
   -3   30   23     12.59     -2.94
   -1   30   23     -5.82     -0.30
    1   30   23      2.89      0.93
    3   30   23     -6.12      1.63
    5   30   23      3.18     -2.17
    7   30   23     -5.28     -4.03
    0   31   23     -4.46     -2.57
    0    0   24     25.83     22.79
   -5    9   24      0.14     -5.14
   -8   10   24      8.03    -16.63
   -6   10   24     -3.01     10.39
   10   10   24     -0.36    -11.51
   -9   11   24      0.84      0.68
   -7   11   24     16.28     -6.97
   11   11   24     -3.42    -14.20
  -10   12   24      4.42     -1.56
   -8   12   24     10.55      2.09
   -6   12   24      6.60      4.98
   12   12   24     -6.89      1.08
  -11   13   24     -5.45     -0.17
   -9   13   24      9.63     -3.54
   -7   13   24      4.60     16.19
   13   13   24      5.23      7.44
  -12   14   24      4.99     -3.72
  -10   14   24     -5.67      0.95
   -8   14   24     -3.77    -14.97
  -13   15   24     -5.77    -14.78
  -11   15   24      7.87      6.64
   -9   15   24      1.47      1.27
   -7   15   24     -3.83     -8.57
  -14   16   24     14.69     -5.02
  -12   16   24      7.82      9.34
  -10   16   24     -5.55    -10.29
   -8   16   24      3.43     13.80
  -15   17   24      3.82     -7.04
  -13   17   24      3.06     -2.28
  -11   17   24      9.06      1.90
   -9   17   24     -2.35    -16.25
  -16   18   24      6.31      1.90
  -14   18   24      0.77     -2.91
  -12   18   24      6.98     -4.37
  -10   18   24     22.58     13.08
   -8   18   24      2.47     -6.05
  -17   19   24      6.24     -2.47
  -15   19   24     -1.05    -11.79
  -13   19   24      7.56     14.41
  -11   19   24     17.01     -0.46
   -9   19   24    -14.73     -6.55
   17   19   24     -4.78    -11.69
  -18   20   24     -0.26      3.50
  -16   20   24      7.66     -0.28
  -14   20   24      7.86      0.06
  -12   20   24     11.32     -6.42
  -10   20   24      5.66     -4.33
   -8   20   24      4.80    -13.72
   20   20   24     -2.67      2.83
  -19   21   24      1.21      2.57
  -17   21   24      1.21      0.31
  -15   21   24      5.40      4.11
  -13   21   24     -1.22     -5.79
  -11   21   24     -5.76      1.57
   -9   21   24     16.92     -2.20
   19   21   24     -1.72      2.66
   21   21   24     -1.21      0.59
  -20   22   24      0.11      3.72
  -18   22   24     -6.90      5.72
  -16   22   24     -1.51     -9.84
  -14   22   24     -2.00     -2.09
  -12   22   24     -1.03     12.07
  -10   22   24     -3.65      2.05
   -8   22   24     -9.54      9.08
   18   22   24      2.43     11.84
   20   22   24     -2.31      7.93
  -17   23   24     -4.82      3.42
  -15   23   24     -3.08      0.65
  -13   23   24      0.04     11.78
  -11   23   24      3.47      0.52
   -9   23   24     -1.50     -9.31
   17   23   24     -1.97     -2.70
  -16   24   24     -5.32      2.37
  -14   24   24      3.52      8.89
  -12   24   24     -3.30    -11.01
  -10   24   24     -2.17     -9.75
   -8   24   24     24.71     -9.52
   16   24   24      1.19      6.15
  -15   25   24     -1.46      0.34
  -13   25   24      2.09      0.13
  -11   25   24      7.95     -2.72
   -9   25   24     13.57    -17.61
   13   25   24     -3.28      1.53
   15   25   24     -0.25     -5.87
  -14   26   24     -6.10     -2.84
  -12   26   24     11.33      7.39
  -10   26   24      1.53     -6.29
   -8   26   24      2.22    -16.16
   12   26   24     -4.69      3.52
   14   26   24     -3.83     -4.05
  -11   27   24      1.63     -6.20
   -9   27   24      6.22      4.21
    9   27   24     -1.75     -7.24
   11   27   24     -6.40     -3.10
  -10   28   24      5.31     -1.89
   -8   28   24      5.90    -16.23
   -6   28   24      6.98    -12.23
   -4   28   24     -0.83      5.32
   -2   28   24      4.72    -26.16
    0   28   24    -11.75      2.99
    2   28   24      0.21     -7.59
    4   28   24     -0.39      6.21
    6   28   24      1.26      3.05
    8   28   24     -2.00     -0.44
   10   28   24     -4.66     -3.86
   -5   29   24      5.86     -4.46
   -3   29   24     -7.12      4.77
   -1   29   24      2.54    -16.48
    1   29   24     -7.32     -1.55
    3   29   24     -1.80      0.88
    5   29   24     -0.14      2.11
    0    1   25     -7.48      7.65
   -5   10   25     -4.20    -10.80
   -8   11   25     -7.02     -2.00
   -6   11   25      3.98    -16.93
  -11   12   25     -1.30      0.28
   -9   12   25      1.48     -5.19
   -7   12   25      3.24    -11.13
  -12   13   25      2.31    -15.22
  -10   13   25      2.89     -8.65
   -8   13   25     18.77     17.07
   -6   13   25      2.64    -34.29
  -13   14   25     -3.83      0.82
  -11   14   25     -0.45     -0.02
   -9   14   25      8.92      4.07
   -7   14   25     20.47    -11.36
   13   14   25      4.57      2.29
  -14   15   25    -18.28     -7.62
  -12   15   25      0.40     -8.84
  -10   15   25      1.66      1.39
   -8   15   25      0.56    -18.68
   14   15   25     -2.56    -14.35
  -15   16   25    -16.95     -2.36
  -13   16   25      6.47     -1.51
  -11   16   25     -2.99    -10.78
   -9   16   25     10.72      3.36
   -7   16   25      3.63     16.86
   15   16   25     -0.19      0.76
  -16   17   25      0.37     -8.35
  -14   17   25      4.14     -8.86
  -12   17   25     -2.77      7.59
  -10   17   25     -5.96     -5.61
   -8   17   25     14.57      8.42
   16   17   25     11.55     -6.77
  -17   18   25      5.65    -10.30
  -15   18   25     14.95      2.16
  -13   18   25     -6.38     -2.58
  -11   18   25     -6.98      3.98
   -9   18   25      1.48     -6.82
   -7   18   25     18.83    -11.96
   17   18   25      3.37     11.57
  -18   19   25      7.78     -3.88
  -16   19   25     -4.70      1.44
  -14   19   25      3.54      2.70
  -12   19   25     -2.21      2.52
  -10   19   25    -12.60    -13.24
   -8   19   25      3.53      5.25
   18   19   25     10.34      4.98
  -19   20   25     -4.52     -9.56
  -17   20   25     -7.33      3.85
  -15   20   25      1.29     -6.46
  -13   20   25     -0.41      1.62
  -11   20   25     18.21     -1.34
   -9   20   25      4.59      7.74
   -7   20   25     -1.01     -2.55
   19   20   25     -4.62     -2.08
  -18   21   25     -2.17     -5.81
  -16   21   25      5.04      4.33
  -14   21   25      4.76      6.39
  -12   21   25     -5.92      3.05
  -10   21   25      6.49      7.08
   -8   21   25     -5.24    -17.07
   18   21   25     -3.72     -3.31
  -17   22   25      0.93      4.19
  -15   22   25      5.17      0.69
  -13   22   25      0.58      6.52
  -11   22   25     -9.36     -2.58
   -9   22   25     -9.04    -15.58
   15   22   25     -6.06     -0.34
   17   22   25      1.01     -2.98
  -16   23   25      4.02     -3.58
  -14   23   25     -5.75      6.37
  -12   23   25      2.10     -3.72
  -10   23   25      3.47     10.53
   -8   23   25      7.05     11.43
   14   23   25      0.82      6.78
   16   23   25     -4.18     -2.09
  -15   24   25     -4.51      5.55
  -13   24   25     -7.26      4.13
  -11   24   25     13.03      2.22
   -9   24   25     11.29      0.10
   13   24   25     -6.83    -11.59
   15   24   25      6.72      3.26
  -12   25   25      3.36      3.55
  -10   25   25    -12.96     -2.60
   -8   25   25      8.93    -16.70
   10   25   25      1.25     -4.65
   12   25   25     -1.54     -1.13
  -11   26   25     -3.12     -2.96
   -9   26   25    -12.79      0.56
   -7   26   25     14.99     -1.06
    7   26   25      0.74      6.12
    9   26   25     -2.77      1.57
   11   26   25     -2.44     -7.06
   -8   27   25    -10.68      9.67
   -6   27   25      6.78      4.01
   -4   27   25    -22.44      9.90
   -2   27   25     -7.19     12.62
    0   27   25     -9.94    -15.05
    2   27   25      0.34      9.07
    4   27   25     -0.57      2.81
    6   27   25    -16.91      1.00
    8   27   25      5.20     -3.59
   -5   28   25      2.51     -0.63
   -3   28   25     -8.81     -6.24
   -1   28   25      5.38      6.78
    1   28   25     -0.78     -8.54
    3   28   25     -5.62     -3.84
    5   28   25     -2.93      2.97
    0    0   26      4.66    -15.66
    1    1   26     -4.57     -4.03
    0    2   26     -4.67    -12.71
   -8   12   26     -7.33     -7.71
   -6   12   26     -9.15     12.73
  -11   13   26      6.41     -7.45
   -9   13   26     -2.71     -6.14
   -7   13   26      1.92    -28.44
   -5   13   26    -10.54     12.58
  -12   14   26     -0.88      3.31
  -10   14   26      2.47     -5.88
   -8   14   26      7.13     -0.55
   -6   14   26      1.19    -15.07
  -13   15   26      6.35     -6.00
  -11   15   26      4.29      6.53
   -9   15   26      1.10      0.80
   -7   15   26     10.07      1.83
   15   15   26      8.61     -2.32
  -14   16   26      5.35      6.35
  -12   16   26     -3.03     -7.97
  -10   16   26     -2.52      6.29
   -8   16   26     -2.22      4.57
   -6   16   26     32.12    -34.97
   16   16   26     16.32     -9.57
  -15   17   26      1.79    -10.15
  -13   17   26    -11.78      2.67
  -11   17   26      2.47     -3.22
   -9   17   26      8.50    -16.24
   -7   17   26     -6.86      3.94
   17   17   26     -2.15      1.12
  -16   18   26     -3.56     -4.35
  -14   18   26     -1.91    -12.02
  -12   18   26     -0.21     -6.71
  -10   18   26      7.69      2.99
   -8   18   26      7.29     15.38
   18   18   26      2.32      4.43
  -17   19   26      1.24     -4.46
  -15   19   26      1.75      0.94
  -13   19   26     -1.44     -7.97
  -11   19   26    -12.46     14.43
   -9   19   26      9.77     10.19
   -7   19   26      3.14      5.24
   17   19   26     -1.56     -3.67
   19   19   26     -3.17      3.42
  -18   20   26      0.01     -5.51
  -16   20   26      4.56      2.44
  -14   20   26     -2.15     -2.51
  -12   20   26      7.75      0.64
  -10   20   26      0.78      7.37
   -8   20   26      2.66      5.52
   16   20   26      6.01      0.27
   18   20   26      1.57      4.61
  -15   21   26      0.20      4.88
  -13   21   26     -0.64      0.41
  -11   21   26     14.29     -3.76
   -9   21   26     -4.82      1.21
   -7   21   26    -26.23     11.25
   15   21   26      0.45     -3.51
  -14   22   26      0.34     -1.40
  -12   22   26      1.19      1.82
  -10   22   26     -3.95     -2.73
   -8   22   26      6.06     -5.55
   12   22   26      5.92      7.21
   14   22   26      9.72     -1.12
  -13   23   26      1.14     -4.88
  -11   23   26     -4.82      2.88
   -9   23   26     -5.61     -7.51
   -7   23   26    -21.21      8.32
   11   23   26    -12.70      4.46
   13   23   26      5.40     -3.98
  -12   24   26      0.17     -4.86
  -10   24   26      4.03     -5.40
   -8   24   26     -5.73      8.47
    8   24   26      3.14     -4.82
   10   24   26      0.60      0.80
   12   24   26      6.88      4.03
   -9   25   26      6.56     -9.11
   -7   25   26      3.84     -4.41
   -5   25   26    -14.80     -6.26
   -3   25   26      4.81    -33.12
   -1   25   26      0.19      3.88
    1   25   26    -17.92      6.58
    3   25   26     12.69     -6.31
    5   25   26    -15.61     -9.74
    7   25   26     -2.36     -2.90
    9   25   26     -0.61     -3.34
   -6   26   26     -1.23     -5.36
   -4   26   26     -2.32    -19.42
   -2   26   26      3.46    -12.70
    0   26   26     23.34      3.60
    2   26   26    -11.79      5.10
    4   26   26      3.16     -3.54
    6   26   26      0.38    -11.72
    0    1   27      1.55     18.38
   -1    2   27      3.53     14.61
    1    2   27    -25.14     -9.07
    0    3   27     -2.87      0.85
   -6   13   27      0.10     -2.49
   -4   13   27      4.93      1.64
   -9   14   27    -12.88     -7.49
   -7   14   27     -0.28      2.72
   -5   14   27      7.22      4.07
  -12   15   27      0.36    -11.28
  -10   15   27    -11.15     -6.59
   -8   15   27     -6.62     -9.08
   -6   15   27     -3.62     21.46
  -13   16   27     -8.44     -9.61
  -11   16   27     -3.66      5.48
   -9   16   27      1.50     -6.08
   -7   16   27     -5.31      5.67
   -5   16   27     -7.50      3.98
  -16   17   27      0.45     -0.36
  -14   17   27     -1.76      2.69
  -12   17   27     -1.48      5.30
  -10   17   27     -9.19      5.77
   -8   17   27     -0.95      1.66
   -6   17   27     -1.57      8.35
   16   17   27     -1.31      0.98
  -17   18   27     -4.32      2.11
  -15   18   27      1.09      8.05
  -13   18   27     11.17     -0.42
  -11   18   27     -0.14    -11.00
   -9   18   27     -0.41      1.97
   -7   18   27     -1.27     -4.35
   15   18   27     -4.44     -7.99
   17   18   27      2.52      6.96
  -16   19   27     -1.62      1.59
  -14   19   27      7.65      4.00
  -12   19   27     -7.50     -8.10
  -10   19   27      9.54    -10.19
   -8   19   27     -2.50     14.86
   -6   19   27     10.75     -1.57
   14   19   27     -0.35      1.61
   16   19   27      2.29      3.25
  -15   20   27     -4.50     -3.83
  -13   20   27     -1.53     -0.88
  -11   20   27     -7.49      3.39
   -9   20   27      1.91     -2.72
   -7   20   27     -4.35    -11.90
   -1   20   27     17.24     -5.87
   13   20   27      5.34     -2.24
   15   20   27      2.06      5.12
  -14   21   27     -5.16     -0.97
  -12   21   27     -4.09      0.13
  -10   21   27     -2.25      8.83
   -8   21   27     -1.76     -4.60
   -6   21   27    -12.80    -13.58
   10   21   27      1.39      9.78
   12   21   27     -4.45     -4.20
   14   21   27      3.65      1.12
  -11   22   27     -7.68     -3.97
   -9   22   27     -3.75     -3.37
   -7   22   27      5.74     14.35
    9   22   27     -1.29     -4.14
   11   22   27      6.78     -4.66
  -10   23   27     -9.54      3.50
   -8   23   27      3.32      4.89
   -6   23   27     -7.12      3.12
   -4   23   27    -18.80      2.95
    4   23   27      5.70    -13.45
    6   23   27    -14.61     13.02
    8   23   27      4.85     -2.07
   10   23   27      5.82     -2.25
   -7   24   27     -5.34      0.32
   -5   24   27     -0.02     16.08
   -3   24   27     -4.29     14.40
   -1   24   27     -0.85    -17.42
    1   24   27    -15.24     11.45
    3   24   27      1.32      3.04
    5   24   27     -1.48      0.16
    7   24   27     -5.02    -12.43
   -4   25   27    -20.68     -9.93
   -2   25   27     19.39      7.15
    0   25   27    -12.42    -16.38
    2   25   27     -2.99      2.61
    4   25   27     10.72      8.97
    0    0   28     -5.34     22.01
    1    1   28     10.00    -15.46
    0    2   28      8.98    -13.37
    2    2   28      9.20     20.38
   -1    3   28      8.57     20.28
    1    3   28      2.56     18.73
   -2    4   28     -0.76     15.06
    0    4   28      3.12     -3.40
   -1    5   28      1.22      8.40
    1    5   28     13.13     -5.75
    0    6   28     11.94     19.33
   -7   15   28    -15.14     -1.21
   -5   15   28    -10.18     -5.97
  -14   16   28     -1.31    -10.04
  -10   16   28      6.56     -0.42
   -8   16   28     -6.69     -0.86
   -6   16   28     -4.52     10.18
   -4   16   28     -1.94      6.03
   14   16   28     -8.82      2.55
   16   16   28     10.35     -1.01
  -15   17   28     -0.21     -0.64
  -13   17   28      5.76     -0.26
  -11   17   28     -6.79     -5.60
   -9   17   28      1.09      5.31
   -7   17   28     -5.24      9.54
   -5   17   28     21.18     12.33
   -3   17   28    -13.43     -2.65
   13   17   28      0.47     -0.77
   15   17   28      1.80      6.29
  -14   18   28     -7.73     -4.99
  -12   18   28     -1.51      2.37
  -10   18   28     -7.98      4.09
   -8   18   28     -5.24     -0.51
   -6   18   28     21.30      0.34
   -2   18   28     -3.42     -2.30
    0   18   28    -11.64      1.73
   12   18   28     -7.78      6.87
   14   18   28      3.55     -3.73
  -13   19   28     -3.73     -0.24
  -11   19   28      0.24      6.46
   -9   19   28     -3.02      0.48
   -7   19   28    -25.87     -4.07
   -5   19   28    -14.00     14.18
   -3   19   28    -10.96    -14.12
    1   19   28    -18.02      4.89
   11   19   28      7.60     -0.07
   13   19   28    -12.80     12.24
  -12   20   28      3.11      1.61
  -10   20   28     -8.67    -10.59
   -8   20   28     -9.29     10.26
   -6   20   28    -14.48     -3.15
    0   20   28     -1.67     -1.09
    8   20   28      4.22     -4.55
   10   20   28      2.98     -3.33
   12   20   28      1.50     -5.98
   -9   21   28     -9.16     10.09
   -7   21   28      8.90     -5.19
   -5   21   28     19.40     -6.93
    5   21   28     -5.81    -16.28
    7   21   28      6.22    -11.39
    9   21   28     -2.10     -6.31
   -8   22   28      4.99     -7.37
   -6   22   28      6.74     -5.46
   -4   22   28     26.78      0.47
   -2   22   28     16.48    -16.51
    0   22   28     -1.10     -6.87
    2   22   28      2.05      5.11
    4   22   28     -1.28     -7.29
    6   22   28      4.63    -18.17
    8   22   28     -0.93     -5.50
   -5   23   28      7.71      8.77
   -3   23   28     18.10    -20.37
   -1   23   28     -7.72     -9.63
    1   23   28      3.56     12.65
    3   23   28     -2.14     -3.18
    5   23   28     -3.15      4.95
    0    1   29     -0.82     22.59
   -1    2   29     12.59      2.52
    1    2   29     -9.12      8.36
   -2    3   29     13.40      4.96
    0    3   29      2.16      8.63
    2    3   29     -0.49      6.19
   -3    4   29      4.06      5.70
   -1    4   29      2.77      6.98
    1    4   29     15.98     11.25
    3    4   29     15.28      8.98
   -2    5   29    -21.14      5.17
    0    5   29      0.74      6.01
    2    5   29     26.23      5.44
   -3    6   29    -18.95     -1.79
   -1    6   29     -3.01      5.26
    1    6   29     -1.48      3.21
    0    7   29     20.03      1.34
   -1    8   29     -7.25     12.65
  -13   14   29      6.95      4.16
   13   14   29    -10.94      3.57
  -14   15   29      7.24      1.81
  -12   15   29     -8.71      8.69
   12   15   29     -8.08      3.93
   14   15   29      3.48     -2.93
  -13   16   29     -2.51      2.92
  -11   16   29      0.84     -8.73
   -3   16   29      7.03     -8.09
   11   16   29     -0.14     -2.30
   13   16   29     -2.53      0.76
  -12   17   29      0.01      0.73
  -10   17   29    -14.51     -3.58
   -8   17   29     11.31      8.75
   -6   17   29     -6.08     -6.04
   -4   17   29      5.74      1.71
   10   17   29      4.28     -4.11
   12   17   29     -2.77      9.64
  -11   18   29     -3.45      5.74
   -9   18   29     -3.51     -5.72
   -7   18   29      5.11      2.28
   -5   18   29     -4.60    -12.71
    7   18   29    -15.61    -16.15
    9   18   29     -2.88     -7.38
   11   18   29     -1.29      4.16
  -10   19   29      4.26      6.85
   -8   19   29      0.36      9.96
   -6   19   29      1.67     -2.35
   -4   19   29     20.68    -25.31
   -2   19   29     25.63    -21.11
    0   19   29     13.47    -20.95
    2   19   29     -3.33    -11.48
    4   19   29     -3.32     -2.28
    6   19   29     -5.65     -3.64
    8   19   29     -0.34      9.30
   10   19   29     -0.81     -9.08
   -7   20   29    -11.20     -0.43
   -5   20   29      3.36    -11.99
   -3   20   29      9.31     -1.12
   -1   20   29     19.82     13.47
    1   20   29     -1.31     -2.72
    3   20   29     -6.64    -10.37
    5   20   29     -3.50      5.39
    7   20   29      2.11      9.89
   -4   21   29      3.48      0.27
   -2   21   29      5.38     27.41
    0   21   29      6.44     13.55
    2   21   29     -0.93     11.01
    4   21   29      0.60      8.07
    0    0   30    -12.10      5.96
    1    1   30     -8.04      6.36
    0    2   30     -0.49     21.63
    2    2   30      0.51     -1.59
   -1    3   30     10.58     12.84
    1    3   30      0.07     -2.23
    3    3   30     -2.81    -11.40
   -2    4   30      5.50      3.83
    0    4   30     -6.09     -4.61
    2    4   30      5.55     -5.09
    4    4   30      9.00     -2.56
   -3    5   30     16.70     -3.99
   -1    5   30    -11.43    -14.71
    1    5   30      6.64     -4.97
    3    5   30     -2.81      6.19
   -2    6   30      8.06     -4.54
    0    6   30     20.30     -2.62
    2    6   30      2.97     -7.09
   -1    7   30      1.19      4.73
    1    7   30      1.34     -2.61
    0    8   30    -16.46     -6.91
   12   12   30     -6.80     17.24
  -11   13   30      1.85     -1.56
   11   13   30      8.09      0.89
   13   13   30      0.67      2.81
  -12   14   30      3.32     -9.79
  -10   14   30      3.16      5.44
   10   14   30      7.78      1.33
   12   14   30      6.67     -2.04
  -11   15   30      0.96     -5.40
   -9   15   30     -6.50      0.86
   -7   15   30     14.94    -12.90
    7   15   30     -5.66     -5.21
    9   15   30     -0.46     -1.76
   11   15   30     -4.97      1.72
  -10   16   30     14.09     -2.04
   -8   16   30     -5.19     -5.48
   -6   16   30      8.67     -5.27
   -4   16   30      4.47     -9.87
    4   16   30     -5.95     -5.31
    6   16   30    -10.40     -5.37
    8   16   30      5.56    -13.93
   10   16   30     -4.09      4.39
   -9   17   30     -2.62      6.07
   -7   17   30     -5.87      4.22
   -5   17   30     -3.76     14.49
   -3   17   30      5.44     -3.76
   -1   17   30     14.61     -2.54
    1   17   30     -0.77     17.72
    3   17   30      7.07      8.58
    5   17   30      3.32      2.37
    7   17   30      6.71     -9.50
    9   17   30     -6.11     -0.59
   -6   18   30     -1.91      4.50
   -4   18   30     -2.84     24.75
   -2   18   30     13.67      6.42
    0   18   30      4.04     10.70
    2   18   30     12.08     17.48
    4   18   30     -4.35     -4.30
    6   18   30     -0.09     -1.53
   -3   19   30     -2.01     17.33
   -1   19   30      5.92      9.09
    1   19   30      8.47      8.48
    3   19   30      2.52      3.07
    0    1   31      2.67    -16.72
   -1    2   31      4.56    -11.05
    1    2   31     -1.90    -10.26
   -2    3   31      1.49      3.93
    0    3   31     -1.97    -13.50
    2    3   31      2.28     11.34
   -3    4   31     -5.14      3.91
   -1    4   31      3.15      2.83
    1    4   31      2.00     -0.34
    3    4   31     -7.34     -8.86
   -4    5   31     -9.15      0.91
   -2    5   31     11.38     -2.57
    0    5   31     -5.63      0.32
    2    5   31      0.97     -4.36
    4    5   31      4.66     -8.01
   -3    6   31      0.44    -10.20
   -1    6   31     -0.19     -8.10
    1    6   31     -1.71      4.59
    3    6   31      3.43     20.49
   -2    7   31     -6.36    -16.93
    0    7   31      9.69     14.07
    2    7   31     -5.83     10.48
   -1    8   31     15.75     -6.71
    1    8   31    -12.39      7.19
   -2    9   31      3.88    -12.11
    0    9   31      3.69     -8.78
    2    9   31     14.37     10.50
   -9   10   31      3.23      5.40
    1   10   31     15.83     18.12
    9   10   31     -3.01      1.99
  -10   11   31     17.21     -8.02
   -8   11   31      6.29     16.55
    0   11   31     -9.62      8.39
    8   11   31      0.16    -13.87
   10   11   31      6.58     -6.92
  -11   12   31      6.04     -3.14
   -9   12   31      5.39     12.24
   -7   12   31     -3.03     17.63
    7   12   31      2.44     -6.40
    9   12   31     -2.63     -6.72
   11   12   31      2.24     -0.37
  -10   13   31     -1.09      4.48
   -8   13   31     -1.23      6.19
   -6   13   31      5.03      9.10
   -4   13   31     -5.67     -1.03
   -2   13   31    -11.31     -2.57
    2   13   31      6.13      4.92
    4   13   31      2.69     -0.39
    6   13   31      1.43     -3.75
    8   13   31     -1.85      3.06
   10   13   31     -5.28      5.04
   -9   14   31     -0.02     -7.04
   -7   14   31     -2.13      6.35
   -5   14   31      0.47      1.69
   -3   14   31      7.85     -1.68
   -1   14   31     -3.58     -1.34
    1   14   31      6.77      5.56
    3   14   31      1.39      1.86
    5   14   31     14.56    -11.10
    7   14   31     11.27      6.78
    9   14   31     -0.03      1.51
   -6   15   31     -0.06      1.00
   -4   15   31     -4.70      3.35
   -2   15   31     16.45     -3.01
    0   15   31     -0.53     -5.05
    2   15   31      4.57     -6.56
    4   15   31      9.05      2.64
    6   15   31     13.02     -4.87
   -3   16   31     -4.32      5.78
   -1   16   31     -3.57     -9.42
    1   16   31     -0.79    -13.34
    3   16   31     -1.49     -0.85
    0    0    0      0.00      0.00
# SQUEEZE RESULTS (Version = 150216)
# Note: Data are Listed for all Voids in the P1 Unit Cell
# i.e. Centre of Gravity, Solvent Accessible Volume,
# Recovered number of Electrons in the Void and
# Details about the Squeezed Material
loop_
  _platon_squeeze_void_nr
  _platon_squeeze_void_average_x
  _platon_squeeze_void_average_y
  _platon_squeeze_void_average_z
  _platon_squeeze_void_volume
  _platon_squeeze_void_count_electrons
  _platon_squeeze_void_content
   1 -0.005  0.000  0.010     14536      3260 ' '
   2  0.000  0.500  0.884       107        32 ' '
   3  0.000  0.500  0.384       107        32 ' '
   4  0.078  0.418  0.139        25         2 ' '
   5  0.082  0.578  0.639        25         3 ' '
   6  0.418  0.922  0.139        25         2 ' '
   7  0.422  0.082  0.639        25         3 ' '
   8  0.500  0.000  0.884       107        32 ' '
   9  0.500  0.000  0.384       107        32 ' '
  10  0.578  0.918  0.639        25         2 ' '
  11  0.582  0.078  0.139        25         3 ' '
  12  0.918  0.422  0.639        25         2 ' '
  13  0.922  0.582  0.139        25         3 ' '
# Missing Reflections Below sin(th)/lambda = 0.25
loop_
  _platon_missing_refln_index_h
  _platon_missing_refln_index_k
  _platon_missing_refln_index_l
  _platon_missing_refln_theta
    1    1    0     1.104
    0    2    0     1.562
    2    2    0     2.209
   -1    3    0     2.470
    1    3    0     2.470
    0    4    0     3.125
    2    4    0     3.494
   -1    5    0     3.985
    1    5    0     3.985
    3    5    0     4.558
    0    6    0     4.691
    2    6    0     4.945
    4    6    0     5.640
    1    7    0     5.530
    3    7    0     5.958
    5    7    0     6.733
    2    8    0     6.453
    4    8    0     7.002
    6    8    0     7.833
    8    8    0     8.870
    1    9    0     7.089
    3    9    0     7.429
    5    9    0     8.066
    7    9    0     8.940
    2   10    0     7.989
    4   10    0     8.441
    6   10    0     9.145
    3   11    0     8.940
    5   11    0     9.479
    7   11    0    10.236
    2   12    0     9.544
    4   12    0     9.927
    6   12    0    10.536
    8   12    0    11.336
    3   13    0    10.477
    5   13    0    10.943
    7   13    0    11.609
    4   14    0    11.446
    6   14    0    11.981
    8   14    0    12.695
    3   15    0    12.033
    5   15    0    12.444
    0    1    1     1.256
   -1    2    1     2.005
    1    2    1     2.005
   -2    3    1     2.984
    0    3    1     2.542
    2    3    1     2.984
   -3    4    1     4.030
    1    4    1     3.369
    3    4    1     4.030
    2    5    1     4.323
    1    6    1     4.857
    3    6    1     5.338
    2    7    1     5.779
    4    7    1     6.385
    1    8    1     6.385
    3    8    1     6.760
    5    8    1     7.453
    2    9    1     7.286
    4    9    1     7.777
    6    9    1     8.535
    3   10    1     8.240
    5   10    1     8.821
    2   11    1     8.821
    4   11    1     9.233
    6   11    1     9.883
    3   12    1     9.756
    5   12    1    10.254
    7   12    1    10.960
    2   13    1    10.375
    4   13    1    10.729
    6   13    1    11.297
    8   13    1    12.049
    3   14    1    11.297
    5   14    1    11.732
    7   14    1    12.358
    4   15    1    12.256
    6   15    1    12.759
    0    0    2     1.969
    1    1    2     2.257
    0    2    2     2.513
    2    2    2     2.960
   -1    3    2     3.159
    1    3    2     3.159
   -2    4    2     4.012
    2    4    2     4.012
    1    5    2     4.446
    3    5    2     4.967
    2    6    2     5.324
    1    7    2     5.872
    3    7    2     6.277
    2    8    2     6.749
    4    8    2     7.276
    3    9    2     7.688
    5    9    2     8.306
    2   10    2     8.231
    4   10    2     8.671
    6   10    2     9.358
    3   11    2     9.157
_platon_squeeze_void_probe_radius                  1.20
_platon_squeeze_details
)
TITL i4m in I4/m
CELL   32.4900   32.4900   25.7800     90.00     90.00     90.00
SPGR I4
# Solvent Accessible Volume =     15256
# Electrons Found in S.A.V. =      3288
# Note: Atoms in Void as Cxxx and Qxxx all others
C101 0.859 0.376 0.037 !       3.45 eA-3
C102 0.872 0.362 0.226 !       3.21 eA-3
C103 0.742 0.038 0.144 !       3.12 eA-3
C104 0.456 0.758 0.136 !       3.03 eA-3
C105 0.213 0.453 0.147 !       2.98 eA-3
C106 0.563 0.577 0.241 !       2.63 eA-3
C107 0.376 0.177 0.069 !       2.42 eA-3
C108 0.483 0.765 0.147 !       2.41 eA-3
C109 0.500 0.495 0.304 !       2.41 eA-3
C110 0.568 0.243 0.134 !       2.41 eA-3
C111 0.500 0.500 0.336 !       2.35 eA-3
C112 0.078 0.054 0.024 !       2.32 eA-3
C113 0.953 0.493 0.384 !       2.27 eA-3
C114 0.265 0.459 0.091 !       2.18 eA-3
C115 0.784 0.570 0.134 !       2.05 eA-3
C116 0.992 0.743 0.119 !       2.03 eA-3
C117 0.882 0.258 0.133 !       1.99 eA-3
C118 0.682 0.161 0.441 !       1.97 eA-3
C119 0.514 0.046 0.383 !       1.96 eA-3
C120 0.513 0.373 0.109 !       1.95 eA-3
C121 0.267 0.460 0.117 !       1.94 eA-3
C122 0.675 0.885 0.208 !       1.92 eA-3
C123 1.000 1.002 0.000 !       1.91 eA-3
C124 0.255 0.093 0.164 !       1.88 eA-3
C125 0.765 0.076 0.163 !       1.85 eA-3
C126 0.057 0.239 0.191 !       1.82 eA-3
C127 0.187 0.351 0.431 !       1.79 eA-3
C128 0.523 0.945 0.399 !       1.78 eA-3
C129 0.185 0.672 0.336 !       1.76 eA-3
C130 0.961 0.462 0.379 !       1.73 eA-3
C131 0.350 0.483 0.002 !       1.72 eA-3
C132 0.079 0.080 0.043 !       1.72 eA-3
C133 0.986 0.524 0.375 !       1.71 eA-3
C134 0.187 0.680 0.367 !       1.70 eA-3
C135 0.867 0.689 0.447 !       1.69 eA-3
C136 0.246 0.101 0.213 !       1.69 eA-3
C137 0.500 0.999 0.390 !       1.69 eA-3
C138 0.867 0.360 0.076 !       1.69 eA-3
C139 0.690 0.680 0.377 !       1.68 eA-3
C140 0.771 0.047 0.159 !       1.67 eA-3
C141 0.258 0.468 0.162 !       1.67 eA-3
C142 0.982 0.492 0.371 !       1.67 eA-3
C143 0.157 0.703 0.296 !       1.67 eA-3
C144 0.376 0.462 0.143 !       1.66 eA-3
C145 0.800 0.367 0.062 !       1.66 eA-3
C146 0.475 0.468 0.241 !       1.66 eA-3
C147 0.380 0.491-0.001 !       1.66 eA-3
C148 0.245 0.969 0.178 !       1.65 eA-3
C149 0.599 0.244 0.143 !       1.60 eA-3
C150 0.866 0.695 0.483 !       1.59 eA-3
C151 0.796 0.685 0.465 !       1.58 eA-3
C152 0.876 0.694 0.412 !       1.57 eA-3
C153 0.872 0.071 0.414 !       1.57 eA-3
C154 0.841 0.695 0.469 !       1.57 eA-3
C155 0.989 0.877 0.286 !       1.57 eA-3
C156 0.218 0.647 0.355 !       1.56 eA-3
C157 0.178 0.602 0.047 !       1.55 eA-3
C158 0.487 0.409 0.053 !       1.55 eA-3
C159 0.204 0.688 0.337 !       1.55 eA-3
Q160 0.078 0.172 0.100 !       1.54 eA-3
C161 0.219 0.281 0.179 !       1.53 eA-3
C162 0.671 0.197 0.422 !       1.53 eA-3
C163 0.149 0.103 0.327 !       1.53 eA-3
C164 0.170 0.650 0.040 !       1.52 eA-3
C165 0.381 0.180 0.029 !       1.52 eA-3
C166 0.658 0.493 0.133 !       1.51 eA-3
C167 0.757 0.359 0.024 !       1.51 eA-3
C168 0.788 0.367 0.151 !       1.51 eA-3
C169 0.654 0.157 0.432 !       1.50 eA-3
C170 0.671 0.189 0.404 !       1.50 eA-3
Q171 0.695 0.469 0.132 !       1.50 eA-3
C172 0.561 0.265 0.126 !       1.50 eA-3
C173 0.517 0.373 0.151 !       1.49 eA-3
C174 0.868 0.971 0.249 !       1.49 eA-3
C175 0.395 0.266 0.122 !       1.49 eA-3
C176 0.687 0.186 0.469 !       1.48 eA-3
C177 0.101 0.866 0.494 !       1.48 eA-3
C178 0.861 0.992 0.319 !       1.48 eA-3
C179 0.978 0.898 0.298 !       1.47 eA-3
C180 0.481 0.766 0.120 !       1.46 eA-3
C181 0.681 0.774 0.074 !       1.45 eA-3
C182 0.897 0.092 0.414 !       1.45 eA-3
C183 0.265 0.920 0.152 !       1.45 eA-3
C184 0.492 0.562 0.188 !       1.45 eA-3
C185 0.087 0.914 0.375 !       1.45 eA-3
C186 0.381 0.212 0.046 !       1.45 eA-3
C187 0.663 0.275 0.014 !       1.45 eA-3
C188 0.796 0.352 0.117 !       1.44 eA-3
C189 0.351 0.483 0.125 !       1.44 eA-3
C190 0.708 0.873 0.204 !       1.44 eA-3
C191 0.885 0.251 0.171 !       1.43 eA-3
C192 0.790 0.377 0.083 !       1.43 eA-3
C193 0.159 0.992 0.471 !       1.43 eA-3
Q194 0.494 0.750 0.381 !       1.43 eA-3
C195 0.915 0.063 0.467 !       1.42 eA-3
C196 0.375 0.187 0.316 !       1.41 eA-3
C197 0.499 0.503 0.039 !       1.41 eA-3
C198 0.251 0.305 0.090 !       1.40 eA-3
C199 0.257 0.471 0.196 !       1.39 eA-3
)
;
_shelx_fab_checksum              96115
loop_
_space_group_symop_operation_xyz
'x, y, z'
'-x, -y, z'
'-y, x, z'
'y, -x, z'
'x+1/2, y+1/2, z+1/2'
'-x+1/2, -y+1/2, z+1/2'
'-y+1/2, x+1/2, z+1/2'
'y+1/2, -x+1/2, z+1/2'
loop_
_atom_site_label
_atom_site_type_symbol
_atom_site_fract_x
_atom_site_fract_y
_atom_site_fract_z
_atom_site_U_iso_or_equiv
_atom_site_adp_type
_atom_site_occupancy
_atom_site_site_symmetry_order
_atom_site_calc_flag
_atom_site_refinement_flags_posn
_atom_site_refinement_flags_adp
_atom_site_refinement_flags_occupancy
Zn1 Zn 0.26466(2) 0.49999(2) 0.38379(5) 0.0725(3) Uani 1 1 d . . .
Zn2 Zn 0.0000 0.5000 0.13392(6) 0.0668(3) Uani 1 2 d S T P
O1 O 0.23258(16) 0.50746(18) 0.3226(2) 0.0828(17) Uani 1 1 d D . .
O2 O 0.1919(2) 0.5503(2) 0.3630(3) 0.152(3) Uani 1 1 d D . .
O3 O 0.04650(19) 0.49870(18) 0.1799(2) 0.0824(17) Uani 1 1 d D . .
O4 O 0.08884(17) 0.52280(18) 0.1210(2) 0.0935(18) Uani 1 1 d D . .
O5 O 0.23208(16) 0.49106(18) 0.4471(2) 0.0827(17) Uani 1 1 d D . .
O6 O 0.1914(2) 0.4489(3) 0.4089(3) 0.144(3) Uani 1 1 d D . .
O7 O 0.08968(18) 0.4767(2) 0.6526(2) 0.099(2) Uani 1 1 d D . .
O8 O 0.04771(19) 0.50072(18) 0.5904(2) 0.0800(17) Uani 1 1 d D . .
O9 O 0.34435(19) 0.5174(2) 0.4472(2) 0.105(2) Uani 1 1 d D . .
O10 O 0.30001(13) 0.54972(16) 0.3910(3) 0.0951(18) Uani 1 1 d D . .
O11 O 0.45061(17) 0.70123(15) 0.3822(3) 0.0983(18) Uani 1 1 d D . .
O12 O 0.48084(18) 0.65637(18) 0.3255(2) 0.0939(18) Uani 1 1 d D . .
C1 C 0.1998(3) 0.5277(3) 0.3249(3) 0.084(2) Uani 1 1 d D . .
C2 C 0.1666(2) 0.5248(2) 0.2839(3) 0.0605(19) Uani 1 1 d D . .
C3 C 0.1275(2) 0.5472(3) 0.2985(3) 0.082(2) Uani 1 1 d D . .
H3A H 0.1326 0.5766 0.3004 0.098 Uiso 1 1 calc R U .
H3B H 0.1178 0.5379 0.3321 0.098 Uiso 1 1 calc R U .
C4 C 0.0941(2) 0.5377(2) 0.2553(3) 0.073(2) Uani 1 1 d D . .
H4A H 0.0753 0.5170 0.2697 0.088 Uiso 1 1 calc R U .
C5 C 0.1141(2) 0.5186(2) 0.2074(3) 0.067(2) Uani 1 1 d D . .
C6 C 0.1506(2) 0.5455(3) 0.1917(3) 0.084(2) Uani 1 1 d D . .
H6A H 0.1412 0.5733 0.1849 0.101 Uiso 1 1 calc R U .
H6B H 0.1628 0.5348 0.1602 0.101 Uiso 1 1 calc R U .
C7 C 0.1830(3) 0.5461(3) 0.2354(3) 0.100(3) Uani 1 1 d D . .
H7A H 0.2078 0.5322 0.2238 0.120 Uiso 1 1 calc R U .
H7B H 0.1901 0.5744 0.2436 0.120 Uiso 1 1 calc R U .
C8 C 0.1588(2) 0.4802(3) 0.2710(3) 0.082(3) Uani 1 1 d D . .
H8A H 0.1459 0.4686 0.3021 0.098 Uiso 1 1 calc R U .
C9 C 0.1267(2) 0.4744(2) 0.2273(3) 0.078(2) Uani 1 1 d D . .
H9A H 0.1027 0.4600 0.2405 0.093 Uiso 1 1 calc R U .
H9B H 0.1384 0.4584 0.1992 0.093 Uiso 1 1 calc R U .
C10 C 0.0800(2) 0.5131(2) 0.1655(3) 0.066(2) Uani 1 1 d D . .
C11 C 0.1997(2) 0.4713(3) 0.4461(3) 0.082(2) Uani 1 1 d D . .
C12 C 0.1665(2) 0.4765(2) 0.4872(3) 0.072(2) Uani 1 1 d D . .
C13 C 0.1275(2) 0.4531(3) 0.4742(3) 0.086(2) Uani 1 1 d D . .
H13A H 0.1331 0.4238 0.4741 0.103 Uiso 1 1 calc R U .
H13B H 0.1180 0.4609 0.4400 0.103 Uiso 1 1 calc R U .
C14 C 0.0937(2) 0.4631(2) 0.5153(3) 0.070(2) Uani 1 1 d D . .
H14A H 0.0746 0.4834 0.5007 0.084 Uiso 1 1 calc R U .
C15 C 0.1142(2) 0.4815(2) 0.5635(3) 0.0590(19) Uani 1 1 d D . .
C16 C 0.1270(2) 0.5249(2) 0.5461(3) 0.080(3) Uani 1 1 d D . .
H16A H 0.1029 0.5403 0.5354 0.096 Uiso 1 1 calc R U .
H16B H 0.1399 0.5393 0.5747 0.096 Uiso 1 1 calc R U .
C17 C 0.1571(2) 0.5213(2) 0.5010(3) 0.077(2) Uani 1 1 d D . .
H17A H 0.1433 0.5333 0.4707 0.093 Uiso 1 1 calc R U .
C18 C 0.1503(2) 0.4558(3) 0.5800(3) 0.085(2) Uani 1 1 d D . .
H18A H 0.1411 0.4281 0.5878 0.102 Uiso 1 1 calc R U .
H18B H 0.1623 0.4674 0.6112 0.102 Uiso 1 1 calc R U .
C19 C 0.1835(3) 0.4544(3) 0.5359(4) 0.108(3) Uani 1 1 d D . .
H19A H 0.2085 0.4678 0.5475 0.130 Uiso 1 1 calc R U .
H19B H 0.1900 0.4260 0.5276 0.130 Uiso 1 1 calc R U .
C20 C 0.0823(3) 0.4856(3) 0.6081(4) 0.094(3) Uani 1 1 d D . .
C21 C 0.3346(3) 0.5456(3) 0.4156(4) 0.111(4) Uani 1 1 d D . .
C22 C 0.3678(2) 0.5781(2) 0.3973(3) 0.074(2) Uani 1 1 d D . .
C23 C 0.3577(3) 0.5993(3) 0.3465(4) 0.107(3) Uani 1 1 d D . .
H23A H 0.3320 0.6145 0.3518 0.128 Uiso 1 1 calc R U .
C24 C 0.3905(2) 0.6308(3) 0.3322(4) 0.087(3) Uani 1 1 d D . .
H24A H 0.4043 0.6225 0.3005 0.104 Uiso 1 1 calc R U .
H24B H 0.3779 0.6575 0.3265 0.104 Uiso 1 1 calc R U .
C25 C 0.4214(2) 0.6336(2) 0.3759(3) 0.074(2) Uani 1 1 d D . .
C26 C 0.4418(2) 0.5908(2) 0.3839(5) 0.102(3) Uani 1 1 d D . .
H26A H 0.4582 0.5840 0.3536 0.122 Uiso 1 1 calc R U .
H26B H 0.4602 0.5920 0.4135 0.122 Uiso 1 1 calc R U .
C27 C 0.4100(2) 0.5574(2) 0.3926(4) 0.093(3) Uani 1 1 d D . .
H27A H 0.4162 0.5423 0.4241 0.111 Uiso 1 1 calc R U .
H27B H 0.4100 0.5383 0.3637 0.111 Uiso 1 1 calc R U .
C28 C 0.3687(3) 0.6114(3) 0.4395(3) 0.091(3) Uani 1 1 d D . .
H28A H 0.3763 0.5991 0.4724 0.109 Uiso 1 1 calc R U .
H28B H 0.3415 0.6234 0.4432 0.109 Uiso 1 1 calc R U .
C29 C 0.4000(3) 0.6456(3) 0.4254(3) 0.087(3) Uani 1 1 d D . .
H29A H 0.3849 0.6712 0.4194 0.104 Uiso 1 1 calc R U .
C30 C 0.4536(3) 0.6671(3) 0.3594(3) 0.091(3) Uani 1 1 d D . .
N2 N 0.0696(2) 0.57533(19) 0.2457(2) 0.090(2) Uani 1 1 d D U .
H2A H 0.0732 0.5899 0.2182 0.108 Uiso 1 1 calc R U .
N1 N 0.1956(2) 0.4541(2) 0.2615(3) 0.102(2) Uani 1 1 d D U .
H1A H 0.2152 0.4623 0.2416 0.123 Uiso 1 1 calc R U .
N4 N 0.4288(3) 0.6521(4) 0.4672(5) 0.202(4) Uani 1 1 d D U .
H4B H 0.4497 0.6361 0.4708 0.242 Uiso 1 1 calc R U .
N3 N 0.3497(2) 0.5680(2) 0.3042(3) 0.109(2) Uani 1 1 d D U .
H3C H 0.3648 0.5464 0.3007 0.130 Uiso 1 1 calc R U .
N5 N 0.0703(2) 0.4236(2) 0.5268(3) 0.0889(19) Uani 1 1 d D U .
H5A H 0.0747 0.4089 0.5539 0.107 Uiso 1 1 calc R U .
N6 N 0.1951(2) 0.5449(2) 0.5088(3) 0.097(2) Uani 1 1 d D U .
H6C H 0.2154 0.5355 0.5268 0.116 Uiso 1 1 calc R U .
C31 C 0.1973(3) 0.4138(3) 0.2875(4) 0.114(2) Uani 1 1 d D U .
H31A H 0.1940 0.4186 0.3248 0.137 Uiso 1 1 calc R U .
C32 C 0.2411(3) 0.3949(3) 0.2789(5) 0.146(4) Uani 1 1 d D U .
H32A H 0.2427 0.3685 0.2957 0.219 Uiso 1 1 calc R U .
H32B H 0.2460 0.3916 0.2424 0.219 Uiso 1 1 calc R U .
H32C H 0.2616 0.4129 0.2934 0.219 Uiso 1 1 calc R U .
C33 C 0.1610(2) 0.3887(2) 0.2696(3) 0.127(3) Uani 1 1 d G U .
C34 C 0.1591(2) 0.3715(2) 0.2203(3) 0.141(3) Uani 1 1 d G U .
H34A H 0.1803 0.3760 0.1968 0.169 Uiso 1 1 calc R U .
C35 C 0.1253(3) 0.3478(2) 0.2060(2) 0.152(3) Uani 1 1 d G U .
H35A H 0.1240 0.3363 0.1730 0.182 Uiso 1 1 calc R U .
C36 C 0.0935(2) 0.3411(2) 0.2411(3) 0.155(3) Uani 1 1 d G U .
H36A H 0.0710 0.3253 0.2316 0.186 Uiso 1 1 calc R U .
C37 C 0.0955(2) 0.3583(2) 0.2905(3) 0.146(3) Uani 1 1 d G U .
H37A H 0.0742 0.3538 0.3140 0.175 Uiso 1 1 calc R U .
C38 C 0.1292(3) 0.3820(2) 0.3047(2) 0.133(3) Uani 1 1 d G U .
H38A H 0.1306 0.3935 0.3378 0.160 Uiso 1 1 calc R U .
C39 C 0.1964(3) 0.5885(3) 0.4823(4) 0.111(2) Uani 1 1 d D U .
H39A H 0.1934 0.5847 0.4448 0.133 Uiso 1 1 calc R U .
C40 C 0.2400(3) 0.6020(4) 0.4931(5) 0.152(4) Uani 1 1 d D U .
H40A H 0.2588 0.5823 0.4785 0.228 Uiso 1 1 calc R U .
H40B H 0.2447 0.6285 0.4777 0.228 Uiso 1 1 calc R U .
H40C H 0.2442 0.6037 0.5299 0.228 Uiso 1 1 calc R U .
C41 C 0.1623(2) 0.6130(2) 0.5004(3) 0.122(2) Uani 1 1 d G U .
C42 C 0.1601(2) 0.6282(2) 0.5507(3) 0.139(3) Uani 1 1 d G U .
H42A H 0.1818 0.6240 0.5736 0.166 Uiso 1 1 calc R U .
C43 C 0.1254(3) 0.6498(3) 0.5668(3) 0.148(3) Uani 1 1 d G U .
H43A H 0.1239 0.6600 0.6004 0.178 Uiso 1 1 calc R U .
C44 C 0.0929(2) 0.6561(2) 0.5325(4) 0.154(3) Uani 1 1 d G U .
H44A H 0.0697 0.6705 0.5433 0.185 Uiso 1 1 calc R U .
C45 C 0.0951(2) 0.6408(2) 0.4823(3) 0.149(3) Uani 1 1 d G U .
H45A H 0.0734 0.6450 0.4594 0.179 Uiso 1 1 calc R U .
C46 C 0.1298(3) 0.6193(2) 0.4662(2) 0.132(3) Uani 1 1 d G U .
H46A H 0.1313 0.6090 0.4325 0.158 Uiso 1 1 calc R U .
C47 C 0.4223(5) 0.6872(6) 0.5043(7) 0.223(4) Uani 1 1 d D U .
H47A H 0.4204 0.7127 0.4840 0.268 Uiso 1 1 calc R U .
C48 C 0.4568(5) 0.6919(5) 0.5419(6) 0.243(6) Uani 1 1 d D U .
H48A H 0.4821 0.6959 0.5233 0.364 Uiso 1 1 calc R U .
H48B H 0.4518 0.7152 0.5638 0.364 Uiso 1 1 calc R U .
H48C H 0.4589 0.6675 0.5627 0.364 Uiso 1 1 calc R U .
C49 C 0.3834(3) 0.6810(5) 0.5303(5) 0.248(4) Uani 1 1 d G U .
C50 C 0.3708(4) 0.6521(4) 0.5667(6) 0.265(5) Uani 1 1 d G U .
H50A H 0.3893 0.6323 0.5786 0.318 Uiso 1 1 calc R U .
C51 C 0.3307(5) 0.6527(4) 0.5853(5) 0.273(5) Uani 1 1 d G U .
H51A H 0.3223 0.6333 0.6096 0.327 Uiso 1 1 calc R U .
C52 C 0.3032(3) 0.6822(5) 0.5675(6) 0.272(5) Uani 1 1 d G U .
H52A H 0.2763 0.6826 0.5800 0.326 Uiso 1 1 calc R U .
C53 C 0.3158(4) 0.7112(4) 0.5311(6) 0.271(5) Uani 1 1 d G U .
H53A H 0.2973 0.7309 0.5192 0.325 Uiso 1 1 calc R U .
C54 C 0.3559(5) 0.7106(4) 0.5125(5) 0.259(5) Uani 1 1 d G U .
H54A H 0.3643 0.7299 0.4882 0.311 Uiso 1 1 calc R U .
C55 C 0.3141(5) 0.5765(5) 0.2686(6) 0.220(7) Uani 1 1 d D U .
H55A H 0.2889 0.5776 0.2894 0.264 Uiso 1 1 calc R U .
C56 C 0.3088(5) 0.5419(5) 0.2257(6) 0.213(7) Uani 1 1 d D U .
H56A H 0.2858 0.5485 0.2039 0.320 Uiso 1 1 calc R U .
H56B H 0.3333 0.5403 0.2051 0.320 Uiso 1 1 calc R U .
H56C H 0.3041 0.5158 0.2423 0.320 Uiso 1 1 calc R U .
C57 C 0.3181(5) 0.6185(4) 0.2369(5) 0.204(6) Uani 1 1 d DG U .
C58 C 0.3480(4) 0.6333(5) 0.2033(5) 0.215(7) Uani 1 1 d G U .
H58A H 0.3679 0.6156 0.1901 0.259 Uiso 1 1 calc R U .
C59 C 0.3483(4) 0.6747(5) 0.1894(4) 0.264(9) Uani 1 1 d G U .
H59A H 0.3684 0.6846 0.1669 0.317 Uiso 1 1 calc R U .
C60 C 0.3186(6) 0.7012(3) 0.2092(6) 0.260(9) Uani 1 1 d G U .
H60A H 0.3188 0.7288 0.1999 0.311 Uiso 1 1 calc R U .
C61 C 0.2887(4) 0.6864(6) 0.2428(6) 0.426(18) Uani 1 1 d G U .
H61A H 0.2688 0.7041 0.2560 0.511 Uiso 1 1 calc R U .
C62 C 0.2884(4) 0.6450(6) 0.2567(5) 0.346(13) Uani 1 1 d G U .
H62A H 0.2683 0.6351 0.2792 0.415 Uiso 1 1 calc R U .
C63 C 0.0388(3) 0.4129(3) 0.4867(4) 0.106(2) Uani 1 1 d D U .
H63A H 0.0494 0.4233 0.4536 0.127 Uiso 1 1 calc R U .
C64 C -0.0019(3) 0.4355(3) 0.4966(4) 0.116(3) Uani 1 1 d D U .
H64A H -0.0215 0.4281 0.4704 0.174 Uiso 1 1 calc R U .
H64B H -0.0124 0.4280 0.5301 0.174 Uiso 1 1 calc R U .
H64C H 0.0027 0.4647 0.4956 0.174 Uiso 1 1 calc R U .
C65 C 0.0355(2) 0.36610(18) 0.4811(3) 0.128(3) Uani 1 1 d DG U .
C66 C 0.0451(3) 0.3474(3) 0.4341(3) 0.164(3) Uani 1 1 d G U .
H66A H 0.0557 0.3630 0.4069 0.197 Uiso 1 1 calc R U .
C67 C 0.0389(3) 0.3054(3) 0.4277(3) 0.186(4) Uani 1 1 d G U .
H67A H 0.0453 0.2929 0.3963 0.223 Uiso 1 1 calc R U .
C68 C 0.0231(3) 0.28205(19) 0.4683(4) 0.181(4) Uani 1 1 d G U .
H68A H 0.0189 0.2539 0.4640 0.217 Uiso 1 1 calc R U .
C69 C 0.0135(3) 0.3008(2) 0.5152(3) 0.173(4) Uani 1 1 d G U .
H69A H 0.0029 0.2851 0.5424 0.208 Uiso 1 1 calc R U .
C70 C 0.0197(3) 0.3428(3) 0.5216(3) 0.148(3) Uani 1 1 d G U .
H70A H 0.0133 0.3553 0.5530 0.178 Uiso 1 1 calc R U .
C71 C 0.0388(3) 0.5869(3) 0.2850(4) 0.110(2) Uani 1 1 d D U .
H71A H 0.0475 0.5753 0.3183 0.132 Uiso 1 1 calc R U .
C72 C -0.0023(3) 0.5663(3) 0.2693(5) 0.134(4) Uani 1 1 d D U .
H72A H -0.0232 0.5733 0.2941 0.201 Uiso 1 1 calc R U .
H72B H -0.0104 0.5759 0.2356 0.201 Uiso 1 1 calc R U .
H72C H 0.0012 0.5370 0.2683 0.201 Uiso 1 1 calc R U .
C73 C 0.0341(3) 0.63174(17) 0.2917(3) 0.137(3) Uani 1 1 d G U .
C74 C 0.0447(3) 0.6491(2) 0.3391(3) 0.177(3) Uani 1 1 d G U .
H74A H 0.0561 0.6328 0.3650 0.213 Uiso 1 1 calc R U .
C75 C 0.0384(3) 0.6908(2) 0.3477(3) 0.186(4) Uani 1 1 d G U .
H75A H 0.0455 0.7025 0.3795 0.224 Uiso 1 1 calc R U .
C76 C 0.0214(3) 0.71524(17) 0.3090(4) 0.182(4) Uani 1 1 d G U .
H76A H 0.0172 0.7432 0.3147 0.219 Uiso 1 1 calc R U .
C77 C 0.0108(3) 0.6979(2) 0.2615(3) 0.173(3) Uani 1 1 d G U .
H77A H -0.0006 0.7142 0.2356 0.207 Uiso 1 1 calc R U .
C78 C 0.0171(3) 0.6561(2) 0.2529(3) 0.152(3) Uani 1 1 d G U .
H78A H 0.0100 0.6445 0.2212 0.183 Uiso 1 1 calc R U .
loop_
_atom_site_aniso_label
_atom_site_aniso_U_11
_atom_site_aniso_U_22
_atom_site_aniso_U_33
_atom_site_aniso_U_23
_atom_site_aniso_U_13
_atom_site_aniso_U_12
Zn1 0.0462(5) 0.0735(6) 0.0977(6) 0.0041(6) -0.0002(6) 0.0001(4)
Zn2 0.0605(9) 0.0652(9) 0.0748(7) 0.000 0.000 0.0048(8)
O1 0.042(3) 0.102(5) 0.105(4) 0.012(3) -0.005(3) 0.004(3)
O2 0.119(6) 0.160(7) 0.176(8) -0.055(6) -0.068(5) 0.035(5)
O3 0.061(4) 0.077(4) 0.110(4) 0.008(3) -0.018(3) -0.003(3)
O4 0.082(4) 0.124(5) 0.074(4) 0.017(4) -0.008(3) 0.036(3)
O5 0.051(4) 0.105(4) 0.092(4) 0.021(3) 0.011(3) -0.021(3)
O6 0.123(6) 0.149(7) 0.159(7) -0.044(5) 0.065(5) -0.040(5)
O7 0.088(4) 0.151(6) 0.058(3) -0.006(4) -0.005(3) -0.023(4)
O8 0.082(5) 0.088(4) 0.070(4) 0.005(3) 0.015(3) -0.024(4)
O9 0.107(5) 0.090(5) 0.119(5) 0.035(4) -0.014(4) -0.028(4)
O10 0.023(2) 0.113(4) 0.149(5) 0.024(4) -0.013(4) 0.017(2)
O11 0.120(4) 0.041(3) 0.134(4) -0.032(4) 0.037(5) 0.012(3)
O12 0.090(5) 0.096(4) 0.095(4) -0.014(3) 0.016(4) -0.037(3)
C1 0.086(7) 0.086(7) 0.078(6) -0.020(5) -0.018(5) 0.002(5)
C2 0.050(5) 0.044(5) 0.087(5) 0.008(4) -0.019(4) 0.011(3)
C3 0.057(5) 0.095(6) 0.094(6) -0.019(5) -0.021(4) 0.024(4)
C4 0.060(5) 0.077(6) 0.082(5) 0.011(4) -0.015(4) 0.016(4)
C5 0.061(5) 0.050(5) 0.089(6) -0.011(4) 0.009(4) 0.003(4)
C6 0.066(5) 0.097(7) 0.089(6) -0.002(5) -0.009(5) 0.011(5)
C7 0.100(7) 0.087(7) 0.113(8) 0.009(6) 0.003(6) 0.008(5)
C8 0.068(6) 0.103(7) 0.075(6) 0.011(5) -0.024(4) 0.030(5)
C9 0.083(6) 0.065(6) 0.084(6) 0.018(4) -0.006(5) 0.036(4)
C10 0.058(5) 0.072(5) 0.068(5) 0.001(4) -0.021(4) 0.032(4)
C11 0.063(6) 0.098(7) 0.084(6) -0.022(5) 0.040(5) -0.004(5)
C12 0.084(6) 0.076(6) 0.057(5) -0.001(4) -0.001(4) -0.022(5)
C13 0.067(6) 0.098(6) 0.093(6) -0.008(5) 0.027(5) -0.021(5)
C14 0.059(5) 0.073(5) 0.077(5) -0.027(4) 0.022(4) -0.015(4)
C15 0.059(5) 0.057(5) 0.061(5) -0.012(4) 0.006(4) -0.008(4)
C16 0.080(6) 0.069(5) 0.091(6) 0.016(4) 0.051(5) -0.028(4)
C17 0.054(5) 0.075(6) 0.103(6) -0.001(5) 0.003(4) -0.018(4)
C18 0.044(5) 0.106(7) 0.106(6) 0.009(5) 0.001(5) -0.016(4)
C19 0.058(6) 0.106(8) 0.160(10) -0.023(7) 0.021(6) -0.002(5)
C20 0.095(8) 0.075(7) 0.112(9) -0.017(6) 0.000(7) -0.015(5)
C21 0.097(8) 0.071(7) 0.167(10) -0.036(7) 0.059(8) -0.013(6)
C22 0.092(6) 0.055(4) 0.074(6) -0.004(4) -0.008(4) -0.014(4)
C23 0.148(10) 0.064(6) 0.108(7) 0.013(5) -0.008(6) -0.052(6)
C24 0.057(5) 0.078(6) 0.125(8) 0.007(5) -0.007(5) -0.014(4)
C25 0.084(5) 0.050(4) 0.087(6) -0.013(4) 0.013(5) -0.005(4)
C26 0.072(5) 0.075(5) 0.158(7) -0.005(7) 0.027(7) -0.010(4)
C27 0.064(5) 0.075(5) 0.139(8) -0.008(6) 0.028(6) 0.004(4)
C28 0.102(7) 0.076(6) 0.095(7) -0.038(5) 0.020(6) -0.015(5)
C29 0.093(7) 0.102(7) 0.066(5) -0.014(5) 0.002(5) -0.009(5)
C30 0.095(7) 0.092(7) 0.085(6) 0.024(6) -0.017(5) 0.005(6)
N2 0.102(5) 0.081(5) 0.085(4) -0.009(3) 0.001(3) 0.052(4)
N1 0.073(4) 0.089(5) 0.146(6) -0.016(4) -0.029(4) 0.032(4)
N4 0.159(8) 0.221(10) 0.225(10) -0.115(8) 0.026(7) -0.020(7)
N3 0.110(4) 0.113(4) 0.103(4) 0.001(4) -0.009(3) -0.002(4)
N5 0.095(5) 0.085(4) 0.086(4) -0.001(3) 0.003(3) -0.043(4)
N6 0.073(4) 0.070(4) 0.148(6) -0.008(4) 0.017(4) -0.031(3)
C31 0.103(5) 0.084(5) 0.154(6) -0.010(4) -0.038(5) 0.036(4)
C32 0.123(6) 0.112(8) 0.204(10) -0.018(7) -0.050(7) 0.053(6)
C33 0.126(5) 0.109(5) 0.147(6) -0.013(5) -0.025(5) 0.010(4)
C34 0.137(7) 0.134(7) 0.152(6) -0.032(5) -0.003(6) -0.015(5)
C35 0.143(7) 0.156(7) 0.156(7) -0.028(6) -0.006(5) -0.020(6)
C36 0.144(7) 0.154(7) 0.167(7) -0.019(6) -0.005(6) -0.020(6)
C37 0.147(7) 0.132(7) 0.159(7) -0.016(6) -0.005(6) -0.007(5)
C38 0.138(7) 0.110(6) 0.152(6) 0.002(5) -0.019(5) 0.010(5)
C39 0.107(5) 0.081(5) 0.145(6) 0.001(4) 0.020(5) -0.033(4)
C40 0.131(7) 0.131(8) 0.194(10) -0.018(8) 0.031(7) -0.081(6)
C41 0.136(5) 0.086(5) 0.145(6) -0.008(5) 0.011(5) -0.013(4)
C42 0.151(7) 0.109(7) 0.156(6) -0.020(5) 0.009(6) 0.004(5)
C43 0.156(7) 0.129(7) 0.159(7) -0.028(6) 0.002(6) 0.003(6)
C44 0.156(7) 0.138(7) 0.169(7) -0.019(6) 0.006(6) 0.000(6)
C45 0.160(7) 0.129(7) 0.159(7) -0.003(6) 0.005(6) 0.008(6)
C46 0.143(7) 0.102(6) 0.150(6) 0.008(5) 0.014(5) 0.000(5)
C47 0.176(8) 0.249(9) 0.244(10) -0.121(7) 0.033(7) -0.028(8)
C48 0.208(11) 0.248(14) 0.273(15) -0.120(12) -0.004(10) -0.024(12)
C49 0.191(8) 0.289(10) 0.265(10) -0.115(8) 0.064(7) -0.028(8)
C50 0.202(9) 0.313(11) 0.281(11) -0.103(8) 0.076(8) -0.025(9)
C51 0.204(10) 0.321(12) 0.293(11) -0.105(9) 0.085(9) -0.020(9)
C52 0.205(9) 0.314(13) 0.297(12) -0.109(10) 0.081(9) -0.022(9)
C53 0.203(9) 0.311(12) 0.299(12) -0.109(9) 0.082(9) -0.012(9)
C54 0.193(9) 0.299(11) 0.285(11) -0.110(9) 0.075(8) -0.016(8)
C55 0.220(8) 0.221(8) 0.220(8) -0.006(5) -0.005(5) -0.002(5)
C56 0.215(10) 0.207(10) 0.218(10) -0.017(8) 0.007(8) -0.014(8)
C57 0.203(8) 0.205(8) 0.203(7) 0.003(5) -0.008(5) -0.002(5)
C58 0.219(8) 0.213(8) 0.214(8) -0.001(5) -0.001(5) 0.000(5)
C59 0.265(10) 0.262(10) 0.265(10) 0.003(5) -0.001(5) -0.004(5)
C60 0.258(10) 0.260(10) 0.261(10) -0.002(5) -0.006(5) -0.005(5)
C61 0.426(18) 0.426(18) 0.425(18) 0.000(5) 0.001(5) 0.001(5)
C62 0.347(14) 0.345(14) 0.346(14) 0.000(5) -0.001(5) 0.004(5)
C63 0.110(5) 0.107(5) 0.100(5) -0.027(4) 0.001(4) -0.048(4)
C64 0.096(6) 0.130(8) 0.122(7) -0.017(6) -0.018(6) -0.036(5)
C65 0.144(6) 0.107(5) 0.133(6) -0.042(4) 0.009(5) -0.050(4)
C66 0.196(8) 0.137(6) 0.159(6) -0.059(5) 0.027(6) -0.052(6)
C67 0.225(9) 0.145(7) 0.189(7) -0.067(6) 0.038(7) -0.044(7)
C68 0.207(8) 0.137(7) 0.199(8) -0.049(6) 0.037(7) -0.044(7)
C69 0.192(8) 0.127(6) 0.202(7) -0.034(6) 0.042(7) -0.050(7)
C70 0.164(7) 0.114(6) 0.166(6) -0.027(5) 0.023(6) -0.049(6)
C71 0.113(5) 0.096(5) 0.121(5) -0.027(4) -0.006(4) 0.047(4)
C72 0.086(6) 0.141(8) 0.176(10) -0.029(7) -0.008(6) 0.042(5)
C73 0.160(6) 0.107(5) 0.145(6) -0.045(4) -0.031(5) 0.070(4)
C74 0.239(8) 0.133(6) 0.160(7) -0.057(5) -0.037(7) 0.066(6)
C75 0.261(9) 0.126(7) 0.172(7) -0.064(6) -0.046(7) 0.069(7)
C76 0.236(9) 0.126(7) 0.185(8) -0.048(6) -0.042(7) 0.079(7)
C77 0.215(8) 0.114(6) 0.189(7) -0.036(6) -0.039(7) 0.078(6)
C78 0.181(7) 0.104(6) 0.172(6) -0.026(5) -0.041(6) 0.081(6)
loop_
_atom_type_symbol
_atom_type_description
_atom_type_scat_dispersion_real
_atom_type_scat_dispersion_imag
_atom_type_scat_source
C C 0.0060 0.0030 'International Tables Vol C Tables 4.2.6.8 and 6.1.1.4'
H H 0.0000 0.0000 'International Tables Vol C Tables 4.2.6.8 and 6.1.1.4'
N N 0.0100 0.0050 'International Tables Vol C Tables 4.2.6.8 and 6.1.1.4'
O O 0.0180 0.0100 'International Tables Vol C Tables 4.2.6.8 and 6.1.1.4'
Zn Zn 0.0350 2.0980 'International Tables Vol C Tables 4.2.6.8 and 6.1.1.4'
loop_
_geom_angle_atom_site_label_1
_geom_angle_atom_site_label_2
_geom_angle_atom_site_label_3
_geom_angle
_geom_angle_site_symmetry_1
_geom_angle_site_symmetry_3
O1 Zn1 O11 113.5(3) . 3_655
O1 Zn1 O5 114.3(2) . .
O11 Zn1 O5 101.6(3) 3_655 .
O1 Zn1 O10 106.8(2) . .
O11 Zn1 O10 109.99(19) 3_655 .
O5 Zn1 O10 110.7(3) . .
O8 Zn2 O8 108.2(4) 8_454 7_554
O8 Zn2 O3 109.6(3) 8_454 .
O8 Zn2 O3 112.9(3) 7_554 .
O8 Zn2 O3 112.9(3) 8_454 2_565
O8 Zn2 O3 109.6(3) 7_554 2_565
O3 Zn2 O3 103.7(4) . 2_565
C1 O1 Zn1 119.5(6) . .
C10 O3 Zn2 119.8(5) . .
C11 O5 Zn1 121.3(5) . .
C20 O8 Zn2 119.1(6) . 7
C21 O10 Zn1 117.5(5) . .
C30 O11 Zn1 116.5(6) . 4_565
O1 C1 O2 121.3(8) . .
O1 C1 C2 122.7(8) . .
O2 C1 C2 115.9(8) . .
C8 C2 C3 112.1(6) . .
C8 C2 C1 109.4(6) . .
C3 C2 C1 113.4(7) . .
C8 C2 C7 108.3(7) . .
C3 C2 C7 106.2(6) . .
C1 C2 C7 107.2(6) . .
C2 C3 C4 107.9(6) . .
C2 C3 H3A 110.1 . .
C4 C3 H3A 110.1 . .
C2 C3 H3B 110.1 . .
C4 C3 H3B 110.1 . .
H3A C3 H3B 108.4 . .
N2 C4 C5 115.3(6) . .
N2 C4 C3 108.9(6) . .
C5 C4 C3 110.8(6) . .
N2 C4 H4A 107.1 . .
C5 C4 H4A 107.1 . .
C3 C4 H4A 107.1 . .
C6 C5 C4 108.3(6) . .
C6 C5 C10 115.8(7) . .
C4 C5 C10 107.7(6) . .
C6 C5 C9 113.9(7) . .
C4 C5 C9 102.5(6) . .
C10 C5 C9 107.7(6) . .
C5 C6 C7 110.1(7) . .
C5 C6 H6A 109.6 . .
C7 C6 H6A 109.6 . .
C5 C6 H6B 109.6 . .
C7 C6 H6B 109.6 . .
H6A C6 H6B 108.2 . .
C2 C7 C6 110.8(7) . .
C2 C7 H7A 109.5 . .
C6 C7 H7A 109.5 . .
C2 C7 H7B 109.5 . .
C6 C7 H7B 109.5 . .
H7A C7 H7B 108.1 . .
N1 C8 C2 116.6(7) . .
N1 C8 C9 110.8(6) . .
C2 C8 C9 112.9(6) . .
N1 C8 H8A 105.1 . .
C2 C8 H8A 105.1 . .
C9 C8 H8A 105.1 . .
C8 C9 C5 107.5(6) . .
C8 C9 H9A 110.2 . .
C5 C9 H9A 110.2 . .
C8 C9 H9B 110.2 . .
C5 C9 H9B 110.2 . .
H9A C9 H9B 108.5 . .
O4 C10 O3 125.7(7) . .
O4 C10 C5 116.9(8) . .
O3 C10 C5 117.4(7) . .
O5 C11 O6 120.7(7) . .
O5 C11 C12 122.3(8) . .
O6 C11 C12 116.8(7) . .
C13 C12 C11 112.6(6) . .
C13 C12 C17 111.2(7) . .
C11 C12 C17 114.1(6) . .
C13 C12 C19 104.1(7) . .
C11 C12 C19 105.1(7) . .
C17 C12 C19 108.9(6) . .
C12 C13 C14 109.5(6) . .
C12 C13 H13A 109.8 . .
C14 C13 H13A 109.8 . .
C12 C13 H13B 109.8 . .
C14 C13 H13B 109.8 . .
H13A C13 H13B 108.2 . .
N5 C14 C15 112.8(6) . .
N5 C14 C13 108.0(5) . .
C15 C14 C13 109.0(6) . .
N5 C14 H14A 109.0 . .
C15 C14 H14A 109.0 . .
C13 C14 H14A 109.0 . .
C18 C15 C14 110.7(6) . .
C18 C15 C16 112.5(6) . .
C14 C15 C16 103.8(6) . .
C18 C15 C20 111.0(7) . .
C14 C15 C20 110.1(6) . .
C16 C15 C20 108.5(6) . .
C17 C16 C15 109.0(6) . .
C17 C16 H16A 109.9 . .
C15 C16 H16A 109.9 . .
C17 C16 H16B 109.9 . .
C15 C16 H16B 109.9 . .
H16A C16 H16B 108.3 . .
N6 C17 C16 113.2(7) . .
N6 C17 C12 111.2(7) . .
C16 C17 C12 112.3(6) . .
N6 C17 H17A 106.6 . .
C16 C17 H17A 106.6 . .
C12 C17 H17A 106.6 . .
C15 C18 C19 110.4(7) . .
C15 C18 H18A 109.6 . .
C19 C18 H18A 109.6 . .
C15 C18 H18B 109.6 . .
C19 C18 H18B 109.6 . .
H18A C18 H18B 108.1 . .
C12 C19 C18 109.2(7) . .
C12 C19 H19A 109.8 . .
C18 C19 H19A 109.8 . .
C12 C19 H19B 109.8 . .
C18 C19 H19B 109.8 . .
H19A C19 H19B 108.3 . .
O7 C20 O8 126.2(9) . .
O7 C20 C15 123.5(9) . .
O8 C20 C15 110.3(8) . .
O9 C21 O10 127.2(8) . .
O9 C21 C22 120.4(9) . .
O10 C21 C22 112.1(8) . .
C23 C22 C27 108.9(7) . .
C23 C22 C28 107.3(7) . .
C27 C22 C28 110.4(7) . .
C23 C22 C21 114.5(7) . .
C27 C22 C21 109.8(6) . .
C28 C22 C21 105.9(6) . .
N3 C23 C22 110.8(6) . .
N3 C23 C24 113.4(8) . .
C22 C23 C24 111.3(7) . .
N3 C23 H23A 107.0 . .
C22 C23 H23A 107.0 . .
C24 C23 H23A 107.0 . .
C25 C24 C23 108.9(7) . .
C25 C24 H24A 109.9 . .
C23 C24 H24A 109.9 . .
C25 C24 H24B 109.9 . .
C23 C24 H24B 109.9 . .
H24A C24 H24B 108.3 . .
C29 C25 C24 110.0(7) . .
C29 C25 C26 108.5(8) . .
C24 C25 C26 109.2(8) . .
C29 C25 C30 111.0(7) . .
C24 C25 C30 106.4(6) . .
C26 C25 C30 111.8(6) . .
C27 C26 C25 111.5(6) . .
C27 C26 H26A 109.3 . .
C25 C26 H26A 109.3 . .
C27 C26 H26B 109.3 . .
C25 C26 H26B 109.3 . .
H26A C26 H26B 108.0 . .
C26 C27 C22 108.0(6) . .
C26 C27 H27A 110.1 . .
C22 C27 H27A 110.1 . .
C26 C27 H27B 110.1 . .
C22 C27 H27B 110.1 . .
H27A C27 H27B 108.4 . .
C22 C28 C29 110.6(7) . .
C22 C28 H28A 109.5 . .
C29 C28 H28A 109.5 . .
C22 C28 H28B 109.5 . .
C29 C28 H28B 109.5 . .
H28A C28 H28B 108.1 . .
N4 C29 C25 111.8(8) . .
N4 C29 C28 110.9(8) . .
C25 C29 C28 108.5(7) . .
N4 C29 H29A 108.5 . .
C25 C29 H29A 108.5 . .
C28 C29 H29A 108.5 . .
O11 C30 O12 127.5(8) . .
O11 C30 C25 115.6(8) . .
O12 C30 C25 116.9(8) . .
C71 N2 C4 117.4(7) . .
C71 N2 H2A 121.3 . .
C4 N2 H2A 121.3 . .
C31 N1 C8 117.5(8) . .
C31 N1 H1A 121.3 . .
C8 N1 H1A 121.3 . .
C29 N4 C47 119.6(12) . .
C29 N4 H4B 120.2 . .
C47 N4 H4B 120.2 . .
C55 N3 C23 116.7(9) . .
C55 N3 H3C 121.6 . .
C23 N3 H3C 121.6 . .
C63 N5 C14 113.8(6) . .
C63 N5 H5A 123.1 . .
C14 N5 H5A 123.1 . .
C17 N6 C39 115.6(7) . .
C17 N6 H6C 122.2 . .
C39 N6 H6C 122.2 . .
N1 C31 C33 108.3(7) . .
N1 C31 C32 108.6(8) . .
C33 C31 C32 117.1(7) . .
N1 C31 H31A 107.5 . .
C33 C31 H31A 107.5 . .
C32 C31 H31A 107.5 . .
C31 C32 H32A 109.5 . .
C31 C32 H32B 109.5 . .
H32A C32 H32B 109.5 . .
C31 C32 H32C 109.5 . .
H32A C32 H32C 109.5 . .
H32B C32 H32C 109.5 . .
C34 C33 C38 120.0 . .
C34 C33 C31 122.2(7) . .
C38 C33 C31 117.8(7) . .
C35 C34 C33 120.0 . .
C35 C34 H34A 120.0 . .
C33 C34 H34A 120.0 . .
C36 C35 C34 120.0 . .
C36 C35 H35A 120.0 . .
C34 C35 H35A 120.0 . .
C35 C36 C37 120.0 . .
C35 C36 H36A 120.0 . .
C37 C36 H36A 120.0 . .
C36 C37 C38 120.0 . .
C36 C37 H37A 120.0 . .
C38 C37 H37A 120.0 . .
C37 C38 C33 120.0 . .
C37 C38 H38A 120.0 . .
C33 C38 H38A 120.0 . .
C41 C39 C40 120.2(9) . .
C41 C39 N6 109.7(7) . .
C40 C39 N6 101.9(9) . .
C41 C39 H39A 108.2 . .
C40 C39 H39A 108.2 . .
N6 C39 H39A 108.2 . .
C39 C40 H40A 109.5 . .
C39 C40 H40B 109.5 . .
H40A C40 H40B 109.5 . .
C39 C40 H40C 109.5 . .
H40A C40 H40C 109.5 . .
H40B C40 H40C 109.5 . .
C42 C41 C46 120.0 . .
C42 C41 C39 122.6(7) . .
C46 C41 C39 117.4(7) . .
C43 C42 C41 120.0 . .
C43 C42 H42A 120.0 . .
C41 C42 H42A 120.0 . .
C42 C43 C44 120.0 . .
C42 C43 H43A 120.0 . .
C44 C43 H43A 120.0 . .
C45 C44 C43 120.0 . .
C45 C44 H44A 120.0 . .
C43 C44 H44A 120.0 . .
C44 C45 C46 120.0 . .
C44 C45 H45A 120.0 . .
C46 C45 H45A 120.0 . .
C45 C46 C41 120.0 . .
C45 C46 H46A 120.0 . .
C41 C46 H46A 120.0 . .
C49 C47 C48 111.8(14) . .
C49 C47 N4 108.3(13) . .
C48 C47 N4 112.6(15) . .
C49 C47 H47A 108.0 . .
C48 C47 H47A 108.0 . .
N4 C47 H47A 108.0 . .
C47 C48 H48A 109.5 . .
C47 C48 H48B 109.5 . .
H48A C48 H48B 109.5 . .
C47 C48 H48C 109.5 . .
H48A C48 H48C 109.5 . .
H48B C48 H48C 109.5 . .
C50 C49 C54 120.0 . .
C50 C49 C47 131.7(16) . .
C54 C49 C47 108.3(16) . .
C49 C50 C51 120.0 . .
C49 C50 H50A 120.0 . .
C51 C50 H50A 120.0 . .
C50 C51 C52 120.0 . .
C50 C51 H51A 120.0 . .
C52 C51 H51A 120.0 . .
C53 C52 C51 120.0 . .
C53 C52 H52A 120.0 . .
C51 C52 H52A 120.0 . .
C52 C53 C54 120.0 . .
C52 C53 H53A 120.0 . .
C54 C53 H53A 120.0 . .
C53 C54 C49 120.0 . .
C53 C54 H54A 120.0 . .
C49 C54 H54A 120.0 . .
N3 C55 C56 112.3(12) . .
N3 C55 C57 114.0(12) . .
C56 C55 C57 105.1(12) . .
N3 C55 H55A 108.4 . .
C56 C55 H55A 108.4 . .
C57 C55 H55A 108.4 . .
C55 C56 H56A 109.5 . .
C55 C56 H56B 109.5 . .
H56A C56 H56B 109.5 . .
C55 C56 H56C 109.5 . .
H56A C56 H56C 109.5 . .
H56B C56 H56C 109.5 . .
C58 C57 C62 120.0 . .
C58 C57 C55 132.2(15) . .
C62 C57 C55 106.7(15) . .
C57 C58 C59 120.0 . .
C57 C58 H58A 120.0 . .
C59 C58 H58A 120.0 . .
C58 C59 C60 120.0 . .
C58 C59 H59A 120.0 . .
C60 C59 H59A 120.0 . .
C61 C60 C59 120.0 . .
C61 C60 H60A 120.0 . .
C59 C60 H60A 120.0 . .
C60 C61 C62 120.0 . .
C60 C61 H61A 120.0 . .
C62 C61 H61A 120.0 . .
C61 C62 C57 120.0 . .
C61 C62 H62A 120.0 . .
C57 C62 H62A 120.0 . .
N5 C63 C65 110.2(8) . .
N5 C63 C64 111.2(7) . .
C65 C63 C64 115.5(7) . .
N5 C63 H63A 106.4 . .
C65 C63 H63A 106.4 . .
C64 C63 H63A 106.4 . .
C63 C64 H64A 109.5 . .
C63 C64 H64B 109.5 . .
H64A C64 H64B 109.5 . .
C63 C64 H64C 109.5 . .
H64A C64 H64C 109.5 . .
H64B C64 H64C 109.5 . .
C66 C65 C70 120.0 . .
C66 C65 C63 120.1(6) . .
C70 C65 C63 119.7(6) . .
C67 C66 C65 120.0 . .
C67 C66 H66A 120.0 . .
C65 C66 H66A 120.0 . .
C66 C67 C68 120.0 . .
C66 C67 H67A 120.0 . .
C68 C67 H67A 120.0 . .
C69 C68 C67 120.0 . .
C69 C68 H68A 120.0 . .
C67 C68 H68A 120.0 . .
C70 C69 C68 120.0 . .
C70 C69 H69A 120.0 . .
C68 C69 H69A 120.0 . .
C69 C70 C65 120.0 . .
C69 C70 H70A 120.0 . .
C65 C70 H70A 120.0 . .
N2 C71 C73 113.9(9) . .
N2 C71 C72 107.1(8) . .
C73 C71 C72 111.6(9) . .
N2 C71 H71A 108.0 . .
C73 C71 H71A 108.0 . .
C72 C71 H71A 108.0 . .
C71 C72 H72A 109.5 . .
C71 C72 H72B 109.5 . .
H72A C72 H72B 109.5 . .
C71 C72 H72C 109.5 . .
H72A C72 H72C 109.5 . .
H72B C72 H72C 109.5 . .
C74 C73 C78 120.0 . .
C74 C73 C71 118.5(6) . .
C78 C73 C71 121.3(6) . .
C75 C74 C73 120.0 . .
C75 C74 H74A 120.0 . .
C73 C74 H74A 120.0 . .
C76 C75 C74 120.0 . .
C76 C75 H75A 120.0 . .
C74 C75 H75A 120.0 . .
C75 C76 C77 120.0 . .
C75 C76 H76A 120.0 . .
C77 C76 H76A 120.0 . .
C78 C77 C76 120.0 . .
C78 C77 H77A 120.0 . .
C76 C77 H77A 120.0 . .
C77 C78 C73 120.0 . .
C77 C78 H78A 120.0 . .
C73 C78 H78A 120.0 . .
loop_
_geom_bond_atom_site_label_1
_geom_bond_atom_site_label_2
_geom_bond_distance
_geom_bond_site_symmetry_2
Zn1 O1 1.906(5) .
Zn1 O11 1.951(6) 3_655
Zn1 O5 1.967(5) .
Zn1 O10 1.991(5) .
Zn2 O8 1.914(5) 8_454
Zn2 O8 1.914(5) 7_554
Zn2 O3 1.921(6) .
Zn2 O3 1.921(5) 2_565
O1 C1 1.251(8) .
O2 C1 1.252(8) .
O3 C10 1.240(8) .
O4 C10 1.225(8) .
O5 C11 1.232(8) .
O6 C11 1.235(8) .
O7 C20 1.208(9) .
O8 C20 1.310(9) .
O8 Zn2 1.914(5) 7
O9 C21 1.267(10) .
O10 C21 1.298(10) .
O11 C30 1.258(9) .
O11 Zn1 1.951(6) 4_565
O12 C30 1.291(9) .
C1 C2 1.514(9) .
C2 C8 1.510(9) .
C2 C3 1.511(8) .
C2 C7 1.525(9) .
C3 C4 1.586(9) .
C3 H3A 0.9700 .
C3 H3B 0.9700 .
C4 N2 1.482(8) .
C4 C5 1.527(9) .
C4 H4A 0.9800 .
C5 C6 1.526(9) .
C5 C10 1.559(9) .
C5 C9 1.580(9) .
C6 C7 1.543(10) .
C6 H6A 0.9700 .
C6 H6B 0.9700 .
C7 H7A 0.9700 .
C7 H7B 0.9700 .
C8 N1 1.485(8) .
C8 C9 1.546(9) .
C8 H8A 0.9800 .
C9 H9A 0.9700 .
C9 H9B 0.9700 .
C11 C12 1.521(9) .
C12 C13 1.514(9) .
C12 C17 1.528(10) .
C12 C19 1.550(10) .
C13 C14 1.561(8) .
C13 H13A 0.9700 .
C13 H13B 0.9700 .
C14 N5 1.521(8) .
C14 C15 1.531(8) .
C14 H14A 0.9800 .
C15 C18 1.501(9) .
C15 C16 1.535(8) .
C15 C20 1.553(10) .
C16 C17 1.525(9) .
C16 H16A 0.9700 .
C16 H16B 0.9700 .
C17 N6 1.470(8) .
C17 H17A 0.9800 .
C18 C19 1.567(10) .
C18 H18A 0.9700 .
C18 H18B 0.9700 .
C19 H19A 0.9700 .
C19 H19B 0.9700 .
C21 C22 1.581(10) .
C22 C23 1.516(10) .
C22 C27 1.533(9) .
C22 C28 1.533(9) .
C23 N3 1.515(10) .
C23 C24 1.523(9) .
C23 H23A 0.9800 .
C24 C25 1.510(10) .
C24 H24A 0.9700 .
C24 H24B 0.9700 .
C25 C29 1.504(10) .
C25 C26 1.555(9) .
C25 C30 1.571(10) .
C26 C27 1.515(8) .
C26 H26A 0.9700 .
C26 H26B 0.9700 .
C27 H27A 0.9700 .
C27 H27B 0.9700 .
C28 C29 1.549(10) .
C28 H28A 0.9700 .
C28 H28B 0.9700 .
C29 N4 1.444(11) .
C29 H29A 0.9800 .
N2 C71 1.472(10) .
N2 H2A 0.8600 .
N1 C31 1.473(11) .
N1 H1A 0.8600 .
N4 C47 1.504(17) .
N4 H4B 0.8600 .
N3 C55 1.502(13) .
N3 H3C 0.8600 .
N5 C63 1.494(10) .
N5 H5A 0.8600 .
N6 C39 1.573(11) .
N6 H6C 0.8600 .
C31 C33 1.507(11) .
C31 C32 1.567(10) .
C31 H31A 0.9800 .
C32 H32A 0.9600 .
C32 H32B 0.9600 .
C32 H32C 0.9600 .
C33 C34 1.3900 .
C33 C38 1.3900 .
C34 C35 1.3900 .
C34 H34A 0.9300 .
C35 C36 1.3900 .
C35 H35A 0.9300 .
C36 C37 1.3900 .
C36 H36A 0.9300 .
C37 C38 1.3900 .
C37 H37A 0.9300 .
C38 H38A 0.9300 .
C39 C41 1.441(11) .
C39 C40 1.508(11) .
C39 H39A 0.9800 .
C40 H40A 0.9600 .
C40 H40B 0.9600 .
C40 H40C 0.9600 .
C41 C42 1.3900 .
C41 C46 1.3900 .
C42 C43 1.3900 .
C42 H42A 0.9300 .
C43 C44 1.3900 .
C43 H43A 0.9300 .
C44 C45 1.3900 .
C44 H44A 0.9300 .
C45 C46 1.3900 .
C45 H45A 0.9300 .
C46 H46A 0.9300 .
C47 C49 1.443(17) .
C47 C48 1.490(15) .
C47 H47A 0.9800 .
C48 H48A 0.9600 .
C48 H48B 0.9600 .
C48 H48C 0.9600 .
C49 C50 1.3900 .
C49 C54 1.3900 .
C50 C51 1.3900 .
C50 H50A 0.9300 .
C51 C52 1.3900 .
C51 H51A 0.9300 .
C52 C53 1.3900 .
C52 H52A 0.9300 .
C53 C54 1.3900 .
C53 H53A 0.9300 .
C54 H54A 0.9300 .
C55 C56 1.585(14) .
C55 C57 1.595(13) .
C55 H55A 0.9800 .
C56 H56A 0.9600 .
C56 H56B 0.9600 .
C56 H56C 0.9600 .
C57 C58 1.3900 .
C57 C62 1.3900 .
C58 C59 1.3900 .
C58 H58A 0.9300 .
C59 C60 1.3900 .
C59 H59A 0.9300 .
C60 C61 1.3900 .
C60 H60A 0.9300 .
C61 C62 1.3900 .
C61 H61A 0.9300 .
C62 H62A 0.9300 .
C63 C65 1.532(10) .
C63 C64 1.536(11) .
C63 H63A 0.9800 .
C64 H64A 0.9600 .
C64 H64B 0.9600 .
C64 H64C 0.9600 .
C65 C66 1.3900 .
C65 C70 1.3900 .
C66 C67 1.3900 .
C66 H66A 0.9300 .
C67 C68 1.3900 .
C67 H67A 0.9300 .
C68 C69 1.3900 .
C68 H68A 0.9300 .
C69 C70 1.3900 .
C69 H69A 0.9300 .
C70 H70A 0.9300 .
C71 C73 1.474(10) .
C71 C72 1.548(11) .
C71 H71A 0.9800 .
C72 H72A 0.9600 .
C72 H72B 0.9600 .
C72 H72C 0.9600 .
C73 C74 1.3900 .
C73 C78 1.3900 .
C74 C75 1.3900 .
C74 H74A 0.9300 .
C75 C76 1.3900 .
C75 H75A 0.9300 .
C76 C77 1.3900 .
C76 H76A 0.9300 .
C77 C78 1.3900 .
C77 H77A 0.9300 .
C78 H78A 0.9300 .
loop_
_geom_hbond_atom_site_label_D
_geom_hbond_atom_site_label_H
_geom_hbond_atom_site_label_A
_geom_hbond_distance_DH
_geom_hbond_distance_HA
_geom_hbond_distance_DA
_geom_hbond_angle_DHA
_geom_hbond_site_symmetry_A
N2 H2A O7 0.86 2.34 2.868(9) 120.0 7_554
N4 H4B O9 0.86 2.37 2.925(13) 122.6 4_565
N3 H3C O12 0.86 2.33 2.891(10) 123.3 3_655
N5 H5A O4 0.86 2.42 2.905(8) 116.6 8_455
C31 H31A O6 0.98 2.38 3.336(13) 164.2 .
C39 H39A O2 0.98 2.39 3.321(13) 159.0 .
C48 H48A O9 0.96 2.62 3.348(17) 132.8 4_565
C72 H72B O7 0.96 2.44 3.210(14) 136.7 7_554
loop_
_platon_squeeze_void_nr
_platon_squeeze_void_average_x
_platon_squeeze_void_average_y
_platon_squeeze_void_average_z
_platon_squeeze_void_volume
_platon_squeeze_void_count_electrons
_platon_squeeze_void_content
1 -0.005 0.000 0.010 14536 3260 ' '
2 0.000 0.500 0.884 107 32 ' '
3 0.000 0.500 0.384 107 32 ' '
4 0.078 0.418 0.139 25 2 ' '
5 0.082 0.578 0.639 25 3 ' '
6 0.418 0.922 0.139 25 2 ' '
7 0.422 0.082 0.639 25 3 ' '
8 0.500 0.000 0.884 107 32 ' '
9 0.500 0.000 0.384 107 32 ' '
10 0.578 0.918 0.639 25 2 ' '
11 0.582 0.078 0.139 25 3 ' '
12 0.918 0.422 0.639 25 2 ' '
13 0.922 0.582 0.139 25 3 ' '
