#------------------------------------------------------------------------------
#$Date: 2017-05-04 04:48:37 +0300 (Thu, 04 May 2017) $
#$Revision: 195950 $
#$URL: file:///home/coder/svn-repositories/cod/cif/7/22/81/7228185.cif $
#------------------------------------------------------------------------------
#
# This file is available in the Crystallography Open Database (COD),
# http://www.crystallography.net/
#
# All data on this site have been placed in the public domain by the
# contributors.
#
data_7228185
loop_
_publ_author_name
'Matoga, Dariusz'
'Roztocki, Kornel'
'Wilke, Manuel'
'Emmerling, Franziska'
'Oszajca, Marcin'
'Fitta, Magdalena'
'Ba\/landa, Maria'
_publ_section_title
;
 Crystalline Bilayers Unzipped and Rezipped: Solid-State Reaction Cycle of
 a Metal-Organic Framework with Triple Rearrangement of Intralayer Bonds
;
_journal_name_full               CrystEngComm
_journal_paper_doi               10.1039/C7CE00655A
_journal_year                    2017
_chemical_formula_moiety         {[Mn2(C6H4NO2)2(C6H5NO2)2(NCS)2]}n
_chemical_formula_sum            'C13 H8 Mn N3 O4 S'
_chemical_formula_weight         357.2
_chemical_name_systematic        ' ?'
_space_group_IT_number           14
_symmetry_cell_setting           monoclinic
_symmetry_Int_Tables_number      14
_symmetry_space_group_name_Hall  '-P 2yn'
_symmetry_space_group_name_H-M   'P 1 21/n 1'
_audit_update_record
;
2016-11-18 deposited with the CCDC.
2017-05-03 downloaded from the CCDC.
;
_cell_angle_alpha                90
_cell_angle_beta                 97.272(3)
_cell_angle_gamma                90
_cell_formula_units_Z            4
_cell_length_a                   12.4443(6)
_cell_length_b                   13.9144(7)
_cell_length_c                   8.8461(3)
_cell_measurement_temperature    453
_cell_volume                     1519.43(12)
_diffrn_ambient_temperature      453
_diffrn_measurement_device_type  'Panalytical X'PERT PRO MPD'
_diffrn_radiation_probe          x-ray
_diffrn_radiation_wavelength     1.5418
_exptl_absorpt_coefficient_mu    8.55
_exptl_crystal_density_diffrn    1.5616
_exptl_crystal_F_000             720
_exptl_crystal_recrystallization_method
'thermally-induced solid-state reaction'
_pd_instr_location               ' ?'
_pd_meas_2theta_range_inc        0.02
_pd_meas_2theta_range_max        84.980
_pd_meas_2theta_range_min        6.000
_pd_meas_number_of_points        3950
_pd_prep_temperature             453
_pd_proc_2theta_range_inc        0.02
_pd_proc_2theta_range_max        84.98
_pd_proc_2theta_range_min        8.02
_pd_proc_ls_background_function
'Manual background combined with 15 Legendre polynoms'
_pd_proc_ls_pref_orient_corr     'March & Dollase'
_pd_proc_ls_profile_function     Pseudo-Voigt
_pd_proc_ls_prof_R_factor        0.0453
_pd_proc_ls_prof_wR_expected     0.0158
_pd_proc_ls_prof_wR_factor       0.0687
_refine_ls_goodness_of_fit_all   4.36
_refine_ls_hydrogen_treatment    constr
_refine_ls_number_constraints    0
_refine_ls_number_parameters     95
_refine_ls_number_restraints     29
_refine_ls_R_factor_all          0.0847
_refine_ls_R_factor_gt           0.0748
_refine_ls_shift/su_max          0.0482
_refine_ls_shift/su_mean         0.0083
_refine_ls_weighting_scheme      sigma
_refine_ls_wR_factor_all         0.0749
_refine_ls_wR_factor_gt          0.0741
_cod_data_source_file            c7ce00655a2.cif
_cod_data_source_block           I
_cod_depositor_comments
;
The following automatic conversions were performed:

'_diffrn_radiation_probe' value 'X-ray' changed to 'x-ray' according
to
/home/data/users/saulius/crontab/automatic-downloads/rss-feeds/RSC/lib/dictionaries/cif_core.dic
dictionary named 'cif_core.dic' version 2.4.2 from 2011-04-26.

Automatic conversion script
Id: cif_fix_values 4973 2017-02-22 13:04:09Z antanas 
;
_cod_original_cell_volume        1519.42(12)
_cod_original_sg_symbol_Hall     '-P 2yabc'
_cod_original_formula_sum        'C13 H8 Mn1 N3 O4 S1'
_cod_database_code               7228185
loop_
_space_group_symop_id
_space_group_symop_operation_xyz
1 x,y,z
2 -x+1/2,y+1/2,-z+1/2
3 -x,-y,-z
4 x+1/2,-y+1/2,z+1/2
loop_
_atom_site_label
_atom_site_type_symbol
_atom_site_fract_x
_atom_site_fract_y
_atom_site_fract_z
_atom_site_adp_type
_atom_site_U_iso_or_equiv
_atom_site_site_symmetry_multiplicity
_atom_site_occupancy
_atom_site_calc_flag
Mn1 Mn 0.3711(6) 0.0458(5) 0.0647(8) Uiso 0.065(4) 4 1 d
S1 S 0.5655(10) 0.4975(9) 0.8522(16) Uiso 0.162(6) 4 1 d
C13 C 0.637(3) 0.4894(12) 0.773(5) Uiso 0.162(6) 4 1 d
N3 N 0.733(2) 0.4782(18) 0.667(3) Uiso 0.162(6) 4 1 d
O1 O 1.0454(14) 0.4564(14) 0.262(2) Uiso 0.066(6) 4 1 d
C1 C 1.0606(13) 0.3676(12) 0.2285(12) Uiso 0.058(5) 4 1 d
O2 O 1.1451(16) 0.3191(12) 0.282(2) Uiso 0.066(6) 4 1 d
C2 C 0.9767(19) 0.3195(19) 0.1238(14) Uiso 0.058(5) 4 1 d
C3 C 0.9983(13) 0.224(2) 0.099(2) Uiso 0.058(5) 4 1 d
C4 C 0.926(2) 0.1691(8) 0.002(3) Uiso 0.058(5) 4 1 d
N1 N 0.8341(18) 0.212(2) -0.0663(16) Uiso 0.058(5) 4 1 d
C5 C 0.8100(14) 0.306(2) -0.045(2) Uiso 0.058(5) 4 1 d
C6 C 0.883(3) 0.3610(8) 0.052(3) Uiso 0.058(5) 4 1 d
H1c3 H 1.063396 0.194685 0.148749 Uiso 0.0693 4 1 d
H1c4 H 0.939537 0.1025 -0.015887 Uiso 0.0693 4 1 d
H1c5 H 0.744568 0.334164 -0.095275 Uiso 0.0693 4 1 d
H1c6 H 0.867666 0.427522 0.069167 Uiso 0.0693 4 1 d
O3 O 0.3379(14) 0.9482(15) 0.8847(19) Uiso 0.066(6) 4 1 d
C7 C 0.3908(14) 0.8719(10) 0.8465(13) Uiso 0.058(5) 4 1 d
O4 O 0.4925(16) 0.8550(10) 0.889(2) Uiso 0.066(6) 4 1 d
C8 C 0.3303(19) 0.8019(17) 0.7495(17) Uiso 0.058(5) 4 1 d
C9 C 0.3664(12) 0.707(2) 0.759(2) Uiso 0.058(5) 4 1 d
C10 C 0.311(2) 0.6369(11) 0.668(3) Uiso 0.058(5) 4 1 d
N2 N 0.2227(19) 0.665(2) 0.572(2) Uiso 0.058(5) 4 1 d
C11 C 0.1839(12) 0.756(2) 0.5585(18) Uiso 0.058(5) 4 1 d
C12 C 0.239(2) 0.8263(11) 0.649(3) Uiso 0.058(5) 4 1 d
H1c9 H 0.429404 0.690416 0.827948 Uiso 0.0693 4 1 d
H1c10 H 0.334834 0.571145 0.672705 Uiso 0.0693 4 1 d
H1c11 H 0.120765 0.77146 0.4887 Uiso 0.0693 4 1 d
H1c12 H 0.214176 0.891702 0.642888 Uiso 0.0693 4 1 d
loop_
_atom_type_symbol
_atom_type_scat_dispersion_real
_atom_type_scat_dispersion_imag
_atom_type_scat_source
C 0.0181 0.0091 'International Tables Vol C tables 4.2.6.8 and 6.1.1.1'
H 0.0000 0.0000 'International Tables Vol C tables 4.2.6.8 and 6.1.1.1'
Mn -0.5299 2.8052 'International Tables Vol C tables 4.2.6.8 and 6.1.1.1'
N 0.0311 0.0180 'International Tables Vol C tables 4.2.6.8 and 6.1.1.1'
O 0.0492 0.0322 'International Tables Vol C tables 4.2.6.8 and 6.1.1.1'
S 0.3331 0.5567 'International Tables Vol C tables 4.2.6.8 and 6.1.1.1'
loop_
_geom_angle_atom_site_label_1
_geom_angle_atom_site_label_2
_geom_angle_atom_site_label_3
_geom_angle_site_symmetry_1
_geom_angle_site_symmetry_3
_geom_angle
N3 Mn1 O1 4_454 2_645 87.0(9)
N3 Mn1 O3 4_454 1_544 97.7(9)
N3 Mn1 O4 4_454 3_666 133.5(10)
O1 Mn1 O3 2_645 1_544 101.5(8)
O1 Mn1 O4 2_645 3_666 86.4(7)
O3 Mn1 O4 1_544 3_666 128.7(8)
Mn1 O1 C1 2_655 . 130.5(13)
O1 C1 O2 . . 123.7(15)
O1 C1 C2 . . 117.9(17)
O2 C1 C2 . . 118.4(17)
C1 C2 C3 . . 113.8(18)
C1 C2 C6 . . 126(2)
C3 C2 C6 . . 119.9(18)
C2 C3 C4 . . 120.0(18)
C2 C3 H1c3 . . 120.02
C4 C3 H1c3 . . 120.02
C3 C4 N1 . . 118.4(18)
C3 C4 H1c4 . . 120.78
N1 C4 H1c4 . . 120.78
C4 N1 C5 . . 123.3(19)
N1 C5 C6 . . 118.4(18)
N1 C5 H1c5 . . 120.82
C6 C5 H1c5 . . 120.82
C2 C6 C5 . . 120.0(17)
C2 C6 H1c6 . . 120.02
C5 C6 H1c6 . . 120.02
Mn1 O3 C7 1_566 . 131.4(12)
O3 C7 O4 . . 125.1(15)
O3 C7 C8 . . 117.2(17)
O4 C7 C8 . . 117.8(16)
Mn1 O4 C7 3_666 . 130.3(12)
C7 C8 C9 . . 117.6(17)
C7 C8 C12 . . 122.4(19)
C9 C8 C12 . . 120.0(18)
C8 C9 C10 . . 120.0(17)
C8 C9 H1c9 . . 120
C10 C9 H1c9 . . 120
C9 C10 N2 . . 117(2)
C9 C10 H1c10 . . 121.25
N2 C10 H1c10 . . 121.25
C10 N2 C11 . . 125(2)
N2 C11 C12 . . 117.5(17)
N2 C11 H1c11 . . 121.24
C12 C11 H1c11 . . 121.24
C8 C12 C11 . . 120.0(19)
C8 C12 H1c12 . . 120.01
C11 C12 H1c12 . . 120.01
loop_
_geom_bond_atom_site_label_1
_geom_bond_atom_site_label_2
_geom_bond_site_symmetry_2
_geom_bond_distance
Mn1 N3 4_454 2.07(3)
Mn1 O1 2_645 2.138(19)
Mn1 O3 1_544 2.09(2)
Mn1 O4 3_666 2.186(19)
S1 C13 . 1.21(4)
O1 C1 . 1.29(3)
C1 O2 . 1.29(2)
C1 C2 . 1.47(2)
C2 C3 . 1.38(4)
C2 C6 . 1.38(3)
C3 C4 . 1.39(3)
C3 H1c3 . 0.96
C4 N1 . 1.36(3)
C4 H1c4 . 0.96
N1 C5 . 1.36(4)
C5 C6 . 1.39(3)
C5 H1c5 . 0.96
C6 H1c6 . 0.96
O3 C7 . 1.32(2)
C7 O4 . 1.30(3)
C7 C8 . 1.45(2)
C8 C9 . 1.39(4)
C8 C12 . 1.39(3)
C9 C10 . 1.39(3)
C9 H1c9 . 0.96
C10 N2 . 1.36(3)
C10 H1c10 . 0.96
N2 C11 . 1.36(4)
C11 C12 . 1.39(3)
C11 H1c11 . 0.96
C12 H1c12 . 0.96
loop_
_geom_hbond_atom_site_label_D
_geom_hbond_atom_site_label_H
_geom_hbond_atom_site_label_A
_geom_hbond_site_symmetry_A
_geom_hbond_distance_DH
_geom_hbond_distance_HA
_geom_hbond_distance_DA
_geom_hbond_angle_DHA
C3 H1c3 O2 . 0.96 2.26 2.64(3) 102.46
C9 H1c9 O4 . 0.96 2.46 2.75(3) 97.20
C11 H1c11 O4 4_464 0.96 2.46 3.07(3) 120.75
loop_
_pd_proc_point_id
_pd_proc_2theta_corrected
_pd_proc_intensity_net
_pd_calc_intensity_net
_pd_proc_ls_weight
1 7.9900 3570.10 3666.21 59.80
2 8.0100 3649.30 3668.25 60.40
3 8.0300 3620.20 3670.22 60.20
4 8.0500 3581.70 3672.11 59.80
5 8.0700 3563.50 3673.93 59.70
6 8.0900 3575.60 3675.68 59.80
7 8.1100 3496.50 3677.35 59.10
8 8.1300 3457.60 3678.96 58.80
9 8.1500 3483.20 3680.49 59.00
10 8.1700 3582.90 3681.95 59.90
11 8.1900 3597.40 3683.35 60.00
12 8.2100 3574.80 3684.67 59.80
13 8.2300 3565.20 3685.93 59.70
14 8.2500 3619.90 3687.12 60.20
15 8.2700 3509.50 3688.25 59.20
16 8.2900 3529.60 3689.31 59.40
17 8.3100 3558.30 3690.30 59.70
18 8.3300 3507.90 3691.23 59.20
19 8.3500 3436.30 3692.10 58.60
20 8.3700 3533.90 3692.90 59.40
21 8.3900 3616.60 3693.65 60.10
22 8.4100 3602.30 3694.33 60.00
23 8.4300 3513.10 3694.95 59.30
24 8.4500 3537.50 3695.51 59.50
25 8.4700 3598.60 3696.01 60.00
26 8.4900 3651.10 3696.45 60.40
27 8.5100 3620.70 3696.83 60.20
28 8.5300 3588.90 3697.16 59.90
29 8.5500 3654.00 3697.43 60.40
30 8.5700 3768.80 3697.64 61.40
31 8.5900 3811.50 3697.80 61.70
32 8.6100 3776.70 3697.90 61.50
33 8.6300 3810.30 3697.95 61.70
34 8.6500 3866.60 3697.94 62.20
35 8.6700 3877.90 3697.88 62.30
36 8.6900 3838.30 3697.77 62.00
37 8.7100 3820.20 3697.61 61.80
38 8.7300 3799.30 3742.59 61.60
39 8.7500 3767.20 3744.75 61.40
40 8.7700 3883.00 3770.39 62.30
41 8.7900 3879.50 3774.14 62.30
42 8.8100 3827.10 3778.20 61.90
43 8.8300 3784.80 3782.61 61.50
44 8.8500 3896.80 3787.42 62.40
45 8.8700 3956.30 3792.69 62.90
46 8.8900 3972.40 3798.49 63.00
47 8.9100 3966.00 3804.89 63.00
48 8.9300 3998.80 3811.99 63.20
49 8.9500 4066.00 3819.89 63.80
50 8.9700 4145.20 3828.74 64.40
51 8.9900 4195.70 3838.67 64.80
52 9.0100 4141.70 3849.89 64.40
53 9.0300 4294.20 3862.62 65.50
54 9.0500 4380.20 3877.14 66.20
55 9.0700 4457.50 3893.80 66.80
56 9.0900 4628.80 3913.05 68.00
57 9.1100 4673.10 3935.43 68.40
58 9.1300 4709.80 3961.66 68.60
59 9.1500 4741.30 3992.66 68.90
60 9.1700 4772.00 4029.67 69.10
61 9.1900 4845.10 4074.32 69.60
62 9.2100 4872.50 4128.89 69.80
63 9.2300 4856.20 4196.60 69.70
64 9.2500 4851.50 4282.16 69.70
65 9.2700 5220.80 4393.38 72.30
66 9.2900 5491.90 4546.67 74.10
67 9.3100 6047.70 4786.00 77.80
68 9.3300 6944.10 5230.35 83.30
69 9.3500 7922.80 6147.16 89.00
70 9.3700 9422.50 7988.87 97.10
71 9.3900 11259.70 11254.60 106.10
72 9.4100 13600.60 16057.90 116.60
73 9.4300 16893.00 21845.20 130.00
74 9.4500 21622.00 27444.10 147.00
75 9.4700 27592.80 32218.70 166.10
76 9.4900 35308.30 37007.80 187.90
77 9.5100 45450.50 42504.30 213.20
78 9.5300 54769.30 47784.60 234.00
79 9.5500 56294.50 50224.10 237.30
80 9.5700 49719.90 46478.90 223.00
81 9.5900 35506.50 36397.60 188.40
82 9.6100 22224.20 24362.40 149.10
83 9.6300 13963.70 14863.10 118.20
84 9.6500 9329.70 9284.26 96.60
85 9.6700 7307.10 6642.68 85.50
86 9.6900 6378.70 5518.71 79.90
87 9.7100 5682.40 5003.96 75.40
88 9.7300 5062.90 4710.96 71.20
89 9.7500 4513.40 4511.16 67.20
90 9.7700 4223.30 4362.90 65.00
91 9.7900 3969.50 4248.66 63.00
92 9.8100 3839.50 4158.46 62.00
93 9.8300 3787.80 4085.84 61.50
94 9.8500 3664.40 4026.38 60.50
95 9.8700 3590.60 3976.97 59.90
96 9.8900 3552.00 3935.36 59.60
97 9.9100 3551.60 3899.91 59.60
98 9.9300 3595.00 3869.38 60.00
99 9.9500 3478.50 3842.83 59.00
100 9.9700 3497.60 3819.54 59.10
101 9.9900 3530.40 3798.94 59.40
102 10.0100 3458.60 3780.58 58.80
103 10.0300 3422.10 3764.09 58.50
104 10.0500 3373.40 3749.20 58.10
105 10.0700 3342.60 3735.65 57.80
106 10.0900 3336.50 3723.27 57.80
107 10.1100 3259.50 3711.88 57.10
108 10.1300 3298.60 3701.35 57.40
109 10.1500 3289.60 3691.58 57.40
110 10.1700 3213.10 3682.46 56.70
111 10.1900 3251.10 3673.91 57.00
112 10.2100 3248.00 3665.87 57.00
113 10.2300 3275.50 3658.28 57.20
114 10.2500 3326.90 3599.39 57.70
115 10.2700 3344.40 3595.28 57.80
116 10.2900 3305.90 3566.75 57.50
117 10.3100 3289.40 3564.10 57.40
118 10.3300 3272.80 3561.43 57.20
119 10.3500 3208.10 3558.74 56.60
120 10.3700 3255.40 3556.05 57.10
121 10.3900 3363.30 3553.33 58.00
122 10.4100 3379.30 3550.61 58.10
123 10.4300 3168.80 3547.87 56.30
124 10.4500 3230.50 3545.12 56.80
125 10.4700 3215.30 3542.36 56.70
126 10.4900 3214.40 3539.58 56.70
127 10.5100 3273.20 3536.80 57.20
128 10.5300 3264.90 3534.00 57.10
129 10.5500 3299.70 3531.19 57.40
130 10.5700 3291.10 3528.37 57.40
131 10.5900 3231.90 3525.54 56.80
132 10.6100 3250.90 3522.70 57.00
133 10.6300 3276.30 3519.85 57.20
134 10.6500 3335.30 3513.95 57.80
135 10.6700 3384.10 3508.04 58.20
136 10.6900 3285.10 3502.12 57.30
137 10.7100 3380.40 3496.19 58.10
138 10.7300 3409.80 3490.26 58.40
139 10.7500 3386.00 3484.31 58.20
140 10.7700 3386.00 3483.72 58.20
141 10.7900 3369.90 3478.04 58.10
142 10.8100 3358.10 3475.12 57.90
143 10.8300 3369.80 3469.62 58.00
144 10.8500 3420.60 3464.16 58.50
145 10.8700 3353.60 3458.74 57.90
146 10.8900 3307.60 3453.37 57.50
147 10.9100 3281.40 3448.04 57.30
148 10.9300 3279.80 3442.78 57.30
149 10.9500 3363.60 3437.59 58.00
150 10.9700 3404.10 3432.47 58.30
151 10.9900 3415.50 3427.45 58.40
152 11.0100 3416.00 3422.54 58.40
153 11.0300 3465.50 3417.75 58.90
154 11.0500 3441.80 3413.10 58.70
155 11.0700 3494.50 3408.63 59.10
156 11.0900 3602.20 3462.98 60.00
157 11.1100 3588.50 3490.42 59.90
158 11.1300 3584.30 3491.59 59.90
159 11.1500 3554.00 3493.51 59.60
160 11.1700 3502.90 3496.33 59.20
161 11.1900 3449.60 3500.18 58.70
162 11.2100 3594.00 3505.27 59.90
163 11.2300 3615.00 3511.84 60.10
164 11.2500 3593.10 3520.21 59.90
165 11.2700 3640.10 3530.79 60.30
166 11.2900 3736.90 3544.17 61.10
167 11.3100 3902.20 3561.17 62.50
168 11.3300 4058.10 3583.11 63.70
169 11.3500 4151.10 3612.68 64.40
170 11.3700 4234.90 3656.49 65.10
171 11.3900 4486.40 3730.59 67.00
172 11.4100 4661.80 3867.86 68.30
173 11.4300 4688.60 4120.55 68.50
174 11.4500 4790.70 4544.88 69.20
175 11.4700 5180.20 5158.65 72.00
176 11.4900 5794.20 5924.25 76.10
177 11.5100 6588.30 6734.68 81.20
178 11.5300 7479.40 7500.47 86.50
179 11.5500 8455.10 8219.70 92.00
180 11.5700 9066.70 8766.80 95.20
181 11.5900 9181.60 8846.60 95.80
182 11.6100 8678.90 8249.35 93.20
183 11.6300 7761.40 7205.68 88.10
184 11.6500 7130.10 6197.04 84.40
185 11.6700 6960.10 5585.85 83.40
186 11.6900 7393.30 5497.92 86.00
187 11.7100 8699.50 6009.92 93.30
188 11.7300 10773.20 7381.23 103.80
189 11.7500 13567.10 10122.40 116.50
190 11.7700 17099.80 14777.80 130.80
191 11.7900 22357.90 21433.10 149.50
192 11.8100 28446.10 29586.50 168.70
193 11.8300 35778.70 37972.50 189.20
194 11.8500 44169.40 45819.90 210.20
195 11.8700 51267.50 52707.80 226.40
196 11.8900 53987.70 56610.60 232.40
197 11.9100 51306.40 54332.10 226.50
198 11.9300 43414.40 44903.70 208.40
199 11.9500 31996.60 31986.20 178.90
200 11.9700 22346.70 20300.20 149.50
201 11.9900 15063.00 12424.80 122.70
202 12.0100 10152.00 8149.56 100.80
203 12.0300 7423.20 6127.78 86.20
204 12.0500 6033.10 5188.54 77.70
205 12.0700 5171.70 4690.69 71.90
206 12.0900 4670.80 4373.04 68.30
207 12.1100 4384.50 4144.23 66.20
208 12.1300 4083.70 3969.81 63.90
209 12.1500 3895.60 3832.79 62.40
210 12.1700 3782.20 3722.79 61.50
211 12.1900 3706.80 3632.86 60.90
212 12.2100 3630.60 3558.16 60.30
213 12.2300 3558.40 3495.24 59.70
214 12.2500 3499.30 3441.60 59.20
215 12.2700 3453.50 3405.33 58.80
216 12.2900 3389.60 3370.41 58.20
217 12.3100 3385.00 3330.12 58.20
218 12.3300 3375.10 3297.18 58.10
219 12.3500 3337.80 3270.86 57.80
220 12.3700 3269.30 3247.59 57.20
221 12.3900 3251.40 3227.03 57.00
222 12.4100 3225.20 3209.09 56.80
223 12.4300 3215.70 3193.35 56.70
224 12.4500 3302.50 3180.07 57.50
225 12.4700 3189.20 3169.45 56.50
226 12.4900 3139.90 3162.73 56.00
227 12.5100 3144.20 3162.91 56.10
228 12.5300 3154.90 3175.91 56.20
229 12.5500 3236.10 3210.67 56.90
230 12.5700 3291.20 3277.26 57.40
231 12.5900 3317.70 3381.77 57.60
232 12.6100 3330.40 3525.62 57.70
233 12.6300 3612.90 3643.53 60.10
234 12.6500 3867.50 3793.48 62.20
235 12.6700 4110.10 3935.52 64.10
236 12.6900 4299.10 4006.89 65.60
237 12.7100 4069.10 3960.40 63.80
238 12.7300 3794.90 3786.58 61.60
239 12.7500 3512.20 3550.50 59.30
240 12.7700 3269.60 3335.11 57.20
241 12.7900 3207.90 3191.97 56.60
242 12.8100 3090.80 3122.12 55.60
243 12.8300 3134.80 3104.23 56.00
244 12.8500 3275.30 3121.11 57.20
245 12.8700 3259.30 3172.31 57.10
246 12.8900 3495.50 3281.23 59.10
247 12.9100 3786.60 3500.00 61.50
248 12.9300 4203.70 3907.47 64.80
249 12.9500 4876.20 4590.29 69.80
250 12.9700 5839.90 5594.09 76.40
251 12.9900 7117.10 6926.68 84.40
252 13.0100 8493.70 8509.75 92.20
253 13.0300 9765.60 9979.52 98.80
254 13.0500 10962.80 11042.40 104.70
255 13.0700 11271.70 11377.40 106.20
256 13.0900 10589.40 10627.70 102.90
257 13.1100 8940.40 8946.15 94.60
258 13.1300 6980.00 6961.26 83.50
259 13.1500 5404.30 5288.89 73.50
260 13.1700 4353.60 4206.73 66.00
261 13.1900 3794.60 3626.70 61.60
262 13.2100 3362.80 3345.47 58.00
263 13.2300 3209.20 3196.97 56.60
264 13.2500 3080.00 3094.57 55.50
265 13.2700 2934.00 3010.79 54.20
266 13.2900 2807.60 2941.33 53.00
267 13.3100 2737.20 2888.27 52.30
268 13.3300 2677.40 2849.27 51.70
269 13.3500 2608.80 2820.07 51.10
270 13.3700 2509.00 2796.92 50.10
271 13.3900 2531.10 2777.46 50.30
272 13.4100 2499.00 2760.42 50.00
273 13.4300 2430.50 2743.88 49.30
274 13.4500 2354.70 2730.01 48.50
275 13.4700 2410.30 2716.59 49.10
276 13.4900 2396.50 2704.67 49.00
277 13.5100 2388.00 2693.46 48.90
278 13.5300 2421.70 2682.82 49.20
279 13.5500 2396.60 2672.68 49.00
280 13.5700 2370.30 2662.94 48.70
281 13.5900 2362.40 2653.55 48.60
282 13.6100 2368.10 2644.46 48.70
283 13.6300 2329.20 2635.63 48.30
284 13.6500 2320.40 2627.02 48.20
285 13.6700 2325.00 2618.61 48.20
286 13.6900 2345.70 2610.36 48.40
287 13.7100 2400.50 2602.27 49.00
288 13.7300 2390.20 2594.37 48.90
289 13.7500 2357.10 2586.53 48.50
290 13.7700 2338.60 2580.30 48.40
291 13.7900 2388.10 2572.74 48.90
292 13.8100 2378.30 2555.65 48.80
293 13.8300 2337.50 2548.83 48.30
294 13.8500 2309.40 2537.02 48.10
295 13.8700 2336.90 2530.53 48.30
296 13.8900 2330.80 2524.07 48.30
297 13.9100 2330.60 2517.63 48.30
298 13.9300 2318.10 2511.22 48.10
299 13.9500 2289.20 2504.84 47.80
300 13.9700 2328.10 2498.34 48.30
301 13.9900 2320.00 2491.95 48.20
302 14.0100 2282.30 2485.68 47.80
303 14.0300 2246.60 2479.45 47.40
304 14.0500 2334.20 2473.26 48.30
305 14.0700 2306.00 2467.13 48.00
306 14.0900 2287.70 2461.07 47.80
307 14.1100 2300.50 2455.07 48.00
308 14.1300 2312.70 2449.17 48.10
309 14.1500 2274.60 2443.37 47.70
310 14.1700 2284.20 2437.73 47.80
311 14.1900 2323.40 2432.27 48.20
312 14.2100 2336.40 2427.06 48.30
313 14.2300 2353.00 2422.16 48.50
314 14.2500 2303.00 2417.61 48.00
315 14.2700 2239.80 2413.46 47.30
316 14.2900 2227.80 2409.70 47.20
317 14.3100 2288.00 2406.37 47.80
318 14.3300 2337.50 2403.59 48.30
319 14.3500 2371.80 2401.68 48.70
320 14.3700 2388.20 2401.52 48.90
321 14.3900 2391.30 2405.00 48.90
322 14.4100 2407.10 2415.97 49.10
323 14.4300 2450.10 2441.70 49.50
324 14.4500 2508.70 2493.67 50.10
325 14.4700 2484.30 2586.65 49.80
326 14.4900 2607.80 2732.04 51.10
327 14.5100 2784.90 2928.96 52.80
328 14.5300 2986.90 3164.98 54.70
329 14.5500 3205.50 3386.44 56.60
330 14.5700 3348.00 3534.99 57.90
331 14.5900 3438.40 3559.49 58.60
332 14.6100 3387.00 3415.99 58.20
333 14.6300 3017.60 3155.18 54.90
334 14.6500 2796.40 2866.70 52.90
335 14.6700 2608.40 2625.32 51.10
336 14.6900 2437.20 2464.45 49.40
337 14.7100 2271.80 2372.37 47.70
338 14.7300 2239.10 2323.01 47.30
339 14.7500 2170.50 2295.12 46.60
340 14.7700 2161.60 2276.68 46.50
341 14.7900 2262.20 2262.44 47.60
342 14.8100 2158.60 2250.39 46.50
343 14.8300 2198.40 2239.70 46.90
344 14.8500 2270.50 2230.11 47.60
345 14.8700 2321.20 2221.06 48.20
346 14.8900 2353.90 2212.61 48.50
347 14.9100 2283.80 2204.49 47.80
348 14.9300 2275.50 2196.67 47.70
349 14.9500 2321.00 2189.10 48.20
350 14.9700 2230.30 2181.72 47.20
351 14.9900 2184.40 2174.50 46.70
352 15.0100 2202.50 2167.42 46.90
353 15.0300 2219.10 2160.44 47.10
354 15.0500 2095.00 2153.56 45.80
355 15.0700 2111.20 2146.75 45.90
356 15.0900 2106.30 2140.01 45.90
357 15.1100 2113.60 2133.33 46.00
358 15.1300 2189.70 2126.71 46.80
359 15.1500 2051.10 2120.13 45.30
360 15.1700 2053.90 2113.60 45.30
361 15.1900 2091.60 2107.10 45.70
362 15.2100 2079.50 2100.63 45.60
363 15.2300 2106.20 2094.21 45.90
364 15.2500 2091.50 2087.81 45.70
365 15.2700 2073.00 2081.44 45.50
366 15.2900 2069.40 2075.11 45.50
367 15.3100 2072.40 2068.75 45.50
368 15.3300 2032.50 2062.45 45.10
369 15.3500 2046.80 2054.71 45.20
370 15.3700 2119.40 2048.61 46.00
371 15.3900 2155.20 2041.82 46.40
372 15.4100 2118.40 2036.10 46.00
373 15.4300 2064.60 2030.24 45.40
374 15.4500 2020.40 2024.61 44.90
375 15.4700 2021.90 2019.06 45.00
376 15.4900 2034.00 2013.84 45.10
377 15.5100 2072.20 2009.30 45.50
378 15.5300 2108.20 2006.15 45.90
379 15.5500 2102.10 2005.58 45.80
380 15.5700 2123.10 2009.16 46.10
381 15.5900 2132.60 2018.09 46.20
382 15.6100 2162.90 2032.31 46.50
383 15.6300 2234.80 2049.89 47.30
384 15.6500 2209.60 2064.77 47.00
385 15.6700 2218.10 2071.25 47.10
386 15.6900 2236.10 2063.42 47.30
387 15.7100 2248.80 2040.06 47.40
388 15.7300 2247.30 2008.92 47.40
389 15.7500 2176.60 1977.66 46.70
390 15.7700 2119.20 1952.07 46.00
391 15.7900 2112.50 1933.73 46.00
392 15.8100 2191.70 1920.97 46.80
393 15.8300 2144.90 1911.54 46.30
394 15.8500 2125.60 1903.75 46.10
395 15.8700 2131.90 1896.71 46.20
396 15.8900 2088.50 1890.05 45.70
397 15.9100 2045.10 1883.62 45.20
398 15.9300 2061.20 1877.37 45.40
399 15.9500 2096.40 1882.32 45.80
400 15.9700 2084.20 1887.42 45.70
401 15.9900 2135.50 1892.71 46.20
402 16.0100 2113.40 1898.22 46.00
403 16.0300 2083.60 1904.08 45.60
404 16.0500 2105.90 1910.57 45.90
405 16.0700 2080.10 1918.35 45.60
406 16.0900 2048.60 1928.65 45.30
407 16.1100 2063.10 1943.52 45.40
408 16.1300 2133.10 1965.34 46.20
409 16.1500 2094.20 1995.50 45.80
410 16.1700 2153.90 2033.15 46.40
411 16.1900 2201.20 2073.29 46.90
412 16.2100 2199.60 2105.86 46.90
413 16.2300 2166.00 2122.55 46.50
414 16.2500 2225.00 2115.41 47.20
415 16.2700 2242.80 2089.11 47.40
416 16.2900 2234.30 2056.17 47.30
417 16.3100 2307.40 2026.53 48.00
418 16.3300 2302.90 2006.65 48.00
419 16.3500 2362.60 1996.69 48.60
420 16.3700 2438.10 1993.67 49.40
421 16.3900 2431.20 1996.71 49.30
422 16.4100 2444.30 1999.52 49.40
423 16.4300 2445.00 2003.17 49.40
424 16.4500 2457.00 2008.22 49.60
425 16.4700 2501.80 2012.61 50.00
426 16.4900 2494.10 2017.10 49.90
427 16.5100 2492.50 2021.81 49.90
428 16.5300 2427.10 2026.62 49.30
429 16.5500 2283.30 2031.52 47.80
430 16.5700 2319.10 2036.49 48.20
431 16.5900 2284.20 2041.53 47.80
432 16.6100 2249.30 2046.64 47.40
433 16.6300 2234.00 2051.81 47.30
434 16.6500 2201.20 2057.04 46.90
435 16.6700 2151.20 2062.34 46.40
436 16.6900 2136.90 2067.71 46.20
437 16.7100 2161.70 2073.15 46.50
438 16.7300 2202.00 2078.68 46.90
439 16.7500 2166.20 2084.31 46.50
440 16.7700 2175.80 2090.05 46.60
441 16.7900 2202.60 2095.92 46.90
442 16.8100 2176.00 2102.90 46.60
443 16.8300 2180.90 2109.16 46.70
444 16.8500 2229.50 2116.11 47.20
445 16.8700 2253.70 2122.91 47.50
446 16.8900 2186.80 2130.06 46.80
447 16.9100 2221.10 2137.66 47.10
448 16.9300 2260.80 2145.83 47.50
449 16.9500 2273.30 2154.74 47.70
450 16.9700 2248.10 2164.64 47.40
451 16.9900 2296.90 2175.94 47.90
452 17.0100 2420.80 2189.09 49.20
453 17.0300 2485.00 2206.10 49.80
454 17.0500 2453.70 2230.21 49.50
455 17.0700 2430.80 2269.01 49.30
456 17.0900 2575.40 2334.47 50.70
457 17.1100 2692.70 2441.80 51.90
458 17.1300 2801.90 2605.14 52.90
459 17.1500 3096.60 2828.09 55.60
460 17.1700 3277.70 3108.04 57.30
461 17.1900 3471.30 3451.10 58.90
462 17.2100 3691.40 3783.16 60.80
463 17.2300 3932.00 3927.50 62.70
464 17.2500 3725.70 3814.08 61.00
465 17.2700 3444.70 3517.58 58.70
466 17.2900 3165.70 3142.66 56.30
467 17.3100 2953.70 2807.35 54.30
468 17.3300 2868.40 2573.29 53.60
469 17.3500 2774.00 2437.10 52.70
470 17.3700 2722.60 2367.87 52.20
471 17.3900 2754.70 2335.69 52.50
472 17.4100 2907.70 2321.51 53.90
473 17.4300 3107.90 2438.83 55.70
474 17.4500 3245.90 2445.12 57.00
475 17.4700 3326.90 2517.02 57.70
476 17.4900 3639.90 2539.79 60.30
477 17.5100 3637.30 2575.06 60.30
478 17.5300 3498.30 2629.12 59.10
479 17.5500 3291.20 2708.51 57.40
480 17.5700 3074.90 2816.06 55.50
481 17.5900 3086.40 2949.78 55.60
482 17.6100 3090.10 3110.70 55.60
483 17.6300 3113.80 3271.18 55.80
484 17.6500 3275.30 3358.21 57.20
485 17.6700 3170.20 3339.63 56.30
486 17.6900 3069.10 3247.02 55.40
487 17.7100 2971.20 3121.43 54.50
488 17.7300 2856.90 3011.02 53.40
489 17.7500 2844.70 2944.51 53.30
490 17.7700 2813.00 2923.29 53.00
491 17.7900 2795.50 2936.04 52.90
492 17.8100 2814.70 2970.99 53.10
493 17.8300 2824.60 3020.77 53.10
494 17.8500 2855.70 3082.40 53.40
495 17.8700 2885.70 3155.70 53.70
496 17.8900 2910.50 3242.06 53.90
497 17.9100 2969.20 3343.85 54.50
498 17.9300 2993.70 3464.47 54.70
499 17.9500 3062.90 3608.59 55.30
500 17.9700 3185.40 3782.57 56.40
501 17.9900 3314.10 3995.29 57.60
502 18.0100 3458.80 4257.02 58.80
503 18.0300 3688.20 4591.58 60.70
504 18.0500 4049.90 5029.15 63.60
505 18.0700 4616.60 5635.04 67.90
506 18.0900 5644.40 6562.01 75.10
507 18.1100 7396.40 8129.37 86.00
508 18.1300 10179.00 10908.50 100.90
509 18.1500 14318.30 15717.40 119.70
510 18.1700 21943.10 23487.80 148.10
511 18.1900 33573.80 34802.80 183.20
512 18.2100 49565.10 49376.90 222.60
513 18.2300 69964.00 66992.00 264.50
514 18.2500 92782.20 84723.40 304.60
515 18.2700 103156.00 93665.80 321.20
516 18.2900 99048.40 89102.30 314.70
517 18.3100 80742.30 74970.60 284.20
518 18.3300 56652.90 55960.80 238.00
519 18.3500 35471.30 37616.90 188.30
520 18.3700 20094.00 23865.50 141.80
521 18.3900 11132.90 15255.40 105.50
522 18.4100 7532.90 10473.70 86.80
523 18.4300 5724.50 7957.78 75.70
524 18.4500 4713.80 6582.36 68.70
525 18.4700 4209.50 5741.85 64.90
526 18.4900 3971.90 5163.82 63.00
527 18.5100 3702.40 4736.54 60.80
528 18.5300 3599.90 4407.94 60.00
529 18.5500 3574.30 4149.30 59.80
530 18.5700 3482.90 3942.33 59.00
531 18.5900 3528.70 3774.40 59.40
532 18.6100 3630.60 3636.54 60.30
533 18.6300 3773.20 3522.22 61.40
534 18.6500 3937.60 3426.61 62.80
535 18.6700 4027.40 3346.05 63.50
536 18.6900 3938.10 3277.79 62.80
537 18.7100 3758.80 3219.65 61.30
538 18.7300 3538.00 3169.96 59.50
539 18.7500 3270.00 3127.39 57.20
540 18.7700 3075.50 3090.92 55.50
541 18.7900 2960.60 3061.48 54.40
542 18.8100 2916.40 3033.15 54.00
543 18.8300 2901.10 3010.71 53.90
544 18.8500 2818.50 2990.32 53.10
545 18.8700 2821.80 2973.41 53.10
546 18.8900 2861.30 2959.85 53.50
547 18.9100 2755.40 2949.64 52.50
548 18.9300 2758.90 2942.94 52.50
549 18.9500 2758.40 2940.11 52.50
550 18.9700 2758.30 2941.94 52.50
551 18.9900 2779.60 2950.08 52.70
552 19.0100 2780.00 2968.36 52.70
553 19.0300 2812.10 3005.21 53.00
554 19.0500 2931.20 3076.87 54.10
555 19.0700 3172.80 3082.62 56.30
556 19.0900 3262.70 3314.53 57.10
557 19.1100 3494.70 3605.88 59.10
558 19.1300 3857.60 4085.23 62.10
559 19.1500 4325.60 4663.14 65.80
560 19.1700 4757.40 5273.64 69.00
561 19.1900 4873.90 5656.66 69.80
562 19.2100 4752.20 5593.90 68.90
563 19.2300 4438.60 5195.74 66.60
564 19.2500 4009.80 4614.64 63.30
565 19.2700 3691.20 4002.04 60.80
566 19.2900 3329.60 3507.80 57.70
567 19.3100 2971.80 3181.26 54.50
568 19.3300 2811.10 2994.30 53.00
569 19.3500 2763.70 2897.66 52.60
570 19.3700 2738.50 2850.37 52.30
571 19.3900 2701.80 2828.15 52.00
572 19.4100 2617.30 2819.78 51.20
573 19.4300 2705.40 2821.43 52.00
574 19.4500 2720.90 2833.73 52.20
575 19.4700 2691.00 2861.77 51.90
576 19.4900 2657.90 2917.15 51.60
577 19.5100 2830.70 3019.82 53.20
578 19.5300 3048.10 3197.48 55.20
579 19.5500 3289.20 3478.47 57.40
580 19.5700 3579.50 3874.13 59.80
581 19.5900 4248.90 4350.66 65.20
582 19.6100 4930.90 4871.10 70.20
583 19.6300 5351.40 5239.76 73.20
584 19.6500 5378.00 5241.80 73.30
585 19.6700 4896.70 4941.17 70.00
586 19.6900 4257.50 4474.95 65.20
587 19.7100 3655.80 3954.84 60.50
588 19.7300 3161.40 3511.66 56.20
589 19.7500 2840.00 3205.22 53.30
590 19.7700 2718.80 3021.88 52.10
591 19.7900 2640.70 2922.02 51.40
592 19.8100 2585.10 2869.21 50.80
593 19.8300 2549.30 2839.83 50.50
594 19.8500 2548.70 2821.88 50.50
595 19.8700 2544.00 2810.06 50.40
596 19.8900 2535.90 2802.09 50.40
597 19.9100 2529.20 2796.83 50.30
598 19.9300 2613.70 2793.64 51.10
599 19.9500 2619.00 2792.08 51.20
600 19.9700 2601.80 2791.89 51.00
601 19.9900 2594.60 2793.32 50.90
602 20.0100 2543.60 2791.16 50.40
603 20.0300 2649.20 2794.81 51.50
604 20.0500 2711.00 2797.32 52.10
605 20.0700 2696.20 2803.55 51.90
606 20.0900 2847.00 2811.67 53.40
607 20.1100 2786.20 2822.25 52.80
608 20.1300 2752.50 2835.92 52.50
609 20.1500 2780.00 2853.02 52.70
610 20.1700 2799.00 2873.70 52.90
611 20.1900 2790.10 2897.80 52.80
612 20.2100 2855.90 2923.77 53.40
613 20.2300 2943.60 2952.88 54.30
614 20.2500 2938.20 2993.44 54.20
615 20.2700 3131.00 3060.56 56.00
616 20.2900 3347.50 3180.62 57.90
617 20.3100 3550.50 3393.47 59.60
618 20.3300 3715.80 3747.99 61.00
619 20.3500 4233.70 4275.95 65.10
620 20.3700 4917.30 4955.97 70.10
621 20.3900 5698.20 5731.75 75.50
622 20.4100 6477.60 6431.90 80.50
623 20.4300 6729.70 6683.95 82.00
624 20.4500 6379.50 6394.58 79.90
625 20.4700 5760.40 5801.74 75.90
626 20.4900 5037.00 5052.16 71.00
627 20.5100 4295.20 4318.10 65.50
628 20.5300 3783.00 3754.97 61.50
629 20.5500 3375.00 3389.72 58.10
630 20.5700 3053.40 3178.76 55.30
631 20.5900 2865.30 3064.47 53.50
632 20.6100 2820.40 3002.09 53.10
633 20.6300 2843.10 2965.41 53.30
634 20.6500 2861.60 2942.07 53.50
635 20.6700 2764.10 2926.99 52.60
636 20.6900 2738.80 2918.96 52.30
637 20.7100 2725.70 2917.63 52.20
638 20.7300 2728.30 2925.19 52.20
639 20.7500 2753.60 2944.66 52.50
640 20.7700 2711.00 2977.78 52.10
641 20.7900 2722.90 3022.76 52.20
642 20.8100 2766.80 3075.00 52.60
643 20.8300 2823.40 3122.29 53.10
644 20.8500 2872.10 3138.72 53.60
645 20.8700 2828.10 3118.31 53.20
646 20.8900 2797.80 3077.61 52.90
647 20.9100 2819.20 3026.66 53.10
648 20.9300 2820.70 2976.81 53.10
649 20.9500 2826.00 2938.78 53.20
650 20.9700 2822.10 2915.01 53.10
651 20.9900 2810.30 2902.83 53.00
652 21.0100 2806.50 2898.63 53.00
653 21.0300 2844.10 2899.93 53.30
654 21.0500 2846.20 2906.49 53.30
655 21.0700 2833.60 2920.14 53.20
656 21.0900 2871.70 2944.81 53.60
657 21.1100 2914.80 2985.78 54.00
658 21.1300 2914.30 3046.55 54.00
659 21.1500 2907.90 3124.03 53.90
660 21.1700 2946.00 3210.30 54.30
661 21.1900 2981.80 3284.43 54.60
662 21.2100 3047.40 3306.92 55.20
663 21.2300 3051.40 3273.40 55.20
664 21.2500 2937.00 3204.60 54.20
665 21.2700 2937.00 3126.70 54.20
666 21.2900 2930.70 3050.78 54.10
667 21.3100 2891.50 2989.93 53.80
668 21.3300 2834.20 2953.18 53.20
669 21.3500 2933.90 2933.26 54.20
670 21.3700 2877.80 2924.44 53.60
671 21.3900 2869.50 2922.54 53.60
672 21.4100 2938.40 2925.01 54.20
673 21.4300 2968.10 2932.36 54.50
674 21.4500 2966.00 2947.52 54.50
675 21.4700 2998.60 2973.25 54.80
676 21.4900 3056.70 3010.45 55.30
677 21.5100 3096.30 3056.23 55.60
678 21.5300 3158.50 3107.65 56.20
679 21.5500 3233.80 3143.33 56.90
680 21.5700 3291.50 3148.19 57.40
681 21.5900 3293.00 3131.13 57.40
682 21.6100 3236.40 3101.51 56.90
683 21.6300 3202.00 3070.02 56.60
684 21.6500 3185.10 3032.39 56.40
685 21.6700 3180.00 2999.32 56.40
686 21.6900 3179.20 2978.03 56.40
687 21.7100 3171.70 2959.69 56.30
688 21.7300 3190.00 2946.12 56.50
689 21.7500 3233.10 2937.72 56.90
690 21.7700 3172.20 2947.24 56.30
691 21.7900 3094.80 2945.23 55.60
692 21.8100 3115.70 2944.93 55.80
693 21.8300 3224.30 2953.09 56.80
694 21.8500 3237.20 2954.93 56.90
695 21.8700 3226.50 2957.34 56.80
696 21.8900 3154.80 2960.24 56.20
697 21.9100 3074.60 2963.59 55.40
698 21.9300 3119.50 2967.43 55.90
699 21.9500 3255.10 2971.76 57.10
700 21.9700 3333.30 2976.63 57.70
701 21.9900 3423.10 2982.11 58.50
702 22.0100 3639.40 2988.28 60.30
703 22.0300 3716.40 2995.23 61.00
704 22.0500 3859.40 3002.47 62.10
705 22.0700 3899.30 3011.45 62.40
706 22.0900 3694.90 3021.40 60.80
707 22.1100 3534.20 3033.25 59.40
708 22.1300 3469.30 3047.02 58.90
709 22.1500 3377.20 3063.18 58.10
710 22.1700 3212.70 3082.40 56.70
711 22.1900 3171.60 3105.63 56.30
712 22.2100 3226.90 3134.48 56.80
713 22.2300 3274.10 3171.91 57.20
714 22.2500 3288.40 3223.65 57.30
715 22.2700 3321.20 3300.36 57.60
716 22.2900 3439.70 3419.67 58.60
717 22.3100 3635.10 3606.47 60.30
718 22.3300 3901.10 3888.61 62.50
719 22.3500 4227.90 4272.73 65.00
720 22.3700 4849.70 4750.58 69.60
721 22.3900 5341.50 5295.90 73.10
722 22.4100 5789.50 5811.18 76.10
723 22.4300 6388.90 6264.80 79.90
724 22.4500 6580.70 6740.80 81.10
725 22.4700 6857.20 7260.23 82.80
726 22.4900 7150.00 7742.70 84.60
727 22.5100 7385.70 8021.64 85.90
728 22.5300 7714.80 8175.23 87.80
729 22.5500 8373.40 8500.91 91.50
730 22.5700 9207.00 9125.54 96.00
731 22.5900 10151.90 10088.40 100.80
732 22.6100 11486.20 11344.40 107.20
733 22.6300 12388.50 12561.30 111.30
734 22.6500 12684.70 12955.00 112.60
735 22.6700 12271.90 12182.20 110.80
736 22.6900 10995.50 10804.00 104.90
737 22.7100 9419.30 9140.86 97.10
738 22.7300 7906.60 7391.57 88.90
739 22.7500 6558.30 5919.83 81.00
740 22.7700 5424.30 4883.96 73.60
741 22.7900 4752.90 4235.66 68.90
742 22.8100 4218.80 3858.21 65.00
743 22.8300 3827.40 3641.76 61.90
744 22.8500 3646.10 3511.17 60.40
745 22.8700 3437.60 3425.26 58.60
746 22.8900 3356.50 3364.62 57.90
747 22.9100 3359.10 3320.31 58.00
748 22.9300 3391.10 3287.90 58.20
749 22.9500 3393.30 3264.83 58.30
750 22.9700 3423.90 3249.62 58.50
751 22.9900 3451.70 3241.49 58.80
752 23.0100 3472.30 3240.30 58.90
753 23.0300 3634.50 3246.80 60.30
754 23.0500 3782.60 3264.08 61.50
755 23.0700 3981.40 3295.67 63.10
756 23.0900 4232.10 3352.39 65.10
757 23.1100 4414.20 3451.53 66.40
758 23.1300 4622.30 3615.47 68.00
759 23.1500 4883.30 3867.18 69.90
760 23.1700 5202.40 4210.67 72.10
761 23.1900 5575.50 4627.09 74.70
762 23.2100 5652.90 5070.79 75.20
763 23.2300 5869.30 5434.80 76.60
764 23.2500 6084.60 5682.16 78.00
765 23.2700 5965.00 5874.74 77.20
766 23.2900 6111.00 6095.47 78.20
767 23.3100 5998.50 6047.42 77.40
768 23.3300 5768.20 5787.15 75.90
769 23.3500 5599.80 5493.50 74.80
770 23.3700 5428.40 5217.56 73.70
771 23.3900 5397.40 4985.71 73.50
772 23.4100 5546.50 4934.81 74.50
773 23.4300 5921.10 5215.53 76.90
774 23.4500 6725.30 5905.34 82.00
775 23.4700 7768.40 7076.22 88.10
776 23.4900 9053.40 8639.33 95.10
777 23.5100 10471.00 10334.30 102.30
778 23.5300 11452.70 11733.80 107.00
779 23.5500 11629.60 12097.40 107.80
780 23.5700 11127.30 11401.20 105.50
781 23.5900 10098.50 10209.80 100.50
782 23.6100 8895.20 8752.03 94.30
783 23.6300 7717.60 7230.72 87.80
784 23.6500 6658.40 5971.04 81.60
785 23.6700 5751.30 5101.12 75.80
786 23.6900 5032.40 4573.60 70.90
787 23.7100 4743.60 4286.34 68.90
788 23.7300 4592.20 4145.13 67.80
789 23.7500 4551.50 4086.27 67.50
790 23.7700 4603.60 4075.95 67.80
791 23.7900 4467.30 4100.14 66.80
792 23.8100 4517.30 4155.80 67.20
793 23.8300 4544.40 4246.38 67.40
794 23.8500 4424.30 4379.74 66.50
795 23.8700 4554.50 4565.40 67.50
796 23.8900 4759.20 4808.22 69.00
797 23.9100 5045.00 5104.18 71.00
798 23.9300 5415.00 5441.53 73.60
799 23.9500 5868.90 5794.27 76.60
800 23.9700 6570.50 6164.66 81.10
801 23.9900 7514.50 6627.33 86.70
802 24.0100 8751.90 7302.25 93.60
803 24.0300 10450.30 8393.62 102.20
804 24.0500 13467.00 10282.90 116.00
805 24.0700 17493.90 13570.20 132.30
806 24.0900 22838.70 19017.80 151.10
807 24.1100 30191.90 27234.00 173.80
808 24.1300 38929.00 37962.30 197.30
809 24.1500 48057.00 49901.20 219.20
810 24.1700 56322.50 60502.80 237.30
811 24.1900 62307.30 65591.10 249.60
812 24.2100 61921.10 64653.30 248.80
813 24.2300 58603.40 60822.70 242.10
814 24.2500 52928.20 54693.30 230.10
815 24.2700 45465.50 45861.30 213.20
816 24.2900 36937.90 36238.40 192.20
817 24.3100 29522.10 27962.70 171.80
818 24.3300 23183.10 21309.20 152.30
819 24.3500 17957.30 15983.00 134.00
820 24.3700 14168.30 12028.00 119.00
821 24.3900 11231.40 9330.63 106.00
822 24.4100 9024.10 7571.65 95.00
823 24.4300 7453.90 6467.15 86.30
824 24.4500 6332.00 5754.74 79.60
825 24.4700 5635.70 5261.88 75.10
826 24.4900 5045.00 4907.60 71.00
827 24.5100 4575.30 4634.63 67.60
828 24.5300 4372.70 4417.00 66.10
829 24.5500 4165.10 4239.73 64.50
830 24.5700 3979.80 4093.19 63.10
831 24.5900 3858.70 3970.61 62.10
832 24.6100 3851.10 3866.56 62.10
833 24.6300 3599.80 3777.31 60.00
834 24.6500 3578.10 3700.53 59.80
835 24.6700 3563.10 3636.24 59.70
836 24.6900 3389.50 3578.46 58.20
837 24.7100 3508.30 3527.94 59.20
838 24.7300 3408.60 3484.70 58.40
839 24.7500 3361.50 3445.83 58.00
840 24.7700 3452.40 3411.71 58.80
841 24.7900 3282.60 3381.88 57.30
842 24.8100 3244.70 3355.21 57.00
843 24.8300 3241.30 3333.47 56.90
844 24.8500 3233.70 3317.21 56.90
845 24.8700 3197.90 3305.68 56.50
846 24.8900 3226.50 3301.66 56.80
847 24.9100 3280.00 3309.77 57.30
848 24.9300 3337.20 3332.00 57.80
849 24.9500 3367.70 3369.97 58.00
850 24.9700 3407.30 3421.14 58.40
851 24.9900 3470.50 3480.46 58.90
852 25.0100 3520.70 3538.32 59.30
853 25.0300 3506.20 3596.53 59.20
854 25.0500 3674.80 3579.06 60.60
855 25.0700 3768.90 3674.07 61.40
856 25.0900 3837.80 3760.10 61.90
857 25.1100 3917.00 3751.91 62.60
858 25.1300 3741.80 3689.01 61.20
859 25.1500 3708.40 3597.06 60.90
860 25.1700 3645.50 3488.97 60.40
861 25.1900 3478.90 3354.40 59.00
862 25.2100 3384.50 3243.12 58.20
863 25.2300 3223.50 3153.53 56.80
864 25.2500 3081.60 3096.08 55.50
865 25.2700 3005.50 3065.85 54.80
866 25.2900 3061.80 3054.05 55.30
867 25.3100 3079.80 3051.78 55.50
868 25.3300 3008.70 3051.16 54.90
869 25.3500 2913.90 3049.22 54.00
870 25.3700 2974.90 3048.48 54.50
871 25.3900 3005.10 3051.19 54.80
872 25.4100 3012.30 3060.33 54.90
873 25.4300 3029.80 3081.93 55.00
874 25.4500 3105.20 3126.65 55.70
875 25.4700 3264.70 3208.71 57.10
876 25.4900 3346.30 3344.29 57.80
877 25.5100 3472.00 3541.22 58.90
878 25.5300 3751.00 3783.42 61.20
879 25.5500 3936.80 4027.92 62.70
880 25.5700 4035.40 4198.96 63.50
881 25.5900 4084.70 4216.94 63.90
882 25.6100 4092.90 4115.07 64.00
883 25.6300 3939.00 3973.65 62.80
884 25.6500 3871.90 3815.75 62.20
885 25.6700 3728.90 3673.83 61.10
886 25.6900 3493.20 3589.45 59.10
887 25.7100 3356.10 3584.29 57.90
888 25.7300 3414.90 3650.65 58.40
889 25.7500 3485.40 3721.24 59.00
890 25.7700 3546.00 3749.99 59.50
891 25.7900 3645.70 3720.25 60.40
892 25.8100 3777.30 3656.29 61.50
893 25.8300 3857.30 3584.02 62.10
894 25.8500 3886.70 3518.25 62.30
895 25.8700 3882.10 3463.17 62.30
896 25.8900 3980.10 3455.73 63.10
897 25.9100 4067.90 3524.75 63.80
898 25.9300 4223.60 3691.93 65.00
899 25.9500 4531.40 4010.22 67.30
900 25.9700 5097.30 4535.02 71.40
901 25.9900 5632.60 5285.76 75.10
902 26.0100 6275.80 6190.14 79.20
903 26.0300 7053.80 7069.18 84.00
904 26.0500 7396.50 7621.22 86.00
905 26.0700 7236.90 7583.29 85.10
906 26.0900 6863.10 7124.42 82.80
907 26.1100 6383.30 6512.05 79.90
908 26.1300 5761.80 5787.50 75.90
909 26.1500 5165.90 5026.88 71.90
910 26.1700 4586.10 4386.85 67.70
911 26.1900 4067.80 3934.50 63.80
912 26.2100 3741.10 3649.27 61.20
913 26.2300 3495.10 3488.74 59.10
914 26.2500 3310.90 3411.07 57.50
915 26.2700 3205.00 3384.11 56.60
916 26.2900 3208.80 3388.57 56.60
917 26.3100 3172.50 3409.99 56.30
918 26.3300 3185.60 3435.15 56.40
919 26.3500 3192.70 3452.05 56.50
920 26.3700 3135.90 3463.70 56.00
921 26.3900 3275.20 3482.53 57.20
922 26.4100 3332.70 3515.83 57.70
923 26.4300 3375.20 3573.75 58.10
924 26.4500 3470.10 3679.13 58.90
925 26.4700 3827.30 3865.13 61.90
926 26.4900 4368.80 4188.37 66.10
927 26.5100 4988.10 4717.13 70.60
928 26.5300 5701.10 5520.88 75.50
929 26.5500 6818.30 6632.41 82.60
930 26.5700 8091.00 7997.71 89.90
931 26.5900 9315.00 9399.40 96.50
932 26.6100 10343.20 10548.70 101.70
933 26.6300 10899.90 11237.10 104.40
934 26.6500 10974.60 11272.10 104.80
935 26.6700 10718.60 10838.30 103.50
936 26.6900 10252.00 10412.30 101.30
937 26.7100 9752.40 10180.70 98.80
938 26.7300 9905.50 10112.60 99.50
939 26.7500 10273.40 10153.20 101.40
940 26.7700 10392.40 10023.00 101.90
941 26.7900 9773.80 9434.71 98.90
942 26.8100 8514.90 8568.76 92.30
943 26.8300 7346.50 7659.85 85.70
944 26.8500 6250.50 6686.78 79.10
945 26.8700 5211.20 5701.60 72.20
946 26.8900 4214.30 4873.58 64.90
947 26.9100 3580.30 4274.61 59.80
948 26.9300 3206.90 3881.73 56.60
949 26.9500 3035.60 3632.76 55.10
950 26.9700 3002.90 3493.53 54.80
951 26.9900 2950.10 3421.22 54.30
952 27.0100 2993.90 3396.59 54.70
953 27.0300 3096.60 3435.59 55.60
954 27.0500 3037.90 3516.38 55.10
955 27.0700 3135.80 3637.38 56.00
956 27.0900 3243.70 3773.75 57.00
957 27.1100 3302.40 3868.20 57.50
958 27.1300 3241.50 3870.99 56.90
959 27.1500 3287.50 3791.53 57.30
960 27.1700 3187.10 3681.39 56.50
961 27.1900 3074.10 3556.23 55.40
962 27.2100 3127.50 3417.72 55.90
963 27.2300 2995.80 3289.94 54.70
964 27.2500 2981.30 3192.32 54.60
965 27.2700 2965.90 3128.22 54.50
966 27.2900 2869.70 3091.95 53.60
967 27.3100 2880.40 3072.37 53.70
968 27.3300 2834.30 3063.70 53.20
969 27.3500 2806.30 3065.17 53.00
970 27.3700 2826.20 3077.93 53.20
971 27.3900 2852.10 3104.13 53.40
972 27.4100 2909.00 3154.06 53.90
973 27.4300 3052.80 3244.50 55.30
974 27.4500 3298.90 3399.61 57.40
975 27.4700 3641.60 3644.23 60.30
976 27.4900 4062.10 3980.43 63.70
977 27.5100 4662.10 4378.70 68.30
978 27.5300 5289.50 4746.38 72.70
979 27.5500 5598.70 4940.81 74.80
980 27.5700 5627.50 4891.48 75.00
981 27.5900 5406.70 4690.83 73.50
982 27.6100 5004.40 4436.05 70.70
983 27.6300 4509.40 4144.38 67.20
984 27.6500 3999.20 3830.01 63.20
985 27.6700 3593.30 3550.34 59.90
986 27.6900 3334.30 3359.39 57.70
987 27.7100 3245.90 3242.75 57.00
988 27.7300 3207.80 3184.25 56.60
989 27.7500 3165.70 3162.86 56.30
990 27.7700 3171.80 3179.23 56.30
991 27.7900 3258.30 3228.45 57.10
992 27.8100 3457.00 3323.73 58.80
993 27.8300 3715.80 3495.21 61.00
994 27.8500 4110.40 3792.46 64.10
995 27.8700 4643.60 4277.39 68.10
996 27.8900 5236.80 5004.83 72.40
997 27.9100 5950.70 5920.45 77.10
998 27.9300 6773.70 6876.90 82.30
999 27.9500 7520.80 7606.46 86.70
1000 27.9700 7791.90 7777.17 88.30
1001 27.9900 7592.00 7433.66 87.10
1002 28.0100 7271.80 6888.59 85.30
1003 28.0300 6875.60 6261.62 82.90
1004 28.0500 6424.00 5539.34 80.10
1005 28.0700 5673.30 4852.05 75.30
1006 28.0900 5082.20 4342.88 71.30
1007 28.1100 4660.50 4045.14 68.30
1008 28.1300 4404.30 3930.22 66.40
1009 28.1500 4262.60 3942.73 65.30
1010 28.1700 4128.20 4024.09 64.30
1011 28.1900 4039.80 4130.84 63.60
1012 28.2100 4007.10 4228.70 63.30
1013 28.2300 3943.90 4257.27 62.80
1014 28.2500 3772.90 4166.39 61.40
1015 28.2700 3636.60 4001.81 60.30
1016 28.2900 3540.90 3829.88 59.50
1017 28.3100 3316.30 3660.72 57.60
1018 28.3300 3250.10 3498.40 57.00
1019 28.3500 3155.00 3376.52 56.20
1020 28.3700 3052.10 3324.37 55.20
1021 28.3900 3078.80 3363.43 55.50
1022 28.4100 3130.60 3495.74 56.00
1023 28.4300 3304.80 3726.51 57.50
1024 28.4500 3533.90 4027.07 59.40
1025 28.4700 3705.30 4327.42 60.90
1026 28.4900 3907.20 4525.11 62.50
1027 28.5100 4035.30 4530.95 63.50
1028 28.5300 4017.30 4394.40 63.40
1029 28.5500 3803.00 4217.47 61.70
1030 28.5700 3675.80 4015.99 60.60
1031 28.5900 3465.10 3793.61 58.90
1032 28.6100 3250.30 3589.81 57.00
1033 28.6300 3091.00 3452.06 55.60
1034 28.6500 3081.10 3392.92 55.50
1035 28.6700 3062.80 3418.16 55.30
1036 28.6900 3109.00 3534.40 55.80
1037 28.7100 3285.40 3777.59 57.30
1038 28.7300 3753.80 4205.55 61.30
1039 28.7500 4399.10 4884.62 66.30
1040 28.7700 5383.80 5845.97 73.40
1041 28.7900 6705.70 7014.58 81.90
1042 28.8100 8272.30 8178.53 91.00
1043 28.8300 9251.20 9002.34 96.20
1044 28.8500 9599.40 9258.63 98.00
1045 28.8700 9410.70 9135.61 97.00
1046 28.8900 8844.10 8814.50 94.00
1047 28.9100 8243.50 8229.49 90.80
1048 28.9300 7299.20 7401.23 85.40
1049 28.9500 6254.40 6568.36 79.10
1050 28.9700 5368.40 5842.13 73.30
1051 28.9900 4762.90 5178.37 69.00
1052 29.0100 4267.30 4600.83 65.30
1053 29.0300 3899.10 4152.79 62.40
1054 29.0500 3661.40 3815.52 60.50
1055 29.0700 3490.80 3551.20 59.10
1056 29.0900 3315.40 3348.88 57.60
1057 29.1100 3121.70 3206.54 55.90
1058 29.1300 2945.40 3114.23 54.30
1059 29.1500 2974.40 3063.79 54.50
1060 29.1700 3039.70 3042.36 55.10
1061 29.1900 3070.00 3055.96 55.40
1062 29.2100 3086.90 3111.20 55.60
1063 29.2300 3194.30 3227.88 56.50
1064 29.2500 3445.70 3434.05 58.70
1065 29.2700 3708.60 3755.74 60.90
1066 29.2900 3995.80 4191.46 63.20
1067 29.3100 4356.10 4680.82 66.00
1068 29.3300 4685.60 5099.22 68.50
1069 29.3500 4980.70 5284.05 70.60
1070 29.3700 5127.20 5196.71 71.60
1071 29.3900 5014.70 4989.19 70.80
1072 29.4100 4913.40 4772.88 70.10
1073 29.4300 4857.50 4550.62 69.70
1074 29.4500 4797.30 4373.69 69.30
1075 29.4700 4721.40 4343.51 68.70
1076 29.4900 4858.50 4508.02 69.70
1077 29.5100 5007.30 4817.17 70.80
1078 29.5300 5188.20 5139.21 72.00
1079 29.5500 5346.10 5295.62 73.10
1080 29.5700 5166.40 5204.89 71.90
1081 29.5900 5011.30 4976.81 70.80
1082 29.6100 4799.70 4704.46 69.30
1083 29.6300 4513.40 4365.31 67.20
1084 29.6500 4159.20 3967.97 64.50
1085 29.6700 3793.60 3596.69 61.60
1086 29.6900 3468.80 3302.03 58.90
1087 29.7100 3184.10 3084.86 56.40
1088 29.7300 2925.20 2932.94 54.10
1089 29.7500 2766.40 2831.84 52.60
1090 29.7700 2681.80 2755.55 51.80
1091 29.7900 2626.60 2711.69 51.30
1092 29.8100 2551.80 2680.29 50.50
1093 29.8300 2468.10 2653.00 49.70
1094 29.8500 2454.70 2628.84 49.50
1095 29.8700 2508.40 2614.66 50.10
1096 29.8900 2611.10 2604.45 51.10
1097 29.9100 2599.70 2595.43 51.00
1098 29.9300 2619.60 2595.13 51.20
1099 29.9500 2659.20 2602.96 51.60
1100 29.9700 2724.00 2623.59 52.20
1101 29.9900 2871.80 2664.46 53.60
1102 30.0100 2962.50 2738.68 54.40
1103 30.0300 3046.80 2858.19 55.20
1104 30.0500 3153.70 3028.50 56.20
1105 30.0700 3330.40 3234.23 57.70
1106 30.0900 3441.20 3430.17 58.70
1107 30.1100 3527.10 3546.64 59.40
1108 30.1300 3572.60 3535.46 59.80
1109 30.1500 3536.00 3438.96 59.50
1110 30.1700 3464.90 3319.91 58.90
1111 30.1900 3339.40 3186.50 57.80
1112 30.2100 3200.50 3030.49 56.60
1113 30.2300 3098.40 2878.02 55.70
1114 30.2500 2995.60 2758.96 54.70
1115 30.2700 2874.90 2680.56 53.60
1116 30.2900 2786.60 2632.53 52.80
1117 30.3100 2763.40 2615.30 52.60
1118 30.3300 2724.60 2616.81 52.20
1119 30.3500 2756.30 2639.16 52.50
1120 30.3700 2734.70 2689.63 52.30
1121 30.3900 2644.50 2781.65 51.40
1122 30.4100 2750.30 2912.57 52.40
1123 30.4300 2817.70 3065.06 53.10
1124 30.4500 2851.60 3200.34 53.40
1125 30.4700 2867.50 3265.22 53.50
1126 30.4900 2912.40 3237.26 54.00
1127 30.5100 2925.30 3172.82 54.10
1128 30.5300 2956.80 3102.31 54.40
1129 30.5500 2977.70 3015.31 54.60
1130 30.5700 2912.20 2896.94 54.00
1131 30.5900 2816.80 2770.92 53.10
1132 30.6100 2777.60 2659.98 52.70
1133 30.6300 2724.00 2574.15 52.20
1134 30.6500 2559.50 2509.03 50.60
1135 30.6700 2608.40 2456.55 51.10
1136 30.6900 2549.50 2415.35 50.50
1137 30.7100 2489.80 2382.88 49.90
1138 30.7300 2505.40 2358.56 50.10
1139 30.7500 2391.20 2340.33 48.90
1140 30.7700 2377.90 2331.75 48.80
1141 30.7900 2390.70 2320.99 48.90
1142 30.8100 2377.10 2316.55 48.80
1143 30.8300 2251.40 2309.10 47.40
1144 30.8500 2286.50 2302.57 47.80
1145 30.8700 2306.40 2296.73 48.00
1146 30.8900 2265.10 2293.66 47.60
1147 30.9100 2198.80 2288.96 46.90
1148 30.9300 2230.90 2284.71 47.20
1149 30.9500 2232.60 2280.87 47.30
1150 30.9700 2200.00 2277.46 46.90
1151 30.9900 2174.80 2274.50 46.60
1152 31.0100 2279.70 2272.07 47.70
1153 31.0300 2256.60 2270.35 47.50
1154 31.0500 2209.20 2269.67 47.00
1155 31.0700 2305.90 2268.47 48.00
1156 31.0900 2343.90 2272.00 48.40
1157 31.1100 2306.10 2279.20 48.00
1158 31.1300 2258.20 2291.14 47.50
1159 31.1500 2257.40 2306.94 47.50
1160 31.1700 2286.40 2327.16 47.80
1161 31.1900 2252.50 2345.55 47.50
1162 31.2100 2239.00 2355.49 47.30
1163 31.2300 2274.40 2352.77 47.70
1164 31.2500 2232.50 2342.42 47.20
1165 31.2700 2295.70 2335.36 47.90
1166 31.2900 2295.20 2323.08 47.90
1167 31.3100 2214.70 2309.02 47.10
1168 31.3300 2213.20 2295.47 47.00
1169 31.3500 2306.50 2289.13 48.00
1170 31.3700 2363.10 2284.43 48.60
1171 31.3900 2359.00 2285.07 48.60
1172 31.4100 2298.90 2289.66 47.90
1173 31.4300 2281.40 2296.75 47.80
1174 31.4500 2351.20 2309.95 48.50
1175 31.4700 2429.40 2328.44 49.30
1176 31.4900 2396.70 2354.27 49.00
1177 31.5100 2524.40 2390.75 50.20
1178 31.5300 2577.70 2446.97 50.80
1179 31.5500 2640.40 2535.88 51.40
1180 31.5700 2794.40 2678.72 52.90
1181 31.5900 3024.40 2893.87 55.00
1182 31.6100 3275.50 3199.08 57.20
1183 31.6300 3536.00 3585.29 59.50
1184 31.6500 3808.00 3999.03 61.70
1185 31.6700 4161.40 4342.96 64.50
1186 31.6900 4234.80 4540.94 65.10
1187 31.7100 4327.90 4644.16 65.80
1188 31.7300 4531.20 4780.72 67.30
1189 31.7500 4765.80 4982.93 69.00
1190 31.7700 5059.20 5150.72 71.10
1191 31.7900 5257.20 5164.11 72.50
1192 31.8100 5256.00 4958.22 72.50
1193 31.8300 4880.50 4613.82 69.90
1194 31.8500 4576.50 4266.77 67.60
1195 31.8700 4215.30 3952.74 64.90
1196 31.8900 3823.00 3628.29 61.80
1197 31.9100 3461.30 3290.36 58.80
1198 31.9300 3055.90 2994.27 55.30
1199 31.9500 2744.50 2771.90 52.40
1200 31.9700 2545.60 2620.78 50.50
1201 31.9900 2468.80 2527.32 49.70
1202 32.0100 2462.70 2475.87 49.60
1203 32.0300 2467.60 2457.12 49.70
1204 32.0500 2500.50 2460.87 50.00
1205 32.0700 2565.10 2484.13 50.60
1206 32.0900 2598.60 2530.37 51.00
1207 32.1100 2659.50 2603.68 51.60
1208 32.1300 2768.30 2712.43 52.60
1209 32.1500 2940.70 2867.57 54.20
1210 32.1700 3211.10 3094.89 56.70
1211 32.1900 3506.40 3427.77 59.20
1212 32.2100 3849.60 3883.16 62.00
1213 32.2300 4235.20 4398.30 65.10
1214 32.2500 4635.80 4849.58 68.10
1215 32.2700 4894.90 5076.74 70.00
1216 32.2900 4950.10 5019.93 70.40
1217 32.3100 4827.50 4802.49 69.50
1218 32.3300 4583.00 4533.02 67.70
1219 32.3500 4287.20 4224.29 65.50
1220 32.3700 3977.00 3861.77 63.10
1221 32.3900 3668.70 3496.11 60.60
1222 32.4100 3379.10 3190.64 58.10
1223 32.4300 3177.30 2981.18 56.40
1224 32.4500 3063.80 2877.04 55.40
1225 32.4700 3046.10 2873.47 55.20
1226 32.4900 3116.40 2958.79 55.80
1227 32.5100 3156.80 3109.55 56.20
1228 32.5300 3395.30 3280.17 58.30
1229 32.5500 3515.10 3403.33 59.30
1230 32.5700 3447.90 3424.29 58.70
1231 32.5900 3508.80 3368.89 59.20
1232 32.6100 3416.90 3307.95 58.50
1233 32.6300 3344.50 3272.53 57.80
1234 32.6500 3329.00 3256.49 57.70
1235 32.6700 3353.40 3285.32 57.90
1236 32.6900 3403.00 3392.23 58.30
1237 32.7100 3459.90 3576.68 58.80
1238 32.7300 3550.50 3784.33 59.60
1239 32.7500 3724.10 3921.35 61.00
1240 32.7700 3874.50 3924.62 62.20
1241 32.7900 3862.50 3838.83 62.10
1242 32.8100 3790.20 3729.51 61.60
1243 32.8300 3776.70 3626.57 61.50
1244 32.8500 3632.00 3528.83 60.30
1245 32.8700 3654.80 3466.84 60.50
1246 32.8900 3711.40 3480.23 60.90
1247 32.9100 3724.40 3580.32 61.00
1248 32.9300 3912.50 3730.26 62.50
1249 32.9500 3982.60 3851.35 63.10
1250 32.9700 4053.10 3880.71 63.70
1251 32.9900 4138.80 3851.57 64.30
1252 33.0100 4035.20 3836.08 63.50
1253 33.0300 4066.00 3847.70 63.80
1254 33.0500 4065.80 3853.38 63.80
1255 33.0700 4006.40 3855.06 63.30
1256 33.0900 3937.90 3918.43 62.80
1257 33.1100 3858.50 4101.61 62.10
1258 33.1300 3886.80 4400.89 62.30
1259 33.1500 3988.10 4757.73 63.20
1260 33.1700 4065.80 5086.71 63.80
1261 33.1900 4320.80 5279.22 65.70
1262 33.2100 4656.20 5295.78 68.20
1263 33.2300 5030.50 5234.52 70.90
1264 33.2500 5401.50 5161.94 73.50
1265 33.2700 5890.40 5020.24 76.70
1266 33.2900 5904.10 4708.93 76.80
1267 33.3100 5690.70 4289.45 75.40
1268 33.3300 5438.70 3891.13 73.70
1269 33.3500 5052.60 3564.13 71.10
1270 33.3700 4545.70 3280.19 67.40
1271 33.3900 4064.30 3023.30 63.80
1272 33.4100 3667.70 2811.08 60.60
1273 33.4300 3293.00 2648.92 57.40
1274 33.4500 3038.80 2534.36 55.10
1275 33.4700 2835.60 2456.85 53.30
1276 33.4900 2665.40 2407.19 51.60
1277 33.5100 2535.90 2374.66 50.40
1278 33.5300 2455.90 2355.23 49.60
1279 33.5500 2398.20 2344.58 49.00
1280 33.5700 2353.30 2347.64 48.50
1281 33.5900 2310.70 2365.16 48.10
1282 33.6100 2393.70 2401.38 48.90
1283 33.6300 2427.50 2458.60 49.30
1284 33.6500 2416.80 2541.48 49.20
1285 33.6700 2384.00 2627.61 48.80
1286 33.6900 2359.70 2695.15 48.60
1287 33.7100 2349.90 2716.61 48.50
1288 33.7300 2332.70 2694.25 48.30
1289 33.7500 2294.50 2658.38 47.90
1290 33.7700 2302.90 2627.21 48.00
1291 33.7900 2330.60 2599.02 48.30
1292 33.8100 2396.90 2572.85 49.00
1293 33.8300 2493.00 2559.49 49.90
1294 33.8500 2501.40 2575.51 50.00
1295 33.8700 2580.50 2618.41 50.80
1296 33.8900 2636.20 2669.85 51.30
1297 33.9100 2657.30 2699.78 51.50
1298 33.9300 2708.30 2690.97 52.00
1299 33.9500 2687.20 2658.50 51.80
1300 33.9700 2634.90 2627.57 51.30
1301 33.9900 2597.20 2600.85 51.00
1302 34.0100 2655.90 2571.44 51.50
1303 34.0300 2582.10 2542.44 50.80
1304 34.0500 2549.10 2532.95 50.50
1305 34.0700 2567.60 2559.70 50.70
1306 34.0900 2632.40 2634.94 51.30
1307 34.1100 2868.30 2769.59 53.60
1308 34.1300 3013.60 2966.39 54.90
1309 34.1500 3164.50 3213.19 56.30
1310 34.1700 3405.50 3464.14 58.40
1311 34.1900 3707.80 3648.00 60.90
1312 34.2100 3907.90 3737.74 62.50
1313 34.2300 3984.80 3764.53 63.10
1314 34.2500 3946.30 3764.53 62.80
1315 34.2700 3921.90 3713.34 62.60
1316 34.2900 3879.90 3600.85 62.30
1317 34.3100 3799.40 3467.23 61.60
1318 34.3300 3680.30 3378.22 60.70
1319 34.3500 3549.30 3363.70 59.60
1320 34.3700 3544.80 3416.22 59.50
1321 34.3900 3572.80 3515.08 59.80
1322 34.4100 3597.00 3612.72 60.00
1323 34.4300 3575.70 3638.20 59.80
1324 34.4500 3545.20 3565.87 59.50
1325 34.4700 3412.20 3453.84 58.40
1326 34.4900 3303.20 3355.47 57.50
1327 34.5100 3409.10 3269.87 58.40
1328 34.5300 3378.10 3180.27 58.10
1329 34.5500 3286.50 3108.69 57.30
1330 34.5700 3246.10 3104.12 57.00
1331 34.5900 3344.10 3203.11 57.80
1332 34.6100 3300.70 3419.03 57.50
1333 34.6300 3385.70 3732.51 58.20
1334 34.6500 3525.80 4072.08 59.40
1335 34.6700 3670.30 4314.89 60.60
1336 34.6900 3760.20 4358.19 61.30
1337 34.7100 3714.60 4248.96 60.90
1338 34.7300 3696.00 4116.83 60.80
1339 34.7500 3734.40 4020.54 61.10
1340 34.7700 3712.30 3929.32 60.90
1341 34.7900 3822.50 3815.21 61.80
1342 34.8100 3814.70 3703.65 61.80
1343 34.8300 3707.60 3606.25 60.90
1344 34.8500 3674.90 3519.13 60.60
1345 34.8700 3592.80 3437.32 59.90
1346 34.8900 3509.20 3342.58 59.20
1347 34.9100 3406.10 3220.70 58.40
1348 34.9300 3249.20 3085.60 57.00
1349 34.9500 3036.00 2954.43 55.10
1350 34.9700 2879.00 2831.77 53.70
1351 34.9900 2792.30 2713.80 52.80
1352 35.0100 2776.50 2606.68 52.70
1353 35.0300 2615.80 2522.31 51.10
1354 35.0500 2508.90 2462.37 50.10
1355 35.0700 2376.60 2424.00 48.80
1356 35.0900 2204.60 2402.73 47.00
1357 35.1100 2294.40 2394.98 47.90
1358 35.1300 2393.80 2400.94 48.90
1359 35.1500 2514.80 2418.09 50.10
1360 35.1700 2634.80 2451.69 51.30
1361 35.1900 2633.20 2515.13 51.30
1362 35.2100 2702.30 2607.59 52.00
1363 35.2300 2839.50 2753.53 53.30
1364 35.2500 3014.60 2961.12 54.90
1365 35.2700 3150.90 3227.50 56.10
1366 35.2900 3499.30 3513.05 59.20
1367 35.3100 3697.40 3751.47 60.80
1368 35.3300 3779.00 3868.80 61.50
1369 35.3500 3868.80 3845.47 62.20
1370 35.3700 3734.60 3728.67 61.10
1371 35.3900 3570.30 3584.64 59.80
1372 35.4100 3408.60 3431.18 58.40
1373 35.4300 3273.30 3255.50 57.20
1374 35.4500 3092.80 3057.96 55.60
1375 35.4700 2917.80 2869.11 54.00
1376 35.4900 2793.00 2715.42 52.80
1377 35.5100 2733.80 2605.66 52.30
1378 35.5300 2604.30 2534.26 51.00
1379 35.5500 2581.50 2496.07 50.80
1380 35.5700 2594.80 2481.84 50.90
1381 35.5900 2606.40 2488.71 51.10
1382 35.6100 2575.20 2518.32 50.70
1383 35.6300 2678.70 2577.91 51.80
1384 35.6500 2803.80 2679.45 53.00
1385 35.6700 2949.30 2836.25 54.30
1386 35.6900 3190.80 3050.87 56.50
1387 35.7100 3419.20 3318.57 58.50
1388 35.7300 3690.60 3582.37 60.80
1389 35.7500 3940.10 3752.79 62.80
1390 35.7700 4044.50 3764.01 63.60
1391 35.7900 4012.60 3658.47 63.30
1392 35.8100 3991.60 3535.26 63.20
1393 35.8300 3931.40 3423.91 62.70
1394 35.8500 3770.60 3294.12 61.40
1395 35.8700 3514.70 3127.81 59.30
1396 35.8900 3292.00 2952.76 57.40
1397 35.9100 3104.50 2803.35 55.70
1398 35.9300 2953.50 2696.04 54.30
1399 35.9500 2845.40 2630.91 53.30
1400 35.9700 2811.30 2601.87 53.00
1401 35.9900 2844.90 2602.22 53.30
1402 36.0100 2925.70 2630.29 54.10
1403 36.0300 2959.20 2687.05 54.40
1404 36.0500 3072.60 2776.27 55.40
1405 36.0700 3222.00 2902.76 56.80
1406 36.0900 3385.60 3074.61 58.20
1407 36.1100 3533.30 3304.53 59.40
1408 36.1300 3489.90 3601.81 59.10
1409 36.1500 3641.60 3948.84 60.30
1410 36.1700 3864.50 4323.70 62.20
1411 36.1900 3827.90 4688.86 61.90
1412 36.2100 3881.60 4955.17 62.30
1413 36.2300 3963.00 5016.96 63.00
1414 36.2500 4018.20 4880.57 63.40
1415 36.2700 3991.10 4659.08 63.20
1416 36.2900 4007.90 4421.00 63.30
1417 36.3100 3838.60 4161.23 62.00
1418 36.3300 3669.10 3861.36 60.60
1419 36.3500 3628.50 3550.30 60.20
1420 36.3700 3564.60 3276.70 59.70
1421 36.3900 3448.70 3066.77 58.70
1422 36.4100 3286.50 2928.55 57.30
1423 36.4300 3114.70 2857.90 55.80
1424 36.4500 3127.60 2843.90 55.90
1425 36.4700 3151.80 2860.33 56.10
1426 36.4900 3097.70 2875.22 55.70
1427 36.5100 2983.30 2857.15 54.60
1428 36.5300 2948.30 2807.93 54.30
1429 36.5500 2841.60 2752.92 53.30
1430 36.5700 2771.60 2705.29 52.60
1431 36.5900 2731.00 2659.62 52.30
1432 36.6100 2671.60 2603.46 51.70
1433 36.6300 2673.00 2542.35 51.70
1434 36.6500 2598.70 2487.55 51.00
1435 36.6700 2514.00 2444.73 50.10
1436 36.6900 2511.00 2417.07 50.10
1437 36.7100 2442.40 2396.42 49.40
1438 36.7300 2401.60 2386.12 49.00
1439 36.7500 2363.80 2378.28 48.60
1440 36.7700 2315.20 2374.24 48.10
1441 36.7900 2351.00 2370.04 48.50
1442 36.8100 2403.90 2372.23 49.00
1443 36.8300 2398.20 2379.50 49.00
1444 36.8500 2312.00 2389.21 48.10
1445 36.8700 2246.50 2403.49 47.40
1446 36.8900 2346.80 2420.43 48.40
1447 36.9100 2400.00 2441.56 49.00
1448 36.9300 2381.90 2461.19 48.80
1449 36.9500 2436.00 2475.50 49.40
1450 36.9700 2501.30 2486.65 50.00
1451 36.9900 2531.80 2500.72 50.30
1452 37.0100 2549.90 2521.15 50.50
1453 37.0300 2619.20 2547.62 51.20
1454 37.0500 2648.10 2580.67 51.50
1455 37.0700 2693.30 2627.73 51.90
1456 37.0900 2747.20 2703.05 52.40
1457 37.1100 2793.60 2820.23 52.90
1458 37.1300 2948.10 2986.21 54.30
1459 37.1500 3140.70 3191.51 56.00
1460 37.1700 3380.20 3397.39 58.10
1461 37.1900 3658.40 3535.51 60.50
1462 37.2100 3722.40 3553.59 61.00
1463 37.2300 3617.90 3478.72 60.10
1464 37.2500 3454.40 3389.17 58.80
1465 37.2700 3300.10 3311.27 57.40
1466 37.2900 3213.30 3238.55 56.70
1467 37.3100 3136.20 3141.82 56.00
1468 37.3300 3037.10 3036.13 55.10
1469 37.3500 2936.10 2947.30 54.20
1470 37.3700 2948.30 2892.30 54.30
1471 37.3900 2827.90 2869.58 53.20
1472 37.4100 2794.90 2876.20 52.90
1473 37.4300 2841.80 2902.07 53.30
1474 37.4500 2857.80 2924.21 53.50
1475 37.4700 2890.60 2924.56 53.80
1476 37.4900 2885.90 2912.16 53.70
1477 37.5100 2912.20 2912.81 54.00
1478 37.5300 3071.40 2943.99 55.40
1479 37.5500 3059.80 3010.04 55.30
1480 37.5700 3136.70 3117.32 56.00
1481 37.5900 3282.50 3271.84 57.30
1482 37.6100 3468.30 3468.50 58.90
1483 37.6300 3587.10 3667.06 59.90
1484 37.6500 3716.50 3798.54 61.00
1485 37.6700 3879.10 3828.24 62.30
1486 37.6900 4044.10 3809.12 63.60
1487 37.7100 3884.20 3828.39 62.30
1488 37.7300 3876.90 3909.50 62.30
1489 37.7500 3854.60 4026.32 62.10
1490 37.7700 3770.60 4127.85 61.40
1491 37.7900 3677.60 4166.38 60.60
1492 37.8100 3609.40 4104.93 60.10
1493 37.8300 3547.90 3948.86 59.60
1494 37.8500 3466.20 3780.84 58.90
1495 37.8700 3308.50 3649.01 57.50
1496 37.8900 3245.60 3535.22 57.00
1497 37.9100 3143.90 3394.46 56.10
1498 37.9300 3046.60 3222.08 55.20
1499 37.9500 3038.20 3053.77 55.10
1500 37.9700 2945.90 2916.36 54.30
1501 37.9900 2906.40 2814.34 53.90
1502 38.0100 2870.30 2740.59 53.60
1503 38.0300 2787.40 2689.18 52.80
1504 38.0500 2686.90 2656.55 51.80
1505 38.0700 2657.30 2639.90 51.50
1506 38.0900 2661.00 2637.94 51.60
1507 38.1100 2671.10 2651.80 51.70
1508 38.1300 2662.00 2685.32 51.60
1509 38.1500 2719.70 2744.23 52.20
1510 38.1700 2783.30 2834.04 52.80
1511 38.1900 2845.60 2955.35 53.30
1512 38.2100 2975.80 3097.04 54.60
1513 38.2300 3135.60 3229.21 56.00
1514 38.2500 3260.40 3306.81 57.10
1515 38.2700 3309.70 3310.51 57.50
1516 38.2900 3216.80 3255.29 56.70
1517 38.3100 3132.10 3188.56 56.00
1518 38.3300 3095.30 3130.70 55.60
1519 38.3500 3059.40 3070.23 55.30
1520 38.3700 2942.90 2997.06 54.20
1521 38.3900 2794.70 2915.18 52.90
1522 38.4100 2689.70 2844.04 51.90
1523 38.4300 2612.90 2793.70 51.10
1524 38.4500 2545.70 2762.13 50.50
1525 38.4700 2498.50 2741.18 50.00
1526 38.4900 2539.40 2726.81 50.40
1527 38.5100 2572.80 2720.27 50.70
1528 38.5300 2545.20 2726.64 50.40
1529 38.5500 2547.50 2746.47 50.50
1530 38.5700 2572.80 2779.22 50.70
1531 38.5900 2641.40 2826.40 51.40
1532 38.6100 2755.10 2890.78 52.50
1533 38.6300 2883.10 2973.17 53.70
1534 38.6500 2946.00 3069.37 54.30
1535 38.6700 3038.20 3180.86 55.10
1536 38.6900 3196.90 3329.73 56.50
1537 38.7100 3462.70 3545.95 58.80
1538 38.7300 3772.20 3848.66 61.40
1539 38.7500 4076.50 4209.90 63.80
1540 38.7700 4314.90 4545.65 65.70
1541 38.7900 4395.60 4732.25 66.30
1542 38.8100 4438.40 4700.83 66.60
1543 38.8300 4422.00 4528.16 66.50
1544 38.8500 4372.30 4346.69 66.10
1545 38.8700 4316.60 4204.02 65.70
1546 38.8900 4140.70 4069.05 64.30
1547 38.9100 4043.30 3893.61 63.60
1548 38.9300 3944.10 3691.39 62.80
1549 38.9500 3787.30 3507.11 61.50
1550 38.9700 3578.60 3354.60 59.80
1551 38.9900 3424.90 3230.10 58.50
1552 39.0100 3334.10 3129.32 57.70
1553 39.0300 3286.50 3052.26 57.30
1554 39.0500 3162.40 2991.74 56.20
1555 39.0700 3122.70 2939.14 55.90
1556 39.0900 3052.40 2887.91 55.20
1557 39.1100 2948.60 2838.19 54.30
1558 39.1300 2892.30 2794.23 53.80
1559 39.1500 2779.00 2757.67 52.70
1560 39.1700 2725.80 2730.38 52.20
1561 39.1900 2721.00 2717.85 52.20
1562 39.2100 2713.40 2714.78 52.10
1563 39.2300 2655.10 2727.22 51.50
1564 39.2500 2684.90 2760.15 51.80
1565 39.2700 2753.80 2816.01 52.50
1566 39.2900 2796.70 2899.84 52.90
1567 39.3100 2861.40 3010.40 53.50
1568 39.3300 2865.10 3133.84 53.50
1569 39.3500 2896.10 3241.25 53.80
1570 39.3700 2999.20 3292.04 54.80
1571 39.3900 2918.50 3279.87 54.00
1572 39.4100 2954.50 3243.32 54.40
1573 39.4300 3021.80 3217.77 55.00
1574 39.4500 3075.80 3203.42 55.50
1575 39.4700 3089.50 3173.89 55.60
1576 39.4900 3100.70 3110.64 55.70
1577 39.5100 3090.20 3026.15 55.60
1578 39.5300 3053.10 2945.11 55.30
1579 39.5500 2991.40 2882.46 54.70
1580 39.5700 2890.80 2839.59 53.80
1581 39.5900 2831.20 2810.23 53.20
1582 39.6100 2792.70 2793.25 52.80
1583 39.6300 2712.70 2779.08 52.10
1584 39.6500 2805.50 2769.56 53.00
1585 39.6700 2750.70 2763.14 52.40
1586 39.6900 2655.20 2754.32 51.50
1587 39.7100 2674.90 2747.36 51.70
1588 39.7300 2607.10 2745.76 51.10
1589 39.7500 2544.50 2752.78 50.40
1590 39.7700 2554.60 2768.55 50.50
1591 39.7900 2675.60 2795.09 51.70
1592 39.8100 2717.50 2836.92 52.10
1593 39.8300 2743.40 2898.42 52.40
1594 39.8500 2861.50 2978.95 53.50
1595 39.8700 3087.20 3064.30 55.60
1596 39.8900 3185.40 3134.45 56.40
1597 39.9100 3374.50 3165.27 58.10
1598 39.9300 3425.40 3158.03 58.50
1599 39.9500 3322.50 3142.77 57.60
1600 39.9700 3249.40 3147.15 57.00
1601 39.9900 3182.90 3159.37 56.40
1602 40.0100 3245.50 3176.91 57.00
1603 40.0300 3365.10 3195.25 58.00
1604 40.0500 3349.10 3218.55 57.90
1605 40.0700 3322.40 3247.51 57.60
1606 40.0900 3331.80 3290.99 57.70
1607 40.1100 3393.70 3340.95 58.30
1608 40.1300 3523.20 3435.93 59.40
1609 40.1500 3682.90 3578.18 60.70
1610 40.1700 3839.20 3752.43 62.00
1611 40.1900 3936.40 3921.98 62.70
1612 40.2100 3936.20 4051.06 62.70
1613 40.2300 3958.30 4112.48 62.90
1614 40.2500 3974.70 4086.03 63.00
1615 40.2700 3966.40 3981.77 63.00
1616 40.2900 3922.00 3852.81 62.60
1617 40.3100 3835.10 3733.97 61.90
1618 40.3300 3717.20 3622.75 61.00
1619 40.3500 3631.00 3501.89 60.30
1620 40.3700 3567.90 3366.55 59.70
1621 40.3900 3420.20 3237.53 58.50
1622 40.4100 3365.10 3137.29 58.00
1623 40.4300 3269.00 3074.14 57.20
1624 40.4500 3155.40 3045.16 56.20
1625 40.4700 3131.80 3048.24 56.00
1626 40.4900 3139.20 3073.74 56.00
1627 40.5100 3198.90 3111.97 56.60
1628 40.5300 3281.60 3159.59 57.30
1629 40.5500 3344.10 3228.25 57.80
1630 40.5700 3428.30 3337.38 58.60
1631 40.5900 3545.60 3503.56 59.50
1632 40.6100 3675.60 3725.92 60.60
1633 40.6300 3801.20 3979.14 61.70
1634 40.6500 3957.30 4207.37 62.90
1635 40.6700 4040.30 4330.17 63.60
1636 40.6900 4066.90 4302.28 63.80
1637 40.7100 4051.70 4179.52 63.70
1638 40.7300 4030.40 4053.03 63.50
1639 40.7500 3931.70 3958.59 62.70
1640 40.7700 3783.90 3871.61 61.50
1641 40.7900 3643.40 3752.66 60.40
1642 40.8100 3693.70 3603.70 60.80
1643 40.8300 3563.60 3461.81 59.70
1644 40.8500 3453.30 3355.30 58.80
1645 40.8700 3360.20 3293.00 58.00
1646 40.8900 3182.00 3278.49 56.40
1647 40.9100 3241.60 3304.74 56.90
1648 40.9300 3223.00 3378.65 56.80
1649 40.9500 3215.80 3511.79 56.70
1650 40.9700 3397.80 3725.86 58.30
1651 40.9900 3605.10 4053.39 60.00
1652 41.0100 4050.60 4524.79 63.60
1653 41.0300 4717.50 5167.93 68.70
1654 41.0500 5586.70 5965.17 74.70
1655 41.0700 6849.40 6815.18 82.80
1656 41.0900 8090.00 7533.79 89.90
1657 41.1100 8866.70 7970.25 94.20
1658 41.1300 8946.10 8115.95 94.60
1659 41.1500 8602.60 8009.91 92.80
1660 41.1700 8145.50 7710.76 90.30
1661 41.1900 7860.60 7319.70 88.70
1662 41.2100 7733.70 6899.63 87.90
1663 41.2300 7243.30 6475.91 85.10
1664 41.2500 6543.30 6060.08 80.90
1665 41.2700 5926.80 5655.25 77.00
1666 41.2900 5451.10 5294.48 73.80
1667 41.3100 5097.70 5006.05 71.40
1668 41.3300 4788.60 4758.12 69.20
1669 41.3500 4471.20 4510.78 66.90
1670 41.3700 4208.70 4279.98 64.90
1671 41.3900 4108.20 4086.76 64.10
1672 41.4100 3916.90 3938.23 62.60
1673 41.4300 3857.00 3817.36 62.10
1674 41.4500 3816.80 3690.03 61.80
1675 41.4700 3676.00 3558.76 60.60
1676 41.4900 3437.60 3436.79 58.60
1677 41.5100 3376.50 3334.59 58.10
1678 41.5300 3356.20 3257.43 57.90
1679 41.5500 3291.40 3204.17 57.40
1680 41.5700 3218.30 3180.38 56.70
1681 41.5900 3165.90 3185.75 56.30
1682 41.6100 3156.90 3212.31 56.20
1683 41.6300 3185.00 3241.74 56.40
1684 41.6500 3178.10 3252.26 56.40
1685 41.6700 3182.70 3234.48 56.40
1686 41.6900 3138.80 3203.31 56.00
1687 41.7100 3082.50 3180.23 55.50
1688 41.7300 3151.10 3173.59 56.10
1689 41.7500 3076.50 3177.13 55.50
1690 41.7700 3105.00 3176.73 55.70
1691 41.7900 3181.40 3159.87 56.40
1692 41.8100 3160.80 3137.47 56.20
1693 41.8300 3135.90 3118.99 56.00
1694 41.8500 3131.40 3117.92 56.00
1695 41.8700 3116.20 3140.75 55.80
1696 41.8900 3060.80 3188.14 55.30
1697 41.9100 3196.40 3267.90 56.50
1698 41.9300 3279.70 3388.54 57.30
1699 41.9500 3419.50 3557.51 58.50
1700 41.9700 3679.50 3763.99 60.70
1701 41.9900 3943.10 3962.38 62.80
1702 42.0100 4389.80 4077.41 66.30
1703 42.0300 4587.00 4061.99 67.70
1704 42.0500 4407.80 3957.59 66.40
1705 42.0700 4154.20 3844.21 64.50
1706 42.0900 3951.80 3760.18 62.90
1707 42.1100 3808.20 3687.98 61.70
1708 42.1300 3709.20 3588.66 60.90
1709 42.1500 3607.20 3452.20 60.10
1710 42.1700 3431.90 3308.49 58.60
1711 42.1900 3231.70 3184.23 56.80
1712 42.2100 3046.80 3087.99 55.20
1713 42.2300 2936.40 3025.27 54.20
1714 42.2500 2889.00 2989.32 53.70
1715 42.2700 2830.20 2970.77 53.20
1716 42.2900 2828.90 2983.43 53.20
1717 42.3100 2960.60 3014.85 54.40
1718 42.3300 2848.70 3077.14 53.40
1719 42.3500 2888.00 3170.16 53.70
1720 42.3700 2977.60 3291.02 54.60
1721 42.3900 3056.60 3439.15 55.30
1722 42.4100 3296.50 3594.44 57.40
1723 42.4300 3403.80 3734.68 58.30
1724 42.4500 3430.80 3846.97 58.60
1725 42.4700 3436.30 3958.20 58.60
1726 42.4900 3610.00 4112.86 60.10
1727 42.5100 4017.50 4331.33 63.40
1728 42.5300 4510.80 4580.23 67.20
1729 42.5500 5003.20 4766.47 70.70
1730 42.5700 5352.80 4785.77 73.20
1731 42.5900 5242.20 4631.91 72.40
1732 42.6100 4906.20 4408.66 70.00
1733 42.6300 4488.30 4214.68 67.00
1734 42.6500 4192.80 4072.00 64.80
1735 42.6700 4081.20 3940.43 63.90
1736 42.6900 3959.60 3772.79 62.90
1737 42.7100 3773.60 3572.16 61.40
1738 42.7300 3475.60 3376.52 59.00
1739 42.7500 3129.90 3213.70 55.90
1740 42.7700 2947.20 3090.17 54.30
1741 42.7900 2830.10 3003.83 53.20
1742 42.8100 2709.00 2948.09 52.00
1743 42.8300 2709.00 2915.18 52.00
1744 42.8500 2730.20 2900.04 52.30
1745 42.8700 2711.90 2897.96 52.10
1746 42.8900 2656.00 2904.16 51.50
1747 42.9100 2751.20 2910.50 52.50
1748 43.2300 3629.50 3509.06 60.20
1749 43.2500 3708.70 3655.12 60.90
1750 43.2700 3960.00 3827.42 62.90
1751 43.2900 4274.70 4030.77 65.40
1752 43.3100 4580.90 4232.43 67.70
1753 43.3300 4785.10 4349.97 69.20
1754 43.3500 4905.20 4319.49 70.00
1755 43.3700 4853.10 4170.62 69.70
1756 43.3900 4627.40 3995.53 68.00
1757 43.4100 4326.60 3854.31 65.80
1758 43.4300 4283.40 3744.01 65.40
1759 43.4500 4183.60 3624.22 64.70
1760 43.4700 4004.70 3468.87 63.30
1761 43.4900 3823.40 3296.23 61.80
1762 43.5100 3626.60 3137.46 60.20
1763 43.5300 3403.40 3008.92 58.30
1764 43.5500 3185.30 2911.79 56.40
1765 43.5700 3016.20 2842.18 54.90
1766 43.5900 2986.90 2792.14 54.70
1767 43.6100 2933.90 2760.17 54.20
1768 43.6300 2862.60 2738.27 53.50
1769 43.6500 2785.20 2724.55 52.80
1770 43.6700 2789.00 2718.66 52.80
1771 43.6900 2759.80 2718.22 52.50
1772 43.7100 2734.40 2719.83 52.30
1773 43.7300 2736.30 2728.72 52.30
1774 43.7500 2785.00 2741.57 52.80
1775 43.7700 2768.30 2752.83 52.60
1776 43.7900 2741.10 2766.78 52.40
1777 43.8100 2726.80 2789.80 52.20
1778 43.8300 2743.60 2817.51 52.40
1779 43.8500 2757.10 2855.59 52.50
1780 43.8700 2764.20 2891.11 52.60
1781 43.8900 2809.00 2924.76 53.00
1782 43.9100 2995.60 2959.68 54.70
1783 43.9300 2925.70 2995.76 54.10
1784 43.9500 2998.10 3019.56 54.80
1785 43.9700 3137.10 3024.01 56.00
1786 43.9900 3175.20 3013.80 56.30
1787 44.0100 3065.00 3004.69 55.40
1788 44.5900 3047.60 2885.14 55.20
1789 44.6100 3087.40 2936.30 55.60
1790 44.6300 3109.10 3017.81 55.80
1791 44.6500 3139.10 3119.83 56.00
1792 44.6700 3251.10 3238.12 57.00
1793 44.6900 3322.10 3365.87 57.60
1794 44.7100 3380.90 3496.21 58.10
1795 44.7300 3444.70 3623.20 58.70
1796 44.7500 3541.40 3745.48 59.50
1797 44.7700 3745.80 3864.59 61.20
1798 44.7900 3893.20 3984.23 62.40
1799 44.8100 3973.00 4111.60 63.00
1800 44.8300 4001.90 4248.93 63.30
1801 44.8500 4129.00 4381.03 64.30
1802 44.8700 4211.60 4477.80 64.90
1803 44.8900 4281.70 4507.23 65.40
1804 44.9100 4375.90 4463.61 66.20
1805 44.9300 4325.60 4378.25 65.80
1806 44.9500 4255.90 4289.02 65.20
1807 44.9700 4170.90 4205.91 64.60
1808 44.9900 4075.00 4106.61 63.80
1809 45.0100 3979.00 3979.67 63.10
1810 45.0300 3912.40 3839.63 62.50
1811 45.0500 3838.80 3715.28 62.00
1812 45.0700 3732.30 3619.14 61.10
1813 45.0900 3540.40 3536.56 59.50
1814 45.1100 3421.90 3437.98 58.50
1815 45.1300 3338.80 3316.03 57.80
1816 45.1500 3271.60 3194.38 57.20
1817 45.1700 3191.60 3096.71 56.50
1818 45.1900 3142.20 3026.23 56.10
1819 45.2100 3029.50 2970.79 55.00
1820 45.2300 2904.90 2914.34 53.90
1821 45.2500 2882.10 2852.68 53.70
1822 45.2700 2870.10 2794.26 53.60
1823 45.2900 2789.00 2748.64 52.80
1824 45.3100 2722.20 2719.07 52.20
1825 45.3300 2763.10 2703.56 52.60
1826 45.3500 2627.50 2698.40 51.30
1827 45.3700 2660.70 2698.27 51.60
1828 45.3900 2697.80 2696.12 51.90
1829 45.4100 2635.00 2685.10 51.30
1830 45.4300 2661.70 2667.30 51.60
1831 45.4500 2670.90 2649.96 51.70
1832 45.4700 2651.10 2638.83 51.50
1833 45.4900 2605.80 2634.33 51.00
1834 45.5100 2582.20 2635.39 50.80
1835 45.5300 2564.20 2636.88 50.60
1836 45.5500 2550.60 2641.73 50.50
1837 45.5700 2552.30 2656.05 50.50
1838 45.5900 2604.90 2686.11 51.00
1839 45.6100 2638.60 2738.25 51.40
1840 45.6300 2655.50 2816.83 51.50
1841 45.6500 2672.20 2919.29 51.70
1842 45.6700 2719.40 3035.30 52.10
1843 45.6900 2747.20 3135.98 52.40
1844 45.7100 2797.40 3189.59 52.90
1845 45.7300 2851.20 3191.25 53.40
1846 45.7500 2883.50 3167.87 53.70
1847 45.7700 2963.40 3144.81 54.40
1848 45.7900 2996.40 3125.61 54.70
1849 45.8100 3011.20 3102.88 54.90
1850 45.8300 3027.30 3068.86 55.00
1851 45.8500 3002.20 3025.67 54.80
1852 45.8700 3000.60 2986.30 54.80
1853 45.8900 3022.80 2959.08 55.00
1854 45.9100 3050.90 2944.48 55.20
1855 45.9300 2979.30 2935.50 54.60
1856 45.9500 2986.50 2927.06 54.60
1857 45.9700 2968.40 2918.57 54.50
1858 45.9900 2913.40 2917.71 54.00
1859 46.0100 2883.70 2931.25 53.70
1860 46.0300 2809.30 2958.37 53.00
1861 46.0500 2847.20 2981.71 53.40
1862 46.0700 2944.80 2986.71 54.30
1863 46.0900 2944.00 2963.73 54.30
1864 46.1100 2849.20 2927.55 53.40
1865 46.1300 2756.40 2896.31 52.50
1866 46.1500 2732.20 2882.28 52.30
1867 46.1700 2848.70 2878.15 53.40
1868 46.1900 2735.10 2872.96 52.30
1869 46.2100 2704.20 2851.86 52.00
1870 46.2300 2699.70 2816.60 52.00
1871 46.2500 2677.70 2773.69 51.70
1872 46.2700 2707.40 2729.36 52.00
1873 46.2900 2650.90 2681.23 51.50
1874 46.3100 2573.00 2637.57 50.70
1875 46.3300 2508.50 2597.75 50.10
1876 46.3500 2462.00 2561.77 49.60
1877 46.3700 2435.20 2528.94 49.30
1878 46.3900 2455.90 2498.34 49.60
1879 46.4100 2493.40 2467.25 49.90
1880 46.4300 2406.60 2439.43 49.10
1881 46.4500 2340.90 2419.35 48.40
1882 46.4700 2325.70 2405.01 48.20
1883 46.4900 2340.80 2396.00 48.40
1884 46.5100 2331.70 2391.68 48.30
1885 46.5300 2308.40 2391.88 48.00
1886 46.5500 2330.40 2397.07 48.30
1887 46.5700 2381.20 2408.55 48.80
1888 46.5900 2431.40 2426.50 49.30
1889 46.6100 2400.40 2452.24 49.00
1890 46.6300 2432.20 2488.31 49.30
1891 46.6500 2464.30 2535.38 49.60
1892 46.6700 2449.60 2591.26 49.50
1893 46.6900 2561.50 2646.34 50.60
1894 46.7100 2545.60 2685.81 50.50
1895 46.7300 2545.80 2700.14 50.50
1896 46.7500 2628.60 2696.69 51.30
1897 46.7700 2697.10 2692.19 51.90
1898 46.7900 2738.30 2695.24 52.30
1899 46.8100 2700.60 2701.92 52.00
1900 46.8300 2633.80 2701.89 51.30
1901 46.8500 2796.00 2690.76 52.90
1902 46.8700 2677.80 2674.82 51.70
1903 46.8900 2654.10 2661.87 51.50
1904 46.9100 2723.90 2657.40 52.20
1905 46.9300 2714.70 2653.27 52.10
1906 46.9500 2795.20 2641.63 52.90
1907 46.9700 2777.80 2624.58 52.70
1908 46.9900 2703.10 2611.30 52.00
1909 47.0100 2655.90 2606.87 51.50
1910 47.0300 2712.50 2610.06 52.10
1911 47.0500 2776.70 2619.69 52.70
1912 47.0700 2777.60 2634.88 52.70
1913 47.0900 2663.90 2660.59 51.60
1914 47.1100 2686.00 2704.35 51.80
1915 47.1300 2666.50 2769.89 51.60
1916 47.1500 2687.40 2853.88 51.80
1917 47.1700 2781.10 2938.55 52.70
1918 47.1900 2821.50 2998.01 53.10
1919 47.2100 2836.60 3011.19 53.30
1920 47.2300 2871.10 2985.86 53.60
1921 47.2500 2921.10 2951.83 54.00
1922 47.2700 2903.60 2929.62 53.90
1923 47.2900 2952.80 2923.09 54.30
1924 47.3100 2964.20 2920.44 54.40
1925 47.3300 2942.20 2907.58 54.20
1926 47.3500 2952.10 2888.04 54.30
1927 47.3700 3031.40 2876.74 55.10
1928 47.3900 3021.80 2892.13 55.00
1929 47.4100 2971.60 2943.60 54.50
1930 47.4300 2980.70 3031.42 54.60
1931 47.4500 3017.30 3144.95 54.90
1932 47.4700 3081.20 3258.62 55.50
1933 47.4900 3130.70 3329.92 56.00
1934 47.5100 3128.80 3332.37 55.90
1935 47.5300 3183.60 3286.55 56.40
1936 47.5500 3161.20 3240.23 56.20
1937 47.5700 3136.80 3227.50 56.00
1938 47.5900 3154.40 3251.68 56.20
1939 47.6100 3180.30 3293.86 56.40
1940 47.6300 3169.90 3325.04 56.30
1941 47.6500 3157.20 3327.89 56.20
1942 47.6700 3157.10 3299.56 56.20
1943 47.6900 3176.90 3245.80 56.40
1944 47.7100 3155.00 3183.98 56.20
1945 47.7300 3096.30 3136.79 55.60
1946 47.7500 3057.40 3110.37 55.30
1947 47.7700 3184.60 3089.34 56.40
1948 47.7900 3050.60 3050.92 55.20
1949 47.8100 3035.20 2986.46 55.10
1950 47.8300 3062.80 2907.77 55.30
1951 47.8500 2935.70 2833.44 54.20
1952 47.8700 2878.20 2773.72 53.60
1953 47.8900 2794.10 2726.96 52.90
1954 47.9100 2733.90 2686.08 52.30
1955 47.9300 2750.30 2647.36 52.40
1956 47.9500 2719.80 2615.57 52.20
1957 47.9700 2752.20 2594.53 52.50
1958 47.9900 2754.50 2585.20 52.50
1959 48.0100 2687.00 2585.72 51.80
1960 48.0300 2769.30 2591.08 52.60
1961 48.0500 2758.00 2595.40 52.50
1962 48.0700 2746.10 2595.63 52.40
1963 48.0900 2763.90 2593.16 52.60
1964 48.1100 2770.00 2593.53 52.60
1965 48.1300 2762.80 2599.83 52.60
1966 48.1500 2734.20 2611.46 52.30
1967 48.1700 2706.70 2626.90 52.00
1968 48.1900 2748.60 2641.62 52.40
1969 48.2100 2810.20 2659.92 53.00
1970 48.2300 2827.30 2689.34 53.20
1971 48.2500 2868.30 2736.78 53.60
1972 48.2700 3067.00 2806.30 55.40
1973 48.2900 2958.20 2900.25 54.40
1974 48.3100 2945.80 3005.93 54.30
1975 48.3300 3029.40 3104.74 55.00
1976 48.3500 3179.80 3166.46 56.40
1977 48.3700 3167.60 3175.11 56.30
1978 48.3900 3100.80 3148.97 55.70
1979 48.4100 3108.10 3120.66 55.80
1980 48.4300 3250.30 3114.53 57.00
1981 48.4500 3188.60 3122.08 56.50
1982 48.4700 3086.20 3122.47 55.60
1983 48.4900 3017.50 3099.54 54.90
1984 48.5100 3018.70 3060.43 54.90
1985 48.5300 3104.00 3026.27 55.70
1986 48.5500 3093.90 3010.71 55.60
1987 48.5700 3026.40 3011.92 55.00
1988 48.5900 2985.60 3015.45 54.60
1989 48.6100 3195.00 3008.02 56.50
1990 48.6300 3261.50 2984.96 57.10
1991 48.6500 3285.10 2948.30 57.30
1992 48.6700 3236.80 2908.23 56.90
1993 48.6900 3035.80 2876.20 55.10
1994 48.7100 2948.60 2856.83 54.30
1995 48.7300 2904.00 2848.57 53.90
1996 48.7500 2905.80 2845.74 53.90
1997 48.7700 2960.50 2838.68 54.40
1998 48.7900 2891.90 2815.59 53.80
1999 48.8100 2869.40 2774.58 53.60
2000 48.8300 2838.40 2724.40 53.30
2001 48.8500 2758.60 2676.92 52.50
2002 48.8700 2650.50 2641.50 51.50
2003 48.8900 2639.00 2617.46 51.40
2004 48.9100 2647.00 2598.98 51.40
2005 48.9300 2634.30 2581.13 51.30
2006 48.9500 2582.50 2560.57 50.80
2007 48.9700 2593.50 2540.26 50.90
2008 48.9900 2538.20 2525.39 50.40
2009 49.0100 2448.10 2514.63 49.50
2010 49.0300 2548.70 2510.75 50.50
2011 49.0500 2510.20 2512.89 50.10
2012 49.0700 2466.50 2517.65 49.70
2013 49.0900 2443.90 2522.43 49.40
2014 49.1100 2451.50 2525.82 49.50
2015 49.1300 2534.20 2529.08 50.30
2016 49.1500 2545.10 2535.89 50.40
2017 49.1700 2554.30 2547.85 50.50
2018 49.1900 2660.90 2565.46 51.60
2019 49.2100 2621.40 2586.75 51.20
2020 49.2300 2620.00 2609.99 51.20
2021 49.2500 2614.70 2635.31 51.10
2022 49.2700 2581.20 2663.43 50.80
2023 49.2900 2668.80 2694.02 51.70
2024 49.3100 2740.50 2727.57 52.30
2025 49.3300 2763.80 2767.90 52.60
2026 49.3500 2749.40 2820.09 52.40
2027 49.3700 2868.20 2883.92 53.60
2028 49.3900 2988.80 2951.38 54.70
2029 49.4100 3022.10 3009.08 55.00
2030 49.4300 2978.10 3052.39 54.60
2031 49.4500 2989.50 3095.67 54.70
2032 49.4700 3060.50 3161.35 55.30
2033 49.4900 3156.90 3261.87 56.20
2034 49.5100 3245.70 3389.91 57.00
2035 49.5300 3269.30 3513.41 57.20
2036 49.5500 3334.00 3585.38 57.70
2037 49.5700 3426.20 3579.43 58.50
2038 49.5900 3496.40 3512.38 59.10
2039 49.6100 3481.10 3427.52 59.00
2040 49.6300 3458.40 3355.27 58.80
2041 49.6500 3400.90 3301.76 58.30
2042 49.6700 3323.20 3257.81 57.60
2043 49.6900 3242.30 3207.04 56.90
2044 49.7100 3229.40 3142.50 56.80
2045 49.7300 3182.70 3076.65 56.40
2046 49.7500 3130.20 3022.02 55.90
2047 49.7700 3088.50 2989.15 55.60
2048 49.7900 3066.40 2981.91 55.40
2049 49.8100 2979.80 2999.20 54.60
2050 50.5900 2809.90 2641.12 53.00
2051 50.6100 2793.90 2632.35 52.90
2052 50.6300 2813.70 2626.54 53.00
2053 50.6500 2741.70 2622.58 52.40
2054 50.6700 2685.70 2619.13 51.80
2055 50.6900 2685.60 2615.98 51.80
2056 50.7100 2734.40 2617.20 52.30
2057 50.7300 2719.50 2624.81 52.10
2058 50.7500 2692.50 2640.45 51.90
2059 50.7700 2667.00 2665.51 51.60
2060 50.7900 2648.70 2700.98 51.50
2061 50.8100 2724.80 2744.19 52.20
2062 50.8300 2784.30 2795.91 52.80
2063 50.8500 2865.10 2843.23 53.50
2064 50.8700 3048.60 2873.46 55.20
2065 50.8900 3177.00 2879.65 56.40
2066 50.9100 3128.10 2872.69 55.90
2067 50.9300 3032.50 2864.44 55.10
2068 50.9500 3023.50 2861.71 55.00
2069 50.9700 2849.80 2862.62 53.40
2070 50.9900 2865.70 2858.41 53.50
2071 51.0100 2947.50 2843.07 54.30
2072 51.0300 3001.40 2819.67 54.80
2073 51.0500 2926.00 2792.29 54.10
2074 51.0700 2799.40 2768.60 52.90
2075 51.0900 2712.10 2748.73 52.10
2076 51.1100 2686.40 2732.48 51.80
2077 51.1300 2648.30 2719.45 51.50
2078 51.1500 2670.60 2712.21 51.70
2079 51.1700 2708.90 2711.84 52.00
2080 51.1900 2743.10 2722.73 52.40
2081 51.2100 2748.40 2744.01 52.40
2082 51.9900 3104.80 3041.81 55.70
2083 52.0100 3028.20 2985.20 55.00
2084 52.0300 2985.30 2939.30 54.60
2085 52.0500 2961.00 2912.09 54.40
2086 52.0700 3006.90 2906.91 54.80
2087 52.0900 3022.80 2926.06 55.00
2088 52.1100 3020.30 2969.22 55.00
2089 52.1300 3053.00 3035.41 55.30
2090 52.1500 3173.10 3116.19 56.30
2091 52.1700 3282.50 3196.79 57.30
2092 52.1900 3345.30 3255.86 57.80
2093 52.2100 3327.00 3282.77 57.70
2094 52.2300 3364.30 3276.46 58.00
2095 52.2500 3391.70 3244.30 58.20
2096 52.2700 3360.90 3199.89 58.00
2097 52.2900 3250.20 3155.89 57.00
2098 52.3100 3285.20 3120.27 57.30
2099 52.3300 3217.60 3086.89 56.70
2100 52.3500 3159.70 3050.72 56.20
2101 52.3700 3144.90 3010.22 56.10
2102 52.3900 3029.90 2965.52 55.00
2103 52.4100 2984.00 2921.85 54.60
2104 52.4300 2965.20 2887.25 54.50
2105 52.4500 2947.40 2867.00 54.30
2106 52.4700 2884.20 2862.37 53.70
2107 52.4900 2925.70 2870.45 54.10
2108 52.5100 2912.80 2885.18 54.00
2109 52.5300 2854.30 2899.38 53.40
2110 52.5500 2826.90 2906.94 53.20
2111 52.5700 2849.80 2906.62 53.40
2112 52.5900 2861.40 2903.53 53.50
2113 52.6100 2852.10 2906.25 53.40
2114 52.6300 2816.30 2920.75 53.10
2115 52.6500 2772.90 2948.43 52.70
2116 52.6700 2899.70 2985.33 53.80
2117 52.6900 3014.80 3023.74 54.90
2118 52.7100 2970.00 3053.02 54.50
2119 52.7300 2914.40 3066.95 54.00
2120 52.7500 2916.90 3059.94 54.00
2121 52.7700 2923.80 3033.03 54.10
2122 52.7900 2905.50 2998.47 53.90
2123 52.8100 2857.50 2968.97 53.50
2124 52.8300 2880.30 2950.18 53.70
2125 52.8500 2880.90 2939.32 53.70
2126 52.8700 2852.90 2928.75 53.40
2127 52.8900 2886.40 2910.54 53.70
2128 52.9100 2838.50 2882.97 53.30
2129 52.9300 2838.20 2852.96 53.30
2130 52.9500 2854.30 2827.73 53.40
2131 52.9700 2762.10 2810.96 52.60
2132 52.9900 2814.70 2802.85 53.10
2133 53.0100 2854.90 2802.81 53.40
2134 53.0300 2885.30 2811.24 53.70
2135 53.0500 2930.30 2827.65 54.10
2136 53.0700 2877.80 2851.21 53.60
2137 53.0900 2875.80 2876.05 53.60
2138 53.1100 2924.50 2892.77 54.10
2139 53.1300 3010.70 2893.07 54.90
2140 53.1500 2936.00 2883.82 54.20
2141 53.1700 2956.10 2873.29 54.40
2142 53.1900 2975.60 2870.84 54.50
2143 53.2100 2955.80 2880.30 54.40
2144 53.2300 3020.60 2899.50 55.00
2145 53.2500 3017.10 2921.91 54.90
2146 53.2700 2985.90 2939.02 54.60
2147 53.2900 2957.30 2951.60 54.40
2148 53.3100 2995.40 2966.09 54.70
2149 53.3300 2961.30 2992.48 54.40
2150 53.3500 2999.70 3035.44 54.80
2151 53.3700 3088.60 3091.52 55.60
2152 53.3900 3104.60 3149.99 55.70
2153 53.4100 3245.30 3198.25 57.00
2154 53.4300 3351.30 3229.38 57.90
2155 53.4500 3375.30 3245.12 58.10
2156 53.4700 3272.50 3250.30 57.20
2157 53.4900 3221.70 3243.25 56.80
2158 53.5100 3120.80 3225.76 55.90
2159 53.5300 3067.30 3201.57 55.40
2160 53.5500 3147.90 3174.30 56.10
2161 53.5700 3144.80 3147.53 56.10
2162 53.5900 3160.00 3120.80 56.20
2163 53.6100 3158.30 3091.08 56.20
2164 53.6300 3120.80 3055.26 55.90
2165 53.6500 3067.50 3014.19 55.40
2166 53.6700 3010.00 2972.76 54.90
2167 53.6900 2949.60 2939.52 54.30
2168 53.7100 2915.80 2920.93 54.00
2169 53.7300 3034.60 2919.11 55.10
2170 53.7500 2933.30 2934.83 54.20
2171 53.7700 2894.10 2968.05 53.80
2172 53.7900 2944.30 3018.21 54.30
2173 53.8100 2991.60 3082.35 54.70
2174 53.8300 3076.70 3151.28 55.50
2175 53.8500 3164.00 3205.89 56.20
2176 53.8700 3195.50 3224.50 56.50
2177 53.8900 3086.60 3198.75 55.60
2178 53.9100 3091.10 3145.43 55.60
2179 53.9300 3068.10 3089.88 55.40
2180 53.9500 3053.70 3048.36 55.30
2181 53.9700 3084.30 3024.52 55.50
2182 53.9900 2987.60 3008.50 54.70
2183 54.0100 2888.10 2986.94 53.70
2184 54.0300 2821.00 2950.34 53.10
2185 54.0500 2806.60 2901.26 53.00
2186 54.0700 2824.90 2848.33 53.10
2187 54.0900 2856.80 2801.21 53.40
2188 54.1100 2816.80 2763.59 53.10
2189 54.1300 2699.10 2736.94 52.00
2190 54.1500 2639.70 2720.66 51.40
2191 54.1700 2696.30 2713.19 51.90
2192 54.1900 2716.10 2711.39 52.10
2193 54.2100 2698.90 2711.00 52.00
2194 54.2300 2746.20 2709.69 52.40
2195 54.2500 2697.70 2707.12 51.90
2196 54.2700 2755.40 2703.30 52.50
2197 54.2900 2831.10 2699.84 53.20
2198 54.3100 2732.10 2695.67 52.30
2199 54.3300 2650.60 2690.62 51.50
2200 54.3500 2693.80 2684.77 51.90
2201 54.3700 2738.60 2678.24 52.30
2202 54.3900 2652.60 2671.82 51.50
2203 54.4100 2685.40 2666.35 51.80
2204 54.4300 2714.40 2662.03 52.10
2205 54.4500 2697.10 2658.82 51.90
2206 54.4700 2621.20 2656.80 51.20
2207 54.4900 2660.80 2655.98 51.60
2208 54.5100 2664.70 2656.04 51.60
2209 54.5300 2676.90 2657.26 51.70
2210 54.5500 2695.30 2659.48 51.90
2211 54.5700 2612.30 2663.32 51.10
2212 54.5900 2594.80 2670.11 50.90
2213 54.6100 2585.50 2681.37 50.80
2214 54.6300 2576.60 2696.55 50.80
2215 54.6500 2589.60 2715.49 50.90
2216 54.6700 2644.50 2737.14 51.40
2217 54.6900 2595.00 2760.43 50.90
2218 54.7100 2529.90 2783.88 50.30
2219 54.7300 2647.10 2807.79 51.40
2220 54.7500 2732.60 2831.98 52.30
2221 54.7700 2713.50 2859.16 52.10
2222 54.7900 2701.70 2888.75 52.00
2223 54.8100 2824.90 2917.44 53.10
2224 54.8300 2724.40 2938.10 52.20
2225 54.8500 2774.80 2944.26 52.70
2226 54.8700 2845.40 2932.71 53.30
2227 54.8900 2837.30 2910.00 53.30
2228 54.9100 2744.40 2885.11 52.40
2229 54.9300 2720.80 2864.85 52.20
2230 54.9500 2714.60 2850.79 52.10
2231 54.9700 2703.40 2841.06 52.00
2232 54.9900 2698.80 2832.89 51.90
2233 55.0100 2678.60 2822.62 51.80
2234 55.0300 2639.20 2812.32 51.40
2235 55.0500 2613.90 2806.25 51.10
2236 55.0700 2711.40 2808.60 52.10
2237 55.0900 2798.80 2822.07 52.90
2238 55.1100 2840.80 2847.84 53.30
2239 55.1300 2844.10 2884.00 53.30
2240 55.1500 2832.70 2924.95 53.20
2241 55.1700 2870.00 2960.38 53.60
2242 55.1900 2915.60 2978.43 54.00
2243 55.2100 2941.10 2975.61 54.20
2244 55.2300 2915.90 2962.35 54.00
2245 55.2500 2875.50 2948.64 53.60
2246 55.2700 2939.70 2940.89 54.20
2247 55.2900 2983.50 2939.53 54.60
2248 55.3100 2917.60 2943.06 54.00
2249 55.3300 2880.30 2947.28 53.70
2250 55.3500 2925.90 2949.21 54.10
2251 55.3700 2967.30 2949.92 54.50
2252 55.3900 2961.70 2952.77 54.40
2253 55.4100 2910.60 2956.92 53.90
2254 55.4300 2907.80 2960.89 53.90
2255 55.4500 2915.00 2965.41 54.00
2256 55.4700 2945.00 2968.18 54.30
2257 55.4900 3079.80 2964.23 55.50
2258 55.5100 2997.40 2949.94 54.70
2259 55.5300 2952.50 2928.38 54.30
2260 55.5500 2946.70 2905.81 54.30
2261 55.5700 2892.60 2886.71 53.80
2262 55.5900 2854.90 2873.48 53.40
2263 55.6100 2852.30 2866.14 53.40
2264 55.6300 2884.40 2861.85 53.70
2265 55.6500 2947.60 2857.25 54.30
2266 55.6700 2907.90 2851.28 53.90
2267 55.6900 2898.10 2846.05 53.80
2268 55.7100 2899.00 2842.38 53.80
2269 55.7300 2894.20 2841.10 53.80
2270 55.7500 2898.00 2843.40 53.80
2271 55.7700 2877.50 2847.75 53.60
2272 55.7900 2861.00 2855.27 53.50
2273 55.8100 2859.70 2864.18 53.50
2274 55.8300 2848.30 2868.82 53.40
2275 55.8500 2885.10 2865.69 53.70
2276 55.8700 2866.40 2856.10 53.50
2277 55.8900 2790.40 2845.12 52.80
2278 55.9100 2776.00 2836.70 52.70
2279 55.9300 2810.80 2833.02 53.00
2280 55.9500 2847.60 2833.46 53.40
2281 55.9700 2878.00 2834.62 53.60
2282 55.9900 2903.10 2831.77 53.90
2283 56.0100 2816.30 2822.31 53.10
2284 56.0300 2748.30 2808.53 52.40
2285 56.0500 2743.50 2795.60 52.40
2286 56.0700 2845.50 2786.33 53.30
2287 56.0900 2825.20 2783.53 53.20
2288 56.1100 2809.80 2787.08 53.00
2289 56.1300 2800.90 2796.18 52.90
2290 56.1500 2800.00 2809.89 52.90
2291 56.1700 2843.40 2826.61 53.30
2292 56.1900 2807.00 2844.86 53.00
2293 56.2100 2817.00 2861.51 53.10
2294 56.2300 2924.80 2875.20 54.10
2295 56.2500 2978.90 2882.85 54.60
2296 56.2700 2927.70 2884.05 54.10
2297 56.2900 2913.00 2879.40 54.00
2298 56.3100 2950.80 2871.67 54.30
2299 56.3300 2908.20 2865.04 53.90
2300 56.3500 2836.90 2861.40 53.30
2301 56.3700 2843.70 2862.45 53.30
2302 56.3900 2899.30 2866.80 53.80
2303 56.4100 2883.30 2873.97 53.70
2304 56.4300 2886.90 2883.59 53.70
2305 56.4500 2890.40 2895.68 53.80
2306 56.4700 2899.50 2910.29 53.80
2307 56.4900 2925.40 2927.48 54.10
2308 56.5100 2920.80 2947.46 54.00
2309 56.5300 2966.50 2970.92 54.50
2310 56.5500 3014.60 2997.98 54.90
2311 56.5700 3018.00 3029.90 54.90
2312 56.5900 2990.50 3065.38 54.70
2313 56.6100 3028.80 3102.37 55.00
2314 56.6300 3072.00 3134.32 55.40
2315 56.6500 3087.10 3151.39 55.60
2316 56.6700 3108.40 3147.03 55.80
2317 56.6900 3080.10 3124.36 55.50
2318 56.7100 3058.70 3093.43 55.30
2319 56.7300 3054.90 3064.55 55.30
2320 56.7500 3022.90 3042.91 55.00
2321 56.7700 2949.60 3029.36 54.30
2322 56.7900 2946.20 3021.45 54.30
2323 56.8100 2984.60 3013.16 54.60
2324 56.8300 2932.80 3001.49 54.20
2325 56.8500 2929.40 2987.43 54.10
2326 56.8700 2951.70 2973.48 54.30
2327 56.8900 2995.80 2964.46 54.70
2328 56.9100 3059.00 2963.22 55.30
2329 56.9300 2970.30 2972.27 54.50
2330 56.9500 2986.40 2992.03 54.60
2331 56.9700 3030.60 3019.68 55.10
2332 56.9900 3021.50 3051.55 55.00
2333 57.0100 3141.10 3080.12 56.00
2334 57.0300 3162.40 3099.39 56.20
2335 57.0500 3132.90 3100.86 56.00
2336 57.0700 3088.10 3083.44 55.60
2337 57.0900 3067.60 3055.07 55.40
2338 57.1100 3047.60 3027.57 55.20
2339 57.1300 3040.50 3007.23 55.10
2340 57.1500 3048.40 2995.78 55.20
2341 57.1700 3057.50 2991.30 55.30
2342 57.1900 3038.60 2989.85 55.10
2343 57.2100 3025.40 2986.55 55.00
2344 57.2300 3011.80 2980.81 54.90
2345 57.2500 2959.30 2974.54 54.40
2346 57.2700 2958.80 2969.10 54.40
2347 57.2900 2940.50 2963.52 54.20
2348 57.3100 2958.10 2956.45 54.40
2349 57.3300 3115.70 2947.73 55.80
2350 57.3500 3048.90 2937.47 55.20
2351 57.3700 2997.40 2928.74 54.70
2352 57.3900 2959.00 2923.72 54.40
2353 57.4100 2922.90 2924.20 54.10
2354 57.4300 3015.10 2927.38 54.90
2355 57.4500 3003.20 2929.86 54.80
2356 57.4700 2959.50 2930.14 54.40
2357 57.4900 2932.30 2929.09 54.20
2358 57.5100 2899.60 2929.38 53.80
2359 57.5300 2951.20 2932.96 54.30
2360 57.5500 3010.40 2939.60 54.90
2361 57.5700 3030.80 2945.47 55.10
2362 57.5900 2945.50 2945.39 54.30
2363 57.6100 2994.20 2937.54 54.70
2364 57.6300 2982.60 2923.56 54.60
2365 57.6500 2928.80 2909.02 54.10
2366 57.6700 3030.90 2897.07 55.10
2367 57.6900 3027.80 2888.69 55.00
2368 57.7100 3000.30 2882.26 54.80
2369 57.7300 2959.10 2875.89 54.40
2370 57.7500 2902.70 2867.98 53.90
2371 57.7700 2937.00 2858.83 54.20
2372 57.7900 2930.60 2850.35 54.10
2373 57.8100 2924.40 2843.97 54.10
2374 57.8300 2970.60 2840.30 54.50
2375 57.8500 2940.90 2839.90 54.20
2376 57.8700 2890.40 2842.35 53.80
2377 57.8900 2849.30 2847.74 53.40
2378 57.9100 2831.60 2855.01 53.20
2379 57.9300 2744.00 2862.27 52.40
2380 57.9500 2794.80 2867.80 52.90
2381 57.9700 2867.80 2870.88 53.60
2382 57.9900 2899.50 2873.69 53.80
2383 58.0100 2836.30 2878.21 53.30
2384 58.0300 2858.20 2884.40 53.50
2385 58.0500 2879.90 2892.62 53.70
2386 58.0700 2861.30 2899.93 53.50
2387 58.0900 2750.10 2904.54 52.40
2388 58.1100 2819.70 2904.80 53.10
2389 58.1300 2860.90 2902.07 53.50
2390 58.1500 2867.90 2900.27 53.60
2391 58.1700 2890.70 2902.63 53.80
2392 58.1900 2875.50 2910.21 53.60
2393 58.2100 2882.00 2923.77 53.70
2394 58.2300 2885.10 2943.00 53.70
2395 58.2500 2851.30 2968.31 53.40
2396 58.2700 2914.50 2998.67 54.00
2397 58.2900 2990.90 3031.56 54.70
2398 58.3100 3039.10 3060.05 55.10
2399 58.3300 3035.20 3074.08 55.10
2400 58.3500 3084.70 3068.00 55.50
2401 58.3700 3142.30 3046.71 56.10
2402 58.3900 3128.80 3022.20 55.90
2403 58.4100 3030.90 3003.46 55.10
2404 58.4300 2998.10 2994.26 54.80
2405 58.4500 2966.60 2992.68 54.50
2406 58.4700 3001.60 2994.76 54.80
2407 58.4900 3075.20 2993.22 55.50
2408 58.5100 3028.00 2984.87 55.00
2409 58.5300 3041.30 2972.91 55.10
2410 58.5500 2971.50 2964.07 54.50
2411 58.5700 2867.60 2962.76 53.50
2412 58.5900 2878.30 2969.62 53.60
2413 58.6100 2950.20 2982.15 54.30
2414 58.6300 2975.70 2994.71 54.50
2415 58.6500 2969.20 3000.00 54.50
2416 58.6700 2960.00 2994.14 54.40
2417 58.6900 2906.90 2978.22 53.90
2418 58.7100 2910.30 2959.51 53.90
2419 58.7300 2900.60 2944.51 53.90
2420 58.7500 2832.40 2936.32 53.20
2421 58.7700 2910.90 2935.72 54.00
2422 58.7900 2927.60 2940.11 54.10
2423 58.8100 2931.90 2946.08 54.10
2424 58.8300 2941.90 2950.88 54.20
2425 58.8500 2906.80 2953.64 53.90
2426 58.8700 2832.60 2955.87 53.20
2427 58.8900 2819.60 2957.04 53.10
2428 58.9100 2886.70 2957.98 53.70
2429 58.9300 2985.70 2958.40 54.60
2430 58.9500 2961.40 2960.62 54.40
2431 58.9700 2948.70 2967.71 54.30
2432 58.9900 2969.70 2979.09 54.50
2433 59.0100 3018.40 2995.62 54.90
2434 59.0300 3017.80 3016.48 54.90
2435 59.0500 3015.50 3036.79 54.90
2436 59.0700 3051.60 3050.18 55.20
2437 59.0900 3173.50 3050.93 56.30
2438 59.1100 3117.90 3037.64 55.80
2439 59.1300 3092.80 3014.74 55.60
2440 59.1500 3078.20 2988.51 55.50
2441 59.1700 3055.20 2965.14 55.30
2442 59.1900 3059.80 2947.58 55.30
2443 59.2100 3055.40 2934.86 55.30
2444 59.2300 3007.60 2924.17 54.80
2445 59.2500 2924.40 2911.91 54.10
2446 59.2700 3001.30 2896.44 54.80
2447 59.2900 2930.90 2877.83 54.10
2448 59.3100 2859.50 2858.73 53.50
2449 59.3300 2843.90 2841.47 53.30
2450 59.3500 2907.90 2827.01 53.90
2451 59.3700 2866.10 2815.49 53.50
2452 59.3900 2811.70 2807.11 53.00
2453 59.4100 2794.10 2801.13 52.90
2454 59.4300 2885.50 2797.21 53.70
2455 59.4500 2819.60 2794.91 53.10
2456 59.4700 2804.10 2794.70 53.00
2457 59.4900 2813.90 2795.17 53.00
2458 59.5100 2782.70 2796.56 52.80
2459 59.5300 2797.70 2798.85 52.90
2460 59.5500 2773.60 2801.79 52.70
2461 59.5700 2776.40 2805.07 52.70
2462 59.5900 2859.50 2808.84 53.50
2463 59.6100 2795.50 2813.45 52.90
2464 59.6300 2848.30 2819.62 53.40
2465 59.6500 2868.10 2827.66 53.60
2466 59.6700 2797.50 2837.70 52.90
2467 59.6900 2891.90 2850.24 53.80
2468 59.7100 2818.40 2865.33 53.10
2469 59.7300 2800.50 2882.67 52.90
2470 59.7500 2886.40 2900.43 53.70
2471 59.7700 2932.10 2918.73 54.10
2472 59.7900 2935.80 2935.70 54.20
2473 59.8100 2921.80 2950.57 54.10
2474 59.8300 2912.80 2965.25 54.00
2475 59.8500 2952.40 2980.20 54.30
2476 59.8700 2971.90 2997.55 54.50
2477 59.8900 2987.20 3017.98 54.70
2478 59.9100 2989.00 3040.39 54.70
2479 59.9300 2960.80 3062.77 54.40
2480 59.9500 2962.20 3079.56 54.40
2481 59.9700 2958.50 3086.50 54.40
2482 59.9900 2982.30 3083.52 54.60
2483 60.0100 3063.80 3075.02 55.40
2484 60.0300 3120.10 3066.91 55.90
2485 60.0500 3108.60 3063.44 55.80
2486 60.0700 3059.10 3066.49 55.30
2487 60.0900 2996.80 3077.32 54.70
2488 60.1100 2972.40 3094.69 54.50
2489 60.1300 3021.60 3117.35 55.00
2490 60.1500 3040.50 3144.52 55.10
2491 60.1700 3017.70 3175.24 54.90
2492 60.1900 3087.80 3209.70 55.60
2493 60.2100 3130.40 3247.38 55.90
2494 60.2300 3172.90 3285.35 56.30
2495 60.2500 3209.80 3315.36 56.70
2496 60.2700 3209.10 3326.82 56.60
2497 60.2900 3171.90 3315.05 56.30
2498 60.3100 3170.20 3287.34 56.30
2499 60.3300 3190.50 3256.31 56.50
2500 60.3500 3195.80 3231.70 56.50
2501 60.3700 3199.70 3217.58 56.60
2502 60.3900 3235.60 3213.00 56.90
2503 60.4100 3254.10 3211.82 57.00
2504 60.4300 3202.90 3204.62 56.60
2505 60.4500 3110.00 3185.41 55.80
2506 60.4700 3138.10 3155.94 56.00
2507 60.4900 3154.20 3123.53 56.20
2508 60.5100 3081.30 3095.03 55.50
2509 60.5300 3061.50 3075.09 55.30
2510 60.5500 3158.60 3063.49 56.20
2511 60.5700 3144.60 3058.50 56.10
2512 60.5900 2988.50 3055.88 54.70
2513 60.6100 3012.90 3052.42 54.90
2514 60.6300 3018.90 3046.17 54.90
2515 60.6500 2995.90 3037.92 54.70
2516 60.6700 2950.10 3030.42 54.30
2517 60.6900 2906.70 3026.91 53.90
2518 60.7100 2999.20 3028.07 54.80
2519 60.7300 2992.00 3033.04 54.70
2520 60.7500 2934.90 3038.69 54.20
2521 60.7700 2972.30 3040.30 54.50
2522 60.7900 3004.50 3034.61 54.80
2523 60.8100 2963.80 3021.03 54.40
2524 60.8300 2943.40 3004.74 54.30
2525 60.8500 3046.60 2989.11 55.20
2526 60.8700 3018.40 2977.59 54.90
2527 60.8900 2969.90 2971.07 54.50
2528 60.9100 2932.00 2968.81 54.10
2529 60.9300 2925.20 2969.06 54.10
2530 60.9500 2927.50 2970.52 54.10
2531 60.9700 2906.50 2972.67 53.90
2532 60.9900 2942.30 2977.15 54.20
2533 61.0100 3041.70 2986.03 55.20
2534 61.0300 3047.10 3000.42 55.20
2535 61.0500 3066.80 3019.96 55.40
2536 61.0700 3059.00 3042.48 55.30
2537 61.0900 3050.30 3063.45 55.20
2538 61.1100 3158.50 3076.84 56.20
2539 61.1300 3137.30 3077.67 56.00
2540 61.1500 3212.30 3066.94 56.70
2541 61.1700 3310.60 3050.72 57.50
2542 61.1900 3231.40 3035.98 56.80
2543 61.2100 3116.20 3027.29 55.80
2544 61.2300 3106.20 3025.43 55.70
2545 61.2500 3126.90 3029.54 55.90
2546 61.2700 3079.90 3037.14 55.50
2547 61.2900 3062.40 3045.20 55.30
2548 61.3100 3065.40 3052.06 55.40
2549 61.3300 3063.20 3059.14 55.30
2550 61.3500 3043.80 3068.13 55.20
2551 61.3700 3116.20 3079.30 55.80
2552 61.3900 3076.00 3090.24 55.50
2553 61.4100 3056.50 3095.94 55.30
2554 61.4300 3083.40 3093.50 55.50
2555 61.4500 2930.40 3083.79 54.10
2556 61.4700 3038.50 3069.94 55.10
2557 61.4900 3083.00 3055.96 55.50
2558 61.5100 3025.60 3044.56 55.00
2559 61.5300 3055.30 3036.61 55.30
2560 61.5500 2994.30 3031.33 54.70
2561 61.5700 2988.60 3025.58 54.70
2562 61.5900 3019.40 3016.46 54.90
2563 61.6100 3001.20 3002.66 54.80
2564 61.6300 2992.90 2986.17 54.70
2565 61.6500 3030.80 2968.96 55.10
2566 61.6700 3048.10 2953.77 55.20
2567 61.6900 2958.20 2941.77 54.40
2568 61.7100 2979.30 2934.28 54.60
2569 61.7300 2951.60 2929.07 54.30
2570 61.7500 2931.90 2928.18 54.10
2571 61.7700 2958.90 2929.98 54.40
2572 61.7900 2905.60 2934.11 53.90
2573 61.8100 2889.20 2940.08 53.80
2574 61.8300 2928.50 2947.31 54.10
2575 61.8500 3009.80 2954.88 54.90
2576 61.8700 2983.20 2961.95 54.60
2577 61.8900 2970.60 2968.01 54.50
2578 61.9100 3014.50 2974.36 54.90
2579 61.9300 3095.10 2982.45 55.60
2580 61.9500 3095.90 2993.11 55.60
2581 61.9700 3057.00 3006.65 55.30
2582 61.9900 3081.30 3021.85 55.50
2583 62.0100 3126.00 3036.74 55.90
2584 62.0300 3059.80 3050.97 55.30
2585 62.0500 3075.50 3063.62 55.50
2586 62.0700 3102.70 3077.49 55.70
2587 62.0900 3121.20 3094.46 55.90
2588 62.1100 3112.10 3115.31 55.80
2589 62.1300 3133.80 3137.91 56.00
2590 62.1500 3178.10 3158.25 56.40
2591 62.1700 3213.00 3173.31 56.70
2592 62.1900 3216.00 3181.64 56.70
2593 62.2100 3276.20 3182.84 57.20
2594 62.2300 3302.70 3176.88 57.50
2595 62.2500 3335.90 3165.11 57.80
2596 62.2700 3381.00 3151.06 58.10
2597 62.2900 3317.80 3136.47 57.60
2598 62.3100 3224.20 3121.59 56.80
2599 62.3300 3197.80 3106.45 56.50
2600 62.3500 3241.00 3091.90 56.90
2601 62.3700 3234.90 3078.75 56.90
2602 62.3900 3200.00 3066.84 56.60
2603 62.4100 3190.30 3054.81 56.50
2604 62.4300 3202.70 3041.74 56.60
2605 62.4500 3205.80 3028.00 56.60
2606 62.4700 3180.80 3014.37 56.40
2607 62.4900 3159.80 3002.16 56.20
2608 62.5100 3111.10 2993.40 55.80
2609 62.5300 2985.40 2989.46 54.60
2610 62.5500 3057.70 2991.09 55.30
2611 62.5700 3069.30 2996.98 55.40
2612 62.5900 3047.10 3005.07 55.20
2613 62.6100 3028.90 3012.39 55.00
2614 62.6300 3172.10 3016.91 56.30
2615 62.6500 3126.10 3017.95 55.90
2616 62.6700 3057.40 3017.73 55.30
2617 62.6900 3053.70 3018.83 55.30
2618 62.7100 3031.70 3022.05 55.10
2619 62.7300 3097.30 3026.02 55.70
2620 62.7500 3120.40 3028.12 55.90
2621 62.7700 3067.30 3027.15 55.40
2622 62.7900 2995.70 3023.01 54.70
2623 62.8100 3001.20 3017.27 54.80
2624 62.8300 3046.80 3011.16 55.20
2625 62.8500 3097.10 3006.65 55.70
2626 62.8700 3084.10 3005.32 55.50
2627 62.8900 3074.00 3007.91 55.40
2628 62.9100 3113.70 3013.69 55.80
2629 62.9300 3130.80 3022.02 56.00
2630 62.9500 3007.40 3032.26 54.80
2631 62.9700 3026.20 3044.30 55.00
2632 62.9900 3047.10 3058.22 55.20
2633 63.0100 3069.80 3073.77 55.40
2634 63.0300 3096.60 3088.45 55.60
2635 63.0500 3083.60 3097.98 55.50
2636 63.0700 3099.20 3099.01 55.70
2637 63.0900 3084.60 3092.61 55.50
2638 63.1100 3023.70 3082.25 55.00
2639 63.1300 3094.50 3072.31 55.60
2640 63.1500 3071.30 3065.36 55.40
2641 63.1700 3085.60 3062.68 55.50
2642 63.1900 3144.10 3064.80 56.10
2643 63.2100 3048.20 3070.31 55.20
2644 63.2300 3036.20 3077.99 55.10
2645 63.2500 3053.30 3087.69 55.30
2646 63.2700 3072.50 3100.50 55.40
2647 63.2900 3056.60 3119.40 55.30
2648 63.3100 3066.00 3146.38 55.40
2649 63.3300 3072.30 3181.12 55.40
2650 63.3500 3076.30 3219.39 55.50
2651 63.3700 3084.70 3252.96 55.50
2652 63.3900 3090.10 3272.03 55.60
2653 63.4100 3082.10 3270.99 55.50
2654 63.4300 3037.80 3252.90 55.10
2655 63.4500 2939.10 3227.29 54.20
2656 63.4700 2941.30 3204.26 54.20
2657 63.4900 2969.60 3189.92 54.50
2658 63.5100 2989.40 3185.46 54.70
2659 63.5300 2979.80 3187.11 54.60
2660 63.5500 2965.30 3188.16 54.50
2661 63.5700 2972.60 3181.29 54.50
2662 63.5900 2999.90 3163.38 54.80
2663 63.6100 3041.70 3137.74 55.20
2664 63.6300 3073.70 3109.97 55.40
2665 63.6500 3034.60 3085.36 55.10
2666 63.6700 2986.40 3066.14 54.60
2667 63.6900 2964.00 3053.60 54.40
2668 63.7100 3021.90 3046.83 55.00
2669 63.7300 2994.60 3043.46 54.70
2670 63.7500 3024.20 3042.23 55.00
2671 63.7700 3072.00 3040.59 55.40
2672 63.7900 3038.50 3038.48 55.10
2673 63.8100 3101.80 3036.71 55.70
2674 63.8300 3122.10 3037.16 55.90
2675 63.8500 3105.50 3040.92 55.70
2676 63.8700 3068.80 3047.03 55.40
2677 63.8900 3116.80 3053.05 55.80
2678 63.9100 3081.20 3055.43 55.50
2679 63.9300 3048.40 3052.27 55.20
2680 63.9500 3072.60 3043.18 55.40
2681 63.9700 3068.10 3030.23 55.40
2682 63.9900 3107.20 3016.46 55.70
2683 64.0100 3076.90 3004.62 55.50
2684 64.0300 2968.90 2995.96 54.50
2685 64.0500 3004.70 2990.44 54.80
2686 64.0700 3027.30 2986.68 55.00
2687 64.0900 3028.40 2982.99 55.00
2688 64.1100 3013.00 2978.71 54.90
2689 64.1300 3003.10 2973.71 54.80
2690 64.1500 3030.30 2969.84 55.00
2691 64.1700 2999.10 2968.06 54.80
2692 64.1900 2960.20 2969.77 54.40
2693 64.2100 3034.10 2975.65 55.10
2694 64.2300 3054.60 2985.68 55.30
2695 64.2500 3044.10 2999.40 55.20
2696 64.2700 3020.90 3015.30 55.00
2697 64.2900 3005.10 3031.51 54.80
2698 64.3100 3016.50 3044.60 54.90
2699 64.3300 3002.00 3051.67 54.80
2700 64.3500 2998.80 3052.09 54.80
2701 64.3700 3033.00 3048.54 55.10
2702 64.3900 3076.40 3045.48 55.50
2703 64.4100 3028.90 3046.13 55.00
2704 64.4300 3032.90 3051.96 55.10
2705 64.4500 3127.30 3062.94 55.90
2706 64.4700 3144.80 3077.06 56.10
2707 64.4900 3088.30 3090.57 55.60
2708 64.5100 3106.50 3100.23 55.70
2709 64.5300 3194.70 3104.41 56.50
2710 64.5500 3198.50 3102.71 56.60
2711 64.5700 3210.40 3096.40 56.70
2712 64.5900 3193.60 3087.15 56.50
2713 64.6100 3131.50 3075.93 56.00
2714 64.6300 3002.00 3063.27 54.80
2715 64.6500 3097.60 3050.13 55.70
2716 64.6700 3159.50 3037.79 56.20
2717 64.6900 3128.70 3026.98 55.90
2718 64.7100 2958.10 3018.00 54.40
2719 64.7300 2994.50 3010.37 54.70
2720 64.7500 3028.00 3003.56 55.00
2721 64.7700 3031.80 2997.18 55.10
2722 64.7900 2990.50 2990.87 54.70
2723 64.8100 2982.90 2984.46 54.60
2724 64.8300 2946.30 2978.06 54.30
2725 64.8500 2942.20 2972.09 54.20
2726 64.8700 2988.90 2967.29 54.70
2727 64.8900 3004.90 2964.57 54.80
2728 64.9100 2906.50 2963.84 53.90
2729 64.9300 2927.50 2965.77 54.10
2730 64.9500 3036.90 2969.72 55.10
2731 64.9700 2871.60 2973.86 53.60
2732 64.9900 2946.00 2976.73 54.30
2733 65.0100 3002.20 2977.94 54.80
2734 65.0300 3001.80 2978.28 54.80
2735 65.0500 2959.90 2978.93 54.40
2736 65.0700 2990.30 2980.57 54.70
2737 65.0900 3035.00 2983.37 55.10
2738 65.1100 3059.80 2987.35 55.30
2739 65.1300 3026.30 2991.74 55.00
2740 65.1500 2963.40 2994.92 54.40
2741 65.1700 3050.90 2995.05 55.20
2742 65.1900 3114.80 2991.69 55.80
2743 65.2100 3020.30 2985.83 55.00
2744 65.2300 3065.30 2979.00 55.40
2745 65.2500 3059.00 2972.80 55.30
2746 65.2700 3032.00 2968.00 55.10
2747 65.2900 3002.40 2965.38 54.80
2748 65.3100 2979.60 2964.60 54.60
2749 65.3300 3035.30 2965.37 55.10
2750 65.3500 3032.10 2966.88 55.10
2751 65.3700 2951.20 2968.47 54.30
2752 65.3900 2894.90 2968.94 53.80
2753 65.4100 2877.20 2968.38 53.60
2754 65.4300 2878.30 2966.54 53.60
2755 65.4500 2890.60 2964.19 53.80
2756 65.4700 2905.80 2961.93 53.90
2757 65.4900 2895.80 2960.64 53.80
2758 65.5100 2905.40 2960.57 53.90
2759 65.5300 2942.90 2962.08 54.20
2760 65.5500 3013.80 2965.04 54.90
2761 65.5700 2941.70 2968.59 54.20
2762 65.5900 2922.10 2971.62 54.10
2763 65.6100 2915.30 2973.15 54.00
2764 65.6300 2884.60 2973.44 53.70
2765 65.6500 2898.30 2973.62 53.80
2766 65.6700 2959.80 2975.31 54.40
2767 65.6900 2978.70 2978.87 54.60
2768 65.7100 2928.70 2984.88 54.10
2769 65.7300 3011.70 2993.10 54.90
2770 65.7500 2946.40 3002.02 54.30
2771 65.7700 2953.20 3009.86 54.30
2772 65.7900 3054.60 3015.27 55.30
2773 65.8100 3021.80 3018.57 55.00
2774 65.8300 2982.60 3020.99 54.60
2775 65.8500 2968.10 3023.93 54.50
2776 65.8700 2982.30 3028.16 54.60
2777 65.8900 3018.80 3033.33 54.90
2778 65.9100 2994.20 3039.85 54.70
2779 65.9300 2997.50 3046.96 54.70
2780 65.9500 3010.80 3054.12 54.90
2781 65.9700 2992.50 3060.10 54.70
2782 65.9900 3068.40 3063.92 55.40
2783 66.0100 3109.60 3064.54 55.80
2784 66.0300 3080.00 3061.33 55.50
2785 66.0500 2960.00 3055.58 54.40
2786 66.0700 3017.90 3049.13 54.90
2787 66.0900 3106.60 3043.06 55.70
2788 66.1100 3123.70 3037.17 55.90
2789 66.1300 3037.10 3031.62 55.10
2790 66.1500 3111.80 3026.44 55.80
2791 66.1700 3057.10 3021.44 55.30
2792 66.1900 3020.40 3016.49 55.00
2793 66.2100 3027.90 3010.93 55.00
2794 66.2300 2944.10 3005.03 54.30
2795 66.2500 2992.70 2999.20 54.70
2796 66.2700 2968.00 2993.98 54.50
2797 66.2900 2910.70 2989.46 54.00
2798 66.3100 3047.00 2985.73 55.20
2799 66.3300 3051.70 2983.31 55.20
2800 66.3500 3054.30 2982.50 55.30
2801 66.3700 3047.20 2983.61 55.20
2802 66.3900 2993.80 2986.05 54.70
2803 66.4100 3131.70 2989.91 56.00
2804 66.4300 3039.40 2994.91 55.10
2805 66.4500 2910.80 3000.62 54.00
2806 66.4700 2957.90 3006.80 54.40
2807 66.4900 3028.70 3013.24 55.00
2808 66.5100 3014.20 3019.70 54.90
2809 66.5300 3017.30 3025.63 54.90
2810 66.5500 3076.20 3029.85 55.50
2811 66.5700 2907.20 3032.04 53.90
2812 66.5900 2952.10 3031.80 54.30
2813 66.6100 3024.10 3030.72 55.00
2814 66.6300 3051.90 3029.86 55.20
2815 66.6500 3064.90 3030.40 55.40
2816 66.6700 3081.60 3032.80 55.50
2817 66.6900 3108.70 3036.70 55.80
2818 66.7100 3120.00 3041.92 55.90
2819 66.7300 3038.50 3047.82 55.10
2820 66.7500 3088.00 3054.29 55.60
2821 66.7700 3063.50 3060.17 55.30
2822 66.7900 3003.50 3064.81 54.80
2823 66.8100 3020.30 3067.71 55.00
2824 66.8300 3010.10 3068.76 54.90
2825 66.8500 3041.30 3068.52 55.10
2826 66.8700 3089.10 3067.60 55.60
2827 66.8900 3120.80 3067.01 55.90
2828 66.9100 3051.50 3067.34 55.20
2829 66.9300 3020.80 3068.75 55.00
2830 66.9500 3012.60 3071.00 54.90
2831 66.9700 3014.10 3073.40 54.90
2832 66.9900 3015.60 3075.62 54.90
2833 67.0100 3005.50 3077.63 54.80
2834 67.0300 3020.80 3079.81 55.00
2835 67.0500 3063.90 3082.69 55.40
2836 67.0700 3063.10 3086.28 55.30
2837 67.0900 3054.80 3090.63 55.30
2838 67.1100 3026.50 3095.00 55.00
2839 67.1300 3013.40 3097.60 54.90
2840 67.1500 3129.90 3097.04 55.90
2841 67.1700 3194.40 3093.51 56.50
2842 67.1900 3162.10 3088.12 56.20
2843 67.2100 3093.80 3081.85 55.60
2844 67.2300 3112.10 3074.82 55.80
2845 67.2500 3037.90 3067.61 55.10
2846 67.2700 3065.60 3061.39 55.40
2847 67.2900 3109.80 3056.84 55.80
2848 67.3100 3059.10 3054.09 55.30
2849 67.3300 2961.60 3052.60 54.40
2850 67.3500 2988.80 3051.79 54.70
2851 67.3700 3084.30 3051.48 55.50
2852 67.3900 3179.80 3051.17 56.40
2853 67.4100 2978.00 3049.64 54.60
2854 67.4300 3023.60 3045.95 55.00
2855 67.4500 3073.00 3040.12 55.40
2856 67.4700 3026.60 3033.72 55.00
2857 67.4900 2970.20 3028.34 54.50
2858 67.5100 3037.30 3024.64 55.10
2859 67.5300 3104.00 3022.82 55.70
2860 67.5500 3108.60 3022.22 55.80
2861 67.5700 2966.20 3022.60 54.50
2862 67.5900 2903.50 3023.38 53.90
2863 67.6100 2959.50 3024.66 54.40
2864 67.6300 3064.70 3025.80 55.40
2865 67.6500 3071.60 3027.00 55.40
2866 67.6700 3096.30 3028.42 55.60
2867 67.6900 3089.80 3029.73 55.60
2868 67.7100 3069.60 3030.60 55.40
2869 67.7300 3062.00 3030.61 55.30
2870 67.7500 3033.80 3029.93 55.10
2871 67.7700 3052.80 3029.14 55.30
2872 67.7900 3075.40 3028.38 55.50
2873 67.8100 3070.90 3027.77 55.40
2874 67.8300 3102.20 3027.57 55.70
2875 67.8500 3087.80 3028.53 55.60
2876 67.8700 3071.00 3031.50 55.40
2877 67.8900 3078.40 3036.78 55.50
2878 67.9100 3138.60 3044.50 56.00
2879 67.9300 3095.10 3054.22 55.60
2880 67.9500 3050.00 3065.17 55.20
2881 67.9700 3033.00 3075.80 55.10
2882 67.9900 3038.30 3083.63 55.10
2883 68.0100 3082.80 3087.51 55.50
2884 68.0300 3119.00 3087.60 55.80
2885 68.0500 3137.10 3085.58 56.00
2886 68.0700 3133.30 3082.89 56.00
2887 68.0900 3146.50 3080.22 56.10
2888 68.1100 3138.30 3077.64 56.00
2889 68.1300 3113.00 3075.17 55.80
2890 68.1500 3080.20 3072.83 55.50
2891 68.1700 3067.10 3070.64 55.40
2892 68.1900 3116.80 3067.63 55.80
2893 68.2100 3125.70 3062.83 55.90
2894 68.2300 3023.30 3056.18 55.00
2895 68.2500 3104.00 3048.33 55.70
2896 68.2700 3176.90 3040.32 56.40
2897 68.2900 3197.10 3032.91 56.50
2898 68.3100 3152.50 3026.55 56.10
2899 68.3300 3122.10 3021.66 55.90
2900 68.3500 3077.50 3018.74 55.50
2901 68.3700 3032.50 3018.30 55.10
2902 68.3900 3002.80 3020.12 54.80
2903 68.4100 3030.20 3024.15 55.00
2904 68.4300 3108.20 3029.93 55.80
2905 68.4500 3132.40 3036.99 56.00
2906 68.4700 3112.40 3044.58 55.80
2907 68.4900 3113.90 3051.31 55.80
2908 68.5100 3116.80 3056.13 55.80
2909 68.5300 3153.30 3058.75 56.20
2910 68.5500 3167.70 3059.65 56.30
2911 68.5700 3079.40 3059.51 55.50
2912 68.5900 3169.40 3059.35 56.30
2913 68.6100 3136.60 3059.94 56.00
2914 68.6300 3102.50 3061.88 55.70
2915 68.6500 3169.40 3064.89 56.30
2916 68.6700 3090.20 3068.42 55.60
2917 68.6900 3063.40 3071.19 55.30
2918 68.7100 3061.90 3072.20 55.30
2919 68.7300 3064.80 3070.86 55.40
2920 68.7500 3034.30 3066.96 55.10
2921 68.7700 3081.70 3061.63 55.50
2922 68.7900 3110.10 3055.61 55.80
2923 68.8100 3096.30 3049.20 55.60
2924 68.8300 3086.40 3042.17 55.60
2925 68.8500 2984.90 3034.84 54.60
2926 68.8700 3020.40 3027.40 55.00
2927 68.8900 3132.00 3020.32 56.00
2928 68.9100 3062.00 3013.91 55.30
2929 68.9300 2990.50 3008.17 54.70
2930 68.9500 3012.00 3003.04 54.90
2931 68.9700 3059.30 2998.78 55.30
2932 68.9900 3019.00 2995.42 54.90
2933 69.0100 3011.30 2992.84 54.90
2934 69.0300 3031.20 2990.71 55.10
2935 69.0500 3021.60 2989.59 55.00
2936 69.0700 2936.40 2989.21 54.20
2937 69.0900 2975.30 2989.42 54.50
2938 69.1100 3004.70 2989.99 54.80
2939 69.1300 2991.90 2990.56 54.70
2940 69.1500 2938.90 2990.82 54.20
2941 69.1700 3030.30 2991.23 55.00
2942 69.1900 2937.10 2991.74 54.20
2943 69.2100 2949.70 2992.81 54.30
2944 69.2300 3089.90 2994.66 55.60
2945 69.2500 2975.70 2997.38 54.50
2946 69.2700 2925.80 3001.24 54.10
2947 69.2900 2992.70 3006.21 54.70
2948 69.3100 3088.60 3012.15 55.60
2949 69.3300 2959.10 3018.82 54.40
2950 69.3500 2949.80 3025.50 54.30
2951 69.3700 2980.80 3031.99 54.60
2952 69.3900 3022.30 3037.99 55.00
2953 69.4100 3041.40 3042.80 55.10
2954 69.4300 3051.60 3046.18 55.20
2955 69.4500 3004.20 3048.07 54.80
2956 69.4700 2974.00 3048.83 54.50
2957 69.4900 3032.80 3048.87 55.10
2958 69.5100 2991.70 3048.86 54.70
2959 69.5300 2986.50 3048.50 54.60
2960 69.5500 2998.10 3048.29 54.80
2961 69.5700 3013.40 3047.98 54.90
2962 69.5900 3029.40 3047.29 55.00
2963 69.6100 3020.00 3046.17 55.00
2964 69.6300 3021.20 3044.30 55.00
2965 69.6500 3032.90 3042.15 55.10
2966 69.6700 2985.70 3039.40 54.60
2967 69.6900 2958.20 3036.06 54.40
2968 69.7100 2951.00 3032.25 54.30
2969 69.7300 2952.80 3028.04 54.30
2970 69.7500 2933.00 3024.16 54.20
2971 69.7700 3089.00 3020.75 55.60
2972 69.7900 3065.30 3017.94 55.40
2973 69.8100 2958.90 3015.81 54.40
2974 69.8300 3009.90 3014.35 54.90
2975 69.8500 2997.40 3013.63 54.70
2976 69.8700 3007.20 3013.57 54.80
2977 69.8900 2996.90 3014.32 54.70
2978 69.9100 2922.10 3015.18 54.10
2979 69.9300 3031.10 3016.30 55.10
2980 69.9500 3011.90 3017.63 54.90
2981 69.9700 2966.80 3018.71 54.50
2982 69.9900 2957.10 3019.29 54.40
2983 70.0100 2871.80 3019.36 53.60
2984 70.0300 2945.50 3019.25 54.30
2985 70.0500 3006.10 3019.28 54.80
2986 70.0700 3009.20 3019.68 54.90
2987 70.0900 3109.80 3020.27 55.80
2988 70.1100 3076.50 3020.99 55.50
2989 70.1300 3050.50 3021.76 55.20
2990 70.1500 3036.70 3022.75 55.10
2991 70.1700 2941.50 3024.07 54.20
2992 70.1900 2912.70 3025.73 54.00
2993 70.2100 2964.60 3027.51 54.40
2994 70.2300 3037.80 3029.84 55.10
2995 70.2500 3021.80 3032.69 55.00
2996 70.2700 2992.80 3036.01 54.70
2997 70.2900 3067.40 3039.65 55.40
2998 70.3100 3130.80 3043.35 56.00
2999 70.3300 3048.50 3046.72 55.20
3000 70.3500 3095.00 3049.47 55.60
3001 70.3700 3078.70 3051.52 55.50
3002 70.3900 3046.70 3052.88 55.20
3003 70.4100 3032.90 3054.21 55.10
3004 70.4300 3017.70 3055.66 54.90
3005 70.4500 2994.90 3057.58 54.70
3006 70.4700 2992.90 3060.34 54.70
3007 70.4900 3017.40 3064.27 54.90
3008 70.5100 3028.10 3069.06 55.00
3009 70.5300 3059.40 3074.17 55.30
3010 70.5500 3082.00 3078.99 55.50
3011 70.5700 3081.10 3083.20 55.50
3012 70.5900 3035.40 3086.93 55.10
3013 70.6100 2993.80 3090.50 54.70
3014 70.6300 3025.30 3093.89 55.00
3015 70.6500 3084.60 3096.82 55.50
3016 70.6700 3063.20 3099.05 55.30
3017 70.6900 3118.00 3100.98 55.80
3018 70.7100 3153.40 3103.31 56.20
3019 70.7300 3157.70 3106.56 56.20
3020 70.7500 3124.90 3111.19 55.90
3021 70.7700 3083.80 3117.29 55.50
3022 70.7900 3098.30 3124.66 55.70
3023 70.8100 3095.20 3133.25 55.60
3024 70.8300 3035.70 3142.70 55.10
3025 70.8500 3188.00 3152.52 56.50
3026 70.8700 3231.10 3162.15 56.80
3027 70.8900 3183.70 3171.19 56.40
3028 70.9100 3082.90 3179.77 55.50
3029 70.9300 3098.10 3188.55 55.70
3030 70.9500 3123.30 3198.05 55.90
3031 70.9700 3155.60 3208.29 56.20
3032 70.9900 3180.10 3218.65 56.40
3033 71.0100 3148.10 3228.20 56.10
3034 71.0300 3177.90 3235.91 56.40
3035 71.0500 3198.00 3241.09 56.60
3036 71.0700 3205.00 3243.22 56.60
3037 71.0900 3217.20 3242.05 56.70
3038 71.1100 3210.90 3238.37 56.70
3039 71.1300 3174.90 3233.09 56.30
3040 71.1500 3153.50 3227.24 56.20
3041 71.1700 3203.70 3221.55 56.60
3042 71.1900 3257.80 3215.97 57.10
3043 71.2100 3280.70 3210.47 57.30
3044 71.2300 3257.10 3204.98 57.10
3045 71.2500 3187.20 3199.67 56.50
3046 71.2700 3262.60 3194.87 57.10
3047 71.2900 3225.50 3190.77 56.80
3048 71.3100 3181.70 3187.47 56.40
3049 71.3300 3177.20 3184.84 56.40
3050 71.3500 3144.40 3182.41 56.10
3051 71.3700 3114.10 3179.41 55.80
3052 71.3900 3105.00 3174.67 55.70
3053 71.4100 3123.20 3168.03 55.90
3054 71.4300 3169.70 3159.90 56.30
3055 71.4500 3143.80 3151.74 56.10
3056 71.4700 3106.90 3144.58 55.70
3057 71.4900 3104.70 3139.01 55.70
3058 71.5100 3212.90 3135.10 56.70
3059 71.5300 3097.70 3132.69 55.70
3060 71.5500 3108.50 3131.42 55.80
3061 71.5700 3162.50 3130.84 56.20
3062 71.5900 3103.80 3130.40 55.70
3063 71.6100 3067.70 3129.75 55.40
3064 71.6300 3076.00 3128.98 55.50
3065 71.6500 3086.00 3128.34 55.60
3066 71.6700 3060.40 3128.07 55.30
3067 71.6900 3026.10 3128.45 55.00
3068 71.7100 3110.30 3128.90 55.80
3069 71.7300 3163.80 3129.71 56.20
3070 71.7500 3125.00 3131.06 55.90
3071 71.7700 3162.30 3133.44 56.20
3072 71.7900 3170.00 3137.13 56.30
3073 71.8100 3180.60 3142.05 56.40
3074 71.8300 3182.30 3148.05 56.40
3075 71.8500 3083.30 3155.06 55.50
3076 71.8700 3097.70 3162.23 55.70
3077 71.8900 3079.50 3169.15 55.50
3078 71.9100 3071.90 3174.93 55.40
3079 71.9300 3245.50 3178.65 57.00
3080 71.9500 3277.50 3180.04 57.20
3081 71.9700 3200.00 3178.83 56.60
3082 71.9900 3108.40 3176.37 55.80
3083 72.0100 3137.30 3173.54 56.00
3084 72.0300 3153.60 3171.36 56.20
3085 72.0500 3117.00 3170.00 55.80
3086 72.0700 3087.20 3169.55 55.60
3087 72.0900 3120.50 3169.67 55.90
3088 72.1100 3185.20 3170.06 56.40
3089 72.1300 3159.40 3170.33 56.20
3090 72.1500 3127.50 3170.04 55.90
3091 72.1700 3135.60 3168.86 56.00
3092 72.1900 3141.70 3166.68 56.10
3093 72.2100 3197.50 3163.56 56.50
3094 72.2300 3223.20 3159.66 56.80
3095 72.2500 3192.90 3155.49 56.50
3096 72.2700 3123.60 3151.43 55.90
3097 72.2900 3100.70 3147.73 55.70
3098 72.3100 3083.00 3144.59 55.50
3099 72.3300 3078.60 3142.16 55.50
3100 72.3500 3131.20 3140.44 56.00
3101 72.3700 3129.80 3139.50 55.90
3102 72.3900 3123.40 3138.98 55.90
3103 72.4100 3125.00 3138.58 55.90
3104 72.4300 3146.30 3138.02 56.10
3105 72.4500 3077.60 3137.30 55.50
3106 72.4700 3074.00 3136.64 55.40
3107 72.4900 3115.40 3136.11 55.80
3108 72.5100 3171.50 3135.92 56.30
3109 72.5300 3122.00 3136.17 55.90
3110 72.5500 3098.20 3136.90 55.70
3111 72.5700 3076.50 3138.05 55.50
3112 72.5900 3056.70 3139.74 55.30
3113 72.6100 3174.80 3141.86 56.30
3114 72.6300 3154.20 3144.47 56.20
3115 72.6500 3132.30 3147.49 56.00
3116 72.6700 3151.20 3151.05 56.10
3117 72.6900 3152.80 3154.93 56.10
3118 72.7100 3112.10 3159.13 55.80
3119 72.7300 3132.60 3163.80 56.00
3120 72.7500 3184.20 3169.16 56.40
3121 72.7700 3119.50 3174.95 55.90
3122 72.7900 3177.40 3181.39 56.40
3123 72.8100 3186.00 3187.26 56.40
3124 72.8300 3155.60 3192.28 56.20
3125 72.8500 3139.60 3196.47 56.00
3126 72.8700 3147.80 3200.01 56.10
3127 72.8900 3162.80 3203.62 56.20
3128 72.9100 3162.50 3207.39 56.20
3129 72.9300 3128.40 3211.38 55.90
3130 72.9500 3241.90 3214.90 56.90
3131 72.9700 3218.30 3217.33 56.70
3132 72.9900 3176.90 3218.30 56.40
3133 73.0100 3194.90 3217.96 56.50
3134 73.0300 3218.60 3216.76 56.70
3135 73.0500 3205.30 3215.40 56.60
3136 73.0700 3219.10 3214.51 56.70
3137 73.0900 3266.60 3214.66 57.20
3138 73.1100 3243.00 3216.14 56.90
3139 73.1300 3146.00 3219.19 56.10
3140 73.1500 3167.20 3223.50 56.30
3141 73.1700 3276.80 3228.44 57.20
3142 73.1900 3246.30 3233.45 57.00
3143 73.2100 3255.20 3238.00 57.10
3144 73.2300 3231.10 3241.72 56.80
3145 73.2500 3198.50 3244.46 56.60
3146 73.2700 3219.00 3246.40 56.70
3147 73.2900 3245.40 3248.21 57.00
3148 73.3100 3235.00 3250.74 56.90
3149 73.3300 3215.50 3254.78 56.70
3150 73.3500 3221.30 3260.23 56.80
3151 73.3700 3321.10 3266.60 57.60
3152 73.3900 3347.30 3273.34 57.90
3153 73.4100 3339.30 3280.11 57.80
3154 73.4300 3325.20 3287.05 57.70
3155 73.4500 3287.10 3294.24 57.30
3156 73.4700 3262.40 3301.14 57.10
3157 73.4900 3274.90 3306.92 57.20
3158 73.5100 3321.40 3310.66 57.60
3159 73.5300 3324.50 3311.85 57.70
3160 73.5500 3369.40 3310.26 58.00
3161 74.1300 3462.80 3228.12 58.80
3162 74.1500 3426.70 3231.19 58.50
3163 74.1700 3343.20 3235.16 57.80
3164 74.1900 3214.50 3240.03 56.70
3165 74.2100 3349.00 3245.62 57.90
3166 74.2300 3402.40 3251.61 58.30
3167 74.2500 3415.40 3257.80 58.40
3168 74.2700 3421.10 3264.03 58.50
3169 74.2900 3370.10 3270.12 58.10
3170 74.3100 3354.20 3275.87 57.90
3171 74.3300 3354.60 3280.22 57.90
3172 74.3500 3360.30 3282.40 58.00
3173 74.3700 3362.60 3282.06 58.00
3174 74.3900 3361.80 3279.72 58.00
3175 74.4100 3361.00 3276.43 58.00
3176 74.4300 3367.50 3273.12 58.00
3177 74.4500 3404.10 3270.36 58.30
3178 74.4700 3339.80 3268.36 57.80
3179 74.4900 3352.80 3267.19 57.90
3180 74.5100 3406.90 3266.76 58.40
3181 74.5300 3352.00 3266.76 57.90
3182 74.5500 3395.30 3266.70 58.30
3183 74.5700 3360.30 3266.04 58.00
3184 74.5900 3287.90 3264.90 57.30
3185 74.6100 3254.40 3262.93 57.00
3186 74.6300 3358.60 3260.97 58.00
3187 74.6500 3315.40 3259.17 57.60
3188 74.6700 3260.50 3257.75 57.10
3189 74.6900 3308.50 3256.71 57.50
3190 74.7100 3297.80 3256.03 57.40
3191 74.7300 3253.00 3255.52 57.00
3192 74.7500 3203.30 3255.43 56.60
3193 74.7700 3181.30 3255.53 56.40
3194 74.7900 3303.20 3255.83 57.50
3195 74.8100 3287.40 3256.51 57.30
3196 74.8300 3245.50 3257.63 57.00
3197 74.8500 3220.00 3259.32 56.70
3198 74.8700 3226.10 3261.66 56.80
3199 74.8900 3295.60 3264.54 57.40
3200 74.9100 3286.40 3268.02 57.30
3201 74.9300 3212.80 3271.68 56.70
3202 74.9500 3173.20 3275.37 56.30
3203 74.9700 3202.20 3278.87 56.60
3204 74.9900 3221.50 3282.04 56.80
3205 75.0100 3230.90 3284.69 56.80
3206 75.0300 3240.80 3287.08 56.90
3207 75.0500 3261.90 3289.34 57.10
3208 75.0700 3266.00 3291.56 57.10
3209 75.0900 3276.40 3293.86 57.20
3210 75.1100 3310.10 3296.14 57.50
3211 75.1300 3238.50 3298.21 56.90
3212 75.1500 3255.50 3299.95 57.10
3213 75.1700 3241.20 3301.61 56.90
3214 75.1900 3154.50 3303.12 56.20
3215 75.2100 3238.20 3304.71 56.90
3216 75.2300 3205.60 3306.46 56.60
3217 75.2500 3198.80 3308.57 56.60
3218 75.2700 3246.00 3311.50 57.00
3219 75.2900 3246.00 3315.35 57.00
3220 75.3100 3276.40 3320.11 57.20
3221 75.3300 3314.60 3326.15 57.60
3222 75.3500 3358.90 3333.25 58.00
3223 75.3700 3416.80 3341.18 58.50
3224 75.3900 3370.00 3349.38 58.10
3225 75.4100 3295.20 3356.89 57.40
3226 75.4300 3270.20 3362.34 57.20
3227 75.4500 3401.20 3365.17 58.30
3228 75.4700 3393.90 3365.45 58.30
3229 75.4900 3371.50 3364.13 58.10
3230 75.5100 3350.90 3361.92 57.90
3231 75.5300 3346.80 3359.91 57.90
3232 75.5500 3402.40 3359.06 58.30
3233 75.5700 3369.80 3359.62 58.00
3234 75.5900 3352.50 3361.55 57.90
3235 75.6100 3400.10 3364.04 58.30
3236 75.6300 3368.90 3366.30 58.00
3237 75.6500 3329.30 3367.66 57.70
3238 75.6700 3310.20 3367.80 57.50
3239 75.6900 3322.50 3367.15 57.60
3240 75.7100 3365.20 3366.38 58.00
3241 75.7300 3386.70 3366.07 58.20
3242 75.7500 3401.00 3366.58 58.30
3243 75.7700 3400.70 3367.85 58.30
3244 75.7900 3357.30 3369.50 57.90
3245 75.8100 3342.00 3371.04 57.80
3246 75.8300 3318.20 3372.23 57.60
3247 75.8500 3339.00 3373.27 57.80
3248 75.8700 3499.00 3374.48 59.20
3249 75.8900 3493.30 3375.96 59.10
3250 75.9100 3470.20 3377.43 58.90
3251 75.9300 3488.90 3378.36 59.10
3252 75.9500 3601.20 3378.46 60.00
3253 75.9700 3698.00 3377.90 60.80
3254 75.9900 3804.40 3377.38 61.70
3255 76.0100 3831.40 3377.56 61.90
3256 76.0300 3730.30 3378.86 61.10
3257 76.0500 3614.50 3381.58 60.10
3258 76.0700 3557.50 3386.02 59.60
3259 76.0900 3509.50 3392.26 59.20
3260 76.1100 3475.50 3400.05 59.00
3261 76.1300 3582.10 3408.41 59.90
3262 76.1500 3544.90 3416.39 59.50
3263 76.1700 3516.60 3422.13 59.30
3264 76.1900 3540.40 3424.58 59.50
3265 76.2100 3629.50 3423.60 60.20
3266 76.2300 3599.60 3419.96 60.00
3267 76.2500 3581.40 3414.92 59.80
3268 76.2700 3578.10 3409.73 59.80
3269 76.2900 3563.70 3405.54 59.70
3270 76.3100 3503.40 3402.95 59.20
3271 76.3300 3446.30 3402.28 58.70
3272 76.3500 3412.50 3403.23 58.40
3273 76.3700 3420.20 3405.39 58.50
3274 76.3900 3435.50 3407.99 58.60
3275 76.4100 3369.50 3410.51 58.00
3276 76.4300 3321.30 3412.76 57.60
3277 76.4500 3358.40 3414.89 58.00
3278 76.4700 3429.20 3417.02 58.60
3279 76.4900 3341.50 3419.08 57.80
3280 76.5100 3293.40 3420.63 57.40
3281 76.5300 3353.90 3420.97 57.90
3282 76.5500 3411.80 3419.43 58.40
3283 76.5700 3386.90 3415.91 58.20
3284 76.5900 3409.90 3411.12 58.40
3285 76.6100 3464.30 3406.20 58.90
3286 76.6300 3389.60 3402.07 58.20
3287 76.6500 3337.20 3399.40 57.80
3288 76.6700 3333.80 3398.32 57.70
3289 76.6900 3326.90 3398.65 57.70
3290 76.7100 3210.40 3400.01 56.70
3291 76.7300 3306.20 3401.94 57.50
3292 76.7500 3325.30 3403.69 57.70
3293 76.7700 3314.20 3404.70 57.60
3294 76.7900 3349.00 3404.37 57.90
3295 76.8100 3355.90 3402.80 57.90
3296 76.8300 3337.90 3400.33 57.80
3297 76.8500 3320.90 3397.39 57.60
3298 76.8700 3324.70 3394.42 57.70
3299 76.8900 3350.60 3391.76 57.90
3300 76.9100 3321.40 3389.71 57.60
3301 76.9300 3327.30 3388.55 57.70
3302 76.9500 3399.50 3388.39 58.30
3303 76.9700 3465.70 3389.13 58.90
3304 76.9900 3398.50 3390.84 58.30
3305 77.0100 3376.40 3393.38 58.10
3306 77.0300 3409.60 3396.64 58.40
3307 77.0500 3360.10 3400.30 58.00
3308 77.0700 3324.00 3403.76 57.70
3309 77.0900 3345.40 3406.29 57.80
3310 77.1100 3395.30 3407.41 58.30
3311 77.1300 3400.70 3407.04 58.30
3312 77.1500 3344.60 3405.64 57.80
3313 77.1700 3320.60 3403.68 57.60
3314 77.1900 3329.20 3401.51 57.70
3315 77.2100 3361.90 3399.30 58.00
3316 77.2300 3412.90 3397.08 58.40
3317 77.2500 3405.50 3394.90 58.40
3318 77.2700 3378.60 3393.03 58.10
3319 77.2900 3362.20 3391.17 58.00
3320 77.3100 3314.20 3389.40 57.60
3321 77.3300 3355.40 3387.47 57.90
3322 77.3500 3411.20 3385.45 58.40
3323 77.3700 3430.90 3383.31 58.60
3324 77.3900 3338.00 3381.38 57.80
3325 77.4100 3334.10 3379.78 57.70
3326 77.4300 3347.10 3378.47 57.90
3327 77.4500 3355.20 3377.34 57.90
3328 77.4700 3362.10 3376.10 58.00
3329 77.4900 3394.70 3374.82 58.30
3330 77.5100 3361.20 3373.28 58.00
3331 77.5300 3307.50 3371.52 57.50
3332 77.5500 3367.70 3369.81 58.00
3333 77.5700 3367.10 3368.38 58.00
3334 77.5900 3376.20 3367.36 58.10
3335 77.6100 3369.90 3366.79 58.10
3336 77.6300 3306.70 3366.44 57.50
3337 77.6500 3350.50 3366.43 57.90
3338 77.6700 3358.80 3366.66 58.00
3339 77.6900 3340.00 3367.13 57.80
3340 77.7100 3309.40 3368.00 57.50
3341 77.7300 3378.00 3369.30 58.10
3342 77.7500 3325.20 3371.05 57.70
3343 77.7700 3304.20 3373.21 57.50
3344 77.7900 3383.50 3376.21 58.20
3345 77.8100 3450.50 3380.01 58.70
3346 77.8300 3393.50 3384.64 58.30
3347 77.8500 3359.10 3389.92 58.00
3348 77.8700 3371.20 3395.48 58.10
3349 77.8900 3331.60 3400.77 57.70
3350 77.9100 3363.30 3405.03 58.00
3351 77.9300 3356.80 3407.73 57.90
3352 77.9500 3333.70 3408.43 57.70
3353 77.9700 3392.30 3407.41 58.20
3354 77.9900 3330.40 3405.19 57.70
3355 78.0100 3327.90 3402.62 57.70
3356 78.0300 3367.20 3400.69 58.00
3357 78.0500 3398.40 3399.59 58.30
3358 78.0700 3399.00 3399.52 58.30
3359 78.0900 3435.60 3400.34 58.60
3360 78.1100 3445.10 3401.98 58.70
3361 78.1300 3376.30 3404.15 58.10
3362 78.1500 3406.70 3406.32 58.40
3363 78.1700 3339.50 3408.31 57.80
3364 78.1900 3291.70 3410.00 57.40
3365 78.2100 3322.50 3411.33 57.60
3366 78.2300 3356.80 3412.49 57.90
3367 78.2500 3412.70 3413.40 58.40
3368 78.2700 3438.80 3414.20 58.60
3369 78.2900 3426.90 3414.82 58.50
3370 78.3100 3420.00 3415.40 58.50
3371 78.3300 3380.10 3416.25 58.10
3372 78.3500 3401.60 3417.42 58.30
3373 78.3700 3460.80 3418.73 58.80
3374 78.3900 3450.90 3420.05 58.70
3375 78.4100 3494.40 3421.11 59.10
3376 78.4300 3461.60 3421.66 58.80
3377 78.4500 3405.30 3421.91 58.40
3378 78.4700 3427.40 3422.09 58.50
3379 78.4900 3345.80 3422.43 57.80
3380 78.5100 3333.10 3423.03 57.70
3381 78.5300 3369.30 3423.86 58.00
3382 78.5500 3425.30 3424.96 58.50
3383 78.5700 3403.20 3426.15 58.30
3384 78.5900 3399.70 3427.08 58.30
3385 78.6100 3412.20 3427.21 58.40
3386 78.6300 3431.40 3426.23 58.60
3387 78.6500 3393.30 3424.14 58.30
3388 78.6700 3391.50 3421.21 58.20
3389 78.6900 3399.20 3417.95 58.30
3390 78.7100 3412.90 3415.01 58.40
3391 78.7300 3463.90 3412.88 58.90
3392 78.7500 3504.70 3411.54 59.20
3393 78.7700 3482.30 3411.15 59.00
3394 78.7900 3413.40 3411.73 58.40
3395 78.8100 3373.80 3413.09 58.10
3396 78.8300 3387.90 3415.08 58.20
3397 78.8500 3426.10 3417.40 58.50
3398 78.8700 3441.50 3419.86 58.70
3399 78.8900 3363.80 3422.31 58.00
3400 78.9100 3405.10 3424.57 58.40
3401 78.9300 3398.20 3426.35 58.30
3402 78.9500 3393.50 3427.44 58.30
3403 78.9700 3446.50 3427.78 58.70
3404 78.9900 3425.10 3427.34 58.50
3405 79.0100 3460.70 3426.18 58.80
3406 79.0300 3461.10 3424.23 58.80
3407 79.0500 3382.00 3421.93 58.20
3408 79.0700 3394.20 3419.65 58.30
3409 79.0900 3418.20 3417.63 58.50
3410 79.1100 3431.60 3416.12 58.60
3411 79.1300 3429.10 3415.08 58.60
3412 79.1500 3429.90 3414.47 58.60
3413 79.1700 3452.90 3414.13 58.80
3414 79.1900 3430.70 3413.71 58.60
3415 79.2100 3391.20 3413.26 58.20
3416 79.2300 3459.80 3412.64 58.80
3417 79.2500 3409.80 3411.84 58.40
3418 79.2700 3389.20 3410.85 58.20
3419 79.2900 3405.20 3409.82 58.40
3420 79.3100 3435.60 3408.90 58.60
3421 79.3300 3379.50 3408.32 58.10
3422 79.3500 3387.40 3407.95 58.20
3423 79.3700 3418.50 3407.79 58.50
3424 79.3900 3420.00 3407.86 58.50
3425 79.4100 3420.80 3407.96 58.50
3426 79.4300 3367.40 3408.08 58.00
3427 79.4500 3340.00 3408.29 57.80
3428 79.4700 3385.90 3408.77 58.20
3429 79.4900 3398.10 3409.58 58.30
3430 79.5100 3421.40 3410.85 58.50
3431 79.5300 3420.90 3412.75 58.50
3432 79.5500 3395.10 3415.23 58.30
3433 79.5700 3417.10 3418.34 58.50
3434 79.5900 3410.30 3422.02 58.40
3435 79.6100 3415.70 3426.23 58.40
3436 79.6300 3432.90 3430.94 58.60
3437 79.6500 3427.60 3435.85 58.50
3438 79.6700 3364.90 3440.95 58.00
3439 79.6900 3375.20 3445.58 58.10
3440 79.7100 3445.40 3449.27 58.70
3441 79.7300 3516.30 3451.81 59.30
3442 79.7500 3483.20 3453.18 59.00
3443 79.7700 3402.80 3453.59 58.30
3444 79.7900 3359.10 3453.43 58.00
3445 79.8100 3442.90 3452.78 58.70
3446 79.8300 3431.50 3451.77 58.60
3447 79.8500 3449.70 3450.73 58.70
3448 79.8700 3446.00 3449.79 58.70
3449 79.8900 3390.50 3449.10 58.20
3450 79.9100 3397.30 3448.62 58.30
3451 79.9300 3448.50 3448.20 58.70
3452 79.9500 3471.50 3447.68 58.90
3453 79.9700 3451.70 3446.91 58.80
3454 79.9900 3503.50 3445.94 59.20
3455 80.0100 3455.80 3444.89 58.80
3456 80.0300 3459.40 3443.74 58.80
3457 80.0500 3515.60 3442.52 59.30
3458 80.0700 3487.40 3441.27 59.10
3459 80.0900 3420.50 3439.98 58.50
3460 80.1100 3406.20 3438.75 58.40
3461 80.1300 3422.50 3437.67 58.50
3462 80.1500 3396.60 3436.79 58.30
3463 80.1700 3420.00 3436.30 58.50
3464 80.1900 3448.60 3436.21 58.70
3465 80.2100 3460.40 3436.55 58.80
3466 80.2300 3433.00 3437.39 58.60
3467 80.2500 3455.80 3438.70 58.80
3468 80.2700 3412.80 3440.44 58.40
3469 80.2900 3394.00 3442.66 58.30
3470 80.3100 3459.40 3445.24 58.80
3471 80.3300 3416.00 3448.31 58.40
3472 80.3500 3453.40 3451.73 58.80
3473 80.3700 3457.90 3455.40 58.80
3474 80.3900 3397.30 3459.11 58.30
3475 80.4100 3432.30 3462.59 58.60
3476 80.4300 3460.50 3465.60 58.80
3477 80.4500 3423.10 3467.97 58.50
3478 80.4700 3369.30 3469.81 58.00
3479 80.4900 3535.30 3471.35 59.50
3480 80.5100 3529.20 3472.74 59.40
3481 80.5300 3455.30 3474.24 58.80
3482 80.5500 3385.70 3475.86 58.20
3483 80.5700 3433.70 3477.87 58.60
3484 80.5900 3417.90 3480.31 58.50
3485 80.6100 3430.20 3483.24 58.60
3486 80.6300 3489.60 3486.56 59.10
3487 80.6500 3609.90 3490.10 60.10
3488 80.6700 3505.30 3493.73 59.20
3489 80.6900 3446.70 3497.44 58.70
3490 80.7100 3436.50 3501.14 58.60
3491 80.7300 3470.40 3504.77 58.90
3492 80.7500 3497.00 3508.09 59.10
3493 80.7700 3557.50 3510.76 59.60
3494 80.7900 3572.10 3512.45 59.80
3495 80.8100 3517.60 3513.11 59.30
3496 80.8300 3532.10 3512.87 59.40
3497 80.8500 3538.70 3512.06 59.50
3498 80.8700 3527.60 3511.24 59.40
3499 80.8900 3503.10 3510.60 59.20
3500 80.9100 3492.50 3510.38 59.10
3501 80.9300 3511.30 3510.78 59.30
3502 80.9500 3545.80 3511.99 59.50
3503 80.9700 3562.90 3513.92 59.70
3504 80.9900 3494.40 3516.33 59.10
3505 81.0100 3548.70 3518.82 59.60
3506 81.0300 3563.80 3520.76 59.70
3507 81.0500 3540.70 3521.75 59.50
3508 81.0700 3502.70 3521.81 59.20
3509 81.0900 3591.80 3521.13 59.90
3510 81.1100 3541.40 3519.99 59.50
3511 81.1300 3492.80 3518.62 59.10
3512 81.1500 3568.30 3517.19 59.70
3513 81.1700 3529.50 3515.81 59.40
3514 81.1900 3507.30 3514.70 59.20
3515 81.2100 3540.90 3513.85 59.50
3516 81.2300 3626.20 3513.52 60.20
3517 81.2500 3560.70 3513.73 59.70
3518 81.2700 3512.60 3514.45 59.30
3519 81.2900 3564.70 3515.53 59.70
3520 81.3100 3678.40 3516.90 60.60
3521 81.3300 3577.80 3518.46 59.80
3522 81.3500 3514.30 3520.04 59.30
3523 81.3700 3494.20 3521.44 59.10
3524 81.3900 3525.40 3522.49 59.40
3525 81.4100 3624.40 3523.05 60.20
3526 81.4300 3665.00 3523.13 60.50
3527 81.4500 3600.40 3522.84 60.00
3528 81.4700 3512.30 3522.46 59.30
3529 81.4900 3530.50 3522.16 59.40
3530 81.5100 3512.50 3522.11 59.30
3531 81.5300 3493.40 3522.40 59.10
3532 81.5500 3478.30 3523.06 59.00
3533 81.5700 3472.50 3524.15 58.90
3534 81.5900 3514.40 3525.63 59.30
3535 81.6100 3616.20 3527.50 60.10
3536 81.6300 3645.40 3529.64 60.40
3537 81.6500 3547.10 3532.12 59.60
3538 81.6700 3547.80 3534.93 59.60
3539 81.6900 3557.50 3537.97 59.60
3540 81.7100 3527.80 3541.17 59.40
3541 81.7300 3485.20 3544.22 59.00
3542 81.7500 3626.90 3546.59 60.20
3543 81.7700 3641.90 3547.92 60.30
3544 81.7900 3589.10 3548.08 59.90
3545 81.8100 3511.50 3547.12 59.30
3546 81.8300 3486.40 3545.46 59.00
3547 81.8500 3506.70 3543.60 59.20
3548 81.8700 3487.70 3541.87 59.10
3549 81.8900 3453.70 3540.52 58.80
3550 81.9100 3459.80 3539.69 58.80
3551 81.9300 3456.30 3539.41 58.80
3552 81.9500 3508.20 3539.66 59.20
3553 81.9700 3547.30 3540.25 59.60
3554 81.9900 3504.70 3540.93 59.20
3555 82.0100 3494.80 3541.49 59.10
3556 82.0300 3556.10 3541.72 59.60
3557 82.0500 3593.20 3541.61 59.90
3558 82.0700 3559.10 3541.35 59.70
3559 82.0900 3606.40 3541.11 60.10
3560 82.1100 3586.90 3541.09 59.90
3561 82.1300 3581.10 3541.34 59.80
3562 82.1500 3597.80 3541.91 60.00
3563 82.1700 3522.40 3542.74 59.30
3564 82.1900 3514.50 3543.73 59.30
3565 82.2100 3585.00 3544.86 59.90
3566 82.2300 3664.90 3545.92 60.50
3567 82.2500 3554.40 3546.96 59.60
3568 82.2700 3571.70 3548.03 59.80
3569 82.2900 3544.10 3549.24 59.50
3570 82.3100 3487.00 3550.87 59.10
3571 82.3300 3464.90 3552.91 58.90
3572 82.3500 3566.80 3555.47 59.70
3573 82.3700 3645.70 3558.62 60.40
3574 82.3900 3664.80 3562.33 60.50
3575 82.4100 3594.50 3566.61 60.00
3576 82.4300 3514.60 3571.24 59.30
3577 82.4500 3521.10 3576.02 59.30
3578 82.4700 3570.90 3580.78 59.80
3579 82.4900 3624.40 3585.49 60.20
3580 82.5100 3591.70 3590.11 59.90
3581 82.5300 3581.10 3594.29 59.80
3582 82.5500 3595.60 3597.78 60.00
3583 82.5700 3639.90 3600.23 60.30
3584 82.5900 3732.10 3601.56 61.10
3585 82.6100 3671.20 3602.09 60.60
3586 82.6300 3656.50 3602.41 60.50
3587 82.6500 3683.90 3603.09 60.70
3588 82.6700 3584.20 3604.49 59.90
3589 82.6900 3624.40 3606.81 60.20
3590 82.7100 3610.90 3609.95 60.10
3591 82.7300 3568.40 3613.60 59.70
3592 82.7500 3592.80 3617.52 59.90
3593 82.7700 3530.40 3621.16 59.40
3594 82.7900 3525.90 3624.12 59.40
3595 82.8100 3560.50 3626.08 59.70
3596 82.8300 3602.50 3626.99 60.00
3597 82.8500 3655.10 3627.04 60.50
3598 82.8700 3655.60 3626.76 60.50
3599 82.8900 3635.30 3626.61 60.30
3600 82.9100 3620.30 3627.00 60.20
3601 82.9300 3638.60 3627.99 60.30
3602 82.9500 3588.80 3629.54 59.90
3603 82.9700 3541.20 3631.34 59.50
3604 82.9900 3542.90 3632.98 59.50
3605 83.0100 3671.70 3634.18 60.60
3606 83.0300 3662.00 3634.81 60.50
3607 83.0500 3618.90 3634.81 60.20
3608 83.0700 3586.10 3634.29 59.90
3609 83.0900 3607.40 3633.50 60.10
3610 83.1100 3649.50 3632.65 60.40
3611 83.1300 3665.10 3631.95 60.50
3612 83.1500 3665.60 3631.65 60.50
3613 83.1700 3687.70 3631.75 60.70
3614 83.1900 3672.50 3632.37 60.60
3615 83.2100 3674.60 3633.26 60.60
3616 83.2300 3695.00 3634.27 60.80
3617 83.2500 3729.90 3634.97 61.10
3618 83.2700 3652.20 3635.25 60.40
3619 83.2900 3591.30 3635.02 59.90
3620 83.3100 3589.20 3634.46 59.90
3621 83.3300 3659.30 3633.79 60.50
3622 83.3500 3535.90 3633.27 59.50
3623 83.3700 3620.80 3633.05 60.20
3624 83.3900 3711.30 3633.35 60.90
3625 83.4100 3701.10 3634.32 60.80
3626 83.4300 3564.00 3636.03 59.70
3627 83.4500 3603.40 3638.57 60.00
3628 83.4700 3641.70 3641.89 60.30
3629 83.4900 3638.40 3645.84 60.30
3630 83.5100 3640.70 3650.18 60.30
3631 83.5300 3633.70 3654.64 60.30
3632 83.5500 3667.00 3658.82 60.60
3633 83.5700 3703.90 3662.41 60.90
3634 83.5900 3650.60 3665.03 60.40
3635 83.6100 3612.90 3666.54 60.10
3636 83.6300 3648.00 3667.00 60.40
3637 83.6500 3680.40 3666.70 60.70
3638 83.6700 3606.50 3666.03 60.10
3639 83.6900 3620.40 3665.10 60.20
3640 83.7100 3684.50 3664.30 60.70
3641 83.7300 3709.30 3663.80 60.90
3642 83.7500 3628.60 3663.64 60.20
3643 83.7700 3601.90 3663.94 60.00
3644 83.7900 3631.10 3664.68 60.30
3645 83.8100 3684.40 3665.68 60.70
3646 83.8300 3727.90 3666.82 61.10
3647 83.8500 3648.70 3667.97 60.40
3648 83.8700 3648.30 3669.09 60.40
3649 83.8900 3665.80 3670.17 60.50
3650 83.9100 3666.20 3671.22 60.50
3651 83.9300 3593.00 3672.33 59.90
3652 83.9500 3606.00 3673.42 60.00
3653 83.9700 3648.10 3674.37 60.40
3654 83.9900 3679.40 3675.01 60.70
3655 84.0100 3634.40 3675.23 60.30
3656 84.0300 3596.50 3674.94 60.00
3657 84.0500 3648.00 3674.35 60.40
3658 84.0700 3715.80 3673.42 61.00
3659 84.0900 3688.40 3672.44 60.70
3660 84.1100 3655.80 3671.65 60.50
3661 84.1300 3626.10 3671.19 60.20
3662 84.1500 3631.70 3671.22 60.30
3663 84.1700 3698.50 3671.79 60.80
3664 84.1900 3775.40 3672.93 61.40
3665 84.2100 3757.50 3674.47 61.30
3666 84.2300 3685.80 3676.32 60.70
3667 84.2500 3605.60 3678.27 60.00
3668 84.2700 3677.20 3680.10 60.60
3669 84.2900 3757.90 3681.65 61.30
3670 84.3100 3727.50 3682.81 61.10
3671 84.3300 3619.20 3683.59 60.20
3672 84.3500 3734.20 3684.06 61.10
3673 84.3700 3662.50 3684.37 60.50
3674 84.3900 3671.00 3684.62 60.60
3675 84.4100 3736.10 3684.98 61.10
3676 84.4300 3670.60 3685.30 60.60
3677 84.4500 3707.50 3685.59 60.90
3678 84.4700 3746.60 3685.79 61.20
3679 84.4900 3761.80 3686.10 61.30
3680 84.5100 3729.80 3686.58 61.10
3681 84.5300 3637.60 3687.23 60.30
3682 84.5500 3613.10 3688.09 60.10
3683 84.5700 3654.40 3689.13 60.50
3684 84.5900 3745.90 3690.33 61.20
3685 84.6100 3662.90 3691.92 60.50
3686 84.6300 3697.30 3693.77 60.80
3687 84.6500 3688.00 3695.90 60.70
3688 84.6700 3574.00 3698.22 59.80
3689 84.6900 3666.20 3700.63 60.50
3690 84.7100 3698.60 3702.85 60.80
3691 84.7300 3739.00 3704.75 61.10
3692 84.7500 3791.90 3706.34 61.60
3693 84.7700 3766.00 3707.57 61.40
3694 84.7900 3734.90 3708.53 61.10
3695 84.8100 3746.80 3709.55 61.20
3696 84.8300 3769.10 3710.72 61.40
3697 84.8500 3692.20 3712.42 60.80
3698 84.8700 3707.10 3714.66 60.90
3699 84.8900 3716.50 3717.60 61.00
3700 84.9100 3714.90 3721.22 60.90
3701 84.9300 3711.10 3725.40 60.90
3702 84.9500 3667.50 3729.88 60.60
loop_
_pd_proc_info_excluded_regions
'from 5.994 to 8.000'
'from 42.95 to 43.250'
'from 44.05 to 44.600'
'from 49.85 to 50.600'
'from 51.25 to 52.000'
'from 73.6 to 74.150'
loop_
_restr_distance_atom_site_label_1
_restr_distance_atom_site_label_2
_restr_distance_target
_restr_distance_target_weight_param
C1 O1 1.3 0.02
C1 O2 1.3 0.02
C7 O3 1.3 0.02
C7 O4 1.3 0.02
C13 N3 1.6 0.02
C13 S1 1.2 0.02
C2 C3 1.39 0.005
C3 C4 1.39 0.005
C2 C6 1.39 0.005
C6 C5 1.39 0.005
C8 C9 1.39 0.005
C9 C10 1.39 0.005
C8 C12 1.39 0.005
C12 C11 1.39 0.005
loop_
_restr_angle_atom_site_label_1
_restr_angle_atom_site_label_2
_restr_angle_atom_site_label_3
_restr_angle_target
_restr_angle_target_weight_param
S1 C13 N3 180 0.01
O1 C1 O2 125 1
O3 C7 O4 125 1
C2 C3 C4 120 0.1
C3 C2 C6 120 0.1
C2 C6 C5 120 0.1
C8 C9 C10 120 0.1
C9 C8 C12 120 0.1
C8 C12 C11 120 0.1
loop_
_restr_equal_distance_atom_site_label_1
_restr_equal_distance_atom_site_label_2
_restr_equal_distance_class_class_id
_restr_equal_distance_class_target_weight_param
C5 N1 1 0.005
N1 C4 1 0.005
C10 N2 1 0.005
C11 N2 1 0.005
loop_
_restr_equal_angle_atom_site_label_1
_restr_equal_angle_atom_site_label_2
_restr_equal_angle_atom_site_label_3
_restr_equal_angle_class_class_id
_restr_equal_angle_class_target_weight_param
O1 C1 C2 1 0.75
O2 C1 C2 1 0.75
O3 C7 C8 1 0.75
O4 C7 C8 1 0.75
