#------------------------------------------------------------------------------
#$Date: 2017-04-06 05:36:38 +0300 (Thu, 06 Apr 2017) $
#$Revision: 195226 $
#$URL: file:///home/coder/svn-repositories/cod/cif/7/22/80/7228005.cif $
#------------------------------------------------------------------------------
#
# This file is available in the Crystallography Open Database (COD),
# http://www.crystallography.net/
#
# All data on this site have been placed in the public domain by the
# contributors.
#
data_7228005
loop_
_publ_author_name
'Tang, Yu-Huan'
'Wu, Xin'
'Wang, Fei'
'Zhang, Jian'
_publ_section_title
;
 Sythesis of Zeolite-like Metal-organic Frameworks from a Dual-ligand
 Strategy
;
_journal_name_full               CrystEngComm
_journal_paper_doi               10.1039/C7CE00332C
_journal_year                    2017
_chemical_formula_moiety         'C15 H9 N7 O5 Zn2'
_chemical_formula_sum            'C15 H9 N7 O5 Zn2'
_chemical_formula_weight         498.03
_space_group_crystal_system      hexagonal
_space_group_IT_number           175
_space_group_name_Hall           '-P 6'
_space_group_name_H-M_alt        'P 6/m'
_symmetry_space_group_name_Hall  '-P 6'
_symmetry_space_group_name_H-M   'P 6/m'
_atom_sites_solution_hydrogens   geom
_audit_creation_method           SHELXL-2014/7
_audit_update_record
;
2017-03-31 deposited with the CCDC.
2017-04-05 downloaded from the CCDC.
;
_cell_angle_alpha                90
_cell_angle_beta                 90
_cell_angle_gamma                120
_cell_formula_units_Z            12
_cell_length_a                   23.9672(2)
_cell_length_b                   23.9672(2)
_cell_length_c                   14.6637(3)
_cell_measurement_reflns_used    10504
_cell_measurement_temperature    100.0(3)
_cell_measurement_theta_max      73.2250
_cell_measurement_theta_min      3.6520
_cell_volume                     7294.72(17)
_computing_cell_refinement       'CrysAlisPro 1.171.38.41 (Rigaku OD, 2015)'
_computing_data_collection       'CrysAlisPro 1.171.38.41 (Rigaku OD, 2015)'
_computing_data_reduction        'CrysAlisPro 1.171.38.41 (Rigaku OD, 2015)'
_computing_molecular_graphics    'SHELXL-2014/7 (Sheldrick, 2014)'
_computing_publication_material  'SHELXL-2014/7 (Sheldrick, 2014)'
_computing_structure_refinement  'SHELXL-2014/7 (Sheldrick, 2014)'
_computing_structure_solution    'SHELXL-2014/7 (Sheldrick, 2014)'
_diffrn_ambient_temperature      100.0(3)
_diffrn_measured_fraction_theta_full 0.999
_diffrn_measured_fraction_theta_max 0.991
_diffrn_measurement_device_type  'SuperNova, Dual, Cu at zero, Atlas'
_diffrn_measurement_method       '\w scans'
_diffrn_radiation_type           CuK\a
_diffrn_radiation_wavelength     1.54178
_diffrn_reflns_av_R_equivalents  0.0288
_diffrn_reflns_av_unetI/netI     0.0181
_diffrn_reflns_Laue_measured_fraction_full 0.999
_diffrn_reflns_Laue_measured_fraction_max 0.991
_diffrn_reflns_limit_h_max       22
_diffrn_reflns_limit_h_min       -28
_diffrn_reflns_limit_k_max       26
_diffrn_reflns_limit_k_min       -28
_diffrn_reflns_limit_l_max       17
_diffrn_reflns_limit_l_min       -18
_diffrn_reflns_number            27944
_diffrn_reflns_point_group_measured_fraction_full 0.999
_diffrn_reflns_point_group_measured_fraction_max 0.991
_diffrn_reflns_theta_full        67.679
_diffrn_reflns_theta_max         73.388
_diffrn_reflns_theta_min         3.688
_diffrn_standards_decay_%        none
_diffrn_standards_interval_count none
_diffrn_standards_interval_time  none
_diffrn_standards_number         none
_exptl_absorpt_coefficient_mu    2.741
_exptl_absorpt_correction_T_max  1.00000
_exptl_absorpt_correction_T_min  0.63886
_exptl_absorpt_correction_type   multi-scan
_exptl_crystal_colour            brown
_exptl_crystal_density_diffrn    1.360
_exptl_crystal_description       block
_exptl_crystal_F_000             2976
_exptl_crystal_size_max          0.3
_exptl_crystal_size_mid          0.28
_exptl_crystal_size_min          0.2
_refine_diff_density_max         1.831
_refine_diff_density_min         -1.218
_refine_diff_density_rms         0.157
_refine_ls_extinction_method     none
_refine_ls_goodness_of_fit_ref   1.005
_refine_ls_hydrogen_treatment    constr
_refine_ls_matrix_type           full
_refine_ls_number_parameters     287
_refine_ls_number_reflns         5060
_refine_ls_number_restraints     162
_refine_ls_restrained_S_all      1.013
_refine_ls_R_factor_all          0.0935
_refine_ls_R_factor_gt           0.0853
_refine_ls_shift/su_max          0.000
_refine_ls_shift/su_mean         0.000
_refine_ls_structure_factor_coef Fsqd
_refine_ls_weighting_details
'w=1/[\s^2^(Fo^2^)+(0.1861P)^2^+30.6229P] where P=(Fo^2^+2Fc^2^)/3'
_refine_ls_weighting_scheme      calc
_refine_ls_wR_factor_gt          0.2698
_refine_ls_wR_factor_ref         0.2845
_reflns_Friedel_coverage         0.000
_reflns_number_gt                4316
_reflns_number_total             5060
_reflns_threshold_expression     'I > 2\s(I)'
_cod_data_source_file            c7ce00332c2.cif
_cod_data_source_block           a_sq
_cod_original_cell_volume        7294.72(19)
_cod_database_code               7228005
_shelx_shelxl_version_number     2014/7
_shelx_space_group_comment
;
The symmetry employed for this shelxl refinement is uniquely defined
by the following loop, which should always be used as a source of
symmetry information in preference to the above space-group names.
They are only intended as comments.
;
_shelx_res_file
;

    a_sq.res created by SHELXL-2014/7

TITL A in P6/m
CELL 1.54178 23.9672 23.9672 14.6637 90 90 120
ZERR 12 0.0002 0.0002 0.0003 0 0 0
LATT 1
SYMM -Y,+X-Y,+Z
SYMM +Y-X,-X,+Z
SYMM -X,-Y,+Z
SYMM +Y,-X+Y,+Z
SYMM -Y+X,+X,+Z
SFAC C H N O Zn
UNIT 180 108 84 60 24

DFIX 1.25 0.01 O5 C16 O6 C19
DFIX 1.45 N7 C16 N7 C17 N7 C18 N8 C19 N8 C20 N8 C21
DFIX 2.4 0.01 C16 C17 C16 C18 C17 C18 C19 C20 C19 C21 C20 C21
DFIX 2.3 0.01 O5 N7 O6 N8
FLAT O5 C16 N7 C17 C18
FLAT O6 C19 N8 C20 C21
DELU O5 C16 O6 C19 N7 C16 N7 C17 N7 C18 N8 C19 N8 C20 N8 C21
SIMU 0.01 0.02 2 O5 C16 O6 C19 N7 C16 N7 C17 N7 C18 N8 C19 N8 C20 N8 C21
ISOR 0.01 0.02 O5 C16 N7 C17 C18 O6 C19 N8 C20 C21 C15 C22  O3 C9

L.S. 50
PLAN  20

BOND $H
HTAB
fmap 2
acta
EADP C9 C9a
Exyz C9 C9a
EADP o3 o3a
Exyz o3 o3a
EADP c15 c15a
ABIN
ACTA
WGHT    0.186074   30.622890
FVAR       0.04075   0.56073
ZN1   5    0.245633    0.409849    0.292516    11.00000    0.02067    0.02612 =
         0.07137    0.00064    0.00116    0.01383
ZN2   5    0.338704    0.364087    0.207218    11.00000    0.02620    0.02810 =
         0.07860    0.00004    0.00061    0.01960
O4    4    0.259310    0.339597    0.268656    11.00000    0.02902    0.02324 =
         0.12091    0.00721    0.01346    0.01534
O2    4    0.165845    0.678581    0.240250    11.00000    0.01663    0.01864 =
         0.11080   -0.00400    0.00007    0.00726
O1    4    0.061357    0.605306    0.237268    11.00000    0.01563    0.01940 =
         0.12702    0.00058   -0.00009    0.00807
O5    4    0.126960    0.376703    0.000000    10.50000    0.27656    0.28526 =
         0.27637    0.00000    0.00000    0.12970
O6    4    0.166378    0.535743    0.500000    10.50000    0.27693    0.27919 =
         0.30163    0.00000    0.00000    0.11300
N1    3    0.068053    0.391428    0.230915    11.00000    0.01707    0.01920 =
         0.09661   -0.00317   -0.00251    0.00766
N2    3    0.170781    0.416892    0.253197    11.00000    0.01740    0.01751 =
         0.09999    0.00128    0.00150    0.00874
N6    3    0.315948    0.357870    0.074041    11.00000    0.05038    0.05199 =
         0.09360   -0.00399   -0.00148    0.02636
N3    3    0.261420    0.430319    0.425534    11.00000    0.08875    0.05505 =
         0.08503   -0.00111    0.00147    0.04669
N4    3    0.288204    0.492770    0.454899    11.00000    0.16956    0.06066 =
         0.10869    0.00250    0.01066    0.06158
N5    3    0.257218    0.312974    0.042729    11.00000    0.05023    0.08957 =
         0.12605    0.00565    0.00360   -0.00611
N8    3    0.074045    0.435725    0.500000    10.50000    0.24291    0.24732 =
         0.24644    0.00000    0.00000    0.13108
N7    3    0.194191    0.486705    0.000000    10.50000    0.27066    0.27174 =
         0.24152    0.00000    0.00000    0.12577
C2    1    0.087601    0.505017    0.233002    11.00000    0.01512    0.02465 =
         0.08738   -0.00333   -0.00572    0.00800
AFIX  43
H2    2    0.044985    0.494390    0.224123    11.00000   -1.20000
AFIX   0
C6    1    0.169011    0.473150    0.250776    11.00000    0.01929    0.01751 =
         0.09838   -0.00318   -0.00263    0.00908
C8    1    0.120528    0.621568    0.239631    11.00000    0.02022    0.02277 =
         0.08761    0.00129   -0.00128    0.00949
C7    1    0.109520    0.370292    0.240029    11.00000    0.01800    0.02424 =
         0.09492   -0.00190   -0.00011    0.01031
C1    1    0.104924    0.457667    0.237522    11.00000    0.01538    0.01866 =
         0.08131   -0.00215   -0.00123    0.00574
C4    1    0.200705    0.584240    0.254739    11.00000    0.01473    0.01850 =
         0.14330   -0.01223   -0.01390    0.00394
AFIX  43
H4    2    0.232610    0.627293    0.259300    11.00000   -1.20000
AFIX   0
C5    1    0.217961    0.537411    0.260429    11.00000    0.01551    0.02098 =
         0.15079   -0.00670   -0.00990    0.00875
AFIX  43
H5    2    0.260500    0.548099    0.270305    11.00000   -1.20000
AFIX   0
C3    1    0.136457    0.569000    0.242269    11.00000    0.01630    0.02005 =
         0.09284   -0.00447   -0.00086    0.00684
C12   1    0.349213    0.382226    0.000000    10.50000    0.06400    0.05241 =
         0.06294    0.00000    0.00000    0.04008
C10   1    0.249783    0.399280    0.500000    10.50000    0.04588    0.09352 =
         0.04959    0.00000    0.00000    0.03710
C13   1    0.419808    0.436488    0.000000    10.50000    0.02237    0.06539 =
         0.21181    0.00000    0.00000   -0.00202
AFIX  33
H13A  2    0.434863    0.447049   -0.061703    10.50000   -1.50000
H13B  2    0.423182    0.473819    0.029484    10.50000   -1.50000
H13C  2    0.445553    0.422552    0.032220    10.50000   -1.50000
AFIX   0
C11   1    0.222642    0.324367    0.500000    10.50000    0.09962    0.04404 =
         0.12437    0.00000    0.00000    0.01399
AFIX  33
H11A  2    0.216780    0.309084    0.561721    10.50000   -1.50000
H11B  2    0.182035    0.303241    0.468687    10.50000   -1.50000
H11C  2    0.252560    0.315100    0.469592    10.50000   -1.50000
AFIX   0
C19   1    0.106856    0.501608    0.500000    10.50000    0.24946    0.24958 =
         0.25215    0.00000    0.00000    0.12933
C16   1    0.133009    0.431486    0.000000    10.50000    0.26873    0.27198 =
         0.24979    0.00000    0.00000    0.12612
C17   1    0.196058    0.546948    0.000000    10.50000    0.27179    0.27097 =
         0.24289    0.00000    0.00000    0.13050
C18   1    0.249219    0.484274    0.000000    10.50000    0.26833    0.26954 =
         0.20887    0.00000    0.00000    0.12720
C20   1    0.005223    0.403489    0.500000    10.50000    0.23900    0.24080 =
         0.27706    0.00000    0.00000    0.13357
C21   1    0.103727    0.399299    0.500000    10.50000    0.23287    0.26036 =
         0.24313    0.00000    0.00000    0.13444
PART   1
O3    4    0.035682    0.267694    0.183161    21.00000    0.19365    0.16861 =
         0.28476   -0.03737    0.00171    0.06858
C9    1    0.090064    0.300422    0.237224    21.00000    0.02735    0.03173 =
         0.12646   -0.00365   -0.00207    0.01447
C15   1    0.090719    0.274573    0.319504    21.00000    0.19415    0.05759 =
         0.08624    0.00419    0.01286    0.08941
AFIX  33
H15A  2    0.130919    0.301929    0.349627    21.00000   -1.50000
H15B  2    0.055910    0.270890    0.356319    21.00000   -1.50000
H15C  2    0.085790    0.232652    0.310646    21.00000   -1.50000
AFIX   0
PART   2
O3A   4    0.035682    0.267694    0.183161   -21.00000    0.19365    0.16861 =
         0.28476   -0.03737    0.00171    0.06858
C9A   1    0.090064    0.300422    0.237224   -21.00000    0.02735    0.03173 =
         0.12646   -0.00365   -0.00207    0.01447
C15A  1    0.118199    0.285279    0.167010   -21.00000    0.19415    0.05759 =
         0.08624    0.00419    0.01286    0.08941
AFIX  33
H15D  2    0.163026    0.302000    0.180178   -21.00000   -1.50000
H15E  2    0.097243    0.239318    0.160471   -21.00000   -1.50000
H15F  2    0.113969    0.303948    0.111367   -21.00000   -1.50000
PART   0

AFIX   0
HKLF 4

REM  A in P6/m
REM R1 =  0.0853 for    4316 Fo > 4sig(Fo)  and  0.0935 for all    5060 data
REM    287 parameters refined using    162 restraints

END

WGHT      0.1578     32.2132

REM Instructions for potential hydrogen bonds
EQIV $1 -x, -y+1, z
HTAB C2 O1_$1
EQIV $2 -y+1, x-y+1, z
HTAB C5 O2_$2
EQIV $3 x, y, -z+1
HTAB C11 O4_$3
HTAB C15A O4
HTAB C15A O5

REM Highest difference peak  1.831,  deepest hole -1.218,  1-sigma level  0.157
Q1    1   0.2228  0.4921  0.0000  10.50000  0.05    1.64
Q2    1   0.3611  0.3945  0.0719  11.00000  0.05    1.33
Q3    1   0.1719  0.4140  0.5426  11.00000  0.05    1.14
Q4    1   0.2386  0.4440  0.0000  10.50000  0.05    1.04
Q5    1   0.2206  0.4159  0.4308  11.00000  0.05    0.87
Q6    1   0.1690  0.5057  0.0000  10.50000  0.05    0.86
Q7    1   0.3239  0.4243  0.5000  10.50000  0.05    0.76
Q8    1   0.3001  0.5255  0.0000  10.50000  0.05    0.75
Q9    1   0.0821  0.3001  0.0000  10.50000  0.05    0.64
Q10   1   0.0099  0.4020  0.5714  11.00000  0.05    0.63
Q11   1   0.2457  0.3847  0.4328  11.00000  0.05    0.61
Q12   1   0.4153  0.4103  0.0000  10.50000  0.05    0.60
Q13   1   0.3675  0.5698  0.5000  10.50000  0.05    0.60
Q14   1   0.2711  0.5565  0.0000  10.50000  0.05    0.53
Q15   1  -0.0167  0.3586  0.3808  11.00000  0.05    0.48
Q16   1   0.2204  0.5519  0.5000  10.50000  0.05    0.47
Q17   1   0.0507  0.6277  0.2351  11.00000  0.05    0.41
Q18   1   0.2562  0.3499  0.0449  11.00000  0.05    0.40
Q19   1   0.1440  0.3935  0.2571  11.00000  0.05    0.40
Q20   1   0.1927  0.2594  0.0997  11.00000  0.05    0.39
;
_shelx_res_checksum              58415
_shelx_fab_file
;
   -1    2    0    123.57      0.00
    0    2    0     45.63      0.00
   -2    3    0    -14.78      0.00
   -1    3    0    -11.99      0.00
    0    3    0     15.07      0.00
   -3    4    0    -51.22      0.00
   -2    4    0     -1.00      0.00
   -1    4    0    -36.20      0.00
    0    4    0    -35.07      0.00
   -4    5    0    -15.23      0.00
   -3    5    0    -50.30      0.00
   -2    5    0    -31.21      0.00
   -1    5    0     17.39      0.00
    0    5    0    -14.03      0.00
   -5    6    0    -29.02      0.00
   -4    6    0    -39.04      0.00
   -3    6    0     -1.18      0.00
   -2    6    0      8.25      0.00
   -1    6    0     14.13      0.00
    0    6    0     23.03      0.00
   -6    7    0    -13.47      0.00
   -5    7    0    -12.46      0.00
   -4    7    0    -25.01      0.00
   -3    7    0     -1.45      0.00
   -2    7    0     40.98      0.00
   -1    7    0     22.60      0.00
    0    7    0      0.83      0.00
   -7    8    0      5.67      0.00
   -6    8    0    -10.55      0.00
   -5    8    0    -19.26      0.00
   -4    8    0      6.22      0.00
   -3    8    0     11.83      0.00
   -2    8    0     20.68      0.00
   -1    8    0     23.15      0.00
    0    8    0      1.32      0.00
   -8    9    0     -3.23      0.00
   -7    9    0      3.59      0.00
   -6    9    0      9.56      0.00
   -5    9    0     -7.44      0.00
   -4    9    0     -6.79      0.00
   -3    9    0     18.22      0.00
   -2    9    0     15.73      0.00
   -1    9    0      1.59      0.00
    0    9    0      2.60      0.00
   -9   10    0     -5.41      0.00
   -8   10    0     15.70      0.00
   -7   10    0     11.32      0.00
   -6   10    0      0.99      0.00
   -5   10    0     -0.19      0.00
   -4   10    0     -0.31      0.00
   -3   10    0      5.57      0.00
   -2   10    0     20.85      0.00
   -1   10    0      4.25      0.00
    0   10    0     -9.03      0.00
  -10   11    0     -3.55      0.00
   -9   11    0     -0.25      0.00
   -8   11    0      8.44      0.00
   -7   11    0     12.34      0.00
   -6   11    0     -5.06      0.00
   -5   11    0    -12.92      0.00
   -4   11    0      8.20      0.00
   -3   11    0     15.04      0.00
   -2   11    0     10.88      0.00
   -1   11    0      6.39      0.00
    0   11    0     -8.69      0.00
  -11   12    0     -9.16      0.00
  -10   12    0     -4.80      0.00
   -9   12    0      6.13      0.00
   -8   12    0      1.72      0.00
   -7   12    0     -8.15      0.00
   -6   12    0     -4.66      0.00
   -5   12    0     -5.63      0.00
   -4   12    0      3.66      0.00
   -3   12    0     19.71      0.00
   -2   12    0     10.15      0.00
   -1   12    0     -3.76      0.00
    0   12    0     -2.66      0.00
  -12   13    0     -1.68      0.00
  -11   13    0      2.86      0.00
  -10   13    0     -2.11      0.00
   -9   13    0     -4.02      0.00
   -8   13    0     -0.23      0.00
   -7   13    0     -8.91      0.00
   -6   13    0    -11.20      0.00
   -5   13    0      1.81      0.00
   -4   13    0      5.92      0.00
   -3   13    0      5.54      0.00
   -2   13    0      6.54      0.00
   -1   13    0     -4.57      0.00
    0   13    0     -2.30      0.00
  -13   14    0      6.50      0.00
  -12   14    0      4.08      0.00
  -11   14    0      0.07      0.00
  -10   14    0      0.69      0.00
   -9   14    0     -4.49      0.00
   -8   14    0     -4.01      0.00
   -7   14    0      0.57      0.00
   -6   14    0     -6.26      0.00
   -5   14    0     -5.62      0.00
   -4   14    0      5.33      0.00
   -3   14    0      2.34      0.00
   -2   14    0     -2.37      0.00
   -1   14    0     -0.32      0.00
    0   14    0     -0.47      0.00
  -14   15    0      3.94      0.00
  -13   15    0      6.34      0.00
  -12   15    0      5.96      0.00
  -11   15    0     -2.41      0.00
  -10   15    0     -2.68      0.00
   -9   15    0      5.92      0.00
   -8   15    0      4.24      0.00
   -7   15    0     -0.79      0.00
   -6   15    0     -1.60      0.00
   -5   15    0     -5.20      0.00
   -4   15    0      0.65      0.00
   -3   15    0      5.35      0.00
   -2   15    0     -1.05      0.00
   -1   15    0     -3.35      0.00
    0   15    0      0.76      0.00
  -15   16    0      0.04      0.00
  -14   16    0      4.09      0.00
  -13   16    0      2.06      0.00
  -12   16    0     -1.87      0.00
  -11   16    0     -1.40      0.00
  -10   16    0      0.27      0.00
   -9   16    0      8.98      0.00
   -8   16    0     10.42      0.00
   -7   16    0     -2.18      0.00
   -6   16    0     -7.00      0.00
   -5   16    0      1.48      0.00
   -4   16    0      4.09      0.00
   -3   16    0      4.14      0.00
   -2   16    0      0.15      0.00
   -1   16    0     -4.31      0.00
    0   16    0     -3.05      0.00
  -16   17    0      1.34      0.00
  -15   17    0      0.12      0.00
  -14   17    0      0.52      0.00
  -13   17    0      0.57      0.00
  -12   17    0     -3.75      0.00
  -11   17    0     -0.62      0.00
  -10   17    0      7.40      0.00
   -9   17    0      8.00      0.00
   -8   17    0      4.35      0.00
   -7   17    0     -2.07      0.00
   -6   17    0     -5.09      0.00
   -5   17    0      2.03      0.00
   -4   17    0      8.90      0.00
   -3   17    0      3.23      0.00
   -2   17    0     -3.03      0.00
   -1   17    0     -2.94      0.00
    0   17    0      0.01      0.00
  -17   18    0      3.14      0.00
  -16   18    0      0.20      0.00
  -15   18    0      0.23      0.00
  -14   18    0     -0.62      0.00
  -13   18    0      0.27      0.00
  -12   18    0     -1.13      0.00
  -11   18    0     -0.51      0.00
  -10   18    0      4.70      0.00
   -9   18    0      5.72      0.00
   -8   18    0     -2.59      0.00
   -7   18    0     -4.78      0.00
   -6   18    0     -1.51      0.00
   -5   18    0      3.65      0.00
   -4   18    0      3.69      0.00
   -3   18    0      2.24      0.00
   -2   18    0     -3.17      0.00
   -1   18    0     -2.01      0.00
    0   18    0      4.46      0.00
  -18   19    0      5.01      0.00
  -17   19    0      3.63      0.00
  -16   19    0     -0.30      0.00
  -15   19    0      1.20      0.00
  -14   19    0      2.96      0.00
  -13   19    0      1.27      0.00
  -12   19    0      0.77      0.00
  -11   19    0      0.94      0.00
  -10   19    0      1.06      0.00
   -9   19    0      1.55      0.00
   -8   19    0     -1.37      0.00
   -7   19    0     -3.66      0.00
   -6   19    0     -1.92      0.00
   -5   19    0      2.58      0.00
   -4   19    0      2.94      0.00
   -3   19    0     -1.57      0.00
   -2   19    0     -0.35      0.00
   -1   19    0      1.17      0.00
    0   19    0      3.49      0.00
  -19   20    0      4.11      0.00
  -18   20    0      0.70      0.00
  -17   20    0     -1.06      0.00
  -16   20    0     -0.11      0.00
  -15   20    0      2.36      0.00
  -14   20    0      3.87      0.00
  -13   20    0      2.00      0.00
  -12   20    0     -1.42      0.00
  -11   20    0      0.83      0.00
  -10   20    0      0.87      0.00
   -9   20    0      1.32      0.00
   -8   20    0     -1.87      0.00
   -7   20    0     -2.44      0.00
   -6   20    0     -1.69      0.00
   -5   20    0     -0.32      0.00
   -4   20    0      1.70      0.00
   -3   20    0      0.69      0.00
   -2   20    0     -2.06      0.00
   -1   20    0      2.24      0.00
    0   20    0      1.27      0.00
  -20   21    0     -0.60      0.00
  -19   21    0     -1.65      0.00
  -18   21    0     -2.22      0.00
  -17   21    0     -2.60      0.00
  -16   21    0      0.75      0.00
  -15   21    0      3.38      0.00
  -14   21    0      2.07      0.00
  -13   21    0      1.10      0.00
  -12   21    0     -0.88      0.00
  -11   21    0      0.70      0.00
  -10   21    0      2.52      0.00
   -9   21    0      1.89      0.00
   -8   21    0     -0.45      0.00
   -7   21    0     -3.85      0.00
   -6   21    0     -1.02      0.00
   -5   21    0      2.89      0.00
   -4   21    0      0.93      0.00
   -3   21    0      1.34      0.00
   -2   21    0     -0.51      0.00
   -1   21    0     -1.14      0.00
    0   21    0      0.79      0.00
  -21   22    0     -1.18      0.00
  -20   22    0     -0.61      0.00
  -19   22    0     -3.36      0.00
  -18   22    0     -3.35      0.00
  -17   22    0     -0.63      0.00
  -16   22    0      0.36      0.00
  -15   22    0      2.03      0.00
  -14   22    0     -0.42      0.00
  -13   22    0     -1.42      0.00
  -12   22    0     -1.46      0.00
  -11   22    0      1.08      0.00
  -10   22    0      2.42      0.00
   -9   22    0      0.50      0.00
   -8   22    0     -2.73      0.00
   -7   22    0     -0.72      0.00
   -6   22    0     -0.24      0.00
   -5   22    0      4.24      0.00
   -4   22    0      2.99      0.00
   -3   22    0     -0.90      0.00
   -2   22    0     -0.13      0.00
   -1   22    0     -1.11      0.00
    0   22    0     -0.47      0.00
  -22   23    0      1.09      0.00
  -21   23    0     -0.51      0.00
  -20   23    0     -0.88      0.00
  -19   23    0      0.24      0.00
  -18   23    0     -0.90      0.00
  -17   23    0      0.51      0.00
  -16   23    0      0.32      0.00
  -15   23    0     -0.47      0.00
  -14   23    0     -1.42      0.00
  -13   23    0     -2.17      0.00
  -12   23    0     -1.43      0.00
  -11   23    0      0.40      0.00
  -10   23    0      1.02      0.00
   -9   23    0      0.57      0.00
   -8   23    0     -2.87      0.00
   -7   23    0     -0.12      0.00
   -6   23    0      3.76      0.00
   -5   23    0      2.77      0.00
   -4   23    0      1.64      0.00
   -3   23    0     -0.98      0.00
   -2   23    0     -1.50      0.00
   -1   23    0      1.32      0.00
    0   23    0      0.25      0.00
  -23   24    0      0.16      0.00
  -22   24    0      0.25      0.00
  -21   24    0      2.58      0.00
  -20   24    0      2.23      0.00
  -19   24    0      2.59      0.00
  -18   24    0      1.73      0.00
  -17   24    0     -0.12      0.00
  -16   24    0     -0.02      0.00
  -15   24    0      0.37      0.00
  -14   24    0     -1.44      0.00
  -13   24    0     -2.02      0.00
  -12   24    0     -1.64      0.00
  -11   24    0      1.27      0.00
  -10   24    0     -0.36      0.00
   -9   24    0     -0.72      0.00
   -8   24    0     -0.71      0.00
   -7   24    0     -0.05      0.00
   -6   24    0      1.76      0.00
   -5   24    0      1.59      0.00
   -4   24    0     -1.17      0.00
   -3   24    0     -0.84      0.00
   -2   24    0     -0.14      0.00
   -1   24    0      1.26      0.00
    0   24    0      2.20      0.00
  -24   25    0     -0.98      0.00
  -23   25    0      0.49      0.00
  -22   25    0      0.37      0.00
  -21   25    0      2.33      0.00
  -20   25    0      4.01      0.00
  -19   25    0      2.20      0.00
  -18   25    0      0.76      0.00
  -17   25    0      0.43      0.00
  -16   25    0      0.43      0.00
  -15   25    0      1.72      0.00
  -14   25    0      0.50      0.00
  -13   25    0     -0.72      0.00
  -12   25    0     -1.33      0.00
  -11   25    0      1.17      0.00
  -10   25    0      1.39      0.00
   -9   25    0     -0.86      0.00
   -8   25    0     -1.86      0.00
   -7   25    0     -0.17      0.00
   -6   25    0     -0.36      0.00
   -5   25    0     -0.49      0.00
   -4   25    0     -1.58      0.00
   -3   25    0     -0.84      0.00
   -2   25    0      1.42      0.00
   -1   25    0      1.34      0.00
    0   25    0     -0.44      0.00
  -25   26    0     -1.16      0.00
  -24   26    0     -1.38      0.00
  -23   26    0     -0.78      0.00
  -22   26    0      1.73      0.00
  -21   26    0      1.45      0.00
  -20   26    0      1.97      0.00
  -19   26    0      0.99      0.00
  -18   26    0     -1.16      0.00
  -17   26    0      0.61      0.00
  -16   26    0      2.49      0.00
  -15   26    0      2.68      0.00
  -14   26    0      0.25      0.00
  -13   26    0      0.44      0.00
  -12   26    0      0.71      0.00
  -11   26    0      1.53      0.00
  -10   26    0      0.92      0.00
   -9   26    0      0.13      0.00
   -8   26    0     -1.83      0.00
   -7   26    0     -1.76      0.00
   -6   26    0     -0.27      0.00
   -5   26    0     -0.26      0.00
   -4   26    0     -0.65      0.00
   -3   26    0     -0.52      0.00
   -2   26    0      0.50      0.00
   -1   26    0      0.53      0.00
  -24   27    0      0.07      0.00
  -23   27    0     -0.33      0.00
  -22   27    0     -0.33      0.00
  -21   27    0      0.15      0.00
  -20   27    0     -1.76      0.00
  -19   27    0     -1.89      0.00
  -18   27    0     -1.69      0.00
  -17   27    0     -0.17      0.00
  -16   27    0      1.31      0.00
  -15   27    0      2.23      0.00
  -14   27    0      0.51      0.00
  -13   27    0     -0.05      0.00
  -12   27    0      1.30      0.00
  -11   27    0      2.63      0.00
  -10   27    0      0.99      0.00
   -9   27    0     -1.04      0.00
   -8   27    0     -1.18      0.00
   -7   27    0      0.18      0.00
   -6   27    0     -0.10      0.00
   -5   27    0      0.56      0.00
   -4   27    0     -0.72      0.00
   -3   27    0     -0.83      0.00
  -22   28    0     -0.68      0.00
  -21   28    0     -1.83      0.00
  -20   28    0     -2.58      0.00
  -19   28    0     -3.35      0.00
  -18   28    0     -2.17      0.00
  -17   28    0     -0.20      0.00
  -16   28    0      0.22      0.00
  -15   28    0      0.13      0.00
  -14   28    0      0.28      0.00
  -13   28    0      0.86      0.00
  -12   28    0      0.62      0.00
  -11   28    0      0.96      0.00
  -10   28    0      0.46      0.00
   -9   28    0     -0.08      0.00
   -8   28    0     -1.18      0.00
   -7   28    0      1.30      0.00
   -6   28    0      1.94      0.00
  -16   29    0     -0.52      0.00
  -15   29    0     -0.10      0.00
  -14   29    0     -1.13      0.00
  -13   29    0     -0.54      0.00
  -12   29    0     -0.45      0.00
  -11   29    0     -0.25      0.00
  -10   29    0     -1.76      0.00
   -9   29    0     -0.10      0.00
    0    1    1     21.50      0.00
   -1    2    1    -16.74      0.00
    0    2    1     15.40      0.00
   -2    3    1     14.84      0.00
   -1    3    1     15.44      0.00
    0    3    1    -19.54      0.00
   -3    4    1      7.99      0.00
   -2    4    1    -20.15      0.00
   -1    4    1      6.30      0.00
    0    4    1      1.36      0.00
   -4    5    1    -19.37      0.00
   -3    5    1      6.81      0.00
   -2    5    1      9.74      0.00
   -1    5    1    -18.70      0.00
    0    5    1     -2.37      0.00
   -5    6    1      2.47      0.00
   -4    6    1      4.81      0.00
   -3    6    1     -7.65      0.00
   -2    6    1      3.54      0.00
   -1    6    1      6.58      0.00
    0    6    1    -12.98      0.00
   -6    7    1      3.57      0.00
   -5    7    1     -6.29      0.00
   -4    7    1      7.71      0.00
   -3    7    1     14.87      0.00
   -2    7    1     -2.73      0.00
   -1    7    1      3.72      0.00
    0    7    1      8.26      0.00
   -7    8    1     -0.62      0.00
   -6    8    1      3.62      0.00
   -5    8    1      7.95      0.00
   -4    8    1     -1.79      0.00
   -3    8    1      6.03      0.00
   -2    8    1      9.38      0.00
   -1    8    1     -1.30      0.00
    0    8    1      1.88      0.00
   -8    9    1      4.45      0.00
   -7    9    1      2.25      0.00
   -6    9    1     -3.86      0.00
   -5    9    1      1.23      0.00
   -4    9    1      7.24      0.00
   -3    9    1     -2.24      0.00
   -2    9    1     -2.02      0.00
   -1    9    1      3.93      0.00
    0    9    1     -1.73      0.00
   -9   10    1      0.15      0.00
   -8   10    1     -4.14      0.00
   -7   10    1     -1.62      0.00
   -6   10    1      0.00      0.00
   -5   10    1     -2.64      0.00
   -4   10    1     -2.56      0.00
   -3   10    1      1.01      0.00
   -2   10    1     -7.13      0.00
   -1   10    1     -3.38      0.00
    0   10    1      0.53      0.00
  -10   11    1     -2.60      0.00
   -9   11    1     -0.76      0.00
   -8   11    1     -1.95      0.00
   -7   11    1     -4.25      0.00
   -6   11    1     -0.71      0.00
   -5   11    1      4.40      0.00
   -4   11    1     -2.32      0.00
   -3   11    1     -3.88      0.00
   -2   11    1     -1.65      0.00
   -1   11    1     -2.84      0.00
    0   11    1     -0.41      0.00
  -11   12    1     -0.73      0.00
  -10   12    1     -1.34      0.00
   -9   12    1     -2.66      0.00
   -8   12    1     -0.73      0.00
   -7   12    1      1.91      0.00
   -6   12    1      0.49      0.00
   -5   12    1      2.86      0.00
   -4   12    1      3.17      0.00
   -3   12    1     -1.68      0.00
   -2   12    1     -0.41      0.00
   -1   12    1      0.77      0.00
    0   12    1     -1.70      0.00
  -12   13    1     -1.56      0.00
  -11   13    1     -4.74      0.00
  -10   13    1     -0.57      0.00
   -9   13    1      1.41      0.00
   -8   13    1     -0.83      0.00
   -7   13    1      1.18      0.00
   -6   13    1      2.60      0.00
   -5   13    1      2.12      0.00
   -4   13    1      3.41      0.00
   -3   13    1      3.22      0.00
   -2   13    1      0.03      0.00
   -1   13    1      2.45      0.00
    0   13    1     -0.13      0.00
  -13   14    1     -2.78      0.00
  -12   14    1     -3.26      0.00
  -11   14    1     -1.82      0.00
  -10   14    1     -0.69      0.00
   -9   14    1      3.01      0.00
   -8   14    1      0.39      0.00
   -7   14    1     -2.93      0.00
   -6   14    1      0.40      0.00
   -5   14    1      2.80      0.00
   -4   14    1      2.81      0.00
   -3   14    1      3.21      0.00
   -2   14    1      0.98      0.00
   -1   14    1     -0.59      0.00
    0   14    1      1.68      0.00
  -14   15    1     -1.30      0.00
  -13   15    1     -2.15      0.00
  -12   15    1     -4.43      0.00
  -11   15    1      0.38      0.00
  -10   15    1      2.03      0.00
   -9   15    1      0.15      0.00
   -8   15    1     -0.78      0.00
   -7   15    1     -3.22      0.00
   -6   15    1     -2.08      0.00
   -5   15    1      2.61      0.00
   -4   15    1      1.05      0.00
   -3   15    1     -0.89      0.00
   -2   15    1     -0.30      0.00
   -1   15    1     -0.85      0.00
    0   15    1     -1.55      0.00
  -15   16    1     -0.42      0.00
  -14   16    1     -1.65      0.00
  -13   16    1     -1.00      0.00
  -12   16    1     -0.34      0.00
  -11   16    1      0.72      0.00
  -10   16    1      4.52      0.00
   -9   16    1      0.51      0.00
   -8   16    1     -1.99      0.00
   -7   16    1     -1.05      0.00
   -6   16    1     -0.58      0.00
   -5   16    1     -0.75      0.00
   -4   16    1     -1.04      0.00
   -3   16    1     -3.76      0.00
   -2   16    1     -2.42      0.00
   -1   16    1     -0.70      0.00
    0   16    1     -1.61      0.00
  -16   17    1     -1.89      0.00
  -15   17    1     -1.13      0.00
  -14   17    1     -0.68      0.00
  -13   17    1     -0.88      0.00
  -12   17    1      1.89      0.00
  -11   17    1      1.14      0.00
  -10   17    1      1.50      0.00
   -9   17    1      2.48      0.00
   -8   17    1     -0.71      0.00
   -7   17    1     -0.09      0.00
   -6   17    1     -0.20      0.00
   -5   17    1     -2.44      0.00
   -4   17    1     -3.78      0.00
   -3   17    1     -2.12      0.00
   -2   17    1     -1.56      0.00
   -1   17    1     -1.07      0.00
    0   17    1     -1.42      0.00
  -17   18    1     -1.65      0.00
  -16   18    1     -0.02      0.00
  -15   18    1     -0.23      0.00
  -14   18    1      0.41      0.00
  -13   18    1     -1.70      0.00
  -12   18    1     -0.09      0.00
  -11   18    1      2.50      0.00
  -10   18    1      1.09      0.00
   -9   18    1      1.29      0.00
   -8   18    1      2.71      0.00
   -7   18    1      1.10      0.00
   -6   18    1      0.80      0.00
   -5   18    1     -2.12      0.00
   -4   18    1     -1.13      0.00
   -3   18    1      0.51      0.00
   -2   18    1      1.80      0.00
   -1   18    1     -1.16      0.00
    0   18    1     -2.55      0.00
  -18   19    1     -1.51      0.00
  -17   19    1     -0.39      0.00
  -16   19    1      0.47      0.00
  -15   19    1     -1.35      0.00
  -14   19    1     -2.22      0.00
  -13   19    1     -1.70      0.00
  -12   19    1     -2.64      0.00
  -11   19    1      0.31      0.00
  -10   19    1      2.44      0.00
   -9   19    1      1.27      0.00
   -8   19    1      2.64      0.00
   -7   19    1      2.13      0.00
   -6   19    1      1.39      0.00
   -5   19    1      1.02      0.00
   -4   19    1      0.99      0.00
   -3   19    1      2.38      0.00
   -2   19    1      0.25      0.00
   -1   19    1     -1.73      0.00
    0   19    1     -4.03      0.00
  -19   20    1     -3.38      0.00
  -18   20    1     -0.48      0.00
  -17   20    1      1.12      0.00
  -16   20    1      1.06      0.00
  -15   20    1     -1.03      0.00
  -14   20    1     -4.29      0.00
  -13   20    1     -3.43      0.00
  -12   20    1      0.73      0.00
  -11   20    1      0.13      0.00
  -10   20    1      1.83      0.00
   -9   20    1      1.02      0.00
   -8   20    1      2.56      0.00
   -7   20    1      2.79      0.00
   -6   20    1      1.50      0.00
   -5   20    1      1.95      0.00
   -4   20    1      1.94      0.00
   -3   20    1      0.39      0.00
   -2   20    1     -1.73      0.00
   -1   20    1     -5.11      0.00
    0   20    1     -2.64      0.00
  -20   21    1     -1.16      0.00
  -19   21    1      0.27      0.00
  -18   21    1      0.21      0.00
  -17   21    1      1.22      0.00
  -16   21    1      0.42      0.00
  -15   21    1     -1.67      0.00
  -14   21    1     -2.59      0.00
  -13   21    1     -3.39      0.00
  -12   21    1      0.14      0.00
  -11   21    1      1.60      0.00
  -10   21    1      0.10      0.00
   -9   21    1     -0.29      0.00
   -8   21    1     -0.54      0.00
   -7   21    1      2.21      0.00
   -6   21    1      2.01      0.00
   -5   21    1     -0.02      0.00
   -4   21    1     -0.02      0.00
   -3   21    1     -2.70      0.00
   -2   21    1     -2.95      0.00
   -1   21    1     -3.24      0.00
    0   21    1     -3.07      0.00
  -21   22    1      2.16      0.00
  -20   22    1     -0.76      0.00
  -19   22    1     -0.25      0.00
  -18   22    1      1.01      0.00
  -17   22    1      0.92      0.00
  -16   22    1      0.87      0.00
  -15   22    1     -2.26      0.00
  -14   22    1     -2.72      0.00
  -13   22    1     -1.15      0.00
  -12   22    1      0.42      0.00
  -11   22    1     -0.03      0.00
  -10   22    1     -1.25      0.00
   -9   22    1     -1.35      0.00
   -8   22    1      0.28      0.00
   -7   22    1     -0.50      0.00
   -6   22    1      1.90      0.00
   -5   22    1     -0.58      0.00
   -4   22    1     -2.13      0.00
   -3   22    1     -2.54      0.00
   -2   22    1     -3.90      0.00
   -1   22    1     -0.05      0.00
    0   22    1      1.17      0.00
  -22   23    1      0.22      0.00
  -21   23    1      1.52      0.00
  -20   23    1      1.43      0.00
  -19   23    1     -1.80      0.00
  -18   23    1     -0.80      0.00
  -17   23    1      0.61      0.00
  -16   23    1     -0.13      0.00
  -15   23    1     -1.75      0.00
  -14   23    1     -2.71      0.00
  -13   23    1     -1.83      0.00
  -12   23    1      0.33      0.00
  -11   23    1      0.31      0.00
  -10   23    1     -0.84      0.00
   -9   23    1     -2.29      0.00
   -8   23    1      0.77      0.00
   -7   23    1      1.36      0.00
   -6   23    1     -0.51      0.00
   -5   23    1     -0.74      0.00
   -4   23    1     -2.76      0.00
   -3   23    1     -1.79      0.00
   -2   23    1     -0.58      0.00
   -1   23    1     -1.11      0.00
    0   23    1      2.68      0.00
  -23   24    1      2.08      0.00
  -22   24    1      2.49      0.00
  -21   24    1     -1.08      0.00
  -20   24    1     -1.71      0.00
  -19   24    1     -1.13      0.00
  -18   24    1     -1.40      0.00
  -17   24    1     -0.31      0.00
  -16   24    1      0.10      0.00
  -15   24    1     -2.32      0.00
  -14   24    1     -1.73      0.00
  -13   24    1     -0.81      0.00
  -12   24    1      0.67      0.00
  -11   24    1      0.23      0.00
  -10   24    1      1.10      0.00
   -9   24    1      0.46      0.00
   -8   24    1     -0.18      0.00
   -7   24    1      1.01      0.00
   -6   24    1      0.31      0.00
   -5   24    1     -1.56      0.00
   -4   24    1     -1.27      0.00
   -3   24    1     -1.80      0.00
   -2   24    1      0.45      0.00
   -1   24    1      1.34      0.00
    0   24    1     -0.31      0.00
  -24   25    1      2.29      0.00
  -23   25    1      0.10      0.00
  -22   25    1      0.71      0.00
  -21   25    1      0.13      0.00
  -20   25    1     -2.58      0.00
  -19   25    1     -1.89      0.00
  -18   25    1      1.12      0.00
  -17   25    1      0.69      0.00
  -16   25    1      0.45      0.00
  -15   25    1     -0.76      0.00
  -14   25    1     -1.68      0.00
  -13   25    1     -0.16      0.00
  -12   25    1      1.94      0.00
  -11   25    1      1.72      0.00
  -10   25    1      0.57      0.00
   -9   25    1      1.06      0.00
   -8   25    1      1.86      0.00
   -7   25    1     -0.17      0.00
   -6   25    1      0.07      0.00
   -5   25    1     -0.02      0.00
   -4   25    1      0.19      0.00
   -3   25    1      0.20      0.00
   -2   25    1     -0.56      0.00
   -1   25    1      0.94      0.00
    0   25    1      1.30      0.00
  -25   26    1      0.09      0.00
  -24   26    1      1.49      0.00
  -23   26    1      1.63      0.00
  -22   26    1     -1.37      0.00
  -21   26    1     -1.61      0.00
  -20   26    1     -0.39      0.00
  -19   26    1     -0.20      0.00
  -18   26    1      1.82      0.00
  -17   26    1      2.90      0.00
  -16   26    1      0.36      0.00
  -15   26    1     -1.13      0.00
  -14   26    1     -0.39      0.00
  -13   26    1      0.03      0.00
  -12   26    1      1.51      0.00
  -11   26    1      1.45      0.00
  -10   26    1      2.14      0.00
   -9   26    1      0.47      0.00
   -8   26    1      0.88      0.00
   -7   26    1      1.82      0.00
   -6   26    1      0.76      0.00
   -5   26    1      0.96      0.00
   -4   26    1      0.90      0.00
   -3   26    1      0.59      0.00
   -2   26    1     -0.26      0.00
   -1   26    1     -0.55      0.00
  -24   27    1      0.43      0.00
  -23   27    1      0.75      0.00
  -22   27    1      0.17      0.00
  -21   27    1     -1.79      0.00
  -20   27    1     -0.41      0.00
  -19   27    1      2.68      0.00
  -18   27    1      2.99      0.00
  -17   27    1      2.09      0.00
  -16   27    1      0.65      0.00
  -15   27    1     -1.78      0.00
  -14   27    1     -0.16      0.00
  -13   27    1      1.00      0.00
  -12   27    1      1.80      0.00
  -11   27    1      0.72      0.00
  -10   27    1      0.74      0.00
   -9   27    1      2.31      0.00
   -8   27    1      1.02      0.00
   -7   27    1      0.51      0.00
   -6   27    1      2.41      0.00
   -5   27    1      1.55      0.00
   -4   27    1      0.62      0.00
   -3   27    1     -0.31      0.00
  -22   28    1     -1.33      0.00
  -21   28    1     -0.70      0.00
  -20   28    1     -0.32      0.00
  -19   28    1      1.67      0.00
  -18   28    1      3.04      0.00
  -17   28    1      0.23      0.00
  -16   28    1     -0.78      0.00
  -15   28    1     -0.83      0.00
  -14   28    1      0.43      0.00
  -13   28    1      1.20      0.00
  -12   28    1      0.56      0.00
  -11   28    1      0.86      0.00
  -10   28    1      0.17      0.00
   -9   28    1     -0.27      0.00
   -8   28    1      1.74      0.00
   -7   28    1      0.65      0.00
   -6   28    1      0.29      0.00
  -16   29    1     -1.07      0.00
  -15   29    1      0.17      0.00
  -14   29    1      1.04      0.00
  -13   29    1      0.86      0.00
  -12   29    1     -0.17      0.00
  -11   29    1     -1.60      0.00
  -10   29    1      0.41      0.00
   -9   29    1     -0.43      0.00
    0    0    2     15.72      0.00
    0    1    2    -19.89      0.00
   -1    2    2     15.87      0.00
    0    2    2    -15.50      0.00
   -2    3    2     -9.99      0.00
   -1    3    2    -12.94      0.00
    0    3    2     17.01      0.00
   -3    4    2     -0.17      0.00
   -2    4    2     17.01      0.00
   -1    4    2    -10.31      0.00
    0    4    2     -5.55      0.00
   -4    5    2     23.32      0.00
   -3    5    2      4.63      0.00
   -2    5    2     -8.87      0.00
   -1    5    2      3.60      0.00
    0    5    2     -1.68      0.00
   -5    6    2      9.61      0.00
   -4    6    2     11.66      0.00
   -3    6    2     14.09      0.00
   -2    6    2     -9.62      0.00
   -1    6    2    -12.36      0.00
    0    6    2      9.19      0.00
   -6    7    2     11.08      0.00
   -5    7    2     22.08      0.00
   -4    7    2     10.60      0.00
   -3    7    2     -2.50      0.00
   -2    7    2      1.11      0.00
   -1    7    2     -1.64      0.00
    0    7    2      3.09      0.00
   -7    8    2     12.07      0.00
   -6    8    2      9.40      0.00
   -5    8    2      8.27      0.00
   -4    8    2     11.87      0.00
   -3    8    2      4.49      0.00
   -2    8    2     -2.32      0.00
   -1    8    2      6.34      0.00
    0    8    2      6.01      0.00
   -8    9    2      2.69      0.00
   -7    9    2      1.52      0.00
   -6    9    2      5.24      0.00
   -5    9    2      5.35      0.00
   -4    9    2      3.31      0.00
   -3    9    2      7.24      0.00
   -2    9    2      2.59      0.00
   -1    9    2     -2.15      0.00
    0    9    2      4.30      0.00
   -9   10    2      1.75      0.00
   -8   10    2     -0.96      0.00
   -7   10    2     -6.41      0.00
   -6   10    2     -5.84      0.00
   -5   10    2      5.43      0.00
   -4   10    2      5.38      0.00
   -3   10    2     -5.42      0.00
   -2   10    2     -5.92      0.00
   -1   10    2     -4.12      0.00
    0   10    2     -0.66      0.00
  -10   11    2      5.37      0.00
   -9   11    2     -1.21      0.00
   -8   11    2     -8.62      0.00
   -7   11    2     -5.84      0.00
   -6   11    2      0.01      0.00
   -5   11    2      0.99      0.00
   -4   11    2     -0.07      0.00
   -3   11    2    -11.11      0.00
   -2   11    2    -16.13      0.00
   -1   11    2     -4.50      0.00
    0   11    2      2.44      0.00
  -11   12    2      4.02      0.00
  -10   12    2      2.36      0.00
   -9   12    2      0.60      0.00
   -8   12    2     -4.92      0.00
   -7   12    2     -3.53      0.00
   -6   12    2      6.35      0.00
   -5   12    2      3.85      0.00
   -4   12    2    -10.16      0.00
   -3   12    2    -14.06      0.00
   -2   12    2    -11.40      0.00
   -1   12    2     -1.71      0.00
    0   12    2      4.45      0.00
  -12   13    2     -0.33      0.00
  -11   13    2      3.19      0.00
  -10   13    2      3.30      0.00
   -9   13    2      0.15      0.00
   -8   13    2      2.01      0.00
   -7   13    2      3.32      0.00
   -6   13    2      4.28      0.00
   -5   13    2      2.59      0.00
   -4   13    2     -7.27      0.00
   -3   13    2    -10.36      0.00
   -2   13    2     -1.74      0.00
   -1   13    2      2.94      0.00
    0   13    2      3.06      0.00
  -13   14    2     -3.43      0.00
  -12   14    2     -3.65      0.00
  -11   14    2      0.02      0.00
  -10   14    2      4.26      0.00
   -9   14    2      0.72      0.00
   -8   14    2     -1.13      0.00
   -7   14    2      3.81      0.00
   -6   14    2      2.70      0.00
   -5   14    2      0.23      0.00
   -4   14    2     -0.70      0.00
   -3   14    2     -0.92      0.00
   -2   14    2      3.66      0.00
   -1   14    2      5.16      0.00
    0   14    2      0.25      0.00
  -14   15    2     -2.75      0.00
  -13   15    2     -7.19      0.00
  -12   15    2     -3.29      0.00
  -11   15    2      0.48      0.00
  -10   15    2      0.50      0.00
   -9   15    2     -1.48      0.00
   -8   15    2     -4.91      0.00
   -7   15    2     -1.72      0.00
   -6   15    2      3.28      0.00
   -5   15    2      2.16      0.00
   -4   15    2      2.74      0.00
   -3   15    2      2.75      0.00
   -2   15    2      2.87      0.00
   -1   15    2      4.39      0.00
    0   15    2      0.82      0.00
  -15   16    2     -1.44      0.00
  -14   16    2     -4.47      0.00
  -13   16    2     -3.14      0.00
  -12   16    2     -0.33      0.00
  -11   16    2      1.32      0.00
  -10   16    2     -3.35      0.00
   -9   16    2     -5.12      0.00
   -8   16    2     -4.35      0.00
   -7   16    2     -2.47      0.00
   -6   16    2      2.70      0.00
   -5   16    2      3.44      0.00
   -4   16    2     -0.45      0.00
   -3   16    2     -0.21      0.00
   -2   16    2     -0.02      0.00
   -1   16    2      1.27      0.00
    0   16    2      2.16      0.00
  -16   17    2      0.05      0.00
  -15   17    2      1.15      0.00
  -14   17    2      0.23      0.00
  -13   17    2      1.11      0.00
  -12   17    2      1.74      0.00
  -11   17    2      1.31      0.00
  -10   17    2     -1.77      0.00
   -9   17    2     -5.23      0.00
   -8   17    2     -1.40      0.00
   -7   17    2      1.49      0.00
   -6   17    2      1.55      0.00
   -5   17    2     -0.16      0.00
   -4   17    2     -4.19      0.00
   -3   17    2     -4.19      0.00
   -2   17    2     -0.16      0.00
   -1   17    2     -0.30      0.00
    0   17    2     -0.39      0.00
  -17   18    2      0.90      0.00
  -16   18    2      2.13      0.00
  -15   18    2      1.98      0.00
  -14   18    2      2.48      0.00
  -13   18    2      2.78      0.00
  -12   18    2      1.47      0.00
  -11   18    2      0.22      0.00
  -10   18    2      1.09      0.00
   -9   18    2     -0.02      0.00
   -8   18    2      0.17      0.00
   -7   18    2      3.60      0.00
   -6   18    2      0.93      0.00
   -5   18    2     -2.73      0.00
   -4   18    2     -3.82      0.00
   -3   18    2     -2.38      0.00
   -2   18    2     -0.05      0.00
   -1   18    2     -0.53      0.00
    0   18    2     -2.75      0.00
  -18   19    2     -1.50      0.00
  -17   19    2      1.17      0.00
  -16   19    2      3.62      0.00
  -15   19    2      2.09      0.00
  -14   19    2     -1.31      0.00
  -13   19    2     -1.48      0.00
  -12   19    2      2.02      0.00
  -11   19    2      1.95      0.00
  -10   19    2      0.54      0.00
   -9   19    2      1.61      0.00
   -8   19    2      1.92      0.00
   -7   19    2      2.90      0.00
   -6   19    2      1.74      0.00
   -5   19    2     -1.40      0.00
   -4   19    2      0.38      0.00
   -3   19    2      1.50      0.00
   -2   19    2      0.39      0.00
   -1   19    2     -2.04      0.00
    0   19    2     -2.45      0.00
  -19   20    2     -1.24      0.00
  -18   20    2      1.23      0.00
  -17   20    2      2.46      0.00
  -16   20    2      0.64      0.00
  -15   20    2     -2.06      0.00
  -14   20    2     -3.62      0.00
  -13   20    2     -2.83      0.00
  -12   20    2      0.75      0.00
  -11   20    2      3.31      0.00
  -10   20    2     -0.74      0.00
   -9   20    2     -1.36      0.00
   -8   20    2      1.42      0.00
   -7   20    2      2.54      0.00
   -6   20    2      3.16      0.00
   -5   20    2      1.66      0.00
   -4   20    2      1.88      0.00
   -3   20    2      2.96      0.00
   -2   20    2      0.68      0.00
   -1   20    2     -1.14      0.00
    0   20    2     -1.38      0.00
  -20   21    2      0.89      0.00
  -19   21    2      0.54      0.00
  -18   21    2      1.16      0.00
  -17   21    2      1.88      0.00
  -16   21    2     -0.42      0.00
  -15   21    2     -4.85      0.00
  -14   21    2     -4.63      0.00
  -13   21    2      0.56      0.00
  -12   21    2      1.96      0.00
  -11   21    2     -0.34      0.00
  -10   21    2     -3.01      0.00
   -9   21    2     -3.89      0.00
   -8   21    2      0.90      0.00
   -7   21    2      2.26      0.00
   -6   21    2      1.55      0.00
   -5   21    2      1.97      0.00
   -4   21    2      1.04      0.00
   -3   21    2      1.57      0.00
   -2   21    2      1.49      0.00
   -1   21    2      0.62      0.00
    0   21    2      0.97      0.00
  -21   22    2      0.84      0.00
  -20   22    2      1.79      0.00
  -19   22    2      1.26      0.00
  -18   22    2      0.85      0.00
  -17   22    2      0.04      0.00
  -16   22    2     -1.51      0.00
  -15   22    2     -2.15      0.00
  -14   22    2     -1.69      0.00
  -13   22    2      1.56      0.00
  -12   22    2      2.28      0.00
  -11   22    2     -2.17      0.00
  -10   22    2     -4.19      0.00
   -9   22    2     -2.69      0.00
   -8   22    2     -0.06      0.00
   -7   22    2      2.58      0.00
   -6   22    2     -0.49      0.00
   -5   22    2     -1.64      0.00
   -4   22    2      0.22      0.00
   -3   22    2      1.31      0.00
   -2   22    2      2.23      0.00
   -1   22    2      0.35      0.00
    0   22    2      0.21      0.00
  -22   23    2      0.77      0.00
  -21   23    2      1.60      0.00
  -20   23    2      0.20      0.00
  -19   23    2     -0.52      0.00
  -18   23    2     -0.33      0.00
  -17   23    2      0.11      0.00
  -16   23    2     -1.55      0.00
  -15   23    2     -1.66      0.00
  -14   23    2      1.00      0.00
  -13   23    2      1.80      0.00
  -12   23    2      0.75      0.00
  -11   23    2     -1.61      0.00
  -10   23    2     -2.36      0.00
   -9   23    2      0.53      0.00
   -8   23    2      0.97      0.00
   -7   23    2     -0.52      0.00
   -6   23    2     -1.09      0.00
   -5   23    2     -2.59      0.00
   -4   23    2     -0.33      0.00
   -3   23    2      1.18      0.00
   -2   23    2      0.81      0.00
   -1   23    2     -0.46      0.00
    0   23    2     -1.89      0.00
  -23   24    2     -0.45      0.00
  -22   24    2     -0.11      0.00
  -21   24    2      0.39      0.00
  -20   24    2     -1.06      0.00
  -19   24    2     -1.50      0.00
  -18   24    2     -1.16      0.00
  -17   24    2     -0.99      0.00
  -16   24    2     -0.91      0.00
  -15   24    2     -1.10      0.00
  -14   24    2     -0.11      0.00
  -13   24    2      1.46      0.00
  -12   24    2      0.98      0.00
  -11   24    2      0.85      0.00
  -10   24    2      0.52      0.00
   -9   24    2      1.11      0.00
   -8   24    2      2.09      0.00
   -7   24    2     -0.53      0.00
   -6   24    2     -2.21      0.00
   -5   24    2     -0.78      0.00
   -4   24    2      0.61      0.00
   -3   24    2      0.75      0.00
   -2   24    2     -1.28      0.00
   -1   24    2     -1.66      0.00
    0   24    2     -0.26      0.00
  -24   25    2     -0.14      0.00
  -23   25    2      0.74      0.00
  -22   25    2     -0.39      0.00
  -21   25    2     -1.53      0.00
  -20   25    2     -1.65      0.00
  -19   25    2     -1.10      0.00
  -18   25    2     -0.23      0.00
  -17   25    2     -1.06      0.00
  -16   25    2     -2.17      0.00
  -15   25    2     -1.37      0.00
  -14   25    2     -0.21      0.00
  -13   25    2      0.63      0.00
  -12   25    2      0.87      0.00
  -11   25    2      0.60      0.00
  -10   25    2      1.47      0.00
   -9   25    2      1.13      0.00
   -8   25    2      0.28      0.00
   -7   25    2      0.39      0.00
   -6   25    2      0.09      0.00
   -5   25    2      0.24      0.00
   -4   25    2      0.74      0.00
   -3   25    2      0.03      0.00
   -2   25    2     -0.41      0.00
   -1   25    2     -0.66      0.00
    0   25    2      0.82      0.00
  -25   26    2      1.66      0.00
  -24   26    2      0.64      0.00
  -23   26    2     -0.48      0.00
  -22   26    2     -0.55      0.00
  -21   26    2     -1.04      0.00
  -20   26    2      0.03      0.00
  -19   26    2      1.00      0.00
  -18   26    2      0.67      0.00
  -17   26    2      0.15      0.00
  -16   26    2     -1.19      0.00
  -15   26    2     -1.49      0.00
  -14   26    2     -0.32      0.00
  -13   26    2      0.62      0.00
  -12   26    2      0.03      0.00
  -11   26    2     -0.75      0.00
  -10   26    2     -0.73      0.00
   -9   26    2      1.17      0.00
   -8   26    2      1.36      0.00
   -7   26    2      0.03      0.00
   -6   26    2      0.97      0.00
   -5   26    2      1.36      0.00
   -4   26    2      0.53      0.00
   -3   26    2     -0.20      0.00
   -2   26    2      0.39      0.00
   -1   26    2      1.53      0.00
  -24   27    2      0.65      0.00
  -23   27    2     -0.45      0.00
  -22   27    2     -0.74      0.00
  -21   27    2      0.58      0.00
  -20   27    2      1.70      0.00
  -19   27    2      2.97      0.00
  -18   27    2      2.13      0.00
  -17   27    2      0.45      0.00
  -16   27    2     -0.31      0.00
  -15   27    2     -0.06      0.00
  -14   27    2      0.21      0.00
  -13   27    2     -0.19      0.00
  -12   27    2     -1.44      0.00
  -11   27    2     -1.56      0.00
  -10   27    2     -0.30      0.00
   -9   27    2     -0.08      0.00
   -8   27    2      1.10      0.00
   -7   27    2      0.81      0.00
   -6   27    2     -0.48      0.00
   -5   27    2      0.15      0.00
   -4   27    2      0.40      0.00
   -3   27    2      0.23      0.00
  -21   28    2      1.47      0.00
  -20   28    2      2.43      0.00
  -19   28    2      2.88      0.00
  -18   28    2      2.73      0.00
  -17   28    2      1.38      0.00
  -16   28    2      0.36      0.00
  -15   28    2      0.92      0.00
  -14   28    2      1.40      0.00
  -13   28    2      0.43      0.00
  -12   28    2     -0.99      0.00
  -11   28    2     -1.58      0.00
  -10   28    2      0.32      0.00
   -9   28    2      1.16      0.00
   -8   28    2     -1.01      0.00
   -7   28    2     -0.82      0.00
   -6   28    2     -0.36      0.00
  -16   29    2      0.79      0.00
  -15   29    2      1.60      0.00
  -14   29    2      1.82      0.00
  -13   29    2      0.70      0.00
  -12   29    2     -0.02      0.00
  -11   29    2      0.15      0.00
  -10   29    2     -0.52      0.00
    0    0    3    -20.68      0.00
    0    1    3      0.22      0.00
   -1    2    3    -24.32      0.00
    0    2    3      1.89      0.00
   -2    3    3      1.29      0.00
   -1    3    3      2.91      0.00
    0    3    3    -14.06      0.00
   -3    4    3      6.63      0.00
   -2    4    3     -4.75      0.00
   -1    4    3     10.99      0.00
    0    4    3     13.87      0.00
   -4    5    3     -4.10      0.00
   -3    5    3     10.22      0.00
   -2    5    3     18.69      0.00
   -1    5    3      6.24      0.00
    0    5    3      8.65      0.00
   -5    6    3      2.20      0.00
   -4    6    3      7.96      0.00
   -3    6    3      4.29      0.00
   -2    6    3     17.78      0.00
   -1    6    3     14.34      0.00
    0    6    3     -2.15      0.00
   -6    7    3     -3.61      0.00
   -5    7    3     -5.43      0.00
   -4    7    3      2.97      0.00
   -3    7    3     10.59      0.00
   -2    7    3      1.98      0.00
   -1    7    3     -2.28      0.00
    0    7    3     -3.73      0.00
   -7    8    3     -5.84      0.00
   -6    8    3      1.87      0.00
   -5    8    3      2.41      0.00
   -4    8    3     -2.01      0.00
   -3    8    3     -4.27      0.00
   -2    8    3     -0.35      0.00
   -1    8    3    -10.38      0.00
    0    8    3     -7.28      0.00
   -8    9    3     -1.14      0.00
   -7    9    3      3.50      0.00
   -6    9    3      2.86      0.00
   -5    9    3     -1.45      0.00
   -4    9    3     -2.35      0.00
   -3    9    3    -10.11      0.00
   -2    9    3     -9.90      0.00
   -1    9    3     -4.36      0.00
    0    9    3     -5.06      0.00
   -9   10    3     -1.37      0.00
   -8   10    3      2.48      0.00
   -7   10    3      5.20      0.00
   -6   10    3      7.11      0.00
   -5   10    3     -3.21      0.00
   -4   10    3     -6.45      0.00
   -3   10    3     -1.73      0.00
   -2   10    3     -1.98      0.00
   -1   10    3     -1.04      0.00
    0   10    3      0.76      0.00
  -10   11    3     -1.11      0.00
   -9   11    3     -0.25      0.00
   -8   11    3      3.89      0.00
   -7   11    3      2.83      0.00
   -6   11    3      0.52      0.00
   -5   11    3      1.68      0.00
   -4   11    3     -1.19      0.00
   -3   11    3      1.59      0.00
   -2   11    3      5.82      0.00
   -1   11    3      1.43      0.00
    0   11    3      1.37      0.00
  -11   12    3      0.01      0.00
  -10   12    3      1.33      0.00
   -9   12    3     -1.57      0.00
   -8   12    3     -0.33      0.00
   -7   12    3      2.26      0.00
   -6   12    3      0.38      0.00
   -5   12    3      1.16      0.00
   -4   12    3      6.45      0.00
   -3   12    3      3.98      0.00
   -2   12    3      3.91      0.00
   -1   12    3      0.38      0.00
    0   12    3      0.00      0.00
  -12   13    3      4.30      0.00
  -11   13    3      1.70      0.00
  -10   13    3     -1.13      0.00
   -9   13    3     -0.77      0.00
   -8   13    3     -2.37      0.00
   -7   13    3     -0.49      0.00
   -6   13    3      3.02      0.00
   -5   13    3      1.37      0.00
   -4   13    3      3.67      0.00
   -3   13    3      1.85      0.00
   -2   13    3     -2.20      0.00
   -1   13    3     -1.10      0.00
    0   13    3     -0.76      0.00
  -13   14    3      3.08      0.00
  -12   14    3      2.79      0.00
  -11   14    3      2.34      0.00
  -10   14    3     -2.22      0.00
   -9   14    3     -2.72      0.00
   -8   14    3      0.68      0.00
   -7   14    3     -0.25      0.00
   -6   14    3      1.76      0.00
   -5   14    3      1.52      0.00
   -4   14    3     -0.70      0.00
   -3   14    3     -0.56      0.00
   -2   14    3     -4.57      0.00
   -1   14    3     -2.96      0.00
    0   14    3      1.28      0.00
  -14   15    3     -0.18      0.00
  -13   15    3      4.44      0.00
  -12   15    3      2.16      0.00
  -11   15    3     -1.45      0.00
  -10   15    3     -1.42      0.00
   -9   15    3     -1.25      0.00
   -8   15    3      2.23      0.00
   -7   15    3      2.06      0.00
   -6   15    3     -0.61      0.00
   -5   15    3      0.60      0.00
   -4   15    3     -1.26      0.00
   -3   15    3     -2.44      0.00
   -2   15    3     -1.35      0.00
   -1   15    3     -3.89      0.00
    0   15    3     -0.93      0.00
  -15   16    3     -0.86      0.00
  -14   16    3      0.37      0.00
  -13   16    3     -0.13      0.00
  -12   16    3      0.22      0.00
  -11   16    3     -2.45      0.00
  -10   16    3     -1.61      0.00
   -9   16    3      0.99      0.00
   -8   16    3      1.46      0.00
   -7   16    3      1.83      0.00
   -6   16    3     -1.21      0.00
   -5   16    3     -1.20      0.00
   -4   16    3      0.80      0.00
   -3   16    3     -1.38      0.00
   -2   16    3     -1.13      0.00
   -1   16    3     -0.82      0.00
    0   16    3     -3.38      0.00
  -16   17    3     -0.31      0.00
  -15   17    3     -3.11      0.00
  -14   17    3     -0.47      0.00
  -13   17    3      0.53      0.00
  -12   17    3     -1.03      0.00
  -11   17    3     -2.12      0.00
  -10   17    3     -1.52      0.00
   -9   17    3      1.33      0.00
   -8   17    3      0.55      0.00
   -7   17    3     -0.90      0.00
   -6   17    3     -0.51      0.00
   -5   17    3     -1.14      0.00
   -4   17    3      1.11      0.00
   -3   17    3      1.53      0.00
   -2   17    3     -1.22      0.00
   -1   17    3     -0.06      0.00
    0   17    3      0.44      0.00
  -17   18    3      0.60      0.00
  -16   18    3     -0.61      0.00
  -15   18    3     -1.02      0.00
  -14   18    3     -1.57      0.00
  -13   18    3      0.06      0.00
  -12   18    3     -0.42      0.00
  -11   18    3     -1.67      0.00
  -10   18    3     -2.79      0.00
   -9   18    3     -1.24      0.00
   -8   18    3     -0.38      0.00
   -7   18    3     -1.60      0.00
   -6   18    3     -1.12      0.00
   -5   18    3      0.42      0.00
   -4   18    3      0.43      0.00
   -3   18    3      2.18      0.00
   -2   18    3      0.33      0.00
   -1   18    3     -0.36      0.00
    0   18    3      2.45      0.00
  -18   19    3      2.92      0.00
  -17   19    3      2.88      0.00
  -16   19    3     -1.25      0.00
  -15   19    3     -1.44      0.00
  -14   19    3      1.23      0.00
  -13   19    3      1.49      0.00
  -12   19    3     -0.47      0.00
  -11   19    3     -1.42      0.00
  -10   19    3     -1.79      0.00
   -9   19    3     -2.00      0.00
   -8   19    3     -0.61      0.00
   -7   19    3     -0.32      0.00
   -6   19    3     -0.53      0.00
   -5   19    3      1.14      0.00
   -4   19    3      0.61      0.00
   -3   19    3      0.26      0.00
   -2   19    3      0.80      0.00
   -1   19    3      0.20      0.00
    0   19    3      0.53      0.00
  -19   20    3      1.77      0.00
  -18   20    3      1.27      0.00
  -17   20    3      0.43      0.00
  -16   20    3     -0.01      0.00
  -15   20    3     -0.64      0.00
  -14   20    3      0.50      0.00
  -13   20    3      2.66      0.00
  -12   20    3      0.88      0.00
  -11   20    3     -1.88      0.00
  -10   20    3     -2.13      0.00
   -9   20    3     -1.10      0.00
   -8   20    3     -0.74      0.00
   -7   20    3      0.39      0.00
   -6   20    3     -1.21      0.00
   -5   20    3     -0.02      0.00
   -4   20    3      0.56      0.00
   -3   20    3     -0.80      0.00
   -2   20    3     -1.28      0.00
   -1   20    3     -0.24      0.00
    0   20    3     -0.59      0.00
  -20   21    3     -0.75      0.00
  -19   21    3      0.43      0.00
  -18   21    3      1.33      0.00
  -17   21    3     -0.68      0.00
  -16   21    3     -1.14      0.00
  -15   21    3      1.60      0.00
  -14   21    3      2.38      0.00
  -13   21    3      1.66      0.00
  -12   21    3      1.02      0.00
  -11   21    3     -0.55      0.00
  -10   21    3     -1.79      0.00
   -9   21    3     -0.65      0.00
   -8   21    3     -1.33      0.00
   -7   21    3     -0.56      0.00
   -6   21    3     -0.25      0.00
   -5   21    3     -1.06      0.00
   -4   21    3     -0.11      0.00
   -3   21    3      0.11      0.00
   -2   21    3     -1.17      0.00
   -1   21    3     -1.14      0.00
    0   21    3     -0.86      0.00
  -21   22    3     -0.26      0.00
  -20   22    3     -0.02      0.00
  -19   22    3     -0.25      0.00
  -18   22    3     -0.50      0.00
  -17   22    3      0.37      0.00
  -16   22    3     -0.21      0.00
  -15   22    3      0.33      0.00
  -14   22    3      2.31      0.00
  -13   22    3      1.99      0.00
  -12   22    3     -0.48      0.00
  -11   22    3     -0.77      0.00
  -10   22    3     -1.49      0.00
   -9   22    3     -0.93      0.00
   -8   22    3     -1.55      0.00
   -7   22    3     -2.29      0.00
   -6   22    3     -0.37      0.00
   -5   22    3      1.12      0.00
   -4   22    3     -0.11      0.00
   -3   22    3      0.20      0.00
   -2   22    3     -0.12      0.00
   -1   22    3      0.11      0.00
    0   22    3     -0.01      0.00
  -22   23    3     -0.19      0.00
  -21   23    3     -0.50      0.00
  -20   23    3      0.20      0.00
  -19   23    3      1.01      0.00
  -18   23    3      0.03      0.00
  -17   23    3     -0.79      0.00
  -16   23    3      0.82      0.00
  -15   23    3      1.73      0.00
  -14   23    3      1.29      0.00
  -13   23    3      1.59      0.00
  -12   23    3      0.66      0.00
  -11   23    3      0.44      0.00
  -10   23    3     -0.14      0.00
   -9   23    3     -1.33      0.00
   -8   23    3     -1.51      0.00
   -7   23    3     -0.51      0.00
   -6   23    3     -0.36      0.00
   -5   23    3      1.50      0.00
   -4   23    3      0.86      0.00
   -3   23    3      0.13      0.00
   -2   23    3      0.16      0.00
   -1   23    3      0.71      0.00
    0   23    3      1.15      0.00
  -23   24    3      0.36      0.00
  -22   24    3     -0.15      0.00
  -21   24    3     -0.11      0.00
  -20   24    3      0.77      0.00
  -19   24    3      0.84      0.00
  -18   24    3      0.98      0.00
  -17   24    3     -0.01      0.00
  -16   24    3     -0.07      0.00
  -15   24    3      2.45      0.00
  -14   24    3      2.93      0.00
  -13   24    3      1.97      0.00
  -12   24    3      1.16      0.00
  -11   24    3      1.39      0.00
  -10   24    3      0.60      0.00
   -9   24    3     -0.62      0.00
   -8   24    3     -2.06      0.00
   -7   24    3     -0.26      0.00
   -6   24    3      0.85      0.00
   -5   24    3      0.39      0.00
   -4   24    3     -0.13      0.00
   -3   24    3     -0.27      0.00
   -2   24    3      0.80      0.00
   -1   24    3      1.31      0.00
    0   24    3      0.98      0.00
  -24   25    3      0.68      0.00
  -23   25    3     -0.82      0.00
  -22   25    3     -0.80      0.00
  -21   25    3     -0.05      0.00
  -20   25    3      1.45      0.00
  -19   25    3      1.32      0.00
  -18   25    3     -0.22      0.00
  -17   25    3      0.61      0.00
  -16   25    3      1.88      0.00
  -15   25    3      3.09      0.00
  -14   25    3      3.26      0.00
  -13   25    3      2.71      0.00
  -12   25    3      1.33      0.00
  -11   25    3      0.97      0.00
  -10   25    3      0.02      0.00
   -9   25    3     -0.35      0.00
   -8   25    3     -0.66      0.00
   -7   25    3     -0.38      0.00
   -6   25    3     -0.12      0.00
   -5   25    3      0.26      0.00
   -4   25    3     -0.47      0.00
   -3   25    3     -0.08      0.00
   -2   25    3      0.31      0.00
   -1   25    3      1.41      0.00
    0   25    3      0.98      0.00
  -24   26    3      0.35      0.00
  -23   26    3     -0.44      0.00
  -22   26    3     -0.59      0.00
  -21   26    3      0.17      0.00
  -20   26    3      0.70      0.00
  -19   26    3      1.07      0.00
  -18   26    3      0.16      0.00
  -17   26    3      0.00      0.00
  -16   26    3      2.17      0.00
  -15   26    3      3.44      0.00
  -14   26    3      1.91      0.00
  -13   26    3      0.18      0.00
  -12   26    3     -0.60      0.00
  -11   26    3     -0.35      0.00
  -10   26    3     -0.07      0.00
   -9   26    3     -0.06      0.00
   -8   26    3     -0.67      0.00
   -7   26    3      0.07      0.00
   -6   26    3     -0.16      0.00
   -5   26    3     -0.24      0.00
   -4   26    3      0.05      0.00
   -3   26    3      0.18      0.00
   -2   26    3      0.46      0.00
  -23   27    3     -0.15      0.00
  -22   27    3     -0.67      0.00
  -21   27    3     -0.17      0.00
  -20   27    3      0.12      0.00
  -19   27    3     -0.54      0.00
  -18   27    3     -0.08      0.00
  -17   27    3      0.62      0.00
  -16   27    3      0.99      0.00
  -15   27    3      1.17      0.00
  -14   27    3     -0.38      0.00
  -13   27    3     -1.95      0.00
  -12   27    3     -2.16      0.00
  -11   27    3     -0.35      0.00
  -10   27    3      0.09      0.00
   -9   27    3      0.88      0.00
   -8   27    3     -0.44      0.00
   -7   27    3     -0.92      0.00
   -6   27    3      0.00      0.00
   -5   27    3      0.38      0.00
   -4   27    3     -0.17      0.00
  -20   28    3     -0.19      0.00
  -19   28    3     -0.22      0.00
  -18   28    3     -0.52      0.00
  -17   28    3      0.27      0.00
  -16   28    3      0.12      0.00
  -15   28    3     -0.86      0.00
  -14   28    3     -2.19      0.00
  -13   28    3     -2.32      0.00
  -12   28    3     -1.70      0.00
  -11   28    3      0.47      0.00
  -10   28    3      0.71      0.00
   -9   28    3     -0.70      0.00
   -8   28    3     -0.76      0.00
   -7   28    3     -0.95      0.00
  -16   29    3     -0.47      0.00
  -15   29    3     -1.13      0.00
  -14   29    3     -1.74      0.00
  -13   29    3     -0.81      0.00
  -12   29    3      0.00      0.00
  -11   29    3      0.37      0.00
    0    1    4     -3.54      0.00
   -1    2    4      5.54      0.00
    0    2    4     -6.60      0.00
   -2    3    4     -1.74      0.00
   -1    3    4     -3.19      0.00
    0    3    4      5.85      0.00
   -3    4    4      2.51      0.00
   -2    4    4      3.67      0.00
   -1    4    4     -0.31      0.00
    0    4    4     -2.28      0.00
   -4    5    4      7.23      0.00
   -3    5    4      4.71      0.00
   -2    5    4     -0.39      0.00
   -1    5    4      3.47      0.00
    0    5    4      2.27      0.00
   -5    6    4      0.93      0.00
   -4    6    4     -0.37      0.00
   -3    6    4      4.46      0.00
   -2    6    4      0.75      0.00
   -1    6    4     -1.42      0.00
    0    6    4     -1.48      0.00
   -6    7    4     -1.59      0.00
   -5    7    4     -1.62      0.00
   -4    7    4      0.61      0.00
   -3    7    4     -1.07      0.00
   -2    7    4      1.81      0.00
   -1    7    4      2.75      0.00
    0    7    4     -3.07      0.00
   -7    8    4     -2.77      0.00
   -6    8    4     -4.75      0.00
   -5    8    4     -5.59      0.00
   -4    8    4     -4.41      0.00
   -3    8    4      3.19      0.00
   -2    8    4     -3.47      0.00
   -1    8    4     -2.96      0.00
    0    8    4     -1.99      0.00
   -8    9    4      0.06      0.00
   -7    9    4     -1.11      0.00
   -6    9    4     -5.11      0.00
   -5    9    4     -1.91      0.00
   -4    9    4     -4.41      0.00
   -3    9    4     -2.20      0.00
   -2    9    4     -1.10      0.00
   -1    9    4     -5.03      0.00
    0    9    4     -2.36      0.00
   -9   10    4      4.13      0.00
   -8   10    4      1.14      0.00
   -7   10    4      1.75      0.00
   -6   10    4     -4.00      0.00
   -5   10    4     -2.45      0.00
   -4   10    4      0.02      0.00
   -3   10    4     -5.69      0.00
   -2   10    4     -7.50      0.00
   -1   10    4     -1.80      0.00
    0   10    4      1.29      0.00
  -10   11    4      3.38      0.00
   -9   11    4      5.84      0.00
   -8   11    4      2.82      0.00
   -7   11    4      0.69      0.00
   -6   11    4      2.43      0.00
   -5   11    4      0.05      0.00
   -4   11    4     -2.12      0.00
   -3   11    4     -1.90      0.00
   -2   11    4     -3.97      0.00
   -1   11    4     -0.02      0.00
    0   11    4      2.99      0.00
  -11   12    4      4.27      0.00
  -10   12    4      3.48      0.00
   -9   12    4      3.93      0.00
   -8   12    4      3.08      0.00
   -7   12    4      0.76      0.00
   -6   12    4      1.53      0.00
   -5   12    4      3.79      0.00
   -4   12    4     -0.91      0.00
   -3   12    4     -2.46      0.00
   -2   12    4      0.12      0.00
   -1   12    4      2.81      0.00
    0   12    4      1.77      0.00
  -12   13    4     -0.23      0.00
  -11   13    4      0.94      0.00
  -10   13    4      2.82      0.00
   -9   13    4      0.86      0.00
   -8   13    4     -0.66      0.00
   -7   13    4      0.91      0.00
   -6   13    4      0.81      0.00
   -5   13    4      1.52      0.00
   -4   13    4      0.65      0.00
   -3   13    4      0.91      0.00
   -2   13    4     -0.20      0.00
   -1   13    4      0.88      0.00
    0   13    4      2.61      0.00
  -13   14    4      0.24      0.00
  -12   14    4      1.31      0.00
  -11   14    4     -0.53      0.00
  -10   14    4     -0.20      0.00
   -9   14    4     -0.73      0.00
   -8   14    4     -2.22      0.00
   -7   14    4     -1.49      0.00
   -6   14    4     -0.02      0.00
   -5   14    4      0.94      0.00
   -4   14    4      0.10      0.00
   -3   14    4     -0.83      0.00
   -2   14    4      1.21      0.00
   -1   14    4     -0.96      0.00
    0   14    4      0.13      0.00
  -14   15    4      2.29      0.00
  -13   15    4     -0.94      0.00
  -12   15    4     -1.83      0.00
  -11   15    4     -0.94      0.00
  -10   15    4     -1.97      0.00
   -9   15    4     -1.46      0.00
   -8   15    4     -2.06      0.00
   -7   15    4     -0.70      0.00
   -6   15    4     -1.13      0.00
   -5   15    4      0.19      0.00
   -4   15    4      1.46      0.00
   -3   15    4     -1.13      0.00
   -2   15    4     -2.19      0.00
   -1   15    4      1.84      0.00
    0   15    4     -0.73      0.00
  -15   16    4     -0.11      0.00
  -14   16    4     -0.59      0.00
  -13   16    4      0.83      0.00
  -12   16    4     -1.13      0.00
  -11   16    4     -1.63      0.00
  -10   16    4     -0.26      0.00
   -9   16    4      1.66      0.00
   -8   16    4      0.99      0.00
   -7   16    4     -0.96      0.00
   -6   16    4      1.39      0.00
   -5   16    4      0.11      0.00
   -4   16    4      0.36      0.00
   -3   16    4      0.78      0.00
   -2   16    4     -1.72      0.00
   -1   16    4     -1.38      0.00
    0   16    4      2.41      0.00
  -16   17    4     -0.81      0.00
  -15   17    4      1.66      0.00
  -14   17    4     -0.30      0.00
  -13   17    4     -1.44      0.00
  -12   17    4     -1.07      0.00
  -11   17    4      0.72      0.00
  -10   17    4      1.85      0.00
   -9   17    4      2.21      0.00
   -8   17    4      2.33      0.00
   -7   17    4     -0.22      0.00
   -6   17    4     -0.26      0.00
   -5   17    4      2.54      0.00
   -4   17    4     -0.47      0.00
   -3   17    4     -0.39      0.00
   -2   17    4      1.06      0.00
   -1   17    4     -1.21      0.00
    0   17    4      0.87      0.00
  -17   18    4      4.55      0.00
  -16   18    4      1.88      0.00
  -15   18    4     -0.89      0.00
  -14   18    4      1.07      0.00
  -13   18    4      0.58      0.00
  -12   18    4     -0.05      0.00
  -11   18    4      1.10      0.00
  -10   18    4      4.79      0.00
   -9   18    4      1.97      0.00
   -8   18    4      0.28      0.00
   -7   18    4      1.10      0.00
   -6   18    4      0.42      0.00
   -5   18    4      0.52      0.00
   -4   18    4      2.06      0.00
   -3   18    4     -1.30      0.00
   -2   18    4      0.13      0.00
   -1   18    4      1.94      0.00
    0   18    4      1.65      0.00
  -18   19    4      3.72      0.00
  -17   19    4      1.53      0.00
  -16   19    4      2.07      0.00
  -15   19    4      0.59      0.00
  -14   19    4     -1.57      0.00
  -13   19    4     -0.42      0.00
  -12   19    4      2.36      0.00
  -11   19    4      2.14      0.00
  -10   19    4      1.11      0.00
   -9   19    4      1.94      0.00
   -8   19    4     -0.28      0.00
   -7   19    4      0.74      0.00
   -6   19    4      1.63      0.00
   -5   19    4     -0.74      0.00
   -4   19    4     -0.13      0.00
   -3   19    4      0.78      0.00
   -2   19    4     -1.12      0.00
   -1   19    4      0.97      0.00
    0   19    4      3.31      0.00
  -19   20    4      1.42      0.00
  -18   20    4      3.61      0.00
  -17   20    4      1.76      0.00
  -16   20    4     -1.09      0.00
  -15   20    4     -0.22      0.00
  -14   20    4      1.06      0.00
  -13   20    4     -0.11      0.00
  -12   20    4      1.59      0.00
  -11   20    4      3.70      0.00
  -10   20    4      1.56      0.00
   -9   20    4      0.01      0.00
   -8   20    4      2.42      0.00
   -7   20    4      0.43      0.00
   -6   20    4      1.03      0.00
   -5   20    4     -0.46      0.00
   -4   20    4     -1.61      0.00
   -3   20    4     -0.79      0.00
   -2   20    4      0.44      0.00
   -1   20    4     -0.49      0.00
    0   20    4      0.49      0.00
  -20   21    4      0.97      0.00
  -19   21    4      0.91      0.00
  -18   21    4     -0.86      0.00
  -17   21    4      0.35      0.00
  -16   21    4      0.57      0.00
  -15   21    4     -1.57      0.00
  -14   21    4     -0.93      0.00
  -13   21    4      2.18      0.00
  -12   21    4      1.92      0.00
  -11   21    4      0.98      0.00
  -10   21    4      1.95      0.00
   -9   21    4      0.53      0.00
   -8   21    4      1.33      0.00
   -7   21    4      0.98      0.00
   -6   21    4     -1.12      0.00
   -5   21    4     -0.42      0.00
   -4   21    4     -0.45      0.00
   -3   21    4     -0.91      0.00
   -2   21    4     -0.20      0.00
   -1   21    4      0.10      0.00
    0   21    4     -0.55      0.00
  -21   22    4     -0.09      0.00
  -20   22    4     -0.18      0.00
  -19   22    4      0.56      0.00
  -18   22    4      0.31      0.00
  -17   22    4     -0.87      0.00
  -16   22    4      0.34      0.00
  -15   22    4      0.75      0.00
  -14   22    4     -0.59      0.00
  -13   22    4     -0.58      0.00
  -12   22    4      2.68      0.00
  -11   22    4      0.89      0.00
  -10   22    4      0.48      0.00
   -9   22    4      0.40      0.00
   -8   22    4     -0.08      0.00
   -7   22    4      0.40      0.00
   -6   22    4      0.48      0.00
   -5   22    4     -0.50      0.00
   -4   22    4      0.81      0.00
   -3   22    4      0.69      0.00
   -2   22    4      0.43      0.00
   -1   22    4     -0.28      0.00
    0   22    4     -0.12      0.00
  -22   23    4      0.63      0.00
  -21   23    4      1.24      0.00
  -20   23    4      1.14      0.00
  -19   23    4      0.02      0.00
  -18   23    4      1.15      0.00
  -17   23    4      1.75      0.00
  -16   23    4     -0.23      0.00
  -15   23    4     -1.36      0.00
  -14   23    4      0.28      0.00
  -13   23    4     -0.34      0.00
  -12   23    4     -0.42      0.00
  -11   23    4      0.75      0.00
  -10   23    4     -0.42      0.00
   -9   23    4     -0.81      0.00
   -8   23    4     -0.23      0.00
   -7   23    4     -0.16      0.00
   -6   23    4      1.74      0.00
   -5   23    4      1.33      0.00
   -4   23    4      1.03      0.00
   -3   23    4      0.97      0.00
   -2   23    4      1.03      0.00
   -1   23    4      0.89      0.00
    0   23    4      0.45      0.00
  -23   24    4      0.84      0.00
  -22   24    4      0.80      0.00
  -21   24    4      1.37      0.00
  -20   24    4      1.90      0.00
  -19   24    4      2.14      0.00
  -18   24    4      0.79      0.00
  -17   24    4      0.66      0.00
  -16   24    4      1.21      0.00
  -15   24    4     -0.67      0.00
  -14   24    4     -1.23      0.00
  -13   24    4      0.47      0.00
  -12   24    4      0.66      0.00
  -11   24    4     -0.51      0.00
  -10   24    4     -0.03      0.00
   -9   24    4     -1.39      0.00
   -8   24    4      0.55      0.00
   -7   24    4      1.23      0.00
   -6   24    4      1.06      0.00
   -5   24    4      1.15      0.00
   -4   24    4      0.95      0.00
   -3   24    4      0.92      0.00
   -2   24    4      0.50      0.00
   -1   24    4      1.13      0.00
    0   24    4      1.05      0.00
  -24   25    4      0.72      0.00
  -23   25    4      1.05      0.00
  -22   25    4      1.22      0.00
  -21   25    4      1.66      0.00
  -20   25    4      1.35      0.00
  -19   25    4      1.65      0.00
  -18   25    4      1.89      0.00
  -17   25    4      0.18      0.00
  -16   25    4      0.00      0.00
  -15   25    4      1.20      0.00
  -14   25    4      0.67      0.00
  -13   25    4     -0.43      0.00
  -12   25    4      1.32      0.00
  -11   25    4      0.10      0.00
  -10   25    4     -0.13      0.00
   -9   25    4      0.28      0.00
   -8   25    4      0.33      0.00
   -7   25    4      1.23      0.00
   -6   25    4      1.42      0.00
   -5   25    4      0.15      0.00
   -4   25    4      0.27      0.00
   -3   25    4      0.70      0.00
   -2   25    4      1.33      0.00
   -1   25    4      0.84      0.00
    0   25    4      0.64      0.00
  -24   26    4      0.21      0.00
  -23   26    4      0.73      0.00
  -22   26    4      0.05      0.00
  -21   26    4      0.68      0.00
  -20   26    4      1.28      0.00
  -19   26    4      0.27      0.00
  -18   26    4      0.22      0.00
  -17   26    4      1.35      0.00
  -16   26    4      0.96      0.00
  -15   26    4     -0.01      0.00
  -14   26    4      1.59      0.00
  -13   26    4      0.89      0.00
  -12   26    4      0.52      0.00
  -11   26    4      1.04      0.00
  -10   26    4      0.34      0.00
   -9   26    4      0.82      0.00
   -8   26    4      1.77      0.00
   -7   26    4      0.25      0.00
   -6   26    4      0.30      0.00
   -5   26    4      0.62      0.00
   -4   26    4     -0.03      0.00
   -3   26    4      0.24      0.00
   -2   26    4      0.56      0.00
  -22   27    4      0.42      0.00
  -21   27    4     -0.34      0.00
  -20   27    4      0.25      0.00
  -19   27    4      0.88      0.00
  -18   27    4      0.15      0.00
  -17   27    4     -0.08      0.00
  -16   27    4      1.37      0.00
  -15   27    4      0.47      0.00
  -14   27    4      0.10      0.00
  -13   27    4      1.40      0.00
  -12   27    4      0.89      0.00
  -11   27    4      0.30      0.00
  -10   27    4      1.78      0.00
   -9   27    4      0.45      0.00
   -8   27    4      0.88      0.00
   -7   27    4      0.82      0.00
   -6   27    4     -0.30      0.00
   -5   27    4     -0.40      0.00
  -18   28    4      0.66      0.00
  -17   28    4     -0.33      0.00
  -16   28    4     -0.89      0.00
  -15   28    4      0.50      0.00
  -14   28    4      0.76      0.00
  -13   28    4      0.15      0.00
  -12   28    4      1.09      0.00
  -11   28    4     -0.21      0.00
  -10   28    4      0.35      0.00
   -9   28    4      1.13      0.00
   -8   28    4     -0.59      0.00
  -14   29    4      1.11      0.00
  -13   29    4     -0.16      0.00
    0    0    5     -5.05      0.00
    0    1    5      8.12      0.00
   -1    2    5     -5.44      0.00
    0    2    5      8.45      0.00
   -2    3    5      6.33      0.00
   -1    3    5      5.80      0.00
    0    3    5     -4.35      0.00
   -3    4    5      4.36      0.00
   -2    4    5     -1.98      0.00
   -1    4    5      1.21      0.00
    0    4    5      1.99      0.00
   -4    5    5     -2.99      0.00
   -3    5    5      2.79      0.00
   -2    5    5      1.05      0.00
   -1    5    5     -7.55      0.00
    0    5    5     -4.28      0.00
   -5    6    5     -1.17      0.00
   -4    6    5      3.11      0.00
   -3    6    5     -1.61      0.00
   -2    6    5     -2.95      0.00
   -1    6    5     -4.26      0.00
    0    6    5     -4.58      0.00
   -6    7    5     -1.43      0.00
   -5    7    5      0.17      0.00
   -4    7    5      1.37      0.00
   -3    7    5      1.25      0.00
   -2    7    5     -3.05      0.00
   -1    7    5     -4.83      0.00
    0    7    5     -0.85      0.00
   -7    8    5     -0.39      0.00
   -6    8    5      0.51      0.00
   -5    8    5      2.21      0.00
   -4    8    5      2.15      0.00
   -3    8    5     -0.81      0.00
   -2    8    5      2.32      0.00
   -1    8    5      0.56      0.00
    0    8    5     -0.01      0.00
   -8    9    5      0.51      0.00
   -7    9    5     -1.23      0.00
   -6    9    5     -0.37      0.00
   -5    9    5     -0.99      0.00
   -4    9    5      3.43      0.00
   -3    9    5      1.10      0.00
   -2    9    5     -0.53      0.00
   -1    9    5      2.75      0.00
    0    9    5      2.16      0.00
   -9   10    5      0.54      0.00
   -8   10    5     -1.61      0.00
   -7   10    5     -4.14      0.00
   -6   10    5     -0.29      0.00
   -5   10    5      0.22      0.00
   -4   10    5     -1.09      0.00
   -3   10    5      1.86      0.00
   -2   10    5     -0.09      0.00
   -1   10    5      0.36      0.00
    0   10    5      2.86      0.00
  -10   11    5      2.93      0.00
   -9   11    5      0.08      0.00
   -8   11    5     -1.06      0.00
   -7   11    5     -2.70      0.00
   -6   11    5     -1.60      0.00
   -5   11    5      2.41      0.00
   -4   11    5     -0.47      0.00
   -3   11    5     -4.27      0.00
   -2   11    5     -0.50      0.00
   -1   11    5     -0.13      0.00
    0   11    5      2.11      0.00
  -11   12    5      1.35      0.00
  -10   12    5      3.18      0.00
   -9   12    5      1.23      0.00
   -8   12    5     -1.24      0.00
   -7   12    5      1.27      0.00
   -6   12    5      1.06      0.00
   -5   12    5     -0.06      0.00
   -4   12    5     -0.20      0.00
   -3   12    5     -3.61      0.00
   -2   12    5     -3.04      0.00
   -1   12    5      0.23      0.00
    0   12    5      0.53      0.00
  -12   13    5      0.66      0.00
  -11   13    5      1.68      0.00
  -10   13    5      2.71      0.00
   -9   13    5      3.22      0.00
   -8   13    5      1.22      0.00
   -7   13    5      0.10      0.00
   -6   13    5      3.05      0.00
   -5   13    5     -0.35      0.00
   -4   13    5     -1.63      0.00
   -3   13    5     -2.21      0.00
   -2   13    5     -1.33      0.00
   -1   13    5     -0.13      0.00
    0   13    5     -0.98      0.00
  -13   14    5     -1.54      0.00
  -12   14    5     -2.73      0.00
  -11   14    5      1.20      0.00
  -10   14    5      2.00      0.00
   -9   14    5      0.71      0.00
   -8   14    5      0.09      0.00
   -7   14    5     -0.98      0.00
   -6   14    5     -0.51      0.00
   -5   14    5      0.69      0.00
   -4   14    5     -1.05      0.00
   -3   14    5     -0.04      0.00
   -2   14    5     -1.23      0.00
   -1   14    5      0.82      0.00
    0   14    5      0.25      0.00
  -14   15    5     -1.90      0.00
  -13   15    5     -1.52      0.00
  -12   15    5     -0.58      0.00
  -11   15    5     -0.23      0.00
  -10   15    5      1.12      0.00
   -9   15    5     -1.39      0.00
   -8   15    5     -2.10      0.00
   -7   15    5     -2.37      0.00
   -6   15    5     -1.10      0.00
   -5   15    5      0.07      0.00
   -4   15    5     -0.25      0.00
   -3   15    5     -0.86      0.00
   -2   15    5      0.35      0.00
   -1   15    5     -1.30      0.00
    0   15    5      1.07      0.00
  -15   16    5      0.06      0.00
  -14   16    5     -0.43      0.00
  -13   16    5     -1.70      0.00
  -12   16    5      0.17      0.00
  -11   16    5      0.71      0.00
  -10   16    5     -1.16      0.00
   -9   16    5     -2.24      0.00
   -8   16    5     -3.11      0.00
   -7   16    5     -1.30      0.00
   -6   16    5     -1.81      0.00
   -5   16    5     -0.50      0.00
   -4   16    5     -1.37      0.00
   -3   16    5     -2.74      0.00
   -2   16    5     -1.19      0.00
   -1   16    5      0.26      0.00
    0   16    5     -1.58      0.00
  -16   17    5      0.73      0.00
  -15   17    5     -0.71      0.00
  -14   17    5      1.34      0.00
  -13   17    5      2.16      0.00
  -12   17    5      1.40      0.00
  -11   17    5      0.35      0.00
  -10   17    5      0.25      0.00
   -9   17    5     -0.54      0.00
   -8   17    5     -0.99      0.00
   -7   17    5     -0.43      0.00
   -6   17    5      0.29      0.00
   -5   17    5     -2.66      0.00
   -4   17    5     -1.93      0.00
   -3   17    5     -2.61      0.00
   -2   17    5     -2.40      0.00
   -1   17    5     -0.59      0.00
    0   17    5     -0.75      0.00
  -17   18    5     -1.88      0.00
  -16   18    5      0.16      0.00
  -15   18    5      1.57      0.00
  -14   18    5      0.55      0.00
  -13   18    5      1.41      0.00
  -12   18    5      1.50      0.00
  -11   18    5      1.06      0.00
  -10   18    5     -0.10      0.00
   -9   18    5      1.64      0.00
   -8   18    5      1.42      0.00
   -7   18    5      0.77      0.00
   -6   18    5      0.61      0.00
   -5   18    5     -0.61      0.00
   -4   18    5     -2.60      0.00
   -3   18    5     -0.13      0.00
   -2   18    5     -1.24      0.00
   -1   18    5     -1.73      0.00
    0   18    5     -1.16      0.00
  -18   19    5     -1.34      0.00
  -17   19    5      0.28      0.00
  -16   19    5     -0.08      0.00
  -15   19    5      0.70      0.00
  -14   19    5      1.16      0.00
  -13   19    5     -0.27      0.00
  -12   19    5      0.14      0.00
  -11   19    5      1.87      0.00
  -10   19    5      2.08      0.00
   -9   19    5      0.66      0.00
   -8   19    5      2.63      0.00
   -7   19    5      1.86      0.00
   -6   19    5      0.96      0.00
   -5   19    5      1.14      0.00
   -4   19    5     -0.14      0.00
   -3   19    5     -0.49      0.00
   -2   19    5      0.61      0.00
   -1   19    5     -1.48      0.00
    0   19    5     -2.01      0.00
  -19   20    5     -0.92      0.00
  -18   20    5     -1.64      0.00
  -17   20    5      0.00      0.00
  -16   20    5      1.12      0.00
  -15   20    5     -0.66      0.00
  -14   20    5     -1.90      0.00
  -13   20    5     -0.01      0.00
  -12   20    5      0.47      0.00
  -11   20    5      0.85      0.00
  -10   20    5      1.01      0.00
   -9   20    5      0.34      0.00
   -8   20    5     -0.31      0.00
   -7   20    5      2.45      0.00
   -6   20    5      0.58      0.00
   -5   20    5      0.77      0.00
   -4   20    5      1.26      0.00
   -3   20    5     -0.10      0.00
   -2   20    5     -0.26      0.00
   -1   20    5      0.38      0.00
    0   20    5     -0.68      0.00
  -20   21    5     -0.74      0.00
  -19   21    5     -0.78      0.00
  -18   21    5      0.33      0.00
  -17   21    5      0.16      0.00
  -16   21    5      0.17      0.00
  -15   21    5      0.11      0.00
  -14   21    5     -1.21      0.00
  -13   21    5     -0.90      0.00
  -12   21    5      1.64      0.00
  -11   21    5      0.37      0.00
  -10   21    5     -1.85      0.00
   -9   21    5     -1.44      0.00
   -8   21    5     -1.40      0.00
   -7   21    5     -0.39      0.00
   -6   21    5      1.45      0.00
   -5   21    5     -0.81      0.00
   -4   21    5     -0.15      0.00
   -3   21    5      0.79      0.00
   -2   21    5      0.29      0.00
   -1   21    5      0.24      0.00
    0   21    5      0.94      0.00
  -21   22    5      0.47      0.00
  -20   22    5      0.74      0.00
  -19   22    5     -0.61      0.00
  -18   22    5     -0.24      0.00
  -17   22    5      1.34      0.00
  -16   22    5      0.30      0.00
  -15   22    5     -0.95      0.00
  -14   22    5     -0.10      0.00
  -13   22    5      0.48      0.00
  -12   22    5     -0.59      0.00
  -11   22    5     -0.28      0.00
  -10   22    5     -2.66      0.00
   -9   22    5     -2.69      0.00
   -8   22    5     -0.97      0.00
   -7   22    5     -0.71      0.00
   -6   22    5     -0.13      0.00
   -5   22    5      0.77      0.00
   -4   22    5     -0.91      0.00
   -3   22    5      0.14      0.00
   -2   22    5      1.54      0.00
   -1   22    5      1.00      0.00
    0   22    5      0.33      0.00
  -22   23    5      0.24      0.00
  -21   23    5      0.20      0.00
  -20   23    5      0.19      0.00
  -19   23    5      0.49      0.00
  -18   23    5     -0.23      0.00
  -17   23    5     -0.42      0.00
  -16   23    5      0.68      0.00
  -15   23    5     -0.08      0.00
  -14   23    5     -1.23      0.00
  -13   23    5     -0.07      0.00
  -12   23    5     -0.25      0.00
  -11   23    5     -1.36      0.00
  -10   23    5     -0.97      0.00
   -9   23    5     -1.56      0.00
   -8   23    5     -0.71      0.00
   -7   23    5      0.95      0.00
   -6   23    5     -0.01      0.00
   -5   23    5     -0.39      0.00
   -4   23    5      0.12      0.00
   -3   23    5     -0.21      0.00
   -2   23    5      0.28      0.00
   -1   23    5      0.69      0.00
    0   23    5      0.11      0.00
  -23   24    5     -0.75      0.00
  -22   24    5      0.31      0.00
  -21   24    5      0.77      0.00
  -20   24    5      0.27      0.00
  -19   24    5     -0.64      0.00
  -18   24    5      0.37      0.00
  -17   24    5      0.18      0.00
  -16   24    5     -1.07      0.00
  -15   24    5     -0.09      0.00
  -14   24    5     -0.52      0.00
  -13   24    5     -1.02      0.00
  -12   24    5     -0.23      0.00
  -11   24    5      0.61      0.00
  -10   24    5     -0.29      0.00
   -9   24    5      0.48      0.00
   -8   24    5      0.11      0.00
   -7   24    5      0.66      0.00
   -6   24    5      1.06      0.00
   -5   24    5     -0.40      0.00
   -4   24    5     -0.74      0.00
   -3   24    5      0.13      0.00
   -2   24    5      0.72      0.00
   -1   24    5     -0.15      0.00
    0   24    5     -0.10      0.00
  -24   25    5     -0.25      0.00
  -23   25    5     -0.41      0.00
  -22   25    5     -0.41      0.00
  -21   25    5     -0.02      0.00
  -20   25    5      0.53      0.00
  -19   25    5      0.22      0.00
  -18   25    5     -0.96      0.00
  -17   25    5      0.19      0.00
  -16   25    5     -0.09      0.00
  -15   25    5     -1.42      0.00
  -14   25    5     -1.00      0.00
  -13   25    5      0.01      0.00
  -12   25    5     -0.09      0.00
  -11   25    5      0.51      0.00
  -10   25    5      0.36      0.00
   -9   25    5     -0.39      0.00
   -8   25    5      0.51      0.00
   -7   25    5      0.40      0.00
   -6   25    5     -0.31      0.00
   -5   25    5     -0.13      0.00
   -4   25    5     -0.24      0.00
   -3   25    5     -0.01      0.00
   -2   25    5      0.52      0.00
   -1   25    5      0.42      0.00
  -23   26    5     -0.17      0.00
  -22   26    5      0.15      0.00
  -21   26    5      0.11      0.00
  -20   26    5      0.11      0.00
  -19   26    5      1.00      0.00
  -18   26    5      0.58      0.00
  -17   26    5     -0.96      0.00
  -16   26    5     -0.59      0.00
  -15   26    5     -0.13      0.00
  -14   26    5     -0.98      0.00
  -13   26    5     -0.05      0.00
  -12   26    5      0.67      0.00
  -11   26    5     -0.14      0.00
  -10   26    5     -0.36      0.00
   -9   26    5      0.05      0.00
   -8   26    5     -0.44      0.00
   -7   26    5      0.41      0.00
   -6   26    5      0.15      0.00
   -5   26    5     -0.42      0.00
   -4   26    5      0.48      0.00
   -3   26    5      0.48      0.00
  -21   27    5      0.40      0.00
  -20   27    5      0.53      0.00
  -19   27    5     -0.29      0.00
  -18   27    5     -0.11      0.00
  -17   27    5     -0.40      0.00
  -16   27    5     -1.61      0.00
  -15   27    5     -0.63      0.00
  -14   27    5      0.52      0.00
  -13   27    5      0.30      0.00
  -12   27    5     -0.04      0.00
  -11   27    5      0.19      0.00
  -10   27    5     -0.89      0.00
   -9   27    5      0.03      0.00
   -8   27    5      0.20      0.00
   -7   27    5     -0.48      0.00
   -6   27    5      0.14      0.00
  -17   28    5     -0.74      0.00
  -16   28    5     -0.29      0.00
  -15   28    5      0.17      0.00
  -14   28    5      0.90      0.00
  -13   28    5      1.58      0.00
  -12   28    5      0.16      0.00
  -11   28    5      0.06      0.00
  -10   28    5      0.28      0.00
    0    0    6     17.86      0.00
    0    1    6      5.13      0.00
   -1    2    6      6.11      0.00
    0    2    6     -2.15      0.00
   -2    3    6     -6.13      0.00
   -1    3    6     -6.17      0.00
    0    3    6     -0.66      0.00
   -3    4    6     -6.45      0.00
   -2    4    6     -0.10      0.00
   -1    4    6     -3.84      0.00
    0    4    6     -4.58      0.00
   -4    5    6     -2.03      0.00
   -3    5    6     -3.52      0.00
   -2    5    6     -1.98      0.00
   -1    5    6      4.17      0.00
    0    5    6     -0.16      0.00
   -5    6    6     -4.70      0.00
   -4    6    6     -4.56      0.00
   -3    6    6      2.62      0.00
   -2    6    6      7.88      0.00
   -1    6    6      3.75      0.00
    0    6    6      2.24      0.00
   -6    7    6     -2.44      0.00
   -5    7    6     -4.90      0.00
   -4    7    6     -1.04      0.00
   -3    7    6      2.95      0.00
   -2    7    6      9.36      0.00
   -1    7    6      8.25      0.00
    0    7    6     -0.50      0.00
   -7    8    6     -1.72      0.00
   -6    8    6     -2.25      0.00
   -5    8    6     -4.59      0.00
   -4    8    6      0.23      0.00
   -3    8    6      7.68      0.00
   -2    8    6      5.35      0.00
   -1    8    6      2.52      0.00
    0    8    6      2.01      0.00
   -8    9    6     -0.07      0.00
   -7    9    6      0.58      0.00
   -6    9    6     -2.80      0.00
   -5    9    6     -0.49      0.00
   -4    9    6     -1.68      0.00
   -3    9    6      2.06      0.00
   -2    9    6      4.51      0.00
   -1    9    6     -0.66      0.00
    0    9    6     -1.90      0.00
   -9   10    6      0.79      0.00
   -8   10    6      0.64      0.00
   -7   10    6      2.30      0.00
   -6   10    6     -0.99      0.00
   -5   10    6     -2.85      0.00
   -4   10    6      2.24      0.00
   -3   10    6     -0.62      0.00
   -2   10    6     -0.09      0.00
   -1   10    6      0.78      0.00
    0   10    6     -0.22      0.00
  -10   11    6     -1.71      0.00
   -9   11    6      1.21      0.00
   -8   11    6      1.02      0.00
   -7   11    6     -0.86      0.00
   -6   11    6      0.88      0.00
   -5   11    6     -1.05      0.00
   -4   11    6     -0.60      0.00
   -3   11    6      2.82      0.00
   -2   11    6      0.54      0.00
   -1   11    6     -0.45      0.00
    0   11    6     -1.23      0.00
  -11   12    6     -0.19      0.00
  -10   12    6     -0.43      0.00
   -9   12    6     -1.05      0.00
   -8   12    6      1.43      0.00
   -7   12    6     -0.73      0.00
   -6   12    6     -0.47      0.00
   -5   12    6      2.38      0.00
   -4   12    6      1.92      0.00
   -3   12    6      1.22      0.00
   -2   12    6      1.56      0.00
   -1   12    6     -0.38      0.00
    0   12    6     -1.25      0.00
  -12   13    6     -1.26      0.00
  -11   13    6     -0.98      0.00
  -10   13    6      0.02      0.00
   -9   13    6     -1.29      0.00
   -8   13    6     -1.85      0.00
   -7   13    6      0.93      0.00
   -6   13    6     -0.06      0.00
   -5   13    6      0.49      0.00
   -4   13    6      1.66      0.00
   -3   13    6      1.42      0.00
   -2   13    6     -1.06      0.00
   -1   13    6     -2.34      0.00
    0   13    6      0.13      0.00
  -13   14    6      1.33      0.00
  -12   14    6      2.13      0.00
  -11   14    6     -1.08      0.00
  -10   14    6     -1.33      0.00
   -9   14    6      0.25      0.00
   -8   14    6      0.37      0.00
   -7   14    6     -0.68      0.00
   -6   14    6      0.15      0.00
   -5   14    6     -0.39      0.00
   -4   14    6      0.37      0.00
   -3   14    6     -0.69      0.00
   -2   14    6     -0.53      0.00
   -1   14    6     -1.41      0.00
    0   14    6     -0.51      0.00
  -14   15    6      2.40      0.00
  -13   15    6      0.88      0.00
  -12   15    6      0.31      0.00
  -11   15    6      0.09      0.00
  -10   15    6     -0.94      0.00
   -9   15    6      0.95      0.00
   -8   15    6      2.07      0.00
   -7   15    6      0.12      0.00
   -6   15    6     -2.64      0.00
   -5   15    6     -0.98      0.00
   -4   15    6      0.83      0.00
   -3   15    6      0.57      0.00
   -2   15    6     -1.66      0.00
   -1   15    6      0.49      0.00
    0   15    6     -0.05      0.00
  -15   16    6     -0.53      0.00
  -14   16    6      1.27      0.00
  -13   16    6      2.51      0.00
  -12   16    6     -0.03      0.00
  -11   16    6     -0.88      0.00
  -10   16    6      1.87      0.00
   -9   16    6      3.14      0.00
   -8   16    6      1.61      0.00
   -7   16    6     -1.58      0.00
   -6   16    6     -2.02      0.00
   -5   16    6     -0.96      0.00
   -4   16    6      1.48      0.00
   -3   16    6      2.07      0.00
   -2   16    6      0.22      0.00
   -1   16    6     -1.53      0.00
    0   16    6      0.64      0.00
  -16   17    6      0.22      0.00
  -15   17    6      1.39      0.00
  -14   17    6      0.75      0.00
  -13   17    6      1.09      0.00
  -12   17    6      0.92      0.00
  -11   17    6      0.43      0.00
  -10   17    6      1.08      0.00
   -9   17    6      2.32      0.00
   -8   17    6     -0.18      0.00
   -7   17    6     -3.43      0.00
   -6   17    6     -2.87      0.00
   -5   17    6      1.03      0.00
   -4   17    6      1.63      0.00
   -3   17    6      1.45      0.00
   -2   17    6      0.58      0.00
   -1   17    6     -0.55      0.00
    0   17    6      0.36      0.00
  -17   18    6      3.92      0.00
  -16   18    6      1.24      0.00
  -15   18    6      0.51      0.00
  -14   18    6      2.68      0.00
  -13   18    6      1.94      0.00
  -12   18    6      0.32      0.00
  -11   18    6     -0.11      0.00
  -10   18    6      0.69      0.00
   -9   18    6     -1.51      0.00
   -8   18    6     -2.53      0.00
   -7   18    6     -2.96      0.00
   -6   18    6     -2.21      0.00
   -5   18    6      0.28      0.00
   -4   18    6      1.94      0.00
   -3   18    6      0.39      0.00
   -2   18    6     -0.31      0.00
   -1   18    6      1.24      0.00
    0   18    6      2.58      0.00
  -18   19    6      3.70      0.00
  -17   19    6      2.55      0.00
  -16   19    6      2.14      0.00
  -15   19    6      1.33      0.00
  -14   19    6      1.56      0.00
  -13   19    6      2.13      0.00
  -12   19    6      0.78      0.00
  -11   19    6     -1.36      0.00
  -10   19    6     -1.97      0.00
   -9   19    6     -1.18      0.00
   -8   19    6     -2.73      0.00
   -7   19    6     -1.14      0.00
   -6   19    6     -0.69      0.00
   -5   19    6     -0.35      0.00
   -4   19    6      0.19      0.00
   -3   19    6      0.61      0.00
   -2   19    6     -0.28      0.00
   -1   19    6      1.11      0.00
    0   19    6      2.64      0.00
  -19   20    6      1.58      0.00
  -18   20    6      2.76      0.00
  -17   20    6      0.98      0.00
  -16   20    6     -0.31      0.00
  -15   20    6      1.46      0.00
  -14   20    6      2.44      0.00
  -13   20    6      0.75      0.00
  -12   20    6     -0.32      0.00
  -11   20    6     -0.71      0.00
  -10   20    6     -1.56      0.00
   -9   20    6     -0.48      0.00
   -8   20    6      0.80      0.00
   -7   20    6     -0.68      0.00
   -6   20    6     -0.17      0.00
   -5   20    6     -0.49      0.00
   -4   20    6     -0.47      0.00
   -3   20    6     -0.01      0.00
   -2   20    6      0.10      0.00
   -1   20    6      0.14      0.00
    0   20    6     -0.69      0.00
  -20   21    6     -0.68      0.00
  -19   21    6     -0.51      0.00
  -18   21    6     -0.79      0.00
  -17   21    6     -0.34      0.00
  -16   21    6     -0.01      0.00
  -15   21    6      0.46      0.00
  -14   21    6      1.25      0.00
  -13   21    6      1.25      0.00
  -12   21    6     -0.94      0.00
  -11   21    6     -0.75      0.00
  -10   21    6      0.98      0.00
   -9   21    6      1.38      0.00
   -8   21    6      1.42      0.00
   -7   21    6      0.55      0.00
   -6   21    6     -0.78      0.00
   -5   21    6      0.92      0.00
   -4   21    6      0.53      0.00
   -3   21    6      0.64      0.00
   -2   21    6     -0.51      0.00
   -1   21    6     -1.06      0.00
    0   21    6     -1.41      0.00
  -21   22    6     -1.53      0.00
  -20   22    6     -1.21      0.00
  -19   22    6     -0.88      0.00
  -18   22    6     -1.60      0.00
  -17   22    6     -1.43      0.00
  -16   22    6      0.35      0.00
  -15   22    6      0.92      0.00
  -14   22    6     -0.19      0.00
  -13   22    6     -1.50      0.00
  -12   22    6     -0.65      0.00
  -11   22    6     -0.52      0.00
  -10   22    6      1.19      0.00
   -9   22    6      1.47      0.00
   -8   22    6      0.02      0.00
   -7   22    6      0.48      0.00
   -6   22    6      1.00      0.00
   -5   22    6      1.74      0.00
   -4   22    6      1.71      0.00
   -3   22    6      0.38      0.00
   -2   22    6     -0.23      0.00
   -1   22    6     -1.24      0.00
    0   22    6     -1.10      0.00
  -22   23    6      0.27      0.00
  -21   23    6     -0.41      0.00
  -20   23    6     -0.75      0.00
  -19   23    6     -0.83      0.00
  -18   23    6      0.03      0.00
  -17   23    6      0.08      0.00
  -16   23    6      0.14      0.00
  -15   23    6      0.02      0.00
  -14   23    6     -0.68      0.00
  -13   23    6     -2.03      0.00
  -12   23    6     -1.91      0.00
  -11   23    6      0.69      0.00
  -10   23    6      0.66      0.00
   -9   23    6      0.64      0.00
   -8   23    6     -0.16      0.00
   -7   23    6      1.00      0.00
   -6   23    6      2.72      0.00
   -5   23    6      2.49      0.00
   -4   23    6      1.17      0.00
   -3   23    6      0.05      0.00
   -2   23    6     -0.70      0.00
   -1   23    6      0.60      0.00
    0   23    6      0.05      0.00
  -23   24    6      0.39      0.00
  -22   24    6     -0.33      0.00
  -21   24    6      0.12      0.00
  -20   24    6      0.44      0.00
  -19   24    6      0.21      0.00
  -18   24    6      0.08      0.00
  -17   24    6      0.38      0.00
  -16   24    6      0.41      0.00
  -15   24    6     -0.42      0.00
  -14   24    6     -1.68      0.00
  -13   24    6     -1.72      0.00
  -12   24    6     -0.93      0.00
  -11   24    6      0.10      0.00
  -10   24    6      0.63      0.00
   -9   24    6     -0.58      0.00
   -8   24    6      0.35      0.00
   -7   24    6      1.57      0.00
   -6   24    6      1.89      0.00
   -5   24    6      1.15      0.00
   -4   24    6     -0.53      0.00
   -3   24    6     -0.22      0.00
   -2   24    6     -0.45      0.00
   -1   24    6      0.40      0.00
    0   24    6      0.76      0.00
  -23   25    6      0.23      0.00
  -22   25    6     -0.25      0.00
  -21   25    6     -0.41      0.00
  -20   25    6      0.47      0.00
  -19   25    6      0.97      0.00
  -18   25    6      0.18      0.00
  -17   25    6     -0.04      0.00
  -16   25    6      0.53      0.00
  -15   25    6      0.75      0.00
  -14   25    6     -0.30      0.00
  -13   25    6     -1.03      0.00
  -12   25    6      0.29      0.00
  -11   25    6      0.88      0.00
  -10   25    6      0.36      0.00
   -9   25    6      0.44      0.00
   -8   25    6      0.17      0.00
   -7   25    6      1.33      0.00
   -6   25    6      0.80      0.00
   -5   25    6      0.01      0.00
   -4   25    6     -0.96      0.00
   -3   25    6     -0.37      0.00
   -2   25    6      0.36      0.00
  -22   26    6     -1.03      0.00
  -21   26    6     -0.35      0.00
  -20   26    6      0.00      0.00
  -19   26    6     -0.34      0.00
  -18   26    6     -0.49      0.00
  -17   26    6     -0.22      0.00
  -16   26    6      0.95      0.00
  -15   26    6      0.57      0.00
  -14   26    6      0.27      0.00
  -13   26    6     -0.20      0.00
  -12   26    6      0.06      0.00
  -11   26    6      0.99      0.00
  -10   26    6      0.28      0.00
   -9   26    6      0.01      0.00
   -8   26    6      0.39      0.00
   -7   26    6      0.08      0.00
   -6   26    6     -0.18      0.00
   -5   26    6      0.01      0.00
   -4   26    6     -0.39      0.00
  -19   27    6     -0.81      0.00
  -18   27    6     -0.89      0.00
  -17   27    6      0.01      0.00
  -16   27    6      1.03      0.00
  -15   27    6      0.95      0.00
  -14   27    6     -0.25      0.00
  -13   27    6      0.35      0.00
  -12   27    6      0.53      0.00
  -11   27    6      0.56      0.00
  -10   27    6      0.70      0.00
   -9   27    6     -0.16      0.00
   -8   27    6     -0.43      0.00
   -7   27    6      0.51      0.00
  -15   28    6      0.10      0.00
  -14   28    6      0.02      0.00
  -13   28    6     -0.33      0.00
    0    0    7     -7.87      0.00
    0    1    7      4.87      0.00
   -1    2    7     -7.41      0.00
    0    2    7      1.53      0.00
   -2    3    7      2.59      0.00
   -1    3    7      2.13      0.00
    0    3    7     -5.24      0.00
   -3    4    7      3.82      0.00
   -2    4    7     -5.88      0.00
   -1    4    7      1.60      0.00
    0    4    7      1.80      0.00
   -4    5    7     -0.48      0.00
   -3    5    7      3.14      0.00
   -2    5    7      1.66      0.00
   -1    5    7     -2.64      0.00
    0    5    7      2.82      0.00
   -5    6    7      2.23      0.00
   -4    6    7      1.63      0.00
   -3    6    7     -1.44      0.00
   -2    6    7      0.08      0.00
   -1    6    7      2.01      0.00
    0    6    7     -1.54      0.00
   -6    7    7      0.38      0.00
   -5    7    7     -1.02      0.00
   -4    7    7      0.83      0.00
   -3    7    7      2.39      0.00
   -2    7    7      0.79      0.00
   -1    7    7      1.87      0.00
    0    7    7      0.59      0.00
   -7    8    7     -1.54      0.00
   -6    8    7     -1.08      0.00
   -5    8    7      1.46      0.00
   -4    8    7     -0.32      0.00
   -3    8    7      2.04      0.00
   -2    8    7      2.49      0.00
   -1    8    7      0.39      0.00
    0    8    7     -1.15      0.00
   -8    9    7     -0.64      0.00
   -7    9    7      0.80      0.00
   -6    9    7      0.54      0.00
   -5    9    7      1.76      0.00
   -4    9    7      3.14      0.00
   -3    9    7      1.21      0.00
   -2    9    7      0.49      0.00
   -1    9    7      1.23      0.00
    0    9    7     -0.80      0.00
   -9   10    7     -0.25      0.00
   -8   10    7     -0.97      0.00
   -7   10    7      1.95      0.00
   -6   10    7      3.39      0.00
   -5   10    7      1.74      0.00
   -4   10    7     -0.70      0.00
   -3   10    7      0.47      0.00
   -2   10    7     -1.33      0.00
   -1   10    7     -0.17      0.00
    0   10    7      0.10      0.00
  -10   11    7     -1.80      0.00
   -9   11    7      0.37      0.00
   -8   11    7      2.24      0.00
   -7   11    7      2.21      0.00
   -6   11    7      2.08      0.00
   -5   11    7      2.22      0.00
   -4   11    7     -1.62      0.00
   -3   11    7     -2.21      0.00
   -2   11    7      0.91      0.00
   -1   11    7      0.31      0.00
    0   11    7     -0.65      0.00
  -11   12    7     -1.55      0.00
  -10   12    7     -0.69      0.00
   -9   12    7      0.19      0.00
   -8   12    7      1.23      0.00
   -7   12    7      2.45      0.00
   -6   12    7      0.04      0.00
   -5   12    7     -0.92      0.00
   -4   12    7     -0.78      0.00
   -3   12    7     -1.36      0.00
   -2   12    7     -0.27      0.00
   -1   12    7      0.45      0.00
    0   12    7     -2.00      0.00
  -12   13    7     -2.09      0.00
  -11   13    7     -1.72      0.00
  -10   13    7      0.23      0.00
   -9   13    7      1.04      0.00
   -8   13    7     -0.86      0.00
   -7   13    7     -0.11      0.00
   -6   13    7      0.80      0.00
   -5   13    7     -0.47      0.00
   -4   13    7     -0.77      0.00
   -3   13    7      0.56      0.00
   -2   13    7      0.16      0.00
   -1   13    7     -0.32      0.00
    0   13    7     -0.72      0.00
  -13   14    7     -0.41      0.00
  -12   14    7     -0.70      0.00
  -11   14    7      0.15      0.00
  -10   14    7     -0.70      0.00
   -9   14    7     -0.54      0.00
   -8   14    7     -1.09      0.00
   -7   14    7     -0.60      0.00
   -6   14    7      0.51      0.00
   -5   14    7      0.76      0.00
   -4   14    7     -0.06      0.00
   -3   14    7     -0.17      0.00
   -2   14    7     -0.08      0.00
   -1   14    7      0.00      0.00
    0   14    7      0.81      0.00
  -14   15    7      0.64      0.00
  -13   15    7      1.01      0.00
  -12   15    7      0.11      0.00
  -11   15    7      0.36      0.00
  -10   15    7     -1.33      0.00
   -9   15    7     -1.51      0.00
   -8   15    7      0.28      0.00
   -7   15    7      1.04      0.00
   -6   15    7      1.18      0.00
   -5   15    7      0.77      0.00
   -4   15    7     -0.07      0.00
   -3   15    7      0.06      0.00
   -2   15    7      0.49      0.00
   -1   15    7      0.43      0.00
    0   15    7      1.55      0.00
  -15   16    7      1.49      0.00
  -14   16    7      1.42      0.00
  -13   16    7      1.27      0.00
  -12   16    7      0.27      0.00
  -11   16    7     -0.79      0.00
  -10   16    7     -0.58      0.00
   -9   16    7     -0.36      0.00
   -8   16    7      1.48      0.00
   -7   16    7      2.09      0.00
   -6   16    7      0.16      0.00
   -5   16    7      0.00      0.00
   -4   16    7     -0.15      0.00
   -3   16    7     -0.82      0.00
   -2   16    7      0.44      0.00
   -1   16    7      0.40      0.00
    0   16    7      0.13      0.00
  -16   17    7      0.78      0.00
  -15   17    7      0.52      0.00
  -14   17    7      0.75      0.00
  -13   17    7      0.85      0.00
  -12   17    7     -0.15      0.00
  -11   17    7     -1.52      0.00
  -10   17    7     -0.33      0.00
   -9   17    7      1.57      0.00
   -8   17    7      0.45      0.00
   -7   17    7      0.86      0.00
   -6   17    7      0.23      0.00
   -5   17    7     -1.14      0.00
   -4   17    7      0.29      0.00
   -3   17    7     -0.07      0.00
   -2   17    7     -0.67      0.00
   -1   17    7     -0.13      0.00
    0   17    7      0.90      0.00
  -17   18    7      0.86      0.00
  -16   18    7      1.14      0.00
  -15   18    7      0.42      0.00
  -14   18    7      0.03      0.00
  -13   18    7     -0.23      0.00
  -12   18    7     -0.25      0.00
  -11   18    7     -0.02      0.00
  -10   18    7     -1.08      0.00
   -9   18    7      0.49      0.00
   -8   18    7      0.55      0.00
   -7   18    7     -1.01      0.00
   -6   18    7      0.74      0.00
   -5   18    7      0.13      0.00
   -4   18    7     -0.39      0.00
   -3   18    7     -0.08      0.00
   -2   18    7     -0.51      0.00
   -1   18    7     -0.93      0.00
    0   18    7      1.09      0.00
  -18   19    7      2.08      0.00
  -17   19    7      1.44      0.00
  -16   19    7     -0.50      0.00
  -15   19    7     -0.22      0.00
  -14   19    7     -0.18      0.00
  -13   19    7      0.05      0.00
  -12   19    7     -0.91      0.00
  -11   19    7      0.04      0.00
  -10   19    7     -0.34      0.00
   -9   19    7     -2.09      0.00
   -8   19    7      0.46      0.00
   -7   19    7      0.74      0.00
   -6   19    7      0.34      0.00
   -5   19    7      0.99      0.00
   -4   19    7     -0.08      0.00
   -3   19    7     -1.01      0.00
   -2   19    7     -0.39      0.00
   -1   19    7      0.32      0.00
    0   19    7      1.15      0.00
  -19   20    7      1.56      0.00
  -18   20    7      0.75      0.00
  -17   20    7      0.81      0.00
  -16   20    7      0.06      0.00
  -15   20    7     -0.25      0.00
  -14   20    7     -0.11      0.00
  -13   20    7      1.05      0.00
  -12   20    7      1.07      0.00
  -11   20    7     -0.89      0.00
  -10   20    7     -0.21      0.00
   -9   20    7     -0.35      0.00
   -8   20    7     -0.06      0.00
   -7   20    7      2.15      0.00
   -6   20    7      0.77      0.00
   -5   20    7     -0.56      0.00
   -4   20    7     -0.12      0.00
   -3   20    7     -1.00      0.00
   -2   20    7     -0.43      0.00
   -1   20    7      0.30      0.00
    0   20    7      1.57      0.00
  -20   21    7      0.50      0.00
  -19   21    7      1.24      0.00
  -18   21    7     -0.01      0.00
  -17   21    7     -0.49      0.00
  -16   21    7     -0.03      0.00
  -15   21    7      0.63      0.00
  -14   21    7      0.64      0.00
  -13   21    7      0.35      0.00
  -12   21    7      1.31      0.00
  -11   21    7      0.25      0.00
  -10   21    7     -1.18      0.00
   -9   21    7      0.84      0.00
   -8   21    7      1.04      0.00
   -7   21    7      0.16      0.00
   -6   21    7      0.79      0.00
   -5   21    7     -1.09      0.00
   -4   21    7     -0.61      0.00
   -3   21    7     -0.39      0.00
   -2   21    7      0.40      0.00
   -1   21    7      0.32      0.00
    0   21    7      0.70      0.00
  -21   22    7      0.90      0.00
  -20   22    7      0.40      0.00
  -19   22    7     -0.57      0.00
  -18   22    7     -0.17      0.00
  -17   22    7      0.28      0.00
  -16   22    7      0.18      0.00
  -15   22    7      0.10      0.00
  -14   22    7      0.83      0.00
  -13   22    7      1.15      0.00
  -12   22    7      0.06      0.00
  -11   22    7      0.87      0.00
  -10   22    7      0.60      0.00
   -9   22    7      0.15      0.00
   -8   22    7      1.47      0.00
   -7   22    7     -0.27      0.00
   -6   22    7     -0.38      0.00
   -5   22    7      0.01      0.00
   -4   22    7     -0.22      0.00
   -3   22    7     -0.26      0.00
   -2   22    7      0.03      0.00
   -1   22    7      0.46      0.00
    0   22    7     -0.16      0.00
  -22   23    7     -0.29      0.00
  -21   23    7     -0.17      0.00
  -20   23    7      0.32      0.00
  -19   23    7      0.11      0.00
  -18   23    7     -0.63      0.00
  -17   23    7     -0.37      0.00
  -16   23    7     -0.16      0.00
  -15   23    7     -0.16      0.00
  -14   23    7     -0.58      0.00
  -13   23    7      0.26      0.00
  -12   23    7      0.64      0.00
  -11   23    7     -0.15      0.00
  -10   23    7      1.33      0.00
   -9   23    7      0.24      0.00
   -8   23    7     -0.18      0.00
   -7   23    7      0.19      0.00
   -6   23    7     -0.03      0.00
   -5   23    7     -0.18      0.00
   -4   23    7     -0.02      0.00
   -3   23    7     -0.47      0.00
   -2   23    7     -0.50      0.00
   -1   23    7     -0.51      0.00
    0   23    7      0.32      0.00
  -23   24    7     -0.53      0.00
  -22   24    7      0.18      0.00
  -21   24    7      0.44      0.00
  -20   24    7      0.13      0.00
  -19   24    7      0.47      0.00
  -18   24    7      0.19      0.00
  -17   24    7     -0.39      0.00
  -16   24    7     -0.96      0.00
  -15   24    7     -0.06      0.00
  -14   24    7      0.50      0.00
  -13   24    7     -0.18      0.00
  -12   24    7      0.56      0.00
  -11   24    7      0.92      0.00
  -10   24    7      0.32      0.00
   -9   24    7      0.51      0.00
   -8   24    7     -0.23      0.00
   -7   24    7     -0.25      0.00
   -6   24    7      0.57      0.00
   -5   24    7     -0.09      0.00
   -4   24    7     -0.70      0.00
   -3   24    7     -1.17      0.00
   -2   24    7     -0.31      0.00
   -1   24    7     -0.40      0.00
  -22   25    7     -0.41      0.00
  -21   25    7      0.72      0.00
  -20   25    7      1.12      0.00
  -19   25    7      0.51      0.00
  -18   25    7     -0.38      0.00
  -17   25    7     -0.31      0.00
  -16   25    7      0.16      0.00
  -15   25    7     -0.15      0.00
  -14   25    7      0.30      0.00
  -13   25    7      0.41      0.00
  -12   25    7     -0.20      0.00
  -11   25    7     -0.12      0.00
  -10   25    7      0.01      0.00
   -9   25    7     -0.89      0.00
   -8   25    7      0.16      0.00
   -7   25    7     -0.08      0.00
   -6   25    7      0.14      0.00
   -5   25    7     -0.36      0.00
   -4   25    7     -0.37      0.00
   -3   25    7     -0.86      0.00
  -20   26    7      0.62      0.00
  -19   26    7      0.99      0.00
  -18   26    7      0.21      0.00
  -17   26    7     -0.22      0.00
  -16   26    7      0.42      0.00
  -15   26    7      1.28      0.00
  -14   26    7      0.28      0.00
  -13   26    7     -0.16      0.00
  -12   26    7     -0.05      0.00
  -11   26    7     -0.86      0.00
  -10   26    7     -0.35      0.00
   -9   26    7      0.01      0.00
   -8   26    7      0.08      0.00
   -7   26    7      0.62      0.00
   -6   26    7      0.53      0.00
  -17   27    7      0.23      0.00
  -16   27    7     -0.01      0.00
  -15   27    7      0.12      0.00
  -14   27    7      0.80      0.00
  -13   27    7     -0.58      0.00
  -12   27    7     -0.90      0.00
  -11   27    7     -0.66      0.00
    0    0    8     -1.84      0.00
    0    1    8     -8.81      0.00
   -1    2    8      4.65      0.00
    0    2    8     -0.95      0.00
   -2    3    8      1.77      0.00
   -1    3    8      0.62      0.00
    0    3    8      9.10      0.00
   -3    4    8      3.71      0.00
   -2    4    8     10.24      0.00
   -1    4    8      0.73      0.00
    0    4    8      1.06      0.00
   -4    5    8      7.52      0.00
   -3    5    8      3.21      0.00
   -2    5    8     -1.20      0.00
   -1    5    8      1.37      0.00
    0    5    8     -1.75      0.00
   -5    6    8      1.02      0.00
   -4    6    8      3.27      0.00
   -3    6    8      4.31      0.00
   -2    6    8     -2.64      0.00
   -1    6    8     -5.68      0.00
    0    6    8      1.82      0.00
   -6    7    8      2.01      0.00
   -5    7    8      5.31      0.00
   -4    7    8      2.52      0.00
   -3    7    8     -2.54      0.00
   -2    7    8     -0.90      0.00
   -1    7    8     -2.15      0.00
    0    7    8     -0.56      0.00
   -7    8    8      2.15      0.00
   -6    8    8      2.17      0.00
   -5    8    8      1.15      0.00
   -4    8    8      2.98      0.00
   -3    8    8      0.09      0.00
   -2    8    8     -2.10      0.00
   -1    8    8      1.19      0.00
    0    8    8      1.26      0.00
   -8    9    8     -0.57      0.00
   -7    9    8     -2.08      0.00
   -6    9    8     -0.16      0.00
   -5    9    8      0.38      0.00
   -4    9    8     -0.47      0.00
   -3    9    8      0.10      0.00
   -2    9    8     -0.64      0.00
   -1    9    8     -1.42      0.00
    0    9    8      0.68      0.00
   -9   10    8     -0.97      0.00
   -8   10    8     -3.43      0.00
   -7   10    8     -4.66      0.00
   -6   10    8     -2.86      0.00
   -5   10    8      0.70      0.00
   -4   10    8      0.91      0.00
   -3   10    8     -2.60      0.00
   -2   10    8     -1.82      0.00
   -1   10    8     -0.35      0.00
    0   10    8      1.09      0.00
  -10   11    8      2.31      0.00
   -9   11    8     -2.03      0.00
   -8   11    8     -4.81      0.00
   -7   11    8     -4.13      0.00
   -6   11    8      0.57      0.00
   -5   11    8      0.80      0.00
   -4   11    8      0.05      0.00
   -3   11    8     -3.66      0.00
   -2   11    8     -3.40      0.00
   -1   11    8      0.32      0.00
    0   11    8      1.68      0.00
  -11   12    8      2.10      0.00
  -10   12    8      0.92      0.00
   -9   12    8     -1.24      0.00
   -8   12    8     -1.87      0.00
   -7   12    8     -0.29      0.00
   -6   12    8      3.07      0.00
   -5   12    8      2.66      0.00
   -4   12    8     -1.41      0.00
   -3   12    8     -2.26      0.00
   -2   12    8     -2.31      0.00
   -1   12    8      1.12      0.00
    0   12    8      2.21      0.00
  -12   13    8      0.35      0.00
  -11   13    8      1.52      0.00
  -10   13    8      2.06      0.00
   -9   13    8      0.04      0.00
   -8   13    8      0.98      0.00
   -7   13    8      1.92      0.00
   -6   13    8      2.93      0.00
   -5   13    8      1.56      0.00
   -4   13    8     -0.81      0.00
   -3   13    8     -1.53      0.00
   -2   13    8      0.35      0.00
   -1   13    8     -0.59      0.00
    0   13    8      0.43      0.00
  -13   14    8     -0.40      0.00
  -12   14    8     -0.68      0.00
  -11   14    8     -0.23      0.00
  -10   14    8      1.06      0.00
   -9   14    8      0.65      0.00
   -8   14    8      0.07      0.00
   -7   14    8      0.79      0.00
   -6   14    8      0.73      0.00
   -5   14    8      1.46      0.00
   -4   14    8      1.60      0.00
   -3   14    8      0.50      0.00
   -2   14    8      0.64      0.00
   -1   14    8      1.76      0.00
    0   14    8     -0.36      0.00
  -14   15    8      0.73      0.00
  -13   15    8     -2.12      0.00
  -12   15    8     -0.49      0.00
  -11   15    8     -0.39      0.00
  -10   15    8      0.02      0.00
   -9   15    8     -1.30      0.00
   -8   15    8     -1.43      0.00
   -7   15    8     -1.35      0.00
   -6   15    8      0.65      0.00
   -5   15    8      1.00      0.00
   -4   15    8      2.18      0.00
   -3   15    8      1.29      0.00
   -2   15    8     -0.16      0.00
   -1   15    8      1.25      0.00
    0   15    8      1.64      0.00
  -15   16    8      0.10      0.00
  -14   16    8     -0.11      0.00
  -13   16    8     -0.60      0.00
  -12   16    8     -0.65      0.00
  -11   16    8     -0.56      0.00
  -10   16    8     -1.36      0.00
   -9   16    8     -1.70      0.00
   -8   16    8     -2.05      0.00
   -7   16    8     -0.93      0.00
   -6   16    8      0.77      0.00
   -5   16    8      1.72      0.00
   -4   16    8     -0.20      0.00
   -3   16    8      0.44      0.00
   -2   16    8      0.51      0.00
   -1   16    8      1.24      0.00
    0   16    8      1.53      0.00
  -16   17    8      1.01      0.00
  -15   17    8      0.83      0.00
  -14   17    8      0.86      0.00
  -13   17    8      0.57      0.00
  -12   17    8      0.97      0.00
  -11   17    8     -0.29      0.00
  -10   17    8     -0.89      0.00
   -9   17    8     -1.36      0.00
   -8   17    8      0.16      0.00
   -7   17    8      0.07      0.00
   -6   17    8      0.25      0.00
   -5   17    8     -0.55      0.00
   -4   17    8     -1.62      0.00
   -3   17    8     -1.46      0.00
   -2   17    8      0.57      0.00
   -1   17    8      0.36      0.00
    0   17    8     -0.31      0.00
  -17   18    8      0.19      0.00
  -16   18    8      0.43      0.00
  -15   18    8      0.40      0.00
  -14   18    8      0.98      0.00
  -13   18    8      0.89      0.00
  -12   18    8      0.01      0.00
  -11   18    8     -0.27      0.00
  -10   18    8      0.06      0.00
   -9   18    8      0.03      0.00
   -8   18    8      0.76      0.00
   -7   18    8      1.64      0.00
   -6   18    8     -0.71      0.00
   -5   18    8     -1.43      0.00
   -4   18    8     -1.34      0.00
   -3   18    8     -0.11      0.00
   -2   18    8      0.21      0.00
   -1   18    8      0.32      0.00
    0   18    8     -1.43      0.00
  -18   19    8     -0.66      0.00
  -17   19    8     -0.22      0.00
  -16   19    8      1.14      0.00
  -15   19    8     -0.05      0.00
  -14   19    8     -0.44      0.00
  -13   19    8     -0.40      0.00
  -12   19    8      0.82      0.00
  -11   19    8     -0.24      0.00
  -10   19    8      0.45      0.00
   -9   19    8      1.25      0.00
   -8   19    8      1.11      0.00
   -7   19    8      1.24      0.00
   -6   19    8      0.24      0.00
   -5   19    8     -1.46      0.00
   -4   19    8     -0.14      0.00
   -3   19    8      0.74      0.00
   -2   19    8     -0.48      0.00
   -1   19    8     -1.32      0.00
    0   19    8     -1.44      0.00
  -19   20    8     -1.51      0.00
  -18   20    8      0.13      0.00
  -17   20    8      0.10      0.00
  -16   20    8     -0.63      0.00
  -15   20    8     -1.15      0.00
  -14   20    8     -1.21      0.00
  -13   20    8     -1.08      0.00
  -12   20    8      0.41      0.00
  -11   20    8      1.24      0.00
  -10   20    8     -0.48      0.00
   -9   20    8      0.62      0.00
   -8   20    8      1.51      0.00
   -7   20    8      0.77      0.00
   -6   20    8      0.60      0.00
   -5   20    8      0.48      0.00
   -4   20    8     -0.34      0.00
   -3   20    8      0.71      0.00
   -2   20    8     -0.18      0.00
   -1   20    8     -1.12      0.00
    0   20    8     -1.28      0.00
  -20   21    8      0.01      0.00
  -19   21    8     -0.66      0.00
  -18   21    8      0.02      0.00
  -17   21    8      0.54      0.00
  -16   21    8     -0.06      0.00
  -15   21    8     -1.79      0.00
  -14   21    8     -0.66      0.00
  -13   21    8      0.90      0.00
  -12   21    8      0.75      0.00
  -11   21    8      0.20      0.00
  -10   21    8     -0.13      0.00
   -9   21    8     -0.97      0.00
   -8   21    8      0.86      0.00
   -7   21    8      1.09      0.00
   -6   21    8     -0.37      0.00
   -5   21    8      0.16      0.00
   -4   21    8     -0.33      0.00
   -3   21    8     -0.57      0.00
   -2   21    8     -0.20      0.00
   -1   21    8     -0.20      0.00
    0   21    8     -0.28      0.00
  -21   22    8      0.24      0.00
  -20   22    8      0.48      0.00
  -19   22    8      0.44      0.00
  -18   22    8      0.23      0.00
  -17   22    8      0.02      0.00
  -16   22    8      0.43      0.00
  -15   22    8     -0.16      0.00
  -14   22    8     -0.45      0.00
  -13   22    8      0.66      0.00
  -12   22    8      0.74      0.00
  -11   22    8     -1.24      0.00
  -10   22    8     -1.28      0.00
   -9   22    8     -0.36      0.00
   -8   22    8     -0.53      0.00
   -7   22    8      1.00      0.00
   -6   22    8      0.01      0.00
   -5   22    8     -1.03      0.00
   -4   22    8     -0.49      0.00
   -3   22    8      0.07      0.00
   -2   22    8      0.41      0.00
   -1   22    8      0.31      0.00
    0   22    8      0.52      0.00
  -22   23    8      1.00      0.00
  -21   23    8      1.19      0.00
  -20   23    8      0.35      0.00
  -19   23    8     -0.14      0.00
  -18   23    8      0.88      0.00
  -17   23    8      0.56      0.00
  -16   23    8      0.18      0.00
  -15   23    8      0.20      0.00
  -14   23    8      0.27      0.00
  -13   23    8     -0.54      0.00
  -12   23    8     -0.49      0.00
  -11   23    8     -0.58      0.00
  -10   23    8     -1.35      0.00
   -9   23    8     -0.02      0.00
   -8   23    8      0.27      0.00
   -7   23    8     -0.14      0.00
   -6   23    8     -0.07      0.00
   -5   23    8     -0.94      0.00
   -4   23    8     -1.12      0.00
   -3   23    8     -0.01      0.00
   -2   23    8      0.08      0.00
   -1   23    8      0.23      0.00
    0   23    8     -0.34      0.00
  -22   24    8      0.55      0.00
  -21   24    8      0.55      0.00
  -20   24    8      0.36      0.00
  -19   24    8     -0.70      0.00
  -18   24    8     -0.13      0.00
  -17   24    8      0.48      0.00
  -16   24    8     -0.01      0.00
  -15   24    8     -0.78      0.00
  -14   24    8     -0.59      0.00
  -13   24    8     -0.55      0.00
  -12   24    8     -0.85      0.00
  -11   24    8     -0.07      0.00
  -10   24    8     -0.07      0.00
   -9   24    8     -0.47      0.00
   -8   24    8      0.32      0.00
   -7   24    8      0.06      0.00
   -6   24    8     -0.96      0.00
   -5   24    8     -0.83      0.00
   -4   24    8     -0.78      0.00
   -3   24    8     -0.19      0.00
   -2   24    8     -0.29      0.00
  -20   25    8     -0.63      0.00
  -19   25    8     -0.15      0.00
  -18   25    8     -0.54      0.00
  -17   25    8     -0.52      0.00
  -16   25    8     -0.05      0.00
  -15   25    8     -0.35      0.00
  -14   25    8     -0.61      0.00
  -13   25    8      0.04      0.00
  -12   25    8      0.25      0.00
  -11   25    8      0.03      0.00
  -10   25    8     -0.10      0.00
   -9   25    8     -0.16      0.00
   -8   25    8     -0.73      0.00
   -7   25    8     -0.20      0.00
   -6   25    8     -0.85      0.00
   -5   25    8     -0.81      0.00
  -17   26    8     -0.63      0.00
  -16   26    8     -0.15      0.00
  -15   26    8      0.34      0.00
  -14   26    8      0.23      0.00
  -13   26    8      0.15      0.00
  -12   26    8      0.20      0.00
  -11   26    8     -0.20      0.00
  -10   26    8     -0.85      0.00
   -9   26    8     -0.49      0.00
    0    0    9     -1.62      0.00
    0    1    9      2.25      0.00
   -1    2    9     -5.82      0.00
    0    2    9     -1.14      0.00
   -2    3    9     -1.46      0.00
   -1    3    9     -1.68      0.00
    0    3    9     -4.78      0.00
   -3    4    9      1.11      0.00
   -2    4    9     -3.56      0.00
   -1    4    9      0.21      0.00
    0    4    9      1.71      0.00
   -4    5    9      0.16      0.00
   -3    5    9      2.03      0.00
   -2    5    9      1.42      0.00
   -1    5    9      0.10      0.00
    0    5    9      2.71      0.00
   -5    6    9      1.04      0.00
   -4    6    9      1.28      0.00
   -3    6    9     -0.33      0.00
   -2    6    9      2.38      0.00
   -1    6    9      2.08      0.00
    0    6    9     -0.19      0.00
   -6    7    9     -0.92      0.00
   -5    7    9     -1.79      0.00
   -4    7    9     -0.59      0.00
   -3    7    9      1.00      0.00
   -2    7    9      0.94      0.00
   -1    7    9      1.70      0.00
    0    7    9     -0.67      0.00
   -7    8    9     -1.52      0.00
   -6    8    9     -0.76      0.00
   -5    8    9     -1.02      0.00
   -4    8    9     -1.34      0.00
   -3    8    9      0.96      0.00
   -2    8    9      1.79      0.00
   -1    8    9     -0.43      0.00
    0    8    9     -0.40      0.00
   -8    9    9     -0.64      0.00
   -7    9    9      0.87      0.00
   -6    9    9     -0.77      0.00
   -5    9    9     -0.32      0.00
   -4    9    9     -0.28      0.00
   -3    9    9      0.86      0.00
   -2    9    9      1.45      0.00
   -1    9    9      0.68      0.00
    0    9    9     -1.21      0.00
   -9   10    9     -0.01      0.00
   -8   10    9     -0.06      0.00
   -7   10    9      1.25      0.00
   -6   10    9      0.73      0.00
   -5   10    9     -1.02      0.00
   -4   10    9      0.48      0.00
   -3   10    9      1.08      0.00
   -2   10    9      0.93      0.00
   -1   10    9      0.41      0.00
    0   10    9     -0.15      0.00
  -10   11    9     -2.22      0.00
   -9   11    9     -0.20      0.00
   -8   11    9      0.03      0.00
   -7   11    9     -0.59      0.00
   -6   11    9     -0.69      0.00
   -5   11    9      0.29      0.00
   -4   11    9     -0.38      0.00
   -3   11    9      1.37      0.00
   -2   11    9      1.20      0.00
   -1   11    9      0.11      0.00
    0   11    9     -0.36      0.00
  -11   12    9     -0.47      0.00
  -10   12    9     -0.26      0.00
   -9   12    9     -1.43      0.00
   -8   12    9     -0.68      0.00
   -7   12    9     -0.93      0.00
   -6   12    9     -1.07      0.00
   -5   12    9     -0.10      0.00
   -4   12    9      0.45      0.00
   -3   12    9     -0.79      0.00
   -2   12    9      0.44      0.00
   -1   12    9     -0.49      0.00
    0   12    9     -0.94      0.00
  -12   13    9     -0.43      0.00
  -11   13    9     -0.26      0.00
  -10   13    9     -0.11      0.00
   -9   13    9     -0.30      0.00
   -8   13    9     -2.44      0.00
   -7   13    9     -0.18      0.00
   -6   13    9     -0.17      0.00
   -5   13    9     -0.47      0.00
   -4   13    9     -1.05      0.00
   -3   13    9     -0.72      0.00
   -2   13    9     -1.51      0.00
   -1   13    9     -0.47      0.00
    0   13    9     -0.65      0.00
  -13   14    9      0.11      0.00
  -12   14    9      1.21      0.00
  -11   14    9      1.70      0.00
  -10   14    9      0.12      0.00
   -9   14    9      0.06      0.00
   -8   14    9      0.19      0.00
   -7   14    9     -0.06      0.00
   -6   14    9      0.71      0.00
   -5   14    9     -1.16      0.00
   -4   14    9     -1.65      0.00
   -3   14    9     -1.76      0.00
   -2   14    9     -1.39      0.00
   -1   14    9     -1.79      0.00
    0   14    9     -0.80      0.00
  -14   15    9     -1.65      0.00
  -13   15    9      0.80      0.00
  -12   15    9      0.89      0.00
  -11   15    9      1.58      0.00
  -10   15    9     -0.09      0.00
   -9   15    9      0.27      0.00
   -8   15    9      1.37      0.00
   -7   15    9      1.30      0.00
   -6   15    9     -0.43      0.00
   -5   15    9     -0.17      0.00
   -4   15    9     -1.12      0.00
   -3   15    9     -0.35      0.00
   -2   15    9     -1.07      0.00
   -1   15    9     -1.68      0.00
    0   15    9     -1.25      0.00
  -15   16    9     -1.19      0.00
  -14   16    9     -0.34      0.00
  -13   16    9      0.64      0.00
  -12   16    9      1.01      0.00
  -11   16    9     -0.10      0.00
  -10   16    9      0.34      0.00
   -9   16    9      0.41      0.00
   -8   16    9      1.42      0.00
   -7   16    9      0.96      0.00
   -6   16    9     -0.33      0.00
   -5   16    9      0.14      0.00
   -4   16    9      0.89      0.00
   -3   16    9     -0.81      0.00
   -2   16    9     -0.48      0.00
   -1   16    9     -1.70      0.00
    0   16    9     -1.88      0.00
  -16   17    9     -0.49      0.00
  -15   17    9     -1.58      0.00
  -14   17    9     -0.59      0.00
  -13   17    9      0.78      0.00
  -12   17    9     -0.48      0.00
  -11   17    9     -1.27      0.00
  -10   17    9     -1.16      0.00
   -9   17    9      1.02      0.00
   -8   17    9     -0.45      0.00
   -7   17    9      0.66      0.00
   -6   17    9      0.47      0.00
   -5   17    9      0.62      0.00
   -4   17    9      1.33      0.00
   -3   17    9      0.50      0.00
   -2   17    9     -1.29      0.00
   -1   17    9      0.13      0.00
    0   17    9      0.22      0.00
  -17   18    9      0.16      0.00
  -16   18    9      0.01      0.00
  -15   18    9      0.11      0.00
  -14   18    9     -0.28      0.00
  -13   18    9     -0.05      0.00
  -12   18    9     -0.76      0.00
  -11   18    9     -1.20      0.00
  -10   18    9     -1.56      0.00
   -9   18    9     -0.12      0.00
   -8   18    9      0.52      0.00
   -7   18    9     -0.85      0.00
   -6   18    9      1.20      0.00
   -5   18    9      0.46      0.00
   -4   18    9     -0.29      0.00
   -3   18    9      0.26      0.00
   -2   18    9     -0.18      0.00
   -1   18    9     -1.01      0.00
    0   18    9      0.90      0.00
  -18   19    9      0.86      0.00
  -17   19    9      1.13      0.00
  -16   19    9     -1.21      0.00
  -15   19    9     -0.08      0.00
  -14   19    9      0.04      0.00
  -13   19    9     -0.12      0.00
  -12   19    9     -1.58      0.00
  -11   19    9     -0.42      0.00
  -10   19    9     -0.13      0.00
   -9   19    9     -0.48      0.00
   -8   19    9      0.90      0.00
   -7   19    9      0.84      0.00
   -6   19    9     -0.81      0.00
   -5   19    9      0.76      0.00
   -4   19    9     -0.15      0.00
   -3   19    9     -0.41      0.00
   -2   19    9      0.06      0.00
   -1   19    9     -0.29      0.00
    0   19    9     -0.92      0.00
  -19   20    9      0.24      0.00
  -18   20    9     -0.62      0.00
  -17   20    9      0.22      0.00
  -16   20    9     -0.22      0.00
  -15   20    9     -0.57      0.00
  -14   20    9     -0.09      0.00
  -13   20    9      0.23      0.00
  -12   20    9      0.37      0.00
  -11   20    9     -0.36      0.00
  -10   20    9      1.29      0.00
   -9   20    9      1.08      0.00
   -8   20    9     -0.05      0.00
   -7   20    9      0.69      0.00
   -6   20    9     -0.54      0.00
   -5   20    9     -1.04      0.00
   -4   20    9      0.64      0.00
   -3   20    9     -0.42      0.00
   -2   20    9     -1.68      0.00
   -1   20    9     -1.66      0.00
    0   20    9     -0.89      0.00
  -20   21    9     -0.78      0.00
  -19   21    9      0.36      0.00
  -18   21    9     -0.44      0.00
  -17   21    9     -1.17      0.00
  -16   21    9     -0.19      0.00
  -15   21    9      0.47      0.00
  -14   21    9      0.04      0.00
  -13   21    9      0.17      0.00
  -12   21    9      0.73      0.00
  -11   21    9      1.32      0.00
  -10   21    9      0.17      0.00
   -9   21    9      1.66      0.00
   -8   21    9     -0.02      0.00
   -7   21    9     -0.89      0.00
   -6   21    9      0.46      0.00
   -5   21    9      0.54      0.00
   -4   21    9      0.32      0.00
   -3   21    9     -0.09      0.00
   -2   21    9     -1.27      0.00
   -1   21    9     -1.59      0.00
    0   21    9     -0.52      0.00
  -21   22    9      1.04      0.00
  -20   22    9      0.02      0.00
  -19   22    9     -0.86      0.00
  -18   22    9     -0.17      0.00
  -17   22    9      0.22      0.00
  -16   22    9      0.20      0.00
  -15   22    9      0.82      0.00
  -14   22    9      0.48      0.00
  -13   22    9      0.30      0.00
  -12   22    9     -0.22      0.00
  -11   22    9      0.80      0.00
  -10   22    9      0.53      0.00
   -9   22    9     -0.67      0.00
   -8   22    9      0.16      0.00
   -7   22    9     -0.70      0.00
   -6   22    9      0.30      0.00
   -5   22    9      1.37      0.00
   -4   22    9      0.35      0.00
   -3   22    9     -0.72      0.00
   -2   22    9     -1.14      0.00
   -1   22    9     -0.04      0.00
    0   22    9     -0.04      0.00
  -21   23    9      0.04      0.00
  -20   23    9      0.35      0.00
  -19   23    9     -0.20      0.00
  -18   23    9     -0.45      0.00
  -17   23    9      1.28      0.00
  -16   23    9      1.13      0.00
  -15   23    9      0.90      0.00
  -14   23    9     -0.07      0.00
  -13   23    9     -0.27      0.00
  -12   23    9     -0.30      0.00
  -11   23    9     -0.12      0.00
  -10   23    9      0.70      0.00
   -9   23    9     -0.43      0.00
   -8   23    9     -0.82      0.00
   -7   23    9      0.69      0.00
   -6   23    9      0.57      0.00
   -5   23    9      0.69      0.00
   -4   23    9     -0.10      0.00
   -3   23    9     -0.19      0.00
   -2   23    9     -0.15      0.00
  -20   24    9     -1.04      0.00
  -19   24    9      0.47      0.00
  -18   24    9      0.52      0.00
  -17   24    9      0.88      0.00
  -16   24    9      1.25      0.00
  -15   24    9      0.51      0.00
  -14   24    9     -0.11      0.00
  -13   24    9     -0.65      0.00
  -12   24    9      0.23      0.00
  -11   24    9      0.63      0.00
  -10   24    9      0.40      0.00
   -9   24    9      0.31      0.00
   -8   24    9     -0.70      0.00
   -7   24    9     -0.14      0.00
   -6   24    9      0.08      0.00
   -5   24    9     -0.37      0.00
   -4   24    9     -0.67      0.00
  -18   25    9      0.80      0.00
  -17   25    9      0.52      0.00
  -16   25    9      0.48      0.00
  -15   25    9      0.32      0.00
  -14   25    9     -0.30      0.00
  -13   25    9      0.18      0.00
  -12   25    9      0.87      0.00
  -11   25    9      1.57      0.00
  -10   25    9      0.57      0.00
   -9   25    9     -0.02      0.00
   -8   25    9     -0.10      0.00
   -7   25    9     -0.42      0.00
    0    0   10      5.07      0.00
    0    1   10      0.56      0.00
   -1    2   10      3.30      0.00
    0    2   10     -1.43      0.00
   -2    3   10     -1.46      0.00
   -1    3   10     -1.58      0.00
    0    3   10      2.00      0.00
   -3    4   10     -1.53      0.00
   -2    4   10      1.11      0.00
   -1    4   10     -1.28      0.00
    0    4   10     -0.89      0.00
   -4    5   10      2.32      0.00
   -3    5   10     -1.11      0.00
   -2    5   10     -0.82      0.00
   -1    5   10      3.07      0.00
    0    5   10      0.88      0.00
   -5    6   10      0.93      0.00
   -4    6   10     -1.35      0.00
   -3    6   10      1.89      0.00
   -2    6   10      0.46      0.00
   -1    6   10      2.34      0.00
    0    6   10      3.84      0.00
   -6    7   10      0.88      0.00
   -5    7   10      2.30      0.00
   -4    7   10      0.10      0.00
   -3    7   10      0.21      0.00
   -2    7   10      4.02      0.00
   -1    7   10      2.14      0.00
    0    7   10      1.86      0.00
   -7    8   10      1.39      0.00
   -6    8   10      0.37      0.00
   -5    8   10     -0.32      0.00
   -4    8   10      1.35      0.00
   -3    8   10      0.55      0.00
   -2    8   10      0.84      0.00
   -1    8   10      2.68      0.00
    0    8   10     -1.15      0.00
   -8    9   10     -1.81      0.00
   -7    9   10     -1.96      0.00
   -6    9   10      1.42      0.00
   -5    9   10      0.26      0.00
   -4    9   10     -0.64      0.00
   -3    9   10      0.84      0.00
   -2    9   10      0.00      0.00
   -1    9   10      0.11      0.00
    0    9   10      0.03      0.00
   -9   10   10     -3.49      0.00
   -8   10   10     -2.64      0.00
   -7   10   10     -1.68      0.00
   -6   10   10     -1.14      0.00
   -5   10   10      0.96      0.00
   -4   10   10     -1.25      0.00
   -3   10   10     -0.86      0.00
   -2   10   10      1.07      0.00
   -1   10   10      0.31      0.00
    0   10   10     -0.42      0.00
  -10   11   10     -0.29      0.00
   -9   11   10     -2.71      0.00
   -8   11   10     -3.28      0.00
   -7   11   10     -0.27      0.00
   -6   11   10      0.27      0.00
   -5   11   10     -0.66      0.00
   -4   11   10      0.43      0.00
   -3   11   10     -0.47      0.00
   -2   11   10      1.52      0.00
   -1   11   10      1.93      0.00
    0   11   10      0.16      0.00
  -11   12   10      0.56      0.00
  -10   12   10     -1.24      0.00
   -9   12   10     -0.90      0.00
   -8   12   10     -1.49      0.00
   -7   12   10     -0.67      0.00
   -6   12   10      0.80      0.00
   -5   12   10     -0.55      0.00
   -4   12   10     -0.85      0.00
   -3   12   10      1.10      0.00
   -2   12   10      0.21      0.00
   -1   12   10      0.91      0.00
    0   12   10      0.61      0.00
  -12   13   10      0.74      0.00
  -11   13   10      1.68      0.00
  -10   13   10      0.62      0.00
   -9   13   10     -0.48      0.00
   -8   13   10      0.90      0.00
   -7   13   10     -0.07      0.00
   -6   13   10     -0.29      0.00
   -5   13   10     -0.35      0.00
   -4   13   10     -0.84      0.00
   -3   13   10     -0.17      0.00
   -2   13   10      0.09      0.00
   -1   13   10     -1.50      0.00
    0   13   10      0.49      0.00
  -13   14   10      1.00      0.00
  -12   14   10      1.33      0.00
  -11   14   10      0.50      0.00
  -10   14   10      0.62      0.00
   -9   14   10     -0.01      0.00
   -8   14   10      0.11      0.00
   -7   14   10      0.69      0.00
   -6   14   10     -1.28      0.00
   -5   14   10     -0.79      0.00
   -4   14   10     -0.10      0.00
   -3   14   10     -0.96      0.00
   -2   14   10     -1.03      0.00
   -1   14   10     -1.15      0.00
    0   14   10     -0.44      0.00
  -14   15   10      1.37      0.00
  -13   15   10      0.97      0.00
  -12   15   10      0.74      0.00
  -11   15   10     -0.50      0.00
  -10   15   10     -0.30      0.00
   -9   15   10      0.78      0.00
   -8   15   10      0.66      0.00
   -7   15   10      0.12      0.00
   -6   15   10      0.44      0.00
   -5   15   10     -0.50      0.00
   -4   15   10      0.86      0.00
   -3   15   10     -0.65      0.00
   -2   15   10     -1.60      0.00
   -1   15   10     -0.64      0.00
    0   15   10     -0.19      0.00
  -15   16   10      0.15      0.00
  -14   16   10      0.61      0.00
  -13   16   10      0.63      0.00
  -12   16   10     -0.24      0.00
  -11   16   10     -0.76      0.00
  -10   16   10     -0.98      0.00
   -9   16   10      0.60      0.00
   -8   16   10      1.46      0.00
   -7   16   10      0.49      0.00
   -6   16   10      0.68      0.00
   -5   16   10      0.89      0.00
   -4   16   10     -0.06      0.00
   -3   16   10     -0.02      0.00
   -2   16   10     -1.55      0.00
   -1   16   10     -0.93      0.00
    0   16   10      0.60      0.00
  -16   17   10     -0.32      0.00
  -15   17   10      0.83      0.00
  -14   17   10      1.16      0.00
  -13   17   10      1.04      0.00
  -12   17   10      0.15      0.00
  -11   17   10     -0.71      0.00
  -10   17   10     -0.26      0.00
   -9   17   10     -0.13      0.00
   -8   17   10      1.33      0.00
   -7   17   10      1.01      0.00
   -6   17   10      0.57      0.00
   -5   17   10      0.31      0.00
   -4   17   10     -0.39      0.00
   -3   17   10     -0.93      0.00
   -2   17   10      0.30      0.00
   -1   17   10     -0.98      0.00
    0   17   10      0.41      0.00
  -17   18   10      0.88      0.00
  -16   18   10      0.08      0.00
  -15   18   10     -0.03      0.00
  -14   18   10      1.74      0.00
  -13   18   10      2.11      0.00
  -12   18   10      0.42      0.00
  -11   18   10     -1.41      0.00
  -10   18   10     -1.18      0.00
   -9   18   10     -0.10      0.00
   -8   18   10      0.44      0.00
   -7   18   10      0.90      0.00
   -6   18   10     -0.19      0.00
   -5   18   10     -0.50      0.00
   -4   18   10      0.32      0.00
   -3   18   10     -0.34      0.00
   -2   18   10      0.60      0.00
   -1   18   10      1.47      0.00
    0   18   10      0.23      0.00
  -18   19   10      0.55      0.00
  -17   19   10     -0.92      0.00
  -16   19   10     -0.01      0.00
  -15   19   10      1.08      0.00
  -14   19   10      1.71      0.00
  -13   19   10      1.44      0.00
  -12   19   10      0.38      0.00
  -11   19   10     -1.70      0.00
  -10   19   10     -1.66      0.00
   -9   19   10     -0.39      0.00
   -8   19   10      0.72      0.00
   -7   19   10      0.16      0.00
   -6   19   10      0.10      0.00
   -5   19   10     -0.99      0.00
   -4   19   10      0.80      0.00
   -3   19   10      1.41      0.00
   -2   19   10      0.36      0.00
   -1   19   10      1.02      0.00
    0   19   10      1.71      0.00
  -19   20   10     -0.51      0.00
  -18   20   10      0.10      0.00
  -17   20   10     -0.65      0.00
  -16   20   10     -0.68      0.00
  -15   20   10      0.93      0.00
  -14   20   10      1.87      0.00
  -13   20   10      0.57      0.00
  -12   20   10     -0.62      0.00
  -11   20   10     -0.96      0.00
  -10   20   10     -1.01      0.00
   -9   20   10     -0.05      0.00
   -8   20   10      0.59      0.00
   -7   20   10     -0.18      0.00
   -6   20   10      0.04      0.00
   -5   20   10      0.53      0.00
   -4   20   10     -0.01      0.00
   -3   20   10      0.81      0.00
   -2   20   10      1.38      0.00
   -1   20   10      0.26      0.00
    0   20   10      0.93      0.00
  -20   21   10      0.56      0.00
  -19   21   10     -0.38      0.00
  -18   21   10     -1.23      0.00
  -17   21   10      0.04      0.00
  -16   21   10      0.83      0.00
  -15   21   10      0.21      0.00
  -14   21   10      0.61      0.00
  -13   21   10      0.72      0.00
  -12   21   10     -0.11      0.00
  -11   21   10     -0.74      0.00
  -10   21   10     -0.17      0.00
   -9   21   10     -0.39      0.00
   -8   21   10      0.28      0.00
   -7   21   10     -0.20      0.00
   -6   21   10     -0.47      0.00
   -5   21   10     -0.01      0.00
   -4   21   10      0.18      0.00
   -3   21   10     -1.05      0.00
   -2   21   10      0.56      0.00
   -1   21   10      1.23      0.00
    0   21   10      0.16      0.00
  -21   22   10     -0.28      0.00
  -20   22   10     -0.47      0.00
  -19   22   10      0.20      0.00
  -18   22   10      0.58      0.00
  -17   22   10      0.13      0.00
  -16   22   10      0.68      0.00
  -15   22   10      0.77      0.00
  -14   22   10      0.02      0.00
  -13   22   10      0.34      0.00
  -12   22   10      0.54      0.00
  -11   22   10     -0.19      0.00
  -10   22   10     -0.25      0.00
   -9   22   10     -0.15      0.00
   -8   22   10     -0.33      0.00
   -7   22   10      0.12      0.00
   -6   22   10     -0.04      0.00
   -5   22   10     -1.22      0.00
   -4   22   10     -0.68      0.00
   -3   22   10     -0.23      0.00
   -2   22   10      0.24      0.00
   -1   22   10      0.65      0.00
  -19   23   10      0.27      0.00
  -18   23   10      0.99      0.00
  -17   23   10      0.81      0.00
  -16   23   10     -0.35      0.00
  -15   23   10     -0.16      0.00
  -14   23   10      0.70      0.00
  -13   23   10      0.10      0.00
  -12   23   10      0.12      0.00
  -11   23   10      0.00      0.00
  -10   23   10      0.15      0.00
   -9   23   10      0.03      0.00
   -8   23   10      0.05      0.00
   -7   23   10     -0.66      0.00
   -6   23   10     -0.32      0.00
   -5   23   10     -1.20      0.00
   -4   23   10     -1.34      0.00
  -17   24   10     -0.23      0.00
  -16   24   10      0.13      0.00
  -15   24   10     -0.02      0.00
  -14   24   10      0.32      0.00
  -13   24   10      0.48      0.00
  -12   24   10      0.31      0.00
  -11   24   10      0.67      0.00
  -10   24   10      0.84      0.00
   -9   24   10      0.33      0.00
   -8   24   10      0.03      0.00
   -7   24   10     -0.60      0.00
    0    0   11     -3.38      0.00
    0    1   11     -1.30      0.00
   -1    2   11     -4.05      0.00
    0    2   11     -0.76      0.00
   -2    3   11     -0.38      0.00
   -1    3   11     -0.91      0.00
    0    3   11     -2.55      0.00
   -3    4   11      1.21      0.00
   -2    4   11     -1.91      0.00
   -1    4   11     -0.61      0.00
    0    4   11      1.14      0.00
   -4    5   11     -0.21      0.00
   -3    5   11      1.04      0.00
   -2    5   11     -0.88      0.00
   -1    5   11     -3.27      0.00
    0    5   11     -0.16      0.00
   -5    6   11      1.05      0.00
   -4    6   11      1.36      0.00
   -3    6   11     -2.03      0.00
   -2    6   11     -1.28      0.00
   -1    6   11     -1.15      0.00
    0    6   11     -1.65      0.00
   -6    7   11      0.34      0.00
   -5    7   11     -0.86      0.00
   -4    7   11      0.35      0.00
   -3    7   11     -0.54      0.00
   -2    7   11     -1.86      0.00
   -1    7   11     -0.04      0.00
    0    7   11      0.28      0.00
   -7    8   11     -0.47      0.00
   -6    8   11      1.03      0.00
   -5    8   11      0.44      0.00
   -4    8   11     -0.30      0.00
   -3    8   11      1.59      0.00
   -2    8   11      2.34      0.00
   -1    8   11      0.81      0.00
    0    8   11      1.38      0.00
   -8    9   11      0.93      0.00
   -7    9   11     -0.03      0.00
   -6    9   11     -0.62      0.00
   -5    9   11      0.53      0.00
   -4    9   11      1.41      0.00
   -3    9   11      1.42      0.00
   -2    9   11      2.66      0.00
   -1    9   11      2.18      0.00
    0    9   11      0.23      0.00
   -9   10   11      0.57      0.00
   -8   10   11     -0.83      0.00
   -7   10   11     -0.28      0.00
   -6   10   11     -0.15      0.00
   -5   10   11     -0.19      0.00
   -4   10   11      1.79      0.00
   -3   10   11      1.99      0.00
   -2   10   11      0.98      0.00
   -1   10   11      2.03      0.00
    0   10   11      1.57      0.00
  -10   11   11      0.16      0.00
   -9   11   11     -0.50      0.00
   -8   11   11     -0.94      0.00
   -7   11   11     -2.07      0.00
   -6   11   11     -0.10      0.00
   -5   11   11      0.39      0.00
   -4   11   11     -0.46      0.00
   -3   11   11      0.36      0.00
   -2   11   11      0.61      0.00
   -1   11   11      0.67      0.00
    0   11   11      1.21      0.00
  -11   12   11      0.28      0.00
  -10   12   11      0.23      0.00
   -9   12   11     -1.37      0.00
   -8   12   11     -0.94      0.00
   -7   12   11     -0.15      0.00
   -6   12   11      0.23      0.00
   -5   12   11      1.24      0.00
   -4   12   11      0.20      0.00
   -3   12   11     -0.61      0.00
   -2   12   11      1.34      0.00
   -1   12   11      1.77      0.00
    0   12   11      0.12      0.00
  -12   13   11     -0.36      0.00
  -11   13   11     -1.35      0.00
  -10   13   11     -0.32      0.00
   -9   13   11     -0.74      0.00
   -8   13   11     -0.82      0.00
   -7   13   11      0.97      0.00
   -6   13   11      1.87      0.00
   -5   13   11      0.31      0.00
   -4   13   11      0.39      0.00
   -3   13   11      0.69      0.00
   -2   13   11      0.52      0.00
   -1   13   11      1.21      0.00
    0   13   11     -0.94      0.00
  -13   14   11     -1.75      0.00
  -12   14   11     -1.65      0.00
  -11   14   11     -0.52      0.00
  -10   14   11     -0.96      0.00
   -9   14   11     -0.36      0.00
   -8   14   11      0.87      0.00
   -7   14   11      1.36      0.00
   -6   14   11      2.06      0.00
   -5   14   11      1.46      0.00
   -4   14   11      0.57      0.00
   -3   14   11      1.86      0.00
   -2   14   11      1.08      0.00
   -1   14   11      0.28      0.00
    0   14   11     -0.60      0.00
  -14   15   11     -1.27      0.00
  -13   15   11     -1.73      0.00
  -12   15   11     -1.03      0.00
  -11   15   11     -1.21      0.00
  -10   15   11     -0.47      0.00
   -9   15   11     -0.91      0.00
   -8   15   11      0.80      0.00
   -7   15   11      1.17      0.00
   -6   15   11      0.38      0.00
   -5   15   11      0.96      0.00
   -4   15   11      0.76      0.00
   -3   15   11      0.63      0.00
   -2   15   11      0.08      0.00
   -1   15   11     -0.44      0.00
    0   15   11     -0.10      0.00
  -15   16   11     -0.16      0.00
  -14   16   11     -0.36      0.00
  -13   16   11     -0.93      0.00
  -12   16   11     -0.19      0.00
  -11   16   11     -0.71      0.00
  -10   16   11     -0.71      0.00
   -9   16   11      0.04      0.00
   -8   16   11      0.08      0.00
   -7   16   11      0.48      0.00
   -6   16   11     -0.07      0.00
   -5   16   11      0.24      0.00
   -4   16   11      0.26      0.00
   -3   16   11     -0.28      0.00
   -2   16   11     -0.13      0.00
   -1   16   11      0.33      0.00
    0   16   11      0.16      0.00
  -16   17   11      1.50      0.00
  -15   17   11     -0.66      0.00
  -14   17   11      0.17      0.00
  -13   17   11      0.34      0.00
  -12   17   11      0.11      0.00
  -11   17   11     -0.50      0.00
  -10   17   11     -0.44      0.00
   -9   17   11     -0.04      0.00
   -8   17   11     -0.37      0.00
   -7   17   11     -0.67      0.00
   -6   17   11     -0.72      0.00
   -5   17   11     -0.90      0.00
   -4   17   11     -0.92      0.00
   -3   17   11     -0.92      0.00
   -2   17   11     -0.97      0.00
   -1   17   11      1.07      0.00
    0   17   11     -0.04      0.00
  -17   18   11     -0.23      0.00
  -16   18   11     -0.14      0.00
  -15   18   11      0.63      0.00
  -14   18   11     -0.09      0.00
  -13   18   11      0.27      0.00
  -12   18   11      0.26      0.00
  -11   18   11      0.05      0.00
  -10   18   11     -0.18      0.00
   -9   18   11     -0.01      0.00
   -8   18   11     -0.27      0.00
   -7   18   11     -0.75      0.00
   -6   18   11     -0.51      0.00
   -5   18   11     -0.77      0.00
   -4   18   11     -1.29      0.00
   -3   18   11      0.38      0.00
   -2   18   11     -0.21      0.00
   -1   18   11     -0.12      0.00
    0   18   11      0.42      0.00
  -18   19   11     -0.80      0.00
  -17   19   11      0.35      0.00
  -16   19   11     -0.45      0.00
  -15   19   11     -0.76      0.00
  -14   19   11      0.24      0.00
  -13   19   11     -0.34      0.00
  -12   19   11     -0.07      0.00
  -11   19   11      0.18      0.00
  -10   19   11      0.13      0.00
   -9   19   11     -0.64      0.00
   -8   19   11     -0.16      0.00
   -7   19   11     -0.21      0.00
   -6   19   11     -1.02      0.00
   -5   19   11      0.06      0.00
   -4   19   11     -0.55      0.00
   -3   19   11      0.02      0.00
   -2   19   11      0.46      0.00
   -1   19   11     -1.07      0.00
    0   19   11     -1.51      0.00
  -19   20   11     -0.21      0.00
  -18   20   11     -0.85      0.00
  -17   20   11     -0.67      0.00
  -16   20   11      0.11      0.00
  -15   20   11     -0.93      0.00
  -14   20   11     -0.89      0.00
  -13   20   11     -0.04      0.00
  -12   20   11      0.39      0.00
  -11   20   11     -0.16      0.00
  -10   20   11     -0.07      0.00
   -9   20   11     -0.23      0.00
   -8   20   11     -0.61      0.00
   -7   20   11      0.55      0.00
   -6   20   11     -0.33      0.00
   -5   20   11      0.04      0.00
   -4   20   11      1.15      0.00
   -3   20   11      0.27      0.00
   -2   20   11     -0.61      0.00
   -1   20   11     -0.22      0.00
    0   20   11     -1.31      0.00
  -20   21   11     -0.16      0.00
  -19   21   11     -0.83      0.00
  -18   21   11      0.42      0.00
  -17   21   11     -0.43      0.00
  -16   21   11     -0.17      0.00
  -15   21   11     -0.16      0.00
  -14   21   11     -0.17      0.00
  -13   21   11     -0.06      0.00
  -12   21   11      0.60      0.00
  -11   21   11      0.09      0.00
  -10   21   11     -1.03      0.00
   -9   21   11      0.04      0.00
   -8   21   11     -0.47      0.00
   -7   21   11     -0.33      0.00
   -6   21   11      0.59      0.00
   -5   21   11      0.45      0.00
   -4   21   11      0.39      0.00
   -3   21   11      0.82      0.00
   -2   21   11     -0.93      0.00
   -1   21   11     -0.43      0.00
  -18   22   11     -0.18      0.00
  -17   22   11      0.65      0.00
  -16   22   11      0.32      0.00
  -15   22   11      0.06      0.00
  -14   22   11      0.42      0.00
  -13   22   11      0.51      0.00
  -12   22   11     -0.18      0.00
  -11   22   11      0.01      0.00
  -10   22   11     -0.56      0.00
   -9   22   11     -0.74      0.00
   -8   22   11      0.21      0.00
   -7   22   11     -0.15      0.00
   -6   22   11      0.27      0.00
   -5   22   11      1.35      0.00
   -4   22   11      0.04      0.00
  -16   23   11      0.80      0.00
  -15   23   11      0.49      0.00
  -14   23   11      0.22      0.00
  -13   23   11      0.41      0.00
  -12   23   11     -0.01      0.00
  -11   23   11     -0.31      0.00
  -10   23   11      0.24      0.00
   -9   23   11     -0.29      0.00
   -8   23   11     -0.47      0.00
   -7   23   11      0.95      0.00
    0    0   12      9.87      0.00
    0    1   12      5.33      0.00
   -1    2   12      5.78      0.00
    0    2   12      1.82      0.00
   -2    3   12      0.08      0.00
   -1    3   12      0.26      0.00
    0    3   12      2.17      0.00
   -3    4   12     -1.56      0.00
   -2    4   12      1.35      0.00
   -1    4   12     -1.10      0.00
    0    4   12     -1.33      0.00
   -4    5   12      0.33      0.00
   -3    5   12     -1.60      0.00
   -2    5   12     -0.81      0.00
   -1    5   12      1.78      0.00
    0    5   12     -1.24      0.00
   -5    6   12     -1.59      0.00
   -4    6   12     -2.06      0.00
   -3    6   12      1.11      0.00
   -2    6   12     -0.44      0.00
   -1    6   12     -0.24      0.00
    0    6   12      1.10      0.00
   -6    7   12     -1.10      0.00
   -5    7   12      1.08      0.00
   -4    7   12     -1.45      0.00
   -3    7   12     -0.42      0.00
   -2    7   12      1.91      0.00
   -1    7   12     -0.50      0.00
    0    7   12     -0.27      0.00
   -7    8   12      2.21      0.00
   -6    8   12     -0.11      0.00
   -5    8   12     -0.86      0.00
   -4    8   12      0.74      0.00
   -3    8   12     -1.65      0.00
   -2    8   12     -1.16      0.00
   -1    8   12      0.88      0.00
    0    8   12     -0.06      0.00
   -8    9   12      0.39      0.00
   -7    9   12      1.04      0.00
   -6    9   12      2.17      0.00
   -5    9   12     -0.57      0.00
   -4    9   12     -1.94      0.00
   -3    9   12     -0.02      0.00
   -2    9   12     -1.24      0.00
   -1    9   12      0.12      0.00
    0    9   12      2.85      0.00
   -9   10   12      1.04      0.00
   -8   10   12      2.36      0.00
   -7   10   12      0.51      0.00
   -6   10   12     -0.12      0.00
   -5   10   12      0.53      0.00
   -4   10   12     -2.03      0.00
   -3   10   12     -1.92      0.00
   -2   10   12      1.46      0.00
   -1   10   12      1.11      0.00
    0   10   12      1.37      0.00
  -10   11   12      1.63      0.00
   -9   11   12      0.56      0.00
   -8   11   12     -0.13      0.00
   -7   11   12      2.06      0.00
   -6   11   12     -0.51      0.00
   -5   11   12     -0.64      0.00
   -4   11   12      0.70      0.00
   -3   11   12      0.35      0.00
   -2   11   12      1.47      0.00
   -1   11   12      3.11      0.00
    0   11   12      1.67      0.00
  -11   12   12      0.17      0.00
  -10   12   12     -0.01      0.00
   -9   12   12      0.91      0.00
   -8   12   12     -0.68      0.00
   -7   12   12     -0.54      0.00
   -6   12   12      1.18      0.00
   -5   12   12     -0.62      0.00
   -4   12   12     -0.18      0.00
   -3   12   12      1.54      0.00
   -2   12   12      1.46      0.00
   -1   12   12      0.55      0.00
    0   12   12      0.85      0.00
  -12   13   12     -0.65      0.00
  -11   13   12      0.41      0.00
  -10   13   12     -1.38      0.00
   -9   13   12     -0.37      0.00
   -8   13   12      0.50      0.00
   -7   13   12     -0.18      0.00
   -6   13   12     -0.50      0.00
   -5   13   12      1.09      0.00
   -4   13   12      0.17      0.00
   -3   13   12      0.69      0.00
   -2   13   12      1.44      0.00
   -1   13   12      0.63      0.00
    0   13   12      0.42      0.00
  -13   14   12     -0.04      0.00
  -12   14   12     -1.16      0.00
  -11   14   12     -1.23      0.00
  -10   14   12     -0.39      0.00
   -9   14   12     -1.01      0.00
   -8   14   12     -0.26      0.00
   -7   14   12      0.69      0.00
   -6   14   12     -0.75      0.00
   -5   14   12     -0.95      0.00
   -4   14   12      0.61      0.00
   -3   14   12      0.04      0.00
   -2   14   12      0.50      0.00
   -1   14   12      0.00      0.00
    0   14   12      0.19      0.00
  -14   15   12     -0.45      0.00
  -13   15   12      0.02      0.00
  -12   15   12     -1.12      0.00
  -11   15   12     -1.25      0.00
  -10   15   12     -1.02      0.00
   -9   15   12      1.38      0.00
   -8   15   12      0.13      0.00
   -7   15   12      0.21      0.00
   -6   15   12      0.35      0.00
   -5   15   12     -0.05      0.00
   -4   15   12      0.75      0.00
   -3   15   12      1.11      0.00
   -2   15   12      0.86      0.00
   -1   15   12      0.39      0.00
    0   15   12     -0.28      0.00
  -15   16   12     -0.19      0.00
  -14   16   12      0.27      0.00
  -13   16   12      0.24      0.00
  -12   16   12     -0.24      0.00
  -11   16   12      0.04      0.00
  -10   16   12     -0.26      0.00
   -9   16   12      0.52      0.00
   -8   16   12      1.37      0.00
   -7   16   12     -0.38      0.00
   -6   16   12     -0.19      0.00
   -5   16   12      0.29      0.00
   -4   16   12      0.68      0.00
   -3   16   12      0.48      0.00
   -2   16   12     -0.35      0.00
   -1   16   12     -1.43      0.00
    0   16   12     -1.24      0.00
  -16   17   12     -1.28      0.00
  -15   17   12      1.08      0.00
  -14   17   12      1.38      0.00
  -13   17   12      2.22      0.00
  -12   17   12      0.50      0.00
  -11   17   12      0.49      0.00
  -10   17   12      0.42      0.00
   -9   17   12      0.12      0.00
   -8   17   12     -0.16      0.00
   -7   17   12      0.40      0.00
   -6   17   12     -0.10      0.00
   -5   17   12      0.47      0.00
   -4   17   12      0.46      0.00
   -3   17   12      0.07      0.00
   -2   17   12     -0.54      0.00
   -1   17   12     -2.25      0.00
    0   17   12     -1.28      0.00
  -17   18   12      0.00      0.00
  -16   18   12      0.70      0.00
  -15   18   12      1.88      0.00
  -14   18   12      2.74      0.00
  -13   18   12      2.65      0.00
  -12   18   12      1.42      0.00
  -11   18   12     -0.52      0.00
  -10   18   12     -1.20      0.00
   -9   18   12     -0.88      0.00
   -8   18   12     -0.96      0.00
   -7   18   12     -0.75      0.00
   -6   18   12     -0.32      0.00
   -5   18   12     -0.46      0.00
   -4   18   12     -0.03      0.00
   -3   18   12     -1.38      0.00
   -2   18   12     -1.45      0.00
   -1   18   12     -1.90      0.00
    0   18   12     -1.32      0.00
  -18   19   12      0.17      0.00
  -17   19   12      0.72      0.00
  -16   19   12      1.20      0.00
  -15   19   12      2.72      0.00
  -14   19   12      2.55      0.00
  -13   19   12      2.18      0.00
  -12   19   12      0.29      0.00
  -11   19   12     -0.67      0.00
  -10   19   12     -2.02      0.00
   -9   19   12     -1.51      0.00
   -8   19   12     -0.63      0.00
   -7   19   12     -0.22      0.00
   -6   19   12     -0.16      0.00
   -5   19   12     -0.61      0.00
   -4   19   12      0.04      0.00
   -3   19   12     -0.57      0.00
   -2   19   12     -1.60      0.00
   -1   19   12     -0.89      0.00
    0   19   12      0.35      0.00
  -18   20   12      0.93      0.00
  -17   20   12      1.16      0.00
  -16   20   12      1.12      0.00
  -15   20   12      1.91      0.00
  -14   20   12      2.04      0.00
  -13   20   12      1.33      0.00
  -12   20   12     -0.01      0.00
  -11   20   12     -1.02      0.00
  -10   20   12     -1.24      0.00
   -9   20   12     -0.98      0.00
   -8   20   12     -0.29      0.00
   -7   20   12     -0.38      0.00
   -6   20   12      0.02      0.00
   -5   20   12     -0.45      0.00
   -4   20   12     -0.94      0.00
   -3   20   12     -0.74      0.00
   -2   20   12     -0.80      0.00
  -17   21   12      0.82      0.00
  -16   21   12      1.01      0.00
  -15   21   12      1.21      0.00
  -14   21   12      0.92      0.00
  -13   21   12      1.23      0.00
  -12   21   12      0.42      0.00
  -11   21   12     -0.12      0.00
  -10   21   12     -0.44      0.00
   -9   21   12     -0.16      0.00
   -8   21   12      0.48      0.00
   -7   21   12      0.17      0.00
   -6   21   12     -0.21      0.00
   -5   21   12      0.16      0.00
   -4   21   12     -0.12      0.00
  -14   22   12      0.64      0.00
  -13   22   12      0.83      0.00
  -12   22   12      0.80      0.00
    0    0   13     -0.82      0.00
    0    1   13     -0.40      0.00
   -1    2   13     -1.98      0.00
    0    2   13     -0.84      0.00
   -2    3   13     -0.54      0.00
   -1    3   13     -0.72      0.00
    0    3   13     -1.86      0.00
   -3    4   13      0.56      0.00
   -2    4   13     -1.55      0.00
   -1    4   13     -0.10      0.00
    0    4   13      0.71      0.00
   -4    5   13     -0.63      0.00
   -3    5   13      0.82      0.00
   -2    5   13      0.86      0.00
   -1    5   13     -1.26      0.00
    0    5   13      0.60      0.00
   -5    6   13      0.50      0.00
   -4    6   13      0.87      0.00
   -3    6   13     -0.76      0.00
   -2    6   13      0.82      0.00
   -1    6   13      1.36      0.00
    0    6   13     -1.25      0.00
   -6    7   13     -0.02      0.00
   -5    7   13     -1.68      0.00
   -4    7   13      0.34      0.00
   -3    7   13      1.33      0.00
   -2    7   13     -0.01      0.00
   -1    7   13      0.59      0.00
    0    7   13      0.09      0.00
   -7    8   13     -1.15      0.00
   -6    8   13     -0.08      0.00
   -5    8   13      0.12      0.00
   -4    8   13     -0.77      0.00
   -3    8   13      1.32      0.00
   -2    8   13      1.71      0.00
   -1    8   13     -0.49      0.00
    0    8   13     -0.33      0.00
   -8    9   13      0.59      0.00
   -7    9   13      0.52      0.00
   -6    9   13     -0.49      0.00
   -5    9   13     -0.23      0.00
   -4    9   13      0.94      0.00
   -3    9   13     -0.05      0.00
   -2    9   13      0.31      0.00
   -1    9   13     -0.42      0.00
    0    9   13     -0.94      0.00
   -9   10   13      0.67      0.00
   -8   10   13      0.73      0.00
   -7   10   13      0.97      0.00
   -6   10   13      0.55      0.00
   -5   10   13     -0.42      0.00
   -4   10   13      0.26      0.00
   -3   10   13      0.43      0.00
   -2   10   13     -0.86      0.00
   -1   10   13     -0.22      0.00
    0   10   13     -0.19      0.00
  -10   11   13      0.84      0.00
   -9   11   13      1.16      0.00
   -8   11   13      1.90      0.00
   -7   11   13      0.23      0.00
   -6   11   13      0.51      0.00
   -5   11   13      0.19      0.00
   -4   11   13     -0.28      0.00
   -3   11   13     -0.46      0.00
   -2   11   13     -0.76      0.00
   -1   11   13     -0.64      0.00
    0   11   13      0.35      0.00
  -11   12   13      0.22      0.00
  -10   12   13      1.76      0.00
   -9   12   13      1.29      0.00
   -8   12   13      1.20      0.00
   -7   12   13      1.10      0.00
   -6   12   13      0.46      0.00
   -5   12   13      0.76      0.00
   -4   12   13      0.01      0.00
   -3   12   13     -0.23      0.00
   -2   12   13      0.04      0.00
   -1   12   13     -0.38      0.00
    0   12   13     -0.20      0.00
  -12   13   13      1.04      0.00
  -11   13   13      0.48      0.00
  -10   13   13      1.32      0.00
   -9   13   13      1.28      0.00
   -8   13   13      0.95      0.00
   -7   13   13      0.89      0.00
   -6   13   13      1.17      0.00
   -5   13   13      0.12      0.00
   -4   13   13      0.37      0.00
   -3   13   13     -0.60      0.00
   -2   13   13     -0.68      0.00
   -1   13   13     -0.31      0.00
    0   13   13     -1.10      0.00
  -13   14   13     -0.24      0.00
  -12   14   13     -0.02      0.00
  -11   14   13      0.83      0.00
  -10   14   13      0.20      0.00
   -9   14   13      0.53      0.00
   -8   14   13      1.25      0.00
   -7   14   13      0.94      0.00
   -6   14   13      0.98      0.00
   -5   14   13      0.54      0.00
   -4   14   13      0.14      0.00
   -3   14   13      0.59      0.00
   -2   14   13     -1.11      0.00
   -1   14   13     -0.75      0.00
    0   14   13      0.29      0.00
  -14   15   13     -0.02      0.00
  -13   15   13      0.42      0.00
  -12   15   13     -0.22      0.00
  -11   15   13     -1.08      0.00
  -10   15   13      0.07      0.00
   -9   15   13     -0.36      0.00
   -8   15   13      1.04      0.00
   -7   15   13      0.69      0.00
   -6   15   13      0.21      0.00
   -5   15   13      0.60      0.00
   -4   15   13      0.20      0.00
   -3   15   13     -0.55      0.00
   -2   15   13     -0.46      0.00
   -1   15   13     -1.25      0.00
    0   15   13     -0.20      0.00
  -15   16   13      0.55      0.00
  -14   16   13      0.15      0.00
  -13   16   13     -0.65      0.00
  -12   16   13     -0.50      0.00
  -11   16   13     -1.78      0.00
  -10   16   13     -0.98      0.00
   -9   16   13      0.35      0.00
   -8   16   13      0.22      0.00
   -7   16   13      0.62      0.00
   -6   16   13      0.38      0.00
   -5   16   13      0.49      0.00
   -4   16   13      0.81      0.00
   -3   16   13     -0.45      0.00
   -2   16   13     -0.71      0.00
   -1   16   13      0.47      0.00
    0   16   13     -0.08      0.00
  -16   17   13      0.45      0.00
  -15   17   13     -0.34      0.00
  -14   17   13      0.76      0.00
  -13   17   13     -0.60      0.00
  -12   17   13     -1.04      0.00
  -11   17   13     -1.37      0.00
  -10   17   13     -1.02      0.00
   -9   17   13     -0.11      0.00
   -8   17   13      0.41      0.00
   -7   17   13     -0.50      0.00
   -6   17   13      0.42      0.00
   -5   17   13      0.05      0.00
   -4   17   13     -0.37      0.00
   -3   17   13     -0.18      0.00
   -2   17   13     -0.72      0.00
   -1   17   13      0.03      0.00
    0   17   13      0.12      0.00
  -17   18   13     -0.42      0.00
  -16   18   13      0.19      0.00
  -15   18   13      0.30      0.00
  -14   18   13      0.42      0.00
  -13   18   13      0.16      0.00
  -12   18   13     -0.92      0.00
  -11   18   13     -0.89      0.00
  -10   18   13     -0.21      0.00
   -9   18   13     -0.40      0.00
   -8   18   13      0.10      0.00
   -7   18   13      0.08      0.00
   -6   18   13     -0.40      0.00
   -5   18   13      0.17      0.00
   -4   18   13     -0.41      0.00
   -3   18   13     -0.03      0.00
   -2   18   13      0.38      0.00
   -1   18   13      0.07      0.00
    0   18   13      0.15      0.00
  -16   19   13      0.25      0.00
  -15   19   13      0.61      0.00
  -14   19   13      0.90      0.00
  -13   19   13      0.13      0.00
  -12   19   13      0.14      0.00
  -11   19   13     -0.53      0.00
  -10   19   13      0.19      0.00
   -9   19   13      0.01      0.00
   -8   19   13     -0.37      0.00
   -7   19   13     -0.12      0.00
   -6   19   13     -0.39      0.00
   -5   19   13     -0.75      0.00
   -4   19   13     -0.14      0.00
   -3   19   13     -0.10      0.00
  -15   20   13      0.59      0.00
  -14   20   13      0.60      0.00
  -13   20   13      0.25      0.00
  -12   20   13      0.57      0.00
  -11   20   13      0.49      0.00
  -10   20   13     -0.01      0.00
   -9   20   13      0.24      0.00
   -8   20   13      0.22      0.00
   -7   20   13     -0.32      0.00
   -6   20   13     -0.27      0.00
   -5   20   13     -0.25      0.00
    0    0   14      1.91      0.00
    0    1   14     -2.46      0.00
   -1    2   14      0.28      0.00
    0    2   14     -3.18      0.00
   -2    3   14     -3.16      0.00
   -1    3   14     -3.16      0.00
    0    3   14     -0.02      0.00
   -3    4   14     -1.83      0.00
   -2    4   14      0.16      0.00
   -1    4   14     -2.32      0.00
    0    4   14     -1.50      0.00
   -4    5   14      1.37      0.00
   -3    5   14     -1.40      0.00
   -2    5   14     -1.37      0.00
   -1    5   14      0.87      0.00
    0    5   14     -0.36      0.00
   -5    6   14      0.00      0.00
   -4    6   14      0.20      0.00
   -3    6   14      1.15      0.00
   -2    6   14     -0.90      0.00
   -1    6   14     -0.34      0.00
    0    6   14      1.47      0.00
   -6    7   14      0.77      0.00
   -5    7   14      2.03      0.00
   -4    7   14     -0.07      0.00
   -3    7   14      0.13      0.00
   -2    7   14      1.04      0.00
   -1    7   14     -0.04      0.00
    0    7   14     -0.06      0.00
   -7    8   14      1.32      0.00
   -6    8   14      0.58      0.00
   -5    8   14      1.42      0.00
   -4    8   14      1.74      0.00
   -3    8   14     -0.06      0.00
   -2    8   14      0.11      0.00
   -1    8   14      0.98      0.00
    0    8   14      0.01      0.00
   -8    9   14     -0.88      0.00
   -7    9   14      0.33      0.00
   -6    9   14      1.62      0.00
   -5    9   14      0.39      0.00
   -4    9   14      0.51      0.00
   -3    9   14      1.04      0.00
   -2    9   14     -0.14      0.00
   -1    9   14     -0.26      0.00
    0    9   14     -0.16      0.00
   -9   10   14     -1.08      0.00
   -8   10   14     -0.57      0.00
   -7   10   14     -0.81      0.00
   -6   10   14      0.28      0.00
   -5   10   14      1.04      0.00
   -4   10   14     -0.35      0.00
   -3   10   14     -0.19      0.00
   -2   10   14      0.38      0.00
   -1   10   14     -0.51      0.00
    0   10   14     -1.30      0.00
  -10   11   14     -0.87      0.00
   -9   11   14     -1.82      0.00
   -8   11   14     -1.40      0.00
   -7   11   14     -0.42      0.00
   -6   11   14     -0.90      0.00
   -5   11   14     -0.24      0.00
   -4   11   14      0.05      0.00
   -3   11   14     -0.81      0.00
   -2   11   14     -1.00      0.00
   -1   11   14     -0.50      0.00
    0   11   14     -1.00      0.00
  -11   12   14     -0.45      0.00
  -10   12   14     -0.54      0.00
   -9   12   14     -0.45      0.00
   -8   12   14     -1.36      0.00
   -7   12   14     -0.60      0.00
   -6   12   14      0.21      0.00
   -5   12   14     -0.68      0.00
   -4   12   14     -0.81      0.00
   -3   12   14     -0.57      0.00
   -2   12   14     -1.27      0.00
   -1   12   14     -1.01      0.00
    0   12   14     -0.32      0.00
  -12   13   14      0.04      0.00
  -11   13   14      0.37      0.00
  -10   13   14      0.05      0.00
   -9   13   14     -0.18      0.00
   -8   13   14      0.05      0.00
   -7   13   14     -0.51      0.00
   -6   13   14     -0.19      0.00
   -5   13   14      0.12      0.00
   -4   13   14     -1.23      0.00
   -3   13   14     -0.89      0.00
   -2   13   14     -0.81      0.00
   -1   13   14     -0.47      0.00
    0   13   14      0.09      0.00
  -13   14   14      0.43      0.00
  -12   14   14      0.31      0.00
  -11   14   14      0.58      0.00
  -10   14   14      0.75      0.00
   -9   14   14      0.15      0.00
   -8   14   14      0.13      0.00
   -7   14   14      0.76      0.00
   -6   14   14     -0.38      0.00
   -5   14   14      0.02      0.00
   -4   14   14     -0.03      0.00
   -3   14   14     -0.64      0.00
   -2   14   14     -0.06      0.00
   -1   14   14      0.30      0.00
    0   14   14      0.34      0.00
  -14   15   14      0.36      0.00
  -13   15   14     -0.15      0.00
  -12   15   14      0.21      0.00
  -11   15   14      0.07      0.00
  -10   15   14     -0.05      0.00
   -9   15   14      0.48      0.00
   -8   15   14     -0.23      0.00
   -7   15   14      0.25      0.00
   -6   15   14      0.42      0.00
   -5   15   14     -0.22      0.00
   -4   15   14      0.40      0.00
   -3   15   14      0.38      0.00
   -2   15   14     -0.11      0.00
   -1   15   14      0.75      0.00
    0   15   14      0.40      0.00
  -15   16   14      0.24      0.00
  -14   16   14      0.17      0.00
  -13   16   14      0.20      0.00
  -12   16   14     -0.22      0.00
  -11   16   14      0.17      0.00
  -10   16   14     -0.43      0.00
   -9   16   14     -0.02      0.00
   -8   16   14      0.49      0.00
   -7   16   14     -0.19      0.00
   -6   16   14      0.54      0.00
   -5   16   14      0.78      0.00
   -4   16   14     -0.04      0.00
   -3   16   14      0.57      0.00
   -2   16   14      0.17      0.00
   -1   16   14      0.17      0.00
    0   16   14      0.44      0.00
  -16   17   14      0.40      0.00
  -15   17   14      0.29      0.00
  -14   17   14      0.27      0.00
  -13   17   14      0.56      0.00
  -12   17   14     -0.09      0.00
  -11   17   14     -0.70      0.00
  -10   17   14     -0.17      0.00
   -9   17   14     -0.38      0.00
   -8   17   14      0.19      0.00
   -7   17   14      0.57      0.00
   -6   17   14     -0.16      0.00
   -5   17   14      0.83      0.00
   -4   17   14      0.17      0.00
   -3   17   14     -0.26      0.00
   -2   17   14      0.12      0.00
  -14   18   14      0.81      0.00
  -13   18   14      0.33      0.00
  -12   18   14      0.03      0.00
  -11   18   14     -0.52      0.00
  -10   18   14     -0.31      0.00
   -9   18   14      0.57      0.00
   -8   18   14      0.09      0.00
   -7   18   14      0.95      0.00
   -6   18   14      0.60      0.00
   -5   18   14      0.10      0.00
   -4   18   14      0.36      0.00
    0    0   15     -3.14      0.00
    0    1   15     -2.15      0.00
   -1    2   15     -1.32      0.00
    0    2   15     -0.58      0.00
   -2    3   15      0.37      0.00
   -1    3   15      0.35      0.00
    0    3   15     -0.31      0.00
   -3    4   15      0.89      0.00
   -2    4   15      0.13      0.00
   -1    4   15      0.31      0.00
    0    4   15     -0.01      0.00
   -4    5   15     -0.73      0.00
   -3    5   15      1.25      0.00
   -2    5   15      1.23      0.00
   -1    5   15     -1.09      0.00
    0    5   15     -0.54      0.00
   -5    6   15     -0.40      0.00
   -4    6   15      0.92      0.00
   -3    6   15      0.27      0.00
   -2    6   15      0.58      0.00
   -1    6   15     -0.06      0.00
    0    6   15     -1.55      0.00
   -6    7   15     -0.39      0.00
   -5    7   15     -0.77      0.00
   -4    7   15      0.75      0.00
   -3    7   15      1.77      0.00
   -2    7   15      0.19      0.00
   -1    7   15      0.14      0.00
    0    7   15      0.23      0.00
   -7    8   15     -0.59      0.00
   -6    8   15     -0.40      0.00
   -5    8   15     -0.02      0.00
   -4    8   15     -0.18      0.00
   -3    8   15      0.92      0.00
   -2    8   15      1.03      0.00
   -1    8   15     -0.38      0.00
    0    8   15     -0.01      0.00
   -8    9   15      0.30      0.00
   -7    9   15      0.30      0.00
   -6    9   15     -1.20      0.00
   -5    9   15     -0.25      0.00
   -4    9   15      0.78      0.00
   -3    9   15      0.61      0.00
   -2    9   15      0.47      0.00
   -1    9   15     -0.23      0.00
    0    9   15      0.14      0.00
   -9   10   15      0.52      0.00
   -8   10   15      0.28      0.00
   -7   10   15     -0.29      0.00
   -6   10   15     -0.65      0.00
   -5   10   15     -0.58      0.00
   -4   10   15      0.75      0.00
   -3   10   15      0.38      0.00
   -2   10   15     -0.14      0.00
   -1   10   15     -0.61      0.00
    0   10   15     -0.33      0.00
  -10   11   15      0.38      0.00
   -9   11   15      1.07      0.00
   -8   11   15      0.28      0.00
   -7   11   15     -0.18      0.00
   -6   11   15      0.28      0.00
   -5   11   15      0.92      0.00
   -4   11   15      1.26      0.00
   -3   11   15      0.87      0.00
   -2   11   15     -0.11      0.00
   -1   11   15      0.06      0.00
    0   11   15      0.39      0.00
  -11   12   15     -0.19      0.00
  -10   12   15      0.40      0.00
   -9   12   15      0.31      0.00
   -8   12   15      0.54      0.00
   -7   12   15      0.02      0.00
   -6   12   15      0.56      0.00
   -5   12   15      1.20      0.00
   -4   12   15      0.69      0.00
   -3   12   15      0.62      0.00
   -2   12   15      0.37      0.00
   -1   12   15     -0.81      0.00
    0   12   15     -0.02      0.00
  -12   13   15     -0.15      0.00
  -11   13   15      0.21      0.00
  -10   13   15      0.07      0.00
   -9   13   15      0.52      0.00
   -8   13   15      0.31      0.00
   -7   13   15      1.17      0.00
   -6   13   15      0.34      0.00
   -5   13   15      0.69      0.00
   -4   13   15      1.07      0.00
   -3   13   15     -0.02      0.00
   -2   13   15      0.55      0.00
   -1   13   15     -0.02      0.00
    0   13   15     -0.43      0.00
  -13   14   15      0.04      0.00
  -12   14   15     -0.38      0.00
  -11   14   15     -0.54      0.00
  -10   14   15     -0.47      0.00
   -9   14   15      0.52      0.00
   -8   14   15      0.39      0.00
   -7   14   15     -0.14      0.00
   -6   14   15      0.09      0.00
   -5   14   15     -0.94      0.00
   -4   14   15      0.23      0.00
   -3   14   15      0.25      0.00
   -2   14   15     -1.00      0.00
   -1   14   15     -0.78      0.00
    0   14   15      0.14      0.00
  -14   15   15     -0.19      0.00
  -13   15   15      0.76      0.00
  -12   15   15     -0.76      0.00
  -11   15   15     -0.37      0.00
  -10   15   15     -0.30      0.00
   -9   15   15      0.70      0.00
   -8   15   15      1.25      0.00
   -7   15   15     -0.10      0.00
   -6   15   15     -0.41      0.00
   -5   15   15      0.36      0.00
   -4   15   15     -0.05      0.00
   -3   15   15      0.03      0.00
   -2   15   15      0.05      0.00
   -1   15   15     -1.17      0.00
  -12   16   15     -0.63      0.00
  -11   16   15     -1.12      0.00
  -10   16   15      0.44      0.00
   -9   16   15      0.71      0.00
   -8   16   15      0.71      0.00
   -7   16   15      0.41      0.00
   -6   16   15     -0.34      0.00
   -5   16   15      0.00      0.00
   -4   16   15      0.68      0.00
    0    0   16      2.83      0.00
    0    1   16      0.48      0.00
   -1    2   16      0.41      0.00
    0    2   16     -0.67      0.00
   -2    3   16     -1.24      0.00
   -1    3   16     -1.29      0.00
    0    3   16     -0.49      0.00
   -3    4   16     -0.56      0.00
   -2    4   16     -0.43      0.00
   -1    4   16     -0.69      0.00
    0    4   16      0.12      0.00
   -4    5   16      0.08      0.00
   -3    5   16     -0.73      0.00
   -2    5   16     -0.41      0.00
   -1    5   16      0.18      0.00
    0    5   16      0.52      0.00
   -5    6   16     -0.29      0.00
   -4    6   16     -0.24      0.00
   -3    6   16     -0.68      0.00
   -2    6   16      0.18      0.00
   -1    6   16      0.75      0.00
    0    6   16     -0.12      0.00
   -6    7   16     -0.54      0.00
   -5    7   16     -1.63      0.00
   -4    7   16     -1.09      0.00
   -3    7   16     -0.23      0.00
   -2    7   16     -0.18      0.00
   -1    7   16      0.29      0.00
    0    7   16     -0.56      0.00
   -7    8   16     -1.43      0.00
   -6    8   16     -0.89      0.00
   -5    8   16     -0.57      0.00
   -4    8   16     -0.87      0.00
   -3    8   16      0.17      0.00
   -2    8   16      0.69      0.00
   -1    8   16     -0.50      0.00
    0    8   16     -0.30      0.00
   -8    9   16     -0.30      0.00
   -7    9   16     -0.49      0.00
   -6    9   16     -0.79      0.00
   -5    9   16     -0.39      0.00
   -4    9   16      0.21      0.00
   -3    9   16     -0.58      0.00
   -2    9   16     -0.01      0.00
   -1    9   16      0.10      0.00
    0    9   16     -1.22      0.00
   -9   10   16     -0.44      0.00
   -8   10   16     -0.69      0.00
   -7   10   16      0.46      0.00
   -6   10   16      0.76      0.00
   -5   10   16     -0.24      0.00
   -4   10   16      0.03      0.00
   -3   10   16      0.39      0.00
   -2   10   16     -0.41      0.00
   -1   10   16      0.38      0.00
    0   10   16      0.20      0.00
  -10   11   16     -0.96      0.00
   -9   11   16     -0.49      0.00
   -8   11   16      0.26      0.00
   -7   11   16     -0.32      0.00
   -6   11   16      0.35      0.00
   -5   11   16     -0.13      0.00
   -4   11   16     -1.21      0.00
   -3   11   16     -0.39      0.00
   -2   11   16      0.38      0.00
   -1   11   16     -0.30      0.00
    0   11   16     -0.42      0.00
  -11   12   16     -0.01      0.00
  -10   12   16     -0.46      0.00
   -9   12   16     -0.62      0.00
   -8   12   16      0.37      0.00
   -7   12   16      0.41      0.00
   -6   12   16     -0.55      0.00
   -5   12   16     -0.40      0.00
   -4   12   16     -0.25      0.00
   -3   12   16     -0.52      0.00
   -2   12   16      0.34      0.00
   -1   12   16      0.97      0.00
    0   12   16     -0.28      0.00
  -11   13   16     -0.78      0.00
  -10   13   16      0.35      0.00
   -9   13   16     -0.34      0.00
   -8   13   16     -0.42      0.00
   -7   13   16     -0.31      0.00
   -6   13   16     -0.24      0.00
   -5   13   16     -1.31      0.00
   -4   13   16     -1.00      0.00
   -3   13   16     -0.01      0.00
   -2   13   16     -0.58      0.00
   -9   14   16      0.31      0.00
   -8   14   16      0.10      0.00
   -7   14   16     -0.17      0.00
   -6   14   16     -0.30      0.00
   -5   14   16     -0.04      0.00
    0    0   17      1.17      0.00
    0    1   17      2.17      0.00
   -1    2   17      0.53      0.00
    0    2   17      0.80      0.00
   -2    3   17      0.24      0.00
   -1    3   17      0.22      0.00
    0    3   17     -0.85      0.00
   -3    4   17     -0.91      0.00
   -2    4   17     -1.42      0.00
   -1    4   17     -0.84      0.00
    0    4   17     -1.28      0.00
   -4    5   17     -1.10      0.00
   -3    5   17     -1.05      0.00
   -2    5   17     -1.12      0.00
   -1    5   17     -1.08      0.00
    0    5   17     -0.76      0.00
   -5    6   17     -0.22      0.00
   -4    6   17     -0.93      0.00
   -3    6   17     -0.79      0.00
   -2    6   17     -1.09      0.00
   -1    6   17     -0.59      0.00
    0    6   17      0.14      0.00
   -6    7   17      0.31      0.00
   -5    7   17      0.53      0.00
   -4    7   17     -0.29      0.00
   -3    7   17     -0.59      0.00
   -2    7   17     -0.15      0.00
   -1    7   17     -0.17      0.00
    0    7   17      0.45      0.00
   -7    8   17      1.02      0.00
   -6    8   17      0.12      0.00
   -5    8   17     -0.14      0.00
   -4    8   17     -0.06      0.00
   -3    8   17     -0.68      0.00
   -2    8   17     -0.83      0.00
   -1    8   17      0.42      0.00
    0    8   17     -0.02      0.00
   -8    9   17      0.03      0.00
   -7    9   17     -0.23      0.00
   -6    9   17      0.28      0.00
   -5    9   17     -0.10      0.00
   -4    9   17     -0.52      0.00
   -3    9   17     -0.12      0.00
   -2    9   17     -0.64      0.00
   -1    9   17     -0.16      0.00
    0    9   17      1.07      0.00
   -8   10   17      0.08      0.00
   -7   10   17     -0.59      0.00
   -6   10   17     -0.63      0.00
   -5   10   17      0.39      0.00
   -4   10   17     -0.28      0.00
   -3   10   17     -0.63      0.00
   -2   10   17      0.22      0.00
    0    0   18     -0.20      0.00
    0    1   18     -0.09      0.00
   -1    2   18     -0.28      0.00
    0    2   18      0.18      0.00
   -2    3   18      0.16      0.00
   -1    3   18     -0.07      0.00
    0    3   18     -0.13      0.00
   -3    4   18      0.44      0.00
   -2    4   18     -0.03      0.00
   -1    4   18     -0.40      0.00
    0    1    0    142.87      0.00
    0   26    0     -1.04      0.00
  -23   28    0      1.13      0.00
   -5   28    0     -0.21      0.00
  -21   29    0     -2.53      0.00
  -20   29    0     -3.06      0.00
  -19   29    0     -2.64      0.00
  -18   29    0     -2.08      0.00
  -17   29    0     -1.18      0.00
   -8   29    0      1.06      0.00
    0    0    1    -20.88      0.00
  -23   28    1     -0.64      0.00
   -5   28    1      1.41      0.00
  -21   29    1     -1.06      0.00
  -20   29    1      0.76      0.00
  -19   29    1      0.89      0.00
  -18   29    1      1.19      0.00
  -17   29    1      0.17      0.00
   -8   29    1     -0.71      0.00
  -22   28    2      0.25      0.00
  -20   29    2      1.67      0.00
  -19   29    2      1.92      0.00
  -18   29    2      1.60      0.00
  -17   29    2      0.97      0.00
   -9   29    2      0.08      0.00
  -25   26    3     -0.04      0.00
   -1   26    3      0.12      0.00
  -24   27    3     -0.13      0.00
   -3   27    3     -0.36      0.00
  -22   28    3     -0.32      0.00
  -21   28    3     -1.01      0.00
   -6   28    3     -0.52      0.00
  -19   29    3      0.39      0.00
  -18   29    3      0.14      0.00
  -17   29    3     -0.19      0.00
  -10   29    3      0.29      0.00
    0    0    4      4.51      0.00
  -23   27    4      0.42      0.00
   -4   27    4      0.44      0.00
  -21   28    4      0.27      0.00
  -20   28    4     -0.70      0.00
  -19   28    4     -0.34      0.00
   -7   28    4     -0.75      0.00
  -18   29    4     -0.41      0.00
  -17   29    4     -0.01      0.00
  -16   29    4     -0.34      0.00
  -15   29    4     -0.47      0.00
  -12   29    4     -0.61      0.00
  -11   29    4     -0.09      0.00
    0   25    5     -0.23      0.00
  -22   27    5     -0.46      0.00
   -5   27    5      0.04      0.00
  -20   28    5      0.58      0.00
  -19   28    5      0.15      0.00
  -18   28    5     -1.15      0.00
   -9   28    5     -0.44      0.00
   -8   28    5      0.49      0.00
  -24   25    6      0.22      0.00
   -1   25    6      0.06      0.00
  -21   27    6     -0.58      0.00
  -20   27    6     -0.02      0.00
   -6   27    6     -0.03      0.00
  -18   28    6     -0.74      0.00
  -17   28    6      0.02      0.00
  -16   28    6      0.16      0.00
  -12   28    6      0.56      0.00
  -11   28    6      0.04      0.00
  -10   28    6     -0.64      0.00
    0   24    7     -0.12      0.00
  -21   26    7      0.25      0.00
   -5   26    7     -0.14      0.00
  -19   27    7     -0.10      0.00
  -18   27    7      0.20      0.00
  -10   27    7     -0.32      0.00
   -9   27    7      0.46      0.00
   -8   27    7      0.88      0.00
  -21   25    8     -0.77      0.00
   -4   25    8     -0.54      0.00
  -19   26    8     -0.55      0.00
  -18   26    8     -0.09      0.00
   -8   26    8     -0.35      0.00
   -7   26    8     -0.66      0.00
  -14   27    8      0.61      0.00
  -13   27    8      0.35      0.00
  -22   23    9      0.36      0.00
   -1   23    9      0.13      0.00
  -21   24    9     -0.37      0.00
   -3   24    9     -0.62      0.00
  -19   25    9     -0.06      0.00
   -6   25    9     -0.30      0.00
  -15   26    9     -0.11      0.00
  -14   26    9      0.06      0.00
  -13   26    9      0.49      0.00
  -12   26    9      1.08      0.00
  -11   26    9      1.07      0.00
  -20   23   10      0.17      0.00
   -3   23   10     -0.44      0.00
  -18   24   10     -0.11      0.00
   -6   24   10     -0.86      0.00
  -15   25   10      0.66      0.00
  -14   25   10      0.29      0.00
  -13   25   10     -0.01      0.00
  -12   25   10      0.66      0.00
  -11   25   10      0.93      0.00
  -10   25   10      0.78      0.00
  -19   22   11     -0.33      0.00
   -3   22   11      0.20      0.00
  -17   23   11      0.53      0.00
   -6   23   11      0.18      0.00
  -13   24   11     -0.22      0.00
  -12   24   11      0.32      0.00
  -11   24   11      0.04      0.00
  -19   20   12      0.41      0.00
   -1   20   12     -1.10      0.00
  -18   21   12      0.07      0.00
   -3   21   12     -0.95      0.00
  -15   22   12      0.96      0.00
  -11   22   12      0.25      0.00
  -10   22   12      0.19      0.00
   -9   22   12      0.14      0.00
   -8   22   12      0.18      0.00
   -7   22   12      0.52      0.00
  -17   19   13     -0.22      0.00
   -2   19   13      0.13      0.00
  -16   20   13      0.60      0.00
   -4   20   13     -0.01      0.00
  -13   21   13      0.43      0.00
  -12   21   13      0.63      0.00
  -11   21   13      0.44      0.00
  -10   21   13      0.29      0.00
   -9   21   13     -0.12      0.00
   -8   21   13      0.15      0.00
   -1   17   14      0.38      0.00
  -15   18   14      0.81      0.00
   -3   18   14      0.09      0.00
  -13   19   14     -0.10      0.00
  -12   19   14     -0.70      0.00
  -11   19   14     -0.12      0.00
  -10   19   14     -0.10      0.00
   -9   19   14      0.68      0.00
   -8   19   14      0.70      0.00
   -7   19   14      0.40      0.00
   -6   19   14      0.78      0.00
    0   15   15     -0.01      0.00
  -13   16   15     -0.08      0.00
   -3   16   15     -0.94      0.00
  -11   17   15     -0.32      0.00
  -10   17   15      0.24      0.00
   -9   17   15      1.62      0.00
   -8   17   15      0.90      0.00
   -7   17   15      0.47      0.00
   -6   17   15      0.87      0.00
  -12   13   16      0.16      0.00
   -1   13   16      0.17      0.00
  -11   14   16      0.28      0.00
  -10   14   16      0.02      0.00
   -4   14   16     -1.05      0.00
   -3   14   16     -0.42      0.00
   -9   10   17     -0.02      0.00
   -1   10   17      0.00      0.00
   -8   11   17     -0.85      0.00
   -7   11   17      0.08      0.00
   -6   11   17      0.24      0.00
   -5   11   17      0.37      0.00
   -4   11   17      0.80      0.00
   -3   11   17      0.17      0.00
    0    4   18      0.14      0.00
   -4    5   18      0.34      0.00
   -3    5   18      0.44      0.00
   -2    5   18     -0.53      0.00
   -1    5   18     -1.09      0.00
    0    5   18     -0.19      0.00
   -3    6   18     -0.36      0.00
    0    0    0      0.00      0.00
# SQUEEZE RESULTS (Version =  71116)
# Note: Data are Listed for all Voids in the P1 Unit Cell
# i.e. Centre of Gravity, Solvent Accessible Volume,
# Recovered number of Electrons in the Void and
# Details about the Squeezed Material
loop_
  _platon_squeeze_void_nr
  _platon_squeeze_void_average_x
  _platon_squeeze_void_average_y
  _platon_squeeze_void_average_z
  _platon_squeeze_void_volume
  _platon_squeeze_void_count_electrons
  _platon_squeeze_void_content
   1  0.000  0.000 -0.023      1173       196 ' '
   2  0.333  0.667  0.000        85         0 ' '
   3  0.667  0.333  0.000        85         0 ' '
   4  0.333  0.667  0.500        83        16 ' '
   5  0.667  0.333  0.500        83        16 ' '
   6  0.000  0.500  0.382         7         1 ' '
   7  0.500  0.000  0.382         7         1 ' '
   8  0.500  0.500  0.382         7         1 ' '
   9  0.000  0.500  0.618         7         1 ' '
  10  0.500  0.000  0.618         7         1 ' '
  11  0.500  0.500  0.618         7         1 ' '
# Missing Reflections Below sin(th)/lambda = 0.25
loop_
  _platon_missing_refln_index_h
  _platon_missing_refln_index_k
  _platon_missing_refln_index_l
  _platon_missing_refln_theta
    0    1    0     2.128
    0    0    1     3.014
    0    0    4    12.139
_platon_squeeze_void_probe_radius                  1.20
_platon_squeeze_details
)
TITL a         P 6/m        R = 0.10
CELL   23.9672   23.9672   14.6637     90.00     90.00    120.00
SPGR P6/m
# Solvent Accessible Volume =      1554
# Electrons Found in S.A.V. =       229
# Note: Atoms in Void as Cxxx and Qxxx all others
Q101 0.834 0.122 0.333 !       2.53 eA-3
C102 0.326 0.641 0.507 !       1.98 eA-3
Q103 0.209 0.046 0.689 !       1.85 eA-3
Q104 0.775 0.508-0.005 !       1.82 eA-3
Q105 0.570 0.648 0.498 !       1.65 eA-3
Q106 0.698 0.788 0.202 !       1.52 eA-3
Q107 0.180 0.898 0.141 !       1.42 eA-3
Q108 0.966 0.357 0.084 !       1.42 eA-3
Q109 0.073 0.336 0.510 !       1.36 eA-3
Q110 0.498 0.391 0.502 !       1.31 eA-3
C111 0.333 0.666 0.585 !       1.29 eA-3
Q112 0.585 0.760 0.455 !       1.28 eA-3
Q113 0.698 0.788 0.278 !       1.21 eA-3
Q114 0.710 0.852 0.183 !       1.04 eA-3
C115 0.979 0.099 0.183 !       1.02 eA-3
C116 1.000 1.000 0.000 !       0.98 eA-3
Q117 0.374 0.750 0.503 !       0.95 eA-3
Q118 0.805 0.223 0.421 !       0.92 eA-3
Q119 0.336 0.836-0.002 !       0.92 eA-3
Q120 0.970 0.732 0.185 !       0.90 eA-3
Q121 0.796 0.061 0.331 !       0.90 eA-3
Q122 0.787 0.070 0.007 !       0.88 eA-3
Q123 0.673 0.570 0.503 !       0.84 eA-3
Q124 0.331 0.734 0.500 !       0.81 eA-3
Q125 0.158 0.211 0.813 !       0.77 eA-3
Q126 0.296 0.523-0.004 !       0.76 eA-3
C127 0.332 0.660 0.649 !       0.75 eA-3
C128 1.000 1.000 0.500 !       0.75 eA-3
C129 0.868 0.829 0.178 !       0.74 eA-3
Q130 0.797 0.242-0.004 !       0.72 eA-3
Q131 0.283 0.867 0.000 !       0.71 eA-3
C132 0.869 0.973 0.130 !       0.68 eA-3
Q133 0.861 0.244 0.423 !       0.66 eA-3
C134 0.092 0.006 0.253 !       0.66 eA-3
Q135 0.271 0.237 0.326 !       0.65 eA-3
C136 0.128 0.172-0.002 !       0.64 eA-3
Q137 0.701 0.102 0.507 !       0.64 eA-3
C138 0.150 0.016 0.498 !       0.63 eA-3
Q139 0.592 0.008-0.002 !       0.61 eA-3
Q140 0.251 0.861 0.252 !       0.60 eA-3
Q141 0.015 0.643 0.377 !       0.60 eA-3
Q142 0.272 0.727 0.004 !       0.60 eA-3
C143 0.108 0.021 0.345 !       0.58 eA-3
Q144 0.604 0.013 0.417 !       0.57 eA-3
Q145 0.376 0.424 0.766 !       0.56 eA-3
Q146 0.970 0.423 0.955 !       0.54 eA-3
Q147 0.427 0.461 0.001 !       0.53 eA-3
Q148 0.087 0.745 0.780 !       0.52 eA-3
C149 0.915 0.086 0.002 !       0.52 eA-3
C150 0.057 0.055 0.501 !       0.52 eA-3
Q151 0.157 0.749 0.123 !       0.50 eA-3
)
;
_shelx_fab_checksum              63100
loop_
_space_group_symop_operation_xyz
'x, y, z'
'-y, x-y, z'
'-x+y, -x, z'
'-x, -y, z'
'y, -x+y, z'
'x-y, x, z'
'-x, -y, -z'
'y, -x+y, -z'
'x-y, x, -z'
'x, y, -z'
'-y, x-y, -z'
'-x+y, -x, -z'
loop_
_atom_site_label
_atom_site_type_symbol
_atom_site_fract_x
_atom_site_fract_y
_atom_site_fract_z
_atom_site_U_iso_or_equiv
_atom_site_adp_type
_atom_site_occupancy
_atom_site_site_symmetry_order
_atom_site_calc_flag
_atom_site_refinement_flags_posn
_atom_site_refinement_flags_adp
_atom_site_refinement_flags_occupancy
_atom_site_disorder_assembly
_atom_site_disorder_group
Zn1 Zn 0.24563(3) 0.40985(3) 0.29252(6) 0.0384(3) Uani 1 1 d . . . . .
Zn2 Zn 0.33870(4) 0.36409(4) 0.20722(6) 0.0416(3) Uani 1 1 d . . . . .
O4 O 0.2593(2) 0.33960(18) 0.2687(4) 0.0567(13) Uani 1 1 d . . . . .
O2 O 0.16584(17) 0.67858(17) 0.2403(4) 0.0494(11) Uani 1 1 d . . . . .
O1 O 0.06136(17) 0.60531(18) 0.2373(4) 0.0543(12) Uani 1 1 d . . . . .
O5 O 0.1270(13) 0.3767(12) 0.0000 0.284(10) Uani 1 2 d DS TU P . .
O6 O 0.1664(13) 0.5357(12) 0.5000 0.297(10) Uani 1 2 d DS TU P . .
N1 N 0.0681(2) 0.3914(2) 0.2309(4) 0.0449(12) Uani 1 1 d . . . . .
N2 N 0.1708(2) 0.4169(2) 0.2532(4) 0.0450(12) Uani 1 1 d . . . . .
N6 N 0.3159(3) 0.3579(3) 0.0740(5) 0.0650(16) Uani 1 1 d . . . . .
N3 N 0.2614(4) 0.4303(3) 0.4255(5) 0.0715(18) Uani 1 1 d . . . . .
N4 N 0.2882(6) 0.4928(4) 0.4549(7) 0.111(3) Uani 1 1 d . . . . .
N5 N 0.2572(4) 0.3130(4) 0.0427(6) 0.107(3) Uani 1 1 d . . . . .
N8 N 0.0740(11) 0.4357(11) 0.5000 0.242(9) Uani 1 2 d DS TU P . .
N7 N 0.1942(12) 0.4867(12) 0.0000 0.266(9) Uani 1 2 d DS TU P . .
C2 C 0.0876(2) 0.5050(3) 0.2330(5) 0.0432(13) Uani 1 1 d . . . . .
H2 H 0.0450 0.4944 0.2241 0.052 Uiso 1 1 calc R U . . .
C6 C 0.1690(2) 0.4732(2) 0.2508(5) 0.0451(14) Uani 1 1 d . . . . .
C8 C 0.1205(3) 0.6216(3) 0.2396(5) 0.0441(14) Uani 1 1 d . . . . .
C7 C 0.1095(2) 0.3703(2) 0.2400(5) 0.0458(14) Uani 1 1 d . . . . .
C1 C 0.1049(2) 0.4577(2) 0.2375(5) 0.0397(12) Uani 1 1 d . . . . .
C4 C 0.2007(2) 0.5842(3) 0.2547(7) 0.061(2) Uani 1 1 d . . . . .
H4 H 0.2326 0.6273 0.2593 0.073 Uiso 1 1 calc R U . . .
C5 C 0.2180(3) 0.5374(3) 0.2604(7) 0.063(2) Uani 1 1 d . . . . .
H5 H 0.2605 0.5481 0.2703 0.075 Uiso 1 1 calc R U . . .
C3 C 0.1365(2) 0.5690(2) 0.2423(5) 0.0441(14) Uani 1 1 d . . . . .
C12 C 0.3492(5) 0.3822(5) 0.0000 0.055(2) Uani 1 2 d S T P . .
C10 C 0.2498(5) 0.3993(6) 0.5000 0.062(3) Uani 1 2 d S T P . .
C13 C 0.4198(5) 0.4365(7) 0.0000 0.111(6) Uani 1 2 d S T P . .
H13A H 0.4349 0.4470 -0.0617 0.166 Uiso 0.5 1 calc R U P . .
H13B H 0.4232 0.4738 0.0295 0.166 Uiso 0.5 1 calc R U P . .
H13C H 0.4456 0.4226 0.0322 0.166 Uiso 0.5 1 calc R U P . .
C11 C 0.2226(8) 0.3244(6) 0.5000 0.099(5) Uani 1 2 d S T P . .
H11A H 0.2168 0.3091 0.5617 0.149 Uiso 0.5 1 calc R U P . .
H11B H 0.1820 0.3032 0.4687 0.149 Uiso 0.5 1 calc R U P . .
H11C H 0.2526 0.3151 0.4696 0.149 Uiso 0.5 1 calc R U P . .
C19 C 0.1069(13) 0.5016(11) 0.5000 0.248(9) Uani 1 2 d DS TU P . .
C16 C 0.1330(12) 0.4315(13) 0.0000 0.268(9) Uani 1 2 d DS TU P . .
C17 C 0.1961(18) 0.5469(13) 0.0000 0.264(11) Uani 1 2 d DS TU P . .
C18 C 0.2492(12) 0.4843(16) 0.0000 0.252(10) Uani 1 2 d DS TU P . .
C20 C 0.0052(11) 0.4035(15) 0.5000 0.246(10) Uani 1 2 d DS TU P . .
C21 C 0.1037(14) 0.3993(14) 0.5000 0.241(10) Uani 1 2 d DS TU P . .
O3 O 0.0357(9) 0.2677(8) 0.1832(14) 0.225(7) Uani 0.561(13) 1 d . U P A 1
C9 C 0.0901(3) 0.3004(3) 0.2372(7) 0.0620(19) Uani 0.561(13) 1 d . U P A 1
C15 C 0.0907(12) 0.2746(8) 0.3195(12) 0.101(5) Uani 0.561(13) 1 d . U P A 1
H15A H 0.1309 0.3019 0.3496 0.151 Uiso 0.561(13) 1 calc R U P A 1
H15B H 0.0559 0.2709 0.3563 0.151 Uiso 0.561(13) 1 calc R U P A 1
H15C H 0.0858 0.2327 0.3106 0.151 Uiso 0.561(13) 1 calc R U P A 1
O3A O 0.0357(9) 0.2677(8) 0.1832(14) 0.225(7) Uani 0.439(13) 1 d . . P A 2
C9A C 0.0901(3) 0.3004(3) 0.2372(7) 0.0620(19) Uani 0.439(13) 1 d . . P A 2
C15A C 0.1182(16) 0.2853(10) 0.1670(16) 0.101(5) Uani 0.439(13) 1 d . . P A 2
H15D H 0.1630 0.3020 0.1802 0.151 Uiso 0.439(13) 1 calc R U P A 2
H15E H 0.0972 0.2393 0.1605 0.151 Uiso 0.439(13) 1 calc R U P A 2
H15F H 0.1140 0.3039 0.1114 0.151 Uiso 0.439(13) 1 calc R U P A 2
loop_
_atom_site_aniso_label
_atom_site_aniso_U_11
_atom_site_aniso_U_22
_atom_site_aniso_U_33
_atom_site_aniso_U_23
_atom_site_aniso_U_13
_atom_site_aniso_U_12
Zn1 0.0207(4) 0.0261(4) 0.0714(6) 0.0006(3) 0.0012(3) 0.0138(3)
Zn2 0.0262(4) 0.0281(4) 0.0786(6) 0.0000(3) 0.0006(3) 0.0196(3)
O4 0.029(2) 0.0232(18) 0.121(4) 0.007(2) 0.013(2) 0.0153(16)
O2 0.0166(17) 0.0186(17) 0.111(4) -0.0040(19) 0.0001(19) 0.0073(14)
O1 0.0156(17) 0.0194(17) 0.127(4) 0.001(2) 0.000(2) 0.0081(14)
O5 0.277(15) 0.285(12) 0.276(15) 0.000 0.000 0.130(10)
O6 0.277(13) 0.279(13) 0.302(16) 0.000 0.000 0.113(11)
N1 0.0171(19) 0.019(2) 0.097(4) -0.003(2) -0.003(2) 0.0077(16)
N2 0.0174(19) 0.0175(19) 0.100(4) 0.001(2) 0.002(2) 0.0087(16)
N6 0.050(3) 0.052(3) 0.094(5) -0.004(3) -0.001(3) 0.026(3)
N3 0.089(5) 0.055(4) 0.085(5) -0.001(3) 0.001(4) 0.047(4)
N4 0.170(10) 0.061(4) 0.109(6) 0.003(4) 0.011(6) 0.062(6)
N5 0.050(4) 0.090(6) 0.126(7) 0.006(5) 0.004(4) -0.006(4)
N8 0.243(10) 0.247(10) 0.246(10) 0.000 0.000 0.131(7)
N7 0.271(11) 0.272(10) 0.242(10) 0.000 0.000 0.126(7)
C2 0.015(2) 0.025(2) 0.087(4) -0.003(3) -0.006(2) 0.0080(19)
C6 0.019(2) 0.018(2) 0.098(5) -0.003(3) -0.003(3) 0.0091(19)
C8 0.020(2) 0.023(2) 0.088(4) 0.001(3) -0.001(2) 0.009(2)
C7 0.018(2) 0.024(3) 0.095(5) -0.002(3) 0.000(3) 0.010(2)
C1 0.015(2) 0.019(2) 0.081(4) -0.002(2) -0.001(2) 0.0057(18)
C4 0.015(2) 0.018(2) 0.143(7) -0.012(3) -0.014(3) 0.004(2)
C5 0.016(2) 0.021(3) 0.151(7) -0.007(3) -0.010(3) 0.009(2)
C3 0.016(2) 0.020(2) 0.093(5) -0.004(3) -0.001(2) 0.0068(19)
C12 0.064(6) 0.052(5) 0.063(5) 0.000 0.000 0.040(5)
C10 0.046(5) 0.094(8) 0.050(5) 0.000 0.000 0.037(5)
C13 0.022(4) 0.065(8) 0.21(2) 0.000 0.000 -0.002(5)
C11 0.100(11) 0.044(6) 0.124(12) 0.000 0.000 0.014(7)
C19 0.249(11) 0.250(10) 0.252(11) 0.000 0.000 0.129(7)
C16 0.269(11) 0.272(11) 0.250(11) 0.000 0.000 0.126(7)
C17 0.272(16) 0.271(12) 0.243(16) 0.000 0.000 0.130(10)
C18 0.268(12) 0.270(16) 0.209(16) 0.000 0.000 0.127(10)
C20 0.239(12) 0.241(15) 0.277(17) 0.000 0.000 0.134(10)
C21 0.233(14) 0.260(14) 0.243(16) 0.000 0.000 0.134(11)
O3 0.194(13) 0.169(12) 0.285(15) -0.037(11) 0.002(12) 0.069(10)
C9 0.027(3) 0.032(3) 0.126(6) -0.004(3) -0.002(3) 0.014(2)
C15 0.194(14) 0.058(6) 0.086(8) 0.004(6) 0.013(9) 0.089(8)
O3A 0.194(13) 0.169(12) 0.285(15) -0.037(11) 0.002(12) 0.069(10)
C9A 0.027(3) 0.032(3) 0.126(6) -0.004(3) -0.002(3) 0.014(2)
C15A 0.194(14) 0.058(6) 0.086(8) 0.004(6) 0.013(9) 0.089(8)
loop_
_atom_type_symbol
_atom_type_description
_atom_type_scat_dispersion_real
_atom_type_scat_dispersion_imag
_atom_type_scat_source
C C 0.0181 0.0091 'International Tables Vol C Tables 4.2.6.8 and 6.1.1.4'
H H 0.0000 0.0000 'International Tables Vol C Tables 4.2.6.8 and 6.1.1.4'
N N 0.0311 0.0180 'International Tables Vol C Tables 4.2.6.8 and 6.1.1.4'
O O 0.0492 0.0322 'International Tables Vol C Tables 4.2.6.8 and 6.1.1.4'
Zn Zn -1.5491 0.6778 'International Tables Vol C Tables 4.2.6.8 and 6.1.1.4'
loop_
_geom_angle_atom_site_label_1
_geom_angle_atom_site_label_2
_geom_angle_atom_site_label_3
_geom_angle
_geom_angle_site_symmetry_1
_geom_angle_site_symmetry_3
O4 Zn1 N2 126.1(2) . .
O4 Zn1 O2 105.88(17) . 2_665
N2 Zn1 O2 104.66(18) . 2_665
O4 Zn1 N3 107.5(3) . .
N2 Zn1 N3 109.4(3) . .
O2 Zn1 N3 100.0(3) 2_665 .
O4 Zn2 N1 123.3(2) . 5
O4 Zn2 O1 104.72(18) . 2_665
N1 Zn2 O1 105.47(18) 5 2_665
O4 Zn2 N6 104.1(3) . .
N1 Zn2 N6 110.5(3) 5 .
O1 Zn2 N6 107.9(2) 2_665 .
Zn1 O4 Zn2 113.6(2) . .
C8 O2 Zn1 126.7(4) . 3_565
C8 O1 Zn2 126.7(4) . 3_565
C7 N1 C1 105.1(4) . .
C7 N1 Zn2 126.8(4) . 6
C1 N1 Zn2 128.1(3) . 6
C7 N2 C6 104.8(4) . .
C7 N2 Zn1 129.4(4) . .
C6 N2 Zn1 124.7(4) . .
C12 N6 N5 103.5(8) . .
C12 N6 Zn2 134.0(6) . .
N5 N6 Zn2 121.5(6) . .
C10 N3 N4 102.4(8) . .
C10 N3 Zn1 137.3(7) . .
N4 N3 Zn1 120.1(6) . .
N4 N4 N3 108.3(5) 10_556 .
N5 N5 N6 109.8(5) 10 .
C19 N8 C21 123.5(12) . .
C19 N8 C20 117.8(13) . .
C21 N8 C20 118.7(12) . .
C18 N7 C16 122.9(13) . .
C18 N7 C17 120.6(13) . .
C16 N7 C17 116.5(13) . .
C1 C2 C3 117.6(5) . .
C1 C2 H2 121.2 . .
C3 C2 H2 121.2 . .
N2 C6 C1 108.2(4) . .
N2 C6 C5 131.2(5) . .
C1 C6 C5 120.6(5) . .
O2 C8 O1 124.2(5) . .
O2 C8 C3 118.3(5) . .
O1 C8 C3 117.4(5) . .
N1 C7 N2 114.4(5) . .
N1 C7 C9A 123.3(5) . .
N2 C7 C9A 122.3(5) . .
N1 C7 C9 123.3(5) . .
N2 C7 C9 122.3(5) . .
C2 C1 N1 130.8(5) . .
C2 C1 C6 121.7(5) . .
N1 C1 C6 107.5(4) . .
C5 C4 C3 122.1(5) . .
C5 C4 H4 118.9 . .
C3 C4 H4 118.9 . .
C4 C5 C6 117.5(5) . .
C4 C5 H5 121.3 . .
C6 C5 H5 121.3 . .
C2 C3 C4 120.4(5) . .
C2 C3 C8 119.9(5) . .
C4 C3 C8 119.7(5) . .
N6 C12 N6 113.3(10) . 10
N6 C12 C13 123.3(5) . .
N6 C12 C13 123.3(5) 10 .
N3 C10 N3 118.4(12) . 10_556
N3 C10 C11 120.8(6) . .
N3 C10 C11 120.8(6) 10_556 .
C12 C13 H13A 109.5 . .
C12 C13 H13B 109.5 . .
H13A C13 H13B 109.5 . .
C12 C13 H13C 109.5 . .
H13A C13 H13C 109.5 . .
H13B C13 H13C 109.5 . .
C10 C11 H11A 109.5 . .
C10 C11 H11B 109.5 . .
H11A C11 H11B 109.5 . .
C10 C11 H11C 109.5 . .
H11A C11 H11C 109.5 . .
H11B C11 H11C 109.5 . .
O6 C19 N8 124.7(17) . .
O5 C16 N7 120.7(15) . .
C15 C9 O3 118.1(14) . .
C15 C9 C7 114.6(9) . .
O3 C9 C7 109.1(9) . .
C9 C15 H15A 109.5 . .
C9 C15 H15B 109.5 . .
H15A C15 H15B 109.5 . .
C9 C15 H15C 109.5 . .
H15A C15 H15C 109.5 . .
H15B C15 H15C 109.5 . .
C9A O3A C15A 48.5(10) . .
O3A C9A C15A 82.5(15) . .
O3A C9A C7 109.1(9) . .
C15A C9A C7 113.3(10) . .
C9A C15A O3A 49.0(12) . .
C9A C15A H15D 109.5 . .
O3A C15A H15D 158.5 . .
C9A C15A H15E 109.5 . .
O3A C15A H15E 82.1 . .
H15D C15A H15E 109.5 . .
C9A C15A H15F 109.5 . .
O3A C15A H15F 82.1 . .
H15D C15A H15F 109.5 . .
H15E C15A H15F 109.5 . .
loop_
_geom_bond_atom_site_label_1
_geom_bond_atom_site_label_2
_geom_bond_distance
_geom_bond_site_symmetry_2
Zn1 O4 1.902(4) .
Zn1 N2 1.970(4) .
Zn1 O2 1.990(4) 2_665
Zn1 N3 2.001(8) .
Zn2 O4 1.913(4) .
Zn2 N1 1.975(4) 5
Zn2 O1 1.974(4) 2_665
Zn2 N6 2.013(7) .
O2 C8 1.250(7) .
O2 Zn1 1.990(4) 3_565
O1 C8 1.269(7) .
O1 Zn2 1.974(4) 3_565
O5 C16 1.247(10) .
O6 C19 1.240(10) .
N1 C7 1.329(7) .
N1 C1 1.381(6) .
N1 Zn2 1.975(4) 6
N2 C7 1.342(7) .
N2 C6 1.371(7) .
N6 C12 1.300(9) .
N6 N5 1.355(10) .
N3 C10 1.271(10) .
N3 N4 1.370(10) .
N4 N4 1.323(19) 10_556
N5 N5 1.253(18) 10
N8 C19 1.367(15) .
N8 C21 1.375(16) .
N8 C20 1.429(15) .
N7 C18 1.349(16) .
N7 C16 1.400(16) .
N7 C17 1.422(15) .
C2 C1 1.391(7) .
C2 C3 1.395(7) .
C2 H2 0.9300 .
C6 C1 1.402(7) .
C6 C5 1.401(7) .
C8 C3 1.488(7) .
C7 C9A 1.498(8) .
C7 C9 1.498(8) .
C4 C5 1.379(8) .
C4 C3 1.406(7) .
C4 H4 0.9300 .
C5 H5 0.9300 .
C12 N6 1.300(9) 10
C12 C13 1.534(15) .
C10 N3 1.271(10) 10_556
C10 C11 1.574(18) .
C13 H13A 0.9600 .
C13 H13B 0.9600 .
C13 H13C 0.9600 .
C11 H11A 0.9600 .
C11 H11B 0.9600 .
C11 H11C 0.9600 .
O3 C9 1.386(19) .
C9 C15 1.360(19) .
C15 H15A 0.9600 .
C15 H15B 0.9600 .
C15 H15C 0.9600 .
O3A C9A 1.386(19) .
O3A C15A 1.82(3) .
C9A C15A 1.38(2) .
C15A H15D 0.9600 .
C15A H15E 0.9600 .
C15A H15F 0.9600 .
