#------------------------------------------------------------------------------
#$Date: 2017-04-06 05:36:38 +0300 (Thu, 06 Apr 2017) $
#$Revision: 195226 $
#$URL: file:///home/coder/svn-repositories/cod/cif/7/22/80/7228003.cif $
#------------------------------------------------------------------------------
#
# This file is available in the Crystallography Open Database (COD),
# http://www.crystallography.net/
#
# All data on this site have been placed in the public domain by the
# contributors.
#
data_7228003
loop_
_publ_author_name
'Tang, Yu-Huan'
'Wu, Xin'
'Wang, Fei'
'Zhang, Jian'
_publ_section_title
;
 Sythesis of Zeolite-like Metal-organic Frameworks from a Dual-ligand
 Strategy
;
_journal_name_full               CrystEngComm
_journal_paper_doi               10.1039/C7CE00332C
_journal_year                    2017
_chemical_formula_sum            'C15 H18 N7 O6 Zn2'
_chemical_formula_weight         523.10
_space_group_crystal_system      monoclinic
_space_group_IT_number           14
_space_group_name_Hall           '-P 2ybc'
_space_group_name_H-M_alt        'P 1 21/c 1'
_symmetry_space_group_name_Hall  '-P 2ybc'
_symmetry_space_group_name_H-M   'P 1 21/c 1'
_atom_sites_solution_hydrogens   mixed
_audit_creation_method           SHELXL-2014/6
_audit_update_record
;
2017-03-31 deposited with the CCDC.
2017-04-05 downloaded from the CCDC.
;
_cell_angle_alpha                90
_cell_angle_beta                 97.092(3)
_cell_angle_gamma                90
_cell_formula_units_Z            4
_cell_length_a                   7.7565(2)
_cell_length_b                   16.3013(5)
_cell_length_c                   18.1525(5)
_cell_measurement_reflns_used    4432
_cell_measurement_temperature    100
_cell_measurement_theta_max      73.0470
_cell_measurement_theta_min      4.9190
_cell_volume                     2277.66(11)
_computing_cell_refinement       'CrysAlisPro 1.171.38.41 (Rigaku OD, 2015)'
_computing_data_collection       'CrysAlisPro 1.171.38.41 (Rigaku OD, 2015)'
_computing_data_reduction        'CrysAlisPro 1.171.38.41 (Rigaku OD, 2015)'
_computing_molecular_graphics    'SHELXL-2014/6 (Sheldrick, 2014)'
_computing_publication_material  'SHELXL-2014/6 (Sheldrick, 2014)'
_computing_structure_refinement  'SHELXL-2014/6 (Sheldrick, 2014)'
_computing_structure_solution    'SHELXL-2014/6 (Sheldrick, 2014)'
_diffrn_ambient_temperature      100
_diffrn_measured_fraction_theta_full 1.000
_diffrn_measured_fraction_theta_max 0.998
_diffrn_measurement_device_type  'SuperNova, Dual, Cu at zero, Atlas'
_diffrn_measurement_method       '\w scans'
_diffrn_radiation_type           CuK\a
_diffrn_radiation_wavelength     1.54178
_diffrn_reflns_av_R_equivalents  0.0247
_diffrn_reflns_av_unetI/netI     0.0308
_diffrn_reflns_Laue_measured_fraction_full 1.000
_diffrn_reflns_Laue_measured_fraction_max 0.998
_diffrn_reflns_limit_h_max       9
_diffrn_reflns_limit_h_min       -7
_diffrn_reflns_limit_k_max       19
_diffrn_reflns_limit_k_min       -18
_diffrn_reflns_limit_l_max       21
_diffrn_reflns_limit_l_min       -20
_diffrn_reflns_number            8823
_diffrn_reflns_point_group_measured_fraction_full 1.000
_diffrn_reflns_point_group_measured_fraction_max 0.998
_diffrn_reflns_theta_full        67.679
_diffrn_reflns_theta_max         68.493
_diffrn_reflns_theta_min         3.657
_diffrn_standards_decay_%        none
_diffrn_standards_interval_count none
_diffrn_standards_interval_time  none
_diffrn_standards_number         none
_exptl_absorpt_coefficient_mu    2.981
_exptl_absorpt_correction_T_max  1.00000
_exptl_absorpt_correction_T_min  0.84220
_exptl_absorpt_correction_type   multi-scan
_exptl_crystal_colour            brown
_exptl_crystal_density_diffrn    1.525
_exptl_crystal_description       block
_exptl_crystal_F_000             1060
_exptl_crystal_size_max          0.37
_exptl_crystal_size_mid          0.3
_exptl_crystal_size_min          0.28
_refine_diff_density_max         1.547
_refine_diff_density_min         -0.595
_refine_diff_density_rms         0.135
_refine_ls_extinction_method     none
_refine_ls_goodness_of_fit_ref   0.829
_refine_ls_hydrogen_treatment    constr
_refine_ls_matrix_type           full
_refine_ls_number_parameters     284
_refine_ls_number_reflns         4191
_refine_ls_number_restraints     13
_refine_ls_restrained_S_all      0.828
_refine_ls_R_factor_all          0.0683
_refine_ls_R_factor_gt           0.0645
_refine_ls_shift/su_max          0.053
_refine_ls_shift/su_mean         0.001
_refine_ls_structure_factor_coef Fsqd
_refine_ls_weighting_details
'w=1/[\s^2^(Fo^2^)+(0.1125P)^2^+30.5977P] where P=(Fo^2^+2Fc^2^)/3'
_refine_ls_weighting_scheme      calc
_refine_ls_wR_factor_gt          0.1825
_refine_ls_wR_factor_ref         0.1852
_reflns_Friedel_coverage         0.000
_reflns_number_gt                3857
_reflns_number_total             4191
_reflns_threshold_expression     'I > 2\s(I)'
_cod_data_source_file            c7ce00332c2.cif
_cod_data_source_block           A_SQ
_cod_database_code               7228003
_shelx_space_group_comment
;
The symmetry employed for this shelxl refinement is uniquely defined
by the following loop, which should always be used as a source of
symmetry information in preference to the above space-group names.
They are only intended as comments.
;
_shelxl_version_number           2014/6
_shelx_res_file
;
TITL A in P2(1)/c
CELL 1.54178 7.7565 16.3013 18.1525 90 97.092 90
ZERR 4 0.0002 0.0005 0.0005 0 0.003 0
LATT 1
SYMM -X,0.5+Y,0.5-Z
SFAC C H N O Zn
UNIT 60 72 28 24 8
DELU C8 C9
SIMU C8 C9
exyz c8 c8a
eadp c8 c8a
exyz o3 o3a
eadp o3 o3a
L.S. 10
PLAN  20
BOND $H
ISOR O6
HTAB
ACTA
FMAP 2
OMIT 0 137
ABIN
WGHT    0.112480   30.597666
FVAR       0.32840   0.31041
ZN1   5    0.237574    0.822951    0.267762    11.00000    0.02805    0.01447 =
         0.01744   -0.00272    0.00469   -0.00157
ZN2   5   -0.037287    0.973026    0.289083    11.00000    0.02769    0.01467 =
         0.01855   -0.00032    0.00289    0.00385
O2    4    0.196380    0.683540   -0.128281    11.00000    0.04134    0.02028 =
         0.01556    0.00125    0.00578   -0.00598
O4    4    0.131688    0.924314    0.232895    11.00000    0.03127    0.01798 =
         0.02310    0.00054    0.00669    0.00098
O1    4    0.071099    0.564188   -0.105255    11.00000    0.03358    0.01894 =
         0.01640   -0.00168    0.00010   -0.00526
N2    3    0.180864    0.718013    0.215911    11.00000    0.03102    0.01509 =
         0.01826   -0.00090    0.00465   -0.00298
N6    3   -0.503800    0.842116    0.270141    11.00000    0.03333    0.01566 =
         0.02911   -0.00630    0.00640   -0.00105
C7    1    0.129390    0.644753    0.239896    11.00000    0.02750    0.01834 =
         0.01851   -0.00102    0.00501    0.00186
C1    1    0.119639    0.629128    0.121221    11.00000    0.02087    0.01715 =
         0.01750    0.00142    0.00278    0.00147
N3    3   -0.248848    0.899505    0.277799    11.00000    0.02822    0.02137 =
         0.02569   -0.00545    0.00270    0.00059
C10   1    0.137559    0.632686   -0.085468    11.00000    0.02579    0.01260 =
         0.01961    0.00211    0.00145    0.00293
N1    3    0.093108    0.588807    0.186518    11.00000    0.02530    0.01477 =
         0.01761   -0.00043    0.00423   -0.00559
C2    1    0.106117    0.601633    0.047475    11.00000    0.02427    0.01411 =
         0.02047    0.00026    0.00029   -0.00244
AFIX  43
H2    2    0.068947    0.548731    0.034583    11.00000   -1.20000
AFIX   0
C4    1    0.207031    0.737110    0.014632    11.00000    0.03925    0.01830 =
         0.01881    0.00199    0.00394   -0.00446
AFIX  43
H4    2    0.236481    0.772609   -0.021927    11.00000   -1.20000
AFIX   0
C3    1    0.150511    0.656655   -0.005457    11.00000    0.02250    0.01751 =
         0.01900   -0.00119    0.00168    0.00169
C6    1    0.175031    0.708590    0.140237    11.00000    0.02378    0.01667 =
         0.01991   -0.00408    0.00336    0.00069

C5    1    0.219389    0.763954    0.086772    11.00000    0.04797    0.01555 =
         0.02305   -0.00400    0.00678   -0.00458
AFIX  43
H5    2    0.255885    0.816961    0.099623    11.00000   -1.20000
AFIX   0

O5    4   -0.206655    0.828420    0.015360    11.00000    0.08807    0.04748 =
         0.06760    0.00303    0.01878   -0.01795
N7    3   -0.303789    0.701593    0.036824    11.00000    0.03232    0.04330 =
         0.03362    0.00116    0.00639    0.00545
N5    3   -0.390224    0.788526    0.249897    11.00000    0.02695    0.02867 =
         0.07136   -0.00927    0.01286   -0.00284
C15   1   -0.238947    0.774469    0.058419    11.00000    0.05606    0.05295 =
         0.04269   -0.00300    0.01073   -0.00019
AFIX  43
H15   2   -0.216951    0.784975    0.109065    11.00000   -1.20000
AFIX   0
C13   1   -0.337552    0.679537   -0.040765    11.00000    0.05589    0.06510 =
         0.04057   -0.00997    0.00245   -0.00771
AFIX  33
H13A  2   -0.383831    0.624895   -0.045201    11.00000   -1.50000
H13B  2   -0.419992    0.717201   -0.065871    11.00000   -1.50000
H13C  2   -0.231251    0.681870   -0.062738    11.00000   -1.50000
AFIX   0

C11   1   -0.413618    0.910757    0.286344    11.00000    0.02480    0.02227 =
         0.03456   -0.00830    0.00037    0.00078
N4    3   -0.235647    0.820825    0.254606    11.00000    0.03954    0.01820 =
         0.07990   -0.01591    0.01673    0.00141
C14   1   -0.345947    0.642459    0.090934    11.00000    0.04326    0.05136 =
         0.05580    0.01612    0.01036    0.00810
AFIX  33
H14A  2   -0.390938    0.593606    0.066016    11.00000   -1.50000
H14B  2   -0.243180    0.629270    0.123882    11.00000   -1.50000
H14C  2   -0.431783    0.665141    0.118921    11.00000   -1.50000
AFIX   0

C12   1   -0.487766    0.987200    0.314237    11.00000    0.03957    0.03981 =
         0.12138   -0.03706    0.01676   -0.00552
AFIX  33
H12A  2   -0.610284    0.980192    0.315412    11.00000   -1.50000
H12B  2   -0.432378    0.998753    0.363393    11.00000   -1.50000
H12C  2   -0.468498    1.031997    0.281911    11.00000   -1.50000
AFIX   6

O6    4    2.990562    0.544207    0.566984    11.00000    0.12252    0.05857 =
         0.08606    0.03591    0.05433    0.03319
H6A   2    2.984836    0.565625    0.609300    11.00000   -1.50000
H6B   2    2.920508    0.568665    0.534530    11.00000   -1.50000
AFIX   0

PART   1
O3    4    0.147950    0.538138    0.326536    21.00000    0.08204    0.03205 =
         0.03208    0.00465    0.00837   -0.00680
C8    1    0.121767    0.625426    0.320366    21.00000    0.06961    0.01781 =
         0.01942    0.00165    0.00720   -0.00679
C9    1    0.333759    0.623182    0.356533    21.00000    0.08104    0.02499 =
         0.02404   -0.00767   -0.00769    0.01236
PART   2
O3A   4    0.147950    0.538138    0.326536   -21.00000    0.08204    0.03205 =
         0.03208    0.00465    0.00837   -0.00680
C8A   1    0.121767    0.625426    0.320366   -21.00000    0.06961    0.01781 =
         0.01942    0.00165    0.00720   -0.00679
C9A   1   -0.066799    0.642107    0.340663   -21.00000    0.05186    0.03708 =
         0.03296    0.00762    0.01911    0.00572
PART   0
HKLF 4

REM  A in P2(1)/c
REM R1 =  0.0645 for    3857 Fo > 4sig(Fo)  and  0.0683 for all    4191 data
REM    284 parameters refined using     13 restraints

END

WGHT      0.0677     16.2914

REM Instructions for potential hydrogen bonds
EQIV $1 -x, -y+1, -z
HTAB C2 O1_$1
EQIV $2 x-1, y, z
HTAB C12 O4_$2
EQIV $3 x+3, -y+3/2, z+1/2
HTAB O6 O4_$3
HTAB O6 O5_$3

REM Highest difference peak  1.547,  deepest hole -0.595,  1-sigma level  0.135
Q1    1   0.0165  0.5621  0.3286  11.00000  0.05    1.55
Q2    1  -0.2751  0.6336  0.3514  11.00000  0.05    1.47
Q3    1   0.2360  0.6800 -0.1771  11.00000  0.05    1.35
Q4    1  -0.0352  0.9762  0.2354  11.00000  0.05    1.08
Q5    1   0.2214  0.8223  0.2136  11.00000  0.05    1.07
Q6    1  -0.1029  0.8212  0.2761  11.00000  0.05    0.95
Q7    1  -0.0443  0.9718  0.3421  11.00000  0.05    0.81
Q8    1  -0.3940  0.9756  0.2624  11.00000  0.05    0.70
Q9    1  -0.7333  0.9762  0.2811  11.00000  0.05    0.70
Q10   1   0.1130  0.9363  0.1900  11.00000  0.05    0.69
Q11   1  -0.4765  0.6309  0.0800  11.00000  0.05    0.60
Q12   1   0.2174  0.6419  0.3495  11.00000  0.05    0.57
Q13   1  -0.1519  0.6129  0.3112  11.00000  0.05    0.57
Q14   1   0.1217  0.8815  0.2305  11.00000  0.05    0.52
Q15   1  -0.6288  0.8257  0.2733  11.00000  0.05    0.51
Q16   1   0.1191  0.6351  0.2843  11.00000  0.05    0.50
Q17   1  -0.1856  0.9633  0.2847  11.00000  0.05    0.48
Q18   1  -0.3028  0.6655  0.1426  11.00000  0.05    0.48
Q19   1   0.0893  0.8270  0.2618  11.00000  0.05    0.48
Q20   1  -0.0847  0.7039  0.3237  11.00000  0.05    0.47
;
_shelx_res_checksum              10941
_shelx_fab_file
;
    1    0    0    -38.28      0.00
    2    0    0      9.84      0.00
    3    0    0     -5.37      0.00
    4    0    0      7.93      0.00
    5    0    0     -3.62      0.00
    6    0    0      0.15      0.00
    7    0    0      0.75      0.00
    8    0    0     -0.91      0.00
    9    0    0     -0.04      0.00
    1    1    0      2.03      0.00
    2    1    0     -0.95      0.00
    3    1    0     -0.90      0.00
    4    1    0      0.85      0.00
    5    1    0      0.01      0.00
    6    1    0     -0.25      0.00
    7    1    0      0.02      0.00
    8    1    0      0.29      0.00
    9    1    0     -0.37      0.00
    0    2    0     45.44      0.00
    1    2    0    -28.58      0.00
    2    2    0      5.59      0.00
    3    2    0     -3.47      0.00
    4    2    0      6.40      0.00
    5    2    0     -2.70      0.00
    6    2    0     -0.04      0.00
    7    2    0      0.63      0.00
    8    2    0     -0.90      0.00
    9    2    0      0.06      0.00
    1    3    0      4.86      0.00
    2    3    0     -2.28      0.00
    3    3    0     -1.79      0.00
    4    3    0      1.07      0.00
    5    3    0      1.17      0.00
    6    3    0     -1.47      0.00
    7    3    0      0.69      0.00
    8    3    0      0.18      0.00
    9    3    0     -0.56      0.00
    0    4    0     21.89      0.00
    1    4    0    -11.93      0.00
    2    4    0     -0.33      0.00
    3    4    0     -1.12      0.00
    4    4    0      4.09      0.00
    5    4    0     -1.72      0.00
    6    4    0      0.49      0.00
    7    4    0     -0.33      0.00
    8    4    0     -0.59      0.00
    9    4    0      0.40      0.00
    1    5    0      5.25      0.00
    2    5    0     -2.13      0.00
    3    5    0     -2.00      0.00
    4    5    0      0.47      0.00
    5    5    0      1.92      0.00
    6    5    0     -1.69      0.00
    7    5    0      0.90      0.00
    8    5    0     -0.27      0.00
    0    6    0      6.64      0.00
    1    6    0     -2.36      0.00
    2    6    0     -2.15      0.00
    3    6    0     -0.12      0.00
    4    6    0      2.20      0.00
    5    6    0     -1.12      0.00
    6    6    0      1.17      0.00
    7    6    0     -1.37      0.00
    8    6    0     -0.11      0.00
    1    7    0      4.04      0.00
    2    7    0     -1.10      0.00
    3    7    0     -2.18      0.00
    4    7    0      0.70      0.00
    5    7    0      0.70      0.00
    6    7    0      0.08      0.00
    7    7    0     -0.21      0.00
    8    7    0     -0.15      0.00
    0    8    0      0.16      0.00
    1    8    0      1.17      0.00
    2    8    0     -2.49      0.00
    3    8    0      1.27      0.00
    4    8    0     -0.09      0.00
    5    8    0      0.39      0.00
    6    8    0      0.21      0.00
    7    8    0     -1.03      0.00
    8    8    0      0.08      0.00
    1    9    0      2.67      0.00
    2    9    0     -0.51      0.00
    3    9    0     -1.52      0.00
    4    9    0      0.16      0.00
    5    9    0      0.57      0.00
    6    9    0      0.42      0.00
    7    9    0     -0.40      0.00
    8    9    0     -0.23      0.00
    0   10    0     -0.65      0.00
    1   10    0      0.89      0.00
    2   10    0     -1.41      0.00
    3   10    0      1.29      0.00
    4   10    0     -0.83      0.00
    5   10    0      1.10      0.00
    6   10    0     -0.65      0.00
    7   10    0     -0.58      0.00
    8   10    0      0.33      0.00
    1   11    0      1.72      0.00
    2   11    0     -0.24      0.00
    3   11    0     -0.95      0.00
    4   11    0     -0.39      0.00
    5   11    0      1.28      0.00
    6   11    0     -0.57      0.00
    7   11    0      0.20      0.00
    0   12    0      0.19      0.00
    1   12    0     -0.40      0.00
    2   12    0      0.32      0.00
    3   12    0      0.00      0.00
    4   12    0     -0.09      0.00
    5   12    0      0.55      0.00
    6   12    0     -0.34      0.00
    7   12    0     -0.75      0.00
    1   13    0      1.34      0.00
    2   13    0      0.00      0.00
    3   13    0     -1.28      0.00
    4   13    0      0.30      0.00
    5   13    0      0.81      0.00
    6   13    0     -0.53      0.00
    0   14    0     -1.18      0.00
    1   14    0      0.61      0.00
    2   14    0      0.06      0.00
    3   14    0     -0.09      0.00
    4   14    0     -0.11      0.00
    5   14    0      0.38      0.00
    6   14    0     -0.13      0.00
    1   15    0      1.48      0.00
    2   15    0     -0.26      0.00
    3   15    0     -1.11      0.00
    4   15    0      0.35      0.00
    5   15    0      0.68      0.00
    0   16    0     -1.74      0.00
    1   16    0      1.12      0.00
    2   16    0     -0.17      0.00
    3   16    0     -0.05      0.00
    4   16    0     -0.18      0.00
    5   16    0      0.20      0.00
    1   17    0      1.50      0.00
    2   17    0     -0.50      0.00
    3   17    0     -0.58      0.00
    4   17    0     -0.18      0.00
    0   18    0     -0.56      0.00
    1   18    0      0.22      0.00
    2   18    0      0.37      0.00
    3   18    0     -0.43      0.00
    1   19    0      0.94      0.00
    2   19    0     -0.17      0.00
   -9    1    1     -0.05      0.00
   -8    1    1     -0.92      0.00
   -7    1    1      0.94      0.00
   -6    1    1     -0.58      0.00
   -5    1    1     -2.23      0.00
   -4    1    1      7.65      0.00
   -3    1    1     -5.58      0.00
   -2    1    1      3.71      0.00
   -1    1    1    -24.56      0.00
    0    1    1     48.83      0.00
    1    1    1    -39.64      0.00
    2    1    1     13.81      0.00
    3    1    1     -4.85      0.00
    4    1    1      5.93      0.00
    5    1    1     -3.16      0.00
    6    1    1      0.33      0.00
    7    1    1      0.71      0.00
    8    1    1     -1.05      0.00
    9    1    1      0.21      0.00
   -9    2    1      0.68      0.00
   -8    2    1     -0.58      0.00
   -7    2    1     -0.25      0.00
   -6    2    1      1.26      0.00
   -5    2    1     -1.60      0.00
   -4    2    1      0.05      0.00
   -3    2    1      1.20      0.00
   -2    2    1      1.71      0.00
   -1    2    1     -5.16      0.00
    0    2    1      2.79      0.00
    1    2    1      2.00      0.00
    2    2    1     -2.06      0.00
    3    2    1     -1.05      0.00
    4    2    1      1.98      0.00
    5    2    1     -0.64      0.00
    6    2    1     -0.38      0.00
    7    2    1      0.30      0.00
    8    2    1      0.19      0.00
    9    2    1     -0.42      0.00
   -9    3    1      0.19      0.00
   -8    3    1     -0.99      0.00
   -7    3    1      0.91      0.00
   -6    3    1     -1.02      0.00
   -5    3    1     -0.73      0.00
   -4    3    1      4.94      0.00
   -3    3    1     -2.59      0.00
   -2    3    1     -1.35      0.00
   -1    3    1    -11.88      0.00
    0    3    1     29.52      0.00
    1    3    1    -23.81      0.00
    2    3    1      6.78      0.00
    3    3    1     -2.47      0.00
    4    3    1      4.49      0.00
    5    3    1     -2.78      0.00
    6    3    1      1.13      0.00
    7    3    1     -0.39      0.00
    8    3    1     -0.55      0.00
    9    3    1      0.24      0.00
   -9    4    1      0.80      0.00
   -8    4    1     -0.52      0.00
   -7    4    1     -0.55      0.00
   -6    4    1      1.89      0.00
   -5    4    1     -2.70      0.00
   -4    4    1      0.36      0.00
   -3    4    1      2.58      0.00
   -2    4    1      0.66      0.00
   -1    4    1     -5.72      0.00
    0    4    1      2.64      0.00
    1    4    1      4.11      0.00
    2    4    1     -4.04      0.00
    3    4    1     -0.31      0.00
    4    4    1      1.18      0.00
    5    4    1      0.80      0.00
    6    4    1     -1.66      0.00
    7    4    1      1.05      0.00
    8    4    1     -0.22      0.00
    9    4    1     -0.24      0.00
   -9    5    1      0.20      0.00
   -8    5    1     -0.14      0.00
   -7    5    1     -0.64      0.00
   -6    5    1      0.18      0.00
   -5    5    1     -0.43      0.00
   -4    5    1      2.74      0.00
   -3    5    1     -0.69      0.00
   -2    5    1     -3.71      0.00
   -1    5    1     -1.64      0.00
    0    5    1     10.95      0.00
    1    5    1     -8.64      0.00
    2    5    1      1.00      0.00
    3    5    1     -0.64      0.00
    4    5    1      2.79      0.00
    5    5    1     -2.10      0.00
    6    5    1      1.65      0.00
    7    5    1     -1.18      0.00
    8    5    1     -0.45      0.00
   -8    6    1     -0.23      0.00
   -7    6    1     -0.17      0.00
   -6    6    1      0.82      0.00
   -5    6    1     -2.11      0.00
   -4    6    1      0.53      0.00
   -3    6    1      2.86      0.00
   -2    6    1     -0.57      0.00
   -1    6    1     -4.60      0.00
    0    6    1      2.47      0.00
    1    6    1      3.57      0.00
    2    6    1     -3.38      0.00
    3    6    1     -0.61      0.00
    4    6    1      1.16      0.00
    5    6    1      0.41      0.00
    6    6    1     -0.60      0.00
    7    6    1      0.20      0.00
    8    6    1     -0.16      0.00
   -8    7    1      0.49      0.00
   -7    7    1     -1.63      0.00
   -6    7    1      0.85      0.00
   -5    7    1     -0.02      0.00
   -4    7    1      0.65      0.00
   -3    7    1      0.75      0.00
   -2    7    1     -3.37      0.00
   -1    7    1      1.76      0.00
    0    7    1      1.80      0.00
    1    7    1     -1.12      0.00
    2    7    1     -1.26      0.00
    3    7    1      0.42      0.00
    4    7    1      1.14      0.00
    5    7    1     -0.91      0.00
    6    7    1      0.87      0.00
    7    7    1     -0.83      0.00
    8    7    1     -0.46      0.00
   -8    8    1     -0.06      0.00
   -7    8    1      0.37      0.00
   -6    8    1     -0.48      0.00
   -5    8    1     -0.93      0.00
   -4    8    1      0.45      0.00
   -3    8    1      2.33      0.00
   -2    8    1     -1.02      0.00
   -1    8    1     -3.38      0.00
    0    8    1      2.50      0.00
    1    8    1      1.98      0.00
    2    8    1     -2.02      0.00
    3    8    1     -0.90      0.00
    4    8    1      1.33      0.00
    5    8    1     -0.57      0.00
    6    8    1      0.89      0.00
    7    8    1     -0.77      0.00
    8    8    1     -0.06      0.00
   -8    9    1      0.38      0.00
   -7    9    1     -1.20      0.00
   -6    9    1      0.16      0.00
   -5    9    1      0.78      0.00
   -4    9    1     -0.85      0.00
   -3    9    1      1.72      0.00
   -2    9    1     -2.42      0.00
   -1    9    1      1.63      0.00
    0    9    1     -0.75      0.00
    1    9    1      1.01      0.00
    2    9    1     -1.59      0.00
    3    9    1      1.02      0.00
    4    9    1     -0.05      0.00
    5    9    1      0.28      0.00
    6    9    1     -0.47      0.00
    7    9    1     -0.13      0.00
    8    9    1     -0.06      0.00
   -8   10    1     -0.02      0.00
   -7   10    1      0.31      0.00
   -6   10    1     -0.38      0.00
   -5   10    1     -0.70      0.00
   -4   10    1      0.31      0.00
   -3   10    1      2.09      0.00
   -2   10    1     -1.74      0.00
   -1   10    1     -1.38      0.00
    0   10    1      1.21      0.00
    1   10    1      1.90      0.00
    2   10    1     -2.21      0.00
    3   10    1      0.32      0.00
    4   10    1     -0.11      0.00
    5   10    1      0.62      0.00
    6   10    1     -0.17      0.00
    7   10    1      0.08      0.00
   -7   11    1     -1.13      0.00
   -6   11    1      0.25      0.00
   -5   11    1      0.23      0.00
   -4   11    1     -0.22      0.00
   -3   11    1      0.61      0.00
   -2   11    1     -0.23      0.00
   -1   11    1     -0.42      0.00
    0   11    1      0.18      0.00
    1   11    1      0.27      0.00
    2   11    1     -0.67      0.00
    3   11    1      0.75      0.00
    4   11    1     -0.37      0.00
    5   11    1      0.74      0.00
    6   11    1     -1.01      0.00
    7   11    1      0.05      0.00
   -7   12    1      0.29      0.00
   -6   12    1     -0.02      0.00
   -5   12    1     -0.63      0.00
   -4   12    1      0.01      0.00
   -3   12    1      1.84      0.00
   -2   12    1     -1.68      0.00
   -1   12    1     -0.53      0.00
    0   12    1      0.56      0.00
    1   12    1      1.59      0.00
    2   12    1     -1.70      0.00
    3   12    1      0.10      0.00
    4   12    1     -0.09      0.00
    5   12    1      0.98      0.00
    6   12    1     -0.90      0.00
    7   12    1      0.55      0.00
   -6   13    1      0.46      0.00
   -5   13    1     -0.20      0.00
   -4   13    1      0.16      0.00
   -3   13    1     -0.12      0.00
   -2   13    1      0.79      0.00
   -1   13    1     -0.99      0.00
    0   13    1      0.06      0.00
    1   13    1      0.49      0.00
    2   13    1     -0.54      0.00
    3   13    1      0.54      0.00
    4   13    1     -0.38      0.00
    5   13    1      0.68      0.00
    6   13    1     -0.76      0.00
   -6   14    1     -0.05      0.00
   -5   14    1     -0.36      0.00
   -4   14    1     -0.23      0.00
   -3   14    1      1.35      0.00
   -2   14    1     -0.83      0.00
   -1   14    1     -0.95      0.00
    0   14    1      0.77      0.00
    1   14    1      0.97      0.00
    2   14    1     -0.73      0.00
    3   14    1     -0.88      0.00
    4   14    1      0.69      0.00
    5   14    1      0.50      0.00
    6   14    1     -0.58      0.00
   -6   15    1      0.22      0.00
   -5   15    1      0.07      0.00
   -4   15    1     -0.45      0.00
   -3   15    1      0.31      0.00
   -2   15    1      0.37      0.00
   -1   15    1     -0.08      0.00
    0   15    1     -1.23      0.00
    1   15    1      1.67      0.00
    2   15    1     -1.03      0.00
    3   15    1      0.40      0.00
    4   15    1     -0.19      0.00
    5   15    1      0.36      0.00
   -5   16    1     -0.30      0.00
   -4   16    1     -0.17      0.00
   -3   16    1      0.95      0.00
   -2   16    1     -0.34      0.00
   -1   16    1     -1.09      0.00
    0   16    1      0.60      0.00
    1   16    1      1.10      0.00
    2   16    1     -0.80      0.00
    3   16    1     -0.51      0.00
    4   16    1     -0.03      0.00
    5   16    1      1.13      0.00
   -4   17    1     -0.38      0.00
   -3   17    1      0.06      0.00
   -2   17    1      0.70      0.00
   -1   17    1     -0.38      0.00
    0   17    1     -0.81      0.00
    1   17    1      1.24      0.00
    2   17    1     -0.55      0.00
    3   17    1     -0.14      0.00
    4   17    1      0.14      0.00
   -3   18    1      0.58      0.00
   -2   18    1     -0.07      0.00
   -1   18    1     -1.08      0.00
    0   18    1      0.64      0.00
    1   18    1      0.77      0.00
    2   18    1     -0.51      0.00
    3   18    1     -0.41      0.00
   -2   19    1      0.62      0.00
   -1   19    1     -0.41      0.00
    0   19    1     -0.28      0.00
    1   19    1      0.56      0.00
    2   19    1     -0.16      0.00
   -9    0    2      0.05      0.00
   -8    0    2     -0.94      0.00
   -7    0    2      1.13      0.00
   -6    0    2     -1.20      0.00
   -5    0    2     -0.65      0.00
   -4    0    2      6.70      0.00
   -3    0    2     -7.02      0.00
   -2    0    2      1.92      0.00
   -1    0    2    -13.53      0.00
    0    0    2     36.36      0.00
    1    0    2    -37.03      0.00
    2    0    2     17.74      0.00
    3    0    2     -5.89      0.00
    4    0    2      3.63      0.00
    5    0    2     -1.53      0.00
    6    0    2     -0.08      0.00
    7    0    2      0.90      0.00
    8    0    2     -1.27      0.00
    9    0    2      0.49      0.00
   -9    1    2      0.35      0.00
   -8    1    2     -0.44      0.00
   -7    1    2     -0.09      0.00
   -6    1    2      0.87      0.00
   -5    1    2     -1.39      0.00
   -4    1    2      0.87      0.00
   -3    1    2     -0.12      0.00
   -2    1    2      1.35      0.00
   -1    1    2     -3.37      0.00
    0    1    2      2.55      0.00
    1    1    2      0.26      0.00
    2    1    2     -1.17      0.00
    3    1    2     -0.21      0.00
    4    1    2      1.26      0.00
    5    1    2     -0.85      0.00
    6    1    2      0.02      0.00
    7    1    2      0.22      0.00
    8    1    2     -0.02      0.00
    9    1    2     -0.10      0.00
   -9    2    2      0.15      0.00
   -8    2    2     -1.09      0.00
   -7    2    2      1.44      0.00
   -6    2    2     -1.77      0.00
   -5    2    2      0.27      0.00
   -4    2    2      5.17      0.00
   -3    2    2     -5.18      0.00
   -2    2    2     -0.43      0.00
   -1    2    2     -8.43      0.00
    0    2    2     28.02      0.00
    1    2    2    -29.37      0.00
    2    2    2     13.90      0.00
    3    2    2     -4.84      0.00
    4    2    2      3.60      0.00
    5    2    2     -2.16      0.00
    6    2    2      1.06      0.00
    7    2    2     -0.23      0.00
    8    2    2     -0.59      0.00
    9    2    2      0.19      0.00
   -9    3    2      0.97      0.00
   -8    3    2     -1.23      0.00
   -7    3    2      0.04      0.00
   -6    3    2      1.74      0.00
   -5    3    2     -3.13      0.00
   -4    3    2      1.75      0.00
   -3    3    2      1.06      0.00
   -2    3    2      0.94      0.00
   -1    3    2     -5.78      0.00
    0    3    2      4.41      0.00
    1    3    2      1.89      0.00
    2    3    2     -3.98      0.00
    3    3    2      0.82      0.00
    4    3    2      1.52      0.00
    5    3    2     -0.61      0.00
    6    3    2     -0.88      0.00
    7    3    2      0.84      0.00
    8    3    2     -0.09      0.00
    9    3    2     -0.25      0.00
   -9    4    2      0.12      0.00
   -8    4    2     -0.63      0.00
   -7    4    2      0.75      0.00
   -6    4    2     -1.47      0.00
   -5    4    2      1.02      0.00
   -4    4    2      2.58      0.00
   -3    4    2     -1.99      0.00
   -2    4    2     -3.73      0.00
   -1    4    2     -0.03      0.00
    0    4    2     12.36      0.00
    1    4    2    -14.34      0.00
    2    4    2      6.23      0.00
    3    4    2     -2.27      0.00
    4    4    2      2.63      0.00
    5    4    2     -2.38      0.00
    6    4    2      2.22      0.00
    7    4    2     -1.45      0.00
    8    4    2     -0.15      0.00
   -9    5    2      1.13      0.00
   -8    5    2     -1.36      0.00
   -7    5    2      0.40      0.00
   -6    5    2      1.09      0.00
   -5    5    2     -3.01      0.00
   -4    5    2      1.81      0.00
   -3    5    2      2.49      0.00
   -2    5    2     -1.73      0.00
   -1    5    2     -3.92      0.00
    0    5    2      3.76      0.00
    1    5    2      2.49      0.00
    2    5    2     -4.83      0.00
    3    5    2      1.60      0.00
    4    5    2      0.74      0.00
    5    5    2      0.05      0.00
    6    5    2     -1.01      0.00
    7    5    2      0.57      0.00
    8    5    2      0.04      0.00
   -8    6    2      0.42      0.00
   -7    6    2     -0.98      0.00
   -6    6    2      0.10      0.00
   -5    6    2      0.57      0.00
   -4    6    2      0.80      0.00
   -3    6    2      0.25      0.00
   -2    6    2     -4.33      0.00
   -1    6    2      3.52      0.00
    0    6    2      2.15      0.00
    1    6    2     -3.65      0.00
    2    6    2      0.88      0.00
    3    6    2     -0.18      0.00
    4    6    2      1.23      0.00
    5    6    2     -1.53      0.00
    6    6    2      1.63      0.00
    7    6    2     -0.98      0.00
    8    6    2     -0.63      0.00
   -8    7    2     -0.71      0.00
   -7    7    2      0.49      0.00
   -6    7    2     -0.15      0.00
   -5    7    2     -1.72      0.00
   -4    7    2      1.67      0.00
   -3    7    2      2.16      0.00
   -2    7    2     -2.43      0.00
   -1    7    2     -2.82      0.00
    0    7    2      4.19      0.00
    1    7    2      0.47      0.00
    2    7    2     -2.84      0.00
    3    7    2      0.49      0.00
    4    7    2      1.48      0.00
    5    7    2     -1.20      0.00
    6    7    2      0.78      0.00
    7    7    2     -0.70      0.00
    8    7    2      0.21      0.00
   -8    8    2      0.60      0.00
   -7    8    2     -1.41      0.00
   -6    8    2      0.60      0.00
   -5    8    2      0.27      0.00
   -4    8    2     -0.21      0.00
   -3    8    2      1.42      0.00
   -2    8    2     -3.24      0.00
   -1    8    2      2.75      0.00
    0    8    2     -0.80      0.00
    1    8    2      0.15      0.00
    2    8    2     -0.61      0.00
    3    8    2      0.17      0.00
    4    8    2      0.97      0.00
    5    8    2     -1.15      0.00
    6    8    2      0.63      0.00
    7    8    2     -0.18      0.00
    8    8    2     -0.45      0.00
   -8    9    2     -0.29      0.00
   -7    9    2      0.45      0.00
   -6    9    2     -0.84      0.00
   -5    9    2     -0.41      0.00
   -4    9    2      0.85      0.00
   -3    9    2      1.98      0.00
   -2    9    2     -2.83      0.00
   -1    9    2     -1.12      0.00
    0    9    2      3.08      0.00
    1    9    2      0.10      0.00
    2    9    2     -2.34      0.00
    3    9    2      0.78      0.00
    4    9    2      0.90      0.00
    5    9    2     -1.04      0.00
    6    9    2      0.96      0.00
    7    9    2     -0.61      0.00
    8    9    2     -0.18      0.00
   -8   10    2      0.32      0.00
   -7   10    2     -1.07      0.00
   -6   10    2      0.59      0.00
   -5   10    2     -0.27      0.00
   -4   10    2      0.07      0.00
   -3   10    2      1.06      0.00
   -2   10    2     -1.26      0.00
   -1   10    2      0.23      0.00
    0   10    2      0.09      0.00
    1   10    2      0.27      0.00
    2   10    2     -0.63      0.00
    3   10    2      0.44      0.00
    4   10    2      0.53      0.00
    5   10    2     -0.65      0.00
    6   10    2     -0.24      0.00
    7   10    2      0.31      0.00
   -7   11    2      0.49      0.00
   -6   11    2     -0.74      0.00
   -5   11    2      0.07      0.00
   -4   11    2      0.09      0.00
   -3   11    2      1.98      0.00
   -2   11    2     -3.12      0.00
   -1   11    2      0.71      0.00
    0   11    2      1.01      0.00
    1   11    2      1.04      0.00
    2   11    2     -2.71      0.00
    3   11    2      1.43      0.00
    4   11    2     -0.13      0.00
    5   11    2      0.15      0.00
    6   11    2     -0.23      0.00
    7   11    2      0.34      0.00
   -7   12    2     -0.91      0.00
   -6   12    2      0.77      0.00
   -5   12    2     -0.86      0.00
   -4   12    2      0.50      0.00
   -3   12    2      0.40      0.00
   -2   12    2      0.37      0.00
   -1   12    2     -1.69      0.00
    0   12    2      1.09      0.00
    1   12    2      0.26      0.00
    2   12    2     -1.17      0.00
    3   12    2      1.44      0.00
    4   12    2     -0.67      0.00
    5   12    2      0.34      0.00
    6   12    2     -0.86      0.00
    7   12    2      0.53      0.00
   -7   13    2      0.49      0.00
   -6   13    2     -0.42      0.00
   -5   13    2      0.00      0.00
   -4   13    2      0.05      0.00
   -3   13    2      1.14      0.00
   -2   13    2     -1.95      0.00
   -1   13    2      0.48      0.00
    0   13    2      0.82      0.00
    1   13    2      0.47      0.00
    2   13    2     -1.43      0.00
    3   13    2      0.22      0.00
    4   13    2      0.53      0.00
    5   13    2      0.03      0.00
    6   13    2     -0.33      0.00
   -6   14    2      0.43      0.00
   -5   14    2     -0.55      0.00
   -4   14    2     -0.22      0.00
   -3   14    2      0.85      0.00
   -2   14    2      0.52      0.00
   -1   14    2     -1.75      0.00
    0   14    2      0.55      0.00
    1   14    2      1.12      0.00
    2   14    2     -1.67      0.00
    3   14    2      1.48      0.00
    4   14    2     -0.77      0.00
    5   14    2      0.41      0.00
    6   14    2     -0.54      0.00
   -6   15    2     -0.24      0.00
   -5   15    2      0.08      0.00
   -4   15    2     -0.13      0.00
   -3   15    2      0.75      0.00
   -2   15    2     -1.13      0.00
   -1   15    2      0.02      0.00
    0   15    2      0.93      0.00
    1   15    2      0.02      0.00
    2   15    2     -0.58      0.00
    3   15    2     -0.36      0.00
    4   15    2      0.42      0.00
    5   15    2      0.46      0.00
   -5   16    2     -0.37      0.00
   -4   16    2     -0.75      0.00
   -3   16    2      1.09      0.00
   -2   16    2      0.55      0.00
   -1   16    2     -1.47      0.00
    0   16    2      0.05      0.00
    1   16    2      1.40      0.00
    2   16    2     -1.29      0.00
    3   16    2      0.55      0.00
    4   16    2     -0.09      0.00
    5   16    2      0.09      0.00
   -4   17    2     -0.39      0.00
   -3   17    2      0.68      0.00
   -2   17    2     -0.75      0.00
   -1   17    2     -0.22      0.00
    0   17    2      0.87      0.00
    1   17    2     -0.01      0.00
    2   17    2     -0.43      0.00
    3   17    2     -0.18      0.00
    4   17    2     -0.25      0.00
   -3   18    2      0.70      0.00
   -2   18    2      0.71      0.00
   -1   18    2     -1.20      0.00
    0   18    2      0.02      0.00
    1   18    2      0.97      0.00
    2   18    2     -0.67      0.00
    3   18    2      0.00      0.00
   -2   19    2     -0.08      0.00
   -1   19    2     -0.59      0.00
    0   19    2      1.01      0.00
    1   19    2     -0.37      0.00
    2   19    2      0.09      0.00
   -9    1    3      0.29      0.00
   -8    1    3     -0.94      0.00
   -7    1    3      1.41      0.00
   -6    1    3     -2.01      0.00
   -5    1    3      1.40      0.00
   -4    1    3      3.80      0.00
   -3    1    3     -6.54      0.00
   -2    1    3      1.54      0.00
   -1    1    3     -3.65      0.00
    0    1    3     17.94      0.00
    1    1    3    -24.40      0.00
    2    1    3     16.11      0.00
    3    1    3     -6.54      0.00
    4    1    3      1.60      0.00
    5    1    3      0.23      0.00
    6    1    3      0.06      0.00
    7    1    3      0.11      0.00
    8    1    3     -0.69      0.00
    9    1    3      0.22      0.00
   -9    2    3      0.47      0.00
   -8    2    3     -0.98      0.00
   -7    2    3      0.17      0.00
   -6    2    3      1.37      0.00
   -5    2    3     -2.82      0.00
   -4    2    3      2.65      0.00
   -3    2    3     -1.09      0.00
   -2    2    3      1.83      0.00
   -1    2    3     -4.42      0.00
    0    2    3      3.52      0.00
    1    2    3      0.75      0.00
    2    2    3     -2.94      0.00
    3    2    3      1.41      0.00
    4    2    3      0.67      0.00
    5    2    3     -0.67      0.00
    6    2    3     -0.53      0.00
    7    2    3      0.83      0.00
    8    2    3     -0.38      0.00
   -9    3    3      0.17      0.00
   -8    3    3     -0.75      0.00
   -7    3    3      1.38      0.00
   -6    3    3     -2.33      0.00
   -5    3    3      2.12      0.00
   -4    3    3      2.03      0.00
   -3    3    3     -3.94      0.00
   -2    3    3     -0.96      0.00
   -1    3    3      0.68      0.00
    0    3    3      9.71      0.00
    1    3    3    -15.43      0.00
    2    3    3     10.77      0.00
    3    3    3     -4.95      0.00
    4    3    3      2.02      0.00
    5    3    3     -1.24      0.00
    6    3    3      1.95      0.00
    7    3    3     -1.53      0.00
    8    3    3      0.19      0.00
   -9    4    3      1.05      0.00
   -8    4    3     -1.97      0.00
   -7    4    3      0.99      0.00
   -6    4    3      1.05      0.00
   -5    4    3     -3.45      0.00
   -4    4    3      3.32      0.00
   -3    4    3      0.17      0.00
   -2    4    3     -0.60      0.00
   -1    4    3     -3.37      0.00
    0    4    3      3.69      0.00
    1    4    3      1.33      0.00
    2    4    3     -4.52      0.00
    3    4    3      2.80      0.00
    4    4    3     -0.01      0.00
    5    4    3     -0.24      0.00
    6    4    3     -0.87      0.00
    7    4    3      0.71      0.00
    8    4    3      0.08      0.00
   -9    5    3      0.00      0.00
   -8    5    3     -0.01      0.00
   -7    5    3      0.25      0.00
   -6    5    3     -1.42      0.00
   -5    5    3      1.98      0.00
   -4    5    3      0.13      0.00
   -3    5    3     -0.56      0.00
   -2    5    3     -3.49      0.00
   -1    5    3      4.43      0.00
    0    5    3      1.12      0.00
    1    5    3     -5.05      0.00
    2    5    3      3.85      0.00
    3    5    3     -1.78      0.00
    4    5    3      0.88      0.00
    5    5    3     -1.20      0.00
    6    5    3      2.16      0.00
    7    5    3     -1.61      0.00
    8    5    3     -0.08      0.00
   -8    6    3     -1.71      0.00
   -7    6    3      1.20      0.00
   -6    6    3     -0.09      0.00
   -5    6    3     -2.31      0.00
   -4    6    3      2.93      0.00
   -3    6    3      1.01      0.00
   -2    6    3     -2.87      0.00
   -1    6    3     -1.31      0.00
    0    6    3      3.84      0.00
    1    6    3     -0.44      0.00
    2    6    3     -3.00      0.00
    3    6    3      2.16      0.00
    4    6    3      0.28      0.00
    5    6    3     -0.83      0.00
    6    6    3      0.19      0.00
    7    6    3     -0.24      0.00
    8    6    3      0.37      0.00
   -8    7    3      0.53      0.00
   -7    7    3     -0.80      0.00
   -6    7    3     -0.14      0.00
   -5    7    3      0.83      0.00
   -4    7    3     -0.33      0.00
   -3    7    3      1.22      0.00
   -2    7    3     -3.79      0.00
   -1    7    3      4.26      0.00
    0    7    3     -1.88      0.00
    1    7    3     -0.17      0.00
    2    7    3      0.58      0.00
    3    7    3     -0.48      0.00
    4    7    3      0.76      0.00
    5    7    3     -1.35      0.00
    6    7    3      1.52      0.00
    7    7    3     -0.65      0.00
    8    7    3     -0.52      0.00
   -8    8    3     -0.68      0.00
   -7    8    3      0.66      0.00
   -6    8    3     -0.87      0.00
   -5    8    3     -0.63      0.00
   -4    8    3      1.88      0.00
   -3    8    3      0.95      0.00
   -2    8    3     -3.25      0.00
   -1    8    3     -0.16      0.00
    0    8    3      3.78      0.00
    1    8    3     -2.01      0.00
    2    8    3     -1.22      0.00
    3    8    3      1.06      0.00
    4    8    3      0.95      0.00
    5    8    3     -1.69      0.00
    6    8    3      1.27      0.00
    7    8    3     -0.77      0.00
    8    8    3      0.10      0.00
   -8    9    3      0.33      0.00
   -7    9    3     -0.78      0.00
   -6    9    3      0.40      0.00
   -5    9    3     -0.47      0.00
   -4    9    3      0.58      0.00
   -3    9    3      0.92      0.00
   -2    9    3     -2.07      0.00
   -1    9    3      1.33      0.00
    0    9    3     -0.38      0.00
    1    9    3     -0.11      0.00
    2    9    3      0.46      0.00
    3    9    3     -0.79      0.00
    4    9    3      1.68      0.00
    5    9    3     -2.26      0.00
    6    9    3      1.32      0.00
    7    9    3     -0.11      0.00
    8    9    3     -0.20      0.00
   -8   10    3     -0.34      0.00
   -7   10    3      0.40      0.00
   -6   10    3     -1.04      0.00
   -5   10    3      0.46      0.00
   -4   10    3      0.61      0.00
   -3   10    3      1.12      0.00
   -2   10    3     -3.44      0.00
   -1   10    3      1.59      0.00
    0   10    3      1.62      0.00
    1   10    3     -0.94      0.00
    2   10    3     -1.46      0.00
    3   10    3      1.27      0.00
    4   10    3      0.44      0.00
    5   10    3     -1.13      0.00
    6   10    3      0.92      0.00
    7   10    3     -0.43      0.00
   -7   11    3     -0.47      0.00
   -6   11    3      0.51      0.00
   -5   11    3     -1.20      0.00
   -4   11    3      1.14      0.00
   -3   11    3      0.50      0.00
   -2   11    3     -0.43      0.00
   -1   11    3     -1.38      0.00
    0   11    3      1.49      0.00
    1   11    3     -0.29      0.00
    2   11    3     -0.58      0.00
    3   11    3      0.80      0.00
    4   11    3      0.33      0.00
    5   11    3     -1.29      0.00
    6   11    3      0.38      0.00
    7   11    3      0.48      0.00
   -7   12    3      0.39      0.00
   -6   12    3     -0.70      0.00
   -5   12    3      0.44      0.00
   -4   12    3      0.33      0.00
   -3   12    3      0.50      0.00
   -2   12    3     -2.51      0.00
   -1   12    3      2.06      0.00
    0   12    3      0.19      0.00
    1   12    3     -0.12      0.00
    2   12    3     -1.37      0.00
    3   12    3      0.98      0.00
    4   12    3      0.28      0.00
    5   12    3     -0.61      0.00
    6   12    3      0.45      0.00
    7   12    3     -0.10      0.00
   -7   13    3     -0.05      0.00
   -6   13    3      0.23      0.00
   -5   13    3     -1.04      0.00
   -4   13    3      0.47      0.00
   -3   13    3      1.13      0.00
   -2   13    3      0.03      0.00
   -1   13    3     -2.52      0.00
    0   13    3      2.01      0.00
    1   13    3      0.33      0.00
    2   13    3     -1.87      0.00
    3   13    3      2.25      0.00
    4   13    3     -1.19      0.00
    5   13    3      0.04      0.00
    6   13    3     -0.32      0.00
   -6   14    3     -0.31      0.00
   -5   14    3      0.19      0.00
   -4   14    3      0.29      0.00
   -3   14    3     -0.09      0.00
   -2   14    3     -1.27      0.00
   -1   14    3      1.33      0.00
    0   14    3      0.30      0.00
    1   14    3     -0.51      0.00
    2   14    3     -0.48      0.00
    3   14    3      0.23      0.00
    4   14    3      0.38      0.00
    5   14    3     -0.29      0.00
    6   14    3      0.22      0.00
   -6   15    3     -0.02      0.00
   -5   15    3     -0.72      0.00
   -4   15    3     -0.41      0.00
   -3   15    3      1.85      0.00
   -2   15    3     -0.02      0.00
   -1   15    3     -2.58      0.00
    0   15    3      1.76      0.00
    1   15    3      0.60      0.00
    2   15    3     -1.53      0.00
    3   15    3      1.34      0.00
    4   15    3     -0.60      0.00
    5   15    3     -0.01      0.00
   -5   16    3      0.32      0.00
   -4   16    3     -0.26      0.00
   -3   16    3      0.20      0.00
   -2   16    3     -0.89      0.00
   -1   16    3      0.80      0.00
    0   16    3      0.57      0.00
    1   16    3     -0.81      0.00
    2   16    3     -0.02      0.00
    3   16    3      0.06      0.00
    4   16    3     -0.07      0.00
    5   16    3      0.50      0.00
   -4   17    3     -0.72      0.00
   -3   17    3      1.85      0.00
   -2   17    3     -0.05      0.00
   -1   17    3     -1.92      0.00
    0   17    3      1.01      0.00
    1   17    3      0.71      0.00
    2   17    3     -0.90      0.00
    3   17    3      0.37      0.00
    4   17    3     -0.10      0.00
   -3   18    3      0.08      0.00
   -2   18    3     -0.18      0.00
   -1   18    3     -0.03      0.00
    0   18    3      0.99      0.00
    1   18    3     -1.06      0.00
    2   18    3      0.37      0.00
    3   18    3     -0.31      0.00
   -2   19    3     -0.01      0.00
   -1   19    3     -0.90      0.00
    0   19    3      0.16      0.00
    1   19    3      0.67      0.00
   -9    0    4      0.60      0.00
   -8    0    4     -0.78      0.00
   -7    0    4      1.19      0.00
   -6    0    4     -2.01      0.00
   -5    0    4      2.30      0.00
   -4    0    4      1.30      0.00
   -3    0    4     -5.37      0.00
   -2    0    4      3.29      0.00
   -1    0    4     -1.37      0.00
    0    0    4      7.24      0.00
    1    0    4    -13.70      0.00
    2    0    4     13.07      0.00
    3    0    4     -7.05      0.00
    4    0    4      0.32      0.00
    5    0    4      2.10      0.00
    6    0    4     -0.43      0.00
    7    0    4     -0.24      0.00
    8    0    4     -0.20      0.00
   -9    1    4      0.00      0.00
   -8    1    4     -0.29      0.00
   -7    1    4      0.02      0.00
   -6    1    4      0.65      0.00
   -5    1    4     -1.44      0.00
   -4    1    4      1.80      0.00
   -3    1    4     -1.42      0.00
   -2    1    4      1.39      0.00
   -1    1    4     -1.80      0.00
    0    1    4      1.05      0.00
    1    1    4      0.69      0.00
    2    1    4     -1.63      0.00
    3    1    4      1.28      0.00
    4    1    4     -0.47      0.00
    5    1    4      0.19      0.00
    6    1    4     -0.50      0.00
    7    1    4      0.61      0.00
    8    1    4     -0.45      0.00
   -9    2    4      0.36      0.00
   -8    2    4     -0.57      0.00
   -7    2    4      1.17      0.00
   -6    2    4     -2.22      0.00
   -5    2    4      2.56      0.00
   -4    2    4      0.81      0.00
   -3    2    4     -4.49      0.00
   -2    2    4      2.35      0.00
   -1    2    4     -0.08      0.00
    0    2    4      4.81      0.00
    1    2    4    -10.75      0.00
    2    2    4     11.14      0.00
    3    2    4     -6.64      0.00
    4    2    4      1.00      0.00
    5    2    4      0.96      0.00
    6    2    4      0.70      0.00
    7    2    4     -1.10      0.00
    8    2    4      0.25      0.00
   -9    3    4      0.32      0.00
   -8    3    4     -1.25      0.00
   -7    3    4      0.66      0.00
   -6    3    4      0.96      0.00
   -5    3    4     -3.12      0.00
   -4    3    4      4.09      0.00
   -3    3    4     -2.49      0.00
   -2    3    4      1.56      0.00
   -1    3    4     -2.71      0.00
    0    3    4      2.03      0.00
    1    3    4      1.16      0.00
    2    3    4     -3.35      0.00
    3    3    4      2.96      0.00
    4    3    4     -1.22      0.00
    5    3    4      0.40      0.00
    6    3    4     -0.86      0.00
    7    3    4      0.77      0.00
    8    3    4     -0.24      0.00
   -9    4    4      0.13      0.00
   -8    4    4     -0.09      0.00
   -7    4    4      0.71      0.00
   -6    4    4     -2.11      0.00
   -5    4    4      2.80      0.00
   -4    4    4     -0.53      0.00
   -3    4    4     -1.71      0.00
   -2    4    4     -0.43      0.00
   -1    4    4      2.83      0.00
    0    4    4     -0.28      0.00
    1    4    4     -4.19      0.00
    2    4    4      6.05      0.00
    3    4    4     -4.31      0.00
    4    4    4      0.90      0.00
    5    4    4     -0.09      0.00
    6    4    4      1.86      0.00
    7    4    4     -1.93      0.00
    8    4    4      0.50      0.00
   -8    5    4     -1.87      0.00
   -7    5    4      1.49      0.00
   -6    5    4     -0.07      0.00
   -5    5    4     -2.52      0.00
   -4    5    4      4.08      0.00
   -3    5    4     -1.55      0.00
   -2    5    4     -0.95      0.00
   -1    5    4     -0.65      0.00
    0    5    4      2.20      0.00
    1    5    4     -0.41      0.00
    2    5    4     -2.20      0.00
    3    5    4      2.70      0.00
    4    5    4     -1.14      0.00
    5    5    4      0.02      0.00
    6    5    4     -0.21      0.00
    7    5    4     -0.04      0.00
    8    5    4      0.46      0.00
   -8    6    4      0.28      0.00
   -7    6    4     -0.06      0.00
   -6    6    4     -1.24      0.00
   -5    6    4      2.04      0.00
   -4    6    4     -1.21      0.00
   -3    6    4      0.97      0.00
   -2    6    4     -2.88      0.00
   -1    6    4      4.31      0.00
    0    6    4     -3.13      0.00
    1    6    4      0.44      0.00
    2    6    4      1.77      0.00
    3    6    4     -1.75      0.00
    4    6    4      0.31      0.00
    5    6    4     -0.51      0.00
    6    6    4      1.86      0.00
    7    6    4     -1.44      0.00
    8    6    4     -0.01      0.00
   -8    7    4     -1.14      0.00
   -7    7    4      1.18      0.00
   -6    7    4     -1.05      0.00
   -5    7    4     -0.68      0.00
   -4    7    4      2.70      0.00
   -3    7    4     -0.65      0.00
   -2    7    4     -2.55      0.00
   -1    7    4      1.07      0.00
    0    7    4      2.41      0.00
    1    7    4     -2.51      0.00
    2    7    4     -0.04      0.00
    3    7    4      1.35      0.00
    4    7    4     -0.27      0.00
    5    7    4     -0.80      0.00
    6    7    4      0.62      0.00
    7    7    4     -0.40      0.00
    8    7    4      0.16      0.00
   -8    8    4      0.31      0.00
   -7    8    4     -0.38      0.00
   -6    8    4     -0.29      0.00
   -5    8    4      0.30      0.00
   -4    8    4      0.08      0.00
   -3    8    4      1.08      0.00
   -2    8    4     -2.54      0.00
   -1    8    4      2.43      0.00
    0    8    4     -1.60      0.00
    1    8    4      0.38      0.00
    2    8    4      1.20      0.00
    3    8    4     -1.74      0.00
    4    8    4      1.69      0.00
    5    8    4     -2.31      0.00
    6    8    4      2.25      0.00
    7    8    4     -0.81      0.00
    8    8    4     -0.25      0.00
   -8    9    4     -0.27      0.00
   -7    9    4      0.39      0.00
   -6    9    4     -1.16      0.00
   -5    9    4      0.64      0.00
   -4    9    4      1.22      0.00
   -3    9    4     -0.20      0.00
   -2    9    4     -2.91      0.00
   -1    9    4      2.39      0.00
    0    9    4      1.29      0.00
    1    9    4     -2.59      0.00
    2    9    4      0.78      0.00
    3    9    4      0.38      0.00
    4    9    4      0.41      0.00
    5    9    4     -1.21      0.00
    6    9    4      1.06      0.00
    7    9    4     -0.58      0.00
   -8   10    4      0.14      0.00
   -7   10    4     -0.23      0.00
   -6   10    4      0.08      0.00
   -5   10    4     -1.02      0.00
   -4   10    4      1.50      0.00
   -3   10    4      0.24      0.00
   -2   10    4     -0.98      0.00
   -1   10    4     -0.55      0.00
    0   10    4      1.18      0.00
    1   10    4     -0.77      0.00
    2   10    4      0.87      0.00
    3   10    4     -1.08      0.00
    4   10    4      1.91      0.00
    5   10    4     -2.99      0.00
    6   10    4      2.11      0.00
    7   10    4     -0.19      0.00
   -7   11    4      0.16      0.00
   -6   11    4     -0.77      0.00
   -5   11    4      0.71      0.00
   -4   11    4      0.69      0.00
   -3   11    4     -0.48      0.00
   -2   11    4     -2.26      0.00
   -1   11    4      3.08      0.00
    0   11    4     -0.45      0.00
    1   11    4     -1.23      0.00
    2   11    4      0.36      0.00
    3   11    4      0.19      0.00
    4   11    4      0.46      0.00
    5   11    4     -1.03      0.00
    6   11    4      1.11      0.00
    7   11    4     -0.75      0.00
   -7   12    4      0.08      0.00
   -6   12    4     -0.14      0.00
   -5   12    4     -1.11      0.00
   -4   12    4      1.29      0.00
   -3   12    4      0.72      0.00
   -2   12    4     -0.50      0.00
   -1   12    4     -2.23      0.00
    0   12    4      2.53      0.00
    1   12    4     -0.52      0.00
    2   12    4     -0.87      0.00
    3   12    4      1.26      0.00
    4   12    4     -0.23      0.00
    5   12    4     -1.29      0.00
    6   12    4      0.83      0.00
   -6   13    4     -0.41      0.00
   -5   13    4      0.32      0.00
   -4   13    4      0.68      0.00
   -3   13    4     -1.06      0.00
   -2   13    4     -0.95      0.00
   -1   13    4      2.49      0.00
    0   13    4     -1.02      0.00
    1   13    4     -0.41      0.00
    2   13    4     -0.11      0.00
    3   13    4      0.42      0.00
    4   13    4      0.09      0.00
    5   13    4     -0.56      0.00
    6   13    4      0.82      0.00
   -6   14    4     -0.49      0.00
   -5   14    4     -0.80      0.00
   -4   14    4      0.43      0.00
   -3   14    4      1.77      0.00
   -2   14    4     -0.75      0.00
   -1   14    4     -2.71      0.00
    0   14    4      2.88      0.00
    1   14    4     -0.33      0.00
    2   14    4     -1.23      0.00
    3   14    4      1.57      0.00
    4   14    4     -0.88      0.00
    5   14    4     -0.22      0.00
    6   14    4      0.18      0.00
   -5   15    4      0.16      0.00
   -4   15    4      0.25      0.00
   -3   15    4     -0.83      0.00
   -2   15    4     -0.25      0.00
   -1   15    4      1.49      0.00
    0   15    4     -0.48      0.00
    1   15    4     -0.62      0.00
    2   15    4      0.01      0.00
    3   15    4      0.48      0.00
    4   15    4     -0.25      0.00
    5   15    4     -0.01      0.00
   -5   16    4     -0.75      0.00
   -4   16    4     -0.15      0.00
   -3   16    4      2.35      0.00
   -2   16    4     -1.10      0.00
   -1   16    4     -2.18      0.00
    0   16    4      2.28      0.00
    1   16    4     -0.22      0.00
    2   16    4     -0.60      0.00
    3   16    4      0.48      0.00
    4   16    4     -0.24      0.00
   -4   17    4     -0.26      0.00
   -3   17    4     -0.36      0.00
   -2   17    4      0.18      0.00
   -1   17    4      0.39      0.00
    0   17    4      0.48      0.00
    1   17    4     -1.26      0.00
    2   17    4      0.55      0.00
    3   17    4      0.04      0.00
    4   17    4     -0.06      0.00
   -3   18    4      2.08      0.00
   -2   18    4     -1.05      0.00
   -1   18    4     -1.06      0.00
    0   18    4      0.92      0.00
    1   18    4      0.33      0.00
    2   18    4     -0.49      0.00
    3   18    4      0.15      0.00
   -1   19    4     -0.24      0.00
    0   19    4      0.70      0.00
    1   19    4     -1.12      0.00
   -9    1    5      0.90      0.00
   -8    1    5     -0.71      0.00
   -7    1    5      0.85      0.00
   -6    1    5     -1.66      0.00
   -5    1    5      2.37      0.00
   -4    1    5     -0.65      0.00
   -3    1    5     -2.92      0.00
   -2    1    5      4.09      0.00
   -1    1    5     -2.46      0.00
    0    1    5      1.77      0.00
    1    1    5     -4.11      0.00
    2    1    5      7.50      0.00
    3    1    5     -6.44      0.00
    4    1    5      0.57      0.00
    5    1    5      2.22      0.00
    6    1    5     -0.14      0.00
    7    1    5     -0.82      0.00
    8    1    5      0.35      0.00
   -9    2    5     -0.18      0.00
   -8    2    5     -0.15      0.00
   -7    2    5     -0.09      0.00
   -6    2    5      0.73      0.00
   -5    2    5     -1.85      0.00
   -4    2    5      3.01      0.00
   -3    2    5     -2.94      0.00
   -2    2    5      2.24      0.00
   -1    2    5     -1.54      0.00
    0    2    5      0.02      0.00
    1    2    5      1.58      0.00
    2    2    5     -2.22      0.00
    3    2    5      2.43      0.00
    4    2    5     -2.12      0.00
    5    2    5      1.41      0.00
    6    2    5     -0.99      0.00
    7    2    5      0.58      0.00
    8    2    5     -0.31      0.00
   -9    3    5      0.38      0.00
   -8    3    5     -0.11      0.00
   -7    3    5      0.50      0.00
   -6    3    5     -1.77      0.00
   -5    3    5      2.61      0.00
   -4    3    5     -1.05      0.00
   -3    3    5     -1.83      0.00
   -2    3    5      2.35      0.00
   -1    3    5     -0.33      0.00
    0    3    5     -0.92      0.00
    1    3    5     -1.19      0.00
    2    3    5      5.27      0.00
    3    3    5     -5.55      0.00
    4    3    5      0.96      0.00
    5    3    5      1.28      0.00
    6    3    5      0.72      0.00
    7    3    5     -1.42      0.00
    8    3    5      0.49      0.00
   -9    4    5      0.02      0.00
   -8    4    5     -0.82      0.00
   -7    4    5      0.60      0.00
   -6    4    5      0.26      0.00
   -5    4    5     -2.12      0.00
   -4    4    5      4.24      0.00
   -3    4    5     -3.80      0.00
   -2    4    5      1.86      0.00
   -1    4    5     -0.92      0.00
    0    4    5      0.22      0.00
    1    4    5      0.60      0.00
    2    4    5     -1.32      0.00
    3    4    5      2.29      0.00
    4    4    5     -2.30      0.00
    5    4    5      1.27      0.00
    6    4    5     -0.60      0.00
    7    4    5     -0.08      0.00
    8    4    5      0.47      0.00
   -8    5    5      0.26      0.00
   -7    5    5      0.00      0.00
   -6    5    5     -1.44      0.00
   -5    5    5      2.45      0.00
   -4    5    5     -1.66      0.00
   -3    5    5      0.37      0.00
   -2    5    5     -0.57      0.00
   -1    5    5      2.11      0.00
    0    5    5     -3.23      0.00
    1    5    5      1.62      0.00
    2    5    5      2.33      0.00
    3    5    5     -3.52      0.00
    4    5    5      0.65      0.00
    5    5    5      0.44      0.00
    6    5    5      1.51      0.00
    7    5    5     -1.84      0.00
    8    5    5      0.50      0.00
   -8    6    5     -0.95      0.00
   -7    6    5      1.08      0.00
   -6    6    5     -1.01      0.00
   -5    6    5     -0.44      0.00
   -4    6    5      3.08      0.00
   -3    6    5     -2.80      0.00
   -2    6    5     -0.01      0.00
   -1    6    5      0.96      0.00
    0    6    5      0.30      0.00
    1    6    5     -1.41      0.00
    2    6    5      0.83      0.00
    3    6    5      0.93      0.00
    4    6    5     -1.42      0.00
    5    6    5      0.52      0.00
    6    6    5     -0.01      0.00
    7    6    5     -0.36      0.00
    8    6    5      0.44      0.00
   -8    7    5      0.22      0.00
   -7    7    5     -0.23      0.00
   -6    7    5     -0.77      0.00
   -5    7    5      1.30      0.00
   -4    7    5     -1.03      0.00
   -3    7    5      1.36      0.00
   -2    7    5     -2.00      0.00
   -1    7    5      2.21      0.00
    0    7    5     -2.46      0.00
    1    7    5      1.51      0.00
    2    7    5      1.31      0.00
    3    7    5     -2.58      0.00
    4    7    5      1.35      0.00
    5    7    5     -1.30      0.00
    6    7    5      2.38      0.00
    7    7    5     -1.64      0.00
    8    7    5      0.14      0.00
   -8    8    5     -0.26      0.00
   -7    8    5      0.58      0.00
   -6    8    5     -1.51      0.00
   -5    8    5      1.23      0.00
   -4    8    5      1.20      0.00
   -3    8    5     -1.53      0.00
   -2    8    5     -1.38      0.00
   -1    8    5      2.63      0.00
    0    8    5     -0.28      0.00
    1    8    5     -2.26      0.00
    2    8    5      2.12      0.00
    3    8    5     -0.34      0.00
    4    8    5     -0.39      0.00
    5    8    5     -0.06      0.00
    6    8    5      0.28      0.00
    7    8    5     -0.24      0.00
   -8    9    5      0.16      0.00
   -7    9    5     -0.22      0.00
   -6    9    5     -0.21      0.00
   -5    9    5     -0.23      0.00
   -4    9    5      0.70      0.00
   -3    9    5      0.53      0.00
   -2    9    5     -1.25      0.00
   -1    9    5      0.16      0.00
    0    9    5      0.25      0.00
    1    9    5     -0.25      0.00
    2    9    5      1.52      0.00
    3    9    5     -2.42      0.00
    4    9    5      2.53      0.00
    5    9    5     -3.21      0.00
    6    9    5      2.98      0.00
    7    9    5     -0.99      0.00
   -7   10    5      0.00      0.00
   -6   10    5     -0.96      0.00
   -5   10    5      1.25      0.00
   -4   10    5      0.54      0.00
   -3   10    5     -1.22      0.00
   -2   10    5     -1.46      0.00
   -1   10    5      3.41      0.00
    0   10    5     -1.34      0.00
    1   10    5     -1.70      0.00
    2   10    5      2.25      0.00
    3   10    5     -1.15      0.00
    4   10    5      0.45      0.00
    5   10    5     -0.50      0.00
    6   10    5      0.77      0.00
    7   10    5     -0.75      0.00
   -7   11    5     -0.20      0.00
   -6   11    5     -0.10      0.00
   -5   11    5     -0.91      0.00
   -4   11    5      1.55      0.00
   -3   11    5      0.17      0.00
   -2   11    5     -0.64      0.00
   -1   11    5     -1.56      0.00
    0   11    5      2.25      0.00
    1   11    5     -1.02      0.00
    2   11    5      0.62      0.00
    3   11    5     -0.79      0.00
    4   11    5      1.47      0.00
    5   11    5     -2.72      0.00
    6   11    5      2.23      0.00
    7   11    5     -0.26      0.00
   -7   12    5      0.11      0.00
   -6   12    5     -0.51      0.00
   -5   12    5      0.60      0.00
   -4   12    5      0.69      0.00
   -3   12    5     -1.60      0.00
   -2   12    5     -0.51      0.00
   -1   12    5      3.04      0.00
    0   12    5     -2.10      0.00
    1   12    5     -0.35      0.00
    2   12    5      1.04      0.00
    3   12    5     -0.57      0.00
    4   12    5      0.22      0.00
    5   12    5     -0.35      0.00
    6   12    5      0.89      0.00
   -6   13    5     -0.52      0.00
   -5   13    5     -0.71      0.00
   -4   13    5      1.21      0.00
   -3   13    5      0.94      0.00
   -2   13    5     -1.10      0.00
   -1   13    5     -2.00      0.00
    0   13    5      2.96      0.00
    1   13    5     -1.08      0.00
    2   13    5     -0.19      0.00
    3   13    5      0.56      0.00
    4   13    5     -0.17      0.00
    5   13    5     -0.95      0.00
    6   13    5      0.89      0.00
   -6   14    5     -0.36      0.00
   -5   14    5      0.25      0.00
   -4   14    5      0.57      0.00
   -3   14    5     -1.61      0.00
   -2   14    5      0.45      0.00
   -1   14    5      1.90      0.00
    0   14    5     -1.84      0.00
    1   14    5      0.36      0.00
    2   14    5     -0.14      0.00
    3   14    5      0.52      0.00
    4   14    5     -0.51      0.00
    5   14    5      0.12      0.00
   -5   15    5     -0.49      0.00
   -4   15    5      0.66      0.00
   -3   15    5      1.81      0.00
   -2   15    5     -1.85      0.00
   -1   15    5     -1.54      0.00
    0   15    5      2.72      0.00
    1   15    5     -1.06      0.00
    2   15    5      0.05      0.00
    3   15    5      0.20      0.00
    4   15    5     -0.25      0.00
    5   15    5     -0.19      0.00
   -5   16    5     -0.03      0.00
   -4   16    5      0.19      0.00
   -3   16    5     -1.09      0.00
   -2   16    5      0.92      0.00
   -1   16    5      0.51      0.00
    0   16    5     -0.50      0.00
    1   16    5     -0.43      0.00
    2   16    5      0.15      0.00
    3   16    5      0.46      0.00
    4   16    5     -0.41      0.00
   -4   17    5      0.24      0.00
   -3   17    5      2.03      0.00
   -2   17    5     -2.03      0.00
   -1   17    5     -0.69      0.00
    0   17    5      1.61      0.00
    1   17    5     -0.45      0.00
    2   17    5     -0.03      0.00
    3   17    5     -0.06      0.00
   -3   18    5     -0.44      0.00
   -2   18    5      0.90      0.00
   -1   18    5     -0.35      0.00
    0   18    5      0.47      0.00
    1   18    5     -1.08      0.00
    2   18    5      0.63      0.00
   -1   19    5     -0.24      0.00
    0   19    5      0.49      0.00
   -9    0    6      1.47      0.00
   -8    0    6     -1.30      0.00
   -7    0    6      0.91      0.00
   -6    0    6     -1.06      0.00
   -5    0    6      1.58      0.00
   -4    0    6     -1.26      0.00
   -3    0    6     -0.92      0.00
   -2    0    6      4.19      0.00
   -1    0    6     -5.22      0.00
    0    0    6      1.88      0.00
    1    0    6      0.67      0.00
    2    0    6      2.45      0.00
    3    0    6     -4.71      0.00
    4    0    6      0.93      0.00
    5    0    6      1.80      0.00
    6    0    6     -0.16      0.00
    7    0    6     -0.57      0.00
    8    0    6      0.21      0.00
   -9    1    6     -0.10      0.00
   -8    1    6      0.23      0.00
   -7    1    6     -0.40      0.00
   -6    1    6      0.45      0.00
   -5    1    6     -0.58      0.00
   -4    1    6      1.09      0.00
   -3    1    6     -1.45      0.00
   -2    1    6      1.32      0.00
   -1    1    6     -0.61      0.00
    0    1    6     -0.54      0.00
    1    1    6      1.17      0.00
    2    1    6     -1.03      0.00
    3    1    6      1.13      0.00
    4    1    6     -1.41      0.00
    5    1    6      1.17      0.00
    6    1    6     -0.62      0.00
    7    1    6      0.13      0.00
    8    1    6      0.02      0.00
   -9    2    6      0.99      0.00
   -8    2    6     -0.78      0.00
   -7    2    6      0.61      0.00
   -6    2    6     -1.13      0.00
   -5    2    6      1.75      0.00
   -4    2    6     -1.31      0.00
   -3    2    6     -0.69      0.00
   -2    2    6      3.29      0.00
   -1    2    6     -3.67      0.00
    0    2    6      0.29      0.00
    1    2    6      1.78      0.00
    2    2    6      1.84      0.00
    3    2    6     -4.49      0.00
    4    2    6      0.99      0.00
    5    2    6      1.71      0.00
    6    2    6     -0.13      0.00
    7    2    6     -0.60      0.00
    8    2    6      0.09      0.00
   -9    3    6     -0.12      0.00
   -8    3    6      0.21      0.00
   -7    3    6     -0.59      0.00
   -6    3    6      0.70      0.00
   -5    3    6     -1.19      0.00
   -4    3    6      2.74      0.00
   -3    3    6     -3.62      0.00
   -2    3    6      2.92      0.00
   -1    3    6     -1.11      0.00
    0    3    6     -1.13      0.00
    1    3    6      1.83      0.00
    2    3    6     -1.15      0.00
    3    3    6      1.69      0.00
    4    3    6     -2.69      0.00
    5    3    6      2.24      0.00
    6    3    6     -1.02      0.00
    7    3    6     -0.16      0.00
    8    3    6      0.56      0.00
   -9    4    6      0.40      0.00
   -8    4    6      0.05      0.00
   -7    4    6     -0.09      0.00
   -6    4    6     -0.92      0.00
   -5    4    6      1.81      0.00
   -4    4    6     -1.50      0.00
   -3    4    6      0.26      0.00
   -2    4    6      1.09      0.00
   -1    4    6     -0.80      0.00
    0    4    6     -2.03      0.00
    1    4    6      3.10      0.00
    2    4    6      0.95      0.00
    3    4    6     -3.86      0.00
    4    4    6      1.07      0.00
    5    4    6      1.11      0.00
    6    4    6      0.54      0.00
    7    4    6     -1.23      0.00
    8    4    6      0.30      0.00
   -8    5    6     -0.20      0.00
   -7    5    6      0.03      0.00
   -6    5    6     -0.29      0.00
   -5    5    6     -0.16      0.00
   -4    5    6      2.55      0.00
   -3    5    6     -3.96      0.00
   -2    5    6      2.61      0.00
   -1    5    6     -0.23      0.00
    0    5    6     -1.25      0.00
    1    5    6      0.53      0.00
    2    5    6      0.77      0.00
    3    5    6      0.30      0.00
    4    5    6     -1.96      0.00
    5    5    6      1.68      0.00
    6    5    6     -0.54      0.00
    7    5    6     -0.55      0.00
    8    5    6      0.87      0.00
   -8    6    6      0.22      0.00
   -7    6    6     -0.46      0.00
   -6    6    6     -0.46      0.00
   -5    6    6      1.34      0.00
   -4    6    6     -1.44      0.00
   -3    6    6      1.28      0.00
   -2    6    6     -0.76      0.00
   -1    6    6      0.57      0.00
    0    6    6     -2.03      0.00
    1    6    6      2.43      0.00
    2    6    6      0.86      0.00
    3    6    6     -3.27      0.00
    4    6    6      1.53      0.00
    5    6    6     -0.45      0.00
    6    6    6      1.96      0.00
    7    6    6     -2.07      0.00
    8    6    6      0.61      0.00
   -8    7    6     -0.10      0.00
   -7    7    6      0.33      0.00
   -6    7    6     -1.45      0.00
   -5    7    6      1.81      0.00
   -4    7    6      0.70      0.00
   -3    7    6     -2.69      0.00
   -2    7    6      1.16      0.00
   -1    7    6      1.39      0.00
    0    7    6     -1.68      0.00
    1    7    6     -0.50      0.00
    2    7    6      2.18      0.00
    3    7    6     -0.96      0.00
    4    7    6     -0.88      0.00
    5    7    6      0.97      0.00
    6    7    6     -0.27      0.00
    7    7    6     -0.29      0.00
   -8    8    6      0.02      0.00
   -7    8    6     -0.32      0.00
   -6    8    6     -0.16      0.00
   -5    8    6      0.44      0.00
   -4    8    6     -0.50      0.00
   -3    8    6      1.13      0.00
   -2    8    6     -1.02      0.00
   -1    8    6     -0.02      0.00
    0    8    6     -0.26      0.00
    1    8    6      0.72      0.00
    2    8    6      1.19      0.00
    3    8    6     -2.91      0.00
    4    8    6      2.42      0.00
    5    8    6     -2.38      0.00
    6    8    6      2.97      0.00
    7    8    6     -1.81      0.00
   -8    9    6      0.23      0.00
   -7    9    6      0.00      0.00
   -6    9    6     -1.35      0.00
   -5    9    6      2.32      0.00
   -4    9    6     -0.46      0.00
   -3    9    6     -1.51      0.00
   -2    9    6     -0.01      0.00
   -1    9    6      2.64      0.00
    0    9    6     -2.27      0.00
    1    9    6     -0.68      0.00
    2    9    6      2.64      0.00
    3    9    6     -1.84      0.00
    4    9    6      0.12      0.00
    5    9    6      0.45      0.00
    6    9    6     -0.02      0.00
    7    9    6     -0.37      0.00
   -7   10    6     -0.42      0.00
   -6   10    6      0.15      0.00
   -5   10    6     -0.50      0.00
   -4   10    6      0.81      0.00
   -3   10    6      0.32      0.00
   -2   10    6     -0.56      0.00
   -1   10    6     -1.12      0.00
    0   10    6      1.52      0.00
    1   10    6     -0.60      0.00
    2   10    6      1.08      0.00
    3   10    6     -2.01      0.00
    4   10    6      2.30      0.00
    5   10    6     -2.96      0.00
    6   10    6      2.84      0.00
    7   10    6     -0.97      0.00
   -7   11    6     -0.10      0.00
   -6   11    6     -0.67      0.00
   -5   11    6      1.36      0.00
   -4   11    6     -0.18      0.00
   -3   11    6     -1.35      0.00
   -2   11    6     -0.05      0.00
   -1   11    6      2.78      0.00
    0   11    6     -2.66      0.00
    1   11    6      0.03      0.00
    2   11    6      1.85      0.00
    3   11    6     -1.71      0.00
    4   11    6      0.47      0.00
    5   11    6      0.22      0.00
    6   11    6      0.29      0.00
   -7   12    6     -0.56      0.00
   -6   12    6      0.12      0.00
   -5   12    6     -0.78      0.00
   -4   12    6      1.41      0.00
   -3   12    6      0.19      0.00
   -2   12    6     -0.86      0.00
   -1   12    6     -1.34      0.00
    0   12    6      2.43      0.00
    1   12    6     -1.35      0.00
    2   12    6      0.83      0.00
    3   12    6     -0.83      0.00
    4   12    6      0.93      0.00
    5   12    6     -1.73      0.00
    6   12    6      1.71      0.00
   -6   13    6     -0.52      0.00
   -5   13    6      0.60      0.00
   -4   13    6      0.27      0.00
   -3   13    6     -1.55      0.00
   -2   13    6      0.68      0.00
   -1   13    6      1.90      0.00
    0   13    6     -2.57      0.00
    1   13    6      1.11      0.00
    2   13    6      0.06      0.00
    3   13    6     -0.25      0.00
    4   13    6     -0.22      0.00
    5   13    6      0.48      0.00
    6   13    6      0.17      0.00
   -6   14    6     -0.53      0.00
   -5   14    6     -0.31      0.00
   -4   14    6      1.18      0.00
   -3   14    6      0.77      0.00
   -2   14    6     -1.89      0.00
   -1   14    6     -0.54      0.00
    0   14    6      2.27      0.00
    1   14    6     -1.54      0.00
    2   14    6      0.89      0.00
    3   14    6     -0.48      0.00
    4   14    6      0.05      0.00
    5   14    6     -0.38      0.00
   -5   15    6      0.15      0.00
   -4   15    6      0.35      0.00
   -3   15    6     -1.43      0.00
   -2   15    6      1.32      0.00
   -1   15    6      0.57      0.00
    0   15    6     -1.49      0.00
    1   15    6      0.88      0.00
    2   15    6     -0.53      0.00
    3   15    6      0.59      0.00
    4   15    6     -0.63      0.00
    5   15    6      0.51      0.00
   -5   16    6      0.00      0.00
   -4   16    6      0.81      0.00
   -3   16    6      1.13      0.00
   -2   16    6     -2.35      0.00
   -1   16    6      0.22      0.00
    0   16    6      1.49      0.00
    1   16    6     -1.07      0.00
    2   16    6      0.67      0.00
    3   16    6     -0.48      0.00
    4   16    6      0.04      0.00
   -4   17    6      0.08      0.00
   -3   17    6     -0.76      0.00
   -2   17    6      1.23      0.00
   -1   17    6     -0.39      0.00
    0   17    6     -0.10      0.00
    1   17    6     -0.31      0.00
    2   17    6      0.17      0.00
    3   17    6      0.30      0.00
   -3   18    6      0.74      0.00
   -2   18    6     -1.56      0.00
   -1   18    6      0.23      0.00
    0   18    6      0.73      0.00
    1   18    6     -0.30      0.00
    2   18    6      0.04      0.00
   -9    1    7      1.49      0.00
   -8    1    7     -1.85      0.00
   -7    1    7      1.36      0.00
   -6    1    7     -0.75      0.00
   -5    1    7      0.63      0.00
   -4    1    7     -0.90      0.00
   -3    1    7      0.30      0.00
   -2    1    7      3.03      0.00
   -1    1    7     -6.07      0.00
    0    1    7      2.74      0.00
    1    1    7      2.95      0.00
    2    1    7     -1.91      0.00
    3    1    7     -1.91      0.00
    4    1    7      0.76      0.00
    5    1    7      1.19      0.00
    6    1    7     -0.30      0.00
    7    1    7      0.17      0.00
    8    1    7     -0.52      0.00
   -9    2    7      0.16      0.00
   -8    2    7      0.37      0.00
   -7    2    7     -1.02      0.00
   -6    2    7      0.92      0.00
   -5    2    7     -0.44      0.00
   -4    2    7      0.86      0.00
   -3    2    7     -1.83      0.00
   -2    2    7      2.16      0.00
   -1    2    7     -1.05      0.00
    0    2    7     -1.14      0.00
    1    2    7      2.05      0.00
    2    2    7     -1.13      0.00
    3    2    7      0.88      0.00
    4    2    7     -1.72      0.00
    5    2    7      1.83      0.00
    6    2    7     -0.96      0.00
    7    2    7     -0.16      0.00
    8    2    7      0.64      0.00
   -9    3    7      0.74      0.00
   -8    3    7     -0.82      0.00
   -7    3    7      0.53      0.00
   -6    3    7     -0.53      0.00
   -5    3    7      0.77      0.00
   -4    3    7     -1.02      0.00
   -3    3    7      0.73      0.00
   -2    3    7      1.38      0.00
   -1    3    7     -3.20      0.00
    0    3    7      0.27      0.00
    1    3    7      3.82      0.00
    2    3    7     -1.82      0.00
    3    3    7     -2.06      0.00
    4    3    7      0.87      0.00
    5    3    7      1.17      0.00
    6    3    7     -0.28      0.00
    7    3    7     -0.08      0.00
    8    3    7     -0.42      0.00
   -8    4    7      0.15      0.00
   -7    4    7     -0.95      0.00
   -6    4    7      0.69      0.00
   -5    4    7     -0.01      0.00
   -4    4    7      1.10      0.00
   -3    4    7     -2.93      0.00
   -2    4    7      3.14      0.00
   -1    4    7     -1.07      0.00
    0    4    7     -1.86      0.00
    1    4    7      2.35      0.00
    2    4    7     -0.43      0.00
    3    4    7      0.23      0.00
    4    4    7     -1.87      0.00
    5    4    7      2.24      0.00
    6    4    7     -1.12      0.00
    7    4    7     -0.38      0.00
    8    4    7      1.05      0.00
   -8    5    7      0.01      0.00
   -7    5    7     -0.39      0.00
   -6    5    7      0.04      0.00
   -5    5    7      0.58      0.00
   -4    5    7     -1.11      0.00
   -3    5    7      1.34      0.00
   -2    5    7     -0.23      0.00
   -1    5    7     -1.02      0.00
    0    5    7     -0.72      0.00
    1    5    7      2.96      0.00
    2    5    7     -0.65      0.00
    3    5    7     -2.60      0.00
    4    5    7      1.53      0.00
    5    5    7      0.06      0.00
    6    5    7      1.01      0.00
    7    5    7     -1.40      0.00
    8    5    7      0.42      0.00
   -8    6    7      0.00      0.00
   -7    6    7     -0.38      0.00
   -6    6    7     -0.49      0.00
   -5    6    7      1.61      0.00
   -4    6    7     -0.01      0.00
   -3    6    7     -2.71      0.00
   -2    6    7      2.89      0.00
   -1    6    7     -0.36      0.00
    0    6    7     -2.11      0.00
    1    6    7      1.52      0.00
    2    6    7      0.94      0.00
    3    6    7     -1.02      0.00
    4    6    7     -0.89      0.00
    5    6    7      1.43      0.00
    6    6    7     -0.59      0.00
    7    6    7     -0.44      0.00
   -8    7    7     -0.03      0.00
   -7    7    7     -0.43      0.00
   -6    7    7      0.21      0.00
   -5    7    7      0.30      0.00
   -4    7    7     -0.93      0.00
   -3    7    7      1.50      0.00
   -2    7    7     -0.72      0.00
   -1    7    7     -0.76      0.00
    0    7    7      0.16      0.00
    1    7    7      1.15      0.00
    2    7    7      0.48      0.00
    3    7    7     -2.76      0.00
    4    7    7      2.26      0.00
    5    7    7     -1.56      0.00
    6    7    7      2.43      0.00
    7    7    7     -2.19      0.00
   -8    8    7      0.18      0.00
   -7    8    7     -0.16      0.00
   -6    8    7     -1.21      0.00
   -5    8    7      2.89      0.00
   -4    8    7     -1.52      0.00
   -3    8    7     -1.46      0.00
   -2    8    7      1.73      0.00
   -1    8    7      0.70      0.00
    0    8    7     -2.28      0.00
    1    8    7      0.85      0.00
    2    8    7      1.67      0.00
    3    8    7     -1.83      0.00
    4    8    7      0.10      0.00
    5    8    7      0.69      0.00
    6    8    7     -0.19      0.00
    7    8    7     -0.39      0.00
   -8    9    7     -0.17      0.00
   -7    9    7     -0.24      0.00
   -6    9    7      0.20      0.00
   -5    9    7     -0.15      0.00
   -4    9    7     -0.12      0.00
   -3    9    7      0.86      0.00
   -2    9    7     -0.43      0.00
   -1    9    7     -1.14      0.00
    0    9    7      1.09      0.00
    1    9    7      0.05      0.00
    2    9    7      0.66      0.00
    3    9    7     -2.08      0.00
    4    9    7      2.17      0.00
    5    9    7     -2.27      0.00
    6    9    7      2.63      0.00
    7    9    7     -1.58      0.00
   -7   10    7     -0.18      0.00
   -6   10    7     -0.89      0.00
   -5   10    7      2.42      0.00
   -4   10    7     -1.72      0.00
   -3   10    7     -0.54      0.00
   -2   10    7      0.63      0.00
   -1   10    7      1.54      0.00
    0   10    7     -2.51      0.00
    1   10    7      0.88      0.00
    2   10    7      1.42      0.00
    3   10    7     -1.97      0.00
    4   10    7      0.61      0.00
    5   10    7      0.53      0.00
    6   10    7     -0.21      0.00
    7   10    7     -0.43      0.00
   -7   11    7     -0.61      0.00
   -6   11    7      0.52      0.00
   -5   11    7     -0.73      0.00
   -4   11    7      0.91      0.00
   -3   11    7      0.11      0.00
   -2   11    7     -0.42      0.00
   -1   11    7     -1.09      0.00
    0   11    7      1.69      0.00
    1   11    7     -0.86      0.00
    2   11    7      0.84      0.00
    3   11    7     -1.25      0.00
    4   11    7      1.22      0.00
    5   11    7     -1.68      0.00
    6   11    7      1.93      0.00
   -7   12    7     -0.05      0.00
   -6   12    7     -0.46      0.00
   -5   12    7      1.20      0.00
   -4   12    7     -0.81      0.00
   -3   12    7     -0.64      0.00
   -2   12    7      0.58      0.00
   -1   12    7      1.37      0.00
    0   12    7     -2.44      0.00
    1   12    7      1.52      0.00
    2   12    7      0.12      0.00
    3   12    7     -1.05      0.00
    4   12    7      0.40      0.00
    5   12    7      0.66      0.00
    6   12    7     -0.35      0.00
   -6   13    7      0.25      0.00
   -5   13    7     -0.51      0.00
   -4   13    7      1.19      0.00
   -3   13    7      0.04      0.00
   -2   13    7     -1.24      0.00
   -1   13    7     -0.10      0.00
    0   13    7      1.56      0.00
    1   13    7     -1.49      0.00
    2   13    7      1.30      0.00
    3   13    7     -0.91      0.00
    4   13    7      0.27      0.00
    5   13    7     -0.51      0.00
   -6   14    7     -0.42      0.00
   -5   14    7      0.43      0.00
   -4   14    7     -0.01      0.00
   -3   14    7     -1.03      0.00
   -2   14    7      1.13      0.00
   -1   14    7      0.49      0.00
    0   14    7     -1.77      0.00
    1   14    7      1.65      0.00
    2   14    7     -0.90      0.00
    3   14    7      0.15      0.00
    4   14    7     -0.22      0.00
    5   14    7      0.76      0.00
   -5   15    7      0.24      0.00
   -4   15    7      0.90      0.00
   -3   15    7      0.19      0.00
   -2   15    7     -1.91      0.00
   -1   15    7      0.96      0.00
    0   15    7      0.81      0.00
    1   15    7     -1.29      0.00
    2   15    7      1.30      0.00
    3   15    7     -0.84      0.00
    4   15    7      0.02      0.00
   -4   16    7      0.15      0.00
   -3   16    7     -0.82      0.00
   -2   16    7      1.17      0.00
   -1   16    7     -0.22      0.00
    0   16    7     -0.68      0.00
    1   16    7      0.65      0.00
    2   16    7     -0.52      0.00
    3   16    7      0.44      0.00
    4   16    7     -0.43      0.00
   -3   17    7     -0.15      0.00
   -2   17    7     -1.34      0.00
   -1   17    7      0.86      0.00
    0   17    7      0.37      0.00
    1   17    7     -0.66      0.00
    2   17    7      0.64      0.00
    3   17    7     -0.44      0.00
   -2   18    7      0.54      0.00
   -1   18    7     -0.31      0.00
    0   18    7      0.04      0.00
    1   18    7     -0.25      0.00
   -9    0    8      1.26      0.00
   -8    0    8     -2.40      0.00
   -7    0    8      2.32      0.00
   -6    0    8     -0.86      0.00
   -5    0    8     -0.33      0.00
   -4    0    8      0.01      0.00
   -3    0    8      0.55      0.00
   -2    0    8      2.08      0.00
   -1    0    8     -6.27      0.00
    0    0    8      4.34      0.00
    1    0    8      2.46      0.00
    2    0    8     -4.08      0.00
    3    0    8      0.96      0.00
    4    0    8     -0.39      0.00
    5    0    8      1.06      0.00
    6    0    8     -0.52      0.00
    7    0    8      0.94      0.00
    8    0    8     -1.22      0.00
   -9    1    8      0.22      0.00
   -8    1    8      0.09      0.00
   -7    1    8     -0.59      0.00
   -6    1    8      0.64      0.00
   -5    1    8     -0.17      0.00
   -4    1    8     -0.01      0.00
   -3    1    8     -0.45      0.00
   -2    1    8      0.94      0.00
   -1    1    8     -0.64      0.00
    0    1    8     -0.50      0.00
    1    1    8      1.22      0.00
    2    1    8     -0.75      0.00
    3    1    8      0.21      0.00
    4    1    8     -0.39      0.00
    5    1    8      0.64      0.00
    6    1    8     -0.48      0.00
    7    1    8     -0.01      0.00
    8    1    8      0.35      0.00
   -9    2    8      0.83      0.00
   -8    2    8     -1.74      0.00
   -7    2    8      1.73      0.00
   -6    2    8     -0.65      0.00
   -5    2    8     -0.23      0.00
   -4    2    8     -0.15      0.00
   -3    2    8      0.85      0.00
   -2    2    8      1.17      0.00
   -1    2    8     -4.62      0.00
    0    2    8      2.87      0.00
    1    2    8      2.92      0.00
    2    2    8     -3.83      0.00
    3    2    8      0.60      0.00
    4    2    8     -0.13      0.00
    5    2    8      1.01      0.00
    6    2    8     -0.57      0.00
    7    2    8      0.84      0.00
    8    2    8     -1.11      0.00
   -8    3    8     -0.10      0.00
   -7    3    8     -1.08      0.00
   -6    3    8      1.25      0.00
   -5    3    8     -0.16      0.00
   -4    3    8     -0.08      0.00
   -3    3    8     -1.12      0.00
   -2    3    8      2.13      0.00
   -1    3    8     -1.20      0.00
    0    3    8     -1.55      0.00
    1    3    8      2.99      0.00
    2    3    8     -1.58      0.00
    3    3    8      0.35      0.00
    4    3    8     -1.00      0.00
    5    3    8      1.68      0.00
    6    3    8     -1.28      0.00
    7    3    8      0.11      0.00
    8    3    8      0.77      0.00
   -8    4    8     -0.56      0.00
   -7    4    8      0.44      0.00
   -6    4    8      0.00      0.00
   -5    4    8     -0.21      0.00
   -4    4    8     -0.49      0.00
   -3    4    8      1.51      0.00
   -2    4    8     -0.47      0.00
   -1    4    8     -1.96      0.00
    0    4    8      0.95      0.00
    1    4    8      2.68      0.00
    2    4    8     -2.48      0.00
    3    4    8     -0.53      0.00
    4    4    8      0.74      0.00
    5    4    8      0.34      0.00
    6    4    8      0.07      0.00
    7    4    8     -0.11      0.00
    8    4    8     -0.33      0.00
   -8    5    8     -0.36      0.00
   -7    5    8     -0.74      0.00
   -6    5    8      0.73      0.00
   -5    5    8      0.67      0.00
   -4    5    8     -0.63      0.00
   -3    5    8     -1.32      0.00
   -2    5    8      2.51      0.00
   -1    5    8     -1.11      0.00
    0    5    8     -1.95      0.00
    1    5    8      3.07      0.00
    2    5    8     -1.12      0.00
    3    5    8     -0.16      0.00
    4    5    8     -0.78      0.00
    5    5    8      1.51      0.00
    6    5    8     -1.06      0.00
    7    5    8      0.00      0.00
   -8    6    8     -0.08      0.00
   -7    6    8     -0.24      0.00
   -6    6    8      0.39      0.00
   -5    6    8     -0.21      0.00
   -4    6    8     -0.72      0.00
   -3    6    8      1.85      0.00
   -2    6    8     -1.15      0.00
   -1    6    8     -0.94      0.00
    0    6    8      0.82      0.00
    1    6    8      1.11      0.00
    2    6    8     -0.59      0.00
    3    6    8     -1.62      0.00
    4    6    8      1.69      0.00
    5    6    8     -0.91      0.00
    6    6    8      1.39      0.00
    7    6    8     -1.47      0.00
   -8    7    8     -0.13      0.00
   -7    7    8     -0.40      0.00
   -6    7    8     -0.20      0.00
   -5    7    8      2.05      0.00
   -4    7    8     -1.87      0.00
   -3    7    8     -0.72      0.00
   -2    7    8      2.27      0.00
   -1    7    8     -0.97      0.00
    0    7    8     -1.48      0.00
    1    7    8      1.97      0.00
    2    7    8     -0.07      0.00
    3    7    8     -1.00      0.00
    4    7    8      0.17      0.00
    5    7    8      0.40      0.00
    6    7    8     -0.04      0.00
    7    7    8     -0.44      0.00
   -8    8    8     -0.25      0.00
   -7    8    8      0.02      0.00
   -6    8    8      0.08      0.00
   -5    8    8     -0.14      0.00
   -4    8    8     -0.43      0.00
   -3    8    8      1.32      0.00
   -2    8    8     -0.72      0.00
   -1    8    8     -1.04      0.00
    0    8    8      1.16      0.00
    1    8    8      0.09      0.00
    2    8    8      0.21      0.00
    3    8    8     -1.59      0.00
    4    8    8      1.74      0.00
    5    8    8     -1.52      0.00
    6    8    8      1.94      0.00
    7    8    8     -1.67      0.00
   -7    9    8     -0.17      0.00
   -6    9    8     -0.65      0.00
   -5    9    8      2.61      0.00
   -4    9    8     -2.72      0.00
   -3    9    8      0.32      0.00
   -2    9    8      1.21      0.00
   -1    9    8     -0.24      0.00
    0    9    8     -1.38      0.00
    1    9    8      1.38      0.00
    2    9    8      0.31      0.00
    3    9    8     -1.43      0.00
    4    9    8      0.81      0.00
    5    9    8      0.02      0.00
    6    9    8      0.12      0.00
    7    9    8     -0.48      0.00
   -7   10    8      0.02      0.00
   -6   10    8      0.08      0.00
   -5   10    8     -0.39      0.00
   -4   10    8      0.33      0.00
   -3   10    8      0.39      0.00
   -2   10    8     -0.22      0.00
   -1   10    8     -0.99      0.00
    0   10    8      1.15      0.00
    1   10    8     -0.32      0.00
    2   10    8      0.36      0.00
    3   10    8     -0.85      0.00
    4   10    8      0.82      0.00
    5   10    8     -1.06      0.00
    6   10    8      1.51      0.00
   -7   11    8     -0.13      0.00
   -6   11    8     -0.39      0.00
   -5   11    8      1.78      0.00
   -4   11    8     -2.08      0.00
   -3   11    8      0.54      0.00
   -2   11    8      0.46      0.00
   -1   11    8      0.41      0.00
    0   11    8     -1.62      0.00
    1   11    8      1.64      0.00
    2   11    8     -0.29      0.00
    3   11    8     -1.14      0.00
    4   11    8      0.89      0.00
    5   11    8      0.36      0.00
    6   11    8     -0.47      0.00
   -6   12    8      0.37      0.00
   -5   12    8     -0.51      0.00
   -4   12    8      0.77      0.00
   -3   12    8     -0.09      0.00
   -2   12    8     -0.48      0.00
   -1   12    8     -0.23      0.00
    0   12    8      0.86      0.00
    1   12    8     -0.86      0.00
    2   12    8      0.90      0.00
    3   12    8     -0.54      0.00
    4   12    8     -0.08      0.00
    5   12    8     -0.20      0.00
    6   12    8      0.75      0.00
   -6   13    8     -0.11      0.00
   -5   13    8      0.65      0.00
   -4   13    8     -0.75      0.00
   -3   13    8     -0.14      0.00
   -2   13    8      0.68      0.00
   -1   13    8      0.20      0.00
    0   13    8     -1.36      0.00
    1   13    8      1.77      0.00
    2   13    8     -1.05      0.00
    3   13    8     -0.36      0.00
    4   13    8      0.54      0.00
    5   13    8      0.57      0.00
   -5   14    8      0.07      0.00
   -4   14    8      0.61      0.00
   -3   14    8     -0.21      0.00
   -2   14    8     -0.99      0.00
   -1   14    8      0.86      0.00
    0   14    8      0.18      0.00
    1   14    8     -1.01      0.00
    2   14    8      1.40      0.00
    3   14    8     -0.80      0.00
    4   14    8     -0.20      0.00
    5   14    8      0.25      0.00
   -5   15    8      0.18      0.00
   -4   15    8     -0.08      0.00
   -3   15    8     -0.47      0.00
   -2   15    8      0.80      0.00
   -1   15    8     -0.11      0.00
    0   15    8     -0.76      0.00
    1   15    8      1.13      0.00
    2   15    8     -1.00      0.00
    3   15    8      0.31      0.00
    4   15    8     -0.08      0.00
   -4   16    8      0.50      0.00
   -3   16    8     -0.63      0.00
   -2   16    8     -0.68      0.00
   -1   16    8      1.08      0.00
    0   16    8     -0.24      0.00
    1   16    8     -0.68      0.00
    2   16    8      1.17      0.00
    3   16    8     -0.78      0.00
   -3   17    8     -0.18      0.00
   -2   17    8      0.45      0.00
   -1   17    8     -0.10      0.00
    0   17    8     -0.22      0.00
    1   17    8      0.16      0.00
    2   17    8     -0.26      0.00
   -2   18    8      0.08      0.00
   -1   18    8      0.45      0.00
    0   18    8     -0.16      0.00
   -8    1    9     -1.83      0.00
   -7    1    9      2.73      0.00
   -6    1    9     -1.21      0.00
   -5    1    9     -0.88      0.00
   -4    1    9      0.91      0.00
   -3    1    9      0.44      0.00
   -2    1    9      0.66      0.00
   -1    1    9     -4.41      0.00
    0    1    9      4.32      0.00
    1    1    9      0.91      0.00
    2    1    9     -3.82      0.00
    3    1    9      2.62      0.00
    4    1    9     -1.84      0.00
    5    1    9      1.47      0.00
    6    1    9     -0.78      0.00
    7    1    9      1.27      0.00
   -8    2    9     -0.22      0.00
   -7    2    9     -0.61      0.00
   -6    2    9      1.03      0.00
   -5    2    9     -0.34      0.00
   -4    2    9     -0.27      0.00
   -3    2    9     -0.20      0.00
   -2    2    9      1.05      0.00
   -1    2    9     -0.81      0.00
    0    2    9     -0.93      0.00
    1    2    9      2.34      0.00
    2    2    9     -1.72      0.00
    3    2    9      0.37      0.00
    4    2    9     -0.11      0.00
    5    2    9      0.63      0.00
    6    2    9     -0.91      0.00
    7    2    9      0.49      0.00
   -8    3    9     -0.90      0.00
   -7    3    9      1.55      0.00
   -6    3    9     -0.62      0.00
   -5    3    9     -0.72      0.00
   -4    3    9      0.41      0.00
   -3    3    9      1.09      0.00
   -2    3    9     -0.58      0.00
   -1    3    9     -2.34      0.00
    0    3    9      2.53      0.00
    1    3    9      1.18      0.00
    2    3    9     -2.93      0.00
    3    3    9      1.44      0.00
    4    3    9     -0.69      0.00
    5    3    9      0.71      0.00
    6    3    9     -0.40      0.00
    7    3    9      0.77      0.00
   -8    4    9     -0.69      0.00
   -7    4    9     -0.50      0.00
   -6    4    9      1.31      0.00
   -5    4    9     -0.37      0.00
   -4    4    9     -0.57      0.00
   -3    4    9     -0.10      0.00
   -2    4    9      1.27      0.00
   -1    4    9     -0.90      0.00
    0    4    9     -1.53      0.00
    1    4    9      3.45      0.00
    2    4    9     -2.54      0.00
    3    4    9      0.77      0.00
    4    4    9     -0.52      0.00
    5    4    9      1.11      0.00
    6    4    9     -1.32      0.00
    7    4    9      0.71      0.00
   -8    5    9     -0.18      0.00
   -7    5    9      0.36      0.00
   -6    5    9     -0.01      0.00
   -5    5    9     -0.48      0.00
   -4    5    9     -0.27      0.00
   -3    5    9      1.89      0.00
   -2    5    9     -1.76      0.00
   -1    5    9     -0.55      0.00
    0    5    9      1.30      0.00
    1    5    9      0.60      0.00
    2    5    9     -1.34      0.00
    3    5    9      0.03      0.00
    4    5    9      0.51      0.00
    5    5    9     -0.26      0.00
    6    5    9      0.37      0.00
    7    5    9     -0.23      0.00
   -8    6    9     -0.61      0.00
   -7    6    9     -0.26      0.00
   -6    6    9      0.86      0.00
   -5    6    9      0.36      0.00
   -4    6    9     -1.39      0.00
   -3    6    9      0.39      0.00
   -2    6    9      1.22      0.00
   -1    6    9     -1.21      0.00
    0    6    9     -0.82      0.00
    1    6    9      2.56      0.00
    2    6    9     -1.90      0.00
    3    6    9      0.45      0.00
    4    6    9     -0.15      0.00
    5    6    9      0.33      0.00
    6    6    9     -0.30      0.00
    7    6    9      0.07      0.00
   -8    7    9     -0.07      0.00
   -7    7    9      0.12      0.00
   -6    7    9     -0.09      0.00
   -5    7    9     -0.20      0.00
   -4    7    9     -0.36      0.00
   -3    7    9      1.72      0.00
   -2    7    9     -1.62      0.00
   -1    7    9     -0.20      0.00
    0    7    9      1.06      0.00
    1    7    9     -0.20      0.00
    2    7    9     -0.11      0.00
    3    7    9     -0.66      0.00
    4    7    9      0.96      0.00
    5    7    9     -0.83      0.00
    6    7    9      0.95      0.00
    7    7    9     -0.88      0.00
   -8    8    9     -0.26      0.00
   -7    8    9     -0.09      0.00
   -6    8    9      0.12      0.00
   -5    8    9      1.42      0.00
   -4    8    9     -2.47      0.00
   -3    8    9      1.18      0.00
   -2    8    9      0.80      0.00
   -1    8    9     -1.27      0.00
    0    8    9      0.00      0.00
    1    8    9      1.27      0.00
    2    8    9     -0.87      0.00
    3    8    9     -0.31      0.00
    4    8    9      0.69      0.00
    5    8    9     -0.61      0.00
    6    8    9      0.63      0.00
    7    8    9     -0.54      0.00
   -7    9    9      0.41      0.00
   -6    9    9     -0.53      0.00
   -5    9    9     -0.01      0.00
   -4    9    9      0.10      0.00
   -3    9    9      0.70      0.00
   -2    9    9     -0.66      0.00
   -1    9    9     -0.44      0.00
    0    9    9      0.80      0.00
    1    9    9     -0.32      0.00
    2    9    9      0.20      0.00
    3    9    9     -0.38      0.00
    4    9    9      0.39      0.00
    5    9    9     -0.57      0.00
    6    9    9      0.85      0.00
   -7   10    9      0.07      0.00
   -6   10    9     -0.23      0.00
   -5   10    9      1.57      0.00
   -4   10    9     -2.49      0.00
   -3   10    9      1.42      0.00
   -2   10    9      0.18      0.00
   -1   10    9     -0.54      0.00
    0   10    9     -0.28      0.00
    1   10    9      1.13      0.00
    2   10    9     -0.70      0.00
    3   10    9     -0.67      0.00
    4   10    9      1.09      0.00
    5   10    9     -0.40      0.00
    6   10    9      0.10      0.00
   -7   11    9      0.29      0.00
   -6   11    9     -0.44      0.00
   -5   11    9      0.02      0.00
   -4   11    9      0.33      0.00
   -3   11    9      0.07      0.00
   -2   11    9     -0.17      0.00
   -1   11    9     -0.28      0.00
    0   11    9      0.31      0.00
    1   11    9     -0.23      0.00
    2   11    9      0.34      0.00
    3   11    9      0.07      0.00
    4   11    9     -0.55      0.00
    5   11    9      0.19      0.00
    6   11    9      0.36      0.00
   -6   12    9     -0.01      0.00
   -5   12    9      0.77      0.00
   -4   12    9     -1.34      0.00
   -3   12    9      0.68      0.00
   -2   12    9      0.20      0.00
   -1   12    9     -0.13      0.00
    0   12    9     -0.65      0.00
    1   12    9      1.43      0.00
    2   12    9     -1.11      0.00
    3   12    9     -0.45      0.00
    4   12    9      1.05      0.00
    5   12    9      0.05      0.00
   -6   13    9     -0.05      0.00
   -5   13    9      0.13      0.00
   -4   13    9      0.16      0.00
   -3   13    9     -0.10      0.00
   -2   13    9     -0.18      0.00
   -1   13    9      0.28      0.00
    0   13    9     -0.25      0.00
    1   13    9     -0.29      0.00
    2   13    9      0.87      0.00
    3   13    9     -0.27      0.00
    4   13    9     -0.64      0.00
    5   13    9      0.49      0.00
   -5   14    9      0.20      0.00
   -4   14    9     -0.43      0.00
   -3   14    9      0.04      0.00
   -2   14    9      0.40      0.00
   -1   14    9     -0.13      0.00
    0   14    9     -0.51      0.00
    1   14    9      1.16      0.00
    2   14    9     -1.23      0.00
    3   14    9      0.14      0.00
    4   14    9      0.51      0.00
   -5   15    9      0.35      0.00
   -4   15    9      0.06      0.00
   -3   15    9     -0.47      0.00
   -2   15    9      0.05      0.00
   -1   15    9      0.58      0.00
    0   15    9     -0.63      0.00
    1   15    9     -0.29      0.00
    2   15    9      1.24      0.00
    3   15    9     -0.86      0.00
    4   15    9     -0.08      0.00
   -4   16    9     -0.23      0.00
   -3   16    9     -0.06      0.00
   -2   16    9      0.32      0.00
   -1   16    9     -0.05      0.00
    0   16    9     -0.21      0.00
    1   16    9      0.37      0.00
    2   16    9     -0.65      0.00
    3   16    9      0.45      0.00
   -3   17    9     -0.84      0.00
   -2   17    9      0.44      0.00
   -1   17    9      0.38      0.00
    0   17    9     -0.56      0.00
    1   17    9     -0.12      0.00
    2   17    9      0.79      0.00
   -8    0   10     -0.99      0.00
   -7    0   10      2.87      0.00
   -6    0   10     -1.88      0.00
   -5    0   10     -0.91      0.00
   -4    0   10      1.70      0.00
   -3    0   10     -0.15      0.00
   -2    0   10     -0.04      0.00
   -1    0   10     -2.72      0.00
    0    0   10      3.99      0.00
    1    0   10     -1.03      0.00
    2    0   10     -2.12      0.00
    3    0   10      3.06      0.00
    4    0   10     -3.14      0.00
    5    0   10      2.13      0.00
    6    0   10     -0.88      0.00
    7    0   10      1.12      0.00
   -8    1   10     -0.03      0.00
   -7    1   10     -0.17      0.00
   -6    1   10      0.39      0.00
   -5    1   10     -0.24      0.00
   -4    1   10     -0.05      0.00
   -3    1   10     -0.03      0.00
   -2    1   10      0.31      0.00
   -1    1   10     -0.21      0.00
    0    1   10     -0.47      0.00
    1    1   10      1.12      0.00
    2    1   10     -1.00      0.00
    3    1   10      0.33      0.00
    4    1   10      0.05      0.00
    5    1   10      0.09      0.00
    6    1   10     -0.40      0.00
    7    1   10      0.43      0.00
   -8    2   10     -0.58      0.00
   -7    2   10      2.24      0.00
   -6    2   10     -1.54      0.00
   -5    2   10     -0.75      0.00
   -4    2   10      1.34      0.00
   -3    2   10      0.17      0.00
   -2    2   10     -0.51      0.00
   -1    2   10     -1.83      0.00
    0    2   10      3.08      0.00
    1    2   10     -0.75      0.00
    2    2   10     -1.73      0.00
    3    2   10      2.31      0.00
    4    2   10     -2.25      0.00
    5    2   10      1.46      0.00
    6    2   10     -0.58      0.00
    7    2   10      0.90      0.00
   -8    3   10     -0.37      0.00
   -7    3   10     -0.19      0.00
   -6    3   10      1.03      0.00
   -5    3   10     -0.82      0.00
   -4    3   10     -0.01      0.00
   -3    3   10      0.07      0.00
   -2    3   10      0.48      0.00
   -1    3   10     -0.36      0.00
    0    3   10     -1.10      0.00
    1    3   10      2.67      0.00
    2    3   10     -2.54      0.00
    3    3   10      1.13      0.00
    4    3   10     -0.29      0.00
    5    3   10      0.52      0.00
    6    3   10     -1.05      0.00
    7    3   10      1.00      0.00
   -8    4   10     -0.04      0.00
   -7    4   10      1.01      0.00
   -6    4   10     -0.84      0.00
   -5    4   10     -0.35      0.00
   -4    4   10      0.42      0.00
   -3    4   10      1.05      0.00
   -2    4   10     -1.61      0.00
   -1    4   10     -0.11      0.00
    0    4   10      1.48      0.00
    1    4   10     -0.47      0.00
    2    4   10     -0.83      0.00
    3    4   10      0.98      0.00
    4    4   10     -0.81      0.00
    5    4   10      0.41      0.00
    6    4   10     -0.10      0.00
    7    4   10      0.44      0.00
   -8    5   10     -0.66      0.00
   -7    5   10      0.05      0.00
   -6    5   10      1.18      0.00
   -5    5   10     -0.99      0.00
   -4    5   10     -0.32      0.00
   -3    5   10      0.71      0.00
   -2    5   10      0.10      0.00
   -1    5   10     -0.56      0.00
    0    5   10     -0.60      0.00
    1    5   10      2.43      0.00
    2    5   10     -2.73      0.00
    3    5   10      1.52      0.00
    4    5   10     -0.59      0.00
    5    5   10      0.47      0.00
    6    5   10     -0.69      0.00
    7    5   10      0.68      0.00
   -8    6   10      0.11      0.00
   -7    6   10      0.20      0.00
   -6    6   10     -0.41      0.00
   -5    6   10     -0.01      0.00
   -4    6   10     -0.20      0.00
   -3    6   10      1.57      0.00
   -2    6   10     -2.15      0.00
   -1    6   10      0.83      0.00
    0    6   10      0.59      0.00
    1    6   10     -0.58      0.00
    2    6   10      0.02      0.00
    3    6   10      0.18      0.00
    4    6   10     -0.11      0.00
    5    6   10     -0.11      0.00
    6    6   10      0.14      0.00
    7    6   10      0.09      0.00
   -8    7   10     -0.43      0.00
   -7    7   10      0.15      0.00
   -6    7   10      0.71      0.00
   -5    7   10     -0.20      0.00
   -4    7   10     -1.35      0.00
   -3    7   10      1.66      0.00
   -2    7   10     -0.36      0.00
   -1    7   10     -0.95      0.00
    0    7   10      0.62      0.00
    1    7   10      1.00      0.00
    2    7   10     -1.73      0.00
    3    7   10      0.95      0.00
    4    7   10     -0.02      0.00
    5    7   10     -0.44      0.00
    6    7   10      0.48      0.00
    7    7   10     -0.20      0.00
   -7    8   10      0.16      0.00
   -6    8   10     -0.66      0.00
   -5    8   10      0.29      0.00
   -4    8   10     -0.09      0.00
   -3    8   10      1.01      0.00
   -2    8   10     -1.49      0.00
   -1    8   10      0.67      0.00
    0    8   10      0.23      0.00
    1    8   10     -0.51      0.00
    2    8   10      0.37      0.00
    3    8   10      0.01      0.00
    4    8   10     -0.12      0.00
    5    8   10     -0.17      0.00
    6    8   10      0.19      0.00
   -7    9   10      0.24      0.00
   -6    9   10      0.10      0.00
   -5    9   10      0.53      0.00
   -4    9   10     -1.81      0.00
   -3    9   10      1.91      0.00
   -2    9   10     -0.63      0.00
   -1    9   10     -0.72      0.00
    0    9   10      0.84      0.00
    1    9   10      0.28      0.00
    2    9   10     -0.88      0.00
    3    9   10      0.10      0.00
    4    9   10      0.74      0.00
    5    9   10     -0.83      0.00
    6    9   10      0.65      0.00
   -7   10   10      0.43      0.00
   -6   10   10     -1.04      0.00
   -5   10   10      0.62      0.00
   -4   10   10     -0.01      0.00
   -3   10   10      0.37      0.00
   -2   10   10     -0.56      0.00
   -1   10   10      0.22      0.00
    0   10   10     -0.14      0.00
    1   10   10     -0.05      0.00
    2   10   10      0.24      0.00
    3   10   10      0.31      0.00
    4   10   10     -0.68      0.00
    5   10   10      0.23      0.00
    6   10   10      0.02      0.00
   -6   11   10     -0.11      0.00
   -5   11   10      0.49      0.00
   -4   11   10     -1.17      0.00
   -3   11   10      1.11      0.00
   -2   11   10     -0.41      0.00
   -1   11   10     -0.19      0.00
    0   11   10      0.16      0.00
    1   11   10      0.60      0.00
    2   11   10     -0.87      0.00
    3   11   10     -0.21      0.00
    4   11   10      1.04      0.00
    5   11   10     -0.47      0.00
   -6   12   10     -0.75      0.00
   -5   12   10      0.65      0.00
   -4   12   10     -0.24      0.00
   -3   12   10      0.19      0.00
   -2   12   10      0.01      0.00
   -1   12   10     -0.02      0.00
    0   12   10     -0.52      0.00
    1   12   10      0.33      0.00
    2   12   10      0.33      0.00
    3   12   10      0.20      0.00
    4   12   10     -0.91      0.00
    5   12   10      0.54      0.00
   -6   13   10     -0.05      0.00
   -5   13   10      0.28      0.00
   -4   13   10     -0.59      0.00
   -3   13   10      0.40      0.00
   -2   13   10     -0.03      0.00
   -1   13   10     -0.01      0.00
    0   13   10     -0.25      0.00
    1   13   10      0.89      0.00
    2   13   10     -1.21      0.00
    3   13   10      0.17      0.00
    4   13   10      0.78      0.00
    5   13   10     -0.16      0.00
   -5   14   10      0.34      0.00
   -4   14   10     -0.30      0.00
   -3   14   10     -0.03      0.00
   -2   14   10      0.44      0.00
   -1   14   10     -0.12      0.00
    0   14   10     -0.75      0.00
    1   14   10      0.36      0.00
    2   14   10      0.81      0.00
    3   14   10     -0.61      0.00
    4   14   10     -0.24      0.00
   -4   15   10     -0.47      0.00
   -3   15   10      0.21      0.00
   -2   15   10      0.14      0.00
   -1   15   10     -0.04      0.00
    0   15   10     -0.14      0.00
    1   15   10      0.49      0.00
    2   15   10     -0.97      0.00
    3   15   10      0.57      0.00
   -3   16   10     -0.26      0.00
   -2   16   10      0.60      0.00
   -1   16   10     -0.08      0.00
    0   16   10     -0.72      0.00
    1   16   10      0.27      0.00
    2   16   10      0.85      0.00
   -2   17   10      0.43      0.00
   -1   17   10     -0.19      0.00
    0   17   10      0.08      0.00
    1   17   10     -0.17      0.00
   -8    1   11      0.07      0.00
   -7    1   11      2.13      0.00
   -6    1   11     -2.27      0.00
   -5    1   11     -0.18      0.00
   -4    1   11      1.67      0.00
   -3    1   11     -0.78      0.00
   -2    1   11     -0.25      0.00
   -1    1   11     -0.74      0.00
    0    1   11      2.26      0.00
    1    1   11     -1.83      0.00
    2    1   11     -0.04      0.00
    3    1   11      2.00      0.00
    4    1   11     -3.02      0.00
    5    1   11      2.04      0.00
    6    1   11     -0.60      0.00
    7    1   11      0.56      0.00
   -8    2   11      0.21      0.00
   -7    2   11     -0.12      0.00
   -6    2   11      0.44      0.00
   -5    2   11     -0.57      0.00
   -4    2   11      0.27      0.00
   -3    2   11     -0.06      0.00
   -2    2   11      0.07      0.00
   -1    2   11      0.12      0.00
    0    2   11     -0.73      0.00
    1    2   11      1.47      0.00
    2    2   11     -1.64      0.00
    3    2   11      1.02      0.00
    4    2   11     -0.32      0.00
    5    2   11      0.20      0.00
    6    2   11     -0.53      0.00
    7    2   11      0.73      0.00
   -8    3   11      0.34      0.00
   -7    3   11      1.33      0.00
   -6    3   11     -1.78      0.00
   -5    3   11      0.23      0.00
   -4    3   11      0.89      0.00
   -3    3   11     -0.21      0.00
   -2    3   11     -0.85      0.00
   -1    3   11      0.38      0.00
    0    3   11      0.99      0.00
    1    3   11     -1.34      0.00
    2    3   11      0.41      0.00
    3    3   11      1.00      0.00
    4    3   11     -1.82      0.00
    5    3   11      1.08      0.00
    6    3   11     -0.17      0.00
    7    3   11      0.36      0.00
   -8    4   11      0.00      0.00
   -7    4   11      0.05      0.00
   -6    4   11      0.82      0.00
   -5    4   11     -1.28      0.00
   -4    4   11      0.56      0.00
   -3    4   11      0.23      0.00
   -2    4   11     -0.31      0.00
   -1    4   11      0.18      0.00
    0    4   11     -0.65      0.00
    1    4   11      1.76      0.00
    2    4   11     -2.32      0.00
    3    4   11      1.72      0.00
    4    4   11     -0.84      0.00
    5    4   11      0.53      0.00
    6    4   11     -0.69      0.00
    7    4   11      0.77      0.00
   -8    5   11      0.31      0.00
   -7    5   11      0.33      0.00
   -6    5   11     -0.93      0.00
   -5    5   11      0.48      0.00
   -4    5   11      0.03      0.00
   -3    5   11      0.55      0.00
   -2    5   11     -1.52      0.00
   -1    5   11      1.37      0.00
    0    5   11     -0.08      0.00
    1    5   11     -1.00      0.00
    2    5   11      0.86      0.00
    3    5   11      0.26      0.00
    4    5   11     -1.00      0.00
    5    5   11      0.50      0.00
    6    5   11     -0.06      0.00
    7    5   11      0.34      0.00
   -8    6   11     -0.21      0.00
   -7    6   11      0.31      0.00
   -6    6   11      0.66      0.00
   -5    6   11     -1.11      0.00
   -4    6   11     -0.01      0.00
   -3    6   11      1.20      0.00
   -2    6   11     -1.02      0.00
   -1    6   11     -0.06      0.00
    0    6   11      0.37      0.00
    1    6   11      0.74      0.00
    2    6   11     -1.79      0.00
    3    6   11      1.57      0.00
    4    6   11     -0.78      0.00
    5    6   11      0.25      0.00
    6    6   11     -0.08      0.00
   -7    7   11     -0.24      0.00
   -6    7   11     -0.46      0.00
   -5    7   11      0.61      0.00
   -4    7   11     -0.37      0.00
   -3    7   11      0.86      0.00
   -2    7   11     -1.62      0.00
   -1    7   11      1.50      0.00
    0    7   11     -0.50      0.00
    1    7   11     -0.67      0.00
    2    7   11      0.90      0.00
    3    7   11      0.07      0.00
    4    7   11     -0.72      0.00
    5    7   11      0.31      0.00
    6    7   11     -0.17      0.00
   -7    8   11      0.33      0.00
   -6    8   11      0.20      0.00
   -5    8   11     -0.40      0.00
   -4    8   11     -0.68      0.00
   -3    8   11      1.80      0.00
   -2    8   11     -1.45      0.00
   -1    8   11     -0.11      0.00
    0    8   11      1.06      0.00
    1    8   11     -0.28      0.00
    2    8   11     -0.83      0.00
    3    8   11      0.76      0.00
    4    8   11     -0.10      0.00
    5    8   11     -0.33      0.00
    6    8   11      0.47      0.00
   -7    9   11     -0.12      0.00
   -6    9   11     -0.76      0.00
   -5    9   11      0.97      0.00
   -4    9   11     -0.55      0.00
   -3    9   11      0.79      0.00
   -2    9   11     -1.15      0.00
   -1    9   11      1.02      0.00
    0    9   11     -0.70      0.00
    1    9   11     -0.02      0.00
    2    9   11      0.48      0.00
    3    9   11      0.20      0.00
    4    9   11     -0.68      0.00
    5    9   11      0.19      0.00
    6    9   11     -0.17      0.00
   -7   10   11      0.31      0.00
   -6   10   11     -0.10      0.00
   -5   10   11     -0.12      0.00
   -4   10   11     -0.42      0.00
   -3   10   11      1.17      0.00
   -2   10   11     -1.19      0.00
   -1   10   11      0.21      0.00
    0   10   11      0.67      0.00
    1   10   11     -0.30      0.00
    2   10   11     -0.45      0.00
    3   10   11      0.17      0.00
    4   10   11      0.47      0.00
    5   10   11     -0.46      0.00
   -6   11   11     -0.96      0.00
   -5   11   11      1.09      0.00
   -4   11   11     -0.65      0.00
   -3   11   11      0.62      0.00
   -2   11   11     -0.42      0.00
   -1   11   11      0.23      0.00
    0   11   11     -0.70      0.00
    1   11   11      0.54      0.00
    2   11   11      0.18      0.00
    3   11   11      0.24      0.00
    4   11   11     -0.77      0.00
    5   11   11      0.29      0.00
   -6   12   11     -0.36      0.00
   -5   12   11      0.19      0.00
   -4   12   11     -0.24      0.00
   -3   12   11      0.48      0.00
   -2   12   11     -0.64      0.00
   -1   12   11      0.41      0.00
    0   12   11      0.00      0.00
    1   12   11      0.28      0.00
    2   12   11     -0.83      0.00
    3   12   11      0.34      0.00
    4   12   11      0.53      0.00
    5   12   11     -0.35      0.00
   -5   13   11      0.62      0.00
   -4   13   11     -0.50      0.00
   -3   13   11      0.38      0.00
   -2   13   11      0.28      0.00
   -1   13   11     -0.44      0.00
    0   13   11     -0.62      0.00
    1   13   11      0.72      0.00
    2   13   11      0.41      0.00
    3   13   11     -0.33      0.00
    4   13   11     -0.35      0.00
   -5   14   11      0.47      0.00
   -4   14   11     -0.58      0.00
   -3   14   11      0.42      0.00
   -2   14   11     -0.24      0.00
   -1   14   11      0.25      0.00
    0   14   11     -0.20      0.00
    1   14   11      0.47      0.00
    2   14   11     -1.04      0.00
    3   14   11      0.72      0.00
   -4   15   11     -0.32      0.00
   -3   15   11      0.30      0.00
   -2   15   11      0.44      0.00
   -1   15   11     -0.51      0.00
    0   15   11     -0.63      0.00
    1   15   11      0.68      0.00
    2   15   11      0.59      0.00
    3   15   11     -0.78      0.00
   -3   16   11      0.21      0.00
   -2   16   11      0.26      0.00
   -1   16   11     -0.17      0.00
    0   16   11      0.06      0.00
    1   16   11     -0.03      0.00
   -8    0   12      0.46      0.00
   -7    0   12      1.36      0.00
   -6    0   12     -2.33      0.00
   -5    0   12      0.79      0.00
   -4    0   12      1.01      0.00
   -3    0   12     -1.36      0.00
   -2    0   12      0.57      0.00
   -1    0   12     -0.03      0.00
    0    0   12      0.66      0.00
    1    0   12     -1.48      0.00
    2    0   12      0.93      0.00
    3    0   12      1.07      0.00
    4    0   12     -2.55      0.00
    5    0   12      1.79      0.00
    6    0   12     -0.37      0.00
    7    0   12      0.16      0.00
   -8    1   12      0.34      0.00
   -7    1   12     -0.15      0.00
   -6    1   12      0.12      0.00
   -5    1   12     -0.22      0.00
   -4    1   12      0.18      0.00
   -3    1   12     -0.05      0.00
   -2    1   12     -0.07      0.00
   -1    1   12      0.19      0.00
    0    1   12     -0.29      0.00
    1    1   12      0.47      0.00
    2    1   12     -0.64      0.00
    3    1   12      0.56      0.00
    4    1   12     -0.26      0.00
    5    1   12      0.08      0.00
    6    1   12     -0.13      0.00
    7    1   12      0.25      0.00
   -8    2   12      0.52      0.00
   -7    2   12      1.15      0.00
   -6    2   12     -2.22      0.00
   -5    2   12      1.07      0.00
   -4    2   12      0.58      0.00
   -3    2   12     -1.05      0.00
   -2    2   12      0.24      0.00
   -1    2   12      0.56      0.00
    0    2   12      0.00      0.00
    1    2   12     -1.21      0.00
    2    2   12      1.16      0.00
    3    2   12      0.61      0.00
    4    2   12     -2.05      0.00
    5    2   12      1.37      0.00
    6    2   12     -0.14      0.00
    7    2   12      0.07      0.00
   -8    3   12      0.65      0.00
   -7    3   12     -0.21      0.00
   -6    3   12      0.36      0.00
   -5    3   12     -0.81      0.00
   -4    3   12      0.66      0.00
   -3    3   12     -0.06      0.00
   -2    3   12     -0.42      0.00
   -1    3   12      0.62      0.00
    0    3   12     -0.69      0.00
    1    3   12      1.03      0.00
    2    3   12     -1.50      0.00
    3    3   12      1.42      0.00
    4    3   12     -0.85      0.00
    5    3   12      0.44      0.00
    6    3   12     -0.38      0.00
    7    3   12      0.44      0.00
   -8    4   12      0.46      0.00
   -7    4   12      0.46      0.00
   -6    4   12     -1.46      0.00
   -5    4   12      1.20      0.00
   -4    4   12     -0.12      0.00
   -3    4   12     -0.45      0.00
   -2    4   12     -0.30      0.00
   -1    4   12      1.39      0.00
    0    4   12     -0.89      0.00
    1    4   12     -0.93      0.00
    2    4   12      1.61      0.00
    3    4   12     -0.10      0.00
    4    4   12     -1.37      0.00
    5    4   12      0.86      0.00
    6    4   12      0.08      0.00
   -8    5   12      0.35      0.00
   -7    5   12      0.13      0.00
   -6    5   12      0.26      0.00
   -5    5   12     -1.04      0.00
   -4    5   12      0.76      0.00
   -3    5   12      0.34      0.00
   -2    5   12     -1.02      0.00
   -1    5   12      0.80      0.00
    0    5   12     -0.35      0.00
    1    5   12      0.63      0.00
    2    5   12     -1.34      0.00
    3    5   12      1.48      0.00
    4    5   12     -1.11      0.00
    5    5   12      0.73      0.00
    6    5   12     -0.38      0.00
   -7    6   12     -0.34      0.00
   -6    6   12     -0.37      0.00
   -5    6   12      0.94      0.00
   -4    6   12     -0.63      0.00
   -3    6   12      0.19      0.00
   -2    6   12     -0.68      0.00
   -1    6   12      1.54      0.00
    0    6   12     -1.11      0.00
    1    6   12     -0.73      0.00
    2    6   12      1.66      0.00
    3    6   12     -0.34      0.00
    4    6   12     -1.08      0.00
    5    6   12      0.71      0.00
    6    6   12     -0.09      0.00
   -7    7   12      0.33      0.00
   -6    7   12     -0.09      0.00
   -5    7   12     -0.63      0.00
   -4    7   12      0.35      0.00
   -3    7   12      0.86      0.00
   -2    7   12     -1.47      0.00
   -1    7   12      0.66      0.00
    0    7   12      0.45      0.00
    1    7   12     -0.36      0.00
    2    7   12     -0.48      0.00
    3    7   12      0.83      0.00
    4    7   12     -0.75      0.00
    5    7   12      0.52      0.00
    6    7   12     -0.10      0.00
   -7    8   12     -0.56      0.00
   -6    8   12     -0.13      0.00
   -5    8   12      1.12      0.00
   -4    8   12     -1.21      0.00
   -3    8   12      0.94      0.00
   -2    8   12     -1.02      0.00
   -1    8   12      1.32      0.00
    0    8   12     -1.17      0.00
    1    8   12     -0.03      0.00
    2    8   12      1.00      0.00
    3    8   12     -0.23      0.00
    4    8   12     -0.74      0.00
    5    8   12      0.39      0.00
    6    8   12     -0.19      0.00
   -7    9   12      0.13      0.00
   -6    9   12     -0.15      0.00
   -5    9   12     -0.42      0.00
   -4    9   12      0.37      0.00
   -3    9   12      0.70      0.00
   -2    9   12     -1.51      0.00
   -1    9   12      0.80      0.00
    0    9   12      0.55      0.00
    1    9   12     -0.74      0.00
    2    9   12      0.03      0.00
    3    9   12      0.30      0.00
    4    9   12     -0.25      0.00
    5    9   12      0.18      0.00
   -6   10   12     -0.43      0.00
   -5   10   12      1.26      0.00
   -4   10   12     -1.31      0.00
   -3   10   12      1.19      0.00
   -2   10   12     -0.92      0.00
   -1   10   12      0.68      0.00
    0   10   12     -0.96      0.00
    1   10   12      0.62      0.00
    2   10   12      0.32      0.00
    3   10   12     -0.09      0.00
    4   10   12     -0.48      0.00
    5   10   12      0.09      0.00
   -6   11   12     -0.32      0.00
   -5   11   12     -0.14      0.00
   -4   11   12      0.39      0.00
   -3   11   12      0.29      0.00
   -2   11   12     -1.20      0.00
   -1   11   12      1.03      0.00
    0   11   12      0.02      0.00
    1   11   12     -0.31      0.00
    2   11   12     -0.29      0.00
    3   11   12      0.45      0.00
    4   11   12     -0.06      0.00
    5   11   12     -0.08      0.00
   -5   12   12      0.74      0.00
   -4   12   12     -0.69      0.00
   -3   12   12      0.78      0.00
   -2   12   12     -0.26      0.00
   -1   12   12     -0.29      0.00
    0   12   12     -0.41      0.00
    1   12   12      0.66      0.00
    2   12   12      0.29      0.00
    3   12   12     -0.30      0.00
    4   12   12     -0.29      0.00
   -5   13   12      0.49      0.00
   -4   13   12     -0.28      0.00
   -3   13   12      0.37      0.00
   -2   13   12     -0.76      0.00
   -1   13   12      0.80      0.00
    0   13   12     -0.29      0.00
    1   13   12      0.17      0.00
    2   13   12     -0.76      0.00
    3   13   12      0.80      0.00
    4   13   12     -0.05      0.00
   -4   14   12     -0.29      0.00
   -3   14   12      0.59      0.00
   -2   14   12      0.02      0.00
   -1   14   12     -0.62      0.00
    0   14   12     -0.27      0.00
    1   14   12      0.65      0.00
    2   14   12      0.42      0.00
    3   14   12     -0.62      0.00
   -3   15   12      0.43      0.00
   -2   15   12     -0.20      0.00
   -1   15   12      0.25      0.00
    0   15   12     -0.18      0.00
    1   15   12      0.09      0.00
    2   15   12     -0.48      0.00
   -2   16   12     -0.17      0.00
   -1   16   12     -0.37      0.00
    0   16   12     -0.33      0.00
    1   16   12      0.64      0.00
   -8    1   13      0.34      0.00
   -7    1   13      0.56      0.00
   -6    1   13     -1.72      0.00
   -5    1   13      1.60      0.00
   -4    1   13     -0.45      0.00
   -3    1   13     -1.10      0.00
   -2    1   13      1.49      0.00
   -1    1   13     -0.02      0.00
    0    1   13     -0.82      0.00
    1    1   13     -0.30      0.00
    2    1   13      0.97      0.00
    3    1   13      0.33      0.00
    4    1   13     -1.59      0.00
    5    1   13      1.04      0.00
    6    1   13     -0.05      0.00
   -8    2   13      0.69      0.00
   -7    2   13     -0.38      0.00
   -6    2   13      0.22      0.00
   -5    2   13     -0.38      0.00
   -4    2   13      0.37      0.00
   -3    2   13     -0.07      0.00
   -2    2   13     -0.30      0.00
   -1    2   13      0.49      0.00
    0    2   13     -0.43      0.00
    1    2   13      0.47      0.00
    2    2   13     -0.79      0.00
    3    2   13      0.87      0.00
    4    2   13     -0.53      0.00
    5    2   13      0.22      0.00
    6    2   13     -0.10      0.00
   -8    3   13      0.32      0.00
   -7    3   13      0.41      0.00
   -6    3   13     -1.45      0.00
   -5    3   13      1.69      0.00
   -4    3   13     -0.85      0.00
   -3    3   13     -0.64      0.00
   -2    3   13      0.91      0.00
   -1    3   13      0.71      0.00
    0    3   13     -1.40      0.00
    1    3   13     -0.27      0.00
    2    3   13      1.49      0.00
    3    3   13     -0.28      0.00
    4    3   13     -1.18      0.00
    5    3   13      0.76      0.00
    6    3   13      0.18      0.00
   -7    4   13     -0.16      0.00
   -6    4   13      0.01      0.00
   -5    4   13     -0.53      0.00
   -4    4   13      0.69      0.00
   -3    4   13     -0.02      0.00
   -2    4   13     -0.89      0.00
   -1    4   13      1.26      0.00
    0    4   13     -0.95      0.00
    1    4   13      0.74      0.00
    2    4   13     -1.03      0.00
    3    4   13      1.20      0.00
    4    4   13     -0.97      0.00
    5    4   13      0.68      0.00
    6    4   13     -0.32      0.00
   -7    5   13     -0.17      0.00
   -6    5   13     -0.38      0.00
   -5    5   13      1.19      0.00
   -4    5   13     -1.10      0.00
   -3    5   13     -0.10      0.00
   -2    5   13      0.40      0.00
   -1    5   13      1.02      0.00
    0    5   13     -1.52      0.00
    1    5   13     -0.36      0.00
    2    5   13      1.87      0.00
    3    5   13     -0.72      0.00
    4    5   13     -0.98      0.00
    5    5   13      0.76      0.00
    6    5   13      0.14      0.00
   -7    6   13      0.22      0.00
   -6    6   13     -0.41      0.00
   -5    6   13     -0.34      0.00
   -4    6   13      0.84      0.00
   -3    6   13     -0.15      0.00
   -2    6   13     -1.03      0.00
   -1    6   13      1.30      0.00
    0    6   13     -0.57      0.00
    1    6   13      0.07      0.00
    2    6   13     -0.29      0.00
    3    6   13      0.62      0.00
    4    6   13     -0.87      0.00
    5    6   13      0.90      0.00
    6    6   13     -0.40      0.00
   -7    7   13     -0.52      0.00
   -6    7   13      0.29      0.00
   -5    7   13      1.04      0.00
   -4    7   13     -1.63      0.00
   -3    7   13      0.79      0.00
   -2    7   13     -0.21      0.00
   -1    7   13      0.93      0.00
    0    7   13     -1.37      0.00
    1    7   13      0.00      0.00
    2    7   13      1.49      0.00
    3    7   13     -0.80      0.00
    4    7   13     -0.67      0.00
    5    7   13      0.62      0.00
    6    7   13     -0.06      0.00
   -7    8   13      0.03      0.00
   -6    8   13     -0.36      0.00
   -5    8   13     -0.26      0.00
   -4    8   13      0.96      0.00
   -3    8   13     -0.38      0.00
   -2    8   13     -0.92      0.00
   -1    8   13      1.11      0.00
    0    8   13     -0.04      0.00
    1    8   13     -0.68      0.00
    2    8   13      0.46      0.00
    3    8   13      0.03      0.00
    4    8   13     -0.53      0.00
    5    8   13      0.75      0.00
   -6    9   13      0.10      0.00
   -5    9   13      1.27      0.00
   -4    9   13     -1.99      0.00
   -3    9   13      1.53      0.00
   -2    9   13     -0.78      0.00
   -1    9   13      0.71      0.00
    0    9   13     -1.16      0.00
    1    9   13      0.64      0.00
    2    9   13      0.68      0.00
    3    9   13     -0.68      0.00
    4    9   13     -0.18      0.00
    5    9   13      0.15      0.00
   -6   10   13     -0.14      0.00
   -5   10   13     -0.26      0.00
   -4   10   13      0.88      0.00
   -3   10   13     -0.32      0.00
   -2   10   13     -1.10      0.00
   -1   10   13      1.43      0.00
    0   10   13     -0.32      0.00
    1   10   13     -0.49      0.00
    2   10   13      0.22      0.00
    3   10   13      0.25      0.00
    4   10   13     -0.48      0.00
    5   10   13      0.44      0.00
   -6   11   13      0.01      0.00
   -5   11   13      0.74      0.00
   -4   11   13     -1.13      0.00
   -3   11   13      1.20      0.00
   -2   11   13     -0.67      0.00
   -1   11   13      0.04      0.00
    0   11   13     -0.44      0.00
    1   11   13      0.61      0.00
    2   11   13      0.35      0.00
    3   11   13     -0.55      0.00
    4   11   13     -0.04      0.00
   -5   12   13      0.16      0.00
   -4   12   13      0.26      0.00
   -3   12   13      0.03      0.00
   -2   12   13     -1.03      0.00
   -1   12   13      1.36      0.00
    0   12   13     -0.54      0.00
    1   12   13     -0.05      0.00
    2   12   13     -0.33      0.00
    3   12   13      0.71      0.00
    4   12   13     -0.43      0.00
   -4   13   13     -0.22      0.00
   -3   13   13      0.69      0.00
   -2   13   13     -0.42      0.00
   -1   13   13     -0.45      0.00
    0   13   13      0.13      0.00
    1   13   13      0.30      0.00
    2   13   13      0.43      0.00
    3   13   13     -0.53      0.00
   -3   14   13      0.30      0.00
   -2   14   13     -0.56      0.00
   -1   14   13      0.75      0.00
    0   14   13     -0.40      0.00
    1   14   13      0.03      0.00
    2   14   13     -0.30      0.00
   -3   15   13      0.71      0.00
   -2   15   13     -0.51      0.00
   -1   15   13     -0.32      0.00
    0   15   13      0.02      0.00
    1   15   13      0.38      0.00
   -7    0   14      0.05      0.00
   -6    0   14     -0.63      0.00
   -5    0   14      1.38      0.00
   -4    0   14     -1.53      0.00
   -3    0   14     -0.27      0.00
   -2    0   14      2.06      0.00
   -1    0   14     -0.80      0.00
    0    0   14     -1.12      0.00
    1    0   14      0.55      0.00
    2    0   14      0.40      0.00
    3    0   14      0.39      0.00
    4    0   14     -1.12      0.00
    5    0   14      0.52      0.00
    6    0   14      0.08      0.00
   -7    1   14     -0.25      0.00
   -6    1   14      0.17      0.00
   -5    1   14     -0.18      0.00
   -4    1   14      0.16      0.00
   -3    1   14     -0.09      0.00
   -2    1   14     -0.02      0.00
   -1    1   14      0.13      0.00
    0    1   14     -0.14      0.00
    1    1   14      0.17      0.00
    2    1   14     -0.32      0.00
    3    1   14      0.33      0.00
    4    1   14     -0.16      0.00
    5    1   14      0.05      0.00
    6    1   14     -0.02      0.00
   -7    2   14      0.13      0.00
   -6    2   14     -0.64      0.00
   -5    2   14      1.38      0.00
   -4    2   14     -1.59      0.00
   -3    2   14     -0.11      0.00
   -2    2   14      1.76      0.00
   -1    2   14     -0.51      0.00
    0    2   14     -1.23      0.00
    1    2   14      0.40      0.00
    2    2   14      0.79      0.00
    3    2   14     -0.06      0.00
    4    2   14     -0.82      0.00
    5    2   14      0.36      0.00
    6    2   14      0.21      0.00
   -7    3   14     -0.28      0.00
   -6    3   14      0.06      0.00
   -5    3   14     -0.21      0.00
   -4    3   14      0.33      0.00
   -3    3   14     -0.08      0.00
   -2    3   14     -0.50      0.00
   -1    3   14      0.98      0.00
    0    3   14     -0.92      0.00
    1    3   14      0.74      0.00
    2    3   14     -0.85      0.00
    3    3   14      0.83      0.00
    4    3   14     -0.53      0.00
    5    3   14      0.34      0.00
    6    3   14     -0.17      0.00
   -7    4   14     -0.02      0.00
   -6    4   14     -0.13      0.00
   -5    4   14      0.99      0.00
   -4    4   14     -1.62      0.00
   -3    4   14      0.31      0.00
   -2    4   14      1.09      0.00
   -1    4   14      0.02      0.00
    0    4   14     -1.38      0.00
    1    4   14      0.21      0.00
    2    4   14      1.32      0.00
    3    4   14     -0.69      0.00
    4    4   14     -0.53      0.00
    5    4   14      0.37      0.00
    6    4   14      0.26      0.00
   -7    5   14      0.15      0.00
   -6    5   14     -0.45      0.00
   -5    5   14      0.00      0.00
   -4    5   14      0.63      0.00
   -3    5   14     -0.43      0.00
   -2    5   14     -0.71      0.00
   -1    5   14      1.60      0.00
    0    5   14     -1.38      0.00
    1    5   14      0.77      0.00
    2    5   14     -0.60      0.00
    3    5   14      0.60      0.00
    4    5   14     -0.62      0.00
    5    5   14      0.67      0.00
    6    5   14     -0.33      0.00
   -7    6   14     -0.27      0.00
   -6    6   14      0.49      0.00
   -5    6   14      0.66      0.00
   -4    6   14     -1.83      0.00
   -3    6   14      0.94      0.00
   -2    6   14      0.38      0.00
   -1    6   14      0.29      0.00
    0    6   14     -1.35      0.00
    1    6   14      0.33      0.00
    2    6   14      1.29      0.00
    3    6   14     -0.95      0.00
    4    6   14     -0.40      0.00
    5    6   14      0.55      0.00
   -7    7   14      0.09      0.00
   -6    7   14     -0.49      0.00
   -5    7   14      0.00      0.00
   -4    7   14      1.12      0.00
   -3    7   14     -1.24      0.00
   -2    7   14     -0.09      0.00
   -1    7   14      1.18      0.00
    0    7   14     -0.77      0.00
    1    7   14     -0.10      0.00
    2    7   14      0.37      0.00
    3    7   14     -0.14      0.00
    4    7   14     -0.38      0.00
    5    7   14      0.73      0.00
   -6    8   14      0.31      0.00
   -5    8   14      0.99      0.00
   -4    8   14     -2.20      0.00
   -3    8   14      1.52      0.00
   -2    8   14     -0.21      0.00
   -1    8   14      0.27      0.00
    0    8   14     -1.11      0.00
    1    8   14      0.64      0.00
    2    8   14      0.89      0.00
    3    8   14     -1.12      0.00
    4    8   14      0.08      0.00
    5    8   14      0.27      0.00
   -6    9   14     -0.13      0.00
   -5    9   14     -0.08      0.00
   -4    9   14      1.11      0.00
   -3    9   14     -1.28      0.00
   -2    9   14     -0.12      0.00
   -1    9   14      1.22      0.00
    0    9   14     -0.69      0.00
    1    9   14     -0.31      0.00
    2    9   14      0.57      0.00
    3    9   14     -0.20      0.00
    4    9   14     -0.39      0.00
    5    9   14      0.64      0.00
   -6   10   14      0.12      0.00
   -5   10   14      0.81      0.00
   -4   10   14     -1.58      0.00
   -3   10   14      1.34      0.00
   -2   10   14     -0.49      0.00
   -1   10   14      0.05      0.00
    0   10   14     -0.54      0.00
    1   10   14      0.59      0.00
    2   10   14      0.54      0.00
    3   10   14     -1.00      0.00
    4   10   14      0.33      0.00
   -5   11   14     -0.01      0.00
   -4   11   14      0.59      0.00
   -3   11   14     -0.59      0.00
   -2   11   14     -0.60      0.00
   -1   11   14      1.51      0.00
    0   11   14     -1.00      0.00
    1   11   14      0.10      0.00
    2   11   14      0.03      0.00
    3   11   14      0.32      0.00
    4   11   14     -0.52      0.00
   -5   12   14      0.13      0.00
   -4   12   14     -0.35      0.00
   -3   12   14      0.71      0.00
   -2   12   14     -0.56      0.00
   -1   12   14     -0.19      0.00
    0   12   14      0.14      0.00
    1   12   14      0.17      0.00
    2   12   14      0.44      0.00
    3   12   14     -0.62      0.00
   -4   13   14      0.15      0.00
   -3   13   14     -0.15      0.00
   -2   13   14     -0.46      0.00
   -1   13   14      1.00      0.00
    0   13   14     -0.69      0.00
    1   13   14      0.10      0.00
    2   13   14     -0.08      0.00
   -3   14   14      0.53      0.00
   -2   14   14     -0.65      0.00
   -1   14   14     -0.18      0.00
    0   14   14      0.32      0.00
    1   14   14     -0.01      0.00
   -1   15   14      0.57      0.00
    0   15   14     -0.50      0.00
   -7    1   15     -0.08      0.00
   -6    1   15      0.34      0.00
   -5    1   15      0.43      0.00
   -4    1   15     -1.77      0.00
   -3    1   15      0.79      0.00
   -2    1   15      1.62      0.00
   -1    1   15     -1.21      0.00
    0    1   15     -0.80      0.00
    1    1   15      0.64      0.00
    2    1   15      0.18      0.00
    3    1   15      0.48      0.00
    4    1   15     -0.85      0.00
    5    1   15      0.13      0.00
   -7    2   15     -0.19      0.00
   -6    2   15      0.13      0.00
   -5    2   15     -0.12      0.00
   -4    2   15      0.12      0.00
   -3    2   15     -0.17      0.00
   -2    2   15      0.01      0.00
   -1    2   15      0.37      0.00
    0    2   15     -0.53      0.00
    1    2   15      0.52      0.00
    2    2   15     -0.57      0.00
    3    2   15      0.46      0.00
    4    2   15     -0.20      0.00
    5    2   15      0.13      0.00
   -7    3   15     -0.02      0.00
   -6    3   15      0.45      0.00
   -5    3   15      0.17      0.00
   -4    3   15     -1.58      0.00
   -3    3   15      0.84      0.00
   -2    3   15      1.34      0.00
   -1    3   15     -1.07      0.00
    0    3   15     -0.65      0.00
    1    3   15      0.38      0.00
    2    3   15      0.66      0.00
    3    3   15     -0.30      0.00
    4    3   15     -0.24      0.00
    5    3   15     -0.07      0.00
   -7    4   15      0.16      0.00
   -6    4   15     -0.25      0.00
   -5    4   15      0.09      0.00
   -4    4   15      0.20      0.00
   -3    4   15     -0.31      0.00
   -2    4   15     -0.29      0.00
   -1    4   15      1.18      0.00
    0    4   15     -1.37      0.00
    1    4   15      1.05      0.00
    2    4   15     -0.84      0.00
    3    4   15      0.59      0.00
    4    4   15     -0.28      0.00
    5    4   15      0.25      0.00
   -7    5   15     -0.06      0.00
   -6    5   15      0.69      0.00
   -5    5   15     -0.02      0.00
   -4    5   15     -1.65      0.00
   -3    5   15      1.31      0.00
   -2    5   15      0.54      0.00
   -1    5   15     -0.46      0.00
    0    5   15     -0.91      0.00
    1    5   15      0.64      0.00
    2    5   15      0.60      0.00
    3    5   15     -0.64      0.00
    4    5   15     -0.04      0.00
    5    5   15      0.14      0.00
   -6    6   15     -0.36      0.00
   -5    6   15      0.11      0.00
   -4    6   15      0.69      0.00
   -3    6   15     -1.15      0.00
   -2    6   15      0.27      0.00
   -1    6   15      1.04      0.00
    0    6   15     -1.24      0.00
    1    6   15      0.66      0.00
    2    6   15     -0.28      0.00
    3    6   15      0.12      0.00
    4    6   15     -0.14      0.00
    5    6   15      0.28      0.00
   -6    7   15      0.45      0.00
   -5    7   15      0.34      0.00
   -4    7   15     -1.89      0.00
   -3    7   15      1.57      0.00
   -2    7   15      0.03      0.00
   -1    7   15     -0.17      0.00
    0    7   15     -0.92      0.00
    1    7   15      0.82      0.00
    2    7   15      0.47      0.00
    3    7   15     -0.91      0.00
    4    7   15      0.21      0.00
    5    7   15      0.22      0.00
   -6    8   15     -0.09      0.00
   -5    8   15      0.04      0.00
   -4    8   15      0.94      0.00
   -3    8   15     -1.73      0.00
   -2    8   15      0.85      0.00
   -1    8   15      0.64      0.00
    0    8   15     -0.86      0.00
    1    8   15      0.14      0.00
    2    8   15      0.33      0.00
    3    8   15     -0.28      0.00
    4    8   15     -0.09      0.00
   -6    9   15      0.03      0.00
   -5    9   15      0.65      0.00
   -4    9   15     -1.56      0.00
   -3    9   15      1.16      0.00
   -2    9   15      0.01      0.00
   -1    9   15     -0.30      0.00
    0    9   15     -0.40      0.00
    1    9   15      0.49      0.00
    2    9   15      0.60      0.00
    3    9   15     -1.19      0.00
    4    9   15      0.60      0.00
   -5   10   15      0.12      0.00
   -4   10   15      0.55      0.00
   -3   10   15     -1.21      0.00
   -2   10   15      0.43      0.00
   -1   10   15      0.96      0.00
    0   10   15     -1.18      0.00
    1   10   15      0.39      0.00
    2   10   15      0.20      0.00
    3   10   15     -0.14      0.00
    4   10   15     -0.26      0.00
   -5   11   15      0.28      0.00
   -4   11   15     -0.58      0.00
   -3   11   15      0.56      0.00
   -2   11   15     -0.23      0.00
   -1   11   15     -0.17      0.00
    0   11   15      0.00      0.00
    1   11   15      0.16      0.00
    2   11   15      0.48      0.00
    3   11   15     -0.82      0.00
   -4   12   15      0.31      0.00
   -3   12   15     -0.65      0.00
   -2   12   15      0.15      0.00
   -1   12   15      0.82      0.00
    0   12   15     -1.05      0.00
    1   12   15      0.46      0.00
    2   12   15      0.01      0.00
   -3   13   15      0.28      0.00
   -2   13   15     -0.50      0.00
   -1   13   15      0.00      0.00
    0   13   15      0.21      0.00
    1   13   15     -0.04      0.00
    2   13   15      0.33      0.00
   -2   14   15      0.10      0.00
   -1   14   15      0.38      0.00
    0   14   15     -0.56      0.00
   -7    0   16     -0.08      0.00
   -6    0   16      0.76      0.00
   -5    0   16     -0.51      0.00
   -4    0   16     -1.23      0.00
   -3    0   16      1.39      0.00
   -2    0   16      0.65      0.00
   -1    0   16     -0.95      0.00
    0    0   16     -0.48      0.00
    1    0   16      0.42      0.00
    2    0   16      0.01      0.00
    3    0   16      0.85      0.00
    4    0   16     -1.07      0.00
    5    0   16      0.13      0.00
   -7    1   16     -0.02      0.00
   -6    1   16      0.03      0.00
   -5    1   16     -0.01      0.00
   -4    1   16     -0.03      0.00
   -3    1   16     -0.08      0.00
   -2    1   16      0.11      0.00
   -1    1   16      0.11      0.00
    0    1   16     -0.27      0.00
    1    1   16      0.28      0.00
    2    1   16     -0.29      0.00
    3    1   16      0.24      0.00
    4    1   16     -0.13      0.00
    5    1   16      0.10      0.00
   -7    2   16     -0.05      0.00
   -6    2   16      0.79      0.00
   -5    2   16     -0.66      0.00
   -4    2   16     -0.99      0.00
   -3    2   16      1.16      0.00
   -2    2   16      0.85      0.00
   -1    2   16     -1.23      0.00
    0    2   16     -0.17      0.00
    1    2   16      0.24      0.00
    2    2   16      0.26      0.00
    3    2   16      0.32      0.00
    4    2   16     -0.54      0.00
    5    2   16     -0.09      0.00
   -7    3   16      0.19      0.00
   -6    3   16     -0.11      0.00
   -5    3   16      0.07      0.00
   -4    3   16     -0.08      0.00
   -3    3   16     -0.17      0.00
   -2    3   16      0.10      0.00
   -1    3   16      0.51      0.00
    0    3   16     -0.87      0.00
    1    3   16      0.79      0.00
    2    3   16     -0.69      0.00
    3    3   16      0.48      0.00
    4    3   16     -0.17      0.00
    5    3   16      0.09      0.00
   -6    4   16      0.78      0.00
   -5    4   16     -0.74      0.00
   -4    4   16     -0.93      0.00
   -3    4   16      1.25      0.00
   -2    4   16      0.55      0.00
   -1    4   16     -1.06      0.00
    0    4   16     -0.20      0.00
    1    4   16      0.47      0.00
    2    4   16      0.17      0.00
    3    4   16     -0.20      0.00
    4    4   16      0.07      0.00
    5    4   16     -0.19      0.00
   -6    5   16     -0.15      0.00
   -5    5   16      0.06      0.00
   -4    5   16      0.10      0.00
   -3    5   16     -0.54      0.00
   -2    5   16      0.36      0.00
   -1    5   16      0.57      0.00
    0    5   16     -1.06      0.00
    1    5   16      0.89      0.00
    2    5   16     -0.67      0.00
    3    5   16      0.35      0.00
    4    5   16      0.01      0.00
    5    5   16     -0.09      0.00
   -6    6   16      0.54      0.00
   -5    6   16     -0.36      0.00
   -4    6   16     -1.23      0.00
   -3    6   16      1.56      0.00
   -2    6   16     -0.06      0.00
   -1    6   16     -0.47      0.00
    0    6   16     -0.56      0.00
    1    6   16      0.91      0.00
    2    6   16     -0.17      0.00
    3    6   16     -0.32      0.00
    4    6   16      0.21      0.00
   -6    7   16      0.11      0.00
   -5    7   16     -0.01      0.00
   -4    7   16      0.33      0.00
   -3    7   16     -1.12      0.00
   -2    7   16      1.03      0.00
   -1    7   16      0.10      0.00
    0    7   16     -0.77      0.00
    1    7   16      0.63      0.00
    2    7   16     -0.34      0.00
    3    7   16      0.10      0.00
    4    7   16      0.05      0.00
   -5    8   16      0.14      0.00
   -4    8   16     -1.10      0.00
   -3    8   16      1.02      0.00
   -2    8   16      0.16      0.00
   -1    8   16     -0.56      0.00
    0    8   16     -0.16      0.00
    1    8   16      0.45      0.00
    2    8   16      0.24      0.00
    3    8   16     -0.75      0.00
    4    8   16      0.49      0.00
   -5    9   16      0.17      0.00
   -4    9   16      0.18      0.00
   -3    9   16     -1.14      0.00
   -2    9   16      1.14      0.00
   -1    9   16      0.06      0.00
    0    9   16     -0.87      0.00
    1    9   16      0.62      0.00
    2    9   16     -0.07      0.00
    3    9   16     -0.14      0.00
   -5   10   16      0.28      0.00
   -4   10   16     -0.56      0.00
   -3   10   16      0.30      0.00
   -2   10   16      0.26      0.00
   -1   10   16     -0.47      0.00
    0   10   16      0.17      0.00
    1   10   16     -0.05      0.00
    2   10   16      0.55      0.00
    3   10   16     -0.83      0.00
   -4   11   16      0.09      0.00
   -3   11   16     -0.82      0.00
   -2   11   16      0.87      0.00
   -1   11   16      0.17      0.00
    0   11   16     -1.00      0.00
    1   11   16      0.71      0.00
    2   11   16      0.02      0.00
   -3   12   16      0.08      0.00
   -2   12   16     -0.15      0.00
   -1   12   16      0.02      0.00
    0   12   16      0.01      0.00
    1   12   16      0.03      0.00
    2   12   16      0.27      0.00
   -2   13   16      0.62      0.00
   -1   13   16     -0.04      0.00
    0   13   16     -0.61      0.00
   -6    1   17      0.63      0.00
   -5    1   17     -0.87      0.00
   -4    1   17     -0.37      0.00
   -3    1   17      1.15      0.00
   -2    1   17     -0.06      0.00
   -1    1   17     -0.41      0.00
    0    1   17     -0.30      0.00
    1    1   17      0.12      0.00
    2    1   17      0.11      0.00
    3    1   17      0.74      0.00
    4    1   17     -0.94      0.00
   -6    2   17     -0.15      0.00
   -5    2   17      0.13      0.00
   -4    2   17     -0.25      0.00
   -3    2   17      0.09      0.00
   -2    2   17      0.04      0.00
   -1    2   17      0.28      0.00
    0    2   17     -0.53      0.00
    1    2   17      0.48      0.00
    2    2   17     -0.48      0.00
    3    2   17      0.44      0.00
    4    2   17     -0.27      0.00
   -6    3   17      0.58      0.00
   -5    3   17     -0.95      0.00
   -4    3   17     -0.15      0.00
   -3    3   17      0.86      0.00
   -2    3   17      0.23      0.00
   -1    3   17     -0.77      0.00
    0    3   17      0.00      0.00
    1    3   17      0.16      0.00
    2    3   17      0.07      0.00
    3    3   17      0.27      0.00
    4    3   17     -0.30      0.00
   -6    4   17     -0.08      0.00
   -5    4   17      0.00      0.00
   -4    4   17     -0.26      0.00
   -3    4   17      0.01      0.00
   -2    4   17      0.27      0.00
   -1    4   17      0.15      0.00
    0    4   17     -0.58      0.00
    1    4   17      0.61      0.00
    2    4   17     -0.57      0.00
    3    4   17      0.40      0.00
    4    4   17     -0.06      0.00
   -6    5   17      0.40      0.00
   -5    5   17     -0.70      0.00
   -4    5   17     -0.40      0.00
   -3    5   17      1.09      0.00
   -2    5   17     -0.12      0.00
   -1    5   17     -0.50      0.00
    0    5   17     -0.19      0.00
    1    5   17      0.60      0.00
    2    5   17     -0.34      0.00
    3    5   17      0.13      0.00
    4    5   17      0.03      0.00
   -6    6   17      0.23      0.00
   -5    6   17     -0.14      0.00
   -4    6   17     -0.27      0.00
   -3    6   17     -0.12      0.00
   -2    6   17      0.66      0.00
   -1    6   17     -0.26      0.00
    0    6   17     -0.41      0.00
    1    6   17      0.68      0.00
    2    6   17     -0.66      0.00
    3    6   17      0.36      0.00
    4    6   17      0.06      0.00
   -5    7   17     -0.33      0.00
   -4    7   17     -0.53      0.00
   -3    7   17      0.92      0.00
   -2    7   17     -0.08      0.00
   -1    7   17     -0.46      0.00
    0    7   17     -0.02      0.00
    1    7   17      0.41      0.00
    2    7   17     -0.17      0.00
    3    7   17     -0.12      0.00
   -5    8   17      0.00      0.00
   -4    8   17     -0.38      0.00
   -3    8   17     -0.24      0.00
   -2    8   17      0.96      0.00
   -1    8   17     -0.53      0.00
    0    8   17     -0.40      0.00
    1    8   17      0.75      0.00
    2    8   17     -0.55      0.00
    3    8   17      0.23      0.00
   -4    9   17     -0.32      0.00
   -3    9   17      0.24      0.00
   -2    9   17      0.35      0.00
   -1    9   17     -0.63      0.00
    0    9   17      0.40      0.00
    1    9   17     -0.26      0.00
    2    9   17      0.44      0.00
    3    9   17     -0.49      0.00
   -4   10   17     -0.27      0.00
   -3   10   17     -0.41      0.00
   -2   10   17      1.07      0.00
   -1   10   17     -0.57      0.00
    0   10   17     -0.45      0.00
    1   10   17      0.65      0.00
    2   10   17     -0.13      0.00
   -3   11   17      0.00      0.00
   -2   11   17      0.15      0.00
   -1   11   17     -0.17      0.00
    0   11   17      0.13      0.00
    1   11   17     -0.19      0.00
   -2   12   17      0.88      0.00
   -1   12   17     -0.52      0.00
    0   12   17     -0.36      0.00
   -6    0   18      0.33      0.00
   -5    0   18     -0.51      0.00
   -4    0   18     -0.06      0.00
   -3    0   18      0.71      0.00
   -2    0   18     -0.46      0.00
   -1    0   18      0.38      0.00
    0    0   18     -0.62      0.00
    1    0   18      0.09      0.00
    2    0   18      0.14      0.00
    3    0   18      0.62      0.00
    4    0   18     -0.80      0.00
   -6    1   18     -0.15      0.00
   -5    1   18      0.12      0.00
   -4    1   18     -0.23      0.00
   -3    1   18      0.22      0.00
   -2    1   18     -0.13      0.00
   -1    1   18      0.21      0.00
    0    1   18     -0.27      0.00
    1    1   18      0.23      0.00
    2    1   18     -0.28      0.00
    3    1   18      0.31      0.00
    4    1   18     -0.22      0.00
   -6    2   18      0.25      0.00
   -5    2   18     -0.53      0.00
   -4    2   18      0.08      0.00
   -3    2   18      0.52      0.00
   -2    2   18     -0.27      0.00
   -1    2   18      0.17      0.00
    0    2   18     -0.45      0.00
    1    2   18      0.12      0.00
    2    2   18      0.06      0.00
    3    2   18      0.52      0.00
    4    2   18     -0.60      0.00
   -6    3   18     -0.18      0.00
   -5    3   18      0.08      0.00
   -4    3   18     -0.40      0.00
   -3    3   18      0.38      0.00
   -2    3   18     -0.09      0.00
   -1    3   18      0.19      0.00
    0    3   18     -0.36      0.00
    1    3   18      0.38      0.00
    2    3   18     -0.47      0.00
    3    3   18      0.47      0.00
    4    3   18     -0.26      0.00
   -5    4   18     -0.50      0.00
   -4    4   18      0.11      0.00
   -3    4   18      0.48      0.00
   -2    4   18     -0.26      0.00
   -1    4   18      0.05      0.00
    0    4   18     -0.31      0.00
    1    4   18      0.29      0.00
    2    4   18     -0.22      0.00
    3    4   18      0.42      0.00
   -5    5   18     -0.18      0.00
   -4    5   18     -0.46      0.00
   -3    5   18      0.47      0.00
   -2    5   18      0.17      0.00
   -1    5   18     -0.26      0.00
    0    5   18     -0.11      0.00
    1    5   18      0.40      0.00
    2    5   18     -0.52      0.00
    3    5   18      0.36      0.00
   -5    6   18     -0.40      0.00
   -4    6   18     -0.05      0.00
   -3    6   18      0.58      0.00
   -2    6   18     -0.33      0.00
   -1    6   18     -0.01      0.00
    0    6   18     -0.12      0.00
    1    6   18      0.23      0.00
    2    6   18     -0.21      0.00
    3    6   18      0.23      0.00
   -5    7   18     -0.18      0.00
   -4    7   18     -0.67      0.00
   -3    7   18      0.63      0.00
   -2    7   18      0.32      0.00
   -1    7   18     -0.59      0.00
    0    7   18     -0.04      0.00
    1    7   18      0.61      0.00
    2    7   18     -0.67      0.00
    3    7   18      0.38      0.00
   -4    8   18     -0.09      0.00
   -3    8   18      0.29      0.00
   -2    8   18      0.02      0.00
   -1    8   18     -0.32      0.00
    0    8   18      0.29      0.00
    1    8   18     -0.25      0.00
    2    8   18      0.27      0.00
   -4    9   18     -0.53      0.00
   -3    9   18      0.35      0.00
   -2    9   18      0.60      0.00
   -1    9   18     -0.83      0.00
    0    9   18      0.05      0.00
    1    9   18      0.50      0.00
    2    9   18     -0.33      0.00
   -3   10   18      0.09      0.00
   -2   10   18      0.13      0.00
   -1   10   18     -0.24      0.00
    0   10   18      0.26      0.00
    1   10   18     -0.38      0.00
   -1   11   18     -0.85      0.00
    0   11   18      0.12      0.00
   -5    1   19     -0.02      0.00
   -4    1   19     -0.12      0.00
   -3    1   19      0.21      0.00
   -2    1   19     -0.32      0.00
   -1    1   19      0.78      0.00
    0    1   19     -0.88      0.00
    1    1   19      0.14      0.00
    2    1   19      0.16      0.00
    3    1   19      0.31      0.00
   -5    2   19      0.16      0.00
   -4    2   19     -0.35      0.00
   -3    2   19      0.43      0.00
   -2    2   19     -0.28      0.00
   -1    2   19      0.25      0.00
    0    2   19     -0.24      0.00
    1    2   19      0.25      0.00
    2    2   19     -0.39      0.00
    3    2   19      0.42      0.00
   -5    3   19     -0.05      0.00
   -4    3   19      0.04      0.00
   -3    3   19      0.15      0.00
   -2    3   19     -0.42      0.00
   -1    3   19      0.80      0.00
    0    3   19     -0.81      0.00
    1    3   19      0.25      0.00
    2    3   19     -0.11      0.00
    3    3   19      0.48      0.00
   -5    4   19     -0.05      0.00
   -4    4   19     -0.38      0.00
   -3    4   19      0.58      0.00
   -2    4   19     -0.22      0.00
   -1    4   19      0.04      0.00
    0    4   19     -0.10      0.00
    1    4   19      0.24      0.00
    2    4   19     -0.42      0.00
    3    4   19      0.39      0.00
   -4    5   19      0.13      0.00
   -3    5   19      0.20      0.00
   -2    5   19     -0.52      0.00
   -1    5   19      0.69      0.00
    0    5   19     -0.54      0.00
    1    5   19      0.16      0.00
    2    5   19     -0.15      0.00
   -4    6   19     -0.50      0.00
   -3    6   19      0.81      0.00
   -2    6   19     -0.18      0.00
   -1    6   19     -0.26      0.00
    0    6   19      0.04      0.00
    1    6   19      0.32      0.00
    2    6   19     -0.43      0.00
   -4    7   19      0.06      0.00
   -3    7   19      0.19      0.00
   -2    7   19     -0.32      0.00
   -1    7   19      0.31      0.00
    0    7   19     -0.15      0.00
    1    7   19     -0.11      0.00
    2    7   19      0.17      0.00
   -3    8   19      0.75      0.00
   -2    8   19      0.00      0.00
   -1    8   19     -0.56      0.00
    0    8   19      0.20      0.00
    1    8   19      0.29      0.00
   -2    9   19     -0.08      0.00
   -1    9   19      0.03      0.00
    0    9   19      0.02      0.00
   -4    0   20     -0.37      0.00
   -3    0   20      0.00      0.00
   -2    0   20     -0.02      0.00
   -1    0   20      0.84      0.00
    0    0   20     -0.99      0.00
    1    0   20      0.06      0.00
    2    0   20      0.29      0.00
   -4    1   20     -0.15      0.00
   -3    1   20      0.17      0.00
   -2    1   20     -0.10      0.00
   -1    1   20      0.07      0.00
    0    1   20     -0.05      0.00
    1    1   20      0.06      0.00
    2    1   20     -0.16      0.00
   -4    2   20     -0.25      0.00
   -3    2   20      0.01      0.00
   -2    2   20     -0.20      0.00
   -1    2   20      0.99      0.00
    0    2   20     -1.04      0.00
    1    2   20      0.16      0.00
    2    2   20      0.09      0.00
   -4    3   20     -0.28      0.00
   -3    3   20      0.37      0.00
   -2    3   20     -0.23      0.00
   -1    3   20      0.16      0.00
    0    3   20     -0.10      0.00
    1    3   20      0.14      0.00
    2    3   20     -0.33      0.00
   -4    4   20      0.02      0.00
   -3    4   20      0.01      0.00
   -2    4   20     -0.49      0.00
   -1    4   20      1.13      0.00
    0    4   20     -0.95      0.00
    1    4   20      0.21      0.00
    2    4   20     -0.13      0.00
   -4    5   20     -0.24      0.00
   -3    5   20      0.52      0.00
   -2    5   20     -0.32      0.00
   -1    5   20      0.10      0.00
    0    5   20     -0.07      0.00
    1    5   20      0.16      0.00
   -3    6   20      0.01      0.00
   -2    6   20     -0.48      0.00
   -1    6   20      0.88      0.00
    0    6   20     -0.64      0.00
    1    6   20      0.09      0.00
   -2    7   20     -0.27      0.00
   -1    7   20     -0.12      0.00
    0    7   20      0.08      0.00
   -1    8   20      0.42      0.00
   -3    1   21     -0.01      0.00
   -2    1   21      0.17      0.00
   -1    1   21      0.67      0.00
    0    1   21     -0.87      0.00
    1    1   21     -0.06      0.00
   -3    2   21      0.07      0.00
   -2    2   21      0.04      0.00
   -1    2   21      0.00      0.00
    0    2   21      0.02      0.00
    1    2   21     -0.04      0.00
   -3    3   21     -0.06      0.00
   -2    3   21     -0.11      0.00
   -1    3   21      0.90      0.00
    0    3   21     -0.91      0.00
    1    3   21      0.08      0.00
   -2    4   21     -0.10      0.00
   -1    4   21      0.14      0.00
    0    4   21     -0.08      0.00
   -1    5   21      0.98      0.00
    0    5   21     -0.85      0.00
    9    5    0     -0.27      0.00
    7   13    0     -0.02      0.00
    6   15    0     -0.40      0.00
    9    5    1      0.88      0.00
    8   10    1     -0.54      0.00
   -7   13    1     -0.98      0.00
    7   13    1     -0.12      0.00
    6   15    1     -0.29      0.00
    9    4    2      0.45      0.00
    9    2    3      0.17      0.00
    9    3    3     -0.07      0.00
    2   19    3     -0.47      0.00
    9    0    4     -0.19      0.00
   -9    5    4      0.61      0.00
    7   12    4      0.38      0.00
   -7   13    4      0.23      0.00
   -6   15    4     -0.10      0.00
    5   16    4     -0.08      0.00
   -2   19    4      0.52      0.00
   -9    5    5      0.25      0.00
    8    8    5     -0.03      0.00
   -8   10    5      0.09      0.00
   -7   13    5      0.06      0.00
    6   14    5      0.47      0.00
   -6   15    5     -0.81      0.00
    4   17    5     -0.03      0.00
    3   18    5      0.02      0.00
    1   19    5      0.18      0.00
   -9    5    6     -0.03      0.00
    8    7    6      0.27      0.00
    7   11    6     -0.76      0.00
   -1   19    6     -0.38      0.00
    0   19    6      0.26      0.00
   -9    4    7      0.33      0.00
    8    6    7      0.74      0.00
    6   13    7      0.82      0.00
   -5   16    7      0.07      0.00
   -4   17    7      0.78      0.00
    2   18    7      0.13      0.00
   -9    3    8      0.64      0.00
   -8    9    8      0.00      0.00
   -7   12    8     -0.40      0.00
   -6   14    8      0.07      0.00
    3   17    8      0.35      0.00
    1   18    8     -0.22      0.00
   -9    1    9      0.36      0.00
    8    1    9     -1.41      0.00
    8    2    9      0.20      0.00
   -1   18    9     -0.01      0.00
    0   18    9     -0.05      0.00
   -7   11   10      0.25      0.00
    6   11   10     -0.14      0.00
   -4   16   10     -0.17      0.00
    3   16   10     -0.79      0.00
    7    6   11      0.17      0.00
    6   10   11      0.21      0.00
    4   14   11      0.22      0.00
    2   16   11     -0.39      0.00
   -1   17   11     -0.24      0.00
    0   17   11     -0.48      0.00
    7    4   12      0.03      0.00
   -6   12   12     -0.39      0.00
   -4   15   12     -0.61      0.00
   -8    4   13      0.67      0.00
   -5   13   13      0.18      0.00
   -4   14   13     -0.32      0.00
    3   14   13      0.56      0.00
   -1   16   13      0.32      0.00
    3   13   14      0.38      0.00
    2   14   14      0.38      0.00
   -2   15   14     -0.28      0.00
    6    1   15      0.23      0.00
    6    2   15     -0.13      0.00
   -7    6   15      0.22      0.00
    3   12   15      0.04      0.00
    1   14   15      0.20      0.00
   -7    4   16      0.01      0.00
   -6    8   16      0.12      0.00
    4    9   16     -0.02      0.00
    1   13   16      0.50      0.00
    5    1   17      0.15      0.00
    5    2   17      0.15      0.00
    4    7   17      0.19      0.00
   -5    9   17     -0.03      0.00
    2   11   17      0.39      0.00
    1   12   17      0.53      0.00
   -6    4   18      0.10      0.00
    4    4   18     -0.29      0.00
   -2   11   18      0.71      0.00
   -5    5   19     -0.18      0.00
    3    5   19      0.41      0.00
   -3    9   19      0.16      0.00
    1    9   19     -0.23      0.00
   -1   10   19     -0.76      0.00
   -5    0   20      0.21      0.00
   -5    1   20      0.11      0.00
    2    5   20     -0.28      0.00
   -3    7   20      0.56      0.00
    1    7   20      0.09      0.00
   -2    8   20     -0.21      0.00
    0    8   20     -0.37      0.00
   -3    4   21      0.15      0.00
    1    4   21      0.01      0.00
   -2    5   21     -0.34      0.00
   -1    6   21      0.14      0.00
    0    0    0      0.00      0.00
# SQUEEZE RESULTS (Version =  71116)
# Note: Data are Listed for all Voids in the P1 Unit Cell
# i.e. Centre of Gravity, Solvent Accessible Volume,
# Recovered number of Electrons in the Void and
# Details about the Squeezed Material
loop_
  _platon_squeeze_void_nr
  _platon_squeeze_void_average_x
  _platon_squeeze_void_average_y
  _platon_squeeze_void_average_z
  _platon_squeeze_void_volume
  _platon_squeeze_void_count_electrons
  _platon_squeeze_void_content
   1  0.500  0.000  0.000       115        27 ' '
   2  0.500  0.500  0.500       115        27 ' '
_platon_squeeze_void_probe_radius                  1.20
_platon_squeeze_details
)
TITL a         P 21/c       R = 0.08
CELL    7.7565   16.3013   18.1525     90.00     97.09     90.00
SPGR P21/c
# Solvent Accessible Volume =       227
# Electrons Found in S.A.V. =        53
# Note: Atoms in Void as Cxxx and Qxxx all others
Q101 0.696 0.468 0.396 !       2.49 eA-3
Q102 0.523 0.521 0.464 !       1.98 eA-3
Q103 0.031 0.560 0.325 !       1.89 eA-3
Q104 0.561 0.054 0.015 !       1.82 eA-3
Q105 0.727 0.633 0.352 !       1.51 eA-3
Q106 0.763 0.303 0.191 !       1.24 eA-3
Q107 0.955 0.972 0.237 !       1.14 eA-3
Q108 0.794 0.124 0.171 !       1.12 eA-3
Q109 0.775 0.334 0.279 !       1.10 eA-3
Q110 0.415 0.018 0.076 !       1.10 eA-3
Q111 0.100 0.175 0.728 !       0.95 eA-3
Q112 0.961 0.966 0.346 !       0.94 eA-3
Q113 0.100 0.935 0.183 !       0.86 eA-3
Q114 0.218 0.505 0.469 !       0.84 eA-3
Q115 0.597 0.532 0.761 !       0.80 eA-3
Q116 0.865 0.881 0.816 !       0.79 eA-3
Q117 0.525 0.641 0.073 !       0.75 eA-3
C118 0.682 0.503 0.456 !       0.73 eA-3
Q119 0.722 0.485 0.206 !       0.70 eA-3
Q120 0.048 0.638 0.324 !       0.62 eA-3
Q121 0.472 0.501 0.380 !       0.59 eA-3
Q122 0.291 0.935 0.011 !       0.59 eA-3
Q123 0.118 0.873 0.237 !       0.58 eA-3
Q124 0.407 0.189 0.702 !       0.58 eA-3
Q125 0.914 0.707 0.333 !       0.58 eA-3
Q126 0.832 0.537 0.782 !       0.57 eA-3
Q127 0.719 0.671 0.138 !       0.54 eA-3
Q128 0.562 0.078 0.176 !       0.53 eA-3
Q129 0.904 0.632 0.394 !       0.52 eA-3
Q130 0.280 0.403 0.926 !       0.50 eA-3
)
;
_shelx_fab_checksum              12315
loop_
_space_group_symop_operation_xyz
'x, y, z'
'-x, y+1/2, -z+1/2'
'-x, -y, -z'
'x, -y-1/2, z-1/2'
loop_
_atom_site_label
_atom_site_type_symbol
_atom_site_fract_x
_atom_site_fract_y
_atom_site_fract_z
_atom_site_U_iso_or_equiv
_atom_site_adp_type
_atom_site_occupancy
_atom_site_site_symmetry_order
_atom_site_calc_flag
_atom_site_refinement_flags_posn
_atom_site_refinement_flags_adp
_atom_site_refinement_flags_occupancy
_atom_site_disorder_assembly
_atom_site_disorder_group
Zn1 Zn 0.23757(9) 0.82295(4) 0.26776(4) 0.0198(2) Uani 1 1 d . . . . .
Zn2 Zn -0.03729(9) 0.97303(4) 0.28908(4) 0.0203(2) Uani 1 1 d . . . . .
O2 O 0.1964(6) 0.6835(2) -0.1283(2) 0.0255(9) Uani 1 1 d . . . . .
O4 O 0.1317(5) 0.9243(2) 0.2329(2) 0.0238(8) Uani 1 1 d . . . . .
O1 O 0.0711(5) 0.5642(2) -0.1053(2) 0.0232(8) Uani 1 1 d . . . . .
N2 N 0.1809(6) 0.7180(3) 0.2159(2) 0.0213(9) Uani 1 1 d . . . . .
N6 N -0.5038(7) 0.8421(3) 0.2701(3) 0.0258(10) Uani 1 1 d . . . . .
C7 C 0.1294(7) 0.6448(3) 0.2399(3) 0.0213(11) Uani 1 1 d . . . . .
C1 C 0.1196(7) 0.6291(3) 0.1212(3) 0.0185(10) Uani 1 1 d . . . . .
N3 N -0.2488(6) 0.8995(3) 0.2778(3) 0.0251(10) Uani 1 1 d . . . . .
C10 C 0.1376(7) 0.6327(3) -0.0855(3) 0.0194(10) Uani 1 1 d . . . . .
N1 N 0.0931(6) 0.5888(3) 0.1865(2) 0.0191(9) Uani 1 1 d . . . . .
C2 C 0.1061(7) 0.6016(3) 0.0475(3) 0.0198(10) Uani 1 1 d . . . . .
H2 H 0.0689 0.5487 0.0346 0.024 Uiso 1 1 calc R U . . .
C4 C 0.2070(8) 0.7371(3) 0.0146(3) 0.0254(12) Uani 1 1 d . . . . .
H4 H 0.2365 0.7726 -0.0219 0.031 Uiso 1 1 calc R U . . .
C3 C 0.1505(7) 0.6567(3) -0.0055(3) 0.0197(10) Uani 1 1 d . . . . .
C6 C 0.1750(7) 0.7086(3) 0.1402(3) 0.0201(11) Uani 1 1 d . . . . .
C5 C 0.2194(9) 0.7640(4) 0.0868(3) 0.0287(13) Uani 1 1 d . . . . .
H5 H 0.2559 0.8170 0.0996 0.034 Uiso 1 1 calc R U . . .
O5 O -0.2067(10) 0.8284(4) 0.0154(4) 0.0669(17) Uani 1 1 d . . . . .
N7 N -0.3038(7) 0.7016(4) 0.0368(3) 0.0362(12) Uani 1 1 d . . . . .
N5 N -0.3902(7) 0.7885(4) 0.2499(4) 0.0418(14) Uani 1 1 d . . . . .
C15 C -0.2389(11) 0.7745(5) 0.0584(4) 0.0502(19) Uani 1 1 d . . . . .
H15 H -0.2170 0.7850 0.1091 0.060 Uiso 1 1 calc R U . . .
C13 C -0.3376(12) 0.6795(6) -0.0408(4) 0.054(2) Uani 1 1 d . . . . .
H13A H -0.3838 0.6249 -0.0452 0.081 Uiso 1 1 calc R U . . .
H13B H -0.4200 0.7172 -0.0659 0.081 Uiso 1 1 calc R U . . .
H13C H -0.2313 0.6819 -0.0627 0.081 Uiso 1 1 calc R U . . .
C11 C -0.4136(8) 0.9108(4) 0.2863(3) 0.0275(12) Uani 1 1 d . . . . .
N4 N -0.2356(8) 0.8208(3) 0.2546(4) 0.0451(15) Uani 1 1 d . . . . .
C14 C -0.3459(10) 0.6425(5) 0.0909(5) 0.0498(19) Uani 1 1 d . . . . .
H14A H -0.3909 0.5936 0.0660 0.075 Uiso 1 1 calc R U . . .
H14B H -0.2432 0.6293 0.1239 0.075 Uiso 1 1 calc R U . . .
H14C H -0.4318 0.6651 0.1189 0.075 Uiso 1 1 calc R U . . .
C12 C -0.4878(11) 0.9872(5) 0.3142(7) 0.066(3) Uani 1 1 d . . . . .
H12A H -0.6103 0.9802 0.3154 0.100 Uiso 1 1 calc R U . . .
H12B H -0.4324 0.9988 0.3634 0.100 Uiso 1 1 calc R U . . .
H12C H -0.4685 1.0320 0.2819 0.100 Uiso 1 1 calc R U . . .
O6 O 2.9906(13) 0.5442(5) 0.5670(5) 0.086(3) Uani 1 1 d G U . . .
H6A H 2.9848 0.5656 0.6093 0.128 Uiso 1 1 d G U . . .
H6B H 2.9205 0.5687 0.5345 0.128 Uiso 1 1 d G U . . .
O3 O 0.1480(8) 0.5381(3) 0.3265(3) 0.0486(13) Uani 0.310(19) 1 d . . P A 1
C8 C 0.1218(10) 0.6254(4) 0.3204(3) 0.0355(15) Uani 0.310(19) 1 d . U P A 1
C9 C 0.334(4) 0.6232(13) 0.3565(11) 0.045(6) Uani 0.310(19) 1 d . U P A 1
O3A O 0.1480(8) 0.5381(3) 0.3265(3) 0.0486(13) Uani 0.690(19) 1 d . . P A 2
C8A C 0.1218(10) 0.6254(4) 0.3204(3) 0.0355(15) Uani 0.690(19) 1 d . . P A 2
C9A C -0.0668(14) 0.6421(6) 0.3407(5) 0.039(3) Uani 0.690(19) 1 d . . P A 2
loop_
_atom_site_aniso_label
_atom_site_aniso_U_11
_atom_site_aniso_U_22
_atom_site_aniso_U_33
_atom_site_aniso_U_23
_atom_site_aniso_U_13
_atom_site_aniso_U_12
Zn1 0.0281(4) 0.0145(4) 0.0174(4) -0.0027(3) 0.0047(3) -0.0016(3)
Zn2 0.0277(4) 0.0147(4) 0.0185(4) -0.0003(3) 0.0029(3) 0.0038(3)
O2 0.041(2) 0.020(2) 0.0156(18) 0.0012(15) 0.0058(16) -0.0060(17)
O4 0.031(2) 0.0180(19) 0.0231(19) 0.0005(15) 0.0067(16) 0.0010(16)
O1 0.034(2) 0.0189(19) 0.0164(17) -0.0017(14) 0.0001(15) -0.0053(16)
N2 0.031(2) 0.015(2) 0.018(2) -0.0009(17) 0.0047(18) -0.0030(18)
N6 0.033(3) 0.016(2) 0.029(2) -0.0063(19) 0.006(2) -0.0011(19)
C7 0.028(3) 0.018(3) 0.019(3) -0.001(2) 0.005(2) 0.002(2)
C1 0.021(3) 0.017(3) 0.018(2) 0.001(2) 0.0028(19) 0.001(2)
N3 0.028(2) 0.021(2) 0.026(2) -0.0054(19) 0.0027(19) 0.0006(19)
C10 0.026(3) 0.013(2) 0.020(3) 0.002(2) 0.001(2) 0.003(2)
N1 0.025(2) 0.015(2) 0.018(2) -0.0004(17) 0.0042(17) -0.0056(18)
C2 0.024(3) 0.014(2) 0.020(3) 0.000(2) 0.000(2) -0.002(2)
C4 0.039(3) 0.018(3) 0.019(3) 0.002(2) 0.004(2) -0.004(2)
C3 0.022(3) 0.018(3) 0.019(3) -0.001(2) 0.002(2) 0.002(2)
C6 0.024(3) 0.017(3) 0.020(3) -0.004(2) 0.003(2) 0.001(2)
C5 0.048(4) 0.016(3) 0.023(3) -0.004(2) 0.007(2) -0.005(2)
O5 0.088(5) 0.047(3) 0.068(4) 0.003(3) 0.019(3) -0.018(3)
N7 0.032(3) 0.043(3) 0.034(3) 0.001(2) 0.006(2) 0.005(2)
N5 0.027(3) 0.029(3) 0.071(4) -0.009(3) 0.013(3) -0.003(2)
C15 0.056(5) 0.053(5) 0.043(4) -0.003(4) 0.011(3) 0.000(4)
C13 0.056(5) 0.065(5) 0.041(4) -0.010(4) 0.002(3) -0.008(4)
C11 0.025(3) 0.022(3) 0.035(3) -0.008(2) 0.000(2) 0.001(2)
N4 0.040(3) 0.018(3) 0.080(5) -0.016(3) 0.017(3) 0.001(2)
C14 0.043(4) 0.051(5) 0.056(5) 0.016(4) 0.010(3) 0.008(4)
C12 0.040(4) 0.040(5) 0.121(8) -0.037(5) 0.017(5) -0.006(4)
O6 0.123(7) 0.059(4) 0.086(5) 0.036(4) 0.054(5) 0.033(4)
O3 0.082(4) 0.032(3) 0.032(3) 0.005(2) 0.008(2) -0.007(3)
C8 0.070(5) 0.018(3) 0.019(3) 0.002(2) 0.007(3) -0.007(3)
C9 0.081(12) 0.025(11) 0.024(11) -0.008(8) -0.008(10) 0.012(11)
O3A 0.082(4) 0.032(3) 0.032(3) 0.005(2) 0.008(2) -0.007(3)
C8A 0.070(5) 0.018(3) 0.019(3) 0.002(2) 0.007(3) -0.007(3)
C9A 0.052(6) 0.037(6) 0.033(5) 0.008(4) 0.019(4) 0.006(5)
loop_
_atom_type_symbol
_atom_type_description
_atom_type_scat_dispersion_real
_atom_type_scat_dispersion_imag
_atom_type_scat_source
C C 0.0181 0.0091 'International Tables Vol C Tables 4.2.6.8 and 6.1.1.4'
H H 0.0000 0.0000 'International Tables Vol C Tables 4.2.6.8 and 6.1.1.4'
N N 0.0311 0.0180 'International Tables Vol C Tables 4.2.6.8 and 6.1.1.4'
O O 0.0492 0.0322 'International Tables Vol C Tables 4.2.6.8 and 6.1.1.4'
Zn Zn -1.5491 0.6778 'International Tables Vol C Tables 4.2.6.8 and 6.1.1.4'
loop_
_geom_angle_atom_site_label_1
_geom_angle_atom_site_label_2
_geom_angle_atom_site_label_3
_geom_angle
_geom_angle_site_symmetry_1
_geom_angle_site_symmetry_3
O4 Zn1 O2 104.53(16) . 4_576
O4 Zn1 N2 121.85(18) . .
O2 Zn1 N2 111.08(17) 4_576 .
O4 Zn1 N6 104.88(18) . 1_655
O2 Zn1 N6 105.50(19) 4_576 1_655
N2 Zn1 N6 107.78(19) . 1_655
O4 Zn2 N1 133.33(18) . 2
O4 Zn2 N3 107.36(18) . .
N1 Zn2 N3 112.77(19) 2 .
O4 Zn2 O1 98.25(16) . 4_576
N1 Zn2 O1 98.31(16) 2 4_576
N3 Zn2 O1 98.66(18) . 4_576
O4 Zn2 O3A 85.02(17) . 2
N1 Zn2 O3A 73.37(17) 2 2
N3 Zn2 O3A 88.6(2) . 2
O1 Zn2 O3A 170.69(17) 4_576 2
O4 Zn2 O3 85.02(17) . 2
N1 Zn2 O3 73.37(17) 2 2
N3 Zn2 O3 88.6(2) . 2
O1 Zn2 O3 170.69(17) 4_576 2
C10 O2 Zn1 132.4(4) . 4_575
Zn1 O4 Zn2 118.14(19) . .
C10 O1 Zn2 128.5(3) . 4_575
C7 N2 C6 104.4(4) . .
C7 N2 Zn1 132.1(4) . .
C6 N2 Zn1 123.3(4) . .
N5 N6 C11 105.4(5) . .
N5 N6 Zn1 125.7(4) . 1_455
C11 N6 Zn1 128.7(4) . 1_455
N1 C7 N2 114.5(5) . .
N1 C7 C8A 122.2(5) . .
N2 C7 C8A 123.3(5) . .
N1 C7 C8 122.2(5) . .
N2 C7 C8 123.3(5) . .
N1 C1 C2 131.3(5) . .
N1 C1 C6 107.5(4) . .
C2 C1 C6 121.1(5) . .
C11 N3 N4 106.2(5) . .
C11 N3 Zn2 133.8(4) . .
N4 N3 Zn2 120.0(4) . .
O1 C10 O2 124.9(5) . .
O1 C10 C3 118.9(5) . .
O2 C10 C3 116.2(5) . .
C7 N1 C1 104.8(4) . .
C7 N1 Zn2 121.1(4) . 2_545
C1 N1 Zn2 133.9(4) . 2_545
C3 C2 C1 117.3(5) . .
C3 C2 H2 121.4 . .
C1 C2 H2 121.4 . .
C5 C4 C3 121.6(5) . .
C5 C4 H4 119.2 . .
C3 C4 H4 119.2 . .
C2 C3 C4 121.0(5) . .
C2 C3 C10 120.7(5) . .
C4 C3 C10 118.3(5) . .
N2 C6 C5 129.7(5) . .
N2 C6 C1 108.8(5) . .
C5 C6 C1 121.5(5) . .
C4 C5 C6 117.5(5) . .
C4 C5 H5 121.2 . .
C6 C5 H5 121.2 . .
C15 N7 C14 120.4(6) . .
C15 N7 C13 121.7(7) . .
C14 N7 C13 117.9(7) . .
N4 N5 N6 110.7(5) . .
O5 C15 N7 123.6(8) . .
O5 C15 H15 118.2 . .
N7 C15 H15 118.2 . .
N7 C13 H13A 109.5 . .
N7 C13 H13B 109.5 . .
H13A C13 H13B 109.5 . .
N7 C13 H13C 109.5 . .
H13A C13 H13C 109.5 . .
H13B C13 H13C 109.5 . .
N3 C11 N6 110.3(5) . .
N3 C11 C12 125.3(6) . .
N6 C11 C12 124.3(6) . .
N5 N4 N3 107.3(5) . .
N7 C14 H14A 109.5 . .
N7 C14 H14B 109.5 . .
H14A C14 H14B 109.5 . .
N7 C14 H14C 109.5 . .
H14A C14 H14C 109.5 . .
H14B C14 H14C 109.5 . .
C11 C12 H12A 109.5 . .
C11 C12 H12B 109.5 . .
H12A C12 H12B 109.5 . .
C11 C12 H12C 109.5 . .
H12A C12 H12C 109.5 . .
H12B C12 H12C 109.5 . .
H6A O6 H6B 109.5 . .
C8 O3 Zn2 109.6(4) . 2_545
O3 C8 C7 105.1(5) . .
O3 C8 C9 80.1(9) . .
C7 C8 C9 103.2(9) . .
C8A O3A Zn2 109.6(4) . 2_545
O3A C8A C7 105.1(5) . .
O3A C8A C9A 106.2(6) . .
C7 C8A C9A 109.9(6) . .
loop_
_geom_bond_atom_site_label_1
_geom_bond_atom_site_label_2
_geom_bond_distance
_geom_bond_site_symmetry_2
Zn1 O4 1.918(4) .
Zn1 O2 1.955(4) 4_576
Zn1 N2 1.976(4) .
Zn1 N6 2.025(5) 1_655
Zn2 O4 1.928(4) .
Zn2 N1 1.998(4) 2
Zn2 N3 2.022(5) .
Zn2 O1 2.087(4) 4_576
Zn2 O3A 2.413(5) 2
Zn2 O3 2.413(5) 2
O2 C10 1.260(6) .
O2 Zn1 1.955(4) 4_575
O1 C10 1.263(6) .
O1 Zn2 2.087(4) 4_575
N2 C7 1.348(7) .
N2 C6 1.377(7) .
N6 N5 1.324(7) .
N6 C11 1.333(8) .
N6 Zn1 2.025(5) 1_455
C7 N1 1.335(7) .
C7 C8A 1.503(8) .
C7 C8 1.503(8) .
C1 N1 1.393(7) .
C1 C2 1.403(7) .
C1 C6 1.395(7) .
N3 C11 1.319(8) .
N3 N4 1.358(7) .
C10 C3 1.495(7) .
N1 Zn2 1.998(4) 2_545
C2 C3 1.389(7) .
C2 H2 0.9300 .
C4 C5 1.373(8) .
C4 C3 1.416(8) .
C4 H4 0.9300 .
C6 C5 1.399(8) .
C5 H5 0.9300 .
O5 C15 1.223(10) .
N7 C15 1.330(10) .
N7 C14 1.442(9) .
N7 C13 1.446(9) .
N5 N4 1.303(8) .
C15 H15 0.9300 .
C13 H13A 0.9600 .
C13 H13B 0.9600 .
C13 H13C 0.9600 .
C11 C12 1.487(9) .
C14 H14A 0.9600 .
C14 H14B 0.9600 .
C14 H14C 0.9600 .
C12 H12A 0.9600 .
C12 H12B 0.9600 .
C12 H12C 0.9600 .
O6 H6A 0.8499 .
O6 H6B 0.8498 .
O3 C8 1.440(8) .
O3 Zn2 2.413(5) 2_545
C8 C9 1.69(3) .
O3A C8A 1.440(8) .
O3A Zn2 2.413(5) 2_545
C8A C9A 1.575(13) .
